# Generated by pormake.
# Topology mer, (4)-cn, num edge types: 1
# Building blocks:
#     Node 0, Type 0, BuildingBlock: KUFVIS_clean_sbu_0, # of connection points: 4
#     Node 1, Type 0, BuildingBlock: KUFVIS_clean_sbu_0, # of connection points: 4
#     Node 2, Type 0, BuildingBlock: KUFVIS_clean_sbu_0, # of connection points: 4
#     Node 3, Type 0, BuildingBlock: KUFVIS_clean_sbu_0, # of connection points: 4
#     Node 4, Type 0, BuildingBlock: KUFVIS_clean_sbu_0, # of connection points: 4
#     Node 5, Type 0, BuildingBlock: KUFVIS_clean_sbu_0, # of connection points: 4
#     Node 6, Type 0, BuildingBlock: KUFVIS_clean_sbu_0, # of connection points: 4
#     Node 7, Type 0, BuildingBlock: KUFVIS_clean_sbu_0, # of connection points: 4
#     Node 8, Type 0, BuildingBlock: KUFVIS_clean_sbu_0, # of connection points: 4
#     Node 9, Type 0, BuildingBlock: KUFVIS_clean_sbu_0, # of connection points: 4
#     Node 10, Type 0, BuildingBlock: KUFVIS_clean_sbu_0, # of connection points: 4
#     Node 11, Type 0, BuildingBlock: KUFVIS_clean_sbu_0, # of connection points: 4
#     Node 12, Type 0, BuildingBlock: KUFVIS_clean_sbu_0, # of connection points: 4
#     Node 13, Type 0, BuildingBlock: KUFVIS_clean_sbu_0, # of connection points: 4
#     Node 14, Type 0, BuildingBlock: KUFVIS_clean_sbu_0, # of connection points: 4
#     Node 15, Type 0, BuildingBlock: KUFVIS_clean_sbu_0, # of connection points: 4
#     Node 16, Type 0, BuildingBlock: KUFVIS_clean_sbu_0, # of connection points: 4
#     Node 17, Type 0, BuildingBlock: KUFVIS_clean_sbu_0, # of connection points: 4
#     Node 18, Type 0, BuildingBlock: KUFVIS_clean_sbu_0, # of connection points: 4
#     Node 19, Type 0, BuildingBlock: KUFVIS_clean_sbu_0, # of connection points: 4
#     Node 20, Type 0, BuildingBlock: KUFVIS_clean_sbu_0, # of connection points: 4
#     Node 21, Type 0, BuildingBlock: KUFVIS_clean_sbu_0, # of connection points: 4
#     Node 22, Type 0, BuildingBlock: KUFVIS_clean_sbu_0, # of connection points: 4
#     Node 23, Type 0, BuildingBlock: KUFVIS_clean_sbu_0, # of connection points: 4
#     Node 24, Type 0, BuildingBlock: KUFVIS_clean_sbu_0, # of connection points: 4
#     Node 25, Type 0, BuildingBlock: KUFVIS_clean_sbu_0, # of connection points: 4
#     Node 26, Type 0, BuildingBlock: KUFVIS_clean_sbu_0, # of connection points: 4
#     Node 27, Type 0, BuildingBlock: KUFVIS_clean_sbu_0, # of connection points: 4
#     Node 28, Type 0, BuildingBlock: KUFVIS_clean_sbu_0, # of connection points: 4
#     Node 29, Type 0, BuildingBlock: KUFVIS_clean_sbu_0, # of connection points: 4
#     Node 30, Type 0, BuildingBlock: KUFVIS_clean_sbu_0, # of connection points: 4
#     Node 31, Type 0, BuildingBlock: KUFVIS_clean_sbu_0, # of connection points: 4
#     Edge 32, Type (0, 0), BuildingBlock: AJUNOK_clean_linker_0, # of connection points: 2
#     Edge 33, Type (0, 0), BuildingBlock: AJUNOK_clean_linker_0, # of connection points: 2
#     Edge 34, Type (0, 0), BuildingBlock: AJUNOK_clean_linker_0, # of connection points: 2
#     Edge 35, Type (0, 0), BuildingBlock: AJUNOK_clean_linker_0, # of connection points: 2
#     Edge 36, Type (0, 0), BuildingBlock: AJUNOK_clean_linker_0, # of connection points: 2
#     Edge 37, Type (0, 0), BuildingBlock: AJUNOK_clean_linker_0, # of connection points: 2
#     Edge 38, Type (0, 0), BuildingBlock: AJUNOK_clean_linker_0, # of connection points: 2
#     Edge 39, Type (0, 0), BuildingBlock: AJUNOK_clean_linker_0, # of connection points: 2
#     Edge 40, Type (0, 0), BuildingBlock: AJUNOK_clean_linker_0, # of connection points: 2
#     Edge 41, Type (0, 0), BuildingBlock: AJUNOK_clean_linker_0, # of connection points: 2
#     Edge 42, Type (0, 0), BuildingBlock: AJUNOK_clean_linker_0, # of connection points: 2
#     Edge 43, Type (0, 0), BuildingBlock: AJUNOK_clean_linker_0, # of connection points: 2
#     Edge 44, Type (0, 0), BuildingBlock: AJUNOK_clean_linker_0, # of connection points: 2
#     Edge 45, Type (0, 0), BuildingBlock: AJUNOK_clean_linker_0, # of connection points: 2
#     Edge 46, Type (0, 0), BuildingBlock: AJUNOK_clean_linker_0, # of connection points: 2
#     Edge 47, Type (0, 0), BuildingBlock: AJUNOK_clean_linker_0, # of connection points: 2
#     Edge 48, Type (0, 0), BuildingBlock: AJUNOK_clean_linker_0, # of connection points: 2
#     Edge 49, Type (0, 0), BuildingBlock: AJUNOK_clean_linker_0, # of connection points: 2
#     Edge 50, Type (0, 0), BuildingBlock: AJUNOK_clean_linker_0, # of connection points: 2
#     Edge 51, Type (0, 0), BuildingBlock: AJUNOK_clean_linker_0, # of connection points: 2
#     Edge 52, Type (0, 0), BuildingBlock: AJUNOK_clean_linker_0, # of connection points: 2
#     Edge 53, Type (0, 0), BuildingBlock: AJUNOK_clean_linker_0, # of connection points: 2
#     Edge 54, Type (0, 0), BuildingBlock: AJUNOK_clean_linker_0, # of connection points: 2
#     Edge 55, Type (0, 0), BuildingBlock: AJUNOK_clean_linker_0, # of connection points: 2
#     Edge 56, Type (0, 0), BuildingBlock: AJUNOK_clean_linker_0, # of connection points: 2
#     Edge 57, Type (0, 0), BuildingBlock: AJUNOK_clean_linker_0, # of connection points: 2
#     Edge 58, Type (0, 0), BuildingBlock: AJUNOK_clean_linker_0, # of connection points: 2
#     Edge 59, Type (0, 0), BuildingBlock: AJUNOK_clean_linker_0, # of connection points: 2
#     Edge 60, Type (0, 0), BuildingBlock: AJUNOK_clean_linker_0, # of connection points: 2
#     Edge 61, Type (0, 0), BuildingBlock: AJUNOK_clean_linker_0, # of connection points: 2
#     Edge 62, Type (0, 0), BuildingBlock: AJUNOK_clean_linker_0, # of connection points: 2
#     Edge 63, Type (0, 0), BuildingBlock: AJUNOK_clean_linker_0, # of connection points: 2
#     Edge 64, Type (0, 0), BuildingBlock: AJUNOK_clean_linker_0, # of connection points: 2
#     Edge 65, Type (0, 0), BuildingBlock: AJUNOK_clean_linker_0, # of connection points: 2
#     Edge 66, Type (0, 0), BuildingBlock: AJUNOK_clean_linker_0, # of connection points: 2
#     Edge 67, Type (0, 0), BuildingBlock: AJUNOK_clean_linker_0, # of connection points: 2
#     Edge 68, Type (0, 0), BuildingBlock: AJUNOK_clean_linker_0, # of connection points: 2
#     Edge 69, Type (0, 0), BuildingBlock: AJUNOK_clean_linker_0, # of connection points: 2
#     Edge 70, Type (0, 0), BuildingBlock: AJUNOK_clean_linker_0, # of connection points: 2
#     Edge 71, Type (0, 0), BuildingBlock: AJUNOK_clean_linker_0, # of connection points: 2
#     Edge 72, Type (0, 0), BuildingBlock: AJUNOK_clean_linker_0, # of connection points: 2
#     Edge 73, Type (0, 0), BuildingBlock: AJUNOK_clean_linker_0, # of connection points: 2
#     Edge 74, Type (0, 0), BuildingBlock: AJUNOK_clean_linker_0, # of connection points: 2
#     Edge 75, Type (0, 0), BuildingBlock: AJUNOK_clean_linker_0, # of connection points: 2
#     Edge 76, Type (0, 0), BuildingBlock: AJUNOK_clean_linker_0, # of connection points: 2
#     Edge 77, Type (0, 0), BuildingBlock: AJUNOK_clean_linker_0, # of connection points: 2
#     Edge 78, Type (0, 0), BuildingBlock: AJUNOK_clean_linker_0, # of connection points: 2
#     Edge 79, Type (0, 0), BuildingBlock: AJUNOK_clean_linker_0, # of connection points: 2
#     Edge 80, Type (0, 0), BuildingBlock: AJUNOK_clean_linker_0, # of connection points: 2
#     Edge 81, Type (0, 0), BuildingBlock: AJUNOK_clean_linker_0, # of connection points: 2
#     Edge 82, Type (0, 0), BuildingBlock: AJUNOK_clean_linker_0, # of connection points: 2
#     Edge 83, Type (0, 0), BuildingBlock: AJUNOK_clean_linker_0, # of connection points: 2
#     Edge 84, Type (0, 0), BuildingBlock: AJUNOK_clean_linker_0, # of connection points: 2
#     Edge 85, Type (0, 0), BuildingBlock: AJUNOK_clean_linker_0, # of connection points: 2
#     Edge 86, Type (0, 0), BuildingBlock: AJUNOK_clean_linker_0, # of connection points: 2
#     Edge 87, Type (0, 0), BuildingBlock: AJUNOK_clean_linker_0, # of connection points: 2
#     Edge 88, Type (0, 0), BuildingBlock: AJUNOK_clean_linker_0, # of connection points: 2
#     Edge 89, Type (0, 0), BuildingBlock: AJUNOK_clean_linker_0, # of connection points: 2
#     Edge 90, Type (0, 0), BuildingBlock: AJUNOK_clean_linker_0, # of connection points: 2
#     Edge 91, Type (0, 0), BuildingBlock: AJUNOK_clean_linker_0, # of connection points: 2
#     Edge 92, Type (0, 0), BuildingBlock: AJUNOK_clean_linker_0, # of connection points: 2
#     Edge 93, Type (0, 0), BuildingBlock: AJUNOK_clean_linker_0, # of connection points: 2
#     Edge 94, Type (0, 0), BuildingBlock: AJUNOK_clean_linker_0, # of connection points: 2
#     Edge 95, Type (0, 0), BuildingBlock: AJUNOK_clean_linker_0, # of connection points: 2
# Relax obj value: 0.090
# Max RMSD: 0.141
# Mean RMSD: 0.136
data_MOF--net-mer--node1-KUFVIS_clean_sbu_0--edge1-AJUNOK_clean_linker_0
_symmetry_space_group_name_H-M    P1
_symmetry_Int_Tables_number       1
_symmetry_cell_setting            triclinic
loop_
_symmetry_equiv_pos_as_xyz
'x, y, z'
_cell_length_a     47.07401
_cell_length_b     46.548999
_cell_length_c     37.951724
_cell_angle_alpha  90.033306
_cell_angle_beta   89.959169
_cell_angle_gamma 90.068151
loop_
_atom_site_label
_atom_site_type_symbol
_atom_site_fract_x
_atom_site_fract_y
_atom_site_fract_z
_atom_type_partial_charge
Mn0 Mn 0.11044 0.29085 0.37312 0.0
Mn1 Mn 0.16927 0.33153 0.3808 0.0
C2 C 0.12885 0.30008 0.42978 0.0
C3 C 0.06063 0.28933 0.36608 0.0
C4 C 0.17098 0.26786 0.36209 0.0
O5 O 0.11538 0.30808 0.32328 0.0
O6 O 0.15181 0.33772 0.33447 0.0
C7 C 0.13923 0.38744 0.38096 0.0
N8 N 0.1576 0.3687 0.39644 0.0
C9 C 0.16241 0.39928 0.44708 0.0
C10 C 0.1442 0.4193 0.43129 0.0
C11 C 0.13251 0.4133 0.39807 0.0
C12 C 0.16877 0.37415 0.42839 0.0
H13 H 0.12942 0.38249 0.35605 0.0
C14 C 0.13269 0.32786 0.31413 0.0
O15 O 0.07669 0.26802 0.35651 0.0
O16 O 0.07357 0.3114 0.37936 0.0
N17 N 0.18895 0.32859 0.424 0.0
C18 C 0.20601 0.30691 0.43538 0.0
C19 C 0.21792 0.30867 0.46898 0.0
C20 C 0.21233 0.33286 0.48974 0.0
C21 C 0.19681 0.35595 0.47639 0.0
C22 C 0.18558 0.35301 0.44277 0.0
H23 H 0.20961 0.28797 0.41959 0.0
O24 O 0.11038 0.27988 0.42447 0.0
O25 O 0.13469 0.31552 0.40191 0.0
O26 O 0.14416 0.26325 0.3643 0.0
O27 O 0.18213 0.29285 0.36576 0.0
C28 C 0.19075 0.381 0.49578 0.0
C29 C 0.17374 0.40279 0.48109 0.0
H30 H 0.13864 0.43906 0.44471 0.0
H31 H 0.11802 0.42837 0.38592 0.0
H32 H 0.23026 0.29102 0.47941 0.0
H33 H 0.21886 0.33291 0.51633 0.0
H34 H 0.19857 0.38351 0.52216 0.0
H35 H 0.16904 0.42183 0.49645 0.0
Mn36 Mn 0.72313 0.12361 0.34105 0.0
Mn37 Mn 0.79183 0.10893 0.36054 0.0
C38 C 0.75589 0.16083 0.34095 0.0
C39 C 0.68598 0.12947 0.30126 0.0
C40 C 0.74691 0.11804 0.41643 0.0
O41 O 0.72401 0.08012 0.33705 0.0
O42 O 0.76965 0.0729 0.35145 0.0
C43 C 0.80754 0.0865 0.29016 0.0
N44 N 0.81271 0.1045 0.31772 0.0
C45 C 0.85601 0.12135 0.29107 0.0
C46 C 0.85129 0.10281 0.26251 0.0
C47 C 0.82687 0.08542 0.26199 0.0
C48 C 0.83599 0.12151 0.31834 0.0
H49 H 0.78885 0.07302 0.28975 0.0
C50 C 0.74497 0.06354 0.3429 0.0
O51 O 0.68096 0.12488 0.33439 0.0
O52 O 0.7122 0.12823 0.29093 0.0
N53 N 0.81708 0.14025 0.37011 0.0
C54 C 0.81716 0.15882 0.39788 0.0
C55 C 0.83988 0.17811 0.40205 0.0
C56 C 0.86234 0.17807 0.37767 0.0
C57 C 0.86166 0.159 0.34905 0.0
C58 C 0.83863 0.14001 0.34653 0.0
H59 H 0.79963 0.15947 0.41605 0.0
O60 O 0.72884 0.1651 0.34327 0.0
O61 O 0.76374 0.13396 0.33682 0.0
O62 O 0.72583 0.12089 0.39543 0.0
O63 O 0.77237 0.11385 0.40598 0.0
C64 C 0.88247 0.15869 0.32234 0.0
C65 C 0.8796 0.13994 0.29331 0.0
H66 H 0.86613 0.10193 0.24072 0.0
H67 H 0.823 0.07116 0.23997 0.0
H68 H 0.83992 0.19317 0.42379 0.0
H69 H 0.87963 0.19325 0.38069 0.0
H70 H 0.90048 0.17316 0.32353 0.0
H71 H 0.8955 0.14023 0.27267 0.0
Mn72 Mn 0.905 0.7171 0.37754 0.0
Mn73 Mn 0.84694 0.67573 0.38712 0.0
C74 C 0.88719 0.70896 0.4347 0.0
C75 C 0.95455 0.71928 0.37008 0.0
C76 C 0.84391 0.73922 0.36778 0.0
O77 O 0.9002 0.69893 0.32818 0.0
O78 O 0.86328 0.67025 0.34008 0.0
C79 C 0.879 0.62094 0.38557 0.0
N80 N 0.86019 0.63881 0.40182 0.0
C81 C 0.8582 0.60808 0.45261 0.0
C82 C 0.87671 0.58883 0.43591 0.0
C83 C 0.88723 0.59535 0.40223 0.0
C84 C 0.85023 0.6329 0.43426 0.0
H85 H 0.88816 0.62644 0.36046 0.0
C86 C 0.8824 0.67954 0.31937 0.0
O87 O 0.93815 0.74014 0.35995 0.0
O88 O 0.94207 0.69724 0.38406 0.0
N89 N 0.82829 0.67768 0.43099 0.0
C90 C 0.81083 0.69871 0.44323 0.0
C91 C 0.80048 0.69669 0.47756 0.0
C92 C 0.80796 0.67284 0.49795 0.0
C93 C 0.82339 0.65014 0.48372 0.0
C94 C 0.83318 0.65339 0.4495 0.0
H95 H 0.80601 0.71746 0.42763 0.0
O96 O 0.90529 0.72929 0.42839 0.0
O97 O 0.88138 0.6927 0.40745 0.0
O98 O 0.87077 0.74388 0.36829 0.0
O99 O 0.83288 0.71431 0.37303 0.0
C100 C 0.83099 0.62542 0.5029 0.0
C101 C 0.8482 0.60422 0.48724 0.0
H102 H 0.88349 0.56935 0.44902 0.0
H103 H 0.90206 0.58097 0.38944 0.0
H104 H 0.78821 0.71406 0.48882 0.0
H105 H 0.80348 0.67282 0.52503 0.0
H106 H 0.82414 0.62273 0.52981 0.0
H107 H 0.85416 0.58542 0.50232 0.0
Mn108 Mn 0.29472 0.88469 0.35036 0.0
Mn109 Mn 0.22606 0.90349 0.36301 0.0
C110 C 0.2597 0.84989 0.35025 0.0
C111 C 0.33286 0.87511 0.31298 0.0
C112 C 0.2675 0.89515 0.42316 0.0
O113 O 0.2963 0.92826 0.34341 0.0
O114 O 0.25043 0.93791 0.35473 0.0
C115 C 0.21728 0.92365 0.28979 0.0
N116 N 0.20945 0.90639 0.31712 0.0
C117 C 0.17187 0.8853 0.28274 0.0
C118 C 0.17937 0.90304 0.25438 0.0
C119 C 0.20223 0.92223 0.2579 0.0
C120 C 0.18777 0.88754 0.31381 0.0
H121 H 0.23495 0.93829 0.29219 0.0
C122 C 0.27579 0.94591 0.34736 0.0
O123 O 0.33706 0.88062 0.34613 0.0
O124 O 0.30711 0.87717 0.30134 0.0
N125 N 0.199 0.87333 0.37089 0.0
C126 C 0.19324 0.859 0.40136 0.0
C127 C 0.17072 0.8392 0.40245 0.0
C128 C 0.15388 0.83481 0.37242 0.0
C129 C 0.15932 0.85077 0.34185 0.0
C130 C 0.18199 0.87031 0.34242 0.0
H131 H 0.2061 0.86218 0.42441 0.0
O132 O 0.28599 0.8432 0.35561 0.0
O133 O 0.25441 0.8769 0.34391 0.0
O134 O 0.28932 0.89058 0.40377 0.0
O135 O 0.24247 0.8995 0.41091 0.0
C136 C 0.14299 0.84821 0.31092 0.0
C137 C 0.14933 0.86539 0.28133 0.0
H138 H 0.16779 0.90204 0.22975 0.0
H139 H 0.20827 0.93589 0.23606 0.0
H140 H 0.16647 0.82723 0.42632 0.0
H141 H 0.13666 0.81937 0.37326 0.0
H142 H 0.12549 0.83312 0.30962 0.0
H143 H 0.13669 0.86316 0.25765 0.0
Mn144 Mn 0.10964 0.72239 0.62929 0.0
Mn145 Mn 0.16864 0.68206 0.62049 0.0
C146 C 0.12777 0.71352 0.57245 0.0
C147 C 0.05976 0.72379 0.63673 0.0
C148 C 0.17007 0.74537 0.64143 0.0
O149 O 0.11495 0.70456 0.67868 0.0
O150 O 0.1512 0.67483 0.66671 0.0
C151 C 0.13972 0.62554 0.61903 0.0
N152 N 0.15763 0.64495 0.60393 0.0
C153 C 0.16445 0.61448 0.55357 0.0
C154 C 0.14666 0.59382 0.56894 0.0
C155 C 0.13415 0.59944 0.60181 0.0
C156 C 0.1695 0.63993 0.57226 0.0
H157 H 0.12949 0.63012 0.64375 0.0
C158 C 0.13212 0.68453 0.68726 0.0
O159 O 0.07592 0.74497 0.64653 0.0
O160 O 0.07264 0.70186 0.62301 0.0
N161 N 0.18826 0.6861 0.57725 0.0
C162 C 0.20482 0.70837 0.56622 0.0
C163 C 0.21741 0.70699 0.53292 0.0
C164 C 0.21303 0.6826 0.512 0.0
C165 C 0.19769 0.65914 0.52488 0.0
C166 C 0.18577 0.6617 0.55822 0.0
H167 H 0.20768 0.72734 0.58218 0.0
O168 O 0.10944 0.73377 0.57809 0.0
O169 O 0.13379 0.69796 0.60009 0.0
O170 O 0.14333 0.75011 0.63859 0.0
O171 O 0.1812 0.72053 0.63676 0.0
C172 C 0.19292 0.63379 0.50554 0.0
C173 C 0.17657 0.61132 0.51993 0.0
H174 H 0.14204 0.57384 0.55545 0.0
H175 H 0.12 0.58384 0.61367 0.0
H176 H 0.22964 0.72494 0.52294 0.0
H177 H 0.2208 0.68246 0.4858 0.0
H178 H 0.20129 0.63149 0.47943 0.0
H179 H 0.17288 0.59206 0.50455 0.0
Mn180 Mn 0.2929 0.1303 0.66192 0.0
Mn181 Mn 0.22418 0.11282 0.64634 0.0
C182 C 0.2587 0.16579 0.66103 0.0
C183 C 0.33031 0.13793 0.70111 0.0
C184 C 0.26735 0.12095 0.58788 0.0
O185 O 0.29332 0.0867 0.66811 0.0
O186 O 0.24754 0.0779 0.65542 0.0
C187 C 0.21297 0.0926 0.71903 0.0
N188 N 0.20623 0.11004 0.69147 0.0
C189 C 0.16782 0.13134 0.72417 0.0
C190 C 0.1742 0.11342 0.75275 0.0
C191 C 0.19695 0.09403 0.7502 0.0
C192 C 0.18468 0.1291 0.69388 0.0
H193 H 0.23052 0.07776 0.71735 0.0
C194 C 0.27257 0.06943 0.66353 0.0
O195 O 0.33521 0.1331 0.66795 0.0
O196 O 0.30418 0.13671 0.71163 0.0
N197 N 0.19791 0.14343 0.63747 0.0
C198 C 0.19327 0.15793 0.60683 0.0
C199 C 0.17103 0.17794 0.60479 0.0
C200 C 0.15326 0.18232 0.634 0.0
C201 C 0.15754 0.1662 0.66471 0.0
C202 C 0.18002 0.14649 0.66512 0.0
H203 H 0.20685 0.15476 0.5844 0.0
O204 O 0.28531 0.172 0.65722 0.0
O205 O 0.25259 0.13884 0.66672 0.0
O206 O 0.28875 0.12521 0.60811 0.0
O207 O 0.242 0.11668 0.59921 0.0
C208 C 0.14022 0.16874 0.69484 0.0
C209 C 0.14543 0.15141 0.72461 0.0
H210 H 0.16185 0.11442 0.77681 0.0
H211 H 0.20212 0.08023 0.77221 0.0
H212 H 0.1677 0.19005 0.58082 0.0
H213 H 0.13623 0.19791 0.63243 0.0
H214 H 0.12283 0.18395 0.69538 0.0
H215 H 0.13204 0.15363 0.74767 0.0
Mn216 Mn 0.9069 0.29992 0.62769 0.0
Mn217 Mn 0.84878 0.34067 0.61818 0.0
C218 C 0.89027 0.30932 0.57091 0.0
C219 C 0.95658 0.29906 0.6359 0.0
C220 C 0.84468 0.27665 0.62938 0.0
O221 O 0.90146 0.31619 0.67761 0.0
O222 O 0.85953 0.33713 0.66805 0.0
C223 C 0.8791 0.39367 0.64062 0.0
N224 N 0.86422 0.3788 0.61576 0.0
C225 C 0.86894 0.41772 0.5745 0.0
C226 C 0.88438 0.43335 0.5996 0.0
C227 C 0.88941 0.42126 0.63288 0.0
C228 C 0.85917 0.39031 0.58386 0.0
H229 H 0.8831 0.38465 0.66618 0.0
C230 C 0.8795 0.32939 0.68841 0.0
O231 O 0.94084 0.27718 0.64466 0.0
O232 O 0.94337 0.32087 0.62283 0.0
N233 N 0.83529 0.34757 0.57204 0.0
C234 C 0.81776 0.33088 0.55241 0.0
C235 C 0.81123 0.33958 0.51819 0.0
C236 C 0.82121 0.36612 0.50559 0.0
C237 C 0.83708 0.38402 0.52735 0.0
C238 C 0.84372 0.37384 0.56082 0.0
H239 H 0.81024 0.31044 0.56216 0.0
O240 O 0.90842 0.28906 0.57682 0.0
O241 O 0.88401 0.32522 0.59844 0.0
O242 O 0.87157 0.2729 0.63466 0.0
O243 O 0.83367 0.30093 0.62046 0.0
C244 C 0.84694 0.41131 0.51689 0.0
C245 C 0.86284 0.42823 0.54055 0.0
H246 H 0.89239 0.45463 0.59364 0.0
H247 H 0.90125 0.43316 0.65251 0.0
H248 H 0.79958 0.32523 0.50156 0.0
H249 H 0.8173 0.3727 0.47913 0.0
H250 H 0.84225 0.41953 0.49083 0.0
H251 H 0.8702 0.44927 0.53244 0.0
Mn252 Mn 0.72266 0.88868 0.66025 0.0
Mn253 Mn 0.79206 0.90183 0.64266 0.0
C254 C 0.75478 0.85093 0.663 0.0
C255 C 0.6846 0.88477 0.69949 0.0
C256 C 0.74812 0.89265 0.58532 0.0
O257 O 0.72444 0.93241 0.66246 0.0
O258 O 0.77081 0.93853 0.651 0.0
C259 C 0.80763 0.9244 0.71299 0.0
N260 N 0.81257 0.90603 0.68574 0.0
C261 C 0.85543 0.88869 0.71284 0.0
C262 C 0.85093 0.90756 0.74112 0.0
C263 C 0.82684 0.92538 0.74127 0.0
C264 C 0.83555 0.88865 0.68544 0.0
H265 H 0.78923 0.93823 0.71306 0.0
C266 C 0.74605 0.94854 0.65795 0.0
O267 O 0.68027 0.88807 0.66597 0.0
O268 O 0.71065 0.88598 0.71037 0.0
N269 N 0.81642 0.86968 0.63397 0.0
C270 C 0.81572 0.85021 0.60716 0.0
C271 C 0.83799 0.83039 0.60341 0.0
C272 C 0.86064 0.8306 0.6275 0.0
C273 C 0.86047 0.85024 0.65556 0.0
C274 C 0.83793 0.8698 0.65756 0.0
H275 H 0.7977 0.84904 0.58978 0.0
O276 O 0.72771 0.84698 0.66015 0.0
O277 O 0.76295 0.8778 0.66612 0.0
O278 O 0.72657 0.88979 0.60571 0.0
O279 O 0.77321 0.89727 0.59674 0.0
C280 C 0.88119 0.85048 0.68233 0.0
C281 C 0.87863 0.86963 0.711 0.0
H282 H 0.86568 0.90838 0.76299 0.0
H283 H 0.82316 0.93991 0.76306 0.0
H284 H 0.83746 0.81468 0.58238 0.0
H285 H 0.87752 0.81495 0.6249 0.0
H286 H 0.89885 0.83559 0.68152 0.0
H287 H 0.89443 0.86925 0.73174 0.0
Mn288 Mn 0.88487 0.72208 0.64048 0.0
Mn289 Mn 0.82378 0.68448 0.63382 0.0
C290 C 0.86547 0.71424 0.58393 0.0
C291 C 0.93508 0.72335 0.64376 0.0
C292 C 0.82534 0.74786 0.65266 0.0
O293 O 0.88207 0.70398 0.68963 0.0
O294 O 0.84152 0.68043 0.68036 0.0
C295 C 0.84927 0.62645 0.63904 0.0
N296 N 0.83086 0.64509 0.6236 0.0
C297 C 0.80461 0.6066 0.59676 0.0
C298 C 0.82343 0.58683 0.612 0.0
C299 C 0.8461 0.59684 0.63287 0.0
C300 C 0.80981 0.63579 0.60242 0.0
H301 H 0.86578 0.63418 0.65642 0.0
C302 C 0.8622 0.6875 0.7 0.0
O303 O 0.91955 0.74433 0.65551 0.0
O304 O 0.92139 0.7016 0.63085 0.0
N305 N 0.80127 0.6842 0.59226 0.0
C306 C 0.78673 0.70626 0.57732 0.0
C307 C 0.76175 0.70044 0.55823 0.0
C308 C 0.75254 0.67184 0.55387 0.0
C309 C 0.76891 0.6493 0.56775 0.0
C310 C 0.79313 0.6566 0.58724 0.0
H311 H 0.79445 0.72796 0.57991 0.0
O312 O 0.88313 0.73481 0.5908 0.0
O313 O 0.85969 0.69716 0.61058 0.0
O314 O 0.85241 0.75057 0.65334 0.0
O315 O 0.81308 0.72431 0.64468 0.0
C316 C 0.76268 0.61998 0.56242 0.0
C317 C 0.78075 0.59863 0.57649 0.0
H318 H 0.82058 0.56395 0.60808 0.0
H319 H 0.86056 0.58172 0.64497 0.0
H320 H 0.74985 0.71788 0.54655 0.0
H321 H 0.73354 0.66741 0.53872 0.0
H322 H 0.74431 0.61362 0.54711 0.0
H323 H 0.77599 0.57618 0.5718 0.0
Mn324 Mn 0.2794 0.89703 0.63576 0.0
Mn325 Mn 0.31155 0.8397 0.59849 0.0
C326 C 0.27714 0.89105 0.57557 0.0
C327 C 0.28246 0.94489 0.6555 0.0
C328 C 0.2548 0.83581 0.63664 0.0
O329 O 0.30537 0.88219 0.67456 0.0
O330 O 0.32826 0.84657 0.64623 0.0
C331 C 0.36921 0.86394 0.58928 0.0
N332 N 0.34548 0.85181 0.57516 0.0
C333 C 0.36609 0.85201 0.51711 0.0
C334 C 0.39083 0.86436 0.53107 0.0
C335 C 0.39235 0.87043 0.5673 0.0
C336 C 0.34372 0.84603 0.54031 0.0
H337 H 0.37046 0.86862 0.61712 0.0
C338 C 0.32402 0.86226 0.67352 0.0
O339 O 0.26296 0.92752 0.66718 0.0
O340 O 0.30069 0.93407 0.63368 0.0
N341 N 0.29778 0.83038 0.55241 0.0
C342 C 0.2723 0.8187 0.54306 0.0
C343 C 0.26706 0.81204 0.50754 0.0
C344 C 0.28817 0.8171 0.48211 0.0
C345 C 0.31444 0.82853 0.49248 0.0
C346 C 0.31848 0.83465 0.52827 0.0
H347 H 0.256 0.8147 0.56249 0.0
O348 O 0.25918 0.90752 0.59174 0.0
O349 O 0.29654 0.87896 0.5951 0.0
O350 O 0.25184 0.86264 0.64334 0.0
O351 O 0.27654 0.82534 0.62109 0.0
C352 C 0.33672 0.83424 0.46868 0.0
C353 C 0.36254 0.84593 0.48099 0.0
H354 H 0.40869 0.8695 0.51419 0.0
H355 H 0.41132 0.88009 0.57823 0.0
H356 H 0.24678 0.80307 0.49977 0.0
H357 H 0.28402 0.81206 0.45473 0.0
H358 H 0.33416 0.82988 0.44082 0.0
H359 H 0.37943 0.85045 0.4624 0.0
Mn360 Mn 0.1308 0.29618 0.63533 0.0
Mn361 Mn 0.19472 0.32883 0.62732 0.0
C362 C 0.1506 0.30105 0.57852 0.0
C363 C 0.08096 0.29823 0.63996 0.0
C364 C 0.1879 0.26607 0.64661 0.0
O365 O 0.1353 0.31471 0.68414 0.0
O366 O 0.1773 0.33507 0.67389 0.0
C367 C 0.16999 0.38731 0.6285 0.0
N368 N 0.18914 0.36816 0.61559 0.0
C369 C 0.21518 0.40526 0.58592 0.0
C370 C 0.19626 0.4257 0.59962 0.0
C371 C 0.1732 0.4166 0.62045 0.0
C372 C 0.20993 0.37633 0.59346 0.0
H373 H 0.15269 0.38018 0.64506 0.0
C374 C 0.15625 0.33002 0.69387 0.0
O375 O 0.09525 0.27641 0.65169 0.0
O376 O 0.0957 0.31889 0.62605 0.0
N377 N 0.21819 0.32731 0.58627 0.0
C378 C 0.23477 0.3049 0.57579 0.0
C379 C 0.25972 0.31007 0.55638 0.0
C380 C 0.2678 0.3384 0.54836 0.0
C381 C 0.25065 0.36129 0.55956 0.0
C382 C 0.22615 0.35474 0.57905 0.0
H383 H 0.22962 0.28334 0.58335 0.0
O384 O 0.13108 0.28246 0.58604 0.0
O385 O 0.1579 0.31822 0.60451 0.0
O386 O 0.16082 0.26578 0.6479 0.0
O387 O 0.20258 0.28824 0.63874 0.0
C388 C 0.25701 0.39034 0.55245 0.0
C389 C 0.23902 0.41231 0.56515 0.0
H390 H 0.19911 0.44836 0.59414 0.0
H391 H 0.15831 0.43216 0.63083 0.0
H392 H 0.2729 0.29227 0.54808 0.0
H393 H 0.28704 0.3423 0.53345 0.0
H394 H 0.27558 0.39602 0.53708 0.0
H395 H 0.24385 0.43451 0.55906 0.0
Mn396 Mn 0.73826 0.12167 0.62873 0.0
Mn397 Mn 0.70317 0.17749 0.59201 0.0
C398 C 0.73794 0.12652 0.56838 0.0
C399 C 0.73704 0.07371 0.6491 0.0
C400 C 0.76132 0.18372 0.62638 0.0
O401 O 0.71319 0.13637 0.66858 0.0
O402 O 0.6886 0.17117 0.64085 0.0
C403 C 0.64583 0.15161 0.58739 0.0
N404 N 0.66862 0.16406 0.57136 0.0
C405 C 0.6457 0.16193 0.51477 0.0
C406 C 0.62189 0.14927 0.53071 0.0
C407 C 0.62201 0.14401 0.56716 0.0
C408 C 0.6688 0.16908 0.5363 0.0
H409 H 0.64585 0.14751 0.6154 0.0
C410 C 0.69395 0.15572 0.66801 0.0
O411 O 0.7566 0.09158 0.65947 0.0
O412 O 0.71777 0.0841 0.62846 0.0
N413 N 0.71477 0.18615 0.54489 0.0
C414 C 0.73959 0.19809 0.5335 0.0
C415 C 0.74336 0.20364 0.49744 0.0
C416 C 0.72143 0.19723 0.47363 0.0
C417 C 0.69576 0.18583 0.48607 0.0
C418 C 0.69323 0.18077 0.52228 0.0
H419 H 0.75653 0.20298 0.55171 0.0
O420 O 0.75701 0.11098 0.58387 0.0
O421 O 0.71904 0.13857 0.58874 0.0
O422 O 0.76522 0.15712 0.63393 0.0
O423 O 0.73871 0.19314 0.61178 0.0
C424 C 0.67273 0.17897 0.46391 0.0
C425 C 0.64767 0.16713 0.47827 0.0
H426 H 0.60354 0.14325 0.51516 0.0
H427 H 0.60378 0.1341 0.57962 0.0
H428 H 0.76316 0.21264 0.48799 0.0
H429 H 0.72453 0.20102 0.44584 0.0
H430 H 0.67414 0.18256 0.43576 0.0
H431 H 0.63019 0.16171 0.46093 0.0
Mn432 Mn 0.88605 0.2898 0.36612 0.0
Mn433 Mn 0.82451 0.32625 0.37422 0.0
C434 C 0.86772 0.29853 0.42297 0.0
C435 C 0.93605 0.2894 0.36095 0.0
C436 C 0.82729 0.26305 0.35419 0.0
O437 O 0.88135 0.30729 0.31687 0.0
O438 O 0.84187 0.33267 0.32751 0.0
C439 C 0.84631 0.38591 0.3714 0.0
N440 N 0.8297 0.36549 0.38668 0.0
C441 C 0.80187 0.40107 0.4169 0.0
C442 C 0.81892 0.42263 0.40198 0.0
C443 C 0.84147 0.41498 0.37947 0.0
C444 C 0.80866 0.37253 0.40922 0.0
H445 H 0.86263 0.37999 0.35271 0.0
C446 C 0.86199 0.32472 0.30725 0.0
O447 O 0.92059 0.268 0.35024 0.0
O448 O 0.92239 0.31119 0.37381 0.0
N449 N 0.80323 0.32338 0.41674 0.0
C450 C 0.79103 0.29986 0.43158 0.0
C451 C 0.76671 0.30321 0.45274 0.0
C452 C 0.75585 0.3309 0.45922 0.0
C453 C 0.7701 0.35496 0.44554 0.0
C454 C 0.79382 0.35008 0.42411 0.0
H455 H 0.79955 0.27875 0.42656 0.0
O456 O 0.88566 0.27813 0.41646 0.0
O457 O 0.86109 0.31458 0.39582 0.0
O458 O 0.85427 0.26026 0.35498 0.0
O459 O 0.81495 0.28668 0.36109 0.0
C460 C 0.76209 0.3836 0.45262 0.0
C461 C 0.77823 0.40664 0.43875 0.0
H462 H 0.81478 0.44508 0.40742 0.0
H463 H 0.85453 0.43149 0.36758 0.0
H464 H 0.75645 0.28457 0.4641 0.0
H465 H 0.73728 0.33348 0.47577 0.0
H466 H 0.74394 0.38814 0.46927 0.0
H467 H 0.77221 0.42852 0.44494 0.0
Mn468 Mn 0.73492 0.89138 0.37246 0.0
Mn469 Mn 0.70144 0.83474 0.40971 0.0
C470 C 0.736 0.8863 0.43283 0.0
C471 C 0.73326 0.93898 0.35178 0.0
C472 C 0.7589 0.82991 0.37362 0.0
O473 O 0.70982 0.87605 0.33309 0.0
O474 O 0.68575 0.84118 0.36137 0.0
C475 C 0.64411 0.86005 0.41702 0.0
N476 N 0.66728 0.8475 0.43191 0.0
C477 C 0.64599 0.84928 0.48952 0.0
C478 C 0.62179 0.86205 0.47477 0.0
C479 C 0.62087 0.86749 0.43837 0.0
C480 C 0.6684 0.84216 0.46689 0.0
H481 H 0.64341 0.86437 0.38907 0.0
C482 C 0.69098 0.85628 0.33384 0.0
O483 O 0.75264 0.92113 0.34103 0.0
O484 O 0.71418 0.92871 0.37291 0.0
N485 N 0.71427 0.82573 0.45622 0.0
C486 C 0.73966 0.81444 0.46648 0.0
C487 C 0.74443 0.80865 0.50229 0.0
C488 C 0.72292 0.81415 0.52703 0.0
C489 C 0.69673 0.82508 0.51575 0.0
C490 C 0.69318 0.83039 0.47971 0.0
H491 H 0.75632 0.81029 0.44759 0.0
O492 O 0.75418 0.90254 0.41666 0.0
O493 O 0.71681 0.87396 0.41309 0.0
O494 O 0.76223 0.85665 0.36661 0.0
O495 O 0.73663 0.81976 0.38835 0.0
C496 C 0.6743 0.8317 0.53897 0.0
C497 C 0.64895 0.8438 0.52586 0.0
H498 H 0.60389 0.86798 0.49118 0.0
H499 H 0.60233 0.87747 0.42683 0.0
H500 H 0.76469 0.80019 0.51083 0.0
H501 H 0.72684 0.81021 0.55465 0.0
H502 H 0.67649 0.82795 0.567 0.0
H503 H 0.63198 0.84911 0.54402 0.0
Mn504 Mn 0.12869 0.72205 0.3681 0.0
Mn505 Mn 0.19155 0.68727 0.37305 0.0
C506 C 0.1492 0.71522 0.42402 0.0
C507 C 0.07882 0.72149 0.36466 0.0
C508 C 0.1864 0.75067 0.35599 0.0
O509 O 0.13188 0.70475 0.31857 0.0
O510 O 0.17298 0.6821 0.3269 0.0
C511 C 0.1651 0.62956 0.37163 0.0
N512 N 0.18497 0.64803 0.3844 0.0
C513 C 0.21055 0.60986 0.41239 0.0
C514 C 0.19082 0.5901 0.39886 0.0
C515 C 0.16761 0.60009 0.37899 0.0
C516 C 0.20585 0.63903 0.40585 0.0
H517 H 0.14771 0.63738 0.35576 0.0
C518 C 0.15183 0.68864 0.30778 0.0
O519 O 0.09364 0.74311 0.3533 0.0
O520 O 0.09304 0.70005 0.37747 0.0
N521 N 0.21585 0.68772 0.41342 0.0
C522 C 0.23364 0.70945 0.42312 0.0
C523 C 0.25905 0.7033 0.44104 0.0
C524 C 0.26637 0.67467 0.44835 0.0
C525 C 0.24801 0.65247 0.43798 0.0
C526 C 0.22302 0.65999 0.42008 0.0
H527 H 0.22924 0.73123 0.41573 0.0
O528 O 0.13013 0.73455 0.41778 0.0
O529 O 0.15553 0.69854 0.3972 0.0
O530 O 0.15935 0.75195 0.35606 0.0
O531 O 0.20046 0.72778 0.36208 0.0
C532 C 0.25384 0.62315 0.44394 0.0
C533 C 0.23485 0.60186 0.43169 0.0
H534 H 0.19322 0.5673 0.40362 0.0
H535 H 0.15212 0.58507 0.36873 0.0
H536 H 0.27322 0.72056 0.44858 0.0
H537 H 0.28605 0.66999 0.46195 0.0
H538 H 0.27281 0.61675 0.45803 0.0
H539 H 0.23931 0.57943 0.43687 0.0
Mn540 Mn 0.28287 0.11836 0.37549 0.0
Mn541 Mn 0.31322 0.1767 0.41299 0.0
C542 C 0.27964 0.1246 0.4356 0.0
C543 C 0.28665 0.07044 0.35594 0.0
C544 C 0.25699 0.179 0.37374 0.0
O545 O 0.30914 0.13364 0.33719 0.0
O546 O 0.33065 0.17018 0.3656 0.0
C547 C 0.37122 0.15383 0.42341 0.0
N548 N 0.34709 0.16554 0.437 0.0
C549 C 0.36703 0.16631 0.49536 0.0
C550 C 0.39218 0.15442 0.48195 0.0
C551 C 0.39423 0.14806 0.44584 0.0
C552 C 0.34479 0.17153 0.47175 0.0
H553 H 0.37287 0.14895 0.39566 0.0
C554 C 0.32723 0.15411 0.33845 0.0
O555 O 0.26724 0.08763 0.34381 0.0
O556 O 0.30452 0.0815 0.37808 0.0
N557 N 0.29865 0.18589 0.45874 0.0
C558 C 0.27283 0.19706 0.46753 0.0
C559 C 0.26709 0.20402 0.50284 0.0
C560 C 0.28805 0.19977 0.52864 0.0
C561 C 0.31463 0.18878 0.51886 0.0
C562 C 0.31917 0.18237 0.48325 0.0
H563 H 0.25668 0.20049 0.4478 0.0
O564 O 0.26221 0.10769 0.41919 0.0
O565 O 0.29909 0.13702 0.41637 0.0
O566 O 0.25487 0.15209 0.36703 0.0
O567 O 0.27823 0.19012 0.38967 0.0
C568 C 0.33676 0.18386 0.54308 0.0
C569 C 0.36295 0.17264 0.53134 0.0
H570 H 0.40994 0.14986 0.49919 0.0
H571 H 0.41351 0.13875 0.43533 0.0
H572 H 0.24657 0.21264 0.51017 0.0
H573 H 0.28357 0.20513 0.55583 0.0
H574 H 0.33381 0.18847 0.57082 0.0
H575 H 0.37972 0.16872 0.55025 0.0
Mn576 Mn 0.613 0.79859 0.87669 0.0
Mn577 Mn 0.6725 0.83836 0.88436 0.0
C578 C 0.63413 0.80495 0.93238 0.0
C579 C 0.56276 0.79811 0.87256 0.0
C580 C 0.67317 0.77522 0.86263 0.0
O581 O 0.61598 0.81776 0.8277 0.0
O582 O 0.65364 0.84537 0.83917 0.0
C583 C 0.63984 0.89244 0.88975 0.0
N584 N 0.66132 0.87522 0.90097 0.0
C585 C 0.67979 0.91206 0.93851 0.0
C586 C 0.65852 0.93077 0.92655 0.0
C587 C 0.638 0.92067 0.90264 0.0
C588 C 0.67927 0.8837 0.92639 0.0
H589 H 0.6243 0.88453 0.87124 0.0
C590 C 0.63362 0.83734 0.8191 0.0
O591 O 0.57804 0.7769 0.86084 0.0
O592 O 0.57672 0.81925 0.88646 0.0
N593 N 0.69544 0.83634 0.92565 0.0
C594 C 0.71524 0.81587 0.93297 0.0
C595 C 0.7392 0.82317 0.95301 0.0
C596 C 0.74278 0.85156 0.96473 0.0
C597 C 0.72151 0.87189 0.95871 0.0
C598 C 0.69822 0.86345 0.93839 0.0
H599 H 0.71373 0.79463 0.92165 0.0
O600 O 0.61503 0.78536 0.92701 0.0
O601 O 0.63866 0.82196 0.90584 0.0
O602 O 0.64621 0.77106 0.86433 0.0
O603 O 0.68484 0.79974 0.86825 0.0
C604 C 0.72367 0.90086 0.96945 0.0
C605 C 0.70219 0.92065 0.96062 0.0
H606 H 0.65779 0.95287 0.93547 0.0
H607 H 0.62124 0.93475 0.89363 0.0
H608 H 0.7556 0.80738 0.95779 0.0
H609 H 0.7624 0.85785 0.97727 0.0
H610 H 0.74202 0.9084 0.98383 0.0
H611 H 0.70385 0.94269 0.96956 0.0
Mn612 Mn 0.2243 0.63104 0.84359 0.0
Mn613 Mn 0.29341 0.61677 0.86131 0.0
C614 C 0.25679 0.66858 0.84324 0.0
C615 C 0.18655 0.63678 0.80436 0.0
C616 C 0.24915 0.62445 0.91849 0.0
O617 O 0.22561 0.5875 0.83906 0.0
O618 O 0.2717 0.58062 0.85141 0.0
C619 C 0.30903 0.59601 0.79016 0.0
N620 N 0.31408 0.61354 0.8182 0.0
C621 C 0.35723 0.63124 0.79202 0.0
C622 C 0.35262 0.61324 0.76293 0.0
C623 C 0.32834 0.59566 0.76192 0.0
C624 C 0.33724 0.63069 0.81933 0.0
H625 H 0.29047 0.58237 0.78942 0.0
C626 C 0.24693 0.57108 0.84361 0.0
O627 O 0.18197 0.63195 0.83755 0.0
O628 O 0.21267 0.63595 0.79364 0.0
N629 N 0.31816 0.64832 0.87157 0.0
C630 C 0.31775 0.66677 0.89944 0.0
C631 C 0.34026 0.68623 0.90413 0.0
C632 C 0.36289 0.68663 0.87999 0.0
C633 C 0.36253 0.66791 0.851 0.0
C634 C 0.33975 0.64868 0.84804 0.0
H635 H 0.29989 0.66732 0.91717 0.0
O636 O 0.22973 0.6726 0.84613 0.0
O637 O 0.26476 0.6418 0.8387 0.0
O638 O 0.22777 0.62788 0.89801 0.0
O639 O 0.27433 0.62024 0.90717 0.0
C640 C 0.38334 0.66827 0.8243 0.0
C641 C 0.38065 0.65001 0.79478 0.0
H642 H 0.36745 0.61291 0.74109 0.0
H643 H 0.32457 0.58179 0.7395 0.0
H644 H 0.33996 0.70115 0.92601 0.0
H645 H 0.37998 0.70199 0.88337 0.0
H646 H 0.40118 0.68293 0.82584 0.0
H647 H 0.39652 0.65084 0.77413 0.0
Mn648 Mn 0.40445 0.22 0.88067 0.0
Mn649 Mn 0.34418 0.18186 0.89003 0.0
C650 C 0.3862 0.21238 0.93759 0.0
C651 C 0.45416 0.21975 0.87262 0.0
C652 C 0.34507 0.24486 0.86801 0.0
O653 O 0.39822 0.20196 0.83159 0.0
O654 O 0.36188 0.17244 0.84434 0.0
C655 C 0.37119 0.12462 0.89515 0.0
N656 N 0.35343 0.14493 0.90856 0.0
C657 C 0.34434 0.11623 0.9599 0.0
C658 C 0.3617 0.09453 0.94607 0.0
C659 C 0.37535 0.09884 0.9136 0.0
C660 C 0.34069 0.14128 0.94002 0.0
H661 H 0.3825 0.12833 0.87095 0.0
C662 C 0.38098 0.1818 0.82347 0.0
O663 O 0.43858 0.24131 0.86279 0.0
O664 O 0.44079 0.19831 0.88684 0.0
N665 N 0.32431 0.18813 0.9328 0.0
C666 C 0.30894 0.21156 0.94276 0.0
C667 C 0.29575 0.21167 0.97577 0.0
C668 C 0.2983 0.18758 0.9976 0.0
C669 C 0.31269 0.16309 0.98592 0.0
C670 C 0.32525 0.16416 0.95278 0.0
H671 H 0.30737 0.23028 0.92615 0.0
O672 O 0.40533 0.23185 0.93169 0.0
O673 O 0.37954 0.19678 0.91019 0.0
O674 O 0.37187 0.24876 0.8714 0.0
O675 O 0.33319 0.22025 0.87188 0.0
C676 C 0.31587 0.13805 0.00626 0.0
C677 C 0.33145 0.11452 0.99326 0.0
H678 H 0.36526 0.07481 0.96055 0.0
H679 H 0.38933 0.08251 0.90305 0.0
H680 H 0.28434 0.23048 0.98475 0.0
H681 H 0.28974 0.18843 0.02351 0.0
H682 H 0.30688 0.13685 0.03209 0.0
H683 H 0.33401 0.09558 0.00952 0.0
Mn684 Mn 0.78869 0.38692 0.84624 0.0
Mn685 Mn 0.7196 0.40267 0.86036 0.0
C686 C 0.75522 0.35056 0.84696 0.0
C687 C 0.82572 0.37776 0.80669 0.0
C688 C 0.76223 0.39614 0.91988 0.0
O689 O 0.78842 0.4306 0.83925 0.0
O690 O 0.74226 0.43818 0.85114 0.0
C691 C 0.70918 0.42115 0.78683 0.0
N692 N 0.70188 0.40465 0.81505 0.0
C693 C 0.66323 0.38319 0.78294 0.0
C694 C 0.66985 0.40055 0.7539 0.0
C695 C 0.69307 0.41946 0.75578 0.0
C696 C 0.68008 0.3858 0.81317 0.0
H697 H 0.72734 0.43526 0.78785 0.0
C698 C 0.76714 0.44734 0.84323 0.0
O699 O 0.83117 0.38399 0.83941 0.0
O700 O 0.79955 0.3797 0.79673 0.0
N701 N 0.694 0.37135 0.86923 0.0
C702 C 0.69073 0.35552 0.89913 0.0
C703 C 0.66876 0.33516 0.90133 0.0
C704 C 0.65017 0.33139 0.87282 0.0
C705 C 0.65357 0.34823 0.8425 0.0
C706 C 0.67568 0.36843 0.84202 0.0
H707 H 0.7056 0.35738 0.92044 0.0
O708 O 0.78183 0.3451 0.85176 0.0
O709 O 0.74867 0.3773 0.84084 0.0
O710 O 0.78411 0.3925 0.90014 0.0
O711 O 0.73705 0.39972 0.90771 0.0
C712 C 0.63599 0.34562 0.81265 0.0
C713 C 0.64087 0.36303 0.78284 0.0
H714 H 0.65752 0.39924 0.72986 0.0
H715 H 0.69862 0.4326 0.73328 0.0
H716 H 0.66648 0.32207 0.92473 0.0
H717 H 0.63348 0.3154 0.87441 0.0
H718 H 0.61883 0.33011 0.81221 0.0
H719 H 0.62746 0.36056 0.75985 0.0
Mn720 Mn 0.61259 0.21786 0.12622 0.0
Mn721 Mn 0.67239 0.17881 0.11821 0.0
C722 C 0.63162 0.21014 0.06987 0.0
C723 C 0.56284 0.21753 0.13267 0.0
C724 C 0.67244 0.24208 0.13919 0.0
O725 O 0.61734 0.19983 0.17537 0.0
O726 O 0.65476 0.17145 0.16432 0.0
C727 C 0.64416 0.12192 0.11684 0.0
N728 N 0.66172 0.14159 0.10161 0.0
C729 C 0.66737 0.11194 0.05031 0.0
C730 C 0.64984 0.09107 0.06572 0.0
C731 C 0.63815 0.09612 0.09919 0.0
C732 C 0.67299 0.137 0.06951 0.0
H733 H 0.63453 0.12606 0.14202 0.0
C734 C 0.63494 0.18036 0.1843 0.0
O735 O 0.57808 0.23927 0.14301 0.0
O736 O 0.57658 0.19624 0.11882 0.0
N737 N 0.69215 0.18297 0.0751 0.0
C738 C 0.70876 0.20525 0.06427 0.0
C739 C 0.72094 0.20423 0.03071 0.0
C740 C 0.7161 0.18018 0.00938 0.0
C741 C 0.70079 0.15663 0.02205 0.0
C742 C 0.68931 0.15881 0.05567 0.0
H743 H 0.71189 0.224 0.08055 0.0
O744 O 0.61272 0.22985 0.0754 0.0
O745 O 0.6376 0.1943 0.09731 0.0
O746 O 0.64557 0.24618 0.13649 0.0
O747 O 0.68422 0.21755 0.13437 0.0
C748 C 0.69537 0.1317 1.00214 0.0
C749 C 0.67885 0.10925 0.01626 0.0
H750 H 0.64488 0.07133 0.05189 0.0
H751 H 0.62428 0.08034 0.11115 0.0
H752 H 0.73311 0.22227 0.02084 0.0
H753 H 0.72334 0.1804 0.98298 0.0
H754 H 0.70337 0.12971 0.9758 0.0
H755 H 0.67472 0.09029 1.0005 0.0
Mn756 Mn 0.79332 0.62738 0.1601 0.0
Mn757 Mn 0.72405 0.61022 0.14763 0.0
C758 C 0.75908 0.66294 0.16111 0.0
C759 C 0.83177 0.6348 0.19783 0.0
C760 C 0.76562 0.61833 0.08718 0.0
O761 O 0.79387 0.58361 0.16572 0.0
O762 O 0.74751 0.57536 0.15615 0.0
C763 C 0.71613 0.59212 0.22181 0.0
N764 N 0.70748 0.60796 0.19363 0.0
C765 C 0.66939 0.62882 0.22733 0.0
C766 C 0.6773 0.61196 0.25629 0.0
C767 C 0.70095 0.59372 0.2536 0.0
C768 C 0.68545 0.6264 0.19638 0.0
H769 H 0.73474 0.5787 0.22023 0.0
C770 C 0.77268 0.56662 0.16289 0.0
O771 O 0.83579 0.63034 0.16441 0.0
O772 O 0.80594 0.63327 0.2094 0.0
N773 N 0.69731 0.64058 0.13946 0.0
C774 C 0.69162 0.6546 0.10877 0.0
C775 C 0.66879 0.67394 0.10709 0.0
C776 C 0.65147 0.67814 0.13674 0.0
C777 C 0.6568 0.66247 0.16754 0.0
C778 C 0.67979 0.64335 0.16753 0.0
H779 H 0.70478 0.65154 0.086 0.0
O780 O 0.78558 0.66919 0.15633 0.0
O781 O 0.75316 0.63598 0.16663 0.0
O782 O 0.78757 0.62274 0.10647 0.0
O783 O 0.74062 0.61379 0.09962 0.0
C784 C 0.64006 0.66493 0.19818 0.0
C785 C 0.64646 0.64823 0.22813 0.0
H786 H 0.66565 0.61317 0.28087 0.0
H787 H 0.70756 0.58106 0.27605 0.0
H788 H 0.66466 0.68568 0.08303 0.0
H789 H 0.63401 0.69323 0.13545 0.0
H790 H 0.6223 0.67968 0.19903 0.0
H791 H 0.63364 0.65053 0.25167 0.0
Mn792 Mn 0.4039 0.79179 0.13272 0.0
Mn793 Mn 0.34534 0.83289 0.12723 0.0
C794 C 0.38546 0.80249 0.07675 0.0
C795 C 0.45359 0.79012 0.13875 0.0
C796 C 0.34308 0.76871 0.14331 0.0
O797 O 0.3999 0.80795 0.18302 0.0
O798 O 0.36214 0.83631 0.1744 0.0
C799 C 0.37537 0.88874 0.13326 0.0
N800 N 0.35765 0.87083 0.11526 0.0
C801 C 0.35393 0.90448 0.06752 0.0
C802 C 0.37163 0.92354 0.08584 0.0
C803 C 0.38243 0.9156 0.11889 0.0
C804 C 0.34722 0.87822 0.08355 0.0
H805 H 0.38432 0.88248 0.15818 0.0
C806 C 0.38195 0.82651 0.19365 0.0
O807 O 0.43765 0.76856 0.14795 0.0
O808 O 0.44059 0.81244 0.1264 0.0
N809 N 0.32655 0.83268 0.08333 0.0
C810 C 0.30991 0.81169 0.06927 0.0
C811 C 0.29947 0.81525 0.03515 0.0
C812 C 0.30606 0.84048 0.01679 0.0
C813 C 0.32077 0.86284 0.03289 0.0
C814 C 0.33078 0.85802 0.06673 0.0
H815 H 0.30581 0.79194 0.08327 0.0
O816 O 0.40345 0.7818 0.08129 0.0
O817 O 0.37985 0.81745 0.10518 0.0
O818 O 0.36995 0.76417 0.14148 0.0
O819 O 0.33186 0.79359 0.13897 0.0
C820 C 0.32719 0.88899 0.01597 0.0
C821 C 0.34347 0.91002 0.03347 0.0
H822 H 0.37745 0.94409 0.07452 0.0
H823 H 0.39644 0.92999 0.13304 0.0
H824 H 0.2877 0.79815 0.02246 0.0
H825 H 0.30127 0.84205 0.98984 0.0
H826 H 0.32008 0.89299 0.9894 0.0
H827 H 0.34847 0.92996 0.02014 0.0
Mn828 Mn 0.22161 0.38407 0.15704 0.0
Mn829 Mn 0.2895 0.40695 0.14771 0.0
C830 C 0.25852 0.35143 0.1596 0.0
C831 C 0.18267 0.37396 0.19325 0.0
C832 C 0.25133 0.39383 0.08505 0.0
O833 O 0.21717 0.42763 0.16228 0.0
O834 O 0.26252 0.44007 0.15163 0.0
C835 C 0.29202 0.43003 0.22044 0.0
N836 N 0.30239 0.41203 0.19527 0.0
C837 C 0.33569 0.39168 0.23643 0.0
C838 C 0.32541 0.41018 0.26263 0.0
C839 C 0.30344 0.42943 0.25458 0.0
C840 C 0.32322 0.3931 0.20295 0.0
H841 H 0.27503 0.44453 0.21455 0.0
C842 C 0.23657 0.44646 0.15801 0.0
O843 O 0.17933 0.37774 0.15959 0.0
O844 O 0.20798 0.37744 0.20582 0.0
N845 N 0.31916 0.37874 0.14455 0.0
C846 C 0.33091 0.3673 0.11498 0.0
C847 C 0.35416 0.34856 0.11768 0.0
C848 C 0.36614 0.34294 0.15078 0.0
C849 C 0.35565 0.35733 0.18049 0.0
C850 C 0.33237 0.37573 0.17596 0.0
H851 H 0.32265 0.37258 0.08964 0.0
O852 O 0.23276 0.34297 0.15391 0.0
O853 O 0.26199 0.37885 0.16536 0.0
O854 O 0.229 0.38909 0.10367 0.0
O855 O 0.27587 0.39985 0.09838 0.0
C856 C 0.36813 0.35506 0.21408 0.0
C857 C 0.35803 0.37212 0.24212 0.0
H858 H 0.33429 0.40985 0.28896 0.0
H859 H 0.29529 0.44375 0.27465 0.0
H860 H 0.36293 0.33866 0.09427 0.0
H861 H 0.3841 0.32852 0.15285 0.0
H862 H 0.3859 0.34075 0.21845 0.0
H863 H 0.368 0.37048 0.26775 0.0
Mn864 Mn 0.38874 0.22233 0.14082 0.0
Mn865 Mn 0.32381 0.19119 0.13837 0.0
C866 C 0.36646 0.21646 0.08578 0.0
C867 C 0.4386 0.2189 0.1422 0.0
C868 C 0.3334 0.25414 0.15598 0.0
O869 O 0.3855 0.20527 0.19056 0.0
O870 O 0.34348 0.18389 0.18325 0.0
C871 C 0.34595 0.13173 0.13715 0.0
N872 N 0.32722 0.15183 0.12563 0.0
C873 C 0.29784 0.11611 0.09837 0.0
C874 C 0.31636 0.09472 0.11062 0.0
C875 C 0.3409 0.10264 0.12945 0.0
C876 C 0.30506 0.14475 0.10505 0.0
H877 H 0.36438 0.13801 0.15222 0.0
C878 C 0.36531 0.1895 0.20165 0.0
O879 O 0.42538 0.24135 0.1541 0.0
O880 O 0.42277 0.19822 0.13029 0.0
N881 N 0.29854 0.19416 0.09906 0.0
C882 C 0.28223 0.21731 0.0905 0.0
C883 C 0.25618 0.21337 0.07307 0.0
C884 C 0.24648 0.18549 0.06554 0.0
C885 C 0.26324 0.16182 0.07494 0.0
C886 C 0.28918 0.16716 0.09196 0.0
H887 H 0.2881 0.23852 0.09885 0.0
O888 O 0.38685 0.23462 0.09107 0.0
O889 O 0.35982 0.20039 0.11298 0.0
O890 O 0.36038 0.25412 0.15349 0.0
O891 O 0.31792 0.23195 0.15113 0.0
C892 C 0.2549 0.13311 0.06889 0.0
C893 C 0.27242 0.11025 0.08012 0.0
H894 H 0.31201 0.07223 0.10564 0.0
H895 H 0.35547 0.08634 0.13871 0.0
H896 H 0.24321 0.23177 0.06643 0.0
H897 H 0.22621 0.18252 0.05256 0.0
H898 H 0.23512 0.12837 0.05553 0.0
H899 H 0.26602 0.08831 0.07487 0.0
Mn900 Mn 0.78027 0.39485 0.1326 0.0
Mn901 Mn 0.81143 0.33795 0.09316 0.0
C902 C 0.77666 0.39001 0.07236 0.0
C903 C 0.78314 0.44222 0.15379 0.0
C904 C 0.75536 0.33373 0.13243 0.0
O905 O 0.80655 0.3792 0.17036 0.0
O906 O 0.82869 0.34373 0.14093 0.0
C907 C 0.86895 0.36236 0.08352 0.0
N908 N 0.84518 0.35018 0.06957 0.0
C909 C 0.86522 0.35099 0.01124 0.0
C910 C 0.89002 0.36338 0.025 0.0
C911 C 0.89186 0.36914 0.06129 0.0
C912 C 0.84315 0.34457 0.03471 0.0
H913 H 0.87038 0.36687 0.11138 0.0
C914 C 0.82477 0.35896 0.16871 0.0
O915 O 0.76422 0.42424 0.16548 0.0
O916 O 0.80131 0.43216 0.1313 0.0
N917 N 0.79712 0.32938 0.04713 0.0
C918 C 0.77117 0.3188 0.03782 0.0
C919 C 0.76552 0.31265 1.00227 0.0
C920 C 0.78671 0.3171 0.97677 0.0
C921 C 0.81336 0.32766 0.98703 0.0
C922 C 0.8178 0.33329 0.02287 0.0
H923 H 0.75481 0.3153 0.05733 0.0
O924 O 0.75938 0.40636 0.08979 0.0
O925 O 0.79657 0.37745 0.09076 0.0
O926 O 0.75272 0.36044 0.13993 0.0
O927 O 0.77668 0.32337 0.11597 0.0
C928 C 0.83546 0.3335 0.96301 0.0
C929 C 0.86135 0.34519 0.9751 0.0
H930 H 0.90769 0.36877 0.00792 0.0
H931 H 0.91088 0.37882 0.07207 0.0
H932 H 0.74489 0.30455 0.99453 0.0
H933 H 0.78225 0.31251 0.94936 0.0
H934 H 0.8326 0.32948 0.93512 0.0
H935 H 0.87805 0.34993 0.95632 0.0
Mn936 Mn 0.62759 0.78988 0.13552 0.0
Mn937 Mn 0.69068 0.8237 0.12672 0.0
C938 C 0.64681 0.79771 0.07926 0.0
C939 C 0.57791 0.79036 0.14149 0.0
C940 C 0.68529 0.76064 0.14485 0.0
O941 O 0.63323 0.80707 0.1848 0.0
O942 O 0.67467 0.82919 0.1743 0.0
C943 C 0.66909 0.8832 0.13263 0.0
N944 N 0.68495 0.86314 0.11551 0.0
C945 C 0.71036 0.89935 0.08339 0.0
C946 C 0.69418 0.92056 0.10034 0.0
C947 C 0.67307 0.9124 0.12463 0.0
C948 C 0.70387 0.87062 0.09048 0.0
H949 H 0.65399 0.87693 0.15266 0.0
C950 C 0.65406 0.82267 0.19458 0.0
O951 O 0.59308 0.76872 0.15184 0.0
O952 O 0.59172 0.81205 0.12841 0.0
N953 N 0.7106 0.82152 0.08314 0.0
C954 C 0.72456 0.79838 0.06982 0.0
C955 C 0.74819 0.80247 0.04795 0.0
C956 C 0.75767 0.83042 0.04083 0.0
C957 C 0.74205 0.85404 0.05321 0.0
C958 C 0.71828 0.84853 0.07423 0.0
H959 H 0.71842 0.77707 0.07717 0.0
O960 O 0.62746 0.77842 0.08492 0.0
O961 O 0.65368 0.81338 0.10644 0.0
O962 O 0.65825 0.75961 0.14586 0.0
O963 O 0.69939 0.78327 0.13765 0.0
C964 C 0.75011 0.88281 0.04734 0.0
C965 C 0.73369 0.90547 0.06137 0.0
H966 H 0.69813 0.94313 0.09542 0.0
H967 H 0.66068 0.92862 0.13809 0.0
H968 H 0.75986 0.78414 0.03803 0.0
H969 H 0.77709 0.83342 0.02599 0.0
H970 H 0.76888 0.88776 0.03196 0.0
H971 H 0.73981 0.92749 0.0561 0.0
Mn972 Mn 0.23088 0.61889 0.1305 0.0
Mn973 Mn 0.20195 0.67877 0.09526 0.0
C974 C 0.23501 0.62671 0.07086 0.0
C975 C 0.22555 0.57043 0.14726 0.0
C976 C 0.25782 0.6792 0.13527 0.0
O977 O 0.20462 0.63353 0.169 0.0
O978 O 0.18406 0.67134 0.1423 0.0
C979 C 0.14381 0.65672 0.08307 0.0
N980 N 0.16815 0.66867 0.07034 0.0
C981 C 0.14921 0.67012 0.01149 0.0
C982 C 0.12384 0.65803 0.02401 0.0
C983 C 0.12115 0.65127 0.05995 0.0
C984 C 0.17097 0.67527 0.03583 0.0
H985 H 0.14176 0.65136 0.11065 0.0
C986 C 0.18713 0.65447 0.16876 0.0
O987 O 0.24498 0.5867 0.16128 0.0
O988 O 0.20853 0.58264 0.12512 0.0
N989 N 0.21709 0.6889 0.05016 0.0
C990 C 0.24344 0.69917 0.04209 0.0
C991 C 0.24999 0.70601 0.00699 0.0
C992 C 0.22931 0.70256 0.98069 0.0
C993 C 0.20214 0.69262 0.98975 0.0
C994 C 0.19682 0.68621 0.02519 0.0
H995 H 0.25947 0.70173 0.06217 0.0
O996 O 0.2518 0.60899 0.08697 0.0
O997 O 0.21557 0.63904 0.09021 0.0
O998 O 0.25953 0.65206 0.14095 0.0
O999 O 0.23692 0.691 0.11948 0.0
C1000 C 0.18041 0.68801 0.96486 0.0
C1001 C 0.15396 0.67677 0.97573 0.0
H1002 H 0.10638 0.65362 0.00623 0.0
H1003 H 0.10169 0.64179 0.06977 0.0
H1004 H 0.271 0.71369 1.00017 0.0
H1005 H 0.23463 0.70728 0.95361 0.0
H1006 H 0.18396 0.69265 0.93723 0.0
H1007 H 0.13754 0.67299 0.95629 0.0
Mn1008 Mn 0.38738 0.79698 0.87087 0.0
Mn1009 Mn 0.32618 0.83414 0.87818 0.0
C1010 C 0.36757 0.80376 0.92737 0.0
C1011 C 0.43775 0.7975 0.86795 0.0
C1012 C 0.32799 0.77102 0.85782 0.0
O1013 O 0.38433 0.81533 0.82194 0.0
O1014 O 0.3439 0.83896 0.83164 0.0
C1015 C 0.35203 0.89212 0.8747 0.0
N1016 N 0.33357 0.87325 0.88972 0.0
C1017 C 0.30763 0.91128 0.91785 0.0
C1018 C 0.32657 0.93128 0.90316 0.0
C1019 C 0.34914 0.92161 0.88188 0.0
C1020 C 0.31276 0.88218 0.91149 0.0
H1021 H 0.36836 0.88469 0.85686 0.0
C1022 C 0.36447 0.83187 0.81179 0.0
O1023 O 0.42306 0.77598 0.85584 0.0
O1024 O 0.42313 0.81848 0.88099 0.0
N1025 N 0.30367 0.8336 0.91985 0.0
C1026 C 0.28836 0.81136 0.93318 0.0
C1027 C 0.26273 0.81693 0.95107 0.0
C1028 C 0.25376 0.8455 0.9562 0.0
C1029 C 0.27105 0.86819 0.94441 0.0
C1030 C 0.29584 0.86114 0.92589 0.0
H1031 H 0.29592 0.78965 0.93015 0.0
O1032 O 0.38575 0.78371 0.92044 0.0
O1033 O 0.3618 0.82098 0.90096 0.0
O1034 O 0.35511 0.76827 0.85748 0.0
O1035 O 0.31564 0.79446 0.86609 0.0
C1036 C 0.26489 0.89744 0.95044 0.0
C1037 C 0.28347 0.91897 0.93772 0.0
H1038 H 0.32379 0.95409 0.90765 0.0
H1039 H 0.36365 0.9369 0.87014 0.0
H1040 H 0.25017 0.79932 0.9613 0.0
H1041 H 0.23424 0.84975 0.97038 0.0
H1042 H 0.24611 0.90359 0.96511 0.0
H1043 H 0.27871 0.94134 0.94284 0.0
Mn1044 Mn 0.23838 0.3983 0.87207 0.0
Mn1045 Mn 0.20374 0.34156 0.90725 0.0
C1046 C 0.23954 0.39165 0.9323 0.0
C1047 C 0.23689 0.44628 0.85251 0.0
C1048 C 0.26129 0.3365 0.87123 0.0
O1049 O 0.21318 0.38404 0.83209 0.0
O1050 O 0.188 0.34945 0.85932 0.0
C1051 C 0.14738 0.36876 0.91596 0.0
N1052 N 0.17016 0.35501 0.9302 0.0
C1053 C 0.14954 0.35688 0.9882 0.0
C1054 C 0.12575 0.37088 0.97412 0.0
C1055 C 0.1247 0.37689 0.93786 0.0
C1056 C 0.17147 0.34931 0.96509 0.0
H1057 H 0.1466 0.37354 0.88813 0.0
C1058 C 0.1937 0.3649 0.83227 0.0
O1059 O 0.25629 0.42857 0.84146 0.0
O1060 O 0.2179 0.43577 0.87359 0.0
N1061 N 0.21639 0.3309 0.95326 0.0
C1062 C 0.24064 0.31686 0.96247 0.0
C1063 C 0.24489 0.3089 0.9977 0.0
C1064 C 0.22419 0.31541 0.02315 0.0
C1065 C 0.19907 0.32925 0.01289 0.0
C1066 C 0.1958 0.33618 0.97722 0.0
H1067 H 0.25663 0.31167 0.94308 0.0
O1068 O 0.25781 0.40823 0.91683 0.0
O1069 O 0.2202 0.38017 0.91204 0.0
O1070 O 0.26519 0.36335 0.86536 0.0
O1071 O 0.23862 0.32631 0.88508 0.0
C1072 C 0.17718 0.33648 0.03661 0.0
C1073 C 0.15247 0.35039 0.0243 0.0
H1074 H 0.10824 0.37723 0.99093 0.0
H1075 H 0.10647 0.38781 0.92683 0.0
H1076 H 0.26402 0.29759 0.00501 0.0
H1077 H 0.22766 0.30944 0.05039 0.0
H1078 H 0.17918 0.33157 0.0644 0.0
H1079 H 0.13587 0.35601 0.04282 0.0
Mn1080 Mn 0.62868 0.21848 0.86603 0.0
Mn1081 Mn 0.69259 0.18525 0.87063 0.0
C1082 C 0.64992 0.21205 0.9216 0.0
C1083 C 0.5786 0.21791 0.86325 0.0
C1084 C 0.68589 0.24846 0.85404 0.0
O1085 O 0.63198 0.20118 0.81644 0.0
O1086 O 0.67413 0.18048 0.82456 0.0
C1087 C 0.66718 0.12709 0.86809 0.0
N1088 N 0.68676 0.14574 0.88117 0.0
C1089 C 0.71296 0.10767 0.90848 0.0
C1090 C 0.69354 0.08776 0.89463 0.0
C1091 C 0.67018 0.09758 0.87493 0.0
C1092 C 0.7078 0.13684 0.90245 0.0
H1093 H 0.64966 0.1348 0.85237 0.0
C1094 C 0.65273 0.18616 0.80549 0.0
O1095 O 0.59346 0.23934 0.85155 0.0
O1096 O 0.59289 0.19638 0.87583 0.0
N1097 N 0.71702 0.1856 0.91089 0.0
C1098 C 0.73465 0.20747 0.9206 0.0
C1099 C 0.76041 0.2015 0.93784 0.0
C1100 C 0.76817 0.17291 0.94466 0.0
C1101 C 0.74995 0.15058 0.93439 0.0
C1102 C 0.72468 0.15791 0.91696 0.0
H1103 H 0.72984 0.22924 0.91369 0.0
O1104 O 0.63032 0.23092 0.91576 0.0
O1105 O 0.65631 0.19546 0.89478 0.0
O1106 O 0.65882 0.24886 0.85361 0.0
O1107 O 0.7006 0.22606 0.86051 0.0
C1108 C 0.75621 0.12129 0.93992 0.0
C1109 C 0.73743 0.09985 0.92756 0.0
H1110 H 0.69632 0.06494 0.89898 0.0
H1111 H 0.65494 0.08243 0.8644 0.0
H1112 H 0.77444 0.21889 0.94534 0.0
H1113 H 0.78807 0.16838 0.95783 0.0
H1114 H 0.77536 0.11502 0.95369 0.0
H1115 H 0.74224 0.07744 0.93236 0.0
Mn1116 Mn 0.77713 0.61994 0.87418 0.0
Mn1117 Mn 0.81047 0.67598 0.91302 0.0
C1118 C 0.77461 0.62523 0.93458 0.0
C1119 C 0.77826 0.57205 0.85365 0.0
C1120 C 0.75452 0.68199 0.87368 0.0
O1121 O 0.80407 0.63446 0.83606 0.0
O1122 O 0.82735 0.66938 0.86537 0.0
C1123 C 0.86747 0.65042 0.92243 0.0
N1124 N 0.84389 0.66285 0.93651 0.0
C1125 C 0.86418 0.66204 0.99468 0.0
C1126 C 0.88877 0.64936 0.98077 0.0
C1127 C 0.89037 0.64343 0.94452 0.0
C1128 C 0.84204 0.66848 0.97139 0.0
H1129 H 0.8688 0.64593 0.89455 0.0
C1130 C 0.82299 0.65416 0.8377 0.0
O1131 O 0.75984 0.59051 0.84195 0.0
O1132 O 0.79683 0.58185 0.8758 0.0
N1133 N 0.79649 0.68502 0.95909 0.0
C1134 C 0.77116 0.69703 0.96836 0.0
C1135 C 0.76587 0.70368 0.00387 0.0
C1136 C 0.78679 0.69823 0.02937 0.0
C1137 C 0.81286 0.6863 0.01912 0.0
C1138 C 0.81696 0.68024 0.98334 0.0
H1139 H 0.75506 0.70139 0.94884 0.0
O1140 O 0.75615 0.6097 0.91787 0.0
O1141 O 0.79451 0.63698 0.91543 0.0
O1142 O 0.75087 0.65533 0.86649 0.0
O1143 O 0.77617 0.69159 0.89021 0.0
C1144 C 0.8349 0.68011 0.04303 0.0
C1145 C 0.86055 0.66802 0.03081 0.0
H1146 H 0.90644 0.64385 0.99773 0.0
H1147 H 0.90923 0.63353 0.93362 0.0
H1148 H 0.74575 0.71301 0.01157 0.0
H1149 H 0.7827 0.70341 0.0567 0.0
H1150 H 0.83228 0.68444 0.0709 0.0
H1151 H 0.87726 0.66316 0.04948 0.0
C1152 C 0.24059 0.22716 0.35356 0.0
C1153 C 0.23365 0.19906 0.36416 0.0
C1154 C 0.21983 0.24857 0.35061 0.0
C1155 C 0.19107 0.24308 0.35856 0.0
H1156 H 0.26255 0.23297 0.3487 0.0
H1157 H 0.22674 0.27 0.34349 0.0
S1158 S 0.16145 0.17237 0.38558 0.0
N1159 N 0.19579 0.16628 0.38066 0.0
N1160 N 0.1566 0.20656 0.37563 0.0
C1161 C 0.18355 0.21459 0.36738 0.0
C1162 C 0.20485 0.19261 0.37008 0.0
C1163 C 0.79985 0.18949 0.32354 0.0
C1164 C 0.77464 0.18653 0.34319 0.0
C1165 C 0.81731 0.21405 0.32726 0.0
C1166 C 0.80862 0.23759 0.34799 0.0
H1167 H 0.80616 0.17275 0.30543 0.0
H1168 H 0.83742 0.2148 0.3134 0.0
S1169 S 0.73849 0.24508 0.39243 0.0
N1170 N 0.73931 0.21162 0.37846 0.0
N1171 N 0.76882 0.25907 0.37938 0.0
C1172 C 0.78126 0.23641 0.36299 0.0
C1173 C 0.76495 0.21074 0.36186 0.0
C1174 C 0.79509 0.75858 0.35602 0.0
C1175 C 0.82389 0.76398 0.36371 0.0
C1176 C 0.77467 0.78045 0.35733 0.0
C1177 C 0.78198 0.8089 0.36614 0.0
H1178 H 0.78795 0.73698 0.35007 0.0
H1179 H 0.75268 0.77479 0.35245 0.0
S1180 S 0.85437 0.83518 0.38726 0.0
N1181 N 0.85875 0.80057 0.37927 0.0
N1182 N 0.8202 0.84163 0.38146 0.0
C1183 C 0.81081 0.81507 0.37223 0.0
C1184 C 0.83176 0.79267 0.37108 0.0
C1185 C 0.2175 0.78702 0.38378 0.0
C1186 C 0.20265 0.77763 0.35381 0.0
C1187 C 0.23558 0.81081 0.38233 0.0
C1188 C 0.23828 0.82698 0.35136 0.0
H1189 H 0.21505 0.77603 0.40867 0.0
H1190 H 0.2472 0.81692 0.40581 0.0
S1191 S 0.20446 0.81113 0.2654 0.0
N1192 N 0.19221 0.78585 0.292 0.0
N1193 N 0.22567 0.83151 0.28955 0.0
C1194 C 0.22333 0.81813 0.32121 0.0
C1195 C 0.20533 0.79339 0.32249 0.0
C1196 C 0.18294 0.79805 0.63612 0.0
C1197 C 0.19001 0.77 0.64724 0.0
C1198 C 0.20346 0.82021 0.63523 0.0
C1199 C 0.23177 0.81508 0.64539 0.0
H1200 H 0.16189 0.80253 0.62605 0.0
H1201 H 0.19758 0.84088 0.62439 0.0
S1202 S 0.26014 0.74721 0.68237 0.0
N1203 N 0.22666 0.7398 0.67312 0.0
N1204 N 0.2649 0.78107 0.6709 0.0
C1205 C 0.23853 0.78784 0.65891 0.0
C1206 C 0.21777 0.76543 0.66001 0.0
C1207 C 0.23713 0.20455 0.62603 0.0
C1208 C 0.23781 0.18897 0.6576 0.0
C1209 C 0.21972 0.22863 0.62241 0.0
C1210 C 0.20338 0.23882 0.65075 0.0
H1211 H 0.24983 0.19773 0.60375 0.0
H1212 H 0.21892 0.23911 0.59708 0.0
S1213 S 0.19946 0.2069 0.73995 0.0
N1214 N 0.22164 0.18578 0.71826 0.0
N1215 N 0.18923 0.23185 0.71169 0.0
C1216 C 0.20392 0.22356 0.68262 0.0
C1217 C 0.22136 0.1986 0.68614 0.0
C1218 C 0.81251 0.20083 0.62414 0.0
C1219 C 0.78388 0.20561 0.63336 0.0
C1220 C 0.83257 0.22353 0.62426 0.0
C1221 C 0.82467 0.25182 0.63348 0.0
H1222 H 0.81911 0.17983 0.61498 0.0
H1223 H 0.85404 0.21917 0.61549 0.0
S1224 S 0.75339 0.27447 0.66504 0.0
N1225 N 0.7496 0.24005 0.65572 0.0
N1226 N 0.78683 0.28224 0.65604 0.0
C1227 C 0.7965 0.2563 0.64476 0.0
C1228 C 0.77628 0.23336 0.64468 0.0
C1229 C 0.81512 0.79698 0.67937 0.0
C1230 C 0.80666 0.77344 0.65841 0.0
C1231 C 0.79792 0.82179 0.6823 0.0
C1232 C 0.7732 0.82495 0.66179 0.0
H1233 H 0.83491 0.79611 0.69386 0.0
H1234 H 0.80415 0.83864 0.70032 0.0
S1235 S 0.73772 0.76682 0.61106 0.0
N1236 N 0.76742 0.75246 0.62549 0.0
N1237 N 0.73858 0.80027 0.62505 0.0
C1238 C 0.7637 0.80082 0.64283 0.0
C1239 C 0.7797 0.77494 0.6424 0.0
C1240 C 0.68402 0.72214 0.86838 0.0
C1241 C 0.69259 0.75 0.85806 0.0
C1242 C 0.70372 0.69936 0.87104 0.0
C1243 C 0.73272 0.70366 0.86361 0.0
H1244 H 0.66229 0.71825 0.87649 0.0
H1245 H 0.69652 0.67883 0.88109 0.0
S1246 S 0.76541 0.77081 0.82991 0.0
N1247 N 0.73169 0.77918 0.83601 0.0
N1248 N 0.76836 0.73678 0.8415 0.0
C1249 C 0.74113 0.73075 0.85094 0.0
C1250 C 0.7212 0.75378 0.84802 0.0
C1251 C 0.30041 0.69781 0.82563 0.0
C1252 C 0.27541 0.69439 0.84561 0.0
C1253 C 0.31781 0.72241 0.82966 0.0
C1254 C 0.30924 0.7456 0.8511 0.0
H1255 H 0.30666 0.68135 0.8071 0.0
H1256 H 0.33779 0.72345 0.81556 0.0
S1257 S 0.23946 0.75192 0.89677 0.0
N1258 N 0.24039 0.71866 0.88215 0.0
N1259 N 0.26951 0.76633 0.88338 0.0
C1260 C 0.28198 0.74401 0.86639 0.0
C1261 C 0.26582 0.71823 0.86501 0.0
C1262 C 0.29728 0.26523 0.85294 0.0
C1263 C 0.32581 0.27007 0.86259 0.0
C1264 C 0.27706 0.28731 0.85375 0.0
C1265 C 0.28436 0.31545 0.86388 0.0
H1266 H 0.29008 0.24384 0.84605 0.0
H1267 H 0.2552 0.28202 0.84758 0.0
S1268 S 0.35626 0.34046 0.88949 0.0
N1269 N 0.36052 0.30594 0.88088 0.0
N1270 N 0.32241 0.34744 0.88203 0.0
C1271 C 0.31304 0.32116 0.8716 0.0
C1272 C 0.33376 0.29853 0.87103 0.0
C1273 C 0.71729 0.28511 0.8807 0.0
C1274 C 0.70131 0.2759 0.85157 0.0
C1275 C 0.73439 0.30957 0.87885 0.0
C1276 C 0.73492 0.32664 0.84844 0.0
H1277 H 0.71637 0.27358 0.90534 0.0
H1278 H 0.74682 0.3156 0.9017 0.0
S1279 S 0.69763 0.31156 0.76453 0.0
N1280 N 0.68756 0.28523 0.791 0.0
N1281 N 0.71924 0.33215 0.78785 0.0
C1282 C 0.71888 0.31797 0.81911 0.0
C1283 C 0.70185 0.29254 0.82075 0.0
C1284 C 0.68424 0.29481 0.13244 0.0
C1285 C 0.69173 0.26721 0.14472 0.0
C1286 C 0.70435 0.31731 0.13102 0.0
C1287 C 0.73262 0.31295 0.14181 0.0
H1288 H 0.66324 0.2986 0.12179 0.0
H1289 H 0.69825 0.33758 0.11923 0.0
S1290 S 0.76193 0.24656 0.18152 0.0
N1291 N 0.72866 0.2383 0.17214 0.0
N1292 N 0.76616 0.28023 0.16893 0.0
C1293 C 0.73976 0.28621 0.15643 0.0
C1294 C 0.71942 0.26346 0.15806 0.0
C1295 C 0.7364 0.70052 0.12549 0.0
C1296 C 0.73794 0.6858 0.15759 0.0
C1297 C 0.71807 0.72378 0.1213 0.0
C1298 C 0.70158 0.73399 0.14949 0.0
H1299 H 0.74899 0.69351 0.10321 0.0
H1300 H 0.71668 0.73349 0.0956 0.0
S1301 S 0.70003 0.70442 0.24001 0.0
N1302 N 0.72268 0.68355 0.21868 0.0
N1303 N 0.68855 0.72822 0.21101 0.0
C1304 C 0.70316 0.7197 0.18198 0.0
C1305 C 0.72155 0.69553 0.1861 0.0
C1306 C 0.30927 0.6943 0.13322 0.0
C1307 C 0.28137 0.69889 0.1454 0.0
C1308 C 0.32987 0.71639 0.13465 0.0
C1309 C 0.32324 0.74386 0.14816 0.0
H1310 H 0.31465 0.67426 0.12033 0.0
H1311 H 0.35054 0.71245 0.12308 0.0
S1312 S 0.25449 0.76494 0.18873 0.0
N1313 N 0.24926 0.73165 0.17514 0.0
N1314 N 0.28764 0.77279 0.17816 0.0
C1315 C 0.296 0.7478 0.16278 0.0
C1316 C 0.27518 0.72545 0.16129 0.0
C1317 C 0.29254 0.31863 0.19011 0.0
C1318 C 0.28142 0.33003 0.15866 0.0
C1319 C 0.31072 0.29462 0.18949 0.0
C1320 C 0.31862 0.28193 0.15734 0.0
H1321 H 0.28618 0.32755 0.21528 0.0
H1322 H 0.31786 0.28542 0.21414 0.0
S1323 S 0.29717 0.30527 0.06813 0.0
N1324 N 0.27954 0.3268 0.09494 0.0
N1325 N 0.31635 0.28415 0.0936 0.0
C1326 C 0.30873 0.29409 0.1259 0.0
C1327 C 0.28923 0.31739 0.1266 0.0
C1328 C 0.9832 0.31267 0.3729 0.0
C1329 C 0.96781 0.28888 0.36014 0.0
C1330 C 0.013 0.3126 0.37424 0.0
C1331 C 0.02896 0.28873 0.3629 0.0
H1332 H 0.97215 0.33156 0.38238 0.0
H1333 H 0.02357 0.33146 0.38464 0.0
S1334 S 0.99921 0.2211 0.32618 0.0
N1335 N 0.97099 0.24085 0.33514 0.0
N1336 N 0.02696 0.24072 0.33765 0.0
C1337 C 0.01393 0.26489 0.34955 0.0
C1338 C 0.98344 0.26496 0.34817 0.0
C1339 C 0.76402 0.0134 0.33537 0.0
C1340 C 0.74066 0.03178 0.34105 0.0
C1341 C 0.7611 0.98334 0.33668 0.0
C1342 C 0.73479 0.97037 0.34434 0.0
H1343 H 0.78493 0.02229 0.3305 0.0
H1344 H 0.77991 0.97025 0.33329 0.0
S1345 S 0.66653 0.00848 0.3589 0.0
N1346 N 0.68986 0.03446 0.35247 0.0
N1347 N 0.68454 0.97818 0.35554 0.0
C1348 C 0.71105 0.9884 0.34877 0.0
C1349 C 0.71392 0.019 0.34694 0.0
C1350 C 0.03226 0.69762 0.37781 0.0
C1351 C 0.04714 0.72139 0.36417 0.0
C1352 C 1.00248 0.69713 0.37912 0.0
C1353 C 0.98612 0.7204 0.36687 0.0
H1354 H 0.04367 0.67921 0.38795 0.0
H1355 H 0.99226 0.67834 0.3902 0.0
S1356 S 0.01451 0.78766 0.32769 0.0
N1357 N 0.04309 0.76871 0.3374 0.0
N1358 N 0.98715 0.76777 0.33989 0.0
C1359 C 1.00065 0.7442 0.35269 0.0
C1360 C 0.03109 0.7447 0.35134 0.0
C1361 C 0.25851 0.99583 0.33474 0.0
C1362 C 0.28095 0.97748 0.34465 0.0
C1363 C 0.26119 0.02586 0.33637 0.0
C1364 C 0.28627 0.03895 0.34859 0.0
H1365 H 0.23831 0.98691 0.32649 0.0
H1366 H 0.2429 0.03883 0.3296 0.0
S1367 S 0.35219 1.00087 0.37516 0.0
N1368 N 0.32986 0.97481 0.36481 0.0
N1369 N 0.33479 0.03118 0.36848 0.0
C1370 C 0.30935 0.02094 0.3571 0.0
C1371 C 0.30674 0.99028 0.35494 0.0
C1372 C 0.01198 0.70065 0.62855 0.0
C1373 C 0.02807 0.72437 0.64018 0.0
C1374 C 0.98217 0.70052 0.6303 0.0
C1375 C 0.96687 0.7241 0.64379 0.0
H1376 H 0.02245 0.68194 0.61766 0.0
H1377 H 0.97105 0.68172 0.62065 0.0
S1378 S 0.99862 0.79151 0.6785 0.0
N1379 N 0.02627 0.77207 0.6663 0.0
N1380 N 0.97031 0.77183 0.66958 0.0
C1381 C 0.98264 0.7479 0.65593 0.0
C1382 C 0.01313 0.74804 0.65413 0.0
C1383 C 0.25651 0.98961 0.67337 0.0
C1384 C 0.28199 0.97634 0.66293 0.0
C1385 C 0.25407 0.01967 0.67475 0.0
C1386 C 0.27714 0.0378 0.66636 0.0
H1387 H 0.23782 0.97676 0.67885 0.0
H1388 H 0.23363 0.02877 0.68162 0.0
S1389 S 0.34946 0.01378 0.64103 0.0
N1390 N 0.33144 0.98365 0.6465 0.0
N1391 N 0.32696 0.04004 0.64971 0.0
C1392 C 0.30323 0.02478 0.65792 0.0
C1393 C 0.30561 0.99413 0.65601 0.0
C1394 C 0.03337 0.27417 0.64862 0.0
C1395 C 0.04929 0.29914 0.64119 0.0
C1396 C 1.00342 0.27429 0.64767 0.0
C1397 C 0.9882 0.29942 0.63935 0.0
H1398 H 0.04409 0.25416 0.65445 0.0
H1399 H 0.99218 0.25441 0.65279 0.0
S1400 S 0.01975 0.37121 0.62098 0.0
N1401 N 0.04737 0.35008 0.62739 0.0
N1402 N 0.99158 0.35047 0.6258 0.0
C1403 C 1.00393 0.32474 0.63304 0.0
C1404 C 0.03429 0.32457 0.6339 0.0
C1405 C 0.76436 0.02863 0.6629 0.0
C1406 C 0.73818 0.04223 0.65654 0.0
C1407 C 0.76655 0.99846 0.66417 0.0
C1408 C 0.74259 0.98054 0.65967 0.0
H1409 H 0.78358 0.0413 0.66532 0.0
H1410 H 0.78738 0.98913 0.66808 0.0
S1411 S 0.66853 1.00571 0.64583 0.0
N1412 N 0.68743 0.03554 0.64809 0.0
N1413 N 0.69138 0.97916 0.651 0.0
C1414 C 0.71603 0.99401 0.65512 0.0
C1415 C 0.71389 0.02471 0.65339 0.0
C1416 C 0.51566 0.77447 0.85775 0.0
C1417 C 0.53093 0.7984 0.87055 0.0
C1418 C 0.48565 0.77435 0.85653 0.0
C1419 C 0.46961 0.79816 0.86802 0.0
H1420 H 0.52692 0.75554 0.84886 0.0
H1421 H 0.47498 0.75531 0.8468 0.0
S1422 S 0.4992 0.86668 0.90277 0.0
N1423 N 0.5274 0.84688 0.89415 0.0
N1424 N 0.47163 0.84667 0.89187 0.0
C1425 C 0.48469 0.82234 0.88043 0.0
C1426 C 0.5151 0.82246 0.88169 0.0
C1427 C 0.26417 0.49105 0.83747 0.0
C1428 C 0.23805 0.4777 0.84507 0.0
C1429 C 0.26664 0.52115 0.83599 0.0
C1430 C 0.243 0.53923 0.84147 0.0
H1431 H 0.28319 0.47823 0.83425 0.0
H1432 H 0.28745 0.53033 0.83122 0.0
S1433 S 0.16911 0.51479 0.85866 0.0
N1434 N 0.18762 0.48478 0.8557 0.0
N1435 N 0.19207 0.54112 0.85235 0.0
C1436 C 0.21642 0.52603 0.84718 0.0
C1437 C 0.21401 0.49539 0.84917 0.0
C1438 C 0.50168 0.19599 0.88092 0.0
C1439 C 0.48576 0.21956 0.86856 0.0
C1440 C 0.5315 0.19546 0.87856 0.0
C1441 C 0.54683 0.21847 0.86372 0.0
H1442 H 0.49107 0.17779 0.8929 0.0
H1443 H 0.5426 0.17693 0.88889 0.0
S1444 S 0.51543 0.28505 0.82634 0.0
N1445 N 0.48777 0.26632 0.84009 0.0
N1446 N 0.54358 0.26536 0.83565 0.0
C1447 C 0.53118 0.24203 0.85075 0.0
C1448 C 0.50078 0.24256 0.85317 0.0
C1449 C 0.79667 0.49213 0.85151 0.0
C1450 C 0.7711 0.47916 0.84063 0.0
C1451 C 0.79921 0.52222 0.85427 0.0
C1452 C 0.77649 0.54066 0.84558 0.0
H1453 H 0.81443 0.47892 0.85965 0.0
H1454 H 0.81892 0.53106 0.86426 0.0
S1455 S 0.70594 0.5177 0.81207 0.0
N1456 N 0.7232 0.48737 0.81882 0.0
N1457 N 0.72826 0.54357 0.82305 0.0
C1458 C 0.75139 0.52801 0.83271 0.0
C1459 C 0.74862 0.49741 0.83053 0.0
C1460 C 0.48672 0.24117 0.15201 0.0
C1461 C 0.47026 0.2175 0.14096 0.0
C1462 C 0.51655 0.24093 0.14959 0.0
C1463 C 0.53124 0.21701 0.13602 0.0
H1464 H 0.47651 0.26026 0.16227 0.0
H1465 H 0.52814 0.2598 0.15814 0.0
S1466 S 0.49826 0.14907 0.10449 0.0
N1467 N 0.4711 0.16914 0.11667 0.0
N1468 N 0.52685 0.16863 0.11217 0.0
C1469 C 0.51504 0.19301 0.12536 0.0
C1470 C 0.48469 0.19327 0.12782 0.0
C1471 C 0.80201 0.52196 0.15382 0.0
C1472 C 0.77687 0.53496 0.16598 0.0
C1473 C 0.80442 0.49185 0.1515 0.0
C1474 C 0.782 0.47355 0.1619 0.0
H1475 H 0.8194 0.5351 0.14429 0.0
H1476 H 0.82368 0.48291 0.14039 0.0
S1477 S 0.71295 0.4968 0.1996 0.0
N1478 N 0.72994 0.52702 0.19109 0.0
N1479 N 0.73479 0.47084 0.18769 0.0
C1480 C 0.7575 0.4863 0.17621 0.0
C1481 C 0.75484 0.51686 0.17795 0.0
C1482 C 0.50099 0.81348 0.1295 0.0
C1483 C 0.4852 0.78961 0.14133 0.0
C1484 C 0.53078 0.81364 0.13027 0.0
C1485 C 0.54625 0.78995 0.14294 0.0
H1486 H 0.4903 0.83224 0.11912 0.0
H1487 H 0.54175 0.83246 0.12041 0.0
S1488 S 0.51526 0.72235 0.17823 0.0
N1489 N 0.48741 0.74182 0.16703 0.0
N1490 N 0.54336 0.74209 0.16854 0.0
C1491 C 0.53077 0.76607 0.15545 0.0
C1492 C 0.50032 0.7659 0.15462 0.0
C1493 C 0.22095 0.49062 0.12626 0.0
C1494 C 0.22904 0.47743 0.15799 0.0
C1495 C 0.21858 0.52067 0.12364 0.0
C1496 C 0.22494 0.53875 0.15241 0.0
H1497 H 0.21745 0.47767 0.10293 0.0
H1498 H 0.21307 0.52987 0.09834 0.0
S1499 S 0.2436 0.51476 0.24252 0.0
N1500 N 0.2402 0.48463 0.21987 0.0
N1501 N 0.23731 0.54107 0.2144 0.0
C1502 C 0.23199 0.52578 0.18463 0.0
C1503 C 0.23367 0.49513 0.18754 0.0
C1504 C 0.13466 0.32806 0.48688 0.0
C1505 C 0.1412 0.30388 0.46594 0.0
C1506 C 0.14179 0.32916 0.52319 0.0
C1507 C 0.15552 0.30601 0.54013 0.0
H1508 H 0.1227 0.34564 0.47556 0.0
H1509 H 0.13433 0.34718 0.53869 0.0
S1510 S 0.17779 0.23809 0.49707 0.0
N1511 N 0.16264 0.25654 0.46503 0.0
N1512 N 0.17609 0.2587 0.53245 0.0
C1513 C 0.16303 0.28231 0.51903 0.0
C1514 C 0.15559 0.28107 0.48239 0.0
C1515 C 0.76293 0.13424 0.51225 0.0
C1516 C 0.73764 0.12727 0.52966 0.0
C1517 C 0.7654 0.1313 0.47581 0.0
C1518 C 0.74264 0.12132 0.45501 0.0
H1519 H 0.7812 0.14164 0.52709 0.0
H1520 H 0.78566 0.13653 0.46415 0.0
S1521 S 0.67341 0.09527 0.48903 0.0
N1522 N 0.6906 0.1062 0.52456 0.0
N1523 N 0.69465 0.10193 0.45531 0.0
C1524 C 0.71726 0.11367 0.47226 0.0
C1525 C 0.71496 0.11619 0.50977 0.0
C1526 C 0.88213 0.68343 0.4937 0.0
C1527 C 0.87491 0.7064 0.47112 0.0
C1528 C 0.87532 0.68397 0.53018 0.0
C1529 C 0.86131 0.70766 0.54566 0.0
H1530 H 0.89433 0.66556 0.48347 0.0
H1531 H 0.88315 0.66682 0.54681 0.0
S1532 S 0.83744 0.77297 0.4981 0.0
N1533 N 0.85262 0.75322 0.46721 0.0
N1534 N 0.83988 0.75417 0.53488 0.0
C1535 C 0.85325 0.73018 0.523 0.0
C1536 C 0.8603 0.72973 0.48619 0.0
C1537 C 0.25086 0.88315 0.52001 0.0
C1538 C 0.27647 0.89002 0.53684 0.0
C1539 C 0.2482 0.88502 0.48337 0.0
C1540 C 0.27101 0.89403 0.46204 0.0
H1541 H 0.23265 0.87631 0.53537 0.0
H1542 H 0.22801 0.87933 0.47189 0.0
S1543 S 0.34088 0.91996 0.49434 0.0
N1544 N 0.32377 0.91016 0.53042 0.0
N1545 N 0.31925 0.91286 0.46118 0.0
C1546 C 0.29655 0.90194 0.47879 0.0
C1547 C 0.29911 0.9003 0.51629 0.0
C1548 C 0.16152 0.73193 0.484 0.0
C1549 C 0.15402 0.7087 0.462 0.0
C1550 C 0.1542 0.73253 0.52001 0.0
C1551 C 0.13969 0.70959 0.53615 0.0
H1552 H 0.17102 0.75099 0.47256 0.0
H1553 H 0.15913 0.75163 0.53517 0.0
S1554 S 0.11357 0.64432 0.49032 0.0
N1555 N 0.13041 0.66242 0.4592 0.0
N1556 N 0.11695 0.66341 0.52682 0.0
C1557 C 0.13266 0.68585 0.51482 0.0
C1558 C 0.14005 0.68529 0.47796 0.0
C1559 C 0.25229 0.13222 0.49047 0.0
C1560 C 0.27833 0.1259 0.47433 0.0
C1561 C 0.24905 0.13049 0.52705 0.0
C1562 C 0.27169 0.12222 0.54908 0.0
H1563 H 0.23418 0.13845 0.47461 0.0
H1564 H 0.22849 0.13559 0.53792 0.0
S1565 S 0.34271 0.09805 0.51872 0.0
N1566 N 0.32598 0.10714 0.48213 0.0
N1567 N 0.32036 0.10476 0.55128 0.0
C1568 C 0.2977 0.11494 0.53302 0.0
C1569 C 0.30086 0.11642 0.49555 0.0
C1570 C 0.87775 0.33082 0.4747 0.0
C1571 C 0.86377 0.30645 0.46081 0.0
C1572 C 0.88456 0.33292 0.51103 0.0
C1573 C 0.87726 0.31093 0.53497 0.0
H1574 H 0.88563 0.34722 0.45696 0.0
H1575 H 0.89698 0.35109 0.52005 0.0
S1576 S 0.83922 0.24352 0.5125 0.0
N1577 N 0.84204 0.26055 0.47449 0.0
N1578 N 0.85433 0.2646 0.54208 0.0
C1579 C 0.86228 0.28714 0.52155 0.0
C1580 C 0.85545 0.28501 0.48483 0.0
C1581 C 0.71789 0.89398 0.53017 0.0
C1582 C 0.74455 0.88979 0.54633 0.0
C1583 C 0.7147 0.89206 0.49329 0.0
C1584 C 0.73772 0.88443 0.47157 0.0
H1585 H 0.69953 0.89956 0.54596 0.0
H1586 H 0.69428 0.89699 0.48169 0.0
S1587 S 0.81194 0.87181 0.4996 0.0
N1588 N 0.79475 0.87933 0.53632 0.0
N1589 N 0.78783 0.87327 0.46819 0.0
C1590 C 0.76426 0.88008 0.48721 0.0
C1591 C 0.76786 0.88315 0.52426 0.0
C1592 C 0.64777 0.82958 0.02597 0.0
C1593 C 0.65539 0.80349 0.04226 0.0
C1594 C 0.64409 0.83128 0.98903 0.0
C1595 C 0.64807 0.80697 0.96744 0.0
H1596 H 0.64168 0.84781 0.04202 0.0
H1597 H 0.63544 0.85081 0.97785 0.0
S1598 S 0.67436 0.73582 0.99651 0.0
N1599 N 0.67131 0.7545 0.03335 0.0
N1600 N 0.66476 0.75775 0.96446 0.0
C1601 C 0.65891 0.78196 0.98313 0.0
C1602 C 0.66254 0.78023 0.02042 0.0
C1603 C 0.21819 0.62255 0.97297 0.0
C1604 C 0.24523 0.6261 0.95752 0.0
C1605 C 0.21457 0.62351 0.00982 0.0
C1606 C 0.23759 0.62941 0.03229 0.0
H1607 H 0.19981 0.6183 0.95662 0.0
H1608 H 0.19375 0.61922 0.0208 0.0
S1609 S 0.3127 0.63951 0.00627 0.0
N1610 N 0.29571 0.63411 0.96888 0.0
N1611 N 0.28813 0.63802 0.03717 0.0
C1612 C 0.26454 0.63296 0.0174 0.0
C1613 C 0.26852 0.63101 0.98029 0.0
C1614 C 0.35374 0.23294 0.02592 0.0
C1615 C 0.36055 0.20969 0.04815 0.0
C1616 C 0.36073 0.23286 0.98982 0.0
C1617 C 0.37419 0.2092 0.97389 0.0
H1618 H 0.34524 0.25252 0.0372 0.0
H1619 H 0.35652 0.252 0.97446 0.0
S1620 S 0.39785 0.14336 0.02026 0.0
N1621 N 0.38206 0.16245 0.05131 0.0
N1622 N 0.39499 0.16221 0.98354 0.0
C1623 C 0.38033 0.18538 0.99542 0.0
C1624 C 0.37324 0.1855 0.03234 0.0
C1625 C 0.79678 0.39504 0.01122 0.0
C1626 C 0.77377 0.38894 0.03362 0.0
C1627 C 0.79302 0.39712 0.97448 0.0
C1628 C 0.76583 0.3948 0.95903 0.0
H1629 H 0.81774 0.3985 0.02217 0.0
H1630 H 0.81152 0.40106 0.95819 0.0
S1631 S 0.69811 0.38319 0.00788 0.0
N1632 N 0.7229 0.38222 0.0385 0.0
N1633 N 0.71512 0.38924 0.97062 0.0
C1634 C 0.74248 0.39045 0.98183 0.0
C1635 C 0.7466 0.38695 0.01878 0.0
C1636 C 0.63743 0.18285 0.01257 0.0
C1637 C 0.64389 0.20691 0.03373 0.0
C1638 C 0.64377 0.18249 0.97607 0.0
C1639 C 0.65646 0.20632 0.95928 0.0
H1640 H 0.62598 0.16488 0.02386 0.0
H1641 H 0.63624 0.16459 0.96038 0.0
S1642 S 0.67876 0.27389 1.00313 0.0
N1643 N 0.66463 0.25461 0.03522 0.0
N1644 N 0.67661 0.25381 0.96732 0.0
C1645 C 0.66428 0.22973 0.98065 0.0
C1646 C 0.65765 0.23023 0.01749 0.0
C1647 C 0.74609 0.62945 0.02728 0.0
C1648 C 0.76893 0.62 0.04823 0.0
C1649 C 0.74861 0.63206 0.99068 0.0
C1650 C 0.77408 0.62535 0.97341 0.0
H1651 H 0.72596 0.63492 0.03899 0.0
H1652 H 0.73039 0.63931 0.97569 0.0
S1653 S 0.83835 0.59412 0.01456 0.0
N1654 N 0.81698 0.60085 0.04811 0.0
N1655 N 0.82118 0.60469 0.9789 0.0
C1656 C 0.7967 0.61453 0.9935 0.0
C1657 C 0.79431 0.61224 0.031 0.0
C1658 C 0.3538 0.78613 0.98665 0.0
C1659 C 0.36228 0.80954 0.96554 0.0
C1660 C 0.3598 0.78503 0.02302 0.0
C1661 C 0.37396 0.8076 0.04044 0.0
H1662 H 0.34448 0.76734 0.97436 0.0
H1663 H 0.35425 0.76574 0.03745 0.0
S1664 S 0.40234 0.87311 0.99729 0.0
N1665 N 0.3864 0.8556 0.96495 0.0
N1666 N 0.39751 0.85361 0.03319 0.0
C1667 C 0.38199 0.83151 0.01994 0.0
C1668 C 0.3759 0.83261 0.98271 0.0
C1669 C 0.21888 0.39808 0.99279 0.0
C1670 C 0.2411 0.38862 0.97094 0.0
C1671 C 0.22224 0.39925 0.02966 0.0
C1672 C 0.24826 0.39199 0.04588 0.0
H1673 H 0.19903 0.40514 0.98129 0.0
H1674 H 0.20452 0.4066 0.04548 0.0
S1675 S 0.31274 0.36578 0.9993 0.0
N1676 N 0.28956 0.37161 0.96756 0.0
N1677 N 0.29623 0.37442 0.03616 0.0
C1678 C 0.27051 0.38262 0.02387 0.0
C1679 C 0.2669 0.38097 0.9866 0.0
C1680 C 0.14989 0.38093 0.24359 0.0
C1681 C 0.15997 0.36313 0.21656 0.0
C1682 C 0.13665 0.36927 0.27346 0.0
C1683 C 0.13357 0.33933 0.27774 0.0
H1684 H 0.15439 0.40376 0.24306 0.0
H1685 H 0.1314 0.38366 0.29487 0.0
S1686 S 0.15373 0.28386 0.21242 0.0
N1687 N 0.16337 0.31449 0.19391 0.0
N1688 N 0.13906 0.29247 0.25057 0.0
C1689 C 0.14109 0.32156 0.24933 0.0
C1690 C 0.15434 0.33351 0.21865 0.0
C1691 C 0.65159 0.18599 0.24528 0.0
C1692 C 0.63624 0.16958 0.22073 0.0
C1693 C 0.66566 0.17278 0.27352 0.0
C1694 C 0.66468 0.14283 0.27816 0.0
H1695 H 0.65537 0.20863 0.24046 0.0
H1696 H 0.67927 0.18581 0.29013 0.0
S1697 S 0.62322 0.09109 0.22505 0.0
N1698 N 0.61744 0.12247 0.20601 0.0
N1699 N 0.64432 0.09765 0.25892 0.0
C1700 C 0.64717 0.12658 0.25603 0.0
C1701 C 0.63273 0.14004 0.22736 0.0
C1702 C 0.86298 0.62666 0.24931 0.0
C1703 C 0.85446 0.64464 0.22172 0.0
C1704 C 0.87632 0.63794 0.27929 0.0
C1705 C 0.88107 0.66772 0.28315 0.0
H1706 H 0.8572 0.60412 0.24904 0.0
H1707 H 0.88035 0.62351 0.30102 0.0
S1708 S 0.86538 0.72336 0.21629 0.0
N1709 N 0.85429 0.69308 0.1981 0.0
N1710 N 0.87882 0.71444 0.25499 0.0
C1711 C 0.8751 0.68551 0.25424 0.0
C1712 C 0.86173 0.67393 0.22344 0.0
C1713 C 0.38356 0.86596 0.2374 0.0
C1714 C 0.38121 0.83626 0.2306 0.0
C1715 C 0.3703 0.87854 0.26678 0.0
C1716 C 0.35462 0.86172 0.29046 0.0
H1717 H 0.39337 0.87996 0.21817 0.0
H1718 H 0.37028 0.90173 0.26926 0.0
S1719 S 0.34483 0.78279 0.28695 0.0
N1720 N 0.36427 0.79022 0.25184 0.0
N1721 N 0.33976 0.81373 0.30736 0.0
C1722 C 0.35449 0.83176 0.2859 0.0
C1723 C 0.36785 0.819 0.25594 0.0
C1724 C 0.1641 0.67905 0.77626 0.0
C1725 C 0.16455 0.6491 0.78128 0.0
C1726 C 0.14911 0.6914 0.7481 0.0
C1727 C 0.13429 0.67413 0.7239 0.0
H1728 H 0.17724 0.69281 0.79256 0.0
H1729 H 0.15179 0.71415 0.74302 0.0
S1730 S 0.12521 0.59508 0.72908 0.0
N1731 N 0.14619 0.6029 0.76266 0.0
N1732 N 0.11777 0.62602 0.70985 0.0
C1733 C 0.13231 0.64448 0.73088 0.0
C1734 C 0.14763 0.63192 0.7595 0.0
C1735 C 0.35645 0.17788 0.72989 0.0
C1736 C 0.3524 0.14813 0.72559 0.0
C1737 C 0.36984 0.18898 0.76013 0.0
C1738 C 0.37934 0.1706 0.78703 0.0
H1739 H 0.34701 0.19275 0.71133 0.0
H1740 H 0.36997 0.21204 0.76413 0.0
S1741 S 0.37791 0.09093 0.78518 0.0
N1742 N 0.36193 0.10051 0.74828 0.0
N1743 N 0.38746 0.12115 0.80473 0.0
C1744 C 0.37792 0.14077 0.78111 0.0
C1745 C 0.36424 0.12955 0.75049 0.0
C1746 C 0.85152 0.32247 0.74219 0.0
C1747 C 0.87486 0.33587 0.72603 0.0
C1748 C 0.83731 0.33543 0.77039 0.0
C1749 C 0.84591 0.36228 0.78367 0.0
H1750 H 0.84245 0.30319 0.73072 0.0
H1751 H 0.81817 0.32527 0.78031 0.0
S1752 S 0.90828 0.40431 0.75409 0.0
N1753 N 0.90806 0.37585 0.728 0.0
N1754 N 0.88116 0.40031 0.78138 0.0
C1755 C 0.87082 0.37466 0.77015 0.0
C1756 C 0.88538 0.36137 0.7412 0.0
C1757 C 0.65558 0.8452 0.72497 0.0
C1758 C 0.66214 0.87472 0.72365 0.0
C1759 C 0.64185 0.83315 0.75449 0.0
C1760 C 0.63425 0.85034 0.78347 0.0
H1761 H 0.66351 0.83093 0.70466 0.0
H1762 H 0.6401 0.80998 0.75625 0.0
S1763 S 0.64219 0.92956 0.78959 0.0
N1764 N 0.65687 0.92122 0.7514 0.0
N1765 N 0.63034 0.89901 0.80618 0.0
C1766 C 0.63787 0.88032 0.78035 0.0
C1767 C 0.65216 0.89242 0.75068 0.0
C1768 C 0.84875 0.64975 0.74308 0.0
C1769 C 0.86042 0.67715 0.73687 0.0
C1770 C 0.83844 0.64188 0.77632 0.0
C1771 C 0.83921 0.66111 0.80493 0.0
H1772 H 0.84593 0.63481 0.72145 0.0
H1773 H 0.82848 0.621 0.77904 0.0
S1774 S 0.87074 0.73444 0.80342 0.0
N1775 N 0.87462 0.72263 0.76265 0.0
N1776 N 0.85541 0.70803 0.82544 0.0
C1777 C 0.85297 0.68782 0.79977 0.0
C1778 C 0.86356 0.69578 0.7657 0.0
C1779 C 0.34998 0.86862 0.76794 0.0
C1780 C 0.36223 0.8416 0.77469 0.0
C1781 C 0.33931 0.87569 0.73462 0.0
C1782 C 0.34026 0.856 0.70646 0.0
H1783 H 0.34704 0.88386 0.78924 0.0
H1784 H 0.329 0.89632 0.73149 0.0
S1785 S 0.37321 0.78344 0.70942 0.0
N1786 N 0.37711 0.796 0.74984 0.0
N1787 N 0.35721 0.80912 0.68693 0.0
C1788 C 0.35453 0.82969 0.71213 0.0
C1789 C 0.3655 0.82255 0.74627 0.0
C1790 C 0.15557 0.32316 0.75954 0.0
C1791 C 0.15844 0.34148 0.73031 0.0
C1792 C 0.16543 0.33155 0.79309 0.0
C1793 C 0.17855 0.35853 0.79857 0.0
H1794 H 0.14762 0.30151 0.75598 0.0
H1795 H 0.16431 0.31605 0.81432 0.0
S1796 S 0.18615 0.4162 0.73167 0.0
N1797 N 0.17182 0.38907 0.71003 0.0
N1798 N 0.18992 0.40491 0.7726 0.0
C1799 C 0.17924 0.37782 0.77007 0.0
C1800 C 0.16932 0.36927 0.73611 0.0
C1801 C 0.66643 0.18916 0.70765 0.0
C1802 C 0.67786 0.16162 0.70105 0.0
C1803 C 0.65514 0.1964 0.74088 0.0
C1804 C 0.65469 0.17629 0.76848 0.0
H1805 H 0.66784 0.2058 0.68779 0.0
H1806 H 0.64886 0.21843 0.74577 0.0
S1807 S 0.67684 0.09993 0.76292 0.0
N1808 N 0.68414 0.11316 0.7236 0.0
N1809 N 0.66308 0.12679 0.78559 0.0
C1810 C 0.66375 0.14811 0.7612 0.0
C1811 C 0.67529 0.14076 0.72763 0.0
C1812 C 0.83962 0.37073 0.23045 0.0
C1813 C 0.84043 0.35155 0.20173 0.0
C1814 C 0.84914 0.36259 0.26393 0.0
C1815 C 0.86015 0.33498 0.2703 0.0
H1816 H 0.83022 0.39183 0.22759 0.0
H1817 H 0.84639 0.37758 0.28552 0.0
S1818 S 0.8702 0.27761 0.20372 0.0
N1819 N 0.85579 0.30436 0.18145 0.0
N1820 N 0.87372 0.28926 0.2446 0.0
C1821 C 0.86328 0.31633 0.24144 0.0
C1822 C 0.85342 0.32456 0.20713 0.0
C1823 C 0.66951 0.85981 0.23757 0.0
C1824 C 0.65653 0.83302 0.23142 0.0
C1825 C 0.67889 0.86779 0.27116 0.0
C1826 C 0.67597 0.84924 0.30023 0.0
H1827 H 0.67376 0.87426 0.21581 0.0
H1828 H 0.68972 0.88822 0.2739 0.0
S1829 S 0.64078 0.77763 0.29871 0.0
N1830 N 0.63906 0.78883 0.25749 0.0
N1831 N 0.65667 0.8036 0.32093 0.0
C1832 C 0.66117 0.82313 0.29492 0.0
C1833 C 0.65146 0.81509 0.26048 0.0
C1834 C 0.15237 0.69761 0.24264 0.0
C1835 C 0.15275 0.67811 0.2709 0.0
C1836 C 0.16166 0.68931 0.20882 0.0
C1837 C 0.17169 0.66122 0.20214 0.0
H1838 H 0.14699 0.71992 0.24727 0.0
H1839 H 0.16275 0.70557 0.18846 0.0
S1840 S 0.17175 0.60085 0.2661 0.0
N1841 N 0.1603 0.6287 0.28894 0.0
N1842 N 0.17727 0.61297 0.22581 0.0
C1843 C 0.16969 0.64099 0.22959 0.0
C1844 C 0.16038 0.64948 0.26384 0.0
C1845 C 0.35344 0.18943 0.29991 0.0
C1846 C 0.34342 0.16121 0.30579 0.0
C1847 C 0.36377 0.198 0.26667 0.0
C1848 C 0.36462 0.17861 0.23831 0.0
H1849 H 0.35149 0.20558 0.32032 0.0
H1850 H 0.36888 0.22044 0.26245 0.0
S1851 S 0.34645 0.10108 0.24164 0.0
N1852 N 0.33921 0.11299 0.28162 0.0
N1853 N 0.35847 0.12914 0.21962 0.0
C1854 C 0.35719 0.14982 0.2448 0.0
C1855 C 0.34664 0.1411 0.27841 0.0
loop_
_geom_bond_atom_site_label_1
_geom_bond_atom_site_label_2
_geom_bond_distance
_geom_bond_site_symmetry_2
_ccdc_geom_bond_type
Mn0 O5 2.095 . S
Mn0 O15 2.162 . S
Mn0 O16 2.297 . S
Mn0 O24 2.385 . S
Mn0 O25 2.209 . S
Mn0 O26 2.094 . S
Mn1 O6 2.121 . S
Mn1 N8 2.257 . S
Mn1 N17 2.282 . S
Mn1 O25 2.215 . S
Mn1 O27 2.117 . S
C2 O24 1.234 . S
C2 O25 1.283 . S
C3 O15 1.281 . S
C3 O16 1.236 . S
C4 O26 1.240 . S
C4 O27 1.264 . S
O5 Mn0 2.095 . S
O5 C14 1.250 . S
O6 Mn1 2.121 . S
O6 C14 1.258 . S
C7 N8 1.326 . S
C7 C11 1.460 . S
C7 H13 0.929 . S
N8 Mn1 2.257 . S
N8 C7 1.326 . S
N8 C12 1.362 . S
C9 C10 1.258 . S
C9 C12 1.431 . S
C9 C29 1.449 . S
C10 C9 1.258 . S
C10 C11 1.477 . S
C10 H30 0.931 . S
C11 C7 1.460 . S
C11 C10 1.477 . S
C11 H31 0.930 . S
C12 N8 1.362 . S
C12 C9 1.431 . S
C12 C22 1.476 . S
H13 C7 0.929 . S
C14 O5 1.250 . S
C14 O6 1.258 . S
O15 Mn0 2.162 . S
O15 C3 1.281 . S
O16 Mn0 2.297 . S
O16 C3 1.236 . S
N17 Mn1 2.282 . S
N17 C18 1.328 . S
N17 C22 1.318 . S
C18 N17 1.328 . S
C18 C19 1.457 . S
C18 H23 0.929 . S
C19 C18 1.457 . S
C19 C20 1.291 . S
C19 H32 0.931 . S
C20 C19 1.291 . S
C20 C21 1.373 . S
C20 H33 0.929 . S
C21 C20 1.373 . S
C21 C22 1.396 . S
C21 C28 1.403 . S
C22 C12 1.476 . S
C22 N17 1.318 . S
C22 C21 1.396 . S
H23 C18 0.929 . S
O24 Mn0 2.385 . S
O24 C2 1.234 . S
O25 Mn0 2.209 . S
O25 Mn1 2.215 . S
O25 C2 1.283 . S
O26 Mn0 2.094 . S
O26 C4 1.240 . S
O27 Mn1 2.117 . S
O27 C4 1.264 . S
C28 C21 1.403 . S
C28 C29 1.399 . S
C28 H34 0.929 . S
C29 C9 1.449 . S
C29 C28 1.399 . S
C29 H35 0.930 . S
H30 C10 0.931 . S
H31 C11 0.930 . S
H32 C19 0.931 . S
H33 C20 0.929 . S
H34 C28 0.929 . S
H35 C29 0.930 . S
Mn36 O41 2.095 . S
Mn36 O51 2.162 . S
Mn36 O52 2.297 . S
Mn36 O60 2.385 . S
Mn36 O61 2.209 . S
Mn36 O62 2.094 . S
Mn37 O42 2.121 . S
Mn37 N44 2.257 . S
Mn37 N53 2.282 . S
Mn37 O61 2.215 . S
Mn37 O63 2.117 . S
C38 O60 1.234 . S
C38 O61 1.283 . S
C39 O51 1.281 . S
C39 O52 1.236 . S
C40 O62 1.240 . S
C40 O63 1.264 . S
O41 Mn36 2.095 . S
O41 C50 1.250 . S
O42 Mn37 2.121 . S
O42 C50 1.258 . S
C43 N44 1.326 . S
C43 C47 1.460 . S
C43 H49 0.929 . S
N44 Mn37 2.257 . S
N44 C43 1.326 . S
N44 C48 1.362 . S
C45 C46 1.258 . S
C45 C48 1.431 . S
C45 C65 1.449 . S
C46 C45 1.258 . S
C46 C47 1.477 . S
C46 H66 0.931 . S
C47 C43 1.460 . S
C47 C46 1.477 . S
C47 H67 0.930 . S
C48 N44 1.362 . S
C48 C45 1.431 . S
C48 C58 1.476 . S
H49 C43 0.929 . S
C50 O41 1.250 . S
C50 O42 1.258 . S
O51 Mn36 2.162 . S
O51 C39 1.281 . S
O52 Mn36 2.297 . S
O52 C39 1.236 . S
N53 Mn37 2.282 . S
N53 C54 1.328 . S
N53 C58 1.318 . S
C54 N53 1.328 . S
C54 C55 1.457 . S
C54 H59 0.929 . S
C55 C54 1.457 . S
C55 C56 1.291 . S
C55 H68 0.931 . S
C56 C55 1.291 . S
C56 C57 1.373 . S
C56 H69 0.929 . S
C57 C56 1.373 . S
C57 C58 1.396 . S
C57 C64 1.403 . S
C58 C48 1.476 . S
C58 N53 1.318 . S
C58 C57 1.396 . S
H59 C54 0.929 . S
O60 Mn36 2.385 . S
O60 C38 1.234 . S
O61 Mn36 2.209 . S
O61 Mn37 2.215 . S
O61 C38 1.283 . S
O62 Mn36 2.094 . S
O62 C40 1.240 . S
O63 Mn37 2.117 . S
O63 C40 1.264 . S
C64 C57 1.403 . S
C64 C65 1.399 . S
C64 H70 0.929 . S
C65 C45 1.449 . S
C65 C64 1.399 . S
C65 H71 0.930 . S
H66 C46 0.931 . S
H67 C47 0.930 . S
H68 C55 0.931 . S
H69 C56 0.929 . S
H70 C64 0.929 . S
H71 C65 0.930 . S
Mn72 O77 2.095 . S
Mn72 O87 2.162 . S
Mn72 O88 2.297 . S
Mn72 O96 2.385 . S
Mn72 O97 2.209 . S
Mn72 O98 2.094 . S
Mn73 O78 2.121 . S
Mn73 N80 2.257 . S
Mn73 N89 2.282 . S
Mn73 O97 2.215 . S
Mn73 O99 2.117 . S
C74 O96 1.234 . S
C74 O97 1.283 . S
C75 O87 1.281 . S
C75 O88 1.236 . S
C76 O98 1.240 . S
C76 O99 1.264 . S
O77 Mn72 2.095 . S
O77 C86 1.250 . S
O78 Mn73 2.121 . S
O78 C86 1.258 . S
C79 N80 1.326 . S
C79 C83 1.460 . S
C79 H85 0.929 . S
N80 Mn73 2.257 . S
N80 C79 1.326 . S
N80 C84 1.362 . S
C81 C82 1.258 . S
C81 C84 1.431 . S
C81 C101 1.449 . S
C82 C81 1.258 . S
C82 C83 1.477 . S
C82 H102 0.931 . S
C83 C79 1.460 . S
C83 C82 1.477 . S
C83 H103 0.930 . S
C84 N80 1.362 . S
C84 C81 1.431 . S
C84 C94 1.476 . S
H85 C79 0.929 . S
C86 O77 1.250 . S
C86 O78 1.258 . S
O87 Mn72 2.162 . S
O87 C75 1.281 . S
O88 Mn72 2.297 . S
O88 C75 1.236 . S
N89 Mn73 2.282 . S
N89 C90 1.328 . S
N89 C94 1.318 . S
C90 N89 1.328 . S
C90 C91 1.457 . S
C90 H95 0.929 . S
C91 C90 1.457 . S
C91 C92 1.291 . S
C91 H104 0.931 . S
C92 C91 1.291 . S
C92 C93 1.373 . S
C92 H105 0.929 . S
C93 C92 1.373 . S
C93 C94 1.396 . S
C93 C100 1.403 . S
C94 C84 1.476 . S
C94 N89 1.318 . S
C94 C93 1.396 . S
H95 C90 0.929 . S
O96 Mn72 2.385 . S
O96 C74 1.234 . S
O97 Mn72 2.209 . S
O97 Mn73 2.215 . S
O97 C74 1.283 . S
O98 Mn72 2.094 . S
O98 C76 1.240 . S
O99 Mn73 2.117 . S
O99 C76 1.264 . S
C100 C93 1.403 . S
C100 C101 1.399 . S
C100 H106 0.929 . S
C101 C81 1.449 . S
C101 C100 1.399 . S
C101 H107 0.930 . S
H102 C82 0.931 . S
H103 C83 0.930 . S
H104 C91 0.931 . S
H105 C92 0.929 . S
H106 C100 0.929 . S
H107 C101 0.930 . S
Mn108 O113 2.095 . S
Mn108 O123 2.162 . S
Mn108 O124 2.297 . S
Mn108 O132 2.385 . S
Mn108 O133 2.209 . S
Mn108 O134 2.094 . S
Mn109 O114 2.121 . S
Mn109 N116 2.257 . S
Mn109 N125 2.282 . S
Mn109 O133 2.215 . S
Mn109 O135 2.117 . S
C110 O132 1.234 . S
C110 O133 1.283 . S
C111 O123 1.281 . S
C111 O124 1.236 . S
C112 O134 1.240 . S
C112 O135 1.264 . S
O113 Mn108 2.095 . S
O113 C122 1.250 . S
O114 Mn109 2.121 . S
O114 C122 1.258 . S
C115 N116 1.326 . S
C115 C119 1.460 . S
C115 H121 0.929 . S
N116 Mn109 2.257 . S
N116 C115 1.326 . S
N116 C120 1.362 . S
C117 C118 1.258 . S
C117 C120 1.431 . S
C117 C137 1.449 . S
C118 C117 1.258 . S
C118 C119 1.477 . S
C118 H138 0.931 . S
C119 C115 1.460 . S
C119 C118 1.477 . S
C119 H139 0.930 . S
C120 N116 1.362 . S
C120 C117 1.431 . S
C120 C130 1.476 . S
H121 C115 0.929 . S
C122 O113 1.250 . S
C122 O114 1.258 . S
O123 Mn108 2.162 . S
O123 C111 1.281 . S
O124 Mn108 2.297 . S
O124 C111 1.236 . S
N125 Mn109 2.282 . S
N125 C126 1.328 . S
N125 C130 1.318 . S
C126 N125 1.328 . S
C126 C127 1.457 . S
C126 H131 0.929 . S
C127 C126 1.457 . S
C127 C128 1.291 . S
C127 H140 0.931 . S
C128 C127 1.291 . S
C128 C129 1.373 . S
C128 H141 0.929 . S
C129 C128 1.373 . S
C129 C130 1.396 . S
C129 C136 1.403 . S
C130 C120 1.476 . S
C130 N125 1.318 . S
C130 C129 1.396 . S
H131 C126 0.929 . S
O132 Mn108 2.385 . S
O132 C110 1.234 . S
O133 Mn108 2.209 . S
O133 Mn109 2.215 . S
O133 C110 1.283 . S
O134 Mn108 2.094 . S
O134 C112 1.240 . S
O135 Mn109 2.117 . S
O135 C112 1.264 . S
C136 C129 1.403 . S
C136 C137 1.399 . S
C136 H142 0.929 . S
C137 C117 1.449 . S
C137 C136 1.399 . S
C137 H143 0.930 . S
H138 C118 0.931 . S
H139 C119 0.930 . S
H140 C127 0.931 . S
H141 C128 0.929 . S
H142 C136 0.929 . S
H143 C137 0.930 . S
Mn144 O149 2.095 . S
Mn144 O159 2.162 . S
Mn144 O160 2.297 . S
Mn144 O168 2.385 . S
Mn144 O169 2.209 . S
Mn144 O170 2.094 . S
Mn145 O150 2.121 . S
Mn145 N152 2.257 . S
Mn145 N161 2.282 . S
Mn145 O169 2.215 . S
Mn145 O171 2.117 . S
C146 O168 1.234 . S
C146 O169 1.283 . S
C147 O159 1.281 . S
C147 O160 1.236 . S
C148 O170 1.240 . S
C148 O171 1.264 . S
O149 Mn144 2.095 . S
O149 C158 1.250 . S
O150 Mn145 2.121 . S
O150 C158 1.258 . S
C151 N152 1.326 . S
C151 C155 1.460 . S
C151 H157 0.929 . S
N152 Mn145 2.257 . S
N152 C151 1.326 . S
N152 C156 1.362 . S
C153 C154 1.258 . S
C153 C156 1.431 . S
C153 C173 1.449 . S
C154 C153 1.258 . S
C154 C155 1.477 . S
C154 H174 0.931 . S
C155 C151 1.460 . S
C155 C154 1.477 . S
C155 H175 0.930 . S
C156 N152 1.362 . S
C156 C153 1.431 . S
C156 C166 1.476 . S
H157 C151 0.929 . S
C158 O149 1.250 . S
C158 O150 1.258 . S
O159 Mn144 2.162 . S
O159 C147 1.281 . S
O160 Mn144 2.297 . S
O160 C147 1.236 . S
N161 Mn145 2.282 . S
N161 C162 1.328 . S
N161 C166 1.318 . S
C162 N161 1.328 . S
C162 C163 1.457 . S
C162 H167 0.929 . S
C163 C162 1.457 . S
C163 C164 1.291 . S
C163 H176 0.931 . S
C164 C163 1.291 . S
C164 C165 1.373 . S
C164 H177 0.929 . S
C165 C164 1.373 . S
C165 C166 1.396 . S
C165 C172 1.403 . S
C166 C156 1.476 . S
C166 N161 1.318 . S
C166 C165 1.396 . S
H167 C162 0.929 . S
O168 Mn144 2.385 . S
O168 C146 1.234 . S
O169 Mn144 2.209 . S
O169 Mn145 2.215 . S
O169 C146 1.283 . S
O170 Mn144 2.094 . S
O170 C148 1.240 . S
O171 Mn145 2.117 . S
O171 C148 1.264 . S
C172 C165 1.403 . S
C172 C173 1.399 . S
C172 H178 0.929 . S
C173 C153 1.449 . S
C173 C172 1.399 . S
C173 H179 0.930 . S
H174 C154 0.931 . S
H175 C155 0.930 . S
H176 C163 0.931 . S
H177 C164 0.929 . S
H178 C172 0.929 . S
H179 C173 0.930 . S
Mn180 O185 2.095 . S
Mn180 O195 2.162 . S
Mn180 O196 2.297 . S
Mn180 O204 2.385 . S
Mn180 O205 2.209 . S
Mn180 O206 2.094 . S
Mn181 O186 2.121 . S
Mn181 N188 2.257 . S
Mn181 N197 2.282 . S
Mn181 O205 2.215 . S
Mn181 O207 2.117 . S
C182 O204 1.234 . S
C182 O205 1.283 . S
C183 O195 1.281 . S
C183 O196 1.236 . S
C184 O206 1.240 . S
C184 O207 1.264 . S
O185 Mn180 2.095 . S
O185 C194 1.250 . S
O186 Mn181 2.121 . S
O186 C194 1.258 . S
C187 N188 1.326 . S
C187 C191 1.460 . S
C187 H193 0.929 . S
N188 Mn181 2.257 . S
N188 C187 1.326 . S
N188 C192 1.362 . S
C189 C190 1.258 . S
C189 C192 1.431 . S
C189 C209 1.449 . S
C190 C189 1.258 . S
C190 C191 1.477 . S
C190 H210 0.931 . S
C191 C187 1.460 . S
C191 C190 1.477 . S
C191 H211 0.930 . S
C192 N188 1.362 . S
C192 C189 1.431 . S
C192 C202 1.476 . S
H193 C187 0.929 . S
C194 O185 1.250 . S
C194 O186 1.258 . S
O195 Mn180 2.162 . S
O195 C183 1.281 . S
O196 Mn180 2.297 . S
O196 C183 1.236 . S
N197 Mn181 2.282 . S
N197 C198 1.328 . S
N197 C202 1.318 . S
C198 N197 1.328 . S
C198 C199 1.457 . S
C198 H203 0.929 . S
C199 C198 1.457 . S
C199 C200 1.291 . S
C199 H212 0.931 . S
C200 C199 1.291 . S
C200 C201 1.373 . S
C200 H213 0.929 . S
C201 C200 1.373 . S
C201 C202 1.396 . S
C201 C208 1.403 . S
C202 C192 1.476 . S
C202 N197 1.318 . S
C202 C201 1.396 . S
H203 C198 0.929 . S
O204 Mn180 2.385 . S
O204 C182 1.234 . S
O205 Mn180 2.209 . S
O205 Mn181 2.215 . S
O205 C182 1.283 . S
O206 Mn180 2.094 . S
O206 C184 1.240 . S
O207 Mn181 2.117 . S
O207 C184 1.264 . S
C208 C201 1.403 . S
C208 C209 1.399 . S
C208 H214 0.929 . S
C209 C189 1.449 . S
C209 C208 1.399 . S
C209 H215 0.930 . S
H210 C190 0.931 . S
H211 C191 0.930 . S
H212 C199 0.931 . S
H213 C200 0.929 . S
H214 C208 0.929 . S
H215 C209 0.930 . S
Mn216 O221 2.095 . S
Mn216 O231 2.162 . S
Mn216 O232 2.297 . S
Mn216 O240 2.385 . S
Mn216 O241 2.209 . S
Mn216 O242 2.094 . S
Mn217 O222 2.121 . S
Mn217 N224 2.257 . S
Mn217 N233 2.282 . S
Mn217 O241 2.215 . S
Mn217 O243 2.117 . S
C218 O240 1.234 . S
C218 O241 1.283 . S
C219 O231 1.281 . S
C219 O232 1.236 . S
C220 O242 1.240 . S
C220 O243 1.264 . S
O221 Mn216 2.095 . S
O221 C230 1.250 . S
O222 Mn217 2.121 . S
O222 C230 1.258 . S
C223 N224 1.326 . S
C223 C227 1.460 . S
C223 H229 0.929 . S
N224 Mn217 2.257 . S
N224 C223 1.326 . S
N224 C228 1.362 . S
C225 C226 1.258 . S
C225 C228 1.431 . S
C225 C245 1.449 . S
C226 C225 1.258 . S
C226 C227 1.477 . S
C226 H246 0.931 . S
C227 C223 1.460 . S
C227 C226 1.477 . S
C227 H247 0.930 . S
C228 N224 1.362 . S
C228 C225 1.431 . S
C228 C238 1.476 . S
H229 C223 0.929 . S
C230 O221 1.250 . S
C230 O222 1.258 . S
O231 Mn216 2.162 . S
O231 C219 1.281 . S
O232 Mn216 2.297 . S
O232 C219 1.236 . S
N233 Mn217 2.282 . S
N233 C234 1.328 . S
N233 C238 1.318 . S
C234 N233 1.328 . S
C234 C235 1.457 . S
C234 H239 0.929 . S
C235 C234 1.457 . S
C235 C236 1.291 . S
C235 H248 0.931 . S
C236 C235 1.291 . S
C236 C237 1.373 . S
C236 H249 0.929 . S
C237 C236 1.373 . S
C237 C238 1.396 . S
C237 C244 1.403 . S
C238 C228 1.476 . S
C238 N233 1.318 . S
C238 C237 1.396 . S
H239 C234 0.929 . S
O240 Mn216 2.385 . S
O240 C218 1.234 . S
O241 Mn216 2.209 . S
O241 Mn217 2.215 . S
O241 C218 1.283 . S
O242 Mn216 2.094 . S
O242 C220 1.240 . S
O243 Mn217 2.117 . S
O243 C220 1.264 . S
C244 C237 1.403 . S
C244 C245 1.399 . S
C244 H250 0.929 . S
C245 C225 1.449 . S
C245 C244 1.399 . S
C245 H251 0.930 . S
H246 C226 0.931 . S
H247 C227 0.930 . S
H248 C235 0.931 . S
H249 C236 0.929 . S
H250 C244 0.929 . S
H251 C245 0.930 . S
Mn252 O257 2.095 . S
Mn252 O267 2.162 . S
Mn252 O268 2.297 . S
Mn252 O276 2.385 . S
Mn252 O277 2.209 . S
Mn252 O278 2.094 . S
Mn253 O258 2.121 . S
Mn253 N260 2.257 . S
Mn253 N269 2.282 . S
Mn253 O277 2.215 . S
Mn253 O279 2.117 . S
C254 O276 1.234 . S
C254 O277 1.283 . S
C255 O267 1.281 . S
C255 O268 1.236 . S
C256 O278 1.240 . S
C256 O279 1.264 . S
O257 Mn252 2.095 . S
O257 C266 1.250 . S
O258 Mn253 2.121 . S
O258 C266 1.258 . S
C259 N260 1.326 . S
C259 C263 1.460 . S
C259 H265 0.929 . S
N260 Mn253 2.257 . S
N260 C259 1.326 . S
N260 C264 1.362 . S
C261 C262 1.258 . S
C261 C264 1.431 . S
C261 C281 1.449 . S
C262 C261 1.258 . S
C262 C263 1.477 . S
C262 H282 0.931 . S
C263 C259 1.460 . S
C263 C262 1.477 . S
C263 H283 0.930 . S
C264 N260 1.362 . S
C264 C261 1.431 . S
C264 C274 1.476 . S
H265 C259 0.929 . S
C266 O257 1.250 . S
C266 O258 1.258 . S
O267 Mn252 2.162 . S
O267 C255 1.281 . S
O268 Mn252 2.297 . S
O268 C255 1.236 . S
N269 Mn253 2.282 . S
N269 C270 1.328 . S
N269 C274 1.318 . S
C270 N269 1.328 . S
C270 C271 1.457 . S
C270 H275 0.929 . S
C271 C270 1.457 . S
C271 C272 1.291 . S
C271 H284 0.931 . S
C272 C271 1.291 . S
C272 C273 1.373 . S
C272 H285 0.929 . S
C273 C272 1.373 . S
C273 C274 1.396 . S
C273 C280 1.403 . S
C274 C264 1.476 . S
C274 N269 1.318 . S
C274 C273 1.396 . S
H275 C270 0.929 . S
O276 Mn252 2.385 . S
O276 C254 1.234 . S
O277 Mn252 2.209 . S
O277 Mn253 2.215 . S
O277 C254 1.283 . S
O278 Mn252 2.094 . S
O278 C256 1.240 . S
O279 Mn253 2.117 . S
O279 C256 1.264 . S
C280 C273 1.403 . S
C280 C281 1.399 . S
C280 H286 0.929 . S
C281 C261 1.449 . S
C281 C280 1.399 . S
C281 H287 0.930 . S
H282 C262 0.931 . S
H283 C263 0.930 . S
H284 C271 0.931 . S
H285 C272 0.929 . S
H286 C280 0.929 . S
H287 C281 0.930 . S
Mn288 O293 2.095 . S
Mn288 O303 2.162 . S
Mn288 O304 2.297 . S
Mn288 O312 2.385 . S
Mn288 O313 2.209 . S
Mn288 O314 2.094 . S
Mn289 O294 2.121 . S
Mn289 N296 2.257 . S
Mn289 N305 2.282 . S
Mn289 O313 2.215 . S
Mn289 O315 2.117 . S
C290 O312 1.234 . S
C290 O313 1.283 . S
C291 O303 1.281 . S
C291 O304 1.236 . S
C292 O314 1.240 . S
C292 O315 1.264 . S
O293 Mn288 2.095 . S
O293 C302 1.250 . S
O294 Mn289 2.121 . S
O294 C302 1.258 . S
C295 N296 1.326 . S
C295 C299 1.460 . S
C295 H301 0.929 . S
N296 Mn289 2.257 . S
N296 C295 1.326 . S
N296 C300 1.362 . S
C297 C298 1.258 . S
C297 C300 1.431 . S
C297 C317 1.449 . S
C298 C297 1.258 . S
C298 C299 1.477 . S
C298 H318 0.931 . S
C299 C295 1.460 . S
C299 C298 1.477 . S
C299 H319 0.930 . S
C300 N296 1.362 . S
C300 C297 1.431 . S
C300 C310 1.476 . S
H301 C295 0.929 . S
C302 O293 1.250 . S
C302 O294 1.258 . S
O303 Mn288 2.162 . S
O303 C291 1.281 . S
O304 Mn288 2.297 . S
O304 C291 1.236 . S
N305 Mn289 2.282 . S
N305 C306 1.328 . S
N305 C310 1.318 . S
C306 N305 1.328 . S
C306 C307 1.457 . S
C306 H311 0.929 . S
C307 C306 1.457 . S
C307 C308 1.291 . S
C307 H320 0.931 . S
C308 C307 1.291 . S
C308 C309 1.373 . S
C308 H321 0.929 . S
C309 C308 1.373 . S
C309 C310 1.396 . S
C309 C316 1.403 . S
C310 C300 1.476 . S
C310 N305 1.318 . S
C310 C309 1.396 . S
H311 C306 0.929 . S
O312 Mn288 2.385 . S
O312 C290 1.234 . S
O313 Mn288 2.209 . S
O313 Mn289 2.215 . S
O313 C290 1.283 . S
O314 Mn288 2.094 . S
O314 C292 1.240 . S
O315 Mn289 2.117 . S
O315 C292 1.264 . S
C316 C309 1.403 . S
C316 C317 1.399 . S
C316 H322 0.929 . S
C317 C297 1.449 . S
C317 C316 1.399 . S
C317 H323 0.930 . S
H318 C298 0.931 . S
H319 C299 0.930 . S
H320 C307 0.931 . S
H321 C308 0.929 . S
H322 C316 0.929 . S
H323 C317 0.930 . S
Mn324 O329 2.095 . S
Mn324 O339 2.162 . S
Mn324 O340 2.297 . S
Mn324 O348 2.385 . S
Mn324 O349 2.209 . S
Mn324 O350 2.094 . S
Mn325 O330 2.121 . S
Mn325 N332 2.257 . S
Mn325 N341 2.282 . S
Mn325 O349 2.215 . S
Mn325 O351 2.117 . S
C326 O348 1.234 . S
C326 O349 1.283 . S
C327 O339 1.281 . S
C327 O340 1.236 . S
C328 O350 1.240 . S
C328 O351 1.264 . S
O329 Mn324 2.095 . S
O329 C338 1.250 . S
O330 Mn325 2.121 . S
O330 C338 1.258 . S
C331 N332 1.326 . S
C331 C335 1.460 . S
C331 H337 0.929 . S
N332 Mn325 2.257 . S
N332 C331 1.326 . S
N332 C336 1.362 . S
C333 C334 1.258 . S
C333 C336 1.431 . S
C333 C353 1.449 . S
C334 C333 1.258 . S
C334 C335 1.477 . S
C334 H354 0.931 . S
C335 C331 1.460 . S
C335 C334 1.477 . S
C335 H355 0.930 . S
C336 N332 1.362 . S
C336 C333 1.431 . S
C336 C346 1.476 . S
H337 C331 0.929 . S
C338 O329 1.250 . S
C338 O330 1.258 . S
O339 Mn324 2.162 . S
O339 C327 1.281 . S
O340 Mn324 2.297 . S
O340 C327 1.236 . S
N341 Mn325 2.282 . S
N341 C342 1.328 . S
N341 C346 1.318 . S
C342 N341 1.328 . S
C342 C343 1.457 . S
C342 H347 0.929 . S
C343 C342 1.457 . S
C343 C344 1.291 . S
C343 H356 0.931 . S
C344 C343 1.291 . S
C344 C345 1.373 . S
C344 H357 0.929 . S
C345 C344 1.373 . S
C345 C346 1.396 . S
C345 C352 1.403 . S
C346 C336 1.476 . S
C346 N341 1.318 . S
C346 C345 1.396 . S
H347 C342 0.929 . S
O348 Mn324 2.385 . S
O348 C326 1.234 . S
O349 Mn324 2.209 . S
O349 Mn325 2.215 . S
O349 C326 1.283 . S
O350 Mn324 2.094 . S
O350 C328 1.240 . S
O351 Mn325 2.117 . S
O351 C328 1.264 . S
C352 C345 1.403 . S
C352 C353 1.399 . S
C352 H358 0.929 . S
C353 C333 1.449 . S
C353 C352 1.399 . S
C353 H359 0.930 . S
H354 C334 0.931 . S
H355 C335 0.930 . S
H356 C343 0.931 . S
H357 C344 0.929 . S
H358 C352 0.929 . S
H359 C353 0.930 . S
Mn360 O365 2.095 . S
Mn360 O375 2.162 . S
Mn360 O376 2.297 . S
Mn360 O384 2.385 . S
Mn360 O385 2.209 . S
Mn360 O386 2.094 . S
Mn361 O366 2.121 . S
Mn361 N368 2.257 . S
Mn361 N377 2.282 . S
Mn361 O385 2.215 . S
Mn361 O387 2.117 . S
C362 O384 1.234 . S
C362 O385 1.283 . S
C363 O375 1.281 . S
C363 O376 1.236 . S
C364 O386 1.240 . S
C364 O387 1.264 . S
O365 Mn360 2.095 . S
O365 C374 1.250 . S
O366 Mn361 2.121 . S
O366 C374 1.258 . S
C367 N368 1.326 . S
C367 C371 1.460 . S
C367 H373 0.929 . S
N368 Mn361 2.257 . S
N368 C367 1.326 . S
N368 C372 1.362 . S
C369 C370 1.258 . S
C369 C372 1.431 . S
C369 C389 1.449 . S
C370 C369 1.258 . S
C370 C371 1.477 . S
C370 H390 0.931 . S
C371 C367 1.460 . S
C371 C370 1.477 . S
C371 H391 0.930 . S
C372 N368 1.362 . S
C372 C369 1.431 . S
C372 C382 1.476 . S
H373 C367 0.929 . S
C374 O365 1.250 . S
C374 O366 1.258 . S
O375 Mn360 2.162 . S
O375 C363 1.281 . S
O376 Mn360 2.297 . S
O376 C363 1.236 . S
N377 Mn361 2.282 . S
N377 C378 1.328 . S
N377 C382 1.318 . S
C378 N377 1.328 . S
C378 C379 1.457 . S
C378 H383 0.929 . S
C379 C378 1.457 . S
C379 C380 1.291 . S
C379 H392 0.931 . S
C380 C379 1.291 . S
C380 C381 1.373 . S
C380 H393 0.929 . S
C381 C380 1.373 . S
C381 C382 1.396 . S
C381 C388 1.403 . S
C382 C372 1.476 . S
C382 N377 1.318 . S
C382 C381 1.396 . S
H383 C378 0.929 . S
O384 Mn360 2.385 . S
O384 C362 1.234 . S
O385 Mn360 2.209 . S
O385 Mn361 2.215 . S
O385 C362 1.283 . S
O386 Mn360 2.094 . S
O386 C364 1.240 . S
O387 Mn361 2.117 . S
O387 C364 1.264 . S
C388 C381 1.403 . S
C388 C389 1.399 . S
C388 H394 0.929 . S
C389 C369 1.449 . S
C389 C388 1.399 . S
C389 H395 0.930 . S
H390 C370 0.931 . S
H391 C371 0.930 . S
H392 C379 0.931 . S
H393 C380 0.929 . S
H394 C388 0.929 . S
H395 C389 0.930 . S
Mn396 O401 2.095 . S
Mn396 O411 2.162 . S
Mn396 O412 2.297 . S
Mn396 O420 2.385 . S
Mn396 O421 2.209 . S
Mn396 O422 2.094 . S
Mn397 O402 2.121 . S
Mn397 N404 2.257 . S
Mn397 N413 2.282 . S
Mn397 O421 2.215 . S
Mn397 O423 2.117 . S
C398 O420 1.234 . S
C398 O421 1.283 . S
C399 O411 1.281 . S
C399 O412 1.236 . S
C400 O422 1.240 . S
C400 O423 1.264 . S
O401 Mn396 2.095 . S
O401 C410 1.250 . S
O402 Mn397 2.121 . S
O402 C410 1.258 . S
C403 N404 1.326 . S
C403 C407 1.460 . S
C403 H409 0.929 . S
N404 Mn397 2.257 . S
N404 C403 1.326 . S
N404 C408 1.362 . S
C405 C406 1.258 . S
C405 C408 1.431 . S
C405 C425 1.449 . S
C406 C405 1.258 . S
C406 C407 1.477 . S
C406 H426 0.931 . S
C407 C403 1.460 . S
C407 C406 1.477 . S
C407 H427 0.930 . S
C408 N404 1.362 . S
C408 C405 1.431 . S
C408 C418 1.476 . S
H409 C403 0.929 . S
C410 O401 1.250 . S
C410 O402 1.258 . S
O411 Mn396 2.162 . S
O411 C399 1.281 . S
O412 Mn396 2.297 . S
O412 C399 1.236 . S
N413 Mn397 2.282 . S
N413 C414 1.328 . S
N413 C418 1.318 . S
C414 N413 1.328 . S
C414 C415 1.457 . S
C414 H419 0.929 . S
C415 C414 1.457 . S
C415 C416 1.291 . S
C415 H428 0.931 . S
C416 C415 1.291 . S
C416 C417 1.373 . S
C416 H429 0.929 . S
C417 C416 1.373 . S
C417 C418 1.396 . S
C417 C424 1.403 . S
C418 C408 1.476 . S
C418 N413 1.318 . S
C418 C417 1.396 . S
H419 C414 0.929 . S
O420 Mn396 2.385 . S
O420 C398 1.234 . S
O421 Mn396 2.209 . S
O421 Mn397 2.215 . S
O421 C398 1.283 . S
O422 Mn396 2.094 . S
O422 C400 1.240 . S
O423 Mn397 2.117 . S
O423 C400 1.264 . S
C424 C417 1.403 . S
C424 C425 1.399 . S
C424 H430 0.929 . S
C425 C405 1.449 . S
C425 C424 1.399 . S
C425 H431 0.930 . S
H426 C406 0.931 . S
H427 C407 0.930 . S
H428 C415 0.931 . S
H429 C416 0.929 . S
H430 C424 0.929 . S
H431 C425 0.930 . S
Mn432 O437 2.095 . S
Mn432 O447 2.162 . S
Mn432 O448 2.297 . S
Mn432 O456 2.385 . S
Mn432 O457 2.209 . S
Mn432 O458 2.094 . S
Mn433 O438 2.121 . S
Mn433 N440 2.257 . S
Mn433 N449 2.282 . S
Mn433 O457 2.215 . S
Mn433 O459 2.117 . S
C434 O456 1.234 . S
C434 O457 1.283 . S
C435 O447 1.281 . S
C435 O448 1.236 . S
C436 O458 1.240 . S
C436 O459 1.264 . S
O437 Mn432 2.095 . S
O437 C446 1.250 . S
O438 Mn433 2.121 . S
O438 C446 1.258 . S
C439 N440 1.326 . S
C439 C443 1.460 . S
C439 H445 0.929 . S
N440 Mn433 2.257 . S
N440 C439 1.326 . S
N440 C444 1.362 . S
C441 C442 1.258 . S
C441 C444 1.431 . S
C441 C461 1.449 . S
C442 C441 1.258 . S
C442 C443 1.477 . S
C442 H462 0.931 . S
C443 C439 1.460 . S
C443 C442 1.477 . S
C443 H463 0.930 . S
C444 N440 1.362 . S
C444 C441 1.431 . S
C444 C454 1.476 . S
H445 C439 0.929 . S
C446 O437 1.250 . S
C446 O438 1.258 . S
O447 Mn432 2.162 . S
O447 C435 1.281 . S
O448 Mn432 2.297 . S
O448 C435 1.236 . S
N449 Mn433 2.282 . S
N449 C450 1.328 . S
N449 C454 1.318 . S
C450 N449 1.328 . S
C450 C451 1.457 . S
C450 H455 0.929 . S
C451 C450 1.457 . S
C451 C452 1.291 . S
C451 H464 0.931 . S
C452 C451 1.291 . S
C452 C453 1.373 . S
C452 H465 0.929 . S
C453 C452 1.373 . S
C453 C454 1.396 . S
C453 C460 1.403 . S
C454 C444 1.476 . S
C454 N449 1.318 . S
C454 C453 1.396 . S
H455 C450 0.929 . S
O456 Mn432 2.385 . S
O456 C434 1.234 . S
O457 Mn432 2.209 . S
O457 Mn433 2.215 . S
O457 C434 1.283 . S
O458 Mn432 2.094 . S
O458 C436 1.240 . S
O459 Mn433 2.117 . S
O459 C436 1.264 . S
C460 C453 1.403 . S
C460 C461 1.399 . S
C460 H466 0.929 . S
C461 C441 1.449 . S
C461 C460 1.399 . S
C461 H467 0.930 . S
H462 C442 0.931 . S
H463 C443 0.930 . S
H464 C451 0.931 . S
H465 C452 0.929 . S
H466 C460 0.929 . S
H467 C461 0.930 . S
Mn468 O473 2.095 . S
Mn468 O483 2.162 . S
Mn468 O484 2.297 . S
Mn468 O492 2.385 . S
Mn468 O493 2.209 . S
Mn468 O494 2.094 . S
Mn469 O474 2.121 . S
Mn469 N476 2.257 . S
Mn469 N485 2.282 . S
Mn469 O493 2.215 . S
Mn469 O495 2.117 . S
C470 O492 1.234 . S
C470 O493 1.283 . S
C471 O483 1.281 . S
C471 O484 1.236 . S
C472 O494 1.240 . S
C472 O495 1.264 . S
O473 Mn468 2.095 . S
O473 C482 1.250 . S
O474 Mn469 2.121 . S
O474 C482 1.258 . S
C475 N476 1.326 . S
C475 C479 1.460 . S
C475 H481 0.929 . S
N476 Mn469 2.257 . S
N476 C475 1.326 . S
N476 C480 1.362 . S
C477 C478 1.258 . S
C477 C480 1.431 . S
C477 C497 1.449 . S
C478 C477 1.258 . S
C478 C479 1.477 . S
C478 H498 0.931 . S
C479 C475 1.460 . S
C479 C478 1.477 . S
C479 H499 0.930 . S
C480 N476 1.362 . S
C480 C477 1.431 . S
C480 C490 1.476 . S
H481 C475 0.929 . S
C482 O473 1.250 . S
C482 O474 1.258 . S
O483 Mn468 2.162 . S
O483 C471 1.281 . S
O484 Mn468 2.297 . S
O484 C471 1.236 . S
N485 Mn469 2.282 . S
N485 C486 1.328 . S
N485 C490 1.318 . S
C486 N485 1.328 . S
C486 C487 1.457 . S
C486 H491 0.929 . S
C487 C486 1.457 . S
C487 C488 1.291 . S
C487 H500 0.931 . S
C488 C487 1.291 . S
C488 C489 1.373 . S
C488 H501 0.929 . S
C489 C488 1.373 . S
C489 C490 1.396 . S
C489 C496 1.403 . S
C490 C480 1.476 . S
C490 N485 1.318 . S
C490 C489 1.396 . S
H491 C486 0.929 . S
O492 Mn468 2.385 . S
O492 C470 1.234 . S
O493 Mn468 2.209 . S
O493 Mn469 2.215 . S
O493 C470 1.283 . S
O494 Mn468 2.094 . S
O494 C472 1.240 . S
O495 Mn469 2.117 . S
O495 C472 1.264 . S
C496 C489 1.403 . S
C496 C497 1.399 . S
C496 H502 0.929 . S
C497 C477 1.449 . S
C497 C496 1.399 . S
C497 H503 0.930 . S
H498 C478 0.931 . S
H499 C479 0.930 . S
H500 C487 0.931 . S
H501 C488 0.929 . S
H502 C496 0.929 . S
H503 C497 0.930 . S
Mn504 O509 2.095 . S
Mn504 O519 2.162 . S
Mn504 O520 2.297 . S
Mn504 O528 2.385 . S
Mn504 O529 2.209 . S
Mn504 O530 2.094 . S
Mn505 O510 2.121 . S
Mn505 N512 2.257 . S
Mn505 N521 2.282 . S
Mn505 O529 2.215 . S
Mn505 O531 2.117 . S
C506 O528 1.234 . S
C506 O529 1.283 . S
C507 O519 1.281 . S
C507 O520 1.236 . S
C508 O530 1.240 . S
C508 O531 1.264 . S
O509 Mn504 2.095 . S
O509 C518 1.250 . S
O510 Mn505 2.121 . S
O510 C518 1.258 . S
C511 N512 1.326 . S
C511 C515 1.460 . S
C511 H517 0.929 . S
N512 Mn505 2.257 . S
N512 C511 1.326 . S
N512 C516 1.362 . S
C513 C514 1.258 . S
C513 C516 1.431 . S
C513 C533 1.449 . S
C514 C513 1.258 . S
C514 C515 1.477 . S
C514 H534 0.931 . S
C515 C511 1.460 . S
C515 C514 1.477 . S
C515 H535 0.930 . S
C516 N512 1.362 . S
C516 C513 1.431 . S
C516 C526 1.476 . S
H517 C511 0.929 . S
C518 O509 1.250 . S
C518 O510 1.258 . S
O519 Mn504 2.162 . S
O519 C507 1.281 . S
O520 Mn504 2.297 . S
O520 C507 1.236 . S
N521 Mn505 2.282 . S
N521 C522 1.328 . S
N521 C526 1.318 . S
C522 N521 1.328 . S
C522 C523 1.457 . S
C522 H527 0.929 . S
C523 C522 1.457 . S
C523 C524 1.291 . S
C523 H536 0.931 . S
C524 C523 1.291 . S
C524 C525 1.373 . S
C524 H537 0.929 . S
C525 C524 1.373 . S
C525 C526 1.396 . S
C525 C532 1.403 . S
C526 C516 1.476 . S
C526 N521 1.318 . S
C526 C525 1.396 . S
H527 C522 0.929 . S
O528 Mn504 2.385 . S
O528 C506 1.234 . S
O529 Mn504 2.209 . S
O529 Mn505 2.215 . S
O529 C506 1.283 . S
O530 Mn504 2.094 . S
O530 C508 1.240 . S
O531 Mn505 2.117 . S
O531 C508 1.264 . S
C532 C525 1.403 . S
C532 C533 1.399 . S
C532 H538 0.929 . S
C533 C513 1.449 . S
C533 C532 1.399 . S
C533 H539 0.930 . S
H534 C514 0.931 . S
H535 C515 0.930 . S
H536 C523 0.931 . S
H537 C524 0.929 . S
H538 C532 0.929 . S
H539 C533 0.930 . S
Mn540 O545 2.095 . S
Mn540 O555 2.162 . S
Mn540 O556 2.297 . S
Mn540 O564 2.385 . S
Mn540 O565 2.209 . S
Mn540 O566 2.094 . S
Mn541 O546 2.121 . S
Mn541 N548 2.257 . S
Mn541 N557 2.282 . S
Mn541 O565 2.215 . S
Mn541 O567 2.117 . S
C542 O564 1.234 . S
C542 O565 1.283 . S
C543 O555 1.281 . S
C543 O556 1.236 . S
C544 O566 1.240 . S
C544 O567 1.264 . S
O545 Mn540 2.095 . S
O545 C554 1.250 . S
O546 Mn541 2.121 . S
O546 C554 1.258 . S
C547 N548 1.326 . S
C547 C551 1.460 . S
C547 H553 0.929 . S
N548 Mn541 2.257 . S
N548 C547 1.326 . S
N548 C552 1.362 . S
C549 C550 1.258 . S
C549 C552 1.431 . S
C549 C569 1.449 . S
C550 C549 1.258 . S
C550 C551 1.477 . S
C550 H570 0.931 . S
C551 C547 1.460 . S
C551 C550 1.477 . S
C551 H571 0.930 . S
C552 N548 1.362 . S
C552 C549 1.431 . S
C552 C562 1.476 . S
H553 C547 0.929 . S
C554 O545 1.250 . S
C554 O546 1.258 . S
O555 Mn540 2.162 . S
O555 C543 1.281 . S
O556 Mn540 2.297 . S
O556 C543 1.236 . S
N557 Mn541 2.282 . S
N557 C558 1.328 . S
N557 C562 1.318 . S
C558 N557 1.328 . S
C558 C559 1.457 . S
C558 H563 0.929 . S
C559 C558 1.457 . S
C559 C560 1.291 . S
C559 H572 0.931 . S
C560 C559 1.291 . S
C560 C561 1.373 . S
C560 H573 0.929 . S
C561 C560 1.373 . S
C561 C562 1.396 . S
C561 C568 1.403 . S
C562 C552 1.476 . S
C562 N557 1.318 . S
C562 C561 1.396 . S
H563 C558 0.929 . S
O564 Mn540 2.385 . S
O564 C542 1.234 . S
O565 Mn540 2.209 . S
O565 Mn541 2.215 . S
O565 C542 1.283 . S
O566 Mn540 2.094 . S
O566 C544 1.240 . S
O567 Mn541 2.117 . S
O567 C544 1.264 . S
C568 C561 1.403 . S
C568 C569 1.399 . S
C568 H574 0.929 . S
C569 C549 1.449 . S
C569 C568 1.399 . S
C569 H575 0.930 . S
H570 C550 0.931 . S
H571 C551 0.930 . S
H572 C559 0.931 . S
H573 C560 0.929 . S
H574 C568 0.929 . S
H575 C569 0.930 . S
Mn576 O581 2.095 . S
Mn576 O591 2.162 . S
Mn576 O592 2.297 . S
Mn576 O600 2.385 . S
Mn576 O601 2.209 . S
Mn576 O602 2.094 . S
Mn577 O582 2.121 . S
Mn577 N584 2.257 . S
Mn577 N593 2.282 . S
Mn577 O601 2.215 . S
Mn577 O603 2.117 . S
C578 O600 1.234 . S
C578 O601 1.283 . S
C579 O591 1.281 . S
C579 O592 1.236 . S
C580 O602 1.240 . S
C580 O603 1.264 . S
O581 Mn576 2.095 . S
O581 C590 1.250 . S
O582 Mn577 2.121 . S
O582 C590 1.258 . S
C583 N584 1.326 . S
C583 C587 1.460 . S
C583 H589 0.929 . S
N584 Mn577 2.257 . S
N584 C583 1.326 . S
N584 C588 1.362 . S
C585 C586 1.258 . S
C585 C588 1.431 . S
C585 C605 1.449 . S
C586 C585 1.258 . S
C586 C587 1.477 . S
C586 H606 0.931 . S
C587 C583 1.460 . S
C587 C586 1.477 . S
C587 H607 0.930 . S
C588 N584 1.362 . S
C588 C585 1.431 . S
C588 C598 1.476 . S
H589 C583 0.929 . S
C590 O581 1.250 . S
C590 O582 1.258 . S
O591 Mn576 2.162 . S
O591 C579 1.281 . S
O592 Mn576 2.297 . S
O592 C579 1.236 . S
N593 Mn577 2.282 . S
N593 C594 1.328 . S
N593 C598 1.318 . S
C594 N593 1.328 . S
C594 C595 1.457 . S
C594 H599 0.929 . S
C595 C594 1.457 . S
C595 C596 1.291 1_556 S
C595 H608 0.931 . S
C596 C595 1.291 1_554 S
C596 C597 1.373 1_554 S
C596 H609 0.929 . S
C597 C596 1.373 1_556 S
C597 C598 1.396 . S
C597 C604 1.403 1_556 S
C598 C588 1.476 . S
C598 N593 1.318 . S
C598 C597 1.396 . S
H599 C594 0.929 . S
O600 Mn576 2.385 . S
O600 C578 1.234 . S
O601 Mn576 2.209 . S
O601 Mn577 2.215 . S
O601 C578 1.283 . S
O602 Mn576 2.094 . S
O602 C580 1.240 . S
O603 Mn577 2.117 . S
O603 C580 1.264 . S
C604 C597 1.403 1_554 S
C604 C605 1.399 1_554 S
C604 H610 0.929 . S
C605 C585 1.449 . S
C605 C604 1.399 1_556 S
C605 H611 0.930 1_556 S
H606 C586 0.931 . S
H607 C587 0.930 . S
H608 C595 0.931 . S
H609 C596 0.929 . S
H610 C604 0.929 . S
H611 C605 0.930 1_554 S
Mn612 O617 2.095 . S
Mn612 O627 2.162 . S
Mn612 O628 2.297 . S
Mn612 O636 2.385 . S
Mn612 O637 2.209 . S
Mn612 O638 2.094 . S
Mn613 O618 2.121 . S
Mn613 N620 2.257 . S
Mn613 N629 2.282 . S
Mn613 O637 2.215 . S
Mn613 O639 2.117 . S
C614 O636 1.234 . S
C614 O637 1.283 . S
C615 O627 1.281 . S
C615 O628 1.236 . S
C616 O638 1.240 . S
C616 O639 1.264 . S
O617 Mn612 2.095 . S
O617 C626 1.250 . S
O618 Mn613 2.121 . S
O618 C626 1.258 . S
C619 N620 1.326 . S
C619 C623 1.460 . S
C619 H625 0.929 . S
N620 Mn613 2.257 . S
N620 C619 1.326 . S
N620 C624 1.362 . S
C621 C622 1.258 . S
C621 C624 1.431 . S
C621 C641 1.449 . S
C622 C621 1.258 . S
C622 C623 1.477 . S
C622 H642 0.931 . S
C623 C619 1.460 . S
C623 C622 1.477 . S
C623 H643 0.930 . S
C624 N620 1.362 . S
C624 C621 1.431 . S
C624 C634 1.476 . S
H625 C619 0.929 . S
C626 O617 1.250 . S
C626 O618 1.258 . S
O627 Mn612 2.162 . S
O627 C615 1.281 . S
O628 Mn612 2.297 . S
O628 C615 1.236 . S
N629 Mn613 2.282 . S
N629 C630 1.328 . S
N629 C634 1.318 . S
C630 N629 1.328 . S
C630 C631 1.457 . S
C630 H635 0.929 . S
C631 C630 1.457 . S
C631 C632 1.291 . S
C631 H644 0.931 . S
C632 C631 1.291 . S
C632 C633 1.373 . S
C632 H645 0.929 . S
C633 C632 1.373 . S
C633 C634 1.396 . S
C633 C640 1.403 . S
C634 C624 1.476 . S
C634 N629 1.318 . S
C634 C633 1.396 . S
H635 C630 0.929 . S
O636 Mn612 2.385 . S
O636 C614 1.234 . S
O637 Mn612 2.209 . S
O637 Mn613 2.215 . S
O637 C614 1.283 . S
O638 Mn612 2.094 . S
O638 C616 1.240 . S
O639 Mn613 2.117 . S
O639 C616 1.264 . S
C640 C633 1.403 . S
C640 C641 1.399 . S
C640 H646 0.929 . S
C641 C621 1.449 . S
C641 C640 1.399 . S
C641 H647 0.930 . S
H642 C622 0.931 . S
H643 C623 0.930 . S
H644 C631 0.931 . S
H645 C632 0.929 . S
H646 C640 0.929 . S
H647 C641 0.930 . S
Mn648 O653 2.095 . S
Mn648 O663 2.162 . S
Mn648 O664 2.297 . S
Mn648 O672 2.385 . S
Mn648 O673 2.209 . S
Mn648 O674 2.094 . S
Mn649 O654 2.121 . S
Mn649 N656 2.257 . S
Mn649 N665 2.282 . S
Mn649 O673 2.215 . S
Mn649 O675 2.117 . S
C650 O672 1.234 . S
C650 O673 1.283 . S
C651 O663 1.281 . S
C651 O664 1.236 . S
C652 O674 1.240 . S
C652 O675 1.264 . S
O653 Mn648 2.095 . S
O653 C662 1.250 . S
O654 Mn649 2.121 . S
O654 C662 1.258 . S
C655 N656 1.326 . S
C655 C659 1.460 . S
C655 H661 0.929 . S
N656 Mn649 2.257 . S
N656 C655 1.326 . S
N656 C660 1.362 . S
C657 C658 1.258 . S
C657 C660 1.431 . S
C657 C677 1.449 . S
C658 C657 1.258 . S
C658 C659 1.477 . S
C658 H678 0.931 . S
C659 C655 1.460 . S
C659 C658 1.477 . S
C659 H679 0.930 . S
C660 N656 1.362 . S
C660 C657 1.431 . S
C660 C670 1.476 . S
H661 C655 0.929 . S
C662 O653 1.250 . S
C662 O654 1.258 . S
O663 Mn648 2.162 . S
O663 C651 1.281 . S
O664 Mn648 2.297 . S
O664 C651 1.236 . S
N665 Mn649 2.282 . S
N665 C666 1.328 . S
N665 C670 1.318 . S
C666 N665 1.328 . S
C666 C667 1.457 . S
C666 H671 0.929 . S
C667 C666 1.457 . S
C667 C668 1.291 1_556 S
C667 H680 0.931 . S
C668 C667 1.291 1_554 S
C668 C669 1.373 1_554 S
C668 H681 0.929 . S
C669 C668 1.373 1_556 S
C669 C670 1.396 . S
C669 C676 1.403 1_556 S
C670 C660 1.476 . S
C670 N665 1.318 . S
C670 C669 1.396 . S
H671 C666 0.929 . S
O672 Mn648 2.385 . S
O672 C650 1.234 . S
O673 Mn648 2.209 . S
O673 Mn649 2.215 . S
O673 C650 1.283 . S
O674 Mn648 2.094 . S
O674 C652 1.240 . S
O675 Mn649 2.117 . S
O675 C652 1.264 . S
C676 C669 1.403 1_554 S
C676 C677 1.399 1_554 S
C676 H682 0.929 . S
C677 C657 1.449 . S
C677 C676 1.399 1_556 S
C677 H683 0.930 1_556 S
H678 C658 0.931 . S
H679 C659 0.930 . S
H680 C667 0.931 . S
H681 C668 0.929 . S
H682 C676 0.929 . S
H683 C677 0.930 1_554 S
Mn684 O689 2.095 . S
Mn684 O699 2.162 . S
Mn684 O700 2.297 . S
Mn684 O708 2.385 . S
Mn684 O709 2.209 . S
Mn684 O710 2.094 . S
Mn685 O690 2.121 . S
Mn685 N692 2.257 . S
Mn685 N701 2.282 . S
Mn685 O709 2.215 . S
Mn685 O711 2.117 . S
C686 O708 1.234 . S
C686 O709 1.283 . S
C687 O699 1.281 . S
C687 O700 1.236 . S
C688 O710 1.240 . S
C688 O711 1.264 . S
O689 Mn684 2.095 . S
O689 C698 1.250 . S
O690 Mn685 2.121 . S
O690 C698 1.258 . S
C691 N692 1.326 . S
C691 C695 1.460 . S
C691 H697 0.929 . S
N692 Mn685 2.257 . S
N692 C691 1.326 . S
N692 C696 1.362 . S
C693 C694 1.258 . S
C693 C696 1.431 . S
C693 C713 1.449 . S
C694 C693 1.258 . S
C694 C695 1.477 . S
C694 H714 0.931 . S
C695 C691 1.460 . S
C695 C694 1.477 . S
C695 H715 0.930 . S
C696 N692 1.362 . S
C696 C693 1.431 . S
C696 C706 1.476 . S
H697 C691 0.929 . S
C698 O689 1.250 . S
C698 O690 1.258 . S
O699 Mn684 2.162 . S
O699 C687 1.281 . S
O700 Mn684 2.297 . S
O700 C687 1.236 . S
N701 Mn685 2.282 . S
N701 C702 1.328 . S
N701 C706 1.318 . S
C702 N701 1.328 . S
C702 C703 1.457 . S
C702 H707 0.929 . S
C703 C702 1.457 . S
C703 C704 1.291 . S
C703 H716 0.931 . S
C704 C703 1.291 . S
C704 C705 1.373 . S
C704 H717 0.929 . S
C705 C704 1.373 . S
C705 C706 1.396 . S
C705 C712 1.403 . S
C706 C696 1.476 . S
C706 N701 1.318 . S
C706 C705 1.396 . S
H707 C702 0.929 . S
O708 Mn684 2.385 . S
O708 C686 1.234 . S
O709 Mn684 2.209 . S
O709 Mn685 2.215 . S
O709 C686 1.283 . S
O710 Mn684 2.094 . S
O710 C688 1.240 . S
O711 Mn685 2.117 . S
O711 C688 1.264 . S
C712 C705 1.403 . S
C712 C713 1.399 . S
C712 H718 0.929 . S
C713 C693 1.449 . S
C713 C712 1.399 . S
C713 H719 0.930 . S
H714 C694 0.931 . S
H715 C695 0.930 . S
H716 C703 0.931 . S
H717 C704 0.929 . S
H718 C712 0.929 . S
H719 C713 0.930 . S
Mn720 O725 2.095 . S
Mn720 O735 2.162 . S
Mn720 O736 2.297 . S
Mn720 O744 2.385 . S
Mn720 O745 2.209 . S
Mn720 O746 2.094 . S
Mn721 O726 2.121 . S
Mn721 N728 2.257 . S
Mn721 N737 2.282 . S
Mn721 O745 2.215 . S
Mn721 O747 2.117 . S
C722 O744 1.234 . S
C722 O745 1.283 . S
C723 O735 1.281 . S
C723 O736 1.236 . S
C724 O746 1.240 . S
C724 O747 1.264 . S
O725 Mn720 2.095 . S
O725 C734 1.250 . S
O726 Mn721 2.121 . S
O726 C734 1.258 . S
C727 N728 1.326 . S
C727 C731 1.460 . S
C727 H733 0.929 . S
N728 Mn721 2.257 . S
N728 C727 1.326 . S
N728 C732 1.362 . S
C729 C730 1.258 . S
C729 C732 1.431 . S
C729 C749 1.449 . S
C730 C729 1.258 . S
C730 C731 1.477 . S
C730 H750 0.931 . S
C731 C727 1.460 . S
C731 C730 1.477 . S
C731 H751 0.930 . S
C732 N728 1.362 . S
C732 C729 1.431 . S
C732 C742 1.476 . S
H733 C727 0.929 . S
C734 O725 1.250 . S
C734 O726 1.258 . S
O735 Mn720 2.162 . S
O735 C723 1.281 . S
O736 Mn720 2.297 . S
O736 C723 1.236 . S
N737 Mn721 2.282 . S
N737 C738 1.328 . S
N737 C742 1.318 . S
C738 N737 1.328 . S
C738 C739 1.457 . S
C738 H743 0.929 . S
C739 C738 1.457 . S
C739 C740 1.291 1_554 S
C739 H752 0.931 . S
C740 C739 1.291 1_556 S
C740 C741 1.373 1_556 S
C740 H753 0.929 . S
C741 C740 1.373 1_554 S
C741 C742 1.396 . S
C741 C748 1.403 1_554 S
C742 C732 1.476 . S
C742 N737 1.318 . S
C742 C741 1.396 . S
H743 C738 0.929 . S
O744 Mn720 2.385 . S
O744 C722 1.234 . S
O745 Mn720 2.209 . S
O745 Mn721 2.215 . S
O745 C722 1.283 . S
O746 Mn720 2.094 . S
O746 C724 1.240 . S
O747 Mn721 2.117 . S
O747 C724 1.264 . S
C748 C741 1.403 1_556 S
C748 C749 1.399 1_556 S
C748 H754 0.929 . S
C749 C729 1.449 . S
C749 C748 1.399 1_554 S
C749 H755 0.930 1_554 S
H750 C730 0.931 . S
H751 C731 0.930 . S
H752 C739 0.931 . S
H753 C740 0.929 . S
H754 C748 0.929 . S
H755 C749 0.930 1_556 S
Mn756 O761 2.095 . S
Mn756 O771 2.162 . S
Mn756 O772 2.297 . S
Mn756 O780 2.385 . S
Mn756 O781 2.209 . S
Mn756 O782 2.094 . S
Mn757 O762 2.121 . S
Mn757 N764 2.257 . S
Mn757 N773 2.282 . S
Mn757 O781 2.215 . S
Mn757 O783 2.117 . S
C758 O780 1.234 . S
C758 O781 1.283 . S
C759 O771 1.281 . S
C759 O772 1.236 . S
C760 O782 1.240 . S
C760 O783 1.264 . S
O761 Mn756 2.095 . S
O761 C770 1.250 . S
O762 Mn757 2.121 . S
O762 C770 1.258 . S
C763 N764 1.326 . S
C763 C767 1.460 . S
C763 H769 0.929 . S
N764 Mn757 2.257 . S
N764 C763 1.326 . S
N764 C768 1.362 . S
C765 C766 1.258 . S
C765 C768 1.431 . S
C765 C785 1.449 . S
C766 C765 1.258 . S
C766 C767 1.477 . S
C766 H786 0.931 . S
C767 C763 1.460 . S
C767 C766 1.477 . S
C767 H787 0.930 . S
C768 N764 1.362 . S
C768 C765 1.431 . S
C768 C778 1.476 . S
H769 C763 0.929 . S
C770 O761 1.250 . S
C770 O762 1.258 . S
O771 Mn756 2.162 . S
O771 C759 1.281 . S
O772 Mn756 2.297 . S
O772 C759 1.236 . S
N773 Mn757 2.282 . S
N773 C774 1.328 . S
N773 C778 1.318 . S
C774 N773 1.328 . S
C774 C775 1.457 . S
C774 H779 0.929 . S
C775 C774 1.457 . S
C775 C776 1.291 . S
C775 H788 0.931 . S
C776 C775 1.291 . S
C776 C777 1.373 . S
C776 H789 0.929 . S
C777 C776 1.373 . S
C777 C778 1.396 . S
C777 C784 1.403 . S
C778 C768 1.476 . S
C778 N773 1.318 . S
C778 C777 1.396 . S
H779 C774 0.929 . S
O780 Mn756 2.385 . S
O780 C758 1.234 . S
O781 Mn756 2.209 . S
O781 Mn757 2.215 . S
O781 C758 1.283 . S
O782 Mn756 2.094 . S
O782 C760 1.240 . S
O783 Mn757 2.117 . S
O783 C760 1.264 . S
C784 C777 1.403 . S
C784 C785 1.399 . S
C784 H790 0.929 . S
C785 C765 1.449 . S
C785 C784 1.399 . S
C785 H791 0.930 . S
H786 C766 0.931 . S
H787 C767 0.930 . S
H788 C775 0.931 . S
H789 C776 0.929 . S
H790 C784 0.929 . S
H791 C785 0.930 . S
Mn792 O797 2.095 . S
Mn792 O807 2.162 . S
Mn792 O808 2.297 . S
Mn792 O816 2.385 . S
Mn792 O817 2.209 . S
Mn792 O818 2.094 . S
Mn793 O798 2.121 . S
Mn793 N800 2.257 . S
Mn793 N809 2.282 . S
Mn793 O817 2.215 . S
Mn793 O819 2.117 . S
C794 O816 1.234 . S
C794 O817 1.283 . S
C795 O807 1.281 . S
C795 O808 1.236 . S
C796 O818 1.240 . S
C796 O819 1.264 . S
O797 Mn792 2.095 . S
O797 C806 1.250 . S
O798 Mn793 2.121 . S
O798 C806 1.258 . S
C799 N800 1.326 . S
C799 C803 1.460 . S
C799 H805 0.929 . S
N800 Mn793 2.257 . S
N800 C799 1.326 . S
N800 C804 1.362 . S
C801 C802 1.258 . S
C801 C804 1.431 . S
C801 C821 1.449 . S
C802 C801 1.258 . S
C802 C803 1.477 . S
C802 H822 0.931 . S
C803 C799 1.460 . S
C803 C802 1.477 . S
C803 H823 0.930 . S
C804 N800 1.362 . S
C804 C801 1.431 . S
C804 C814 1.476 . S
H805 C799 0.929 . S
C806 O797 1.250 . S
C806 O798 1.258 . S
O807 Mn792 2.162 . S
O807 C795 1.281 . S
O808 Mn792 2.297 . S
O808 C795 1.236 . S
N809 Mn793 2.282 . S
N809 C810 1.328 . S
N809 C814 1.318 . S
C810 N809 1.328 . S
C810 C811 1.457 . S
C810 H815 0.929 . S
C811 C810 1.457 . S
C811 C812 1.291 1_554 S
C811 H824 0.931 . S
C812 C811 1.291 1_556 S
C812 C813 1.373 1_556 S
C812 H825 0.929 . S
C813 C812 1.373 1_554 S
C813 C814 1.396 . S
C813 C820 1.403 1_554 S
C814 C804 1.476 . S
C814 N809 1.318 . S
C814 C813 1.396 . S
H815 C810 0.929 . S
O816 Mn792 2.385 . S
O816 C794 1.234 . S
O817 Mn792 2.209 . S
O817 Mn793 2.215 . S
O817 C794 1.283 . S
O818 Mn792 2.094 . S
O818 C796 1.240 . S
O819 Mn793 2.117 . S
O819 C796 1.264 . S
C820 C813 1.403 1_556 S
C820 C821 1.399 1_556 S
C820 H826 0.929 . S
C821 C801 1.449 . S
C821 C820 1.399 1_554 S
C821 H827 0.930 1_554 S
H822 C802 0.931 . S
H823 C803 0.930 . S
H824 C811 0.931 . S
H825 C812 0.929 . S
H826 C820 0.929 . S
H827 C821 0.930 1_556 S
Mn828 O833 2.095 . S
Mn828 O843 2.162 . S
Mn828 O844 2.297 . S
Mn828 O852 2.385 . S
Mn828 O853 2.209 . S
Mn828 O854 2.094 . S
Mn829 O834 2.121 . S
Mn829 N836 2.257 . S
Mn829 N845 2.282 . S
Mn829 O853 2.215 . S
Mn829 O855 2.117 . S
C830 O852 1.234 . S
C830 O853 1.283 . S
C831 O843 1.281 . S
C831 O844 1.236 . S
C832 O854 1.240 . S
C832 O855 1.264 . S
O833 Mn828 2.095 . S
O833 C842 1.250 . S
O834 Mn829 2.121 . S
O834 C842 1.258 . S
C835 N836 1.326 . S
C835 C839 1.460 . S
C835 H841 0.929 . S
N836 Mn829 2.257 . S
N836 C835 1.326 . S
N836 C840 1.362 . S
C837 C838 1.258 . S
C837 C840 1.431 . S
C837 C857 1.449 . S
C838 C837 1.258 . S
C838 C839 1.477 . S
C838 H858 0.931 . S
C839 C835 1.460 . S
C839 C838 1.477 . S
C839 H859 0.930 . S
C840 N836 1.362 . S
C840 C837 1.431 . S
C840 C850 1.476 . S
H841 C835 0.929 . S
C842 O833 1.250 . S
C842 O834 1.258 . S
O843 Mn828 2.162 . S
O843 C831 1.281 . S
O844 Mn828 2.297 . S
O844 C831 1.236 . S
N845 Mn829 2.282 . S
N845 C846 1.328 . S
N845 C850 1.318 . S
C846 N845 1.328 . S
C846 C847 1.457 . S
C846 H851 0.929 . S
C847 C846 1.457 . S
C847 C848 1.291 . S
C847 H860 0.931 . S
C848 C847 1.291 . S
C848 C849 1.373 . S
C848 H861 0.929 . S
C849 C848 1.373 . S
C849 C850 1.396 . S
C849 C856 1.403 . S
C850 C840 1.476 . S
C850 N845 1.318 . S
C850 C849 1.396 . S
H851 C846 0.929 . S
O852 Mn828 2.385 . S
O852 C830 1.234 . S
O853 Mn828 2.209 . S
O853 Mn829 2.215 . S
O853 C830 1.283 . S
O854 Mn828 2.094 . S
O854 C832 1.240 . S
O855 Mn829 2.117 . S
O855 C832 1.264 . S
C856 C849 1.403 . S
C856 C857 1.399 . S
C856 H862 0.929 . S
C857 C837 1.449 . S
C857 C856 1.399 . S
C857 H863 0.930 . S
H858 C838 0.931 . S
H859 C839 0.930 . S
H860 C847 0.931 . S
H861 C848 0.929 . S
H862 C856 0.929 . S
H863 C857 0.930 . S
Mn864 O869 2.095 . S
Mn864 O879 2.162 . S
Mn864 O880 2.297 . S
Mn864 O888 2.385 . S
Mn864 O889 2.209 . S
Mn864 O890 2.094 . S
Mn865 O870 2.121 . S
Mn865 N872 2.257 . S
Mn865 N881 2.282 . S
Mn865 O889 2.215 . S
Mn865 O891 2.117 . S
C866 O888 1.234 . S
C866 O889 1.283 . S
C867 O879 1.281 . S
C867 O880 1.236 . S
C868 O890 1.240 . S
C868 O891 1.264 . S
O869 Mn864 2.095 . S
O869 C878 1.250 . S
O870 Mn865 2.121 . S
O870 C878 1.258 . S
C871 N872 1.326 . S
C871 C875 1.460 . S
C871 H877 0.929 . S
N872 Mn865 2.257 . S
N872 C871 1.326 . S
N872 C876 1.362 . S
C873 C874 1.258 . S
C873 C876 1.431 . S
C873 C893 1.449 1_554 S
C874 C873 1.258 . S
C874 C875 1.477 . S
C874 H894 0.931 . S
C875 C871 1.460 . S
C875 C874 1.477 . S
C875 H895 0.930 . S
C876 N872 1.362 . S
C876 C873 1.431 . S
C876 C886 1.476 . S
H877 C871 0.929 . S
C878 O869 1.250 . S
C878 O870 1.258 . S
O879 Mn864 2.162 . S
O879 C867 1.281 . S
O880 Mn864 2.297 . S
O880 C867 1.236 . S
N881 Mn865 2.282 . S
N881 C882 1.328 . S
N881 C886 1.318 . S
C882 N881 1.328 . S
C882 C883 1.457 . S
C882 H887 0.929 . S
C883 C882 1.457 . S
C883 C884 1.291 1_554 S
C883 H896 0.931 1_554 S
C884 C883 1.291 1_556 S
C884 C885 1.373 . S
C884 H897 0.929 . S
C885 C884 1.373 . S
C885 C886 1.396 1_556 S
C885 C892 1.403 . S
C886 C876 1.476 . S
C886 N881 1.318 . S
C886 C885 1.396 1_554 S
H887 C882 0.929 . S
O888 Mn864 2.385 . S
O888 C866 1.234 . S
O889 Mn864 2.209 . S
O889 Mn865 2.215 . S
O889 C866 1.283 . S
O890 Mn864 2.094 . S
O890 C868 1.240 . S
O891 Mn865 2.117 . S
O891 C868 1.264 . S
C892 C885 1.403 . S
C892 C893 1.399 . S
C892 H898 0.929 . S
C893 C873 1.449 1_556 S
C893 C892 1.399 . S
C893 H899 0.930 . S
H894 C874 0.931 . S
H895 C875 0.930 . S
H896 C883 0.931 1_556 S
H897 C884 0.929 . S
H898 C892 0.929 . S
H899 C893 0.930 . S
Mn900 O905 2.095 . S
Mn900 O915 2.162 . S
Mn900 O916 2.297 . S
Mn900 O924 2.385 . S
Mn900 O925 2.209 . S
Mn900 O926 2.094 . S
Mn901 O906 2.121 . S
Mn901 N908 2.257 . S
Mn901 N917 2.282 . S
Mn901 O925 2.215 . S
Mn901 O927 2.117 . S
C902 O924 1.234 . S
C902 O925 1.283 . S
C903 O915 1.281 . S
C903 O916 1.236 . S
C904 O926 1.240 . S
C904 O927 1.264 . S
O905 Mn900 2.095 . S
O905 C914 1.250 . S
O906 Mn901 2.121 . S
O906 C914 1.258 . S
C907 N908 1.326 . S
C907 C911 1.460 . S
C907 H913 0.929 . S
N908 Mn901 2.257 . S
N908 C907 1.326 . S
N908 C912 1.362 . S
C909 C910 1.258 . S
C909 C912 1.431 . S
C909 C929 1.449 . S
C910 C909 1.258 . S
C910 C911 1.477 . S
C910 H930 0.931 . S
C911 C907 1.460 . S
C911 C910 1.477 . S
C911 H931 0.930 . S
C912 N908 1.362 . S
C912 C909 1.431 . S
C912 C922 1.476 . S
H913 C907 0.929 . S
C914 O905 1.250 . S
C914 O906 1.258 . S
O915 Mn900 2.162 . S
O915 C903 1.281 . S
O916 Mn900 2.297 . S
O916 C903 1.236 . S
N917 Mn901 2.282 . S
N917 C918 1.328 . S
N917 C922 1.318 . S
C918 N917 1.328 . S
C918 C919 1.457 . S
C918 H923 0.929 . S
C919 C918 1.457 . S
C919 C920 1.291 . S
C919 H932 0.931 . S
C920 C919 1.291 . S
C920 C921 1.373 . S
C920 H933 0.929 1_554 S
C921 C920 1.373 . S
C921 C922 1.396 . S
C921 C928 1.403 . S
C922 C912 1.476 . S
C922 N917 1.318 . S
C922 C921 1.396 . S
H923 C918 0.929 . S
O924 Mn900 2.385 . S
O924 C902 1.234 . S
O925 Mn900 2.209 . S
O925 Mn901 2.215 . S
O925 C902 1.283 . S
O926 Mn900 2.094 . S
O926 C904 1.240 . S
O927 Mn901 2.117 . S
O927 C904 1.264 . S
C928 C921 1.403 . S
C928 C929 1.399 . S
C928 H934 0.929 1_554 S
C929 C909 1.449 . S
C929 C928 1.399 . S
C929 H935 0.930 . S
H930 C910 0.931 . S
H931 C911 0.930 . S
H932 C919 0.931 . S
H933 C920 0.929 1_556 S
H934 C928 0.929 1_556 S
H935 C929 0.930 . S
Mn936 O941 2.095 . S
Mn936 O951 2.162 . S
Mn936 O952 2.297 . S
Mn936 O960 2.385 . S
Mn936 O961 2.209 . S
Mn936 O962 2.094 . S
Mn937 O942 2.121 . S
Mn937 N944 2.257 . S
Mn937 N953 2.282 . S
Mn937 O961 2.215 . S
Mn937 O963 2.117 . S
C938 O960 1.234 . S
C938 O961 1.283 . S
C939 O951 1.281 . S
C939 O952 1.236 . S
C940 O962 1.240 . S
C940 O963 1.264 . S
O941 Mn936 2.095 . S
O941 C950 1.250 . S
O942 Mn937 2.121 . S
O942 C950 1.258 . S
C943 N944 1.326 . S
C943 C947 1.460 . S
C943 H949 0.929 . S
N944 Mn937 2.257 . S
N944 C943 1.326 . S
N944 C948 1.362 . S
C945 C946 1.258 . S
C945 C948 1.431 . S
C945 C965 1.449 1_554 S
C946 C945 1.258 . S
C946 C947 1.477 . S
C946 H966 0.931 . S
C947 C943 1.460 . S
C947 C946 1.477 . S
C947 H967 0.930 . S
C948 N944 1.362 . S
C948 C945 1.431 . S
C948 C958 1.476 . S
H949 C943 0.929 . S
C950 O941 1.250 . S
C950 O942 1.258 . S
O951 Mn936 2.162 . S
O951 C939 1.281 . S
O952 Mn936 2.297 . S
O952 C939 1.236 . S
N953 Mn937 2.282 . S
N953 C954 1.328 . S
N953 C958 1.318 . S
C954 N953 1.328 . S
C954 C955 1.457 . S
C954 H959 0.929 . S
C955 C954 1.457 . S
C955 C956 1.291 1_554 S
C955 H968 0.931 1_554 S
C956 C955 1.291 1_556 S
C956 C957 1.373 . S
C956 H969 0.929 . S
C957 C956 1.373 . S
C957 C958 1.396 1_556 S
C957 C964 1.403 . S
C958 C948 1.476 . S
C958 N953 1.318 . S
C958 C957 1.396 1_554 S
H959 C954 0.929 . S
O960 Mn936 2.385 . S
O960 C938 1.234 . S
O961 Mn936 2.209 . S
O961 Mn937 2.215 . S
O961 C938 1.283 . S
O962 Mn936 2.094 . S
O962 C940 1.240 . S
O963 Mn937 2.117 . S
O963 C940 1.264 . S
C964 C957 1.403 . S
C964 C965 1.399 . S
C964 H970 0.929 . S
C965 C945 1.449 1_556 S
C965 C964 1.399 . S
C965 H971 0.930 . S
H966 C946 0.931 . S
H967 C947 0.930 . S
H968 C955 0.931 1_556 S
H969 C956 0.929 . S
H970 C964 0.929 . S
H971 C965 0.930 . S
Mn972 O977 2.095 . S
Mn972 O987 2.162 . S
Mn972 O988 2.297 . S
Mn972 O996 2.385 . S
Mn972 O997 2.209 . S
Mn972 O998 2.094 . S
Mn973 O978 2.121 . S
Mn973 N980 2.257 . S
Mn973 N989 2.282 . S
Mn973 O997 2.215 . S
Mn973 O999 2.117 . S
C974 O996 1.234 . S
C974 O997 1.283 . S
C975 O987 1.281 . S
C975 O988 1.236 . S
C976 O998 1.240 . S
C976 O999 1.264 . S
O977 Mn972 2.095 . S
O977 C986 1.250 . S
O978 Mn973 2.121 . S
O978 C986 1.258 . S
C979 N980 1.326 . S
C979 C983 1.460 . S
C979 H985 0.929 . S
N980 Mn973 2.257 . S
N980 C979 1.326 . S
N980 C984 1.362 . S
C981 C982 1.258 . S
C981 C984 1.431 . S
C981 C1001 1.449 . S
C982 C981 1.258 . S
C982 C983 1.477 . S
C982 H1002 0.931 . S
C983 C979 1.460 . S
C983 C982 1.477 . S
C983 H1003 0.930 . S
C984 N980 1.362 . S
C984 C981 1.431 . S
C984 C994 1.476 . S
H985 C979 0.929 . S
C986 O977 1.250 . S
C986 O978 1.258 . S
O987 Mn972 2.162 . S
O987 C975 1.281 . S
O988 Mn972 2.297 . S
O988 C975 1.236 . S
N989 Mn973 2.282 . S
N989 C990 1.328 . S
N989 C994 1.318 . S
C990 N989 1.328 . S
C990 C991 1.457 . S
C990 H995 0.929 . S
C991 C990 1.457 . S
C991 C992 1.291 . S
C991 H1004 0.931 . S
C992 C991 1.291 . S
C992 C993 1.373 . S
C992 H1005 0.929 1_554 S
C993 C992 1.373 . S
C993 C994 1.396 . S
C993 C1000 1.403 . S
C994 C984 1.476 . S
C994 N989 1.318 . S
C994 C993 1.396 . S
H995 C990 0.929 . S
O996 Mn972 2.385 . S
O996 C974 1.234 . S
O997 Mn972 2.209 . S
O997 Mn973 2.215 . S
O997 C974 1.283 . S
O998 Mn972 2.094 . S
O998 C976 1.240 . S
O999 Mn973 2.117 . S
O999 C976 1.264 . S
C1000 C993 1.403 . S
C1000 C1001 1.399 . S
C1000 H1006 0.929 1_554 S
C1001 C981 1.449 . S
C1001 C1000 1.399 . S
C1001 H1007 0.930 . S
H1002 C982 0.931 . S
H1003 C983 0.930 . S
H1004 C991 0.931 . S
H1005 C992 0.929 1_556 S
H1006 C1000 0.929 1_556 S
H1007 C1001 0.930 . S
Mn1008 O1013 2.095 . S
Mn1008 O1023 2.162 . S
Mn1008 O1024 2.297 . S
Mn1008 O1032 2.385 . S
Mn1008 O1033 2.209 . S
Mn1008 O1034 2.094 . S
Mn1009 O1014 2.121 . S
Mn1009 N1016 2.257 . S
Mn1009 N1025 2.282 . S
Mn1009 O1033 2.215 . S
Mn1009 O1035 2.117 . S
C1010 O1032 1.234 . S
C1010 O1033 1.283 . S
C1011 O1023 1.281 . S
C1011 O1024 1.236 . S
C1012 O1034 1.240 . S
C1012 O1035 1.264 . S
O1013 Mn1008 2.095 . S
O1013 C1022 1.250 . S
O1014 Mn1009 2.121 . S
O1014 C1022 1.258 . S
C1015 N1016 1.326 . S
C1015 C1019 1.460 . S
C1015 H1021 0.929 . S
N1016 Mn1009 2.257 . S
N1016 C1015 1.326 . S
N1016 C1020 1.362 . S
C1017 C1018 1.258 . S
C1017 C1020 1.431 . S
C1017 C1037 1.449 1_556 S
C1018 C1017 1.258 . S
C1018 C1019 1.477 . S
C1018 H1038 0.931 . S
C1019 C1015 1.460 . S
C1019 C1018 1.477 . S
C1019 H1039 0.930 . S
C1020 N1016 1.362 . S
C1020 C1017 1.431 . S
C1020 C1030 1.476 . S
H1021 C1015 0.929 . S
C1022 O1013 1.250 . S
C1022 O1014 1.258 . S
O1023 Mn1008 2.162 . S
O1023 C1011 1.281 . S
O1024 Mn1008 2.297 . S
O1024 C1011 1.236 . S
N1025 Mn1009 2.282 . S
N1025 C1026 1.328 . S
N1025 C1030 1.318 . S
C1026 N1025 1.328 . S
C1026 C1027 1.457 . S
C1026 H1031 0.929 . S
C1027 C1026 1.457 . S
C1027 C1028 1.291 1_556 S
C1027 H1040 0.931 1_556 S
C1028 C1027 1.291 1_554 S
C1028 C1029 1.373 . S
C1028 H1041 0.929 . S
C1029 C1028 1.373 . S
C1029 C1030 1.396 1_554 S
C1029 C1036 1.403 . S
C1030 C1020 1.476 . S
C1030 N1025 1.318 . S
C1030 C1029 1.396 1_556 S
H1031 C1026 0.929 . S
O1032 Mn1008 2.385 . S
O1032 C1010 1.234 . S
O1033 Mn1008 2.209 . S
O1033 Mn1009 2.215 . S
O1033 C1010 1.283 . S
O1034 Mn1008 2.094 . S
O1034 C1012 1.240 . S
O1035 Mn1009 2.117 . S
O1035 C1012 1.264 . S
C1036 C1029 1.403 . S
C1036 C1037 1.399 . S
C1036 H1042 0.929 . S
C1037 C1017 1.449 1_554 S
C1037 C1036 1.399 . S
C1037 H1043 0.930 . S
H1038 C1018 0.931 . S
H1039 C1019 0.930 . S
H1040 C1027 0.931 1_554 S
H1041 C1028 0.929 . S
H1042 C1036 0.929 . S
H1043 C1037 0.930 . S
Mn1044 O1049 2.095 . S
Mn1044 O1059 2.162 . S
Mn1044 O1060 2.297 . S
Mn1044 O1068 2.385 . S
Mn1044 O1069 2.209 . S
Mn1044 O1070 2.094 . S
Mn1045 O1050 2.121 . S
Mn1045 N1052 2.257 . S
Mn1045 N1061 2.282 . S
Mn1045 O1069 2.215 . S
Mn1045 O1071 2.117 . S
C1046 O1068 1.234 . S
C1046 O1069 1.283 . S
C1047 O1059 1.281 . S
C1047 O1060 1.236 . S
C1048 O1070 1.240 . S
C1048 O1071 1.264 . S
O1049 Mn1044 2.095 . S
O1049 C1058 1.250 . S
O1050 Mn1045 2.121 . S
O1050 C1058 1.258 . S
C1051 N1052 1.326 . S
C1051 C1055 1.460 . S
C1051 H1057 0.929 . S
N1052 Mn1045 2.257 . S
N1052 C1051 1.326 . S
N1052 C1056 1.362 . S
C1053 C1054 1.258 . S
C1053 C1056 1.431 . S
C1053 C1073 1.449 . S
C1054 C1053 1.258 . S
C1054 C1055 1.477 . S
C1054 H1074 0.931 . S
C1055 C1051 1.460 . S
C1055 C1054 1.477 . S
C1055 H1075 0.930 . S
C1056 N1052 1.362 . S
C1056 C1053 1.431 . S
C1056 C1066 1.476 . S
H1057 C1051 0.929 . S
C1058 O1049 1.250 . S
C1058 O1050 1.258 . S
O1059 Mn1044 2.162 . S
O1059 C1047 1.281 . S
O1060 Mn1044 2.297 . S
O1060 C1047 1.236 . S
N1061 Mn1045 2.282 . S
N1061 C1062 1.328 . S
N1061 C1066 1.318 . S
C1062 N1061 1.328 . S
C1062 C1063 1.457 . S
C1062 H1067 0.929 . S
C1063 C1062 1.457 . S
C1063 C1064 1.291 . S
C1063 H1076 0.931 . S
C1064 C1063 1.291 . S
C1064 C1065 1.373 . S
C1064 H1077 0.929 1_556 S
C1065 C1064 1.373 . S
C1065 C1066 1.396 . S
C1065 C1072 1.403 . S
C1066 C1056 1.476 . S
C1066 N1061 1.318 . S
C1066 C1065 1.396 . S
H1067 C1062 0.929 . S
O1068 Mn1044 2.385 . S
O1068 C1046 1.234 . S
O1069 Mn1044 2.209 . S
O1069 Mn1045 2.215 . S
O1069 C1046 1.283 . S
O1070 Mn1044 2.094 . S
O1070 C1048 1.240 . S
O1071 Mn1045 2.117 . S
O1071 C1048 1.264 . S
C1072 C1065 1.403 . S
C1072 C1073 1.399 . S
C1072 H1078 0.929 1_556 S
C1073 C1053 1.449 . S
C1073 C1072 1.399 . S
C1073 H1079 0.930 . S
H1074 C1054 0.931 . S
H1075 C1055 0.930 . S
H1076 C1063 0.931 . S
H1077 C1064 0.929 1_554 S
H1078 C1072 0.929 1_554 S
H1079 C1073 0.930 . S
Mn1080 O1085 2.095 . S
Mn1080 O1095 2.162 . S
Mn1080 O1096 2.297 . S
Mn1080 O1104 2.385 . S
Mn1080 O1105 2.209 . S
Mn1080 O1106 2.094 . S
Mn1081 O1086 2.121 . S
Mn1081 N1088 2.257 . S
Mn1081 N1097 2.282 . S
Mn1081 O1105 2.215 . S
Mn1081 O1107 2.117 . S
C1082 O1104 1.234 . S
C1082 O1105 1.283 . S
C1083 O1095 1.281 . S
C1083 O1096 1.236 . S
C1084 O1106 1.240 . S
C1084 O1107 1.264 . S
O1085 Mn1080 2.095 . S
O1085 C1094 1.250 . S
O1086 Mn1081 2.121 . S
O1086 C1094 1.258 . S
C1087 N1088 1.326 . S
C1087 C1091 1.460 . S
C1087 H1093 0.929 . S
N1088 Mn1081 2.257 . S
N1088 C1087 1.326 . S
N1088 C1092 1.362 . S
C1089 C1090 1.258 . S
C1089 C1092 1.431 . S
C1089 C1109 1.449 1_556 S
C1090 C1089 1.258 . S
C1090 C1091 1.477 . S
C1090 H1110 0.931 . S
C1091 C1087 1.460 . S
C1091 C1090 1.477 . S
C1091 H1111 0.930 . S
C1092 N1088 1.362 . S
C1092 C1089 1.431 . S
C1092 C1102 1.476 . S
H1093 C1087 0.929 . S
C1094 O1085 1.250 . S
C1094 O1086 1.258 . S
O1095 Mn1080 2.162 . S
O1095 C1083 1.281 . S
O1096 Mn1080 2.297 . S
O1096 C1083 1.236 . S
N1097 Mn1081 2.282 . S
N1097 C1098 1.328 . S
N1097 C1102 1.318 . S
C1098 N1097 1.328 . S
C1098 C1099 1.457 . S
C1098 H1103 0.929 . S
C1099 C1098 1.457 . S
C1099 C1100 1.291 1_556 S
C1099 H1112 0.931 1_556 S
C1100 C1099 1.291 1_554 S
C1100 C1101 1.373 . S
C1100 H1113 0.929 . S
C1101 C1100 1.373 . S
C1101 C1102 1.396 1_554 S
C1101 C1108 1.403 . S
C1102 C1092 1.476 . S
C1102 N1097 1.318 . S
C1102 C1101 1.396 1_556 S
H1103 C1098 0.929 . S
O1104 Mn1080 2.385 . S
O1104 C1082 1.234 . S
O1105 Mn1080 2.209 . S
O1105 Mn1081 2.215 . S
O1105 C1082 1.283 . S
O1106 Mn1080 2.094 . S
O1106 C1084 1.240 . S
O1107 Mn1081 2.117 . S
O1107 C1084 1.264 . S
C1108 C1101 1.403 . S
C1108 C1109 1.399 . S
C1108 H1114 0.929 . S
C1109 C1089 1.449 1_554 S
C1109 C1108 1.399 . S
C1109 H1115 0.930 . S
H1110 C1090 0.931 . S
H1111 C1091 0.930 . S
H1112 C1099 0.931 1_554 S
H1113 C1100 0.929 . S
H1114 C1108 0.929 . S
H1115 C1109 0.930 . S
Mn1116 O1121 2.095 . S
Mn1116 O1131 2.162 . S
Mn1116 O1132 2.297 . S
Mn1116 O1140 2.385 . S
Mn1116 O1141 2.209 . S
Mn1116 O1142 2.094 . S
Mn1117 O1122 2.121 . S
Mn1117 N1124 2.257 . S
Mn1117 N1133 2.282 . S
Mn1117 O1141 2.215 . S
Mn1117 O1143 2.117 . S
C1118 O1140 1.234 . S
C1118 O1141 1.283 . S
C1119 O1131 1.281 . S
C1119 O1132 1.236 . S
C1120 O1142 1.240 . S
C1120 O1143 1.264 . S
O1121 Mn1116 2.095 . S
O1121 C1130 1.250 . S
O1122 Mn1117 2.121 . S
O1122 C1130 1.258 . S
C1123 N1124 1.326 . S
C1123 C1127 1.460 . S
C1123 H1129 0.929 . S
N1124 Mn1117 2.257 . S
N1124 C1123 1.326 . S
N1124 C1128 1.362 . S
C1125 C1126 1.258 . S
C1125 C1128 1.431 . S
C1125 C1145 1.449 . S
C1126 C1125 1.258 . S
C1126 C1127 1.477 . S
C1126 H1146 0.931 . S
C1127 C1123 1.460 . S
C1127 C1126 1.477 . S
C1127 H1147 0.930 . S
C1128 N1124 1.362 . S
C1128 C1125 1.431 . S
C1128 C1138 1.476 . S
H1129 C1123 0.929 . S
C1130 O1121 1.250 . S
C1130 O1122 1.258 . S
O1131 Mn1116 2.162 . S
O1131 C1119 1.281 . S
O1132 Mn1116 2.297 . S
O1132 C1119 1.236 . S
N1133 Mn1117 2.282 . S
N1133 C1134 1.328 . S
N1133 C1138 1.318 . S
C1134 N1133 1.328 . S
C1134 C1135 1.457 . S
C1134 H1139 0.929 . S
C1135 C1134 1.457 . S
C1135 C1136 1.291 . S
C1135 H1148 0.931 . S
C1136 C1135 1.291 . S
C1136 C1137 1.373 . S
C1136 H1149 0.929 1_556 S
C1137 C1136 1.373 . S
C1137 C1138 1.396 . S
C1137 C1144 1.403 . S
C1138 C1128 1.476 . S
C1138 N1133 1.318 . S
C1138 C1137 1.396 . S
H1139 C1134 0.929 . S
O1140 Mn1116 2.385 . S
O1140 C1118 1.234 . S
O1141 Mn1116 2.209 . S
O1141 Mn1117 2.215 . S
O1141 C1118 1.283 . S
O1142 Mn1116 2.094 . S
O1142 C1120 1.240 . S
O1143 Mn1117 2.117 . S
O1143 C1120 1.264 . S
C1144 C1137 1.403 . S
C1144 C1145 1.399 . S
C1144 H1150 0.929 1_556 S
C1145 C1125 1.449 . S
C1145 C1144 1.399 . S
C1145 H1151 0.930 . S
H1146 C1126 0.931 . S
H1147 C1127 0.930 . S
H1148 C1135 0.931 . S
H1149 C1136 0.929 1_554 S
H1150 C1144 0.929 1_554 S
H1151 C1145 0.930 . S
C1152 C1153 1.369 . S
C1152 C1154 1.419 . S
C1152 H1156 0.930 . S
C1153 C1152 1.369 . S
C1153 C1162 1.429 . S
C1154 C1152 1.419 . S
C1154 C1155 1.363 . S
C1154 H1157 0.929 . S
C1155 C1154 1.363 . S
C1155 C1161 1.428 . S
H1156 C1152 0.930 . S
H1157 C1154 0.929 . S
S1158 N1159 1.613 . S
S1158 N1160 1.610 . S
N1159 S1158 1.613 . S
N1159 C1162 1.350 . S
N1160 S1158 1.610 . S
N1160 C1161 1.351 . S
C1161 C1155 1.428 . S
C1161 N1160 1.351 . S
C1161 C1162 1.434 . S
C1162 C1153 1.429 . S
C1162 N1159 1.350 . S
C1162 C1161 1.434 . S
C1163 C1164 1.369 . S
C1163 C1165 1.419 . S
C1163 H1167 0.930 . S
C1164 C1163 1.369 . S
C1164 C1173 1.429 . S
C1165 C1163 1.419 . S
C1165 C1166 1.363 . S
C1165 H1168 0.929 . S
C1166 C1165 1.363 . S
C1166 C1172 1.428 . S
H1167 C1163 0.930 . S
H1168 C1165 0.929 . S
S1169 N1170 1.613 . S
S1169 N1171 1.610 . S
N1170 S1169 1.613 . S
N1170 C1173 1.350 . S
N1171 S1169 1.610 . S
N1171 C1172 1.351 . S
C1172 C1166 1.428 . S
C1172 N1171 1.351 . S
C1172 C1173 1.434 . S
C1173 C1164 1.429 . S
C1173 N1170 1.350 . S
C1173 C1172 1.434 . S
C1174 C1175 1.369 . S
C1174 C1176 1.419 . S
C1174 H1178 0.930 . S
C1175 C1174 1.369 . S
C1175 C1184 1.429 . S
C1176 C1174 1.419 . S
C1176 C1177 1.363 . S
C1176 H1179 0.929 . S
C1177 C1176 1.363 . S
C1177 C1183 1.428 . S
H1178 C1174 0.930 . S
H1179 C1176 0.929 . S
S1180 N1181 1.613 . S
S1180 N1182 1.610 . S
N1181 S1180 1.613 . S
N1181 C1184 1.350 . S
N1182 S1180 1.610 . S
N1182 C1183 1.351 . S
C1183 C1177 1.428 . S
C1183 N1182 1.351 . S
C1183 C1184 1.434 . S
C1184 C1175 1.429 . S
C1184 N1181 1.350 . S
C1184 C1183 1.434 . S
C1185 C1186 1.369 . S
C1185 C1187 1.419 . S
C1185 H1189 0.930 . S
C1186 C1185 1.369 . S
C1186 C1195 1.429 . S
C1187 C1185 1.419 . S
C1187 C1188 1.363 . S
C1187 H1190 0.929 . S
C1188 C1187 1.363 . S
C1188 C1194 1.428 . S
H1189 C1185 0.930 . S
H1190 C1187 0.929 . S
S1191 N1192 1.613 . S
S1191 N1193 1.610 . S
N1192 S1191 1.613 . S
N1192 C1195 1.350 . S
N1193 S1191 1.610 . S
N1193 C1194 1.351 . S
C1194 C1188 1.428 . S
C1194 N1193 1.351 . S
C1194 C1195 1.434 . S
C1195 C1186 1.429 . S
C1195 N1192 1.350 . S
C1195 C1194 1.434 . S
C1196 C1197 1.369 . S
C1196 C1198 1.419 . S
C1196 H1200 0.930 . S
C1197 C1196 1.369 . S
C1197 C1206 1.429 . S
C1198 C1196 1.419 . S
C1198 C1199 1.363 . S
C1198 H1201 0.929 . S
C1199 C1198 1.363 . S
C1199 C1205 1.428 . S
H1200 C1196 0.930 . S
H1201 C1198 0.929 . S
S1202 N1203 1.613 . S
S1202 N1204 1.610 . S
N1203 S1202 1.613 . S
N1203 C1206 1.350 . S
N1204 S1202 1.610 . S
N1204 C1205 1.351 . S
C1205 C1199 1.428 . S
C1205 N1204 1.351 . S
C1205 C1206 1.434 . S
C1206 C1197 1.429 . S
C1206 N1203 1.350 . S
C1206 C1205 1.434 . S
C1207 C1208 1.369 . S
C1207 C1209 1.419 . S
C1207 H1211 0.930 . S
C1208 C1207 1.369 . S
C1208 C1217 1.429 . S
C1209 C1207 1.419 . S
C1209 C1210 1.363 . S
C1209 H1212 0.929 . S
C1210 C1209 1.363 . S
C1210 C1216 1.428 . S
H1211 C1207 0.930 . S
H1212 C1209 0.929 . S
S1213 N1214 1.613 . S
S1213 N1215 1.610 . S
N1214 S1213 1.613 . S
N1214 C1217 1.350 . S
N1215 S1213 1.610 . S
N1215 C1216 1.351 . S
C1216 C1210 1.428 . S
C1216 N1215 1.351 . S
C1216 C1217 1.434 . S
C1217 C1208 1.429 . S
C1217 N1214 1.350 . S
C1217 C1216 1.434 . S
C1218 C1219 1.369 . S
C1218 C1220 1.419 . S
C1218 H1222 0.930 . S
C1219 C1218 1.369 . S
C1219 C1228 1.429 . S
C1220 C1218 1.419 . S
C1220 C1221 1.363 . S
C1220 H1223 0.929 . S
C1221 C1220 1.363 . S
C1221 C1227 1.428 . S
H1222 C1218 0.930 . S
H1223 C1220 0.929 . S
S1224 N1225 1.613 . S
S1224 N1226 1.610 . S
N1225 S1224 1.613 . S
N1225 C1228 1.350 . S
N1226 S1224 1.610 . S
N1226 C1227 1.351 . S
C1227 C1221 1.428 . S
C1227 N1226 1.351 . S
C1227 C1228 1.434 . S
C1228 C1219 1.429 . S
C1228 N1225 1.350 . S
C1228 C1227 1.434 . S
C1229 C1230 1.369 . S
C1229 C1231 1.419 . S
C1229 H1233 0.930 . S
C1230 C1229 1.369 . S
C1230 C1239 1.429 . S
C1231 C1229 1.419 . S
C1231 C1232 1.363 . S
C1231 H1234 0.929 . S
C1232 C1231 1.363 . S
C1232 C1238 1.428 . S
H1233 C1229 0.930 . S
H1234 C1231 0.929 . S
S1235 N1236 1.613 . S
S1235 N1237 1.610 . S
N1236 S1235 1.613 . S
N1236 C1239 1.350 . S
N1237 S1235 1.610 . S
N1237 C1238 1.351 . S
C1238 C1232 1.428 . S
C1238 N1237 1.351 . S
C1238 C1239 1.434 . S
C1239 C1230 1.429 . S
C1239 N1236 1.350 . S
C1239 C1238 1.434 . S
C1240 C1241 1.369 . S
C1240 C1242 1.419 . S
C1240 H1244 0.930 . S
C1241 C1240 1.369 . S
C1241 C1250 1.429 . S
C1242 C1240 1.419 . S
C1242 C1243 1.363 . S
C1242 H1245 0.929 . S
C1243 C1242 1.363 . S
C1243 C1249 1.428 . S
H1244 C1240 0.930 . S
H1245 C1242 0.929 . S
S1246 N1247 1.613 . S
S1246 N1248 1.610 . S
N1247 S1246 1.613 . S
N1247 C1250 1.350 . S
N1248 S1246 1.610 . S
N1248 C1249 1.351 . S
C1249 C1243 1.428 . S
C1249 N1248 1.351 . S
C1249 C1250 1.434 . S
C1250 C1241 1.429 . S
C1250 N1247 1.350 . S
C1250 C1249 1.434 . S
C1251 C1252 1.369 . S
C1251 C1253 1.419 . S
C1251 H1255 0.930 . S
C1252 C1251 1.369 . S
C1252 C1261 1.429 . S
C1253 C1251 1.419 . S
C1253 C1254 1.363 . S
C1253 H1256 0.929 . S
C1254 C1253 1.363 . S
C1254 C1260 1.428 . S
H1255 C1251 0.930 . S
H1256 C1253 0.929 . S
S1257 N1258 1.613 . S
S1257 N1259 1.610 . S
N1258 S1257 1.613 . S
N1258 C1261 1.350 . S
N1259 S1257 1.610 . S
N1259 C1260 1.351 . S
C1260 C1254 1.428 . S
C1260 N1259 1.351 . S
C1260 C1261 1.434 . S
C1261 C1252 1.429 . S
C1261 N1258 1.350 . S
C1261 C1260 1.434 . S
C1262 C1263 1.369 . S
C1262 C1264 1.419 . S
C1262 H1266 0.930 . S
C1263 C1262 1.369 . S
C1263 C1272 1.429 . S
C1264 C1262 1.419 . S
C1264 C1265 1.363 . S
C1264 H1267 0.929 . S
C1265 C1264 1.363 . S
C1265 C1271 1.428 . S
H1266 C1262 0.930 . S
H1267 C1264 0.929 . S
S1268 N1269 1.613 . S
S1268 N1270 1.610 . S
N1269 S1268 1.613 . S
N1269 C1272 1.350 . S
N1270 S1268 1.610 . S
N1270 C1271 1.351 . S
C1271 C1265 1.428 . S
C1271 N1270 1.351 . S
C1271 C1272 1.434 . S
C1272 C1263 1.429 . S
C1272 N1269 1.350 . S
C1272 C1271 1.434 . S
C1273 C1274 1.369 . S
C1273 C1275 1.419 . S
C1273 H1277 0.930 . S
C1274 C1273 1.369 . S
C1274 C1283 1.429 . S
C1275 C1273 1.419 . S
C1275 C1276 1.363 . S
C1275 H1278 0.929 . S
C1276 C1275 1.363 . S
C1276 C1282 1.428 . S
H1277 C1273 0.930 . S
H1278 C1275 0.929 . S
S1279 N1280 1.613 . S
S1279 N1281 1.610 . S
N1280 S1279 1.613 . S
N1280 C1283 1.350 . S
N1281 S1279 1.610 . S
N1281 C1282 1.351 . S
C1282 C1276 1.428 . S
C1282 N1281 1.351 . S
C1282 C1283 1.434 . S
C1283 C1274 1.429 . S
C1283 N1280 1.350 . S
C1283 C1282 1.434 . S
C1284 C1285 1.369 . S
C1284 C1286 1.419 . S
C1284 H1288 0.930 . S
C1285 C1284 1.369 . S
C1285 C1294 1.429 . S
C1286 C1284 1.419 . S
C1286 C1287 1.363 . S
C1286 H1289 0.929 . S
C1287 C1286 1.363 . S
C1287 C1293 1.428 . S
H1288 C1284 0.930 . S
H1289 C1286 0.929 . S
S1290 N1291 1.613 . S
S1290 N1292 1.610 . S
N1291 S1290 1.613 . S
N1291 C1294 1.350 . S
N1292 S1290 1.610 . S
N1292 C1293 1.351 . S
C1293 C1287 1.428 . S
C1293 N1292 1.351 . S
C1293 C1294 1.434 . S
C1294 C1285 1.429 . S
C1294 N1291 1.350 . S
C1294 C1293 1.434 . S
C1295 C1296 1.369 . S
C1295 C1297 1.419 . S
C1295 H1299 0.930 . S
C1296 C1295 1.369 . S
C1296 C1305 1.429 . S
C1297 C1295 1.419 . S
C1297 C1298 1.363 . S
C1297 H1300 0.929 . S
C1298 C1297 1.363 . S
C1298 C1304 1.428 . S
H1299 C1295 0.930 . S
H1300 C1297 0.929 . S
S1301 N1302 1.613 . S
S1301 N1303 1.610 . S
N1302 S1301 1.613 . S
N1302 C1305 1.350 . S
N1303 S1301 1.610 . S
N1303 C1304 1.351 . S
C1304 C1298 1.428 . S
C1304 N1303 1.351 . S
C1304 C1305 1.434 . S
C1305 C1296 1.429 . S
C1305 N1302 1.350 . S
C1305 C1304 1.434 . S
C1306 C1307 1.369 . S
C1306 C1308 1.419 . S
C1306 H1310 0.930 . S
C1307 C1306 1.369 . S
C1307 C1316 1.429 . S
C1308 C1306 1.419 . S
C1308 C1309 1.363 . S
C1308 H1311 0.929 . S
C1309 C1308 1.363 . S
C1309 C1315 1.428 . S
H1310 C1306 0.930 . S
H1311 C1308 0.929 . S
S1312 N1313 1.613 . S
S1312 N1314 1.610 . S
N1313 S1312 1.613 . S
N1313 C1316 1.350 . S
N1314 S1312 1.610 . S
N1314 C1315 1.351 . S
C1315 C1309 1.428 . S
C1315 N1314 1.351 . S
C1315 C1316 1.434 . S
C1316 C1307 1.429 . S
C1316 N1313 1.350 . S
C1316 C1315 1.434 . S
C1317 C1318 1.369 . S
C1317 C1319 1.419 . S
C1317 H1321 0.930 . S
C1318 C1317 1.369 . S
C1318 C1327 1.429 . S
C1319 C1317 1.419 . S
C1319 C1320 1.363 . S
C1319 H1322 0.929 . S
C1320 C1319 1.363 . S
C1320 C1326 1.428 . S
H1321 C1317 0.930 . S
H1322 C1319 0.929 . S
S1323 N1324 1.613 . S
S1323 N1325 1.610 . S
N1324 S1323 1.613 . S
N1324 C1327 1.350 . S
N1325 S1323 1.610 . S
N1325 C1326 1.351 . S
C1326 C1320 1.428 . S
C1326 N1325 1.351 . S
C1326 C1327 1.434 . S
C1327 C1318 1.429 . S
C1327 N1324 1.350 . S
C1327 C1326 1.434 . S
C1328 C1329 1.369 . S
C1328 C1330 1.419 1_655 S
C1328 H1332 0.930 . S
C1329 C1328 1.369 . S
C1329 C1338 1.429 . S
C1330 C1328 1.419 1_455 S
C1330 C1331 1.363 . S
C1330 H1333 0.929 . S
C1331 C1330 1.363 . S
C1331 C1337 1.428 . S
H1332 C1328 0.930 . S
H1333 C1330 0.929 . S
S1334 N1335 1.613 . S
S1334 N1336 1.610 1_655 S
N1335 S1334 1.613 . S
N1335 C1338 1.350 . S
N1336 S1334 1.610 1_455 S
N1336 C1337 1.351 . S
C1337 C1331 1.428 . S
C1337 N1336 1.351 . S
C1337 C1338 1.434 1_455 S
C1338 C1329 1.429 . S
C1338 N1335 1.350 . S
C1338 C1337 1.434 1_655 S
C1339 C1340 1.369 . S
C1339 C1341 1.419 1_545 S
C1339 H1343 0.930 . S
C1340 C1339 1.369 . S
C1340 C1349 1.429 . S
C1341 C1339 1.419 1_565 S
C1341 C1342 1.363 . S
C1341 H1344 0.929 . S
C1342 C1341 1.363 . S
C1342 C1348 1.428 . S
H1343 C1339 0.930 . S
H1344 C1341 0.929 . S
S1345 N1346 1.613 . S
S1345 N1347 1.610 1_545 S
N1346 S1345 1.613 . S
N1346 C1349 1.350 . S
N1347 S1345 1.610 1_565 S
N1347 C1348 1.351 . S
C1348 C1342 1.428 . S
C1348 N1347 1.351 . S
C1348 C1349 1.434 1_565 S
C1349 C1340 1.429 . S
C1349 N1346 1.350 . S
C1349 C1348 1.434 1_545 S
C1350 C1351 1.369 . S
C1350 C1352 1.419 1_455 S
C1350 H1354 0.930 . S
C1351 C1350 1.369 . S
C1351 C1360 1.429 . S
C1352 C1350 1.419 1_655 S
C1352 C1353 1.363 . S
C1352 H1355 0.929 . S
C1353 C1352 1.363 . S
C1353 C1359 1.428 . S
H1354 C1350 0.930 . S
H1355 C1352 0.929 . S
S1356 N1357 1.613 . S
S1356 N1358 1.610 1_455 S
N1357 S1356 1.613 . S
N1357 C1360 1.350 . S
N1358 S1356 1.610 1_655 S
N1358 C1359 1.351 . S
C1359 C1353 1.428 . S
C1359 N1358 1.351 . S
C1359 C1360 1.434 1_655 S
C1360 C1351 1.429 . S
C1360 N1357 1.350 . S
C1360 C1359 1.434 1_455 S
C1361 C1362 1.369 . S
C1361 C1363 1.419 1_565 S
C1361 H1365 0.930 . S
C1362 C1361 1.369 . S
C1362 C1371 1.429 . S
C1363 C1361 1.419 1_545 S
C1363 C1364 1.363 . S
C1363 H1366 0.929 . S
C1364 C1363 1.363 . S
C1364 C1370 1.428 . S
H1365 C1361 0.930 . S
H1366 C1363 0.929 . S
S1367 N1368 1.616 1_545 S
S1367 N1369 1.608 . S
N1368 S1367 1.616 1_565 S
N1368 C1371 1.350 . S
N1369 S1367 1.608 . S
N1369 C1370 1.351 . S
C1370 C1364 1.428 . S
C1370 N1369 1.351 . S
C1370 C1371 1.434 1_545 S
C1371 C1362 1.429 . S
C1371 N1368 1.350 . S
C1371 C1370 1.434 1_565 S
C1372 C1373 1.369 . S
C1372 C1374 1.419 1_455 S
C1372 H1376 0.930 . S
C1373 C1372 1.369 . S
C1373 C1382 1.429 . S
C1374 C1372 1.419 1_655 S
C1374 C1375 1.363 . S
C1374 H1377 0.929 . S
C1375 C1374 1.363 . S
C1375 C1381 1.428 . S
H1376 C1372 0.930 . S
H1377 C1374 0.929 . S
S1378 N1379 1.613 1_655 S
S1378 N1380 1.610 . S
N1379 S1378 1.613 1_455 S
N1379 C1382 1.350 . S
N1380 S1378 1.610 . S
N1380 C1381 1.351 . S
C1381 C1375 1.428 . S
C1381 N1380 1.351 . S
C1381 C1382 1.434 1_655 S
C1382 C1373 1.429 . S
C1382 N1379 1.350 . S
C1382 C1381 1.434 1_455 S
C1383 C1384 1.369 . S
C1383 C1385 1.419 1_565 S
C1383 H1387 0.930 . S
C1384 C1383 1.369 . S
C1384 C1393 1.429 . S
C1385 C1383 1.419 1_545 S
C1385 C1386 1.363 . S
C1385 H1388 0.929 . S
C1386 C1385 1.363 . S
C1386 C1392 1.428 . S
H1387 C1383 0.930 . S
H1388 C1385 0.929 . S
S1389 N1390 1.613 1_545 S
S1389 N1391 1.610 . S
N1390 S1389 1.613 1_565 S
N1390 C1393 1.350 . S
N1391 S1389 1.610 . S
N1391 C1392 1.351 . S
C1392 C1386 1.428 . S
C1392 N1391 1.351 . S
C1392 C1393 1.434 1_545 S
C1393 C1384 1.429 . S
C1393 N1390 1.350 . S
C1393 C1392 1.434 1_565 S
C1394 C1395 1.369 . S
C1394 C1396 1.419 1_455 S
C1394 H1398 0.930 . S
C1395 C1394 1.369 . S
C1395 C1404 1.429 . S
C1396 C1394 1.419 1_655 S
C1396 C1397 1.363 . S
C1396 H1399 0.929 . S
C1397 C1396 1.363 . S
C1397 C1403 1.428 . S
H1398 C1394 0.930 . S
H1399 C1396 0.929 . S
S1400 N1401 1.613 . S
S1400 N1402 1.610 1_455 S
N1401 S1400 1.613 . S
N1401 C1404 1.350 . S
N1402 S1400 1.610 1_655 S
N1402 C1403 1.351 . S
C1403 C1397 1.428 . S
C1403 N1402 1.351 . S
C1403 C1404 1.434 1_655 S
C1404 C1395 1.429 . S
C1404 N1401 1.350 . S
C1404 C1403 1.434 1_455 S
C1405 C1406 1.369 . S
C1405 C1407 1.419 1_545 S
C1405 H1409 0.930 . S
C1406 C1405 1.369 . S
C1406 C1415 1.429 . S
C1407 C1405 1.419 1_565 S
C1407 C1408 1.363 . S
C1407 H1410 0.929 . S
C1408 C1407 1.363 . S
C1408 C1414 1.428 . S
H1409 C1405 0.930 . S
H1410 C1407 0.929 . S
S1411 N1412 1.613 1_565 S
S1411 N1413 1.610 . S
N1412 S1411 1.613 1_545 S
N1412 C1415 1.350 . S
N1413 S1411 1.610 . S
N1413 C1414 1.351 . S
C1414 C1408 1.428 . S
C1414 N1413 1.351 . S
C1414 C1415 1.434 1_565 S
C1415 C1406 1.429 . S
C1415 N1412 1.350 . S
C1415 C1414 1.434 1_545 S
C1416 C1417 1.369 . S
C1416 C1418 1.419 . S
C1416 H1420 0.930 . S
C1417 C1416 1.369 . S
C1417 C1426 1.429 . S
C1418 C1416 1.419 . S
C1418 C1419 1.363 . S
C1418 H1421 0.929 . S
C1419 C1418 1.363 . S
C1419 C1425 1.428 . S
H1420 C1416 0.930 . S
H1421 C1418 0.929 . S
S1422 N1423 1.613 . S
S1422 N1424 1.610 . S
N1423 S1422 1.613 . S
N1423 C1426 1.350 . S
N1424 S1422 1.610 . S
N1424 C1425 1.351 . S
C1425 C1419 1.428 . S
C1425 N1424 1.351 . S
C1425 C1426 1.434 . S
C1426 C1417 1.429 . S
C1426 N1423 1.350 . S
C1426 C1425 1.434 . S
C1427 C1428 1.369 . S
C1427 C1429 1.419 . S
C1427 H1431 0.930 . S
C1428 C1427 1.369 . S
C1428 C1437 1.429 . S
C1429 C1427 1.419 . S
C1429 C1430 1.363 . S
C1429 H1432 0.929 . S
C1430 C1429 1.363 . S
C1430 C1436 1.428 . S
H1431 C1427 0.930 . S
H1432 C1429 0.929 . S
S1433 N1434 1.613 . S
S1433 N1435 1.610 . S
N1434 S1433 1.613 . S
N1434 C1437 1.350 . S
N1435 S1433 1.610 . S
N1435 C1436 1.351 . S
C1436 C1430 1.428 . S
C1436 N1435 1.351 . S
C1436 C1437 1.434 . S
C1437 C1428 1.429 . S
C1437 N1434 1.350 . S
C1437 C1436 1.434 . S
C1438 C1439 1.369 . S
C1438 C1440 1.419 . S
C1438 H1442 0.930 . S
C1439 C1438 1.369 . S
C1439 C1448 1.429 . S
C1440 C1438 1.419 . S
C1440 C1441 1.363 . S
C1440 H1443 0.929 . S
C1441 C1440 1.363 . S
C1441 C1447 1.428 . S
H1442 C1438 0.930 . S
H1443 C1440 0.929 . S
S1444 N1445 1.613 . S
S1444 N1446 1.610 . S
N1445 S1444 1.613 . S
N1445 C1448 1.350 . S
N1446 S1444 1.610 . S
N1446 C1447 1.351 . S
C1447 C1441 1.428 . S
C1447 N1446 1.351 . S
C1447 C1448 1.434 . S
C1448 C1439 1.429 . S
C1448 N1445 1.350 . S
C1448 C1447 1.434 . S
C1449 C1450 1.369 . S
C1449 C1451 1.419 . S
C1449 H1453 0.930 . S
C1450 C1449 1.369 . S
C1450 C1459 1.429 . S
C1451 C1449 1.419 . S
C1451 C1452 1.363 . S
C1451 H1454 0.929 . S
C1452 C1451 1.363 . S
C1452 C1458 1.428 . S
H1453 C1449 0.930 . S
H1454 C1451 0.929 . S
S1455 N1456 1.613 . S
S1455 N1457 1.610 . S
N1456 S1455 1.613 . S
N1456 C1459 1.350 . S
N1457 S1455 1.610 . S
N1457 C1458 1.351 . S
C1458 C1452 1.428 . S
C1458 N1457 1.351 . S
C1458 C1459 1.434 . S
C1459 C1450 1.429 . S
C1459 N1456 1.350 . S
C1459 C1458 1.434 . S
C1460 C1461 1.369 . S
C1460 C1462 1.419 . S
C1460 H1464 0.930 . S
C1461 C1460 1.369 . S
C1461 C1470 1.429 . S
C1462 C1460 1.419 . S
C1462 C1463 1.363 . S
C1462 H1465 0.929 . S
C1463 C1462 1.363 . S
C1463 C1469 1.428 . S
H1464 C1460 0.930 . S
H1465 C1462 0.929 . S
S1466 N1467 1.613 . S
S1466 N1468 1.610 . S
N1467 S1466 1.613 . S
N1467 C1470 1.350 . S
N1468 S1466 1.610 . S
N1468 C1469 1.351 . S
C1469 C1463 1.428 . S
C1469 N1468 1.351 . S
C1469 C1470 1.434 . S
C1470 C1461 1.429 . S
C1470 N1467 1.350 . S
C1470 C1469 1.434 . S
C1471 C1472 1.369 . S
C1471 C1473 1.419 . S
C1471 H1475 0.930 . S
C1472 C1471 1.369 . S
C1472 C1481 1.429 . S
C1473 C1471 1.419 . S
C1473 C1474 1.363 . S
C1473 H1476 0.929 . S
C1474 C1473 1.363 . S
C1474 C1480 1.428 . S
H1475 C1471 0.930 . S
H1476 C1473 0.929 . S
S1477 N1478 1.613 . S
S1477 N1479 1.610 . S
N1478 S1477 1.613 . S
N1478 C1481 1.350 . S
N1479 S1477 1.610 . S
N1479 C1480 1.351 . S
C1480 C1474 1.428 . S
C1480 N1479 1.351 . S
C1480 C1481 1.434 . S
C1481 C1472 1.429 . S
C1481 N1478 1.350 . S
C1481 C1480 1.434 . S
C1482 C1483 1.369 . S
C1482 C1484 1.419 . S
C1482 H1486 0.930 . S
C1483 C1482 1.369 . S
C1483 C1492 1.429 . S
C1484 C1482 1.419 . S
C1484 C1485 1.363 . S
C1484 H1487 0.929 . S
C1485 C1484 1.363 . S
C1485 C1491 1.428 . S
H1486 C1482 0.930 . S
H1487 C1484 0.929 . S
S1488 N1489 1.613 . S
S1488 N1490 1.610 . S
N1489 S1488 1.613 . S
N1489 C1492 1.350 . S
N1490 S1488 1.610 . S
N1490 C1491 1.351 . S
C1491 C1485 1.428 . S
C1491 N1490 1.351 . S
C1491 C1492 1.434 . S
C1492 C1483 1.429 . S
C1492 N1489 1.350 . S
C1492 C1491 1.434 . S
C1493 C1494 1.369 . S
C1493 C1495 1.419 . S
C1493 H1497 0.930 . S
C1494 C1493 1.369 . S
C1494 C1503 1.429 . S
C1495 C1493 1.419 . S
C1495 C1496 1.363 . S
C1495 H1498 0.929 . S
C1496 C1495 1.363 . S
C1496 C1502 1.428 . S
H1497 C1493 0.930 . S
H1498 C1495 0.929 . S
S1499 N1500 1.613 . S
S1499 N1501 1.610 . S
N1500 S1499 1.613 . S
N1500 C1503 1.350 . S
N1501 S1499 1.610 . S
N1501 C1502 1.351 . S
C1502 C1496 1.428 . S
C1502 N1501 1.351 . S
C1502 C1503 1.434 . S
C1503 C1494 1.429 . S
C1503 N1500 1.350 . S
C1503 C1502 1.434 . S
C1504 C1505 1.369 . S
C1504 C1506 1.419 . S
C1504 H1508 0.930 . S
C1505 C1504 1.369 . S
C1505 C1514 1.429 . S
C1506 C1504 1.419 . S
C1506 C1507 1.363 . S
C1506 H1509 0.929 . S
C1507 C1506 1.363 . S
C1507 C1513 1.428 . S
H1508 C1504 0.930 . S
H1509 C1506 0.929 . S
S1510 N1511 1.613 . S
S1510 N1512 1.610 . S
N1511 S1510 1.613 . S
N1511 C1514 1.350 . S
N1512 S1510 1.610 . S
N1512 C1513 1.351 . S
C1513 C1507 1.428 . S
C1513 N1512 1.351 . S
C1513 C1514 1.434 . S
C1514 C1505 1.429 . S
C1514 N1511 1.350 . S
C1514 C1513 1.434 . S
C1515 C1516 1.369 . S
C1515 C1517 1.419 . S
C1515 H1519 0.930 . S
C1516 C1515 1.369 . S
C1516 C1525 1.429 . S
C1517 C1515 1.419 . S
C1517 C1518 1.363 . S
C1517 H1520 0.929 . S
C1518 C1517 1.363 . S
C1518 C1524 1.428 . S
H1519 C1515 0.930 . S
H1520 C1517 0.929 . S
S1521 N1522 1.613 . S
S1521 N1523 1.610 . S
N1522 S1521 1.613 . S
N1522 C1525 1.350 . S
N1523 S1521 1.610 . S
N1523 C1524 1.351 . S
C1524 C1518 1.428 . S
C1524 N1523 1.351 . S
C1524 C1525 1.434 . S
C1525 C1516 1.429 . S
C1525 N1522 1.350 . S
C1525 C1524 1.434 . S
C1526 C1527 1.369 . S
C1526 C1528 1.419 . S
C1526 H1530 0.930 . S
C1527 C1526 1.369 . S
C1527 C1536 1.429 . S
C1528 C1526 1.419 . S
C1528 C1529 1.363 . S
C1528 H1531 0.929 . S
C1529 C1528 1.363 . S
C1529 C1535 1.428 . S
H1530 C1526 0.930 . S
H1531 C1528 0.929 . S
S1532 N1533 1.613 . S
S1532 N1534 1.610 . S
N1533 S1532 1.613 . S
N1533 C1536 1.350 . S
N1534 S1532 1.610 . S
N1534 C1535 1.351 . S
C1535 C1529 1.428 . S
C1535 N1534 1.351 . S
C1535 C1536 1.434 . S
C1536 C1527 1.429 . S
C1536 N1533 1.350 . S
C1536 C1535 1.434 . S
C1537 C1538 1.369 . S
C1537 C1539 1.419 . S
C1537 H1541 0.930 . S
C1538 C1537 1.369 . S
C1538 C1547 1.429 . S
C1539 C1537 1.419 . S
C1539 C1540 1.363 . S
C1539 H1542 0.929 . S
C1540 C1539 1.363 . S
C1540 C1546 1.428 . S
H1541 C1537 0.930 . S
H1542 C1539 0.929 . S
S1543 N1544 1.613 . S
S1543 N1545 1.610 . S
N1544 S1543 1.613 . S
N1544 C1547 1.350 . S
N1545 S1543 1.610 . S
N1545 C1546 1.351 . S
C1546 C1540 1.428 . S
C1546 N1545 1.351 . S
C1546 C1547 1.434 . S
C1547 C1538 1.429 . S
C1547 N1544 1.350 . S
C1547 C1546 1.434 . S
C1548 C1549 1.369 . S
C1548 C1550 1.419 . S
C1548 H1552 0.930 . S
C1549 C1548 1.369 . S
C1549 C1558 1.429 . S
C1550 C1548 1.419 . S
C1550 C1551 1.363 . S
C1550 H1553 0.929 . S
C1551 C1550 1.363 . S
C1551 C1557 1.428 . S
H1552 C1548 0.930 . S
H1553 C1550 0.929 . S
S1554 N1555 1.613 . S
S1554 N1556 1.610 . S
N1555 S1554 1.613 . S
N1555 C1558 1.350 . S
N1556 S1554 1.610 . S
N1556 C1557 1.351 . S
C1557 C1551 1.428 . S
C1557 N1556 1.351 . S
C1557 C1558 1.434 . S
C1558 C1549 1.429 . S
C1558 N1555 1.350 . S
C1558 C1557 1.434 . S
C1559 C1560 1.369 . S
C1559 C1561 1.419 . S
C1559 H1563 0.930 . S
C1560 C1559 1.369 . S
C1560 C1569 1.429 . S
C1561 C1559 1.419 . S
C1561 C1562 1.363 . S
C1561 H1564 0.929 . S
C1562 C1561 1.363 . S
C1562 C1568 1.428 . S
H1563 C1559 0.930 . S
H1564 C1561 0.929 . S
S1565 N1566 1.613 . S
S1565 N1567 1.610 . S
N1566 S1565 1.613 . S
N1566 C1569 1.350 . S
N1567 S1565 1.610 . S
N1567 C1568 1.351 . S
C1568 C1562 1.428 . S
C1568 N1567 1.351 . S
C1568 C1569 1.434 . S
C1569 C1560 1.429 . S
C1569 N1566 1.350 . S
C1569 C1568 1.434 . S
C1570 C1571 1.369 . S
C1570 C1572 1.419 . S
C1570 H1574 0.930 . S
C1571 C1570 1.369 . S
C1571 C1580 1.429 . S
C1572 C1570 1.419 . S
C1572 C1573 1.363 . S
C1572 H1575 0.929 . S
C1573 C1572 1.363 . S
C1573 C1579 1.428 . S
H1574 C1570 0.930 . S
H1575 C1572 0.929 . S
S1576 N1577 1.613 . S
S1576 N1578 1.610 . S
N1577 S1576 1.613 . S
N1577 C1580 1.350 . S
N1578 S1576 1.610 . S
N1578 C1579 1.351 . S
C1579 C1573 1.428 . S
C1579 N1578 1.351 . S
C1579 C1580 1.434 . S
C1580 C1571 1.429 . S
C1580 N1577 1.350 . S
C1580 C1579 1.434 . S
C1581 C1582 1.369 . S
C1581 C1583 1.419 . S
C1581 H1585 0.930 . S
C1582 C1581 1.369 . S
C1582 C1591 1.429 . S
C1583 C1581 1.419 . S
C1583 C1584 1.363 . S
C1583 H1586 0.929 . S
C1584 C1583 1.363 . S
C1584 C1590 1.428 . S
H1585 C1581 0.930 . S
H1586 C1583 0.929 . S
S1587 N1588 1.613 . S
S1587 N1589 1.610 . S
N1588 S1587 1.613 . S
N1588 C1591 1.350 . S
N1589 S1587 1.610 . S
N1589 C1590 1.351 . S
C1590 C1584 1.428 . S
C1590 N1589 1.351 . S
C1590 C1591 1.434 . S
C1591 C1582 1.429 . S
C1591 N1588 1.350 . S
C1591 C1590 1.434 . S
C1592 C1593 1.369 . S
C1592 C1594 1.419 1_554 S
C1592 H1596 0.930 . S
C1593 C1592 1.369 . S
C1593 C1602 1.429 . S
C1594 C1592 1.419 1_556 S
C1594 C1595 1.363 . S
C1594 H1597 0.929 . S
C1595 C1594 1.363 . S
C1595 C1601 1.428 . S
H1596 C1592 0.930 . S
H1597 C1594 0.929 . S
S1598 N1599 1.613 . S
S1598 N1600 1.610 1_554 S
N1599 S1598 1.613 . S
N1599 C1602 1.350 . S
N1600 S1598 1.610 1_556 S
N1600 C1601 1.351 . S
C1601 C1595 1.428 . S
C1601 N1600 1.351 . S
C1601 C1602 1.434 1_556 S
C1602 C1593 1.429 . S
C1602 N1599 1.350 . S
C1602 C1601 1.434 1_554 S
C1603 C1604 1.369 . S
C1603 C1605 1.419 1_556 S
C1603 H1607 0.930 . S
C1604 C1603 1.369 . S
C1604 C1613 1.429 . S
C1605 C1603 1.419 1_554 S
C1605 C1606 1.363 . S
C1605 H1608 0.929 . S
C1606 C1605 1.363 . S
C1606 C1612 1.428 . S
H1607 C1603 0.930 . S
H1608 C1605 0.929 . S
S1609 N1610 1.613 1_554 S
S1609 N1611 1.610 . S
N1610 S1609 1.613 1_556 S
N1610 C1613 1.350 . S
N1611 S1609 1.610 . S
N1611 C1612 1.351 . S
C1612 C1606 1.428 . S
C1612 N1611 1.351 . S
C1612 C1613 1.434 1_554 S
C1613 C1604 1.429 . S
C1613 N1610 1.350 . S
C1613 C1612 1.434 1_556 S
C1614 C1615 1.369 . S
C1614 C1616 1.419 1_554 S
C1614 H1618 0.930 . S
C1615 C1614 1.369 . S
C1615 C1624 1.429 . S
C1616 C1614 1.419 1_556 S
C1616 C1617 1.363 . S
C1616 H1619 0.929 . S
C1617 C1616 1.363 . S
C1617 C1623 1.428 . S
H1618 C1614 0.930 . S
H1619 C1616 0.929 . S
S1620 N1621 1.613 1_556 S
S1620 N1622 1.610 . S
N1621 S1620 1.613 1_554 S
N1621 C1624 1.350 . S
N1622 S1620 1.610 . S
N1622 C1623 1.351 . S
C1623 C1617 1.428 . S
C1623 N1622 1.351 . S
C1623 C1624 1.434 1_556 S
C1624 C1615 1.429 . S
C1624 N1621 1.350 . S
C1624 C1623 1.434 1_554 S
C1625 C1626 1.369 . S
C1625 C1627 1.398 1_554 S
C1625 H1629 0.930 . S
C1626 C1625 1.369 . S
C1626 C1635 1.429 . S
C1627 C1625 1.398 1_556 S
C1627 C1628 1.376 . S
C1627 H1630 0.937 . S
C1628 C1627 1.376 . S
C1628 C1634 1.428 . S
H1629 C1625 0.930 . S
H1630 C1627 0.937 . S
S1631 N1632 1.613 . S
S1631 N1633 1.610 1_554 S
N1632 S1631 1.613 . S
N1632 C1635 1.350 . S
N1633 S1631 1.610 1_556 S
N1633 C1634 1.351 . S
C1634 C1628 1.428 . S
C1634 N1633 1.351 . S
C1634 C1635 1.434 1_556 S
C1635 C1626 1.429 . S
C1635 N1632 1.350 . S
C1635 C1634 1.434 1_554 S
C1636 C1637 1.369 . S
C1636 C1638 1.419 1_554 S
C1636 H1640 0.930 . S
C1637 C1636 1.369 . S
C1637 C1646 1.429 . S
C1638 C1636 1.419 1_556 S
C1638 C1639 1.363 . S
C1638 H1641 0.929 . S
C1639 C1638 1.363 . S
C1639 C1645 1.428 . S
H1640 C1636 0.930 . S
H1641 C1638 0.929 . S
S1642 N1643 1.613 1_556 S
S1642 N1644 1.610 . S
N1643 S1642 1.613 1_554 S
N1643 C1646 1.350 . S
N1644 S1642 1.610 . S
N1644 C1645 1.351 . S
C1645 C1639 1.428 . S
C1645 N1644 1.351 . S
C1645 C1646 1.434 1_556 S
C1646 C1637 1.429 . S
C1646 N1643 1.350 . S
C1646 C1645 1.434 1_554 S
C1647 C1648 1.369 . S
C1647 C1649 1.419 1_554 S
C1647 H1651 0.930 . S
C1648 C1647 1.369 . S
C1648 C1657 1.429 . S
C1649 C1647 1.419 1_556 S
C1649 C1650 1.363 . S
C1649 H1652 0.929 . S
C1650 C1649 1.363 . S
C1650 C1656 1.428 . S
H1651 C1647 0.930 . S
H1652 C1649 0.929 . S
S1653 N1654 1.613 1_556 S
S1653 N1655 1.610 . S
N1654 S1653 1.613 1_554 S
N1654 C1657 1.350 . S
N1655 S1653 1.610 . S
N1655 C1656 1.351 . S
C1656 C1650 1.428 . S
C1656 N1655 1.351 . S
C1656 C1657 1.434 1_556 S
C1657 C1648 1.429 . S
C1657 N1654 1.350 . S
C1657 C1656 1.434 1_554 S
C1658 C1659 1.369 . S
C1658 C1660 1.419 1_556 S
C1658 H1662 0.930 . S
C1659 C1658 1.369 . S
C1659 C1668 1.429 . S
C1660 C1658 1.419 1_554 S
C1660 C1661 1.363 . S
C1660 H1663 0.929 . S
C1661 C1660 1.363 . S
C1661 C1667 1.428 . S
H1662 C1658 0.930 . S
H1663 C1660 0.929 . S
S1664 N1665 1.613 . S
S1664 N1666 1.610 1_556 S
N1665 S1664 1.613 . S
N1665 C1668 1.350 . S
N1666 S1664 1.610 1_554 S
N1666 C1667 1.351 . S
C1667 C1661 1.428 . S
C1667 N1666 1.351 . S
C1667 C1668 1.434 1_554 S
C1668 C1659 1.429 . S
C1668 N1665 1.350 . S
C1668 C1667 1.434 1_556 S
C1669 C1670 1.369 . S
C1669 C1671 1.419 1_556 S
C1669 H1673 0.930 . S
C1670 C1669 1.369 . S
C1670 C1679 1.429 . S
C1671 C1669 1.419 1_554 S
C1671 C1672 1.363 . S
C1671 H1674 0.929 . S
C1672 C1671 1.363 . S
C1672 C1678 1.428 . S
H1673 C1669 0.930 . S
H1674 C1671 0.929 . S
S1675 N1676 1.613 . S
S1675 N1677 1.610 1_556 S
N1676 S1675 1.613 . S
N1676 C1679 1.350 . S
N1677 S1675 1.610 1_554 S
N1677 C1678 1.351 . S
C1678 C1672 1.428 . S
C1678 N1677 1.351 . S
C1678 C1679 1.434 1_554 S
C1679 C1670 1.429 . S
C1679 N1676 1.350 . S
C1679 C1678 1.434 1_556 S
C1680 C1681 1.369 . S
C1680 C1682 1.419 . S
C1680 H1684 0.930 . S
C1681 C1680 1.369 . S
C1681 C1690 1.429 . S
C1682 C1680 1.419 . S
C1682 C1683 1.363 . S
C1682 H1685 0.929 . S
C1683 C1682 1.363 . S
C1683 C1689 1.428 . S
H1684 C1680 0.930 . S
H1685 C1682 0.929 . S
S1686 N1687 1.613 . S
S1686 N1688 1.610 . S
N1687 S1686 1.613 . S
N1687 C1690 1.350 . S
N1688 S1686 1.610 . S
N1688 C1689 1.351 . S
C1689 C1683 1.428 . S
C1689 N1688 1.351 . S
C1689 C1690 1.434 . S
C1690 C1681 1.429 . S
C1690 N1687 1.350 . S
C1690 C1689 1.434 . S
C1691 C1692 1.369 . S
C1691 C1693 1.419 . S
C1691 H1695 0.930 . S
C1692 C1691 1.369 . S
C1692 C1701 1.429 . S
C1693 C1691 1.419 . S
C1693 C1694 1.363 . S
C1693 H1696 0.929 . S
C1694 C1693 1.363 . S
C1694 C1700 1.428 . S
H1695 C1691 0.930 . S
H1696 C1693 0.929 . S
S1697 N1698 1.613 . S
S1697 N1699 1.610 . S
N1698 S1697 1.613 . S
N1698 C1701 1.350 . S
N1699 S1697 1.610 . S
N1699 C1700 1.351 . S
C1700 C1694 1.428 . S
C1700 N1699 1.351 . S
C1700 C1701 1.434 . S
C1701 C1692 1.429 . S
C1701 N1698 1.350 . S
C1701 C1700 1.434 . S
C1702 C1703 1.369 . S
C1702 C1704 1.419 . S
C1702 H1706 0.930 . S
C1703 C1702 1.369 . S
C1703 C1712 1.429 . S
C1704 C1702 1.419 . S
C1704 C1705 1.363 . S
C1704 H1707 0.929 . S
C1705 C1704 1.363 . S
C1705 C1711 1.428 . S
H1706 C1702 0.930 . S
H1707 C1704 0.929 . S
S1708 N1709 1.613 . S
S1708 N1710 1.610 . S
N1709 S1708 1.613 . S
N1709 C1712 1.350 . S
N1710 S1708 1.610 . S
N1710 C1711 1.351 . S
C1711 C1705 1.428 . S
C1711 N1710 1.351 . S
C1711 C1712 1.434 . S
C1712 C1703 1.429 . S
C1712 N1709 1.350 . S
C1712 C1711 1.434 . S
C1713 C1714 1.369 . S
C1713 C1715 1.419 . S
C1713 H1717 0.930 . S
C1714 C1713 1.369 . S
C1714 C1723 1.429 . S
C1715 C1713 1.419 . S
C1715 C1716 1.363 . S
C1715 H1718 0.929 . S
C1716 C1715 1.363 . S
C1716 C1722 1.428 . S
H1717 C1713 0.930 . S
H1718 C1715 0.929 . S
S1719 N1720 1.613 . S
S1719 N1721 1.610 . S
N1720 S1719 1.613 . S
N1720 C1723 1.350 . S
N1721 S1719 1.610 . S
N1721 C1722 1.351 . S
C1722 C1716 1.428 . S
C1722 N1721 1.351 . S
C1722 C1723 1.434 . S
C1723 C1714 1.429 . S
C1723 N1720 1.350 . S
C1723 C1722 1.434 . S
C1724 C1725 1.369 . S
C1724 C1726 1.419 . S
C1724 H1728 0.930 . S
C1725 C1724 1.369 . S
C1725 C1734 1.429 . S
C1726 C1724 1.419 . S
C1726 C1727 1.363 . S
C1726 H1729 0.929 . S
C1727 C1726 1.363 . S
C1727 C1733 1.428 . S
H1728 C1724 0.930 . S
H1729 C1726 0.929 . S
S1730 N1731 1.613 . S
S1730 N1732 1.610 . S
N1731 S1730 1.613 . S
N1731 C1734 1.350 . S
N1732 S1730 1.610 . S
N1732 C1733 1.351 . S
C1733 C1727 1.428 . S
C1733 N1732 1.351 . S
C1733 C1734 1.434 . S
C1734 C1725 1.429 . S
C1734 N1731 1.350 . S
C1734 C1733 1.434 . S
C1735 C1736 1.369 . S
C1735 C1737 1.419 . S
C1735 H1739 0.930 . S
C1736 C1735 1.369 . S
C1736 C1745 1.429 . S
C1737 C1735 1.419 . S
C1737 C1738 1.363 . S
C1737 H1740 0.929 . S
C1738 C1737 1.363 . S
C1738 C1744 1.428 . S
H1739 C1735 0.930 . S
H1740 C1737 0.929 . S
S1741 N1742 1.613 . S
S1741 N1743 1.610 . S
N1742 S1741 1.613 . S
N1742 C1745 1.350 . S
N1743 S1741 1.610 . S
N1743 C1744 1.351 . S
C1744 C1738 1.428 . S
C1744 N1743 1.351 . S
C1744 C1745 1.434 . S
C1745 C1736 1.429 . S
C1745 N1742 1.350 . S
C1745 C1744 1.434 . S
C1746 C1747 1.369 . S
C1746 C1748 1.419 . S
C1746 H1750 0.930 . S
C1747 C1746 1.369 . S
C1747 C1756 1.429 . S
C1748 C1746 1.419 . S
C1748 C1749 1.363 . S
C1748 H1751 0.929 . S
C1749 C1748 1.363 . S
C1749 C1755 1.428 . S
H1750 C1746 0.930 . S
H1751 C1748 0.929 . S
S1752 N1753 1.613 . S
S1752 N1754 1.610 . S
N1753 S1752 1.613 . S
N1753 C1756 1.350 . S
N1754 S1752 1.610 . S
N1754 C1755 1.351 . S
C1755 C1749 1.428 . S
C1755 N1754 1.351 . S
C1755 C1756 1.434 . S
C1756 C1747 1.429 . S
C1756 N1753 1.350 . S
C1756 C1755 1.434 . S
C1757 C1758 1.369 . S
C1757 C1759 1.419 . S
C1757 H1761 0.930 . S
C1758 C1757 1.369 . S
C1758 C1767 1.429 . S
C1759 C1757 1.419 . S
C1759 C1760 1.363 . S
C1759 H1762 0.929 . S
C1760 C1759 1.363 . S
C1760 C1766 1.428 . S
H1761 C1757 0.930 . S
H1762 C1759 0.929 . S
S1763 N1764 1.613 . S
S1763 N1765 1.610 . S
N1764 S1763 1.613 . S
N1764 C1767 1.350 . S
N1765 S1763 1.610 . S
N1765 C1766 1.351 . S
C1766 C1760 1.428 . S
C1766 N1765 1.351 . S
C1766 C1767 1.434 . S
C1767 C1758 1.429 . S
C1767 N1764 1.350 . S
C1767 C1766 1.434 . S
C1768 C1769 1.369 . S
C1768 C1770 1.419 . S
C1768 H1772 0.930 . S
C1769 C1768 1.369 . S
C1769 C1778 1.429 . S
C1770 C1768 1.419 . S
C1770 C1771 1.363 . S
C1770 H1773 0.929 . S
C1771 C1770 1.363 . S
C1771 C1777 1.428 . S
H1772 C1768 0.930 . S
H1773 C1770 0.929 . S
S1774 N1775 1.613 . S
S1774 N1776 1.610 . S
N1775 S1774 1.613 . S
N1775 C1778 1.350 . S
N1776 S1774 1.610 . S
N1776 C1777 1.351 . S
C1777 C1771 1.428 . S
C1777 N1776 1.351 . S
C1777 C1778 1.434 . S
C1778 C1769 1.429 . S
C1778 N1775 1.350 . S
C1778 C1777 1.434 . S
C1779 C1780 1.369 . S
C1779 C1781 1.419 . S
C1779 H1783 0.930 . S
C1780 C1779 1.369 . S
C1780 C1789 1.429 . S
C1781 C1779 1.419 . S
C1781 C1782 1.363 . S
C1781 H1784 0.929 . S
C1782 C1781 1.363 . S
C1782 C1788 1.428 . S
H1783 C1779 0.930 . S
H1784 C1781 0.929 . S
S1785 N1786 1.613 . S
S1785 N1787 1.610 . S
N1786 S1785 1.613 . S
N1786 C1789 1.350 . S
N1787 S1785 1.610 . S
N1787 C1788 1.351 . S
C1788 C1782 1.428 . S
C1788 N1787 1.351 . S
C1788 C1789 1.434 . S
C1789 C1780 1.429 . S
C1789 N1786 1.350 . S
C1789 C1788 1.434 . S
C1790 C1791 1.369 . S
C1790 C1792 1.419 . S
C1790 H1794 0.930 . S
C1791 C1790 1.369 . S
C1791 C1800 1.429 . S
C1792 C1790 1.419 . S
C1792 C1793 1.363 . S
C1792 H1795 0.929 . S
C1793 C1792 1.363 . S
C1793 C1799 1.428 . S
H1794 C1790 0.930 . S
H1795 C1792 0.929 . S
S1796 N1797 1.613 . S
S1796 N1798 1.610 . S
N1797 S1796 1.613 . S
N1797 C1800 1.350 . S
N1798 S1796 1.610 . S
N1798 C1799 1.351 . S
C1799 C1793 1.428 . S
C1799 N1798 1.351 . S
C1799 C1800 1.434 . S
C1800 C1791 1.429 . S
C1800 N1797 1.350 . S
C1800 C1799 1.434 . S
C1801 C1802 1.369 . S
C1801 C1803 1.419 . S
C1801 H1805 0.930 . S
C1802 C1801 1.369 . S
C1802 C1811 1.429 . S
C1803 C1801 1.419 . S
C1803 C1804 1.363 . S
C1803 H1806 0.929 . S
C1804 C1803 1.363 . S
C1804 C1810 1.428 . S
H1805 C1801 0.930 . S
H1806 C1803 0.929 . S
S1807 N1808 1.613 . S
S1807 N1809 1.610 . S
N1808 S1807 1.613 . S
N1808 C1811 1.350 . S
N1809 S1807 1.610 . S
N1809 C1810 1.351 . S
C1810 C1804 1.428 . S
C1810 N1809 1.351 . S
C1810 C1811 1.434 . S
C1811 C1802 1.429 . S
C1811 N1808 1.350 . S
C1811 C1810 1.434 . S
C1812 C1813 1.369 . S
C1812 C1814 1.419 . S
C1812 H1816 0.930 . S
C1813 C1812 1.369 . S
C1813 C1822 1.429 . S
C1814 C1812 1.419 . S
C1814 C1815 1.363 . S
C1814 H1817 0.929 . S
C1815 C1814 1.363 . S
C1815 C1821 1.428 . S
H1816 C1812 0.930 . S
H1817 C1814 0.929 . S
S1818 N1819 1.613 . S
S1818 N1820 1.610 . S
N1819 S1818 1.613 . S
N1819 C1822 1.350 . S
N1820 S1818 1.610 . S
N1820 C1821 1.351 . S
C1821 C1815 1.428 . S
C1821 N1820 1.351 . S
C1821 C1822 1.434 . S
C1822 C1813 1.429 . S
C1822 N1819 1.350 . S
C1822 C1821 1.434 . S
C1823 C1824 1.369 . S
C1823 C1825 1.419 . S
C1823 H1827 0.930 . S
C1824 C1823 1.369 . S
C1824 C1833 1.429 . S
C1825 C1823 1.419 . S
C1825 C1826 1.363 . S
C1825 H1828 0.929 . S
C1826 C1825 1.363 . S
C1826 C1832 1.428 . S
H1827 C1823 0.930 . S
H1828 C1825 0.929 . S
S1829 N1830 1.613 . S
S1829 N1831 1.610 . S
N1830 S1829 1.613 . S
N1830 C1833 1.350 . S
N1831 S1829 1.610 . S
N1831 C1832 1.351 . S
C1832 C1826 1.428 . S
C1832 N1831 1.351 . S
C1832 C1833 1.434 . S
C1833 C1824 1.429 . S
C1833 N1830 1.350 . S
C1833 C1832 1.434 . S
C1834 C1835 1.369 . S
C1834 C1836 1.419 . S
C1834 H1838 0.930 . S
C1835 C1834 1.369 . S
C1835 C1844 1.429 . S
C1836 C1834 1.419 . S
C1836 C1837 1.363 . S
C1836 H1839 0.929 . S
C1837 C1836 1.363 . S
C1837 C1843 1.428 . S
H1838 C1834 0.930 . S
H1839 C1836 0.929 . S
S1840 N1841 1.613 . S
S1840 N1842 1.610 . S
N1841 S1840 1.613 . S
N1841 C1844 1.350 . S
N1842 S1840 1.610 . S
N1842 C1843 1.351 . S
C1843 C1837 1.428 . S
C1843 N1842 1.351 . S
C1843 C1844 1.434 . S
C1844 C1835 1.429 . S
C1844 N1841 1.350 . S
C1844 C1843 1.434 . S
C1845 C1846 1.369 . S
C1845 C1847 1.419 . S
C1845 H1849 0.930 . S
C1846 C1845 1.369 . S
C1846 C1855 1.429 . S
C1847 C1845 1.419 . S
C1847 C1848 1.363 . S
C1847 H1850 0.929 . S
C1848 C1847 1.363 . S
C1848 C1854 1.428 . S
H1849 C1845 0.930 . S
H1850 C1847 0.929 . S
S1851 N1852 1.613 . S
S1851 N1853 1.610 . S
N1852 S1851 1.613 . S
N1852 C1855 1.350 . S
N1853 S1851 1.610 . S
N1853 C1854 1.351 . S
C1854 C1848 1.428 . S
C1854 N1853 1.351 . S
C1854 C1855 1.434 . S
C1855 C1846 1.429 . S
C1855 N1852 1.350 . S
C1855 C1854 1.434 . S
C1153 C544 1.369 . S
C1155 C4 1.378 . S
C1164 C38 1.516 . S
C1166 C436 1.520 . S
C1175 C76 1.380 . S
C1177 C472 1.370 . S
C1186 C508 1.524 . S
C1188 C110 1.519 . S
C1197 C148 1.377 . S
C1199 C328 1.368 . S
C1208 C182 1.520 . S
C1210 C364 1.523 . S
C1219 C400 1.365 . S
C1221 C220 1.376 . S
C1230 C292 1.519 . S
C1232 C254 1.515 . S
C1241 C580 1.376 . S
C1243 C1120 1.367 . S
C1252 C614 1.517 . S
C1254 C1012 1.521 . S
C1263 C652 1.377 . S
C1265 C1048 1.368 . S
C1274 C1084 1.523 . S
C1276 C686 1.519 . S
C1285 C724 1.375 . S
C1287 C904 1.366 . S
C1296 C758 1.519 . S
C1298 C940 1.522 . S
C1307 C976 1.365 . S
C1309 C796 1.376 . S
C1318 C830 1.515 . S
C1320 C868 1.520 . S
C1329 C435 1.391 . S
C1331 C3 1.392 . S
C1340 C50 1.316 . S
C1342 C471 1.365 . S
C1351 C507 1.392 . S
C1353 C75 1.393 . S
C1362 C122 1.308 . S
C1364 C543 1.363 . S
C1373 C147 1.393 . S
C1375 C291 1.392 . S
C1384 C327 1.365 . S
C1386 C194 1.316 . S
C1395 C363 1.392 . S
C1397 C219 1.393 . S
C1406 C399 1.366 . S
C1408 C266 1.316 . S
C1417 C579 1.393 . S
C1419 C1011 1.391 . S
C1428 C1047 1.366 . S
C1430 C626 1.315 . S
C1439 C651 1.392 . S
C1441 C1083 1.391 . S
C1450 C698 1.316 . S
C1452 C1119 1.365 . S
C1461 C867 1.391 . S
C1463 C723 1.393 . S
C1472 C770 1.313 . S
C1474 C903 1.365 . S
C1483 C795 1.393 . S
C1485 C939 1.392 . S
C1494 C842 1.317 . S
C1496 C975 1.365 . S
C1505 C2 1.377 . S
C1507 C362 1.371 . S
C1516 C398 1.360 . S
C1518 C40 1.351 . S
C1527 C74 1.377 . S
C1529 C290 1.371 . S
C1538 C326 1.357 . S
C1540 C112 1.350 . S
C1549 C506 1.378 . S
C1551 C146 1.383 . S
C1560 C542 1.360 . S
C1562 C184 1.351 . S
C1571 C434 1.370 . S
C1573 C218 1.378 . S
C1582 C256 1.345 . S
C1584 C470 1.353 . S
C1593 C938 1.370 . S
C1595 C578 1.378 . S
C1604 C616 1.345 . S
C1606 C974 1.354 . S
C1615 C866 1.378 . S
C1617 C650 1.383 . S
C1626 C902 1.353 . S
C1628 C688 1.345 . S
C1637 C722 1.377 . S
C1639 C1082 1.371 . S
C1648 C760 1.351 . S
C1650 C1118 1.357 . S
C1659 C1010 1.372 . S
C1661 C794 1.380 . S
C1670 C1046 1.356 . S
C1672 C832 1.348 . S
C1681 C831 1.282 . S
C1683 C14 1.245 . S
C1692 C734 1.244 . S
C1694 C39 1.282 . S
C1703 C759 1.281 . S
C1705 C86 1.241 . S
C1714 C806 1.237 . S
C1716 C111 1.278 . S
C1725 C615 1.277 . S
C1727 C158 1.242 . S
C1736 C183 1.280 . S
C1738 C662 1.246 . S
C1747 C230 1.245 . S
C1749 C687 1.282 . S
C1758 C255 1.277 . S
C1760 C590 1.240 . S
C1769 C302 1.296 . S
C1771 C1130 1.278 . S
C1780 C1022 1.295 . S
C1782 C338 1.275 . S
C1791 C374 1.287 . S
C1793 C1058 1.272 . S
C1802 C410 1.270 . S
C1804 C1094 1.287 . S
C1813 C914 1.268 . S
C1815 C446 1.289 . S
C1824 C950 1.296 . S
C1826 C482 1.278 . S
C1835 C518 1.293 . S
C1837 C986 1.278 . S
C1846 C554 1.279 . S
C1848 C878 1.292 . S
