# Generated by pormake.
# Topology fnj, (5)-cn, num edge types: 1
# Building blocks:
#     Node 0, Type 0, BuildingBlock: BEQFEK_clean_sbu_0, # of connection points: 5
#     Node 1, Type 0, BuildingBlock: BEQFEK_clean_sbu_0, # of connection points: 5
#     Node 2, Type 0, BuildingBlock: BEQFEK_clean_sbu_0, # of connection points: 5
#     Node 3, Type 0, BuildingBlock: BEQFEK_clean_sbu_0, # of connection points: 5
#     Node 4, Type 0, BuildingBlock: BEQFEK_clean_sbu_0, # of connection points: 5
#     Node 5, Type 0, BuildingBlock: BEQFEK_clean_sbu_0, # of connection points: 5
#     Node 6, Type 0, BuildingBlock: BEQFEK_clean_sbu_0, # of connection points: 5
#     Node 7, Type 0, BuildingBlock: BEQFEK_clean_sbu_0, # of connection points: 5
#     Node 8, Type 0, BuildingBlock: BEQFEK_clean_sbu_0, # of connection points: 5
#     Node 9, Type 0, BuildingBlock: BEQFEK_clean_sbu_0, # of connection points: 5
#     Node 10, Type 0, BuildingBlock: BEQFEK_clean_sbu_0, # of connection points: 5
#     Node 11, Type 0, BuildingBlock: BEQFEK_clean_sbu_0, # of connection points: 5
#     Node 12, Type 0, BuildingBlock: BEQFEK_clean_sbu_0, # of connection points: 5
#     Node 13, Type 0, BuildingBlock: BEQFEK_clean_sbu_0, # of connection points: 5
#     Node 14, Type 0, BuildingBlock: BEQFEK_clean_sbu_0, # of connection points: 5
#     Node 15, Type 0, BuildingBlock: BEQFEK_clean_sbu_0, # of connection points: 5
#     Edge 16, Type (0, 0), BuildingBlock: OJICUG_clean_linker_0, # of connection points: 2
#     Edge 17, Type (0, 0), BuildingBlock: OJICUG_clean_linker_0, # of connection points: 2
#     Edge 18, Type (0, 0), BuildingBlock: OJICUG_clean_linker_0, # of connection points: 2
#     Edge 19, Type (0, 0), BuildingBlock: OJICUG_clean_linker_0, # of connection points: 2
#     Edge 20, Type (0, 0), BuildingBlock: OJICUG_clean_linker_0, # of connection points: 2
#     Edge 21, Type (0, 0), BuildingBlock: OJICUG_clean_linker_0, # of connection points: 2
#     Edge 22, Type (0, 0), BuildingBlock: OJICUG_clean_linker_0, # of connection points: 2
#     Edge 23, Type (0, 0), BuildingBlock: OJICUG_clean_linker_0, # of connection points: 2
#     Edge 24, Type (0, 0), BuildingBlock: OJICUG_clean_linker_0, # of connection points: 2
#     Edge 25, Type (0, 0), BuildingBlock: OJICUG_clean_linker_0, # of connection points: 2
#     Edge 26, Type (0, 0), BuildingBlock: OJICUG_clean_linker_0, # of connection points: 2
#     Edge 27, Type (0, 0), BuildingBlock: OJICUG_clean_linker_0, # of connection points: 2
#     Edge 28, Type (0, 0), BuildingBlock: OJICUG_clean_linker_0, # of connection points: 2
#     Edge 29, Type (0, 0), BuildingBlock: OJICUG_clean_linker_0, # of connection points: 2
#     Edge 30, Type (0, 0), BuildingBlock: OJICUG_clean_linker_0, # of connection points: 2
#     Edge 31, Type (0, 0), BuildingBlock: OJICUG_clean_linker_0, # of connection points: 2
#     Edge 32, Type (0, 0), BuildingBlock: OJICUG_clean_linker_0, # of connection points: 2
#     Edge 33, Type (0, 0), BuildingBlock: OJICUG_clean_linker_0, # of connection points: 2
#     Edge 34, Type (0, 0), BuildingBlock: OJICUG_clean_linker_0, # of connection points: 2
#     Edge 35, Type (0, 0), BuildingBlock: OJICUG_clean_linker_0, # of connection points: 2
#     Edge 36, Type (0, 0), BuildingBlock: OJICUG_clean_linker_0, # of connection points: 2
#     Edge 37, Type (0, 0), BuildingBlock: OJICUG_clean_linker_0, # of connection points: 2
#     Edge 38, Type (0, 0), BuildingBlock: OJICUG_clean_linker_0, # of connection points: 2
#     Edge 39, Type (0, 0), BuildingBlock: OJICUG_clean_linker_0, # of connection points: 2
#     Edge 40, Type (0, 0), BuildingBlock: OJICUG_clean_linker_0, # of connection points: 2
#     Edge 41, Type (0, 0), BuildingBlock: OJICUG_clean_linker_0, # of connection points: 2
#     Edge 42, Type (0, 0), BuildingBlock: OJICUG_clean_linker_0, # of connection points: 2
#     Edge 43, Type (0, 0), BuildingBlock: OJICUG_clean_linker_0, # of connection points: 2
#     Edge 44, Type (0, 0), BuildingBlock: OJICUG_clean_linker_0, # of connection points: 2
#     Edge 45, Type (0, 0), BuildingBlock: OJICUG_clean_linker_0, # of connection points: 2
#     Edge 46, Type (0, 0), BuildingBlock: OJICUG_clean_linker_0, # of connection points: 2
#     Edge 47, Type (0, 0), BuildingBlock: OJICUG_clean_linker_0, # of connection points: 2
#     Edge 48, Type (0, 0), BuildingBlock: OJICUG_clean_linker_0, # of connection points: 2
#     Edge 49, Type (0, 0), BuildingBlock: OJICUG_clean_linker_0, # of connection points: 2
#     Edge 50, Type (0, 0), BuildingBlock: OJICUG_clean_linker_0, # of connection points: 2
#     Edge 51, Type (0, 0), BuildingBlock: OJICUG_clean_linker_0, # of connection points: 2
#     Edge 52, Type (0, 0), BuildingBlock: OJICUG_clean_linker_0, # of connection points: 2
#     Edge 53, Type (0, 0), BuildingBlock: OJICUG_clean_linker_0, # of connection points: 2
#     Edge 54, Type (0, 0), BuildingBlock: OJICUG_clean_linker_0, # of connection points: 2
#     Edge 55, Type (0, 0), BuildingBlock: OJICUG_clean_linker_0, # of connection points: 2
# Relax obj value: 0.156
# Max RMSD: 0.173
# Mean RMSD: 0.173
data_MOF--net-fnj--node1-BEQFEK_clean_sbu_0--edge1-OJICUG_clean_linker_0
_symmetry_space_group_name_H-M    P1
_symmetry_Int_Tables_number       1
_symmetry_cell_setting            triclinic
loop_
_symmetry_equiv_pos_as_xyz
'x, y, z'
_cell_length_a     55.038683
_cell_length_b     55.05323
_cell_length_c     15.022217
_cell_angle_alpha  90.007491
_cell_angle_beta   90.02918
_cell_angle_gamma 100.18653
loop_
_atom_site_label
_atom_site_type_symbol
_atom_site_fract_x
_atom_site_fract_y
_atom_site_fract_z
_atom_type_partial_charge
Co0 Co 0.38765 0.04472 0.96753 0.0
Co1 Co 0.38267 0.02196 0.15781 0.0
C2 C 0.36513 0.06999 0.10837 0.0
O3 O 0.37269 0.07088 0.02797 0.0
O4 O 0.36769 0.05209 0.1588 0.0
C5 C 0.40222 0.06382 0.77705 0.0
O6 O 0.41683 0.08472 0.79611 0.0
C7 C 0.39539 0.03115 0.34273 0.0
C8 C 0.37797 0.99674 0.40924 0.0
C9 C 0.39068 0.02044 0.42597 0.0
N10 N 0.38583 0.01465 0.2804 0.0
N11 N 0.37571 0.99398 0.32039 0.0
C12 C 0.40709 0.05723 0.32216 0.0
H13 H 0.39867 0.07026 0.36349 0.0
H14 H 0.40539 0.06147 0.25069 0.0
H15 H 0.42708 0.05993 0.33767 0.0
C16 C 0.44035 0.03965 0.99736 0.0
N17 N 0.41679 0.03829 0.02451 0.0
N18 N 0.41425 0.02769 0.10331 0.0
C19 C 0.43596 0.02171 0.12833 0.0
C20 C 0.45327 0.02922 0.06228 0.0
C21 C 0.44966 0.0486 0.90758 0.0
H22 H 0.43768 0.03842 0.85551 0.0
H23 H 0.44873 0.06848 0.90161 0.0
H24 H 0.46894 0.04597 0.89636 0.0
O25 O 0.36337 0.01378 0.96369 0.0
O26 O 0.35999 0.99509 0.09475 0.0
H27 H 0.42425 0.99338 0.22493 0.0
H28 H 0.45745 1.00172 0.21407 0.0
C29 C 0.43984 0.00882 0.21361 0.0
H30 H 0.44033 0.02203 0.26949 0.0
H31 H 0.36631 0.97844 0.28735 0.0
O32 O 0.39208 0.04985 0.83862 0.0
C33 C 0.35418 0.99567 0.01267 0.0
Co34 Co 0.27685 0.15568 0.39475 0.0
Co35 Co 0.25378 0.15065 0.20473 0.0
C36 C 0.30197 0.13318 0.25355 0.0
O37 O 0.30292 0.14067 0.33409 0.0
O38 O 0.28402 0.13576 0.20325 0.0
C39 C 0.2959 0.16997 0.58645 0.0
O40 O 0.31783 0.18291 0.56947 0.0
C41 C 0.26253 0.16383 0.02022 0.0
C42 C 0.22833 0.14582 0.95361 0.0
C43 C 0.25186 0.15898 0.93682 0.0
N44 N 0.24622 0.15382 0.08239 0.0
N45 N 0.22566 0.14338 0.04241 0.0
C46 C 0.28842 0.17604 0.04135 0.0
H47 H 0.29274 0.17403 0.11262 0.0
H48 H 0.29052 0.19609 0.02748 0.0
H49 H 0.30174 0.16824 -0.00065 0.0
C50 C 0.27223 0.20828 0.36445 0.0
N51 N 0.2705 0.18469 0.33739 0.0
N52 N 0.25965 0.18219 0.25906 0.0
C53 C 0.25383 0.20397 0.23426 0.0
C54 C 0.26169 0.22131 0.30004 0.0
C55 C 0.28403 0.21806 0.44986 0.0
H56 H 0.30194 0.21173 0.45721 0.0
H57 H 0.28728 0.23851 0.45195 0.0
H58 H 0.272 0.2106 0.50632 0.0
O59 O 0.24588 0.13135 0.39902 0.0
O60 O 0.22707 0.12803 0.26812 0.0
H61 H 0.22889 0.22316 0.16227 0.0
H62 H 0.25116 0.21111 0.09521 0.0
C63 C 0.23877 0.2074 0.1537 0.0
H64 H 0.22511 0.19042 0.14061 0.0
H65 H 0.21028 0.13364 0.07537 0.0
O66 O 0.28188 0.16065 0.52365 0.0
C67 C 0.22773 0.12219 0.35012 0.0
Co68 Co 0.12034 0.99864 0.46496 0.0
Co69 Co 0.12453 0.02125 0.65562 0.0
C70 C 0.14241 0.97335 0.60708 0.0
O71 O 0.13514 0.97251 0.52631 0.0
O72 O 0.13962 0.99118 0.65749 0.0
C73 C 0.10636 0.97934 0.27459 0.0
O74 O 0.09201 0.95834 0.29411 0.0
C75 C 0.11161 0.01207 0.84037 0.0
C76 C 0.12885 0.04658 0.90676 0.0
C77 C 0.11635 0.02281 0.9236 0.0
N78 N 0.121 0.02861 0.77798 0.0
N79 N 0.13097 0.04935 0.81789 0.0
C80 C 0.10011 0.98592 0.81987 0.0
H81 H 0.10168 0.98174 0.74829 0.0
H82 H 0.08016 0.98303 0.83598 0.0
H83 H 0.10879 0.973 0.86081 0.0
C84 C 0.06761 0.00384 0.49129 0.0
N85 N 0.09099 0.00499 0.52028 0.0
N86 N 0.09315 0.01543 0.5994 0.0
C87 C 0.07135 0.02146 0.62293 0.0
C88 C 0.0544 0.0142 0.5554 0.0
C89 C 0.05884 0.99533 0.40042 0.0
H90 H 0.07122 0.00561 0.34974 0.0
H91 H 0.05959 0.97543 0.39377 0.0
H92 H 0.0397 0.9982 0.38765 0.0
O93 O 0.14453 0.0296 0.46242 0.0
O94 O 0.14737 0.0482 0.59366 0.0
H95 H 0.08238 0.04996 0.7195 0.0
H96 H 0.04923 0.04087 0.70827 0.0
C97 C 0.06709 0.03422 0.70808 0.0
H98 H 0.06692 0.02109 0.76404 0.0
H99 H 0.14028 0.06492 0.78481 0.0
O100 O 0.11632 0.99356 0.33586 0.0
C101 C 0.15348 0.04769 0.51188 0.0
Co102 Co 0.23097 0.88793 0.89406 0.0
Co103 Co 0.25375 0.89283 0.70377 0.0
C104 C 0.20568 0.91033 0.75292 0.0
O105 O 0.20479 0.90282 0.83338 0.0
O106 O 0.2236 0.90777 0.70258 0.0
C107 C 0.21183 0.87343 0.08451 0.0
O108 O 0.19094 0.85882 0.06536 0.0
C109 C 0.24455 0.88009 0.51886 0.0
C110 C 0.27895 0.89755 0.45235 0.0
C111 C 0.25525 0.88483 0.43561 0.0
N112 N 0.26106 0.88964 0.58119 0.0
N113 N 0.28173 0.89977 0.54122 0.0
C114 C 0.21846 0.86839 0.53939 0.0
H115 H 0.21423 0.87005 0.61089 0.0
H116 H 0.21575 0.84842 0.52373 0.0
H117 H 0.20543 0.87684 0.49815 0.0
C118 C 0.23606 0.83524 0.86466 0.0
N119 N 0.23743 0.85879 0.83733 0.0
N120 N 0.24801 0.86128 0.75849 0.0
C121 C 0.25396 0.83955 0.73361 0.0
C122 C 0.24645 0.82228 0.7998 0.0
C123 C 0.22715 0.826 0.95454 0.0
H124 H 0.23729 0.83804 0.00648 0.0
H125 H 0.20724 0.82685 0.96045 0.0
H126 H 0.22985 0.80676 0.96605 0.0
O127 O 0.2619 0.91223 0.89776 0.0
O128 O 0.28061 0.91555 0.76676 0.0
H129 H 0.28227 0.85116 0.63683 0.0
H130 H 0.27382 0.81797 0.6478 0.0
C131 C 0.26678 0.83561 0.64826 0.0
H132 H 0.25355 0.83516 0.59246 0.0
H133 H 0.29727 0.90918 0.57426 0.0
O134 O 0.22584 0.88357 0.023 0.0
C135 C 0.28001 0.9214 0.84879 0.0
Co136 Co 0.61998 0.99953 0.147 0.0
Co137 Co 0.62534 0.02238 0.95688 0.0
C138 C 0.643 0.97445 0.00699 0.0
O139 O 0.63522 0.97349 0.08709 0.0
O140 O 0.6405 0.99234 0.9564 0.0
C141 C 0.60519 0.98048 0.3376 0.0
O142 O 0.59052 0.95959 0.31892 0.0
C143 C 0.61279 0.01314 0.77187 0.0
C144 C 0.6301 0.04758 0.70528 0.0
C145 C 0.61741 0.02387 0.68861 0.0
N146 N 0.62236 0.02965 0.83415 0.0
N147 N 0.63242 0.05034 0.79413 0.0
C148 C 0.60115 0.98704 0.79247 0.0
H149 H 0.60297 0.98277 0.86385 0.0
H150 H 0.58113 0.98433 0.77743 0.0
H151 H 0.60951 0.97404 0.75082 0.0
C152 C 0.56731 0.00441 0.11567 0.0
N153 N 0.59094 0.00585 0.08915 0.0
N154 N 0.59362 0.01649 0.01045 0.0
C155 C 0.57194 0.02245 0.98489 0.0
C156 C 0.5545 0.01485 0.05045 0.0
C157 C 0.55786 0.99543 0.20523 0.0
H158 H 0.56971 0.00563 0.25757 0.0
H159 H 0.55887 0.97556 0.21129 0.0
H160 H 0.53854 0.99798 0.21597 0.0
O161 O 0.64411 0.03053 0.15151 0.0
O162 O 0.64776 0.04932 0.02066 0.0
H163 H 0.58385 0.05086 0.88874 0.0
H164 H 0.55063 0.04257 0.89893 0.0
C165 C 0.56822 0.03543 0.89965 0.0
H166 H 0.56777 0.02227 0.84365 0.0
H167 H 0.64179 0.0659 0.82713 0.0
O168 O 0.61536 0.99434 0.27579 0.0
C169 C 0.65335 0.0487 0.10295 0.0
Co170 Co 0.73189 0.88866 0.72403 0.0
Co171 Co 0.75449 0.89338 0.91454 0.0
C172 C 0.70664 0.91127 0.8647 0.0
O173 O 0.70581 0.90372 0.7843 0.0
O174 O 0.72446 0.90861 0.91549 0.0
C175 C 0.71268 0.87438 0.53365 0.0
O176 O 0.69166 0.86 0.55286 0.0
C177 C 0.74521 0.88068 0.09937 0.0
C178 C 0.77979 0.89772 0.16586 0.0
C179 C 0.756 0.88526 0.18259 0.0
N180 N 0.76177 0.89008 0.03705 0.0
N181 N 0.78254 0.89995 0.07701 0.0
C182 C 0.71903 0.86927 0.07885 0.0
H183 H 0.70615 0.87791 0.12007 0.0
H184 H 0.71481 0.87096 0.00734 0.0
H185 H 0.71609 0.8493 0.09453 0.0
C186 C 0.73664 0.83591 0.75294 0.0
N187 N 0.73807 0.85943 0.78062 0.0
N188 N 0.74856 0.86181 0.85965 0.0
C189 C 0.75439 0.84001 0.88436 0.0
C190 C 0.74689 0.82282 0.8178 0.0
C191 C 0.7279 0.82682 0.66265 0.0
H192 H 0.73818 0.83893 0.6112 0.0
H193 H 0.70802 0.82773 0.65621 0.0
H194 H 0.73058 0.80759 0.65085 0.0
O195 O 0.76294 0.91273 0.72091 0.0
O196 O 0.78158 0.91595 0.85208 0.0
H197 H 0.78277 0.85131 0.98122 0.0
H198 H 0.7739 0.81815 0.9704 0.0
C199 C 0.76712 0.83593 0.9698 0.0
H200 H 0.75391 0.83569 0.02553 0.0
H201 H 0.79815 0.90919 0.04397 0.0
O202 O 0.7268 0.88439 0.59509 0.0
C203 C 0.78108 0.92179 0.77003 0.0
Co204 Co 0.88921 0.04445 0.64269 0.0
Co205 Co 0.88204 0.0213 0.45183 0.0
C206 C 0.86498 0.06937 0.50381 0.0
O207 O 0.873 0.07013 0.58375 0.0
O208 O 0.8674 0.05164 0.45217 0.0
C209 C 0.88125 0.0524 0.82491 0.0
O210 O 0.85898 0.05371 0.79612 0.0
C211 C 0.88967 0.02866 0.26229 0.0
C212 C 0.87656 0.99187 0.20449 0.0
C213 C 0.88559 0.01623 0.18246 0.0
N214 N 0.8833 0.01258 0.32913 0.0
N215 N 0.87566 0.99049 0.29421 0.0
C216 C 0.90061 0.05533 0.27426 0.0
H217 H 0.90469 0.05975 0.34531 0.0
H218 H 0.91791 0.05973 0.23499 0.0
H219 H 0.88778 0.06694 0.24769 0.0
C220 C 0.94109 0.04022 0.60412 0.0
N221 N 0.9173 0.03829 0.57943 0.0
N222 N 0.91423 0.02766 0.50085 0.0
C223 C 0.93595 0.02227 0.47315 0.0
C224 C 0.95373 0.03008 0.53764 0.0
C225 C 0.95064 0.04909 0.69386 0.0
H226 H 0.94196 0.03584 0.74513 0.0
H227 H 0.94527 0.0672 0.70812 0.0
H228 H 0.97096 0.05078 0.69877 0.0
O229 O 0.86519 0.01345 0.65335 0.0
O230 O 0.8602 0.99512 0.5215 0.0
H231 H 0.92536 0.99263 0.3809 0.0
H232 H 0.95814 0.00518 0.38049 0.0
C233 C 0.93939 0.00971 0.38684 0.0
H234 H 0.93649 0.02209 0.33114 0.0
H235 H 0.86912 0.97468 0.33138 0.0
O236 O 0.89826 0.05143 0.76863 0.0
C237 C 0.85541 0.9955 0.6046 0.0
Co238 Co 0.77624 0.15612 0.22493 0.0
Co239 Co 0.75356 0.15098 0.41536 0.0
C240 C 0.80146 0.13335 0.36566 0.0
O241 O 0.80223 0.141 0.28538 0.0
O242 O 0.78366 0.13587 0.41665 0.0
C243 C 0.79543 0.17069 0.03447 0.0
O244 O 0.81634 0.1853 0.05344 0.0
C245 C 0.76272 0.16367 0.60022 0.0
C246 C 0.72828 0.1463 0.66673 0.0
C247 C 0.75199 0.15899 0.68346 0.0
N248 N 0.74621 0.15412 0.5379 0.0
N249 N 0.72552 0.14403 0.57787 0.0
C250 C 0.78883 0.1753 0.57968 0.0
H251 H 0.79306 0.1736 0.5082 0.0
H252 H 0.79158 0.19528 0.5952 0.0
H253 H 0.80182 0.16683 0.621 0.0
C254 C 0.77122 0.20872 0.25489 0.0
N255 N 0.76991 0.18518 0.28215 0.0
N256 N 0.75938 0.18263 0.36105 0.0
C257 C 0.75338 0.20434 0.38606 0.0
C258 C 0.76083 0.22163 0.31987 0.0
C259 C 0.77997 0.21796 0.16482 0.0
H260 H 0.76975 0.20589 0.11309 0.0
H261 H 0.79987 0.21713 0.15849 0.0
H262 H 0.77721 0.23718 0.15336 0.0
O263 O 0.74528 0.132 0.2208 0.0
O264 O 0.72662 0.12838 0.35187 0.0
H265 H 0.72498 0.19266 0.48241 0.0
H266 H 0.73345 0.22585 0.47183 0.0
C267 C 0.74048 0.20821 0.47129 0.0
H268 H 0.75365 0.2086 0.52725 0.0
H269 H 0.70997 0.13464 0.54484 0.0
O270 O 0.78146 0.16058 0.09609 0.0
C271 C 0.72717 0.12275 0.2696 0.0
Co272 Co 0.88743 0.54468 0.4694 0.0
Co273 Co 0.88236 0.52198 0.65975 0.0
C274 C 0.86491 0.57003 0.61005 0.0
O275 O 0.8725 0.57087 0.5297 0.0
O276 O 0.86742 0.55214 0.66063 0.0
C277 C 0.90208 0.56377 0.27898 0.0
O278 O 0.91678 0.58461 0.29807 0.0
C279 C 0.89506 0.53114 0.84467 0.0
C280 C 0.87756 0.49675 0.91117 0.0
C281 C 0.89033 0.52043 0.9279 0.0
N282 N 0.88546 0.51466 0.78234 0.0
N283 N 0.8753 0.494 0.82231 0.0
C284 C 0.9068 0.55722 0.82414 0.0
H285 H 0.9051 0.56147 0.75267 0.0
H286 H 0.92678 0.55988 0.83965 0.0
H287 H 0.8984 0.57025 0.86549 0.0
C288 C 0.94008 0.53946 0.49935 0.0
N289 N 0.91653 0.5382 0.52651 0.0
N290 N 0.91396 0.52765 0.60538 0.0
C291 C 0.93564 0.52159 0.63045 0.0
C292 C 0.95296 0.52901 0.56436 0.0
C293 C 0.94939 0.54828 0.40944 0.0
H294 H 0.93732 0.53815 0.35752 0.0
H295 H 0.94861 0.56819 0.40332 0.0
H296 H 0.96861 0.54549 0.3981 0.0
O297 O 0.86311 0.51378 0.4655 0.0
O298 O 0.85966 0.49513 0.59664 0.0
H299 H 0.92386 0.49327 0.72702 0.0
H300 H 0.95707 0.50159 0.71636 0.0
C301 C 0.93947 0.5087 0.71578 0.0
H302 H 0.93994 0.52191 0.77164 0.0
H303 H 0.86587 0.47848 0.78926 0.0
O304 O 0.89189 0.54982 0.34052 0.0
C305 C 0.85389 0.4957 0.51451 0.0
Co306 Co 0.77644 0.65587 0.89481 0.0
Co307 Co 0.75374 0.65111 0.70436 0.0
C308 C 0.80169 0.63338 0.75377 0.0
O309 O 0.80256 0.6409 0.83424 0.0
O310 O 0.78382 0.63601 0.70321 0.0
C311 C 0.79563 0.67024 0.08531 0.0
O312 O 0.81659 0.68474 0.06622 0.0
C313 C 0.76295 0.66383 0.51949 0.0
C314 C 0.72846 0.64657 0.45295 0.0
C315 C 0.7522 0.65915 0.43624 0.0
N316 N 0.74642 0.65436 0.5818 0.0
N317 N 0.7257 0.64435 0.5418 0.0
C318 C 0.78909 0.67538 0.54006 0.0
H319 H 0.79331 0.67372 0.61158 0.0
H320 H 0.79192 0.69535 0.52435 0.0
H321 H 0.80204 0.66682 0.49888 0.0
C322 C 0.7715 0.70859 0.86588 0.0
N323 N 0.77011 0.68507 0.83823 0.0
N324 N 0.75959 0.68267 0.75926 0.0
C325 C 0.75369 0.70444 0.73457 0.0
C326 C 0.76119 0.72164 0.80107 0.0
C327 C 0.7803 0.71771 0.95607 0.0
H328 H 0.77009 0.70559 0.00763 0.0
H329 H 0.8002 0.71685 0.96229 0.0
H330 H 0.77758 0.73693 0.96788 0.0
O331 O 0.74547 0.63168 0.89828 0.0
O332 O 0.72679 0.62845 0.76715 0.0
H333 H 0.72533 0.69303 0.63771 0.0
H334 H 0.73404 0.7262 0.64866 0.0
C335 C 0.74092 0.70847 0.64918 0.0
H336 H 0.75413 0.7088 0.59342 0.0
H337 H 0.71013 0.63502 0.57482 0.0
O338 O 0.78158 0.66018 0.02376 0.0
C339 C 0.72735 0.62258 0.84918 0.0
Co340 Co 0.61985 0.49922 0.96726 0.0
Co341 Co 0.62462 0.52203 0.15758 0.0
C342 C 0.64229 0.47403 0.10861 0.0
O343 O 0.63481 0.47311 0.02809 0.0
O344 O 0.63967 0.49194 0.15892 0.0
C345 C 0.60545 0.48004 0.77665 0.0
O346 O 0.59095 0.45908 0.79562 0.0
C347 C 0.61186 0.51283 0.34244 0.0
C348 C 0.62921 0.54727 0.40904 0.0
C349 C 0.61658 0.52354 0.42572 0.0
N350 N 0.62137 0.52935 0.28015 0.0
N351 N 0.63143 0.55004 0.32019 0.0
C352 C 0.60024 0.48672 0.3218 0.0
H353 H 0.60191 0.4825 0.2503 0.0
H354 H 0.58026 0.48396 0.33738 0.0
H355 H 0.60873 0.47373 0.36304 0.0
C356 C 0.56711 0.50412 0.99629 0.0
N357 N 0.59065 0.50557 0.02382 0.0
N358 N 0.59308 0.51617 0.10265 0.0
C359 C 0.57131 0.52206 0.12733 0.0
C360 C 0.55408 0.51448 0.061 0.0
C361 C 0.55792 0.49517 0.90633 0.0
H362 H 0.56992 0.5054 0.85449 0.0
H363 H 0.55893 0.47531 0.90034 0.0
H364 H 0.53864 0.49773 0.89474 0.0
O365 O 0.64405 0.53019 0.96365 0.0
O366 O 0.64728 0.54893 0.09465 0.0
H367 H 0.5828 0.55044 0.22399 0.0
H368 H 0.54962 0.54187 0.21285 0.0
C369 C 0.5673 0.53491 0.21256 0.0
H370 H 0.56689 0.52173 0.26845 0.0
H371 H 0.6408 0.5656 0.2872 0.0
O372 O 0.6155 0.49407 0.83828 0.0
C373 C 0.65315 0.54834 0.01265 0.0
Co374 Co 0.73043 0.38834 0.39614 0.0
Co375 Co 0.75323 0.393 0.20581 0.0
C376 C 0.70527 0.41075 0.25462 0.0
O377 O 0.70434 0.4033 0.33516 0.0
O378 O 0.72316 0.40808 0.20434 0.0
C379 C 0.71123 0.37401 0.58663 0.0
O380 O 0.69026 0.35952 0.56744 0.0
C381 C 0.74402 0.38021 0.02093 0.0
C382 C 0.77847 0.39755 0.95446 0.0
C383 C 0.75473 0.38494 0.93768 0.0
N384 N 0.76056 0.3897 0.08329 0.0
N385 N 0.78126 0.39975 0.04333 0.0
C386 C 0.7179 0.36861 0.04146 0.0
H387 H 0.71369 0.37027 0.11298 0.0
H388 H 0.71512 0.34864 0.02575 0.0
H389 H 0.70492 0.37713 0.00027 0.0
C390 C 0.73545 0.33562 0.36759 0.0
N391 N 0.73679 0.35912 0.33975 0.0
N392 N 0.74735 0.36149 0.26088 0.0
C393 C 0.75331 0.33974 0.23644 0.0
C394 C 0.74584 0.32257 0.30301 0.0
C395 C 0.72665 0.32654 0.45778 0.0
H396 H 0.73689 0.33866 0.50933 0.0
H397 H 0.70677 0.32743 0.46396 0.0
H398 H 0.72935 0.30731 0.46965 0.0
O399 O 0.76142 0.41252 0.39968 0.0
O400 O 0.78015 0.41567 0.26871 0.0
H401 H 0.78177 0.35114 0.14006 0.0
H402 H 0.77306 0.31797 0.15097 0.0
C403 C 0.76618 0.33569 0.15129 0.0
H404 H 0.75302 0.33536 0.0953 0.0
H405 H 0.79682 0.4091 0.07638 0.0
O406 O 0.72529 0.38406 0.52513 0.0
C407 C 0.77956 0.42158 0.3507 0.0
Co408 Co 0.11963 0.49849 0.64442 0.0
Co409 Co 0.12451 0.52128 0.45413 0.0
C410 C 0.14209 0.47325 0.50329 0.0
O411 O 0.13458 0.47234 0.58375 0.0
O412 O 0.1395 0.49116 0.45297 0.0
C413 C 0.10512 0.47936 0.83492 0.0
O414 O 0.0905 0.45848 0.81582 0.0
C415 C 0.11176 0.51209 0.26922 0.0
C416 C 0.12923 0.54649 0.2027 0.0
C417 C 0.11651 0.52279 0.18597 0.0
N418 N 0.12132 0.5286 0.33155 0.0
N419 N 0.13146 0.54926 0.29156 0.0
C420 C 0.10005 0.48601 0.2898 0.0
H421 H 0.10174 0.48178 0.36128 0.0
H422 H 0.08007 0.48333 0.27423 0.0
H423 H 0.10847 0.47298 0.24851 0.0
C424 C 0.06693 0.50363 0.61506 0.0
N425 N 0.09047 0.50493 0.58764 0.0
N426 N 0.09296 0.51551 0.5088 0.0
C427 C 0.07125 0.52154 0.484 0.0
C428 C 0.05399 0.51408 0.55026 0.0
C429 C 0.05771 0.49478 0.70503 0.0
H430 H 0.06978 0.50495 0.75686 0.0
H431 H 0.05855 0.47489 0.7111 0.0
H432 H 0.03847 0.4975 0.71653 0.0
O433 O 0.1439 0.52943 0.64818 0.0
O434 O 0.14719 0.54814 0.51716 0.0
H435 H 0.0829 0.54993 0.38757 0.0
H436 H 0.04969 0.54147 0.39831 0.0
C437 C 0.06734 0.53444 0.39878 0.0
H438 H 0.06691 0.52127 0.34283 0.0
H439 H 0.14087 0.56479 0.3246 0.0
O440 O 0.11526 0.49335 0.77337 0.0
C441 C 0.15304 0.54755 0.5992 0.0
Co442 Co 0.23026 0.38765 0.21576 0.0
Co443 Co 0.25351 0.39279 0.4056 0.0
C444 C 0.20525 0.4102 0.3571 0.0
O445 O 0.20422 0.40268 0.2766 0.0
O446 O 0.22326 0.40767 0.40717 0.0
C447 C 0.21125 0.3733 0.02388 0.0
O448 O 0.18936 0.36028 0.04067 0.0
C449 C 0.24477 0.37962 0.59014 0.0
C450 C 0.27891 0.39773 0.65687 0.0
C451 C 0.2554 0.38451 0.6736 0.0
N452 N 0.26107 0.38966 0.52801 0.0
N453 N 0.2816 0.40016 0.56807 0.0
C454 C 0.2189 0.36734 0.56893 0.0
H455 H 0.21458 0.36936 0.49766 0.0
H456 H 0.21685 0.3473 0.58271 0.0
H457 H 0.20554 0.37509 0.61093 0.0
C458 C 0.23492 0.33509 0.24629 0.0
N459 N 0.23667 0.35868 0.27324 0.0
N460 N 0.24759 0.36123 0.35144 0.0
C461 C 0.25343 0.33946 0.37628 0.0
C462 C 0.24551 0.32209 0.31066 0.0
C463 C 0.22307 0.32527 0.16101 0.0
H464 H 0.20516 0.3316 0.15373 0.0
H465 H 0.21981 0.30481 0.15906 0.0
H466 H 0.23508 0.33268 0.10443 0.0
O467 O 0.26122 0.41196 0.21123 0.0
O468 O 0.2802 0.41538 0.34183 0.0
H469 H 0.27845 0.32032 0.44805 0.0
H470 H 0.2562 0.33233 0.51531 0.0
C471 C 0.26855 0.33606 0.45671 0.0
H472 H 0.28219 0.35306 0.46971 0.0
H473 H 0.29697 0.40994 0.53516 0.0
O474 O 0.22521 0.38265 0.08681 0.0
C475 C 0.27944 0.42116 0.25979 0.0
Co476 Co 0.38725 0.5441 0.14092 0.0
Co477 Co 0.38221 0.52145 0.95048 0.0
C478 C 0.3648 0.56952 0.00034 0.0
O479 O 0.37239 0.57032 0.08071 0.0
O480 O 0.36728 0.55164 0.94964 0.0
C481 C 0.40181 0.56319 0.33137 0.0
O482 O 0.41639 0.5841 0.31234 0.0
C483 C 0.39493 0.53061 0.76562 0.0
C484 C 0.37755 0.49617 0.69911 0.0
C485 C 0.39025 0.51987 0.68239 0.0
N486 N 0.38535 0.51413 0.82793 0.0
N487 N 0.37527 0.49344 0.78796 0.0
C488 C 0.4066 0.55671 0.78616 0.0
H489 H 0.40492 0.56096 0.85763 0.0
H490 H 0.42658 0.55944 0.77065 0.0
H491 H 0.39814 0.56971 0.74483 0.0
C492 C 0.4399 0.53901 0.11124 0.0
N493 N 0.41634 0.53766 0.08399 0.0
N494 N 0.41381 0.52711 0.0051 0.0
C495 C 0.43552 0.52114 0.9801 0.0
C496 C 0.45283 0.52863 0.04627 0.0
C497 C 0.44919 0.5479 0.20114 0.0
H498 H 0.43718 0.53773 0.25306 0.0
H499 H 0.44831 0.5678 0.20721 0.0
H500 H 0.46845 0.54522 0.21253 0.0
O501 O 0.36292 0.51323 0.1444 0.0
O502 O 0.35946 0.49459 0.01325 0.0
H503 H 0.42384 0.49288 0.88318 0.0
H504 H 0.45704 0.50123 0.89429 0.0
C505 C 0.43942 0.50832 0.89471 0.0
H506 H 0.43991 0.52156 0.83896 0.0
H507 H 0.36587 0.47791 0.82098 0.0
O508 O 0.39167 0.54919 0.26981 0.0
C509 C 0.35367 0.49517 0.09533 0.0
Co510 Co 0.27609 0.6555 0.71755 0.0
Co511 Co 0.25349 0.6504 0.90797 0.0
C512 C 0.30152 0.63298 0.85795 0.0
O513 O 0.30231 0.64058 0.77763 0.0
O514 O 0.28366 0.63546 0.90869 0.0
C515 C 0.29521 0.67014 0.52728 0.0
O516 O 0.31607 0.6848 0.54649 0.0
C517 C 0.26269 0.66307 0.0929 0.0
C518 C 0.22826 0.64565 0.15936 0.0
C519 C 0.25196 0.65837 0.1761 0.0
N520 N 0.2462 0.65349 0.03056 0.0
N521 N 0.22551 0.64338 0.0705 0.0
C522 C 0.2888 0.67474 0.07244 0.0
H523 H 0.29304 0.67306 0.00097 0.0
H524 H 0.29152 0.69472 0.08803 0.0
H525 H 0.3018 0.66629 0.11378 0.0
C526 C 0.271 0.70815 0.74769 0.0
N527 N 0.26967 0.68458 0.77471 0.0
N528 N 0.25914 0.68202 0.85363 0.0
C529 C 0.25319 0.70371 0.87887 0.0
C530 C 0.26065 0.72104 0.81284 0.0
C531 C 0.27985 0.71748 0.65784 0.0
H532 H 0.26973 0.70544 0.60584 0.0
H533 H 0.29977 0.71671 0.6518 0.0
H534 H 0.27707 0.73671 0.64654 0.0
O535 O 0.2452 0.63118 0.71378 0.0
O536 O 0.22661 0.6277 0.845 0.0
H537 H 0.22496 0.69198 0.97584 0.0
H538 H 0.2333 0.72518 0.96501 0.0
C539 C 0.2404 0.70757 0.96437 0.0
H540 H 0.25367 0.70805 0.02005 0.0
H541 H 0.20997 0.63398 0.03743 0.0
O542 O 0.28123 0.65995 0.58873 0.0
C543 C 0.22714 0.62193 0.76287 0.0
C544 C 0.41672 0.06201 0.61899 0.0
C545 C 0.39893 0.0545 0.68488 0.0
H546 H 0.42899 0.05624 0.48708 0.0
C547 C 0.37859 0.03603 0.66462 0.0
H548 H 0.43285 0.0758 0.63342 0.0
C549 C 0.37615 0.02513 0.5807 0.0
C550 C 0.39398 0.03237 0.51471 0.0
H551 H 0.36454 0.02979 0.71408 0.0
H552 H 0.36016 0.01105 0.56748 0.0
C553 C 0.4144 0.05085 0.53484 0.0
C554 C 0.28284 0.18228 0.82854 0.0
C555 C 0.26369 0.16239 0.84781 0.0
H556 H 0.30856 0.20007 0.73107 0.0
C557 C 0.25578 0.14504 0.7807 0.0
H558 H 0.28878 0.19659 0.87686 0.0
C559 C 0.26675 0.14735 0.69692 0.0
C560 C 0.28604 0.16702 0.67792 0.0
H561 H 0.24115 0.12946 0.79295 0.0
H562 H 0.26004 0.13365 0.64675 0.0
C563 C 0.29412 0.18441 0.74461 0.0
C564 C 0.12942 0.00728 0.1615 0.0
C565 C 0.10932 0.98861 0.18231 0.0
H566 H 0.14727 0.03247 0.06402 0.0
C567 C 0.09137 0.98093 0.11702 0.0
H568 H 0.14356 0.01366 0.21051 0.0
C569 C 0.0933 0.99213 0.03293 0.0
C570 C 0.11346 0.01083 0.01228 0.0
H571 H 0.07541 0.96698 0.13192 0.0
H572 H 0.07859 0.98659 0.98567 0.0
C573 C 0.13146 0.01822 0.07766 0.0
C574 C 0.2505 0.89945 0.28102 0.0
C575 C 0.2433 0.88157 0.34689 0.0
H576 H 0.2458 0.91112 0.14771 0.0
C577 C 0.22483 0.86116 0.32666 0.0
H578 H 0.26456 0.91545 0.29433 0.0
C579 C 0.21366 0.85886 0.24251 0.0
C580 C 0.22114 0.8767 0.17672 0.0
H581 H 0.21947 0.84653 0.37432 0.0
H582 H 0.19989 0.84273 0.22798 0.0
C583 C 0.23958 0.89705 0.1971 0.0
C584 C 0.63161 0.01924 0.53339 0.0
C585 C 0.61392 0.01198 0.59984 0.0
H586 H 0.64295 0.01459 0.39967 0.0
C587 C 0.59346 0.99352 0.58012 0.0
H588 H 0.64763 0.03331 0.54628 0.0
C589 C 0.59096 0.98237 0.49597 0.0
C590 C 0.60862 0.98987 0.42965 0.0
H591 H 0.57895 0.98813 0.62822 0.0
H592 H 0.5748 0.96857 0.4819 0.0
C593 C 0.629 0.00834 0.44947 0.0
C594 C 0.71427 0.85973 0.37568 0.0
C595 C 0.72196 0.87753 0.44144 0.0
H596 H 0.71989 0.84729 0.24386 0.0
C597 C 0.74059 0.89771 0.42106 0.0
H598 H 0.70035 0.84372 0.39022 0.0
C599 C 0.75148 0.89998 0.33716 0.0
C600 C 0.74407 0.88214 0.2713 0.0
H601 H 0.74696 0.91175 0.47044 0.0
H602 H 0.76569 0.91585 0.32384 0.0
C603 C 0.72542 0.86189 0.29153 0.0
C604 C 0.90177 0.02045 0.02702 0.0
C605 C 0.88625 0.02719 0.09293 0.0
H606 H 0.91302 0.024 0.89049 0.0
C607 C 0.87049 0.04384 0.07216 0.0
H608 H 0.91403 0.00761 0.04196 0.0
C609 C 0.86954 0.05289 0.98552 0.0
C610 C 0.88478 0.04589 0.91884 0.0
H611 H 0.85823 0.04911 0.12219 0.0
H612 H 0.85653 0.06493 0.97021 0.0
C613 C 0.90131 0.03001 0.94086 0.0
C614 C 0.78239 0.18277 0.79222 0.0
C615 C 0.76393 0.16233 0.77218 0.0
H616 H 0.80734 0.20129 0.8907 0.0
C617 C 0.75673 0.14451 0.83826 0.0
H618 H 0.78774 0.19736 0.7444 0.0
C619 C 0.76765 0.14699 0.92216 0.0
C620 C 0.7861 0.16736 0.94232 0.0
H621 H 0.74266 0.1285 0.8251 0.0
H622 H 0.76144 0.13296 0.97169 0.0
C623 C 0.79357 0.18514 0.87635 0.0
C624 C 0.91656 0.56189 0.12092 0.0
C625 C 0.89874 0.55447 0.1868 0.0
H626 H 0.92879 0.55605 0.989 0.0
C627 C 0.87832 0.5361 0.16652 0.0
H628 H 0.93275 0.57561 0.13536 0.0
C629 C 0.87583 0.5252 0.0826 0.0
C630 C 0.89368 0.53235 0.01662 0.0
H631 H 0.86425 0.52993 0.21598 0.0
H632 H 0.85977 0.51119 0.06936 0.0
C633 C 0.91418 0.55074 0.03676 0.0
C634 C 0.75684 0.64447 0.28166 0.0
C635 C 0.76415 0.66234 0.34754 0.0
H636 H 0.76147 0.63273 0.1484 0.0
C637 C 0.78271 0.68266 0.32735 0.0
H638 H 0.74269 0.62855 0.29493 0.0
C639 C 0.79389 0.68487 0.24325 0.0
C640 C 0.78632 0.66705 0.17747 0.0
H641 H 0.78816 0.69728 0.37501 0.0
H642 H 0.80775 0.70094 0.22876 0.0
C643 C 0.76777 0.64679 0.19779 0.0
C644 C 0.62888 0.50798 0.66429 0.0
C645 C 0.60864 0.48939 0.68451 0.0
H646 H 0.64713 0.53308 0.56724 0.0
C647 C 0.59084 0.48181 0.61863 0.0
H648 H 0.64292 0.51429 0.71375 0.0
C649 C 0.59306 0.493 0.53454 0.0
C650 C 0.61337 0.51159 0.51443 0.0
H651 H 0.57479 0.46793 0.63304 0.0
H652 H 0.57846 0.48754 0.48682 0.0
C653 C 0.63121 0.51891 0.58043 0.0
C654 C 0.71298 0.35933 0.74452 0.0
C655 C 0.72056 0.37717 0.67883 0.0
H656 H 0.71871 0.34687 0.87621 0.0
C657 C 0.73913 0.3974 0.69928 0.0
H658 H 0.6991 0.34328 0.72992 0.0
C659 C 0.75007 0.39968 0.78317 0.0
C660 C 0.74276 0.3818 0.84896 0.0
H661 H 0.74543 0.41147 0.64997 0.0
H662 H 0.76424 0.41559 0.79653 0.0
C663 C 0.72417 0.3615 0.82864 0.0
C664 C 0.09056 0.48119 0.99291 0.0
C665 C 0.10838 0.48868 0.9271 0.0
H666 H 0.07823 0.48698 0.12472 0.0
C667 C 0.12872 0.50715 0.94744 0.0
H668 H 0.07443 0.4674 0.97842 0.0
C669 C 0.13111 0.51806 0.03134 0.0
C670 C 0.11325 0.51085 0.09725 0.0
H671 H 0.14278 0.51338 0.89804 0.0
H672 H 0.1471 0.53215 0.04462 0.0
C673 C 0.09285 0.49236 0.07704 0.0
C674 C 0.21313 0.35893 0.86564 0.0
C675 C 0.22117 0.37629 0.93246 0.0
H676 H 0.21851 0.34682 0.73335 0.0
C677 C 0.24045 0.39599 0.91361 0.0
H678 H 0.1987 0.34326 0.87905 0.0
C679 C 0.25144 0.39836 0.82985 0.0
C680 C 0.24355 0.38104 0.76259 0.0
H681 H 0.24713 0.40968 0.96387 0.0
H682 H 0.26605 0.41396 0.81771 0.0
C683 C 0.22443 0.36112 0.78175 0.0
C684 C 0.414 0.55023 0.5736 0.0
C685 C 0.39357 0.53177 0.59366 0.0
H686 H 0.43247 0.57516 0.47506 0.0
C687 C 0.37573 0.52454 0.52762 0.0
H688 H 0.4286 0.55561 0.6214 0.0
C689 C 0.37817 0.53543 0.44372 0.0
C690 C 0.39852 0.55388 0.42352 0.0
H691 H 0.35972 0.51047 0.5408 0.0
H692 H 0.36412 0.5292 0.39421 0.0
C693 C 0.41633 0.56138 0.48946 0.0
C694 C 0.25674 0.64385 0.33076 0.0
C695 C 0.26388 0.66172 0.26483 0.0
H696 H 0.26146 0.63228 0.46416 0.0
C697 C 0.28224 0.68223 0.28501 0.0
H698 H 0.24275 0.62779 0.31747 0.0
C699 C 0.29338 0.68462 0.3692 0.0
C700 C 0.28596 0.66679 0.43506 0.0
H701 H 0.28755 0.69684 0.23725 0.0
H702 H 0.30707 0.70082 0.38371 0.0
C703 C 0.26762 0.64635 0.41472 0.0
C704 C 0.33933 0.10293 0.08837 0.0
C705 C 0.35196 0.08908 0.1447 0.0
H706 H 0.31355 0.12771 0.0789 0.0
C707 C 0.35005 0.09196 0.23755 0.0
H708 H 0.34041 0.10113 0.01673 0.0
C709 C 0.33492 0.10742 0.27334 0.0
C710 C 0.32104 0.12001 0.21704 0.0
H711 H 0.3597 0.08165 0.28284 0.0
H712 H 0.33316 0.10851 0.34498 0.0
C713 C 0.32387 0.11807 0.12417 0.0
C714 C 0.18746 0.08462 0.52428 0.0
C715 C 0.17131 0.06804 0.47144 0.0
H716 H 0.218 0.11463 0.5273 0.0
C717 C 0.17295 0.07032 0.37801 0.0
H718 H 0.18667 0.08339 0.59622 0.0
C719 C 0.19073 0.08835 0.3383 0.0
C720 C 0.2075 0.10431 0.39107 0.0
H721 H 0.16062 0.05795 0.33518 0.0
H722 H 0.19175 0.08931 0.26634 0.0
C723 C 0.20547 0.10245 0.48454 0.0
C724 C 0.18371 0.92534 0.62354 0.0
C725 C 0.18657 0.92347 0.71642 0.0
H726 H 0.16715 0.94217 0.51592 0.0
C727 C 0.17269 0.93609 0.7726 0.0
H728 H 0.19404 0.91569 0.57835 0.0
C729 C 0.15754 0.95151 0.73664 0.0
C730 C 0.15561 0.95431 0.64374 0.0
H731 H 0.17449 0.93505 0.84425 0.0
H732 H 0.1479 0.96185 0.78182 0.0
C733 C 0.16823 0.94043 0.58758 0.0
C734 C 0.33472 0.97335 0.87791 0.0
C735 C 0.33638 0.97541 0.97143 0.0
H736 H 0.31592 0.95456 0.76568 0.0
C737 C 0.32028 0.95866 0.02376 0.0
H738 H 0.34701 0.98586 0.83545 0.0
C739 C 0.30232 0.94088 0.98351 0.0
C740 C 0.30026 0.93922 0.89 0.0
H741 H 0.32108 0.95971 0.09574 0.0
H742 H 0.28984 0.92857 0.02597 0.0
C743 C 0.31698 0.95536 0.83766 0.0
C744 C 0.67374 0.93704 0.84352 0.0
C745 C 0.68756 0.92455 0.90046 0.0
H746 H 0.64888 0.9627 0.83283 0.0
C747 C 0.68457 0.92661 0.9932 0.0
H748 H 0.67563 0.93586 0.77195 0.0
C749 C 0.66897 0.94172 0.02826 0.0
C750 C 0.65639 0.95544 0.97132 0.0
H751 H 0.69484 0.91706 0.03894 0.0
H752 H 0.66776 0.94358 0.09983 0.0
C753 C 0.65849 0.95249 0.87858 0.0
C754 C 0.80352 0.94088 0.63528 0.0
C755 C 0.80147 0.93942 0.72879 0.0
H756 H 0.82225 0.95941 0.52272 0.0
C757 C 0.81829 0.95556 0.78085 0.0
H758 H 0.79098 0.92855 0.59301 0.0
C759 C 0.83611 0.97341 0.74024 0.0
C760 C 0.83771 0.9753 0.64666 0.0
H761 H 0.81723 0.9549 0.85283 0.0
H762 H 0.84844 0.98598 0.7824 0.0
C763 C 0.82152 0.95851 0.59472 0.0
C764 C 0.84848 0.09103 0.3768 0.0
C765 C 0.85148 0.08847 0.46931 0.0
H766 H 0.83088 0.1076 0.27135 0.0
C767 C 0.83972 0.10275 0.52705 0.0
H768 H 0.85718 0.08027 0.3304 0.0
C769 C 0.82417 0.11811 0.49299 0.0
C770 C 0.82049 0.11987 0.40049 0.0
H771 H 0.84156 0.10118 0.59851 0.0
H772 H 0.81451 0.1281 0.53928 0.0
C773 C 0.83341 0.10675 0.34273 0.0
C774 C 0.70494 0.10363 0.13422 0.0
C775 C 0.70692 0.10505 0.22781 0.0
H776 H 0.68637 0.08502 0.02126 0.0
C777 C 0.69019 0.08875 0.27952 0.0
H778 H 0.71743 0.11607 0.09221 0.0
C779 C 0.67253 0.07082 0.23856 0.0
C780 C 0.67099 0.06897 0.14495 0.0
H781 H 0.69118 0.08937 0.35152 0.0
H782 H 0.66024 0.05817 0.28054 0.0
C783 C 0.68708 0.0859 0.09327 0.0
C784 C 0.82362 0.61809 0.62484 0.0
C785 C 0.82076 0.62014 0.71765 0.0
H786 H 0.8402 0.60105 0.5178 0.0
C787 C 0.83462 0.60761 0.77427 0.0
H788 H 0.81331 0.62766 0.57933 0.0
C789 C 0.84977 0.59211 0.73883 0.0
C790 C 0.85172 0.58915 0.64604 0.0
H791 H 0.83283 0.60879 0.84588 0.0
H792 H 0.85941 0.58186 0.78435 0.0
C793 C 0.83911 0.60293 0.5894 0.0
C794 C 0.70495 0.60318 0.98374 0.0
C795 C 0.70705 0.6048 0.89023 0.0
H796 H 0.68616 0.58438 0.09588 0.0
C797 C 0.69035 0.58865 0.83781 0.0
H798 H 0.71741 0.61551 0.02627 0.0
C799 C 0.6726 0.57066 0.87798 0.0
C800 C 0.67092 0.56863 0.9715 0.0
H801 H 0.69144 0.58942 0.76584 0.0
H802 H 0.66035 0.55813 0.83546 0.0
C803 C 0.68698 0.58541 0.0239 0.0
C804 C 0.668 0.44102 0.0891 0.0
C805 C 0.65544 0.45496 0.14524 0.0
H806 H 0.6937 0.41616 0.07995 0.0
C807 C 0.65735 0.45216 0.23814 0.0
H808 H 0.66693 0.44276 0.01744 0.0
C809 C 0.67242 0.43666 0.27414 0.0
C810 C 0.68624 0.42397 0.218 0.0
H811 H 0.64775 0.46253 0.28329 0.0
H812 H 0.6742 0.43562 0.3458 0.0
C813 C 0.68341 0.42586 0.12511 0.0
C814 C 0.80192 0.44101 0.48538 0.0
C815 C 0.79987 0.43935 0.39186 0.0
H816 H 0.82071 0.45981 0.5976 0.0
C817 C 0.81663 0.45543 0.33952 0.0
H818 H 0.78941 0.42874 0.52785 0.0
C819 C 0.83442 0.47338 0.37976 0.0
C820 C 0.83606 0.47545 0.47328 0.0
H821 H 0.81558 0.45462 0.26754 0.0
H822 H 0.84674 0.48585 0.3373 0.0
C823 C 0.81992 0.45875 0.52562 0.0
C824 C 0.1571 0.45132 0.37386 0.0
C825 C 0.15527 0.45418 0.46675 0.0
H826 H 0.17393 0.43482 0.26614 0.0
C827 C 0.16797 0.44036 0.52287 0.0
H828 H 0.14738 0.46161 0.32873 0.0
C829 C 0.18344 0.42526 0.48681 0.0
C830 C 0.18619 0.42334 0.39389 0.0
H831 H 0.16697 0.44215 0.59452 0.0
H832 H 0.19383 0.41564 0.53191 0.0
C833 C 0.17223 0.4359 0.33781 0.0
C834 C 0.31658 0.4549 0.27039 0.0
C835 C 0.29965 0.43893 0.21822 0.0
H836 H 0.34682 0.48519 0.2724 0.0
C837 C 0.30152 0.44066 0.12468 0.0
H838 H 0.31569 0.45404 0.34238 0.0
C839 C 0.31952 0.45836 0.08428 0.0
C840 C 0.33584 0.47494 0.13652 0.0
H841 H 0.28887 0.42847 0.08234 0.0
H842 H 0.32018 0.45948 0.01231 0.0
C843 C 0.33436 0.47281 0.23003 0.0
C844 C 0.33437 0.60716 0.83671 0.0
C845 C 0.32065 0.61975 0.89363 0.0
H846 H 0.35903 0.58131 0.8261 0.0
C847 C 0.32368 0.61773 0.98636 0.0
H848 H 0.33244 0.60831 0.76514 0.0
C849 C 0.33917 0.60252 0.02147 0.0
C850 C 0.35161 0.58867 0.96457 0.0
H851 H 0.31348 0.62735 0.03208 0.0
H852 H 0.34038 0.60067 0.09304 0.0
C853 C 0.34952 0.59161 0.87182 0.0
C854 C 0.18684 0.58466 0.58804 0.0
C855 C 0.17083 0.56784 0.64041 0.0
H856 H 0.21719 0.61483 0.58574 0.0
C857 C 0.17255 0.56985 0.73393 0.0
H858 H 0.18599 0.58364 0.51606 0.0
C859 C 0.19027 0.58787 0.77413 0.0
C860 C 0.2069 0.60408 0.72174 0.0
H861 H 0.16033 0.55729 0.77642 0.0
H862 H 0.19138 0.58864 0.8461 0.0
C863 C 0.20477 0.60247 0.62824 0.0
C864 C 0.48483 1.00166 0.0636 0.0
C865 C 0.47918 0.02552 0.05898 0.0
H866 H 0.51338 0.97966 0.06462 0.0
C867 C 0.49838 0.04586 0.05103 0.0
H868 H 0.47023 0.98571 0.06868 0.0
C869 C 0.52294 0.04241 0.04857 0.0
C870 C 0.52858 0.01855 0.05325 0.0
H871 H 0.49438 0.06441 0.04756 0.0
H872 H 0.53753 0.05837 0.0436 0.0
C873 C 0.50938 0.99821 0.0611 0.0
C874 C 0.25997 0.28717 0.23206 0.0
C875 C 0.24941 0.2962 0.30746 0.0
H876 H 0.27238 0.25629 0.17124 0.0
C877 C 0.24314 0.28057 0.38082 0.0
H878 H 0.26533 0.29901 0.17524 0.0
C879 C 0.24726 0.25624 0.37867 0.0
C880 C 0.25781 0.2472 0.30327 0.0
H881 H 0.23486 0.28712 0.43951 0.0
H882 H 0.24189 0.24439 0.43548 0.0
C883 C 0.26409 0.26284 0.22992 0.0
C884 C 0.02337 0.04231 0.55429 0.0
C885 C 0.02866 0.01832 0.54957 0.0
H886 H 0.99523 0.0648 0.55369 0.0
C887 C 0.00927 0.99826 0.53879 0.0
H888 H 0.03813 0.05806 0.56131 0.0
C889 C 0.98487 1.00211 0.53428 0.0
C890 C 0.97955 0.02608 0.53996 0.0
H891 H 0.01302 0.97962 0.53493 0.0
H892 H 0.97011 0.98635 0.52746 0.0
C893 C 0.99897 0.04616 0.54972 0.0
C894 C 0.23316 0.75266 0.81478 0.0
C895 C 0.25699 0.74696 0.80972 0.0
H896 H 0.21121 0.78126 0.81572 0.0
C897 C 0.27735 0.76612 0.80113 0.0
H898 H 0.21718 0.73809 0.82032 0.0
C899 C 0.27394 0.79067 0.79832 0.0
C900 C 0.25011 0.79637 0.8033 0.0
H901 H 0.29589 0.76207 0.79731 0.0
H902 H 0.28992 0.80523 0.79274 0.0
C903 C 0.22975 0.77721 0.81195 0.0
C904 C 0.73367 0.75324 0.80001 0.0
C905 C 0.75751 0.74754 0.8051 0.0
H906 H 0.7117 0.78182 0.8 0.0
C907 C 0.77784 0.76669 0.81485 0.0
H908 H 0.71771 0.73869 0.79362 0.0
C909 C 0.77441 0.79122 0.81876 0.0
C910 C 0.75057 0.79692 0.81369 0.0
H911 H 0.79638 0.76264 0.81875 0.0
H912 H 0.79037 0.80578 0.82518 0.0
C913 C 0.73024 0.77778 0.80391 0.0
C914 C 0.77721 0.26674 0.30686 0.0
C915 C 0.75697 0.24748 0.31607 0.0
H916 H 0.78949 0.30587 0.29685 0.0
C917 C 0.73306 0.25299 0.32066 0.0
H918 H 0.7958 0.26283 0.30333 0.0
C919 C 0.72945 0.27747 0.31674 0.0
C920 C 0.74969 0.29673 0.30743 0.0
H921 H 0.71717 0.23834 0.32662 0.0
H922 H 0.71086 0.28138 0.32018 0.0
C923 C 0.77361 0.29122 0.30293 0.0
C924 C 0.98435 0.50127 0.56574 0.0
C925 C 0.97882 0.52517 0.56093 0.0
H926 H 0.01276 0.47909 0.56626 0.0
C927 C 0.9981 0.54542 0.55233 0.0
H928 H 0.96969 0.48538 0.57129 0.0
C929 C 0.0226 0.54183 0.54927 0.0
C930 C 0.02812 0.51792 0.55401 0.0
H931 H 0.99419 0.564 0.5487 0.0
H932 H 0.03726 0.55772 0.54367 0.0
C933 C 0.00885 0.49768 0.56267 0.0
C934 C 0.49789 0.54535 0.05843 0.0
C935 C 0.47875 0.52499 0.04971 0.0
H936 H 0.53701 0.55793 0.06742 0.0
C937 C 0.48445 0.50116 0.04499 0.0
H938 H 0.49384 0.56388 0.062 0.0
C939 C 0.50901 0.49776 0.04831 0.0
C940 C 0.52816 0.51812 0.05711 0.0
H941 H 0.46989 0.48518 0.03936 0.0
H942 H 0.51307 0.47923 0.0448 0.0
C943 C 0.52245 0.54195 0.06174 0.0
loop_
_geom_bond_atom_site_label_1
_geom_bond_atom_site_label_2
_geom_bond_distance
_geom_bond_site_symmetry_2
_ccdc_geom_bond_type
Co0 O3 1.970 1_556 S
Co0 N17 1.989 1_556 S
Co0 O25 1.967 . S
Co0 O32 1.920 . S
Co1 O4 1.966 . S
Co1 N10 2.022 . S
Co1 N18 1.993 . S
Co1 O26 1.941 1_545 S
C2 O3 1.258 . S
C2 O4 1.263 . S
O3 Co0 1.970 1_554 S
O3 C2 1.258 . S
O4 Co1 1.966 . S
O4 C2 1.263 . S
C5 O6 1.235 . S
C5 O32 1.289 . S
O6 C5 1.235 . S
C7 C9 1.400 . S
C7 N10 1.351 . S
C7 C12 1.501 . S
C8 C9 1.389 1_565 S
C8 N11 1.340 . S
C9 C7 1.400 . S
C9 C8 1.389 1_545 S
N10 Co1 2.022 . S
N10 C7 1.351 . S
N10 N11 1.365 1_545 S
N11 C8 1.340 . S
N11 N10 1.365 1_565 S
N11 H31 0.862 . S
C12 C7 1.501 . S
C12 H13 0.961 . S
C12 H14 0.961 . S
C12 H15 0.960 . S
H13 C12 0.961 . S
H14 C12 0.961 . S
H15 C12 0.960 . S
C16 N17 1.342 1_556 S
C16 C20 1.401 1_556 S
C16 C21 1.499 . S
N17 Co0 1.989 1_554 S
N17 C16 1.342 1_554 S
N17 N18 1.388 . S
N18 Co1 1.993 . S
N18 N17 1.388 . S
N18 C19 1.346 . S
C19 N18 1.346 . S
C19 C20 1.396 . S
C19 C29 1.510 . S
C20 C16 1.401 1_554 S
C20 C19 1.396 . S
C21 C16 1.499 . S
C21 H22 0.959 . S
C21 H23 0.960 . S
C21 H24 0.961 . S
H22 C21 0.959 . S
H23 C21 0.960 . S
H24 C21 0.961 . S
O25 Co0 1.967 . S
O25 C33 1.258 1_546 S
O26 Co1 1.941 1_565 S
O26 C33 1.266 . S
H27 C29 0.959 . S
H28 C29 0.961 . S
C29 C19 1.510 . S
C29 H27 0.959 . S
C29 H28 0.961 . S
C29 H30 0.960 . S
H30 C29 0.960 . S
H31 N11 0.862 . S
O32 Co0 1.920 . S
O32 C5 1.289 . S
C33 O25 1.258 1_564 S
C33 O26 1.266 . S
Co34 O37 1.970 . S
Co34 N51 1.989 . S
Co34 O59 1.967 . S
Co34 O66 1.920 . S
Co35 O38 1.966 . S
Co35 N44 2.022 . S
Co35 N52 1.993 . S
Co35 O60 1.941 . S
C36 O37 1.258 . S
C36 O38 1.263 . S
O37 Co34 1.970 . S
O37 C36 1.258 . S
O38 Co35 1.966 . S
O38 C36 1.263 . S
C39 O40 1.235 . S
C39 O66 1.289 . S
O40 C39 1.235 . S
C41 C43 1.400 . S
C41 N44 1.351 1_556 S
C41 C46 1.501 1_556 S
C42 C43 1.387 . S
C42 N45 1.341 1_556 S
C43 C41 1.400 . S
C43 C42 1.387 . S
N44 Co35 2.022 . S
N44 C41 1.351 1_554 S
N44 N45 1.365 . S
N45 C42 1.341 1_554 S
N45 N44 1.365 . S
N45 H65 0.862 . S
C46 C41 1.501 1_554 S
C46 H47 0.961 . S
C46 H48 0.961 1_554 S
C46 H49 0.960 1_554 S
H47 C46 0.961 . S
H48 C46 0.961 1_556 S
H49 C46 0.960 1_556 S
C50 N51 1.342 . S
C50 C54 1.401 . S
C50 C55 1.499 . S
N51 Co34 1.989 . S
N51 C50 1.342 . S
N51 N52 1.388 . S
N52 Co35 1.993 . S
N52 N51 1.388 . S
N52 C53 1.346 . S
C53 N52 1.346 . S
C53 C54 1.396 . S
C53 C63 1.510 . S
C54 C50 1.401 . S
C54 C53 1.396 . S
C55 C50 1.499 . S
C55 H56 0.959 . S
C55 H57 0.960 . S
C55 H58 0.961 . S
H56 C55 0.959 . S
H57 C55 0.960 . S
H58 C55 0.961 . S
O59 Co34 1.967 . S
O59 C67 1.258 . S
O60 Co35 1.941 . S
O60 C67 1.266 . S
H61 C63 0.959 . S
H62 C63 0.961 . S
C63 C53 1.510 . S
C63 H61 0.959 . S
C63 H62 0.961 . S
C63 H64 0.960 . S
H64 C63 0.960 . S
H65 N45 0.862 . S
O66 Co34 1.920 . S
O66 C39 1.289 . S
C67 O59 1.258 . S
C67 O60 1.266 . S
Co68 O71 1.970 1_545 S
Co68 N85 1.989 . S
Co68 O93 1.967 . S
Co68 O100 1.922 . S
Co69 O72 1.966 1_545 S
Co69 N78 2.022 . S
Co69 N86 1.993 . S
Co69 O94 1.941 . S
C70 O71 1.258 . S
C70 O72 1.263 . S
O71 Co68 1.970 1_565 S
O71 C70 1.258 . S
O72 Co69 1.966 1_565 S
O72 C70 1.263 . S
C73 O74 1.235 . S
C73 O100 1.263 1_565 S
O74 C73 1.235 . S
C75 C77 1.400 . S
C75 N78 1.351 . S
C75 C80 1.501 1_545 S
C76 C77 1.387 . S
C76 N79 1.341 . S
C77 C75 1.400 . S
C77 C76 1.387 . S
N78 Co69 2.022 . S
N78 C75 1.351 . S
N78 N79 1.365 . S
N79 C76 1.341 . S
N79 N78 1.365 . S
N79 H99 0.862 . S
C80 C75 1.501 1_565 S
C80 H81 0.961 . S
C80 H82 0.961 . S
C80 H83 0.960 . S
H81 C80 0.961 . S
H82 C80 0.961 . S
H83 C80 0.960 . S
C84 N85 1.342 . S
C84 C88 1.401 . S
C84 C89 1.499 . S
N85 Co68 1.989 . S
N85 C84 1.342 . S
N85 N86 1.388 . S
N86 Co69 1.993 . S
N86 N85 1.388 . S
N86 C87 1.346 . S
C87 N86 1.346 . S
C87 C88 1.396 . S
C87 C97 1.510 . S
C88 C84 1.401 . S
C88 C87 1.396 . S
C89 C84 1.499 . S
C89 H90 0.959 . S
C89 H91 0.960 1_545 S
C89 H92 0.961 . S
H90 C89 0.959 . S
H91 C89 0.960 1_565 S
H92 C89 0.961 . S
O93 Co68 1.967 . S
O93 C101 1.258 . S
O94 Co69 1.941 . S
O94 C101 1.266 . S
H95 C97 0.959 . S
H96 C97 0.961 . S
C97 C87 1.510 . S
C97 H95 0.959 . S
C97 H96 0.961 . S
C97 H98 0.960 . S
H98 C97 0.960 . S
H99 N79 0.862 . S
O100 Co68 1.922 . S
O100 C73 1.263 1_545 S
C101 O93 1.258 . S
C101 O94 1.266 . S
Co102 O105 1.970 . S
Co102 N119 1.989 . S
Co102 O127 1.967 . S
Co102 O134 1.920 1_556 S
Co103 O106 1.966 . S
Co103 N112 2.022 . S
Co103 N120 1.993 . S
Co103 O128 1.941 . S
C104 O105 1.258 . S
C104 O106 1.263 . S
O105 Co102 1.970 . S
O105 C104 1.258 . S
O106 Co103 1.966 . S
O106 C104 1.263 . S
C107 O108 1.235 . S
C107 O134 1.289 . S
O108 C107 1.235 . S
C109 C111 1.400 . S
C109 N112 1.351 . S
C109 C114 1.501 . S
C110 C111 1.387 . S
C110 N113 1.341 . S
C111 C109 1.400 . S
C111 C110 1.387 . S
N112 Co103 2.022 . S
N112 C109 1.351 . S
N112 N113 1.365 . S
N113 C110 1.341 . S
N113 N112 1.365 . S
N113 H133 0.862 . S
C114 C109 1.501 . S
C114 H115 0.961 . S
C114 H116 0.961 . S
C114 H117 0.960 . S
H115 C114 0.961 . S
H116 C114 0.961 . S
H117 C114 0.960 . S
C118 N119 1.342 . S
C118 C122 1.401 . S
C118 C123 1.499 . S
N119 Co102 1.989 . S
N119 C118 1.342 . S
N119 N120 1.388 . S
N120 Co103 1.993 . S
N120 N119 1.388 . S
N120 C121 1.346 . S
C121 N120 1.346 . S
C121 C122 1.396 . S
C121 C131 1.510 . S
C122 C118 1.401 . S
C122 C121 1.396 . S
C123 C118 1.499 . S
C123 H124 0.959 1_556 S
C123 H125 0.960 . S
C123 H126 0.961 . S
H124 C123 0.959 1_554 S
H125 C123 0.960 . S
H126 C123 0.961 . S
O127 Co102 1.967 . S
O127 C135 1.258 . S
O128 Co103 1.941 . S
O128 C135 1.266 . S
H129 C131 0.959 . S
H130 C131 0.961 . S
C131 C121 1.510 . S
C131 H129 0.959 . S
C131 H130 0.961 . S
C131 H132 0.960 . S
H132 C131 0.960 . S
H133 N113 0.862 . S
O134 Co102 1.920 1_554 S
O134 C107 1.289 . S
C135 O127 1.258 . S
C135 O128 1.266 . S
Co136 O139 1.970 1_545 S
Co136 N153 1.989 . S
Co136 O161 1.967 . S
Co136 O168 1.922 . S
Co137 O140 1.966 1_545 S
Co137 N146 2.022 . S
Co137 N154 1.993 1_556 S
Co137 O162 1.941 . S
C138 O139 1.258 . S
C138 O140 1.263 1_554 S
O139 Co136 1.970 1_565 S
O139 C138 1.258 . S
O140 Co137 1.966 1_565 S
O140 C138 1.263 1_556 S
C141 O142 1.235 . S
C141 O168 1.263 1_565 S
O142 C141 1.235 . S
C143 C145 1.400 . S
C143 N146 1.351 . S
C143 C148 1.501 1_545 S
C144 C145 1.387 . S
C144 N147 1.341 . S
C145 C143 1.400 . S
C145 C144 1.387 . S
N146 Co137 2.022 . S
N146 C143 1.351 . S
N146 N147 1.365 . S
N147 C144 1.341 . S
N147 N146 1.365 . S
N147 H167 0.862 . S
C148 C143 1.501 1_565 S
C148 H149 0.961 . S
C148 H150 0.961 . S
C148 H151 0.960 . S
H149 C148 0.961 . S
H150 C148 0.961 . S
H151 C148 0.960 . S
C152 N153 1.342 . S
C152 C156 1.401 . S
C152 C157 1.499 . S
N153 Co136 1.989 . S
N153 C152 1.342 . S
N153 N154 1.388 . S
N154 Co137 1.993 1_554 S
N154 N153 1.388 . S
N154 C155 1.346 1_554 S
C155 N154 1.346 1_556 S
C155 C156 1.396 1_556 S
C155 C165 1.510 . S
C156 C152 1.401 . S
C156 C155 1.396 1_554 S
C157 C152 1.499 . S
C157 H158 0.959 . S
C157 H159 0.960 1_545 S
C157 H160 0.961 . S
H158 C157 0.959 . S
H159 C157 0.960 1_565 S
H160 C157 0.961 . S
O161 Co136 1.967 . S
O161 C169 1.258 . S
O162 Co137 1.941 . S
O162 C169 1.266 1_556 S
H163 C165 0.959 . S
H164 C165 0.961 . S
C165 C155 1.510 . S
C165 H163 0.959 . S
C165 H164 0.961 . S
C165 H166 0.960 . S
H166 C165 0.960 . S
H167 N147 0.862 . S
O168 Co136 1.922 . S
O168 C141 1.263 1_545 S
C169 O161 1.258 . S
C169 O162 1.266 1_554 S
Co170 O173 1.970 . S
Co170 N187 1.989 . S
Co170 O195 1.967 . S
Co170 O202 1.920 . S
Co171 O174 1.966 . S
Co171 N180 2.022 1_556 S
Co171 N188 1.993 . S
Co171 O196 1.941 . S
C172 O173 1.258 . S
C172 O174 1.263 . S
O173 Co170 1.970 . S
O173 C172 1.258 . S
O174 Co171 1.966 . S
O174 C172 1.263 . S
C175 O176 1.235 . S
C175 O202 1.289 . S
O176 C175 1.235 . S
C177 C179 1.400 . S
C177 N180 1.351 . S
C177 C182 1.501 . S
C178 C179 1.387 . S
C178 N181 1.341 . S
C179 C177 1.400 . S
C179 C178 1.387 . S
N180 Co171 2.022 1_554 S
N180 C177 1.351 . S
N180 N181 1.365 . S
N181 C178 1.341 . S
N181 N180 1.365 . S
N181 H201 0.862 . S
C182 C177 1.501 . S
C182 H183 0.961 . S
C182 H184 0.961 . S
C182 H185 0.960 . S
H183 C182 0.961 . S
H184 C182 0.961 . S
H185 C182 0.960 . S
C186 N187 1.342 . S
C186 C190 1.401 . S
C186 C191 1.499 . S
N187 Co170 1.989 . S
N187 C186 1.342 . S
N187 N188 1.388 . S
N188 Co171 1.993 . S
N188 N187 1.388 . S
N188 C189 1.346 . S
C189 N188 1.346 . S
C189 C190 1.396 . S
C189 C199 1.510 . S
C190 C186 1.401 . S
C190 C189 1.396 . S
C191 C186 1.499 . S
C191 H192 0.959 . S
C191 H193 0.960 . S
C191 H194 0.961 . S
H192 C191 0.959 . S
H193 C191 0.960 . S
H194 C191 0.961 . S
O195 Co170 1.967 . S
O195 C203 1.258 . S
O196 Co171 1.941 . S
O196 C203 1.266 . S
H197 C199 0.961 . S
H198 C199 0.961 1_554 S
C199 C189 1.510 . S
C199 H197 0.961 . S
C199 H198 0.961 1_556 S
C199 H200 0.960 1_556 S
H200 C199 0.960 1_554 S
H201 N181 0.862 . S
O202 Co170 1.920 . S
O202 C175 1.289 . S
C203 O195 1.258 . S
C203 O196 1.266 . S
Co204 O207 1.970 . S
Co204 N221 1.989 . S
Co204 O229 1.967 . S
Co204 O236 1.920 . S
Co205 O208 1.966 . S
Co205 N214 2.022 . S
Co205 N222 1.993 . S
Co205 O230 1.941 1_545 S
C206 O207 1.258 . S
C206 O208 1.263 . S
O207 Co204 1.970 . S
O207 C206 1.258 . S
O208 Co205 1.966 . S
O208 C206 1.263 . S
C209 O210 1.235 . S
C209 O236 1.289 . S
O210 C209 1.235 . S
C211 C213 1.400 . S
C211 N214 1.351 . S
C211 C216 1.501 . S
C212 C213 1.388 1_565 S
C212 N215 1.341 . S
C213 C211 1.400 . S
C213 C212 1.388 1_545 S
N214 Co205 2.022 . S
N214 C211 1.351 . S
N214 N215 1.365 1_545 S
N215 C212 1.341 . S
N215 N214 1.365 1_565 S
N215 H235 0.862 . S
C216 C211 1.501 . S
C216 H217 0.961 . S
C216 H218 0.961 . S
C216 H219 0.960 . S
H217 C216 0.961 . S
H218 C216 0.961 . S
H219 C216 0.960 . S
C220 N221 1.342 . S
C220 C224 1.401 . S
C220 C225 1.499 . S
N221 Co204 1.989 . S
N221 C220 1.342 . S
N221 N222 1.388 . S
N222 Co205 1.993 . S
N222 N221 1.388 . S
N222 C223 1.346 . S
C223 N222 1.346 . S
C223 C224 1.396 . S
C223 C233 1.510 . S
C224 C220 1.401 . S
C224 C223 1.396 . S
C225 C220 1.499 . S
C225 H226 0.959 . S
C225 H227 0.960 . S
C225 H228 0.961 . S
H226 C225 0.959 . S
H227 C225 0.960 . S
H228 C225 0.961 . S
O229 Co204 1.967 . S
O229 C237 1.258 1_545 S
O230 Co205 1.941 1_565 S
O230 C237 1.266 . S
H231 C233 0.959 . S
H232 C233 0.961 . S
C233 C223 1.510 . S
C233 H231 0.959 . S
C233 H232 0.961 . S
C233 H234 0.960 . S
H234 C233 0.960 . S
H235 N215 0.862 . S
O236 Co204 1.920 . S
O236 C209 1.289 . S
C237 O229 1.258 1_565 S
C237 O230 1.266 . S
Co238 O241 1.970 . S
Co238 N255 1.989 . S
Co238 O263 1.967 . S
Co238 O270 1.920 . S
Co239 O242 1.966 . S
Co239 N248 2.022 . S
Co239 N256 1.993 . S
Co239 O264 1.941 . S
C240 O241 1.258 . S
C240 O242 1.263 . S
O241 Co238 1.970 . S
O241 C240 1.258 . S
O242 Co239 1.966 . S
O242 C240 1.263 . S
C243 O244 1.235 . S
C243 O270 1.289 . S
O244 C243 1.235 . S
C245 C247 1.400 . S
C245 N248 1.351 . S
C245 C250 1.501 . S
C246 C247 1.387 . S
C246 N249 1.341 . S
C247 C245 1.400 . S
C247 C246 1.387 . S
N248 Co239 2.022 . S
N248 C245 1.351 . S
N248 N249 1.365 . S
N249 C246 1.341 . S
N249 N248 1.365 . S
N249 H269 0.862 . S
C250 C245 1.501 . S
C250 H251 0.961 . S
C250 H252 0.961 . S
C250 H253 0.960 . S
H251 C250 0.961 . S
H252 C250 0.961 . S
H253 C250 0.960 . S
C254 N255 1.342 . S
C254 C258 1.401 . S
C254 C259 1.499 . S
N255 Co238 1.989 . S
N255 C254 1.342 . S
N255 N256 1.388 . S
N256 Co239 1.993 . S
N256 N255 1.388 . S
N256 C257 1.346 . S
C257 N256 1.346 . S
C257 C258 1.396 . S
C257 C267 1.510 . S
C258 C254 1.401 . S
C258 C257 1.396 . S
C259 C254 1.499 . S
C259 H260 0.959 . S
C259 H261 0.960 . S
C259 H262 0.961 . S
H260 C259 0.959 . S
H261 C259 0.960 . S
H262 C259 0.961 . S
O263 Co238 1.967 . S
O263 C271 1.258 . S
O264 Co239 1.941 . S
O264 C271 1.266 . S
H265 C267 0.959 . S
H266 C267 0.961 . S
C267 C257 1.510 . S
C267 H265 0.959 . S
C267 H266 0.961 . S
C267 H268 0.960 . S
H268 C267 0.960 . S
H269 N249 0.862 . S
O270 Co238 1.920 . S
O270 C243 1.289 . S
C271 O263 1.258 . S
C271 O264 1.266 . S
Co272 O275 1.970 . S
Co272 N289 1.989 . S
Co272 O297 1.967 . S
Co272 O304 1.920 . S
Co273 O276 1.966 . S
Co273 N282 2.022 . S
Co273 N290 1.993 . S
Co273 O298 1.941 . S
C274 O275 1.258 . S
C274 O276 1.263 . S
O275 Co272 1.970 . S
O275 C274 1.258 . S
O276 Co273 1.966 . S
O276 C274 1.263 . S
C277 O278 1.235 . S
C277 O304 1.289 . S
O278 C277 1.235 . S
C279 C281 1.400 . S
C279 N282 1.351 . S
C279 C284 1.501 . S
C280 C281 1.387 . S
C280 N283 1.341 . S
C281 C279 1.400 . S
C281 C280 1.387 . S
N282 Co273 2.022 . S
N282 C279 1.351 . S
N282 N283 1.365 . S
N283 C280 1.341 . S
N283 N282 1.365 . S
N283 H303 0.862 . S
C284 C279 1.501 . S
C284 H285 0.961 . S
C284 H286 0.961 . S
C284 H287 0.960 . S
H285 C284 0.961 . S
H286 C284 0.961 . S
H287 C284 0.960 . S
C288 N289 1.342 . S
C288 C292 1.401 . S
C288 C293 1.499 . S
N289 Co272 1.989 . S
N289 C288 1.342 . S
N289 N290 1.388 . S
N290 Co273 1.993 . S
N290 N289 1.388 . S
N290 C291 1.346 . S
C291 N290 1.346 . S
C291 C292 1.396 . S
C291 C301 1.510 . S
C292 C288 1.401 . S
C292 C291 1.396 . S
C293 C288 1.499 . S
C293 H294 0.959 . S
C293 H295 0.960 . S
C293 H296 0.961 . S
H294 C293 0.959 . S
H295 C293 0.960 . S
H296 C293 0.961 . S
O297 Co272 1.967 . S
O297 C305 1.258 . S
O298 Co273 1.941 . S
O298 C305 1.266 . S
H299 C301 0.959 . S
H300 C301 0.961 . S
C301 C291 1.510 . S
C301 H299 0.959 . S
C301 H300 0.961 . S
C301 H302 0.960 . S
H302 C301 0.960 . S
H303 N283 0.862 . S
O304 Co272 1.920 . S
O304 C277 1.289 . S
C305 O297 1.258 . S
C305 O298 1.266 . S
Co306 O309 1.970 . S
Co306 N323 1.989 . S
Co306 O331 1.967 . S
Co306 O338 1.920 1_556 S
Co307 O310 1.966 . S
Co307 N316 2.022 . S
Co307 N324 1.993 . S
Co307 O332 1.941 . S
C308 O309 1.258 . S
C308 O310 1.263 . S
O309 Co306 1.970 . S
O309 C308 1.258 . S
O310 Co307 1.966 . S
O310 C308 1.263 . S
C311 O312 1.235 . S
C311 O338 1.289 . S
O312 C311 1.235 . S
C313 C315 1.400 . S
C313 N316 1.351 . S
C313 C318 1.501 . S
C314 C315 1.387 . S
C314 N317 1.341 . S
C315 C313 1.400 . S
C315 C314 1.387 . S
N316 Co307 2.022 . S
N316 C313 1.351 . S
N316 N317 1.365 . S
N317 C314 1.341 . S
N317 N316 1.365 . S
N317 H337 0.862 . S
C318 C313 1.501 . S
C318 H319 0.961 . S
C318 H320 0.961 . S
C318 H321 0.960 . S
H319 C318 0.961 . S
H320 C318 0.961 . S
H321 C318 0.960 . S
C322 N323 1.342 . S
C322 C326 1.401 . S
C322 C327 1.499 . S
N323 Co306 1.989 . S
N323 C322 1.342 . S
N323 N324 1.388 . S
N324 Co307 1.993 . S
N324 N323 1.388 . S
N324 C325 1.346 . S
C325 N324 1.346 . S
C325 C326 1.396 . S
C325 C335 1.510 . S
C326 C322 1.401 . S
C326 C325 1.396 . S
C327 C322 1.499 . S
C327 H328 0.959 1_556 S
C327 H329 0.960 . S
C327 H330 0.961 . S
H328 C327 0.959 1_554 S
H329 C327 0.960 . S
H330 C327 0.961 . S
O331 Co306 1.967 . S
O331 C339 1.258 . S
O332 Co307 1.941 . S
O332 C339 1.266 . S
H333 C335 0.959 . S
H334 C335 0.961 . S
C335 C325 1.510 . S
C335 H333 0.959 . S
C335 H334 0.961 . S
C335 H336 0.960 . S
H336 C335 0.960 . S
H337 N317 0.862 . S
O338 Co306 1.920 1_554 S
O338 C311 1.289 . S
C339 O331 1.258 . S
C339 O332 1.266 . S
Co340 O343 1.970 1_556 S
Co340 N357 1.989 1_556 S
Co340 O365 1.967 . S
Co340 O372 1.920 . S
Co341 O344 1.966 . S
Co341 N350 2.022 . S
Co341 N358 1.993 . S
Co341 O366 1.941 . S
C342 O343 1.258 . S
C342 O344 1.263 . S
O343 Co340 1.970 1_554 S
O343 C342 1.258 . S
O344 Co341 1.966 . S
O344 C342 1.263 . S
C345 O346 1.235 . S
C345 O372 1.289 . S
O346 C345 1.235 . S
C347 C349 1.400 . S
C347 N350 1.351 . S
C347 C352 1.501 . S
C348 C349 1.387 . S
C348 N351 1.341 . S
C349 C347 1.400 . S
C349 C348 1.387 . S
N350 Co341 2.022 . S
N350 C347 1.351 . S
N350 N351 1.365 . S
N351 C348 1.341 . S
N351 N350 1.365 . S
N351 H371 0.862 . S
C352 C347 1.501 . S
C352 H353 0.961 . S
C352 H354 0.961 . S
C352 H355 0.960 . S
H353 C352 0.961 . S
H354 C352 0.961 . S
H355 C352 0.960 . S
C356 N357 1.342 1_556 S
C356 C360 1.401 1_556 S
C356 C361 1.499 . S
N357 Co340 1.989 1_554 S
N357 C356 1.342 1_554 S
N357 N358 1.388 . S
N358 Co341 1.993 . S
N358 N357 1.388 . S
N358 C359 1.346 . S
C359 N358 1.346 . S
C359 C360 1.396 . S
C359 C369 1.510 . S
C360 C356 1.401 1_554 S
C360 C359 1.396 . S
C361 C356 1.499 . S
C361 H362 0.959 . S
C361 H363 0.960 . S
C361 H364 0.961 . S
H362 C361 0.959 . S
H363 C361 0.960 . S
H364 C361 0.961 . S
O365 Co340 1.967 . S
O365 C373 1.258 1_556 S
O366 Co341 1.941 . S
O366 C373 1.266 . S
H367 C369 0.959 . S
H368 C369 0.961 . S
C369 C359 1.510 . S
C369 H367 0.959 . S
C369 H368 0.961 . S
C369 H370 0.960 . S
H370 C369 0.960 . S
H371 N351 0.862 . S
O372 Co340 1.920 . S
O372 C345 1.289 . S
C373 O365 1.258 1_554 S
C373 O366 1.266 . S
Co374 O377 1.970 . S
Co374 N391 1.989 . S
Co374 O399 1.967 . S
Co374 O406 1.920 . S
Co375 O378 1.966 . S
Co375 N384 2.022 . S
Co375 N392 1.993 . S
Co375 O400 1.941 . S
C376 O377 1.258 . S
C376 O378 1.263 . S
O377 Co374 1.970 . S
O377 C376 1.258 . S
O378 Co375 1.966 . S
O378 C376 1.263 . S
C379 O380 1.235 . S
C379 O406 1.289 . S
O380 C379 1.235 . S
C381 C383 1.400 . S
C381 N384 1.351 1_556 S
C381 C386 1.501 1_556 S
C382 C383 1.387 . S
C382 N385 1.341 1_556 S
C383 C381 1.400 . S
C383 C382 1.387 . S
N384 Co375 2.022 . S
N384 C381 1.351 1_554 S
N384 N385 1.365 . S
N385 C382 1.341 1_554 S
N385 N384 1.365 . S
N385 H405 0.862 . S
C386 C381 1.501 1_554 S
C386 H387 0.961 . S
C386 H388 0.961 1_554 S
C386 H389 0.960 1_554 S
H387 C386 0.961 . S
H388 C386 0.961 1_556 S
H389 C386 0.960 1_556 S
C390 N391 1.342 . S
C390 C394 1.401 . S
C390 C395 1.499 . S
N391 Co374 1.989 . S
N391 C390 1.342 . S
N391 N392 1.388 . S
N392 Co375 1.993 . S
N392 N391 1.388 . S
N392 C393 1.346 . S
C393 N392 1.346 . S
C393 C394 1.396 . S
C393 C403 1.510 . S
C394 C390 1.401 . S
C394 C393 1.396 . S
C395 C390 1.499 . S
C395 H396 0.959 . S
C395 H397 0.960 . S
C395 H398 0.961 . S
H396 C395 0.959 . S
H397 C395 0.960 . S
H398 C395 0.961 . S
O399 Co374 1.967 . S
O399 C407 1.258 . S
O400 Co375 1.941 . S
O400 C407 1.266 . S
H401 C403 0.959 . S
H402 C403 0.961 . S
C403 C393 1.510 . S
C403 H401 0.959 . S
C403 H402 0.961 . S
C403 H404 0.960 . S
H404 C403 0.960 . S
H405 N385 0.862 . S
O406 Co374 1.920 . S
O406 C379 1.289 . S
C407 O399 1.258 . S
C407 O400 1.266 . S
Co408 O411 1.970 . S
Co408 N425 1.989 . S
Co408 O433 1.967 . S
Co408 O440 1.920 . S
Co409 O412 1.966 . S
Co409 N418 2.022 . S
Co409 N426 1.993 . S
Co409 O434 1.941 . S
C410 O411 1.258 . S
C410 O412 1.263 . S
O411 Co408 1.970 . S
O411 C410 1.258 . S
O412 Co409 1.966 . S
O412 C410 1.263 . S
C413 O414 1.235 . S
C413 O440 1.289 . S
O414 C413 1.235 . S
C415 C417 1.400 . S
C415 N418 1.351 . S
C415 C420 1.501 . S
C416 C417 1.387 . S
C416 N419 1.341 . S
C417 C415 1.400 . S
C417 C416 1.387 . S
N418 Co409 2.022 . S
N418 C415 1.351 . S
N418 N419 1.365 . S
N419 C416 1.341 . S
N419 N418 1.365 . S
N419 H439 0.862 . S
C420 C415 1.501 . S
C420 H421 0.961 . S
C420 H422 0.961 . S
C420 H423 0.960 . S
H421 C420 0.961 . S
H422 C420 0.961 . S
H423 C420 0.960 . S
C424 N425 1.342 . S
C424 C428 1.401 . S
C424 C429 1.499 . S
N425 Co408 1.989 . S
N425 C424 1.342 . S
N425 N426 1.388 . S
N426 Co409 1.993 . S
N426 N425 1.388 . S
N426 C427 1.346 . S
C427 N426 1.346 . S
C427 C428 1.396 . S
C427 C437 1.510 . S
C428 C424 1.401 . S
C428 C427 1.396 . S
C429 C424 1.499 . S
C429 H430 0.959 . S
C429 H431 0.960 . S
C429 H432 0.961 . S
H430 C429 0.959 . S
H431 C429 0.960 . S
H432 C429 0.961 . S
O433 Co408 1.967 . S
O433 C441 1.258 . S
O434 Co409 1.941 . S
O434 C441 1.266 . S
H435 C437 0.959 . S
H436 C437 0.961 . S
C437 C427 1.510 . S
C437 H435 0.959 . S
C437 H436 0.961 . S
C437 H438 0.960 . S
H438 C437 0.960 . S
H439 N419 0.862 . S
O440 Co408 1.920 . S
O440 C413 1.289 . S
C441 O433 1.258 . S
C441 O434 1.266 . S
Co442 O445 1.970 . S
Co442 N459 1.989 . S
Co442 O467 1.967 . S
Co442 O474 1.920 . S
Co443 O446 1.966 . S
Co443 N452 2.022 . S
Co443 N460 1.993 . S
Co443 O468 1.941 . S
C444 O445 1.258 . S
C444 O446 1.263 . S
O445 Co442 1.970 . S
O445 C444 1.258 . S
O446 Co443 1.966 . S
O446 C444 1.263 . S
C447 O448 1.235 . S
C447 O474 1.289 . S
O448 C447 1.235 . S
C449 C451 1.400 . S
C449 N452 1.351 . S
C449 C454 1.501 . S
C450 C451 1.387 . S
C450 N453 1.341 . S
C451 C449 1.400 . S
C451 C450 1.387 . S
N452 Co443 2.022 . S
N452 C449 1.351 . S
N452 N453 1.365 . S
N453 C450 1.341 . S
N453 N452 1.365 . S
N453 H473 0.862 . S
C454 C449 1.501 . S
C454 H455 0.961 . S
C454 H456 0.961 . S
C454 H457 0.960 . S
H455 C454 0.961 . S
H456 C454 0.961 . S
H457 C454 0.960 . S
C458 N459 1.342 . S
C458 C462 1.401 . S
C458 C463 1.499 . S
N459 Co442 1.989 . S
N459 C458 1.342 . S
N459 N460 1.388 . S
N460 Co443 1.993 . S
N460 N459 1.388 . S
N460 C461 1.346 . S
C461 N460 1.346 . S
C461 C462 1.396 . S
C461 C471 1.510 . S
C462 C458 1.401 . S
C462 C461 1.396 . S
C463 C458 1.499 . S
C463 H464 0.959 . S
C463 H465 0.960 . S
C463 H466 0.961 . S
H464 C463 0.959 . S
H465 C463 0.960 . S
H466 C463 0.961 . S
O467 Co442 1.967 . S
O467 C475 1.258 . S
O468 Co443 1.941 . S
O468 C475 1.266 . S
H469 C471 0.959 . S
H470 C471 0.961 . S
C471 C461 1.510 . S
C471 H469 0.959 . S
C471 H470 0.961 . S
C471 H472 0.960 . S
H472 C471 0.960 . S
H473 N453 0.862 . S
O474 Co442 1.920 . S
O474 C447 1.289 . S
C475 O467 1.258 . S
C475 O468 1.266 . S
Co476 O479 1.970 . S
Co476 N493 1.989 . S
Co476 O501 1.967 . S
Co476 O508 1.920 . S
Co477 O480 1.966 . S
Co477 N486 2.022 . S
Co477 N494 1.993 1_556 S
Co477 O502 1.941 . S
C478 O479 1.258 . S
C478 O480 1.263 1_554 S
O479 Co476 1.970 . S
O479 C478 1.258 . S
O480 Co477 1.966 . S
O480 C478 1.263 1_556 S
C481 O482 1.235 . S
C481 O508 1.289 . S
O482 C481 1.235 . S
C483 C485 1.400 . S
C483 N486 1.351 . S
C483 C488 1.501 . S
C484 C485 1.387 . S
C484 N487 1.341 . S
C485 C483 1.400 . S
C485 C484 1.387 . S
N486 Co477 2.022 . S
N486 C483 1.351 . S
N486 N487 1.365 . S
N487 C484 1.341 . S
N487 N486 1.365 . S
N487 H507 0.862 . S
C488 C483 1.501 . S
C488 H489 0.961 . S
C488 H490 0.961 . S
C488 H491 0.960 . S
H489 C488 0.961 . S
H490 C488 0.961 . S
H491 C488 0.960 . S
C492 N493 1.342 . S
C492 C496 1.401 . S
C492 C497 1.499 . S
N493 Co476 1.989 . S
N493 C492 1.342 . S
N493 N494 1.388 . S
N494 Co477 1.993 1_554 S
N494 N493 1.388 . S
N494 C495 1.346 1_554 S
C495 N494 1.346 1_556 S
C495 C496 1.396 1_556 S
C495 C505 1.510 . S
C496 C492 1.401 . S
C496 C495 1.396 1_554 S
C497 C492 1.499 . S
C497 H498 0.959 . S
C497 H499 0.960 . S
C497 H500 0.961 . S
H498 C497 0.959 . S
H499 C497 0.960 . S
H500 C497 0.961 . S
O501 Co476 1.967 . S
O501 C509 1.258 . S
O502 Co477 1.941 . S
O502 C509 1.266 1_556 S
H503 C505 0.959 . S
H504 C505 0.961 . S
C505 C495 1.510 . S
C505 H503 0.959 . S
C505 H504 0.961 . S
C505 H506 0.960 . S
H506 C505 0.960 . S
H507 N487 0.862 . S
O508 Co476 1.920 . S
O508 C481 1.289 . S
C509 O501 1.258 . S
C509 O502 1.266 1_554 S
Co510 O513 1.970 . S
Co510 N527 1.989 . S
Co510 O535 1.967 . S
Co510 O542 1.920 . S
Co511 O514 1.966 . S
Co511 N520 2.022 1_556 S
Co511 N528 1.993 . S
Co511 O536 1.941 . S
C512 O513 1.258 . S
C512 O514 1.263 . S
O513 Co510 1.970 . S
O513 C512 1.258 . S
O514 Co511 1.966 . S
O514 C512 1.263 . S
C515 O516 1.235 . S
C515 O542 1.289 . S
O516 C515 1.235 . S
C517 C519 1.400 . S
C517 N520 1.351 . S
C517 C522 1.501 . S
C518 C519 1.387 . S
C518 N521 1.341 . S
C519 C517 1.400 . S
C519 C518 1.387 . S
N520 Co511 2.022 1_554 S
N520 C517 1.351 . S
N520 N521 1.365 . S
N521 C518 1.341 . S
N521 N520 1.365 . S
N521 H541 0.862 . S
C522 C517 1.501 . S
C522 H523 0.961 . S
C522 H524 0.961 . S
C522 H525 0.960 . S
H523 C522 0.961 . S
H524 C522 0.961 . S
H525 C522 0.960 . S
C526 N527 1.342 . S
C526 C530 1.401 . S
C526 C531 1.499 . S
N527 Co510 1.989 . S
N527 C526 1.342 . S
N527 N528 1.388 . S
N528 Co511 1.993 . S
N528 N527 1.388 . S
N528 C529 1.346 . S
C529 N528 1.346 . S
C529 C530 1.396 . S
C529 C539 1.510 . S
C530 C526 1.401 . S
C530 C529 1.396 . S
C531 C526 1.499 . S
C531 H532 0.959 . S
C531 H533 0.960 . S
C531 H534 0.961 . S
H532 C531 0.959 . S
H533 C531 0.960 . S
H534 C531 0.961 . S
O535 Co510 1.967 . S
O535 C543 1.258 . S
O536 Co511 1.941 . S
O536 C543 1.266 . S
H537 C539 0.961 . S
H538 C539 0.961 1_554 S
C539 C529 1.510 . S
C539 H537 0.961 . S
C539 H538 0.961 1_556 S
C539 H540 0.960 1_556 S
H540 C539 0.960 1_554 S
H541 N521 0.862 . S
O542 Co510 1.920 . S
O542 C515 1.289 . S
C543 O535 1.258 . S
C543 O536 1.266 . S
C544 C545 1.387 . S
C544 H548 0.950 . S
C544 C553 1.390 . S
C545 C544 1.387 . S
C545 C547 1.387 . S
H546 C553 0.950 . S
C547 C545 1.387 . S
C547 C549 1.390 . S
C547 H551 0.950 . S
H548 C544 0.950 . S
C549 C547 1.390 . S
C549 C550 1.387 . S
C549 H552 0.950 . S
C550 C549 1.387 . S
C550 C553 1.387 . S
H551 C547 0.950 . S
H552 C549 0.950 . S
C553 C544 1.390 . S
C553 H546 0.950 . S
C553 C550 1.387 . S
C554 C555 1.387 . S
C554 H558 0.950 . S
C554 C563 1.390 . S
C555 C554 1.387 . S
C555 C557 1.387 . S
H556 C563 0.950 . S
C557 C555 1.387 . S
C557 C559 1.390 . S
C557 H561 0.950 . S
H558 C554 0.950 . S
C559 C557 1.390 . S
C559 C560 1.387 . S
C559 H562 0.950 . S
C560 C559 1.387 . S
C560 C563 1.387 . S
H561 C557 0.950 . S
H562 C559 0.950 . S
C563 C554 1.390 . S
C563 H556 0.950 . S
C563 C560 1.387 . S
C564 C565 1.387 . S
C564 H568 0.950 . S
C564 C573 1.390 1_565 S
C565 C564 1.387 . S
C565 C567 1.387 . S
H566 C573 0.950 . S
C567 C565 1.387 . S
C567 C569 1.390 . S
C567 H571 0.950 . S
H568 C564 0.950 . S
C569 C567 1.390 . S
C569 C570 1.387 1_565 S
C569 H572 0.950 . S
C570 C569 1.387 1_545 S
C570 C573 1.387 . S
H571 C567 0.950 . S
H572 C569 0.950 . S
C573 C564 1.390 1_545 S
C573 H566 0.950 . S
C573 C570 1.387 . S
C574 C575 1.387 . S
C574 H578 0.950 . S
C574 C583 1.390 . S
C575 C574 1.387 . S
C575 C577 1.387 . S
H576 C583 0.950 . S
C577 C575 1.387 . S
C577 C579 1.390 . S
C577 H581 0.950 . S
H578 C574 0.950 . S
C579 C577 1.390 . S
C579 C580 1.387 . S
C579 H582 0.950 . S
C580 C579 1.387 . S
C580 C583 1.387 . S
H581 C577 0.950 . S
H582 C579 0.950 . S
C583 C574 1.390 . S
C583 H576 0.950 . S
C583 C580 1.387 . S
C584 C585 1.387 1_565 S
C584 H588 0.950 . S
C584 C593 1.390 . S
C585 C584 1.387 1_545 S
C585 C587 1.387 . S
H586 C593 0.950 . S
C587 C585 1.387 . S
C587 C589 1.390 1_545 S
C587 H591 0.950 . S
H588 C584 0.950 . S
C589 C587 1.390 1_565 S
C589 C590 1.387 . S
C589 H592 0.950 . S
C590 C589 1.387 . S
C590 C593 1.387 . S
H591 C587 0.950 . S
H592 C589 0.950 . S
C593 C584 1.390 . S
C593 H586 0.950 . S
C593 C590 1.387 . S
C594 C595 1.387 . S
C594 H598 0.950 . S
C594 C603 1.390 . S
C595 C594 1.387 . S
C595 C597 1.387 . S
H596 C603 0.950 . S
C597 C595 1.387 . S
C597 C599 1.390 . S
C597 H601 0.950 . S
H598 C594 0.950 . S
C599 C597 1.390 . S
C599 C600 1.387 . S
C599 H602 0.950 . S
C600 C599 1.387 . S
C600 C603 1.387 . S
H601 C597 0.950 . S
H602 C599 0.950 . S
C603 C594 1.390 . S
C603 H596 0.950 . S
C603 C600 1.387 . S
C604 C605 1.387 . S
C604 H608 0.950 . S
C604 C613 1.390 1_554 S
C605 C604 1.387 . S
C605 C607 1.387 . S
H606 C613 0.950 . S
C607 C605 1.387 . S
C607 C609 1.390 1_554 S
C607 H611 0.950 . S
H608 C604 0.950 . S
C609 C607 1.390 1_556 S
C609 C610 1.387 . S
C609 H612 0.950 . S
C610 C609 1.387 . S
C610 C613 1.387 . S
H611 C607 0.950 . S
H612 C609 0.950 . S
C613 C604 1.390 1_556 S
C613 H606 0.950 . S
C613 C610 1.387 . S
C614 C615 1.387 . S
C614 H618 0.950 . S
C614 C623 1.390 . S
C615 C614 1.387 . S
C615 C617 1.387 . S
H616 C623 0.950 . S
C617 C615 1.387 . S
C617 C619 1.390 . S
C617 H621 0.950 . S
H618 C614 0.950 . S
C619 C617 1.390 . S
C619 C620 1.387 . S
C619 H622 0.950 . S
C620 C619 1.387 . S
C620 C623 1.387 . S
H621 C617 0.950 . S
H622 C619 0.950 . S
C623 C614 1.390 . S
C623 H616 0.950 . S
C623 C620 1.387 . S
C624 C625 1.387 . S
C624 H628 0.950 . S
C624 C633 1.390 . S
C625 C624 1.387 . S
C625 C627 1.387 . S
H626 C633 0.950 . S
C627 C625 1.387 . S
C627 C629 1.390 . S
C627 H631 0.950 . S
H628 C624 0.950 . S
C629 C627 1.390 . S
C629 C630 1.387 . S
C629 H632 0.950 . S
C630 C629 1.387 . S
C630 C633 1.387 . S
H631 C627 0.950 . S
H632 C629 0.950 . S
C633 C624 1.390 . S
C633 H626 0.950 . S
C633 C630 1.387 . S
C634 C635 1.387 . S
C634 H638 0.950 . S
C634 C643 1.390 . S
C635 C634 1.387 . S
C635 C637 1.387 . S
H636 C643 0.950 . S
C637 C635 1.387 . S
C637 C639 1.390 . S
C637 H641 0.950 . S
H638 C634 0.950 . S
C639 C637 1.390 . S
C639 C640 1.387 . S
C639 H642 0.950 . S
C640 C639 1.387 . S
C640 C643 1.387 . S
H641 C637 0.950 . S
H642 C639 0.950 . S
C643 C634 1.390 . S
C643 H636 0.950 . S
C643 C640 1.387 . S
C644 C645 1.387 . S
C644 H648 0.950 . S
C644 C653 1.390 . S
C645 C644 1.387 . S
C645 C647 1.387 . S
H646 C653 0.950 . S
C647 C645 1.387 . S
C647 C649 1.390 . S
C647 H651 0.950 . S
H648 C644 0.950 . S
C649 C647 1.390 . S
C649 C650 1.387 . S
C649 H652 0.950 . S
C650 C649 1.387 . S
C650 C653 1.387 . S
H651 C647 0.950 . S
H652 C649 0.950 . S
C653 C644 1.390 . S
C653 H646 0.950 . S
C653 C650 1.387 . S
C654 C655 1.387 . S
C654 H658 0.950 . S
C654 C663 1.390 . S
C655 C654 1.387 . S
C655 C657 1.387 . S
H656 C663 0.950 . S
C657 C655 1.387 . S
C657 C659 1.390 . S
C657 H661 0.950 . S
H658 C654 0.950 . S
C659 C657 1.390 . S
C659 C660 1.387 . S
C659 H662 0.950 . S
C660 C659 1.387 . S
C660 C663 1.387 . S
H661 C657 0.950 . S
H662 C659 0.950 . S
C663 C654 1.390 . S
C663 H656 0.950 . S
C663 C660 1.387 . S
C664 C665 1.387 . S
C664 H668 0.950 . S
C664 C673 1.390 1_556 S
C665 C664 1.387 . S
C665 C667 1.387 . S
H666 C673 0.950 . S
C667 C665 1.387 . S
C667 C669 1.390 1_556 S
C667 H671 0.950 . S
H668 C664 0.950 . S
C669 C667 1.390 1_554 S
C669 C670 1.387 . S
C669 H672 0.950 . S
C670 C669 1.387 . S
C670 C673 1.387 . S
H671 C667 0.950 . S
H672 C669 0.950 . S
C673 C664 1.390 1_554 S
C673 H666 0.950 . S
C673 C670 1.387 . S
C674 C675 1.387 . S
C674 H678 0.950 . S
C674 C683 1.390 . S
C675 C674 1.387 . S
C675 C677 1.387 . S
H676 C683 0.950 . S
C677 C675 1.387 . S
C677 C679 1.390 . S
C677 H681 0.950 . S
H678 C674 0.950 . S
C679 C677 1.390 . S
C679 C680 1.387 . S
C679 H682 0.950 . S
C680 C679 1.387 . S
C680 C683 1.387 . S
H681 C677 0.950 . S
H682 C679 0.950 . S
C683 C674 1.390 . S
C683 H676 0.950 . S
C683 C680 1.387 . S
C684 C685 1.387 . S
C684 H688 0.950 . S
C684 C693 1.390 . S
C685 C684 1.387 . S
C685 C687 1.387 . S
H686 C693 0.950 . S
C687 C685 1.387 . S
C687 C689 1.390 . S
C687 H691 0.950 . S
H688 C684 0.950 . S
C689 C687 1.390 . S
C689 C690 1.387 . S
C689 H692 0.950 . S
C690 C689 1.387 . S
C690 C693 1.387 . S
H691 C687 0.950 . S
H692 C689 0.950 . S
C693 C684 1.390 . S
C693 H686 0.950 . S
C693 C690 1.387 . S
C694 C695 1.387 . S
C694 H698 0.950 . S
C694 C703 1.390 . S
C695 C694 1.387 . S
C695 C697 1.387 . S
H696 C703 0.950 . S
C697 C695 1.387 . S
C697 C699 1.390 . S
C697 H701 0.950 . S
H698 C694 0.950 . S
C699 C697 1.390 . S
C699 C700 1.387 . S
C699 H702 0.950 . S
C700 C699 1.387 . S
C700 C703 1.387 . S
H701 C697 0.950 . S
H702 C699 0.950 . S
C703 C694 1.390 . S
C703 H696 0.950 . S
C703 C700 1.387 . S
C704 C705 1.387 . S
C704 H708 0.950 . S
C704 C713 1.390 . S
C705 C704 1.387 . S
C705 C707 1.387 . S
H706 C713 0.950 . S
C707 C705 1.387 . S
C707 C709 1.390 . S
C707 H711 0.950 . S
H708 C704 0.950 . S
C709 C707 1.390 . S
C709 C710 1.387 . S
C709 H712 0.950 . S
C710 C709 1.387 . S
C710 C713 1.387 . S
H711 C707 0.950 . S
H712 C709 0.950 . S
C713 C704 1.390 . S
C713 H706 0.950 . S
C713 C710 1.387 . S
C714 C715 1.387 . S
C714 H718 0.950 . S
C714 C723 1.390 . S
C715 C714 1.387 . S
C715 C717 1.387 . S
H716 C723 0.950 . S
C717 C715 1.387 . S
C717 C719 1.390 . S
C717 H721 0.950 . S
H718 C714 0.950 . S
C719 C717 1.390 . S
C719 C720 1.387 . S
C719 H722 0.950 . S
C720 C719 1.387 . S
C720 C723 1.387 . S
H721 C717 0.950 . S
H722 C719 0.950 . S
C723 C714 1.390 . S
C723 H716 0.950 . S
C723 C720 1.387 . S
C724 C725 1.387 . S
C724 H728 0.950 . S
C724 C733 1.390 . S
C725 C724 1.387 . S
C725 C727 1.387 . S
H726 C733 0.950 . S
C727 C725 1.387 . S
C727 C729 1.390 . S
C727 H731 0.950 . S
H728 C724 0.950 . S
C729 C727 1.390 . S
C729 C730 1.387 . S
C729 H732 0.950 . S
C730 C729 1.387 . S
C730 C733 1.387 . S
H731 C727 0.950 . S
H732 C729 0.950 . S
C733 C724 1.390 . S
C733 H726 0.950 . S
C733 C730 1.387 . S
C734 C735 1.387 . S
C734 H738 0.950 . S
C734 C743 1.390 . S
C735 C734 1.387 . S
C735 C737 1.387 1_556 S
H736 C743 0.950 . S
C737 C735 1.387 1_554 S
C737 C739 1.390 1_554 S
C737 H741 0.950 . S
H738 C734 0.950 . S
C739 C737 1.390 1_556 S
C739 C740 1.387 . S
C739 H742 0.950 . S
C740 C739 1.387 . S
C740 C743 1.387 . S
H741 C737 0.950 . S
H742 C739 0.950 . S
C743 C734 1.390 . S
C743 H736 0.950 . S
C743 C740 1.387 . S
C744 C745 1.387 . S
C744 H748 0.950 . S
C744 C753 1.390 . S
C745 C744 1.387 . S
C745 C747 1.387 . S
H746 C753 0.950 . S
C747 C745 1.387 . S
C747 C749 1.390 1_556 S
C747 H751 0.950 . S
H748 C744 0.950 . S
C749 C747 1.390 1_554 S
C749 C750 1.387 1_554 S
C749 H752 0.950 . S
C750 C749 1.387 1_556 S
C750 C753 1.387 . S
H751 C747 0.950 . S
H752 C749 0.950 . S
C753 C744 1.390 . S
C753 H746 0.950 . S
C753 C750 1.387 . S
C754 C755 1.387 . S
C754 H758 0.950 . S
C754 C763 1.390 . S
C755 C754 1.387 . S
C755 C757 1.387 . S
H756 C763 0.950 . S
C757 C755 1.387 . S
C757 C759 1.390 . S
C757 H761 0.950 . S
H758 C754 0.950 . S
C759 C757 1.390 . S
C759 C760 1.387 . S
C759 H762 0.950 . S
C760 C759 1.387 . S
C760 C763 1.387 . S
H761 C757 0.950 . S
H762 C759 0.950 . S
C763 C754 1.390 . S
C763 H756 0.950 . S
C763 C760 1.387 . S
C764 C765 1.387 . S
C764 H768 0.950 . S
C764 C773 1.390 . S
C765 C764 1.387 . S
C765 C767 1.387 . S
H766 C773 0.950 . S
C767 C765 1.387 . S
C767 C769 1.390 . S
C767 H771 0.950 . S
H768 C764 0.950 . S
C769 C767 1.390 . S
C769 C770 1.387 . S
C769 H772 0.950 . S
C770 C769 1.387 . S
C770 C773 1.387 . S
H771 C767 0.950 . S
H772 C769 0.950 . S
C773 C764 1.390 . S
C773 H766 0.950 . S
C773 C770 1.387 . S
C774 C775 1.387 . S
C774 H778 0.950 . S
C774 C783 1.390 . S
C775 C774 1.387 . S
C775 C777 1.387 . S
H776 C783 0.950 . S
C777 C775 1.387 . S
C777 C779 1.390 . S
C777 H781 0.950 . S
H778 C774 0.950 . S
C779 C777 1.390 . S
C779 C780 1.387 . S
C779 H782 0.950 . S
C780 C779 1.387 . S
C780 C783 1.387 . S
H781 C777 0.950 . S
H782 C779 0.950 . S
C783 C774 1.390 . S
C783 H776 0.950 . S
C783 C780 1.387 . S
C784 C785 1.387 . S
C784 H788 0.950 . S
C784 C793 1.390 . S
C785 C784 1.387 . S
C785 C787 1.387 . S
H786 C793 0.950 . S
C787 C785 1.387 . S
C787 C789 1.390 . S
C787 H791 0.950 . S
H788 C784 0.950 . S
C789 C787 1.390 . S
C789 C790 1.387 . S
C789 H792 0.950 . S
C790 C789 1.387 . S
C790 C793 1.387 . S
H791 C787 0.950 . S
H792 C789 0.950 . S
C793 C784 1.390 . S
C793 H786 0.950 . S
C793 C790 1.387 . S
C794 C795 1.387 . S
C794 H798 0.950 . S
C794 C803 1.390 1_556 S
C795 C794 1.387 . S
C795 C797 1.387 . S
H796 C803 0.950 . S
C797 C795 1.387 . S
C797 C799 1.390 . S
C797 H801 0.950 . S
H798 C794 0.950 . S
C799 C797 1.390 . S
C799 C800 1.387 . S
C799 H802 0.950 . S
C800 C799 1.387 . S
C800 C803 1.387 1_556 S
H801 C797 0.950 . S
H802 C799 0.950 . S
C803 C794 1.390 1_554 S
C803 H796 0.950 . S
C803 C800 1.387 1_554 S
C804 C805 1.387 . S
C804 H808 0.950 . S
C804 C813 1.390 . S
C805 C804 1.387 . S
C805 C807 1.387 . S
H806 C813 0.950 . S
C807 C805 1.387 . S
C807 C809 1.390 . S
C807 H811 0.950 . S
H808 C804 0.950 . S
C809 C807 1.390 . S
C809 C810 1.387 . S
C809 H812 0.950 . S
C810 C809 1.387 . S
C810 C813 1.387 . S
H811 C807 0.950 . S
H812 C809 0.950 . S
C813 C804 1.390 . S
C813 H806 0.950 . S
C813 C810 1.387 . S
C814 C815 1.387 . S
C814 H818 0.950 . S
C814 C823 1.390 . S
C815 C814 1.387 . S
C815 C817 1.387 . S
H816 C823 0.950 . S
C817 C815 1.387 . S
C817 C819 1.390 . S
C817 H821 0.950 . S
H818 C814 0.950 . S
C819 C817 1.390 . S
C819 C820 1.387 . S
C819 H822 0.950 . S
C820 C819 1.387 . S
C820 C823 1.387 . S
H821 C817 0.950 . S
H822 C819 0.950 . S
C823 C814 1.390 . S
C823 H816 0.950 . S
C823 C820 1.387 . S
C824 C825 1.387 . S
C824 H828 0.950 . S
C824 C833 1.390 . S
C825 C824 1.387 . S
C825 C827 1.387 . S
H826 C833 0.950 . S
C827 C825 1.387 . S
C827 C829 1.390 . S
C827 H831 0.950 . S
H828 C824 0.950 . S
C829 C827 1.390 . S
C829 C830 1.387 . S
C829 H832 0.950 . S
C830 C829 1.387 . S
C830 C833 1.387 . S
H831 C827 0.950 . S
H832 C829 0.950 . S
C833 C824 1.390 . S
C833 H826 0.950 . S
C833 C830 1.387 . S
C834 C835 1.387 . S
C834 H838 0.950 . S
C834 C843 1.390 . S
C835 C834 1.387 . S
C835 C837 1.387 . S
H836 C843 0.950 . S
C837 C835 1.387 . S
C837 C839 1.390 . S
C837 H841 0.950 . S
H838 C834 0.950 . S
C839 C837 1.390 . S
C839 C840 1.387 . S
C839 H842 0.950 . S
C840 C839 1.387 . S
C840 C843 1.387 . S
H841 C837 0.950 . S
H842 C839 0.950 . S
C843 C834 1.390 . S
C843 H836 0.950 . S
C843 C840 1.387 . S
C844 C845 1.387 . S
C844 H848 0.950 . S
C844 C853 1.390 . S
C845 C844 1.387 . S
C845 C847 1.387 . S
H846 C853 0.950 . S
C847 C845 1.387 . S
C847 C849 1.390 1_556 S
C847 H851 0.950 . S
H848 C844 0.950 . S
C849 C847 1.390 1_554 S
C849 C850 1.387 1_554 S
C849 H852 0.950 . S
C850 C849 1.387 1_556 S
C850 C853 1.387 . S
H851 C847 0.950 . S
H852 C849 0.950 . S
C853 C844 1.390 . S
C853 H846 0.950 . S
C853 C850 1.387 . S
C854 C855 1.387 . S
C854 H858 0.950 . S
C854 C863 1.390 . S
C855 C854 1.387 . S
C855 C857 1.387 . S
H856 C863 0.950 . S
C857 C855 1.387 . S
C857 C859 1.390 . S
C857 H861 0.950 . S
H858 C854 0.950 . S
C859 C857 1.390 . S
C859 C860 1.387 . S
C859 H862 0.950 . S
C860 C859 1.387 . S
C860 C863 1.387 . S
H861 C857 0.950 . S
H862 C859 0.950 . S
C863 C854 1.390 . S
C863 H856 0.950 . S
C863 C860 1.387 . S
C864 C865 1.387 . S
C864 H868 0.950 . S
C864 C873 1.390 . S
C865 C864 1.387 . S
C865 C867 1.387 1_554 S
H866 C873 0.950 . S
C867 C865 1.387 1_556 S
C867 C869 1.390 . S
C867 H871 0.950 . S
H868 C864 0.950 . S
C869 C867 1.390 . S
C869 C870 1.387 1_556 S
C869 H872 0.950 . S
C870 C869 1.387 1_554 S
C870 C873 1.387 . S
H871 C867 0.950 . S
H872 C869 0.950 . S
C873 C864 1.390 . S
C873 H866 0.950 . S
C873 C870 1.387 . S
C874 C875 1.387 . S
C874 H878 0.950 . S
C874 C883 1.390 . S
C875 C874 1.387 . S
C875 C877 1.387 . S
H876 C883 0.950 . S
C877 C875 1.387 . S
C877 C879 1.390 . S
C877 H881 0.950 . S
H878 C874 0.950 . S
C879 C877 1.390 . S
C879 C880 1.387 . S
C879 H882 0.950 . S
C880 C879 1.387 . S
C880 C883 1.387 . S
H881 C877 0.950 . S
H882 C879 0.950 . S
C883 C874 1.390 . S
C883 H876 0.950 . S
C883 C880 1.387 . S
C884 C885 1.387 . S
C884 H888 0.950 . S
C884 C893 1.390 1_455 S
C885 C884 1.387 . S
C885 C887 1.387 . S
H886 C893 0.950 . S
C887 C885 1.387 . S
C887 C889 1.390 1_455 S
C887 H891 0.950 . S
H888 C884 0.950 . S
C889 C887 1.390 1_655 S
C889 C890 1.387 . S
C889 H892 0.950 . S
C890 C889 1.387 . S
C890 C893 1.387 . S
H891 C887 0.950 . S
H892 C889 0.950 . S
C893 C884 1.390 1_655 S
C893 H886 0.950 . S
C893 C890 1.387 . S
C894 C895 1.387 . S
C894 H898 0.950 . S
C894 C903 1.390 . S
C895 C894 1.387 . S
C895 C897 1.387 . S
H896 C903 0.950 . S
C897 C895 1.387 . S
C897 C899 1.390 . S
C897 H901 0.950 . S
H898 C894 0.950 . S
C899 C897 1.390 . S
C899 C900 1.387 . S
C899 H902 0.950 . S
C900 C899 1.387 . S
C900 C903 1.387 . S
H901 C897 0.950 . S
H902 C899 0.950 . S
C903 C894 1.390 . S
C903 H896 0.950 . S
C903 C900 1.387 . S
C904 C905 1.387 . S
C904 H908 0.950 . S
C904 C913 1.390 . S
C905 C904 1.387 . S
C905 C907 1.387 . S
H906 C913 0.950 . S
C907 C905 1.387 . S
C907 C909 1.390 . S
C907 H911 0.950 . S
H908 C904 0.950 . S
C909 C907 1.390 . S
C909 C910 1.387 . S
C909 H912 0.950 . S
C910 C909 1.387 . S
C910 C913 1.387 . S
H911 C907 0.950 . S
H912 C909 0.950 . S
C913 C904 1.390 . S
C913 H906 0.950 . S
C913 C910 1.387 . S
C914 C915 1.387 . S
C914 H918 0.950 . S
C914 C923 1.390 . S
C915 C914 1.387 . S
C915 C917 1.387 . S
H916 C923 0.950 . S
C917 C915 1.387 . S
C917 C919 1.390 . S
C917 H921 0.950 . S
H918 C914 0.950 . S
C919 C917 1.390 . S
C919 C920 1.387 . S
C919 H922 0.950 . S
C920 C919 1.387 . S
C920 C923 1.387 . S
H921 C917 0.950 . S
H922 C919 0.950 . S
C923 C914 1.390 . S
C923 H916 0.950 . S
C923 C920 1.387 . S
C924 C925 1.387 . S
C924 H928 0.950 . S
C924 C933 1.390 1_655 S
C925 C924 1.387 . S
C925 C927 1.387 . S
H926 C933 0.950 . S
C927 C925 1.387 . S
C927 C929 1.390 1_655 S
C927 H931 0.950 . S
H928 C924 0.950 . S
C929 C927 1.390 1_455 S
C929 C930 1.387 . S
C929 H932 0.950 . S
C930 C929 1.387 . S
C930 C933 1.387 . S
H931 C927 0.950 . S
H932 C929 0.950 . S
C933 C924 1.390 1_455 S
C933 H926 0.950 . S
C933 C930 1.387 . S
C934 C935 1.387 . S
C934 H938 0.950 . S
C934 C943 1.390 . S
C935 C934 1.387 . S
C935 C937 1.387 1_554 S
H936 C943 0.950 . S
C937 C935 1.387 1_556 S
C937 C939 1.390 . S
C937 H941 0.950 . S
H938 C934 0.950 . S
C939 C937 1.390 . S
C939 C940 1.387 1_556 S
C939 H942 0.950 . S
C940 C939 1.387 1_554 S
C940 C943 1.387 . S
H941 C937 0.950 . S
H942 C939 0.950 . S
C943 C934 1.390 . S
C943 H936 0.950 . S
C943 C940 1.387 . S
C545 C5 1.414 . S
C550 C9 1.426 . S
C555 C43 1.425 . S
C560 C39 1.414 . S
C565 C73 1.412 . S
C570 C77 1.426 1_554 S
C575 C111 1.426 . S
C580 C107 1.412 . S
C585 C145 1.425 . S
C590 C141 1.414 . S
C595 C175 1.412 . S
C600 C179 1.426 . S
C605 C213 1.427 . S
C610 C209 1.412 . S
C615 C247 1.426 . S
C620 C243 1.412 1_556 S
C625 C277 1.414 . S
C630 C281 1.425 1_554 S
C635 C315 1.426 . S
C640 C311 1.412 . S
C645 C345 1.412 . S
C650 C349 1.426 . S
C655 C379 1.414 . S
C660 C383 1.425 . S
C665 C413 1.412 . S
C670 C417 1.426 . S
C675 C447 1.412 1_556 S
C680 C451 1.426 . S
C685 C485 1.426 . S
C690 C481 1.412 . S
C695 C519 1.425 . S
C700 C515 1.414 . S
C705 C2 1.668 . S
C710 C36 1.667 . S
C715 C101 1.610 . S
C720 C67 1.610 . S
C725 C104 1.666 . S
C730 C70 1.666 . S
C735 C33 1.611 1_556 S
C740 C135 1.612 . S
C745 C172 1.667 . S
C750 C138 1.667 1_556 S
C755 C203 1.611 . S
C760 C237 1.611 . S
C765 C206 1.667 . S
C770 C240 1.667 . S
C775 C271 1.612 . S
C780 C169 1.611 . S
C785 C308 1.667 . S
C790 C274 1.667 . S
C795 C339 1.610 . S
C800 C373 1.610 1_556 S
C805 C342 1.666 . S
C810 C376 1.666 . S
C815 C407 1.610 . S
C820 C305 1.610 . S
C825 C410 1.667 . S
C830 C444 1.667 . S
C835 C475 1.610 . S
C840 C509 1.610 . S
C845 C512 1.666 . S
C850 C478 1.667 1_556 S
C855 C441 1.612 . S
C860 C543 1.612 . S
C865 C20 1.516 . S
C870 C156 1.516 . S
C875 C462 1.517 . S
C880 C54 1.517 . S
C885 C88 1.517 . S
C890 C224 1.517 . S
C895 C530 1.518 . S
C900 C122 1.518 . S
C905 C326 1.517 . S
C910 C190 1.517 . S
C915 C258 1.517 . S
C920 C394 1.517 . S
C925 C292 1.517 . S
C930 C428 1.517 . S
C935 C496 1.517 . S
C940 C360 1.517 . S
