# Generated by pormake.
# Topology wme, (6)-cn, num edge types: 1
# Building blocks:
#     Node 0, Type 0, BuildingBlock: KUMJIN_clean_sbu_0, # of connection points: 6
#     Node 1, Type 0, BuildingBlock: KUMJIN_clean_sbu_0, # of connection points: 6
#     Node 2, Type 0, BuildingBlock: KUMJIN_clean_sbu_0, # of connection points: 6
#     Node 3, Type 0, BuildingBlock: KUMJIN_clean_sbu_0, # of connection points: 6
#     Node 4, Type 0, BuildingBlock: KUMJIN_clean_sbu_0, # of connection points: 6
#     Node 5, Type 0, BuildingBlock: KUMJIN_clean_sbu_0, # of connection points: 6
#     Node 6, Type 0, BuildingBlock: KUMJIN_clean_sbu_0, # of connection points: 6
#     Node 7, Type 0, BuildingBlock: KUMJIN_clean_sbu_0, # of connection points: 6
#     Node 8, Type 0, BuildingBlock: KUMJIN_clean_sbu_0, # of connection points: 6
#     Node 9, Type 0, BuildingBlock: KUMJIN_clean_sbu_0, # of connection points: 6
#     Node 10, Type 0, BuildingBlock: KUMJIN_clean_sbu_0, # of connection points: 6
#     Node 11, Type 0, BuildingBlock: KUMJIN_clean_sbu_0, # of connection points: 6
#     Edge 12, Type (0, 0), None
#     Edge 13, Type (0, 0), None
#     Edge 14, Type (0, 0), None
#     Edge 15, Type (0, 0), None
#     Edge 16, Type (0, 0), None
#     Edge 17, Type (0, 0), None
#     Edge 18, Type (0, 0), None
#     Edge 19, Type (0, 0), None
#     Edge 20, Type (0, 0), None
#     Edge 21, Type (0, 0), None
#     Edge 22, Type (0, 0), None
#     Edge 23, Type (0, 0), None
#     Edge 24, Type (0, 0), None
#     Edge 25, Type (0, 0), None
#     Edge 26, Type (0, 0), None
#     Edge 27, Type (0, 0), None
#     Edge 28, Type (0, 0), None
#     Edge 29, Type (0, 0), None
#     Edge 30, Type (0, 0), None
#     Edge 31, Type (0, 0), None
#     Edge 32, Type (0, 0), None
#     Edge 33, Type (0, 0), None
#     Edge 34, Type (0, 0), None
#     Edge 35, Type (0, 0), None
#     Edge 36, Type (0, 0), None
#     Edge 37, Type (0, 0), None
#     Edge 38, Type (0, 0), None
#     Edge 39, Type (0, 0), None
#     Edge 40, Type (0, 0), None
#     Edge 41, Type (0, 0), None
#     Edge 42, Type (0, 0), None
#     Edge 43, Type (0, 0), None
#     Edge 44, Type (0, 0), None
#     Edge 45, Type (0, 0), None
#     Edge 46, Type (0, 0), None
#     Edge 47, Type (0, 0), None
# Relax obj value: 0.087
# Max RMSD: 0.245
# Mean RMSD: 0.245
data_MOF--net-wme--node1-KUMJIN_clean_sbu_0--edge1-none
_symmetry_space_group_name_H-M    P1
_symmetry_Int_Tables_number       1
_symmetry_cell_setting            triclinic
loop_
_symmetry_equiv_pos_as_xyz
'x, y, z'
_cell_length_a     22.461212
_cell_length_b     22.468545
_cell_length_c     23.971295
_cell_angle_alpha  90.002636
_cell_angle_beta   89.975662
_cell_angle_gamma 120.0048
loop_
_atom_site_label
_atom_site_type_symbol
_atom_site_fract_x
_atom_site_fract_y
_atom_site_fract_z
_atom_type_partial_charge
Eu0 Eu 0.14878 0.36915 0.04854 0.0
C1 C 0.39693 0.37372 0.17667 0.0
C2 C 0.48082 0.36306 0.12178 0.0
C3 C 0.5121 0.41356 0.21187 0.0
C4 C 0.41265 0.34923 0.13029 0.0
C5 C 0.45031 0.41519 0.2137 0.0
C6 C 0.52561 0.38273 0.16704 0.0
C7 C 0.39099 0.47736 0.23332 0.0
N8 N 0.34026 0.38022 0.17096 0.0
C9 C 0.33987 0.43541 0.19573 0.0
C10 C 0.44586 0.46664 0.24269 0.0
Eu11 Eu 0.2546 0.29468 0.10781 0.0
N12 N 0.37335 0.34587 0.08696 0.0
C13 C 0.40546 0.38263 0.04093 0.0
C14 C 0.50872 0.3826 0.06846 0.0
C15 C 0.47348 0.39999 0.03002 0.0
H16 H 0.3007 0.44825 0.18622 0.0
H17 H 0.49996 0.43002 -0.00602 0.0
H18 H 0.57714 0.3908 0.16222 0.0
H19 H 0.39046 0.52091 0.25203 0.0
H20 H 0.37768 0.39795 0.01408 0.0
H21 H 0.90193 0.18861 0.11391 0.0
H22 H 0.56219 0.3986 0.0606 0.0
H23 H 0.16467 0.41369 0.83981 0.0
H24 H 0.02996 0.28923 0.14967 0.0
H25 H 0.13178 0.50517 0.81731 0.0
H26 H 0.55395 0.445 0.23949 0.0
H27 H 0.82716 0.19726 0.03508 0.0
H28 H 0.8643 0.31492 -0.00426 0.0
H29 H 0.48859 0.50407 0.26678 0.0
H30 H 0.95031 0.42814 0.92884 0.0
N31 N 0.04134 0.37182 0.08106 0.0
C32 C 1.0122 0.2941 0.10939 0.0
C33 C 0.8816 0.23309 0.03059 0.0
C34 C 0.90244 0.31329 -0.00392 0.0
C35 C 0.93269 0.22479 0.08356 0.0
C36 C 0.97795 0.38239 0.01006 0.0
H37 H 0.02469 0.51059 0.85596 0.0
N38 N 0.04657 0.32418 0.92948 0.0
C39 C 0.09477 0.46238 0.84118 0.0
C40 C 0.97284 0.34565 0.94907 0.0
C41 C 0.116 0.40343 0.85925 0.0
C42 C 0.029 0.46669 0.86836 0.0
C43 C 0.97056 0.41483 0.9202 0.0
O44 O 0.21364 0.48095 0.06215 0.0
O45 O 0.26125 0.38349 0.05904 0.0
O46 O 0.23179 0.31772 0.18847 0.0
O47 O 0.14826 0.34237 0.15393 0.0
O48 O 0.25262 0.46558 0.06206 0.0
O49 O 0.13062 0.43695 0.11431 0.0
O50 O 0.27006 0.209 0.09491 0.0
O51 O 0.14694 0.28178 0.09165 0.0
O52 O 0.21708 0.31732 -0.004 0.0
O53 O 0.28081 0.26808 0.03146 0.0
O54 O 0.15848 0.20329 0.0688 0.0
O55 O 0.23215 0.22083 0.17567 0.0
C56 C 0.29844 0.44752 0.07348 0.0
C57 C 0.19841 0.57481 0.09699 0.0
C58 C 0.16851 0.66749 0.06268 0.0
C59 C 0.16011 0.61259 0.10318 0.0
C60 C 0.20645 0.67077 0.01537 0.0
C61 C 0.25753 0.61522 0.06698 0.0
C62 C 0.2566 0.65251 0.02019 0.0
C63 C 0.18807 0.33758 0.19784 0.0
C64 C 0.1859 0.49631 0.10254 0.0
C65 C 0.91874 0.4254 0.95535 0.0
C66 C 0.87911 0.36671 -0.00523 0.0
C67 C 0.11209 0.21997 0.07548 0.0
C68 C 0.20511 0.10709 0.14741 0.0
C69 C 0.17733 0.05892 0.10179 0.0
C70 C 0.15332 0.98823 0.11332 0.0
C71 C 0.14726 0.96919 0.16847 0.0
C72 C 0.21739 0.08446 0.19757 0.0
C73 C 0.188 1.01558 0.20728 0.0
C74 C 0.25904 0.28579 -0.0138 0.0
C75 C 0.24516 0.1822 0.14309 0.0
H76 H 0.12234 0.5968 0.13559 0.0
H77 H 0.21256 0.70516 -0.01856 0.0
H78 H 0.29687 0.60431 0.07408 0.0
H79 H 0.29387 0.66699 -0.01263 0.0
H80 H 0.18076 0.07658 0.05925 0.0
H81 H 0.11902 0.9168 0.18024 0.0
H82 H 0.24848 0.1201 0.23012 0.0
H83 H 0.19181 0.99717 0.24645 0.0
Eu84 Eu 0.79301 0.1397 0.54893 0.0
C85 C 0.04049 0.38797 0.67534 0.0
C86 C 0.13406 0.47195 0.61967 0.0
C87 C 0.11685 0.50292 0.71054 0.0
C88 C 0.07967 0.4038 0.62832 0.0
C89 C 0.05324 0.44138 0.71266 0.0
C90 C 0.16034 0.51638 0.66508 0.0
C91 C 0.93191 0.38301 0.73297 0.0
N92 N 0.97702 0.3316 0.66994 0.0
C93 C 0.92196 0.3317 0.6953 0.0
C94 C 0.99777 0.43754 0.74194 0.0
Eu95 Eu 0.97526 0.24599 0.60564 0.0
N96 N 0.04228 0.36511 0.58523 0.0
C97 C 0.03616 0.39806 0.54034 0.0
C98 C 0.14102 0.50044 0.56672 0.0
C99 C 0.08687 0.46616 0.52941 0.0
H100 H 0.86972 0.29285 0.68617 0.0
H101 H 0.08256 0.49349 0.49423 0.0
H102 H 0.20381 0.56786 0.66009 0.0
H103 H 0.88819 0.38293 0.75202 0.0
H104 H 0.99237 0.37072 0.51405 0.0
H105 H 0.73134 0.89579 0.61324 0.0
H106 H 0.17866 0.55383 0.55876 0.0
H107 H 0.76302 0.15992 0.34199 0.0
H108 H 0.75456 0.02081 0.64988 0.0
H109 H 0.63572 0.12254 0.31949 0.0
H110 H 0.12794 0.54483 0.7383 0.0
H111 H 0.65206 0.82045 0.53345 0.0
H112 H 0.57166 0.85262 0.48809 0.0
H113 H 1.0037 0.48059 0.76595 0.0
H114 H 0.53624 0.93641 0.42887 0.0
N115 N 0.68212 0.03029 0.58137 0.0
C116 C 0.7324 1.00327 0.60932 0.0
C117 C 0.66855 0.87438 0.5289 0.0
C118 C 0.60678 0.89188 0.49415 0.0
C119 C 0.72588 0.92602 0.58257 0.0
C120 C 0.60972 0.9666 0.50913 0.0
H121 H 0.52583 1.01287 0.35791 0.0
N122 N 0.73727 0.04064 0.42964 0.0
C123 C 0.64366 0.08695 0.34347 0.0
C124 C 0.64293 0.96454 0.4485 0.0
C125 C 0.72537 0.1106 0.36097 0.0
C126 C 0.57449 0.01876 0.37067 0.0
C127 C 0.57026 0.95978 0.42133 0.0
O128 O 0.74623 0.20431 0.56252 0.0
O129 O 0.8913 0.25234 0.55885 0.0
O130 O 0.92949 0.22251 0.68687 0.0
O131 O 0.82033 0.13931 0.65363 0.0
O132 O 0.80056 0.24355 0.56389 0.0
O133 O 0.70683 0.12082 0.61448 0.0
O134 O 0.07514 0.25848 0.59041 0.0
O135 O 0.87971 0.13804 0.59059 0.0
O136 O 0.91345 0.21055 0.4987 0.0
O137 O 0.0275 0.27403 0.52824 0.0
O138 O 0.96904 0.14951 0.56579 0.0
O139 O 0.02937 0.22612 0.673 0.0
C140 C 0.86471 0.28952 0.57427 0.0
C141 C 0.63808 0.18958 0.59806 0.0
C142 C 0.51639 0.15894 0.56179 0.0
C143 C 0.56203 0.14953 0.60222 0.0
C144 C 0.5518 0.19866 0.51538 0.0
C145 C 0.65736 0.24935 0.56863 0.0
C146 C 0.62011 0.24883 0.52123 0.0
C147 C 0.86578 0.17924 0.69692 0.0
C148 C 0.70321 0.1763 0.60283 0.0
C149 C 0.50846 0.89945 0.45287 0.0
C150 C 0.52903 0.85822 0.48799 0.0
C151 C 0.90622 0.10298 0.57379 0.0
C152 C 0.11485 0.19715 0.64434 0.0
C153 C 0.13567 0.16905 0.59928 0.0
C154 C 0.18118 0.14389 0.61184 0.0
C155 C 0.19352 0.13827 0.66728 0.0
C156 C 0.14975 0.21024 0.69459 0.0
C157 C 0.18894 0.18071 0.70506 0.0
C158 C 0.98529 0.25205 0.48382 0.0
C159 C 0.07919 0.23651 0.63917 0.0
H160 H 0.53963 0.11088 0.63388 0.0
H161 H 0.524 0.20539 0.48142 0.0
H162 H 0.70757 0.28915 0.57648 0.0
H163 H 0.64304 0.28727 0.48927 0.0
H164 H 0.12217 0.1724 0.5565 0.0
H165 H 0.21728 0.10985 0.67989 0.0
H166 H 0.14549 0.24211 0.7266 0.0
H167 H 0.21151 0.18571 0.74416 0.0
Eu168 Eu 0.66864 0.78377 0.04905 0.0
C169 C 0.67369 0.03625 0.17336 0.0
C170 C 0.68281 0.12871 0.11664 0.0
C171 C 0.63844 0.11528 0.20872 0.0
C172 C 0.69588 0.07391 0.12555 0.0
C173 C 0.63459 0.05084 0.21109 0.0
C174 C 0.66724 0.15709 0.16218 0.0
C175 C 0.56718 0.92945 0.22969 0.0
N176 N 0.66487 0.97205 0.16831 0.0
C177 C 0.60885 0.91799 0.1935 0.0
C178 C 0.58149 0.99614 0.23989 0.0
Eu179 Eu 0.7458 0.96652 0.10331 0.0
N180 N 0.69452 0.03459 0.08287 0.0
C181 C 0.65357 0.02755 0.03902 0.0
C182 C 0.65909 0.1342 0.0642 0.0
C183 C 0.63687 0.07873 0.02791 0.0
H184 H 0.59478 0.86541 0.18502 0.0
H185 H 0.60417 0.07394 -0.00665 0.0
H186 H 0.6598 0.20086 0.15686 0.0
H187 H 0.52172 0.8864 0.24732 0.0
H188 H 0.63555 0.983 0.01336 0.0
H189 H 0.85069 0.72177 0.11407 0.0
H190 H 0.64375 0.17214 0.05624 0.0
H191 H 0.61805 0.75322 0.84267 0.0
H192 H 0.74934 0.74508 0.15071 0.0
H193 H 0.5275 0.62587 0.82115 0.0
H194 H 0.6087 0.12791 0.2364 0.0
H195 H 0.84672 0.64241 0.03418 0.0
H196 H 0.73401 0.56211 -0.01095 0.0
H197 H 0.54555 1.00365 0.2643 0.0
H198 H 0.61487 0.5267 0.92986 0.0
N199 N 0.66718 0.67316 0.08204 0.0
C200 C 0.74457 0.72329 0.10995 0.0
C201 C 0.80925 0.65889 0.02975 0.0
C202 C 0.72992 0.59718 -0.00494 0.0
C203 C 0.8151 0.71639 0.08329 0.0
C204 C 0.65822 0.6004 0.00995 0.0
H205 H 0.52762 0.51615 0.85921 0.0
N206 N 0.71185 0.72766 0.93011 0.0
C207 C 0.57146 0.63388 0.84448 0.0
C208 C 0.69353 0.63339 0.94922 0.0
C209 C 0.62978 0.71562 0.86162 0.0
C210 C 0.57052 0.56479 0.87177 0.0
C211 C 0.62548 0.56069 0.92228 0.0
O212 O 0.55739 0.73742 0.06334 0.0
O213 O 0.65438 0.88214 0.05776 0.0
O214 O 0.72412 0.92135 0.18503 0.0
O215 O 0.69824 0.81194 0.15299 0.0
O216 O 0.57277 0.79171 0.06595 0.0
O217 O 0.60165 0.69799 0.11518 0.0
O218 O 0.83642 0.0627 0.0854 0.0
O219 O 0.75771 0.87046 0.08961 0.0
O220 O 0.71717 0.90418 -0.0009 0.0
O221 O 0.76818 0.01864 0.02592 0.0
O222 O 0.83478 0.95882 0.06238 0.0
O223 O 0.81899 0.02291 0.17063 0.0
C224 C 0.59116 0.8562 0.07456 0.0
C225 C 0.46403 0.62941 0.09912 0.0
C226 C 0.37324 0.50799 0.06244 0.0
C227 C 0.42784 0.55332 0.10329 0.0
C228 C 0.36938 0.54364 0.01604 0.0
C229 C 0.42352 0.64881 0.0698 0.0
C230 C 0.38697 0.61173 0.02229 0.0
C231 C 0.70449 0.85799 0.19578 0.0
C232 C 0.54253 0.69445 0.10367 0.0
C233 C 0.62411 0.49895 0.95381 0.0
C234 C 0.68587 0.51948 -0.0111 0.0
C235 C 0.81888 0.8964 0.07184 0.0
C236 C 0.93476 0.10583 0.1425 0.0
C237 C 0.98499 0.12652 0.0986 0.0
C238 C 0.05485 0.17289 0.11238 0.0
C239 C 0.07095 0.18653 0.16807 0.0
C240 C 0.95424 0.14229 0.19219 0.0
C241 C 1.02242 0.18321 0.20364 0.0
C242 C 0.74691 0.97523 -0.0179 0.0
C243 C 0.86035 0.06947 0.13526 0.0
H244 H 0.44315 0.53067 0.13557 0.0
H245 H 0.33534 0.5161 -0.01827 0.0
H246 H 0.43389 0.69905 0.07771 0.0
H247 H 0.37164 0.63469 -0.00972 0.0
H248 H 0.96962 0.11222 0.05563 0.0
H249 H 0.12268 0.21087 0.18205 0.0
H250 H 0.91684 0.13834 0.22288 0.0
H251 H 0.03815 0.20779 0.24209 0.0
Eu252 Eu 0.90093 0.66173 0.54914 0.0
C253 C 0.65468 0.66628 0.67534 0.0
C254 C 0.57063 0.67256 0.61801 0.0
C255 C 0.54018 0.63071 0.71049 0.0
C256 C 0.63911 0.68792 0.62728 0.0
C257 C 0.60092 0.62713 0.71308 0.0
C258 C 0.52686 0.65834 0.66346 0.0
C259 C 0.65425 0.55901 0.73084 0.0
N260 N 0.71 0.65741 0.67026 0.0
C261 C 0.7074 0.60069 0.69468 0.0
C262 C 0.60228 0.57375 0.74153 0.0
Eu263 Eu 0.7964 0.73905 0.60549 0.0
N264 N 0.67794 0.68736 0.58484 0.0
C265 C 0.64579 0.64649 0.54068 0.0
C266 C 0.54107 0.64417 0.56676 0.0
C267 C 0.577 0.62517 0.53045 0.0
H268 H 0.74549 0.58618 0.68573 0.0
H269 H 0.55126 0.59148 0.49628 0.0
H270 H 0.47534 0.65002 0.65775 0.0
H271 H 0.65142 0.51317 0.748 0.0
H272 H 0.67398 0.63101 0.51431 0.0
H273 H 0.14512 0.84306 0.61289 0.0
H274 H 0.48671 0.62394 0.56 0.0
H275 H 0.87912 0.61089 0.34267 0.0
H276 H 1.02063 0.74144 0.65018 0.0
H277 H 0.91511 0.52025 0.32063 0.0
H278 H 0.49769 0.60096 0.73799 0.0
H279 H 0.22006 0.83922 0.53212 0.0
H280 H 0.18787 0.72798 0.48508 0.0
H281 H 0.55872 0.53771 0.76578 0.0
H282 H 0.10354 0.60796 0.42728 0.0
N283 N 1.01022 0.65944 0.58144 0.0
C284 C 0.03764 0.73679 0.60939 0.0
C285 C 0.16605 0.80165 0.52826 0.0
C286 C 0.14823 0.72239 0.49332 0.0
C287 C 0.11477 0.80739 0.5823 0.0
C288 C 0.0735 0.65037 0.50876 0.0
H289 H 0.02469 0.51961 0.35801 0.0
N290 N 0.99904 0.70422 0.42988 0.0
C291 C 0.95169 0.56425 0.34364 0.0
C292 C 0.07509 0.6857 0.4482 0.0
C293 C 0.92856 0.6225 0.36136 0.0
C294 C 1.01984 0.56301 0.37041 0.0
C295 C 0.07963 0.61809 0.42052 0.0
O296 O 0.83599 0.55052 0.56305 0.0
O297 O 0.78842 0.64764 0.55898 0.0
O298 O 0.81889 0.71574 0.68657 0.0
O299 O 0.90221 0.69 0.65354 0.0
O300 O 0.79693 0.56575 0.56511 0.0
O301 O 0.9197 0.59429 0.61489 0.0
O302 O 0.78533 0.82689 0.58954 0.0
O303 O 0.90387 0.75057 0.59074 0.0
O304 O 0.83137 0.71313 0.49835 0.0
O305 O 0.76785 0.76358 0.52846 0.0
O306 O 0.89333 0.82887 0.56573 0.0
O307 O 0.81611 0.81307 0.67276 0.0
C308 C 0.75105 0.58407 0.57516 0.0
C309 C 0.84973 0.45656 0.59879 0.0
C310 C 0.87868 0.36419 0.56289 0.0
C311 C 0.88895 0.41962 0.60329 0.0
C312 C 0.83911 0.36016 0.51652 0.0
C313 C 0.78961 0.41642 0.56951 0.0
C314 C 0.78946 0.379 0.52241 0.0
C315 C 0.86222 0.69548 0.69667 0.0
C316 C 0.86391 0.53536 0.60332 0.0
C317 C 0.14158 0.61834 0.45026 0.0
C318 C 0.18342 0.68035 0.48477 0.0
C319 C 0.93946 0.81215 0.57405 0.0
C320 C 0.84545 0.92754 0.64387 0.0
C321 C 0.87364 0.97632 0.59881 0.0
C322 C 0.89778 0.04673 0.61124 0.0
C323 C 0.90325 0.06482 0.66662 0.0
C324 C 0.83103 0.94913 0.69369 0.0
C325 C 0.86034 0.01786 0.70414 0.0
C326 C 0.79004 0.74403 0.48402 0.0
C327 C 0.80656 0.85267 0.63852 0.0
H328 H 0.92681 0.43466 0.63565 0.0
H329 H 0.83217 0.32565 0.48246 0.0
H330 H 0.75037 0.42792 0.57682 0.0
H331 H 0.75158 0.36441 0.49019 0.0
H332 H 0.87064 0.95943 0.55607 0.0
H333 H 0.9313 0.11699 0.67931 0.0
H334 H 0.79857 0.91288 0.72541 0.0
H335 H 0.85515 0.03557 0.74307 0.0
Eu336 Eu 0.25529 0.89263 0.04889 0.0
C337 C 1.00567 0.64679 0.17619 0.0
C338 C 0.91423 0.56241 0.11978 0.0
C339 C 0.92812 0.53195 0.21151 0.0
C340 C 0.96751 0.63097 0.12863 0.0
C341 C 0.99214 0.59305 0.21361 0.0
C342 C 0.8859 0.51859 0.16535 0.0
C343 C 0.11403 0.64633 0.22879 0.0
N344 N 0.06968 0.70226 0.17039 0.0
C345 C 0.12448 0.69971 0.19341 0.0
C346 C 0.04763 0.59461 0.24086 0.0
Eu347 Eu 0.07331 0.78835 0.10602 0.0
N348 N 1.00617 0.66968 0.08583 0.0
C349 C 1.01409 0.63732 0.04141 0.0
C350 C 0.912 0.53277 0.06834 0.0
C351 C 0.9664 0.56843 0.03155 0.0
H352 H 0.17683 0.73794 0.18378 0.0
H353 H 0.97365 0.5422 -0.00266 0.0
H354 H 0.84282 0.46696 0.15994 0.0
H355 H 0.15758 0.64324 0.24412 0.0
H356 H 0.05743 0.66538 0.01468 0.0
H357 H 0.31644 0.1353 0.11264 0.0
H358 H 0.87767 0.47841 0.06171 0.0
H359 H 0.28525 0.87014 0.8428 0.0
H360 H 0.29543 1.01211 0.15025 0.0
H361 H 0.41233 0.90758 0.82027 0.0
H362 H 0.91671 0.48927 0.23847 0.0
H363 H 0.39502 0.21078 0.03179 0.0
H364 H 0.47453 0.17966 -0.01584 0.0
H365 H 0.04064 0.55125 0.265 0.0
H366 H 0.5117 0.0963 0.92677 0.0
N367 N 0.36728 1.00201 0.08138 0.0
C368 C 0.31687 0.02886 0.10932 0.0
C369 C 0.37916 0.15692 0.02799 0.0
C370 C 0.44115 0.13987 -0.00701 0.0
C371 C 0.3225 0.10544 0.08212 0.0
C372 C 0.43937 0.06553 0.00855 0.0
H373 H 0.52175 0.01713 0.85803 0.0
N374 N 0.31087 0.98994 0.92986 0.0
C375 C 0.40438 0.94362 0.84357 0.0
C376 C 0.40525 0.06657 0.94801 0.0
C377 C 0.32278 0.91975 0.86141 0.0
C378 C 0.47343 1.01216 0.87028 0.0
C379 C 0.47765 0.0719 0.92023 0.0
O380 O 0.30161 0.82778 0.06246 0.0
O381 O 0.15651 0.78026 0.05898 0.0
O382 O 0.1197 0.81066 0.1868 0.0
O383 O 0.22855 0.894 0.15325 0.0
O384 O 0.24714 0.78828 0.06283 0.0
O385 O 0.34151 0.91114 0.11458 0.0
O386 O 0.9731 0.77454 0.09089 0.0
O387 O 0.16956 0.89585 0.09109 0.0
O388 O 0.13406 0.82331 -0.0017 0.0
O389 O 1.02023 0.76043 0.02901 0.0
O390 O 0.08065 0.88601 0.06726 0.0
O391 O 1.01939 0.80908 0.17308 0.0
C392 C 0.18305 0.74265 0.0737 0.0
C393 C 0.40887 0.84082 0.09833 0.0
C394 C 0.53013 0.86937 0.06253 0.0
C395 C 0.485 0.88017 0.10257 0.0
C396 C 0.49478 0.82929 0.01634 0.0
C397 C 0.38868 0.7807 0.06894 0.0
C398 C 0.42606 0.7802 0.022 0.0
C399 C 0.18335 0.85424 0.19655 0.0
C400 C 0.34454 0.85538 0.10281 0.0
C401 C 0.53906 0.13482 0.94941 0.0
C402 C 0.51829 0.17629 -0.01628 0.0
C403 C 0.14377 0.9319 0.0751 0.0
C404 C 0.93319 0.83655 0.14348 0.0
C405 C 0.91282 0.8639 0.09766 0.0
C406 C 0.86769 0.88968 0.10935 0.0
C407 C 0.85648 0.89784 0.16454 0.0
C408 C 0.89733 0.82396 0.19327 0.0
C409 C 0.8594 0.85517 0.20297 0.0
C410 C 0.06167 0.78192 -0.01554 0.0
C411 C 0.96911 0.79736 0.13935 0.0
H412 H 0.50778 0.9184 0.13459 0.0
H413 H 0.52251 0.82215 -0.01752 0.0
H414 H 0.33776 0.74177 0.076 0.0
H415 H 0.40261 0.74257 -0.01036 0.0
H416 H 0.92593 0.85907 0.05507 0.0
H417 H 0.83315 0.92696 0.17638 0.0
H418 H 0.90044 0.79176 0.22557 0.0
H419 H 0.83656 0.85148 0.24181 0.0
Eu420 Eu 0.37821 0.24505 0.54832 0.0
C421 C 0.37504 0.99531 0.67514 0.0
C422 C 0.36583 0.90271 0.61865 0.0
C423 C 0.41118 0.91687 0.71031 0.0
C424 C 0.35227 0.95717 0.62763 0.0
C425 C 0.41484 0.98124 0.71247 0.0
C426 C 0.38204 0.87472 0.66406 0.0
C427 C 0.4839 0.10303 0.72815 0.0
N428 N 0.38389 0.05948 0.66967 0.0
C429 C 0.44098 0.11397 0.69315 0.0
C430 C 0.46887 0.03643 0.73993 0.0
Eu431 Eu 0.3017 0.06405 0.6059 0.0
N432 N 0.35237 0.99584 0.5849 0.0
C433 C 0.39171 1.00223 0.5401 0.0
C434 C 0.38936 0.89735 0.56614 0.0
C435 C 0.40951 0.9519 0.52919 0.0
H436 H 0.45499 0.1664 0.68397 0.0
H437 H 0.44163 0.95687 0.4942 0.0
H438 H 0.38984 0.83118 0.65866 0.0
H439 H 0.53073 0.14635 0.74338 0.0
H440 H 0.40836 0.04612 0.51387 0.0
H441 H 0.19866 0.31181 0.61474 0.0
H442 H 0.40575 0.86018 0.55836 0.0
H443 H 0.42249 0.27343 0.33995 0.0
H444 H 0.29862 0.28479 0.6504 0.0
H445 H 0.5143 0.39757 0.31751 0.0
H446 H 0.44178 0.90483 0.73752 0.0
H447 H 0.20724 0.39551 0.53576 0.0
H448 H 0.32472 0.47556 0.49591 0.0
H449 H 0.50491 0.02899 0.76413 0.0
H450 H 0.4376 0.50256 0.42878 0.0
N451 N 0.38159 0.35527 0.58126 0.0
C452 C 0.30383 0.307 0.60981 0.0
C453 C 0.24303 0.37687 0.53128 0.0
C454 C 0.32317 0.436 0.49651 0.0
C455 C 0.23475 0.3175 0.58421 0.0
C456 C 0.39224 0.42937 0.51026 0.0
H457 H 0.52012 0.51035 0.35603 0.0
N458 N 0.33335 0.3024 0.4297 0.0
C459 C 0.47146 0.39204 0.34118 0.0
C460 C 0.35517 0.39767 0.44928 0.0
C461 C 0.41236 0.31193 0.35934 0.0
C462 C 0.47604 0.46223 0.36836 0.0
C463 C 0.4243 0.46898 0.42025 0.0
O464 O 0.48994 0.29144 0.56208 0.0
O465 O 0.39197 0.14649 0.55808 0.0
O466 O 0.32573 0.1105 0.68666 0.0
O467 O 0.3496 0.21851 0.6528 0.0
O468 O 0.47422 0.23717 0.56339 0.0
O469 O 0.44618 0.33064 0.6144 0.0
O470 O 0.21484 0.96437 0.59158 0.0
O471 O 0.28987 0.15976 0.59074 0.0
O472 O 0.3272 0.12483 0.4967 0.0
O473 O 0.27604 1.01115 0.52937 0.0
O474 O 0.21102 0.07062 0.567 0.0
O475 O 0.22805 1.01148 0.67378 0.0
C476 C 0.45576 0.17294 0.57335 0.0
C477 C 0.58393 0.40029 0.59699 0.0
C478 C 0.67655 0.52299 0.5635 0.0
C479 C 0.62179 0.47618 0.60389 0.0
C480 C 0.68031 0.48915 0.51587 0.0
C481 C 0.62429 0.38186 0.56658 0.0
C482 C 0.66199 0.42069 0.52011 0.0
C483 C 0.34455 0.17379 0.69637 0.0
C484 C 0.5054 0.33444 0.60254 0.0
C485 C 0.43485 0.53146 0.4552 0.0
C486 C 0.37638 0.51268 0.49474 0.0
C487 C 0.22817 0.13376 0.57442 0.0
C488 C 0.11415 0.92537 0.64533 0.0
C489 C 0.06589 0.90563 0.6 0.0
C490 C 0.99535 0.85956 0.61194 0.0
C491 C 0.97674 0.8465 0.66719 0.0
C492 C 0.092 0.88883 0.69488 0.0
C493 C 1.02313 0.84938 0.70481 0.0
C494 C 0.29584 0.05199 0.4845 0.0
C495 C 0.18893 0.96106 0.64037 0.0
H496 H 0.60644 0.49778 0.63697 0.0
H497 H 0.71488 0.51801 0.48219 0.0
H498 H 0.61321 0.33152 0.57319 0.0
H499 H 0.6766 0.39825 0.48709 0.0
H500 H 0.08325 0.91997 0.5574 0.0
H501 H 0.92449 0.82281 0.67947 0.0
H502 H 0.12787 0.89226 0.72681 0.0
H503 H 1.00492 0.82574 0.74348 0.0
Eu504 Eu 0.66518 0.89141 0.40326 0.0
C505 C 0.69786 0.65674 0.2821 0.0
C506 C 0.70253 0.57018 0.33746 0.0
C507 C 0.68261 0.55232 0.23947 0.0
C508 C 0.71405 0.63789 0.33159 0.0
C509 C 0.66772 0.6062 0.2403 0.0
C510 C 0.70119 0.5341 0.28951 0.0
C511 C 0.58344 0.64205 0.22804 0.0
N512 N 0.68036 0.7061 0.28855 0.0
C513 C 0.61973 0.69548 0.26505 0.0
C514 C 0.60827 0.59849 0.2148 0.0
Eu515 Eu 0.74645 0.78879 0.36131 0.0
N516 N 0.70257 0.66923 0.37463 0.0
C517 C 0.65246 0.62873 0.41095 0.0
C518 C 0.6674 0.53329 0.38506 0.0
C519 C 0.63681 0.56077 0.41943 0.0
H520 H 0.59892 0.72838 0.27415 0.0
H521 H 0.59982 0.52925 0.45078 0.0
H522 H 0.69757 0.48425 0.29251 0.0
H523 H 0.53464 0.63267 0.21157 0.0
H524 H 0.62759 0.6511 0.43336 0.0
H525 H 0.86065 0.1181 0.33509 0.0
H526 H 0.65278 0.47971 0.38989 0.0
H527 H 0.6056 0.87402 0.60583 0.0
H528 H 0.74963 1.00505 0.29896 0.0
H529 H 0.52249 0.92101 0.62488 0.0
H530 H 0.66672 0.51624 0.2054 0.0
H531 H 0.86364 0.20469 0.41446 0.0
H532 H 0.75551 0.18475 0.46357 0.0
H533 H 0.57401 0.55267 0.19243 0.0
H534 H 0.62878 0.10918 0.51665 0.0
N535 N 0.671 1.00419 0.3665 0.0
C536 C 0.74641 0.02379 0.33948 0.0
C537 C 0.82144 0.15274 0.41881 0.0
C538 C 0.74441 0.14364 0.45331 0.0
C539 C 0.8209 0.09668 0.3656 0.0
C540 C 0.66757 0.07258 0.43741 0.0
H541 H 0.53084 0.03004 0.58126 0.0
N542 N 0.70877 0.98973 0.51919 0.0
C543 C 0.56832 0.95412 0.60151 0.0
C544 C 0.70002 0.07115 0.49925 0.0
C545 C 0.6219 0.92431 0.58646 0.0
C546 C 0.57511 0.02543 0.5733 0.0
C547 C 0.63572 0.08287 0.524 0.0
O548 O 0.55399 0.8241 0.39719 0.0
O549 O 0.65216 0.78055 0.40331 0.0
O550 O 0.7299 0.8104 0.27535 0.0
O551 O 0.69362 0.88781 0.30064 0.0
O552 O 0.57846 0.79106 0.36782 0.0
O553 O 0.59207 0.90257 0.33939 0.0
O554 O 0.8462 0.83096 0.40127 0.0
O555 O 0.75067 0.89339 0.36136 0.0
O556 O 0.71304 0.82049 0.45603 0.0
O557 O 0.75475 0.74894 0.44 0.0
O558 O 0.82596 0.88796 0.40244 0.0
O559 O 0.83305 0.79175 0.31733 0.0
C560 C 0.594 0.74397 0.37798 0.0
C561 C 0.45714 0.83097 0.36025 0.0
C562 C 0.36766 0.86309 0.39513 0.0
C563 C 0.42258 0.87209 0.35531 0.0
C564 C 0.36043 0.82288 0.44221 0.0
C565 C 0.42085 0.77404 0.39441 0.0
C566 C 0.38388 0.77636 0.44071 0.0
C567 C 0.70441 0.84853 0.26048 0.0
C568 C 0.53551 0.84746 0.35577 0.0
C569 C 0.64542 0.14898 0.49367 0.0
C570 C 0.71071 0.18669 0.462 0.0
C571 C 0.80742 0.9294 0.38421 0.0
C572 C 0.94603 0.87777 0.34873 0.0
C573 C 0.99715 0.8767 0.38086 0.0
C574 C 0.05359 0.88105 0.35282 0.0
C575 C 0.05941 0.89076 0.29506 0.0
C576 C 0.96403 0.9081 0.29694 0.0
C577 C 1.01689 0.90875 0.2677 0.0
C578 C 0.74096 0.78106 0.48067 0.0
C579 C 0.87541 0.82345 0.35842 0.0
H580 H 0.4386 0.91016 0.32285 0.0
H581 H 0.32433 0.81641 0.47492 0.0
H582 H 0.43366 0.73486 0.39082 0.0
H583 H 0.37181 0.74099 0.47485 0.0
H584 H 0.98808 0.86095 0.42428 0.0
H585 H 0.10123 0.89328 0.27251 0.0
H586 H 0.93287 0.92313 0.27687 0.0
H587 H 0.02671 0.92648 0.22503 0.0
Eu588 Eu 0.78908 0.65589 0.90402 0.0
C589 C 0.0561 0.68801 0.78269 0.0
C590 C 0.1466 0.69138 0.83826 0.0
C591 C 0.14521 0.67248 0.7401 0.0
C592 C 0.09075 0.70345 0.83235 0.0
C593 C 0.07662 0.65815 0.74066 0.0
C594 C 0.18153 0.69012 0.79037 0.0
C595 C 0.95652 0.57429 0.72788 0.0
N596 N 0.98929 0.67083 0.78895 0.0
C597 C 0.93933 0.61021 0.76535 0.0
C598 C 0.02497 0.59927 0.71448 0.0
Eu599 Eu 0.97273 0.73674 0.86217 0.0
N600 N 0.04787 0.69218 0.87534 0.0
C601 C 0.038 0.64216 0.91176 0.0
C602 C 0.14801 0.6561 0.88585 0.0
C603 C 0.09 0.62609 0.92033 0.0
H604 H 0.88561 0.5892 0.77465 0.0
H605 H 0.08431 0.58919 0.95183 0.0
H606 H 0.2275 0.68604 0.79346 0.0
H607 H 0.9171 0.52568 0.71114 0.0
H608 H 0.9908 0.61774 0.93422 0.0
H609 H 0.75786 0.85089 0.83545 0.0
H610 H 0.18669 0.64109 0.89068 0.0
H611 H 0.74649 0.59627 0.10676 0.0
H612 H 0.7593 0.73938 0.79932 0.0
H613 H 0.61609 0.51404 0.12629 0.0
H614 H 0.16545 0.6568 0.7059 0.0
H615 H 0.6745 0.8542 0.91467 0.0
H616 H 0.58641 0.74663 0.96434 0.0
H617 H 0.03673 0.56544 0.69152 0.0
H618 H 0.53489 0.62003 0.01742 0.0
N619 N 0.6817 0.66112 0.86717 0.0
C620 C 0.7375 0.73636 0.8399 0.0
C621 C 0.68415 0.81197 0.91915 0.0
C622 C 0.61624 0.73522 0.95392 0.0
C623 C 0.73936 0.81104 0.86587 0.0
C624 C 0.6102 0.65818 0.9382 0.0
H625 H 0.51579 0.52221 0.08223 0.0
N626 N 0.73433 0.69938 0.01983 0.0
C627 C 0.62913 0.55949 0.10251 0.0
C628 C 0.64425 0.69081 -0.00014 0.0
C629 C 0.71261 0.61265 0.08732 0.0
C630 C 0.56478 0.56633 0.07414 0.0
C631 C 0.56814 0.62682 0.02472 0.0
O632 O 0.74519 0.54469 0.89816 0.0
O633 O 0.88685 0.64263 0.90441 0.0
O634 O 0.935 0.72046 0.7762 0.0
O635 O 0.82134 0.68425 0.80142 0.0
O636 O 0.80284 0.56931 0.86841 0.0
O637 O 0.70468 0.58265 0.84038 0.0
O638 O 0.02798 0.8366 0.90239 0.0
O639 O 0.87227 0.74115 0.86167 0.0
O640 O 0.90789 0.70432 0.95696 0.0
O641 O 1.02094 0.74503 0.94075 0.0
O642 O 0.95292 0.81678 0.90226 0.0
O643 O 0.05927 0.82312 0.82052 0.0
C644 C 0.86533 0.58461 0.87888 0.0
C645 C 0.64156 0.4478 0.86107 0.0
C646 C 0.52007 0.35871 0.89655 0.0
C647 C 0.56583 0.41337 0.8565 0.0
C648 C 0.55351 0.35159 0.94336 0.0
C649 C 0.6624 0.41139 0.89485 0.0
C650 C 0.62333 0.3744 0.94117 0.0
C651 C 0.87144 0.69497 0.76128 0.0
C652 C 0.70333 0.52618 0.85675 0.0
C653 C 0.51184 0.63678 -0.00553 0.0
C654 C 0.53958 0.70196 0.96276 0.0
C655 C 0.89285 0.79809 0.88415 0.0
C656 C 0.08551 0.93608 0.85036 0.0
C657 C 0.13764 0.98767 0.88206 0.0
C658 C 0.18805 0.04483 0.85372 0.0
C659 C 0.18249 0.05124 0.79625 0.0
C660 C 0.07154 0.95317 0.79887 0.0
C661 C 0.12189 1.00752 0.76949 0.0
C662 C 0.97541 0.73256 -0.01858 0.0
C663 C 0.06806 0.86549 0.86117 0.0
H664 H 0.54364 0.42966 0.8244 0.0
H665 H 0.52419 0.3162 0.97655 0.0
H666 H 0.71448 0.42443 0.89121 0.0
H667 H 0.64705 0.36359 0.97573 0.0
H668 H 0.14548 0.97883 0.92527 0.0
H669 H 0.22044 0.09422 0.77369 0.0
H670 H 0.02558 0.92038 0.77926 0.0
H671 H 0.11281 0.01709 0.72703 0.0
Eu672 Eu 0.14819 0.78104 0.40335 0.0
C673 C 0.38499 0.04993 0.28195 0.0
C674 C 0.47219 0.14019 0.33773 0.0
C675 C 0.4909 0.13793 0.23992 0.0
C676 C 0.40406 0.08467 0.33156 0.0
C677 C 0.43582 0.06978 0.24027 0.0
C678 C 0.5091 0.17462 0.28998 0.0
C679 C 0.39789 0.94943 0.2273 0.0
N680 N 0.33481 0.98332 0.28822 0.0
C681 C 0.34506 0.93297 0.26502 0.0
C682 C 0.4423 0.01771 0.2141 0.0
Eu683 Eu 0.25239 0.96633 0.36158 0.0
N684 N 0.37207 0.04185 0.37449 0.0
C685 C 0.41195 0.03161 0.41088 0.0
C686 C 0.50841 0.14136 0.38557 0.0
C687 C 0.47992 0.08326 0.41988 0.0
H688 H 0.3127 0.87953 0.27554 0.0
H689 H 0.51055 0.07696 0.45153 0.0
H690 H 0.55937 0.22025 0.29327 0.0
H691 H 0.40667 0.90961 0.21086 0.0
H692 H 0.38893 0.98438 0.43311 0.0
H693 H 0.92127 0.75052 0.33609 0.0
H694 H 0.56216 0.17976 0.39065 0.0
H695 H 0.1667 0.73899 0.60507 0.0
H696 H 0.03559 0.75364 0.29982 0.0
H697 H 0.11824 0.60856 0.62544 0.0
H698 H 0.52748 0.15754 0.20615 0.0
H699 H 0.83484 0.66645 0.41513 0.0
H700 H 0.85502 0.57854 0.46418 0.0
H701 H 0.48802 0.02902 0.19137 0.0
H702 H 0.93048 0.52713 0.51697 0.0
N703 N 0.035 0.67435 0.36643 0.0
C704 C 1.01551 0.73031 0.33974 0.0
C705 C 0.88689 0.67647 0.41956 0.0
C706 C 0.89598 0.60844 0.45383 0.0
C707 C 0.9428 0.73204 0.36628 0.0
C708 C 0.96685 0.60254 0.43756 0.0
H709 H 1.00855 0.50795 0.5824 0.0
N710 N 0.0506 0.72644 0.51917 0.0
C711 C 0.086 0.62156 0.60132 0.0
C712 C 0.96894 0.63641 0.49947 0.0
C713 C 0.11629 0.70501 0.58589 0.0
C714 C 1.0144 0.55713 0.57338 0.0
C715 C 0.95699 0.56039 0.52423 0.0
O716 O 0.21262 0.73439 0.39139 0.0
O717 O 0.26049 0.8795 0.4027 0.0
O718 O 0.23022 0.9282 0.27559 0.0
O719 O 0.15409 0.81413 0.30104 0.0
O720 O 0.2506 0.7901 0.38092 0.0
O721 O 0.13081 0.69735 0.33669 0.0
O722 O 0.20686 0.01982 0.40365 0.0
O723 O 0.14759 0.86525 0.36096 0.0
O724 O 0.21939 0.89996 0.45443 0.0
O725 O 0.29197 1.01274 0.44094 0.0
O726 O 0.15188 0.94606 0.4008 0.0
O727 O 0.25144 0.0538 0.32221 0.0
C728 C 0.29684 0.85503 0.38098 0.0
C729 C 0.20017 0.62979 0.35039 0.0
C730 C 0.17121 0.50904 0.38452 0.0
C731 C 0.15905 0.55397 0.34586 0.0
C732 C 0.20986 0.54294 0.43125 0.0
C733 C 0.26016 0.64914 0.37938 0.0
C734 C 0.25637 0.61278 0.42745 0.0
C735 C 0.19311 0.8643 0.26094 0.0
C736 C 0.18556 0.69335 0.3498 0.0
C737 C 0.89054 0.50401 0.49418 0.0
C738 C 0.85284 0.53171 0.46266 0.0
C739 C 0.11088 0.88578 0.38293 0.0
C740 C 0.16294 0.07757 0.3539 0.0
C741 C 0.16229 0.12907 0.38619 0.0
C742 C 0.15602 0.18029 0.35811 0.0
C743 C 0.14447 0.17506 0.30054 0.0
C744 C 0.13219 0.06419 0.30234 0.0
C745 C 0.12865 0.11496 0.27327 0.0
C746 C 0.25861 0.96602 0.48063 0.0
C747 C 0.21751 0.06111 0.36353 0.0
H748 H 0.11968 0.53134 0.31471 0.0
H749 H 0.21257 0.51477 0.46691 0.0
H750 H 0.2983 0.70119 0.3752 0.0
H751 H 0.28416 0.63982 0.4642 0.0
H752 H 0.17929 0.1368 0.4293 0.0
H753 H 0.13933 0.21299 0.27794 0.0
H754 H 0.11927 0.01848 0.28236 0.0
H755 H 0.11094 0.10651 0.23054 0.0
Eu756 Eu 0.38224 0.13875 0.90314 0.0
C757 C 0.35282 0.37621 0.78205 0.0
C758 C 0.34851 0.46345 0.83684 0.0
C759 C 0.37228 0.48222 0.73933 0.0
C760 C 0.33575 0.39525 0.83105 0.0
C761 C 0.38508 0.42698 0.7406 0.0
C762 C 0.35256 0.50053 0.78876 0.0
C763 C 0.46639 0.38731 0.72871 0.0
N764 N 0.3686 0.32569 0.78906 0.0
C765 C 0.42897 0.33473 0.76628 0.0
C766 C 0.44396 0.43282 0.71546 0.0
Eu767 Eu 0.30147 0.2436 0.86187 0.0
N768 N 0.34518 0.36307 0.87453 0.0
C769 C 0.39461 0.4027 0.91144 0.0
C770 C 0.38236 0.49946 0.88514 0.0
C771 C 0.41102 0.47071 0.92023 0.0
H772 H 0.44901 0.30157 0.77706 0.0
H773 H 0.44754 0.50122 0.95218 0.0
H774 H 0.3573 0.55086 0.79161 0.0
H775 H 0.51481 0.39517 0.71256 0.0
H776 H 0.41851 0.37955 0.93392 0.0
H777 H 0.18659 0.91083 0.83641 0.0
H778 H 0.39782 0.55324 0.89006 0.0
H779 H 0.44306 0.15851 0.10468 0.0
H780 H 0.29694 0.026 0.80002 0.0
H781 H 0.52612 0.11112 0.12515 0.0
H782 H 0.3899 0.51855 0.70538 0.0
H783 H 0.18543 0.82517 0.91584 0.0
H784 H 0.29443 0.84674 0.96397 0.0
H785 H 0.4795 0.47853 0.69334 0.0
H786 H 0.42086 0.92311 0.01709 0.0
N787 N 0.37651 0.02616 0.86631 0.0
C788 C 0.3007 1.00585 0.83974 0.0
C789 C 0.22724 0.87741 0.91984 0.0
C790 C 0.30482 0.88743 0.95393 0.0
C791 C 0.22675 0.93277 0.86647 0.0
C792 C 0.3811 0.95866 0.93751 0.0
H793 H 0.51756 1.00135 0.08275 0.0
N794 N 0.34008 0.04173 0.01905 0.0
C795 C 0.48082 0.07858 0.10112 0.0
C796 C 0.34928 0.96057 -0.00053 0.0
C797 C 0.42704 0.10814 0.08561 0.0
C798 C 0.47422 1.00715 0.07341 0.0
C799 C 0.41381 0.94937 0.02435 0.0
O800 O 0.4928 0.20249 0.88929 0.0
O801 O 0.3962 0.2511 0.9031 0.0
O802 O 0.31727 0.22103 0.77564 0.0
O803 O 0.35467 0.14445 0.80097 0.0
O804 O 0.47651 0.24142 0.88372 0.0
O805 O 0.44688 0.12007 0.83542 0.0
O806 O 0.20208 0.19921 0.90334 0.0
O807 O 0.2975 0.13879 0.86132 0.0
O808 O 0.33441 0.21003 0.95341 0.0
O809 O 0.29363 0.28207 0.94196 0.0
O810 O 0.22085 0.14332 0.90094 0.0
O811 O 0.21375 0.24252 0.82121 0.0
C812 C 0.45769 0.28761 0.88262 0.0
C813 C 0.58426 0.19023 0.84737 0.0
C814 C 0.67709 0.16292 0.88238 0.0
C815 C 0.61952 0.14942 0.84376 0.0
C816 C 0.68176 0.20296 0.92803 0.0
C817 C 0.62521 0.25159 0.87463 0.0
C818 C 0.65851 0.24943 0.92271 0.0
C819 C 0.34345 0.18335 0.76086 0.0
C820 C 0.50591 0.17502 0.84761 0.0
C821 C 0.40456 0.88329 -0.0057 0.0
C822 C 0.33933 0.84507 0.96265 0.0
C823 C 0.24034 0.10234 0.88346 0.0
C824 C 0.10105 0.15405 0.85216 0.0
C825 C 0.04854 0.15262 0.88462 0.0
C826 C 0.99143 0.14752 0.85662 0.0
C827 C 0.98631 0.1387 0.79872 0.0
C828 C 0.08417 0.12522 0.79987 0.0
C829 C 0.03073 0.12361 0.77086 0.0
C830 C 0.30816 0.24901 -0.01937 0.0
C831 C 0.17191 0.20886 0.86228 0.0
H832 H 0.60299 0.10953 0.81312 0.0
H833 H 0.71195 0.20613 0.96429 0.0
H834 H 0.61088 0.28971 0.87008 0.0
H835 H 0.65863 0.27739 0.95896 0.0
H836 H 0.05729 0.16817 0.92808 0.0
H837 H 0.9444 0.13578 0.77596 0.0
H838 H 0.11676 0.11232 0.77939 0.0
H839 H 1.02196 0.1074 0.72779 0.0
Eu840 Eu 0.25776 0.37991 0.4068 0.0
C841 C 0.98834 0.34144 0.282 0.0
C842 C 0.89903 0.33944 0.33874 0.0
C843 C 0.89954 0.35891 0.24082 0.0
C844 C 0.95485 0.32725 0.3322 0.0
C845 C 0.96765 0.37203 0.24066 0.0
C846 C 0.86369 0.34107 0.29127 0.0
C847 C 0.08752 0.45292 0.22453 0.0
N848 N 0.05501 0.35722 0.28681 0.0
C849 C 0.10479 0.41586 0.26048 0.0
C850 C 1.01916 0.43106 0.21489 0.0
Eu851 Eu 0.07361 0.29421 0.36194 0.0
N852 N 0.99847 0.33902 0.3747 0.0
C853 C 1.00832 0.38892 0.41121 0.0
C854 C 0.89789 0.37445 0.38659 0.0
C855 C 0.95621 0.40453 0.42057 0.0
H856 H 0.15875 0.43697 0.26824 0.0
H857 H 0.96226 0.44124 0.45234 0.0
H858 H 0.81801 0.34559 0.29492 0.0
H859 H 0.12708 0.50129 0.20752 0.0
H860 H 0.05544 0.41317 0.43357 0.0
H861 H 0.28343 0.17963 0.33388 0.0
H862 H 0.85918 0.38934 0.39192 0.0
H863 H 0.30737 0.43655 0.60872 0.0
H864 H 0.28359 0.29133 0.2994 0.0
H865 H 0.43869 0.51553 0.62646 0.0
H866 H 0.87978 0.37567 0.20688 0.0
H867 H 0.36611 0.17298 0.41156 0.0
H868 H 0.45666 0.27843 0.46177 0.0
H869 H 1.00784 0.46694 0.19483 0.0
H870 H 0.51261 0.40548 0.51451 0.0
N871 N 0.36287 0.36877 0.36665 0.0
C872 C 0.30516 0.29404 0.34002 0.0
C873 C 0.3577 0.21589 0.41715 0.0
C874 C 0.42777 0.29158 0.4511 0.0
C875 C 0.3021 0.21853 0.36518 0.0
C876 C 0.43577 0.36957 0.43609 0.0
H877 H 0.53525 0.50459 0.57949 0.0
N878 N 0.31369 0.3316 0.51996 0.0
C879 C 0.42371 0.46946 0.6028 0.0
C880 C 0.40238 0.33717 0.49837 0.0
C881 C 0.33962 0.41867 0.58846 0.0
C882 C 0.48604 0.46053 0.57284 0.0
C883 C 0.47985 0.39952 0.5225 0.0
O884 O 0.2935 0.491 0.41504 0.0
O885 O 0.15751 0.38979 0.40195 0.0
O886 O 0.11423 0.30885 0.27706 0.0
O887 O 0.22938 0.35356 0.30322 0.0
O888 O 0.23994 0.45977 0.36063 0.0
O889 O 0.34038 0.46768 0.35124 0.0
O890 O 1.01903 0.19474 0.40312 0.0
O891 O 0.17518 0.29195 0.36443 0.0
O892 O 0.14048 0.33061 0.46151 0.0
O893 O 0.02692 0.2877 0.44034 0.0
O894 O 0.09466 0.21738 0.40622 0.0
O895 O 0.98695 0.20737 0.32138 0.0
C896 C 0.1774 0.44449 0.37192 0.0
C897 C 0.39988 0.5955 0.38644 0.0
C898 C 0.52884 0.68163 0.39956 0.0
C899 C 0.47098 0.63023 0.36541 0.0
C900 C 0.51389 0.69463 0.45306 0.0
C901 C 0.39248 0.62458 0.43673 0.0
C902 C 0.44716 0.66999 0.46989 0.0
C903 C 0.17829 0.33767 0.2626 0.0
C904 C 0.33796 0.51871 0.37543 0.0
C905 C 0.53441 0.38774 0.49102 0.0
C906 C 0.5042 0.32226 0.45955 0.0
C907 C 0.15443 0.2352 0.38785 0.0
C908 C 0.96285 0.09533 0.35087 0.0
C909 C 0.91153 0.04319 0.38282 0.0
C910 C 0.86045 0.98649 0.3545 0.0
C911 C 0.86452 0.98118 0.29667 0.0
C912 C 0.97521 0.07936 0.29834 0.0
C913 C 0.92415 0.02558 0.26917 0.0
C914 C 0.07118 0.30044 0.48256 0.0
C915 C 0.97893 0.16534 0.36205 0.0
H916 H 0.48154 0.61585 0.32513 0.0
H917 H 0.55413 0.73215 0.47967 0.0
H918 H 0.34703 0.59817 0.46074 0.0
H919 H 0.43721 0.68421 0.51055 0.0
H920 H 0.90441 0.05156 0.42632 0.0
H921 H 0.82587 0.93914 0.2738 0.0
H922 H 1.02011 0.11305 0.27778 0.0
H923 H 0.93207 0.01681 0.22621 0.0
Eu924 Eu 0.89309 0.24837 0.90622 0.0
C925 C 0.66197 0.97836 0.78088 0.0
C926 C 0.5751 0.88929 0.83804 0.0
C927 C 0.55583 0.88888 0.7401 0.0
C928 C 0.64291 0.94533 0.83124 0.0
C929 C 0.61062 0.95709 0.73955 0.0
C930 C 0.53809 0.85348 0.79074 0.0
C931 C 0.64859 0.07667 0.72322 0.0
N932 N 0.7126 0.04516 0.78541 0.0
C933 C 0.70313 0.09452 0.75911 0.0
C934 C 0.60279 1.00816 0.71332 0.0
Eu935 Eu 0.79456 0.06453 0.86035 0.0
N936 N 0.67463 0.9894 0.87349 0.0
C937 C 0.63441 0.99921 0.90992 0.0
C938 C 0.53902 0.88811 0.88598 0.0
C939 C 0.56694 0.94671 0.91962 0.0
H940 H 0.73575 0.14855 0.76679 0.0
H941 H 0.53626 0.95268 0.95141 0.0
H942 H 0.48803 0.80767 0.7946 0.0
H943 H 0.63918 0.11586 0.70631 0.0
H944 H 0.65697 0.04651 0.93204 0.0
H945 H 0.11987 0.27508 0.83341 0.0
H946 H 0.48558 0.84908 0.89158 0.0
H947 H 0.88566 0.29687 0.10821 0.0
H948 H 1.00807 0.27483 0.79908 0.0
H949 H 0.93653 0.42747 0.12583 0.0
H950 H 0.51915 0.8686 0.70633 0.0
H951 H 0.20902 0.35761 0.91125 0.0
H952 H 0.19358 0.44773 0.96168 0.0
H953 H 0.55566 0.99629 0.69282 0.0
H954 H 0.12188 0.50306 0.01465 0.0
N955 N 1.00961 0.35368 0.86648 0.0
C956 C 0.02687 0.29621 0.83975 0.0
C957 C 0.15758 0.34891 0.91693 0.0
C958 C 0.15163 0.41873 0.95105 0.0
C959 C 0.09943 0.29329 0.86489 0.0
C960 C 0.08151 0.4265 0.93605 0.0
H961 H 0.04475 0.52503 0.07946 0.0
N962 N 0.99751 0.30406 0.01959 0.0
C963 C 0.96858 0.41326 0.10255 0.0
C964 C 0.08055 0.39298 -0.00172 0.0
C965 C 0.93586 0.32935 0.0881 0.0
C966 C 0.03997 0.47598 0.07287 0.0
C967 C 0.09521 0.47026 0.02256 0.0
O968 O 0.8178 0.28403 0.9149 0.0
O969 O 0.78256 0.14837 0.90054 0.0
O970 O 0.82018 0.10559 0.77577 0.0
O971 O 0.89138 0.2205 0.80245 0.0
O972 O 0.79581 0.23124 0.85962 0.0
O973 O 0.8879 0.33129 0.85109 0.0
O974 O 0.83798 1.00878 0.90155 0.0
O975 O 0.89841 0.166 0.86342 0.0
O976 O 0.82491 0.13076 0.96065 0.0
O977 O 0.75399 0.01738 0.9383 0.0
O978 O 0.89248 0.08503 0.90434 0.0
O979 O 0.79651 0.97916 0.81859 0.0
C980 C 0.74809 0.16871 0.87043 0.0
C981 C 0.81946 0.3904 0.88694 0.0
C982 C 0.86219 0.51926 0.90032 0.0
C983 C 0.85571 0.46152 0.86602 0.0
C984 C 0.83433 0.50419 0.95386 0.0
C985 C 0.78316 0.38281 0.93743 0.0
C986 C 0.7925 0.43743 0.97073 0.0
C987 C 0.85577 0.16971 0.76165 0.0
C988 C 0.83445 0.32867 0.87549 0.0
C989 C 0.1615 0.52507 -0.0088 0.0
C990 C 0.19709 0.49518 0.95964 0.0
C991 C 0.93444 0.14503 0.88646 0.0
C992 C 0.88354 0.95408 0.85007 0.0
C993 C 0.88307 0.90222 0.88219 0.0
C994 C 0.88882 0.851 0.85414 0.0
C995 C 0.89952 0.85549 0.79648 0.0
C996 C 0.91414 0.96709 0.79839 0.0
C997 C 0.91647 0.91579 0.76921 0.0
C998 C 0.7855 0.06113 -0.01893 0.0
C999 C 0.82911 0.97006 0.85984 0.0
H1000 H 0.88056 0.47219 0.82568 0.0
H1001 H 0.83698 0.54435 -0.01947 0.0
H1002 H 0.76368 0.33699 0.96128 0.0
H1003 H 0.76849 0.42741 0.01145 0.0
H1004 H 0.86664 0.89494 0.92546 0.0
H1005 H 0.90384 0.81711 0.77398 0.0
H1006 H 0.92794 1.01293 0.7783 0.0
H1007 H 0.93455 0.92419 0.72661 0.0
loop_
_geom_bond_atom_site_label_1
_geom_bond_atom_site_label_2
_geom_bond_distance
_geom_bond_site_symmetry_2
_ccdc_geom_bond_type
Eu0 N31 2.657 . S
Eu0 N38 2.609 1_554 S
Eu0 O44 2.558 1_554 S
Eu0 O45 2.612 . S
Eu0 O47 2.339 . S
Eu0 O48 2.563 . S
Eu0 O49 2.419 . S
Eu0 O51 2.380 . S
Eu0 O52 2.432 1_554 S
Eu0 C64 2.848 . S
C1 C4 1.429 . S
C1 C5 1.411 . S
C1 N8 1.377 . S
C2 C4 1.420 . S
C2 C6 1.423 . S
C2 C14 1.392 . S
C3 C5 1.420 . S
C3 C6 1.351 . S
C3 H26 0.931 . S
C4 C1 1.429 . S
C4 C2 1.420 . S
C4 N12 1.362 . S
C5 C1 1.411 . S
C5 C3 1.420 . S
C5 C10 1.395 . S
C6 C2 1.423 . S
C6 C3 1.351 . S
C6 H18 0.930 . S
C7 C9 1.400 . S
C7 C10 1.386 . S
C7 H19 0.930 . S
N8 C1 1.377 . S
N8 C9 1.321 . S
N8 Eu11 2.609 . S
C9 C7 1.400 . S
C9 N8 1.321 . S
C9 H16 0.930 . S
C10 C5 1.395 . S
C10 C7 1.386 . S
C10 H29 0.930 . S
Eu11 N8 2.609 . S
Eu11 N12 2.657 . S
Eu11 O45 2.380 . S
Eu11 O46 2.432 . S
Eu11 O50 2.558 . S
Eu11 O51 2.612 . S
Eu11 O53 2.339 . S
Eu11 O54 2.563 . S
Eu11 O55 2.419 . S
Eu11 C75 2.848 . S
N12 C4 1.362 . S
N12 Eu11 2.657 . S
N12 C13 1.334 . S
C13 N12 1.334 . S
C13 C15 1.413 . S
C13 H20 0.929 . S
C14 C2 1.392 . S
C14 C15 1.367 . S
C14 H22 0.930 . S
C15 C13 1.413 . S
C15 C14 1.367 . S
C15 H17 0.930 . S
H16 C9 0.930 . S
H17 C15 0.930 . S
H18 C6 0.930 . S
H19 C7 0.930 . S
H20 C13 0.929 . S
H21 C35 0.930 . S
H22 C14 0.930 . S
H23 C41 0.930 . S
H24 C32 0.929 1_455 S
H25 C39 0.930 . S
H26 C3 0.931 . S
H27 C33 0.930 . S
H28 C66 0.930 . S
H29 C10 0.930 . S
H30 C65 0.931 . S
N31 Eu0 2.657 . S
N31 C32 1.334 1_455 S
N31 C36 1.362 1_455 S
C32 H24 0.929 1_655 S
C32 N31 1.334 1_655 S
C32 C35 1.413 . S
C33 H27 0.930 . S
C33 C34 1.392 . S
C33 C35 1.367 . S
C34 C33 1.392 . S
C34 C36 1.420 . S
C34 C66 1.423 1_554 S
C35 H21 0.930 . S
C35 C32 1.413 . S
C35 C33 1.367 . S
C36 N31 1.362 1_655 S
C36 C34 1.420 . S
C36 C40 1.429 1_554 S
H37 C42 0.930 . S
N38 Eu0 2.609 1_556 S
N38 C40 1.377 1_455 S
N38 C41 1.321 . S
C39 H25 0.930 . S
C39 C41 1.400 . S
C39 C42 1.386 1_455 S
C40 C36 1.429 1_556 S
C40 N38 1.377 1_655 S
C40 C43 1.411 . S
C41 H23 0.930 . S
C41 N38 1.321 . S
C41 C39 1.400 . S
C42 H37 0.930 . S
C42 C39 1.386 1_655 S
C42 C43 1.395 . S
C43 C40 1.411 . S
C43 C42 1.395 . S
C43 C65 1.420 . S
O44 Eu0 2.558 1_556 S
O44 C64 1.257 1_556 S
O45 Eu0 2.612 . S
O45 Eu11 2.380 . S
O45 C56 1.276 . S
O46 Eu11 2.432 . S
O46 C63 1.264 . S
O47 Eu0 2.339 . S
O47 C63 1.254 . S
O48 Eu0 2.563 . S
O48 C56 1.235 . S
O49 Eu0 2.419 . S
O49 C64 1.249 . S
O50 Eu11 2.558 . S
O50 C75 1.257 . S
O51 Eu0 2.380 . S
O51 Eu11 2.612 . S
O51 C67 1.276 . S
O52 Eu0 2.432 1_556 S
O52 C74 1.264 . S
O53 Eu11 2.339 . S
O53 C74 1.254 1_554 S
O54 Eu11 2.563 . S
O54 C67 1.235 . S
O55 Eu11 2.419 . S
O55 C75 1.249 . S
C56 O45 1.276 . S
C56 O48 1.235 . S
C57 C59 1.393 . S
C57 C61 1.395 1_554 S
C57 C64 1.492 . S
C58 C59 1.392 . S
C58 C60 1.386 . S
C59 C57 1.393 . S
C59 C58 1.392 . S
C59 H76 0.930 . S
C60 C58 1.386 . S
C60 C62 1.395 1_554 S
C60 H77 0.928 1_554 S
C61 C57 1.395 1_556 S
C61 C62 1.379 . S
C61 H78 0.930 . S
C62 C60 1.395 1_556 S
C62 C61 1.379 . S
C62 H79 0.930 . S
C63 O46 1.264 . S
C63 O47 1.254 . S
C64 Eu0 2.848 . S
C64 O44 1.257 1_554 S
C64 O49 1.249 . S
C64 C57 1.492 . S
C65 H30 0.931 . S
C65 C43 1.420 . S
C65 C66 1.351 . S
C66 H28 0.930 . S
C66 C34 1.423 1_556 S
C66 C65 1.351 . S
C67 O51 1.276 . S
C67 O54 1.235 . S
C68 C69 1.393 . S
C68 C72 1.395 . S
C68 C75 1.492 . S
C69 C68 1.393 . S
C69 C70 1.392 1_545 S
C69 H80 0.930 . S
C70 C69 1.392 1_565 S
C70 C71 1.386 . S
C71 C70 1.386 . S
C71 C73 1.395 1_565 S
C71 H81 0.930 . S
C72 C68 1.395 . S
C72 C73 1.379 . S
C72 H82 0.930 . S
C73 C71 1.395 1_545 S
C73 C72 1.379 . S
C73 H83 0.930 . S
C74 O52 1.264 . S
C74 O53 1.254 1_556 S
C75 Eu11 2.848 . S
C75 O50 1.257 . S
C75 O55 1.249 . S
C75 C68 1.492 . S
H76 C59 0.930 . S
H77 C60 0.928 1_556 S
H78 C61 0.930 . S
H79 C62 0.930 . S
H80 C69 0.930 . S
H81 C71 0.930 . S
H82 C72 0.930 . S
H83 C73 0.930 . S
Eu84 N115 2.657 . S
Eu84 N122 2.609 . S
Eu84 O128 2.558 . S
Eu84 O129 2.612 . S
Eu84 O131 2.339 . S
Eu84 O132 2.563 . S
Eu84 O133 2.419 . S
Eu84 O135 2.380 . S
Eu84 O136 2.432 . S
Eu84 C148 2.848 . S
C85 C88 1.429 . S
C85 C89 1.411 . S
C85 N92 1.377 1_455 S
C86 C88 1.420 . S
C86 C90 1.423 . S
C86 C98 1.392 . S
C87 C89 1.420 . S
C87 C90 1.351 . S
C87 H110 0.931 . S
C88 C85 1.429 . S
C88 C86 1.420 . S
C88 N96 1.362 . S
C89 C85 1.411 . S
C89 C87 1.420 . S
C89 C94 1.395 . S
C90 C86 1.423 . S
C90 C87 1.351 . S
C90 H102 0.930 . S
C91 C93 1.399 1_455 S
C91 C94 1.386 . S
C91 H103 0.930 1_455 S
N92 C85 1.377 1_655 S
N92 C93 1.321 . S
N92 Eu95 2.609 . S
C93 C91 1.399 1_655 S
C93 N92 1.321 . S
C93 H100 0.930 . S
C94 C89 1.395 . S
C94 C91 1.386 . S
C94 H113 0.930 . S
Eu95 N92 2.609 . S
Eu95 N96 2.657 1_655 S
Eu95 O129 2.380 . S
Eu95 O130 2.432 . S
Eu95 O134 2.558 1_655 S
Eu95 O135 2.612 . S
Eu95 O137 2.339 . S
Eu95 O138 2.563 . S
Eu95 O139 2.419 1_655 S
Eu95 C159 2.848 1_655 S
N96 C88 1.362 . S
N96 Eu95 2.657 1_455 S
N96 C97 1.334 . S
C97 N96 1.334 . S
C97 C99 1.413 . S
C97 H104 0.929 . S
C98 C86 1.392 . S
C98 C99 1.367 . S
C98 H106 0.930 . S
C99 C97 1.413 . S
C99 C98 1.367 . S
C99 H101 0.930 . S
H100 C93 0.930 . S
H101 C99 0.930 . S
H102 C90 0.930 . S
H103 C91 0.930 1_655 S
H104 C97 0.929 . S
H105 C119 0.930 . S
H106 C98 0.930 . S
H107 C125 0.930 . S
H108 C116 0.929 1_545 S
H109 C123 0.930 . S
H110 C87 0.931 . S
H111 C117 0.930 . S
H112 C150 0.930 . S
H113 C94 0.930 . S
H114 C149 0.931 . S
N115 Eu84 2.657 . S
N115 C116 1.334 1_545 S
N115 C120 1.362 1_545 S
C116 H108 0.929 1_565 S
C116 N115 1.334 1_565 S
C116 C119 1.413 . S
C117 H111 0.930 . S
C117 C118 1.392 . S
C117 C119 1.367 . S
C118 C117 1.392 . S
C118 C120 1.420 . S
C118 C150 1.423 . S
C119 H105 0.930 . S
C119 C116 1.413 . S
C119 C117 1.367 . S
C120 N115 1.362 1_565 S
C120 C118 1.420 . S
C120 C124 1.429 . S
H121 C126 0.930 . S
N122 Eu84 2.609 . S
N122 C124 1.377 1_545 S
N122 C125 1.321 . S
C123 H109 0.930 . S
C123 C125 1.400 . S
C123 C126 1.386 1_545 S
C124 C120 1.429 . S
C124 N122 1.377 1_565 S
C124 C127 1.411 . S
C125 H107 0.930 . S
C125 N122 1.321 . S
C125 C123 1.400 . S
C126 H121 0.930 . S
C126 C123 1.386 1_565 S
C126 C127 1.395 . S
C127 C124 1.411 . S
C127 C126 1.395 . S
C127 C149 1.420 . S
O128 Eu84 2.558 . S
O128 C148 1.257 . S
O129 Eu84 2.612 . S
O129 Eu95 2.380 . S
O129 C140 1.276 . S
O130 Eu95 2.432 . S
O130 C147 1.264 . S
O131 Eu84 2.339 . S
O131 C147 1.254 . S
O132 Eu84 2.563 . S
O132 C140 1.235 . S
O133 Eu84 2.419 . S
O133 C148 1.249 . S
O134 Eu95 2.558 1_455 S
O134 C159 1.257 . S
O135 Eu84 2.380 . S
O135 Eu95 2.612 . S
O135 C151 1.276 . S
O136 Eu84 2.432 . S
O136 C158 1.264 . S
O137 Eu95 2.339 . S
O137 C158 1.254 . S
O138 Eu95 2.563 . S
O138 C151 1.235 . S
O139 Eu95 2.419 1_455 S
O139 C159 1.249 . S
C140 O129 1.276 . S
C140 O132 1.235 . S
C141 C143 1.393 . S
C141 C145 1.395 . S
C141 C148 1.492 . S
C142 C143 1.392 . S
C142 C144 1.386 . S
C143 C141 1.393 . S
C143 C142 1.392 . S
C143 H160 0.930 . S
C144 C142 1.386 . S
C144 C146 1.395 . S
C144 H161 0.930 . S
C145 C141 1.395 . S
C145 C146 1.379 . S
C145 H162 0.930 . S
C146 C144 1.395 . S
C146 C145 1.379 . S
C146 H163 0.930 . S
C147 O130 1.264 . S
C147 O131 1.254 . S
C148 Eu84 2.848 . S
C148 O128 1.257 . S
C148 O133 1.249 . S
C148 C141 1.492 . S
C149 H114 0.931 . S
C149 C127 1.420 . S
C149 C150 1.351 . S
C150 H112 0.930 . S
C150 C118 1.423 . S
C150 C149 1.351 . S
C151 O135 1.276 . S
C151 O138 1.235 . S
C152 C153 1.393 . S
C152 C156 1.395 . S
C152 C159 1.492 . S
C153 C152 1.393 . S
C153 C154 1.392 . S
C153 H164 0.930 . S
C154 C153 1.392 . S
C154 C155 1.386 . S
C155 C154 1.386 . S
C155 C157 1.395 . S
C155 H165 0.930 . S
C156 C152 1.395 . S
C156 C157 1.379 . S
C156 H166 0.930 . S
C157 C155 1.395 . S
C157 C156 1.379 . S
C157 H167 0.930 . S
C158 O136 1.264 . S
C158 O137 1.254 . S
C159 Eu95 2.848 1_455 S
C159 O134 1.257 . S
C159 O139 1.249 . S
C159 C152 1.492 . S
H160 C143 0.930 . S
H161 C144 0.930 . S
H162 C145 0.930 . S
H163 C146 0.930 . S
H164 C153 0.930 . S
H165 C155 0.930 . S
H166 C156 0.930 . S
H167 C157 0.930 . S
Eu168 N199 2.657 . S
Eu168 N206 2.609 1_554 S
Eu168 O212 2.558 1_554 S
Eu168 O213 2.612 . S
Eu168 O215 2.339 . S
Eu168 O216 2.563 . S
Eu168 O217 2.419 . S
Eu168 O219 2.380 . S
Eu168 O220 2.432 1_554 S
Eu168 C232 2.848 . S
C169 C172 1.429 . S
C169 C173 1.411 . S
C169 N176 1.377 1_545 S
C170 C172 1.420 . S
C170 C174 1.423 . S
C170 C182 1.392 . S
C171 C173 1.420 . S
C171 C174 1.351 . S
C171 H194 0.931 . S
C172 C169 1.429 . S
C172 C170 1.420 . S
C172 N180 1.362 . S
C173 C169 1.411 . S
C173 C171 1.420 . S
C173 C178 1.395 . S
C174 C170 1.423 . S
C174 C171 1.351 . S
C174 H186 0.930 . S
C175 C177 1.398 1_545 S
C175 C178 1.388 . S
C175 H187 0.929 1_545 S
N176 C169 1.377 1_565 S
N176 C177 1.321 . S
N176 Eu179 2.609 . S
C177 C175 1.398 1_565 S
C177 N176 1.321 . S
C177 H184 0.930 . S
C178 C173 1.395 . S
C178 C175 1.388 . S
C178 H197 0.930 . S
Eu179 N176 2.609 . S
Eu179 N180 2.657 1_565 S
Eu179 O213 2.380 . S
Eu179 O214 2.432 . S
Eu179 O218 2.558 1_565 S
Eu179 O219 2.612 . S
Eu179 O221 2.339 . S
Eu179 O222 2.563 . S
Eu179 O223 2.419 1_565 S
Eu179 C243 2.848 1_565 S
N180 C172 1.362 . S
N180 Eu179 2.657 1_545 S
N180 C181 1.334 . S
C181 N180 1.334 . S
C181 C183 1.413 . S
C181 H188 0.929 . S
C182 C170 1.392 . S
C182 C183 1.367 . S
C182 H190 0.930 . S
C183 C181 1.413 . S
C183 C182 1.367 . S
C183 H185 0.930 . S
H184 C177 0.930 . S
H185 C183 0.930 . S
H186 C174 0.930 . S
H187 C175 0.929 1_565 S
H188 C181 0.929 . S
H189 C203 0.930 . S
H190 C182 0.930 . S
H191 C209 0.930 . S
H192 C200 0.929 . S
H193 C207 0.930 . S
H194 C171 0.931 . S
H195 C201 0.930 . S
H196 C234 0.930 . S
H197 C178 0.930 . S
H198 C233 0.931 . S
N199 Eu168 2.657 . S
N199 C200 1.334 . S
N199 C204 1.362 . S
C200 H192 0.929 . S
C200 N199 1.334 . S
C200 C203 1.413 . S
C201 H195 0.930 . S
C201 C202 1.392 . S
C201 C203 1.367 . S
C202 C201 1.392 . S
C202 C204 1.420 . S
C202 C234 1.423 1_554 S
C203 H189 0.930 . S
C203 C200 1.413 . S
C203 C201 1.367 . S
C204 N199 1.362 . S
C204 C202 1.420 . S
C204 C208 1.429 1_554 S
H205 C210 0.930 . S
N206 Eu168 2.609 1_556 S
N206 C208 1.377 . S
N206 C209 1.321 . S
C207 H193 0.930 . S
C207 C209 1.400 . S
C207 C210 1.386 . S
C208 C204 1.429 1_556 S
C208 N206 1.377 . S
C208 C211 1.411 . S
C209 H191 0.930 . S
C209 N206 1.321 . S
C209 C207 1.400 . S
C210 H205 0.930 . S
C210 C207 1.386 . S
C210 C211 1.395 . S
C211 C208 1.411 . S
C211 C210 1.395 . S
C211 C233 1.420 . S
O212 Eu168 2.558 1_556 S
O212 C232 1.257 1_556 S
O213 Eu168 2.612 . S
O213 Eu179 2.380 . S
O213 C224 1.276 . S
O214 Eu179 2.432 . S
O214 C231 1.264 . S
O215 Eu168 2.339 . S
O215 C231 1.254 . S
O216 Eu168 2.563 . S
O216 C224 1.235 . S
O217 Eu168 2.419 . S
O217 C232 1.249 . S
O218 Eu179 2.558 1_545 S
O218 C243 1.257 . S
O219 Eu168 2.380 . S
O219 Eu179 2.612 . S
O219 C235 1.276 . S
O220 Eu168 2.432 1_556 S
O220 C242 1.264 . S
O221 Eu179 2.339 . S
O221 C242 1.254 1_554 S
O222 Eu179 2.563 . S
O222 C235 1.235 . S
O223 Eu179 2.419 1_545 S
O223 C243 1.249 . S
C224 O213 1.276 . S
C224 O216 1.235 . S
C225 C227 1.393 . S
C225 C229 1.395 1_554 S
C225 C232 1.492 . S
C226 C227 1.392 . S
C226 C228 1.386 . S
C227 C225 1.393 . S
C227 C226 1.392 . S
C227 H244 0.930 . S
C228 C226 1.386 . S
C228 C230 1.395 1_554 S
C228 H245 0.928 1_554 S
C229 C225 1.395 1_556 S
C229 C230 1.379 . S
C229 H246 0.930 . S
C230 C228 1.395 1_556 S
C230 C229 1.379 . S
C230 H247 0.930 . S
C231 O214 1.264 . S
C231 O215 1.254 . S
C232 Eu168 2.848 . S
C232 O212 1.257 1_554 S
C232 O217 1.249 . S
C232 C225 1.492 . S
C233 H198 0.931 . S
C233 C211 1.420 . S
C233 C234 1.351 . S
C234 H196 0.930 . S
C234 C202 1.423 1_556 S
C234 C233 1.351 . S
C235 O219 1.276 . S
C235 O222 1.235 . S
C236 C237 1.393 . S
C236 C240 1.395 . S
C236 C243 1.492 . S
C237 C236 1.393 . S
C237 C238 1.392 1_655 S
C237 H248 0.930 . S
C238 C237 1.392 1_455 S
C238 C239 1.386 . S
C239 C238 1.386 . S
C239 C241 1.395 1_455 S
C239 H249 0.930 . S
C240 C236 1.395 . S
C240 C241 1.379 . S
C240 H250 0.930 . S
C241 C239 1.395 1_655 S
C241 C240 1.379 . S
C241 H251 0.930 . S
C242 O220 1.264 . S
C242 O221 1.254 1_556 S
C243 Eu179 2.848 1_545 S
C243 O218 1.257 . S
C243 O223 1.249 . S
C243 C236 1.492 . S
H244 C227 0.930 . S
H245 C228 0.928 1_556 S
H246 C229 0.930 . S
H247 C230 0.930 . S
H248 C237 0.930 . S
H249 C239 0.930 . S
H250 C240 0.930 . S
H251 C241 0.930 . S
Eu252 N283 2.657 . S
Eu252 N290 2.609 . S
Eu252 O296 2.558 . S
Eu252 O297 2.612 . S
Eu252 O299 2.339 . S
Eu252 O300 2.563 . S
Eu252 O301 2.419 . S
Eu252 O303 2.380 . S
Eu252 O304 2.432 . S
Eu252 C316 2.848 . S
C253 C256 1.429 . S
C253 C257 1.411 . S
C253 N260 1.377 . S
C254 C256 1.420 . S
C254 C258 1.423 . S
C254 C266 1.392 . S
C255 C257 1.420 . S
C255 C258 1.351 . S
C255 H278 0.931 . S
C256 C253 1.429 . S
C256 C254 1.420 . S
C256 N264 1.362 . S
C257 C253 1.411 . S
C257 C255 1.420 . S
C257 C262 1.395 . S
C258 C254 1.423 . S
C258 C255 1.351 . S
C258 H270 0.930 . S
C259 C261 1.400 . S
C259 C262 1.386 . S
C259 H271 0.930 . S
N260 C253 1.377 . S
N260 C261 1.321 . S
N260 Eu263 2.609 . S
C261 C259 1.400 . S
C261 N260 1.321 . S
C261 H268 0.930 . S
C262 C257 1.395 . S
C262 C259 1.386 . S
C262 H281 0.930 . S
Eu263 N260 2.609 . S
Eu263 N264 2.657 . S
Eu263 O297 2.380 . S
Eu263 O298 2.432 . S
Eu263 O302 2.558 . S
Eu263 O303 2.612 . S
Eu263 O305 2.339 . S
Eu263 O306 2.563 . S
Eu263 O307 2.419 . S
Eu263 C327 2.848 . S
N264 C256 1.362 . S
N264 Eu263 2.657 . S
N264 C265 1.334 . S
C265 N264 1.334 . S
C265 C267 1.413 . S
C265 H272 0.929 . S
C266 C254 1.392 . S
C266 C267 1.367 . S
C266 H274 0.930 . S
C267 C265 1.413 . S
C267 C266 1.367 . S
C267 H269 0.930 . S
H268 C261 0.930 . S
H269 C267 0.930 . S
H270 C258 0.930 . S
H271 C259 0.930 . S
H272 C265 0.929 . S
H273 C287 0.930 . S
H274 C266 0.930 . S
H275 C293 0.930 . S
H276 C284 0.929 1_655 S
H277 C291 0.930 . S
H278 C255 0.931 . S
H279 C285 0.930 . S
H280 C318 0.930 . S
H281 C262 0.930 . S
H282 C317 0.931 . S
N283 Eu252 2.657 . S
N283 C284 1.334 1_655 S
N283 C288 1.362 1_655 S
C284 H276 0.929 1_455 S
C284 N283 1.334 1_455 S
C284 C287 1.413 . S
C285 H279 0.930 . S
C285 C286 1.392 . S
C285 C287 1.367 . S
C286 C285 1.392 . S
C286 C288 1.420 . S
C286 C318 1.423 . S
C287 H273 0.930 . S
C287 C284 1.413 . S
C287 C285 1.367 . S
C288 N283 1.362 1_455 S
C288 C286 1.420 . S
C288 C292 1.429 . S
H289 C294 0.930 . S
N290 Eu252 2.609 . S
N290 C292 1.377 1_655 S
N290 C293 1.321 . S
C291 H277 0.930 . S
C291 C293 1.400 . S
C291 C294 1.386 1_655 S
C292 C288 1.429 . S
C292 N290 1.377 1_455 S
C292 C295 1.411 . S
C293 H275 0.930 . S
C293 N290 1.321 . S
C293 C291 1.400 . S
C294 H289 0.930 . S
C294 C291 1.386 1_455 S
C294 C295 1.395 . S
C295 C292 1.411 . S
C295 C294 1.395 . S
C295 C317 1.420 . S
O296 Eu252 2.558 . S
O296 C316 1.257 . S
O297 Eu252 2.612 . S
O297 Eu263 2.380 . S
O297 C308 1.276 . S
O298 Eu263 2.432 . S
O298 C315 1.264 . S
O299 Eu252 2.339 . S
O299 C315 1.254 . S
O300 Eu252 2.563 . S
O300 C308 1.235 . S
O301 Eu252 2.419 . S
O301 C316 1.249 . S
O302 Eu263 2.558 . S
O302 C327 1.257 . S
O303 Eu252 2.380 . S
O303 Eu263 2.612 . S
O303 C319 1.276 . S
O304 Eu252 2.432 . S
O304 C326 1.264 . S
O305 Eu263 2.339 . S
O305 C326 1.254 . S
O306 Eu263 2.563 . S
O306 C319 1.235 . S
O307 Eu263 2.419 . S
O307 C327 1.249 . S
C308 O297 1.276 . S
C308 O300 1.235 . S
C309 C311 1.393 . S
C309 C313 1.395 . S
C309 C316 1.492 . S
C310 C311 1.392 . S
C310 C312 1.386 . S
C311 C309 1.393 . S
C311 C310 1.392 . S
C311 H328 0.930 . S
C312 C310 1.386 . S
C312 C314 1.395 . S
C312 H329 0.930 . S
C313 C309 1.395 . S
C313 C314 1.379 . S
C313 H330 0.930 . S
C314 C312 1.395 . S
C314 C313 1.379 . S
C314 H331 0.930 . S
C315 O298 1.264 . S
C315 O299 1.254 . S
C316 Eu252 2.848 . S
C316 O296 1.257 . S
C316 O301 1.249 . S
C316 C309 1.492 . S
C317 H282 0.931 . S
C317 C295 1.420 . S
C317 C318 1.351 . S
C318 H280 0.930 . S
C318 C286 1.423 . S
C318 C317 1.351 . S
C319 O303 1.276 . S
C319 O306 1.235 . S
C320 C321 1.393 . S
C320 C324 1.395 . S
C320 C327 1.492 . S
C321 C320 1.393 . S
C321 C322 1.392 1_565 S
C321 H332 0.930 . S
C322 C321 1.392 1_545 S
C322 C323 1.386 . S
C323 C322 1.386 . S
C323 C325 1.395 1_545 S
C323 H333 0.930 . S
C324 C320 1.395 . S
C324 C325 1.379 . S
C324 H334 0.930 . S
C325 C323 1.395 1_565 S
C325 C324 1.379 . S
C325 H335 0.930 . S
C326 O304 1.264 . S
C326 O305 1.254 . S
C327 Eu263 2.848 . S
C327 O302 1.257 . S
C327 O307 1.249 . S
C327 C320 1.492 . S
H328 C311 0.930 . S
H329 C312 0.930 . S
H330 C313 0.930 . S
H331 C314 0.930 . S
H332 C321 0.930 . S
H333 C323 0.930 . S
H334 C324 0.930 . S
H335 C325 0.930 . S
Eu336 N367 2.657 . S
Eu336 N374 2.609 1_554 S
Eu336 O380 2.558 1_554 S
Eu336 O381 2.612 . S
Eu336 O383 2.339 . S
Eu336 O384 2.563 . S
Eu336 O385 2.419 . S
Eu336 O387 2.380 . S
Eu336 O388 2.432 1_554 S
Eu336 C400 2.848 . S
C337 C340 1.429 . S
C337 C341 1.411 . S
C337 N344 1.377 1_655 S
C338 C340 1.420 . S
C338 C342 1.423 . S
C338 C350 1.392 . S
C339 C341 1.420 . S
C339 C342 1.351 . S
C339 H362 0.931 . S
C340 C337 1.429 . S
C340 C338 1.420 . S
C340 N348 1.362 . S
C341 C337 1.411 . S
C341 C339 1.420 . S
C341 C346 1.395 . S
C342 C338 1.423 . S
C342 C339 1.351 . S
C342 H354 0.930 . S
C343 C345 1.399 1_655 S
C343 C346 1.386 . S
C343 H355 0.930 1_655 S
N344 C337 1.377 1_455 S
N344 C345 1.321 . S
N344 Eu347 2.609 . S
C345 C343 1.399 1_455 S
C345 N344 1.321 . S
C345 H352 0.930 . S
C346 C341 1.395 . S
C346 C343 1.386 . S
C346 H365 0.930 . S
Eu347 N344 2.609 . S
Eu347 N348 2.657 1_455 S
Eu347 O381 2.380 . S
Eu347 O382 2.432 . S
Eu347 O386 2.558 1_455 S
Eu347 O387 2.612 . S
Eu347 O389 2.339 . S
Eu347 O390 2.563 . S
Eu347 O391 2.419 1_455 S
Eu347 C411 2.848 1_455 S
N348 C340 1.362 . S
N348 Eu347 2.657 1_655 S
N348 C349 1.334 . S
C349 N348 1.334 . S
C349 C351 1.413 . S
C349 H356 0.929 . S
C350 C338 1.392 . S
C350 C351 1.367 . S
C350 H358 0.930 . S
C351 C349 1.413 . S
C351 C350 1.367 . S
C351 H353 0.930 . S
H352 C345 0.930 . S
H353 C351 0.930 . S
H354 C342 0.930 . S
H355 C343 0.930 1_455 S
H356 C349 0.929 . S
H357 C371 0.930 . S
H358 C350 0.930 . S
H359 C377 0.930 . S
H360 C368 0.929 1_565 S
H361 C375 0.930 . S
H362 C339 0.931 . S
H363 C369 0.930 . S
H364 C402 0.930 . S
H365 C346 0.930 . S
H366 C401 0.931 . S
N367 Eu336 2.657 . S
N367 C368 1.334 1_565 S
N367 C372 1.362 1_565 S
C368 H360 0.929 1_545 S
C368 N367 1.334 1_545 S
C368 C371 1.413 . S
C369 H363 0.930 . S
C369 C370 1.392 . S
C369 C371 1.367 . S
C370 C369 1.392 . S
C370 C372 1.420 . S
C370 C402 1.423 1_554 S
C371 H357 0.930 . S
C371 C368 1.413 . S
C371 C369 1.367 . S
C372 N367 1.362 1_545 S
C372 C370 1.420 . S
C372 C376 1.429 1_554 S
H373 C378 0.930 . S
N374 Eu336 2.609 1_556 S
N374 C376 1.377 1_565 S
N374 C377 1.321 . S
C375 H361 0.930 . S
C375 C377 1.400 . S
C375 C378 1.386 1_565 S
C376 C372 1.429 1_556 S
C376 N374 1.377 1_545 S
C376 C379 1.411 . S
C377 H359 0.930 . S
C377 N374 1.321 . S
C377 C375 1.400 . S
C378 H373 0.930 . S
C378 C375 1.386 1_545 S
C378 C379 1.395 . S
C379 C376 1.411 . S
C379 C378 1.395 . S
C379 C401 1.420 . S
O380 Eu336 2.558 1_556 S
O380 C400 1.257 1_556 S
O381 Eu336 2.612 . S
O381 Eu347 2.380 . S
O381 C392 1.276 . S
O382 Eu347 2.432 . S
O382 C399 1.264 . S
O383 Eu336 2.339 . S
O383 C399 1.254 . S
O384 Eu336 2.563 . S
O384 C392 1.235 . S
O385 Eu336 2.419 . S
O385 C400 1.249 . S
O386 Eu347 2.558 1_655 S
O386 C411 1.257 . S
O387 Eu336 2.380 . S
O387 Eu347 2.612 . S
O387 C403 1.276 . S
O388 Eu336 2.432 1_556 S
O388 C410 1.264 . S
O389 Eu347 2.339 . S
O389 C410 1.254 1_554 S
O390 Eu347 2.563 . S
O390 C403 1.235 . S
O391 Eu347 2.419 1_655 S
O391 C411 1.249 . S
C392 O381 1.276 . S
C392 O384 1.235 . S
C393 C395 1.393 . S
C393 C397 1.395 1_554 S
C393 C400 1.492 . S
C394 C395 1.392 . S
C394 C396 1.386 . S
C395 C393 1.393 . S
C395 C394 1.392 . S
C395 H412 0.930 . S
C396 C394 1.386 . S
C396 C398 1.395 1_554 S
C396 H413 0.928 1_554 S
C397 C393 1.395 1_556 S
C397 C398 1.379 . S
C397 H414 0.930 . S
C398 C396 1.395 1_556 S
C398 C397 1.379 . S
C398 H415 0.930 . S
C399 O382 1.264 . S
C399 O383 1.254 . S
C400 Eu336 2.848 . S
C400 O380 1.257 1_554 S
C400 O385 1.249 . S
C400 C393 1.492 . S
C401 H366 0.931 . S
C401 C379 1.420 . S
C401 C402 1.351 . S
C402 H364 0.930 . S
C402 C370 1.423 1_556 S
C402 C401 1.351 . S
C403 O387 1.276 . S
C403 O390 1.235 . S
C404 C405 1.393 . S
C404 C408 1.395 . S
C404 C411 1.492 . S
C405 C404 1.393 . S
C405 C406 1.392 . S
C405 H416 0.930 . S
C406 C405 1.392 . S
C406 C407 1.386 . S
C407 C406 1.386 . S
C407 C409 1.395 . S
C407 H417 0.930 . S
C408 C404 1.395 . S
C408 C409 1.379 . S
C408 H418 0.930 . S
C409 C407 1.395 . S
C409 C408 1.379 . S
C409 H419 0.930 . S
C410 O388 1.264 . S
C410 O389 1.254 1_556 S
C411 Eu347 2.848 1_655 S
C411 O386 1.257 . S
C411 O391 1.249 . S
C411 C404 1.492 . S
H412 C395 0.930 . S
H413 C396 0.928 1_556 S
H414 C397 0.930 . S
H415 C398 0.930 . S
H416 C405 0.930 . S
H417 C407 0.930 . S
H418 C408 0.930 . S
H419 C409 0.930 . S
Eu420 N451 2.657 . S
Eu420 N458 2.609 . S
Eu420 O464 2.558 . S
Eu420 O465 2.612 . S
Eu420 O467 2.339 . S
Eu420 O468 2.563 . S
Eu420 O469 2.419 . S
Eu420 O471 2.380 . S
Eu420 O472 2.432 . S
Eu420 C484 2.848 . S
C421 C424 1.429 . S
C421 C425 1.411 . S
C421 N428 1.377 1_565 S
C422 C424 1.420 . S
C422 C426 1.423 . S
C422 C434 1.392 . S
C423 C425 1.420 . S
C423 C426 1.351 . S
C423 H446 0.931 . S
C424 C421 1.429 . S
C424 C422 1.420 . S
C424 N432 1.362 . S
C425 C421 1.411 . S
C425 C423 1.420 . S
C425 C430 1.395 . S
C426 C422 1.423 . S
C426 C423 1.351 . S
C426 H438 0.930 . S
C427 C429 1.398 1_565 S
C427 C430 1.388 . S
C427 H439 0.929 1_565 S
N428 C421 1.377 1_545 S
N428 C429 1.321 . S
N428 Eu431 2.609 . S
C429 C427 1.398 1_545 S
C429 N428 1.321 . S
C429 H436 0.930 . S
C430 C425 1.395 . S
C430 C427 1.388 . S
C430 H449 0.930 . S
Eu431 N428 2.609 . S
Eu431 N432 2.657 1_545 S
Eu431 O465 2.380 . S
Eu431 O466 2.432 . S
Eu431 O470 2.558 1_545 S
Eu431 O471 2.612 . S
Eu431 O473 2.339 . S
Eu431 O474 2.563 . S
Eu431 O475 2.419 1_545 S
Eu431 C495 2.848 1_545 S
N432 C424 1.362 . S
N432 Eu431 2.657 1_565 S
N432 C433 1.334 . S
C433 N432 1.334 . S
C433 C435 1.413 . S
C433 H440 0.929 . S
C434 C422 1.392 . S
C434 C435 1.367 . S
C434 H442 0.930 . S
C435 C433 1.413 . S
C435 C434 1.367 . S
C435 H437 0.930 . S
H436 C429 0.930 . S
H437 C435 0.930 . S
H438 C426 0.930 . S
H439 C427 0.929 1_545 S
H440 C433 0.929 . S
H441 C455 0.930 . S
H442 C434 0.930 . S
H443 C461 0.930 . S
H444 C452 0.929 . S
H445 C459 0.930 . S
H446 C423 0.931 . S
H447 C453 0.930 . S
H448 C486 0.930 . S
H449 C430 0.930 . S
H450 C485 0.931 . S
N451 Eu420 2.657 . S
N451 C452 1.334 . S
N451 C456 1.362 . S
C452 H444 0.929 . S
C452 N451 1.334 . S
C452 C455 1.413 . S
C453 H447 0.930 . S
C453 C454 1.392 . S
C453 C455 1.367 . S
C454 C453 1.392 . S
C454 C456 1.420 . S
C454 C486 1.423 . S
C455 H441 0.930 . S
C455 C452 1.413 . S
C455 C453 1.367 . S
C456 N451 1.362 . S
C456 C454 1.420 . S
C456 C460 1.429 . S
H457 C462 0.930 . S
N458 Eu420 2.609 . S
N458 C460 1.377 . S
N458 C461 1.321 . S
C459 H445 0.930 . S
C459 C461 1.400 . S
C459 C462 1.386 . S
C460 C456 1.429 . S
C460 N458 1.377 . S
C460 C463 1.411 . S
C461 H443 0.930 . S
C461 N458 1.321 . S
C461 C459 1.400 . S
C462 H457 0.930 . S
C462 C459 1.386 . S
C462 C463 1.395 . S
C463 C460 1.411 . S
C463 C462 1.395 . S
C463 C485 1.420 . S
O464 Eu420 2.558 . S
O464 C484 1.257 . S
O465 Eu420 2.612 . S
O465 Eu431 2.380 . S
O465 C476 1.276 . S
O466 Eu431 2.432 . S
O466 C483 1.264 . S
O467 Eu420 2.339 . S
O467 C483 1.254 . S
O468 Eu420 2.563 . S
O468 C476 1.235 . S
O469 Eu420 2.419 . S
O469 C484 1.249 . S
O470 Eu431 2.558 1_565 S
O470 C495 1.257 . S
O471 Eu420 2.380 . S
O471 Eu431 2.612 . S
O471 C487 1.276 . S
O472 Eu420 2.432 . S
O472 C494 1.264 . S
O473 Eu431 2.339 . S
O473 C494 1.254 . S
O474 Eu431 2.563 . S
O474 C487 1.235 . S
O475 Eu431 2.419 1_565 S
O475 C495 1.249 . S
C476 O465 1.276 . S
C476 O468 1.235 . S
C477 C479 1.393 . S
C477 C481 1.395 . S
C477 C484 1.492 . S
C478 C479 1.392 . S
C478 C480 1.386 . S
C479 C477 1.393 . S
C479 C478 1.392 . S
C479 H496 0.930 . S
C480 C478 1.386 . S
C480 C482 1.395 . S
C480 H497 0.930 . S
C481 C477 1.395 . S
C481 C482 1.379 . S
C481 H498 0.930 . S
C482 C480 1.395 . S
C482 C481 1.379 . S
C482 H499 0.930 . S
C483 O466 1.264 . S
C483 O467 1.254 . S
C484 Eu420 2.848 . S
C484 O464 1.257 . S
C484 O469 1.249 . S
C484 C477 1.492 . S
C485 H450 0.931 . S
C485 C463 1.420 . S
C485 C486 1.351 . S
C486 H448 0.930 . S
C486 C454 1.423 . S
C486 C485 1.351 . S
C487 O471 1.276 . S
C487 O474 1.235 . S
C488 C489 1.393 . S
C488 C492 1.395 . S
C488 C495 1.492 . S
C489 C488 1.393 . S
C489 C490 1.392 1_455 S
C489 H500 0.930 . S
C490 C489 1.392 1_655 S
C490 C491 1.386 . S
C491 C490 1.386 . S
C491 C493 1.395 1_655 S
C491 H501 0.930 . S
C492 C488 1.395 . S
C492 C493 1.379 . S
C492 H502 0.930 . S
C493 C491 1.395 1_455 S
C493 C492 1.379 . S
C493 H503 0.930 . S
C494 O472 1.264 . S
C494 O473 1.254 . S
C495 Eu431 2.848 1_565 S
C495 O470 1.257 . S
C495 O475 1.249 . S
C495 C488 1.492 . S
H496 C479 0.930 . S
H497 C480 0.930 . S
H498 C481 0.930 . S
H499 C482 0.930 . S
H500 C489 0.930 . S
H501 C491 0.930 . S
H502 C492 0.930 . S
H503 C493 0.930 . S
Eu504 N535 2.657 . S
Eu504 N542 2.609 . S
Eu504 O548 2.558 . S
Eu504 O549 2.612 . S
Eu504 O551 2.339 . S
Eu504 O552 2.563 . S
Eu504 O553 2.419 . S
Eu504 O555 2.380 . S
Eu504 O556 2.432 . S
Eu504 C568 2.848 . S
C505 C508 1.429 . S
C505 C509 1.411 . S
C505 N512 1.377 . S
C506 C508 1.420 . S
C506 C510 1.423 . S
C506 C518 1.392 . S
C507 C509 1.420 . S
C507 C510 1.351 . S
C507 H530 0.931 . S
C508 C505 1.429 . S
C508 C506 1.420 . S
C508 N516 1.362 . S
C509 C505 1.411 . S
C509 C507 1.420 . S
C509 C514 1.395 . S
C510 C506 1.423 . S
C510 C507 1.351 . S
C510 H522 0.930 . S
C511 C513 1.400 . S
C511 C514 1.386 . S
C511 H523 0.930 . S
N512 C505 1.377 . S
N512 C513 1.321 . S
N512 Eu515 2.609 . S
C513 C511 1.400 . S
C513 N512 1.321 . S
C513 H520 0.930 . S
C514 C509 1.395 . S
C514 C511 1.386 . S
C514 H533 0.930 . S
Eu515 N512 2.609 . S
Eu515 N516 2.657 . S
Eu515 O549 2.380 . S
Eu515 O550 2.432 . S
Eu515 O554 2.558 . S
Eu515 O555 2.612 . S
Eu515 O557 2.339 . S
Eu515 O558 2.563 . S
Eu515 O559 2.419 . S
Eu515 C579 2.848 . S
N516 C508 1.362 . S
N516 Eu515 2.657 . S
N516 C517 1.334 . S
C517 N516 1.334 . S
C517 C519 1.413 . S
C517 H524 0.929 . S
C518 C506 1.392 . S
C518 C519 1.367 . S
C518 H526 0.930 . S
C519 C517 1.413 . S
C519 C518 1.367 . S
C519 H521 0.930 . S
H520 C513 0.930 . S
H521 C519 0.930 . S
H522 C510 0.930 . S
H523 C511 0.930 . S
H524 C517 0.929 . S
H525 C539 0.930 . S
H526 C518 0.930 . S
H527 C545 0.930 . S
H528 C536 0.929 1_565 S
H529 C543 0.930 . S
H530 C507 0.931 . S
H531 C537 0.930 . S
H532 C570 0.930 . S
H533 C514 0.930 . S
H534 C569 0.931 . S
N535 Eu504 2.657 . S
N535 C536 1.334 1_565 S
N535 C540 1.362 1_565 S
C536 H528 0.929 1_545 S
C536 N535 1.334 1_545 S
C536 C539 1.413 . S
C537 H531 0.930 . S
C537 C538 1.392 . S
C537 C539 1.367 . S
C538 C537 1.392 . S
C538 C540 1.420 . S
C538 C570 1.423 . S
C539 H525 0.930 . S
C539 C536 1.413 . S
C539 C537 1.367 . S
C540 N535 1.362 1_545 S
C540 C538 1.420 . S
C540 C544 1.429 . S
H541 C546 0.930 . S
N542 Eu504 2.609 . S
N542 C544 1.377 1_565 S
N542 C545 1.321 . S
C543 H529 0.930 . S
C543 C545 1.400 . S
C543 C546 1.386 1_565 S
C544 C540 1.429 . S
C544 N542 1.377 1_545 S
C544 C547 1.411 . S
C545 H527 0.930 . S
C545 N542 1.321 . S
C545 C543 1.400 . S
C546 H541 0.930 . S
C546 C543 1.386 1_545 S
C546 C547 1.395 . S
C547 C544 1.411 . S
C547 C546 1.395 . S
C547 C569 1.420 . S
O548 Eu504 2.558 . S
O548 C568 1.257 . S
O549 Eu504 2.612 . S
O549 Eu515 2.380 . S
O549 C560 1.276 . S
O550 Eu515 2.432 . S
O550 C567 1.264 . S
O551 Eu504 2.339 . S
O551 C567 1.254 . S
O552 Eu504 2.563 . S
O552 C560 1.235 . S
O553 Eu504 2.419 . S
O553 C568 1.249 . S
O554 Eu515 2.558 . S
O554 C579 1.257 . S
O555 Eu504 2.380 . S
O555 Eu515 2.612 . S
O555 C571 1.276 . S
O556 Eu504 2.432 . S
O556 C578 1.264 . S
O557 Eu515 2.339 . S
O557 C578 1.254 . S
O558 Eu515 2.563 . S
O558 C571 1.235 . S
O559 Eu515 2.419 . S
O559 C579 1.249 . S
C560 O549 1.276 . S
C560 O552 1.235 . S
C561 C563 1.393 . S
C561 C565 1.395 . S
C561 C568 1.492 . S
C562 C563 1.392 . S
C562 C564 1.386 . S
C563 C561 1.393 . S
C563 C562 1.392 . S
C563 H580 0.930 . S
C564 C562 1.386 . S
C564 C566 1.395 . S
C564 H581 0.930 . S
C565 C561 1.395 . S
C565 C566 1.379 . S
C565 H582 0.930 . S
C566 C564 1.395 . S
C566 C565 1.379 . S
C566 H583 0.930 . S
C567 O550 1.264 . S
C567 O551 1.254 . S
C568 Eu504 2.848 . S
C568 O548 1.257 . S
C568 O553 1.249 . S
C568 C561 1.492 . S
C569 H534 0.931 . S
C569 C547 1.420 . S
C569 C570 1.351 . S
C570 H532 0.930 . S
C570 C538 1.423 . S
C570 C569 1.351 . S
C571 O555 1.276 . S
C571 O558 1.235 . S
C572 C573 1.393 . S
C572 C576 1.395 . S
C572 C579 1.492 . S
C573 C572 1.393 . S
C573 C574 1.392 1_655 S
C573 H584 0.930 . S
C574 C573 1.392 1_455 S
C574 C575 1.386 . S
C575 C574 1.386 . S
C575 C577 1.395 1_455 S
C575 H585 0.930 . S
C576 C572 1.395 . S
C576 C577 1.379 . S
C576 H586 0.930 . S
C577 C575 1.395 1_655 S
C577 C576 1.379 . S
C577 H587 0.930 . S
C578 O556 1.264 . S
C578 O557 1.254 . S
C579 Eu515 2.848 . S
C579 O554 1.257 . S
C579 O559 1.249 . S
C579 C572 1.492 . S
H580 C563 0.930 . S
H581 C564 0.930 . S
H582 C565 0.930 . S
H583 C566 0.930 . S
H584 C573 0.930 . S
H585 C575 0.930 . S
H586 C576 0.930 . S
H587 C577 0.930 . S
Eu588 N619 2.657 . S
Eu588 N626 2.609 1_556 S
Eu588 O632 2.558 1_556 S
Eu588 O633 2.612 . S
Eu588 O635 2.339 . S
Eu588 O636 2.563 . S
Eu588 O637 2.419 . S
Eu588 O639 2.380 . S
Eu588 O640 2.432 1_556 S
Eu588 C652 2.848 . S
C589 C592 1.429 . S
C589 C593 1.411 . S
C589 N596 1.377 1_455 S
C590 C592 1.420 . S
C590 C594 1.423 . S
C590 C602 1.392 . S
C591 C593 1.420 . S
C591 C594 1.351 . S
C591 H614 0.931 . S
C592 C589 1.429 . S
C592 C590 1.420 . S
C592 N600 1.362 . S
C593 C589 1.411 . S
C593 C591 1.420 . S
C593 C598 1.395 . S
C594 C590 1.423 . S
C594 C591 1.351 . S
C594 H606 0.930 . S
C595 C597 1.398 1_455 S
C595 C598 1.388 . S
C595 H607 0.929 1_455 S
N596 C589 1.377 1_655 S
N596 C597 1.321 . S
N596 Eu599 2.609 . S
C597 C595 1.398 1_655 S
C597 N596 1.321 . S
C597 H604 0.930 . S
C598 C593 1.395 . S
C598 C595 1.388 . S
C598 H617 0.930 . S
Eu599 N596 2.609 . S
Eu599 N600 2.657 1_655 S
Eu599 O633 2.380 . S
Eu599 O634 2.432 . S
Eu599 O638 2.558 1_655 S
Eu599 O639 2.612 . S
Eu599 O641 2.339 . S
Eu599 O642 2.563 . S
Eu599 O643 2.419 1_655 S
Eu599 C663 2.848 1_655 S
N600 C592 1.362 . S
N600 Eu599 2.657 1_455 S
N600 C601 1.334 . S
C601 N600 1.334 . S
C601 C603 1.413 . S
C601 H608 0.929 . S
C602 C590 1.392 . S
C602 C603 1.367 . S
C602 H610 0.930 . S
C603 C601 1.413 . S
C603 C602 1.367 . S
C603 H605 0.930 . S
H604 C597 0.930 . S
H605 C603 0.930 . S
H606 C594 0.930 . S
H607 C595 0.929 1_655 S
H608 C601 0.929 . S
H609 C623 0.930 . S
H610 C602 0.930 . S
H611 C629 0.930 . S
H612 C620 0.929 . S
H613 C627 0.930 . S
H614 C591 0.931 . S
H615 C621 0.930 . S
H616 C654 0.930 . S
H617 C598 0.930 . S
H618 C653 0.931 . S
N619 Eu588 2.657 . S
N619 C620 1.334 . S
N619 C624 1.362 . S
C620 H612 0.929 . S
C620 N619 1.334 . S
C620 C623 1.413 . S
C621 H615 0.930 . S
C621 C622 1.392 . S
C621 C623 1.367 . S
C622 C621 1.392 . S
C622 C624 1.420 . S
C622 C654 1.423 1_556 S
C623 H609 0.930 . S
C623 C620 1.413 . S
C623 C621 1.367 . S
C624 N619 1.362 . S
C624 C622 1.420 . S
C624 C628 1.429 1_556 S
H625 C630 0.930 . S
N626 Eu588 2.609 1_554 S
N626 C628 1.377 . S
N626 C629 1.321 . S
C627 H613 0.930 . S
C627 C629 1.400 . S
C627 C630 1.386 . S
C628 C624 1.429 1_554 S
C628 N626 1.377 . S
C628 C631 1.411 . S
C629 H611 0.930 . S
C629 N626 1.321 . S
C629 C627 1.400 . S
C630 H625 0.930 . S
C630 C627 1.386 . S
C630 C631 1.395 . S
C631 C628 1.411 . S
C631 C630 1.395 . S
C631 C653 1.420 . S
O632 Eu588 2.558 1_554 S
O632 C652 1.257 1_554 S
O633 Eu588 2.612 . S
O633 Eu599 2.380 . S
O633 C644 1.276 . S
O634 Eu599 2.432 . S
O634 C651 1.264 . S
O635 Eu588 2.339 . S
O635 C651 1.254 . S
O636 Eu588 2.563 . S
O636 C644 1.235 . S
O637 Eu588 2.419 . S
O637 C652 1.249 . S
O638 Eu599 2.558 1_455 S
O638 C663 1.257 . S
O639 Eu588 2.380 . S
O639 Eu599 2.612 . S
O639 C655 1.276 . S
O640 Eu588 2.432 1_554 S
O640 C662 1.264 . S
O641 Eu599 2.339 . S
O641 C662 1.254 1_556 S
O642 Eu599 2.563 . S
O642 C655 1.235 . S
O643 Eu599 2.419 1_455 S
O643 C663 1.249 . S
C644 O633 1.276 . S
C644 O636 1.235 . S
C645 C647 1.393 . S
C645 C649 1.395 1_556 S
C645 C652 1.492 . S
C646 C647 1.392 . S
C646 C648 1.386 . S
C647 C645 1.393 . S
C647 C646 1.392 . S
C647 H664 0.930 . S
C648 C646 1.386 . S
C648 C650 1.395 1_556 S
C648 H665 0.928 1_556 S
C649 C645 1.395 1_554 S
C649 C650 1.379 . S
C649 H666 0.930 . S
C650 C648 1.395 1_554 S
C650 C649 1.379 . S
C650 H667 0.930 . S
C651 O634 1.264 . S
C651 O635 1.254 . S
C652 Eu588 2.848 . S
C652 O632 1.257 1_556 S
C652 O637 1.249 . S
C652 C645 1.492 . S
C653 H618 0.931 . S
C653 C631 1.420 . S
C653 C654 1.351 . S
C654 H616 0.930 . S
C654 C622 1.423 1_554 S
C654 C653 1.351 . S
C655 O639 1.276 . S
C655 O642 1.235 . S
C656 C657 1.393 . S
C656 C660 1.395 . S
C656 C663 1.492 . S
C657 C656 1.393 . S
C657 C658 1.392 1_565 S
C657 H668 0.930 . S
C658 C657 1.392 1_545 S
C658 C659 1.386 . S
C659 C658 1.386 . S
C659 C661 1.395 1_545 S
C659 H669 0.930 . S
C660 C656 1.395 . S
C660 C661 1.379 . S
C660 H670 0.930 . S
C661 C659 1.395 1_565 S
C661 C660 1.379 . S
C661 H671 0.930 . S
C662 O640 1.264 . S
C662 O641 1.254 1_554 S
C663 Eu599 2.848 1_455 S
C663 O638 1.257 . S
C663 O643 1.249 . S
C663 C656 1.492 . S
H664 C647 0.930 . S
H665 C648 0.928 1_554 S
H666 C649 0.930 . S
H667 C650 0.930 . S
H668 C657 0.930 . S
H669 C659 0.930 . S
H670 C660 0.930 . S
H671 C661 0.930 . S
Eu672 N703 2.657 . S
Eu672 N710 2.609 . S
Eu672 O716 2.558 . S
Eu672 O717 2.612 . S
Eu672 O719 2.339 . S
Eu672 O720 2.563 . S
Eu672 O721 2.419 . S
Eu672 O723 2.380 . S
Eu672 O724 2.432 . S
Eu672 C736 2.848 . S
C673 C676 1.429 . S
C673 C677 1.411 . S
C673 N680 1.377 1_545 S
C674 C676 1.420 . S
C674 C678 1.423 . S
C674 C686 1.392 . S
C675 C677 1.420 . S
C675 C678 1.351 . S
C675 H698 0.931 . S
C676 C673 1.429 . S
C676 C674 1.420 . S
C676 N684 1.362 . S
C677 C673 1.411 . S
C677 C675 1.420 . S
C677 C682 1.395 . S
C678 C674 1.423 . S
C678 C675 1.351 . S
C678 H690 0.930 . S
C679 C681 1.399 1_545 S
C679 C682 1.386 . S
C679 H691 0.930 1_545 S
N680 C673 1.377 1_565 S
N680 C681 1.321 . S
N680 Eu683 2.609 . S
C681 C679 1.399 1_565 S
C681 N680 1.321 . S
C681 H688 0.930 . S
C682 C677 1.395 . S
C682 C679 1.386 . S
C682 H701 0.930 . S
Eu683 N680 2.609 . S
Eu683 N684 2.657 1_565 S
Eu683 O717 2.380 . S
Eu683 O718 2.432 . S
Eu683 O722 2.558 1_565 S
Eu683 O723 2.612 . S
Eu683 O725 2.339 . S
Eu683 O726 2.563 . S
Eu683 O727 2.419 1_565 S
Eu683 C747 2.848 1_565 S
N684 C676 1.362 . S
N684 Eu683 2.657 1_545 S
N684 C685 1.334 . S
C685 N684 1.334 . S
C685 C687 1.413 . S
C685 H692 0.929 . S
C686 C674 1.392 . S
C686 C687 1.367 . S
C686 H694 0.930 . S
C687 C685 1.413 . S
C687 C686 1.367 . S
C687 H689 0.930 . S
H688 C681 0.930 . S
H689 C687 0.930 . S
H690 C678 0.930 . S
H691 C679 0.930 1_565 S
H692 C685 0.929 . S
H693 C707 0.930 . S
H694 C686 0.930 . S
H695 C713 0.930 . S
H696 C704 0.929 1_455 S
H697 C711 0.930 . S
H698 C675 0.931 . S
H699 C705 0.930 . S
H700 C738 0.930 . S
H701 C682 0.930 . S
H702 C737 0.931 . S
N703 Eu672 2.657 . S
N703 C704 1.334 1_455 S
N703 C708 1.362 1_455 S
C704 H696 0.929 1_655 S
C704 N703 1.334 1_655 S
C704 C707 1.413 . S
C705 H699 0.930 . S
C705 C706 1.392 . S
C705 C707 1.367 . S
C706 C705 1.392 . S
C706 C708 1.420 . S
C706 C738 1.423 . S
C707 H693 0.930 . S
C707 C704 1.413 . S
C707 C705 1.367 . S
C708 N703 1.362 1_655 S
C708 C706 1.420 . S
C708 C712 1.429 . S
H709 C714 0.930 . S
N710 Eu672 2.609 . S
N710 C712 1.377 1_455 S
N710 C713 1.321 . S
C711 H697 0.930 . S
C711 C713 1.400 . S
C711 C714 1.386 1_455 S
C712 C708 1.429 . S
C712 N710 1.377 1_655 S
C712 C715 1.411 . S
C713 H695 0.930 . S
C713 N710 1.321 . S
C713 C711 1.400 . S
C714 H709 0.930 . S
C714 C711 1.386 1_655 S
C714 C715 1.395 . S
C715 C712 1.411 . S
C715 C714 1.395 . S
C715 C737 1.420 . S
O716 Eu672 2.558 . S
O716 C736 1.257 . S
O717 Eu672 2.612 . S
O717 Eu683 2.380 . S
O717 C728 1.276 . S
O718 Eu683 2.432 . S
O718 C735 1.264 . S
O719 Eu672 2.339 . S
O719 C735 1.254 . S
O720 Eu672 2.563 . S
O720 C728 1.235 . S
O721 Eu672 2.419 . S
O721 C736 1.249 . S
O722 Eu683 2.558 1_545 S
O722 C747 1.257 . S
O723 Eu672 2.380 . S
O723 Eu683 2.612 . S
O723 C739 1.276 . S
O724 Eu672 2.432 . S
O724 C746 1.264 . S
O725 Eu683 2.339 . S
O725 C746 1.254 . S
O726 Eu683 2.563 . S
O726 C739 1.235 . S
O727 Eu683 2.419 1_545 S
O727 C747 1.249 . S
C728 O717 1.276 . S
C728 O720 1.235 . S
C729 C731 1.393 . S
C729 C733 1.395 . S
C729 C736 1.492 . S
C730 C731 1.392 . S
C730 C732 1.386 . S
C731 C729 1.393 . S
C731 C730 1.392 . S
C731 H748 0.930 . S
C732 C730 1.386 . S
C732 C734 1.395 . S
C732 H749 0.930 . S
C733 C729 1.395 . S
C733 C734 1.379 . S
C733 H750 0.930 . S
C734 C732 1.395 . S
C734 C733 1.379 . S
C734 H751 0.930 . S
C735 O718 1.264 . S
C735 O719 1.254 . S
C736 Eu672 2.848 . S
C736 O716 1.257 . S
C736 O721 1.249 . S
C736 C729 1.492 . S
C737 H702 0.931 . S
C737 C715 1.420 . S
C737 C738 1.351 . S
C738 H700 0.930 . S
C738 C706 1.423 . S
C738 C737 1.351 . S
C739 O723 1.276 . S
C739 O726 1.235 . S
C740 C741 1.393 . S
C740 C744 1.395 . S
C740 C747 1.492 . S
C741 C740 1.393 . S
C741 C742 1.392 . S
C741 H752 0.930 . S
C742 C741 1.392 . S
C742 C743 1.386 . S
C743 C742 1.386 . S
C743 C745 1.395 . S
C743 H753 0.930 . S
C744 C740 1.395 . S
C744 C745 1.379 . S
C744 H754 0.930 . S
C745 C743 1.395 . S
C745 C744 1.379 . S
C745 H755 0.930 . S
C746 O724 1.264 . S
C746 O725 1.254 . S
C747 Eu683 2.848 1_545 S
C747 O722 1.257 . S
C747 O727 1.249 . S
C747 C740 1.492 . S
H748 C731 0.930 . S
H749 C732 0.930 . S
H750 C733 0.930 . S
H751 C734 0.930 . S
H752 C741 0.930 . S
H753 C743 0.930 . S
H754 C744 0.930 . S
H755 C745 0.930 . S
Eu756 N787 2.657 . S
Eu756 N794 2.609 1_556 S
Eu756 O800 2.558 1_556 S
Eu756 O801 2.612 . S
Eu756 O803 2.339 . S
Eu756 O804 2.563 . S
Eu756 O805 2.419 . S
Eu756 O807 2.380 . S
Eu756 O808 2.432 1_556 S
Eu756 C820 2.848 . S
C757 C760 1.429 . S
C757 C761 1.411 . S
C757 N764 1.377 . S
C758 C760 1.420 . S
C758 C762 1.423 . S
C758 C770 1.392 . S
C759 C761 1.420 . S
C759 C762 1.351 . S
C759 H782 0.931 . S
C760 C757 1.429 . S
C760 C758 1.420 . S
C760 N768 1.362 . S
C761 C757 1.411 . S
C761 C759 1.420 . S
C761 C766 1.395 . S
C762 C758 1.423 . S
C762 C759 1.351 . S
C762 H774 0.930 . S
C763 C765 1.400 . S
C763 C766 1.386 . S
C763 H775 0.930 . S
N764 C757 1.377 . S
N764 C765 1.321 . S
N764 Eu767 2.609 . S
C765 C763 1.400 . S
C765 N764 1.321 . S
C765 H772 0.930 . S
C766 C761 1.395 . S
C766 C763 1.386 . S
C766 H785 0.930 . S
Eu767 N764 2.609 . S
Eu767 N768 2.657 . S
Eu767 O801 2.380 . S
Eu767 O802 2.432 . S
Eu767 O806 2.558 . S
Eu767 O807 2.612 . S
Eu767 O809 2.339 . S
Eu767 O810 2.563 . S
Eu767 O811 2.419 . S
Eu767 C831 2.848 . S
N768 C760 1.362 . S
N768 Eu767 2.657 . S
N768 C769 1.334 . S
C769 N768 1.334 . S
C769 C771 1.413 . S
C769 H776 0.929 . S
C770 C758 1.392 . S
C770 C771 1.367 . S
C770 H778 0.930 . S
C771 C769 1.413 . S
C771 C770 1.367 . S
C771 H773 0.930 . S
H772 C765 0.930 . S
H773 C771 0.930 . S
H774 C762 0.930 . S
H775 C763 0.930 . S
H776 C769 0.929 . S
H777 C791 0.930 . S
H778 C770 0.930 . S
H779 C797 0.930 . S
H780 C788 0.929 1_545 S
H781 C795 0.930 . S
H782 C759 0.931 . S
H783 C789 0.930 . S
H784 C822 0.930 . S
H785 C766 0.930 . S
H786 C821 0.931 . S
N787 Eu756 2.657 . S
N787 C788 1.334 1_545 S
N787 C792 1.362 1_545 S
C788 H780 0.929 1_565 S
C788 N787 1.334 1_565 S
C788 C791 1.413 . S
C789 H783 0.930 . S
C789 C790 1.392 . S
C789 C791 1.367 . S
C790 C789 1.392 . S
C790 C792 1.420 . S
C790 C822 1.423 1_556 S
C791 H777 0.930 . S
C791 C788 1.413 . S
C791 C789 1.367 . S
C792 N787 1.362 1_565 S
C792 C790 1.420 . S
C792 C796 1.429 1_556 S
H793 C798 0.930 . S
N794 Eu756 2.609 1_554 S
N794 C796 1.377 1_545 S
N794 C797 1.321 . S
C795 H781 0.930 . S
C795 C797 1.400 . S
C795 C798 1.386 1_545 S
C796 C792 1.429 1_554 S
C796 N794 1.377 1_565 S
C796 C799 1.411 . S
C797 H779 0.930 . S
C797 N794 1.321 . S
C797 C795 1.400 . S
C798 H793 0.930 . S
C798 C795 1.386 1_565 S
C798 C799 1.395 . S
C799 C796 1.411 . S
C799 C798 1.395 . S
C799 C821 1.420 . S
O800 Eu756 2.558 1_554 S
O800 C820 1.257 1_554 S
O801 Eu756 2.612 . S
O801 Eu767 2.380 . S
O801 C812 1.276 . S
O802 Eu767 2.432 . S
O802 C819 1.264 . S
O803 Eu756 2.339 . S
O803 C819 1.254 . S
O804 Eu756 2.563 . S
O804 C812 1.235 . S
O805 Eu756 2.419 . S
O805 C820 1.249 . S
O806 Eu767 2.558 . S
O806 C831 1.257 . S
O807 Eu756 2.380 . S
O807 Eu767 2.612 . S
O807 C823 1.276 . S
O808 Eu756 2.432 1_554 S
O808 C830 1.264 . S
O809 Eu767 2.339 . S
O809 C830 1.254 1_556 S
O810 Eu767 2.563 . S
O810 C823 1.235 . S
O811 Eu767 2.419 . S
O811 C831 1.249 . S
C812 O801 1.276 . S
C812 O804 1.235 . S
C813 C815 1.393 . S
C813 C817 1.395 1_556 S
C813 C820 1.492 . S
C814 C815 1.392 . S
C814 C816 1.386 . S
C815 C813 1.393 . S
C815 C814 1.392 . S
C815 H832 0.930 . S
C816 C814 1.386 . S
C816 C818 1.395 1_556 S
C816 H833 0.928 1_556 S
C817 C813 1.395 1_554 S
C817 C818 1.379 . S
C817 H834 0.930 . S
C818 C816 1.395 1_554 S
C818 C817 1.379 . S
C818 H835 0.930 . S
C819 O802 1.264 . S
C819 O803 1.254 . S
C820 Eu756 2.848 . S
C820 O800 1.257 1_556 S
C820 O805 1.249 . S
C820 C813 1.492 . S
C821 H786 0.931 . S
C821 C799 1.420 . S
C821 C822 1.351 . S
C822 H784 0.930 . S
C822 C790 1.423 1_554 S
C822 C821 1.351 . S
C823 O807 1.276 . S
C823 O810 1.235 . S
C824 C825 1.393 . S
C824 C828 1.395 . S
C824 C831 1.492 . S
C825 C824 1.393 . S
C825 C826 1.392 1_455 S
C825 H836 0.930 . S
C826 C825 1.392 1_655 S
C826 C827 1.386 . S
C827 C826 1.386 . S
C827 C829 1.395 1_655 S
C827 H837 0.930 . S
C828 C824 1.395 . S
C828 C829 1.379 . S
C828 H838 0.930 . S
C829 C827 1.395 1_455 S
C829 C828 1.379 . S
C829 H839 0.930 . S
C830 O808 1.264 . S
C830 O809 1.254 1_554 S
C831 Eu767 2.848 . S
C831 O806 1.257 . S
C831 O811 1.249 . S
C831 C824 1.492 . S
H832 C815 0.930 . S
H833 C816 0.928 1_554 S
H834 C817 0.930 . S
H835 C818 0.930 . S
H836 C825 0.930 . S
H837 C827 0.930 . S
H838 C828 0.930 . S
H839 C829 0.930 . S
Eu840 N871 2.657 . S
Eu840 N878 2.609 . S
Eu840 O884 2.558 . S
Eu840 O885 2.612 . S
Eu840 O887 2.339 . S
Eu840 O888 2.563 . S
Eu840 O889 2.419 . S
Eu840 O891 2.380 . S
Eu840 O892 2.432 . S
Eu840 C904 2.848 . S
C841 C844 1.429 . S
C841 C845 1.411 . S
C841 N848 1.377 1_655 S
C842 C844 1.420 . S
C842 C846 1.423 . S
C842 C854 1.392 . S
C843 C845 1.420 . S
C843 C846 1.351 . S
C843 H866 0.931 . S
C844 C841 1.429 . S
C844 C842 1.420 . S
C844 N852 1.362 . S
C845 C841 1.411 . S
C845 C843 1.420 . S
C845 C850 1.395 . S
C846 C842 1.423 . S
C846 C843 1.351 . S
C846 H858 0.930 . S
C847 C849 1.398 1_655 S
C847 C850 1.388 . S
C847 H859 0.929 1_655 S
N848 C841 1.377 1_455 S
N848 C849 1.321 . S
N848 Eu851 2.609 . S
C849 C847 1.398 1_455 S
C849 N848 1.321 . S
C849 H856 0.930 . S
C850 C845 1.395 . S
C850 C847 1.388 . S
C850 H869 0.930 . S
Eu851 N848 2.609 . S
Eu851 N852 2.657 1_455 S
Eu851 O885 2.380 . S
Eu851 O886 2.432 . S
Eu851 O890 2.558 1_455 S
Eu851 O891 2.612 . S
Eu851 O893 2.339 . S
Eu851 O894 2.563 . S
Eu851 O895 2.419 1_455 S
Eu851 C915 2.848 1_455 S
N852 C844 1.362 . S
N852 Eu851 2.657 1_655 S
N852 C853 1.334 . S
C853 N852 1.334 . S
C853 C855 1.413 . S
C853 H860 0.929 . S
C854 C842 1.392 . S
C854 C855 1.367 . S
C854 H862 0.930 . S
C855 C853 1.413 . S
C855 C854 1.367 . S
C855 H857 0.930 . S
H856 C849 0.930 . S
H857 C855 0.930 . S
H858 C846 0.930 . S
H859 C847 0.929 1_455 S
H860 C853 0.929 . S
H861 C875 0.930 . S
H862 C854 0.930 . S
H863 C881 0.930 . S
H864 C872 0.929 . S
H865 C879 0.930 . S
H866 C843 0.931 . S
H867 C873 0.930 . S
H868 C906 0.930 . S
H869 C850 0.930 . S
H870 C905 0.931 . S
N871 Eu840 2.657 . S
N871 C872 1.334 . S
N871 C876 1.362 . S
C872 H864 0.929 . S
C872 N871 1.334 . S
C872 C875 1.413 . S
C873 H867 0.930 . S
C873 C874 1.392 . S
C873 C875 1.367 . S
C874 C873 1.392 . S
C874 C876 1.420 . S
C874 C906 1.423 . S
C875 H861 0.930 . S
C875 C872 1.413 . S
C875 C873 1.367 . S
C876 N871 1.362 . S
C876 C874 1.420 . S
C876 C880 1.429 . S
H877 C882 0.930 . S
N878 Eu840 2.609 . S
N878 C880 1.377 . S
N878 C881 1.321 . S
C879 H865 0.930 . S
C879 C881 1.400 . S
C879 C882 1.386 . S
C880 C876 1.429 . S
C880 N878 1.377 . S
C880 C883 1.411 . S
C881 H863 0.930 . S
C881 N878 1.321 . S
C881 C879 1.400 . S
C882 H877 0.930 . S
C882 C879 1.386 . S
C882 C883 1.395 . S
C883 C880 1.411 . S
C883 C882 1.395 . S
C883 C905 1.420 . S
O884 Eu840 2.558 . S
O884 C904 1.257 . S
O885 Eu840 2.612 . S
O885 Eu851 2.380 . S
O885 C896 1.276 . S
O886 Eu851 2.432 . S
O886 C903 1.264 . S
O887 Eu840 2.339 . S
O887 C903 1.254 . S
O888 Eu840 2.563 . S
O888 C896 1.235 . S
O889 Eu840 2.419 . S
O889 C904 1.249 . S
O890 Eu851 2.558 1_655 S
O890 C915 1.257 . S
O891 Eu840 2.380 . S
O891 Eu851 2.612 . S
O891 C907 1.276 . S
O892 Eu840 2.432 . S
O892 C914 1.264 . S
O893 Eu851 2.339 . S
O893 C914 1.254 . S
O894 Eu851 2.563 . S
O894 C907 1.235 . S
O895 Eu851 2.419 1_655 S
O895 C915 1.249 . S
C896 O885 1.276 . S
C896 O888 1.235 . S
C897 C899 1.393 . S
C897 C901 1.395 . S
C897 C904 1.492 . S
C898 C899 1.392 . S
C898 C900 1.386 . S
C899 C897 1.393 . S
C899 C898 1.392 . S
C899 H916 0.930 . S
C900 C898 1.386 . S
C900 C902 1.395 . S
C900 H917 0.930 . S
C901 C897 1.395 . S
C901 C902 1.379 . S
C901 H918 0.930 . S
C902 C900 1.395 . S
C902 C901 1.379 . S
C902 H919 0.930 . S
C903 O886 1.264 . S
C903 O887 1.254 . S
C904 Eu840 2.848 . S
C904 O884 1.257 . S
C904 O889 1.249 . S
C904 C897 1.492 . S
C905 H870 0.931 . S
C905 C883 1.420 . S
C905 C906 1.351 . S
C906 H868 0.930 . S
C906 C874 1.423 . S
C906 C905 1.351 . S
C907 O891 1.276 . S
C907 O894 1.235 . S
C908 C909 1.393 . S
C908 C912 1.395 . S
C908 C915 1.492 . S
C909 C908 1.393 . S
C909 C910 1.392 1_545 S
C909 H920 0.930 . S
C910 C909 1.392 1_565 S
C910 C911 1.386 . S
C911 C910 1.386 . S
C911 C913 1.395 1_565 S
C911 H921 0.930 . S
C912 C908 1.395 . S
C912 C913 1.379 . S
C912 H922 0.930 . S
C913 C911 1.395 1_545 S
C913 C912 1.379 . S
C913 H923 0.930 . S
C914 O892 1.264 . S
C914 O893 1.254 . S
C915 Eu851 2.848 1_655 S
C915 O890 1.257 . S
C915 O895 1.249 . S
C915 C908 1.492 . S
H916 C899 0.930 . S
H917 C900 0.930 . S
H918 C901 0.930 . S
H919 C902 0.930 . S
H920 C909 0.930 . S
H921 C911 0.930 . S
H922 C912 0.930 . S
H923 C913 0.930 . S
Eu924 N955 2.657 . S
Eu924 N962 2.609 1_556 S
Eu924 O968 2.558 1_556 S
Eu924 O969 2.612 . S
Eu924 O971 2.339 . S
Eu924 O972 2.563 . S
Eu924 O973 2.419 . S
Eu924 O975 2.380 . S
Eu924 O976 2.432 1_556 S
Eu924 C988 2.848 . S
C925 C928 1.429 . S
C925 C929 1.411 . S
C925 N932 1.377 1_565 S
C926 C928 1.420 . S
C926 C930 1.423 . S
C926 C938 1.392 . S
C927 C929 1.420 . S
C927 C930 1.351 . S
C927 H950 0.931 . S
C928 C925 1.429 . S
C928 C926 1.420 . S
C928 N936 1.362 . S
C929 C925 1.411 . S
C929 C927 1.420 . S
C929 C934 1.395 . S
C930 C926 1.423 . S
C930 C927 1.351 . S
C930 H942 0.930 . S
C931 C933 1.399 1_565 S
C931 C934 1.386 . S
C931 H943 0.930 1_565 S
N932 C925 1.377 1_545 S
N932 C933 1.321 . S
N932 Eu935 2.609 . S
C933 C931 1.399 1_545 S
C933 N932 1.321 . S
C933 H940 0.930 . S
C934 C929 1.395 . S
C934 C931 1.386 . S
C934 H953 0.930 . S
Eu935 N932 2.609 . S
Eu935 N936 2.657 1_545 S
Eu935 O969 2.380 . S
Eu935 O970 2.432 . S
Eu935 O974 2.558 1_545 S
Eu935 O975 2.612 . S
Eu935 O977 2.339 . S
Eu935 O978 2.563 . S
Eu935 O979 2.419 1_545 S
Eu935 C999 2.848 1_545 S
N936 C928 1.362 . S
N936 Eu935 2.657 1_565 S
N936 C937 1.334 . S
C937 N936 1.334 . S
C937 C939 1.413 . S
C937 H944 0.929 . S
C938 C926 1.392 . S
C938 C939 1.367 . S
C938 H946 0.930 . S
C939 C937 1.413 . S
C939 C938 1.367 . S
C939 H941 0.930 . S
H940 C933 0.930 . S
H941 C939 0.930 . S
H942 C930 0.930 . S
H943 C931 0.930 1_545 S
H944 C937 0.929 . S
H945 C959 0.930 . S
H946 C938 0.930 . S
H947 C965 0.930 . S
H948 C956 0.929 1_655 S
H949 C963 0.930 . S
H950 C927 0.931 . S
H951 C957 0.930 . S
H952 C990 0.930 . S
H953 C934 0.930 . S
H954 C989 0.931 . S
N955 Eu924 2.657 . S
N955 C956 1.334 1_655 S
N955 C960 1.362 1_655 S
C956 H948 0.929 1_455 S
C956 N955 1.334 1_455 S
C956 C959 1.413 . S
C957 H951 0.930 . S
C957 C958 1.392 . S
C957 C959 1.367 . S
C958 C957 1.392 . S
C958 C960 1.420 . S
C958 C990 1.423 1_556 S
C959 H945 0.930 . S
C959 C956 1.413 . S
C959 C957 1.367 . S
C960 N955 1.362 1_455 S
C960 C958 1.420 . S
C960 C964 1.429 1_556 S
H961 C966 0.930 . S
N962 Eu924 2.609 1_554 S
N962 C964 1.377 1_655 S
N962 C965 1.321 . S
C963 H949 0.930 . S
C963 C965 1.400 . S
C963 C966 1.386 1_655 S
C964 C960 1.429 1_554 S
C964 N962 1.377 1_455 S
C964 C967 1.411 . S
C965 H947 0.930 . S
C965 N962 1.321 . S
C965 C963 1.400 . S
C966 H961 0.930 . S
C966 C963 1.386 1_455 S
C966 C967 1.395 . S
C967 C964 1.411 . S
C967 C966 1.395 . S
C967 C989 1.420 . S
O968 Eu924 2.558 1_554 S
O968 C988 1.257 1_554 S
O969 Eu924 2.612 . S
O969 Eu935 2.380 . S
O969 C980 1.276 . S
O970 Eu935 2.432 . S
O970 C987 1.264 . S
O971 Eu924 2.339 . S
O971 C987 1.254 . S
O972 Eu924 2.563 . S
O972 C980 1.235 . S
O973 Eu924 2.419 . S
O973 C988 1.249 . S
O974 Eu935 2.558 1_565 S
O974 C999 1.257 . S
O975 Eu924 2.380 . S
O975 Eu935 2.612 . S
O975 C991 1.276 . S
O976 Eu924 2.432 1_554 S
O976 C998 1.264 . S
O977 Eu935 2.339 . S
O977 C998 1.254 1_556 S
O978 Eu935 2.563 . S
O978 C991 1.235 . S
O979 Eu935 2.419 1_565 S
O979 C999 1.249 . S
C980 O969 1.276 . S
C980 O972 1.235 . S
C981 C983 1.393 . S
C981 C985 1.395 1_556 S
C981 C988 1.492 . S
C982 C983 1.392 . S
C982 C984 1.386 . S
C983 C981 1.393 . S
C983 C982 1.392 . S
C983 H1000 0.930 . S
C984 C982 1.386 . S
C984 C986 1.395 1_556 S
C984 H1001 0.928 1_556 S
C985 C981 1.395 1_554 S
C985 C986 1.379 . S
C985 H1002 0.930 . S
C986 C984 1.395 1_554 S
C986 C985 1.379 . S
C986 H1003 0.930 . S
C987 O970 1.264 . S
C987 O971 1.254 . S
C988 Eu924 2.848 . S
C988 O968 1.257 1_556 S
C988 O973 1.249 . S
C988 C981 1.492 . S
C989 H954 0.931 . S
C989 C967 1.420 . S
C989 C990 1.351 . S
C990 H952 0.930 . S
C990 C958 1.423 1_554 S
C990 C989 1.351 . S
C991 O975 1.276 . S
C991 O978 1.235 . S
C992 C993 1.393 . S
C992 C996 1.395 . S
C992 C999 1.492 . S
C993 C992 1.393 . S
C993 C994 1.392 . S
C993 H1004 0.930 . S
C994 C993 1.392 . S
C994 C995 1.386 . S
C995 C994 1.386 . S
C995 C997 1.395 . S
C995 H1005 0.930 . S
C996 C992 1.395 . S
C996 C997 1.379 . S
C996 H1006 0.930 . S
C997 C995 1.395 . S
C997 C996 1.379 . S
C997 H1007 0.930 . S
C998 O976 1.264 . S
C998 O977 1.254 1_554 S
C999 Eu935 2.848 1_565 S
C999 O974 1.257 . S
C999 O979 1.249 . S
C999 C992 1.492 . S
H1000 C983 0.930 . S
H1001 C984 0.928 1_554 S
H1002 C985 0.930 . S
H1003 C986 0.930 . S
H1004 C993 0.930 . S
H1005 C995 0.930 . S
H1006 C996 0.930 . S
H1007 C997 0.930 . S
C403 C70 2.039 . S
C487 C154 2.039 . S
C238 C67 2.039 . S
C322 C151 2.039 . S
C406 C235 2.039 . S
C319 C490 2.039 . S
C739 C574 2.039 . S
C658 C823 2.039 . S
C907 C742 2.039 . S
C826 C991 2.039 . S
C910 C571 2.039 . S
C655 C994 2.039 . S
C392 C58 1.456 . S
C142 C476 1.456 . S
C226 C56 1.456 . S
C310 C140 1.456 . S
C224 C394 1.457 . S
C308 C478 1.456 . S
C728 C562 1.457 . S
C646 C812 1.456 . S
C730 C896 1.457 . S
C980 C814 1.456 . S
C898 C560 1.456 . S
C644 C982 1.457 . S
C903 C63 2.420 . S
C147 C987 2.420 . S
C231 C567 2.420 . S
C315 C651 2.420 . S
C399 C735 2.420 . S
C819 C483 2.420 . S
C830 C74 3.471 1_554 S
C914 C158 3.471 1_455 S
C242 C998 3.471 1_566 S
C326 C578 3.471 . S
C662 C410 3.471 1_654 S
C746 C494 3.471 1_565 S
