# Generated by pormake.
# Topology deh, (3)-cn, num edge types: 1
# Building blocks:
#     Node 0, Type 0, BuildingBlock: OLANEW_clean_sbu_2, # of connection points: 3
#     Node 1, Type 0, BuildingBlock: OLANEW_clean_sbu_2, # of connection points: 3
#     Node 2, Type 0, BuildingBlock: OLANEW_clean_sbu_2, # of connection points: 3
#     Node 3, Type 0, BuildingBlock: OLANEW_clean_sbu_2, # of connection points: 3
#     Node 4, Type 0, BuildingBlock: OLANEW_clean_sbu_2, # of connection points: 3
#     Node 5, Type 0, BuildingBlock: OLANEW_clean_sbu_2, # of connection points: 3
#     Node 6, Type 0, BuildingBlock: OLANEW_clean_sbu_2, # of connection points: 3
#     Node 7, Type 0, BuildingBlock: OLANEW_clean_sbu_2, # of connection points: 3
#     Node 8, Type 0, BuildingBlock: OLANEW_clean_sbu_2, # of connection points: 3
#     Node 9, Type 0, BuildingBlock: OLANEW_clean_sbu_2, # of connection points: 3
#     Node 10, Type 0, BuildingBlock: OLANEW_clean_sbu_2, # of connection points: 3
#     Node 11, Type 0, BuildingBlock: OLANEW_clean_sbu_2, # of connection points: 3
#     Node 12, Type 0, BuildingBlock: OLANEW_clean_sbu_2, # of connection points: 3
#     Node 13, Type 0, BuildingBlock: OLANEW_clean_sbu_2, # of connection points: 3
#     Node 14, Type 0, BuildingBlock: OLANEW_clean_sbu_2, # of connection points: 3
#     Node 15, Type 0, BuildingBlock: OLANEW_clean_sbu_2, # of connection points: 3
#     Node 16, Type 0, BuildingBlock: OLANEW_clean_sbu_2, # of connection points: 3
#     Node 17, Type 0, BuildingBlock: OLANEW_clean_sbu_2, # of connection points: 3
#     Node 18, Type 0, BuildingBlock: OLANEW_clean_sbu_2, # of connection points: 3
#     Node 19, Type 0, BuildingBlock: OLANEW_clean_sbu_2, # of connection points: 3
#     Node 20, Type 0, BuildingBlock: OLANEW_clean_sbu_2, # of connection points: 3
#     Node 21, Type 0, BuildingBlock: OLANEW_clean_sbu_2, # of connection points: 3
#     Node 22, Type 0, BuildingBlock: OLANEW_clean_sbu_2, # of connection points: 3
#     Node 23, Type 0, BuildingBlock: OLANEW_clean_sbu_2, # of connection points: 3
#     Node 24, Type 0, BuildingBlock: OLANEW_clean_sbu_2, # of connection points: 3
#     Node 25, Type 0, BuildingBlock: OLANEW_clean_sbu_2, # of connection points: 3
#     Node 26, Type 0, BuildingBlock: OLANEW_clean_sbu_2, # of connection points: 3
#     Node 27, Type 0, BuildingBlock: OLANEW_clean_sbu_2, # of connection points: 3
#     Node 28, Type 0, BuildingBlock: OLANEW_clean_sbu_2, # of connection points: 3
#     Node 29, Type 0, BuildingBlock: OLANEW_clean_sbu_2, # of connection points: 3
#     Node 30, Type 0, BuildingBlock: OLANEW_clean_sbu_2, # of connection points: 3
#     Node 31, Type 0, BuildingBlock: OLANEW_clean_sbu_2, # of connection points: 3
#     Edge 32, Type (0, 0), BuildingBlock: AJUNOK_clean_linker_0, # of connection points: 2
#     Edge 33, Type (0, 0), BuildingBlock: AJUNOK_clean_linker_0, # of connection points: 2
#     Edge 34, Type (0, 0), BuildingBlock: AJUNOK_clean_linker_0, # of connection points: 2
#     Edge 35, Type (0, 0), BuildingBlock: AJUNOK_clean_linker_0, # of connection points: 2
#     Edge 36, Type (0, 0), BuildingBlock: AJUNOK_clean_linker_0, # of connection points: 2
#     Edge 37, Type (0, 0), BuildingBlock: AJUNOK_clean_linker_0, # of connection points: 2
#     Edge 38, Type (0, 0), BuildingBlock: AJUNOK_clean_linker_0, # of connection points: 2
#     Edge 39, Type (0, 0), BuildingBlock: AJUNOK_clean_linker_0, # of connection points: 2
#     Edge 40, Type (0, 0), BuildingBlock: AJUNOK_clean_linker_0, # of connection points: 2
#     Edge 41, Type (0, 0), BuildingBlock: AJUNOK_clean_linker_0, # of connection points: 2
#     Edge 42, Type (0, 0), BuildingBlock: AJUNOK_clean_linker_0, # of connection points: 2
#     Edge 43, Type (0, 0), BuildingBlock: AJUNOK_clean_linker_0, # of connection points: 2
#     Edge 44, Type (0, 0), BuildingBlock: AJUNOK_clean_linker_0, # of connection points: 2
#     Edge 45, Type (0, 0), BuildingBlock: AJUNOK_clean_linker_0, # of connection points: 2
#     Edge 46, Type (0, 0), BuildingBlock: AJUNOK_clean_linker_0, # of connection points: 2
#     Edge 47, Type (0, 0), BuildingBlock: AJUNOK_clean_linker_0, # of connection points: 2
#     Edge 48, Type (0, 0), BuildingBlock: AJUNOK_clean_linker_0, # of connection points: 2
#     Edge 49, Type (0, 0), BuildingBlock: AJUNOK_clean_linker_0, # of connection points: 2
#     Edge 50, Type (0, 0), BuildingBlock: AJUNOK_clean_linker_0, # of connection points: 2
#     Edge 51, Type (0, 0), BuildingBlock: AJUNOK_clean_linker_0, # of connection points: 2
#     Edge 52, Type (0, 0), BuildingBlock: AJUNOK_clean_linker_0, # of connection points: 2
#     Edge 53, Type (0, 0), BuildingBlock: AJUNOK_clean_linker_0, # of connection points: 2
#     Edge 54, Type (0, 0), BuildingBlock: AJUNOK_clean_linker_0, # of connection points: 2
#     Edge 55, Type (0, 0), BuildingBlock: AJUNOK_clean_linker_0, # of connection points: 2
#     Edge 56, Type (0, 0), BuildingBlock: AJUNOK_clean_linker_0, # of connection points: 2
#     Edge 57, Type (0, 0), BuildingBlock: AJUNOK_clean_linker_0, # of connection points: 2
#     Edge 58, Type (0, 0), BuildingBlock: AJUNOK_clean_linker_0, # of connection points: 2
#     Edge 59, Type (0, 0), BuildingBlock: AJUNOK_clean_linker_0, # of connection points: 2
#     Edge 60, Type (0, 0), BuildingBlock: AJUNOK_clean_linker_0, # of connection points: 2
#     Edge 61, Type (0, 0), BuildingBlock: AJUNOK_clean_linker_0, # of connection points: 2
#     Edge 62, Type (0, 0), BuildingBlock: AJUNOK_clean_linker_0, # of connection points: 2
#     Edge 63, Type (0, 0), BuildingBlock: AJUNOK_clean_linker_0, # of connection points: 2
#     Edge 64, Type (0, 0), BuildingBlock: AJUNOK_clean_linker_0, # of connection points: 2
#     Edge 65, Type (0, 0), BuildingBlock: AJUNOK_clean_linker_0, # of connection points: 2
#     Edge 66, Type (0, 0), BuildingBlock: AJUNOK_clean_linker_0, # of connection points: 2
#     Edge 67, Type (0, 0), BuildingBlock: AJUNOK_clean_linker_0, # of connection points: 2
#     Edge 68, Type (0, 0), BuildingBlock: AJUNOK_clean_linker_0, # of connection points: 2
#     Edge 69, Type (0, 0), BuildingBlock: AJUNOK_clean_linker_0, # of connection points: 2
#     Edge 70, Type (0, 0), BuildingBlock: AJUNOK_clean_linker_0, # of connection points: 2
#     Edge 71, Type (0, 0), BuildingBlock: AJUNOK_clean_linker_0, # of connection points: 2
#     Edge 72, Type (0, 0), BuildingBlock: AJUNOK_clean_linker_0, # of connection points: 2
#     Edge 73, Type (0, 0), BuildingBlock: AJUNOK_clean_linker_0, # of connection points: 2
#     Edge 74, Type (0, 0), BuildingBlock: AJUNOK_clean_linker_0, # of connection points: 2
#     Edge 75, Type (0, 0), BuildingBlock: AJUNOK_clean_linker_0, # of connection points: 2
#     Edge 76, Type (0, 0), BuildingBlock: AJUNOK_clean_linker_0, # of connection points: 2
#     Edge 77, Type (0, 0), BuildingBlock: AJUNOK_clean_linker_0, # of connection points: 2
#     Edge 78, Type (0, 0), BuildingBlock: AJUNOK_clean_linker_0, # of connection points: 2
#     Edge 79, Type (0, 0), BuildingBlock: AJUNOK_clean_linker_0, # of connection points: 2
# Relax obj value: 0.000
# Max RMSD: 0.031
# Mean RMSD: 0.031
data_MOF--net-deh--node1-OLANEW_clean_sbu_2--edge1-AJUNOK_clean_linker_0
_symmetry_space_group_name_H-M    P1
_symmetry_Int_Tables_number       1
_symmetry_cell_setting            triclinic
loop_
_symmetry_equiv_pos_as_xyz
'x, y, z'
_cell_length_a     46.834384
_cell_length_b     46.927401
_cell_length_c     77.076689
_cell_angle_alpha  90.001303
_cell_angle_beta   90.347022
_cell_angle_gamma 89.900468
loop_
_atom_site_label
_atom_site_type_symbol
_atom_site_fract_x
_atom_site_fract_y
_atom_site_fract_z
_atom_type_partial_charge
O0 O 0.14672 0.08275 0.30775 0.0
Cd1 Cd 0.14201 0.07063 0.27667 0.0
O2 O 0.11721 0.04982 0.31764 0.0
Cd3 Cd 0.10308 0.03354 0.29273 0.0
O4 O 0.06017 0.04283 0.28374 0.0
C5 C 0.04691 0.05757 0.29494 0.0
O6 O 0.05951 0.0632 0.30982 0.0
C7 C 0.13368 0.07083 0.32026 0.0
C8 C 0.19191 0.0694 0.25625 0.0
O9 O 0.17943 0.09292 0.26 0.0
O10 O 0.18146 0.0465 0.26266 0.0
O11 O 0.14854 0.90094 0.55834 0.0
Cd12 Cd 0.158 0.894 0.52719 0.0
O13 O 0.17771 0.86716 0.56711 0.0
Cd14 Cd 0.18939 0.85478 0.54084 0.0
O15 O 0.18186 0.81281 0.52984 0.0
C16 C 0.17069 0.79761 0.54159 0.0
O17 O 0.16553 0.80905 0.5568 0.0
C18 C 0.15929 0.88616 0.5706 0.0
C19 C 0.15924 0.94153 0.50494 0.0
O20 O 0.13726 0.93598 0.5141 0.0
O21 O 0.18122 0.92549 0.50671 0.0
O22 O 0.33242 0.89598 0.80858 0.0
Cd23 Cd 0.33641 0.90639 0.77743 0.0
O24 O 0.36073 0.93053 0.81732 0.0
Cd25 Cd 0.37301 0.94373 0.79133 0.0
O26 O 0.41529 0.93424 0.7813 0.0
C27 C 0.43049 0.92397 0.79349 0.0
O28 O 0.41946 0.92231 0.80909 0.0
C29 C 0.34512 0.90918 0.82079 0.0
C30 C 0.28679 0.90787 0.75664 0.0
O31 O 0.29251 0.88635 0.76624 0.0
O32 O 0.30373 0.92922 0.75727 0.0
O33 O 0.32973 0.07878 0.05815 0.0
Cd34 Cd 0.31994 0.08507 0.02697 0.0
O35 O 0.29943 0.11077 0.06794 0.0
Cd36 Cd 0.28462 0.12261 0.04226 0.0
O37 O 0.29062 0.16498 0.032 0.0
C38 C 0.30919 0.17822 0.04091 0.0
O39 O 0.32144 0.16545 0.05417 0.0
C40 C 0.31889 0.0925 0.07076 0.0
C41 C 0.32061 0.03606 0.00584 0.0
O42 O 0.34287 0.04392 0.01426 0.0
O43 O 0.29773 0.0507 0.00772 0.0
O44 O 0.14882 0.89683 0.655 0.0
Cd45 Cd 0.14356 0.90485 0.68638 0.0
O46 O 0.11952 0.93128 0.64752 0.0
Cd47 Cd 0.10687 0.94024 0.67414 0.0
O48 O 0.06345 0.93123 0.68246 0.0
C49 C 0.04916 0.92325 0.66927 0.0
O50 O 0.06223 0.9211 0.6543 0.0
C51 C 0.13578 0.91082 0.64324 0.0
C52 C 0.19233 0.9071 0.70767 0.0
O53 O 0.18744 0.88559 0.69792 0.0
O54 O 0.17495 0.92814 0.70704 0.0
O55 O 0.33096 0.89706 0.90505 0.0
Cd56 Cd 0.31913 0.89238 0.93614 0.0
O57 O 0.2985 0.86695 0.89535 0.0
Cd58 Cd 0.28218 0.8556 0.92062 0.0
O59 O 0.28789 0.81259 0.93012 0.0
C60 C 0.308 0.80003 0.9222 0.0
O61 O 0.32203 0.81363 0.91006 0.0
C62 C 0.31939 0.88348 0.89253 0.0
C63 C 0.3217 0.94119 0.95729 0.0
O64 O 0.34455 0.92864 0.95232 0.0
O65 O 0.2977 0.93145 0.95189 0.0
O66 O 0.33082 0.08246 0.15475 0.0
Cd67 Cd 0.33601 0.0737 0.18621 0.0
O68 O 0.36059 0.04811 0.14761 0.0
Cd69 Cd 0.37417 0.03807 0.17385 0.0
O70 O 0.4175 0.04495 0.18299 0.0
C71 C 0.43156 0.05956 0.17214 0.0
O72 O 0.41909 0.0684 0.15782 0.0
C73 C 0.34382 0.06814 0.14317 0.0
C74 C 0.28683 0.07008 0.20705 0.0
O75 O 0.2964 0.09409 0.20173 0.0
O76 O 0.29971 0.04752 0.20187 0.0
O77 O 0.14551 0.08226 0.40451 0.0
Cd78 Cd 0.15731 0.08593 0.43579 0.0
O79 O 0.18036 0.10955 0.39485 0.0
Cd80 Cd 0.19575 0.12267 0.42014 0.0
O81 O 0.18756 0.16514 0.42985 0.0
C82 C 0.17243 0.17919 0.41912 0.0
O83 O 0.16495 0.16718 0.40438 0.0
C84 C 0.15838 0.09444 0.39206 0.0
C85 C 0.15848 0.03608 0.45632 0.0
O86 O 0.13616 0.04319 0.44771 0.0
O87 O 0.1807 0.05174 0.45497 0.0
O88 O 0.83158 0.90273 0.65408 0.0
Cd89 Cd 0.83666 0.89922 0.68582 0.0
O90 O 0.86027 0.86648 0.64874 0.0
Cd91 Cd 0.87634 0.86234 0.6753 0.0
O92 O 0.91843 0.87742 0.68336 0.0
C93 C 0.93287 0.88217 0.66977 0.0
O94 O 0.92165 0.87528 0.65468 0.0
C95 C 0.84368 0.8861 0.64339 0.0
C96 C 0.78868 0.90034 0.70794 0.0
O97 O 0.78837 0.91349 0.69344 0.0
O98 O 0.81091 0.88582 0.7118 0.0
O99 O 0.82914 0.07496 0.40313 0.0
Cd100 Cd 0.82647 0.08262 0.43471 0.0
O101 O 0.86197 0.10825 0.40218 0.0
Cd102 Cd 0.86604 0.12221 0.4289 0.0
O103 O 0.85818 0.16685 0.43507 0.0
C104 C 0.8417 0.17872 0.42408 0.0
O105 O 0.83164 0.16381 0.411 0.0
C106 C 0.84594 0.09052 0.39438 0.0
C107 C 0.8275 0.03522 0.45669 0.0
O108 O 0.80655 0.03972 0.4463 0.0
O109 O 0.84857 0.0526 0.45644 0.0
O110 O 0.65811 0.0703 0.15379 0.0
Cd111 Cd 0.64692 0.0697 0.1847 0.0
O112 O 0.62679 0.10466 0.1536 0.0
Cd113 Cd 0.59794 0.13202 0.16746 0.0
O114 O 0.55818 0.1162 0.17748 0.0
C115 C 0.54806 0.09505 0.16921 0.0
O116 O 0.56183 0.08553 0.15557 0.0
C117 C 0.64374 0.0886 0.1454 0.0
C118 C 0.69287 0.07495 0.20757 0.0
O119 O 0.69271 0.05624 0.19554 0.0
O120 O 0.67167 0.09207 0.2087 0.0
O121 O 0.65538 0.90002 0.90384 0.0
Cd122 Cd 0.65731 0.8943 0.93569 0.0
O123 O 0.61881 0.87105 0.90113 0.0
Cd124 Cd 0.62022 0.85582 0.92791 0.0
O125 O 0.63296 0.81237 0.93457 0.0
C126 C 0.63187 0.79728 0.92089 0.0
O127 O 0.62309 0.80952 0.90649 0.0
C128 C 0.63702 0.88758 0.89429 0.0
C129 C 0.6519 0.94253 0.95704 0.0
O130 O 0.67155 0.94078 0.94565 0.0
O131 O 0.63396 0.92207 0.95815 0.0
O132 O 0.82652 0.07847 0.30965 0.0
Cd133 Cd 0.83456 0.07551 0.27826 0.0
O134 O 0.85892 0.11212 0.31083 0.0
Cd135 Cd 0.87241 0.11421 0.28395 0.0
O136 O 0.91662 0.10514 0.27728 0.0
C137 C 0.92901 0.09047 0.28896 0.0
O138 O 0.91467 0.08258 0.30273 0.0
C139 C 0.84148 0.09577 0.31852 0.0
C140 C 0.78684 0.07678 0.25651 0.0
O141 O 0.79159 0.05565 0.26663 0.0
O142 O 0.80419 0.09785 0.2569 0.0
O143 O 0.64685 0.07662 0.06031 0.0
Cd144 Cd 0.64776 0.08387 0.02846 0.0
O145 O 0.61639 0.11174 0.06481 0.0
Cd146 Cd 0.60976 0.1239 0.03803 0.0
O147 O 0.62156 0.16636 0.02969 0.0
C148 C 0.63771 0.17892 0.04056 0.0
O149 O 0.64528 0.16564 0.05486 0.0
C150 C 0.63305 0.09261 0.07067 0.0
C151 C 0.64849 0.03719 0.00553 0.0
O152 O 0.66909 0.04151 0.0162 0.0
O153 O 0.62702 0.05411 0.00607 0.0
O154 O 0.65413 0.89644 0.80904 0.0
Cd155 Cd 0.64578 0.89899 0.77743 0.0
O156 O 0.61696 0.86841 0.81219 0.0
Cd157 Cd 0.60436 0.86612 0.78496 0.0
O158 O 0.56175 0.87871 0.7764 0.0
C159 C 0.54772 0.88703 0.78951 0.0
O160 O 0.56031 0.88722 0.80478 0.0
C161 C 0.63718 0.88283 0.81884 0.0
C162 C 0.69306 0.90026 0.7554 0.0
O163 O 0.68856 0.92019 0.76639 0.0
O164 O 0.67572 0.87919 0.75503 0.0
O165 O 0.83199 0.90062 0.55802 0.0
Cd166 Cd 0.83206 0.89234 0.52656 0.0
O167 O 0.86308 0.86675 0.56447 0.0
Cd168 Cd 0.87064 0.85283 0.53808 0.0
O169 O 0.85651 0.81144 0.52906 0.0
C170 C 0.8446 0.79797 0.54133 0.0
O171 O 0.84346 0.80992 0.55673 0.0
C172 C 0.84586 0.88614 0.56917 0.0
C173 C 0.82984 0.94 0.5045 0.0
O174 O 0.81323 0.93802 0.51752 0.0
O175 O 0.84802 0.92008 0.50202 0.0
O176 O 0.64961 0.58016 0.8086 0.0
Cd177 Cd 0.64431 0.56865 0.77755 0.0
O178 O 0.61886 0.54856 0.81827 0.0
Cd179 Cd 0.60408 0.53303 0.79326 0.0
O180 O 0.56108 0.5422 0.78412 0.0
C181 C 0.54778 0.55766 0.79495 0.0
O182 O 0.56038 0.56426 0.80968 0.0
C183 C 0.63625 0.5688 0.82115 0.0
C184 C 0.69181 0.56912 0.75505 0.0
O185 O 0.68938 0.58758 0.76714 0.0
O186 O 0.67269 0.54981 0.75388 0.0
O187 O 0.64759 0.39654 0.05798 0.0
Cd188 Cd 0.65994 0.39189 0.02706 0.0
O189 O 0.67995 0.36578 0.06704 0.0
Cd190 Cd 0.69364 0.35309 0.04137 0.0
O191 O 0.68626 0.31015 0.03208 0.0
C192 C 0.66829 0.29711 0.04143 0.0
O193 O 0.65704 0.31011 0.05485 0.0
C194 C 0.65958 0.38279 0.0703 0.0
C195 C 0.65765 0.44117 0.00619 0.0
O196 O 0.63503 0.42732 0.01009 0.0
O197 O 0.68134 0.43238 0.0127 0.0
O198 O 0.83103 0.39823 0.30833 0.0
Cd199 Cd 0.83639 0.40903 0.27732 0.0
O200 O 0.86145 0.42969 0.31865 0.0
Cd201 Cd 0.87319 0.4448 0.29315 0.0
O202 O 0.91566 0.43822 0.28314 0.0
C203 C 0.92876 0.41911 0.29171 0.0
O204 O 0.91587 0.40648 0.30468 0.0
C205 C 0.84412 0.40937 0.32115 0.0
C206 C 0.78711 0.40849 0.25614 0.0
O207 O 0.79215 0.38836 0.26689 0.0
O208 O 0.80462 0.42933 0.2556 0.0
O209 O 0.83326 0.57794 0.55857 0.0
Cd210 Cd 0.82269 0.58511 0.52742 0.0
O211 O 0.8047 0.61247 0.56721 0.0
Cd212 Cd 0.79129 0.62395 0.54108 0.0
O213 O 0.79766 0.66574 0.52988 0.0
C214 C 0.80986 0.68106 0.54127 0.0
O215 O 0.81629 0.66988 0.55642 0.0
C216 C 0.82304 0.59334 0.57063 0.0
C217 C 0.82007 0.53711 0.50553 0.0
O218 O 0.84381 0.54616 0.51176 0.0
O219 O 0.79721 0.55 0.5102 0.0
O220 O 0.6484 0.3966 0.15455 0.0
Cd221 Cd 0.6437 0.40767 0.1856 0.0
O222 O 0.61885 0.43009 0.14569 0.0
Cd223 Cd 0.60648 0.44362 0.17165 0.0
O224 O 0.56418 0.4341 0.18162 0.0
C225 C 0.54875 0.42544 0.16909 0.0
O226 O 0.55961 0.42551 0.15342 0.0
C227 C 0.63516 0.40918 0.14229 0.0
C228 C 0.69186 0.40836 0.20772 0.0
O229 O 0.68801 0.38816 0.19684 0.0
O230 O 0.67391 0.42894 0.20771 0.0
O231 O 0.83299 0.39614 0.40502 0.0
Cd232 Cd 0.82252 0.39211 0.43624 0.0
O233 O 0.79742 0.36826 0.39704 0.0
Cd234 Cd 0.78432 0.35316 0.42233 0.0
O235 O 0.79358 0.30953 0.43 0.0
C236 C 0.80875 0.29667 0.41884 0.0
O237 O 0.81536 0.30992 0.4044 0.0
C238 C 0.81849 0.38394 0.39311 0.0
C239 C 0.82152 0.44231 0.4563 0.0
O240 O 0.84496 0.42907 0.45333 0.0
O241 O 0.79869 0.43244 0.44931 0.0
O242 O 0.83213 0.58502 0.65478 0.0
Cd243 Cd 0.83565 0.57429 0.68598 0.0
O244 O 0.86061 0.54988 0.64719 0.0
Cd245 Cd 0.87295 0.54006 0.67386 0.0
O246 O 0.91625 0.54948 0.68236 0.0
C247 C 0.93162 0.55108 0.66888 0.0
O248 O 0.91953 0.54598 0.65379 0.0
C249 C 0.84507 0.57102 0.64311 0.0
C250 C 0.7863 0.57056 0.70667 0.0
O251 O 0.78843 0.58932 0.69474 0.0
O252 O 0.80673 0.55269 0.70848 0.0
O253 O 0.64845 0.58148 0.90525 0.0
Cd254 Cd 0.65847 0.58592 0.93651 0.0
O255 O 0.68204 0.61145 0.89747 0.0
Cd256 Cd 0.693 0.62398 0.92394 0.0
O257 O 0.6809 0.66673 0.93206 0.0
C258 C 0.67698 0.68183 0.91858 0.0
O259 O 0.68323 0.67074 0.90342 0.0
C260 C 0.66165 0.59492 0.89339 0.0
C261 C 0.6575 0.53632 0.95703 0.0
O262 O 0.63441 0.54832 0.95179 0.0
O263 O 0.68119 0.54712 0.95202 0.0
O264 O 0.33039 0.40522 0.15422 0.0
Cd265 Cd 0.33617 0.40468 0.18607 0.0
O266 O 0.3587 0.36824 0.15057 0.0
Cd267 Cd 0.37465 0.36802 0.17725 0.0
O268 O 0.41731 0.38063 0.18582 0.0
C269 C 0.43211 0.38587 0.17245 0.0
O270 O 0.42004 0.38322 0.1571 0.0
C271 C 0.34228 0.38724 0.14427 0.0
C272 C 0.28803 0.40151 0.20772 0.0
O273 O 0.28897 0.41902 0.19504 0.0
O274 O 0.30916 0.38459 0.20998 0.0
O275 O 0.32166 0.56715 0.90241 0.0
Cd276 Cd 0.32111 0.5793 0.93364 0.0
O277 O 0.35248 0.60062 0.90611 0.0
Cd278 Cd 0.3805 0.63594 0.91231 0.0
O279 O 0.36605 0.67487 0.92483 0.0
C280 C 0.34255 0.68357 0.91843 0.0
O281 O 0.33121 0.66915 0.90551 0.0
C282 C 0.339 0.58452 0.89566 0.0
C283 C 0.32672 0.53514 0.95752 0.0
O284 O 0.30435 0.53813 0.94806 0.0
O285 O 0.34735 0.55272 0.95549 0.0
O286 O 0.15212 0.5815 0.65314 0.0
Cd287 Cd 0.14471 0.5797 0.68478 0.0
O288 O 0.11581 0.61086 0.6496 0.0
Cd289 Cd 0.10371 0.61448 0.67684 0.0
O290 O 0.06183 0.59856 0.68432 0.0
C291 C 0.04654 0.59697 0.67069 0.0
O292 O 0.05686 0.60715 0.65616 0.0
C293 C 0.13543 0.59545 0.64319 0.0
C294 C 0.19258 0.57789 0.70683 0.0
O295 O 0.18496 0.55598 0.69803 0.0
O296 O 0.17808 0.60087 0.70482 0.0
O297 O 0.15412 0.40095 0.40397 0.0
Cd298 Cd 0.15513 0.39332 0.4355 0.0
O299 O 0.11933 0.37002 0.40033 0.0
Cd300 Cd 0.11816 0.35391 0.42675 0.0
O301 O 0.12864 0.31097 0.43533 0.0
C302 C 0.1412 0.29721 0.42342 0.0
O303 O 0.146 0.30967 0.40847 0.0
C304 C 0.13681 0.3879 0.39404 0.0
C305 C 0.15125 0.44182 0.45651 0.0
O306 O 0.17212 0.43831 0.4461 0.0
O307 O 0.13161 0.42289 0.45686 0.0
O308 O 0.32825 0.58107 0.81024 0.0
Cd309 Cd 0.33533 0.5806 0.77825 0.0
O310 O 0.36337 0.61168 0.81411 0.0
Cd311 Cd 0.37468 0.6166 0.78696 0.0
O312 O 0.41758 0.60664 0.77836 0.0
C313 C 0.42967 0.5894 0.78876 0.0
O314 O 0.41558 0.58009 0.80229 0.0
C315 C 0.34438 0.59543 0.82036 0.0
C316 C 0.28777 0.57727 0.75593 0.0
O317 O 0.2991 0.55459 0.76222 0.0
O318 O 0.29828 0.60134 0.76053 0.0
O319 O 0.15466 0.57479 0.55873 0.0
Cd320 Cd 0.15691 0.58294 0.52738 0.0
O321 O 0.11921 0.6057 0.56223 0.0
Cd322 Cd 0.10353 0.62767 0.53937 0.0
O323 O 0.11618 0.67026 0.53189 0.0
C324 C 0.13192 0.68192 0.54332 0.0
O325 O 0.1362 0.66851 0.55809 0.0
C326 C 0.13714 0.58796 0.5684 0.0
C327 C 0.15245 0.536 0.50512 0.0
O328 O 0.17429 0.53938 0.51497 0.0
O329 O 0.13201 0.55408 0.50622 0.0
O330 O 0.15327 0.39787 0.30882 0.0
Cd331 Cd 0.14504 0.39816 0.27722 0.0
O332 O 0.11824 0.36733 0.31286 0.0
Cd333 Cd 0.10326 0.36232 0.28644 0.0
O334 O 0.05967 0.37394 0.27957 0.0
C335 C 0.04762 0.38958 0.29084 0.0
O336 O 0.06161 0.39648 0.30505 0.0
C337 C 0.13759 0.38348 0.31898 0.0
C338 C 0.19282 0.39952 0.25552 0.0
O339 O 0.18662 0.42069 0.26529 0.0
O340 O 0.17696 0.37735 0.25626 0.0
O341 O 0.33318 0.40151 0.05883 0.0
Cd342 Cd 0.33173 0.39287 0.02734 0.0
O343 O 0.36194 0.36522 0.06423 0.0
Cd344 Cd 0.36833 0.35077 0.03788 0.0
O345 O 0.35504 0.30843 0.03003 0.0
C346 C 0.34013 0.2962 0.04155 0.0
O347 O 0.33544 0.30942 0.05629 0.0
C348 C 0.34644 0.38561 0.06955 0.0
C349 C 0.33072 0.4411 0.00606 0.0
O350 O 0.30974 0.4354 0.01601 0.0
O351 O 0.3524 0.42446 0.00622 0.0
C352 C 0.24709 0.09383 0.22331 0.0
C353 C 0.26244 0.06882 0.2194 0.0
C354 C 0.22477 0.09381 0.23538 0.0
C355 C 0.21669 0.06878 0.24414 0.0
H356 H 0.25231 0.11374 0.21697 0.0
H357 H 0.21361 0.11366 0.23772 0.0
S358 S 0.25071 -0.00234 0.23926 0.0
N359 N 0.26833 0.01831 0.2257 0.0
N360 N 0.22651 0.01831 0.24839 0.0
C361 C 0.232 0.04361 0.24051 0.0
C362 C 0.25475 0.0436 0.22815 0.0
C363 C 0.14806 0.01499 0.48529 0.0
C364 C 0.15806 0.0115 0.46825 0.0
C365 C 0.1482 -0.00787 0.49708 0.0
C366 C 0.15885 0.96524 0.49229 0.0
H367 H 0.14027 0.03557 0.48955 0.0
H368 H 0.14045 -0.00434 0.51013 0.0
S369 S 0.18425 0.94448 0.4486 0.0
N370 N 0.17642 0.9787 0.44671 0.0
N371 N 0.1774 0.93588 0.46894 0.0
C372 C 0.1682 0.96137 0.47515 0.0
C373 C 0.16762 0.9845 0.46309 0.0
C374 C 0.24372 0.91483 0.715 0.0
C375 C 0.21622 0.90675 0.72016 0.0
C376 C 0.26641 0.91544 0.727 0.0
C377 C 0.26239 0.90736 0.7444 0.0
H378 H 0.24762 0.92102 0.70168 0.0
H379 H 0.28734 0.92194 0.72258 0.0
S380 S 0.19451 0.8833 0.76402 0.0
N381 N 0.18614 0.89005 0.74356 0.0
N382 N 0.22898 0.89019 0.766 0.0
C383 C 0.23511 0.89845 0.74954 0.0
C384 C 0.21194 0.89842 0.73743 0.0
C385 C 0.30707 0.01337 0.97763 0.0
C386 C 0.32164 0.01171 -0.00638 0.0
C387 C 0.30761 -0.00935 0.96577 0.0
C388 C 0.32284 0.96553 0.96946 0.0
H389 H 0.29528 0.03246 0.9742 0.0
H390 H 0.29603 -0.00727 0.95362 0.0
S391 S 0.36312 0.94975 0.00989 0.0
N392 N 0.35096 0.98249 0.01274 0.0
N393 N 0.35204 0.93985 -0.00959 0.0
C394 C 0.33764 0.96362 -0.01466 0.0
C395 C 0.33703 0.98671 -0.00256 0.0
C396 C 0.71338 0.89604 0.7256 0.0
C397 C 0.71742 0.90169 0.74338 0.0
C398 C 0.73642 0.89675 0.71402 0.0
C399 C 0.76433 0.90207 0.71998 0.0
H400 H 0.69227 0.89117 0.72063 0.0
H401 H 0.73253 0.89217 0.70043 0.0
S402 S 0.78577 0.92011 0.76503 0.0
N403 N 0.75095 0.91485 0.76613 0.0
N404 N 0.79446 0.91482 0.74453 0.0
C405 C 0.7685 0.90838 0.73763 0.0
C406 C 0.74495 0.90854 0.7493 0.0
C407 C 0.83445 -0.00811 0.49808 0.0
C408 C 0.82773 0.96423 0.49243 0.0
C409 C 0.8346 0.01483 0.48636 0.0
C410 C 0.82711 0.0109 0.46882 0.0
H411 H 0.84037 -0.00436 0.51149 0.0
H412 H 0.8404 0.0358 0.49108 0.0
S413 S 0.80524 0.94303 0.44813 0.0
N414 N 0.81215 0.93432 0.4685 0.0
N415 N 0.81117 0.97764 0.44666 0.0
C416 C 0.81911 0.98356 0.46326 0.0
C417 C 0.81975 0.96012 0.47504 0.0
C418 C 0.76658 0.08429 0.22688 0.0
C419 C 0.76254 0.07637 0.2443 0.0
C420 C 0.74388 0.08351 0.21493 0.0
C421 C 0.71635 0.07574 0.22022 0.0
H422 H 0.78751 0.09064 0.22241 0.0
H423 H 0.74778 0.08934 0.20155 0.0
S424 S 0.69489 0.05203 0.26405 0.0
N425 N 0.72932 0.0591 0.26597 0.0
N426 N 0.68635 0.05896 0.24365 0.0
C427 C 0.71205 0.0676 0.2375 0.0
C428 C 0.73528 0.06757 0.24953 0.0
C429 C 0.65956 0.98646 -0.00194 0.0
C430 C 0.64957 0.01347 -0.00712 0.0
C431 C 0.65981 0.96342 -0.01359 0.0
C432 C 0.65089 0.96688 0.96909 0.0
H433 H 0.66666 0.98298 0.0113 0.0
H434 H 0.66726 0.94283 -0.00907 0.0
S435 S 0.6259 0.03376 0.94854 0.0
N436 N 0.63208 0.04262 0.96898 0.0
N437 N 0.63373 -0.00049 0.94698 0.0
C438 C 0.64196 -0.00608 0.96356 0.0
C439 C 0.64099 0.01719 0.9755 0.0
C440 C 0.74399 0.57085 0.74848 0.0
C441 C 0.71556 0.57042 0.74256 0.0
C442 C 0.76679 0.57045 0.73672 0.0
C443 C 0.76187 0.57067 0.71869 0.0
H444 H 0.74862 0.57074 0.76227 0.0
H445 H 0.78844 0.57029 0.74176 0.0
S446 S 0.69133 0.57255 0.69671 0.0
N447 N 0.68368 0.57158 0.7176 0.0
N448 N 0.72655 0.57237 0.69552 0.0
C449 C 0.73356 0.57157 0.71264 0.0
C450 C 0.71037 0.57103 0.72459 0.0
C451 C 0.68211 0.50294 0.97778 0.0
C452 C 0.65691 0.51166 0.96922 0.0
C453 C 0.68202 0.48054 -0.01013 0.0
C454 C 0.65675 0.46577 -0.00608 0.0
H455 H 0.70213 0.51365 0.97526 0.0
H456 H 0.70204 0.47472 -0.00396 0.0
S457 S 0.58498 0.47988 0.97492 0.0
N458 N 0.60596 0.50346 0.96555 0.0
N459 N 0.60576 0.46152 -0.0118 0.0
C460 C 0.63137 0.47428 -0.01455 0.0
C461 C 0.63147 0.49711 0.97313 0.0
C462 C 0.76665 0.40131 0.22655 0.0
C463 C 0.76244 0.40721 0.24423 0.0
C464 C 0.74357 0.40099 0.21481 0.0
C465 C 0.71574 0.40746 0.22033 0.0
H466 H 0.78793 0.39697 0.22177 0.0
H467 H 0.74762 0.39643 0.20127 0.0
S468 S 0.69335 0.42187 0.26556 0.0
N469 N 0.72829 0.41733 0.26696 0.0
N470 N 0.68504 0.41801 0.24483 0.0
C471 C 0.71125 0.41274 0.23807 0.0
C472 C 0.7346 0.41227 0.25006 0.0
C473 C 0.84363 0.47202 0.47984 0.0
C474 C 0.82073 0.46721 0.46828 0.0
C475 C 0.84302 0.49443 0.49189 0.0
C476 C 0.81948 0.51303 0.49296 0.0
H477 H 0.86211 0.45812 0.47977 0.0
H478 H 0.86114 0.49705 0.50054 0.0
S479 S 0.75502 0.51125 0.46467 0.0
N480 N 0.77444 0.48399 0.45805 0.0
N481 N 0.77326 0.52603 0.4807 0.0
C482 C 0.79658 0.50877 0.48132 0.0
C483 C 0.79723 0.48593 0.46899 0.0
C484 C 0.23757 0.38977 0.21502 0.0
C485 C 0.26386 0.4018 0.21985 0.0
C486 C 0.2147 0.38896 0.22672 0.0
C487 C 0.21718 0.40086 0.24343 0.0
H488 H 0.23485 0.38051 0.20224 0.0
H489 H 0.19484 0.37918 0.2226 0.0
S490 S 0.2811 0.43673 0.26172 0.0
N491 N 0.29094 0.42673 0.24208 0.0
N492 N 0.24765 0.42623 0.26385 0.0
C493 C 0.24309 0.4139 0.24813 0.0
C494 C 0.26654 0.41409 0.23638 0.0
C495 C 0.31676 0.48498 0.96583 0.0
C496 C 0.32838 0.51166 0.97022 0.0
C497 C 0.31753 0.4622 0.97758 0.0
C498 C 0.32948 0.46555 -0.00582 0.0
H499 H 0.30736 0.48156 0.95312 0.0
H500 H 0.3088 0.44182 0.97364 0.0
S501 S 0.35985 0.53166 0.01278 0.0
N502 N 0.35069 0.54053 -0.00726 0.0
N503 N 0.35133 0.4977 0.01498 0.0
C504 C 0.34036 0.49223 -0.00103 0.0
C505 C 0.34006 0.51534 -0.01308 0.0
C506 C 0.219 0.59713 0.73261 0.0
C507 C 0.21686 0.57663 0.71933 0.0
C508 C 0.24181 0.59688 0.74449 0.0
C509 C 0.26327 0.57597 0.74369 0.0
H510 H 0.20289 0.61358 0.73389 0.0
H511 H 0.2426 0.61319 0.75443 0.0
S512 S 0.26838 0.518 0.71111 0.0
N513 N 0.23868 0.53509 0.7059 0.0
N514 N 0.28137 0.53449 0.72836 0.0
C515 C 0.26133 0.55511 0.73062 0.0
C516 C 0.23817 0.55547 0.71842 0.0
C517 C 0.1607 0.46224 0.4857 0.0
C518 C 0.15096 0.46604 0.46859 0.0
C519 C 0.16124 0.48508 0.49745 0.0
C520 C 0.15137 0.51225 0.49256 0.0
H521 H 0.16821 0.44152 0.48998 0.0
H522 H 0.1691 0.48138 0.51051 0.0
S523 S 0.12574 0.53344 0.44878 0.0
N524 N 0.13306 0.49912 0.44692 0.0
N525 N 0.13295 0.54194 0.46915 0.0
C526 C 0.1418 0.51631 0.4754 0.0
C527 C 0.14192 0.49319 0.46335 0.0
C528 C 0.16794 0.07059 0.36434 0.0
C529 C 0.15024 0.08856 0.37403 0.0
C530 C 0.16275 0.0658 0.34673 0.0
C531 C 0.13983 0.07904 0.33821 0.0
H532 H 0.18603 0.06014 0.37045 0.0
H533 H 0.17658 0.05131 0.33975 0.0
S534 S 0.08757 0.12913 0.35757 0.0
N535 N 0.10911 0.12049 0.37385 0.0
N536 N 0.09927 0.11134 0.34048 0.0
C537 C 0.12188 0.09736 0.34765 0.0
C538 C 0.12713 0.10219 0.36569 0.0
C539 C 0.16431 0.87569 0.60239 0.0
C540 C 0.15062 0.89088 0.58893 0.0
C541 C 0.15873 0.88166 0.61987 0.0
C542 C 0.13921 0.90306 0.62464 0.0
H543 H 0.18015 0.85957 0.59948 0.0
H544 H 0.17048 0.86991 0.62968 0.0
S545 S 0.09189 0.94334 0.59443 0.0
N546 N 0.11262 0.92431 0.58162 0.0
N547 N 0.10203 0.93548 0.61441 0.0
C548 C 0.1233 0.91641 0.61132 0.0
C549 C 0.12902 0.91034 0.5935 0.0
C550 C 0.3441 0.91242 0.86996 0.0
C551 C 0.32951 0.88744 0.87452 0.0
C552 C 0.35004 0.91867 0.85259 0.0
C553 C 0.34162 0.90017 0.83912 0.0
H554 H 0.34979 0.92798 0.87976 0.0
H555 H 0.36027 0.93878 0.8497 0.0
S556 S 0.31124 0.8277 0.84482 0.0
N557 N 0.31267 0.84105 0.86463 0.0
N558 N 0.32377 0.85283 0.83195 0.0
C559 C 0.32986 0.87362 0.84368 0.0
C560 C 0.32383 0.86724 0.8614 0.0
C561 C 0.32433 0.10779 0.10174 0.0
C562 C 0.32832 0.08693 0.08881 0.0
C563 C 0.32996 0.10181 0.11926 0.0
C564 C 0.33978 0.07477 0.12449 0.0
H565 H 0.31626 0.12872 0.09834 0.0
H566 H 0.32621 0.11836 0.12879 0.0
S567 S 0.35675 0.01396 0.09544 0.0
N568 N 0.34517 0.0392 0.08225 0.0
N569 N 0.35557 0.02781 0.1151 0.0
C570 C 0.34555 0.05439 0.11155 0.0
C571 C 0.33991 0.06053 0.09373 0.0
C572 C 0.82723 0.86758 0.59692 0.0
C573 C 0.84048 0.88975 0.58775 0.0
C574 C 0.82673 0.86756 0.61508 0.0
C575 C 0.83944 0.8897 0.62459 0.0
H576 H 0.81835 0.8495 0.59001 0.0
H577 H 0.81747 0.84951 0.62175 0.0
S578 S 0.87623 0.9529 0.60641 0.0
N579 N 0.86557 0.93475 0.58919 0.0
N580 N 0.86509 0.93476 0.62348 0.0
C581 C 0.85163 0.91267 0.61552 0.0
C582 C 0.85199 0.91269 0.597 0.0
C583 C 0.82578 0.07403 0.36543 0.0
C584 C 0.84527 0.09079 0.37501 0.0
C585 C 0.82403 0.07603 0.34718 0.0
C586 C 0.84151 0.09507 0.33787 0.0
H587 H 0.81167 0.05939 0.37204 0.0
H588 H 0.80902 0.06247 0.34035 0.0
S589 S 0.89603 0.14375 0.35682 0.0
N590 N 0.88244 0.12695 0.37358 0.0
N591 N 0.87891 0.13093 0.33983 0.0
C592 C 0.86091 0.11194 0.34738 0.0
C593 C 0.86286 0.10974 0.36576 0.0
C594 C 0.64128 0.06525 0.09829 0.0
C595 C 0.63822 0.09141 0.08958 0.0
C596 C 0.64416 0.06436 0.11646 0.0
C597 C 0.64417 0.0896 0.12634 0.0
H598 H 0.64048 0.04543 0.09111 0.0
H599 H 0.64533 0.04382 0.12284 0.0
S600 S 0.64178 0.16343 0.10951 0.0
N601 N 0.63916 0.14314 0.09207 0.0
N602 N 0.64376 0.14126 0.12609 0.0
C603 C 0.64245 0.11579 0.11771 0.0
C604 C 0.63978 0.11675 0.09934 0.0
C605 C 0.61265 0.885 0.86556 0.0
C606 C 0.6378 0.89007 0.87508 0.0
C607 C 0.6129 0.88306 0.84747 0.0
C608 C 0.63833 0.88605 0.838 0.0
H609 H 0.59254 0.88193 0.87218 0.0
H610 H 0.59284 0.87898 0.84085 0.0
S611 S 0.7101 0.90048 0.85653 0.0
N612 N 0.68901 0.89872 0.87362 0.0
N613 N 0.68928 0.89553 0.83942 0.0
C614 C 0.66357 0.89223 0.84722 0.0
C615 C 0.66336 0.89411 0.86579 0.0
C616 C 0.62708 0.56412 0.85292 0.0
C617 C 0.64087 0.57853 0.83931 0.0
C618 C 0.63321 0.57028 0.8703 0.0
C619 C 0.65335 0.59119 0.87487 0.0
H620 H 0.61203 0.54717 0.85022 0.0
H621 H 0.62269 0.55782 0.8802 0.0
S622 S 0.68906 0.64083 0.84429 0.0
N623 N 0.67114 0.61869 0.83164 0.0
N624 N 0.68269 0.63038 0.86435 0.0
C625 C 0.66511 0.60784 0.86143 0.0
C626 C 0.65884 0.60151 0.84366 0.0
C627 C 0.63456 0.41125 0.09306 0.0
C628 C 0.65043 0.38697 0.08851 0.0
C629 C 0.62884 0.41761 0.11044 0.0
C630 C 0.63879 0.39997 0.12399 0.0
H631 H 0.62749 0.42615 0.08319 0.0
H632 H 0.61744 0.43715 0.11327 0.0
S633 S 0.67369 0.32939 0.11858 0.0
N634 N 0.67071 0.34205 0.09867 0.0
N635 N 0.65993 0.35403 0.13136 0.0
C636 C 0.65209 0.37407 0.11951 0.0
C637 C 0.65792 0.36758 0.10177 0.0
C638 C 0.85206 0.40029 0.36986 0.0
C639 C 0.82598 0.38767 0.37455 0.0
C640 C 0.85836 0.40606 0.35245 0.0
C641 C 0.83883 0.3994 0.33908 0.0
H642 H 0.86748 0.40635 0.37972 0.0
H643 H 0.87838 0.41647 0.3495 0.0
S644 S 0.76981 0.36176 0.34412 0.0
N645 N 0.78209 0.36552 0.36409 0.0
N646 N 0.79415 0.37615 0.33149 0.0
C647 C 0.81383 0.38466 0.34344 0.0
C648 C 0.80732 0.37891 0.36115 0.0
C649 C 0.81643 0.56561 0.59751 0.0
C650 C 0.83049 0.58768 0.58883 0.0
C651 C 0.82131 0.56063 0.61517 0.0
C652 C 0.8403 0.57764 0.62471 0.0
H653 H 0.80123 0.55232 0.59063 0.0
H654 H 0.81 0.54341 0.62147 0.0
S655 S 0.88369 0.63747 0.60774 0.0
N656 N 0.86491 0.6264 0.59079 0.0
N657 N 0.87429 0.61687 0.62416 0.0
C658 C 0.85491 0.5997 0.61617 0.0
C659 C 0.8499 0.6048 0.59813 0.0
C660 C 0.33672 0.3629 0.09784 0.0
C661 C 0.34145 0.38801 0.08834 0.0
C662 C 0.33535 0.36326 0.11594 0.0
C663 C 0.33853 0.38876 0.12524 0.0
H664 H 0.33483 0.3426 0.09123 0.0
H665 H 0.33269 0.34325 0.12275 0.0
S666 S 0.35025 0.46057 0.10634 0.0
N667 N 0.34796 0.43926 0.08932 0.0
N668 N 0.34582 0.44009 0.12358 0.0
C669 C 0.34191 0.41434 0.11587 0.0
C670 C 0.34319 0.41393 0.09732 0.0
C671 C 0.31575 0.58693 0.86627 0.0
C672 C 0.34084 0.5873 0.87651 0.0
C673 C 0.31683 0.58922 0.84807 0.0
C674 C 0.34308 0.59184 0.83948 0.0
H675 H 0.29508 0.58527 0.87241 0.0
H676 H 0.29704 0.58944 0.84072 0.0
S677 S 0.41493 0.5886 0.86006 0.0
N678 N 0.39259 0.58733 0.87654 0.0
N679 N 0.39482 0.59106 0.84244 0.0
C680 C 0.36832 0.59097 0.84953 0.0
C681 C 0.36716 0.58889 0.86802 0.0
C682 C 0.16235 0.58802 0.61532 0.0
C683 C 0.13629 0.59127 0.62415 0.0
C684 C 0.16293 0.58494 0.59712 0.0
C685 C 0.13739 0.58459 0.5874 0.0
H686 H 0.18235 0.58888 0.62242 0.0
H687 H 0.18336 0.5842 0.59062 0.0
S688 S 0.06375 0.58837 0.60439 0.0
N689 N 0.08439 0.59126 0.62174 0.0
N690 N 0.08569 0.5851 0.58789 0.0
C691 C 0.11138 0.58625 0.5962 0.0
C692 C 0.11074 0.58973 0.61449 0.0
C693 C 0.11283 0.38524 0.36542 0.0
C694 C 0.13762 0.39152 0.37496 0.0
C695 C 0.11329 0.3834 0.34739 0.0
C696 C 0.13858 0.38774 0.338 0.0
H697 H 0.0929 0.38089 0.37197 0.0
H698 H 0.09353 0.37808 0.34077 0.0
S699 S 0.20897 0.40763 0.35659 0.0
N700 N 0.18805 0.40412 0.37366 0.0
N701 N 0.18868 0.40112 0.33943 0.0
C702 C 0.16329 0.39582 0.34721 0.0
C703 C 0.16288 0.39757 0.36578 0.0
C704 C -0.0014 0.05206 0.28142 0.0
C705 C 0.01772 0.06802 0.29165 0.0
C706 C 0.96985 0.06019 0.27986 0.0
C707 C 0.95969 0.08469 0.28827 0.0
H708 H 0.00555 0.03254 0.27523 0.0
H709 H 0.9553 0.04674 0.27259 0.0
S710 S 0.00176 0.13552 0.31474 0.0
N711 N 0.02497 0.11078 0.30899 0.0
N712 N 0.97093 0.12588 0.30603 0.0
C713 C 0.97881 0.10152 0.2978 0.0
C714 C 0.00792 0.09324 0.29947 0.0
C715 C 0.17504 0.74827 0.55196 0.0
C716 C 0.16517 0.76716 0.53917 0.0
C717 C 0.16532 0.72021 0.55255 0.0
C718 C 0.14501 0.71018 0.5405 0.0
H719 H 0.18947 0.75561 0.56205 0.0
H720 H 0.1729 0.70672 0.56302 0.0
S721 S 0.1154 0.75058 0.50308 0.0
N722 N 0.13641 0.77359 0.51315 0.0
N723 N 0.11794 0.72052 0.51415 0.0
C724 C 0.1367 0.72829 0.52679 0.0
C725 C 0.1468 0.75696 0.52617 0.0
C726 C 0.47084 0.89304 0.80242 0.0
C727 C 0.4596 0.91296 0.79058 0.0
C728 C 0.49913 0.88396 0.80139 0.0
C729 C 0.51724 0.89422 0.7884 0.0
H730 H 0.45786 0.88476 0.81285 0.0
H731 H 0.50709 0.86919 0.8111 0.0
S732 S 0.49831 0.94587 0.75385 0.0
N733 N 0.46859 0.94208 0.76506 0.0
N734 N 0.52213 0.92463 0.76309 0.0
C735 C 0.50615 0.91318 0.77597 0.0
C736 C 0.47719 0.92264 0.77707 0.0
C737 C 0.33934 0.21784 0.03037 0.0
C738 C 0.31414 0.2086 0.03833 0.0
C739 C 0.34688 0.24672 0.03055 0.0
C740 C 0.32979 0.26689 0.03913 0.0
H741 H 0.35374 0.20254 0.02455 0.0
H742 H 0.36694 0.25303 0.02478 0.0
S743 S 0.26062 0.25318 0.06076 0.0
N744 N 0.27119 0.22155 0.0539 0.0
N745 N 0.28559 0.27584 0.05468 0.0
C746 C 0.30398 0.2579 0.04654 0.0
C747 C 0.2961 0.22865 0.04605 0.0
C748 C 0.97887 0.89331 0.68536 0.0
C749 C 0.96142 0.89552 0.67047 0.0
C750 C 0.0071 0.90349 0.68529 0.0
C751 C 0.0186 0.91607 0.67032 0.0
H752 H 0.97106 0.88272 0.69688 0.0
H753 H 0.02031 0.9004 0.69673 0.0
S754 S 0.98005 0.9317 0.62922 0.0
N755 N 0.95653 0.91483 0.64129 0.0
N756 N 0.00939 0.93346 0.64112 0.0
C757 C 0.00078 0.91998 0.6558 0.0
C758 C 0.97221 0.90983 0.65589 0.0
C759 C 0.34077 0.76121 0.931 0.0
C760 C 0.31379 0.76977 0.92496 0.0
C761 C 0.34906 0.73256 0.93032 0.0
C762 C 0.33092 0.71185 0.92301 0.0
H763 H 0.35599 0.77693 0.93555 0.0
H764 H 0.37055 0.72705 0.93439 0.0
S765 S 0.25674 0.72356 0.90723 0.0
N766 N 0.26795 0.75553 0.91306 0.0
N767 N 0.28347 0.70156 0.91148 0.0
C768 C 0.30308 0.72002 0.91806 0.0
C769 C 0.29456 0.74911 0.91903 0.0
C770 C 0.48243 0.04854 0.1671 0.0
C771 C 0.46177 0.06586 0.17492 0.0
C772 C 0.51094 0.05731 0.16629 0.0
C773 C 0.51952 0.08371 0.17326 0.0
H774 H 0.47623 0.02884 0.16079 0.0
H775 H 0.52605 0.04393 0.15947 0.0
S776 S 0.47341 0.13543 0.19639 0.0
N777 N 0.45157 0.10948 0.19057 0.0
N778 N 0.50535 0.12576 0.1896 0.0
C779 C 0.49926 0.10018 0.18221 0.0
C780 C 0.47022 0.09137 0.18281 0.0
C781 C 0.12951 0.2471 0.41695 0.0
C782 C 0.14744 0.26681 0.42524 0.0
C783 C 0.13733 0.21842 0.4157 0.0
C784 C 0.16334 0.2086 0.42271 0.0
H785 H 0.10982 0.25412 0.41084 0.0
H786 H 0.12327 0.20399 0.40877 0.0
S787 S 0.21752 0.25204 0.44582 0.0
N788 N 0.19196 0.27493 0.4407 0.0
N789 N 0.20666 0.2207 0.43859 0.0
C790 C 0.18094 0.22795 0.43163 0.0
C791 C 0.17301 0.25724 0.43279 0.0
C792 C 0.80993 0.21897 0.43217 0.0
C793 C 0.83558 0.20929 0.42488 0.0
C794 C 0.80183 0.24769 0.43082 0.0
C795 C 0.81887 0.2673 0.42179 0.0
H796 H 0.79573 0.2041 0.43851 0.0
H797 H 0.78157 0.25429 0.43623 0.0
S798 S 0.88902 0.25252 0.40152 0.0
N799 N 0.8787 0.22141 0.40928 0.0
N800 N 0.86345 0.27534 0.40649 0.0
C801 C 0.84501 0.2579 0.41493 0.0
C802 C 0.85336 0.22884 0.41652 0.0
C803 C 0.66649 0.7272 0.93464 0.0
C804 C 0.66422 0.71062 0.91949 0.0
C805 C 0.65553 0.75509 0.93519 0.0
C806 C 0.64174 0.76721 0.92065 0.0
H807 H 0.67738 0.71885 0.94599 0.0
H808 H 0.65835 0.76736 0.94697 0.0
S809 S 0.62748 0.73114 0.87852 0.0
N810 N 0.64519 0.70739 0.89013 0.0
N811 N 0.62468 0.75943 0.89109 0.0
C812 C 0.63847 0.75032 0.90566 0.0
C813 C 0.64967 0.72212 0.9051 0.0
C814 C 0.68168 0.24611 0.04263 0.0
C815 C 0.66152 0.26714 0.03836 0.0
C816 C 0.67403 0.21727 0.04271 0.0
C817 C 0.64625 0.20872 0.03809 0.0
H818 H 0.703 0.25208 0.04677 0.0
H819 H 0.68973 0.20163 0.0468 0.0
S820 S 0.5862 0.25585 0.02531 0.0
N821 N 0.613 0.27783 0.02925 0.0
N822 N 0.59891 0.22341 0.02859 0.0
C823 C 0.62634 0.22953 0.03303 0.0
C824 C 0.63391 0.25889 0.03342 0.0
C825 C 0.81256 0.7591 0.55081 0.0
C826 C 0.83282 0.76914 0.5389 0.0
C827 C 0.80388 0.73069 0.55069 0.0
C828 C 0.8149 0.71144 0.53855 0.0
H829 H 0.80407 0.77302 0.56075 0.0
H830 H 0.78925 0.72345 0.5606 0.0
S831 S 0.86705 0.72706 0.50397 0.0
N832 N 0.86255 0.75783 0.51402 0.0
N833 N 0.8459 0.70411 0.51383 0.0
C834 C 0.83386 0.72134 0.52593 0.0
C835 C 0.84288 0.75037 0.52607 0.0
C836 C 0.49936 0.55101 0.78171 0.0
C837 C 0.51852 0.56779 0.79143 0.0
C838 C 0.47053 0.55883 0.7801 0.0
C839 C 0.46035 0.58392 0.78782 0.0
H840 H 0.50635 0.53107 0.77605 0.0
H841 H 0.45596 0.54474 0.77332 0.0
S842 S 0.50228 0.63673 0.81284 0.0
N843 N 0.5256 0.61173 0.80768 0.0
N844 N 0.47149 0.6264 0.80441 0.0
C845 C 0.47948 0.60156 0.79675 0.0
C846 C 0.50863 0.59352 0.7986 0.0
C847 C -0.00314 0.3785 0.28397 0.0
C848 C 0.01773 0.39855 0.28872 0.0
C849 C 0.96781 0.38565 0.2843 0.0
C850 C 0.95901 0.41328 0.28877 0.0
H851 H 0.00292 0.35679 0.28088 0.0
H852 H 0.95211 0.36933 0.28148 0.0
S853 S 0.00534 0.47397 0.30088 0.0
N854 N 0.02774 0.44737 0.29736 0.0
N855 N 0.97307 0.4611 0.29716 0.0
C856 C 0.97967 0.43388 0.29264 0.0
C857 C 0.00913 0.42642 0.29283 0.0
C858 C 0.48046 0.38579 0.15989 0.0
C859 C 0.46247 0.39395 0.17352 0.0
C860 C 0.50851 0.39551 0.159 0.0
C861 C 0.51977 0.41392 0.17168 0.0
H862 H 0.47264 0.37211 0.14958 0.0
H863 H 0.52131 0.38883 0.14807 0.0
S864 S 0.4818 0.44081 0.21049 0.0
N865 N 0.45801 0.42064 0.20042 0.0
N866 N 0.51116 0.43914 0.19874 0.0
C867 C 0.50245 0.42141 0.18583 0.0
C868 C 0.47367 0.41136 0.18675 0.0
C869 C 0.97364 0.5711 0.68524 0.0
C870 C 0.96178 0.56045 0.6697 0.0
C871 C 0.00149 0.5822 0.68572 0.0
C872 C 0.01822 0.58317 0.67064 0.0
H873 H 0.96114 0.57154 0.69702 0.0
H874 H 0.00959 0.59086 0.69781 0.0
S875 S -0.00146 0.55474 0.62724 0.0
N876 N 0.97005 0.5494 0.63926 0.0
N877 N 0.02206 0.57 0.64023 0.0
C878 C 0.00707 0.57142 0.65526 0.0
C879 C 0.97892 0.56014 0.65477 0.0
loop_
_geom_bond_atom_site_label_1
_geom_bond_atom_site_label_2
_geom_bond_distance
_geom_bond_site_symmetry_2
_ccdc_geom_bond_type
O0 Cd1 2.300 . S
O0 C7 1.275 . S
Cd1 O0 2.300 . S
Cd1 O9 2.381 . S
Cd1 O10 2.378 . S
O2 Cd3 2.385 . S
O2 C7 1.255 . S
Cd3 O2 2.385 . S
Cd3 O4 2.317 . S
O4 Cd3 2.317 . S
O4 C5 1.232 . S
C5 O4 1.232 . S
C5 O6 1.218 . S
O6 C5 1.218 . S
C7 O0 1.275 . S
C7 O2 1.255 . S
C8 O9 1.258 . S
C8 O10 1.256 . S
O9 Cd1 2.381 . S
O9 C8 1.258 . S
O10 Cd1 2.378 . S
O10 C8 1.256 . S
O11 Cd12 2.300 . S
O11 C18 1.275 . S
Cd12 O11 2.300 . S
Cd12 O20 2.381 . S
Cd12 O21 2.378 . S
O13 Cd14 2.385 . S
O13 C18 1.255 . S
Cd14 O13 2.385 . S
Cd14 O15 2.317 . S
O15 Cd14 2.317 . S
O15 C16 1.232 . S
C16 O15 1.232 . S
C16 O17 1.218 . S
O17 C16 1.218 . S
C18 O11 1.275 . S
C18 O13 1.255 . S
C19 O20 1.258 . S
C19 O21 1.256 . S
O20 Cd12 2.381 . S
O20 C19 1.258 . S
O21 Cd12 2.378 . S
O21 C19 1.256 . S
O22 Cd23 2.300 . S
O22 C29 1.275 . S
Cd23 O22 2.300 . S
Cd23 O31 2.381 . S
Cd23 O32 2.378 . S
O24 Cd25 2.385 . S
O24 C29 1.255 . S
Cd25 O24 2.385 . S
Cd25 O26 2.317 . S
O26 Cd25 2.317 . S
O26 C27 1.232 . S
C27 O26 1.232 . S
C27 O28 1.218 . S
O28 C27 1.218 . S
C29 O22 1.275 . S
C29 O24 1.255 . S
C30 O31 1.258 . S
C30 O32 1.256 . S
O31 Cd23 2.381 . S
O31 C30 1.258 . S
O32 Cd23 2.378 . S
O32 C30 1.256 . S
O33 Cd34 2.300 . S
O33 C40 1.275 . S
Cd34 O33 2.300 . S
Cd34 O42 2.381 . S
Cd34 O43 2.378 . S
O35 Cd36 2.385 . S
O35 C40 1.255 . S
Cd36 O35 2.385 . S
Cd36 O37 2.317 . S
O37 Cd36 2.317 . S
O37 C38 1.232 . S
C38 O37 1.232 . S
C38 O39 1.218 . S
O39 C38 1.218 . S
C40 O33 1.275 . S
C40 O35 1.255 . S
C41 O42 1.258 . S
C41 O43 1.256 . S
O42 Cd34 2.381 . S
O42 C41 1.258 . S
O43 Cd34 2.378 . S
O43 C41 1.256 . S
O44 Cd45 2.300 . S
O44 C51 1.275 . S
Cd45 O44 2.300 . S
Cd45 O53 2.381 . S
Cd45 O54 2.378 . S
O46 Cd47 2.385 . S
O46 C51 1.255 . S
Cd47 O46 2.385 . S
Cd47 O48 2.317 . S
O48 Cd47 2.317 . S
O48 C49 1.232 . S
C49 O48 1.232 . S
C49 O50 1.218 . S
O50 C49 1.218 . S
C51 O44 1.275 . S
C51 O46 1.255 . S
C52 O53 1.258 . S
C52 O54 1.256 . S
O53 Cd45 2.381 . S
O53 C52 1.258 . S
O54 Cd45 2.378 . S
O54 C52 1.256 . S
O55 Cd56 2.300 . S
O55 C62 1.275 . S
Cd56 O55 2.300 . S
Cd56 O64 2.381 . S
Cd56 O65 2.378 . S
O57 Cd58 2.385 . S
O57 C62 1.255 . S
Cd58 O57 2.385 . S
Cd58 O59 2.317 . S
O59 Cd58 2.317 . S
O59 C60 1.232 . S
C60 O59 1.232 . S
C60 O61 1.218 . S
O61 C60 1.218 . S
C62 O55 1.275 . S
C62 O57 1.255 . S
C63 O64 1.258 . S
C63 O65 1.256 . S
O64 Cd56 2.381 . S
O64 C63 1.258 . S
O65 Cd56 2.378 . S
O65 C63 1.256 . S
O66 Cd67 2.300 . S
O66 C73 1.275 . S
Cd67 O66 2.300 . S
Cd67 O75 2.381 . S
Cd67 O76 2.378 . S
O68 Cd69 2.385 . S
O68 C73 1.255 . S
Cd69 O68 2.385 . S
Cd69 O70 2.317 . S
O70 Cd69 2.317 . S
O70 C71 1.232 . S
C71 O70 1.232 . S
C71 O72 1.218 . S
O72 C71 1.218 . S
C73 O66 1.275 . S
C73 O68 1.255 . S
C74 O75 1.258 . S
C74 O76 1.256 . S
O75 Cd67 2.381 . S
O75 C74 1.258 . S
O76 Cd67 2.378 . S
O76 C74 1.256 . S
O77 Cd78 2.300 . S
O77 C84 1.275 . S
Cd78 O77 2.300 . S
Cd78 O86 2.381 . S
Cd78 O87 2.378 . S
O79 Cd80 2.385 . S
O79 C84 1.255 . S
Cd80 O79 2.385 . S
Cd80 O81 2.317 . S
O81 Cd80 2.317 . S
O81 C82 1.232 . S
C82 O81 1.232 . S
C82 O83 1.218 . S
O83 C82 1.218 . S
C84 O77 1.275 . S
C84 O79 1.255 . S
C85 O86 1.258 . S
C85 O87 1.256 . S
O86 Cd78 2.381 . S
O86 C85 1.258 . S
O87 Cd78 2.378 . S
O87 C85 1.256 . S
O88 Cd89 2.300 . S
O88 C95 1.275 . S
Cd89 O88 2.300 . S
Cd89 O97 2.381 . S
Cd89 O98 2.378 . S
O90 Cd91 2.385 . S
O90 C95 1.255 . S
Cd91 O90 2.385 . S
Cd91 O92 2.317 . S
O92 Cd91 2.317 . S
O92 C93 1.232 . S
C93 O92 1.232 . S
C93 O94 1.218 . S
O94 C93 1.218 . S
C95 O88 1.275 . S
C95 O90 1.255 . S
C96 O97 1.258 . S
C96 O98 1.256 . S
O97 Cd89 2.381 . S
O97 C96 1.258 . S
O98 Cd89 2.378 . S
O98 C96 1.256 . S
O99 Cd100 2.300 . S
O99 C106 1.275 . S
Cd100 O99 2.300 . S
Cd100 O108 2.381 . S
Cd100 O109 2.378 . S
O101 Cd102 2.385 . S
O101 C106 1.255 . S
Cd102 O101 2.385 . S
Cd102 O103 2.317 . S
O103 Cd102 2.317 . S
O103 C104 1.232 . S
C104 O103 1.232 . S
C104 O105 1.218 . S
O105 C104 1.218 . S
C106 O99 1.275 . S
C106 O101 1.255 . S
C107 O108 1.258 . S
C107 O109 1.256 . S
O108 Cd100 2.381 . S
O108 C107 1.258 . S
O109 Cd100 2.378 . S
O109 C107 1.256 . S
O110 Cd111 2.300 . S
O110 C117 1.275 . S
Cd111 O110 2.300 . S
Cd111 O119 2.381 . S
Cd111 O120 2.378 . S
O112 Cd113 2.385 . S
O112 C117 1.255 . S
Cd113 O112 2.385 . S
Cd113 O114 2.317 . S
O114 Cd113 2.317 . S
O114 C115 1.232 . S
C115 O114 1.232 . S
C115 O116 1.218 . S
O116 C115 1.218 . S
C117 O110 1.275 . S
C117 O112 1.255 . S
C118 O119 1.258 . S
C118 O120 1.256 . S
O119 Cd111 2.381 . S
O119 C118 1.258 . S
O120 Cd111 2.378 . S
O120 C118 1.256 . S
O121 Cd122 2.300 . S
O121 C128 1.275 . S
Cd122 O121 2.300 . S
Cd122 O130 2.381 . S
Cd122 O131 2.378 . S
O123 Cd124 2.385 . S
O123 C128 1.255 . S
Cd124 O123 2.385 . S
Cd124 O125 2.317 . S
O125 Cd124 2.317 . S
O125 C126 1.232 . S
C126 O125 1.232 . S
C126 O127 1.218 . S
O127 C126 1.218 . S
C128 O121 1.275 . S
C128 O123 1.255 . S
C129 O130 1.258 . S
C129 O131 1.256 . S
O130 Cd122 2.381 . S
O130 C129 1.258 . S
O131 Cd122 2.378 . S
O131 C129 1.256 . S
O132 Cd133 2.300 . S
O132 C139 1.275 . S
Cd133 O132 2.300 . S
Cd133 O141 2.381 . S
Cd133 O142 2.378 . S
O134 Cd135 2.385 . S
O134 C139 1.255 . S
Cd135 O134 2.385 . S
Cd135 O136 2.317 . S
O136 Cd135 2.317 . S
O136 C137 1.232 . S
C137 O136 1.232 . S
C137 O138 1.218 . S
O138 C137 1.218 . S
C139 O132 1.275 . S
C139 O134 1.255 . S
C140 O141 1.258 . S
C140 O142 1.256 . S
O141 Cd133 2.381 . S
O141 C140 1.258 . S
O142 Cd133 2.378 . S
O142 C140 1.256 . S
O143 Cd144 2.300 . S
O143 C150 1.275 . S
Cd144 O143 2.300 . S
Cd144 O152 2.381 . S
Cd144 O153 2.378 . S
O145 Cd146 2.385 . S
O145 C150 1.255 . S
Cd146 O145 2.385 . S
Cd146 O147 2.317 . S
O147 Cd146 2.317 . S
O147 C148 1.232 . S
C148 O147 1.232 . S
C148 O149 1.218 . S
O149 C148 1.218 . S
C150 O143 1.275 . S
C150 O145 1.255 . S
C151 O152 1.258 . S
C151 O153 1.256 . S
O152 Cd144 2.381 . S
O152 C151 1.258 . S
O153 Cd144 2.378 . S
O153 C151 1.256 . S
O154 Cd155 2.300 . S
O154 C161 1.275 . S
Cd155 O154 2.300 . S
Cd155 O163 2.381 . S
Cd155 O164 2.378 . S
O156 Cd157 2.385 . S
O156 C161 1.255 . S
Cd157 O156 2.385 . S
Cd157 O158 2.317 . S
O158 Cd157 2.317 . S
O158 C159 1.232 . S
C159 O158 1.232 . S
C159 O160 1.218 . S
O160 C159 1.218 . S
C161 O154 1.275 . S
C161 O156 1.255 . S
C162 O163 1.258 . S
C162 O164 1.256 . S
O163 Cd155 2.381 . S
O163 C162 1.258 . S
O164 Cd155 2.378 . S
O164 C162 1.256 . S
O165 Cd166 2.300 . S
O165 C172 1.275 . S
Cd166 O165 2.300 . S
Cd166 O174 2.381 . S
Cd166 O175 2.378 . S
O167 Cd168 2.385 . S
O167 C172 1.255 . S
Cd168 O167 2.385 . S
Cd168 O169 2.317 . S
O169 Cd168 2.317 . S
O169 C170 1.232 . S
C170 O169 1.232 . S
C170 O171 1.218 . S
O171 C170 1.218 . S
C172 O165 1.275 . S
C172 O167 1.255 . S
C173 O174 1.258 . S
C173 O175 1.256 . S
O174 Cd166 2.381 . S
O174 C173 1.258 . S
O175 Cd166 2.378 . S
O175 C173 1.256 . S
O176 Cd177 2.300 . S
O176 C183 1.275 . S
Cd177 O176 2.300 . S
Cd177 O185 2.381 . S
Cd177 O186 2.378 . S
O178 Cd179 2.385 . S
O178 C183 1.255 . S
Cd179 O178 2.385 . S
Cd179 O180 2.317 . S
O180 Cd179 2.317 . S
O180 C181 1.232 . S
C181 O180 1.232 . S
C181 O182 1.218 . S
O182 C181 1.218 . S
C183 O176 1.275 . S
C183 O178 1.255 . S
C184 O185 1.258 . S
C184 O186 1.256 . S
O185 Cd177 2.381 . S
O185 C184 1.258 . S
O186 Cd177 2.378 . S
O186 C184 1.256 . S
O187 Cd188 2.300 . S
O187 C194 1.275 . S
Cd188 O187 2.300 . S
Cd188 O196 2.381 . S
Cd188 O197 2.378 . S
O189 Cd190 2.385 . S
O189 C194 1.255 . S
Cd190 O189 2.385 . S
Cd190 O191 2.317 . S
O191 Cd190 2.317 . S
O191 C192 1.232 . S
C192 O191 1.232 . S
C192 O193 1.218 . S
O193 C192 1.218 . S
C194 O187 1.275 . S
C194 O189 1.255 . S
C195 O196 1.258 . S
C195 O197 1.256 . S
O196 Cd188 2.381 . S
O196 C195 1.258 . S
O197 Cd188 2.378 . S
O197 C195 1.256 . S
O198 Cd199 2.300 . S
O198 C205 1.275 . S
Cd199 O198 2.300 . S
Cd199 O207 2.381 . S
Cd199 O208 2.378 . S
O200 Cd201 2.385 . S
O200 C205 1.255 . S
Cd201 O200 2.385 . S
Cd201 O202 2.317 . S
O202 Cd201 2.317 . S
O202 C203 1.232 . S
C203 O202 1.232 . S
C203 O204 1.218 . S
O204 C203 1.218 . S
C205 O198 1.275 . S
C205 O200 1.255 . S
C206 O207 1.258 . S
C206 O208 1.256 . S
O207 Cd199 2.381 . S
O207 C206 1.258 . S
O208 Cd199 2.378 . S
O208 C206 1.256 . S
O209 Cd210 2.300 . S
O209 C216 1.275 . S
Cd210 O209 2.300 . S
Cd210 O218 2.381 . S
Cd210 O219 2.378 . S
O211 Cd212 2.385 . S
O211 C216 1.255 . S
Cd212 O211 2.385 . S
Cd212 O213 2.317 . S
O213 Cd212 2.317 . S
O213 C214 1.232 . S
C214 O213 1.232 . S
C214 O215 1.218 . S
O215 C214 1.218 . S
C216 O209 1.275 . S
C216 O211 1.255 . S
C217 O218 1.258 . S
C217 O219 1.256 . S
O218 Cd210 2.381 . S
O218 C217 1.258 . S
O219 Cd210 2.378 . S
O219 C217 1.256 . S
O220 Cd221 2.300 . S
O220 C227 1.275 . S
Cd221 O220 2.300 . S
Cd221 O229 2.381 . S
Cd221 O230 2.378 . S
O222 Cd223 2.385 . S
O222 C227 1.255 . S
Cd223 O222 2.385 . S
Cd223 O224 2.317 . S
O224 Cd223 2.317 . S
O224 C225 1.232 . S
C225 O224 1.232 . S
C225 O226 1.218 . S
O226 C225 1.218 . S
C227 O220 1.275 . S
C227 O222 1.255 . S
C228 O229 1.258 . S
C228 O230 1.256 . S
O229 Cd221 2.381 . S
O229 C228 1.258 . S
O230 Cd221 2.378 . S
O230 C228 1.256 . S
O231 Cd232 2.300 . S
O231 C238 1.275 . S
Cd232 O231 2.300 . S
Cd232 O240 2.381 . S
Cd232 O241 2.378 . S
O233 Cd234 2.385 . S
O233 C238 1.255 . S
Cd234 O233 2.385 . S
Cd234 O235 2.317 . S
O235 Cd234 2.317 . S
O235 C236 1.232 . S
C236 O235 1.232 . S
C236 O237 1.218 . S
O237 C236 1.218 . S
C238 O231 1.275 . S
C238 O233 1.255 . S
C239 O240 1.258 . S
C239 O241 1.256 . S
O240 Cd232 2.381 . S
O240 C239 1.258 . S
O241 Cd232 2.378 . S
O241 C239 1.256 . S
O242 Cd243 2.300 . S
O242 C249 1.275 . S
Cd243 O242 2.300 . S
Cd243 O251 2.381 . S
Cd243 O252 2.378 . S
O244 Cd245 2.385 . S
O244 C249 1.255 . S
Cd245 O244 2.385 . S
Cd245 O246 2.317 . S
O246 Cd245 2.317 . S
O246 C247 1.232 . S
C247 O246 1.232 . S
C247 O248 1.218 . S
O248 C247 1.218 . S
C249 O242 1.275 . S
C249 O244 1.255 . S
C250 O251 1.258 . S
C250 O252 1.256 . S
O251 Cd243 2.381 . S
O251 C250 1.258 . S
O252 Cd243 2.378 . S
O252 C250 1.256 . S
O253 Cd254 2.300 . S
O253 C260 1.275 . S
Cd254 O253 2.300 . S
Cd254 O262 2.381 . S
Cd254 O263 2.378 . S
O255 Cd256 2.385 . S
O255 C260 1.255 . S
Cd256 O255 2.385 . S
Cd256 O257 2.317 . S
O257 Cd256 2.317 . S
O257 C258 1.232 . S
C258 O257 1.232 . S
C258 O259 1.218 . S
O259 C258 1.218 . S
C260 O253 1.275 . S
C260 O255 1.255 . S
C261 O262 1.258 . S
C261 O263 1.256 . S
O262 Cd254 2.381 . S
O262 C261 1.258 . S
O263 Cd254 2.378 . S
O263 C261 1.256 . S
O264 Cd265 2.300 . S
O264 C271 1.275 . S
Cd265 O264 2.300 . S
Cd265 O273 2.381 . S
Cd265 O274 2.378 . S
O266 Cd267 2.385 . S
O266 C271 1.255 . S
Cd267 O266 2.385 . S
Cd267 O268 2.317 . S
O268 Cd267 2.317 . S
O268 C269 1.232 . S
C269 O268 1.232 . S
C269 O270 1.218 . S
O270 C269 1.218 . S
C271 O264 1.275 . S
C271 O266 1.255 . S
C272 O273 1.258 . S
C272 O274 1.256 . S
O273 Cd265 2.381 . S
O273 C272 1.258 . S
O274 Cd265 2.378 . S
O274 C272 1.256 . S
O275 Cd276 2.300 . S
O275 C282 1.275 . S
Cd276 O275 2.300 . S
Cd276 O284 2.381 . S
Cd276 O285 2.378 . S
O277 Cd278 2.385 . S
O277 C282 1.255 . S
Cd278 O277 2.385 . S
Cd278 O279 2.317 . S
O279 Cd278 2.317 . S
O279 C280 1.232 . S
C280 O279 1.232 . S
C280 O281 1.218 . S
O281 C280 1.218 . S
C282 O275 1.275 . S
C282 O277 1.255 . S
C283 O284 1.258 . S
C283 O285 1.256 . S
O284 Cd276 2.381 . S
O284 C283 1.258 . S
O285 Cd276 2.378 . S
O285 C283 1.256 . S
O286 Cd287 2.300 . S
O286 C293 1.275 . S
Cd287 O286 2.300 . S
Cd287 O295 2.381 . S
Cd287 O296 2.378 . S
O288 Cd289 2.385 . S
O288 C293 1.255 . S
Cd289 O288 2.385 . S
Cd289 O290 2.317 . S
O290 Cd289 2.317 . S
O290 C291 1.232 . S
C291 O290 1.232 . S
C291 O292 1.218 . S
O292 C291 1.218 . S
C293 O286 1.275 . S
C293 O288 1.255 . S
C294 O295 1.258 . S
C294 O296 1.256 . S
O295 Cd287 2.381 . S
O295 C294 1.258 . S
O296 Cd287 2.378 . S
O296 C294 1.256 . S
O297 Cd298 2.300 . S
O297 C304 1.275 . S
Cd298 O297 2.300 . S
Cd298 O306 2.381 . S
Cd298 O307 2.378 . S
O299 Cd300 2.385 . S
O299 C304 1.255 . S
Cd300 O299 2.385 . S
Cd300 O301 2.317 . S
O301 Cd300 2.317 . S
O301 C302 1.232 . S
C302 O301 1.232 . S
C302 O303 1.218 . S
O303 C302 1.218 . S
C304 O297 1.275 . S
C304 O299 1.255 . S
C305 O306 1.258 . S
C305 O307 1.256 . S
O306 Cd298 2.381 . S
O306 C305 1.258 . S
O307 Cd298 2.378 . S
O307 C305 1.256 . S
O308 Cd309 2.300 . S
O308 C315 1.275 . S
Cd309 O308 2.300 . S
Cd309 O317 2.381 . S
Cd309 O318 2.378 . S
O310 Cd311 2.385 . S
O310 C315 1.255 . S
Cd311 O310 2.385 . S
Cd311 O312 2.317 . S
O312 Cd311 2.317 . S
O312 C313 1.232 . S
C313 O312 1.232 . S
C313 O314 1.218 . S
O314 C313 1.218 . S
C315 O308 1.275 . S
C315 O310 1.255 . S
C316 O317 1.258 . S
C316 O318 1.256 . S
O317 Cd309 2.381 . S
O317 C316 1.258 . S
O318 Cd309 2.378 . S
O318 C316 1.256 . S
O319 Cd320 2.300 . S
O319 C326 1.275 . S
Cd320 O319 2.300 . S
Cd320 O328 2.381 . S
Cd320 O329 2.378 . S
O321 Cd322 2.385 . S
O321 C326 1.255 . S
Cd322 O321 2.385 . S
Cd322 O323 2.317 . S
O323 Cd322 2.317 . S
O323 C324 1.232 . S
C324 O323 1.232 . S
C324 O325 1.218 . S
O325 C324 1.218 . S
C326 O319 1.275 . S
C326 O321 1.255 . S
C327 O328 1.258 . S
C327 O329 1.256 . S
O328 Cd320 2.381 . S
O328 C327 1.258 . S
O329 Cd320 2.378 . S
O329 C327 1.256 . S
O330 Cd331 2.300 . S
O330 C337 1.275 . S
Cd331 O330 2.300 . S
Cd331 O339 2.381 . S
Cd331 O340 2.378 . S
O332 Cd333 2.385 . S
O332 C337 1.255 . S
Cd333 O332 2.385 . S
Cd333 O334 2.317 . S
O334 Cd333 2.317 . S
O334 C335 1.232 . S
C335 O334 1.232 . S
C335 O336 1.218 . S
O336 C335 1.218 . S
C337 O330 1.275 . S
C337 O332 1.255 . S
C338 O339 1.258 . S
C338 O340 1.256 . S
O339 Cd331 2.381 . S
O339 C338 1.258 . S
O340 Cd331 2.378 . S
O340 C338 1.256 . S
O341 Cd342 2.300 . S
O341 C348 1.275 . S
Cd342 O341 2.300 . S
Cd342 O350 2.381 . S
Cd342 O351 2.378 . S
O343 Cd344 2.385 . S
O343 C348 1.255 . S
Cd344 O343 2.385 . S
Cd344 O345 2.317 . S
O345 Cd344 2.317 . S
O345 C346 1.232 . S
C346 O345 1.232 . S
C346 O347 1.218 . S
O347 C346 1.218 . S
C348 O341 1.275 . S
C348 O343 1.255 . S
C349 O350 1.258 . S
C349 O351 1.256 . S
O350 Cd342 2.381 . S
O350 C349 1.258 . S
O351 Cd342 2.378 . S
O351 C349 1.256 . S
C352 C353 1.369 . S
C352 C354 1.419 . S
C352 H356 0.930 . S
C353 C352 1.369 . S
C353 C362 1.429 . S
C354 C352 1.419 . S
C354 C355 1.363 . S
C354 H357 0.929 . S
C355 C354 1.363 . S
C355 C361 1.428 . S
H356 C352 0.930 . S
H357 C354 0.929 . S
S358 N359 1.613 . S
S358 N360 1.610 . S
N359 S358 1.613 . S
N359 C362 1.350 . S
N360 S358 1.610 . S
N360 C361 1.351 . S
C361 C355 1.428 . S
C361 N360 1.351 . S
C361 C362 1.434 . S
C362 C353 1.429 . S
C362 N359 1.350 . S
C362 C361 1.434 . S
C363 C364 1.369 . S
C363 C365 1.419 . S
C363 H367 0.930 . S
C364 C363 1.369 . S
C364 C373 1.429 1_545 S
C365 C363 1.419 . S
C365 C366 1.363 1_545 S
C365 H368 0.929 . S
C366 C365 1.363 1_565 S
C366 C372 1.428 . S
H367 C363 0.930 . S
H368 C365 0.929 . S
S369 N370 1.613 . S
S369 N371 1.610 . S
N370 S369 1.613 . S
N370 C373 1.350 . S
N371 S369 1.610 . S
N371 C372 1.351 . S
C372 C366 1.428 . S
C372 N371 1.351 . S
C372 C373 1.434 . S
C373 C364 1.429 1_565 S
C373 N370 1.350 . S
C373 C372 1.434 . S
C374 C375 1.369 . S
C374 C376 1.419 . S
C374 H378 0.930 . S
C375 C374 1.369 . S
C375 C384 1.429 . S
C376 C374 1.419 . S
C376 C377 1.363 . S
C376 H379 0.929 . S
C377 C376 1.363 . S
C377 C383 1.428 . S
H378 C374 0.930 . S
H379 C376 0.929 . S
S380 N381 1.613 . S
S380 N382 1.610 . S
N381 S380 1.613 . S
N381 C384 1.350 . S
N382 S380 1.610 . S
N382 C383 1.351 . S
C383 C377 1.428 . S
C383 N382 1.351 . S
C383 C384 1.434 . S
C384 C375 1.429 . S
C384 N381 1.350 . S
C384 C383 1.434 . S
C385 C386 1.369 1_556 S
C385 C387 1.419 . S
C385 H389 0.930 . S
C386 C385 1.369 1_554 S
C386 C395 1.429 1_545 S
C387 C385 1.419 . S
C387 C388 1.363 1_545 S
C387 H390 0.929 . S
C388 C387 1.363 1_565 S
C388 C394 1.428 1_556 S
H389 C385 0.930 . S
H390 C387 0.929 . S
S391 N392 1.613 . S
S391 N393 1.610 . S
N392 S391 1.613 . S
N392 C395 1.350 . S
N393 S391 1.610 . S
N393 C394 1.351 . S
C394 C388 1.428 1_554 S
C394 N393 1.351 . S
C394 C395 1.434 . S
C395 C386 1.429 1_565 S
C395 N392 1.350 . S
C395 C394 1.434 . S
C396 C397 1.369 . S
C396 C398 1.419 . S
C396 H400 0.930 . S
C397 C396 1.369 . S
C397 C406 1.429 . S
C398 C396 1.419 . S
C398 C399 1.363 . S
C398 H401 0.929 . S
C399 C398 1.363 . S
C399 C405 1.428 . S
H400 C396 0.930 . S
H401 C398 0.929 . S
S402 N403 1.613 . S
S402 N404 1.610 . S
N403 S402 1.613 . S
N403 C406 1.350 . S
N404 S402 1.610 . S
N404 C405 1.351 . S
C405 C399 1.428 . S
C405 N404 1.351 . S
C405 C406 1.434 . S
C406 C397 1.429 . S
C406 N403 1.350 . S
C406 C405 1.434 . S
C407 C408 1.369 1_545 S
C407 C409 1.419 . S
C407 H411 0.930 . S
C408 C407 1.369 1_565 S
C408 C417 1.429 . S
C409 C407 1.419 . S
C409 C410 1.363 . S
C409 H412 0.929 . S
C410 C409 1.363 . S
C410 C416 1.428 1_545 S
H411 C407 0.930 . S
H412 C409 0.929 . S
S413 N414 1.613 . S
S413 N415 1.610 . S
N414 S413 1.613 . S
N414 C417 1.350 . S
N415 S413 1.610 . S
N415 C416 1.351 . S
C416 C410 1.428 1_565 S
C416 N415 1.351 . S
C416 C417 1.434 . S
C417 C408 1.429 . S
C417 N414 1.350 . S
C417 C416 1.434 . S
C418 C419 1.369 . S
C418 C420 1.419 . S
C418 H422 0.930 . S
C419 C418 1.369 . S
C419 C428 1.429 . S
C420 C418 1.419 . S
C420 C421 1.363 . S
C420 H423 0.929 . S
C421 C420 1.363 . S
C421 C427 1.428 . S
H422 C418 0.930 . S
H423 C420 0.929 . S
S424 N425 1.613 . S
S424 N426 1.610 . S
N425 S424 1.613 . S
N425 C428 1.350 . S
N426 S424 1.610 . S
N426 C427 1.351 . S
C427 C421 1.428 . S
C427 N426 1.351 . S
C427 C428 1.434 . S
C428 C419 1.429 . S
C428 N425 1.350 . S
C428 C427 1.434 . S
C429 C430 1.369 1_565 S
C429 C431 1.419 . S
C429 H433 0.930 . S
C430 C429 1.369 1_545 S
C430 C439 1.429 1_554 S
C431 C429 1.419 . S
C431 C432 1.363 1_554 S
C431 H434 0.929 . S
C432 C431 1.363 1_556 S
C432 C438 1.428 1_565 S
H433 C429 0.930 . S
H434 C431 0.929 . S
S435 N436 1.613 . S
S435 N437 1.610 . S
N436 S435 1.613 . S
N436 C439 1.350 . S
N437 S435 1.610 . S
N437 C438 1.351 . S
C438 C432 1.428 1_545 S
C438 N437 1.351 . S
C438 C439 1.434 . S
C439 C430 1.429 1_556 S
C439 N436 1.350 . S
C439 C438 1.434 . S
C440 C441 1.369 . S
C440 C442 1.419 . S
C440 H444 0.930 . S
C441 C440 1.369 . S
C441 C450 1.429 . S
C442 C440 1.419 . S
C442 C443 1.363 . S
C442 H445 0.929 . S
C443 C442 1.363 . S
C443 C449 1.428 . S
H444 C440 0.930 . S
H445 C442 0.929 . S
S446 N447 1.613 . S
S446 N448 1.610 . S
N447 S446 1.613 . S
N447 C450 1.350 . S
N448 S446 1.610 . S
N448 C449 1.351 . S
C449 C443 1.428 . S
C449 N448 1.351 . S
C449 C450 1.434 . S
C450 C441 1.429 . S
C450 N447 1.350 . S
C450 C449 1.434 . S
C451 C452 1.369 . S
C451 C453 1.419 1_556 S
C451 H455 0.930 . S
C452 C451 1.369 . S
C452 C461 1.429 . S
C453 C451 1.419 1_554 S
C453 C454 1.363 . S
C453 H456 0.929 . S
C454 C453 1.363 . S
C454 C460 1.428 . S
H455 C451 0.930 . S
H456 C453 0.929 . S
S457 N458 1.613 . S
S457 N459 1.610 1_556 S
N458 S457 1.613 . S
N458 C461 1.350 . S
N459 S457 1.610 1_554 S
N459 C460 1.351 . S
C460 C454 1.428 . S
C460 N459 1.351 . S
C460 C461 1.434 1_554 S
C461 C452 1.429 . S
C461 N458 1.350 . S
C461 C460 1.434 1_556 S
C462 C463 1.369 . S
C462 C464 1.419 . S
C462 H466 0.930 . S
C463 C462 1.369 . S
C463 C472 1.429 . S
C464 C462 1.419 . S
C464 C465 1.363 . S
C464 H467 0.929 . S
C465 C464 1.363 . S
C465 C471 1.428 . S
H466 C462 0.930 . S
H467 C464 0.929 . S
S468 N469 1.613 . S
S468 N470 1.610 . S
N469 S468 1.613 . S
N469 C472 1.350 . S
N470 S468 1.610 . S
N470 C471 1.351 . S
C471 C465 1.428 . S
C471 N470 1.351 . S
C471 C472 1.434 . S
C472 C463 1.429 . S
C472 N469 1.350 . S
C472 C471 1.434 . S
C473 C474 1.369 . S
C473 C475 1.419 . S
C473 H477 0.930 . S
C474 C473 1.369 . S
C474 C483 1.429 . S
C475 C473 1.419 . S
C475 C476 1.363 . S
C475 H478 0.929 . S
C476 C475 1.363 . S
C476 C482 1.428 . S
H477 C473 0.930 . S
H478 C475 0.929 . S
S479 N480 1.613 . S
S479 N481 1.610 . S
N480 S479 1.613 . S
N480 C483 1.350 . S
N481 S479 1.610 . S
N481 C482 1.351 . S
C482 C476 1.428 . S
C482 N481 1.351 . S
C482 C483 1.434 . S
C483 C474 1.429 . S
C483 N480 1.350 . S
C483 C482 1.434 . S
C484 C485 1.369 . S
C484 C486 1.419 . S
C484 H488 0.930 . S
C485 C484 1.369 . S
C485 C494 1.429 . S
C486 C484 1.419 . S
C486 C487 1.363 . S
C486 H489 0.929 . S
C487 C486 1.363 . S
C487 C493 1.428 . S
H488 C484 0.930 . S
H489 C486 0.929 . S
S490 N491 1.613 . S
S490 N492 1.610 . S
N491 S490 1.613 . S
N491 C494 1.350 . S
N492 S490 1.610 . S
N492 C493 1.351 . S
C493 C487 1.428 . S
C493 N492 1.351 . S
C493 C494 1.434 . S
C494 C485 1.429 . S
C494 N491 1.350 . S
C494 C493 1.434 . S
C495 C496 1.369 . S
C495 C497 1.419 . S
C495 H499 0.930 . S
C496 C495 1.369 . S
C496 C505 1.429 1_556 S
C497 C495 1.419 . S
C497 C498 1.363 1_556 S
C497 H500 0.929 . S
C498 C497 1.363 1_554 S
C498 C504 1.428 . S
H499 C495 0.930 . S
H500 C497 0.929 . S
S501 N502 1.613 . S
S501 N503 1.610 . S
N502 S501 1.613 . S
N502 C505 1.350 . S
N503 S501 1.610 . S
N503 C504 1.351 . S
C504 C498 1.428 . S
C504 N503 1.351 . S
C504 C505 1.434 . S
C505 C496 1.429 1_554 S
C505 N502 1.350 . S
C505 C504 1.434 . S
C506 C507 1.369 . S
C506 C508 1.419 . S
C506 H510 0.930 . S
C507 C506 1.369 . S
C507 C516 1.429 . S
C508 C506 1.419 . S
C508 C509 1.363 . S
C508 H511 0.929 . S
C509 C508 1.363 . S
C509 C515 1.428 . S
H510 C506 0.930 . S
H511 C508 0.929 . S
S512 N513 1.613 . S
S512 N514 1.610 . S
N513 S512 1.613 . S
N513 C516 1.350 . S
N514 S512 1.610 . S
N514 C515 1.351 . S
C515 C509 1.428 . S
C515 N514 1.351 . S
C515 C516 1.434 . S
C516 C507 1.429 . S
C516 N513 1.350 . S
C516 C515 1.434 . S
C517 C518 1.369 . S
C517 C519 1.419 . S
C517 H521 0.930 . S
C518 C517 1.369 . S
C518 C527 1.429 . S
C519 C517 1.419 . S
C519 C520 1.363 . S
C519 H522 0.929 . S
C520 C519 1.363 . S
C520 C526 1.428 . S
H521 C517 0.930 . S
H522 C519 0.929 . S
S523 N524 1.613 . S
S523 N525 1.610 . S
N524 S523 1.613 . S
N524 C527 1.350 . S
N525 S523 1.610 . S
N525 C526 1.351 . S
C526 C520 1.428 . S
C526 N525 1.351 . S
C526 C527 1.434 . S
C527 C518 1.429 . S
C527 N524 1.350 . S
C527 C526 1.434 . S
C528 C529 1.369 . S
C528 C530 1.419 . S
C528 H532 0.930 . S
C529 C528 1.369 . S
C529 C538 1.429 . S
C530 C528 1.419 . S
C530 C531 1.363 . S
C530 H533 0.929 . S
C531 C530 1.363 . S
C531 C537 1.428 . S
H532 C528 0.930 . S
H533 C530 0.929 . S
S534 N535 1.613 . S
S534 N536 1.610 . S
N535 S534 1.613 . S
N535 C538 1.350 . S
N536 S534 1.610 . S
N536 C537 1.351 . S
C537 C531 1.428 . S
C537 N536 1.351 . S
C537 C538 1.434 . S
C538 C529 1.429 . S
C538 N535 1.350 . S
C538 C537 1.434 . S
C539 C540 1.369 . S
C539 C541 1.419 . S
C539 H543 0.930 . S
C540 C539 1.369 . S
C540 C549 1.429 . S
C541 C539 1.419 . S
C541 C542 1.363 . S
C541 H544 0.929 . S
C542 C541 1.363 . S
C542 C548 1.428 . S
H543 C539 0.930 . S
H544 C541 0.929 . S
S545 N546 1.613 . S
S545 N547 1.610 . S
N546 S545 1.613 . S
N546 C549 1.350 . S
N547 S545 1.610 . S
N547 C548 1.351 . S
C548 C542 1.428 . S
C548 N547 1.351 . S
C548 C549 1.434 . S
C549 C540 1.429 . S
C549 N546 1.350 . S
C549 C548 1.434 . S
C550 C551 1.369 . S
C550 C552 1.419 . S
C550 H554 0.930 . S
C551 C550 1.369 . S
C551 C560 1.429 . S
C552 C550 1.419 . S
C552 C553 1.363 . S
C552 H555 0.929 . S
C553 C552 1.363 . S
C553 C559 1.428 . S
H554 C550 0.930 . S
H555 C552 0.929 . S
S556 N557 1.613 . S
S556 N558 1.610 . S
N557 S556 1.613 . S
N557 C560 1.350 . S
N558 S556 1.610 . S
N558 C559 1.351 . S
C559 C553 1.428 . S
C559 N558 1.351 . S
C559 C560 1.434 . S
C560 C551 1.429 . S
C560 N557 1.350 . S
C560 C559 1.434 . S
C561 C562 1.369 . S
C561 C563 1.419 . S
C561 H565 0.930 . S
C562 C561 1.369 . S
C562 C571 1.429 . S
C563 C561 1.419 . S
C563 C564 1.363 . S
C563 H566 0.929 . S
C564 C563 1.363 . S
C564 C570 1.428 . S
H565 C561 0.930 . S
H566 C563 0.929 . S
S567 N568 1.613 . S
S567 N569 1.610 . S
N568 S567 1.613 . S
N568 C571 1.350 . S
N569 S567 1.610 . S
N569 C570 1.351 . S
C570 C564 1.428 . S
C570 N569 1.351 . S
C570 C571 1.434 . S
C571 C562 1.429 . S
C571 N568 1.350 . S
C571 C570 1.434 . S
C572 C573 1.369 . S
C572 C574 1.419 . S
C572 H576 0.930 . S
C573 C572 1.369 . S
C573 C582 1.429 . S
C574 C572 1.419 . S
C574 C575 1.363 . S
C574 H577 0.929 . S
C575 C574 1.363 . S
C575 C581 1.428 . S
H576 C572 0.930 . S
H577 C574 0.929 . S
S578 N579 1.613 . S
S578 N580 1.610 . S
N579 S578 1.613 . S
N579 C582 1.350 . S
N580 S578 1.610 . S
N580 C581 1.351 . S
C581 C575 1.428 . S
C581 N580 1.351 . S
C581 C582 1.434 . S
C582 C573 1.429 . S
C582 N579 1.350 . S
C582 C581 1.434 . S
C583 C584 1.369 . S
C583 C585 1.419 . S
C583 H587 0.930 . S
C584 C583 1.369 . S
C584 C593 1.429 . S
C585 C583 1.419 . S
C585 C586 1.363 . S
C585 H588 0.929 . S
C586 C585 1.363 . S
C586 C592 1.428 . S
H587 C583 0.930 . S
H588 C585 0.929 . S
S589 N590 1.613 . S
S589 N591 1.610 . S
N590 S589 1.613 . S
N590 C593 1.350 . S
N591 S589 1.610 . S
N591 C592 1.351 . S
C592 C586 1.428 . S
C592 N591 1.351 . S
C592 C593 1.434 . S
C593 C584 1.429 . S
C593 N590 1.350 . S
C593 C592 1.434 . S
C594 C595 1.369 . S
C594 C596 1.419 . S
C594 H598 0.930 . S
C595 C594 1.369 . S
C595 C604 1.429 . S
C596 C594 1.419 . S
C596 C597 1.363 . S
C596 H599 0.929 . S
C597 C596 1.363 . S
C597 C603 1.428 . S
H598 C594 0.930 . S
H599 C596 0.929 . S
S600 N601 1.613 . S
S600 N602 1.610 . S
N601 S600 1.613 . S
N601 C604 1.350 . S
N602 S600 1.610 . S
N602 C603 1.351 . S
C603 C597 1.428 . S
C603 N602 1.351 . S
C603 C604 1.434 . S
C604 C595 1.429 . S
C604 N601 1.350 . S
C604 C603 1.434 . S
C605 C606 1.369 . S
C605 C607 1.419 . S
C605 H609 0.930 . S
C606 C605 1.369 . S
C606 C615 1.429 . S
C607 C605 1.419 . S
C607 C608 1.363 . S
C607 H610 0.929 . S
C608 C607 1.363 . S
C608 C614 1.428 . S
H609 C605 0.930 . S
H610 C607 0.929 . S
S611 N612 1.613 . S
S611 N613 1.610 . S
N612 S611 1.613 . S
N612 C615 1.350 . S
N613 S611 1.610 . S
N613 C614 1.351 . S
C614 C608 1.428 . S
C614 N613 1.351 . S
C614 C615 1.434 . S
C615 C606 1.429 . S
C615 N612 1.350 . S
C615 C614 1.434 . S
C616 C617 1.369 . S
C616 C618 1.419 . S
C616 H620 0.930 . S
C617 C616 1.369 . S
C617 C626 1.429 . S
C618 C616 1.419 . S
C618 C619 1.363 . S
C618 H621 0.929 . S
C619 C618 1.363 . S
C619 C625 1.428 . S
H620 C616 0.930 . S
H621 C618 0.929 . S
S622 N623 1.613 . S
S622 N624 1.610 . S
N623 S622 1.613 . S
N623 C626 1.350 . S
N624 S622 1.610 . S
N624 C625 1.351 . S
C625 C619 1.428 . S
C625 N624 1.351 . S
C625 C626 1.434 . S
C626 C617 1.429 . S
C626 N623 1.350 . S
C626 C625 1.434 . S
C627 C628 1.369 . S
C627 C629 1.419 . S
C627 H631 0.930 . S
C628 C627 1.369 . S
C628 C637 1.429 . S
C629 C627 1.419 . S
C629 C630 1.363 . S
C629 H632 0.929 . S
C630 C629 1.363 . S
C630 C636 1.428 . S
H631 C627 0.930 . S
H632 C629 0.929 . S
S633 N634 1.613 . S
S633 N635 1.610 . S
N634 S633 1.613 . S
N634 C637 1.350 . S
N635 S633 1.610 . S
N635 C636 1.351 . S
C636 C630 1.428 . S
C636 N635 1.351 . S
C636 C637 1.434 . S
C637 C628 1.429 . S
C637 N634 1.350 . S
C637 C636 1.434 . S
C638 C639 1.369 . S
C638 C640 1.419 . S
C638 H642 0.930 . S
C639 C638 1.369 . S
C639 C648 1.429 . S
C640 C638 1.419 . S
C640 C641 1.363 . S
C640 H643 0.929 . S
C641 C640 1.363 . S
C641 C647 1.428 . S
H642 C638 0.930 . S
H643 C640 0.929 . S
S644 N645 1.613 . S
S644 N646 1.610 . S
N645 S644 1.613 . S
N645 C648 1.350 . S
N646 S644 1.610 . S
N646 C647 1.351 . S
C647 C641 1.428 . S
C647 N646 1.351 . S
C647 C648 1.434 . S
C648 C639 1.429 . S
C648 N645 1.350 . S
C648 C647 1.434 . S
C649 C650 1.369 . S
C649 C651 1.419 . S
C649 H653 0.930 . S
C650 C649 1.369 . S
C650 C659 1.429 . S
C651 C649 1.419 . S
C651 C652 1.363 . S
C651 H654 0.929 . S
C652 C651 1.363 . S
C652 C658 1.428 . S
H653 C649 0.930 . S
H654 C651 0.929 . S
S655 N656 1.613 . S
S655 N657 1.610 . S
N656 S655 1.613 . S
N656 C659 1.350 . S
N657 S655 1.610 . S
N657 C658 1.351 . S
C658 C652 1.428 . S
C658 N657 1.351 . S
C658 C659 1.434 . S
C659 C650 1.429 . S
C659 N656 1.350 . S
C659 C658 1.434 . S
C660 C661 1.369 . S
C660 C662 1.419 . S
C660 H664 0.930 . S
C661 C660 1.369 . S
C661 C670 1.429 . S
C662 C660 1.419 . S
C662 C663 1.363 . S
C662 H665 0.929 . S
C663 C662 1.363 . S
C663 C669 1.428 . S
H664 C660 0.930 . S
H665 C662 0.929 . S
S666 N667 1.613 . S
S666 N668 1.610 . S
N667 S666 1.613 . S
N667 C670 1.350 . S
N668 S666 1.610 . S
N668 C669 1.351 . S
C669 C663 1.428 . S
C669 N668 1.351 . S
C669 C670 1.434 . S
C670 C661 1.429 . S
C670 N667 1.350 . S
C670 C669 1.434 . S
C671 C672 1.369 . S
C671 C673 1.419 . S
C671 H675 0.930 . S
C672 C671 1.369 . S
C672 C681 1.429 . S
C673 C671 1.419 . S
C673 C674 1.363 . S
C673 H676 0.929 . S
C674 C673 1.363 . S
C674 C680 1.428 . S
H675 C671 0.930 . S
H676 C673 0.929 . S
S677 N678 1.613 . S
S677 N679 1.610 . S
N678 S677 1.613 . S
N678 C681 1.350 . S
N679 S677 1.610 . S
N679 C680 1.351 . S
C680 C674 1.428 . S
C680 N679 1.351 . S
C680 C681 1.434 . S
C681 C672 1.429 . S
C681 N678 1.350 . S
C681 C680 1.434 . S
C682 C683 1.369 . S
C682 C684 1.419 . S
C682 H686 0.930 . S
C683 C682 1.369 . S
C683 C692 1.429 . S
C684 C682 1.419 . S
C684 C685 1.363 . S
C684 H687 0.929 . S
C685 C684 1.363 . S
C685 C691 1.428 . S
H686 C682 0.930 . S
H687 C684 0.929 . S
S688 N689 1.613 . S
S688 N690 1.610 . S
N689 S688 1.613 . S
N689 C692 1.350 . S
N690 S688 1.610 . S
N690 C691 1.351 . S
C691 C685 1.428 . S
C691 N690 1.351 . S
C691 C692 1.434 . S
C692 C683 1.429 . S
C692 N689 1.350 . S
C692 C691 1.434 . S
C693 C694 1.369 . S
C693 C695 1.419 . S
C693 H697 0.930 . S
C694 C693 1.369 . S
C694 C703 1.429 . S
C695 C693 1.419 . S
C695 C696 1.363 . S
C695 H698 0.929 . S
C696 C695 1.363 . S
C696 C702 1.428 . S
H697 C693 0.930 . S
H698 C695 0.929 . S
S699 N700 1.613 . S
S699 N701 1.610 . S
N700 S699 1.613 . S
N700 C703 1.350 . S
N701 S699 1.610 . S
N701 C702 1.351 . S
C702 C696 1.428 . S
C702 N701 1.351 . S
C702 C703 1.434 . S
C703 C694 1.429 . S
C703 N700 1.350 . S
C703 C702 1.434 . S
C704 C705 1.369 . S
C704 C706 1.419 1_455 S
C704 H708 0.930 . S
C705 C704 1.369 . S
C705 C714 1.429 . S
C706 C704 1.419 1_655 S
C706 C707 1.363 . S
C706 H709 0.929 . S
C707 C706 1.363 . S
C707 C713 1.428 . S
H708 C704 0.930 . S
H709 C706 0.929 . S
S710 N711 1.616 1_655 S
S710 N712 1.608 . S
N711 S710 1.616 1_455 S
N711 C714 1.350 . S
N712 S710 1.608 . S
N712 C713 1.351 . S
C713 C707 1.428 . S
C713 N712 1.351 . S
C713 C714 1.434 1_655 S
C714 C705 1.429 . S
C714 N711 1.350 . S
C714 C713 1.434 1_455 S
C715 C716 1.369 . S
C715 C717 1.419 . S
C715 H719 0.930 . S
C716 C715 1.369 . S
C716 C725 1.429 . S
C717 C715 1.419 . S
C717 C718 1.363 . S
C717 H720 0.929 . S
C718 C717 1.363 . S
C718 C724 1.428 . S
H719 C715 0.930 . S
H720 C717 0.929 . S
S721 N722 1.613 . S
S721 N723 1.610 . S
N722 S721 1.613 . S
N722 C725 1.350 . S
N723 S721 1.610 . S
N723 C724 1.351 . S
C724 C718 1.428 . S
C724 N723 1.351 . S
C724 C725 1.434 . S
C725 C716 1.429 . S
C725 N722 1.350 . S
C725 C724 1.434 . S
C726 C727 1.369 . S
C726 C728 1.419 . S
C726 H730 0.930 . S
C727 C726 1.369 . S
C727 C736 1.429 . S
C728 C726 1.419 . S
C728 C729 1.363 . S
C728 H731 0.929 . S
C729 C728 1.363 . S
C729 C735 1.428 . S
H730 C726 0.930 . S
H731 C728 0.929 . S
S732 N733 1.613 . S
S732 N734 1.610 . S
N733 S732 1.613 . S
N733 C736 1.350 . S
N734 S732 1.610 . S
N734 C735 1.351 . S
C735 C729 1.428 . S
C735 N734 1.351 . S
C735 C736 1.434 . S
C736 C727 1.429 . S
C736 N733 1.350 . S
C736 C735 1.434 . S
C737 C738 1.369 . S
C737 C739 1.419 . S
C737 H741 0.930 . S
C738 C737 1.369 . S
C738 C747 1.429 . S
C739 C737 1.419 . S
C739 C740 1.363 . S
C739 H742 0.929 . S
C740 C739 1.363 . S
C740 C746 1.428 . S
H741 C737 0.930 . S
H742 C739 0.929 . S
S743 N744 1.613 . S
S743 N745 1.610 . S
N744 S743 1.613 . S
N744 C747 1.350 . S
N745 S743 1.610 . S
N745 C746 1.351 . S
C746 C740 1.428 . S
C746 N745 1.351 . S
C746 C747 1.434 . S
C747 C738 1.429 . S
C747 N744 1.350 . S
C747 C746 1.434 . S
C748 C749 1.369 . S
C748 C750 1.419 1_655 S
C748 H752 0.930 . S
C749 C748 1.369 . S
C749 C758 1.429 . S
C750 C748 1.419 1_455 S
C750 C751 1.363 . S
C750 H753 0.929 . S
C751 C750 1.363 . S
C751 C757 1.428 . S
H752 C748 0.930 . S
H753 C750 0.929 . S
S754 N755 1.616 1_455 S
S754 N756 1.607 . S
N755 S754 1.616 1_655 S
N755 C758 1.350 . S
N756 S754 1.607 . S
N756 C757 1.351 . S
C757 C751 1.428 . S
C757 N756 1.351 . S
C757 C758 1.434 1_455 S
C758 C749 1.429 . S
C758 N755 1.350 . S
C758 C757 1.434 1_655 S
C759 C760 1.369 . S
C759 C761 1.419 . S
C759 H763 0.930 . S
C760 C759 1.369 . S
C760 C769 1.429 . S
C761 C759 1.419 . S
C761 C762 1.363 . S
C761 H764 0.929 . S
C762 C761 1.363 . S
C762 C768 1.428 . S
H763 C759 0.930 . S
H764 C761 0.929 . S
S765 N766 1.613 . S
S765 N767 1.610 . S
N766 S765 1.613 . S
N766 C769 1.350 . S
N767 S765 1.610 . S
N767 C768 1.351 . S
C768 C762 1.428 . S
C768 N767 1.351 . S
C768 C769 1.434 . S
C769 C760 1.429 . S
C769 N766 1.350 . S
C769 C768 1.434 . S
C770 C771 1.369 . S
C770 C772 1.419 . S
C770 H774 0.930 . S
C771 C770 1.369 . S
C771 C780 1.429 . S
C772 C770 1.419 . S
C772 C773 1.363 . S
C772 H775 0.929 . S
C773 C772 1.363 . S
C773 C779 1.428 . S
H774 C770 0.930 . S
H775 C772 0.929 . S
S776 N777 1.613 . S
S776 N778 1.610 . S
N777 S776 1.613 . S
N777 C780 1.350 . S
N778 S776 1.610 . S
N778 C779 1.351 . S
C779 C773 1.428 . S
C779 N778 1.351 . S
C779 C780 1.434 . S
C780 C771 1.429 . S
C780 N777 1.350 . S
C780 C779 1.434 . S
C781 C782 1.369 . S
C781 C783 1.419 . S
C781 H785 0.930 . S
C782 C781 1.369 . S
C782 C791 1.429 . S
C783 C781 1.419 . S
C783 C784 1.363 . S
C783 H786 0.929 . S
C784 C783 1.363 . S
C784 C790 1.428 . S
H785 C781 0.930 . S
H786 C783 0.929 . S
S787 N788 1.613 . S
S787 N789 1.610 . S
N788 S787 1.613 . S
N788 C791 1.350 . S
N789 S787 1.610 . S
N789 C790 1.351 . S
C790 C784 1.428 . S
C790 N789 1.351 . S
C790 C791 1.434 . S
C791 C782 1.429 . S
C791 N788 1.350 . S
C791 C790 1.434 . S
C792 C793 1.369 . S
C792 C794 1.419 . S
C792 H796 0.930 . S
C793 C792 1.369 . S
C793 C802 1.429 . S
C794 C792 1.419 . S
C794 C795 1.363 . S
C794 H797 0.929 . S
C795 C794 1.363 . S
C795 C801 1.428 . S
H796 C792 0.930 . S
H797 C794 0.929 . S
S798 N799 1.613 . S
S798 N800 1.610 . S
N799 S798 1.613 . S
N799 C802 1.350 . S
N800 S798 1.610 . S
N800 C801 1.351 . S
C801 C795 1.428 . S
C801 N800 1.351 . S
C801 C802 1.434 . S
C802 C793 1.429 . S
C802 N799 1.350 . S
C802 C801 1.434 . S
C803 C804 1.369 . S
C803 C805 1.419 . S
C803 H807 0.930 . S
C804 C803 1.369 . S
C804 C813 1.429 . S
C805 C803 1.419 . S
C805 C806 1.363 . S
C805 H808 0.929 . S
C806 C805 1.363 . S
C806 C812 1.428 . S
H807 C803 0.930 . S
H808 C805 0.929 . S
S809 N810 1.613 . S
S809 N811 1.610 . S
N810 S809 1.613 . S
N810 C813 1.350 . S
N811 S809 1.610 . S
N811 C812 1.351 . S
C812 C806 1.428 . S
C812 N811 1.351 . S
C812 C813 1.434 . S
C813 C804 1.429 . S
C813 N810 1.350 . S
C813 C812 1.434 . S
C814 C815 1.369 . S
C814 C816 1.419 . S
C814 H818 0.930 . S
C815 C814 1.369 . S
C815 C824 1.429 . S
C816 C814 1.419 . S
C816 C817 1.363 . S
C816 H819 0.929 . S
C817 C816 1.363 . S
C817 C823 1.428 . S
H818 C814 0.930 . S
H819 C816 0.929 . S
S820 N821 1.613 . S
S820 N822 1.610 . S
N821 S820 1.613 . S
N821 C824 1.350 . S
N822 S820 1.610 . S
N822 C823 1.351 . S
C823 C817 1.428 . S
C823 N822 1.351 . S
C823 C824 1.434 . S
C824 C815 1.429 . S
C824 N821 1.350 . S
C824 C823 1.434 . S
C825 C826 1.369 . S
C825 C827 1.419 . S
C825 H829 0.930 . S
C826 C825 1.369 . S
C826 C835 1.429 . S
C827 C825 1.419 . S
C827 C828 1.363 . S
C827 H830 0.929 . S
C828 C827 1.363 . S
C828 C834 1.428 . S
H829 C825 0.930 . S
H830 C827 0.929 . S
S831 N832 1.613 . S
S831 N833 1.610 . S
N832 S831 1.613 . S
N832 C835 1.350 . S
N833 S831 1.610 . S
N833 C834 1.351 . S
C834 C828 1.428 . S
C834 N833 1.351 . S
C834 C835 1.434 . S
C835 C826 1.429 . S
C835 N832 1.350 . S
C835 C834 1.434 . S
C836 C837 1.369 . S
C836 C838 1.419 . S
C836 H840 0.930 . S
C837 C836 1.369 . S
C837 C846 1.429 . S
C838 C836 1.419 . S
C838 C839 1.363 . S
C838 H841 0.929 . S
C839 C838 1.363 . S
C839 C845 1.428 . S
H840 C836 0.930 . S
H841 C838 0.929 . S
S842 N843 1.613 . S
S842 N844 1.610 . S
N843 S842 1.613 . S
N843 C846 1.350 . S
N844 S842 1.610 . S
N844 C845 1.351 . S
C845 C839 1.428 . S
C845 N844 1.351 . S
C845 C846 1.434 . S
C846 C837 1.429 . S
C846 N843 1.350 . S
C846 C845 1.434 . S
C847 C848 1.369 . S
C847 C849 1.419 1_455 S
C847 H851 0.930 . S
C848 C847 1.369 . S
C848 C857 1.429 . S
C849 C847 1.419 1_655 S
C849 C850 1.363 . S
C849 H852 0.929 . S
C850 C849 1.363 . S
C850 C856 1.428 . S
H851 C847 0.930 . S
H852 C849 0.929 . S
S853 N854 1.616 1_655 S
S853 N855 1.607 . S
N854 S853 1.616 1_455 S
N854 C857 1.350 . S
N855 S853 1.607 . S
N855 C856 1.351 . S
C856 C850 1.428 . S
C856 N855 1.351 . S
C856 C857 1.434 1_655 S
C857 C848 1.429 . S
C857 N854 1.350 . S
C857 C856 1.434 1_455 S
C858 C859 1.369 . S
C858 C860 1.419 . S
C858 H862 0.930 . S
C859 C858 1.369 . S
C859 C868 1.429 . S
C860 C858 1.419 . S
C860 C861 1.363 . S
C860 H863 0.929 . S
C861 C860 1.363 . S
C861 C867 1.428 . S
H862 C858 0.930 . S
H863 C860 0.929 . S
S864 N865 1.613 . S
S864 N866 1.610 . S
N865 S864 1.613 . S
N865 C868 1.350 . S
N866 S864 1.610 . S
N866 C867 1.351 . S
C867 C861 1.428 . S
C867 N866 1.351 . S
C867 C868 1.434 . S
C868 C859 1.429 . S
C868 N865 1.350 . S
C868 C867 1.434 . S
C869 C870 1.369 . S
C869 C871 1.419 1_655 S
C869 H873 0.930 . S
C870 C869 1.369 . S
C870 C879 1.429 . S
C871 C869 1.419 1_455 S
C871 C872 1.363 . S
C871 H874 0.929 . S
C872 C871 1.363 . S
C872 C878 1.428 . S
H873 C869 0.930 . S
H874 C871 0.929 . S
S875 N876 1.616 1_455 S
S875 N877 1.607 . S
N876 S875 1.616 1_655 S
N876 C879 1.350 . S
N877 S875 1.607 . S
N877 C878 1.351 . S
C878 C872 1.428 . S
C878 N877 1.351 . S
C878 C879 1.434 1_455 S
C879 C870 1.429 . S
C879 N876 1.350 . S
C879 C878 1.434 1_655 S
C353 C74 1.495 . S
C355 C8 1.495 . S
C364 C85 1.495 . S
C366 C19 1.497 . S
C375 C52 1.497 . S
C377 C30 1.496 . S
C386 C41 1.497 . S
C388 C63 1.498 . S
C397 C162 1.492 . S
C399 C96 1.493 . S
C408 C173 1.492 . S
C410 C107 1.491 . S
C419 C140 1.493 . S
C421 C118 1.493 . S
C430 C151 1.490 . S
C432 C129 1.490 . S
C441 C184 1.496 . S
C443 C250 1.495 . S
C452 C261 1.498 . S
C454 C195 1.497 . S
C463 C206 1.496 . S
C465 C228 1.497 . S
C474 C239 1.495 . S
C476 C217 1.496 . S
C485 C272 1.492 . S
C487 C338 1.492 . S
C496 C283 1.490 . S
C498 C349 1.490 . S
C507 C294 1.493 . S
C509 C316 1.493 . S
C518 C305 1.491 . S
C520 C327 1.492 . S
C529 C84 1.471 . S
C531 C7 1.471 . S
C540 C18 1.466 . S
C542 C51 1.467 . S
C551 C62 1.471 . S
C553 C29 1.469 . S
C562 C40 1.465 . S
C564 C73 1.466 . S
C573 C172 1.448 . S
C575 C95 1.456 . S
C584 C106 1.454 . S
C586 C139 1.451 . S
C595 C150 1.456 . S
C597 C117 1.449 . S
C606 C128 1.454 . S
C608 C161 1.452 . S
C617 C183 1.466 . S
C619 C260 1.468 . S
C628 C194 1.471 . S
C630 C227 1.469 . S
C639 C238 1.468 . S
C641 C205 1.467 . S
C650 C216 1.471 . S
C652 C249 1.471 . S
C661 C348 1.448 . S
C663 C271 1.456 . S
C672 C282 1.450 . S
C674 C315 1.454 . S
C683 C293 1.456 . S
C685 C326 1.449 . S
C694 C304 1.453 . S
C696 C337 1.452 . S
C705 C5 1.313 . S
C707 C137 1.284 . S
C716 C16 1.321 . S
C718 C324 1.286 . S
C727 C27 1.314 . S
C729 C159 1.294 . S
C738 C38 1.304 . S
C740 C346 1.296 . S
C749 C93 1.287 . S
C751 C49 1.309 . S
C760 C60 1.304 . S
C762 C280 1.296 . S
C771 C71 1.320 . S
C773 C115 1.284 . S
C782 C302 1.299 . S
C784 C82 1.307 . S
C793 C104 1.281 . S
C795 C236 1.317 . S
C804 C258 1.309 . S
C806 C126 1.287 . S
C815 C192 1.319 . S
C817 C148 1.283 . S
C826 C170 1.289 . S
C828 C214 1.317 . S
C837 C181 1.314 . S
C839 C313 1.284 . S
C848 C335 1.295 . S
C850 C203 1.306 . S
C859 C269 1.298 . S
C861 C225 1.309 . S
C870 C247 1.304 . S
C872 C291 1.292 . S
