# Generated by pormake.
# Topology sma, (6)-cn, num edge types: 1
# Building blocks:
#     Node 0, Type 0, BuildingBlock: BETFEN_clean_sbu_0, # of connection points: 6
#     Node 1, Type 0, BuildingBlock: BETFEN_clean_sbu_0, # of connection points: 6
#     Node 2, Type 0, BuildingBlock: BETFEN_clean_sbu_0, # of connection points: 6
#     Edge 3, Type (0, 0), BuildingBlock: KIFKEQ_clean_linker_1, # of connection points: 2
#     Edge 4, Type (0, 0), BuildingBlock: KIFKEQ_clean_linker_1, # of connection points: 2
#     Edge 5, Type (0, 0), BuildingBlock: KIFKEQ_clean_linker_1, # of connection points: 2
#     Edge 6, Type (0, 0), BuildingBlock: KIFKEQ_clean_linker_1, # of connection points: 2
#     Edge 7, Type (0, 0), BuildingBlock: KIFKEQ_clean_linker_1, # of connection points: 2
#     Edge 8, Type (0, 0), BuildingBlock: KIFKEQ_clean_linker_1, # of connection points: 2
#     Edge 9, Type (0, 0), BuildingBlock: KIFKEQ_clean_linker_1, # of connection points: 2
#     Edge 10, Type (0, 0), BuildingBlock: KIFKEQ_clean_linker_1, # of connection points: 2
#     Edge 11, Type (0, 0), BuildingBlock: KIFKEQ_clean_linker_1, # of connection points: 2
# Relax obj value: 0.130
# Max RMSD: 0.255
# Mean RMSD: 0.202
data_MOF--net-sma--node1-BETFEN_clean_sbu_0--edge1-KIFKEQ_clean_linker_1
_symmetry_space_group_name_H-M    P1
_symmetry_Int_Tables_number       1
_symmetry_cell_setting            triclinic
loop_
_symmetry_equiv_pos_as_xyz
'x, y, z'
_cell_length_a     31.336018
_cell_length_b     40.960334
_cell_length_c     14.499742
_cell_angle_alpha  90.237302
_cell_angle_beta   94.96712
_cell_angle_gamma 98.578411
loop_
_atom_site_label
_atom_site_type_symbol
_atom_site_fract_x
_atom_site_fract_y
_atom_site_fract_z
_atom_type_partial_charge
Pr0 Pr 0.0891 0.51193 0.04057 0.0
Pr1 Pr 0.10253 0.58786 -0.00162 0.0
C2 C 0.0826 0.45227 0.12019 0.0
C3 C 1.0489 0.42511 0.1443 0.0
C4 C 1.0173 0.40954 0.07702 0.0
C5 C 0.98707 0.38284 0.10043 0.0
C6 C 0.98758 0.37121 0.19163 0.0
C7 C 1.01866 0.3873 0.25918 0.0
C8 C 1.04904 0.4139 0.23564 0.0
C9 C 0.08257 0.52622 0.85473 0.0
C10 C 1.00311 0.5454 -0.02055 0.0
C11 C 0.10892 0.65242 -0.04174 0.0
C12 C 0.13258 0.68289 0.0054 0.0
C13 C 0.12364 0.69195 0.09463 0.0
C14 C 0.14807 0.71945 0.14108 0.0
C15 C 0.18226 0.73853 0.09994 0.0
C16 C 0.19062 0.72981 0.0099 0.0
C17 C 0.16599 0.70235 -0.03683 0.0
C18 C 0.10712 0.57085 0.18344 0.0
C19 C 0.18922 0.55161 0.01514 0.0
O20 O 0.08645 0.47992 0.16804 0.0
O21 O 0.08774 0.45675 0.03223 0.0
O22 O 0.10947 0.54182 0.91478 0.0
O23 O 1.06016 0.5003 0.88816 0.0
O24 O 1.02959 0.5699 0.946 0.0
O25 O 1.01775 0.52217 0.03082 0.0
O26 O 0.1326 0.63272 0.92243 0.0
O27 O 0.07656 0.63646 -0.001 0.0
O28 O 0.07983 0.55772 0.12109 0.0
O29 O 0.13343 0.59484 0.15222 0.0
O30 O 0.16574 0.52593 0.05129 0.0
O31 O 0.17174 0.57688 -0.01873 0.0
H32 H 1.01611 0.41776 0.00607 0.0
H33 H 0.96321 0.37132 0.04701 0.0
H34 H 1.02026 0.3788 0.32985 0.0
H35 H 0.0731 0.42545 0.28869 0.0
H36 H 0.09813 0.67758 0.12946 0.0
H37 H 0.14008 0.72572 0.2095 0.0
H38 H 0.21693 0.74367 -0.02373 0.0
H39 H 0.17366 0.69591 0.8946 0.0
Pr40 Pr 0.63847 0.05198 0.50995 0.0
Pr41 Pr 0.54164 1.03568 0.54423 0.0
C42 C 0.71345 0.07483 0.43777 0.0
C43 C 0.73957 0.10635 0.41539 0.0
C44 C 0.78484 0.10962 0.42846 0.0
C45 C 0.81048 0.13888 0.40558 0.0
C46 C 0.79136 0.16555 0.36874 0.0
C47 C 0.74582 0.16236 0.35711 0.0
C48 C 0.72016 0.13305 0.38034 0.0
C49 C 0.62357 0.04701 0.69485 0.0
C50 C 0.58112 0.11339 0.54275 0.0
C51 C 0.46132 1.00974 0.5834 0.0
C52 C 0.4286 0.98357 0.53738 0.0
C53 C 0.41776 0.98378 0.4412 0.0
C54 C 0.38906 0.95787 0.39711 0.0
C55 C 0.37081 0.93093 0.44785 0.0
C56 C 0.38144 0.93084 0.5442 0.0
C57 C 0.40996 0.95696 0.5885 0.0
C58 C 0.55909 0.03845 0.35972 0.0
C59 C 0.60365 0.97524 0.552 0.0
O60 O 0.67677 0.06598 0.38731 0.0
O61 O 0.71118 0.0683 0.52559 0.0
O62 O 0.60085 0.06049 0.63469 0.0
O63 O 0.65765 0.03816 0.66256 0.0
O64 O 0.5528 0.09186 0.58197 0.0
O65 O 0.61258 0.10353 0.49924 0.0
O66 O 0.49619 1.00003 0.62353 0.0
O67 O 0.46966 0.03729 0.53853 0.0
O68 O 0.57972 1.02478 0.42255 0.0
O69 O 0.52701 0.05051 0.39016 0.0
O70 O 0.63393 0.99451 0.5114 0.0
O71 O 0.56901 0.98635 0.57819 0.0
H72 H 0.80043 0.0894 0.45608 0.0
H73 H 0.84536 0.14064 0.41722 0.0
H74 H 0.72997 0.18224 0.32826 0.0
H75 H 0.68521 0.13117 0.37006 0.0
H76 H 0.43207 1.00368 0.39947 0.0
H77 H 0.3821 0.9585 0.32271 0.0
H78 H 0.36768 0.91058 0.58537 0.0
H79 H 0.418 0.95612 0.66256 0.0
Pr80 Pr 0.57944 0.5128 0.82178 0.0
Pr81 Pr 0.59933 0.58906 0.86854 0.0
C82 C 0.55276 0.45315 0.73975 0.0
C83 C 0.56523 0.42115 0.71437 0.0
C84 C 0.589 0.40345 0.77777 0.0
C85 C 0.59562 0.37135 0.75596 0.0
C86 C 0.57867 0.35634 0.67033 0.0
C87 C 0.55641 0.37472 0.60573 0.0
C88 C 0.54973 0.40675 0.62768 0.0
C89 C 0.59683 0.52789 0.00799 0.0
C90 C 0.68018 0.54426 0.87449 0.0
C91 C 0.62615 0.65284 0.91961 0.0
C92 C 0.62787 0.68491 0.87358 0.0
C93 C 0.61537 0.68645 0.77862 0.0
C94 C 0.61604 0.71701 0.73552 0.0
C95 C 0.62925 0.74664 0.7866 0.0
C96 C 0.64228 0.74487 0.88167 0.0
C97 C 0.64153 0.71427 0.92471 0.0
C98 C 0.58463 0.57148 0.68206 0.0
C99 C 0.49869 0.55433 0.86505 0.0
O100 O 0.56735 0.47931 0.69364 0.0
O101 O 0.55023 0.45922 0.82766 0.0
O102 O 0.57542 0.54366 0.95122 0.0
O103 O 0.60674 0.50122 -0.02878 0.0
O104 O 0.66483 0.56934 0.91112 0.0
O105 O 0.6548 0.52057 0.82518 0.0
O106 O 0.58748 0.6373 0.93134 0.0
O107 O 0.65205 0.63326 0.8921 0.0
O108 O 0.60642 0.55792 0.74259 0.0
O109 O 0.57056 0.59681 0.71573 0.0
O110 O 0.51011 0.5299 0.81694 0.0
O111 O 0.52788 0.57811 0.90372 0.0
H112 H 0.6015 0.41406 0.84505 0.0
H113 H 0.61348 0.35809 0.80673 0.0
H114 H 0.54255 0.36387 0.53958 0.0
H115 H 0.5311 0.41989 0.57795 0.0
H116 H 0.60489 0.66402 0.7379 0.0
H117 H 0.60631 0.71741 0.66207 0.0
H118 H 0.65209 0.76715 0.92337 0.0
H119 H 0.65121 0.71353 -0.00184 0.0
H120 H 0.24802 0.60336 -0.03027 0.0
H121 H 0.23542 0.49932 0.03064 0.0
H122 H 0.3217 0.60285 0.93219 0.0
H123 H 0.31044 0.49905 -0.00534 0.0
H124 H 0.42862 0.50648 0.81637 0.0
H125 H 0.35433 0.50472 0.85878 0.0
H126 H 0.39202 0.59791 0.0057 0.0
H127 H 0.46527 0.60013 -0.03798 0.0
C128 C 0.26114 0.58037 -0.02374 0.0
C129 C 0.23569 0.55135 0.00325 0.0
C130 C 0.30361 0.58015 -0.04499 0.0
C131 C 0.32204 0.55092 -0.03971 0.0
C132 C 0.29699 0.5219 -0.01107 0.0
C133 C 0.25423 0.52214 0.01058 0.0
C134 C 0.42088 0.52671 0.857 0.0
C135 C 0.45291 0.55356 0.88508 0.0
C136 C 0.37845 0.52551 0.88218 0.0
C137 C 0.36722 0.55118 0.93565 0.0
C138 C 0.39933 0.57794 -0.03656 0.0
C139 C 0.44149 0.57916 0.93838 0.0
H140 H 0.7787 0.22999 0.3918 0.0
H141 H 0.86658 0.17073 0.28316 0.0
H142 H 0.82407 0.28001 0.34612 0.0
H143 H 0.91268 0.22063 0.24117 0.0
H144 H 0.96267 0.31376 0.0914 0.0
H145 H 0.91363 0.26504 0.13172 0.0
H146 H 0.8948 0.31274 0.38821 0.0
H147 H 0.94282 0.36197 0.34631 0.0
C148 C 0.80762 0.22759 0.35807 0.0
C149 C 0.81895 0.19625 0.34137 0.0
C150 C 0.8339 0.25631 0.33281 0.0
C151 C 0.87208 0.25439 0.28996 0.0
C152 C 0.88328 0.22306 0.27301 0.0
C153 C 0.85707 0.19441 0.29826 0.0
C154 C 0.94763 0.31405 0.15583 0.0
C155 C 0.95672 0.34181 0.2156 0.0
C156 C 0.91988 0.28594 0.17949 0.0
C157 C 0.9004 0.28484 0.26349 0.0
C158 C 0.90896 0.3128 0.32268 0.0
C159 C 0.93686 0.3409 0.29912 0.0
H160 H 0.67678 0.94539 0.55124 0.0
H161 H 0.54159 0.92651 0.60265 0.0
H162 H 0.68488 0.88914 0.59916 0.0
H163 H 0.54981 0.87099 0.65106 0.0
H164 H 0.56676 0.76399 0.66048 0.0
H165 H 0.56267 0.81781 0.59231 0.0
H166 H 0.68393 0.85739 0.74508 0.0
H167 H 0.68875 0.80314 0.81127 0.0
C168 C 0.64875 0.9292 0.5718 0.0
C169 C 0.60859 0.94052 0.57326 0.0
C170 C 0.65346 0.89709 0.5999 0.0
C171 C 0.61799 0.87556 0.629 0.0
C172 C 0.57768 0.88671 0.62803 0.0
C173 C 0.57307 0.91872 0.60077 0.0
C174 C 0.59295 0.78398 0.67843 0.0
C175 C 0.62801 0.77921 0.74172 0.0
C176 C 0.59039 0.81495 0.63997 0.0
C177 C 0.62284 0.84199 0.66361 0.0
C178 C 0.65854 0.83704 0.72484 0.0
C179 C 0.66103 0.80605 0.76364 0.0
H180 H 0.74318 0.59277 0.94843 0.0
H181 H 0.72411 0.49358 0.8333 0.0
H182 H 0.82085 0.59202 -0.02988 0.0
H183 H 0.80231 0.49302 0.85498 0.0
H184 H 0.93892 0.49504 0.01424 0.0
H185 H 0.86074 0.49387 -0.01361 0.0
H186 H 0.88183 0.59131 0.87073 0.0
H187 H 0.95992 0.59269 0.89878 0.0
C188 C 0.75548 0.57074 0.92786 0.0
C189 C 0.72734 0.54321 0.88911 0.0
C190 C 0.8001 0.57045 0.93972 0.0
C191 C 0.81768 0.54254 0.9138 0.0
C192 C 0.78961 0.51481 0.87603 0.0
C193 C 0.74487 0.5152 0.86332 0.0
C194 C 0.92693 0.5162 -0.01739 0.0
C195 C 0.95572 0.54405 -0.04081 0.0
C196 C 0.88214 0.5154 -0.03383 0.0
C197 C 0.86519 0.54255 0.92679 0.0
C198 C 0.89396 0.57018 0.90221 0.0
C199 C 0.93872 0.57088 0.91787 0.0
H200 H 0.371 0.86481 0.47456 0.0
H201 H 0.30525 0.93325 0.31137 0.0
H202 H 0.32572 0.81864 0.39091 0.0
H203 H 0.2594 0.88714 0.22859 0.0
H204 H 0.2162 0.79863 0.03261 0.0
H205 H 0.26165 0.8445 0.11697 0.0
H206 H 0.25384 0.78935 0.36989 0.0
H207 H 0.21044 0.74289 0.28472 0.0
C208 C 0.34644 0.86999 0.42166 0.0
C209 C 0.34179 0.90273 0.39964 0.0
C210 C 0.32041 0.84349 0.37361 0.0
C211 C 0.28884 0.84905 0.3026 0.0
C212 C 0.28387 0.88185 0.2815 0.0
C213 C 0.31007 0.90833 0.32921 0.0
C214 C 0.22456 0.79612 0.10601 0.0
C215 C 0.2095 0.76696 0.15162 0.0
C216 C 0.2502 0.82265 0.15476 0.0
C217 C 0.26142 0.82079 0.25055 0.0
C218 C 0.24633 0.79163 0.2961 0.0
C219 C 0.22085 0.76508 0.24733 0.0
H220 H 0.59572 0.32838 0.50743 0.0
H221 H 0.56807 0.30433 0.78799 0.0
H222 H 0.59578 0.26994 0.47289 0.0
H223 H 0.5695 0.24622 0.75436 0.0
H224 H 0.52427 0.14277 0.63561 0.0
H225 H 0.52489 0.20143 0.66411 0.0
H226 H 0.63682 0.22421 0.5088 0.0
H227 H 0.63591 0.16539 0.47895 0.0
C228 C 0.58986 0.31066 0.56184 0.0
C229 C 0.58183 0.32109 0.65047 0.0
C230 C 0.59026 0.2772 0.54225 0.0
C231 C 0.58238 0.25334 0.61068 0.0
C232 C 0.57508 0.26386 0.69964 0.0
C233 C 0.57484 0.29727 0.7193 0.0
C234 C 0.54891 0.16022 0.60698 0.0
C235 C 0.58011 0.14926 0.55517 0.0
C236 C 0.54945 0.19391 0.62397 0.0
C237 C 0.58115 0.21756 0.5895 0.0
C238 C 0.61179 0.20668 0.53588 0.0
C239 C 0.61133 0.17292 0.51904 0.0
H240 H 0.11594 0.58311 0.77737 0.0
H241 H 1.05221 0.48382 0.71157 0.0
H242 H 0.1219 0.59352 0.61355 0.0
H243 H 1.06014 0.49343 0.54778 0.0
H244 H 1.04101 0.53346 0.2586 0.0
H245 H 1.03375 0.52293 0.42146 0.0
H246 H 0.16103 0.57899 0.49053 0.0
H247 H 0.16711 0.59095 0.32694 0.0
C248 C 0.10335 0.56352 0.72747 0.0
C249 C 0.08364 0.53273 0.75616 0.0
C250 C 0.10714 0.56932 0.63396 0.0
C251 C 0.0919 0.54419 0.56786 0.0
C252 C 0.07172 0.51343 0.59696 0.0
C253 C 1.06725 0.50785 0.6905 0.0
C254 C 1.06744 0.54346 0.30875 0.0
C255 C 0.10453 0.56314 0.28108 0.0
C256 C 1.06342 0.53725 0.40191 0.0
C257 C 0.09677 0.55017 0.46885 0.0
C258 C 0.13441 0.56924 0.44062 0.0
C259 C 0.1381 0.5759 0.34727 0.0
H260 H 0.61168 1.00238 0.27766 0.0
H261 H 0.52954 0.07728 0.22554 0.0
H262 H 0.62698 1.00322 0.11564 0.0
H263 H 0.54651 0.07959 0.06481 0.0
H264 H 0.54744 0.05179 0.76455 0.0
H265 H 0.53181 0.04856 0.92595 0.0
H266 H 0.66449 1.0355 0.00532 0.0
H267 H 0.67919 0.03694 0.84281 0.0
C268 C 0.59727 1.01922 0.2314 0.0
C269 C 0.56926 0.0396 0.26316 0.0
C270 C 0.60623 1.01991 0.13891 0.0
C271 C 0.58786 0.0414 0.07713 0.0
C272 C 0.56042 0.06221 0.10997 0.0
C273 C 0.55091 0.06109 0.20202 0.0
C274 C 0.57312 0.04813 0.81674 0.0
C275 C 0.61449 0.04472 0.79201 0.0
C276 C 0.56432 0.04651 0.90917 0.0
C277 C 0.597 0.04206 -0.0213 0.0
C278 C 0.63842 0.03849 -0.04658 0.0
C279 C 0.64698 0.03952 0.86062 0.0
H280 H 0.63274 0.53103 0.60574 0.0
H281 H 0.53739 0.59526 0.53777 0.0
H282 H 0.63805 0.52105 0.44276 0.0
H283 H 0.54086 0.58385 0.37314 0.0
H284 H 0.5924 0.58602 0.09153 0.0
H285 H 0.58919 0.59632 0.25611 0.0
H286 H 0.60016 0.49391 0.31038 0.0
H287 H 0.60569 0.48428 0.14622 0.0
C288 C 0.6124 0.54263 0.55556 0.0
C289 C 0.58476 0.56402 0.58361 0.0
C290 C 0.61526 0.53674 0.46219 0.0
C291 C 0.58994 0.55168 0.39509 0.0
C292 C 0.5614 0.57249 0.42339 0.0
C293 C 0.55908 0.57882 0.51723 0.0
C294 C 0.59468 0.56592 0.13924 0.0
C295 C 0.59931 0.53442 0.10725 0.0
C296 C 0.59232 0.57167 0.23305 0.0
C297 C 0.59386 0.54583 0.296 0.0
C298 C 0.59938 0.51443 0.26371 0.0
C299 C 0.60253 0.50885 0.16996 0.0
loop_
_geom_bond_atom_site_label_1
_geom_bond_atom_site_label_2
_geom_bond_distance
_geom_bond_site_symmetry_2
_ccdc_geom_bond_type
Pr0 C2 2.880 1_455 S
Pr0 O20 2.562 1_455 S
Pr0 O21 2.490 1_455 S
Pr0 O22 2.695 . S
Pr0 O23 2.512 1_554 S
Pr0 O25 2.437 1_455 S
Pr0 O28 2.436 . S
Pr0 O30 2.438 . S
Pr1 C11 2.880 . S
Pr1 O22 2.436 . S
Pr1 O24 2.438 1_455 S
Pr1 O26 2.562 . S
Pr1 O27 2.490 . S
Pr1 O28 2.695 . S
Pr1 O29 2.512 . S
Pr1 O31 2.437 . S
C2 Pr0 2.880 1_655 S
C2 C3 1.491 . S
C2 O20 1.254 . S
C2 O21 1.225 . S
C3 C2 1.491 . S
C3 C4 1.392 . S
C3 C8 1.356 . S
C4 C3 1.392 . S
C4 C5 1.368 . S
C4 H32 0.929 1_554 S
C5 C4 1.368 . S
C5 C6 1.386 . S
C5 H33 0.929 . S
C6 C5 1.386 . S
C6 C7 1.373 . S
C7 C6 1.373 . S
C7 C8 1.409 . S
C7 H34 0.931 . S
C8 C3 1.356 . S
C8 C7 1.409 . S
C8 H35 0.930 . S
C9 O22 1.270 1_556 S
C9 O23 1.248 . S
C10 O24 1.267 . S
C10 O25 1.278 . S
C11 Pr1 2.880 . S
C11 C12 1.491 . S
C11 O26 1.254 . S
C11 O27 1.225 . S
C12 C11 1.491 . S
C12 C13 1.392 . S
C12 C17 1.356 . S
C13 C12 1.392 . S
C13 C14 1.368 . S
C13 H36 0.929 . S
C14 C13 1.368 . S
C14 C15 1.386 . S
C14 H37 0.929 . S
C15 C14 1.386 . S
C15 C16 1.373 . S
C16 C15 1.373 . S
C16 C17 1.409 . S
C16 H38 0.931 1_554 S
C17 C12 1.356 . S
C17 C16 1.409 . S
C17 H39 0.930 1_554 S
C18 O28 1.270 . S
C18 O29 1.248 . S
C19 O30 1.267 . S
C19 O31 1.278 . S
O20 Pr0 2.562 1_655 S
O20 C2 1.254 . S
O21 Pr0 2.490 1_655 S
O21 C2 1.225 . S
O22 Pr0 2.695 . S
O22 Pr1 2.436 . S
O22 C9 1.270 1_554 S
O23 Pr0 2.512 1_556 S
O23 C9 1.248 . S
O24 Pr1 2.438 1_655 S
O24 C10 1.267 . S
O25 Pr0 2.437 1_655 S
O25 C10 1.278 . S
O26 Pr1 2.562 . S
O26 C11 1.254 . S
O27 Pr1 2.490 . S
O27 C11 1.225 . S
O28 Pr0 2.436 . S
O28 Pr1 2.695 . S
O28 C18 1.270 . S
O29 Pr1 2.512 . S
O29 C18 1.248 . S
O30 Pr0 2.438 . S
O30 C19 1.267 . S
O31 Pr1 2.437 . S
O31 C19 1.278 . S
H32 C4 0.929 1_556 S
H33 C5 0.929 . S
H34 C7 0.931 . S
H35 C8 0.930 . S
H36 C13 0.929 . S
H37 C14 0.929 . S
H38 C16 0.931 1_556 S
H39 C17 0.930 1_556 S
Pr40 C42 2.880 . S
Pr40 O60 2.562 . S
Pr40 O61 2.490 . S
Pr40 O62 2.695 . S
Pr40 O63 2.512 . S
Pr40 O65 2.437 . S
Pr40 O68 2.436 . S
Pr40 O70 2.438 1_545 S
Pr41 C51 2.880 1_545 S
Pr41 O62 2.436 . S
Pr41 O64 2.438 . S
Pr41 O66 2.562 1_545 S
Pr41 O67 2.490 1_545 S
Pr41 O68 2.695 . S
Pr41 O69 2.512 . S
Pr41 O71 2.437 1_545 S
C42 Pr40 2.880 . S
C42 C43 1.491 . S
C42 O60 1.254 . S
C42 O61 1.225 . S
C43 C42 1.491 . S
C43 C44 1.392 . S
C43 C48 1.356 . S
C44 C43 1.392 . S
C44 C45 1.368 . S
C44 H72 0.929 . S
C45 C44 1.368 . S
C45 C46 1.386 . S
C45 H73 0.929 . S
C46 C45 1.386 . S
C46 C47 1.373 . S
C47 C46 1.373 . S
C47 C48 1.409 . S
C47 H74 0.931 . S
C48 C43 1.356 . S
C48 C47 1.409 . S
C48 H75 0.930 . S
C49 O62 1.270 . S
C49 O63 1.248 . S
C50 O64 1.267 . S
C50 O65 1.278 . S
C51 Pr41 2.880 1_565 S
C51 C52 1.491 . S
C51 O66 1.254 . S
C51 O67 1.225 . S
C52 C51 1.491 . S
C52 C53 1.392 . S
C52 C57 1.356 . S
C53 C52 1.392 . S
C53 C54 1.368 . S
C53 H76 0.929 . S
C54 C53 1.368 . S
C54 C55 1.386 . S
C54 H77 0.929 . S
C55 C54 1.386 . S
C55 C56 1.373 . S
C56 C55 1.373 . S
C56 C57 1.409 . S
C56 H78 0.931 . S
C57 C52 1.356 . S
C57 C56 1.409 . S
C57 H79 0.930 . S
C58 O68 1.270 . S
C58 O69 1.248 . S
C59 O70 1.267 . S
C59 O71 1.278 . S
O60 Pr40 2.562 . S
O60 C42 1.254 . S
O61 Pr40 2.490 . S
O61 C42 1.225 . S
O62 Pr40 2.695 . S
O62 Pr41 2.436 . S
O62 C49 1.270 . S
O63 Pr40 2.512 . S
O63 C49 1.248 . S
O64 Pr41 2.438 . S
O64 C50 1.267 . S
O65 Pr40 2.437 . S
O65 C50 1.278 . S
O66 Pr41 2.562 1_565 S
O66 C51 1.254 . S
O67 Pr41 2.490 1_565 S
O67 C51 1.225 . S
O68 Pr40 2.436 . S
O68 Pr41 2.695 . S
O68 C58 1.270 . S
O69 Pr41 2.512 . S
O69 C58 1.248 . S
O70 Pr40 2.438 1_565 S
O70 C59 1.267 . S
O71 Pr41 2.437 1_565 S
O71 C59 1.278 . S
H72 C44 0.929 . S
H73 C45 0.929 . S
H74 C47 0.931 . S
H75 C48 0.930 . S
H76 C53 0.929 . S
H77 C54 0.929 . S
H78 C56 0.931 . S
H79 C57 0.930 . S
Pr80 C82 2.880 . S
Pr80 O100 2.562 . S
Pr80 O101 2.490 . S
Pr80 O102 2.695 . S
Pr80 O103 2.512 1_556 S
Pr80 O105 2.437 . S
Pr80 O108 2.436 . S
Pr80 O110 2.438 . S
Pr81 C91 2.880 . S
Pr81 O102 2.436 . S
Pr81 O104 2.438 . S
Pr81 O106 2.562 . S
Pr81 O107 2.490 . S
Pr81 O108 2.695 . S
Pr81 O109 2.512 . S
Pr81 O111 2.437 . S
C82 Pr80 2.880 . S
C82 C83 1.491 . S
C82 O100 1.254 . S
C82 O101 1.225 . S
C83 C82 1.491 . S
C83 C84 1.392 . S
C83 C88 1.356 . S
C84 C83 1.392 . S
C84 C85 1.368 . S
C84 H112 0.929 . S
C85 C84 1.368 . S
C85 C86 1.386 . S
C85 H113 0.929 . S
C86 C85 1.386 . S
C86 C87 1.373 . S
C87 C86 1.373 . S
C87 C88 1.409 . S
C87 H114 0.931 . S
C88 C83 1.356 . S
C88 C87 1.409 . S
C88 H115 0.930 . S
C89 O102 1.270 1_554 S
C89 O103 1.248 . S
C90 O104 1.267 . S
C90 O105 1.278 . S
C91 Pr81 2.880 . S
C91 C92 1.491 . S
C91 O106 1.254 . S
C91 O107 1.225 . S
C92 C91 1.491 . S
C92 C93 1.392 . S
C92 C97 1.356 . S
C93 C92 1.392 . S
C93 C94 1.368 . S
C93 H116 0.929 . S
C94 C93 1.368 . S
C94 C95 1.386 . S
C94 H117 0.929 . S
C95 C94 1.386 . S
C95 C96 1.373 . S
C96 C95 1.373 . S
C96 C97 1.409 . S
C96 H118 0.931 1_556 S
C97 C92 1.356 . S
C97 C96 1.409 . S
C97 H119 0.930 . S
C98 O108 1.270 . S
C98 O109 1.248 . S
C99 O110 1.267 . S
C99 O111 1.278 . S
O100 Pr80 2.562 . S
O100 C82 1.254 . S
O101 Pr80 2.490 . S
O101 C82 1.225 . S
O102 Pr80 2.695 . S
O102 Pr81 2.436 . S
O102 C89 1.270 1_556 S
O103 Pr80 2.512 1_554 S
O103 C89 1.248 . S
O104 Pr81 2.438 . S
O104 C90 1.267 . S
O105 Pr80 2.437 . S
O105 C90 1.278 . S
O106 Pr81 2.562 . S
O106 C91 1.254 . S
O107 Pr81 2.490 . S
O107 C91 1.225 . S
O108 Pr80 2.436 . S
O108 Pr81 2.695 . S
O108 C98 1.270 . S
O109 Pr81 2.512 . S
O109 C98 1.248 . S
O110 Pr80 2.438 . S
O110 C99 1.267 . S
O111 Pr81 2.437 . S
O111 C99 1.278 . S
H112 C84 0.929 . S
H113 C85 0.929 . S
H114 C87 0.931 . S
H115 C88 0.930 . S
H116 C93 0.929 . S
H117 C94 0.929 . S
H118 C96 0.931 1_554 S
H119 C97 0.930 . S
H120 C128 0.950 . S
H121 C133 0.950 . S
H122 C130 0.950 . S
H123 C132 0.950 . S
H124 C134 0.950 1_554 S
H125 C136 0.950 . S
H126 C138 0.950 . S
H127 C139 0.950 . S
C128 H120 0.950 . S
C128 C129 1.386 1_556 S
C128 C130 1.391 . S
C129 C128 1.386 1_554 S
C129 C133 1.393 . S
C130 H122 0.950 . S
C130 C128 1.391 . S
C130 C131 1.400 1_556 S
C131 C130 1.400 1_554 S
C131 C132 1.398 . S
C131 C137 1.491 1_554 S
C132 H123 0.950 . S
C132 C131 1.398 . S
C132 C133 1.391 . S
C133 H121 0.950 . S
C133 C129 1.393 . S
C133 C132 1.391 . S
C134 H124 0.950 1_556 S
C134 C135 1.386 . S
C134 C136 1.391 1_556 S
C135 C134 1.386 . S
C135 C139 1.393 . S
C136 H125 0.950 . S
C136 C134 1.391 1_554 S
C136 C137 1.400 1_554 S
C137 C131 1.491 1_556 S
C137 C136 1.400 1_556 S
C137 C138 1.398 . S
C138 H126 0.950 . S
C138 C137 1.398 . S
C138 C139 1.391 . S
C139 H127 0.950 . S
C139 C135 1.393 . S
C139 C138 1.391 . S
H140 C148 0.950 . S
H141 C153 0.950 . S
H142 C150 0.950 . S
H143 C152 0.950 . S
H144 C154 0.950 . S
H145 C156 0.950 . S
H146 C158 0.950 . S
H147 C159 0.950 . S
C148 H140 0.950 . S
C148 C149 1.386 . S
C148 C150 1.391 . S
C149 C148 1.386 . S
C149 C153 1.393 . S
C150 H142 0.950 . S
C150 C148 1.391 . S
C150 C151 1.400 . S
C151 C150 1.400 . S
C151 C152 1.398 . S
C151 C157 1.491 . S
C152 H143 0.950 . S
C152 C151 1.398 . S
C152 C153 1.391 . S
C153 H141 0.950 . S
C153 C149 1.393 . S
C153 C152 1.391 . S
C154 H144 0.950 . S
C154 C155 1.386 . S
C154 C156 1.391 . S
C155 C154 1.386 . S
C155 C159 1.393 . S
C156 H145 0.950 . S
C156 C154 1.391 . S
C156 C157 1.400 . S
C157 C151 1.491 . S
C157 C156 1.400 . S
C157 C158 1.398 . S
C158 H146 0.950 . S
C158 C157 1.398 . S
C158 C159 1.391 . S
C159 H147 0.950 . S
C159 C155 1.393 . S
C159 C158 1.391 . S
H160 C168 0.950 . S
H161 C173 0.950 . S
H162 C170 0.950 . S
H163 C172 0.950 . S
H164 C174 0.950 . S
H165 C176 0.950 . S
H166 C178 0.950 . S
H167 C179 0.950 . S
C168 H160 0.950 . S
C168 C169 1.386 . S
C168 C170 1.391 . S
C169 C168 1.386 . S
C169 C173 1.393 . S
C170 H162 0.950 . S
C170 C168 1.391 . S
C170 C171 1.400 . S
C171 C170 1.400 . S
C171 C172 1.398 . S
C171 C177 1.491 . S
C172 H163 0.950 . S
C172 C171 1.398 . S
C172 C173 1.391 . S
C173 H161 0.950 . S
C173 C169 1.393 . S
C173 C172 1.391 . S
C174 H164 0.950 . S
C174 C175 1.386 . S
C174 C176 1.391 . S
C175 C174 1.386 . S
C175 C179 1.393 . S
C176 H165 0.950 . S
C176 C174 1.391 . S
C176 C177 1.400 . S
C177 C171 1.491 . S
C177 C176 1.400 . S
C177 C178 1.398 . S
C178 H166 0.950 . S
C178 C177 1.398 . S
C178 C179 1.391 . S
C179 H167 0.950 . S
C179 C175 1.393 . S
C179 C178 1.391 . S
H180 C188 0.950 . S
H181 C193 0.950 . S
H182 C190 0.950 . S
H183 C192 0.950 1_554 S
H184 C194 0.950 . S
H185 C196 0.950 . S
H186 C198 0.950 . S
H187 C199 0.950 . S
C188 H180 0.950 . S
C188 C189 1.386 . S
C188 C190 1.391 . S
C189 C188 1.386 . S
C189 C193 1.393 . S
C190 H182 0.950 . S
C190 C188 1.391 . S
C190 C191 1.400 . S
C191 C190 1.400 . S
C191 C192 1.398 . S
C191 C197 1.491 1_556 S
C192 H183 0.950 1_556 S
C192 C191 1.398 . S
C192 C193 1.391 . S
C193 H181 0.950 . S
C193 C189 1.393 . S
C193 C192 1.391 . S
C194 H184 0.950 . S
C194 C195 1.386 . S
C194 C196 1.391 . S
C195 C194 1.386 . S
C195 C199 1.393 . S
C196 H185 0.950 . S
C196 C194 1.391 . S
C196 C197 1.400 . S
C197 C191 1.491 1_554 S
C197 C196 1.400 . S
C197 C198 1.398 1_554 S
C198 H186 0.950 . S
C198 C197 1.398 1_556 S
C198 C199 1.391 1_556 S
C199 H187 0.950 . S
C199 C195 1.393 . S
C199 C198 1.391 1_554 S
H200 C208 0.950 . S
H201 C213 0.950 . S
H202 C210 0.950 . S
H203 C212 0.950 . S
H204 C214 0.950 . S
H205 C216 0.950 . S
H206 C218 0.950 . S
H207 C219 0.950 . S
C208 H200 0.950 . S
C208 C209 1.386 . S
C208 C210 1.391 . S
C209 C208 1.386 . S
C209 C213 1.393 . S
C210 H202 0.950 . S
C210 C208 1.391 . S
C210 C211 1.400 . S
C211 C210 1.400 . S
C211 C212 1.398 . S
C211 C217 1.491 . S
C212 H203 0.950 . S
C212 C211 1.398 . S
C212 C213 1.391 . S
C213 H201 0.950 . S
C213 C209 1.393 . S
C213 C212 1.391 . S
C214 H204 0.950 . S
C214 C215 1.386 . S
C214 C216 1.391 . S
C215 C214 1.386 . S
C215 C219 1.393 . S
C216 H205 0.950 . S
C216 C214 1.391 . S
C216 C217 1.400 . S
C217 C211 1.491 . S
C217 C216 1.400 . S
C217 C218 1.398 . S
C218 H206 0.950 . S
C218 C217 1.398 . S
C218 C219 1.391 . S
C219 H207 0.950 . S
C219 C215 1.393 . S
C219 C218 1.391 . S
H220 C228 0.950 . S
H221 C233 0.950 . S
H222 C230 0.950 . S
H223 C232 0.950 . S
H224 C234 0.950 . S
H225 C236 0.950 . S
H226 C238 0.950 . S
H227 C239 0.950 . S
C228 H220 0.950 . S
C228 C229 1.386 . S
C228 C230 1.391 . S
C229 C228 1.386 . S
C229 C233 1.393 . S
C230 H222 0.950 . S
C230 C228 1.391 . S
C230 C231 1.400 . S
C231 C230 1.400 . S
C231 C232 1.398 . S
C231 C237 1.491 . S
C232 H223 0.950 . S
C232 C231 1.398 . S
C232 C233 1.391 . S
C233 H221 0.950 . S
C233 C229 1.393 . S
C233 C232 1.391 . S
C234 H224 0.950 . S
C234 C235 1.386 . S
C234 C236 1.391 . S
C235 C234 1.386 . S
C235 C239 1.393 . S
C236 H225 0.950 . S
C236 C234 1.391 . S
C236 C237 1.400 . S
C237 C231 1.491 . S
C237 C236 1.400 . S
C237 C238 1.398 . S
C238 H226 0.950 . S
C238 C237 1.398 . S
C238 C239 1.391 . S
C239 H227 0.950 . S
C239 C235 1.393 . S
C239 C238 1.391 . S
H240 C248 0.950 . S
H241 C253 0.950 . S
H242 C250 0.950 . S
H243 C252 0.950 . S
H244 C254 0.950 . S
H245 C256 0.950 . S
H246 C258 0.950 . S
H247 C259 0.950 . S
C248 H240 0.950 . S
C248 C249 1.386 . S
C248 C250 1.391 . S
C249 C248 1.386 . S
C249 C253 1.393 1_455 S
C250 H242 0.950 . S
C250 C248 1.391 . S
C250 C251 1.400 . S
C251 C250 1.400 . S
C251 C252 1.398 1_455 S
C251 C257 1.491 . S
C252 H243 0.950 . S
C252 C251 1.398 1_655 S
C252 C253 1.391 . S
C253 H241 0.950 . S
C253 C249 1.393 1_655 S
C253 C252 1.391 . S
C254 H244 0.950 . S
C254 C255 1.386 1_655 S
C254 C256 1.391 . S
C255 C254 1.386 1_455 S
C255 C259 1.393 . S
C256 H245 0.950 . S
C256 C254 1.391 . S
C256 C257 1.400 1_655 S
C257 C251 1.491 . S
C257 C256 1.400 1_455 S
C257 C258 1.398 . S
C258 H246 0.950 . S
C258 C257 1.398 . S
C258 C259 1.391 . S
C259 H247 0.950 . S
C259 C255 1.393 . S
C259 C258 1.391 . S
H260 C268 0.950 . S
H261 C273 0.950 . S
H262 C270 0.950 . S
H263 C272 0.950 . S
H264 C274 0.950 . S
H265 C276 0.950 . S
H266 C278 0.950 . S
H267 C279 0.950 . S
C268 H260 0.950 . S
C268 C269 1.386 1_565 S
C268 C270 1.391 . S
C269 C268 1.386 1_545 S
C269 C273 1.393 . S
C270 H262 0.950 . S
C270 C268 1.391 . S
C270 C271 1.400 1_565 S
C271 C270 1.400 1_545 S
C271 C272 1.398 . S
C271 C277 1.491 1_554 S
C272 H263 0.950 . S
C272 C271 1.398 . S
C272 C273 1.391 . S
C273 H261 0.950 . S
C273 C269 1.393 . S
C273 C272 1.391 . S
C274 H264 0.950 . S
C274 C275 1.386 . S
C274 C276 1.391 . S
C275 C274 1.386 . S
C275 C279 1.393 1_545 S
C276 H265 0.950 . S
C276 C274 1.391 . S
C276 C277 1.400 . S
C277 C271 1.491 1_556 S
C277 C276 1.400 . S
C277 C278 1.398 1_545 S
C278 H266 0.950 . S
C278 C277 1.398 1_565 S
C278 C279 1.391 . S
C279 H267 0.950 . S
C279 C275 1.393 1_565 S
C279 C278 1.391 . S
H280 C288 0.950 . S
H281 C293 0.950 . S
H282 C290 0.950 . S
H283 C292 0.950 . S
H284 C294 0.950 . S
H285 C296 0.950 . S
H286 C298 0.950 . S
H287 C299 0.950 . S
C288 H280 0.950 . S
C288 C289 1.386 . S
C288 C290 1.391 . S
C289 C288 1.386 . S
C289 C293 1.393 . S
C290 H282 0.950 . S
C290 C288 1.391 . S
C290 C291 1.400 . S
C291 C290 1.400 . S
C291 C292 1.398 . S
C291 C297 1.491 . S
C292 H283 0.950 . S
C292 C291 1.398 . S
C292 C293 1.391 . S
C293 H281 0.950 . S
C293 C289 1.393 . S
C293 C292 1.391 . S
C294 H284 0.950 . S
C294 C295 1.386 . S
C294 C296 1.391 . S
C295 C294 1.386 . S
C295 C299 1.393 . S
C296 H285 0.950 . S
C296 C294 1.391 . S
C296 C297 1.400 . S
C297 C291 1.491 . S
C297 C296 1.400 . S
C297 C298 1.398 . S
C298 H286 0.950 . S
C298 C297 1.398 . S
C298 C299 1.391 . S
C299 H287 0.950 . S
C299 C295 1.393 . S
C299 C298 1.391 . S
C129 C19 3.002 . S
C135 C99 2.949 . S
C149 C46 1.570 . S
C155 C6 1.571 . S
C169 C59 2.556 . S
C175 C95 2.425 . S
C189 C90 2.650 . S
C195 C10 2.689 . S
C209 C55 1.539 . S
C215 C15 1.534 . S
C229 C86 2.215 . S
C235 C50 2.204 . S
C249 C9 0.503 . S
C255 C18 0.503 . S
C269 C58 0.511 . S
C275 C49 0.511 . S
C289 C98 0.586 . S
C295 C89 0.586 . S
