# Generated by pormake.
# Topology lvt, (4)-cn, num edge types: 1
# Building blocks:
#     Node 0, Type 0, BuildingBlock: NAWXER_clean_sbu_0, # of connection points: 4
#     Node 1, Type 0, BuildingBlock: NAWXER_clean_sbu_0, # of connection points: 4
#     Node 2, Type 0, BuildingBlock: NAWXER_clean_sbu_0, # of connection points: 4
#     Node 3, Type 0, BuildingBlock: NAWXER_clean_sbu_0, # of connection points: 4
#     Node 4, Type 0, BuildingBlock: NAWXER_clean_sbu_0, # of connection points: 4
#     Node 5, Type 0, BuildingBlock: NAWXER_clean_sbu_0, # of connection points: 4
#     Node 6, Type 0, BuildingBlock: NAWXER_clean_sbu_0, # of connection points: 4
#     Node 7, Type 0, BuildingBlock: NAWXER_clean_sbu_0, # of connection points: 4
#     Edge 8, Type (0, 0), BuildingBlock: TEMPAE_clean_linker_10, # of connection points: 2
#     Edge 9, Type (0, 0), BuildingBlock: TEMPAE_clean_linker_10, # of connection points: 2
#     Edge 10, Type (0, 0), BuildingBlock: TEMPAE_clean_linker_10, # of connection points: 2
#     Edge 11, Type (0, 0), BuildingBlock: TEMPAE_clean_linker_10, # of connection points: 2
#     Edge 12, Type (0, 0), BuildingBlock: TEMPAE_clean_linker_10, # of connection points: 2
#     Edge 13, Type (0, 0), BuildingBlock: TEMPAE_clean_linker_10, # of connection points: 2
#     Edge 14, Type (0, 0), BuildingBlock: TEMPAE_clean_linker_10, # of connection points: 2
#     Edge 15, Type (0, 0), BuildingBlock: TEMPAE_clean_linker_10, # of connection points: 2
#     Edge 16, Type (0, 0), BuildingBlock: TEMPAE_clean_linker_10, # of connection points: 2
#     Edge 17, Type (0, 0), BuildingBlock: TEMPAE_clean_linker_10, # of connection points: 2
#     Edge 18, Type (0, 0), BuildingBlock: TEMPAE_clean_linker_10, # of connection points: 2
#     Edge 19, Type (0, 0), BuildingBlock: TEMPAE_clean_linker_10, # of connection points: 2
#     Edge 20, Type (0, 0), BuildingBlock: TEMPAE_clean_linker_10, # of connection points: 2
#     Edge 21, Type (0, 0), BuildingBlock: TEMPAE_clean_linker_10, # of connection points: 2
#     Edge 22, Type (0, 0), BuildingBlock: TEMPAE_clean_linker_10, # of connection points: 2
#     Edge 23, Type (0, 0), BuildingBlock: TEMPAE_clean_linker_10, # of connection points: 2
# Relax obj value: 0.000
# Max RMSD: 0.000
# Mean RMSD: 0.000
data_MOF--net-lvt--node1-NAWXER_clean_sbu_0--edge1-TEMPAE_clean_linker_10
_symmetry_space_group_name_H-M    P1
_symmetry_Int_Tables_number       1
_symmetry_cell_setting            triclinic
loop_
_symmetry_equiv_pos_as_xyz
'x, y, z'
_cell_length_a     38.865202
_cell_length_b     38.780401
_cell_length_c     21.989254
_cell_angle_alpha  90.450723
_cell_angle_beta   90.124397
_cell_angle_gamma 90.131324
loop_
_atom_site_label
_atom_site_type_symbol
_atom_site_fract_x
_atom_site_fract_y
_atom_site_fract_z
_atom_type_partial_charge
C0 C 0.98313 0.9737 0.56025 0.0
C1 C 0.07464 0.05914 0.52778 0.0
O2 O 0.99342 0.97543 0.50512 0.0
Zn3 Zn 0.0283 1.00443 0.45184 0.0
O4 O 0.99603 0.994 0.59998 0.0
Zn5 Zn 0.02784 0.01865 0.54691 0.0
O6 O 0.99431 0.04812 0.49187 0.0
O7 O 0.99757 0.0294 0.39716 0.0
O8 O 0.05893 0.05438 0.57784 0.0
O9 O 0.06513 0.04274 0.47973 0.0
O10 O 0.0595 0.96854 0.42247 0.0
O11 O 0.06468 0.9803 0.52074 0.0
C12 C 0.98474 0.04999 0.43629 0.0
C13 C 0.07465 0.96385 0.47317 0.0
C14 C 0.25008 0.80094 0.63088 0.0
C15 C 0.31678 0.70407 0.70964 0.0
O16 O 0.27709 0.78821 0.60715 0.0
Zn17 Zn 0.28673 0.75491 0.67143 0.0
O18 O 0.24049 0.79075 0.68346 0.0
Zn19 Zn 0.25493 0.7542 0.75054 0.0
O20 O 0.26837 0.78185 0.82073 0.0
O21 O 0.30573 0.78558 0.74588 0.0
O22 O 0.2928 0.71419 0.74552 0.0
O23 O 0.32288 0.7208 0.66126 0.0
O24 O 0.24122 0.72304 0.6661 0.0
O25 O 0.21295 0.72745 0.75298 0.0
C26 C 0.29649 0.79368 0.8001 0.0
C27 C 0.21533 0.7151 0.69932 0.0
C28 C 0.45617 0.96278 0.00651 0.0
C29 C 0.54648 0.04009 0.08568 0.0
O30 O 0.46595 0.98614 0.96929 0.0
Zn31 Zn 0.50181 0.02808 0.96498 0.0
O32 O 0.46997 0.96116 0.05901 0.0
Zn33 Zn 0.50086 1.00054 0.05041 0.0
O34 O 0.46585 0.04288 0.04414 0.0
O35 O 0.47166 0.06789 0.95478 0.0
O36 O 0.53326 0.01494 0.11436 0.0
O37 O 0.53622 0.04701 0.03193 0.0
O38 O 0.53501 1.01296 0.90281 0.0
O39 O 0.53597 0.9812 0.98561 0.0
C40 C 0.45702 0.06637 0.00648 0.0
C41 C 0.54733 0.98771 0.93244 0.0
C42 C 0.29654 0.23479 0.20903 0.0
C43 C 0.21437 0.31162 0.31019 0.0
O44 O 0.26851 0.24658 0.18798 0.0
Zn45 Zn 0.25445 0.27335 0.25873 0.0
O46 O 0.30538 0.24243 0.26375 0.0
Zn47 Zn 0.28583 0.27223 0.33859 0.0
O48 O 0.2761 0.23821 0.40156 0.0
O49 O 0.23997 0.23589 0.32425 0.0
O50 O 0.24014 0.3036 0.34378 0.0
O51 O 0.21231 0.29972 0.25616 0.0
O52 O 0.29206 0.3137 0.26588 0.0
O53 O 0.32178 0.30656 0.3506 0.0
C54 C 0.24938 0.22529 0.37673 0.0
C55 C 0.31581 0.3237 0.30261 0.0
C56 C 0.71563 0.29797 0.22761 0.0
C57 C 0.80557 0.22316 0.31246 0.0
O58 O 0.73743 0.28598 0.18946 0.0
Zn59 Zn 0.78064 0.25291 0.18433 0.0
O60 O 0.71707 0.28894 0.28322 0.0
Zn61 Zn 0.75835 0.26011 0.27531 0.0
O62 O 0.79493 0.29778 0.24866 0.0
O63 O 0.8159 0.28597 0.15728 0.0
O64 O 0.78114 0.23656 0.34306 0.0
O65 O 0.80725 0.22797 0.25508 0.0
O66 O 0.76229 0.21382 0.13545 0.0
O67 O 0.73847 0.21818 0.22595 0.0
C68 C 0.81467 0.30545 0.20426 0.0
C69 C 0.74106 0.2026 0.17481 0.0
C70 C 0.8138 0.7226 0.7971 0.0
C71 C 0.73937 0.82446 0.82784 0.0
O72 O 0.793 0.72953 0.75372 0.0
Zn73 Zn 0.7555 0.76637 0.72799 0.0
O74 O 0.81589 0.74262 0.84332 0.0
Zn75 Zn 0.77977 0.77498 0.81728 0.0
O76 O 0.73669 0.74135 0.81603 0.0
O77 O 0.7145 0.73672 0.72359 0.0
O78 O 0.76216 0.81452 0.86563 0.0
O79 O 0.73583 0.80819 0.77751 0.0
O80 O 0.77665 0.78959 0.65813 0.0
O81 O 0.8047 0.79917 0.74414 0.0
C82 C 0.71422 0.72852 0.77969 0.0
C83 C 0.80176 0.80335 0.68677 0.0
C84 C 0.4647 0.53164 0.91977 0.0
C85 C 0.55104 0.46239 0.02666 0.0
O86 O 0.4741 0.54385 0.97149 0.0
Zn87 Zn 0.50777 0.53232 0.04473 0.0
O88 O 0.47668 0.50282 0.90165 0.0
Zn89 Zn 0.50757 0.49539 0.97072 0.0
O90 O 0.4737 0.48413 0.04362 0.0
O91 O 0.47672 0.52513 0.1135 0.0
O92 O 0.5378 0.45555 0.9749 0.0
O93 O 0.54223 0.48998 0.055 0.0
O94 O 0.53847 0.57195 0.04077 0.0
O95 O 0.54261 0.53739 0.96083 0.0
C96 C 0.46439 0.49641 0.09523 0.0
C97 C 0.55172 0.56492 0.9892 0.0
C98 C 0.94339 0.49215 0.41373 0.0
C99 C 0.03073 0.56426 0.51354 0.0
O100 O 0.95554 0.52058 0.39482 0.0
Zn101 Zn 0.98516 0.53096 0.46428 0.0
O102 O 0.95173 0.48162 0.46687 0.0
Zn103 Zn 0.98472 0.49679 0.54025 0.0
O104 O 0.95495 0.50754 0.60905 0.0
O105 O 0.95206 0.54652 0.53691 0.0
O106 O 0.02118 0.53828 0.54503 0.0
O107 O 0.01638 0.57012 0.46253 0.0
O108 O 0.02104 0.48909 0.46032 0.0
O109 O 0.01533 0.45729 0.54267 0.0
C110 C 0.94331 0.53609 0.58988 0.0
C111 C 0.03004 0.46301 0.49202 0.0
C112 C 0.10618 0.11424 0.5517 0.0
C113 C 0.10511 0.08176 0.52353 0.0
C114 C 0.13273 0.13774 0.53807 0.0
C115 C 0.15882 0.1281 0.49622 0.0
C116 C 0.15925 0.09418 0.47209 0.0
C117 C 0.13224 0.07159 0.48559 0.0
C118 C 0.13129 0.17369 0.5646 0.0
C119 C 0.18672 0.08253 0.42803 0.0
C120 C 0.19385 0.19373 0.38592 0.0
C121 C 0.22691 0.20045 0.40903 0.0
C122 C 0.17122 0.17129 0.41533 0.0
C123 C 0.18187 0.1546 0.46913 0.0
C124 C 0.21505 0.16143 0.49336 0.0
C125 C 0.23719 0.18449 0.46316 0.0
C126 C 0.13602 0.16499 0.38792 0.0
C127 C 0.22736 0.14386 0.55034 0.0
H128 H 0.08521 0.12205 0.58114 0.0
H129 H 0.13171 0.04618 0.46461 0.0
H130 H 0.15718 0.18231 0.5797 0.0
H131 H 0.12243 0.19184 0.52911 0.0
H132 H 0.1133 0.17536 0.60371 0.0
H133 H 0.18642 0.05413 0.42097 0.0
H134 H 0.18247 0.09502 0.38341 0.0
H135 H 0.21261 0.09036 0.44444 0.0
H136 H 0.18535 0.20624 0.34464 0.0
H137 H 0.26259 0.18971 0.48151 0.0
H138 H 0.11574 0.16979 0.42237 0.0
H139 H 0.13373 0.13766 0.37312 0.0
H140 H 0.13094 0.18165 0.34804 0.0
H141 H 0.20845 0.14754 0.58754 0.0
H142 H 0.2528 0.15373 0.56577 0.0
H143 H 0.22948 0.1157 0.54189 0.0
C144 C 0.10704 0.9093 0.44977 0.0
C145 C 0.10519 0.94154 0.47866 0.0
C146 C 0.13373 0.88616 0.46406 0.0
C147 C 0.15916 0.89592 0.50736 0.0
C148 C 0.15883 0.92964 0.53236 0.0
C149 C 0.13172 0.95186 0.51811 0.0
C150 C 0.13314 0.85042 0.4365 0.0
C151 C 0.18557 0.94141 0.57802 0.0
C152 C 0.19385 0.83057 0.61836 0.0
C153 C 0.22744 0.82496 0.59716 0.0
C154 C 0.17114 0.85242 0.58789 0.0
C155 C 0.18222 0.86964 0.53493 0.0
C156 C 0.21589 0.86379 0.51242 0.0
C157 C 0.23812 0.84129 0.54367 0.0
C158 C 0.13542 0.85765 0.61344 0.0
C159 C 0.22865 0.88192 0.45635 0.0
H160 H 0.08658 0.90138 0.41909 0.0
H161 H 0.13064 0.97712 0.53961 0.0
H162 H 0.15935 0.84239 0.42259 0.0
H163 H 0.12399 0.83181 0.471 0.0
H164 H 0.11575 0.8488 0.3964 0.0
H165 H 0.18472 0.96973 0.58595 0.0
H166 H 0.181 0.92838 0.62203 0.0
H167 H 0.21177 0.93431 0.56255 0.0
H168 H 0.18505 0.81768 0.65906 0.0
H169 H 0.26392 0.8369 0.52676 0.0
H170 H 0.11578 0.85268 0.57774 0.0
H171 H 0.1324 0.88479 0.62881 0.0
H172 H 0.13006 0.84052 0.65257 0.0
H173 H 0.21012 0.87839 0.41835 0.0
H174 H 0.25428 0.87239 0.44166 0.0
H175 H 0.23059 0.91002 0.46561 0.0
C176 C 0.42751 0.90457 0.01104 0.0
C177 C 0.42946 0.93776 0.98642 0.0
C178 C 0.40462 0.87978 0.98674 0.0
C179 C 0.38286 0.88866 0.93744 0.0
C180 C 0.38359 0.92268 0.91466 0.0
C181 C 0.40701 0.94666 0.93904 0.0
C182 C 0.40486 0.8437 0.01192 0.0
C183 C 0.3605 0.93349 0.86286 0.0
C184 C 0.35321 0.82197 0.82111 0.0
C185 C 0.31883 0.81647 0.83789 0.0
C186 C 0.37464 0.84424 0.85473 0.0
C187 C 0.36132 0.86198 0.90604 0.0
C188 C 0.32684 0.85604 0.92404 0.0
C189 C 0.30606 0.83315 0.89 0.0
C190 C 0.41136 0.84946 0.83431 0.0
C191 C 0.31155 0.87475 0.97798 0.0
H192 H 0.44486 0.89752 0.04752 0.0
H193 H 0.40807 0.9724 0.92025 0.0
H194 H 0.3783 0.83521 0.02269 0.0
H195 H 0.41511 0.8256 0.97712 0.0
H196 H 0.42092 0.84171 0.05359 0.0
H197 H 0.36203 0.96162 0.85408 0.0
H198 H 0.36796 0.91948 0.82073 0.0
H199 H 0.33337 0.92664 0.87277 0.0
H200 H 0.36345 0.8089 0.78135 0.0
H201 H 0.27953 0.82904 0.9033 0.0
H202 H 0.42931 0.84531 0.87284 0.0
H203 H 0.41494 0.8764 0.81887 0.0
H204 H 0.41854 0.83176 0.79646 0.0
H205 H 0.32808 0.87145 0.01869 0.0
H206 H 0.28519 0.86551 0.98871 0.0
H207 H 0.31037 0.90278 0.96848 0.0
C208 C 0.35327 0.20649 0.18958 0.0
C209 C 0.31921 0.21247 0.17127 0.0
C210 C 0.37491 0.18449 0.1562 0.0
C211 C 0.36215 0.16755 0.10347 0.0
C212 C 0.32804 0.17409 0.08382 0.0
C213 C 0.30703 0.19665 0.11774 0.0
C214 C 0.41121 0.1786 0.17847 0.0
C215 C 0.31335 0.15629 0.02826 0.0
C216 C 0.42943 0.125 1.00143 0.0
C217 C 0.43031 0.09156 0.0252 0.0
C218 C 0.40653 0.14988 0.02492 0.0
C219 C 0.38369 0.14086 0.0725 0.0
C220 C 0.38335 0.10661 0.09424 0.0
C221 C 0.40678 0.08255 0.07072 0.0
C222 C 0.4079 0.18619 1.00086 0.0
C223 C 0.35913 0.09565 0.14418 0.0
H224 H 0.36308 0.2189 0.23044 0.0
H225 H 0.28077 0.20115 0.10321 0.0
H226 H 0.41409 0.15147 0.19325 0.0
H227 H 0.42983 0.1829 0.1411 0.0
H228 H 0.4181 0.19583 0.21724 0.0
H229 H 0.28744 0.16618 0.01614 0.0
H230 H 0.33072 0.15969 0.98879 0.0
H231 H 0.3113 0.12818 0.0367 0.0
H232 H 0.44762 0.13214 0.9664 0.0
H233 H 0.40702 0.05662 0.08882 0.0
H234 H 0.41806 0.20377 0.03671 0.0
H235 H 0.3817 0.19525 0.98901 0.0
H236 H 0.42459 0.18828 0.9601 0.0
H237 H 0.36608 0.10912 0.18719 0.0
H238 H 0.35995 0.06741 0.15216 0.0
H239 H 0.33232 0.10299 0.13276 0.0
C240 C 0.9496 0.92024 0.5365 0.0
C241 C 0.95611 0.9482 0.57591 0.0
C242 C 0.92384 0.89594 0.5492 0.0
C243 C 0.90362 0.8999 0.60218 0.0
C244 C 0.9097 0.92834 0.64178 0.0
C245 C 0.93611 0.95198 0.62848 0.0
C246 C 0.91877 0.86563 0.50655 0.0
C247 C 0.88841 0.93366 0.69841 0.0
C248 C 0.8187 0.85094 0.61628 0.0
C249 C 0.82798 0.82473 0.6565 0.0
C250 C 0.84317 0.87546 0.5973 0.0
C251 C 0.87766 0.87312 0.61824 0.0
C252 C 0.88734 0.84549 0.6562 0.0
C253 C 0.86232 0.82192 0.67537 0.0
C254 C 0.8318 0.90477 0.55732 0.0
C255 C 0.92393 0.84143 0.67835 0.0
H256 H 0.96503 0.91702 0.49584 0.0
H257 H 0.94078 0.97368 0.65879 0.0
H258 H 0.9239 0.84125 0.53103 0.0
H259 H 0.89171 0.86457 0.4905 0.0
H260 H 0.93596 0.86682 0.46632 0.0
H261 H 0.8949 0.95814 0.72241 0.0
H262 H 0.86064 0.93387 0.68657 0.0
H263 H 0.89259 0.91195 0.73013 0.0
H264 H 0.79203 0.8534 0.60249 0.0
H265 H 0.86947 0.8016 0.70654 0.0
H266 H 0.84847 0.90642 0.51657 0.0
H267 H 0.83448 0.92951 0.5826 0.0
H268 H 0.80463 0.9019 0.54225 0.0
H269 H 0.94199 0.84166 0.63935 0.0
H270 H 0.9277 0.81714 0.70395 0.0
H271 H 0.93089 0.86344 0.7085 0.0
C272 C 0.95407 0.10525 0.45684 0.0
C273 C 0.95867 0.07608 0.41951 0.0
C274 C 0.92893 0.12999 0.44364 0.0
C275 C 0.90731 0.1252 0.39244 0.0
C276 C 0.91157 0.09564 0.3548 0.0
C277 C 0.93749 0.07159 0.36841 0.0
C278 C 0.92588 0.16153 0.48399 0.0
C279 C 0.88871 0.08942 0.30021 0.0
C280 C 0.82342 0.17589 0.38292 0.0
C281 C 0.83208 0.20113 0.34041 0.0
C282 C 0.84772 0.15102 0.4008 0.0
C283 C 0.8815 0.15205 0.37646 0.0
C284 C 0.89067 0.17863 0.33585 0.0
C285 C 0.86576 0.20255 0.31784 0.0
C286 C 0.83689 0.12282 0.44366 0.0
C287 C 0.92657 0.1813 0.31005 0.0
H288 H 0.9705 0.10899 0.49627 0.0
H289 H 0.94071 0.04895 0.33979 0.0
H290 H 0.93055 0.18511 0.45692 0.0
H291 H 0.89945 0.16345 0.50261 0.0
H292 H 0.94441 0.16119 0.52252 0.0
H293 H 0.89409 0.06433 0.27749 0.0
H294 H 0.86129 0.08992 0.31416 0.0
H295 H 0.89241 0.11033 0.26669 0.0
H296 H 0.79724 0.17449 0.39965 0.0
H297 H 0.87248 0.22215 0.28496 0.0
H298 H 0.85446 0.12202 0.48343 0.0
H299 H 0.83869 0.09746 0.42016 0.0
H300 H 0.81013 0.12632 0.46022 0.0
H301 H 0.94583 0.1817 0.34736 0.0
H302 H 0.93009 0.20479 0.28212 0.0
H303 H 0.93205 0.15838 0.2812 0.0
C304 C 0.69832 0.15976 0.21186 0.0
C305 C 0.71764 0.1729 0.16319 0.0
C306 C 0.67238 0.13518 0.20257 0.0
C307 C 0.66565 0.12285 0.14312 0.0
C308 C 0.68643 0.13426 0.09414 0.0
C309 C 0.71217 0.15932 0.1047 0.0
C310 C 0.65078 0.12404 0.25604 0.0
C311 C 0.68038 0.12119 0.0302 0.0
C312 C 0.6062 0.04483 0.12671 0.0
C313 C 0.57522 0.06066 0.11038 0.0
C314 C 0.63611 0.06464 0.13692 0.0
C315 C 0.6346 0.10105 0.1318 0.0
C316 C 0.60289 0.11706 0.11767 0.0
C317 C 0.57376 0.09662 0.10623 0.0
C318 C 0.66955 0.04661 0.15081 0.0
C319 C 0.59981 0.1558 0.11349 0.0
H320 H 0.70258 0.16962 0.25753 0.0
H321 H 0.72705 0.16914 0.06694 0.0
H322 H 0.62415 0.13384 0.2505 0.0
H323 H 0.64922 0.09552 0.25802 0.0
H324 H 0.66113 0.13382 0.30005 0.0
H325 H 0.70126 0.12908 0.99877 0.0
H326 H 0.67835 0.09265 0.02967 0.0
H327 H 0.65567 0.1315 0.01282 0.0
H328 H 0.60749 0.01692 0.12811 0.0
H329 H 0.54984 0.10872 0.09264 0.0
H330 H 0.68076 0.05676 0.19381 0.0
H331 H 0.6884 0.05186 0.11417 0.0
H332 H 0.66625 0.01826 0.15482 0.0
H333 H 0.60849 0.16804 0.15667 0.0
H334 H 0.57302 0.16418 0.10404 0.0
H335 H 0.61671 0.16552 0.07679 0.0
C336 C 0.60339 0.98053 0.8771 0.0
C337 C 0.57581 0.96617 0.90919 0.0
C338 C 0.63286 0.96075 0.86377 0.0
C339 C 0.6343 0.92575 0.88196 0.0
C340 C 0.60601 0.91106 0.9129 0.0
C341 C 0.57736 0.9315 0.92655 0.0
C342 C 0.66269 0.97739 0.83135 0.0
C343 C 0.60595 0.87365 0.93169 0.0
C344 C 0.68902 0.86036 0.79832 0.0
C345 C 0.71512 0.85323 0.84083 0.0
C346 C 0.66355 0.88493 0.81014 0.0
C347 C 0.66419 0.9035 0.86564 0.0
C348 C 0.69135 0.89783 0.90767 0.0
C349 C 0.71643 0.87253 0.89498 0.0
C350 C 0.63483 0.8896 0.76446 0.0
C351 C 0.69318 0.91759 0.96695 0.0
H352 H 0.60251 1.00752 0.86471 0.0
H353 H 0.55606 0.92036 0.95151 0.0
H354 H 0.68625 0.97554 0.85972 0.0
H355 H 0.66794 0.96353 0.78806 0.0
H356 H 0.65782 1.00497 0.82118 0.0
H357 H 0.58183 0.8662 0.95527 0.0
H358 H 0.6091 0.85679 0.89108 0.0
H359 H 0.62797 0.86858 0.96249 0.0
H360 H 0.68766 0.84585 0.75605 0.0
H361 H 0.73656 0.86743 0.92786 0.0
H362 H 0.63168 0.91725 0.75334 0.0
H363 H 0.61021 0.88059 0.78434 0.0
H364 H 0.63942 0.875 0.72157 0.0
H365 H 0.68994 0.94561 0.95882 0.0
H366 H 0.71793 0.91341 0.9911 0.0
H367 H 0.67187 0.90931 0.99703 0.0
C368 C 0.5948 0.57755 0.90843 0.0
C369 C 0.57574 0.58899 0.95885 0.0
C370 C 0.61604 0.60012 0.87598 0.0
C371 C 0.61811 0.63516 0.89392 0.0
C372 C 0.59884 0.64699 0.94461 0.0
C373 C 0.57802 0.62369 0.97676 0.0
C374 C 0.63666 0.5863 0.82301 0.0
C375 C 0.60032 0.68423 0.96494 0.0
C376 C 0.69953 0.68411 0.85577 0.0
C377 C 0.68955 0.70332 0.80488 0.0
C378 C 0.6766 0.66175 0.88461 0.0
C379 C 0.64254 0.65869 0.86258 0.0
C380 C 0.6323 0.67759 0.81059 0.0
C381 C 0.65611 0.69956 0.78188 0.0
C382 C 0.68886 0.64156 0.93901 0.0
C383 C 0.59608 0.67506 0.78612 0.0
H384 H 0.59322 0.55076 0.89424 0.0
H385 H 0.56306 0.6328 0.01518 0.0
H386 H 0.63091 0.60124 0.78141 0.0
H387 H 0.66456 0.58934 0.83254 0.0
H388 H 0.63127 0.55862 0.8136 0.0
H389 H 0.58234 0.68976 0.00298 0.0
H390 H 0.62682 0.69083 0.97994 0.0
H391 H 0.59393 0.70135 0.92635 0.0
H392 H 0.72552 0.6866 0.87332 0.0
H393 H 0.6483 0.71452 0.7428 0.0
H394 H 0.68526 0.61353 0.93062 0.0
H395 H 0.67336 0.6485 0.97958 0.0
H396 H 0.71643 0.6464 0.9496 0.0
H397 H 0.58991 0.64791 0.7741 0.0
H398 H 0.5922 0.69129 0.74527 0.0
H399 H 0.57756 0.68327 0.82171 0.0
C400 C 0.65685 0.32519 0.22727 0.0
C401 C 0.69055 0.32346 0.2051 0.0
C402 C 0.63257 0.34725 0.20013 0.0
C403 C 0.6426 0.36831 0.15069 0.0
C404 C 0.67696 0.36738 0.12982 0.0
C405 C 0.70036 0.34487 0.15698 0.0
C406 C 0.59606 0.34748 0.22329 0.0
C407 C 0.68901 0.3899 0.07823 0.0
C408 C 0.57842 0.40402 0.0365 0.0
C409 C 0.57485 0.43813 0.05707 0.0
C410 C 0.59946 0.38059 0.06783 0.0
C411 C 0.61759 0.39168 0.12051 0.0
C412 C 0.61403 0.42605 0.14143 0.0
C413 C 0.59267 0.44877 0.10963 0.0
C414 C 0.60257 0.34407 0.04427 0.0
C415 C 0.63334 0.43907 0.19675 0.0
H416 H 0.6492 0.30849 0.26418 0.0
H417 H 0.72656 0.3439 0.14019 0.0
H418 H 0.5886 0.374 0.23709 0.0
H419 H 0.57826 0.33929 0.18636 0.0
H420 H 0.59249 0.33007 0.26268 0.0
H421 H 0.71688 0.38673 0.06864 0.0
H422 H 0.67436 0.38355 0.03625 0.0
H423 H 0.68407 0.41742 0.08917 0.0
H424 H 0.56446 0.39549 0.99638 0.0
H425 H 0.59007 0.47508 0.12598 0.0
H426 H 0.5966 0.32556 0.08102 0.0
H427 H 0.62942 0.33912 0.02962 0.0
H428 H 0.58512 0.33887 0.00517 0.0
H429 H 0.62786 0.42246 0.23641 0.0
H430 H 0.62652 0.46608 0.20874 0.0
H431 H 0.66145 0.43782 0.18827 0.0
C432 C 0.87034 0.33801 0.20783 0.0
C433 C 0.83436 0.33787 0.2096 0.0
C434 C 0.88907 0.36641 0.23104 0.0
C435 C 0.87121 0.39508 0.25613 0.0
C436 C 0.83489 0.39618 0.25233 0.0
C437 C 0.81695 0.36747 0.22953 0.0
C438 C 0.92778 0.36427 0.23388 0.0
C439 C 0.81469 0.42618 0.27786 0.0
C440 C 0.90934 0.43827 0.39646 0.0
C441 C 0.92281 0.46908 0.37327 0.0
C442 C 0.89289 0.41408 0.3586 0.0
C443 C 0.88957 0.4207 0.29561 0.0
C444 C 0.90256 0.45197 0.27181 0.0
C445 C 0.91905 0.47583 0.31093 0.0
C446 C 0.87919 0.38122 0.3862 0.0
C447 C 0.89938 0.46 0.20501 0.0
H448 H 0.88378 0.31496 0.19309 0.0
H449 H 0.78903 0.36727 0.23089 0.0
H450 H 0.93964 0.38923 0.22116 0.0
H451 H 0.93583 0.35856 0.28119 0.0
H452 H 0.93794 0.34368 0.2035 0.0
H453 H 0.78745 0.42571 0.26247 0.0
H454 H 0.81507 0.42511 0.32828 0.0
H455 H 0.82644 0.45106 0.26441 0.0
H456 H 0.91208 0.43269 0.44445 0.0
H457 H 0.9296 0.4994 0.29243 0.0
H458 H 0.89111 0.35852 0.36367 0.0
H459 H 0.851 0.37938 0.37878 0.0
H460 H 0.88434 0.37975 0.43583 0.0
H461 H 0.91281 0.43997 0.17777 0.0
H462 H 0.9104 0.48561 0.19369 0.0
H463 H 0.87193 0.4595 0.19109 0.0
C464 C 0.86981 0.69078 0.79346 0.0
C465 C 0.83383 0.69048 0.7914 0.0
C466 C 0.88876 0.66258 0.77049 0.0
C467 C 0.87113 0.63365 0.74538 0.0
C468 C 0.83481 0.63214 0.74879 0.0
C469 C 0.81665 0.66065 0.77136 0.0
C470 C 0.92746 0.66514 0.76807 0.0
C471 C 0.81485 0.60187 0.72319 0.0
C472 C 0.90952 0.59007 0.60609 0.0
C473 C 0.92286 0.55937 0.62983 0.0
C474 C 0.89309 0.61439 0.64345 0.0
C475 C 0.8897 0.60804 0.7065 0.0
C476 C 0.90265 0.57693 0.73088 0.0
C477 C 0.91907 0.55292 0.69224 0.0
C478 C 0.87942 0.64705 0.61524 0.0
C479 C 0.89943 0.56921 0.79777 0.0
H480 H 0.88308 0.71399 0.80834 0.0
H481 H 0.78874 0.66047 0.76987 0.0
H482 H 0.93946 0.64035 0.78117 0.0
H483 H 0.93554 0.6708 0.72081 0.0
H484 H 0.93745 0.68594 0.79838 0.0
H485 H 0.78753 0.60214 0.73798 0.0
H486 H 0.81545 0.60273 0.67277 0.0
H487 H 0.82663 0.57715 0.73723 0.0
H488 H 0.91229 0.59542 0.55804 0.0
H489 H 0.92955 0.52945 0.71117 0.0
H490 H 0.89123 0.66992 0.63768 0.0
H491 H 0.8512 0.64873 0.6222 0.0
H492 H 0.88469 0.64836 0.56567 0.0
H493 H 0.9126 0.58959 0.82487 0.0
H494 H 0.91069 0.54383 0.80966 0.0
H495 H 0.87195 0.56937 0.81131 0.0
C496 C 0.43478 0.44087 0.11639 0.0
C497 C 0.44166 0.47509 0.13405 0.0
C498 C 0.4146 0.41915 0.15216 0.0
C499 C 0.40039 0.43187 0.20705 0.0
C500 C 0.40715 0.46633 0.22556 0.0
C501 C 0.42793 0.48757 0.18892 0.0
C502 C 0.40827 0.38252 0.13071 0.0
C503 C 0.39214 0.4808 0.28356 0.0
C504 C 0.32211 0.37924 0.2478 0.0
C505 C 0.33615 0.35473 0.28725 0.0
C506 C 0.34206 0.4065 0.22561 0.0
C507 C 0.37713 0.40904 0.24248 0.0
C508 C 0.39086 0.38573 0.28553 0.0
C509 C 0.37007 0.35889 0.3078 0.0
C510 C 0.32622 0.431 0.18049 0.0
C511 C 0.42817 0.38744 0.30442 0.0
H512 H 0.4455 0.43072 0.07447 0.0
H513 H 0.43325 0.51389 0.20302 0.0
H514 H 0.41619 0.36408 0.1664 0.0
H515 H 0.3804 0.37849 0.12216 0.0
H516 H 0.42248 0.37622 0.08828 0.0
H517 H 0.40086 0.50764 0.2928 0.0
H518 H 0.36363 0.48056 0.28067 0.0
H519 H 0.39945 0.46443 0.32262 0.0
H520 H 0.29567 0.3765 0.23262 0.0
H521 H 0.38098 0.34009 0.33849 0.0
H522 H 0.33608 0.42503 0.13427 0.0
H523 H 0.33346 0.45803 0.19143 0.0
H524 H 0.2977 0.42897 0.17947 0.0
H525 H 0.44449 0.37803 0.26644 0.0
H526 H 0.43344 0.37137 0.34498 0.0
H527 H 0.43596 0.41442 0.31453 0.0
C528 C 0.37087 0.66881 0.70538 0.0
C529 C 0.33712 0.67332 0.72625 0.0
C530 C 0.3916 0.64213 0.72821 0.0
C531 C 0.37799 0.61932 0.77219 0.0
C532 C 0.3431 0.62225 0.78967 0.0
C533 C 0.32321 0.64934 0.76686 0.0
C534 C 0.42873 0.63999 0.70865 0.0
C535 C 0.3274 0.59831 0.83586 0.0
C536 C 0.4279 0.54051 0.82631 0.0
C537 C 0.44226 0.55312 0.88072 0.0
C538 C 0.40724 0.5618 0.78959 0.0
C539 C 0.40126 0.59647 0.80754 0.0
C540 C 0.41618 0.60935 0.86187 0.0
C541 C 0.43623 0.58755 0.89775 0.0
C542 C 0.39147 0.54717 0.73218 0.0
C543 C 0.41071 0.64619 0.88269 0.0
H544 H 0.38169 0.6872 0.6738 0.0
H545 H 0.2969 0.65231 0.78234 0.0
H546 H 0.44549 0.64945 0.74617 0.0
H547 H 0.43606 0.61289 0.69887 0.0
H548 H 0.43387 0.65578 0.66772 0.0
H549 H 0.29894 0.60069 0.83771 0.0
H550 H 0.33406 0.57111 0.82533 0.0
H551 H 0.33793 0.60448 0.88163 0.0
H552 H 0.43256 0.51401 0.81269 0.0
H553 H 0.44748 0.59781 0.93928 0.0
H554 H 0.39855 0.56331 0.69269 0.0
H555 H 0.363 0.54762 0.73579 0.0
H556 H 0.39978 0.52023 0.72313 0.0
H557 H 0.41856 0.66428 0.84641 0.0
H558 H 0.42547 0.65259 0.92462 0.0
H559 H 0.383 0.65063 0.89184 0.0
C560 C 0.19473 0.67334 0.62053 0.0
C561 C 0.18804 0.69276 0.67329 0.0
C562 C 0.16903 0.65314 0.59306 0.0
C563 C 0.13565 0.65263 0.61853 0.0
C564 C 0.12863 0.67225 0.67169 0.0
C565 C 0.15503 0.69192 0.69876 0.0
C566 C 0.1777 0.63209 0.53708 0.0
C567 C 0.09323 0.67249 0.69983 0.0
C568 C 0.06235 0.6208 0.51746 0.0
C569 C 0.05812 0.58697 0.53815 0.0
C570 C 0.08724 0.64273 0.54373 0.0
C571 C 0.1086 0.63026 0.59099 0.0
C572 C 0.10475 0.59596 0.61125 0.0
C573 C 0.07946 0.57485 0.58486 0.0
C574 C 0.09049 0.67929 0.52137 0.0
C575 C 0.12742 0.58149 0.66075 0.0
H576 H 0.22024 0.67377 0.60068 0.0
H577 H 0.14963 0.70713 0.73918 0.0
H578 H 0.1733 0.60431 0.54606 0.0
H579 H 0.16059 0.63936 0.49886 0.0
H580 H 0.20484 0.63564 0.52261 0.0
H581 H 0.09166 0.69007 0.73986 0.0
H582 H 0.07388 0.6806 0.66569 0.0
H583 H 0.08617 0.64608 0.71441 0.0
H584 H 0.04577 0.63034 0.48168 0.0
H585 H 0.07652 0.54863 0.60082 0.0
H586 H 0.11677 0.68375 0.50343 0.0
H587 H 0.08666 0.69765 0.55972 0.0
H588 H 0.07155 0.68521 0.48504 0.0
H589 H 0.15483 0.58313 0.64702 0.0
H590 H 0.12124 0.55416 0.67096 0.0
H591 H 0.12452 0.59695 0.70307 0.0
C592 C 0.1542 0.33492 0.30945 0.0
C593 C 0.18697 0.3337 0.33606 0.0
C594 C 0.12777 0.35458 0.33599 0.0
C595 C 0.13452 0.37381 0.38979 0.0
C596 C 0.16763 0.37284 0.41651 0.0
C597 C 0.19336 0.35266 0.38955 0.0
C598 C 0.09266 0.35482 0.3065 0.0
C599 C 0.17603 0.39346 0.47323 0.0
C600 C 0.07926 0.45211 0.42236 0.0
C601 C 0.05727 0.44006 0.4681 0.0
C602 C 0.10446 0.43081 0.39666 0.0
C603 C 0.10754 0.39638 0.41658 0.0
C604 C 0.0855 0.38396 0.46283 0.0
C605 C 0.06073 0.40609 0.48847 0.0
C606 C 0.12787 0.44524 0.34829 0.0
C607 C 0.08791 0.34726 0.48477 0.0
H608 H 0.14903 0.32008 0.26845 0.0
H609 H 0.21867 0.35194 0.4103 0.0
H610 H 0.07283 0.34686 0.33984 0.0
H611 H 0.08618 0.38134 0.29185 0.0
H612 H 0.09119 0.33735 0.2663 0.0
H613 H 0.20292 0.38946 0.48882 0.0
H614 H 0.17225 0.42134 0.46451 0.0
H615 H 0.15833 0.38624 0.51056 0.0
H616 H 0.0769 0.47844 0.40667 0.0
H617 H 0.04364 0.3966 0.52349 0.0
H618 H 0.12514 0.43 0.30563 0.0
H619 H 0.1551 0.4432 0.36306 0.0
H620 H 0.12224 0.47268 0.33823 0.0
H621 H 0.08417 0.32913 0.44601 0.0
H622 H 0.06849 0.34141 0.52025 0.0
H623 H 0.11391 0.3424 0.50369 0.0
loop_
_geom_bond_atom_site_label_1
_geom_bond_atom_site_label_2
_geom_bond_distance
_geom_bond_site_symmetry_2
_ccdc_geom_bond_type
C0 O2 1.247 . S
C0 O4 1.258 . S
C1 O8 1.247 . S
C1 O9 1.258 . S
O2 C0 1.247 . S
O2 Zn3 2.030 1_655 S
Zn3 O2 2.030 1_455 S
Zn3 O7 2.037 1_465 S
Zn3 O9 2.033 1_565 S
Zn3 O10 2.026 . S
O4 C0 1.258 . S
O4 Zn5 2.033 1_665 S
Zn5 O4 2.033 1_445 S
Zn5 O6 2.026 1_455 S
Zn5 O8 2.030 . S
Zn5 O11 2.037 1_545 S
O6 Zn5 2.026 1_655 S
O6 C12 1.247 . S
O7 Zn3 2.037 1_645 S
O7 C12 1.258 . S
O8 C1 1.247 . S
O8 Zn5 2.030 . S
O9 C1 1.258 . S
O9 Zn3 2.033 1_545 S
O10 Zn3 2.026 . S
O10 C13 1.247 . S
O11 Zn5 2.037 1_565 S
O11 C13 1.258 . S
C12 O6 1.247 . S
C12 O7 1.258 . S
C13 O10 1.247 . S
C13 O11 1.258 . S
C14 O16 1.247 . S
C14 O18 1.258 . S
C15 O22 1.247 . S
C15 O23 1.258 . S
O16 C14 1.247 . S
O16 Zn17 2.028 . S
Zn17 O16 2.028 . S
Zn17 O21 2.035 . S
Zn17 O23 2.035 . S
Zn17 O24 2.028 . S
O18 C14 1.258 . S
O18 Zn19 2.035 . S
Zn19 O18 2.035 . S
Zn19 O20 2.028 . S
Zn19 O22 2.028 . S
Zn19 O25 2.035 . S
O20 Zn19 2.028 . S
O20 C26 1.247 . S
O21 Zn17 2.035 . S
O21 C26 1.258 . S
O22 C15 1.247 . S
O22 Zn19 2.028 . S
O23 C15 1.258 . S
O23 Zn17 2.035 . S
O24 Zn17 2.028 . S
O24 C27 1.247 . S
O25 Zn19 2.035 . S
O25 C27 1.258 . S
C26 O20 1.247 . S
C26 O21 1.258 . S
C27 O24 1.247 . S
C27 O25 1.258 . S
C28 O30 1.247 . S
C28 O32 1.258 1_556 S
C29 O36 1.247 . S
C29 O37 1.258 1_554 S
O30 C28 1.247 . S
O30 Zn31 2.028 1_565 S
Zn31 O30 2.028 1_545 S
Zn31 O35 2.035 . S
Zn31 O37 2.035 . S
Zn31 O38 2.028 1_545 S
O32 C28 1.258 1_554 S
O32 Zn33 2.035 . S
Zn33 O32 2.035 . S
Zn33 O34 2.028 1_565 S
Zn33 O36 2.028 1_565 S
Zn33 O39 2.035 . S
O34 Zn33 2.028 1_545 S
O34 C40 1.247 . S
O35 Zn31 2.035 . S
O35 C40 1.258 1_556 S
O36 C29 1.247 . S
O36 Zn33 2.028 1_545 S
O37 C29 1.258 1_556 S
O37 Zn31 2.035 . S
O38 Zn31 2.028 1_565 S
O38 C41 1.247 . S
O39 Zn33 2.035 . S
O39 C41 1.258 1_554 S
C40 O34 1.247 . S
C40 O35 1.258 1_554 S
C41 O38 1.247 . S
C41 O39 1.258 1_556 S
C42 O44 1.247 . S
C42 O46 1.258 . S
C43 O50 1.247 . S
C43 O51 1.258 . S
O44 C42 1.247 . S
O44 Zn45 2.028 . S
Zn45 O44 2.028 . S
Zn45 O49 2.035 . S
Zn45 O51 2.035 . S
Zn45 O52 2.028 . S
O46 C42 1.258 . S
O46 Zn47 2.035 . S
Zn47 O46 2.035 . S
Zn47 O48 2.028 . S
Zn47 O50 2.028 . S
Zn47 O53 2.035 . S
O48 Zn47 2.028 . S
O48 C54 1.247 . S
O49 Zn45 2.035 . S
O49 C54 1.258 . S
O50 C43 1.247 . S
O50 Zn47 2.028 . S
O51 C43 1.258 . S
O51 Zn45 2.035 . S
O52 Zn45 2.028 . S
O52 C55 1.247 . S
O53 Zn47 2.035 . S
O53 C55 1.258 . S
C54 O48 1.247 . S
C54 O49 1.258 . S
C55 O52 1.247 . S
C55 O53 1.258 . S
C56 O58 1.247 . S
C56 O60 1.258 . S
C57 O64 1.247 . S
C57 O65 1.258 . S
O58 C56 1.247 . S
O58 Zn59 2.028 . S
Zn59 O58 2.028 . S
Zn59 O63 2.035 . S
Zn59 O65 2.035 . S
Zn59 O66 2.028 . S
O60 C56 1.258 . S
O60 Zn61 2.035 . S
Zn61 O60 2.035 . S
Zn61 O62 2.028 . S
Zn61 O64 2.028 . S
Zn61 O67 2.035 . S
O62 Zn61 2.028 . S
O62 C68 1.247 . S
O63 Zn59 2.035 . S
O63 C68 1.258 . S
O64 C57 1.247 . S
O64 Zn61 2.028 . S
O65 C57 1.258 . S
O65 Zn59 2.035 . S
O66 Zn59 2.028 . S
O66 C69 1.247 . S
O67 Zn61 2.035 . S
O67 C69 1.258 . S
C68 O62 1.247 . S
C68 O63 1.258 . S
C69 O66 1.247 . S
C69 O67 1.258 . S
C70 O72 1.247 . S
C70 O74 1.258 . S
C71 O78 1.247 . S
C71 O79 1.258 . S
O72 C70 1.247 . S
O72 Zn73 2.028 . S
Zn73 O72 2.028 . S
Zn73 O77 2.035 . S
Zn73 O79 2.035 . S
Zn73 O80 2.028 . S
O74 C70 1.258 . S
O74 Zn75 2.035 . S
Zn75 O74 2.035 . S
Zn75 O76 2.028 . S
Zn75 O78 2.028 . S
Zn75 O81 2.035 . S
O76 Zn75 2.028 . S
O76 C82 1.247 . S
O77 Zn73 2.035 . S
O77 C82 1.258 . S
O78 C71 1.247 . S
O78 Zn75 2.028 . S
O79 C71 1.258 . S
O79 Zn73 2.035 . S
O80 Zn73 2.028 . S
O80 C83 1.247 . S
O81 Zn75 2.035 . S
O81 C83 1.258 . S
C82 O76 1.247 . S
C82 O77 1.258 . S
C83 O80 1.247 . S
C83 O81 1.258 . S
C84 O86 1.247 1_556 S
C84 O88 1.258 . S
C85 O92 1.247 1_554 S
C85 O93 1.258 . S
O86 C84 1.247 1_554 S
O86 Zn87 2.028 . S
Zn87 O86 2.028 . S
Zn87 O91 2.035 . S
Zn87 O93 2.035 . S
Zn87 O94 2.028 . S
O88 C84 1.258 . S
O88 Zn89 2.035 . S
Zn89 O88 2.035 . S
Zn89 O90 2.028 . S
Zn89 O92 2.028 . S
Zn89 O95 2.035 . S
O90 Zn89 2.028 . S
O90 C96 1.247 1_556 S
O91 Zn87 2.035 . S
O91 C96 1.258 . S
O92 C85 1.247 1_556 S
O92 Zn89 2.028 . S
O93 C85 1.258 . S
O93 Zn87 2.035 . S
O94 Zn87 2.028 . S
O94 C97 1.247 1_554 S
O95 Zn89 2.035 . S
O95 C97 1.258 . S
C96 O90 1.247 1_554 S
C96 O91 1.258 . S
C97 O94 1.247 1_556 S
C97 O95 1.258 . S
C98 O100 1.247 . S
C98 O102 1.258 . S
C99 O106 1.247 . S
C99 O107 1.258 . S
O100 C98 1.247 . S
O100 Zn101 2.030 1_655 S
Zn101 O100 2.030 1_455 S
Zn101 O105 2.037 1_455 S
Zn101 O107 2.033 . S
Zn101 O108 2.026 . S
O102 C98 1.258 . S
O102 Zn103 2.033 1_655 S
Zn103 O102 2.033 1_455 S
Zn103 O104 2.026 1_455 S
Zn103 O106 2.030 . S
Zn103 O109 2.037 . S
O104 Zn103 2.026 1_655 S
O104 C110 1.247 . S
O105 Zn101 2.037 1_655 S
O105 C110 1.258 . S
O106 C99 1.247 . S
O106 Zn103 2.030 . S
O107 C99 1.258 . S
O107 Zn101 2.033 . S
O108 Zn101 2.026 . S
O108 C111 1.247 . S
O109 Zn103 2.037 . S
O109 C111 1.258 . S
C110 O104 1.247 . S
C110 O105 1.258 . S
C111 O108 1.247 . S
C111 O109 1.258 . S
C112 C113 1.391 . S
C112 C114 1.394 . S
C112 H128 0.931 . S
C113 C112 1.391 . S
C113 C117 1.376 . S
C114 C112 1.394 . S
C114 C115 1.369 . S
C114 C118 1.531 . S
C115 C114 1.369 . S
C115 C116 1.410 . S
C115 C123 1.503 . S
C116 C115 1.410 . S
C116 C117 1.392 . S
C116 C119 1.511 . S
C117 C113 1.376 . S
C117 C116 1.392 . S
C117 H129 0.929 . S
C118 C114 1.531 . S
C118 H130 0.960 . S
C118 H131 0.962 . S
C118 H132 0.960 . S
C119 C116 1.511 . S
C119 H133 0.961 . S
C119 H134 0.961 . S
C119 H135 0.961 . S
C120 C121 1.370 . S
C120 C122 1.363 . S
C120 H136 0.931 . S
C121 C120 1.370 . S
C121 C125 1.408 . S
C122 C120 1.363 . S
C122 C123 1.370 . S
C122 C126 1.524 . S
C123 C115 1.503 . S
C123 C122 1.370 . S
C123 C124 1.403 . S
C124 C123 1.403 . S
C124 C125 1.404 . S
C124 C127 1.539 . S
C125 C121 1.408 . S
C125 C124 1.404 . S
C125 H137 0.930 . S
C126 C122 1.524 . S
C126 H138 0.956 . S
C126 H139 0.961 . S
C126 H140 0.961 . S
C127 C124 1.539 . S
C127 H141 0.958 . S
C127 H142 0.961 . S
C127 H143 0.960 . S
H128 C112 0.931 . S
H129 C117 0.929 . S
H130 C118 0.960 . S
H131 C118 0.962 . S
H132 C118 0.960 . S
H133 C119 0.961 . S
H134 C119 0.961 . S
H135 C119 0.961 . S
H136 C120 0.931 . S
H137 C125 0.930 . S
H138 C126 0.956 . S
H139 C126 0.961 . S
H140 C126 0.961 . S
H141 C127 0.958 . S
H142 C127 0.961 . S
H143 C127 0.960 . S
C144 C145 1.391 . S
C144 C146 1.394 . S
C144 H160 0.931 . S
C145 C144 1.391 . S
C145 C149 1.376 . S
C146 C144 1.394 . S
C146 C147 1.369 . S
C146 C150 1.531 . S
C147 C146 1.369 . S
C147 C148 1.410 . S
C147 C155 1.503 . S
C148 C147 1.410 . S
C148 C149 1.392 . S
C148 C151 1.511 . S
C149 C145 1.376 . S
C149 C148 1.392 . S
C149 H161 0.929 . S
C150 C146 1.531 . S
C150 H162 0.960 . S
C150 H163 0.962 . S
C150 H164 0.960 . S
C151 C148 1.511 . S
C151 H165 0.961 . S
C151 H166 0.961 . S
C151 H167 0.961 . S
C152 C153 1.370 . S
C152 C154 1.363 . S
C152 H168 0.931 . S
C153 C152 1.370 . S
C153 C157 1.408 . S
C154 C152 1.363 . S
C154 C155 1.370 . S
C154 C158 1.524 . S
C155 C147 1.503 . S
C155 C154 1.370 . S
C155 C156 1.403 . S
C156 C155 1.403 . S
C156 C157 1.404 . S
C156 C159 1.539 . S
C157 C153 1.408 . S
C157 C156 1.404 . S
C157 H169 0.930 . S
C158 C154 1.524 . S
C158 H170 0.956 . S
C158 H171 0.961 . S
C158 H172 0.961 . S
C159 C156 1.539 . S
C159 H173 0.958 . S
C159 H174 0.961 . S
C159 H175 0.960 . S
H160 C144 0.931 . S
H161 C149 0.929 . S
H162 C150 0.960 . S
H163 C150 0.962 . S
H164 C150 0.960 . S
H165 C151 0.961 . S
H166 C151 0.961 . S
H167 C151 0.961 . S
H168 C152 0.931 . S
H169 C157 0.930 . S
H170 C158 0.956 . S
H171 C158 0.961 . S
H172 C158 0.961 . S
H173 C159 0.958 . S
H174 C159 0.961 . S
H175 C159 0.960 . S
C176 C177 1.391 . S
C176 C178 1.394 . S
C176 H192 0.931 . S
C177 C176 1.391 . S
C177 C181 1.376 . S
C178 C176 1.394 . S
C178 C179 1.369 . S
C178 C182 1.531 . S
C179 C178 1.369 . S
C179 C180 1.410 . S
C179 C187 1.503 . S
C180 C179 1.410 . S
C180 C181 1.392 . S
C180 C183 1.511 . S
C181 C177 1.376 . S
C181 C180 1.392 . S
C181 H193 0.929 . S
C182 C178 1.531 . S
C182 H194 0.960 . S
C182 H195 0.962 . S
C182 H196 0.960 1_556 S
C183 C180 1.511 . S
C183 H197 0.961 . S
C183 H198 0.961 . S
C183 H199 0.961 . S
C184 C185 1.370 . S
C184 C186 1.363 . S
C184 H200 0.931 . S
C185 C184 1.370 . S
C185 C189 1.408 . S
C186 C184 1.363 . S
C186 C187 1.370 . S
C186 C190 1.524 . S
C187 C179 1.503 . S
C187 C186 1.370 . S
C187 C188 1.403 . S
C188 C187 1.403 . S
C188 C189 1.404 . S
C188 C191 1.539 . S
C189 C185 1.408 . S
C189 C188 1.404 . S
C189 H201 0.930 . S
C190 C186 1.524 . S
C190 H202 0.956 . S
C190 H203 0.961 . S
C190 H204 0.961 . S
C191 C188 1.539 . S
C191 H205 0.958 . S
C191 H206 0.961 . S
C191 H207 0.960 . S
H192 C176 0.931 . S
H193 C181 0.929 . S
H194 C182 0.960 . S
H195 C182 0.962 . S
H196 C182 0.960 1_554 S
H197 C183 0.961 . S
H198 C183 0.961 . S
H199 C183 0.961 . S
H200 C184 0.931 . S
H201 C189 0.930 . S
H202 C190 0.956 . S
H203 C190 0.961 . S
H204 C190 0.961 . S
H205 C191 0.958 . S
H206 C191 0.961 . S
H207 C191 0.960 . S
C208 C209 1.391 . S
C208 C210 1.394 . S
C208 H224 0.931 . S
C209 C208 1.391 . S
C209 C213 1.376 . S
C210 C208 1.394 . S
C210 C211 1.369 . S
C210 C214 1.531 . S
C211 C210 1.369 . S
C211 C212 1.410 . S
C211 C219 1.503 . S
C212 C211 1.410 . S
C212 C213 1.392 . S
C212 C215 1.511 . S
C213 C209 1.376 . S
C213 C212 1.392 . S
C213 H225 0.929 . S
C214 C210 1.531 . S
C214 H226 0.960 . S
C214 H227 0.962 . S
C214 H228 0.960 . S
C215 C212 1.511 . S
C215 H229 0.961 . S
C215 H230 0.961 . S
C215 H231 0.961 . S
C216 C217 1.370 . S
C216 C218 1.363 . S
C216 H232 0.931 . S
C217 C216 1.370 . S
C217 C221 1.408 . S
C218 C216 1.363 . S
C218 C219 1.370 . S
C218 C222 1.524 . S
C219 C211 1.503 . S
C219 C218 1.370 . S
C219 C220 1.403 . S
C220 C219 1.403 . S
C220 C221 1.404 . S
C220 C223 1.539 . S
C221 C217 1.408 . S
C221 C220 1.404 . S
C221 H233 0.930 . S
C222 C218 1.524 . S
C222 H234 0.956 . S
C222 H235 0.961 . S
C222 H236 0.961 . S
C223 C220 1.539 . S
C223 H237 0.958 . S
C223 H238 0.961 . S
C223 H239 0.960 . S
H224 C208 0.931 . S
H225 C213 0.929 . S
H226 C214 0.960 . S
H227 C214 0.962 . S
H228 C214 0.960 . S
H229 C215 0.961 . S
H230 C215 0.961 . S
H231 C215 0.961 . S
H232 C216 0.931 . S
H233 C221 0.930 . S
H234 C222 0.956 . S
H235 C222 0.961 . S
H236 C222 0.961 . S
H237 C223 0.958 . S
H238 C223 0.961 . S
H239 C223 0.960 . S
C240 C241 1.391 . S
C240 C242 1.394 . S
C240 H256 0.931 . S
C241 C240 1.391 . S
C241 C245 1.376 . S
C242 C240 1.394 . S
C242 C243 1.369 . S
C242 C246 1.531 . S
C243 C242 1.369 . S
C243 C244 1.410 . S
C243 C251 1.503 . S
C244 C243 1.410 . S
C244 C245 1.392 . S
C244 C247 1.511 . S
C245 C241 1.376 . S
C245 C244 1.392 . S
C245 H257 0.929 . S
C246 C242 1.531 . S
C246 H258 0.960 . S
C246 H259 0.962 . S
C246 H260 0.960 . S
C247 C244 1.511 . S
C247 H261 0.961 . S
C247 H262 0.961 . S
C247 H263 0.961 . S
C248 C249 1.370 . S
C248 C250 1.363 . S
C248 H264 0.931 . S
C249 C248 1.370 . S
C249 C253 1.408 . S
C250 C248 1.363 . S
C250 C251 1.370 . S
C250 C254 1.524 . S
C251 C243 1.503 . S
C251 C250 1.370 . S
C251 C252 1.403 . S
C252 C251 1.403 . S
C252 C253 1.404 . S
C252 C255 1.539 . S
C253 C249 1.408 . S
C253 C252 1.404 . S
C253 H265 0.930 . S
C254 C250 1.524 . S
C254 H266 0.956 . S
C254 H267 0.961 . S
C254 H268 0.961 . S
C255 C252 1.539 . S
C255 H269 0.958 . S
C255 H270 0.961 . S
C255 H271 0.960 . S
H256 C240 0.931 . S
H257 C245 0.929 . S
H258 C246 0.960 . S
H259 C246 0.962 . S
H260 C246 0.960 . S
H261 C247 0.961 . S
H262 C247 0.961 . S
H263 C247 0.961 . S
H264 C248 0.931 . S
H265 C253 0.930 . S
H266 C254 0.956 . S
H267 C254 0.961 . S
H268 C254 0.961 . S
H269 C255 0.958 . S
H270 C255 0.961 . S
H271 C255 0.960 . S
C272 C273 1.391 . S
C272 C274 1.394 . S
C272 H288 0.931 . S
C273 C272 1.391 . S
C273 C277 1.376 . S
C274 C272 1.394 . S
C274 C275 1.369 . S
C274 C278 1.531 . S
C275 C274 1.369 . S
C275 C276 1.410 . S
C275 C283 1.503 . S
C276 C275 1.410 . S
C276 C277 1.392 . S
C276 C279 1.511 . S
C277 C273 1.376 . S
C277 C276 1.392 . S
C277 H289 0.929 . S
C278 C274 1.531 . S
C278 H290 0.960 . S
C278 H291 0.962 . S
C278 H292 0.960 . S
C279 C276 1.511 . S
C279 H293 0.961 . S
C279 H294 0.961 . S
C279 H295 0.961 . S
C280 C281 1.370 . S
C280 C282 1.363 . S
C280 H296 0.931 . S
C281 C280 1.370 . S
C281 C285 1.408 . S
C282 C280 1.363 . S
C282 C283 1.370 . S
C282 C286 1.524 . S
C283 C275 1.503 . S
C283 C282 1.370 . S
C283 C284 1.403 . S
C284 C283 1.403 . S
C284 C285 1.404 . S
C284 C287 1.539 . S
C285 C281 1.408 . S
C285 C284 1.404 . S
C285 H297 0.930 . S
C286 C282 1.524 . S
C286 H298 0.956 . S
C286 H299 0.961 . S
C286 H300 0.961 . S
C287 C284 1.539 . S
C287 H301 0.958 . S
C287 H302 0.961 . S
C287 H303 0.960 . S
H288 C272 0.931 . S
H289 C277 0.929 . S
H290 C278 0.960 . S
H291 C278 0.962 . S
H292 C278 0.960 . S
H293 C279 0.961 . S
H294 C279 0.961 . S
H295 C279 0.961 . S
H296 C280 0.931 . S
H297 C285 0.930 . S
H298 C286 0.956 . S
H299 C286 0.961 . S
H300 C286 0.961 . S
H301 C287 0.958 . S
H302 C287 0.961 . S
H303 C287 0.960 . S
C304 C305 1.391 . S
C304 C306 1.394 . S
C304 H320 0.931 . S
C305 C304 1.391 . S
C305 C309 1.376 . S
C306 C304 1.394 . S
C306 C307 1.369 . S
C306 C310 1.531 . S
C307 C306 1.369 . S
C307 C308 1.410 . S
C307 C315 1.503 . S
C308 C307 1.410 . S
C308 C309 1.392 . S
C308 C311 1.511 . S
C309 C305 1.376 . S
C309 C308 1.392 . S
C309 H321 0.929 . S
C310 C306 1.531 . S
C310 H322 0.960 . S
C310 H323 0.962 . S
C310 H324 0.960 . S
C311 C308 1.511 . S
C311 H325 0.961 . S
C311 H326 0.961 . S
C311 H327 0.961 . S
C312 C313 1.370 . S
C312 C314 1.363 . S
C312 H328 0.931 . S
C313 C312 1.370 . S
C313 C317 1.408 . S
C314 C312 1.363 . S
C314 C315 1.370 . S
C314 C318 1.524 . S
C315 C307 1.503 . S
C315 C314 1.370 . S
C315 C316 1.403 . S
C316 C315 1.403 . S
C316 C317 1.404 . S
C316 C319 1.539 . S
C317 C313 1.408 . S
C317 C316 1.404 . S
C317 H329 0.930 . S
C318 C314 1.524 . S
C318 H330 0.956 . S
C318 H331 0.961 . S
C318 H332 0.961 . S
C319 C316 1.539 . S
C319 H333 0.958 . S
C319 H334 0.961 . S
C319 H335 0.960 . S
H320 C304 0.931 . S
H321 C309 0.929 . S
H322 C310 0.960 . S
H323 C310 0.962 . S
H324 C310 0.960 . S
H325 C311 0.961 . S
H326 C311 0.961 . S
H327 C311 0.961 . S
H328 C312 0.931 . S
H329 C317 0.930 . S
H330 C318 0.956 . S
H331 C318 0.961 . S
H332 C318 0.961 . S
H333 C319 0.958 . S
H334 C319 0.961 . S
H335 C319 0.960 . S
C336 C337 1.391 . S
C336 C338 1.394 . S
C336 H352 0.931 . S
C337 C336 1.391 . S
C337 C341 1.376 . S
C338 C336 1.394 . S
C338 C339 1.369 . S
C338 C342 1.531 . S
C339 C338 1.369 . S
C339 C340 1.410 . S
C339 C347 1.503 . S
C340 C339 1.410 . S
C340 C341 1.392 . S
C340 C343 1.511 . S
C341 C337 1.376 . S
C341 C340 1.392 . S
C341 H353 0.929 . S
C342 C338 1.531 . S
C342 H354 0.960 . S
C342 H355 0.962 . S
C342 H356 0.960 . S
C343 C340 1.511 . S
C343 H357 0.961 . S
C343 H358 0.961 . S
C343 H359 0.961 . S
C344 C345 1.370 . S
C344 C346 1.363 . S
C344 H360 0.931 . S
C345 C344 1.370 . S
C345 C349 1.408 . S
C346 C344 1.363 . S
C346 C347 1.370 . S
C346 C350 1.524 . S
C347 C339 1.503 . S
C347 C346 1.370 . S
C347 C348 1.403 . S
C348 C347 1.403 . S
C348 C349 1.404 . S
C348 C351 1.539 . S
C349 C345 1.408 . S
C349 C348 1.404 . S
C349 H361 0.930 . S
C350 C346 1.524 . S
C350 H362 0.956 . S
C350 H363 0.961 . S
C350 H364 0.961 . S
C351 C348 1.539 . S
C351 H365 0.958 . S
C351 H366 0.961 . S
C351 H367 0.960 . S
H352 C336 0.931 . S
H353 C341 0.929 . S
H354 C342 0.960 . S
H355 C342 0.962 . S
H356 C342 0.960 . S
H357 C343 0.961 . S
H358 C343 0.961 . S
H359 C343 0.961 . S
H360 C344 0.931 . S
H361 C349 0.930 . S
H362 C350 0.956 . S
H363 C350 0.961 . S
H364 C350 0.961 . S
H365 C351 0.958 . S
H366 C351 0.961 . S
H367 C351 0.960 . S
C368 C369 1.391 . S
C368 C370 1.394 . S
C368 H384 0.931 . S
C369 C368 1.391 . S
C369 C373 1.376 . S
C370 C368 1.394 . S
C370 C371 1.369 . S
C370 C374 1.531 . S
C371 C370 1.369 . S
C371 C372 1.410 . S
C371 C379 1.503 . S
C372 C371 1.410 . S
C372 C373 1.392 . S
C372 C375 1.511 . S
C373 C369 1.376 . S
C373 C372 1.392 . S
C373 H385 0.929 . S
C374 C370 1.531 . S
C374 H386 0.960 . S
C374 H387 0.962 . S
C374 H388 0.960 . S
C375 C372 1.511 . S
C375 H389 0.961 . S
C375 H390 0.961 . S
C375 H391 0.961 . S
C376 C377 1.370 . S
C376 C378 1.363 . S
C376 H392 0.931 . S
C377 C376 1.370 . S
C377 C381 1.408 . S
C378 C376 1.363 . S
C378 C379 1.370 . S
C378 C382 1.524 . S
C379 C371 1.503 . S
C379 C378 1.370 . S
C379 C380 1.403 . S
C380 C379 1.403 . S
C380 C381 1.404 . S
C380 C383 1.539 . S
C381 C377 1.408 . S
C381 C380 1.404 . S
C381 H393 0.930 . S
C382 C378 1.524 . S
C382 H394 0.956 . S
C382 H395 0.961 . S
C382 H396 0.961 . S
C383 C380 1.539 . S
C383 H397 0.958 . S
C383 H398 0.961 . S
C383 H399 0.960 . S
H384 C368 0.931 . S
H385 C373 0.929 . S
H386 C374 0.960 . S
H387 C374 0.962 . S
H388 C374 0.960 . S
H389 C375 0.961 . S
H390 C375 0.961 . S
H391 C375 0.961 . S
H392 C376 0.931 . S
H393 C381 0.930 . S
H394 C382 0.956 . S
H395 C382 0.961 . S
H396 C382 0.961 . S
H397 C383 0.958 . S
H398 C383 0.961 . S
H399 C383 0.960 . S
C400 C401 1.391 . S
C400 C402 1.394 . S
C400 H416 0.931 . S
C401 C400 1.391 . S
C401 C405 1.376 . S
C402 C400 1.394 . S
C402 C403 1.369 . S
C402 C406 1.531 . S
C403 C402 1.369 . S
C403 C404 1.410 . S
C403 C411 1.503 . S
C404 C403 1.410 . S
C404 C405 1.392 . S
C404 C407 1.511 . S
C405 C401 1.376 . S
C405 C404 1.392 . S
C405 H417 0.929 . S
C406 C402 1.531 . S
C406 H418 0.960 . S
C406 H419 0.962 . S
C406 H420 0.960 . S
C407 C404 1.511 . S
C407 H421 0.961 . S
C407 H422 0.961 . S
C407 H423 0.961 . S
C408 C409 1.370 . S
C408 C410 1.363 . S
C408 H424 0.931 . S
C409 C408 1.370 . S
C409 C413 1.408 . S
C410 C408 1.363 . S
C410 C411 1.370 . S
C410 C414 1.524 . S
C411 C403 1.503 . S
C411 C410 1.370 . S
C411 C412 1.403 . S
C412 C411 1.403 . S
C412 C413 1.404 . S
C412 C415 1.539 . S
C413 C409 1.408 . S
C413 C412 1.404 . S
C413 H425 0.930 . S
C414 C410 1.524 . S
C414 H426 0.956 . S
C414 H427 0.961 . S
C414 H428 0.961 . S
C415 C412 1.539 . S
C415 H429 0.958 . S
C415 H430 0.961 . S
C415 H431 0.960 . S
H416 C400 0.931 . S
H417 C405 0.929 . S
H418 C406 0.960 . S
H419 C406 0.962 . S
H420 C406 0.960 . S
H421 C407 0.961 . S
H422 C407 0.961 . S
H423 C407 0.961 . S
H424 C408 0.931 . S
H425 C413 0.930 . S
H426 C414 0.956 . S
H427 C414 0.961 . S
H428 C414 0.961 . S
H429 C415 0.958 . S
H430 C415 0.961 . S
H431 C415 0.960 . S
C432 C433 1.391 . S
C432 C434 1.394 . S
C432 H448 0.931 . S
C433 C432 1.391 . S
C433 C437 1.376 . S
C434 C432 1.394 . S
C434 C435 1.369 . S
C434 C438 1.531 . S
C435 C434 1.369 . S
C435 C436 1.410 . S
C435 C443 1.503 . S
C436 C435 1.410 . S
C436 C437 1.392 . S
C436 C439 1.511 . S
C437 C433 1.376 . S
C437 C436 1.392 . S
C437 H449 0.929 . S
C438 C434 1.531 . S
C438 H450 0.960 . S
C438 H451 0.962 . S
C438 H452 0.960 . S
C439 C436 1.511 . S
C439 H453 0.961 . S
C439 H454 0.961 . S
C439 H455 0.961 . S
C440 C441 1.370 . S
C440 C442 1.363 . S
C440 H456 0.931 . S
C441 C440 1.370 . S
C441 C445 1.408 . S
C442 C440 1.363 . S
C442 C443 1.370 . S
C442 C446 1.524 . S
C443 C435 1.503 . S
C443 C442 1.370 . S
C443 C444 1.403 . S
C444 C443 1.403 . S
C444 C445 1.404 . S
C444 C447 1.539 . S
C445 C441 1.408 . S
C445 C444 1.404 . S
C445 H457 0.930 . S
C446 C442 1.524 . S
C446 H458 0.956 . S
C446 H459 0.961 . S
C446 H460 0.961 . S
C447 C444 1.539 . S
C447 H461 0.958 . S
C447 H462 0.961 . S
C447 H463 0.960 . S
H448 C432 0.931 . S
H449 C437 0.929 . S
H450 C438 0.960 . S
H451 C438 0.962 . S
H452 C438 0.960 . S
H453 C439 0.961 . S
H454 C439 0.961 . S
H455 C439 0.961 . S
H456 C440 0.931 . S
H457 C445 0.930 . S
H458 C446 0.956 . S
H459 C446 0.961 . S
H460 C446 0.961 . S
H461 C447 0.958 . S
H462 C447 0.961 . S
H463 C447 0.960 . S
C464 C465 1.391 . S
C464 C466 1.394 . S
C464 H480 0.931 . S
C465 C464 1.391 . S
C465 C469 1.376 . S
C466 C464 1.394 . S
C466 C467 1.369 . S
C466 C470 1.531 . S
C467 C466 1.369 . S
C467 C468 1.410 . S
C467 C475 1.503 . S
C468 C467 1.410 . S
C468 C469 1.392 . S
C468 C471 1.511 . S
C469 C465 1.376 . S
C469 C468 1.392 . S
C469 H481 0.929 . S
C470 C466 1.531 . S
C470 H482 0.960 . S
C470 H483 0.962 . S
C470 H484 0.960 . S
C471 C468 1.511 . S
C471 H485 0.961 . S
C471 H486 0.961 . S
C471 H487 0.961 . S
C472 C473 1.370 . S
C472 C474 1.363 . S
C472 H488 0.931 . S
C473 C472 1.370 . S
C473 C477 1.408 . S
C474 C472 1.363 . S
C474 C475 1.370 . S
C474 C478 1.524 . S
C475 C467 1.503 . S
C475 C474 1.370 . S
C475 C476 1.403 . S
C476 C475 1.403 . S
C476 C477 1.404 . S
C476 C479 1.539 . S
C477 C473 1.408 . S
C477 C476 1.404 . S
C477 H489 0.930 . S
C478 C474 1.524 . S
C478 H490 0.956 . S
C478 H491 0.961 . S
C478 H492 0.961 . S
C479 C476 1.539 . S
C479 H493 0.958 . S
C479 H494 0.961 . S
C479 H495 0.960 . S
H480 C464 0.931 . S
H481 C469 0.929 . S
H482 C470 0.960 . S
H483 C470 0.962 . S
H484 C470 0.960 . S
H485 C471 0.961 . S
H486 C471 0.961 . S
H487 C471 0.961 . S
H488 C472 0.931 . S
H489 C477 0.930 . S
H490 C478 0.956 . S
H491 C478 0.961 . S
H492 C478 0.961 . S
H493 C479 0.958 . S
H494 C479 0.961 . S
H495 C479 0.960 . S
C496 C497 1.391 . S
C496 C498 1.394 . S
C496 H512 0.931 . S
C497 C496 1.391 . S
C497 C501 1.376 . S
C498 C496 1.394 . S
C498 C499 1.369 . S
C498 C502 1.531 . S
C499 C498 1.369 . S
C499 C500 1.410 . S
C499 C507 1.503 . S
C500 C499 1.410 . S
C500 C501 1.392 . S
C500 C503 1.511 . S
C501 C497 1.376 . S
C501 C500 1.392 . S
C501 H513 0.929 . S
C502 C498 1.531 . S
C502 H514 0.960 . S
C502 H515 0.962 . S
C502 H516 0.960 . S
C503 C500 1.511 . S
C503 H517 0.961 . S
C503 H518 0.961 . S
C503 H519 0.961 . S
C504 C505 1.370 . S
C504 C506 1.363 . S
C504 H520 0.931 . S
C505 C504 1.370 . S
C505 C509 1.408 . S
C506 C504 1.363 . S
C506 C507 1.370 . S
C506 C510 1.524 . S
C507 C499 1.503 . S
C507 C506 1.370 . S
C507 C508 1.403 . S
C508 C507 1.403 . S
C508 C509 1.404 . S
C508 C511 1.539 . S
C509 C505 1.408 . S
C509 C508 1.404 . S
C509 H521 0.930 . S
C510 C506 1.524 . S
C510 H522 0.956 . S
C510 H523 0.961 . S
C510 H524 0.961 . S
C511 C508 1.539 . S
C511 H525 0.958 . S
C511 H526 0.961 . S
C511 H527 0.960 . S
H512 C496 0.931 . S
H513 C501 0.929 . S
H514 C502 0.960 . S
H515 C502 0.962 . S
H516 C502 0.960 . S
H517 C503 0.961 . S
H518 C503 0.961 . S
H519 C503 0.961 . S
H520 C504 0.931 . S
H521 C509 0.930 . S
H522 C510 0.956 . S
H523 C510 0.961 . S
H524 C510 0.961 . S
H525 C511 0.958 . S
H526 C511 0.961 . S
H527 C511 0.960 . S
C528 C529 1.391 . S
C528 C530 1.394 . S
C528 H544 0.931 . S
C529 C528 1.391 . S
C529 C533 1.376 . S
C530 C528 1.394 . S
C530 C531 1.369 . S
C530 C534 1.531 . S
C531 C530 1.369 . S
C531 C532 1.410 . S
C531 C539 1.503 . S
C532 C531 1.410 . S
C532 C533 1.392 . S
C532 C535 1.511 . S
C533 C529 1.376 . S
C533 C532 1.392 . S
C533 H545 0.929 . S
C534 C530 1.531 . S
C534 H546 0.960 . S
C534 H547 0.962 . S
C534 H548 0.960 . S
C535 C532 1.511 . S
C535 H549 0.961 . S
C535 H550 0.961 . S
C535 H551 0.961 . S
C536 C537 1.370 . S
C536 C538 1.363 . S
C536 H552 0.931 . S
C537 C536 1.370 . S
C537 C541 1.408 . S
C538 C536 1.363 . S
C538 C539 1.370 . S
C538 C542 1.524 . S
C539 C531 1.503 . S
C539 C538 1.370 . S
C539 C540 1.403 . S
C540 C539 1.403 . S
C540 C541 1.404 . S
C540 C543 1.539 . S
C541 C537 1.408 . S
C541 C540 1.404 . S
C541 H553 0.930 . S
C542 C538 1.524 . S
C542 H554 0.956 . S
C542 H555 0.961 . S
C542 H556 0.961 . S
C543 C540 1.539 . S
C543 H557 0.958 . S
C543 H558 0.961 . S
C543 H559 0.960 . S
H544 C528 0.931 . S
H545 C533 0.929 . S
H546 C534 0.960 . S
H547 C534 0.962 . S
H548 C534 0.960 . S
H549 C535 0.961 . S
H550 C535 0.961 . S
H551 C535 0.961 . S
H552 C536 0.931 . S
H553 C541 0.930 . S
H554 C542 0.956 . S
H555 C542 0.961 . S
H556 C542 0.961 . S
H557 C543 0.958 . S
H558 C543 0.961 . S
H559 C543 0.960 . S
C560 C561 1.391 . S
C560 C562 1.394 . S
C560 H576 0.931 . S
C561 C560 1.391 . S
C561 C565 1.376 . S
C562 C560 1.394 . S
C562 C563 1.369 . S
C562 C566 1.531 . S
C563 C562 1.369 . S
C563 C564 1.410 . S
C563 C571 1.503 . S
C564 C563 1.410 . S
C564 C565 1.392 . S
C564 C567 1.511 . S
C565 C561 1.376 . S
C565 C564 1.392 . S
C565 H577 0.929 . S
C566 C562 1.531 . S
C566 H578 0.960 . S
C566 H579 0.962 . S
C566 H580 0.960 . S
C567 C564 1.511 . S
C567 H581 0.961 . S
C567 H582 0.961 . S
C567 H583 0.961 . S
C568 C569 1.370 . S
C568 C570 1.363 . S
C568 H584 0.931 . S
C569 C568 1.370 . S
C569 C573 1.408 . S
C570 C568 1.363 . S
C570 C571 1.370 . S
C570 C574 1.524 . S
C571 C563 1.503 . S
C571 C570 1.370 . S
C571 C572 1.403 . S
C572 C571 1.403 . S
C572 C573 1.404 . S
C572 C575 1.539 . S
C573 C569 1.408 . S
C573 C572 1.404 . S
C573 H585 0.930 . S
C574 C570 1.524 . S
C574 H586 0.956 . S
C574 H587 0.961 . S
C574 H588 0.961 . S
C575 C572 1.539 . S
C575 H589 0.958 . S
C575 H590 0.961 . S
C575 H591 0.960 . S
H576 C560 0.931 . S
H577 C565 0.929 . S
H578 C566 0.960 . S
H579 C566 0.962 . S
H580 C566 0.960 . S
H581 C567 0.961 . S
H582 C567 0.961 . S
H583 C567 0.961 . S
H584 C568 0.931 . S
H585 C573 0.930 . S
H586 C574 0.956 . S
H587 C574 0.961 . S
H588 C574 0.961 . S
H589 C575 0.958 . S
H590 C575 0.961 . S
H591 C575 0.960 . S
C592 C593 1.391 . S
C592 C594 1.394 . S
C592 H608 0.931 . S
C593 C592 1.391 . S
C593 C597 1.376 . S
C594 C592 1.394 . S
C594 C595 1.369 . S
C594 C598 1.531 . S
C595 C594 1.369 . S
C595 C596 1.410 . S
C595 C603 1.503 . S
C596 C595 1.410 . S
C596 C597 1.392 . S
C596 C599 1.511 . S
C597 C593 1.376 . S
C597 C596 1.392 . S
C597 H609 0.929 . S
C598 C594 1.531 . S
C598 H610 0.960 . S
C598 H611 0.962 . S
C598 H612 0.960 . S
C599 C596 1.511 . S
C599 H613 0.961 . S
C599 H614 0.961 . S
C599 H615 0.961 . S
C600 C601 1.370 . S
C600 C602 1.363 . S
C600 H616 0.931 . S
C601 C600 1.370 . S
C601 C605 1.408 . S
C602 C600 1.363 . S
C602 C603 1.370 . S
C602 C606 1.524 . S
C603 C595 1.503 . S
C603 C602 1.370 . S
C603 C604 1.403 . S
C604 C603 1.403 . S
C604 C605 1.404 . S
C604 C607 1.539 . S
C605 C601 1.408 . S
C605 C604 1.404 . S
C605 H617 0.930 . S
C606 C602 1.524 . S
C606 H618 0.956 . S
C606 H619 0.961 . S
C606 H620 0.961 . S
C607 C604 1.539 . S
C607 H621 0.958 . S
C607 H622 0.961 . S
C607 H623 0.960 . S
H608 C592 0.931 . S
H609 C597 0.929 . S
H610 C598 0.960 . S
H611 C598 0.962 . S
H612 C598 0.960 . S
H613 C599 0.961 . S
H614 C599 0.961 . S
H615 C599 0.961 . S
H616 C600 0.931 . S
H617 C605 0.930 . S
H618 C606 0.956 . S
H619 C606 0.961 . S
H620 C606 0.961 . S
H621 C607 0.958 . S
H622 C607 0.961 . S
H623 C607 0.960 . S
C113 C1 1.489 . S
C121 C54 1.492 . S
C145 C13 1.490 . S
C153 C14 1.497 . S
C177 C28 1.489 . S
C185 C26 1.500 . S
C209 C42 1.488 . S
C217 C40 1.492 . S
C241 C0 1.499 . S
C249 C83 1.504 . S
C273 C12 1.494 . S
C281 C57 1.496 . S
C305 C69 1.496 . S
C313 C29 1.496 . S
C337 C41 1.490 . S
C345 C71 1.501 . S
C369 C97 1.496 . S
C377 C82 1.498 . S
C401 C56 1.489 . S
C409 C85 1.495 . S
C433 C68 1.495 . S
C441 C98 1.502 . S
C465 C70 1.488 . S
C473 C110 1.498 . S
C497 C96 1.494 . S
C505 C55 1.495 . S
C529 C15 1.499 . S
C537 C84 1.500 . S
C561 C27 1.489 . S
C569 C99 1.494 . S
C593 C43 1.497 . S
C601 C111 1.497 . S
