# Generated by pormake.
# Topology unc, (4)-cn, num edge types: 1
# Building blocks:
#     Node 0, Type 0, BuildingBlock: TATPOV_clean_sbu_0, # of connection points: 4
#     Node 1, Type 0, BuildingBlock: TATPOV_clean_sbu_0, # of connection points: 4
#     Node 2, Type 0, BuildingBlock: TATPOV_clean_sbu_0, # of connection points: 4
#     Node 3, Type 0, BuildingBlock: TATPOV_clean_sbu_0, # of connection points: 4
#     Edge 4, Type (0, 0), BuildingBlock: MIFKUJ_clean_linker_0, # of connection points: 2
#     Edge 5, Type (0, 0), BuildingBlock: MIFKUJ_clean_linker_0, # of connection points: 2
#     Edge 6, Type (0, 0), BuildingBlock: MIFKUJ_clean_linker_0, # of connection points: 2
#     Edge 7, Type (0, 0), BuildingBlock: MIFKUJ_clean_linker_0, # of connection points: 2
#     Edge 8, Type (0, 0), BuildingBlock: MIFKUJ_clean_linker_0, # of connection points: 2
#     Edge 9, Type (0, 0), BuildingBlock: MIFKUJ_clean_linker_0, # of connection points: 2
#     Edge 10, Type (0, 0), BuildingBlock: MIFKUJ_clean_linker_0, # of connection points: 2
#     Edge 11, Type (0, 0), BuildingBlock: MIFKUJ_clean_linker_0, # of connection points: 2
# Relax obj value: 0.101
# Max RMSD: 0.163
# Mean RMSD: 0.163
data_MOF--net-unc--node1-TATPOV_clean_sbu_0--edge1-MIFKUJ_clean_linker_0
_symmetry_space_group_name_H-M    P1
_symmetry_Int_Tables_number       1
_symmetry_cell_setting            triclinic
loop_
_symmetry_equiv_pos_as_xyz
'x, y, z'
_cell_length_a     39.158113
_cell_length_b     39.019487
_cell_length_c     26.750183
_cell_angle_alpha  90.013162
_cell_angle_beta   90.022342
_cell_angle_gamma 93.159964
loop_
_atom_site_label
_atom_site_type_symbol
_atom_site_fract_x
_atom_site_fract_y
_atom_site_fract_z
_atom_type_partial_charge
Zn0 Zn 0.07985 0.67432 0.95308 0.0
Zn1 Zn 0.01471 0.6922 0.95043 0.0
O2 O 0.02524 0.67475 0.87974 0.0
O3 O 0.0793 0.6622 0.87995 0.0
O4 O 0.96843 0.71176 0.94146 0.0
O5 O 0.09644 0.72111 0.97743 0.0
O6 O 0.0425 0.7339 0.97992 0.0
C7 C 0.05107 0.66357 0.85719 0.0
C8 C 0.03186 0.6324 0.01538 0.0
O9 O 0.00919 0.65171 -0.00118 0.0
O10 O 0.06288 0.63752 0.00234 0.0
C11 C 0.94144 0.70596 0.96722 0.0
O12 O 0.94153 0.68383 0.00421 0.0
C13 C 0.07398 0.74208 0.98787 0.0
Zn14 Zn 0.35006 0.92449 0.31149 0.0
Zn15 Zn 0.33063 0.9859 0.34041 0.0
O16 O 0.35202 0.96727 0.40445 0.0
O17 O 0.37247 0.91886 0.37862 0.0
O18 O 0.31232 0.03108 0.36144 0.0
O19 O 0.30153 0.90758 0.2984 0.0
O20 O 0.28721 0.96051 0.3117 0.0
C21 C 0.36911 0.94096 0.41269 0.0
C22 C 0.38314 0.98061 0.25713 0.0
O23 O 0.3679 0.99878 0.28879 0.0
O24 O 0.37786 0.94829 0.25645 0.0
C25 C 0.30395 0.05235 0.32819 0.0
O26 O 0.3088 0.04492 0.2809 0.0
C27 C 0.27916 0.92976 0.29836 0.0
Zn28 Zn 0.93724 0.34879 0.44906 0.0
Zn29 Zn 0.00254 0.33138 0.44862 0.0
O30 O 0.99288 0.3481 0.3768 0.0
O31 O 0.93852 0.35961 0.37588 0.0
O32 O 0.04964 0.31217 0.44593 0.0
O33 O 0.92029 0.30249 0.47374 0.0
O34 O 0.97419 0.28962 0.47727 0.0
C35 C 0.9669 0.35842 0.35356 0.0
C36 C 0.98341 0.39159 0.51218 0.0
O37 O 0.00644 0.37226 0.49681 0.0
O38 O 0.95267 0.38629 0.49793 0.0
C39 C 0.06914 0.31317 0.40786 0.0
O40 O 0.05992 0.32967 0.36771 0.0
C41 C 0.94262 0.28149 0.48458 0.0
Zn42 Zn 0.66562 0.08695 0.81136 0.0
Zn43 Zn 0.68915 0.02652 0.83657 0.0
O44 O 0.6671 0.04182 0.90214 0.0
O45 O 0.64437 0.08985 0.87963 0.0
O46 O 0.71079 0.98225 0.8532 0.0
O47 O 0.71275 0.10727 0.79739 0.0
O48 O 0.73085 0.05555 0.8092 0.0
C49 C 0.64903 0.06711 0.91234 0.0
C50 C 0.63546 0.03039 0.75458 0.0
O51 O 0.65251 0.01254 0.78451 0.0
O52 O 0.6383 0.06287 0.75614 0.0
C53 C 0.69835 0.9583 0.88106 0.0
O54 O 0.66837 0.9614 0.90214 0.0
C55 C 0.73673 0.08684 0.79671 0.0
H56 H 0.07437 0.58788 0.05843 0.0
H57 H 0.05873 0.53628 0.10615 0.0
H58 H 0.952 0.55664 0.09202 0.0
H59 H 0.96747 0.60887 0.04437 0.0
H60 H 0.96796 0.5375 0.18601 0.0
H61 H 0.98521 0.49472 0.02145 0.0
H62 H 0.0157 0.48778 0.94178 0.0
H63 H 0.09861 0.44389 0.01977 0.0
H64 H 0.06884 0.45102 0.10004 0.0
H65 H 0.91654 0.37995 0.29234 0.0
H66 H 0.92373 0.42055 0.22332 0.0
H67 H 0.03327 0.41611 0.23414 0.0
H68 H 0.0264 0.3753 0.30316 0.0
H69 H 0.01036 0.42496 0.13553 0.0
H70 H 0.99647 0.47446 0.29963 0.0
H71 H 0.96683 0.48172 0.37996 0.0
H72 H 0.87801 0.51354 0.30216 0.0
H73 H 0.90697 0.50593 0.22127 0.0
C74 C 0.04753 0.58156 0.06552 0.0
C75 C 0.02214 0.60247 0.04733 0.0
C76 C 0.03864 0.55186 0.09254 0.0
C77 C 0.00419 0.54224 0.1017 0.0
C78 C 0.97875 0.56349 0.08493 0.0
C79 C 0.98763 0.59334 0.05782 0.0
C80 C 0.99506 0.51031 0.12978 0.0
C81 C 0.97659 0.51277 0.17438 0.0
C82 C 0.00695 0.47817 0.11508 0.0
C83 C 0.02488 0.47364 0.06683 0.0
C84 C 0.01005 0.48381 0.02167 0.0
C85 C 0.02719 0.47981 0.97638 0.0
C86 C 0.0591 0.46546 0.97572 0.0
C87 C 0.0739 0.45501 0.02034 0.0
C88 C 0.05688 0.45899 0.06574 0.0
C89 C 0.94217 0.3868 0.27919 0.0
C90 C 0.97095 0.3749 0.30394 0.0
C91 C 0.9462 0.41007 0.23975 0.0
C92 C 0.97902 0.42189 0.22453 0.0
C93 C 0.00771 0.40742 0.24563 0.0
C94 C 0.00372 0.38407 0.28511 0.0
C95 C 0.98353 0.45234 0.19173 0.0
C96 C 0.00125 0.44962 0.14653 0.0
C97 C 0.97103 0.48431 0.20584 0.0
C98 C 0.95372 0.48924 0.25442 0.0
C99 C 0.97052 0.48275 0.29965 0.0
C100 C 0.95386 0.48695 0.34527 0.0
C101 C 0.92052 0.49798 0.34615 0.0
C102 C 0.90381 0.50493 0.30141 0.0
C103 C 0.92033 0.50068 0.25567 0.0
H104 H 0.90766 0.50124 0.38151 0.0
H105 H 0.07233 0.46238 0.94062 0.0
H106 H 0.35895 0.97148 0.50352 0.0
H107 H 0.4003 0.97764 0.57213 0.0
H108 H 0.46937 0.91552 0.4908 0.0
H109 H 0.42738 0.90728 0.42448 0.0
H110 H 0.48114 0.90614 0.58119 0.0
H111 H 0.46973 0.00787 0.48201 0.0
H112 H 0.43899 0.05497 0.44427 0.0
H113 H 0.41195 0.09015 0.59039 0.0
H114 H 0.44221 0.04297 0.62894 0.0
H115 H 0.61933 0.05077 0.66104 0.0
H116 H 0.57284 0.02755 0.60806 0.0
H117 H 0.54581 0.95149 0.72071 0.0
H118 H 0.59391 0.97338 0.77219 0.0
H119 H 0.51032 0.02846 0.62048 0.0
H120 H 0.49969 0.88362 0.6718 0.0
H121 H 0.5373 0.83748 0.6951 0.0
H122 H 0.62163 0.89044 0.62026 0.0
H123 H 0.58444 0.93664 0.59599 0.0
C124 C 0.38255 0.95835 0.50114 0.0
C125 C 0.39011 0.93928 0.45841 0.0
C126 C 0.4063 0.96208 0.54012 0.0
C127 C 0.43853 0.94804 0.53595 0.0
C128 C 0.44487 0.9268 0.49502 0.0
C129 C 0.42077 0.92218 0.4569 0.0
C130 C 0.46698 0.95827 0.57069 0.0
C131 C 0.48741 0.93288 0.59004 0.0
C132 C 0.47587 0.99321 0.58131 0.0
C133 C 0.45786 0.0217 0.55829 0.0
C134 C 0.45706 0.02556 0.50604 0.0
C135 C 0.43974 0.05226 0.48452 0.0
C136 C 0.42344 0.07547 0.51491 0.0
C137 C 0.42452 0.0721 0.5669 0.0
C138 C 0.44175 0.0454 0.5886 0.0
C139 C 0.60388 0.02861 0.67387 0.0
C140 C 0.61018 0.01372 0.72044 0.0
C141 C 0.57716 0.01548 0.6438 0.0
C142 C 0.55562 0.98773 0.66024 0.0
C143 C 0.56236 0.97242 0.70656 0.0
C144 C 0.58979 0.98497 0.73604 0.0
C145 C 0.52514 0.97643 0.63001 0.0
C146 C 0.50407 0.00166 0.61195 0.0
C147 C 0.51683 0.94153 0.61846 0.0
C148 C 0.53936 0.91378 0.63265 0.0
C149 C 0.52624 0.88536 0.66024 0.0
C150 C 0.54749 0.85921 0.67361 0.0
C151 C 0.58187 0.8611 0.65934 0.0
C152 C 0.59504 0.88908 0.63149 0.0
C153 C 0.5739 0.91528 0.61798 0.0
H154 H 0.59827 0.84083 0.66976 0.0
H155 H 0.41003 0.09612 0.49819 0.0
H156 H 0.09979 0.63413 0.80065 0.0
H157 H 0.08967 0.59312 0.73274 0.0
H158 H 0.98212 0.61169 0.73534 0.0
H159 H 0.99189 0.65253 0.8037 0.0
H160 H 0.99363 0.54486 0.7492 0.0
H161 H 0.03099 0.63305 0.63375 0.0
H162 H 0.06993 0.6791 0.5998 0.0
H163 H 0.14879 0.60779 0.58256 0.0
H164 H 0.11046 0.56138 0.61707 0.0
H165 H 0.93992 0.43656 0.55169 0.0
H166 H 0.95399 0.48655 0.6036 0.0
H167 H 0.06068 0.4645 0.59959 0.0
H168 H 0.04686 0.41425 0.54668 0.0
H169 H 0.05096 0.53324 0.5852 0.0
H170 H 0.01546 0.44593 0.70227 0.0
H171 H 0.9778 0.39933 0.73758 0.0
H172 H 0.89716 0.46872 0.75405 0.0
H173 H 0.93419 0.51564 0.71813 0.0
C174 C 0.0741 0.63028 0.78588 0.0
C175 C 0.04656 0.64626 0.80816 0.0
C176 C 0.06839 0.60684 0.74689 0.0
C177 C 0.0351 0.59917 0.72925 0.0
C178 C 0.00799 0.61713 0.74866 0.0
C179 C 0.01367 0.6406 0.78761 0.0
C180 C 0.02798 0.56944 0.69561 0.0
C181 C 0.00567 0.54265 0.71289 0.0
C182 C 0.04484 0.56594 0.64925 0.0
C183 C 0.06793 0.5938 0.62844 0.0
C184 C 0.05673 0.62724 0.62313 0.0
C185 C 0.07867 0.6534 0.6037 0.0
C186 C 0.11184 0.64639 0.58915 0.0
C187 C 0.1231 0.61319 0.59389 0.0
C188 C 0.10126 0.58694 0.61334 0.0
C189 C 0.96642 0.44214 0.56186 0.0
C190 C 0.99226 0.42122 0.54522 0.0
C191 C 0.97439 0.47077 0.59163 0.0
C192 C 0.00832 0.47904 0.60581 0.0
C193 C 0.03431 0.45849 0.58903 0.0
C194 C 0.02635 0.42971 0.5591 0.0
C195 C 0.01625 0.50904 0.6386 0.0
C196 C 0.03883 0.53566 0.62139 0.0
C197 C -0.00014 0.51238 0.68531 0.0
C198 C 0.97751 0.48423 0.70704 0.0
C199 C 0.9896 0.45119 0.71303 0.0
C200 C 0.96838 0.42473 0.73322 0.0
C201 C 0.93508 0.43104 0.74793 0.0
C202 C 0.92295 0.46386 0.74258 0.0
C203 C 0.94406 0.4904 0.72234 0.0
H204 H 0.91869 0.41052 0.76357 0.0
H205 H 0.12879 0.66668 0.57411 0.0
H206 H 0.43056 0.03187 0.27945 0.0
H207 H 0.47953 0.05173 0.22834 0.0
H208 H 0.44286 0.9855 0.10806 0.0
H209 H 0.39546 0.96387 0.16066 0.0
H210 H 0.50482 0.97821 0.11511 0.0
H211 H 0.44003 0.07868 0.10962 0.0
H212 H 0.40854 0.12657 0.14341 0.0
H213 H 0.49903 0.16553 0.21977 0.0
H214 H 0.53096 0.1176 0.18691 0.0
H215 H 0.59381 0.1042 0.93182 0.0
H216 H 0.55287 0.09513 -0.0008 0.0
H217 H 0.61783 0.02255 0.0677 0.0
H218 H 0.65815 0.02993 -0.00195 0.0
H219 H 0.54478 0.09998 0.09198 0.0
H220 H 0.5711 0.95684 0.11674 0.0
H221 H 0.59643 0.91018 0.06945 0.0
H222 H 0.57015 0.95804 0.93117 0.0
H223 H 0.54428 0.00469 0.97764 0.0
C224 C 0.4328 0.02204 0.24179 0.0
C225 C 0.40934 0.99647 0.22377 0.0
C226 C 0.46074 0.03344 0.2125 0.0
C227 C 0.46493 0.02036 0.16401 0.0
C228 C 0.44051 0.99581 0.14544 0.0
C229 C 0.41327 0.98363 0.17528 0.0
C230 C 0.49549 0.03076 0.13334 0.0
C231 C 0.51342 0.0049 0.11013 0.0
C232 C 0.50689 0.06553 0.12639 0.0
C233 C 0.48777 0.09435 0.14626 0.0
C234 C 0.45314 0.09732 0.13393 0.0
C235 C 0.43523 0.12449 0.15286 0.0
C236 C 0.45175 0.14902 0.18384 0.0
C237 C 0.48625 0.14647 0.19585 0.0
C238 C 0.50427 0.11933 0.17705 0.0
C239 C 0.59981 0.08673 0.96162 0.0
C240 C 0.62893 0.06725 0.95908 0.0
C241 C 0.57632 0.08165 0.00039 0.0
C242 C 0.58172 0.05746 0.03794 0.0
C243 C 0.61257 0.0406 0.0383 0.0
C244 C 0.63572 0.04498 -0.00131 0.0
C245 C 0.55341 0.04749 0.07295 0.0
C246 C 0.53615 0.07334 0.09732 0.0
C247 C 0.54147 0.01281 0.07895 0.0
C248 C 0.55617 0.98442 0.05069 0.0
C249 C 0.57062 0.95729 0.07625 0.0
C250 C 0.58508 0.93087 0.04959 0.0
C251 C 0.58502 0.93122 -0.00265 0.0
C252 C 0.57028 0.95785 0.97163 0.0
C253 C 0.55572 0.98428 -0.00189 0.0
H254 H 0.59634 0.91081 0.97679 0.0
H255 H 0.43784 0.17004 0.19845 0.0
H256 H 0.23192 0.97256 0.2615 0.0
H257 H 0.18001 0.95564 0.2141 0.0
H258 H 0.19788 0.84904 0.24058 0.0
H259 H 0.24933 0.86562 0.28766 0.0
H260 H 0.18043 0.92015 0.12845 0.0
H261 H 0.12648 0.80072 0.24251 0.0
H262 H 0.1154 0.78549 0.33064 0.0
H263 H 0.11068 0.89212 0.36811 0.0
H264 H 0.12121 0.90803 0.28007 0.0
H265 H 0.13801 0.77267 0.9945 0.0
H266 H 0.15686 0.82058 0.04787 0.0
H267 H 0.05273 0.83267 0.09436 0.0
H268 H 0.03353 0.78437 0.04075 0.0
H269 H 0.0942 0.82733 0.17316 0.0
H270 H 0.09353 0.89751 0.03107 0.0
H271 H 0.10266 0.91487 0.9433 0.0
H272 H 0.21128 0.91168 0.96278 0.0
H273 H 0.20284 0.89379 0.05046 0.0
C274 C 0.22422 0.94555 0.25829 0.0
C275 C 0.24483 0.92037 0.27793 0.0
C276 C 0.19464 0.93595 0.2311 0.0
C277 C 0.18496 0.9011 0.22402 0.0
C278 C 0.20448 0.8761 0.24618 0.0
C279 C 0.23409 0.88561 0.27282 0.0
C280 C 0.15746 0.89013 0.1884 0.0
C281 C 0.16113 0.90029 0.13827 0.0
C282 C 0.13152 0.86508 0.20153 0.0
C283 C 0.12471 0.85557 0.25454 0.0
C284 C 0.1228 0.82093 0.26941 0.0
C285 C 0.11669 0.81218 0.31941 0.0
C286 C 0.11237 0.83782 0.35496 0.0
C287 C 0.11411 0.87228 0.34056 0.0
C288 C 0.1202 0.88118 0.29061 0.0
C289 C 0.11897 0.78592 0.01524 0.0
C290 C 0.08431 0.77456 0.01367 0.0
C291 C 0.12976 0.81352 0.04551 0.0
C292 C 0.10617 0.83038 0.07489 0.0
C293 C 0.07131 0.82011 0.07181 0.0
C294 C 0.0604 0.79258 0.04107 0.0
C295 C 0.11901 0.85558 0.11293 0.0
C296 C 0.11262 0.84803 0.16348 0.0
C297 C 0.1421 0.88337 0.10024 0.0
C298 C 0.1475 0.89425 0.04747 0.0
C299 C 0.11937 0.90031 0.0166 0.0
C300 C 0.12443 0.91028 0.96684 0.0
C301 C 0.15753 0.91438 0.94748 0.0
C302 C 0.18565 0.90855 0.97786 0.0
C303 C 0.18074 0.89857 0.02765 0.0
H304 H 0.16139 0.92208 0.90893 0.0
H305 H 0.10766 0.83098 0.39365 0.0
H306 H 0.28322 0.07186 0.42134 0.0
H307 H 0.24958 0.12086 0.44254 0.0
H308 H 0.25086 0.15234 0.28799 0.0
H309 H 0.28464 0.10363 0.26648 0.0
H310 H 0.25957 0.20746 0.35215 0.0
H311 H 0.18313 0.10669 0.3332 0.0
H312 H 0.16208 0.04727 0.35142 0.0
H313 H 0.14766 0.0738 0.50549 0.0
H314 H 0.1691 0.1333 0.48828 0.0
H315 H 0.11218 0.30378 0.32915 0.0
H316 H 0.15825 0.26433 0.32411 0.0
H317 H 0.14171 0.23603 0.47848 0.0
H318 H 0.09502 0.27498 0.48354 0.0
H319 H 0.14405 0.18079 0.4229 0.0
H320 H 0.21468 0.28344 0.44027 0.0
H321 H 0.23567 0.34285 0.42209 0.0
H322 H 0.26123 0.31368 0.2725 0.0
H323 H 0.23995 0.25416 0.28954 0.0
C324 C 0.27668 0.08941 0.39193 0.0
C325 C 0.28635 0.08363 0.34211 0.0
C326 C 0.25739 0.11736 0.40411 0.0
C327 C 0.24739 0.14 0.36673 0.0
C328 C 0.25828 0.13516 0.3174 0.0
C329 C 0.27746 0.10719 0.30515 0.0
C330 C 0.22388 0.16751 0.37827 0.0
C331 C 0.23421 0.2017 0.36734 0.0
C332 C 0.19115 0.16002 0.39926 0.0
C333 C 0.17808 0.12432 0.40958 0.0
C334 C 0.17573 0.09978 0.37104 0.0
C335 C 0.16368 0.0661 0.38116 0.0
C336 C 0.15364 0.05674 0.42961 0.0
C337 C 0.15552 0.08107 0.468 0.0
C338 C 0.1676 0.11477 0.45808 0.0
C339 C 0.11863 0.28957 0.3623 0.0
C340 C 0.09976 0.29245 0.40669 0.0
C341 C 0.14515 0.2671 0.35942 0.0
C342 C 0.15368 0.24733 0.40102 0.0
C343 C 0.13561 0.25099 0.44588 0.0
C344 C 0.10896 0.27335 0.44874 0.0
C345 C 0.17951 0.22095 0.39642 0.0
C346 C 0.16956 0.18682 0.40845 0.0
C347 C 0.21258 0.22858 0.37654 0.0
C348 C 0.22545 0.26437 0.3661 0.0
C349 C 0.22452 0.28974 0.40337 0.0
C350 C 0.23652 0.32343 0.39329 0.0
C351 C 0.24971 0.33205 0.34614 0.0
C352 C 0.25099 0.30697 0.309 0.0
C353 C 0.239 0.27324 0.31887 0.0
H354 H 0.25899 0.35816 0.33841 0.0
H355 H 0.14432 0.03066 0.43738 0.0
H356 H 0.76079 0.15293 0.78382 0.0
H357 H 0.8109 0.17322 0.73644 0.0
H358 H 0.83929 0.06887 0.71587 0.0
H359 H 0.78861 0.04817 0.76322 0.0
H360 H 0.87961 0.16967 0.73867 0.0
H361 H 0.86606 0.06419 0.59258 0.0
H362 H 0.82425 0.01899 0.56291 0.0
H363 H 0.74159 0.08075 0.60553 0.0
H364 H 0.78294 0.1264 0.63488 0.0
H365 H 0.9821 0.23953 0.53985 0.0
H366 H 0.96157 0.19238 0.59466 0.0
H367 H 0.8585 0.20401 0.54291 0.0
H368 H 0.87867 0.25071 0.48827 0.0
H369 H 0.87017 0.13681 0.55975 0.0
H370 H 0.8886 0.24806 0.64423 0.0
H371 H 0.9248 0.29817 0.67235 0.0
H372 H 0.98985 0.23158 0.75144 0.0
H373 H 0.95419 0.18105 0.72324 0.0
C374 C 0.77799 0.13426 0.77011 0.0
C375 C 0.77044 0.09892 0.77658 0.0
C376 C 0.80682 0.14593 0.7433 0.0
C377 C 0.82861 0.12255 0.72213 0.0
C378 C 0.82261 0.08732 0.73158 0.0
C379 C 0.7937 0.07556 0.75872 0.0
C380 C 0.85456 0.13539 0.68534 0.0
C381 C 0.87819 0.1619 0.69974 0.0
C382 C 0.85262 0.1254 0.63448 0.0
C383 C 0.82754 0.0984 0.61647 0.0
C384 C 0.83896 0.06808 0.59552 0.0
C385 C 0.81535 0.04242 0.57876 0.0
C386 C 0.78028 0.04694 0.58252 0.0
C387 C 0.76875 0.07722 0.60282 0.0
C388 C 0.79225 0.10298 0.61953 0.0
C389 C 0.9552 0.23141 0.53925 0.0
C390 C 0.93189 0.24913 0.5103 0.0
C391 C 0.94354 0.20453 0.57064 0.0
C392 C 0.90848 0.19498 0.57323 0.0
C393 C 0.88567 0.21092 0.54147 0.0
C394 C 0.89721 0.23781 0.51047 0.0
C395 C 0.89436 0.17181 0.6129 0.0
C396 C 0.8729 0.14343 0.59901 0.0
C397 C 0.89777 0.18053 0.66409 0.0
C398 C 0.91906 0.21084 0.68115 0.0
C399 C 0.91077 0.24414 0.66734 0.0
C400 C 0.93115 0.27259 0.68332 0.0
C401 C 0.95968 0.26806 0.71352 0.0
C402 C 0.96781 0.23505 0.72793 0.0
C403 C 0.94753 0.2065 0.71197 0.0
H404 H 0.97542 0.29012 0.72588 0.0
H405 H 0.76206 0.02703 0.56959 0.0
H406 H 0.75968 0.94377 0.84018 0.0
H407 H 0.79292 0.89388 0.85519 0.0
H408 H 0.71529 0.85269 0.95627 0.0
H409 H 0.68174 0.90306 0.9418 0.0
H410 H 0.77924 0.84858 0.99493 0.0
H411 H 0.72347 0.81661 0.84257 0.0
H412 H 0.70337 0.82417 0.75612 0.0
H413 H 0.80723 0.83799 0.70538 0.0
H414 H 0.82797 0.83102 0.79163 0.0
H415 H 0.87841 0.70004 0.01264 0.0
H416 H 0.82956 0.73544 -0.00191 0.0
H417 H 0.88727 0.79275 0.88558 0.0
H418 H 0.93559 0.75719 0.89893 0.0
H419 H 0.82376 0.78048 0.85503 0.0
H420 H 0.87833 0.82207 0.00851 0.0
H421 H 0.89897 0.81621 0.09507 0.0
H422 H 0.79737 0.785 0.14323 0.0
H423 H 0.77621 0.79031 0.05678 0.0
C424 C 0.74948 0.92411 0.86548 0.0
C425 C 0.71798 0.92742 0.88973 0.0
C426 C 0.76848 0.89545 0.8738 0.0
C427 C 0.75637 0.86929 0.90629 0.0
C428 C 0.72501 0.8725 0.93084 0.0
C429 C 0.70587 0.90126 0.92245 0.0
C430 C 0.77738 0.83938 0.91556 0.0
C431 C 0.78838 0.83315 0.96449 0.0
C432 C 0.78962 0.81952 0.87578 0.0
C433 C 0.77727 0.82347 0.82369 0.0
C434 C 0.74203 0.82148 0.81304 0.0
C435 C 0.73052 0.82563 0.76405 0.0
C436 C 0.754 0.8316 0.72529 0.0
C437 C 0.78906 0.83336 0.73544 0.0
C438 C 0.80071 0.82925 0.78437 0.0
C439 C 0.88058 0.72004 0.98457 0.0
C440 C 0.911 0.72589 0.95717 0.0
C441 C 0.85267 0.74033 0.97642 0.0
C442 C 0.85486 0.76706 0.94115 0.0
C443 C 0.8849 0.77228 0.91295 0.0
C444 C 0.91262 0.75195 0.9208 0.0
C445 C 0.82657 0.7905 0.93414 0.0
C446 C 0.81412 0.79546 0.8856 0.0
C447 C 0.81309 0.80925 0.97425 0.0
C448 C 0.82579 0.80618 0.02615 0.0
C449 C 0.86045 0.81372 0.03752 0.0
C450 C 0.87223 0.81054 0.08655 0.0
C451 C 0.84952 0.80013 0.1246 0.0
C452 C 0.81495 0.79299 0.1137 0.0
C453 C 0.80305 0.79609 0.06472 0.0
H454 H 0.85868 0.79769 0.16253 0.0
H455 H 0.74504 0.83482 0.68739 0.0
loop_
_geom_bond_atom_site_label_1
_geom_bond_atom_site_label_2
_geom_bond_distance
_geom_bond_site_symmetry_2
_ccdc_geom_bond_type
Zn0 O3 2.031 1_554 S
Zn0 O5 2.049 . S
Zn0 O10 2.067 . S
Zn1 O2 1.962 1_655 S
Zn1 O4 1.986 . S
Zn1 O6 1.996 1_656 S
Zn1 O9 1.943 1_556 S
O2 Zn1 1.962 1_455 S
O2 C7 1.254 . S
O3 Zn0 2.031 1_556 S
O3 C7 1.269 . S
O4 Zn1 1.986 . S
O4 C11 1.262 . S
O5 Zn0 2.049 . S
O5 C13 1.260 . S
O6 Zn1 1.996 1_454 S
O6 C13 1.257 . S
C7 O2 1.254 . S
C7 O3 1.269 . S
C8 O9 1.249 1_455 S
C8 O10 1.270 . S
O9 Zn1 1.943 1_554 S
O9 C8 1.249 1_655 S
O10 Zn0 2.067 . S
O10 C8 1.270 . S
C11 O4 1.262 . S
C11 O12 1.232 . S
O12 C11 1.232 . S
C13 O5 1.260 . S
C13 O6 1.257 . S
Zn14 O17 2.031 . S
Zn14 O19 2.049 . S
Zn14 O24 2.067 . S
Zn15 O16 1.962 . S
Zn15 O18 1.986 . S
Zn15 O20 1.996 1_545 S
Zn15 O23 1.943 . S
O16 Zn15 1.962 . S
O16 C21 1.254 1_545 S
O17 Zn14 2.031 . S
O17 C21 1.269 . S
O18 Zn15 1.986 . S
O18 C25 1.262 . S
O19 Zn14 2.049 . S
O19 C27 1.260 . S
O20 Zn15 1.996 1_565 S
O20 C27 1.257 . S
C21 O16 1.254 1_565 S
C21 O17 1.269 . S
C22 O23 1.249 . S
C22 O24 1.270 1_545 S
O23 Zn15 1.943 . S
O23 C22 1.249 . S
O24 Zn14 2.067 . S
O24 C22 1.270 1_565 S
C25 O18 1.262 . S
C25 O26 1.232 . S
O26 C25 1.232 . S
C27 O19 1.260 . S
C27 O20 1.257 . S
Zn28 O31 2.031 . S
Zn28 O33 2.049 . S
Zn28 O38 2.067 . S
Zn29 O30 1.962 . S
Zn29 O32 1.986 . S
Zn29 O34 1.996 1_455 S
Zn29 O37 1.943 . S
O30 Zn29 1.962 . S
O30 C35 1.254 1_455 S
O31 Zn28 2.031 . S
O31 C35 1.269 . S
O32 Zn29 1.986 . S
O32 C39 1.262 . S
O33 Zn28 2.049 . S
O33 C41 1.260 . S
O34 Zn29 1.996 1_655 S
O34 C41 1.257 . S
C35 O30 1.254 1_655 S
C35 O31 1.269 . S
C36 O37 1.249 . S
C36 O38 1.270 1_455 S
O37 Zn29 1.943 . S
O37 C36 1.249 . S
O38 Zn28 2.067 . S
O38 C36 1.270 1_655 S
C39 O32 1.262 . S
C39 O40 1.232 . S
O40 C39 1.232 . S
C41 O33 1.260 . S
C41 O34 1.257 . S
Zn42 O45 2.031 . S
Zn42 O47 2.049 . S
Zn42 O52 2.067 . S
Zn43 O44 1.957 1_565 S
Zn43 O46 1.997 . S
Zn43 O48 1.975 1_565 S
Zn43 O51 1.948 . S
O44 Zn43 1.957 1_545 S
O44 C49 1.254 . S
O45 Zn42 2.031 . S
O45 C49 1.269 . S
O46 Zn43 1.997 . S
O46 C53 1.262 . S
O47 Zn42 2.049 . S
O47 C55 1.260 . S
O48 Zn43 1.975 1_545 S
O48 C55 1.257 . S
C49 O44 1.254 . S
C49 O45 1.269 . S
C50 O51 1.249 1_545 S
C50 O52 1.270 . S
O51 Zn43 1.948 . S
O51 C50 1.249 1_565 S
O52 Zn42 2.067 . S
O52 C50 1.270 . S
C53 O46 1.262 . S
C53 O54 1.232 . S
O54 C53 1.232 . S
C55 O47 1.260 . S
C55 O48 1.257 . S
H56 C74 0.951 . S
H57 C76 0.951 . S
H58 C78 0.950 . S
H59 C79 0.950 . S
H60 C81 0.950 . S
H61 C84 0.950 . S
H62 C85 0.950 . S
H63 C87 0.950 . S
H64 C88 0.950 . S
H65 C89 0.951 . S
H66 C91 0.951 . S
H67 C93 0.950 . S
H68 C94 0.950 . S
H69 C96 0.950 . S
H70 C99 0.950 . S
H71 C100 0.950 . S
H72 C102 0.950 . S
H73 C103 0.950 . S
C74 H56 0.951 . S
C74 C75 1.366 1_455 S
C74 C76 1.388 . S
C75 C74 1.366 1_655 S
C75 C79 1.385 . S
C76 H57 0.951 . S
C76 C74 1.388 . S
C76 C77 1.366 1_455 S
C77 C76 1.366 1_655 S
C77 C78 1.414 . S
C77 C80 1.499 . S
C78 H58 0.950 . S
C78 C77 1.414 . S
C78 C79 1.374 . S
C79 H59 0.950 . S
C79 C75 1.385 . S
C79 C78 1.374 . S
C80 C77 1.499 . S
C80 C81 1.373 . S
C80 C82 1.389 1_655 S
C81 H60 0.950 . S
C81 C80 1.373 . S
C81 C97 1.377 . S
C82 C80 1.389 1_455 S
C82 C83 1.524 . S
C82 C96 1.377 . S
C83 C82 1.524 . S
C83 C84 1.397 . S
C83 C88 1.363 . S
C84 H61 0.950 . S
C84 C83 1.397 . S
C84 C85 1.334 . S
C85 H62 0.950 . S
C85 C84 1.334 . S
C85 C86 1.287 . S
C86 C85 1.287 . S
C86 C87 1.524 . S
C86 H105 0.913 . S
C87 H63 0.950 . S
C87 C86 1.524 . S
C87 C88 1.415 . S
C88 H64 0.950 . S
C88 C83 1.363 . S
C88 C87 1.415 . S
C89 H65 0.951 . S
C89 C90 1.366 . S
C89 C91 1.388 . S
C90 C89 1.366 . S
C90 C94 1.385 1_655 S
C91 H66 0.951 . S
C91 C89 1.388 . S
C91 C92 1.366 . S
C92 C91 1.366 . S
C92 C93 1.414 1_655 S
C92 C95 1.499 . S
C93 H67 0.950 . S
C93 C92 1.414 1_455 S
C93 C94 1.374 . S
C94 H68 0.950 . S
C94 C90 1.385 1_455 S
C94 C93 1.374 . S
C95 C92 1.499 . S
C95 C96 1.373 1_655 S
C95 C97 1.389 . S
C96 H69 0.950 . S
C96 C82 1.377 . S
C96 C95 1.373 1_455 S
C97 C81 1.377 . S
C97 C95 1.389 . S
C97 C98 1.524 . S
C98 C97 1.524 . S
C98 C99 1.397 . S
C98 C103 1.363 . S
C99 H70 0.950 . S
C99 C98 1.397 . S
C99 C100 1.334 . S
C100 H71 0.950 . S
C100 C99 1.334 . S
C100 C101 1.287 . S
C101 C100 1.287 . S
C101 C102 1.524 . S
C101 H104 0.999 . S
C102 H72 0.950 . S
C102 C101 1.524 . S
C102 C103 1.415 . S
C103 H73 0.950 . S
C103 C98 1.363 . S
C103 C102 1.415 . S
H104 C101 0.999 . S
H105 C86 0.913 . S
H106 C124 0.951 . S
H107 C126 0.951 . S
H108 C128 0.950 . S
H109 C129 0.950 . S
H110 C131 0.950 . S
H111 C134 0.950 . S
H112 C135 0.950 . S
H113 C137 0.950 . S
H114 C138 0.950 1_565 S
H115 C139 0.951 . S
H116 C141 0.951 . S
H117 C143 0.950 . S
H118 C144 0.950 . S
H119 C146 0.950 . S
H120 C149 0.950 . S
H121 C150 0.950 . S
H122 C152 0.950 . S
H123 C153 0.950 1_545 S
C124 H106 0.951 . S
C124 C125 1.366 . S
C124 C126 1.388 . S
C125 C124 1.366 . S
C125 C129 1.385 1_565 S
C126 H107 0.951 . S
C126 C124 1.388 . S
C126 C127 1.366 . S
C127 C126 1.366 . S
C127 C128 1.414 1_565 S
C127 C130 1.499 . S
C128 H108 0.950 . S
C128 C127 1.414 1_545 S
C128 C129 1.374 . S
C129 H109 0.950 . S
C129 C125 1.385 1_545 S
C129 C128 1.374 . S
C130 C127 1.499 . S
C130 C131 1.373 . S
C130 C132 1.389 1_565 S
C131 H110 0.950 . S
C131 C130 1.373 . S
C131 C147 1.377 . S
C132 C130 1.389 1_545 S
C132 C133 1.524 . S
C132 C146 1.377 . S
C133 C132 1.524 . S
C133 C134 1.397 . S
C133 C138 1.363 . S
C134 H111 0.950 . S
C134 C133 1.397 . S
C134 C135 1.334 . S
C135 H112 0.950 . S
C135 C134 1.334 . S
C135 C136 1.287 . S
C136 C135 1.287 . S
C136 C137 1.524 . S
C136 H155 0.913 . S
C137 H113 0.950 . S
C137 C136 1.524 . S
C137 C138 1.415 . S
C138 H114 0.950 1_545 S
C138 C133 1.363 . S
C138 C137 1.415 . S
C139 H115 0.951 . S
C139 C140 1.366 1_545 S
C139 C141 1.388 . S
C140 C139 1.366 1_565 S
C140 C144 1.385 . S
C141 H116 0.951 . S
C141 C139 1.388 . S
C141 C142 1.366 1_545 S
C142 C141 1.366 1_565 S
C142 C143 1.414 . S
C142 C145 1.499 . S
C143 H117 0.950 . S
C143 C142 1.414 . S
C143 C144 1.374 . S
C144 H118 0.950 . S
C144 C140 1.385 . S
C144 C143 1.374 . S
C145 C142 1.499 . S
C145 C146 1.373 1_565 S
C145 C147 1.389 . S
C146 H119 0.950 . S
C146 C132 1.377 . S
C146 C145 1.373 1_545 S
C147 C131 1.377 . S
C147 C145 1.389 . S
C147 C148 1.524 . S
C148 C147 1.524 . S
C148 C149 1.397 . S
C148 C153 1.363 . S
C149 H120 0.950 . S
C149 C148 1.397 . S
C149 C150 1.334 . S
C150 H121 0.950 . S
C150 C149 1.334 . S
C150 C151 1.287 . S
C151 C150 1.287 . S
C151 C152 1.524 . S
C151 H154 0.999 . S
C152 H122 0.950 . S
C152 C151 1.524 . S
C152 C153 1.415 . S
C153 H123 0.950 1_565 S
C153 C148 1.363 . S
C153 C152 1.415 . S
H154 C151 0.999 . S
H155 C136 0.913 . S
H156 C174 0.951 . S
H157 C176 0.951 . S
H158 C178 0.950 . S
H159 C179 0.950 . S
H160 C181 0.968 . S
H161 C184 0.950 . S
H162 C185 0.950 . S
H163 C187 0.950 . S
H164 C188 0.950 . S
H165 C189 0.951 . S
H166 C191 0.951 . S
H167 C193 0.950 . S
H168 C194 0.950 . S
H169 C196 0.950 . S
H170 C199 0.923 1_455 S
H171 C200 0.950 . S
H172 C202 0.950 . S
H173 C203 0.950 . S
C174 H156 0.951 . S
C174 C175 1.366 . S
C174 C176 1.388 . S
C175 C174 1.366 . S
C175 C179 1.385 1_455 S
C176 H157 0.951 . S
C176 C174 1.388 . S
C176 C177 1.366 . S
C177 C176 1.366 . S
C177 C178 1.414 1_455 S
C177 C180 1.499 . S
C178 H158 0.950 . S
C178 C177 1.414 1_655 S
C178 C179 1.374 . S
C179 H159 0.950 . S
C179 C175 1.385 1_655 S
C179 C178 1.374 . S
C180 C177 1.499 . S
C180 C181 1.359 1_455 S
C180 C182 1.389 . S
C181 H160 0.968 . S
C181 C180 1.359 1_655 S
C181 C197 1.373 1_655 S
C182 C180 1.389 . S
C182 C183 1.524 . S
C182 C196 1.377 . S
C183 C182 1.524 . S
C183 C184 1.397 . S
C183 C188 1.363 . S
C184 H161 0.950 . S
C184 C183 1.397 . S
C184 C185 1.334 . S
C185 H162 0.950 . S
C185 C184 1.334 . S
C185 C186 1.287 . S
C186 C185 1.287 . S
C186 C187 1.524 . S
C186 H205 0.913 . S
C187 H163 0.950 . S
C187 C186 1.524 . S
C187 C188 1.415 . S
C188 H164 0.950 . S
C188 C183 1.363 . S
C188 C187 1.415 . S
C189 H165 0.951 . S
C189 C190 1.366 1_655 S
C189 C191 1.388 . S
C190 C189 1.366 1_455 S
C190 C194 1.385 . S
C191 H166 0.951 . S
C191 C189 1.388 . S
C191 C192 1.366 1_655 S
C192 C191 1.366 1_455 S
C192 C193 1.414 . S
C192 C195 1.499 . S
C193 H167 0.950 . S
C193 C192 1.414 . S
C193 C194 1.374 . S
C194 H168 0.950 . S
C194 C190 1.385 . S
C194 C193 1.374 . S
C195 C192 1.499 . S
C195 C196 1.373 . S
C195 C197 1.404 . S
C196 H169 0.950 . S
C196 C182 1.377 . S
C196 C195 1.373 . S
C197 C181 1.373 1_455 S
C197 C195 1.404 . S
C197 C198 1.513 1_455 S
C198 C197 1.513 1_655 S
C198 C199 1.413 . S
C198 C203 1.363 . S
C199 H170 0.923 1_655 S
C199 C198 1.413 . S
C199 C200 1.345 . S
C200 H171 0.950 . S
C200 C199 1.345 . S
C200 C201 1.287 . S
C201 C200 1.287 . S
C201 C202 1.524 . S
C201 H204 0.999 . S
C202 H172 0.950 . S
C202 C201 1.524 . S
C202 C203 1.415 . S
C203 H173 0.950 . S
C203 C198 1.363 . S
C203 C202 1.415 . S
H204 C201 0.999 . S
H205 C186 0.913 . S
H206 C224 0.951 . S
H207 C226 0.951 . S
H208 C228 0.950 . S
H209 C229 0.950 . S
H210 C231 0.950 . S
H211 C234 0.950 . S
H212 C235 0.950 . S
H213 C237 0.950 . S
H214 C238 0.950 . S
H215 C239 0.951 . S
H216 C241 0.951 . S
H217 C243 0.950 1_554 S
H218 C244 0.950 . S
H219 C246 0.950 . S
H220 C249 0.950 . S
H221 C250 0.950 . S
H222 C252 0.950 . S
H223 C253 0.950 . S
C224 H206 0.951 . S
C224 C225 1.366 . S
C224 C226 1.388 . S
C225 C224 1.366 . S
C225 C229 1.385 . S
C226 H207 0.951 . S
C226 C224 1.388 . S
C226 C227 1.366 . S
C227 C226 1.366 . S
C227 C228 1.414 . S
C227 C230 1.499 . S
C228 H208 0.950 . S
C228 C227 1.414 . S
C228 C229 1.374 . S
C229 H209 0.950 . S
C229 C225 1.385 . S
C229 C228 1.374 . S
C230 C227 1.499 . S
C230 C231 1.373 1_545 S
C230 C232 1.389 . S
C231 H210 0.950 . S
C231 C230 1.373 1_565 S
C231 C247 1.377 . S
C232 C230 1.389 . S
C232 C233 1.524 . S
C232 C246 1.377 . S
C233 C232 1.524 . S
C233 C234 1.397 . S
C233 C238 1.363 . S
C234 H211 0.950 . S
C234 C233 1.397 . S
C234 C235 1.334 . S
C235 H212 0.950 . S
C235 C234 1.334 . S
C235 C236 1.287 . S
C236 C235 1.287 . S
C236 C237 1.524 . S
C236 H255 0.913 . S
C237 H213 0.950 . S
C237 C236 1.524 . S
C237 C238 1.415 . S
C238 H214 0.950 . S
C238 C233 1.363 . S
C238 C237 1.415 . S
C239 H215 0.951 . S
C239 C240 1.366 . S
C239 C241 1.388 . S
C240 C239 1.366 . S
C240 C244 1.385 . S
C241 H216 0.951 . S
C241 C239 1.388 . S
C241 C242 1.366 . S
C242 C241 1.366 . S
C242 C243 1.414 . S
C242 C245 1.488 1_556 S
C243 H217 0.950 1_556 S
C243 C242 1.414 . S
C243 C244 1.374 . S
C244 H218 0.950 . S
C244 C240 1.385 . S
C244 C243 1.374 . S
C245 C242 1.488 1_554 S
C245 C246 1.382 . S
C245 C247 1.391 1_545 S
C246 H219 0.950 . S
C246 C232 1.377 . S
C246 C245 1.382 . S
C247 C231 1.377 . S
C247 C245 1.391 1_565 S
C247 C248 1.524 1_554 S
C248 C247 1.524 1_556 S
C248 C249 1.397 . S
C248 C253 1.363 . S
C249 H220 0.950 . S
C249 C248 1.397 . S
C249 C250 1.334 . S
C250 H221 0.950 . S
C250 C249 1.334 . S
C250 C251 1.287 . S
C251 C250 1.287 . S
C251 C252 1.524 . S
C251 H254 0.999 . S
C252 H222 0.950 . S
C252 C251 1.524 . S
C252 C253 1.415 . S
C253 H223 0.950 . S
C253 C248 1.363 . S
C253 C252 1.415 . S
H254 C251 0.999 . S
H255 C236 0.913 . S
H256 C274 0.951 . S
H257 C276 0.951 . S
H258 C278 0.950 . S
H259 C279 0.950 . S
H260 C281 0.950 . S
H261 C284 0.950 . S
H262 C285 0.950 . S
H263 C287 0.950 . S
H264 C288 0.950 . S
H265 C289 0.951 1_556 S
H266 C291 0.951 . S
H267 C293 0.950 . S
H268 C294 0.950 . S
H269 C296 0.950 . S
H270 C299 0.950 . S
H271 C300 0.950 . S
H272 C302 0.950 . S
H273 C303 0.950 . S
C274 H256 0.951 . S
C274 C275 1.366 . S
C274 C276 1.388 . S
C275 C274 1.366 . S
C275 C279 1.385 . S
C276 H257 0.951 . S
C276 C274 1.388 . S
C276 C277 1.366 . S
C277 C276 1.366 . S
C277 C278 1.414 . S
C277 C280 1.499 . S
C278 H258 0.950 . S
C278 C277 1.414 . S
C278 C279 1.374 . S
C279 H259 0.950 . S
C279 C275 1.385 . S
C279 C278 1.374 . S
C280 C277 1.499 . S
C280 C281 1.373 . S
C280 C282 1.389 . S
C281 H260 0.950 . S
C281 C280 1.373 . S
C281 C297 1.377 . S
C282 C280 1.389 . S
C282 C283 1.524 . S
C282 C296 1.377 . S
C283 C282 1.524 . S
C283 C284 1.397 . S
C283 C288 1.363 . S
C284 H261 0.950 . S
C284 C283 1.397 . S
C284 C285 1.334 . S
C285 H262 0.950 . S
C285 C284 1.334 . S
C285 C286 1.287 . S
C286 C285 1.287 . S
C286 C287 1.524 . S
C286 H305 0.913 . S
C287 H263 0.950 . S
C287 C286 1.524 . S
C287 C288 1.415 . S
C288 H264 0.950 . S
C288 C283 1.363 . S
C288 C287 1.415 . S
C289 H265 0.951 1_554 S
C289 C290 1.366 . S
C289 C291 1.388 . S
C290 C289 1.366 . S
C290 C294 1.385 . S
C291 H266 0.951 . S
C291 C289 1.388 . S
C291 C292 1.366 . S
C292 C291 1.366 . S
C292 C293 1.414 . S
C292 C295 1.499 . S
C293 H267 0.950 . S
C293 C292 1.414 . S
C293 C294 1.374 . S
C294 H268 0.950 . S
C294 C290 1.385 . S
C294 C293 1.374 . S
C295 C292 1.499 . S
C295 C296 1.373 . S
C295 C297 1.389 . S
C296 H269 0.950 . S
C296 C282 1.377 . S
C296 C295 1.373 . S
C297 C281 1.377 . S
C297 C295 1.389 . S
C297 C298 1.524 . S
C298 C297 1.524 . S
C298 C299 1.397 . S
C298 C303 1.363 . S
C299 H270 0.950 . S
C299 C298 1.397 . S
C299 C300 1.334 . S
C300 H271 0.950 . S
C300 C299 1.334 . S
C300 C301 1.287 1_554 S
C301 C300 1.287 1_556 S
C301 C302 1.524 . S
C301 H304 0.999 . S
C302 H272 0.950 . S
C302 C301 1.524 . S
C302 C303 1.415 1_556 S
C303 H273 0.950 . S
C303 C298 1.363 . S
C303 C302 1.415 1_554 S
H304 C301 0.999 . S
H305 C286 0.913 . S
H306 C324 0.951 . S
H307 C326 0.951 . S
H308 C328 0.950 . S
H309 C329 0.950 . S
H310 C331 0.950 . S
H311 C334 0.950 . S
H312 C335 0.950 . S
H313 C337 0.950 . S
H314 C338 0.950 . S
H315 C339 0.951 . S
H316 C341 0.951 . S
H317 C343 0.950 . S
H318 C344 0.950 . S
H319 C346 0.950 . S
H320 C349 0.950 . S
H321 C350 0.950 . S
H322 C352 0.950 . S
H323 C353 0.950 . S
C324 H306 0.951 . S
C324 C325 1.366 . S
C324 C326 1.388 . S
C325 C324 1.366 . S
C325 C329 1.385 . S
C326 H307 0.951 . S
C326 C324 1.388 . S
C326 C327 1.366 . S
C327 C326 1.366 . S
C327 C328 1.414 . S
C327 C330 1.499 . S
C328 H308 0.950 . S
C328 C327 1.414 . S
C328 C329 1.374 . S
C329 H309 0.950 . S
C329 C325 1.385 . S
C329 C328 1.374 . S
C330 C327 1.499 . S
C330 C331 1.373 . S
C330 C332 1.389 . S
C331 H310 0.950 . S
C331 C330 1.373 . S
C331 C347 1.377 . S
C332 C330 1.389 . S
C332 C333 1.524 . S
C332 C346 1.377 . S
C333 C332 1.524 . S
C333 C334 1.397 . S
C333 C338 1.363 . S
C334 H311 0.950 . S
C334 C333 1.397 . S
C334 C335 1.334 . S
C335 H312 0.950 . S
C335 C334 1.334 . S
C335 C336 1.287 . S
C336 C335 1.287 . S
C336 C337 1.524 . S
C336 H355 0.913 . S
C337 H313 0.950 . S
C337 C336 1.524 . S
C337 C338 1.415 . S
C338 H314 0.950 . S
C338 C333 1.363 . S
C338 C337 1.415 . S
C339 H315 0.951 . S
C339 C340 1.366 . S
C339 C341 1.388 . S
C340 C339 1.366 . S
C340 C344 1.385 . S
C341 H316 0.951 . S
C341 C339 1.388 . S
C341 C342 1.366 . S
C342 C341 1.366 . S
C342 C343 1.414 . S
C342 C345 1.499 . S
C343 H317 0.950 . S
C343 C342 1.414 . S
C343 C344 1.374 . S
C344 H318 0.950 . S
C344 C340 1.385 . S
C344 C343 1.374 . S
C345 C342 1.499 . S
C345 C346 1.373 . S
C345 C347 1.389 . S
C346 H319 0.950 . S
C346 C332 1.377 . S
C346 C345 1.373 . S
C347 C331 1.377 . S
C347 C345 1.389 . S
C347 C348 1.524 . S
C348 C347 1.524 . S
C348 C349 1.397 . S
C348 C353 1.363 . S
C349 H320 0.950 . S
C349 C348 1.397 . S
C349 C350 1.334 . S
C350 H321 0.950 . S
C350 C349 1.334 . S
C350 C351 1.287 . S
C351 C350 1.287 . S
C351 C352 1.524 . S
C351 H354 0.999 . S
C352 H322 0.950 . S
C352 C351 1.524 . S
C352 C353 1.415 . S
C353 H323 0.950 . S
C353 C348 1.363 . S
C353 C352 1.415 . S
H354 C351 0.999 . S
H355 C336 0.913 . S
H356 C374 0.951 . S
H357 C376 0.951 . S
H358 C378 0.950 . S
H359 C379 0.950 . S
H360 C381 0.950 . S
H361 C384 0.950 . S
H362 C385 0.950 . S
H363 C387 0.950 . S
H364 C388 0.950 . S
H365 C389 0.951 . S
H366 C391 0.951 . S
H367 C393 0.950 . S
H368 C394 0.950 . S
H369 C396 0.950 . S
H370 C399 0.950 . S
H371 C400 0.950 . S
H372 C402 0.950 . S
H373 C403 0.950 . S
C374 H356 0.951 . S
C374 C375 1.366 . S
C374 C376 1.388 . S
C375 C374 1.366 . S
C375 C379 1.385 . S
C376 H357 0.951 . S
C376 C374 1.388 . S
C376 C377 1.366 . S
C377 C376 1.366 . S
C377 C378 1.414 . S
C377 C380 1.499 . S
C378 H358 0.950 . S
C378 C377 1.414 . S
C378 C379 1.374 . S
C379 H359 0.950 . S
C379 C375 1.385 . S
C379 C378 1.374 . S
C380 C377 1.499 . S
C380 C381 1.373 . S
C380 C382 1.389 . S
C381 H360 0.950 . S
C381 C380 1.373 . S
C381 C397 1.377 . S
C382 C380 1.389 . S
C382 C383 1.524 . S
C382 C396 1.377 . S
C383 C382 1.524 . S
C383 C384 1.397 . S
C383 C388 1.363 . S
C384 H361 0.950 . S
C384 C383 1.397 . S
C384 C385 1.334 . S
C385 H362 0.950 . S
C385 C384 1.334 . S
C385 C386 1.287 . S
C386 C385 1.287 . S
C386 C387 1.524 . S
C386 H405 0.913 . S
C387 H363 0.950 . S
C387 C386 1.524 . S
C387 C388 1.415 . S
C388 H364 0.950 . S
C388 C383 1.363 . S
C388 C387 1.415 . S
C389 H365 0.951 . S
C389 C390 1.366 . S
C389 C391 1.388 . S
C390 C389 1.366 . S
C390 C394 1.385 . S
C391 H366 0.951 . S
C391 C389 1.388 . S
C391 C392 1.366 . S
C392 C391 1.366 . S
C392 C393 1.414 . S
C392 C395 1.499 . S
C393 H367 0.950 . S
C393 C392 1.414 . S
C393 C394 1.374 . S
C394 H368 0.950 . S
C394 C390 1.385 . S
C394 C393 1.374 . S
C395 C392 1.499 . S
C395 C396 1.373 . S
C395 C397 1.389 . S
C396 H369 0.950 . S
C396 C382 1.377 . S
C396 C395 1.373 . S
C397 C381 1.377 . S
C397 C395 1.389 . S
C397 C398 1.524 . S
C398 C397 1.524 . S
C398 C399 1.397 . S
C398 C403 1.363 . S
C399 H370 0.950 . S
C399 C398 1.397 . S
C399 C400 1.334 . S
C400 H371 0.950 . S
C400 C399 1.334 . S
C400 C401 1.287 . S
C401 C400 1.287 . S
C401 C402 1.524 . S
C401 H404 0.999 . S
C402 H372 0.950 . S
C402 C401 1.524 . S
C402 C403 1.415 . S
C403 H373 0.950 . S
C403 C398 1.363 . S
C403 C402 1.415 . S
H404 C401 0.999 . S
H405 C386 0.913 . S
H406 C424 0.951 . S
H407 C426 0.951 . S
H408 C428 0.950 . S
H409 C429 0.950 . S
H410 C431 0.950 . S
H411 C434 0.950 . S
H412 C435 0.950 . S
H413 C437 0.950 . S
H414 C438 0.950 . S
H415 C439 0.949 1_554 S
H416 C441 0.951 . S
H417 C443 0.950 . S
H418 C444 0.950 . S
H419 C446 0.950 . S
H420 C449 0.950 . S
H421 C450 0.950 . S
H422 C452 0.950 . S
H423 C453 0.950 . S
C424 H406 0.951 . S
C424 C425 1.366 . S
C424 C426 1.388 . S
C425 C424 1.366 . S
C425 C429 1.385 . S
C426 H407 0.951 . S
C426 C424 1.388 . S
C426 C427 1.366 . S
C427 C426 1.366 . S
C427 C428 1.414 . S
C427 C430 1.499 . S
C428 H408 0.950 . S
C428 C427 1.414 . S
C428 C429 1.374 . S
C429 H409 0.950 . S
C429 C425 1.385 . S
C429 C428 1.374 . S
C430 C427 1.499 . S
C430 C431 1.373 . S
C430 C432 1.389 . S
C431 H410 0.950 . S
C431 C430 1.373 . S
C431 C447 1.377 . S
C432 C430 1.389 . S
C432 C433 1.524 . S
C432 C446 1.377 . S
C433 C432 1.524 . S
C433 C434 1.397 . S
C433 C438 1.363 . S
C434 H411 0.950 . S
C434 C433 1.397 . S
C434 C435 1.334 . S
C435 H412 0.950 . S
C435 C434 1.334 . S
C435 C436 1.287 . S
C436 C435 1.287 . S
C436 C437 1.524 . S
C436 H455 0.913 . S
C437 H413 0.950 . S
C437 C436 1.524 . S
C437 C438 1.415 . S
C438 H414 0.950 . S
C438 C433 1.363 . S
C438 C437 1.415 . S
C439 H415 0.949 1_556 S
C439 C440 1.366 . S
C439 C441 1.388 . S
C440 C439 1.366 . S
C440 C444 1.385 . S
C441 H416 0.951 . S
C441 C439 1.388 . S
C441 C442 1.366 . S
C442 C441 1.366 . S
C442 C443 1.414 . S
C442 C445 1.499 . S
C443 H417 0.950 . S
C443 C442 1.414 . S
C443 C444 1.374 . S
C444 H418 0.950 . S
C444 C440 1.385 . S
C444 C443 1.374 . S
C445 C442 1.499 . S
C445 C446 1.373 . S
C445 C447 1.389 . S
C446 H419 0.950 . S
C446 C432 1.377 . S
C446 C445 1.373 . S
C447 C431 1.377 . S
C447 C445 1.389 . S
C447 C448 1.524 1_556 S
C448 C447 1.524 1_554 S
C448 C449 1.397 . S
C448 C453 1.363 . S
C449 H420 0.950 . S
C449 C448 1.397 . S
C449 C450 1.334 . S
C450 H421 0.950 . S
C450 C449 1.334 . S
C450 C451 1.287 . S
C451 C450 1.287 . S
C451 C452 1.524 . S
C451 H454 0.999 . S
C452 H422 0.950 . S
C452 C451 1.524 . S
C452 C453 1.415 . S
C453 H423 0.950 . S
C453 C448 1.363 . S
C453 C452 1.415 . S
H454 C451 0.999 . S
H455 C436 0.913 . S
C75 C8 1.014 1_655 S
C90 C35 1.046 . S
C125 C21 1.046 . S
C140 C50 1.013 1_565 S
C175 C7 1.046 . S
C190 C36 1.014 . S
C225 C22 1.012 . S
C240 C49 1.046 . S
C275 C27 1.391 . S
C290 C13 1.390 . S
C325 C25 1.437 . S
C340 C39 1.437 . S
C375 C55 1.390 . S
C390 C41 1.391 . S
C425 C53 1.436 . S
C440 C11 1.436 . S
