# Generated by pormake.
# Topology lcy-e, (6)-cn, num edge types: 1
# Building blocks:
#     Node 0, Type 0, BuildingBlock: BETDIP_clean_sbu_0, # of connection points: 6
#     Node 1, Type 0, BuildingBlock: BETDIP_clean_sbu_0, # of connection points: 6
#     Node 2, Type 0, BuildingBlock: BETDIP_clean_sbu_0, # of connection points: 6
#     Node 3, Type 0, BuildingBlock: BETDIP_clean_sbu_0, # of connection points: 6
#     Node 4, Type 0, BuildingBlock: BETDIP_clean_sbu_0, # of connection points: 6
#     Node 5, Type 0, BuildingBlock: BETDIP_clean_sbu_0, # of connection points: 6
#     Node 6, Type 0, BuildingBlock: BETDIP_clean_sbu_0, # of connection points: 6
#     Node 7, Type 0, BuildingBlock: BETDIP_clean_sbu_0, # of connection points: 6
#     Node 8, Type 0, BuildingBlock: BETDIP_clean_sbu_0, # of connection points: 6
#     Node 9, Type 0, BuildingBlock: BETDIP_clean_sbu_0, # of connection points: 6
#     Node 10, Type 0, BuildingBlock: BETDIP_clean_sbu_0, # of connection points: 6
#     Node 11, Type 0, BuildingBlock: BETDIP_clean_sbu_0, # of connection points: 6
#     Edge 12, Type (0, 0), BuildingBlock: UVAHIK_clean_linker_0, # of connection points: 2
#     Edge 13, Type (0, 0), BuildingBlock: UVAHIK_clean_linker_0, # of connection points: 2
#     Edge 14, Type (0, 0), BuildingBlock: UVAHIK_clean_linker_0, # of connection points: 2
#     Edge 15, Type (0, 0), BuildingBlock: UVAHIK_clean_linker_0, # of connection points: 2
#     Edge 16, Type (0, 0), BuildingBlock: UVAHIK_clean_linker_0, # of connection points: 2
#     Edge 17, Type (0, 0), BuildingBlock: UVAHIK_clean_linker_0, # of connection points: 2
#     Edge 18, Type (0, 0), BuildingBlock: UVAHIK_clean_linker_0, # of connection points: 2
#     Edge 19, Type (0, 0), BuildingBlock: UVAHIK_clean_linker_0, # of connection points: 2
#     Edge 20, Type (0, 0), BuildingBlock: UVAHIK_clean_linker_0, # of connection points: 2
#     Edge 21, Type (0, 0), BuildingBlock: UVAHIK_clean_linker_0, # of connection points: 2
#     Edge 22, Type (0, 0), BuildingBlock: UVAHIK_clean_linker_0, # of connection points: 2
#     Edge 23, Type (0, 0), BuildingBlock: UVAHIK_clean_linker_0, # of connection points: 2
#     Edge 24, Type (0, 0), BuildingBlock: UVAHIK_clean_linker_0, # of connection points: 2
#     Edge 25, Type (0, 0), BuildingBlock: UVAHIK_clean_linker_0, # of connection points: 2
#     Edge 26, Type (0, 0), BuildingBlock: UVAHIK_clean_linker_0, # of connection points: 2
#     Edge 27, Type (0, 0), BuildingBlock: UVAHIK_clean_linker_0, # of connection points: 2
#     Edge 28, Type (0, 0), BuildingBlock: UVAHIK_clean_linker_0, # of connection points: 2
#     Edge 29, Type (0, 0), BuildingBlock: UVAHIK_clean_linker_0, # of connection points: 2
#     Edge 30, Type (0, 0), BuildingBlock: UVAHIK_clean_linker_0, # of connection points: 2
#     Edge 31, Type (0, 0), BuildingBlock: UVAHIK_clean_linker_0, # of connection points: 2
#     Edge 32, Type (0, 0), BuildingBlock: UVAHIK_clean_linker_0, # of connection points: 2
#     Edge 33, Type (0, 0), BuildingBlock: UVAHIK_clean_linker_0, # of connection points: 2
#     Edge 34, Type (0, 0), BuildingBlock: UVAHIK_clean_linker_0, # of connection points: 2
#     Edge 35, Type (0, 0), BuildingBlock: UVAHIK_clean_linker_0, # of connection points: 2
#     Edge 36, Type (0, 0), BuildingBlock: UVAHIK_clean_linker_0, # of connection points: 2
#     Edge 37, Type (0, 0), BuildingBlock: UVAHIK_clean_linker_0, # of connection points: 2
#     Edge 38, Type (0, 0), BuildingBlock: UVAHIK_clean_linker_0, # of connection points: 2
#     Edge 39, Type (0, 0), BuildingBlock: UVAHIK_clean_linker_0, # of connection points: 2
#     Edge 40, Type (0, 0), BuildingBlock: UVAHIK_clean_linker_0, # of connection points: 2
#     Edge 41, Type (0, 0), BuildingBlock: UVAHIK_clean_linker_0, # of connection points: 2
#     Edge 42, Type (0, 0), BuildingBlock: UVAHIK_clean_linker_0, # of connection points: 2
#     Edge 43, Type (0, 0), BuildingBlock: UVAHIK_clean_linker_0, # of connection points: 2
#     Edge 44, Type (0, 0), BuildingBlock: UVAHIK_clean_linker_0, # of connection points: 2
#     Edge 45, Type (0, 0), BuildingBlock: UVAHIK_clean_linker_0, # of connection points: 2
#     Edge 46, Type (0, 0), BuildingBlock: UVAHIK_clean_linker_0, # of connection points: 2
#     Edge 47, Type (0, 0), BuildingBlock: UVAHIK_clean_linker_0, # of connection points: 2
# Relax obj value: 0.204
# Max RMSD: 0.293
# Mean RMSD: 0.271
data_MOF--net-lcy-e--node1-BETDIP_clean_sbu_0--edge1-UVAHIK_clean_linker_0
_symmetry_space_group_name_H-M    P1
_symmetry_Int_Tables_number       1
_symmetry_cell_setting            triclinic
loop_
_symmetry_equiv_pos_as_xyz
'x, y, z'
_cell_length_a     51.38655
_cell_length_b     55.957963
_cell_length_c     56.037516
_cell_angle_alpha  91.023053
_cell_angle_beta   90.65336
_cell_angle_gamma 88.537619
loop_
_atom_site_label
_atom_site_type_symbol
_atom_site_fract_x
_atom_site_fract_y
_atom_site_fract_z
_atom_type_partial_charge
Tb0 Tb 0.15207 0.24632 0.55147 0.0
Tb1 Tb 0.13273 0.27809 0.512 0.0
C2 C 0.156 0.21962 0.58705 0.0
C3 C 0.14488 0.19682 0.59442 0.0
C4 C 0.11789 0.19323 0.59394 0.0
C5 C 0.10789 0.17168 0.60165 0.0
C6 C 0.12468 0.15323 0.60975 0.0
C7 C 0.15168 0.15675 0.60981 0.0
C8 C 0.16164 0.17835 0.60231 0.0
C9 C 0.18159 0.24527 0.5135 0.0
C10 C 0.10465 0.22984 0.51728 0.0
C11 C 0.12812 0.3028 0.47496 0.0
C12 C 0.14337 0.31604 0.45745 0.0
C13 C 0.16099 0.30414 0.44197 0.0
C14 C 0.17167 0.31612 0.42281 0.0
C15 C 0.16501 0.34027 0.41867 0.0
C16 C 0.14852 0.35243 0.43499 0.0
C17 C 0.13775 0.34042 0.45406 0.0
C18 C 0.10636 0.28131 0.55262 0.0
C19 C 0.17728 0.29605 0.54696 0.0
O20 O 0.14009 0.23824 0.58595 0.0
O21 O 0.17195 0.21834 0.56903 0.0
O22 O 0.15691 0.24627 0.51327 0.0
O23 O 0.19005 0.24334 0.53526 0.0
O24 O 0.11868 0.22637 0.537 0.0
O25 O 0.10815 0.24833 0.50354 0.0
O26 O 0.13103 0.2795 0.47481 0.0
O27 O 0.12583 0.31182 0.4966 0.0
O28 O 0.13029 0.27853 0.54974 0.0
O29 O 0.09579 0.28465 0.53176 0.0
O30 O 0.16841 0.29562 0.52462 0.0
O31 O 0.17038 0.27967 0.56235 0.0
H32 H 0.10447 0.20708 0.58773 0.0
H33 H 0.08702 0.1694 0.60118 0.0
H34 H 0.16509 0.14298 0.61619 0.0
H35 H 0.18251 0.18072 0.60285 0.0
H36 H 0.16571 0.28531 0.44399 0.0
H37 H 0.18413 0.30609 0.41058 0.0
H38 H 0.14337 0.37114 0.43269 0.0
H39 H 0.12418 0.35001 0.46564 0.0
Tb40 Tb 0.00892 0.89724 0.7375 0.0
Tb41 Tb 0.05436 0.90744 0.77101 0.0
C42 C 0.96868 0.90117 0.71179 0.0
C43 C 0.96231 0.90688 0.68668 0.0
C44 C 0.9457 0.92653 0.68178 0.0
C45 C 0.93854 0.93185 0.65829 0.0
C46 C 0.9477 0.91749 0.63916 0.0
C47 C 0.96466 0.89802 0.64405 0.0
C48 C 0.97197 0.8928 0.66756 0.0
C49 C 0.04913 0.86799 0.73214 0.0
C50 C 0.0486 0.93883 0.72558 0.0
C51 C 0.09595 0.90649 0.79518 0.0
C52 C 0.11553 0.89073 0.80669 0.0
C53 C 0.10962 0.86815 0.81539 0.0
C54 C 0.12889 0.85435 0.8271 0.0
C55 C 0.15433 0.86289 0.83018 0.0
C56 C 0.16006 0.88533 0.82095 0.0
C57 C 0.14089 0.89903 0.80934 0.0
C58 C 0.01167 0.93455 0.77735 0.0
C59 C 0.01471 0.86813 0.78409 0.0
O60 O 0.97778 0.9187 0.72496 0.0
O61 O 0.98087 0.88076 0.71583 0.0
O62 O 0.05012 0.89009 0.73697 0.0
O63 O 0.0253 0.86241 0.72749 0.0
O64 O 0.02738 0.92701 0.71967 0.0
O65 O 0.06305 0.93343 0.74442 0.0
O66 O 0.09513 0.90581 0.77184 0.0
O67 O 0.07276 0.90836 0.80466 0.0
O68 O 0.01321 0.91288 0.77172 0.0
O69 O 0.035 0.94161 0.78226 0.0
O70 O 0.03968 0.87347 0.78365 0.0
O71 O 0.99756 0.87907 0.76983 0.0
H72 H 0.93793 0.93761 0.69621 0.0
H73 H 0.92519 0.94678 0.65516 0.0
H74 H 0.97223 0.88676 0.62968 0.0
H75 H 0.98495 0.8776 0.67071 0.0
H76 H 0.09015 0.86135 0.81335 0.0
H77 H 0.12386 0.83705 0.8338 0.0
H78 H 0.17921 0.89273 0.82332 0.0
H79 H 0.14581 0.91642 0.80274 0.0
Tb80 Tb 0.377 0.78553 0.03786 0.0
Tb81 Tb 0.40024 0.7576 0.99636 0.0
C82 C 0.3699 0.81 0.07538 0.0
C83 C 0.38044 0.8321 0.08602 0.0
C84 C 0.40715 0.83689 0.08557 0.0
C85 C 0.41646 0.85814 0.09569 0.0
C86 C 0.39924 0.87505 0.10637 0.0
C87 C 0.37249 0.87021 0.10644 0.0
C88 C 0.36324 0.84896 0.09645 0.0
C89 C 0.34804 0.78526 0.99911 0.0
C90 C 0.42221 0.8079 1.00672 0.0
C91 C 0.40968 0.73596 0.95747 0.0
C92 C 0.39972 0.71952 0.93891 0.0
C93 C 0.37312 0.71489 0.93614 0.0
C94 C 0.36432 0.70128 0.91648 0.0
C95 C 0.38197 0.69222 0.89923 0.0
C96 C 0.40862 0.69667 0.90254 0.0
C97 C 0.41734 0.71006 0.92216 0.0
C98 C 0.42639 0.75573 0.03742 0.0
C99 C 0.35697 0.73411 0.02813 0.0
O100 O 0.38565 0.79121 0.07415 0.0
O101 O 0.35595 0.81275 0.0559 0.0
O102 O 0.3726 0.78678 0.99965 0.0
O103 O 0.33914 0.78564 0.02065 0.0
O104 O 0.40888 0.80843 0.02683 0.0
O105 O 0.41986 0.79053 0.99075 0.0
O106 O 0.39822 0.75707 0.95909 0.0
O107 O 0.41598 0.72726 0.97835 0.0
O108 O 0.40234 0.75565 0.0341 0.0
O109 O 0.43754 0.7553 0.01675 0.0
O110 O 0.36815 0.73489 1.00691 0.0
O111 O 0.36027 0.75105 0.04468 0.0
H112 H 0.42083 0.82421 0.07748 0.0
H113 H 0.43719 0.86113 0.09547 0.0
H114 H 0.35855 0.88296 0.11403 0.0
H115 H 0.34255 0.84572 0.09678 0.0
H116 H 0.35918 0.7222 0.94885 0.0
H117 H 0.3437 0.69802 0.91472 0.0
H118 H 0.42282 0.69056 0.88952 0.0
H119 H 0.4379 0.71372 0.92382 0.0
Tb120 Tb 0.51272 0.13468 0.24236 0.0
Tb121 Tb 0.46571 0.12467 0.27217 0.0
C122 C 0.55407 0.13362 0.21834 0.0
C123 C 0.56334 0.12416 0.19514 0.0
C124 C 0.5462 0.11453 0.17803 0.0
C125 C 0.55552 0.10634 0.15582 0.0
C126 C 0.58215 0.10764 0.15037 0.0
C127 C 0.59913 0.11735 0.16768 0.0
C128 C 0.58981 0.12549 0.18979 0.0
C129 C 0.47367 0.16529 0.23692 0.0
C130 C 0.47331 0.09373 0.22587 0.0
C131 C 0.42357 0.12596 0.29488 0.0
C132 C 0.40489 0.14172 0.30796 0.0
C133 C 0.37829 0.13702 0.30584 0.0
C134 C 0.36 0.14975 0.31968 0.0
C135 C 0.36786 0.16759 0.33605 0.0
C136 C 0.39456 0.17282 0.33757 0.0
C137 C 0.41291 0.15999 0.32369 0.0
C138 C 0.50676 0.09555 0.27843 0.0
C139 C 0.50545 0.16303 0.29018 0.0
O140 O 0.54878 0.11796 0.23448 0.0
O141 O 0.53653 0.1509 0.21752 0.0
O142 O 0.4715 0.143 0.23946 0.0
O143 O 0.49798 0.17038 0.23555 0.0
O144 O 0.49596 0.10408 0.22292 0.0
O145 O 0.4571 0.10045 0.24294 0.0
O146 O 0.42491 0.12856 0.27177 0.0
O147 O 0.44641 0.12169 0.30473 0.0
O148 O 0.5067 0.11761 0.27499 0.0
O149 O 0.48293 0.0895 0.2817 0.0
O150 O 0.48059 0.15761 0.28823 0.0
O151 O 0.52309 0.15286 0.27587 0.0
H152 H 0.52564 0.11346 0.18179 0.0
H153 H 0.54193 0.09878 0.14303 0.0
H154 H 0.61964 0.11905 0.16401 0.0
H155 H 0.6033 0.13305 0.20269 0.0
H156 H 0.37167 0.1229 0.29393 0.0
H157 H 0.33978 0.14488 0.31819 0.0
H158 H 0.40134 0.18666 0.34971 0.0
H159 H 0.43334 0.16399 0.32562 0.0
Tb160 Tb 0.6299 0.25083 0.55899 0.0
Tb161 Tb 0.64381 0.29378 0.52491 0.0
C162 C 0.63327 0.21141 0.57953 0.0
C163 C 0.6398 0.20296 0.60398 0.0
C164 C 0.66587 0.20098 0.61189 0.0
C165 C 0.67205 0.19209 0.6345 0.0
C166 C 0.65239 0.18488 0.64989 0.0
C167 C 0.62631 0.187 0.64202 0.0
C168 C 0.62011 0.19584 0.61934 0.0
C169 C 0.60631 0.29185 0.57188 0.0
C170 C 0.67556 0.28654 0.57273 0.0
C171 C 0.64559 0.33171 0.5016 0.0
C172 C 0.63109 0.35232 0.49117 0.0
C173 C 0.63883 0.37539 0.49782 0.0
C174 C 0.62849 0.39547 0.48631 0.0
C175 C 0.61006 0.39306 0.46775 0.0
C176 C 0.60137 0.37002 0.46172 0.0
C177 C 0.61192 0.34977 0.47323 0.0
C178 C 0.66979 0.25249 0.51941 0.0
C179 C 0.59593 0.26095 0.5126 0.0
O180 O 0.65237 0.22052 0.56754 0.0
O181 O 0.61109 0.22334 0.57657 0.0
O182 O 0.62177 0.28748 0.55523 0.0
O183 O 0.60373 0.2719 0.583 0.0
O184 O 0.6651 0.26534 0.57556 0.0
O185 O 0.66814 0.30144 0.55573 0.0
O186 O 0.64716 0.33099 0.52496 0.0
O187 O 0.6437 0.31042 0.49154 0.0
O188 O 0.64656 0.25592 0.52504 0.0
O189 O 0.67944 0.27302 0.51443 0.0
O190 O 0.60551 0.2828 0.51198 0.0
O191 O 0.60445 0.24463 0.52806 0.0
H192 H 0.68165 0.20601 0.60051 0.0
H193 H 0.69237 0.19036 0.63966 0.0
H194 H 0.61059 0.1819 0.65343 0.0
H195 H 0.59987 0.19696 0.61377 0.0
H196 H 0.65364 0.37787 0.51151 0.0
H197 H 0.6353 0.41294 0.49168 0.0
H198 H 0.58723 0.36757 0.44746 0.0
H199 H 0.60564 0.33219 0.46764 0.0
Tb200 Tb 0.98128 0.40688 0.7832 0.0
Tb201 Tb 0.01544 0.39013 0.82457 0.0
C202 C 0.95473 0.41009 0.74538 0.0
C203 C 0.93305 0.39753 0.73386 0.0
C204 C 0.93 0.39847 0.70904 0.0
C205 C 0.90903 0.38742 0.69771 0.0
C206 C 0.89072 0.37518 0.71105 0.0
C207 C 0.89419 0.3738 0.73593 0.0
C208 C 0.91516 0.38496 0.74726 0.0
C209 C 0.97906 0.43454 0.82135 0.0
C210 C 0.96389 0.36329 0.8155 0.0
C211 C 0.04093 0.38632 0.86304 0.0
C212 C 0.05442 0.40014 0.88207 0.0
C213 C 0.04092 0.41687 0.89671 0.0
C214 C 0.05272 0.42625 0.91738 0.0
C215 C 0.07824 0.41908 0.92391 0.0
C216 C 0.09217 0.40346 0.90843 0.0
C217 C 0.08035 0.39405 0.88784 0.0
C218 C 0.02041 0.3657 0.78363 0.0
C219 C 0.03396 0.43217 0.79209 0.0
O220 O 0.97684 0.39804 0.74686 0.0
O221 O 0.9493 0.42207 0.76506 0.0
O222 O 0.98078 0.41191 0.82136 0.0
O223 O 0.97639 0.44196 0.79968 0.0
O224 O 0.96084 0.37525 0.79539 0.0
O225 O 0.98284 0.36774 0.83085 0.0
O226 O 0.01554 0.38873 0.86175 0.0
O227 O 0.05167 0.3845 0.84196 0.0
O228 O 0.01677 0.38765 0.78681 0.0
O229 O 0.02378 0.35618 0.80443 0.0
O230 O 0.03401 0.42308 0.81381 0.0
O231 O 0.01659 0.42586 0.77562 0.0
H232 H 0.94372 0.40797 0.69841 0.0
H233 H 0.90712 0.38849 0.67849 0.0
H234 H 0.88032 0.36469 0.74672 0.0
H235 H 0.91716 0.38411 0.76648 0.0
H236 H 0.02085 0.42192 0.89283 0.0
H237 H 0.04134 0.43814 0.92887 0.0
H238 H 0.11204 0.39795 0.91258 0.0
H239 H 0.09117 0.38115 0.87694 0.0
Tb240 Tb 0.89297 0.78083 0.0523 0.0
Tb241 Tb 0.88648 0.73717 0.02059 0.0
C242 C 0.89493 0.82141 0.07206 0.0
C243 C 0.88613 0.83142 0.09527 0.0
C244 C 0.86104 0.82727 0.1038 0.0
C245 C 0.85305 0.83692 0.12581 0.0
C246 C 0.87002 0.85076 0.13992 0.0
C247 C 0.89525 0.85458 0.13141 0.0
C248 C 0.90315 0.84508 0.10931 0.0
C249 C 0.92075 0.7426 0.06452 0.0
C250 C 0.85179 0.7447 0.06802 0.0
C251 C 0.88551 0.69447 1.00559 0.0
C252 C 0.90156 0.67517 0.99406 0.0
C253 C 0.91577 0.65864 0.00805 0.0
C254 C 0.92766 0.63834 0.99755 0.0
C255 C 0.92563 0.63404 0.97281 0.0
C256 C 0.91216 0.65098 0.95873 0.0
C257 C 0.90016 0.67123 0.96924 0.0
C258 C 0.85841 0.77523 0.00825 0.0
C259 C 0.92402 0.77456 1.00342 0.0
O260 O 0.87672 0.81528 0.05677 0.0
O261 O 0.91411 0.80559 0.07289 0.0
O262 O 0.9165 0.74966 0.04362 0.0
O263 O 0.91051 0.75787 0.07954 0.0
O264 O 0.8606 0.76649 0.07135 0.0
O265 O 0.8599 0.7306 0.05017 0.0
O266 O 0.89165 0.70072 0.02754 0.0
O267 O 0.8781 0.71282 0.99273 0.0
O268 O 0.8634 0.76823 0.02901 0.0
O269 O 0.86762 0.75946 0.99312 0.0
O270 O 0.92076 0.75125 1.00438 0.0
O271 O 0.91246 0.78957 0.01883 0.0
H272 H 0.84751 0.81664 0.09344 0.0
H273 H 0.83339 0.83382 0.13155 0.0
H274 H 0.90906 0.86474 0.14192 0.0
H275 H 0.92265 0.84834 0.1032 0.0
H276 H 0.91704 0.66096 0.02726 0.0
H277 H 0.93814 0.62581 0.00887 0.0
H278 H 0.90994 0.64809 0.93966 0.0
H279 H 0.88902 0.68334 0.95798 0.0
Tb280 Tb 0.51258 0.6479 0.31209 0.0
Tb281 Tb 0.55703 0.62667 0.28414 0.0
C282 C 0.4699 0.65895 0.33102 0.0
C283 C 0.45876 0.65187 0.35402 0.0
C284 C 0.45742 0.62757 0.35987 0.0
C285 C 0.44717 0.62084 0.38162 0.0
C286 C 0.43826 0.6382 0.39819 0.0
C287 C 0.43991 0.66252 0.39257 0.0
C288 C 0.44996 0.66928 0.3706 0.0
C289 C 0.55912 0.66372 0.32498 0.0
C290 C 0.54429 0.60421 0.33269 0.0
C291 C 0.59861 0.61805 0.26212 0.0
C292 C 0.61628 0.63023 0.24626 0.0
C293 C 0.61351 0.65479 0.24193 0.0
C294 C 0.6309 0.6659 0.22686 0.0
C295 C 0.65121 0.65256 0.21588 0.0
C296 C 0.65376 0.62795 0.22038 0.0
C297 C 0.63644 0.61692 0.2354 0.0
C298 C 0.51281 0.60329 0.28101 0.0
C299 C 0.52428 0.66961 0.26139 0.0
O300 O 0.47286 0.64174 0.31507 0.0
O301 O 0.49006 0.67283 0.33219 0.0
O302 O 0.55113 0.65934 0.30405 0.0
O303 O 0.54057 0.65908 0.33952 0.0
O304 O 0.52083 0.61429 0.3306 0.0
O305 O 0.56341 0.61036 0.31872 0.0
O306 O 0.59777 0.62604 0.28425 0.0
O307 O 0.57553 0.61343 0.25333 0.0
O308 O 0.5159 0.62538 0.28165 0.0
O309 O 0.53559 0.59281 0.28096 0.0
O310 O 0.54465 0.65471 0.2598 0.0
O311 O 0.50895 0.67039 0.28036 0.0
H312 H 0.46437 0.61363 0.3477 0.0
H313 H 0.44649 0.60199 0.3856 0.0
H314 H 0.43307 0.67627 0.40499 0.0
H315 H 0.45091 0.6881 0.36657 0.0
H316 H 0.59797 0.66532 0.25019 0.0
H317 H 0.62829 0.68484 0.22361 0.0
H318 H 0.66942 0.61723 0.21257 0.0
H319 H 0.63889 0.59796 0.23866 0.0
Tb320 Tb 0.26672 0.47622 0.15925 0.0
Tb321 Tb 0.22244 0.50894 0.175 0.0
C322 C 0.30729 0.45017 0.15821 0.0
C323 C 0.31502 0.42566 0.1653 0.0
C324 C 0.31212 0.41779 0.1888 0.0
C325 C 0.3205 0.39472 0.19512 0.0
C326 C 0.33202 0.37911 0.17809 0.0
C327 C 0.3343 0.38691 0.15448 0.0
C328 C 0.32596 0.40993 0.14821 0.0
C329 C 0.22412 0.47188 0.13365 0.0
C330 C 0.23078 0.46217 0.20349 0.0
C331 C 0.18177 0.5349 0.17774 0.0
C332 C 0.16496 0.55132 0.16348 0.0
C333 C 0.14722 0.5426 0.14629 0.0
C334 C 0.12909 0.5581 0.13533 0.0
C335 C 0.12809 0.58257 0.14153 0.0
C336 C 0.14642 0.59135 0.1581 0.0
C337 C 0.16458 0.57591 0.16896 0.0
C338 C 0.26726 0.51378 0.19827 0.0
C339 C 0.25771 0.52364 0.13192 0.0
O340 O 0.30216 0.46579 0.17532 0.0
O341 O 0.29077 0.45184 0.14035 0.0
O342 O 0.225 0.47554 0.15598 0.0
O343 O 0.24734 0.46751 0.12579 0.0
O344 O 0.25205 0.4578 0.19073 0.0
O345 O 0.21483 0.48045 0.19916 0.0
O346 O 0.18184 0.51211 0.17196 0.0
O347 O 0.20495 0.5422 0.18388 0.0
O348 O 0.26381 0.50997 0.1764 0.0
O349 O 0.24468 0.51671 0.20818 0.0
O350 O 0.23403 0.52412 0.14104 0.0
O351 O 0.27579 0.50804 0.13928 0.0
H352 H 0.30378 0.42954 0.20239 0.0
H353 H 0.31869 0.38938 0.21349 0.0
H354 H 0.34269 0.37524 0.14083 0.0
H355 H 0.3283 0.41554 0.12996 0.0
H356 H 0.14666 0.52371 0.14188 0.0
H357 H 0.1151 0.55072 0.12281 0.0
H358 H 0.1464 0.61016 0.16302 0.0
H359 H 0.17782 0.58313 0.18227 0.0
Tb360 Tb 0.76979 0.05804 0.91223 0.0
Tb361 Tb 0.72616 0.02398 0.90128 0.0
C362 C 0.80764 0.08566 0.91017 0.0
C363 C 0.81344 0.1092 0.90003 0.0
C364 C 0.81382 0.11271 0.87522 0.0
C365 C 0.82115 0.13464 0.86609 0.0
C366 C 0.82808 0.15358 0.88153 0.0
C367 C 0.82715 0.15019 0.90631 0.0
C368 C 0.82004 0.12822 0.91543 0.0
C369 C 0.73108 0.06054 0.9423 0.0
C370 C 0.72795 0.06964 0.87037 0.0
C371 C 0.6865 0.99859 0.9031 0.0
C372 C 0.67068 0.98407 0.91907 0.0
C373 C 0.65337 0.99488 0.93557 0.0
C374 C 0.63495 0.98126 0.9471 0.0
C375 C 0.63334 0.95657 0.94231 0.0
C376 C 0.6517 0.94561 0.92691 0.0
C377 C 0.67004 0.95921 0.91536 0.0
C378 C 0.76782 0.01931 0.87377 0.0
C379 C 0.76953 0.00985 0.93942 0.0
O380 O 0.80379 0.06794 0.89511 0.0
O381 O 0.79139 0.08568 0.92799 0.0
O382 O 0.72889 0.05753 0.91992 0.0
O383 O 0.75519 0.06397 0.94802 0.0
O384 O 0.74996 0.07505 0.8816 0.0
O385 O 0.71411 0.05116 0.87632 0.0
O386 O 0.68609 0.0218 0.90661 0.0
O387 O 0.70957 0.99018 0.897 0.0
O388 O 0.76692 0.0242 0.89558 0.0
O389 O 0.74439 0.01456 0.86651 0.0
O390 O 0.74439 0.00928 0.9338 0.0
O391 O 0.7848 0.02588 0.92992 0.0
H392 H 0.80881 0.09844 0.86282 0.0
H393 H 0.82146 0.13678 0.84692 0.0
H394 H 0.83269 0.16431 0.91868 0.0
H395 H 0.82014 0.12595 0.9346 0.0
H396 H 0.65319 0.01404 0.93876 0.0
H397 H 0.62105 0.99032 0.95874 0.0
H398 H 0.65135 0.92657 0.92315 0.0
H399 H 0.68299 0.95038 0.90268 0.0
Tb400 Tb 0.75576 0.97709 0.40658 0.0
Tb401 Tb 0.80017 0.01023 0.3958 0.0
C402 C 0.71503 0.95282 0.40396 0.0
C403 C 0.70686 0.92839 0.39728 0.0
C404 C 0.72132 0.91364 0.3815 0.0
C405 C 0.7127 0.89073 0.37518 0.0
C406 C 0.68953 0.88205 0.38467 0.0
C407 C 0.67528 0.89694 0.40058 0.0
C408 C 0.68385 0.9198 0.40678 0.0
C409 C 0.79825 0.96925 0.43179 0.0
C410 C 0.7937 0.96611 0.3618 0.0
C411 C 0.84044 0.03516 0.39726 0.0
C412 C 0.85736 0.0497 0.41331 0.0
C413 C 0.87834 0.03905 0.42594 0.0
C414 C 0.89687 0.05314 0.4377 0.0
C415 C 0.89503 0.07828 0.43702 0.0
C416 C 0.8734 0.08887 0.42529 0.0
C417 C 0.8549 0.07479 0.41352 0.0
C418 C 0.75579 0.01779 0.37215 0.0
C419 C 0.76305 0.02271 0.43875 0.0
O420 O 0.72309 0.96625 0.38675 0.0
O421 O 0.72933 0.95492 0.42332 0.0
O422 O 0.7974 0.97536 0.41025 0.0
O423 O 0.77515 0.96401 0.43863 0.0
O424 O 0.77243 0.96079 0.37373 0.0
O425 O 0.80883 0.98383 0.3684 0.0
O426 O 0.84071 0.01194 0.40001 0.0
O427 O 0.81713 0.04372 0.392 0.0
O428 O 0.75878 0.01196 0.39347 0.0
O429 O 0.77853 0.02151 0.36329 0.0
O430 O 0.78739 0.02204 0.43129 0.0
O431 O 0.74541 0.0087 0.4286 0.0
H432 H 0.73923 0.91983 0.37407 0.0
H433 H 0.72434 0.87972 0.36309 0.0
H434 H 0.65719 0.89109 0.40799 0.0
H435 H 0.67234 0.9309 0.41893 0.0
H436 H 0.88108 0.01979 0.42595 0.0
H437 H 0.91332 0.0443 0.44635 0.0
H438 H 0.87102 0.10813 0.42471 0.0
H439 H 0.83916 0.08364 0.40383 0.0
Tb440 Tb 0.30751 0.52756 0.65593 0.0
Tb441 Tb 0.27025 0.569 0.64878 0.0
C442 C 0.33033 0.48741 0.65905 0.0
C443 C 0.35527 0.47659 0.65059 0.0
C444 C 0.35822 0.46865 0.62678 0.0
C445 C 0.38168 0.45798 0.61917 0.0
C446 C 0.40272 0.45493 0.6352 0.0
C447 C 0.39978 0.46302 0.65896 0.0
C448 C 0.37631 0.47361 0.66657 0.0
C449 C 0.31935 0.56718 0.67975 0.0
C450 C 0.32081 0.5624 0.61542 0.0
C451 C 0.25166 0.61081 0.64507 0.0
C452 C 0.24027 0.63084 0.6591 0.0
C453 C 0.24319 0.65405 0.65079 0.0
C454 C 0.23226 0.67365 0.66311 0.0
C455 C 0.21809 0.67046 0.68408 0.0
C456 C 0.21545 0.6471 0.6926 0.0
C457 C 0.22655 0.62741 0.68024 0.0
C458 C 0.2578 0.52914 0.62603 0.0
C459 C 0.25605 0.53387 0.68725 0.0
O460 O 0.31262 0.49248 0.64282 0.0
O461 O 0.33188 0.50425 0.67549 0.0
O462 O 0.29698 0.55909 0.67631 0.0
O463 O 0.33626 0.55216 0.67058 0.0
O464 O 0.32669 0.54147 0.62491 0.0
O465 O 0.30059 0.57564 0.62268 0.0
O466 O 0.27634 0.60587 0.64907 0.0
O467 O 0.23785 0.59159 0.64214 0.0
O468 O 0.28019 0.53729 0.62898 0.0
O469 O 0.24085 0.54463 0.6343 0.0
O470 O 0.25565 0.55685 0.68226 0.0
O471 O 0.27278 0.51871 0.67669 0.0
H472 H 0.34234 0.47044 0.614 0.0
H473 H 0.3831 0.45163 0.60086 0.0
H474 H 0.41566 0.46123 0.67172 0.0
H475 H 0.37461 0.47941 0.68505 0.0
H476 H 0.25374 0.65702 0.6345 0.0
H477 H 0.23433 0.69129 0.65581 0.0
H478 H 0.20484 0.64407 0.70881 0.0
H479 H 0.22429 0.6096 0.68706 0.0
C480 C 0.20503 0.33153 0.53988 0.0
C481 C 0.19135 0.31739 0.55569 0.0
C482 C 0.21552 0.35326 0.54762 0.0
C483 C 0.22786 0.39105 0.60307 0.0
H484 H 0.22923 0.44217 0.5573 0.0
C485 C 0.2297 0.49331 0.62568 0.0
C486 C 0.25201 0.5046 0.61768 0.0
C487 C 0.22446 0.46984 0.61834 0.0
C488 C 0.22907 0.42798 0.5702 0.0
H489 H 0.17805 0.31495 0.59209 0.0
H490 H 0.19502 0.35305 0.6053 0.0
H491 H 0.21624 0.4024 0.54422 0.0
H492 H 0.2862 0.50042 0.59561 0.0
H493 H 0.27637 0.45958 0.58192 0.0
H494 H 0.2392 0.41745 0.62924 0.0
C495 C 0.19876 0.3472 0.58713 0.0
C496 C 0.22185 0.40503 0.56272 0.0
C497 C 0.18885 0.32523 0.57953 0.0
C498 C 0.26885 0.4921 0.602 0.0
C499 C 0.26325 0.46882 0.59418 0.0
C500 C 0.23445 0.41416 0.61061 0.0
C501 C 0.212 0.3618 0.57125 0.0
C502 C 0.221 0.38613 0.57904 0.0
C503 C 0.24109 0.45745 0.60241 0.0
C504 C 0.23506 0.43281 0.59426 0.0
H505 H 0.20735 0.32593 0.52141 0.0
H506 H 0.22614 0.36344 0.53489 0.0
H507 H 0.22818 0.37711 0.6162 0.0
H508 H 0.21651 0.50249 0.63792 0.0
H509 H 0.20723 0.46143 0.62488 0.0
C510 C 0.81621 0.01703 0.87313 0.0
C511 C 0.79243 0.0134 0.8612 0.0
C512 C 0.8398 0.01105 0.86227 0.0
C513 C 0.86986 0.99224 0.8039 0.0
H514 H 0.92654 0.97206 0.84588 0.0
C515 C 0.96314 0.9363 0.7783 0.0
C516 C 0.98696 0.947 0.78396 0.0
C517 C 0.93959 0.94691 0.78559 0.0
C518 C 0.91096 0.97793 0.834 0.0
H519 H 0.77472 1.00006 0.82856 0.0
H520 H 0.81602 0.98807 0.8099 0.0
H521 H 0.88477 0.98397 0.86275 0.0
H522 H 0.0048 0.97715 0.80185 0.0
H523 H 0.96335 0.99523 0.8157 0.0
H524 H 0.89615 0.98429 0.77506 0.0
C525 C 0.81654 0.99661 0.82737 0.0
C526 C 0.88693 0.98494 0.84362 0.0
C527 C 0.79277 1.00329 0.8381 0.0
C528 C 0.98673 0.96863 0.79707 0.0
C529 C 0.96311 0.97894 0.80496 0.0
C530 C 0.89379 0.9846 0.79426 0.0
C531 C 0.84046 1.00027 0.83941 0.0
C532 C 0.866 0.99242 0.82878 0.0
C533 C 0.93938 0.96809 0.79931 0.0
C534 C 0.91455 0.97755 0.80927 0.0
H535 H 0.81673 0.02424 0.89115 0.0
H536 H 0.85753 0.01487 0.87205 0.0
H537 H 0.85452 0.99812 0.79182 0.0
H538 H 0.96266 0.91937 0.76871 0.0
H539 H 0.92158 0.93804 0.78135 0.0
C540 C 0.34928 0.69027 0.02401 0.0
C541 C 0.34268 0.71257 0.03446 0.0
C542 C 0.33812 0.66939 0.03211 0.0
C543 C 0.30311 0.64692 0.08496 0.0
H544 H 0.29481 0.59052 0.0446 0.0
C545 C 0.24902 0.5641 0.11496 0.0
C546 C 0.26489 0.54327 0.11605 0.0
C547 C 0.25717 0.58404 0.10272 0.0
C548 C 0.2971 0.60618 0.056 0.0
H549 H 0.31813 0.73076 0.06053 0.0
H550 H 0.29747 0.69471 0.0737 0.0
H551 H 0.31005 0.62739 0.02728 0.0
H552 H 0.30111 0.52663 0.10404 0.0
H553 H 0.31499 0.5615 0.08193 0.0
H554 H 0.28922 0.62577 0.11342 0.0
C555 C 0.31216 0.69298 0.06004 0.0
C556 C 0.30598 0.6273 0.04618 0.0
C557 C 0.32378 0.71376 0.05233 0.0
C558 C 0.28849 0.54241 0.10356 0.0
C559 C 0.2964 0.56229 0.09088 0.0
C560 C 0.29371 0.62602 0.09458 0.0
C561 C 0.31968 0.67038 0.05053 0.0
C562 C 0.30925 0.64799 0.06056 0.0
C563 C 0.28108 0.58344 0.0909 0.0
C564 C 0.29075 0.60546 0.08024 0.0
H565 H 0.36397 0.68878 0.01032 0.0
H566 H 0.34479 0.65245 0.02448 0.0
H567 H 0.30599 0.66207 0.09688 0.0
H568 H 0.23075 0.56545 0.12441 0.0
H569 H 0.24502 0.60015 0.10289 0.0
C570 C 0.5337 0.07853 0.3116 0.0
C571 C 0.52993 0.08217 0.28713 0.0
C572 C 0.55752 0.06926 0.32023 0.0
C573 C 0.62048 0.03962 0.30119 0.0
H574 H 0.64557 0.0674 0.36073 0.0
C575 C 0.72762 0.02906 0.33679 0.0
C576 C 0.73013 0.02343 0.36105 0.0
C577 C 0.70306 0.03493 0.32693 0.0
C578 C 0.63878 0.05935 0.34414 0.0
H579 H 0.54699 0.07741 0.25227 0.0
H580 H 0.58896 0.0623 0.26714 0.0
H581 H 0.60275 0.07918 0.34546 0.0
H582 H 0.70894 0.01924 0.39391 0.0
H583 H 0.6665 0.02973 0.37689 0.0
H584 H 0.65712 0.02029 0.29978 0.0
C585 C 0.5737 0.06632 0.27986 0.0
C586 C 0.61408 0.06597 0.33543 0.0
C587 C 0.54979 0.07537 0.27129 0.0
C588 C 0.7077 0.02357 0.37516 0.0
C589 C 0.68335 0.02969 0.36545 0.0
C590 C 0.64538 0.0332 0.30981 0.0
C591 C 0.57815 0.06364 0.30453 0.0
C592 C 0.60445 0.05611 0.31389 0.0
C593 C 0.68072 0.0356 0.34128 0.0
C594 C 0.65472 0.04289 0.33147 0.0
H595 H 0.51858 0.08366 0.32414 0.0
H596 H 0.55987 0.0669 0.33927 0.0
H597 H 0.61372 0.03138 0.28471 0.0
H598 H 0.74459 0.02902 0.3255 0.0
H599 H 0.70163 0.03949 0.30825 0.0
C600 C 0.70848 0.22523 0.51106 0.0
C601 C 0.6817 0.22853 0.51489 0.0
C602 C 0.71905 0.20224 0.50647 0.0
C603 C 0.70302 0.13728 0.5096 0.0
H604 H 0.75733 0.12959 0.46248 0.0
C605 C 0.7284 0.04826 0.45884 0.0
C606 C 0.75487 0.04299 0.45464 0.0
C607 C 0.7207 0.06993 0.46992 0.0
C608 C 0.74238 0.13145 0.4759 0.0
H609 H 0.64491 0.21054 0.51664 0.0
H610 H 0.66295 0.17096 0.50801 0.0
H611 H 0.74209 0.1696 0.47422 0.0
H612 H 0.7941 0.05574 0.46035 0.0
H613 H 0.7806 0.09335 0.47945 0.0
H614 H 0.70271 0.09895 0.51043 0.0
C615 C 0.67614 0.18573 0.50924 0.0
C616 C 0.73368 0.15443 0.48272 0.0
C617 C 0.66571 0.20854 0.51402 0.0
C618 C 0.7735 0.05922 0.46309 0.0
C619 C 0.7658 0.08089 0.47393 0.0
C620 C 0.71151 0.11428 0.50253 0.0
C621 C 0.70296 0.18216 0.5054 0.0
C622 C 0.71366 0.1577 0.49947 0.0
C623 C 0.73931 0.0868 0.47686 0.0
C624 C 0.73114 0.11111 0.48548 0.0
H625 H 0.72123 0.24035 0.5117 0.0
H626 H 0.73984 0.20021 0.50388 0.0
H627 H 0.68799 0.139 0.52294 0.0
H628 H 0.71354 0.03623 0.45253 0.0
H629 H 0.70012 0.07401 0.47192 0.0
C630 C 0.05646 0.45702 0.76228 0.0
C631 C 0.05561 0.44752 0.7853 0.0
C632 C 0.07843 0.46889 0.75478 0.0
C633 C 0.14867 0.4709 0.76603 0.0
H634 H 0.14422 0.52647 0.72572 0.0
C635 C 0.23256 0.50032 0.70594 0.0
C636 C 0.23612 0.52496 0.70349 0.0
C637 C 0.21164 0.49209 0.71898 0.0
C638 C 0.14585 0.51112 0.73718 0.0
H639 H 0.07678 0.44402 0.81887 0.0
H640 H 0.11507 0.46481 0.80573 0.0
H641 H 0.10475 0.51126 0.74304 0.0
H642 H 0.22126 0.56028 0.71382 0.0
H643 H 0.18502 0.5459 0.73664 0.0
H644 H 0.18978 0.47064 0.75997 0.0
C645 C 0.09882 0.4628 0.79342 0.0
C646 C 0.1232 0.50228 0.74691 0.0
C647 C 0.07679 0.45104 0.80099 0.0
C648 C 0.219 0.54117 0.71519 0.0
C649 C 0.19811 0.53295 0.72817 0.0
C650 C 0.17134 0.47967 0.75619 0.0
C651 C 0.10007 0.47145 0.77009 0.0
C652 C 0.12432 0.48193 0.76124 0.0
C653 C 0.19386 0.50834 0.7298 0.0
C654 C 0.17014 0.49975 0.74148 0.0
H655 H 0.0405 0.45465 0.74974 0.0
H656 H 0.07886 0.47519 0.73663 0.0
H657 H 0.15014 0.45503 0.77681 0.0
H658 H 0.24533 0.48737 0.69707 0.0
H659 H 0.20877 0.47301 0.71975 0.0
C660 C 0.80669 0.98102 0.94646 0.0
C661 C 0.7813 0.98911 0.95201 0.0
C662 C 0.81614 0.95887 0.9545 0.0
C663 C 0.81154 0.91289 0.99864 0.0
H664 H 0.82606 0.86733 0.94729 0.0
C665 C 0.83284 0.81277 0.01771 0.0
C666 C 0.84927 0.79965 1.00223 0.0
C667 C 0.82482 0.83619 0.01234 0.0
C668 C 0.8227 0.8798 0.96197 0.0
H669 H 0.74649 0.98097 0.97145 0.0
H670 H 0.76355 0.94262 0.98636 0.0
H671 H 0.81339 0.90833 0.93802 0.0
H672 H 0.87064 0.80068 0.96926 0.0
H673 H 0.85801 0.84179 0.9604 0.0
H674 H 0.8218 0.88492 0.02273 0.0
C675 C 0.77588 0.95333 0.97549 0.0
C676 C 0.81523 0.90332 0.95656 0.0
C677 C 0.76617 0.97524 0.96697 0.0
C678 C 0.85767 0.81034 0.98134 0.0
C679 C 0.85022 0.83395 0.97624 0.0
C680 C 0.81965 0.88949 1.00412 0.0
C681 C 0.80064 0.94464 0.96871 0.0
C682 C 0.80945 0.92003 0.97481 0.0
C683 C 0.83353 0.84728 0.99157 0.0
C684 C 0.82522 0.87248 0.98585 0.0
H685 H 0.81872 0.99112 0.93474 0.0
H686 H 0.83531 0.95253 0.94908 0.0
H687 H 0.80725 0.92553 0.01302 0.0
H688 H 0.82602 0.80483 0.03392 0.0
H689 H 0.81156 0.84544 0.02442 0.0
C690 C 0.46617 0.6067 0.26874 0.0
C691 C 0.48759 0.59212 0.27545 0.0
C692 C 0.44249 0.59668 0.26221 0.0
C693 C 0.40198 0.54391 0.26663 0.0
H694 H 0.37101 0.56747 0.20786 0.0
C695 C 0.31477 0.52054 0.19444 0.0
C696 C 0.29281 0.51963 0.20909 0.0
C697 C 0.33872 0.5276 0.20378 0.0
C698 C 0.37941 0.56061 0.22426 0.0
H699 H 0.50082 0.55562 0.28122 0.0
H700 H 0.45896 0.53792 0.26988 0.0
H701 H 0.41237 0.58302 0.22196 0.0
H702 H 0.27895 0.52459 0.24522 0.0
H703 H 0.32121 0.5369 0.26174 0.0
H704 H 0.36866 0.52158 0.26887 0.0
C705 C 0.46068 0.55717 0.26971 0.0
C706 C 0.40303 0.56965 0.23243 0.0
C707 C 0.48463 0.56725 0.27606 0.0
C708 C 0.29555 0.5252 0.23352 0.0
C709 C 0.31972 0.53212 0.24297 0.0
C710 C 0.37804 0.53504 0.25857 0.0
C711 C 0.43949 0.57181 0.26233 0.0
C712 C 0.41461 0.56146 0.2537 0.0
C713 C 0.34144 0.53383 0.22806 0.0
C714 C 0.36658 0.54325 0.23721 0.0
H715 H 0.46784 0.62593 0.26802 0.0
H716 H 0.42648 0.60846 0.25689 0.0
H717 H 0.41038 0.53736 0.28316 0.0
H718 H 0.31336 0.51627 0.17555 0.0
H719 H 0.35514 0.52841 0.19189 0.0
C720 C 0.49494 0.18928 0.32562 0.0
C721 C 0.51371 0.17797 0.3109 0.0
C722 C 0.50222 0.20042 0.34711 0.0
C723 C 0.55431 0.19771 0.39263 0.0
H724 H 0.52105 0.25585 0.41742 0.0
C725 C 0.5728 0.22905 0.48929 0.0
C726 C 0.579 0.25325 0.49238 0.0
C727 C 0.56192 0.22078 0.46778 0.0
C728 C 0.53056 0.23962 0.41073 0.0
H729 H 0.55506 0.17062 0.30669 0.0
H730 H 0.56781 0.19035 0.34408 0.0
H731 H 0.50981 0.24118 0.37737 0.0
H732 H 0.57668 0.28804 0.4758 0.0
H733 H 0.55781 0.2736 0.43841 0.0
H734 H 0.57539 0.19631 0.4257 0.0
C735 C 0.54737 0.19022 0.33917 0.0
C736 C 0.524 0.23114 0.38783 0.0
C737 C 0.54009 0.1791 0.31761 0.0
C738 C 0.57226 0.26926 0.47409 0.0
C739 C 0.56137 0.26099 0.45259 0.0
C740 C 0.56079 0.20614 0.4155 0.0
C741 C 0.52846 0.20051 0.35444 0.0
C742 C 0.53586 0.21009 0.37848 0.0
C743 C 0.55692 0.23651 0.44887 0.0
C744 C 0.54901 0.22719 0.42486 0.0
H745 H 0.47444 0.18888 0.32096 0.0
H746 H 0.48712 0.20805 0.35846 0.0
H747 H 0.56354 0.18127 0.38616 0.0
H748 H 0.57757 0.21619 0.50298 0.0
H749 H 0.55817 0.2019 0.4657 0.0
C750 C 0.06776 0.29086 0.57918 0.0
C751 C 0.09468 0.28702 0.57622 0.0
C752 C 0.05772 0.29731 0.60175 0.0
C753 C 0.07785 0.32769 0.65723 0.0
H754 H 0.01884 0.29895 0.6871 0.0
C755 C 0.02849 0.32978 0.75639 0.0
C756 C 0.02655 0.35467 0.76003 0.0
C757 C 0.03485 0.32013 0.73375 0.0
C758 C 0.03541 0.30703 0.67898 0.0
H759 H 0.13204 0.28659 0.59469 0.0
H760 H 0.11474 0.2978 0.63346 0.0
H761 H 0.0331 0.28461 0.64742 0.0
H762 H 0.02971 0.3889 0.74283 0.0
H763 H 0.0408 0.37223 0.70388 0.0
H764 H 0.0803 0.35012 0.68842 0.0
C765 C 0.1013 0.29593 0.61854 0.0
C766 C 0.04339 0.299 0.65622 0.0
C767 C 0.11121 0.28935 0.59625 0.0
C768 C 0.03089 0.36963 0.74066 0.0
C769 C 0.03742 0.36009 0.7183 0.0
C770 C 0.06973 0.33585 0.67969 0.0
C771 C 0.07452 0.30032 0.62157 0.0
C772 C 0.06484 0.30917 0.64518 0.0
C773 C 0.03974 0.33526 0.71455 0.0
C774 C 0.04844 0.32567 0.69089 0.0
H775 H 0.05457 0.28915 0.56407 0.0
H776 H 0.03698 0.30066 0.60354 0.0
H777 H 0.09432 0.33602 0.64918 0.0
H778 H 0.0252 0.31784 0.77099 0.0
H779 H 0.03662 0.3009 0.73141 0.0
C780 C 0.02273 0.8384 0.81644 0.0
C781 C 0.00548 0.85385 0.8041 0.0
C782 C 0.01511 0.82782 0.83762 0.0
C783 C 0.97977 0.8408 0.88971 0.0
H784 H 0.96892 0.77338 0.89923 0.0
C785 C 0.93199 0.80734 0.97497 0.0
C786 C 0.93798 0.78417 0.98291 0.0
C787 C 0.94214 0.81535 0.9536 0.0
C788 C 0.97239 0.79221 0.89713 0.0
H789 H 0.96655 0.86983 0.80395 0.0
H790 H 0.95362 0.85179 0.84131 0.0
H791 H 0.98269 0.78705 0.86028 0.0
H792 H 0.96037 0.75164 0.97535 0.0
H793 H 0.97933 0.76604 0.93879 0.0
H794 H 0.97054 0.84623 0.92647 0.0
C795 C 0.97282 0.84767 0.83432 0.0
C796 C 0.98004 0.79998 0.87472 0.0
C797 C 0.98019 0.85783 0.8129 0.0
C798 C 0.95531 0.76957 0.96961 0.0
C799 C 0.96593 0.77777 0.94847 0.0
C800 C 0.97269 0.83303 0.91223 0.0
C801 C 0.99036 0.83293 0.84701 0.0
C802 C 0.98339 0.82436 0.8708 0.0
C803 C 0.95903 0.80059 0.93984 0.0
C804 C 0.96846 0.80865 0.91622 0.0
H805 H 0.04234 0.83505 0.81009 0.0
H806 H 0.02892 0.81651 0.84722 0.0
H807 H 0.98256 0.85969 0.88706 0.0
H808 H 0.91842 0.81893 0.98464 0.0
H809 H 0.93586 0.83283 0.9475 0.0
C810 C 0.49931 0.70325 0.24119 0.0
C811 C 0.5176 0.68418 0.24015 0.0
C812 C 0.4919 0.71547 0.22041 0.0
C813 C 0.50871 0.72088 0.15514 0.0
H814 H 0.43678 0.74256 0.15022 0.0
C815 C 0.46502 0.75603 0.06564 0.0
C816 C 0.43884 0.75102 0.06087 0.0
C817 C 0.47595 0.7516 0.0883 0.0
C818 C 0.45687 0.73631 0.15105 0.0
H819 H 0.54261 0.66321 0.21634 0.0
H820 H 0.52894 0.68335 0.18048 0.0
H821 H 0.45335 0.72762 0.18776 0.0
H822 H 0.40372 0.73706 0.0758 0.0
H823 H 0.42279 0.72813 0.1143 0.0
H824 H 0.5116 0.72777 0.11788 0.0
C825 C 0.52087 0.68975 0.19723 0.0
C826 C 0.46662 0.72815 0.17294 0.0
C827 C 0.52862 0.67794 0.21796 0.0
C828 C 0.42392 0.74135 0.07899 0.0
C829 C 0.43488 0.73647 0.10131 0.0
C830 C 0.49878 0.7285 0.13307 0.0
C831 C 0.5022 0.7086 0.19798 0.0
C832 C 0.49258 0.71981 0.17527 0.0
C833 C 0.46103 0.74165 0.1065 0.0
C834 C 0.47252 0.73585 0.13053 0.0
H835 H 0.49056 0.70862 0.25801 0.0
H836 H 0.47791 0.73018 0.222 0.0
H837 H 0.52902 0.71537 0.15617 0.0
H838 H 0.47688 0.76365 0.052 0.0
H839 H 0.49603 0.75619 0.09154 0.0
C840 C 0.15635 0.36753 0.38411 0.0
C841 C 0.17362 0.35219 0.39656 0.0
C842 C 0.16364 0.37781 0.36273 0.0
C843 C 0.22073 0.39222 0.3262 0.0
H844 H 0.16853 0.39782 0.27596 0.0
C845 C 0.24312 0.42971 0.23252 0.0
C846 C 0.22473 0.44654 0.22377 0.0
C847 C 0.23777 0.41633 0.25275 0.0
C848 C 0.18331 0.39652 0.28985 0.0
H849 H 0.21247 0.33608 0.39626 0.0
H850 H 0.22504 0.3537 0.35865 0.0
H851 H 0.15786 0.37848 0.31304 0.0
H852 H 0.18602 0.46199 0.22923 0.0
H853 H 0.17679 0.43877 0.26418 0.0
H854 H 0.24613 0.41041 0.30287 0.0
C855 C 0.20587 0.35793 0.36562 0.0
C856 C 0.17717 0.38548 0.31117 0.0
C857 C 0.19856 0.34763 0.3871 0.0
C858 C 0.20069 0.44923 0.2354 0.0
C859 C 0.1953 0.43578 0.25543 0.0
C860 C 0.22691 0.40322 0.30478 0.0
C861 C 0.18839 0.37298 0.35304 0.0
C862 C 0.19564 0.38352 0.32981 0.0
C863 C 0.21381 0.4193 0.2645 0.0
C864 C 0.20812 0.40584 0.28649 0.0
H865 H 0.13685 0.37122 0.39058 0.0
H866 H 0.1498 0.38961 0.35379 0.0
H867 H 0.23539 0.3912 0.34021 0.0
H868 H 0.26183 0.42718 0.22405 0.0
H869 H 0.25237 0.40363 0.25917 0.0
C870 C 0.93631 0.94556 0.60577 0.0
C871 C 0.93844 0.92211 0.61438 0.0
C872 C 0.92565 0.94994 0.58311 0.0
C873 C 0.87922 0.92428 0.54076 0.0
H874 H 0.90591 0.96921 0.49576 0.0
C875 C 0.82521 0.93892 0.45278 0.0
C876 C 0.82178 0.96259 0.44545 0.0
C877 C 0.84371 0.93308 0.47027 0.0
C878 C 0.8981 0.95674 0.5082 0.0
H879 H 0.93156 0.88487 0.60571 0.0
H880 H 0.91301 0.89252 0.56624 0.0
H881 H 0.93011 0.96104 0.53277 0.0
H882 H 0.83531 0.99869 0.44977 0.0
H883 H 0.86725 0.98876 0.48104 0.0
H884 H 0.84679 0.92054 0.51711 0.0
C885 C 0.91955 0.90751 0.57703 0.0
C886 C 0.912 0.95204 0.52936 0.0
C887 C 0.93038 0.90311 0.59956 0.0
C888 C 0.838 0.98022 0.45494 0.0
C889 C 0.85625 0.97448 0.47288 0.0
C890 C 0.86525 0.92912 0.51984 0.0
C891 C 0.91667 0.93099 0.5687 0.0
C892 C 0.90268 0.93572 0.54584 0.0
C893 C 0.85862 0.95095 0.4814 0.0
C894 C 0.87447 0.94536 0.50319 0.0
H895 H 0.9426 0.96055 0.61668 0.0
H896 H 0.92356 0.96823 0.57724 0.0
H897 H 0.87121 0.91202 0.55332 0.0
H898 H 0.81277 0.92508 0.44568 0.0
H899 H 0.8455 0.91466 0.47578 0.0
C900 C 0.30589 0.59843 0.71004 0.0
C901 C 0.32555 0.58397 0.69959 0.0
C902 C 0.31108 0.61218 0.73062 0.0
C903 C 0.36584 0.63413 0.76942 0.0
H904 H 0.31237 0.63884 0.8177 0.0
C905 C 0.38844 0.66055 0.86711 0.0
C906 C 0.37291 0.67907 0.8773 0.0
C907 C 0.38153 0.6499 0.84528 0.0
C908 C 0.3274 0.63782 0.8043 0.0
H909 H 0.3662 0.57301 0.70209 0.0
H910 H 0.37513 0.59621 0.73819 0.0
H911 H 0.30292 0.61941 0.77933 0.0
H912 H 0.3372 0.70014 0.87258 0.0
H913 H 0.32473 0.68083 0.8348 0.0
H914 H 0.39056 0.65173 0.79487 0.0
C915 C 0.3558 0.59755 0.73037 0.0
C916 C 0.32198 0.62681 0.78219 0.0
C917 C 0.35068 0.58409 0.70965 0.0
C918 C 0.34956 0.68581 0.8655 0.0
C919 C 0.34245 0.67485 0.84376 0.0
C920 C 0.37134 0.64477 0.79161 0.0
C921 C 0.33601 0.61156 0.7414 0.0
C922 C 0.34121 0.6246 0.76447 0.0
C923 C 0.35866 0.65714 0.83319 0.0
C924 C 0.35227 0.64656 0.80936 0.0
H925 H 0.28634 0.59876 0.70258 0.0
H926 H 0.29545 0.62309 0.73818 0.0
H927 H 0.38099 0.63337 0.75615 0.0
H928 H 0.40618 0.65437 0.87589 0.0
H929 H 0.39414 0.63595 0.83779 0.0
C930 C 0.61658 0.08673 0.12554 0.0
C931 C 0.5924 0.099 0.12682 0.0
C932 C 0.62694 0.07949 0.10354 0.0
C933 C 0.62398 0.09278 0.03916 0.0
H934 H 0.66558 0.03413 0.03458 0.0
C935 C 0.68391 0.06484 0.95445 0.0
C936 C 0.71019 0.05998 0.96019 0.0
C937 C 0.66524 0.06667 0.97263 0.0
C938 C 0.65391 0.05051 0.03551 0.0
H939 H 0.56003 0.11301 0.1057 0.0
H940 H 0.57798 0.10001 0.0672 0.0
H941 H 0.64082 0.04303 0.07062 0.0
H942 H 0.73733 0.05209 0.98905 0.0
H943 H 0.70506 0.05481 0.02032 0.0
H944 H 0.63771 0.10038 1.0041 0.0
C945 C 0.58903 0.09621 0.08332 0.0
C946 C 0.63982 0.0557 0.05624 0.0
C947 C 0.57862 0.10344 0.10542 0.0
C948 C 0.71723 0.05597 0.98409 0.0
C949 C 0.69869 0.05737 1.00203 0.0
C950 C 0.63802 0.0875 0.0183 0.0
C951 C 0.61341 0.08421 0.08209 0.0
C952 C 0.62535 0.07727 0.05869 0.0
C953 C 0.67255 0.06312 0.99666 0.0
C954 C 0.65381 0.06666 0.01658 0.0
H955 H 0.62763 0.0827 0.14161 0.0
H956 H 0.64592 0.07064 0.10336 0.0
H957 H 0.61315 0.1096 0.04041 0.0
H958 H 0.67801 0.06804 0.93615 0.0
H959 H 0.64519 0.07105 0.96796 0.0
C960 C 0.64541 0.15538 0.68264 0.0
C961 C 0.6592 0.17465 0.67373 0.0
C962 C 0.65237 0.1452 0.70453 0.0
C963 C 0.69019 0.15614 0.76077 0.0
H964 H 0.68694 0.0873 0.76592 0.0
C965 C 0.73363 0.10306 0.8413 0.0
C966 C 0.71902 0.08399 0.84955 0.0
C967 C 0.72604 0.1152 0.82055 0.0
C968 C 0.68771 0.10658 0.76491 0.0
H969 H 0.69084 0.19864 0.68146 0.0
H970 H 0.70342 0.1805 0.71921 0.0
H971 H 0.67436 0.10618 0.72863 0.0
H972 H 0.68446 0.06331 0.8426 0.0
H973 H 0.67132 0.08444 0.80675 0.0
H974 H 0.70392 0.15634 0.7971 0.0
C975 C 0.68698 0.17339 0.7094 0.0
C976 C 0.68042 0.11745 0.74348 0.0
C977 C 0.67996 0.18363 0.68753 0.0
C978 C 0.69633 0.0778 0.83682 0.0
C979 C 0.68884 0.08983 0.8161 0.0
C980 C 0.69762 0.14521 0.78222 0.0
C981 C 0.67341 0.15391 0.71814 0.0
C982 C 0.6814 0.14241 0.7411 0.0
C983 C 0.70375 0.10848 0.80748 0.0
C984 C 0.69632 0.12029 0.78461 0.0
H985 H 0.6295 0.14777 0.67249 0.0
H986 H 0.64117 0.13048 0.71078 0.0
H987 H 0.69093 0.17541 0.75977 0.0
H988 H 0.75125 0.10832 0.85057 0.0
H989 H 0.73806 0.1294 0.81435 0.0
C990 C 0.19945 0.44417 0.10767 0.0
C991 C 0.2008 0.46649 0.11929 0.0
C992 C 0.18085 0.44019 0.08979 0.0
C993 C 0.14496 0.4724 0.04341 0.0
H994 H 0.11203 0.41143 0.03326 0.0
C995 C 0.08537 0.44948 0.95719 0.0
C996 C 0.08961 0.42633 0.94752 0.0
C997 C 0.09545 0.45573 0.97977 0.0
C998 C 0.12121 0.42852 0.03573 0.0
H999 H 0.18394 0.50221 0.1216 0.0
H1000 H 0.15102 0.49534 0.09015 0.0
H1001 H 0.13438 0.41978 0.07098 0.0
H1002 H 0.1075 0.39155 0.95439 0.0
H1003 H 0.12554 0.40255 0.99313 0.0
H1004 H 0.13256 0.48081 1.00782 0.0
C1005 C 0.16419 0.48079 0.09511 0.0
C1006 C 0.13391 0.43334 0.05742 0.0
C1007 C 0.18269 0.48465 0.11331 0.0
C1008 C 0.10416 0.40965 0.96101 0.0
C1009 C 0.11417 0.41586 0.98349 0.0
C1010 C 0.1323 0.46754 0.02163 0.0
C1011 C 0.16345 0.45864 0.08278 0.0
C1012 C 0.14649 0.45509 0.06132 0.0
C1013 C 0.10987 0.43893 0.99327 0.0
C1014 C 0.12085 0.44527 0.01728 0.0
H1015 H 0.2136 0.43007 0.11169 0.0
H1016 H 0.18113 0.42305 0.08049 0.0
H1017 H 0.15469 0.48924 0.04573 0.0
H1018 H 0.07438 0.46284 0.94727 0.0
H1019 H 0.09164 0.47362 0.98677 0.0
C1020 C 0.82021 0.96067 0.32486 0.0
C1021 C 0.80078 0.95227 0.33985 0.0
C1022 C 0.82635 0.94867 0.30355 0.0
C1023 C 0.82442 0.8909 0.2721 0.0
H1024 H 0.83084 0.92937 0.21569 0.0
C1025 C 0.84483 0.84905 0.17828 0.0
C1026 C 0.86134 0.86145 0.1632 0.0
C1027 C 0.83633 0.85937 0.19987 0.0
C1028 C 0.8295 0.91834 0.23128 0.0
H1029 H 0.77299 0.92422 0.34425 0.0
H1030 H 0.78405 0.90297 0.30694 0.0
H1031 H 0.81817 0.94837 0.25332 0.0
H1032 H 0.88174 0.89462 0.15925 0.0
H1033 H 0.8679 0.91209 0.19711 0.0
H1034 H 0.83643 0.86092 0.25021 0.0
C1035 C 0.79439 0.919 0.31183 0.0
C1036 C 0.82209 0.92925 0.25285 0.0
C1037 C 0.788 0.93121 0.33315 0.0
C1038 C 0.86932 0.88435 0.17044 0.0
C1039 C 0.861 0.89457 0.19207 0.0
C1040 C 0.83211 0.87996 0.25051 0.0
C1041 C 0.81341 0.92781 0.29668 0.0
C1042 C 0.81974 0.91572 0.27356 0.0
C1043 C 0.84423 0.88232 0.20702 0.0
C1044 C 0.83503 0.89361 0.22986 0.0
H1045 H 0.83051 0.97682 0.32934 0.0
H1046 H 0.84135 0.95572 0.29242 0.0
H1047 H 0.82294 0.88004 0.28781 0.0
H1048 H 0.83854 0.83126 0.1735 0.0
H1049 H 0.82327 0.84945 0.21077 0.0
C1050 C 0.32659 0.59106 0.58229 0.0
C1051 C 0.33551 0.5707 0.59462 0.0
C1052 C 0.33903 0.59826 0.56173 0.0
C1053 C 0.39996 0.59503 0.52863 0.0
H1054 H 0.35525 0.60864 0.47401 0.0
C1055 C 0.43479 0.64136 0.44289 0.0
C1056 C 0.42706 0.63072 0.42112 0.0
C1057 C 0.42469 0.63365 0.46447 0.0
C1058 C 0.368 0.60483 0.48907 0.0
H1059 H 0.36518 0.54242 0.59535 0.0
H1060 H 0.38721 0.55534 0.55935 0.0
H1061 H 0.33617 0.59567 0.51113 0.0
H1062 H 0.40242 0.60397 0.40483 0.0
H1063 H 0.38458 0.59072 0.44241 0.0
H1064 H 0.4318 0.60441 0.50646 0.0
C1065 C 0.37043 0.56556 0.56571 0.0
C1066 C 0.35707 0.59756 0.51036 0.0
C1067 C 0.35776 0.55814 0.58625 0.0
C1068 C 0.40886 0.6124 0.42134 0.0
C1069 C 0.39854 0.60491 0.44283 0.0
C1070 C 0.4109 0.60263 0.50735 0.0
C1071 C 0.36087 0.58547 0.55305 0.0
C1072 C 0.3729 0.59262 0.53038 0.0
C1073 C 0.40638 0.6154 0.46463 0.0
C1074 C 0.395 0.60756 0.48735 0.0
H1075 H 0.3096 0.60128 0.58819 0.0
H1076 H 0.33145 0.61387 0.55253 0.0
H1077 H 0.41259 0.59144 0.54383 0.0
H1078 H 0.44893 0.65539 0.44325 0.0
H1079 H 0.43091 0.64217 0.481 0.0
C1080 C 0.22588 0.24009 0.49671 0.0
C1081 C 0.19885 0.2413 0.4927 0.0
C1082 C 0.24289 0.23401 0.47825 0.0
C1083 C 0.25106 0.22941 0.41315 0.0
H1084 H 0.30449 0.18242 0.4304 0.0
C1085 C 0.32278 0.18475 0.34452 0.0
C1086 C 0.34841 0.17946 0.35237 0.0
C1087 C 0.30391 0.19368 0.36046 0.0
C1088 C 0.29 0.19582 0.42529 0.0
H1089 H 0.16847 0.23828 0.46579 0.0
H1090 H 0.19853 0.2276 0.43309 0.0
H1091 H 0.27239 0.19543 0.45965 0.0
H1092 H 0.37422 0.18025 0.38326 0.0
H1093 H 0.34175 0.19647 0.41072 0.0
H1094 H 0.26897 0.22987 0.37874 0.0
C1095 C 0.20642 0.23131 0.45073 0.0
C1096 C 0.27146 0.20321 0.44209 0.0
C1097 C 0.18922 0.23737 0.46941 0.0
C1098 C 0.35483 0.18423 0.37642 0.0
C1099 C 0.33602 0.19322 0.39231 0.0
C1100 C 0.26978 0.22205 0.39627 0.0
C1101 C 0.23343 0.22896 0.45515 0.0
C1102 C 0.25195 0.22032 0.43639 0.0
C1103 C 0.31015 0.19763 0.3847 0.0
C1104 C 0.28971 0.20535 0.40223 0.0
H1105 H 0.23399 0.24335 0.51437 0.0
H1106 H 0.26357 0.23295 0.48219 0.0
H1107 H 0.23635 0.24268 0.40823 0.0
H1108 H 0.31715 0.18168 0.32606 0.0
H1109 H 0.28423 0.19678 0.3539 0.0
C1110 C 0.09319 0.1313 0.63478 0.0
C1111 C 0.11415 0.13067 0.61886 0.0
C1112 C 0.08439 0.11022 0.64463 0.0
C1113 C 0.08453 0.04452 0.63705 0.0
H1114 H 0.07539 0.04509 0.70566 0.0
C1115 C 0.04267 0.96537 0.68992 0.0
C1116 C 0.05616 0.95946 0.7111 0.0
C1117 C 0.04899 0.9858 0.67729 0.0
C1118 C 0.07789 0.04463 0.68649 0.0
H1119 H 0.14163 0.10733 0.60008 0.0
H1120 H 0.12619 0.07047 0.61725 0.0
H1121 H 0.08713 0.08169 0.68588 0.0
H1122 H 0.08723 0.97028 0.73526 0.0
H1123 H 0.09801 1.00573 0.71337 0.0
H1124 H 0.07547 1.0073 0.63782 0.0
C1125 C 0.11661 0.08729 0.62212 0.0
C1126 C 0.08437 0.06565 0.67513 0.0
C1127 C 0.1256 0.10841 0.61246 0.0
C1128 C 0.07636 0.97421 0.71907 0.0
C1129 C 0.08247 0.99467 0.70661 0.0
C1130 C 0.07773 0.0235 0.64842 0.0
C1131 C 0.09617 0.088 0.63859 0.0
C1132 C 0.088 0.06581 0.65032 0.0
C1133 C 0.0687 1.00086 0.68574 0.0
C1134 C 0.07466 0.02329 0.67331 0.0
H1135 H 0.08408 0.14818 0.64018 0.0
H1136 H 0.06846 0.11132 0.65713 0.0
H1137 H 0.08704 0.04414 0.61788 0.0
H1138 H 0.027 0.95442 0.68326 0.0
H1139 H 0.03799 0.99018 0.66129 0.0
C1140 C 0.2009 0.8493 0.83726 0.0
C1141 C 0.1746 0.84937 0.84408 0.0
C1142 C 0.22039 0.83929 0.85191 0.0
C1143 C 0.23225 0.82538 0.91529 0.0
H1144 H 0.29461 0.79243 0.89217 0.0
C1145 C 0.30425 0.78264 0.98066 0.0
C1146 C 0.33069 0.78756 0.97803 0.0
C1147 C 0.28634 0.78767 0.96248 0.0
C1148 C 0.27738 0.80177 0.89883 0.0
H1149 H 0.14819 0.8378 0.87123 0.0
H1150 H 0.18199 0.81974 0.89638 0.0
H1151 H 0.26051 0.8051 0.86379 0.0
H1152 H 0.35953 0.80025 0.95373 0.0
H1153 H 0.32788 0.80933 0.92159 0.0
H1154 H 0.24893 0.8222 0.95019 0.0
C1155 C 0.18764 0.82795 0.87993 0.0
C1156 C 0.25783 0.80902 0.88261 0.0
C1157 C 0.16817 0.83803 0.86532 0.0
C1158 C 0.3392 0.79636 0.9562 0.0
C1159 C 0.32111 0.80151 0.93786 0.0
C1160 C 0.25164 0.8181 0.9314 0.0
C1161 C 0.21407 0.82901 0.87374 0.0
C1162 C 0.23492 0.82079 0.89068 0.0
C1163 C 0.29434 0.79789 0.94117 0.0
C1164 C 0.27435 0.80604 0.92345 0.0
H1165 H 0.20653 0.85751 0.82081 0.0
H1166 H 0.24048 0.84049 0.84655 0.0
H1167 H 0.21529 0.83499 0.92215 0.0
H1168 H 0.29717 0.77549 0.99715 0.0
H1169 H 0.26601 0.78407 0.96538 0.0
C1170 C 0.48253 0.06448 0.19198 0.0
C1171 C 0.46634 0.07281 0.21061 0.0
C1172 C 0.47677 0.04342 0.17922 0.0
C1173 C 0.44323 0.98711 0.18681 0.0
H1174 H 0.44221 0.98161 0.11775 0.0
C1175 C 0.39775 0.90663 0.13884 0.0
C1176 C 0.40899 0.89749 0.1177 0.0
C1177 C 0.40638 0.92783 0.14939 0.0
C1178 C 0.44281 0.9827 0.13706 0.0
H1179 H 0.43094 0.06577 0.22986 0.0
H1180 H 0.4212 0.02927 0.20785 0.0
H1181 H 0.45444 0.01933 0.1371 0.0
H1182 H 0.43832 0.90374 0.09113 0.0
H1183 H 0.45399 0.9404 0.11 0.0
H1184 H 0.43198 0.95065 0.18705 0.0
C1185 C 0.4384 0.03889 0.2032 0.0
C1186 C 0.44975 1.00435 0.14811 0.0
C1187 C 0.44396 0.05995 0.21572 0.0
C1188 C 0.42936 0.91008 0.10753 0.0
C1189 C 0.43813 0.9313 0.11819 0.0
C1190 C 0.43658 0.96549 0.17583 0.0
C1191 C 0.45492 0.03017 0.18508 0.0
C1192 C 0.44953 1.00688 0.1731 0.0
C1193 C 0.42674 0.94046 0.13928 0.0
C1194 C 0.43576 0.96309 0.1508 0.0
H1195 H 0.49993 0.07391 0.18756 0.0
H1196 H 0.48985 0.03708 0.16534 0.0
H1197 H 0.44339 0.98839 0.20612 0.0
H1198 H 0.3823 0.89731 0.14743 0.0
H1199 H 0.3968 0.93445 0.16539 0.0
C1200 C 0.85896 0.34197 0.70516 0.0
C1201 C 0.86763 0.36469 0.69905 0.0
C1202 C 0.83717 0.3323 0.69371 0.0
C1203 C 0.77835 0.34997 0.65916 0.0
H1204 H 0.78044 0.28448 0.63527 0.0
C1205 C 0.70684 0.31713 0.58747 0.0
C1206 C 0.69652 0.29422 0.58936 0.0
C1207 C 0.7266 0.32463 0.6029 0.0
C1208 C 0.7794 0.30268 0.64216 0.0
H1209 H 0.85994 0.39519 0.67647 0.0
H1210 H 0.82228 0.37827 0.65637 0.0
H1211 H 0.81716 0.29962 0.65867 0.0
H1212 H 0.69906 0.26117 0.60907 0.0
H1213 H 0.7337 0.27442 0.63616 0.0
H1214 H 0.74085 0.35321 0.64246 0.0
C1215 C 0.83217 0.36796 0.67008 0.0
C1216 C 0.80042 0.31136 0.65554 0.0
C1217 C 0.85396 0.37754 0.68139 0.0
C1218 C 0.70654 0.27895 0.60711 0.0
C1219 C 0.72646 0.28647 0.62256 0.0
C1220 C 0.75738 0.34131 0.64585 0.0
C1221 C 0.82348 0.34525 0.6761 0.0
C1222 C 0.80033 0.33525 0.66376 0.0
C1223 C 0.73663 0.30945 0.62066 0.0
C1224 C 0.75788 0.31773 0.63676 0.0
H1225 H 0.8692 0.33157 0.71859 0.0
H1226 H 0.83086 0.31481 0.69882 0.0
H1227 H 0.77744 0.3683 0.66569 0.0
H1228 H 0.69973 0.32939 0.57401 0.0
H1229 H 0.73431 0.34227 0.60065 0.0
C1230 C 0.98614 0.47503 0.83812 0.0
C1231 C 0.98033 0.45108 0.84215 0.0
C1232 C 0.985 0.49198 0.85659 0.0
C1233 C 0.95117 0.50561 0.91202 0.0
H1234 H 0.99877 0.55832 0.91497 0.0
C1235 C 0.93304 0.58936 0.9729 0.0
C1236 C 0.93634 0.61146 0.96183 0.0
C1237 C 0.94164 0.56798 0.96187 0.0
C1238 C 0.98526 0.54377 0.91437 0.0
H1239 H 0.96969 0.42577 0.86888 0.0
H1240 H 0.96728 0.4558 0.90159 0.0
H1241 H 0.0091 0.52322 0.8901 0.0
H1242 H 0.95201 0.62836 0.93079 0.0
H1243 H 0.96679 0.59114 0.91147 0.0
H1244 H 0.92691 0.52655 0.93568 0.0
C1245 C 0.97274 0.46134 0.88396 0.0
C1246 C 0.99123 0.52361 0.90018 0.0
C1247 C 0.97422 0.44416 0.86535 0.0
C1248 C 0.94897 0.61166 0.93972 0.0
C1249 C 0.9577 0.59032 0.92877 0.0
C1250 C 0.9452 0.52581 0.92626 0.0
C1251 C 0.97781 0.48553 0.87965 0.0
C1252 C 0.97387 0.50462 0.89822 0.0
C1253 C 0.95393 0.56817 0.93958 0.0
C1254 C 0.96181 0.54545 0.92703 0.0
H1255 H 0.99106 0.48087 0.82043 0.0
H1256 H 0.98869 0.51043 0.85249 0.0
H1257 H 0.93727 0.4914 0.91075 0.0
H1258 H 0.92315 0.58852 0.98982 0.0
H1259 H 0.93858 0.55127 0.97075 0.0
C1260 C 0.82223 0.75027 0.10321 0.0
C1261 C 0.83118 0.73617 0.08381 0.0
C1262 C 0.80257 0.74217 0.11789 0.0
C1263 C 0.7703 0.68674 0.13523 0.0
H1264 H 0.71519 0.73008 0.15725 0.0
C1265 C 0.67857 0.65218 0.1791 0.0
C1266 C 0.66999 0.66407 0.2 0.0
C1267 C 0.69768 0.66199 0.16503 0.0
C1268 C 0.73059 0.71783 0.15141 0.0
H1269 H 0.8263 0.70252 0.06459 0.0
H1270 H 0.79193 0.68864 0.08987 0.0
H1271 H 0.75006 0.74518 0.13279 0.0
H1272 H 0.67431 0.69595 0.22212 0.0
H1273 H 0.70765 0.7132 0.19736 0.0
H1274 H 0.75079 0.65938 0.15363 0.0
C1275 C 0.80036 0.70577 0.09404 0.0
C1276 C 0.75059 0.72647 0.13745 0.0
C1277 C 0.82002 0.71382 0.07943 0.0
C1278 C 0.68034 0.68643 0.20603 0.0
C1279 C 0.69946 0.6963 0.19188 0.0
C1280 C 0.7503 0.67812 0.14908 0.0
C1281 C 0.79142 0.7198 0.11349 0.0
C1282 C 0.77058 0.71097 0.12903 0.0
C1283 C 0.70864 0.68397 0.17145 0.0
C1284 C 0.73011 0.6935 0.15717 0.0
H1285 H 0.83043 0.76757 0.10714 0.0
H1286 H 0.79634 0.75331 0.13288 0.0
H1287 H 0.78566 0.67441 0.12951 0.0
H1288 H 0.6706 0.63518 0.17365 0.0
H1289 H 0.70393 0.6523 0.14911 0.0
C1290 C 0.57482 0.41886 0.44845 0.0
C1291 C 0.60123 0.41456 0.45416 0.0
C1292 C 0.56684 0.43975 0.43656 0.0
C1293 C 0.59 0.50076 0.42263 0.0
H1294 H 0.53494 0.50028 0.37478 0.0
C1295 C 0.57457 0.5764 0.35487 0.0
C1296 C 0.54899 0.58427 0.34952 0.0
C1297 C 0.57927 0.5565 0.3692 0.0
C1298 C 0.55014 0.50077 0.38832 0.0
H1299 H 0.64005 0.42827 0.45075 0.0
H1300 H 0.6264 0.46412 0.42976 0.0
H1301 H 0.54629 0.46366 0.39609 0.0
H1302 H 0.50823 0.5774 0.35534 0.0
H1303 H 0.51648 0.5424 0.38028 0.0
H1304 H 0.59431 0.53767 0.41439 0.0
C1305 C 0.61159 0.45195 0.43513 0.0
C1306 C 0.55666 0.47976 0.40058 0.0
C1307 C 0.61948 0.43127 0.44713 0.0
C1308 C 0.52818 0.5719 0.35919 0.0
C1309 C 0.53289 0.55173 0.37332 0.0
C1310 C 0.58365 0.52164 0.41025 0.0
C1311 C 0.58513 0.45673 0.42993 0.0
C1312 C 0.57695 0.47936 0.4177 0.0
C1313 C 0.55852 0.54373 0.37839 0.0
C1314 C 0.56387 0.52187 0.39272 0.0
H1315 H 0.56026 0.40638 0.4537 0.0
H1316 H 0.54628 0.44282 0.43304 0.0
H1317 H 0.60525 0.50144 0.4361 0.0
H1318 H 0.59108 0.58546 0.34774 0.0
H1319 H 0.59923 0.55071 0.37254 0.0
C1320 C 0.36712 0.34729 0.1761 0.0
C1321 C 0.34295 0.35532 0.18507 0.0
C1322 C 0.37808 0.32541 0.18302 0.0
C1323 C 0.36422 0.26686 0.20822 0.0
H1324 H 0.43846 0.26646 0.22139 0.0
C1325 C 0.42914 0.18474 0.24118 0.0
C1326 C 0.45304 0.18238 0.22935 0.0
C1327 C 0.41233 0.20442 0.23661 0.0
C1328 C 0.41772 0.26624 0.2177 0.0
H1329 H 0.31111 0.3463 0.20805 0.0
H1330 H 0.33057 0.30792 0.2204 0.0
H1331 H 0.41581 0.30394 0.21256 0.0
H1332 H 0.47735 0.19745 0.20241 0.0
H1333 H 0.44814 0.23114 0.19417 0.0
H1334 H 0.36654 0.2288 0.21322 0.0
C1335 C 0.34087 0.31866 0.20788 0.0
C1336 C 0.40475 0.28772 0.2126 0.0
C1337 C 0.32986 0.34071 0.20098 0.0
C1338 C 0.45913 0.19896 0.21193 0.0
C1339 C 0.44247 0.21833 0.20731 0.0
C1340 C 0.37731 0.24519 0.2134 0.0
C1341 C 0.36528 0.31094 0.19918 0.0
C1342 C 0.37801 0.28824 0.20713 0.0
C1343 C 0.4194 0.22183 0.22021 0.0
C1344 C 0.40435 0.24465 0.2175 0.0
H1345 H 0.37791 0.35815 0.16406 0.0
H1346 H 0.39674 0.31984 0.17571 0.0
H1347 H 0.34358 0.26673 0.20412 0.0
H1348 H 0.42422 0.17236 0.25494 0.0
H1349 H 0.39463 0.20671 0.24679 0.0
C1350 C 0.94907 0.33138 0.84258 0.0
C1351 C 0.94602 0.34371 0.82103 0.0
C1352 C 0.9332 0.31234 0.84779 0.0
C1353 C 0.89091 0.26716 0.8197 0.0
H1354 H 0.87107 0.25767 0.88533 0.0
C1355 C 0.85544 0.17651 0.85342 0.0
C1356 C 0.83726 0.1765 0.87197 0.0
C1357 C 0.86564 0.19796 0.84568 0.0
C1358 C 0.87604 0.26013 0.86683 0.0
H1359 H 0.92358 0.34554 0.78806 0.0
H1360 H 0.89546 0.31242 0.79739 0.0
H1361 H 0.89352 0.2936 0.87492 0.0
H1362 H 0.81454 0.19911 0.89612 0.0
H1363 H 0.83189 0.23656 0.88236 0.0
H1364 H 0.87305 0.23376 0.8116 0.0
C1365 C 0.91043 0.31743 0.81014 0.0
C1366 C 0.8893 0.28065 0.8609 0.0
C1367 C 0.92643 0.33656 0.80487 0.0
C1368 C 0.82884 0.1985 0.88204 0.0
C1369 C 0.83886 0.21996 0.87418 0.0
C1370 C 0.8775 0.24663 0.82562 0.0
C1371 C 0.91367 0.30505 0.83168 0.0
C1372 C 0.89737 0.28425 0.83736 0.0
C1373 C 0.85776 0.21998 0.85619 0.0
C1374 C 0.87024 0.24265 0.84935 0.0
H1375 H 0.96398 0.33621 0.85547 0.0
H1376 H 0.93668 0.30299 0.86433 0.0
H1377 H 0.89693 0.26924 0.80141 0.0
H1378 H 0.86254 0.15984 0.84547 0.0
H1379 H 0.88042 0.19716 0.83205 0.0
C1380 C 0.09406 0.61499 0.14731 0.0
C1381 C 0.10704 0.59862 0.13198 0.0
C1382 C 0.07394 0.62984 0.13875 0.0
C1383 C 0.02637 0.63688 0.08887 0.0
H1384 H 0.02052 0.70165 0.11435 0.0
C1385 C 0.95262 0.70956 0.0536 0.0
C1386 C 0.9402 0.72389 0.07113 0.0
C1387 C 0.97253 0.69322 0.05999 0.0
C1388 C 0.02174 0.68355 0.1072 0.0
H1389 H 0.10902 0.58508 0.09555 0.0
H1390 H 0.07401 0.61134 0.08045 0.0
H1391 H 0.05665 0.67577 0.12693 0.0
H1392 H 0.93807 0.73177 0.10906 0.0
H1393 H 0.97275 0.70344 0.12018 0.0
H1394 H 0.99141 0.64499 0.06894 0.0
C1395 C 0.07918 0.61241 0.09922 0.0
C1396 C 0.04246 0.66866 0.11444 0.0
C1397 C 0.0993 0.59741 0.10784 0.0
C1398 C 0.94744 0.72109 0.09515 0.0
C1399 C 0.9674 0.70496 0.1015 0.0
C1400 C 0.00566 0.65189 0.08149 0.0
C1401 C 0.06628 0.62887 0.11458 0.0
C1402 C 0.04488 0.64501 0.10567 0.0
C1403 C 0.98049 0.69113 0.08398 0.0
C1404 C 1.00293 0.67529 0.09085 0.0
H1405 H 0.09911 0.61601 0.16611 0.0
H1406 H 0.06409 0.64185 0.15125 0.0
H1407 H 0.02747 0.61872 0.08189 0.0
H1408 H 0.94734 0.71131 0.03493 0.0
H1409 H 0.98226 0.68283 0.04608 0.0
C1410 C 0.66876 0.84325 0.39516 0.0
C1411 C 0.68003 0.85772 0.37798 0.0
C1412 C 0.65893 0.82086 0.38883 0.0
C1413 C 0.63443 0.78584 0.3368 0.0
H1414 H 0.64124 0.73268 0.38005 0.0
C1415 C 0.59229 0.69324 0.31255 0.0
C1416 C 0.57869 0.68211 0.33075 0.0
C1417 C 0.6077 0.71307 0.31771 0.0
C1418 C 0.63898 0.74736 0.36781 0.0
H1419 H 0.68986 0.85961 0.34054 0.0
H1420 H 0.67302 0.82044 0.32956 0.0
H1421 H 0.66199 0.77032 0.39007 0.0
H1422 H 0.57162 0.68239 0.36878 0.0
H1423 H 0.59831 0.71684 0.37781 0.0
H1424 H 0.61108 0.76302 0.31471 0.0
C1425 C 0.67158 0.82655 0.34796 0.0
C1426 C 0.65089 0.76901 0.37358 0.0
C1427 C 0.68151 0.84895 0.35431 0.0
C1428 C 0.58186 0.69053 0.35435 0.0
C1429 C 0.59728 0.7103 0.35953 0.0
C1430 C 0.6225 0.76419 0.33103 0.0
C1431 C 0.66001 0.81223 0.36511 0.0
C1432 C 0.64855 0.78867 0.3583 0.0
C1433 C 0.60998 0.72221 0.34123 0.0
C1434 C 0.62434 0.7447 0.34658 0.0
H1435 H 0.66754 0.84923 0.41361 0.0
H1436 H 0.64996 0.81053 0.40252 0.0
H1437 H 0.63186 0.80062 0.32471 0.0
H1438 H 0.59031 0.68715 0.29417 0.0
H1439 H 0.61753 0.72147 0.3032 0.0
C1440 C 0.57976 0.31701 0.59949 0.0
C1441 C 0.59171 0.31424 0.57722 0.0
C1442 C 0.56361 0.33681 0.60442 0.0
C1443 C 0.51944 0.37906 0.57532 0.0
H1444 H 0.51797 0.40886 0.63834 0.0
C1445 C 0.43772 0.44669 0.6047 0.0
C1446 C 0.42736 0.44271 0.6274 0.0
C1447 C 0.46056 0.43467 0.59732 0.0
C1448 C 0.51807 0.4007 0.62067 0.0
H1449 H 0.59662 0.33007 0.54263 0.0
H1450 H 0.56787 0.36496 0.55117 0.0
H1451 H 0.55411 0.3819 0.62749 0.0
H1452 H 0.43282 0.42266 0.65994 0.0
H1453 H 0.4725 0.4019 0.64717 0.0
H1454 H 0.48287 0.39718 0.56883 0.0
C1455 C 0.57122 0.35177 0.56486 0.0
C1456 C 0.53882 0.38533 0.61443 0.0
C1457 C 0.58777 0.33197 0.56003 0.0
C1458 C 0.44049 0.42656 0.64255 0.0
C1459 C 0.4633 0.41464 0.63522 0.0
C1460 C 0.49861 0.39445 0.58159 0.0
C1461 C 0.55878 0.35423 0.58707 0.0
C1462 C 0.53934 0.37376 0.59197 0.0
C1463 C 0.4736 0.41848 0.6125 0.0
C1464 C 0.4973 0.40485 0.60461 0.0
H1465 H 0.58245 0.30353 0.61301 0.0
H1466 H 0.55405 0.33795 0.62155 0.0
H1467 H 0.51919 0.37027 0.55795 0.0
H1468 H 0.4283 0.45923 0.59269 0.0
H1469 H 0.46811 0.43816 0.57979 0.0
C1470 C 0.17954 0.69019 0.70426 0.0
C1471 C 0.20523 0.69146 0.69616 0.0
C1472 C 0.16646 0.7106 0.71322 0.0
C1473 C 0.16645 0.77622 0.70896 0.0
H1474 H 0.11492 0.77308 0.75871 0.0
C1475 C 0.09694 0.85655 0.73326 0.0
C1476 C 0.07071 0.85013 0.73348 0.0
C1477 C 0.11675 0.83877 0.73306 0.0
C1478 C 0.12932 0.77428 0.74483 0.0
H1479 H 0.23784 0.71493 0.69245 0.0
H1480 H 0.21502 0.75054 0.70812 0.0
H1481 H 0.1435 0.7385 0.7505 0.0
H1482 H 0.04459 0.82035 0.73458 0.0
H1483 H 0.07877 0.78967 0.7343 0.0
H1484 H 0.15166 0.81179 0.70285 0.0
C1485 C 0.20481 0.73385 0.70712 0.0
C1486 C 0.14562 0.75443 0.74007 0.0
C1487 C 0.21788 0.71343 0.69815 0.0
C1488 C 0.06465 0.82584 0.73429 0.0
C1489 C 0.08427 0.80823 0.73436 0.0
C1490 C 0.15015 0.79611 0.71377 0.0
C1491 C 0.17877 0.73279 0.71435 0.0
C1492 C 0.16388 0.7549 0.7216 0.0
C1493 C 0.11055 0.81439 0.73345 0.0
C1494 C 0.13087 0.79509 0.73127 0.0
H1495 H 0.16911 0.67365 0.70272 0.0
H1496 H 0.1463 0.70917 0.7183 0.0
H1497 H 0.18013 0.77717 0.69447 0.0
H1498 H 0.10209 0.87516 0.73258 0.0
H1499 H 0.13686 0.84404 0.7324 0.0
C1500 C 0.4525 0.82794 0.9793 0.0
C1501 C 0.44118 0.82678 1.00196 0.0
C1502 C 0.47151 0.84455 0.97474 0.0
C1503 C 0.52163 0.88095 1.00387 0.0
H1504 H 0.52247 0.91099 0.94207 0.0
C1505 C 0.60196 0.94636 0.97485 0.0
C1506 C 0.61128 0.94271 0.95151 0.0
C1507 C 0.58033 0.93402 0.98275 0.0
C1508 C 0.52263 0.90265 0.95936 0.0
H1509 H 0.44088 0.84256 0.0376 0.0
H1510 H 0.4743 0.8718 0.02956 0.0
H1511 H 0.4856 0.8871 0.95278 0.0
H1512 H 0.6049 0.92329 0.91817 0.0
H1513 H 0.56775 0.90164 0.93198 0.0
H1514 H 0.55899 0.89632 0.01021 0.0
C1515 C 0.46841 0.85963 0.01537 0.0
C1516 C 0.50146 0.88897 0.96552 0.0
C1517 C 0.44914 0.843 0.01992 0.0
C1518 C 0.59856 0.92633 0.93636 0.0
C1519 C 0.57697 0.91414 0.94418 0.0
C1520 C 0.54288 0.89473 0.9977 0.0
C1521 C 0.47986 0.86054 0.99271 0.0
C1522 C 0.50095 0.87745 0.9876 0.0
C1523 C 0.5674 0.91797 0.96737 0.0
C1524 C 0.54389 0.90525 0.97512 0.0
H1525 H 0.44692 0.81577 0.96499 0.0
H1526 H 0.48016 0.84445 0.9572 0.0
H1527 H 0.52192 0.87221 0.02097 0.0
H1528 H 0.61138 0.95876 0.98702 0.0
H1529 H 0.5734 0.93741 1.0007 0.0
C1530 C 0.92452 0.11345 0.43468 0.0
C1531 C 0.91638 0.09333 0.44706 0.0
C1532 C 0.94523 0.12705 0.44327 0.0
C1533 C 0.98477 0.14098 0.49744 0.0
H1534 H 0.03321 0.16402 0.45112 0.0
C1535 C 0.07815 0.19312 0.5245 0.0
C1536 C 0.08406 0.21268 0.51021 0.0
C1537 C 0.05837 0.17742 0.51764 0.0
C1538 C 0.01976 0.15796 0.46433 0.0
H1539 H 0.92361 0.07217 0.4786 0.0
H1540 H 0.95998 0.0958 0.49346 0.0
H1541 H 0.99745 0.13925 0.43787 0.0
H1542 H 0.07344 0.23094 0.47751 0.0
H1543 H 0.03922 0.20397 0.46583 0.0
H1544 H 0.00713 0.15993 0.52389 0.0
C1545 C 0.95016 0.1011 0.47712 0.0
C1546 C 0.99918 0.14372 0.45669 0.0
C1547 C 0.92943 0.0874 0.46847 0.0
C1548 C 0.06967 0.21607 0.48897 0.0
C1549 C 0.05004 0.20043 0.48213 0.0
C1550 C 0.00542 0.15531 0.5051 0.0
C1551 C 0.95851 0.12099 0.4645 0.0
C1552 C 0.98115 0.13527 0.47306 0.0
C1553 C 0.0441 0.18083 0.49628 0.0
C1554 C 0.02301 0.16428 0.48859 0.0
H1555 H 0.91527 0.11845 0.41798 0.0
H1556 H 0.9508 0.14241 0.4332 0.0
H1557 H 0.9712 0.13495 0.51055 0.0
H1558 H 0.08876 0.18995 0.541 0.0
H1559 H 0.05448 0.16244 0.52892 0.0
loop_
_geom_bond_atom_site_label_1
_geom_bond_atom_site_label_2
_geom_bond_distance
_geom_bond_site_symmetry_2
_ccdc_geom_bond_type
Tb0 C2 2.809 . S
Tb0 O20 2.484 . S
Tb0 O21 2.440 . S
Tb0 O22 2.658 . S
Tb0 O23 2.409 . S
Tb0 O24 2.378 . S
Tb0 O28 2.325 . S
Tb0 O31 2.341 . S
Tb1 C11 2.809 . S
Tb1 O22 2.325 . S
Tb1 O25 2.341 . S
Tb1 O26 2.484 . S
Tb1 O27 2.440 . S
Tb1 O28 2.658 . S
Tb1 O29 2.409 . S
Tb1 O30 2.378 . S
C2 Tb0 2.809 . S
C2 C3 1.514 . S
C2 O20 1.248 . S
C2 O21 1.266 . S
C3 C2 1.514 . S
C3 C4 1.359 . S
C3 C8 1.348 . S
C4 C3 1.359 . S
C4 C5 1.380 . S
C4 H32 0.929 . S
C5 C4 1.380 . S
C5 C6 1.347 . S
C5 H33 0.931 . S
C6 C5 1.347 . S
C6 C7 1.369 . S
C7 C6 1.369 . S
C7 C8 1.408 . S
C7 H34 0.930 . S
C8 C3 1.348 . S
C8 C7 1.408 . S
C8 H35 0.930 . S
C9 O22 1.281 . S
C9 O23 1.254 . S
C10 O24 1.236 . S
C10 O25 1.266 . S
C11 Tb1 2.809 . S
C11 C12 1.514 . S
C11 O26 1.248 . S
C11 O27 1.266 . S
C12 C11 1.514 . S
C12 C13 1.359 . S
C12 C17 1.348 . S
C13 C12 1.359 . S
C13 C14 1.380 . S
C13 H36 0.929 . S
C14 C13 1.380 . S
C14 C15 1.347 . S
C14 H37 0.931 . S
C15 C14 1.347 . S
C15 C16 1.369 . S
C16 C15 1.369 . S
C16 C17 1.408 . S
C16 H38 0.930 . S
C17 C12 1.348 . S
C17 C16 1.408 . S
C17 H39 0.930 . S
C18 O28 1.281 . S
C18 O29 1.254 . S
C19 O30 1.236 . S
C19 O31 1.266 . S
O20 Tb0 2.484 . S
O20 C2 1.248 . S
O21 Tb0 2.440 . S
O21 C2 1.266 . S
O22 Tb0 2.658 . S
O22 Tb1 2.325 . S
O22 C9 1.281 . S
O23 Tb0 2.409 . S
O23 C9 1.254 . S
O24 Tb0 2.378 . S
O24 C10 1.236 . S
O25 Tb1 2.341 . S
O25 C10 1.266 . S
O26 Tb1 2.484 . S
O26 C11 1.248 . S
O27 Tb1 2.440 . S
O27 C11 1.266 . S
O28 Tb0 2.325 . S
O28 Tb1 2.658 . S
O28 C18 1.281 . S
O29 Tb1 2.409 . S
O29 C18 1.254 . S
O30 Tb1 2.378 . S
O30 C19 1.236 . S
O31 Tb0 2.341 . S
O31 C19 1.266 . S
H32 C4 0.929 . S
H33 C5 0.931 . S
H34 C7 0.930 . S
H35 C8 0.930 . S
H36 C13 0.929 . S
H37 C14 0.931 . S
H38 C16 0.930 . S
H39 C17 0.930 . S
Tb40 C42 2.809 . S
Tb40 O60 2.484 . S
Tb40 O61 2.440 . S
Tb40 O62 2.658 1_655 S
Tb40 O63 2.409 1_655 S
Tb40 O64 2.378 1_655 S
Tb40 O68 2.325 . S
Tb40 O71 2.341 . S
Tb41 C51 2.809 . S
Tb41 O62 2.325 . S
Tb41 O65 2.341 . S
Tb41 O66 2.484 . S
Tb41 O67 2.440 . S
Tb41 O68 2.658 1_455 S
Tb41 O69 2.409 . S
Tb41 O70 2.378 . S
C42 Tb40 2.809 . S
C42 C43 1.514 . S
C42 O60 1.248 . S
C42 O61 1.266 . S
C43 C42 1.514 . S
C43 C44 1.359 . S
C43 C48 1.348 . S
C44 C43 1.359 . S
C44 C45 1.380 . S
C44 H72 0.929 . S
C45 C44 1.380 . S
C45 C46 1.347 . S
C45 H73 0.931 . S
C46 C45 1.347 . S
C46 C47 1.369 . S
C47 C46 1.369 . S
C47 C48 1.408 . S
C47 H74 0.930 . S
C48 C43 1.348 . S
C48 C47 1.408 . S
C48 H75 0.930 . S
C49 O62 1.281 . S
C49 O63 1.254 . S
C50 O64 1.236 . S
C50 O65 1.266 . S
C51 Tb41 2.809 . S
C51 C52 1.514 . S
C51 O66 1.248 . S
C51 O67 1.266 . S
C52 C51 1.514 . S
C52 C53 1.359 . S
C52 C57 1.348 . S
C53 C52 1.359 . S
C53 C54 1.380 . S
C53 H76 0.929 . S
C54 C53 1.380 . S
C54 C55 1.347 . S
C54 H77 0.931 . S
C55 C54 1.347 . S
C55 C56 1.369 . S
C56 C55 1.369 . S
C56 C57 1.408 . S
C56 H78 0.930 . S
C57 C52 1.348 . S
C57 C56 1.408 . S
C57 H79 0.930 . S
C58 O68 1.281 . S
C58 O69 1.254 1_655 S
C59 O70 1.236 1_655 S
C59 O71 1.266 . S
O60 Tb40 2.484 . S
O60 C42 1.248 . S
O61 Tb40 2.440 . S
O61 C42 1.266 . S
O62 Tb40 2.658 1_455 S
O62 Tb41 2.325 . S
O62 C49 1.281 . S
O63 Tb40 2.409 1_455 S
O63 C49 1.254 . S
O64 Tb40 2.378 1_455 S
O64 C50 1.236 . S
O65 Tb41 2.341 . S
O65 C50 1.266 . S
O66 Tb41 2.484 . S
O66 C51 1.248 . S
O67 Tb41 2.440 . S
O67 C51 1.266 . S
O68 Tb40 2.325 . S
O68 Tb41 2.658 1_655 S
O68 C58 1.281 . S
O69 Tb41 2.409 . S
O69 C58 1.254 1_455 S
O70 Tb41 2.378 . S
O70 C59 1.236 1_455 S
O71 Tb40 2.341 . S
O71 C59 1.266 . S
H72 C44 0.929 . S
H73 C45 0.931 . S
H74 C47 0.930 . S
H75 C48 0.930 . S
H76 C53 0.929 . S
H77 C54 0.931 . S
H78 C56 0.930 . S
H79 C57 0.930 . S
Tb80 C82 2.809 . S
Tb80 O100 2.484 . S
Tb80 O101 2.440 . S
Tb80 O102 2.658 1_554 S
Tb80 O103 2.409 1_554 S
Tb80 O104 2.378 1_554 S
Tb80 O108 2.325 . S
Tb80 O111 2.341 . S
Tb81 C91 2.809 . S
Tb81 O102 2.325 . S
Tb81 O105 2.341 . S
Tb81 O106 2.484 . S
Tb81 O107 2.440 . S
Tb81 O108 2.658 1_556 S
Tb81 O109 2.409 1_556 S
Tb81 O110 2.378 . S
C82 Tb80 2.809 . S
C82 C83 1.514 . S
C82 O100 1.248 . S
C82 O101 1.266 . S
C83 C82 1.514 . S
C83 C84 1.359 . S
C83 C88 1.348 . S
C84 C83 1.359 . S
C84 C85 1.380 . S
C84 H112 0.929 . S
C85 C84 1.380 . S
C85 C86 1.347 . S
C85 H113 0.931 . S
C86 C85 1.347 . S
C86 C87 1.369 . S
C87 C86 1.369 . S
C87 C88 1.408 . S
C87 H114 0.930 . S
C88 C83 1.348 . S
C88 C87 1.408 . S
C88 H115 0.930 . S
C89 O102 1.281 . S
C89 O103 1.254 . S
C90 O104 1.236 . S
C90 O105 1.266 . S
C91 Tb81 2.809 . S
C91 C92 1.514 . S
C91 O106 1.248 . S
C91 O107 1.266 . S
C92 C91 1.514 . S
C92 C93 1.359 . S
C92 C97 1.348 . S
C93 C92 1.359 . S
C93 C94 1.380 . S
C93 H116 0.929 . S
C94 C93 1.380 . S
C94 C95 1.347 . S
C94 H117 0.931 . S
C95 C94 1.347 . S
C95 C96 1.369 . S
C96 C95 1.369 . S
C96 C97 1.408 . S
C96 H118 0.930 . S
C97 C92 1.348 . S
C97 C96 1.408 . S
C97 H119 0.930 . S
C98 O108 1.281 . S
C98 O109 1.254 . S
C99 O110 1.236 1_554 S
C99 O111 1.266 . S
O100 Tb80 2.484 . S
O100 C82 1.248 . S
O101 Tb80 2.440 . S
O101 C82 1.266 . S
O102 Tb80 2.658 1_556 S
O102 Tb81 2.325 . S
O102 C89 1.281 . S
O103 Tb80 2.409 1_556 S
O103 C89 1.254 . S
O104 Tb80 2.378 1_556 S
O104 C90 1.236 . S
O105 Tb81 2.341 . S
O105 C90 1.266 . S
O106 Tb81 2.484 . S
O106 C91 1.248 . S
O107 Tb81 2.440 . S
O107 C91 1.266 . S
O108 Tb80 2.325 . S
O108 Tb81 2.658 1_554 S
O108 C98 1.281 . S
O109 Tb81 2.409 1_554 S
O109 C98 1.254 . S
O110 Tb81 2.378 . S
O110 C99 1.236 1_556 S
O111 Tb80 2.341 . S
O111 C99 1.266 . S
H112 C84 0.929 . S
H113 C85 0.931 . S
H114 C87 0.930 . S
H115 C88 0.930 . S
H116 C93 0.929 . S
H117 C94 0.931 . S
H118 C96 0.930 . S
H119 C97 0.930 . S
Tb120 C122 2.809 . S
Tb120 O140 2.484 . S
Tb120 O141 2.440 . S
Tb120 O142 2.658 . S
Tb120 O143 2.409 . S
Tb120 O144 2.378 . S
Tb120 O148 2.325 . S
Tb120 O151 2.341 . S
Tb121 C131 2.809 . S
Tb121 O142 2.325 . S
Tb121 O145 2.341 . S
Tb121 O146 2.484 . S
Tb121 O147 2.440 . S
Tb121 O148 2.658 . S
Tb121 O149 2.409 . S
Tb121 O150 2.378 . S
C122 Tb120 2.809 . S
C122 C123 1.514 . S
C122 O140 1.248 . S
C122 O141 1.266 . S
C123 C122 1.514 . S
C123 C124 1.359 . S
C123 C128 1.348 . S
C124 C123 1.359 . S
C124 C125 1.380 . S
C124 H152 0.929 . S
C125 C124 1.380 . S
C125 C126 1.347 . S
C125 H153 0.931 . S
C126 C125 1.347 . S
C126 C127 1.369 . S
C127 C126 1.369 . S
C127 C128 1.408 . S
C127 H154 0.930 . S
C128 C123 1.348 . S
C128 C127 1.408 . S
C128 H155 0.930 . S
C129 O142 1.281 . S
C129 O143 1.254 . S
C130 O144 1.236 . S
C130 O145 1.266 . S
C131 Tb121 2.809 . S
C131 C132 1.514 . S
C131 O146 1.248 . S
C131 O147 1.266 . S
C132 C131 1.514 . S
C132 C133 1.359 . S
C132 C137 1.348 . S
C133 C132 1.359 . S
C133 C134 1.380 . S
C133 H156 0.929 . S
C134 C133 1.380 . S
C134 C135 1.347 . S
C134 H157 0.931 . S
C135 C134 1.347 . S
C135 C136 1.369 . S
C136 C135 1.369 . S
C136 C137 1.408 . S
C136 H158 0.930 . S
C137 C132 1.348 . S
C137 C136 1.408 . S
C137 H159 0.930 . S
C138 O148 1.281 . S
C138 O149 1.254 . S
C139 O150 1.236 . S
C139 O151 1.266 . S
O140 Tb120 2.484 . S
O140 C122 1.248 . S
O141 Tb120 2.440 . S
O141 C122 1.266 . S
O142 Tb120 2.658 . S
O142 Tb121 2.325 . S
O142 C129 1.281 . S
O143 Tb120 2.409 . S
O143 C129 1.254 . S
O144 Tb120 2.378 . S
O144 C130 1.236 . S
O145 Tb121 2.341 . S
O145 C130 1.266 . S
O146 Tb121 2.484 . S
O146 C131 1.248 . S
O147 Tb121 2.440 . S
O147 C131 1.266 . S
O148 Tb120 2.325 . S
O148 Tb121 2.658 . S
O148 C138 1.281 . S
O149 Tb121 2.409 . S
O149 C138 1.254 . S
O150 Tb121 2.378 . S
O150 C139 1.236 . S
O151 Tb120 2.341 . S
O151 C139 1.266 . S
H152 C124 0.929 . S
H153 C125 0.931 . S
H154 C127 0.930 . S
H155 C128 0.930 . S
H156 C133 0.929 . S
H157 C134 0.931 . S
H158 C136 0.930 . S
H159 C137 0.930 . S
Tb160 C162 2.809 . S
Tb160 O180 2.484 . S
Tb160 O181 2.440 . S
Tb160 O182 2.658 . S
Tb160 O183 2.409 . S
Tb160 O184 2.378 . S
Tb160 O188 2.325 . S
Tb160 O191 2.341 . S
Tb161 C171 2.809 . S
Tb161 O182 2.325 . S
Tb161 O185 2.341 . S
Tb161 O186 2.484 . S
Tb161 O187 2.440 . S
Tb161 O188 2.658 . S
Tb161 O189 2.409 . S
Tb161 O190 2.378 . S
C162 Tb160 2.809 . S
C162 C163 1.514 . S
C162 O180 1.248 . S
C162 O181 1.266 . S
C163 C162 1.514 . S
C163 C164 1.359 . S
C163 C168 1.348 . S
C164 C163 1.359 . S
C164 C165 1.380 . S
C164 H192 0.929 . S
C165 C164 1.380 . S
C165 C166 1.347 . S
C165 H193 0.931 . S
C166 C165 1.347 . S
C166 C167 1.369 . S
C167 C166 1.369 . S
C167 C168 1.408 . S
C167 H194 0.930 . S
C168 C163 1.348 . S
C168 C167 1.408 . S
C168 H195 0.930 . S
C169 O182 1.281 . S
C169 O183 1.254 . S
C170 O184 1.236 . S
C170 O185 1.266 . S
C171 Tb161 2.809 . S
C171 C172 1.514 . S
C171 O186 1.248 . S
C171 O187 1.266 . S
C172 C171 1.514 . S
C172 C173 1.359 . S
C172 C177 1.348 . S
C173 C172 1.359 . S
C173 C174 1.380 . S
C173 H196 0.929 . S
C174 C173 1.380 . S
C174 C175 1.347 . S
C174 H197 0.931 . S
C175 C174 1.347 . S
C175 C176 1.369 . S
C176 C175 1.369 . S
C176 C177 1.408 . S
C176 H198 0.930 . S
C177 C172 1.348 . S
C177 C176 1.408 . S
C177 H199 0.930 . S
C178 O188 1.281 . S
C178 O189 1.254 . S
C179 O190 1.236 . S
C179 O191 1.266 . S
O180 Tb160 2.484 . S
O180 C162 1.248 . S
O181 Tb160 2.440 . S
O181 C162 1.266 . S
O182 Tb160 2.658 . S
O182 Tb161 2.325 . S
O182 C169 1.281 . S
O183 Tb160 2.409 . S
O183 C169 1.254 . S
O184 Tb160 2.378 . S
O184 C170 1.236 . S
O185 Tb161 2.341 . S
O185 C170 1.266 . S
O186 Tb161 2.484 . S
O186 C171 1.248 . S
O187 Tb161 2.440 . S
O187 C171 1.266 . S
O188 Tb160 2.325 . S
O188 Tb161 2.658 . S
O188 C178 1.281 . S
O189 Tb161 2.409 . S
O189 C178 1.254 . S
O190 Tb161 2.378 . S
O190 C179 1.236 . S
O191 Tb160 2.341 . S
O191 C179 1.266 . S
H192 C164 0.929 . S
H193 C165 0.931 . S
H194 C167 0.930 . S
H195 C168 0.930 . S
H196 C173 0.929 . S
H197 C174 0.931 . S
H198 C176 0.930 . S
H199 C177 0.930 . S
Tb200 C202 2.809 . S
Tb200 O220 2.484 . S
Tb200 O221 2.440 . S
Tb200 O222 2.658 . S
Tb200 O223 2.409 . S
Tb200 O224 2.378 . S
Tb200 O228 2.325 1_655 S
Tb200 O231 2.341 1_655 S
Tb201 C211 2.809 . S
Tb201 O222 2.325 1_455 S
Tb201 O225 2.341 1_455 S
Tb201 O226 2.484 . S
Tb201 O227 2.440 . S
Tb201 O228 2.658 . S
Tb201 O229 2.409 . S
Tb201 O230 2.378 . S
C202 Tb200 2.809 . S
C202 C203 1.514 . S
C202 O220 1.248 . S
C202 O221 1.266 . S
C203 C202 1.514 . S
C203 C204 1.359 . S
C203 C208 1.348 . S
C204 C203 1.359 . S
C204 C205 1.380 . S
C204 H232 0.929 . S
C205 C204 1.380 . S
C205 C206 1.347 . S
C205 H233 0.931 . S
C206 C205 1.347 . S
C206 C207 1.369 . S
C207 C206 1.369 . S
C207 C208 1.408 . S
C207 H234 0.930 . S
C208 C203 1.348 . S
C208 C207 1.408 . S
C208 H235 0.930 . S
C209 O222 1.281 . S
C209 O223 1.254 . S
C210 O224 1.236 . S
C210 O225 1.266 . S
C211 Tb201 2.809 . S
C211 C212 1.514 . S
C211 O226 1.248 . S
C211 O227 1.266 . S
C212 C211 1.514 . S
C212 C213 1.359 . S
C212 C217 1.348 . S
C213 C212 1.359 . S
C213 C214 1.380 . S
C213 H236 0.929 . S
C214 C213 1.380 . S
C214 C215 1.347 . S
C214 H237 0.931 . S
C215 C214 1.347 . S
C215 C216 1.369 . S
C216 C215 1.369 . S
C216 C217 1.408 . S
C216 H238 0.930 . S
C217 C212 1.348 . S
C217 C216 1.408 . S
C217 H239 0.930 . S
C218 O228 1.281 . S
C218 O229 1.254 . S
C219 O230 1.236 . S
C219 O231 1.266 . S
O220 Tb200 2.484 . S
O220 C202 1.248 . S
O221 Tb200 2.440 . S
O221 C202 1.266 . S
O222 Tb200 2.658 . S
O222 Tb201 2.325 1_655 S
O222 C209 1.281 . S
O223 Tb200 2.409 . S
O223 C209 1.254 . S
O224 Tb200 2.378 . S
O224 C210 1.236 . S
O225 Tb201 2.341 1_655 S
O225 C210 1.266 . S
O226 Tb201 2.484 . S
O226 C211 1.248 . S
O227 Tb201 2.440 . S
O227 C211 1.266 . S
O228 Tb200 2.325 1_455 S
O228 Tb201 2.658 . S
O228 C218 1.281 . S
O229 Tb201 2.409 . S
O229 C218 1.254 . S
O230 Tb201 2.378 . S
O230 C219 1.236 . S
O231 Tb200 2.341 1_455 S
O231 C219 1.266 . S
H232 C204 0.929 . S
H233 C205 0.931 . S
H234 C207 0.930 . S
H235 C208 0.930 . S
H236 C213 0.929 . S
H237 C214 0.931 . S
H238 C216 0.930 . S
H239 C217 0.930 . S
Tb240 C242 2.809 . S
Tb240 O260 2.484 . S
Tb240 O261 2.440 . S
Tb240 O262 2.658 . S
Tb240 O263 2.409 . S
Tb240 O264 2.378 . S
Tb240 O268 2.325 . S
Tb240 O271 2.341 . S
Tb241 C251 2.809 1_554 S
Tb241 O262 2.325 . S
Tb241 O265 2.341 . S
Tb241 O266 2.484 1_554 S
Tb241 O267 2.440 1_554 S
Tb241 O268 2.658 . S
Tb241 O269 2.409 1_554 S
Tb241 O270 2.378 1_554 S
C242 Tb240 2.809 . S
C242 C243 1.514 . S
C242 O260 1.248 . S
C242 O261 1.266 . S
C243 C242 1.514 . S
C243 C244 1.359 . S
C243 C248 1.348 . S
C244 C243 1.359 . S
C244 C245 1.380 . S
C244 H272 0.929 . S
C245 C244 1.380 . S
C245 C246 1.347 . S
C245 H273 0.931 . S
C246 C245 1.347 . S
C246 C247 1.369 . S
C247 C246 1.369 . S
C247 C248 1.408 . S
C247 H274 0.930 . S
C248 C243 1.348 . S
C248 C247 1.408 . S
C248 H275 0.930 . S
C249 O262 1.281 . S
C249 O263 1.254 . S
C250 O264 1.236 . S
C250 O265 1.266 . S
C251 Tb241 2.809 1_556 S
C251 C252 1.514 . S
C251 O266 1.248 . S
C251 O267 1.266 . S
C252 C251 1.514 . S
C252 C253 1.359 . S
C252 C257 1.348 . S
C253 C252 1.359 . S
C253 C254 1.380 . S
C253 H276 0.929 . S
C254 C253 1.380 . S
C254 C255 1.347 . S
C254 H277 0.931 . S
C255 C254 1.347 . S
C255 C256 1.369 . S
C256 C255 1.369 . S
C256 C257 1.408 . S
C256 H278 0.930 . S
C257 C252 1.348 . S
C257 C256 1.408 . S
C257 H279 0.930 . S
C258 O268 1.281 . S
C258 O269 1.254 1_554 S
C259 O270 1.236 . S
C259 O271 1.266 1_556 S
O260 Tb240 2.484 . S
O260 C242 1.248 . S
O261 Tb240 2.440 . S
O261 C242 1.266 . S
O262 Tb240 2.658 . S
O262 Tb241 2.325 . S
O262 C249 1.281 . S
O263 Tb240 2.409 . S
O263 C249 1.254 . S
O264 Tb240 2.378 . S
O264 C250 1.236 . S
O265 Tb241 2.341 . S
O265 C250 1.266 . S
O266 Tb241 2.484 1_556 S
O266 C251 1.248 . S
O267 Tb241 2.440 1_556 S
O267 C251 1.266 . S
O268 Tb240 2.325 . S
O268 Tb241 2.658 . S
O268 C258 1.281 . S
O269 Tb241 2.409 1_556 S
O269 C258 1.254 1_556 S
O270 Tb241 2.378 1_556 S
O270 C259 1.236 . S
O271 Tb240 2.341 . S
O271 C259 1.266 1_554 S
H272 C244 0.929 . S
H273 C245 0.931 . S
H274 C247 0.930 . S
H275 C248 0.930 . S
H276 C253 0.929 . S
H277 C254 0.931 . S
H278 C256 0.930 . S
H279 C257 0.930 . S
Tb280 C282 2.809 . S
Tb280 O300 2.484 . S
Tb280 O301 2.440 . S
Tb280 O302 2.658 . S
Tb280 O303 2.409 . S
Tb280 O304 2.378 . S
Tb280 O308 2.325 . S
Tb280 O311 2.341 . S
Tb281 C291 2.809 . S
Tb281 O302 2.325 . S
Tb281 O305 2.341 . S
Tb281 O306 2.484 . S
Tb281 O307 2.440 . S
Tb281 O308 2.658 . S
Tb281 O309 2.409 . S
Tb281 O310 2.378 . S
C282 Tb280 2.809 . S
C282 C283 1.514 . S
C282 O300 1.248 . S
C282 O301 1.266 . S
C283 C282 1.514 . S
C283 C284 1.359 . S
C283 C288 1.348 . S
C284 C283 1.359 . S
C284 C285 1.380 . S
C284 H312 0.929 . S
C285 C284 1.380 . S
C285 C286 1.347 . S
C285 H313 0.931 . S
C286 C285 1.347 . S
C286 C287 1.369 . S
C287 C286 1.369 . S
C287 C288 1.408 . S
C287 H314 0.930 . S
C288 C283 1.348 . S
C288 C287 1.408 . S
C288 H315 0.930 . S
C289 O302 1.281 . S
C289 O303 1.254 . S
C290 O304 1.236 . S
C290 O305 1.266 . S
C291 Tb281 2.809 . S
C291 C292 1.514 . S
C291 O306 1.248 . S
C291 O307 1.266 . S
C292 C291 1.514 . S
C292 C293 1.359 . S
C292 C297 1.348 . S
C293 C292 1.359 . S
C293 C294 1.380 . S
C293 H316 0.929 . S
C294 C293 1.380 . S
C294 C295 1.347 . S
C294 H317 0.931 . S
C295 C294 1.347 . S
C295 C296 1.369 . S
C296 C295 1.369 . S
C296 C297 1.408 . S
C296 H318 0.930 . S
C297 C292 1.348 . S
C297 C296 1.408 . S
C297 H319 0.930 . S
C298 O308 1.281 . S
C298 O309 1.254 . S
C299 O310 1.236 . S
C299 O311 1.266 . S
O300 Tb280 2.484 . S
O300 C282 1.248 . S
O301 Tb280 2.440 . S
O301 C282 1.266 . S
O302 Tb280 2.658 . S
O302 Tb281 2.325 . S
O302 C289 1.281 . S
O303 Tb280 2.409 . S
O303 C289 1.254 . S
O304 Tb280 2.378 . S
O304 C290 1.236 . S
O305 Tb281 2.341 . S
O305 C290 1.266 . S
O306 Tb281 2.484 . S
O306 C291 1.248 . S
O307 Tb281 2.440 . S
O307 C291 1.266 . S
O308 Tb280 2.325 . S
O308 Tb281 2.658 . S
O308 C298 1.281 . S
O309 Tb281 2.409 . S
O309 C298 1.254 . S
O310 Tb281 2.378 . S
O310 C299 1.236 . S
O311 Tb280 2.341 . S
O311 C299 1.266 . S
H312 C284 0.929 . S
H313 C285 0.931 . S
H314 C287 0.930 . S
H315 C288 0.930 . S
H316 C293 0.929 . S
H317 C294 0.931 . S
H318 C296 0.930 . S
H319 C297 0.930 . S
Tb320 C322 2.809 . S
Tb320 O340 2.484 . S
Tb320 O341 2.440 . S
Tb320 O342 2.658 . S
Tb320 O343 2.409 . S
Tb320 O344 2.378 . S
Tb320 O348 2.325 . S
Tb320 O351 2.341 . S
Tb321 C331 2.809 . S
Tb321 O342 2.325 . S
Tb321 O345 2.341 . S
Tb321 O346 2.484 . S
Tb321 O347 2.440 . S
Tb321 O348 2.658 . S
Tb321 O349 2.409 . S
Tb321 O350 2.378 . S
C322 Tb320 2.809 . S
C322 C323 1.514 . S
C322 O340 1.248 . S
C322 O341 1.266 . S
C323 C322 1.514 . S
C323 C324 1.359 . S
C323 C328 1.348 . S
C324 C323 1.359 . S
C324 C325 1.380 . S
C324 H352 0.929 . S
C325 C324 1.380 . S
C325 C326 1.347 . S
C325 H353 0.931 . S
C326 C325 1.347 . S
C326 C327 1.369 . S
C327 C326 1.369 . S
C327 C328 1.408 . S
C327 H354 0.930 . S
C328 C323 1.348 . S
C328 C327 1.408 . S
C328 H355 0.930 . S
C329 O342 1.281 . S
C329 O343 1.254 . S
C330 O344 1.236 . S
C330 O345 1.266 . S
C331 Tb321 2.809 . S
C331 C332 1.514 . S
C331 O346 1.248 . S
C331 O347 1.266 . S
C332 C331 1.514 . S
C332 C333 1.359 . S
C332 C337 1.348 . S
C333 C332 1.359 . S
C333 C334 1.380 . S
C333 H356 0.929 . S
C334 C333 1.380 . S
C334 C335 1.347 . S
C334 H357 0.931 . S
C335 C334 1.347 . S
C335 C336 1.369 . S
C336 C335 1.369 . S
C336 C337 1.408 . S
C336 H358 0.930 . S
C337 C332 1.348 . S
C337 C336 1.408 . S
C337 H359 0.930 . S
C338 O348 1.281 . S
C338 O349 1.254 . S
C339 O350 1.236 . S
C339 O351 1.266 . S
O340 Tb320 2.484 . S
O340 C322 1.248 . S
O341 Tb320 2.440 . S
O341 C322 1.266 . S
O342 Tb320 2.658 . S
O342 Tb321 2.325 . S
O342 C329 1.281 . S
O343 Tb320 2.409 . S
O343 C329 1.254 . S
O344 Tb320 2.378 . S
O344 C330 1.236 . S
O345 Tb321 2.341 . S
O345 C330 1.266 . S
O346 Tb321 2.484 . S
O346 C331 1.248 . S
O347 Tb321 2.440 . S
O347 C331 1.266 . S
O348 Tb320 2.325 . S
O348 Tb321 2.658 . S
O348 C338 1.281 . S
O349 Tb321 2.409 . S
O349 C338 1.254 . S
O350 Tb321 2.378 . S
O350 C339 1.236 . S
O351 Tb320 2.341 . S
O351 C339 1.266 . S
H352 C324 0.929 . S
H353 C325 0.931 . S
H354 C327 0.930 . S
H355 C328 0.930 . S
H356 C333 0.929 . S
H357 C334 0.931 . S
H358 C336 0.930 . S
H359 C337 0.930 . S
Tb360 C362 2.809 . S
Tb360 O380 2.484 . S
Tb360 O381 2.440 . S
Tb360 O382 2.658 . S
Tb360 O383 2.409 . S
Tb360 O384 2.378 . S
Tb360 O388 2.325 . S
Tb360 O391 2.341 . S
Tb361 C371 2.809 1_545 S
Tb361 O382 2.325 . S
Tb361 O385 2.341 . S
Tb361 O386 2.484 1_545 S
Tb361 O387 2.440 1_545 S
Tb361 O388 2.658 . S
Tb361 O389 2.409 1_545 S
Tb361 O390 2.378 1_545 S
C362 Tb360 2.809 . S
C362 C363 1.514 . S
C362 O380 1.248 . S
C362 O381 1.266 . S
C363 C362 1.514 . S
C363 C364 1.359 . S
C363 C368 1.348 . S
C364 C363 1.359 . S
C364 C365 1.380 . S
C364 H392 0.929 . S
C365 C364 1.380 . S
C365 C366 1.347 . S
C365 H393 0.931 . S
C366 C365 1.347 . S
C366 C367 1.369 . S
C367 C366 1.369 . S
C367 C368 1.408 . S
C367 H394 0.930 . S
C368 C363 1.348 . S
C368 C367 1.408 . S
C368 H395 0.930 . S
C369 O382 1.281 . S
C369 O383 1.254 . S
C370 O384 1.236 . S
C370 O385 1.266 . S
C371 Tb361 2.809 1_565 S
C371 C372 1.514 . S
C371 O386 1.248 . S
C371 O387 1.266 . S
C372 C371 1.514 . S
C372 C373 1.359 . S
C372 C377 1.348 . S
C373 C372 1.359 . S
C373 C374 1.380 . S
C373 H396 0.929 . S
C374 C373 1.380 . S
C374 C375 1.347 . S
C374 H397 0.931 . S
C375 C374 1.347 . S
C375 C376 1.369 . S
C376 C375 1.369 . S
C376 C377 1.408 . S
C376 H398 0.930 . S
C377 C372 1.348 . S
C377 C376 1.408 . S
C377 H399 0.930 . S
C378 O388 1.281 . S
C378 O389 1.254 1_545 S
C379 O390 1.236 . S
C379 O391 1.266 1_565 S
O380 Tb360 2.484 . S
O380 C362 1.248 . S
O381 Tb360 2.440 . S
O381 C362 1.266 . S
O382 Tb360 2.658 . S
O382 Tb361 2.325 . S
O382 C369 1.281 . S
O383 Tb360 2.409 . S
O383 C369 1.254 . S
O384 Tb360 2.378 . S
O384 C370 1.236 . S
O385 Tb361 2.341 . S
O385 C370 1.266 . S
O386 Tb361 2.484 1_565 S
O386 C371 1.248 . S
O387 Tb361 2.440 1_565 S
O387 C371 1.266 . S
O388 Tb360 2.325 . S
O388 Tb361 2.658 . S
O388 C378 1.281 . S
O389 Tb361 2.409 1_565 S
O389 C378 1.254 1_565 S
O390 Tb361 2.378 1_565 S
O390 C379 1.236 . S
O391 Tb360 2.341 . S
O391 C379 1.266 1_545 S
H392 C364 0.929 . S
H393 C365 0.931 . S
H394 C367 0.930 . S
H395 C368 0.930 . S
H396 C373 0.929 . S
H397 C374 0.931 . S
H398 C376 0.930 . S
H399 C377 0.930 . S
Tb400 C402 2.809 . S
Tb400 O420 2.484 . S
Tb400 O421 2.440 . S
Tb400 O422 2.658 . S
Tb400 O423 2.409 . S
Tb400 O424 2.378 . S
Tb400 O428 2.325 . S
Tb400 O431 2.341 1_565 S
Tb401 C411 2.809 . S
Tb401 O422 2.325 1_545 S
Tb401 O425 2.341 1_545 S
Tb401 O426 2.484 . S
Tb401 O427 2.440 . S
Tb401 O428 2.658 1_545 S
Tb401 O429 2.409 . S
Tb401 O430 2.378 . S
C402 Tb400 2.809 . S
C402 C403 1.514 . S
C402 O420 1.248 . S
C402 O421 1.266 . S
C403 C402 1.514 . S
C403 C404 1.359 . S
C403 C408 1.348 . S
C404 C403 1.359 . S
C404 C405 1.380 . S
C404 H432 0.929 . S
C405 C404 1.380 . S
C405 C406 1.347 . S
C405 H433 0.931 . S
C406 C405 1.347 . S
C406 C407 1.369 . S
C407 C406 1.369 . S
C407 C408 1.408 . S
C407 H434 0.930 . S
C408 C403 1.348 . S
C408 C407 1.408 . S
C408 H435 0.930 . S
C409 O422 1.281 . S
C409 O423 1.254 . S
C410 O424 1.236 . S
C410 O425 1.266 . S
C411 Tb401 2.809 . S
C411 C412 1.514 . S
C411 O426 1.248 . S
C411 O427 1.266 . S
C412 C411 1.514 . S
C412 C413 1.359 . S
C412 C417 1.348 . S
C413 C412 1.359 . S
C413 C414 1.380 . S
C413 H436 0.929 . S
C414 C413 1.380 . S
C414 C415 1.347 . S
C414 H437 0.931 . S
C415 C414 1.347 . S
C415 C416 1.369 . S
C416 C415 1.369 . S
C416 C417 1.408 . S
C416 H438 0.930 . S
C417 C412 1.348 . S
C417 C416 1.408 . S
C417 H439 0.930 . S
C418 O428 1.281 1_545 S
C418 O429 1.254 . S
C419 O430 1.236 . S
C419 O431 1.266 . S
O420 Tb400 2.484 . S
O420 C402 1.248 . S
O421 Tb400 2.440 . S
O421 C402 1.266 . S
O422 Tb400 2.658 . S
O422 Tb401 2.325 1_565 S
O422 C409 1.281 . S
O423 Tb400 2.409 . S
O423 C409 1.254 . S
O424 Tb400 2.378 . S
O424 C410 1.236 . S
O425 Tb401 2.341 1_565 S
O425 C410 1.266 . S
O426 Tb401 2.484 . S
O426 C411 1.248 . S
O427 Tb401 2.440 . S
O427 C411 1.266 . S
O428 Tb400 2.325 . S
O428 Tb401 2.658 1_565 S
O428 C418 1.281 1_565 S
O429 Tb401 2.409 . S
O429 C418 1.254 . S
O430 Tb401 2.378 . S
O430 C419 1.236 . S
O431 Tb400 2.341 1_545 S
O431 C419 1.266 . S
H432 C404 0.929 . S
H433 C405 0.931 . S
H434 C407 0.930 . S
H435 C408 0.930 . S
H436 C413 0.929 . S
H437 C414 0.931 . S
H438 C416 0.930 . S
H439 C417 0.930 . S
Tb440 C442 2.809 . S
Tb440 O460 2.484 . S
Tb440 O461 2.440 . S
Tb440 O462 2.658 . S
Tb440 O463 2.409 . S
Tb440 O464 2.378 . S
Tb440 O468 2.325 . S
Tb440 O471 2.341 . S
Tb441 C451 2.809 . S
Tb441 O462 2.325 . S
Tb441 O465 2.341 . S
Tb441 O466 2.484 . S
Tb441 O467 2.440 . S
Tb441 O468 2.658 . S
Tb441 O469 2.409 . S
Tb441 O470 2.378 . S
C442 Tb440 2.809 . S
C442 C443 1.514 . S
C442 O460 1.248 . S
C442 O461 1.266 . S
C443 C442 1.514 . S
C443 C444 1.359 . S
C443 C448 1.348 . S
C444 C443 1.359 . S
C444 C445 1.380 . S
C444 H472 0.929 . S
C445 C444 1.380 . S
C445 C446 1.347 . S
C445 H473 0.931 . S
C446 C445 1.347 . S
C446 C447 1.369 . S
C447 C446 1.369 . S
C447 C448 1.408 . S
C447 H474 0.930 . S
C448 C443 1.348 . S
C448 C447 1.408 . S
C448 H475 0.930 . S
C449 O462 1.281 . S
C449 O463 1.254 . S
C450 O464 1.236 . S
C450 O465 1.266 . S
C451 Tb441 2.809 . S
C451 C452 1.514 . S
C451 O466 1.248 . S
C451 O467 1.266 . S
C452 C451 1.514 . S
C452 C453 1.359 . S
C452 C457 1.348 . S
C453 C452 1.359 . S
C453 C454 1.380 . S
C453 H476 0.929 . S
C454 C453 1.380 . S
C454 C455 1.347 . S
C454 H477 0.931 . S
C455 C454 1.347 . S
C455 C456 1.369 . S
C456 C455 1.369 . S
C456 C457 1.408 . S
C456 H478 0.930 . S
C457 C452 1.348 . S
C457 C456 1.408 . S
C457 H479 0.930 . S
C458 O468 1.281 . S
C458 O469 1.254 . S
C459 O470 1.236 . S
C459 O471 1.266 . S
O460 Tb440 2.484 . S
O460 C442 1.248 . S
O461 Tb440 2.440 . S
O461 C442 1.266 . S
O462 Tb440 2.658 . S
O462 Tb441 2.325 . S
O462 C449 1.281 . S
O463 Tb440 2.409 . S
O463 C449 1.254 . S
O464 Tb440 2.378 . S
O464 C450 1.236 . S
O465 Tb441 2.341 . S
O465 C450 1.266 . S
O466 Tb441 2.484 . S
O466 C451 1.248 . S
O467 Tb441 2.440 . S
O467 C451 1.266 . S
O468 Tb440 2.325 . S
O468 Tb441 2.658 . S
O468 C458 1.281 . S
O469 Tb441 2.409 . S
O469 C458 1.254 . S
O470 Tb441 2.378 . S
O470 C459 1.236 . S
O471 Tb440 2.341 . S
O471 C459 1.266 . S
H472 C444 0.929 . S
H473 C445 0.931 . S
H474 C447 0.930 . S
H475 C448 0.930 . S
H476 C453 0.929 . S
H477 C454 0.931 . S
H478 C456 0.930 . S
H479 C457 0.930 . S
C480 C481 1.349 . S
C480 C482 1.327 . S
C480 H505 0.950 . S
C481 C480 1.349 . S
C481 C497 1.349 . S
C482 C480 1.327 . S
C482 C501 1.429 . S
C482 H506 0.950 . S
C483 C500 1.574 . S
C483 C502 1.368 . S
C483 H507 0.949 . S
H484 C488 0.949 . S
C485 C486 1.349 . S
C485 C487 1.327 . S
C485 H508 0.950 . S
C486 C485 1.349 . S
C486 C498 1.349 . S
C487 C485 1.327 . S
C487 C503 1.429 . S
C487 H509 0.950 . S
C488 H484 0.949 . S
C488 C496 1.574 . S
C488 C504 1.368 . S
H489 C497 0.950 . S
H490 C495 0.950 . S
H491 C496 0.949 . S
H492 C498 0.950 . S
H493 C499 0.950 . S
H494 C500 0.949 . S
C495 H490 0.950 . S
C495 C497 1.327 . S
C495 C501 1.429 . S
C496 C488 1.574 . S
C496 H491 0.949 . S
C496 C502 1.368 . S
C497 C481 1.349 . S
C497 H489 0.950 . S
C497 C495 1.327 . S
C498 C486 1.349 . S
C498 H492 0.950 . S
C498 C499 1.327 . S
C499 H493 0.950 . S
C499 C498 1.327 . S
C499 C503 1.429 . S
C500 C483 1.574 . S
C500 H494 0.949 . S
C500 C504 1.368 . S
C501 C482 1.429 . S
C501 C495 1.429 . S
C501 C502 1.523 . S
C502 C483 1.368 . S
C502 C496 1.368 . S
C502 C501 1.523 . S
C503 C487 1.429 . S
C503 C499 1.429 . S
C503 C504 1.523 . S
C504 C488 1.368 . S
C504 C500 1.368 . S
C504 C503 1.523 . S
H505 C480 0.950 . S
H506 C482 0.950 . S
H507 C483 0.949 . S
H508 C485 0.950 . S
H509 C487 0.950 . S
C510 C511 1.348 1_545 S
C510 C512 1.324 1_545 S
C510 H535 0.953 . S
C511 C510 1.348 1_565 S
C511 C527 1.358 . S
C512 C510 1.324 1_565 S
C512 C531 1.429 . S
C512 H536 0.950 . S
C513 C530 1.574 . S
C513 C532 1.368 . S
C513 H537 0.949 . S
H514 C518 0.949 . S
C515 C516 1.349 . S
C515 C517 1.327 . S
C515 H538 0.950 . S
C516 C515 1.349 . S
C516 C528 1.349 . S
C517 C515 1.327 . S
C517 C533 1.429 . S
C517 H539 0.950 . S
C518 H514 0.949 . S
C518 C526 1.574 . S
C518 C534 1.368 . S
H519 C527 0.950 . S
H520 C525 0.950 . S
H521 C526 0.949 . S
H522 C528 0.950 . S
H523 C529 0.950 . S
H524 C530 0.949 . S
C525 H520 0.950 . S
C525 C527 1.327 . S
C525 C531 1.429 . S
C526 C518 1.574 . S
C526 H521 0.949 . S
C526 C532 1.368 . S
C527 C511 1.358 . S
C527 H519 0.950 . S
C527 C525 1.327 . S
C528 C516 1.349 . S
C528 H522 0.950 . S
C528 C529 1.327 . S
C529 H523 0.950 . S
C529 C528 1.327 . S
C529 C533 1.429 . S
C530 C513 1.574 . S
C530 H524 0.949 . S
C530 C534 1.368 . S
C531 C512 1.429 . S
C531 C525 1.429 . S
C531 C532 1.523 . S
C532 C513 1.368 . S
C532 C526 1.368 . S
C532 C531 1.523 . S
C533 C517 1.429 . S
C533 C529 1.429 . S
C533 C534 1.523 . S
C534 C518 1.368 . S
C534 C530 1.368 . S
C534 C533 1.523 . S
H535 C510 0.953 . S
H536 C512 0.950 . S
H537 C513 0.949 . S
H538 C515 0.950 . S
H539 C517 0.950 . S
C540 C541 1.349 . S
C540 C542 1.327 . S
C540 H565 0.950 . S
C541 C540 1.349 . S
C541 C557 1.349 . S
C542 C540 1.327 . S
C542 C561 1.429 . S
C542 H566 0.950 . S
C543 C560 1.574 . S
C543 C562 1.368 . S
C543 H567 0.949 . S
H544 C548 0.949 . S
C545 C546 1.349 . S
C545 C547 1.327 . S
C545 H568 0.950 . S
C546 C545 1.349 . S
C546 C558 1.349 . S
C547 C545 1.327 . S
C547 C563 1.429 . S
C547 H569 0.950 . S
C548 H544 0.949 . S
C548 C556 1.574 . S
C548 C564 1.368 . S
H549 C557 0.950 . S
H550 C555 0.950 . S
H551 C556 0.949 . S
H552 C558 0.950 . S
H553 C559 0.950 . S
H554 C560 0.949 . S
C555 H550 0.950 . S
C555 C557 1.327 . S
C555 C561 1.429 . S
C556 C548 1.574 . S
C556 H551 0.949 . S
C556 C562 1.368 . S
C557 C541 1.349 . S
C557 H549 0.950 . S
C557 C555 1.327 . S
C558 C546 1.349 . S
C558 H552 0.950 . S
C558 C559 1.327 . S
C559 H553 0.950 . S
C559 C558 1.327 . S
C559 C563 1.429 . S
C560 C543 1.574 . S
C560 H554 0.949 . S
C560 C564 1.368 . S
C561 C542 1.429 . S
C561 C555 1.429 . S
C561 C562 1.523 . S
C562 C543 1.368 . S
C562 C556 1.368 . S
C562 C561 1.523 . S
C563 C547 1.429 . S
C563 C559 1.429 . S
C563 C564 1.523 . S
C564 C548 1.368 . S
C564 C560 1.368 . S
C564 C563 1.523 . S
H565 C540 0.950 . S
H566 C542 0.950 . S
H567 C543 0.949 . S
H568 C545 0.950 . S
H569 C547 0.950 . S
C570 C571 1.349 . S
C570 C572 1.327 . S
C570 H595 0.950 . S
C571 C570 1.349 . S
C571 C587 1.349 . S
C572 C570 1.327 . S
C572 C591 1.429 . S
C572 H596 0.950 . S
C573 C590 1.574 . S
C573 C592 1.368 . S
C573 H597 0.949 . S
H574 C578 0.949 . S
C575 C576 1.349 . S
C575 C577 1.327 . S
C575 H598 0.950 1_545 S
C576 C575 1.349 . S
C576 C588 1.349 . S
C577 C575 1.327 . S
C577 C593 1.429 . S
C577 H599 0.950 . S
C578 H574 0.949 . S
C578 C586 1.574 . S
C578 C594 1.368 . S
H579 C587 0.950 . S
H580 C585 0.950 . S
H581 C586 0.949 . S
H582 C588 0.950 . S
H583 C589 0.950 . S
H584 C590 0.949 . S
C585 H580 0.950 . S
C585 C587 1.327 . S
C585 C591 1.429 . S
C586 C578 1.574 . S
C586 H581 0.949 . S
C586 C592 1.368 . S
C587 C571 1.349 . S
C587 H579 0.950 . S
C587 C585 1.327 . S
C588 C576 1.349 . S
C588 H582 0.950 . S
C588 C589 1.327 . S
C589 H583 0.950 . S
C589 C588 1.327 . S
C589 C593 1.429 . S
C590 C573 1.574 . S
C590 H584 0.949 . S
C590 C594 1.368 . S
C591 C572 1.429 . S
C591 C585 1.429 . S
C591 C592 1.523 . S
C592 C573 1.368 . S
C592 C586 1.368 . S
C592 C591 1.523 . S
C593 C577 1.429 . S
C593 C589 1.429 . S
C593 C594 1.523 . S
C594 C578 1.368 . S
C594 C590 1.368 . S
C594 C593 1.523 . S
H595 C570 0.950 . S
H596 C572 0.950 . S
H597 C573 0.949 . S
H598 C575 0.950 1_565 S
H599 C577 0.950 . S
C600 C601 1.349 . S
C600 C602 1.327 . S
C600 H625 0.950 . S
C601 C600 1.349 . S
C601 C617 1.349 . S
C602 C600 1.327 . S
C602 C621 1.429 . S
C602 H626 0.950 . S
C603 C620 1.574 . S
C603 C622 1.368 . S
C603 H627 0.949 . S
H604 C608 0.949 . S
C605 C606 1.349 . S
C605 C607 1.327 . S
C605 H628 0.950 . S
C606 C605 1.349 . S
C606 C618 1.349 . S
C607 C605 1.327 . S
C607 C623 1.429 . S
C607 H629 0.950 . S
C608 H604 0.949 . S
C608 C616 1.574 . S
C608 C624 1.368 . S
H609 C617 0.950 . S
H610 C615 0.950 . S
H611 C616 0.949 . S
H612 C618 0.950 . S
H613 C619 0.950 . S
H614 C620 0.949 . S
C615 H610 0.950 . S
C615 C617 1.327 . S
C615 C621 1.429 . S
C616 C608 1.574 . S
C616 H611 0.949 . S
C616 C622 1.368 . S
C617 C601 1.349 . S
C617 H609 0.950 . S
C617 C615 1.327 . S
C618 C606 1.349 . S
C618 H612 0.950 . S
C618 C619 1.327 . S
C619 H613 0.950 . S
C619 C618 1.327 . S
C619 C623 1.429 . S
C620 C603 1.574 . S
C620 H614 0.949 . S
C620 C624 1.368 . S
C621 C602 1.429 . S
C621 C615 1.429 . S
C621 C622 1.523 . S
C622 C603 1.368 . S
C622 C616 1.368 . S
C622 C621 1.523 . S
C623 C607 1.429 . S
C623 C619 1.429 . S
C623 C624 1.523 . S
C624 C608 1.368 . S
C624 C620 1.368 . S
C624 C623 1.523 . S
H625 C600 0.950 . S
H626 C602 0.950 . S
H627 C603 0.949 . S
H628 C605 0.950 . S
H629 C607 0.950 . S
C630 C631 1.349 . S
C630 C632 1.327 . S
C630 H655 0.950 . S
C631 C630 1.349 . S
C631 C647 1.349 . S
C632 C630 1.327 . S
C632 C651 1.429 . S
C632 H656 0.950 . S
C633 C650 1.574 . S
C633 C652 1.368 . S
C633 H657 0.949 . S
H634 C638 0.949 . S
C635 C636 1.349 . S
C635 C637 1.327 . S
C635 H658 0.950 . S
C636 C635 1.349 . S
C636 C648 1.349 . S
C637 C635 1.327 . S
C637 C653 1.429 . S
C637 H659 0.950 . S
C638 H634 0.949 . S
C638 C646 1.574 . S
C638 C654 1.368 . S
H639 C647 0.950 . S
H640 C645 0.950 . S
H641 C646 0.949 . S
H642 C648 0.950 . S
H643 C649 0.950 . S
H644 C650 0.949 . S
C645 H640 0.950 . S
C645 C647 1.327 . S
C645 C651 1.429 . S
C646 C638 1.574 . S
C646 H641 0.949 . S
C646 C652 1.368 . S
C647 C631 1.349 . S
C647 H639 0.950 . S
C647 C645 1.327 . S
C648 C636 1.349 . S
C648 H642 0.950 . S
C648 C649 1.327 . S
C649 H643 0.950 . S
C649 C648 1.327 . S
C649 C653 1.429 . S
C650 C633 1.574 . S
C650 H644 0.949 . S
C650 C654 1.368 . S
C651 C632 1.429 . S
C651 C645 1.429 . S
C651 C652 1.523 . S
C652 C633 1.368 . S
C652 C646 1.368 . S
C652 C651 1.523 . S
C653 C637 1.429 . S
C653 C649 1.429 . S
C653 C654 1.523 . S
C654 C638 1.368 . S
C654 C650 1.368 . S
C654 C653 1.523 . S
H655 C630 0.950 . S
H656 C632 0.950 . S
H657 C633 0.949 . S
H658 C635 0.950 . S
H659 C637 0.950 . S
C660 C661 1.349 . S
C660 C662 1.327 . S
C660 H685 0.950 . S
C661 C660 1.349 . S
C661 C677 1.349 . S
C662 C660 1.327 . S
C662 C681 1.429 . S
C662 H686 0.950 . S
C663 C680 1.574 . S
C663 C682 1.368 . S
C663 H687 0.949 . S
H664 C668 0.949 . S
C665 C666 1.349 1_554 S
C665 C667 1.327 . S
C665 H688 0.950 . S
C666 C665 1.349 1_556 S
C666 C678 1.349 . S
C667 C665 1.327 . S
C667 C683 1.429 1_554 S
C667 H689 0.950 . S
C668 H664 0.949 . S
C668 C676 1.574 . S
C668 C684 1.368 . S
H669 C677 0.950 . S
H670 C675 0.950 . S
H671 C676 0.949 . S
H672 C678 0.950 . S
H673 C679 0.950 . S
H674 C680 0.949 1_554 S
C675 H670 0.950 . S
C675 C677 1.327 . S
C675 C681 1.429 . S
C676 C668 1.574 . S
C676 H671 0.949 . S
C676 C682 1.368 . S
C677 C661 1.349 . S
C677 H669 0.950 . S
C677 C675 1.327 . S
C678 C666 1.349 . S
C678 H672 0.950 . S
C678 C679 1.327 . S
C679 H673 0.950 . S
C679 C678 1.327 . S
C679 C683 1.429 . S
C680 C663 1.574 . S
C680 H674 0.949 1_556 S
C680 C684 1.368 . S
C681 C662 1.429 . S
C681 C675 1.429 . S
C681 C682 1.523 . S
C682 C663 1.368 . S
C682 C676 1.368 . S
C682 C681 1.523 . S
C683 C667 1.429 1_556 S
C683 C679 1.429 . S
C683 C684 1.523 . S
C684 C668 1.368 . S
C684 C680 1.368 . S
C684 C683 1.523 . S
H685 C660 0.950 . S
H686 C662 0.950 . S
H687 C663 0.949 . S
H688 C665 0.950 . S
H689 C667 0.950 . S
C690 C691 1.349 . S
C690 C692 1.327 . S
C690 H715 0.950 . S
C691 C690 1.349 . S
C691 C707 1.349 . S
C692 C690 1.327 . S
C692 C711 1.429 . S
C692 H716 0.950 . S
C693 C710 1.574 . S
C693 C712 1.368 . S
C693 H717 0.949 . S
H694 C698 0.949 . S
C695 C696 1.349 . S
C695 C697 1.327 . S
C695 H718 0.950 . S
C696 C695 1.349 . S
C696 C708 1.349 . S
C697 C695 1.327 . S
C697 C713 1.429 . S
C697 H719 0.950 . S
C698 H694 0.949 . S
C698 C706 1.574 . S
C698 C714 1.368 . S
H699 C707 0.950 . S
H700 C705 0.950 . S
H701 C706 0.949 . S
H702 C708 0.950 . S
H703 C709 0.950 . S
H704 C710 0.949 . S
C705 H700 0.950 . S
C705 C707 1.327 . S
C705 C711 1.429 . S
C706 C698 1.574 . S
C706 H701 0.949 . S
C706 C712 1.368 . S
C707 C691 1.349 . S
C707 H699 0.950 . S
C707 C705 1.327 . S
C708 C696 1.349 . S
C708 H702 0.950 . S
C708 C709 1.327 . S
C709 H703 0.950 . S
C709 C708 1.327 . S
C709 C713 1.429 . S
C710 C693 1.574 . S
C710 H704 0.949 . S
C710 C714 1.368 . S
C711 C692 1.429 . S
C711 C705 1.429 . S
C711 C712 1.523 . S
C712 C693 1.368 . S
C712 C706 1.368 . S
C712 C711 1.523 . S
C713 C697 1.429 . S
C713 C709 1.429 . S
C713 C714 1.523 . S
C714 C698 1.368 . S
C714 C710 1.368 . S
C714 C713 1.523 . S
H715 C690 0.950 . S
H716 C692 0.950 . S
H717 C693 0.949 . S
H718 C695 0.950 . S
H719 C697 0.950 . S
C720 C721 1.349 . S
C720 C722 1.327 . S
C720 H745 0.950 . S
C721 C720 1.349 . S
C721 C737 1.349 . S
C722 C720 1.327 . S
C722 C741 1.429 . S
C722 H746 0.950 . S
C723 C740 1.574 . S
C723 C742 1.368 . S
C723 H747 0.949 . S
H724 C728 0.949 . S
C725 C726 1.349 . S
C725 C727 1.327 . S
C725 H748 0.950 . S
C726 C725 1.349 . S
C726 C738 1.349 . S
C727 C725 1.327 . S
C727 C743 1.429 . S
C727 H749 0.950 . S
C728 H724 0.949 . S
C728 C736 1.574 . S
C728 C744 1.368 . S
H729 C737 0.950 . S
H730 C735 0.950 . S
H731 C736 0.949 . S
H732 C738 0.950 . S
H733 C739 0.950 . S
H734 C740 0.949 . S
C735 H730 0.950 . S
C735 C737 1.327 . S
C735 C741 1.429 . S
C736 C728 1.574 . S
C736 H731 0.949 . S
C736 C742 1.368 . S
C737 C721 1.349 . S
C737 H729 0.950 . S
C737 C735 1.327 . S
C738 C726 1.349 . S
C738 H732 0.950 . S
C738 C739 1.327 . S
C739 H733 0.950 . S
C739 C738 1.327 . S
C739 C743 1.429 . S
C740 C723 1.574 . S
C740 H734 0.949 . S
C740 C744 1.368 . S
C741 C722 1.429 . S
C741 C735 1.429 . S
C741 C742 1.523 . S
C742 C723 1.368 . S
C742 C736 1.368 . S
C742 C741 1.523 . S
C743 C727 1.429 . S
C743 C739 1.429 . S
C743 C744 1.523 . S
C744 C728 1.368 . S
C744 C740 1.368 . S
C744 C743 1.523 . S
H745 C720 0.950 . S
H746 C722 0.950 . S
H747 C723 0.949 . S
H748 C725 0.950 . S
H749 C727 0.950 . S
C750 C751 1.349 . S
C750 C752 1.327 . S
C750 H775 0.950 . S
C751 C750 1.349 . S
C751 C767 1.349 . S
C752 C750 1.327 . S
C752 C771 1.429 . S
C752 H776 0.950 . S
C753 C770 1.574 . S
C753 C772 1.368 . S
C753 H777 0.949 . S
H754 C758 0.949 . S
C755 C756 1.349 . S
C755 C757 1.327 . S
C755 H778 0.950 . S
C756 C755 1.349 . S
C756 C768 1.349 . S
C757 C755 1.327 . S
C757 C773 1.429 . S
C757 H779 0.950 . S
C758 H754 0.949 . S
C758 C766 1.574 . S
C758 C774 1.368 . S
H759 C767 0.950 . S
H760 C765 0.950 . S
H761 C766 0.949 . S
H762 C768 0.950 . S
H763 C769 0.950 . S
H764 C770 0.949 . S
C765 H760 0.950 . S
C765 C767 1.327 . S
C765 C771 1.429 . S
C766 C758 1.574 . S
C766 H761 0.949 . S
C766 C772 1.368 . S
C767 C751 1.349 . S
C767 H759 0.950 . S
C767 C765 1.327 . S
C768 C756 1.349 . S
C768 H762 0.950 . S
C768 C769 1.327 . S
C769 H763 0.950 . S
C769 C768 1.327 . S
C769 C773 1.429 . S
C770 C753 1.574 . S
C770 H764 0.949 . S
C770 C774 1.368 . S
C771 C752 1.429 . S
C771 C765 1.429 . S
C771 C772 1.523 . S
C772 C753 1.368 . S
C772 C766 1.368 . S
C772 C771 1.523 . S
C773 C757 1.429 . S
C773 C769 1.429 . S
C773 C774 1.523 . S
C774 C758 1.368 . S
C774 C770 1.368 . S
C774 C773 1.523 . S
H775 C750 0.950 . S
H776 C752 0.950 . S
H777 C753 0.949 . S
H778 C755 0.950 . S
H779 C757 0.950 . S
C780 C781 1.349 1_455 S
C780 C782 1.327 1_455 S
C780 H805 0.950 . S
C781 C780 1.349 1_655 S
C781 C797 1.349 . S
C782 C780 1.327 1_655 S
C782 C801 1.429 . S
C782 H806 0.962 . S
C783 C800 1.574 . S
C783 C802 1.368 . S
C783 H807 0.949 . S
H784 C788 0.949 . S
C785 C786 1.349 . S
C785 C787 1.327 . S
C785 H808 0.950 . S
C786 C785 1.349 . S
C786 C798 1.349 . S
C787 C785 1.327 . S
C787 C803 1.429 . S
C787 H809 0.950 . S
C788 H784 0.949 . S
C788 C796 1.574 . S
C788 C804 1.368 . S
H789 C797 0.950 . S
H790 C795 0.950 . S
H791 C796 0.949 . S
H792 C798 0.950 . S
H793 C799 0.950 . S
H794 C800 0.949 . S
C795 H790 0.950 . S
C795 C797 1.327 . S
C795 C801 1.429 . S
C796 C788 1.574 . S
C796 H791 0.949 . S
C796 C802 1.368 . S
C797 C781 1.349 . S
C797 H789 0.950 . S
C797 C795 1.327 . S
C798 C786 1.349 . S
C798 H792 0.950 . S
C798 C799 1.327 . S
C799 H793 0.950 . S
C799 C798 1.327 . S
C799 C803 1.429 . S
C800 C783 1.574 . S
C800 H794 0.949 . S
C800 C804 1.368 . S
C801 C782 1.429 . S
C801 C795 1.429 . S
C801 C802 1.523 . S
C802 C783 1.368 . S
C802 C796 1.368 . S
C802 C801 1.523 . S
C803 C787 1.429 . S
C803 C799 1.429 . S
C803 C804 1.523 . S
C804 C788 1.368 . S
C804 C800 1.368 . S
C804 C803 1.523 . S
H805 C780 0.950 . S
H806 C782 0.962 . S
H807 C783 0.949 . S
H808 C785 0.950 . S
H809 C787 0.950 . S
C810 C811 1.349 . S
C810 C812 1.327 . S
C810 H835 0.950 . S
C811 C810 1.349 . S
C811 C827 1.349 . S
C812 C810 1.327 . S
C812 C831 1.429 . S
C812 H836 0.950 . S
C813 C830 1.574 . S
C813 C832 1.368 . S
C813 H837 0.949 . S
H814 C818 0.949 . S
C815 C816 1.349 . S
C815 C817 1.327 . S
C815 H838 0.950 . S
C816 C815 1.349 . S
C816 C828 1.349 . S
C817 C815 1.327 . S
C817 C833 1.429 . S
C817 H839 0.950 . S
C818 H814 0.949 . S
C818 C826 1.574 . S
C818 C834 1.368 . S
H819 C827 0.950 . S
H820 C825 0.950 . S
H821 C826 0.949 . S
H822 C828 0.950 . S
H823 C829 0.950 . S
H824 C830 0.949 . S
C825 H820 0.950 . S
C825 C827 1.327 . S
C825 C831 1.429 . S
C826 C818 1.574 . S
C826 H821 0.949 . S
C826 C832 1.368 . S
C827 C811 1.349 . S
C827 H819 0.950 . S
C827 C825 1.327 . S
C828 C816 1.349 . S
C828 H822 0.950 . S
C828 C829 1.327 . S
C829 H823 0.950 . S
C829 C828 1.327 . S
C829 C833 1.429 . S
C830 C813 1.574 . S
C830 H824 0.949 . S
C830 C834 1.368 . S
C831 C812 1.429 . S
C831 C825 1.429 . S
C831 C832 1.523 . S
C832 C813 1.368 . S
C832 C826 1.368 . S
C832 C831 1.523 . S
C833 C817 1.429 . S
C833 C829 1.429 . S
C833 C834 1.523 . S
C834 C818 1.368 . S
C834 C830 1.368 . S
C834 C833 1.523 . S
H835 C810 0.950 . S
H836 C812 0.950 . S
H837 C813 0.949 . S
H838 C815 0.950 . S
H839 C817 0.950 . S
C840 C841 1.349 . S
C840 C842 1.327 . S
C840 H865 0.950 . S
C841 C840 1.349 . S
C841 C857 1.349 . S
C842 C840 1.327 . S
C842 C861 1.429 . S
C842 H866 0.950 . S
C843 C860 1.574 . S
C843 C862 1.368 . S
C843 H867 0.949 . S
H844 C848 0.949 . S
C845 C846 1.349 . S
C845 C847 1.327 . S
C845 H868 0.950 . S
C846 C845 1.349 . S
C846 C858 1.349 . S
C847 C845 1.327 . S
C847 C863 1.429 . S
C847 H869 0.950 . S
C848 H844 0.949 . S
C848 C856 1.574 . S
C848 C864 1.368 . S
H849 C857 0.950 . S
H850 C855 0.950 . S
H851 C856 0.949 . S
H852 C858 0.950 . S
H853 C859 0.950 . S
H854 C860 0.949 . S
C855 H850 0.950 . S
C855 C857 1.327 . S
C855 C861 1.429 . S
C856 C848 1.574 . S
C856 H851 0.949 . S
C856 C862 1.368 . S
C857 C841 1.349 . S
C857 H849 0.950 . S
C857 C855 1.327 . S
C858 C846 1.349 . S
C858 H852 0.950 . S
C858 C859 1.327 . S
C859 H853 0.950 . S
C859 C858 1.327 . S
C859 C863 1.429 . S
C860 C843 1.574 . S
C860 H854 0.949 . S
C860 C864 1.368 . S
C861 C842 1.429 . S
C861 C855 1.429 . S
C861 C862 1.523 . S
C862 C843 1.368 . S
C862 C856 1.368 . S
C862 C861 1.523 . S
C863 C847 1.429 . S
C863 C859 1.429 . S
C863 C864 1.523 . S
C864 C848 1.368 . S
C864 C860 1.368 . S
C864 C863 1.523 . S
H865 C840 0.950 . S
H866 C842 0.950 . S
H867 C843 0.949 . S
H868 C845 0.950 . S
H869 C847 0.950 . S
C870 C871 1.349 . S
C870 C872 1.327 . S
C870 H895 0.950 . S
C871 C870 1.349 . S
C871 C887 1.349 . S
C872 C870 1.327 . S
C872 C891 1.429 . S
C872 H896 0.950 . S
C873 C890 1.574 . S
C873 C892 1.368 . S
C873 H897 0.949 . S
H874 C878 0.949 . S
C875 C876 1.349 . S
C875 C877 1.327 . S
C875 H898 0.950 . S
C876 C875 1.349 . S
C876 C888 1.349 . S
C877 C875 1.327 . S
C877 C893 1.429 . S
C877 H899 0.950 . S
C878 H874 0.949 . S
C878 C886 1.574 . S
C878 C894 1.368 . S
H879 C887 0.950 . S
H880 C885 0.950 . S
H881 C886 0.949 . S
H882 C888 0.950 . S
H883 C889 0.950 . S
H884 C890 0.949 . S
C885 H880 0.950 . S
C885 C887 1.327 . S
C885 C891 1.429 . S
C886 C878 1.574 . S
C886 H881 0.949 . S
C886 C892 1.368 . S
C887 C871 1.349 . S
C887 H879 0.950 . S
C887 C885 1.327 . S
C888 C876 1.349 . S
C888 H882 0.950 . S
C888 C889 1.327 . S
C889 H883 0.950 . S
C889 C888 1.327 . S
C889 C893 1.429 . S
C890 C873 1.574 . S
C890 H884 0.949 . S
C890 C894 1.368 . S
C891 C872 1.429 . S
C891 C885 1.429 . S
C891 C892 1.523 . S
C892 C873 1.368 . S
C892 C886 1.368 . S
C892 C891 1.523 . S
C893 C877 1.429 . S
C893 C889 1.429 . S
C893 C894 1.523 . S
C894 C878 1.368 . S
C894 C890 1.368 . S
C894 C893 1.523 . S
H895 C870 0.950 . S
H896 C872 0.950 . S
H897 C873 0.949 . S
H898 C875 0.950 . S
H899 C877 0.950 . S
C900 C901 1.349 . S
C900 C902 1.327 . S
C900 H925 0.950 . S
C901 C900 1.349 . S
C901 C917 1.349 . S
C902 C900 1.327 . S
C902 C921 1.429 . S
C902 H926 0.950 . S
C903 C920 1.574 . S
C903 C922 1.368 . S
C903 H927 0.949 . S
H904 C908 0.949 . S
C905 C906 1.349 . S
C905 C907 1.327 . S
C905 H928 0.950 . S
C906 C905 1.349 . S
C906 C918 1.349 . S
C907 C905 1.327 . S
C907 C923 1.429 . S
C907 H929 0.950 . S
C908 H904 0.949 . S
C908 C916 1.574 . S
C908 C924 1.368 . S
H909 C917 0.950 . S
H910 C915 0.950 . S
H911 C916 0.949 . S
H912 C918 0.950 . S
H913 C919 0.950 . S
H914 C920 0.949 . S
C915 H910 0.950 . S
C915 C917 1.327 . S
C915 C921 1.429 . S
C916 C908 1.574 . S
C916 H911 0.949 . S
C916 C922 1.368 . S
C917 C901 1.349 . S
C917 H909 0.950 . S
C917 C915 1.327 . S
C918 C906 1.349 . S
C918 H912 0.950 . S
C918 C919 1.327 . S
C919 H913 0.950 . S
C919 C918 1.327 . S
C919 C923 1.429 . S
C920 C903 1.574 . S
C920 H914 0.949 . S
C920 C924 1.368 . S
C921 C902 1.429 . S
C921 C915 1.429 . S
C921 C922 1.523 . S
C922 C903 1.368 . S
C922 C916 1.368 . S
C922 C921 1.523 . S
C923 C907 1.429 . S
C923 C919 1.429 . S
C923 C924 1.523 . S
C924 C908 1.368 . S
C924 C920 1.368 . S
C924 C923 1.523 . S
H925 C900 0.950 . S
H926 C902 0.950 . S
H927 C903 0.949 . S
H928 C905 0.950 . S
H929 C907 0.950 . S
C930 C931 1.349 . S
C930 C932 1.327 . S
C930 H955 0.950 . S
C931 C930 1.349 . S
C931 C947 1.349 . S
C932 C930 1.327 . S
C932 C951 1.429 . S
C932 H956 0.950 . S
C933 C950 1.574 . S
C933 C952 1.368 . S
C933 H957 0.949 . S
H934 C938 0.949 . S
C935 C936 1.349 . S
C935 C937 1.327 . S
C935 H958 0.950 . S
C936 C935 1.349 . S
C936 C948 1.349 . S
C937 C935 1.327 . S
C937 C953 1.429 . S
C937 H959 0.950 . S
C938 H934 0.949 . S
C938 C946 1.574 . S
C938 C954 1.368 . S
H939 C947 0.950 . S
H940 C945 0.950 . S
H941 C946 0.949 . S
H942 C948 0.950 . S
H943 C949 0.950 . S
H944 C950 0.949 . S
C945 H940 0.950 . S
C945 C947 1.327 . S
C945 C951 1.429 . S
C946 C938 1.574 . S
C946 H941 0.949 . S
C946 C952 1.368 . S
C947 C931 1.349 . S
C947 H939 0.950 . S
C947 C945 1.327 . S
C948 C936 1.349 . S
C948 H942 0.950 . S
C948 C949 1.327 . S
C949 H943 0.950 . S
C949 C948 1.327 . S
C949 C953 1.429 . S
C950 C933 1.574 . S
C950 H944 0.949 . S
C950 C954 1.368 . S
C951 C932 1.429 . S
C951 C945 1.429 . S
C951 C952 1.523 . S
C952 C933 1.368 . S
C952 C946 1.368 . S
C952 C951 1.523 . S
C953 C937 1.429 . S
C953 C949 1.429 . S
C953 C954 1.523 1_556 S
C954 C938 1.368 . S
C954 C950 1.368 . S
C954 C953 1.523 1_554 S
H955 C930 0.950 . S
H956 C932 0.950 . S
H957 C933 0.949 . S
H958 C935 0.950 . S
H959 C937 0.950 . S
C960 C961 1.349 . S
C960 C962 1.327 . S
C960 H985 0.950 . S
C961 C960 1.349 . S
C961 C977 1.349 . S
C962 C960 1.327 . S
C962 C981 1.429 . S
C962 H986 0.950 . S
C963 C980 1.574 . S
C963 C982 1.368 . S
C963 H987 0.949 . S
H964 C968 0.949 . S
C965 C966 1.349 . S
C965 C967 1.327 . S
C965 H988 0.950 . S
C966 C965 1.349 . S
C966 C978 1.349 . S
C967 C965 1.327 . S
C967 C983 1.429 . S
C967 H989 0.950 . S
C968 H964 0.949 . S
C968 C976 1.574 . S
C968 C984 1.368 . S
H969 C977 0.950 . S
H970 C975 0.950 . S
H971 C976 0.949 . S
H972 C978 0.950 . S
H973 C979 0.950 . S
H974 C980 0.949 . S
C975 H970 0.950 . S
C975 C977 1.327 . S
C975 C981 1.429 . S
C976 C968 1.574 . S
C976 H971 0.949 . S
C976 C982 1.368 . S
C977 C961 1.349 . S
C977 H969 0.950 . S
C977 C975 1.327 . S
C978 C966 1.349 . S
C978 H972 0.950 . S
C978 C979 1.327 . S
C979 H973 0.950 . S
C979 C978 1.327 . S
C979 C983 1.429 . S
C980 C963 1.574 . S
C980 H974 0.949 . S
C980 C984 1.368 . S
C981 C962 1.429 . S
C981 C975 1.429 . S
C981 C982 1.523 . S
C982 C963 1.368 . S
C982 C976 1.368 . S
C982 C981 1.523 . S
C983 C967 1.429 . S
C983 C979 1.429 . S
C983 C984 1.523 . S
C984 C968 1.368 . S
C984 C980 1.368 . S
C984 C983 1.523 . S
H985 C960 0.950 . S
H986 C962 0.950 . S
H987 C963 0.949 . S
H988 C965 0.950 . S
H989 C967 0.950 . S
C990 C991 1.349 . S
C990 C992 1.327 . S
C990 H1015 0.950 . S
C991 C990 1.349 . S
C991 C1007 1.349 . S
C992 C990 1.327 . S
C992 C1011 1.429 . S
C992 H1016 0.950 . S
C993 C1010 1.534 1_554 S
C993 C1012 1.397 . S
C993 H1017 0.959 . S
H994 C998 0.949 . S
C995 C996 1.349 . S
C995 C997 1.327 . S
C995 H1018 0.950 . S
C996 C995 1.349 . S
C996 C1008 1.349 . S
C997 C995 1.327 . S
C997 C1013 1.429 . S
C997 H1019 0.950 . S
C998 H994 0.949 . S
C998 C1006 1.574 1_556 S
C998 C1014 1.368 . S
H999 C1007 0.950 . S
H1000 C1005 0.950 . S
H1001 C1006 0.949 . S
H1002 C1008 0.950 . S
H1003 C1009 0.950 . S
H1004 C1010 0.949 . S
C1005 H1000 0.950 . S
C1005 C1007 1.327 . S
C1005 C1011 1.429 . S
C1006 C998 1.574 1_554 S
C1006 H1001 0.949 . S
C1006 C1012 1.368 . S
C1007 C991 1.349 . S
C1007 H999 0.950 . S
C1007 C1005 1.327 . S
C1008 C996 1.349 . S
C1008 H1002 0.950 . S
C1008 C1009 1.327 . S
C1009 H1003 0.950 . S
C1009 C1008 1.327 . S
C1009 C1013 1.429 . S
C1010 C993 1.534 1_556 S
C1010 H1004 0.949 . S
C1010 C1014 1.368 . S
C1011 C992 1.429 . S
C1011 C1005 1.429 . S
C1011 C1012 1.523 . S
C1012 C993 1.397 . S
C1012 C1006 1.368 . S
C1012 C1011 1.523 . S
C1013 C997 1.429 . S
C1013 C1009 1.429 . S
C1013 C1014 1.523 . S
C1014 C998 1.368 . S
C1014 C1010 1.368 . S
C1014 C1013 1.523 . S
H1015 C990 0.950 . S
H1016 C992 0.950 . S
H1017 C993 0.959 . S
H1018 C995 0.950 . S
H1019 C997 0.950 . S
C1020 C1021 1.349 . S
C1020 C1022 1.327 . S
C1020 H1045 0.950 . S
C1021 C1020 1.349 . S
C1021 C1037 1.349 . S
C1022 C1020 1.327 . S
C1022 C1041 1.429 . S
C1022 H1046 0.950 . S
C1023 C1040 1.574 . S
C1023 C1042 1.368 . S
C1023 H1047 0.949 . S
H1024 C1028 0.949 . S
C1025 C1026 1.349 . S
C1025 C1027 1.327 . S
C1025 H1048 0.950 . S
C1026 C1025 1.349 . S
C1026 C1038 1.349 . S
C1027 C1025 1.327 . S
C1027 C1043 1.429 . S
C1027 H1049 0.950 . S
C1028 H1024 0.949 . S
C1028 C1036 1.574 . S
C1028 C1044 1.368 . S
H1029 C1037 0.950 . S
H1030 C1035 0.950 . S
H1031 C1036 0.949 . S
H1032 C1038 0.950 . S
H1033 C1039 0.950 . S
H1034 C1040 0.949 . S
C1035 H1030 0.950 . S
C1035 C1037 1.327 . S
C1035 C1041 1.429 . S
C1036 C1028 1.574 . S
C1036 H1031 0.949 . S
C1036 C1042 1.368 . S
C1037 C1021 1.349 . S
C1037 H1029 0.950 . S
C1037 C1035 1.327 . S
C1038 C1026 1.349 . S
C1038 H1032 0.950 . S
C1038 C1039 1.327 . S
C1039 H1033 0.950 . S
C1039 C1038 1.327 . S
C1039 C1043 1.429 . S
C1040 C1023 1.574 . S
C1040 H1034 0.949 . S
C1040 C1044 1.368 . S
C1041 C1022 1.429 . S
C1041 C1035 1.429 . S
C1041 C1042 1.523 . S
C1042 C1023 1.368 . S
C1042 C1036 1.368 . S
C1042 C1041 1.523 . S
C1043 C1027 1.429 . S
C1043 C1039 1.429 . S
C1043 C1044 1.523 . S
C1044 C1028 1.368 . S
C1044 C1040 1.368 . S
C1044 C1043 1.523 . S
H1045 C1020 0.950 . S
H1046 C1022 0.950 . S
H1047 C1023 0.949 . S
H1048 C1025 0.950 . S
H1049 C1027 0.950 . S
C1050 C1051 1.349 . S
C1050 C1052 1.327 . S
C1050 H1075 0.950 . S
C1051 C1050 1.349 . S
C1051 C1067 1.349 . S
C1052 C1050 1.327 . S
C1052 C1071 1.429 . S
C1052 H1076 0.950 . S
C1053 C1070 1.574 . S
C1053 C1072 1.368 . S
C1053 H1077 0.949 . S
H1054 C1058 0.949 . S
C1055 C1056 1.349 . S
C1055 C1057 1.327 . S
C1055 H1078 0.950 . S
C1056 C1055 1.349 . S
C1056 C1068 1.349 . S
C1057 C1055 1.327 . S
C1057 C1073 1.429 . S
C1057 H1079 0.950 . S
C1058 H1054 0.949 . S
C1058 C1066 1.574 . S
C1058 C1074 1.368 . S
H1059 C1067 0.950 . S
H1060 C1065 0.950 . S
H1061 C1066 0.949 . S
H1062 C1068 0.950 . S
H1063 C1069 0.950 . S
H1064 C1070 0.949 . S
C1065 H1060 0.950 . S
C1065 C1067 1.327 . S
C1065 C1071 1.429 . S
C1066 C1058 1.574 . S
C1066 H1061 0.949 . S
C1066 C1072 1.368 . S
C1067 C1051 1.349 . S
C1067 H1059 0.950 . S
C1067 C1065 1.327 . S
C1068 C1056 1.349 . S
C1068 H1062 0.950 . S
C1068 C1069 1.327 . S
C1069 H1063 0.950 . S
C1069 C1068 1.327 . S
C1069 C1073 1.429 . S
C1070 C1053 1.574 . S
C1070 H1064 0.949 . S
C1070 C1074 1.368 . S
C1071 C1052 1.429 . S
C1071 C1065 1.429 . S
C1071 C1072 1.523 . S
C1072 C1053 1.368 . S
C1072 C1066 1.368 . S
C1072 C1071 1.523 . S
C1073 C1057 1.429 . S
C1073 C1069 1.429 . S
C1073 C1074 1.523 . S
C1074 C1058 1.368 . S
C1074 C1070 1.368 . S
C1074 C1073 1.523 . S
H1075 C1050 0.950 . S
H1076 C1052 0.950 . S
H1077 C1053 0.949 . S
H1078 C1055 0.950 . S
H1079 C1057 0.950 . S
C1080 C1081 1.349 . S
C1080 C1082 1.327 . S
C1080 H1105 0.950 . S
C1081 C1080 1.349 . S
C1081 C1097 1.349 . S
C1082 C1080 1.327 . S
C1082 C1101 1.429 . S
C1082 H1106 0.950 . S
C1083 C1100 1.574 . S
C1083 C1102 1.368 . S
C1083 H1107 0.949 . S
H1084 C1088 0.949 . S
C1085 C1086 1.349 . S
C1085 C1087 1.327 . S
C1085 H1108 0.950 . S
C1086 C1085 1.349 . S
C1086 C1098 1.349 . S
C1087 C1085 1.327 . S
C1087 C1103 1.429 . S
C1087 H1109 0.950 . S
C1088 H1084 0.949 . S
C1088 C1096 1.574 . S
C1088 C1104 1.368 . S
H1089 C1097 0.950 . S
H1090 C1095 0.950 . S
H1091 C1096 0.949 . S
H1092 C1098 0.950 . S
H1093 C1099 0.950 . S
H1094 C1100 0.949 . S
C1095 H1090 0.950 . S
C1095 C1097 1.327 . S
C1095 C1101 1.429 . S
C1096 C1088 1.574 . S
C1096 H1091 0.949 . S
C1096 C1102 1.368 . S
C1097 C1081 1.349 . S
C1097 H1089 0.950 . S
C1097 C1095 1.327 . S
C1098 C1086 1.349 . S
C1098 H1092 0.950 . S
C1098 C1099 1.327 . S
C1099 H1093 0.950 . S
C1099 C1098 1.327 . S
C1099 C1103 1.429 . S
C1100 C1083 1.574 . S
C1100 H1094 0.949 . S
C1100 C1104 1.368 . S
C1101 C1082 1.429 . S
C1101 C1095 1.429 . S
C1101 C1102 1.523 . S
C1102 C1083 1.368 . S
C1102 C1096 1.368 . S
C1102 C1101 1.523 . S
C1103 C1087 1.429 . S
C1103 C1099 1.429 . S
C1103 C1104 1.523 . S
C1104 C1088 1.368 . S
C1104 C1100 1.368 . S
C1104 C1103 1.523 . S
H1105 C1080 0.950 . S
H1106 C1082 0.950 . S
H1107 C1083 0.949 . S
H1108 C1085 0.950 . S
H1109 C1087 0.950 . S
C1110 C1111 1.349 . S
C1110 C1112 1.327 . S
C1110 H1135 0.950 . S
C1111 C1110 1.349 . S
C1111 C1127 1.349 . S
C1112 C1110 1.327 . S
C1112 C1131 1.429 . S
C1112 H1136 0.950 . S
C1113 C1130 1.574 1_545 S
C1113 C1132 1.368 . S
C1113 H1137 0.949 . S
H1114 C1118 0.949 . S
C1115 C1116 1.349 . S
C1115 C1117 1.327 . S
C1115 H1138 0.950 . S
C1116 C1115 1.349 . S
C1116 C1128 1.349 . S
C1117 C1115 1.327 . S
C1117 C1133 1.429 . S
C1117 H1139 0.950 . S
C1118 H1114 0.949 . S
C1118 C1126 1.574 . S
C1118 C1134 1.368 1_545 S
H1119 C1127 0.950 . S
H1120 C1125 0.950 . S
H1121 C1126 0.949 . S
H1122 C1128 0.950 . S
H1123 C1129 0.950 . S
H1124 C1130 0.949 . S
C1125 H1120 0.950 . S
C1125 C1127 1.327 . S
C1125 C1131 1.429 . S
C1126 C1118 1.574 . S
C1126 H1121 0.949 . S
C1126 C1132 1.368 . S
C1127 C1111 1.349 . S
C1127 H1119 0.950 . S
C1127 C1125 1.327 . S
C1128 C1116 1.349 . S
C1128 H1122 0.950 . S
C1128 C1129 1.327 . S
C1129 H1123 0.950 . S
C1129 C1128 1.327 . S
C1129 C1133 1.429 . S
C1130 C1113 1.574 1_565 S
C1130 H1124 0.949 . S
C1130 C1134 1.368 . S
C1131 C1112 1.429 . S
C1131 C1125 1.429 . S
C1131 C1132 1.523 . S
C1132 C1113 1.368 . S
C1132 C1126 1.368 . S
C1132 C1131 1.523 . S
C1133 C1117 1.429 . S
C1133 C1129 1.429 . S
C1133 C1134 1.523 . S
C1134 C1118 1.368 1_565 S
C1134 C1130 1.368 . S
C1134 C1133 1.523 . S
H1135 C1110 0.950 . S
H1136 C1112 0.950 . S
H1137 C1113 0.949 . S
H1138 C1115 0.950 . S
H1139 C1117 0.950 . S
C1140 C1141 1.349 . S
C1140 C1142 1.327 . S
C1140 H1165 0.950 . S
C1141 C1140 1.349 . S
C1141 C1157 1.349 . S
C1142 C1140 1.327 . S
C1142 C1161 1.429 . S
C1142 H1166 0.950 . S
C1143 C1160 1.574 . S
C1143 C1162 1.368 . S
C1143 H1167 0.949 . S
H1144 C1148 0.949 . S
C1145 C1146 1.349 . S
C1145 C1147 1.327 . S
C1145 H1168 0.950 . S
C1146 C1145 1.349 . S
C1146 C1158 1.349 . S
C1147 C1145 1.327 . S
C1147 C1163 1.429 . S
C1147 H1169 0.950 . S
C1148 H1144 0.949 . S
C1148 C1156 1.574 . S
C1148 C1164 1.368 . S
H1149 C1157 0.950 . S
H1150 C1155 0.950 . S
H1151 C1156 0.949 . S
H1152 C1158 0.950 . S
H1153 C1159 0.950 . S
H1154 C1160 0.949 . S
C1155 H1150 0.950 . S
C1155 C1157 1.327 . S
C1155 C1161 1.429 . S
C1156 C1148 1.574 . S
C1156 H1151 0.949 . S
C1156 C1162 1.368 . S
C1157 C1141 1.349 . S
C1157 H1149 0.950 . S
C1157 C1155 1.327 . S
C1158 C1146 1.349 . S
C1158 H1152 0.950 . S
C1158 C1159 1.327 . S
C1159 H1153 0.950 . S
C1159 C1158 1.327 . S
C1159 C1163 1.429 . S
C1160 C1143 1.574 . S
C1160 H1154 0.949 . S
C1160 C1164 1.368 . S
C1161 C1142 1.429 . S
C1161 C1155 1.429 . S
C1161 C1162 1.523 . S
C1162 C1143 1.368 . S
C1162 C1156 1.368 . S
C1162 C1161 1.523 . S
C1163 C1147 1.429 . S
C1163 C1159 1.429 . S
C1163 C1164 1.523 . S
C1164 C1148 1.368 . S
C1164 C1160 1.368 . S
C1164 C1163 1.523 . S
H1165 C1140 0.950 . S
H1166 C1142 0.950 . S
H1167 C1143 0.949 . S
H1168 C1145 0.950 . S
H1169 C1147 0.950 . S
C1170 C1171 1.349 . S
C1170 C1172 1.327 . S
C1170 H1195 0.950 . S
C1171 C1170 1.349 . S
C1171 C1187 1.349 . S
C1172 C1170 1.327 . S
C1172 C1191 1.429 . S
C1172 H1196 0.950 . S
C1173 C1190 1.574 1_545 S
C1173 C1192 1.368 . S
C1173 H1197 0.949 . S
H1174 C1178 0.949 . S
C1175 C1176 1.349 . S
C1175 C1177 1.327 . S
C1175 H1198 0.950 . S
C1176 C1175 1.349 . S
C1176 C1188 1.349 . S
C1177 C1175 1.327 . S
C1177 C1193 1.429 . S
C1177 H1199 0.950 . S
C1178 H1174 0.949 . S
C1178 C1186 1.574 1_565 S
C1178 C1194 1.368 . S
H1179 C1187 0.950 . S
H1180 C1185 0.950 . S
H1181 C1186 0.949 . S
H1182 C1188 0.950 . S
H1183 C1189 0.950 . S
H1184 C1190 0.949 . S
C1185 H1180 0.950 . S
C1185 C1187 1.327 . S
C1185 C1191 1.429 . S
C1186 C1178 1.574 1_545 S
C1186 H1181 0.949 . S
C1186 C1192 1.368 . S
C1187 C1171 1.349 . S
C1187 H1179 0.950 . S
C1187 C1185 1.327 . S
C1188 C1176 1.349 . S
C1188 H1182 0.950 . S
C1188 C1189 1.327 . S
C1189 H1183 0.950 . S
C1189 C1188 1.327 . S
C1189 C1193 1.429 . S
C1190 C1173 1.574 1_565 S
C1190 H1184 0.949 . S
C1190 C1194 1.368 . S
C1191 C1172 1.429 . S
C1191 C1185 1.429 . S
C1191 C1192 1.523 . S
C1192 C1173 1.368 . S
C1192 C1186 1.368 . S
C1192 C1191 1.523 . S
C1193 C1177 1.429 . S
C1193 C1189 1.429 . S
C1193 C1194 1.523 . S
C1194 C1178 1.368 . S
C1194 C1190 1.368 . S
C1194 C1193 1.523 . S
H1195 C1170 0.950 . S
H1196 C1172 0.950 . S
H1197 C1173 0.949 . S
H1198 C1175 0.950 . S
H1199 C1177 0.950 . S
C1200 C1201 1.349 . S
C1200 C1202 1.327 . S
C1200 H1225 0.950 . S
C1201 C1200 1.349 . S
C1201 C1217 1.349 . S
C1202 C1200 1.327 . S
C1202 C1221 1.429 . S
C1202 H1226 0.950 . S
C1203 C1220 1.574 . S
C1203 C1222 1.368 . S
C1203 H1227 0.949 . S
H1204 C1208 0.949 . S
C1205 C1206 1.349 . S
C1205 C1207 1.327 . S
C1205 H1228 0.950 . S
C1206 C1205 1.349 . S
C1206 C1218 1.349 . S
C1207 C1205 1.327 . S
C1207 C1223 1.429 . S
C1207 H1229 0.950 . S
C1208 H1204 0.949 . S
C1208 C1216 1.574 . S
C1208 C1224 1.368 . S
H1209 C1217 0.950 . S
H1210 C1215 0.950 . S
H1211 C1216 0.949 . S
H1212 C1218 0.950 . S
H1213 C1219 0.950 . S
H1214 C1220 0.949 . S
C1215 H1210 0.950 . S
C1215 C1217 1.327 . S
C1215 C1221 1.429 . S
C1216 C1208 1.574 . S
C1216 H1211 0.949 . S
C1216 C1222 1.368 . S
C1217 C1201 1.349 . S
C1217 H1209 0.950 . S
C1217 C1215 1.327 . S
C1218 C1206 1.349 . S
C1218 H1212 0.950 . S
C1218 C1219 1.327 . S
C1219 H1213 0.950 . S
C1219 C1218 1.327 . S
C1219 C1223 1.429 . S
C1220 C1203 1.574 . S
C1220 H1214 0.949 . S
C1220 C1224 1.368 . S
C1221 C1202 1.429 . S
C1221 C1215 1.429 . S
C1221 C1222 1.523 . S
C1222 C1203 1.368 . S
C1222 C1216 1.368 . S
C1222 C1221 1.523 . S
C1223 C1207 1.429 . S
C1223 C1219 1.429 . S
C1223 C1224 1.523 . S
C1224 C1208 1.368 . S
C1224 C1220 1.368 . S
C1224 C1223 1.523 . S
H1225 C1200 0.950 . S
H1226 C1202 0.950 . S
H1227 C1203 0.949 . S
H1228 C1205 0.950 . S
H1229 C1207 0.950 . S
C1230 C1231 1.349 . S
C1230 C1232 1.327 . S
C1230 H1255 0.950 . S
C1231 C1230 1.349 . S
C1231 C1247 1.349 . S
C1232 C1230 1.327 . S
C1232 C1251 1.429 . S
C1232 H1256 0.950 . S
C1233 C1250 1.574 . S
C1233 C1252 1.368 . S
C1233 H1257 0.949 . S
H1234 C1238 0.949 . S
C1235 C1236 1.349 . S
C1235 C1237 1.327 . S
C1235 H1258 0.950 . S
C1236 C1235 1.349 . S
C1236 C1248 1.349 . S
C1237 C1235 1.327 . S
C1237 C1253 1.429 . S
C1237 H1259 0.950 . S
C1238 H1234 0.949 . S
C1238 C1246 1.574 . S
C1238 C1254 1.368 . S
H1239 C1247 0.950 . S
H1240 C1245 0.950 . S
H1241 C1246 0.949 . S
H1242 C1248 0.950 . S
H1243 C1249 0.950 . S
H1244 C1250 0.949 . S
C1245 H1240 0.950 . S
C1245 C1247 1.327 . S
C1245 C1251 1.429 . S
C1246 C1238 1.574 . S
C1246 H1241 0.949 . S
C1246 C1252 1.368 . S
C1247 C1231 1.349 . S
C1247 H1239 0.950 . S
C1247 C1245 1.327 . S
C1248 C1236 1.349 . S
C1248 H1242 0.950 . S
C1248 C1249 1.327 . S
C1249 H1243 0.950 . S
C1249 C1248 1.327 . S
C1249 C1253 1.429 . S
C1250 C1233 1.574 . S
C1250 H1244 0.949 . S
C1250 C1254 1.368 . S
C1251 C1232 1.429 . S
C1251 C1245 1.429 . S
C1251 C1252 1.523 . S
C1252 C1233 1.368 . S
C1252 C1246 1.368 . S
C1252 C1251 1.523 . S
C1253 C1237 1.429 . S
C1253 C1249 1.429 . S
C1253 C1254 1.523 . S
C1254 C1238 1.368 . S
C1254 C1250 1.368 . S
C1254 C1253 1.523 . S
H1255 C1230 0.950 . S
H1256 C1232 0.950 . S
H1257 C1233 0.949 . S
H1258 C1235 0.950 . S
H1259 C1237 0.950 . S
C1260 C1261 1.349 . S
C1260 C1262 1.327 . S
C1260 H1285 0.950 . S
C1261 C1260 1.349 . S
C1261 C1277 1.349 . S
C1262 C1260 1.327 . S
C1262 C1281 1.429 . S
C1262 H1286 0.950 . S
C1263 C1280 1.574 . S
C1263 C1282 1.368 . S
C1263 H1287 0.949 . S
H1264 C1268 0.949 . S
C1265 C1266 1.349 . S
C1265 C1267 1.327 . S
C1265 H1288 0.950 . S
C1266 C1265 1.349 . S
C1266 C1278 1.349 . S
C1267 C1265 1.327 . S
C1267 C1283 1.429 . S
C1267 H1289 0.950 . S
C1268 H1264 0.949 . S
C1268 C1276 1.574 . S
C1268 C1284 1.368 . S
H1269 C1277 0.950 . S
H1270 C1275 0.950 . S
H1271 C1276 0.949 . S
H1272 C1278 0.950 . S
H1273 C1279 0.950 . S
H1274 C1280 0.949 . S
C1275 H1270 0.950 . S
C1275 C1277 1.327 . S
C1275 C1281 1.429 . S
C1276 C1268 1.574 . S
C1276 H1271 0.949 . S
C1276 C1282 1.368 . S
C1277 C1261 1.349 . S
C1277 H1269 0.950 . S
C1277 C1275 1.327 . S
C1278 C1266 1.349 . S
C1278 H1272 0.950 . S
C1278 C1279 1.327 . S
C1279 H1273 0.950 . S
C1279 C1278 1.327 . S
C1279 C1283 1.429 . S
C1280 C1263 1.574 . S
C1280 H1274 0.949 . S
C1280 C1284 1.368 . S
C1281 C1262 1.429 . S
C1281 C1275 1.429 . S
C1281 C1282 1.523 . S
C1282 C1263 1.368 . S
C1282 C1276 1.368 . S
C1282 C1281 1.523 . S
C1283 C1267 1.429 . S
C1283 C1279 1.429 . S
C1283 C1284 1.523 . S
C1284 C1268 1.368 . S
C1284 C1280 1.368 . S
C1284 C1283 1.523 . S
H1285 C1260 0.950 . S
H1286 C1262 0.950 . S
H1287 C1263 0.949 . S
H1288 C1265 0.950 . S
H1289 C1267 0.950 . S
C1290 C1291 1.349 . S
C1290 C1292 1.327 . S
C1290 H1315 0.950 . S
C1291 C1290 1.349 . S
C1291 C1307 1.349 . S
C1292 C1290 1.327 . S
C1292 C1311 1.429 . S
C1292 H1316 0.950 . S
C1293 C1310 1.574 . S
C1293 C1312 1.368 . S
C1293 H1317 0.949 . S
H1294 C1298 0.949 . S
C1295 C1296 1.349 . S
C1295 C1297 1.327 . S
C1295 H1318 0.950 . S
C1296 C1295 1.349 . S
C1296 C1308 1.349 . S
C1297 C1295 1.327 . S
C1297 C1313 1.429 . S
C1297 H1319 0.950 . S
C1298 H1294 0.949 . S
C1298 C1306 1.574 . S
C1298 C1314 1.368 . S
H1299 C1307 0.950 . S
H1300 C1305 0.950 . S
H1301 C1306 0.949 . S
H1302 C1308 0.950 . S
H1303 C1309 0.950 . S
H1304 C1310 0.949 . S
C1305 H1300 0.950 . S
C1305 C1307 1.327 . S
C1305 C1311 1.429 . S
C1306 C1298 1.574 . S
C1306 H1301 0.949 . S
C1306 C1312 1.368 . S
C1307 C1291 1.349 . S
C1307 H1299 0.950 . S
C1307 C1305 1.327 . S
C1308 C1296 1.349 . S
C1308 H1302 0.950 . S
C1308 C1309 1.327 . S
C1309 H1303 0.950 . S
C1309 C1308 1.327 . S
C1309 C1313 1.429 . S
C1310 C1293 1.574 . S
C1310 H1304 0.949 . S
C1310 C1314 1.368 . S
C1311 C1292 1.429 . S
C1311 C1305 1.429 . S
C1311 C1312 1.523 . S
C1312 C1293 1.368 . S
C1312 C1306 1.368 . S
C1312 C1311 1.523 . S
C1313 C1297 1.429 . S
C1313 C1309 1.429 . S
C1313 C1314 1.523 . S
C1314 C1298 1.368 . S
C1314 C1310 1.368 . S
C1314 C1313 1.523 . S
H1315 C1290 0.950 . S
H1316 C1292 0.950 . S
H1317 C1293 0.949 . S
H1318 C1295 0.950 . S
H1319 C1297 0.950 . S
C1320 C1321 1.349 . S
C1320 C1322 1.327 . S
C1320 H1345 0.950 . S
C1321 C1320 1.349 . S
C1321 C1337 1.349 . S
C1322 C1320 1.327 . S
C1322 C1341 1.429 . S
C1322 H1346 0.950 . S
C1323 C1340 1.574 . S
C1323 C1342 1.368 . S
C1323 H1347 0.949 . S
H1324 C1328 0.949 . S
C1325 C1326 1.349 . S
C1325 C1327 1.327 . S
C1325 H1348 0.950 . S
C1326 C1325 1.349 . S
C1326 C1338 1.349 . S
C1327 C1325 1.327 . S
C1327 C1343 1.429 . S
C1327 H1349 0.950 . S
C1328 H1324 0.949 . S
C1328 C1336 1.574 . S
C1328 C1344 1.368 . S
H1329 C1337 0.950 . S
H1330 C1335 0.950 . S
H1331 C1336 0.949 . S
H1332 C1338 0.950 . S
H1333 C1339 0.950 . S
H1334 C1340 0.949 . S
C1335 H1330 0.950 . S
C1335 C1337 1.327 . S
C1335 C1341 1.429 . S
C1336 C1328 1.574 . S
C1336 H1331 0.949 . S
C1336 C1342 1.368 . S
C1337 C1321 1.349 . S
C1337 H1329 0.950 . S
C1337 C1335 1.327 . S
C1338 C1326 1.349 . S
C1338 H1332 0.950 . S
C1338 C1339 1.327 . S
C1339 H1333 0.950 . S
C1339 C1338 1.327 . S
C1339 C1343 1.429 . S
C1340 C1323 1.574 . S
C1340 H1334 0.949 . S
C1340 C1344 1.368 . S
C1341 C1322 1.429 . S
C1341 C1335 1.429 . S
C1341 C1342 1.523 . S
C1342 C1323 1.368 . S
C1342 C1336 1.368 . S
C1342 C1341 1.523 . S
C1343 C1327 1.429 . S
C1343 C1339 1.429 . S
C1343 C1344 1.523 . S
C1344 C1328 1.368 . S
C1344 C1340 1.368 . S
C1344 C1343 1.523 . S
H1345 C1320 0.950 . S
H1346 C1322 0.950 . S
H1347 C1323 0.949 . S
H1348 C1325 0.950 . S
H1349 C1327 0.950 . S
C1350 C1351 1.349 . S
C1350 C1352 1.327 . S
C1350 H1375 0.950 . S
C1351 C1350 1.349 . S
C1351 C1367 1.349 . S
C1352 C1350 1.327 . S
C1352 C1371 1.429 . S
C1352 H1376 0.950 . S
C1353 C1370 1.574 . S
C1353 C1372 1.368 . S
C1353 H1377 0.949 . S
H1354 C1358 0.949 . S
C1355 C1356 1.349 . S
C1355 C1357 1.327 . S
C1355 H1378 0.950 . S
C1356 C1355 1.349 . S
C1356 C1368 1.349 . S
C1357 C1355 1.327 . S
C1357 C1373 1.429 . S
C1357 H1379 0.950 . S
C1358 H1354 0.949 . S
C1358 C1366 1.574 . S
C1358 C1374 1.368 . S
H1359 C1367 0.950 . S
H1360 C1365 0.950 . S
H1361 C1366 0.949 . S
H1362 C1368 0.950 . S
H1363 C1369 0.950 . S
H1364 C1370 0.949 . S
C1365 H1360 0.950 . S
C1365 C1367 1.327 . S
C1365 C1371 1.429 . S
C1366 C1358 1.574 . S
C1366 H1361 0.949 . S
C1366 C1372 1.368 . S
C1367 C1351 1.349 . S
C1367 H1359 0.950 . S
C1367 C1365 1.327 . S
C1368 C1356 1.349 . S
C1368 H1362 0.950 . S
C1368 C1369 1.327 . S
C1369 H1363 0.950 . S
C1369 C1368 1.327 . S
C1369 C1373 1.429 . S
C1370 C1353 1.574 . S
C1370 H1364 0.949 . S
C1370 C1374 1.368 . S
C1371 C1352 1.429 . S
C1371 C1365 1.429 . S
C1371 C1372 1.523 . S
C1372 C1353 1.368 . S
C1372 C1366 1.368 . S
C1372 C1371 1.523 . S
C1373 C1357 1.429 . S
C1373 C1369 1.429 . S
C1373 C1374 1.523 . S
C1374 C1358 1.368 . S
C1374 C1370 1.368 . S
C1374 C1373 1.523 . S
H1375 C1350 0.950 . S
H1376 C1352 0.950 . S
H1377 C1353 0.949 . S
H1378 C1355 0.950 . S
H1379 C1357 0.950 . S
C1380 C1381 1.349 . S
C1380 C1382 1.327 . S
C1380 H1405 0.950 . S
C1381 C1380 1.349 . S
C1381 C1397 1.349 . S
C1382 C1380 1.327 . S
C1382 C1401 1.429 . S
C1382 H1406 0.950 . S
C1383 C1400 1.574 . S
C1383 C1402 1.368 . S
C1383 H1407 0.949 . S
H1384 C1388 0.949 . S
C1385 C1386 1.349 . S
C1385 C1387 1.327 . S
C1385 H1408 0.950 . S
C1386 C1385 1.349 . S
C1386 C1398 1.349 . S
C1387 C1385 1.327 . S
C1387 C1403 1.429 . S
C1387 H1409 0.950 . S
C1388 H1384 0.949 . S
C1388 C1396 1.574 . S
C1388 C1404 1.368 . S
H1389 C1397 0.950 . S
H1390 C1395 0.950 . S
H1391 C1396 0.949 . S
H1392 C1398 0.950 . S
H1393 C1399 0.950 . S
H1394 C1400 0.949 . S
C1395 H1390 0.950 . S
C1395 C1397 1.327 . S
C1395 C1401 1.429 . S
C1396 C1388 1.574 . S
C1396 H1391 0.949 . S
C1396 C1402 1.368 . S
C1397 C1381 1.349 . S
C1397 H1389 0.950 . S
C1397 C1395 1.327 . S
C1398 C1386 1.349 . S
C1398 H1392 0.950 . S
C1398 C1399 1.327 . S
C1399 H1393 0.950 . S
C1399 C1398 1.327 . S
C1399 C1403 1.429 . S
C1400 C1383 1.574 . S
C1400 H1394 0.949 . S
C1400 C1404 1.368 . S
C1401 C1382 1.429 . S
C1401 C1395 1.429 . S
C1401 C1402 1.523 . S
C1402 C1383 1.368 . S
C1402 C1396 1.368 . S
C1402 C1401 1.523 . S
C1403 C1387 1.429 . S
C1403 C1399 1.429 . S
C1403 C1404 1.523 1_655 S
C1404 C1388 1.368 . S
C1404 C1400 1.368 . S
C1404 C1403 1.523 1_455 S
H1405 C1380 0.950 . S
H1406 C1382 0.950 . S
H1407 C1383 0.949 . S
H1408 C1385 0.950 . S
H1409 C1387 0.950 . S
C1410 C1411 1.349 . S
C1410 C1412 1.327 . S
C1410 H1435 0.950 . S
C1411 C1410 1.349 . S
C1411 C1427 1.349 . S
C1412 C1410 1.327 . S
C1412 C1431 1.429 . S
C1412 H1436 0.950 . S
C1413 C1430 1.574 . S
C1413 C1432 1.368 . S
C1413 H1437 0.949 . S
H1414 C1418 0.949 . S
C1415 C1416 1.349 . S
C1415 C1417 1.327 . S
C1415 H1438 0.950 . S
C1416 C1415 1.349 . S
C1416 C1428 1.349 . S
C1417 C1415 1.327 . S
C1417 C1433 1.429 . S
C1417 H1439 0.950 . S
C1418 H1414 0.949 . S
C1418 C1426 1.574 . S
C1418 C1434 1.368 . S
H1419 C1427 0.950 . S
H1420 C1425 0.950 . S
H1421 C1426 0.949 . S
H1422 C1428 0.950 . S
H1423 C1429 0.950 . S
H1424 C1430 0.949 . S
C1425 H1420 0.950 . S
C1425 C1427 1.327 . S
C1425 C1431 1.429 . S
C1426 C1418 1.574 . S
C1426 H1421 0.949 . S
C1426 C1432 1.368 . S
C1427 C1411 1.349 . S
C1427 H1419 0.950 . S
C1427 C1425 1.327 . S
C1428 C1416 1.349 . S
C1428 H1422 0.950 . S
C1428 C1429 1.327 . S
C1429 H1423 0.950 . S
C1429 C1428 1.327 . S
C1429 C1433 1.429 . S
C1430 C1413 1.574 . S
C1430 H1424 0.949 . S
C1430 C1434 1.368 . S
C1431 C1412 1.429 . S
C1431 C1425 1.429 . S
C1431 C1432 1.523 . S
C1432 C1413 1.368 . S
C1432 C1426 1.368 . S
C1432 C1431 1.523 . S
C1433 C1417 1.429 . S
C1433 C1429 1.429 . S
C1433 C1434 1.523 . S
C1434 C1418 1.368 . S
C1434 C1430 1.368 . S
C1434 C1433 1.523 . S
H1435 C1410 0.950 . S
H1436 C1412 0.950 . S
H1437 C1413 0.949 . S
H1438 C1415 0.950 . S
H1439 C1417 0.950 . S
C1440 C1441 1.349 . S
C1440 C1442 1.327 . S
C1440 H1465 0.950 . S
C1441 C1440 1.349 . S
C1441 C1457 1.349 . S
C1442 C1440 1.327 . S
C1442 C1461 1.429 . S
C1442 H1466 0.950 . S
C1443 C1460 1.574 . S
C1443 C1462 1.368 . S
C1443 H1467 0.949 . S
H1444 C1448 0.949 . S
C1445 C1446 1.349 . S
C1445 C1447 1.327 . S
C1445 H1468 0.950 . S
C1446 C1445 1.349 . S
C1446 C1458 1.349 . S
C1447 C1445 1.327 . S
C1447 C1463 1.429 . S
C1447 H1469 0.950 . S
C1448 H1444 0.949 . S
C1448 C1456 1.574 . S
C1448 C1464 1.368 . S
H1449 C1457 0.950 . S
H1450 C1455 0.950 . S
H1451 C1456 0.949 . S
H1452 C1458 0.950 . S
H1453 C1459 0.950 . S
H1454 C1460 0.949 . S
C1455 H1450 0.950 . S
C1455 C1457 1.327 . S
C1455 C1461 1.429 . S
C1456 C1448 1.574 . S
C1456 H1451 0.949 . S
C1456 C1462 1.368 . S
C1457 C1441 1.349 . S
C1457 H1449 0.950 . S
C1457 C1455 1.327 . S
C1458 C1446 1.349 . S
C1458 H1452 0.950 . S
C1458 C1459 1.327 . S
C1459 H1453 0.950 . S
C1459 C1458 1.327 . S
C1459 C1463 1.429 . S
C1460 C1443 1.574 . S
C1460 H1454 0.949 . S
C1460 C1464 1.368 . S
C1461 C1442 1.429 . S
C1461 C1455 1.429 . S
C1461 C1462 1.523 . S
C1462 C1443 1.368 . S
C1462 C1456 1.368 . S
C1462 C1461 1.523 . S
C1463 C1447 1.429 . S
C1463 C1459 1.429 . S
C1463 C1464 1.523 . S
C1464 C1448 1.368 . S
C1464 C1460 1.368 . S
C1464 C1463 1.523 . S
H1465 C1440 0.950 . S
H1466 C1442 0.950 . S
H1467 C1443 0.949 . S
H1468 C1445 0.950 . S
H1469 C1447 0.950 . S
C1470 C1471 1.349 . S
C1470 C1472 1.327 . S
C1470 H1495 0.950 . S
C1471 C1470 1.349 . S
C1471 C1487 1.349 . S
C1472 C1470 1.327 . S
C1472 C1491 1.429 . S
C1472 H1496 0.950 . S
C1473 C1490 1.574 . S
C1473 C1492 1.368 . S
C1473 H1497 0.949 . S
H1474 C1478 0.949 . S
C1475 C1476 1.349 . S
C1475 C1477 1.327 . S
C1475 H1498 0.950 . S
C1476 C1475 1.349 . S
C1476 C1488 1.349 . S
C1477 C1475 1.327 . S
C1477 C1493 1.429 . S
C1477 H1499 0.950 . S
C1478 H1474 0.949 . S
C1478 C1486 1.574 . S
C1478 C1494 1.368 . S
H1479 C1487 0.950 . S
H1480 C1485 0.950 . S
H1481 C1486 0.949 . S
H1482 C1488 0.950 . S
H1483 C1489 0.950 . S
H1484 C1490 0.949 . S
C1485 H1480 0.950 . S
C1485 C1487 1.327 . S
C1485 C1491 1.429 . S
C1486 C1478 1.574 . S
C1486 H1481 0.949 . S
C1486 C1492 1.368 . S
C1487 C1471 1.349 . S
C1487 H1479 0.950 . S
C1487 C1485 1.327 . S
C1488 C1476 1.349 . S
C1488 H1482 0.950 . S
C1488 C1489 1.327 . S
C1489 H1483 0.950 . S
C1489 C1488 1.327 . S
C1489 C1493 1.429 . S
C1490 C1473 1.574 . S
C1490 H1484 0.949 . S
C1490 C1494 1.368 . S
C1491 C1472 1.429 . S
C1491 C1485 1.429 . S
C1491 C1492 1.523 . S
C1492 C1473 1.368 . S
C1492 C1486 1.368 . S
C1492 C1491 1.523 . S
C1493 C1477 1.429 . S
C1493 C1489 1.429 . S
C1493 C1494 1.523 . S
C1494 C1478 1.368 . S
C1494 C1490 1.368 . S
C1494 C1493 1.523 . S
H1495 C1470 0.950 . S
H1496 C1472 0.950 . S
H1497 C1473 0.949 . S
H1498 C1475 0.950 . S
H1499 C1477 0.950 . S
C1500 C1501 1.349 . S
C1500 C1502 1.327 . S
C1500 H1525 0.950 . S
C1501 C1500 1.349 . S
C1501 C1517 1.349 . S
C1502 C1500 1.327 . S
C1502 C1521 1.429 . S
C1502 H1526 0.950 . S
C1503 C1520 1.574 . S
C1503 C1522 1.368 . S
C1503 H1527 0.949 . S
H1504 C1508 0.949 . S
C1505 C1506 1.349 . S
C1505 C1507 1.327 . S
C1505 H1528 0.950 . S
C1506 C1505 1.349 . S
C1506 C1518 1.349 . S
C1507 C1505 1.327 . S
C1507 C1523 1.429 . S
C1507 H1529 0.950 . S
C1508 H1504 0.949 . S
C1508 C1516 1.574 . S
C1508 C1524 1.368 . S
H1509 C1517 0.950 1_554 S
H1510 C1515 0.950 . S
H1511 C1516 0.949 . S
H1512 C1518 0.950 . S
H1513 C1519 0.950 . S
H1514 C1520 0.949 . S
C1515 H1510 0.950 . S
C1515 C1517 1.327 . S
C1515 C1521 1.429 . S
C1516 C1508 1.574 . S
C1516 H1511 0.949 . S
C1516 C1522 1.368 . S
C1517 C1501 1.349 . S
C1517 H1509 0.950 1_556 S
C1517 C1515 1.327 . S
C1518 C1506 1.349 . S
C1518 H1512 0.950 . S
C1518 C1519 1.327 . S
C1519 H1513 0.950 . S
C1519 C1518 1.327 . S
C1519 C1523 1.429 . S
C1520 C1503 1.574 . S
C1520 H1514 0.949 . S
C1520 C1524 1.368 . S
C1521 C1502 1.429 . S
C1521 C1515 1.429 . S
C1521 C1522 1.523 . S
C1522 C1503 1.368 . S
C1522 C1516 1.368 . S
C1522 C1521 1.523 . S
C1523 C1507 1.429 . S
C1523 C1519 1.429 . S
C1523 C1524 1.523 . S
C1524 C1508 1.368 . S
C1524 C1520 1.368 . S
C1524 C1523 1.523 . S
H1525 C1500 0.950 . S
H1526 C1502 0.950 . S
H1527 C1503 0.949 . S
H1528 C1505 0.950 . S
H1529 C1507 0.950 . S
C1530 C1531 1.349 . S
C1530 C1532 1.327 . S
C1530 H1555 0.950 . S
C1531 C1530 1.349 . S
C1531 C1547 1.349 . S
C1532 C1530 1.327 . S
C1532 C1551 1.429 . S
C1532 H1556 0.950 . S
C1533 C1550 1.574 . S
C1533 C1552 1.368 . S
C1533 H1557 0.949 . S
H1534 C1538 0.960 . S
C1535 C1536 1.349 . S
C1535 C1537 1.327 . S
C1535 H1558 0.950 . S
C1536 C1535 1.349 . S
C1536 C1548 1.349 . S
C1537 C1535 1.327 . S
C1537 C1553 1.429 . S
C1537 H1559 0.950 . S
C1538 H1534 0.960 . S
C1538 C1546 1.562 1_455 S
C1538 C1554 1.367 1_455 S
H1539 C1547 0.950 . S
H1540 C1545 0.950 . S
H1541 C1546 0.949 . S
H1542 C1548 0.950 . S
H1543 C1549 0.950 . S
H1544 C1550 0.949 . S
C1545 H1540 0.950 . S
C1545 C1547 1.327 . S
C1545 C1551 1.429 . S
C1546 C1538 1.562 1_655 S
C1546 H1541 0.949 . S
C1546 C1552 1.368 . S
C1547 C1531 1.349 . S
C1547 H1539 0.950 . S
C1547 C1545 1.327 . S
C1548 C1536 1.349 . S
C1548 H1542 0.950 . S
C1548 C1549 1.327 . S
C1549 H1543 0.950 . S
C1549 C1548 1.327 . S
C1549 C1553 1.429 . S
C1550 C1533 1.574 . S
C1550 H1544 0.949 . S
C1550 C1554 1.368 . S
C1551 C1532 1.429 . S
C1551 C1545 1.429 . S
C1551 C1552 1.523 . S
C1552 C1533 1.368 . S
C1552 C1546 1.368 . S
C1552 C1551 1.523 . S
C1553 C1537 1.429 . S
C1553 C1549 1.429 . S
C1553 C1554 1.523 1_455 S
C1554 C1538 1.367 1_655 S
C1554 C1550 1.368 . S
C1554 C1553 1.523 1_655 S
H1555 C1530 0.950 . S
H1556 C1532 0.950 . S
H1557 C1533 0.949 . S
H1558 C1535 0.950 . S
H1559 C1537 0.950 . S
C481 C19 1.555 . S
C486 C458 1.625 . S
C511 C378 1.576 1_565 S
C516 C58 1.586 . S
C541 C99 1.317 . S
C546 C339 1.324 . S
C571 C138 1.549 . S
C576 C418 1.549 . S
C601 C178 2.030 . S
C606 C419 1.951 . S
C631 C219 1.229 . S
C636 C459 1.227 . S
C661 C379 1.707 . S
C666 C258 1.782 1_556 S
C691 C298 1.164 . S
C696 C338 1.168 . S
C721 C139 1.914 . S
C726 C179 1.897 . S
C751 C18 1.662 . S
C756 C218 1.668 . S
C781 C59 1.381 . S
C786 C259 1.391 . S
C811 C299 1.654 . S
C816 C98 1.705 . S
C841 C15 2.701 . S
C846 C330 2.792 . S
C871 C46 0.939 . S
C876 C409 0.911 . S
C901 C449 1.462 . S
C906 C95 1.515 . S
C931 C126 1.321 . S
C936 C369 1.258 . S
C961 C166 1.483 . S
C966 C370 1.475 . S
C991 C329 1.578 . S
C996 C215 1.629 . S
C1021 C410 2.022 . S
C1026 C246 2.038 . S
C1051 C450 1.821 . S
C1056 C286 1.839 . S
C1081 C9 1.408 . S
C1086 C135 1.458 . S
C1111 C6 2.359 . S
C1116 C50 2.334 . S
C1141 C55 1.928 . S
C1146 C89 1.873 . S
C1171 C130 2.000 . S
C1176 C86 2.010 . S
C1201 C206 0.899 . S
C1206 C170 0.893 . S
C1231 C209 1.534 . S
C1236 C255 1.588 . S
C1261 C250 1.121 . S
C1266 C295 1.104 . S
C1291 C175 1.636 . S
C1296 C290 1.687 . S
C1321 C326 1.082 . S
C1326 C129 1.031 . S
C1351 C210 1.676 . S
C1356 C366 1.694 . S
C1381 C335 1.832 . S
C1386 C249 1.775 . S
C1411 C406 1.566 . S
C1416 C289 1.469 . S
C1441 C169 0.568 . S
C1446 C446 0.511 . S
C1471 C455 1.386 . S
C1476 C49 1.350 . S
C1501 C90 1.199 . S
C1506 C375 1.180 . S
C1531 C415 1.785 . S
C1536 C10 1.827 . S
