# Generated by pormake.
# Topology gsi, (4)-cn, num edge types: 1
# Building blocks:
#     Node 0, Type 0, BuildingBlock: ICAMEG_clean_sbu_1, # of connection points: 4
#     Node 1, Type 0, BuildingBlock: ICAMEG_clean_sbu_1, # of connection points: 4
#     Node 2, Type 0, BuildingBlock: ICAMEG_clean_sbu_1, # of connection points: 4
#     Node 3, Type 0, BuildingBlock: ICAMEG_clean_sbu_1, # of connection points: 4
#     Node 4, Type 0, BuildingBlock: ICAMEG_clean_sbu_1, # of connection points: 4
#     Node 5, Type 0, BuildingBlock: ICAMEG_clean_sbu_1, # of connection points: 4
#     Node 6, Type 0, BuildingBlock: ICAMEG_clean_sbu_1, # of connection points: 4
#     Node 7, Type 0, BuildingBlock: ICAMEG_clean_sbu_1, # of connection points: 4
#     Node 8, Type 0, BuildingBlock: ICAMEG_clean_sbu_1, # of connection points: 4
#     Node 9, Type 0, BuildingBlock: ICAMEG_clean_sbu_1, # of connection points: 4
#     Node 10, Type 0, BuildingBlock: ICAMEG_clean_sbu_1, # of connection points: 4
#     Node 11, Type 0, BuildingBlock: ICAMEG_clean_sbu_1, # of connection points: 4
#     Node 12, Type 0, BuildingBlock: ICAMEG_clean_sbu_1, # of connection points: 4
#     Node 13, Type 0, BuildingBlock: ICAMEG_clean_sbu_1, # of connection points: 4
#     Node 14, Type 0, BuildingBlock: ICAMEG_clean_sbu_1, # of connection points: 4
#     Node 15, Type 0, BuildingBlock: ICAMEG_clean_sbu_1, # of connection points: 4
#     Edge 16, Type (0, 0), BuildingBlock: UVAHIK_clean_linker_0, # of connection points: 2
#     Edge 17, Type (0, 0), BuildingBlock: UVAHIK_clean_linker_0, # of connection points: 2
#     Edge 18, Type (0, 0), BuildingBlock: UVAHIK_clean_linker_0, # of connection points: 2
#     Edge 19, Type (0, 0), BuildingBlock: UVAHIK_clean_linker_0, # of connection points: 2
#     Edge 20, Type (0, 0), BuildingBlock: UVAHIK_clean_linker_0, # of connection points: 2
#     Edge 21, Type (0, 0), BuildingBlock: UVAHIK_clean_linker_0, # of connection points: 2
#     Edge 22, Type (0, 0), BuildingBlock: UVAHIK_clean_linker_0, # of connection points: 2
#     Edge 23, Type (0, 0), BuildingBlock: UVAHIK_clean_linker_0, # of connection points: 2
#     Edge 24, Type (0, 0), BuildingBlock: UVAHIK_clean_linker_0, # of connection points: 2
#     Edge 25, Type (0, 0), BuildingBlock: UVAHIK_clean_linker_0, # of connection points: 2
#     Edge 26, Type (0, 0), BuildingBlock: UVAHIK_clean_linker_0, # of connection points: 2
#     Edge 27, Type (0, 0), BuildingBlock: UVAHIK_clean_linker_0, # of connection points: 2
#     Edge 28, Type (0, 0), BuildingBlock: UVAHIK_clean_linker_0, # of connection points: 2
#     Edge 29, Type (0, 0), BuildingBlock: UVAHIK_clean_linker_0, # of connection points: 2
#     Edge 30, Type (0, 0), BuildingBlock: UVAHIK_clean_linker_0, # of connection points: 2
#     Edge 31, Type (0, 0), BuildingBlock: UVAHIK_clean_linker_0, # of connection points: 2
#     Edge 32, Type (0, 0), BuildingBlock: UVAHIK_clean_linker_0, # of connection points: 2
#     Edge 33, Type (0, 0), BuildingBlock: UVAHIK_clean_linker_0, # of connection points: 2
#     Edge 34, Type (0, 0), BuildingBlock: UVAHIK_clean_linker_0, # of connection points: 2
#     Edge 35, Type (0, 0), BuildingBlock: UVAHIK_clean_linker_0, # of connection points: 2
#     Edge 36, Type (0, 0), BuildingBlock: UVAHIK_clean_linker_0, # of connection points: 2
#     Edge 37, Type (0, 0), BuildingBlock: UVAHIK_clean_linker_0, # of connection points: 2
#     Edge 38, Type (0, 0), BuildingBlock: UVAHIK_clean_linker_0, # of connection points: 2
#     Edge 39, Type (0, 0), BuildingBlock: UVAHIK_clean_linker_0, # of connection points: 2
#     Edge 40, Type (0, 0), BuildingBlock: UVAHIK_clean_linker_0, # of connection points: 2
#     Edge 41, Type (0, 0), BuildingBlock: UVAHIK_clean_linker_0, # of connection points: 2
#     Edge 42, Type (0, 0), BuildingBlock: UVAHIK_clean_linker_0, # of connection points: 2
#     Edge 43, Type (0, 0), BuildingBlock: UVAHIK_clean_linker_0, # of connection points: 2
#     Edge 44, Type (0, 0), BuildingBlock: UVAHIK_clean_linker_0, # of connection points: 2
#     Edge 45, Type (0, 0), BuildingBlock: UVAHIK_clean_linker_0, # of connection points: 2
#     Edge 46, Type (0, 0), BuildingBlock: UVAHIK_clean_linker_0, # of connection points: 2
#     Edge 47, Type (0, 0), BuildingBlock: UVAHIK_clean_linker_0, # of connection points: 2
# Relax obj value: 0.184
# Max RMSD: 0.229
# Mean RMSD: 0.182
data_MOF--net-gsi--node1-ICAMEG_clean_sbu_1--edge1-UVAHIK_clean_linker_0
_symmetry_space_group_name_H-M    P1
_symmetry_Int_Tables_number       1
_symmetry_cell_setting            triclinic
loop_
_symmetry_equiv_pos_as_xyz
'x, y, z'
_cell_length_a     46.429623
_cell_length_b     60.76626
_cell_length_c     60.573849
_cell_angle_alpha  89.96966
_cell_angle_beta   89.997245
_cell_angle_gamma 99.420619
loop_
_atom_site_label
_atom_site_type_symbol
_atom_site_fract_x
_atom_site_fract_y
_atom_site_fract_z
_atom_type_partial_charge
Co0 Co 0.14873 0.15473 0.16906 0.0
Co1 Co 0.18791 0.18669 0.12967 0.0
O2 O 0.17461 0.15732 0.14321 0.0
C3 C 0.19256 0.12574 0.1819 0.0
O4 O 0.21373 0.14049 0.17377 0.0
C5 C 0.18227 0.15328 0.09189 0.0
O6 O 0.17113 0.13683 0.10493 0.0
O7 O 0.14651 0.1905 0.12498 0.0
O8 O 0.12952 0.18024 0.1586 0.0
H9 H 0.18623 0.26841 0.11828 0.0
H10 H 0.15075 0.11413 0.14253 0.0
O11 O 0.16617 0.12892 0.18067 0.0
H12 H 0.04804 0.12547 0.13996 0.0
H13 H 0.08267 0.11366 0.22688 0.0
H14 H 0.13003 0.18739 0.20004 0.0
H15 H 0.08455 0.15118 0.161 0.0
H16 H 0.11406 0.11682 0.19381 0.0
O17 O 0.18865 0.17313 0.09929 0.0
H18 H 0.17122 0.23143 0.13528 0.0
H19 H 0.23119 0.20413 0.09474 0.0
H20 H 0.09859 0.18501 0.23306 0.0
H21 H 0.11487 0.08785 0.12146 0.0
H22 H 0.07466 0.14793 0.24669 0.0
H23 H 0.0631 0.09349 0.12003 0.0
O24 O 0.17865 0.17568 0.18534 0.0
H25 H 0.27273 0.14443 0.12978 0.0
H26 H 0.24072 0.21583 0.14742 0.0
H27 H 0.2917 0.21144 0.15443 0.0
H28 H 0.3081 0.17557 0.14547 0.0
H29 H 0.22192 0.14938 0.12341 0.0
H30 H 0.24664 0.24077 0.07717 0.0
H31 H 0.2242 0.27326 0.089 0.0
O32 O 0.18846 0.20193 0.15924 0.0
C33 C 0.12728 0.18991 0.1401 0.0
C34 C 0.19623 0.25439 0.11303 0.0
C35 C 0.2301 0.23888 0.08993 0.0
N36 N 0.20042 0.21565 0.11612 0.0
C37 C 0.18786 0.23342 0.12263 0.0
C38 C 0.22119 0.21815 0.0999 0.0
C39 C 0.21751 0.2571 0.09658 0.0
C40 C 0.12825 0.11664 0.14203 0.0
N41 N 0.11983 0.13424 0.15286 0.0
C42 C 0.10804 0.10173 0.13005 0.0
C43 C 0.079 0.10492 0.12924 0.0
C44 C 0.07055 0.12287 0.1404 0.0
C45 C 0.09137 0.13745 0.1522 0.0
C46 C 0.09295 0.12992 0.22108 0.0
C47 C 0.11959 0.17121 0.20581 0.0
C48 C 0.11081 0.13181 0.2024 0.0
N49 N 0.12374 0.15229 0.19492 0.0
C50 C 0.10186 0.16996 0.22454 0.0
C51 C 0.08845 0.14915 0.23219 0.0
C52 C 0.1897 0.19529 0.17917 0.0
C53 C 0.26593 0.16021 0.13356 0.0
C54 C 0.2476 0.20015 0.14344 0.0
C55 C 0.27655 0.19778 0.14745 0.0
C56 C 0.28574 0.17766 0.14242 0.0
N57 N 0.2283 0.18302 0.13455 0.0
C58 C 0.23714 0.16319 0.12978 0.0
Co59 Co 0.86363 0.34515 0.16531 0.0
Co60 Co 0.82275 0.31348 0.12662 0.0
O61 O 0.83776 0.34281 0.13951 0.0
C62 C 0.82095 0.37474 0.1783 0.0
O63 O 0.79947 0.35942 0.17159 0.0
C64 C 0.83136 0.34594 0.08803 0.0
O65 O 0.84495 0.362 0.10048 0.0
O66 O 0.86355 0.30807 0.12207 0.0
O67 O 0.88145 0.31876 0.15538 0.0
H68 H 0.8193 0.23096 0.11685 0.0
H69 H 0.86352 0.3857 0.13822 0.0
O70 O 0.84733 0.37171 0.17627 0.0
H71 H 0.96488 0.37118 0.1356 0.0
H72 H 0.93126 0.38587 0.22232 0.0
H73 H 0.88084 0.31247 0.197 0.0
H74 H 0.92744 0.34666 0.15702 0.0
H75 H 0.89984 0.38282 0.18928 0.0
O76 O 0.82267 0.32656 0.09602 0.0
H77 H 0.83662 0.26797 0.13306 0.0
H78 H 0.77846 0.2968 0.09215 0.0
H79 H 0.91229 0.31473 0.23001 0.0
H80 H 0.90038 0.41082 0.11678 0.0
H81 H 0.93775 0.35164 0.24288 0.0
H82 H 0.95147 0.40357 0.11533 0.0
O83 O 0.83306 0.32523 0.18204 0.0
H84 H 0.74173 0.35937 0.12559 0.0
H85 H 0.76858 0.28661 0.14511 0.0
H86 H 0.71848 0.29332 0.15209 0.0
H87 H 0.7047 0.32989 0.1422 0.0
H88 H 0.79164 0.3521 0.11923 0.0
H89 H 0.76072 0.26014 0.07536 0.0
H90 H 0.78108 0.22687 0.08777 0.0
O91 O 0.82139 0.29871 0.15646 0.0
C92 C 0.88278 0.30838 0.13716 0.0
C93 C 0.81021 0.24532 0.11134 0.0
C94 C 0.77736 0.2617 0.08804 0.0
N95 N 0.80847 0.28452 0.11367 0.0
C96 C 0.81989 0.26632 0.1205 0.0
C97 C 0.78756 0.28244 0.09757 0.0
C98 C 0.78878 0.24304 0.09501 0.0
C99 C 0.88573 0.3825 0.13773 0.0
N100 N 0.89324 0.36466 0.14874 0.0
C101 C 0.90649 0.39675 0.12553 0.0
C102 C 0.93515 0.39266 0.12471 0.0
C103 C 0.94268 0.37447 0.13605 0.0
C104 C 0.92133 0.36057 0.14806 0.0
C105 C 0.92032 0.36969 0.21686 0.0
C106 C 0.89197 0.32857 0.20243 0.0
C107 C 0.90243 0.36786 0.19819 0.0
N108 N 0.88865 0.34746 0.19114 0.0
C109 C 0.90969 0.32976 0.22116 0.0
C110 C 0.92396 0.35047 0.22838 0.0
C111 C 0.8208 0.3058 0.17626 0.0
C112 C 0.74739 0.3433 0.1298 0.0
C113 C 0.76282 0.30258 0.14073 0.0
C114 C 0.73437 0.30627 0.14472 0.0
C115 C 0.72665 0.32678 0.13917 0.0
N116 N 0.78303 0.31881 0.13138 0.0
C117 C 0.77564 0.33901 0.12605 0.0
Co118 Co 0.14658 0.88179 0.30918 0.0
Co119 Co 0.18766 0.84577 0.33144 0.0
O120 O 0.17955 0.87624 0.32741 0.0
C121 C 0.19257 0.91647 0.28883 0.0
O122 O 0.2081 0.90101 0.28361 0.0
C123 C 0.19368 0.86426 0.37748 0.0
O124 O 0.17084 0.8741 0.37447 0.0
O125 O 0.14761 0.83616 0.34332 0.0
O126 O 0.12255 0.85263 0.31839 0.0
H127 H 0.16464 0.76214 0.32673 0.0
H128 H 0.17237 0.91602 0.34139 0.0
O129 O 0.16888 0.91142 0.29968 0.0
H130 H 0.06901 0.89602 0.36307 0.0
H131 H 0.0775 0.92895 0.27668 0.0
H132 H 0.10583 0.85422 0.27859 0.0
H133 H 0.08812 0.87826 0.33085 0.0
H134 H 0.1182 0.92159 0.30021 0.0
O135 O 0.20288 0.85311 0.36197 0.0
H136 H 0.15547 0.80059 0.32123 0.0
H137 H 0.23679 0.82625 0.35115 0.0
H138 H 0.0648 0.8608 0.25498 0.0
H139 H 0.15408 0.9344 0.3736 0.0
H140 H 0.0504 0.8984 0.25391 0.0
H141 H 0.10207 0.92436 0.38467 0.0
O142 O 0.16245 0.86694 0.28355 0.0
H143 H 0.28319 0.89763 0.32414 0.0
H144 H 0.22427 0.8278 0.29741 0.0
H145 H 0.27293 0.84056 0.28136 0.0
H146 H 0.30279 0.87569 0.29477 0.0
H147 H 0.23424 0.88436 0.33958 0.0
H148 H 0.24673 0.78806 0.35712 0.0
H149 H 0.21055 0.75568 0.3448 0.0
O150 O 0.17331 0.83689 0.30105 0.0
C151 C 0.12381 0.83824 0.33361 0.0
C152 C 0.1806 0.77612 0.33213 0.0
C153 C 0.22665 0.79066 0.34921 0.0
N154 N 0.19561 0.81567 0.33578 0.0
C155 C 0.17555 0.79794 0.32903 0.0
C156 C 0.22086 0.81225 0.34584 0.0
C157 C 0.20635 0.7725 0.34229 0.0
C158 C 0.14966 0.91171 0.34601 0.0
N159 N 0.13135 0.89611 0.33424 0.0
C160 C 0.13945 0.92211 0.3643 0.0
C161 C 0.11027 0.91644 0.37052 0.0
C162 C 0.09172 0.90052 0.35843 0.0
C163 C 0.1027 0.89046 0.34024 0.0
C164 C 0.08355 0.91249 0.27701 0.0
C165 C 0.09961 0.8706 0.27829 0.0
C166 C 0.10664 0.90824 0.29026 0.0
N167 N 0.11431 0.88746 0.29086 0.0
C168 C 0.0764 0.87424 0.26486 0.0
C169 C 0.06835 0.89534 0.26425 0.0
C170 C 0.16901 0.84738 0.28345 0.0
C171 C 0.27043 0.88226 0.31821 0.0
C172 C 0.23708 0.84314 0.3033 0.0
C173 C 0.26465 0.85025 0.29417 0.0
C174 C 0.2814 0.86996 0.30171 0.0
N175 N 0.22649 0.85529 0.3195 0.0
C176 C 0.24275 0.87464 0.32694 0.0
Co177 Co 0.85984 0.62082 0.30406 0.0
Co178 Co 0.80941 0.64689 0.33175 0.0
O179 O 0.82794 0.62085 0.3253 0.0
C180 C 0.81636 0.58323 0.286 0.0
O181 O 0.79656 0.59637 0.28521 0.0
C182 C 0.81701 0.65191 0.3801 0.0
O183 O 0.83179 0.67182 0.37603 0.0
O184 O 0.8485 0.66622 0.33567 0.0
O185 O 0.87907 0.6507 0.31424 0.0
H186 H 0.79675 0.72715 0.32481 0.0
H187 H 0.84416 0.58273 0.33474 0.0
O188 O 0.84181 0.59047 0.29342 0.0
H189 H 0.94727 0.61267 0.35075 0.0
H190 H 0.9346 0.58572 0.26246 0.0
H191 H 0.89271 0.65435 0.2739 0.0
H192 H 0.92065 0.62967 0.32183 0.0
H193 H 0.89473 0.58641 0.28921 0.0
O194 O 0.808 0.63889 0.36411 0.0
H195 H 0.81931 0.69395 0.31694 0.0
H196 H 0.75972 0.6551 0.36048 0.0
H197 H 0.93272 0.65446 0.2471 0.0
H198 H 0.87005 0.56507 0.36366 0.0
H199 H 0.95394 0.61995 0.24124 0.0
H200 H 0.92198 0.58008 0.37184 0.0
O201 O 0.83853 0.63517 0.28082 0.0
H202 H 0.73598 0.57711 0.34185 0.0
H203 H 0.75461 0.65175 0.30774 0.0
H204 H 0.70725 0.62751 0.3016 0.0
H205 H 0.69767 0.5899 0.31879 0.0
H206 H 0.78316 0.60181 0.34728 0.0
H207 H 0.73661 0.68789 0.3689 0.0
H208 H 0.7551 0.72423 0.35098 0.0
O209 O 0.80961 0.65484 0.29977 0.0
C210 C 0.87351 0.66618 0.32692 0.0
C211 C 0.78847 0.7114 0.33271 0.0
C212 C 0.75473 0.68937 0.35746 0.0
N213 N 0.79083 0.67261 0.3382 0.0
C214 C 0.80114 0.69254 0.32829 0.0
C215 C 0.76793 0.67087 0.35265 0.0
C216 C 0.76512 0.70975 0.3474 0.0
C217 C 0.8668 0.58927 0.33812 0.0
N218 N 0.88089 0.60716 0.32655 0.0
C219 C 0.88133 0.57924 0.35455 0.0
C220 C 0.91045 0.58768 0.35915 0.0
C221 C 0.92465 0.60598 0.34733 0.0
C222 C 0.90943 0.61558 0.33102 0.0
C223 C 0.92553 0.60086 0.26486 0.0
C224 C 0.90187 0.63929 0.27148 0.0
C225 C 0.90288 0.60133 0.27994 0.0
N226 N 0.89142 0.62042 0.28315 0.0
C227 C 0.9245 0.63944 0.25627 0.0
C228 C 0.93638 0.62007 0.25297 0.0
C229 C 0.8204 0.64883 0.2818 0.0
C230 C 0.7399 0.59345 0.33425 0.0
C231 C 0.75072 0.63532 0.31503 0.0
C232 C 0.7238 0.62171 0.31162 0.0
C233 C 0.71842 0.60063 0.32129 0.0
N234 N 0.7717 0.62816 0.32772 0.0
C235 C 0.76655 0.60753 0.3373 0.0
Co236 Co 0.36316 0.84579 0.66554 0.0
Co237 Co 0.32299 0.81501 0.626 0.0
O238 O 0.33779 0.8441 0.63949 0.0
C239 C 0.32137 0.87625 0.6786 0.0
O240 O 0.29931 0.86149 0.67179 0.0
C241 C 0.33111 0.84843 0.58817 0.0
O242 O 0.3427 0.86467 0.60128 0.0
O243 O 0.36392 0.80975 0.62169 0.0
O244 O 0.38058 0.81928 0.65555 0.0
H245 H 0.3198 0.73268 0.61503 0.0
H246 H 0.36445 0.88661 0.63865 0.0
O247 O 0.34744 0.87254 0.67659 0.0
H248 H 0.46538 0.87103 0.63733 0.0
H249 H 0.43047 0.88487 0.72366 0.0
H250 H 0.3788 0.81235 0.69708 0.0
H251 H 0.4271 0.84675 0.65819 0.0
H252 H 0.39978 0.88272 0.69026 0.0
O253 O 0.32358 0.82866 0.59557 0.0
H254 H 0.33668 0.76941 0.63199 0.0
H255 H 0.27961 0.79895 0.59072 0.0
H256 H 0.4095 0.81371 0.73044 0.0
H257 H 0.40216 0.9115 0.61774 0.0
H258 H 0.43559 0.85018 0.74394 0.0
H259 H 0.45303 0.90372 0.61694 0.0
O260 O 0.33183 0.82599 0.68164 0.0
H261 H 0.24174 0.86081 0.62579 0.0
H262 H 0.2685 0.78752 0.64316 0.0
H263 H 0.2182 0.79385 0.64987 0.0
H264 H 0.20444 0.83068 0.64105 0.0
H265 H 0.29181 0.85391 0.61967 0.0
H266 H 0.26233 0.76258 0.57317 0.0
H267 H 0.28235 0.7291 0.58539 0.0
O268 O 0.321 0.79975 0.65567 0.0
C269 C 0.38279 0.80973 0.63699 0.0
C270 C 0.31085 0.74714 0.6096 0.0
C271 C 0.27863 0.76393 0.58609 0.0
N272 N 0.30904 0.78629 0.61246 0.0
C273 C 0.32028 0.76797 0.61918 0.0
C274 C 0.28857 0.78449 0.59604 0.0
C275 C 0.28986 0.74514 0.59296 0.0
C276 C 0.38655 0.88316 0.63841 0.0
N277 N 0.39348 0.86516 0.64949 0.0
C278 C 0.4078 0.89729 0.62653 0.0
C279 C 0.43634 0.89291 0.62608 0.0
C280 C 0.44327 0.87456 0.63749 0.0
C281 C 0.42145 0.86079 0.64919 0.0
C282 C 0.41923 0.86888 0.71793 0.0
C283 C 0.39018 0.82827 0.70279 0.0
C284 C 0.40175 0.86756 0.69907 0.0
N285 N 0.38761 0.84741 0.69166 0.0
C286 C 0.40749 0.82894 0.72172 0.0
C287 C 0.42211 0.84941 0.7293 0.0
C288 C 0.31964 0.80666 0.6755 0.0
C289 C 0.24738 0.84462 0.62949 0.0
C290 C 0.26275 0.8036 0.6392 0.0
C291 C 0.23419 0.80707 0.64305 0.0
C292 C 0.22649 0.82773 0.63811 0.0
N293 N 0.28312 0.82017 0.63053 0.0
C294 C 0.27574 0.84054 0.62586 0.0
Co295 Co 0.89685 0.87895 0.8554 0.0
Co296 Co 0.82813 0.8787 0.87584 0.0
O297 O 0.86911 0.87504 0.88006 0.0
C298 C 0.90708 0.83589 0.87489 0.0
O299 O 0.87873 0.82976 0.87671 0.0
C300 C 0.84621 0.90132 0.91898 0.0
O301 O 0.87278 0.90752 0.91143 0.0
O302 O 0.84085 0.90944 0.86417 0.0
O303 O 0.8775 0.90316 0.84224 0.0
H304 H 0.7441 0.90111 0.83394 0.0
H305 H 0.92048 0.8806 0.90083 0.0
O306 O 0.91755 0.85513 0.86747 0.0
H307 H 0.95978 0.95367 0.8681 0.0
H308 H 0.99592 0.88455 0.81994 0.0
H309 H 0.89102 0.88444 0.80709 0.0
H310 H 0.92797 0.92519 0.84637 0.0
H311 H 0.96124 0.88053 0.85108 0.0
O312 O 0.82649 0.89064 0.90667 0.0
H313 H 0.79508 0.89567 0.83944 0.0
H314 H 0.77458 0.87044 0.90396 0.0
H315 H 0.92499 0.8887 0.77548 0.0
H316 H 0.95263 0.90848 0.92307 0.0
H317 H 0.97786 0.88877 0.78182 0.0
H318 H 0.97239 0.94536 0.90674 0.0
O319 O 0.87076 0.85585 0.83835 0.0
H320 H 0.83011 0.81542 0.929 0.0
H321 H 0.78584 0.83909 0.86081 0.0
H322 H 0.77117 0.80065 0.8744 0.0
H323 H 0.79328 0.78861 0.90878 0.0
H324 H 0.84448 0.85362 0.91465 0.0
H325 H 0.72343 0.87576 0.89921 0.0
H326 H 0.70787 0.89112 0.86397 0.0
O327 O 0.82753 0.86632 0.84504 0.0
C328 C 0.85879 0.91514 0.84841 0.0
C329 C 0.7506 0.89435 0.84936 0.0
C330 C 0.73901 0.88015 0.886 0.0
N331 N 0.78779 0.88263 0.87194 0.0
C332 C 0.77943 0.89119 0.85255 0.0
C333 C 0.76803 0.87723 0.88861 0.0
C334 C 0.73029 0.88876 0.86621 0.0
C335 C 0.92923 0.89654 0.89355 0.0
N336 N 0.92227 0.90127 0.87236 0.0
C337 C 0.94732 0.91229 0.90625 0.0
C338 C 0.95836 0.93299 0.89709 0.0
C339 C 0.95125 0.93768 0.87542 0.0
C340 C 0.93308 0.92153 0.86323 0.0
C341 C 0.97294 0.88458 0.81697 0.0
C342 C 0.91401 0.88457 0.80998 0.0
C343 C 0.95318 0.88226 0.83453 0.0
N344 N 0.92415 0.88239 0.83091 0.0
C345 C 0.93313 0.88693 0.79202 0.0
C346 C 0.96279 0.88695 0.79559 0.0
C347 C 0.84363 0.85485 0.83445 0.0
C348 C 0.82024 0.8205 0.91404 0.0
C349 C 0.79569 0.83397 0.87573 0.0
C350 C 0.78722 0.81219 0.88338 0.0
C351 C 0.79962 0.80545 0.90267 0.0
N352 N 0.81593 0.84865 0.88698 0.0
C353 C 0.82819 0.84215 0.9059 0.0
Co354 Co 0.10889 0.63092 0.85539 0.0
Co355 Co 0.17948 0.63217 0.87277 0.0
O356 O 0.13883 0.63588 0.87847 0.0
C357 C 0.10103 0.67522 0.8733 0.0
O358 O 0.1295 0.6812 0.87361 0.0
C359 C 0.1642 0.60974 0.91635 0.0
O360 O 0.13769 0.60254 0.90917 0.0
O361 O 0.16639 0.60116 0.86191 0.0
O362 O 0.12661 0.60576 0.84258 0.0
H363 H 0.26105 0.60949 0.82816 0.0
H364 H 0.09016 0.63216 0.90198 0.0
O365 O 0.08973 0.65566 0.86723 0.0
H366 H 0.04594 0.5578 0.87483 0.0
H367 H 0.00684 0.6244 0.82501 0.0
H368 H 0.11006 0.62245 0.80727 0.0
H369 H 0.07581 0.58465 0.85016 0.0
H370 H 0.04435 0.62984 0.8542 0.0
O371 O 0.1831 0.62091 0.9037 0.0
H372 H 0.21038 0.61481 0.83538 0.0
H373 H 0.2347 0.64108 0.8989 0.0
H374 H 0.07321 0.61671 0.77759 0.0
H375 H 0.06001 0.60597 0.92717 0.0
H376 H 0.02118 0.61768 0.78639 0.0
H377 H 0.03779 0.56844 0.91364 0.0
O378 O 0.13353 0.65276 0.83596 0.0
H379 H 0.18062 0.69646 0.92512 0.0
H380 H 0.22024 0.67162 0.85558 0.0
H381 H 0.23547 0.71038 0.86807 0.0
H382 H 0.2157 0.72301 0.90312 0.0
H383 H 0.16565 0.65793 0.91187 0.0
H384 H 0.28559 0.63588 0.89243 0.0
H385 H 0.29906 0.62005 0.85681 0.0
O386 O 0.17788 0.64382 0.84186 0.0
C387 C 0.14666 0.59455 0.84762 0.0
C388 C 0.25546 0.61645 0.84373 0.0
C389 C 0.26922 0.63123 0.87981 0.0
N390 N 0.21959 0.62834 0.86749 0.0
C391 C 0.22681 0.61954 0.84789 0.0
C392 C 0.24034 0.63408 0.8834 0.0
C393 C 0.27677 0.62236 0.85982 0.0
C394 C 0.08034 0.61593 0.89593 0.0
N395 N 0.08488 0.6099 0.87465 0.0
C396 C 0.06339 0.60114 0.91029 0.0
C397 C 0.05097 0.58007 0.9027 0.0
C398 C 0.05558 0.57407 0.88094 0.0
C399 C 0.07269 0.58929 0.86707 0.0
C400 C 0.02944 0.62391 0.82097 0.0
C401 C 0.08743 0.62277 0.81125 0.0
C402 C 0.05079 0.62703 0.83742 0.0
N403 N 0.07935 0.62633 0.83246 0.0
C404 C 0.06668 0.61957 0.79437 0.0
C405 C 0.03749 0.62013 0.79931 0.0
C406 C 0.16044 0.65401 0.8311 0.0
C407 C 0.18947 0.69113 0.90986 0.0
C408 C 0.21142 0.677 0.8708 0.0
C409 C 0.2202 0.69896 0.87782 0.0
C410 C 0.20911 0.70603 0.89749 0.0
N411 N 0.19216 0.66246 0.88304 0.0
C412 C 0.18118 0.66929 0.90233 0.0
Co413 Co 0.82376 0.1593 0.65593 0.0
Co414 Co 0.80583 0.15012 0.7108 0.0
O415 O 0.8087 0.13961 0.68039 0.0
C416 C 0.76646 0.13965 0.63539 0.0
O417 O 0.75251 0.14648 0.65226 0.0
C418 C 0.8382 0.11176 0.71803 0.0
O419 O 0.85708 0.1195 0.70261 0.0
O420 O 0.84774 0.16514 0.71067 0.0
O421 O 0.85394 0.17634 0.67545 0.0
H422 H 0.81998 0.20702 0.77166 0.0
H423 H 0.81704 0.11029 0.65079 0.0
O424 O 0.79427 0.14262 0.63518 0.0
H425 H 0.92171 0.13795 0.63858 0.0
H426 H 0.8549 0.17656 0.57729 0.0
H427 H 0.84317 0.20804 0.65114 0.0
H428 H 0.88768 0.16415 0.64638 0.0
H429 H 0.83625 0.15206 0.60835 0.0
O430 O 0.81716 0.12198 0.72269 0.0
H431 H 0.82323 0.19344 0.73353 0.0
H432 H 0.78208 0.12868 0.75288 0.0
H433 H 0.86218 0.23311 0.62059 0.0
H434 H 0.85026 0.08349 0.64284 0.0
H435 H 0.86814 0.21739 0.58334 0.0
H436 H 0.90302 0.09728 0.63672 0.0
O437 O 0.79655 0.18064 0.66319 0.0
H438 H 0.72358 0.08724 0.6958 0.0
H439 H 0.74951 0.16352 0.72514 0.0
H440 H 0.69786 0.14575 0.72422 0.0
H441 H 0.6846 0.10728 0.7095 0.0
H442 H 0.77494 0.1058 0.6968 0.0
H443 H 0.77865 0.14151 0.79125 0.0
H444 H 0.79756 0.18097 0.80083 0.0
O445 O 0.79347 0.17818 0.70012 0.0
C446 C 0.86245 0.17648 0.69546 0.0
C447 C 0.81161 0.1898 0.76768 0.0
C448 C 0.78846 0.15302 0.77869 0.0
N449 N 0.80277 0.16031 0.74095 0.0
C450 C 0.81333 0.18202 0.74611 0.0
C451 C 0.79057 0.14583 0.75694 0.0
C452 C 0.79905 0.17517 0.78405 0.0
C453 C 0.83995 0.11643 0.64801 0.0
N454 N 0.8504 0.13877 0.64903 0.0
C455 C 0.85866 0.10117 0.64357 0.0
C456 C 0.88827 0.10892 0.64017 0.0
C457 C 0.89877 0.13173 0.64123 0.0
C458 C 0.87942 0.14649 0.64573 0.0
C459 C 0.85242 0.18361 0.59345 0.0
C460 C 0.84582 0.20105 0.635 0.0
C461 C 0.84177 0.16983 0.61109 0.0
N462 N 0.83873 0.1786 0.63157 0.0
C463 C 0.85654 0.21534 0.61776 0.0
C464 C 0.85986 0.20651 0.59686 0.0
C465 C 0.78871 0.18742 0.68187 0.0
C466 C 0.72907 0.10401 0.70223 0.0
C467 C 0.74391 0.14692 0.7185 0.0
C468 C 0.71463 0.13687 0.71814 0.0
C469 C 0.70721 0.11527 0.70991 0.0
N470 N 0.76523 0.1358 0.71092 0.0
C471 C 0.75812 0.1146 0.70288 0.0
Co472 Co 0.16936 0.34519 0.65521 0.0
Co473 Co 0.18434 0.35902 0.70993 0.0
O474 O 0.18136 0.36722 0.67864 0.0
C475 C 0.2256 0.36754 0.63465 0.0
O476 O 0.24014 0.36297 0.6522 0.0
C477 C 0.15893 0.40218 0.71082 0.0
O478 O 0.15745 0.40304 0.68922 0.0
O479 O 0.14386 0.34146 0.70948 0.0
O480 O 0.1401 0.32752 0.67515 0.0
H481 H 0.17413 0.30518 0.77353 0.0
H482 H 0.1704 0.39303 0.64503 0.0
O483 O 0.19789 0.36233 0.63403 0.0
H484 H 0.06824 0.35728 0.63375 0.0
H485 H 0.14343 0.32075 0.57723 0.0
H486 H 0.15602 0.2958 0.65359 0.0
H487 H 0.10553 0.33501 0.64515 0.0
H488 H 0.15774 0.34815 0.60687 0.0
O489 O 0.16804 0.38596 0.7204 0.0
H490 H 0.17142 0.3164 0.73455 0.0
H491 H 0.20283 0.38388 0.75158 0.0
H492 H 0.14147 0.26784 0.62449 0.0
H493 H 0.13389 0.41591 0.63328 0.0
H494 H 0.1351 0.28026 0.58598 0.0
H495 H 0.08236 0.39804 0.62766 0.0
O496 O 0.19919 0.32692 0.66466 0.0
H497 H 0.26247 0.42431 0.69164 0.0
H498 H 0.24127 0.35128 0.72868 0.0
H499 H 0.29155 0.37184 0.72865 0.0
H500 H 0.30244 0.40874 0.71013 0.0
H501 H 0.2127 0.40304 0.69178 0.0
H502 H 0.20554 0.37341 0.79075 0.0
H503 H 0.19127 0.33379 0.80194 0.0
O504 O 0.20111 0.33201 0.70136 0.0
C505 C 0.13074 0.32835 0.69487 0.0
C506 C 0.1805 0.32248 0.76885 0.0
C507 C 0.19808 0.36078 0.77852 0.0
N508 N 0.18714 0.35073 0.74074 0.0
C509 C 0.1791 0.32893 0.74679 0.0
C510 C 0.19639 0.36662 0.75631 0.0
C511 C 0.19008 0.33855 0.78479 0.0
C512 C 0.14805 0.38511 0.6425 0.0
N513 N 0.14009 0.36273 0.64595 0.0
C514 C 0.12746 0.39817 0.6359 0.0
C515 C 0.09854 0.38814 0.63278 0.0
C516 C 0.0906 0.36528 0.63623 0.0
C517 C 0.11179 0.35276 0.64284 0.0
C518 C 0.14612 0.31513 0.59395 0.0
C519 C 0.15316 0.30135 0.6369 0.0
C520 C 0.1543 0.33057 0.6108 0.0
N521 N 0.15761 0.3236 0.63197 0.0
C522 C 0.14498 0.28543 0.62048 0.0
C523 C 0.14143 0.29241 0.59887 0.0
C524 C 0.20756 0.32217 0.68389 0.0
C525 C 0.25798 0.40831 0.69989 0.0
C526 C 0.24576 0.36722 0.72049 0.0
C527 C 0.27431 0.37885 0.72059 0.0
C528 C 0.28041 0.39955 0.71021 0.0
N529 N 0.22377 0.37596 0.71048 0.0
C530 C 0.22969 0.3962 0.70015 0.0
Co531 Co 0.60482 0.13058 0.35264 0.0
Co532 Co 0.67374 0.13088 0.37281 0.0
O533 O 0.63293 0.13497 0.37705 0.0
C534 C 0.59578 0.17442 0.37094 0.0
O535 O 0.62422 0.18023 0.37242 0.0
C536 C 0.65578 0.10907 0.41634 0.0
O537 O 0.62925 0.10268 0.40882 0.0
O538 O 0.66056 0.09993 0.36194 0.0
O539 O 0.62352 0.10572 0.34015 0.0
H540 H 0.75694 0.10676 0.33129 0.0
H541 H 0.58193 0.13059 0.39823 0.0
O542 O 0.58479 0.15506 0.36409 0.0
H543 H 0.54099 0.05677 0.36795 0.0
H544 H 0.50534 0.12495 0.31787 0.0
H545 H 0.60977 0.12345 0.3045 0.0
H546 H 0.57287 0.0843 0.3452 0.0
H547 H 0.54051 0.1296 0.3487 0.0
O548 O 0.67548 0.11964 0.40392 0.0
H549 H 0.70617 0.11276 0.33676 0.0
H550 H 0.72755 0.13942 0.4006 0.0
H551 H 0.5753 0.11853 0.27322 0.0
H552 H 0.54974 0.10368 0.42148 0.0
H553 H 0.52266 0.11927 0.27982 0.0
H554 H 0.52914 0.06642 0.40637 0.0
O555 O 0.63096 0.15289 0.33474 0.0
H556 H 0.67317 0.1955 0.42448 0.0
H557 H 0.71622 0.16989 0.35667 0.0
H558 H 0.73149 0.20859 0.36929 0.0
H559 H 0.70999 0.22161 0.40348 0.0
H560 H 0.65821 0.15701 0.4111 0.0
H561 H 0.7785 0.13355 0.39588 0.0
H562 H 0.79351 0.11719 0.36099 0.0
O563 O 0.6742 0.14251 0.34171 0.0
C564 C 0.6423 0.09386 0.34648 0.0
C565 C 0.75068 0.11396 0.34655 0.0
C566 C 0.76277 0.12897 0.38281 0.0
N567 N 0.71392 0.12654 0.36892 0.0
C568 C 0.72198 0.11744 0.34972 0.0
C569 C 0.73387 0.1322 0.3854 0.0
C570 C 0.77118 0.11979 0.36322 0.0
C571 C 0.57281 0.11449 0.39148 0.0
N572 N 0.57934 0.10902 0.37041 0.0
C573 C 0.5547 0.09929 0.40475 0.0
C574 C 0.5432 0.07837 0.39628 0.0
C575 C 0.54988 0.07294 0.37473 0.0
C576 C 0.56809 0.08856 0.36196 0.0
C577 C 0.52821 0.12456 0.31479 0.0
C578 C 0.58687 0.12367 0.30752 0.0
C579 C 0.54824 0.12723 0.33217 0.0
N580 N 0.57714 0.12665 0.32842 0.0
C581 C 0.56747 0.12093 0.28974 0.0
C582 C 0.53794 0.12137 0.29345 0.0
C583 C 0.65802 0.1536 0.33072 0.0
C584 C 0.68278 0.19 0.40961 0.0
C585 C 0.70664 0.17543 0.3715 0.0
C586 C 0.71545 0.19736 0.37861 0.0
C587 C 0.7034 0.20465 0.39779 0.0
N588 N 0.68641 0.16114 0.38319 0.0
C589 C 0.67449 0.16818 0.40201 0.0
Co590 Co 0.64855 0.65794 0.66623 0.0
Co591 Co 0.69199 0.69355 0.63241 0.0
O592 O 0.67792 0.66305 0.64277 0.0
C593 C 0.69193 0.62977 0.68145 0.0
O594 O 0.71329 0.64603 0.67667 0.0
C595 C 0.68339 0.66739 0.59016 0.0
O596 O 0.65751 0.6576 0.59679 0.0
O597 O 0.65128 0.69698 0.62439 0.0
O598 O 0.62977 0.68368 0.65581 0.0
H599 H 0.68899 0.77553 0.62502 0.0
H600 H 0.65681 0.62057 0.63694 0.0
O601 O 0.66555 0.63181 0.67752 0.0
H602 H 0.55363 0.62898 0.62782 0.0
H603 H 0.57602 0.61115 0.71602 0.0
H604 H 0.62392 0.68744 0.69749 0.0
H605 H 0.58566 0.6534 0.65332 0.0
H606 H 0.61203 0.61763 0.68581 0.0
O607 O 0.69875 0.6819 0.60227 0.0
H608 H 0.67247 0.73726 0.63852 0.0
H609 H 0.74066 0.71427 0.60304 0.0
H610 H 0.58782 0.68174 0.72768 0.0
H611 H 0.62546 0.59563 0.61139 0.0
H612 H 0.5636 0.64336 0.73712 0.0
H613 H 0.57348 0.5998 0.60668 0.0
O614 O 0.67519 0.67807 0.68598 0.0
H615 H 0.77784 0.65292 0.63588 0.0
H616 H 0.74049 0.72129 0.65731 0.0
H617 H 0.79008 0.71645 0.66855 0.0
H618 H 0.80912 0.6821 0.65777 0.0
H619 H 0.72818 0.65828 0.62526 0.0
H620 H 0.75776 0.75226 0.58902 0.0
H621 H 0.73193 0.78323 0.60008 0.0
O622 O 0.68678 0.70648 0.6624 0.0
C623 C 0.62997 0.69492 0.63795 0.0
C624 C 0.70046 0.76218 0.62011 0.0
C625 C 0.73903 0.74912 0.59988 0.0
N626 N 0.70563 0.72354 0.62164 0.0
C627 C 0.69123 0.74047 0.62773 0.0
C628 C 0.72917 0.72762 0.60782 0.0
C629 C 0.72453 0.76649 0.6061 0.0
C630 C 0.63415 0.62235 0.63509 0.0
N631 N 0.62307 0.63835 0.64666 0.0
C632 C 0.61653 0.60824 0.62056 0.0
C633 C 0.58738 0.61061 0.6179 0.0
C634 C 0.57623 0.62699 0.62974 0.0
C635 C 0.59451 0.64081 0.64411 0.0
C636 C 0.58639 0.62795 0.71204 0.0
C637 C 0.61336 0.6707 0.70142 0.0
C638 C 0.60686 0.63172 0.69499 0.0
N639 N 0.61994 0.65291 0.6898 0.0
C640 C 0.59299 0.66757 0.71857 0.0
C641 C 0.57942 0.64603 0.72387 0.0
C642 C 0.68602 0.69828 0.68182 0.0
C643 C 0.76983 0.66799 0.64063 0.0
C644 C 0.74852 0.70623 0.65265 0.0
C645 C 0.77668 0.70362 0.65901 0.0
C646 C 0.78735 0.68435 0.65294 0.0
N647 N 0.73144 0.69008 0.6406 0.0
C648 C 0.74176 0.67116 0.63459 0.0
Co649 Co 0.64898 0.38385 0.8074 0.0
Co650 Co 0.69843 0.35322 0.83031 0.0
O651 O 0.68229 0.38103 0.82682 0.0
C652 C 0.69325 0.42097 0.7894 0.0
O653 O 0.71187 0.40704 0.78699 0.0
C654 C 0.69771 0.37165 0.87714 0.0
O655 O 0.68454 0.38821 0.87113 0.0
O656 O 0.6586 0.33579 0.83578 0.0
O657 O 0.62849 0.35382 0.81642 0.0
H658 H 0.70164 0.27229 0.81568 0.0
H659 H 0.6691 0.42042 0.83896 0.0
O660 O 0.66819 0.41433 0.79783 0.0
H661 H 0.56716 0.39191 0.85987 0.0
H662 H 0.57425 0.42479 0.77306 0.0
H663 H 0.61198 0.35359 0.77655 0.0
H664 H 0.59004 0.37552 0.82851 0.0
H665 H 0.61564 0.42072 0.79738 0.0
O666 O 0.70355 0.35745 0.86307 0.0
H667 H 0.68276 0.30775 0.81179 0.0
H668 H 0.74753 0.3394 0.85607 0.0
H669 H 0.57039 0.35688 0.75214 0.0
H670 H 0.64691 0.43753 0.87024 0.0
H671 H 0.55126 0.39269 0.75028 0.0
H672 H 0.59562 0.4232 0.88093 0.0
O673 O 0.66708 0.37026 0.78193 0.0
H674 H 0.7792 0.41894 0.83868 0.0
H675 H 0.7496 0.34571 0.8033 0.0
H676 H 0.7984 0.36711 0.7957 0.0
H677 H 0.81355 0.40399 0.81352 0.0
H678 H 0.73056 0.39714 0.84559 0.0
H679 H 0.76687 0.30423 0.86063 0.0
H680 H 0.74398 0.27037 0.84026 0.0
O681 O 0.69474 0.34766 0.79795 0.0
C682 C 0.63341 0.3374 0.8281 0.0
C683 C 0.71186 0.28694 0.82459 0.0
C684 C 0.74844 0.30486 0.84984 0.0
N685 N 0.71413 0.32567 0.83355 0.0
C686 C 0.70132 0.30709 0.8224 0.0
C687 C 0.73732 0.32471 0.84725 0.0
C688 C 0.7356 0.28587 0.8384 0.0
C689 C 0.64669 0.41421 0.8434 0.0
N690 N 0.63093 0.39696 0.83195 0.0
C691 C 0.63428 0.42391 0.86118 0.0
C692 C 0.60551 0.41584 0.86719 0.0
C693 C 0.58955 0.39827 0.8554 0.0
C694 C 0.60269 0.38897 0.83772 0.0
C695 C 0.58238 0.4091 0.77374 0.0
C696 C 0.60372 0.3692 0.77589 0.0
C697 C 0.60588 0.40671 0.78743 0.0
N698 N 0.61618 0.38691 0.78844 0.0
C699 C 0.58019 0.37098 0.76201 0.0
C700 C 0.56948 0.39108 0.76097 0.0
C701 C 0.68371 0.35555 0.78103 0.0
C702 C 0.77292 0.40284 0.83091 0.0
C703 C 0.75597 0.36175 0.8111 0.0
C704 C 0.78368 0.37378 0.80676 0.0
C705 C 0.79216 0.39446 0.81676 0.0
N706 N 0.73724 0.36999 0.82511 0.0
C707 C 0.74539 0.39032 0.83487 0.0
Co708 Co 0.36363 0.12287 0.80369 0.0
Co709 Co 0.3177 0.14905 0.83651 0.0
O710 O 0.33283 0.12234 0.82621 0.0
C711 C 0.31705 0.08392 0.7902 0.0
O712 O 0.2985 0.08867 0.80506 0.0
C713 C 0.3275 0.14865 0.88495 0.0
O714 O 0.34462 0.16798 0.88267 0.0
O715 O 0.3583 0.16594 0.84051 0.0
O716 O 0.38632 0.14994 0.81737 0.0
H717 H 0.31366 0.23113 0.83889 0.0
H718 H 0.34437 0.08193 0.83035 0.0
O719 O 0.34238 0.09558 0.78845 0.0
H720 H 0.44996 0.10209 0.84431 0.0
H721 H 0.43216 0.08916 0.75433 0.0
H722 H 0.39889 0.15868 0.77735 0.0
H723 H 0.42491 0.12484 0.81936 0.0
H724 H 0.39373 0.08842 0.78255 0.0
O725 O 0.31717 0.13781 0.86786 0.0
H726 H 0.33178 0.19726 0.82639 0.0
H727 H 0.27102 0.15726 0.86825 0.0
H728 H 0.43756 0.16019 0.74922 0.0
H729 H 0.36859 0.05857 0.85518 0.0
H730 H 0.45445 0.12525 0.73753 0.0
H731 H 0.42179 0.06861 0.86235 0.0
O732 O 0.34379 0.14168 0.78359 0.0
H733 H 0.23747 0.08325 0.8454 0.0
H734 H 0.26335 0.15929 0.81531 0.0
H735 H 0.21351 0.1387 0.80992 0.0
H736 H 0.20025 0.10041 0.82514 0.0
H737 H 0.28726 0.10426 0.8499 0.0
H738 H 0.25237 0.19069 0.88128 0.0
H739 H 0.2737 0.22797 0.86655 0.0
O740 O 0.31684 0.16024 0.80556 0.0
C741 C 0.3828 0.16487 0.83135 0.0
C742 C 0.30419 0.21498 0.84543 0.0
C743 C 0.2698 0.19229 0.86922 0.0
N744 N 0.30253 0.1753 0.84659 0.0
C745 C 0.31435 0.19574 0.8384 0.0
C746 C 0.28049 0.17342 0.86181 0.0
C747 C 0.28178 0.2132 0.86095 0.0
C748 C 0.36754 0.08629 0.83312 0.0
N749 N 0.38321 0.10457 0.82311 0.0
C750 C 0.38114 0.07305 0.84733 0.0
C751 C 0.41098 0.07871 0.85137 0.0
C752 C 0.42679 0.09749 0.84126 0.0
C753 C 0.41245 0.11034 0.82717 0.0
C754 C 0.42501 0.1045 0.75931 0.0
C755 C 0.40621 0.14341 0.77242 0.0
C756 C 0.4032 0.10418 0.77523 0.0
N757 N 0.39416 0.12351 0.78168 0.0
C758 C 0.42807 0.14437 0.75646 0.0
C759 C 0.43752 0.12475 0.74989 0.0
C760 C 0.32669 0.15581 0.7867 0.0
C761 C 0.243 0.0999 0.83864 0.0
C762 C 0.25793 0.14247 0.82154 0.0
C763 C 0.22958 0.13097 0.81865 0.0
C764 C 0.22214 0.10952 0.82724 0.0
N765 N 0.27834 0.13288 0.83261 0.0
C766 C 0.27113 0.11191 0.8412 0.0
Co767 Co 0.39343 0.38007 0.35407 0.0
Co768 Co 0.32348 0.37836 0.37261 0.0
O769 O 0.36442 0.3752 0.37784 0.0
C770 C 0.40323 0.33658 0.37268 0.0
O771 O 0.37482 0.33027 0.37345 0.0
C772 C 0.33896 0.40072 0.41626 0.0
O773 O 0.36553 0.4079 0.40916 0.0
O774 O 0.33598 0.40943 0.36173 0.0
O775 O 0.37426 0.40439 0.34091 0.0
H776 H 0.24068 0.40042 0.32895 0.0
H777 H 0.41458 0.38068 0.40017 0.0
O778 O 0.41395 0.35614 0.36619 0.0
H779 H 0.45423 0.45491 0.37014 0.0
H780 H 0.49444 0.38766 0.32157 0.0
H781 H 0.39009 0.38689 0.30577 0.0
H782 H 0.42414 0.42677 0.34691 0.0
H783 H 0.4581 0.38241 0.35161 0.0
O784 O 0.32011 0.38958 0.40356 0.0
H785 H 0.29166 0.39559 0.33565 0.0
H786 H 0.26869 0.36875 0.39922 0.0
H787 H 0.42573 0.39239 0.27525 0.0
H788 H 0.44497 0.40822 0.42391 0.0
H789 H 0.47833 0.3928 0.28307 0.0
H790 H 0.46492 0.44568 0.40892 0.0
O791 O 0.3687 0.35726 0.33581 0.0
H792 H 0.32455 0.31424 0.42487 0.0
H793 H 0.28287 0.33857 0.3559 0.0
H794 H 0.26857 0.29976 0.36853 0.0
H795 H 0.28938 0.28737 0.40329 0.0
H796 H 0.33859 0.35282 0.41148 0.0
H797 H 0.2175 0.37344 0.39326 0.0
H798 H 0.20319 0.3893 0.35788 0.0
O799 O 0.32463 0.36665 0.34162 0.0
C800 C 0.35475 0.41582 0.34667 0.0
C801 C 0.24663 0.39343 0.34441 0.0
C802 C 0.23363 0.37832 0.38051 0.0
N803 N 0.28313 0.38178 0.36775 0.0
C804 C 0.27545 0.39062 0.34829 0.0
C805 C 0.26267 0.37576 0.38381 0.0
C806 C 0.22561 0.38721 0.36066 0.0
C807 C 0.42342 0.39688 0.39348 0.0
N808 N 0.41753 0.40212 0.3722 0.0
C809 C 0.44051 0.41243 0.40702 0.0
C810 C 0.45165 0.43346 0.39862 0.0
C811 C 0.44562 0.43866 0.37687 0.0
C812 C 0.42843 0.42269 0.36382 0.0
C813 C 0.47159 0.38755 0.31796 0.0
C814 C 0.41296 0.38716 0.30931 0.0
C815 C 0.4509 0.38454 0.33489 0.0
N816 N 0.42202 0.38449 0.33046 0.0
C817 C 0.43303 0.39024 0.29196 0.0
C818 C 0.46254 0.39044 0.29636 0.0
C819 C 0.3417 0.35584 0.33121 0.0
C820 C 0.31525 0.31945 0.40974 0.0
C821 C 0.29215 0.33331 0.37099 0.0
C822 C 0.28389 0.31131 0.3781 0.0
C823 C 0.29556 0.30438 0.39761 0.0
N824 N 0.31148 0.34801 0.38299 0.0
C825 C 0.32301 0.34132 0.40213 0.0
Co826 Co 0.33373 0.66355 0.15589 0.0
Co827 Co 0.31599 0.65627 0.21055 0.0
O828 O 0.31751 0.64457 0.18047 0.0
C829 C 0.27692 0.64357 0.13489 0.0
O830 O 0.26269 0.65052 0.15155 0.0
C831 C 0.34259 0.61538 0.21846 0.0
O832 O 0.36213 0.6222 0.20319 0.0
O833 O 0.35889 0.66771 0.21019 0.0
O834 O 0.36366 0.681 0.17565 0.0
H835 H 0.33846 0.71363 0.27053 0.0
H836 H 0.32687 0.61446 0.15166 0.0
O837 O 0.30474 0.64659 0.13494 0.0
H838 H 0.43203 0.64159 0.14125 0.0
H839 H 0.36734 0.67907 0.07752 0.0
H840 H 0.35348 0.71216 0.15029 0.0
H841 H 0.39794 0.66805 0.14778 0.0
H842 H 0.34772 0.65527 0.10881 0.0
O843 O 0.32285 0.62695 0.22301 0.0
H844 H 0.33977 0.69895 0.23268 0.0
H845 H 0.28928 0.63751 0.25275 0.0
H846 H 0.37344 0.73655 0.1195 0.0
H847 H 0.36016 0.5874 0.14498 0.0
H848 H 0.38047 0.72003 0.08279 0.0
H849 H 0.41316 0.60094 0.13977 0.0
O850 O 0.30639 0.68493 0.16222 0.0
H851 H 0.22584 0.59973 0.1975 0.0
H852 H 0.26348 0.67614 0.22285 0.0
H853 H 0.21035 0.66299 0.22214 0.0
H854 H 0.19121 0.62451 0.20944 0.0
H855 H 0.27883 0.61363 0.19829 0.0
H856 H 0.28762 0.65147 0.29087 0.0
H857 H 0.31224 0.68982 0.29995 0.0
O858 O 0.30854 0.68579 0.19923 0.0
C859 C 0.37314 0.67983 0.19532 0.0
C860 C 0.32758 0.69691 0.26677 0.0
C861 C 0.29908 0.66201 0.2782 0.0
N862 N 0.31445 0.66745 0.24046 0.0
C863 C 0.32818 0.68853 0.24535 0.0
C864 C 0.30016 0.65418 0.25659 0.0
C865 C 0.31289 0.68354 0.28327 0.0
C866 C 0.34988 0.62047 0.14925 0.0
N867 N 0.36043 0.6428 0.15004 0.0
C868 C 0.36863 0.60507 0.14554 0.0
C869 C 0.39838 0.61268 0.14265 0.0
C870 C 0.40898 0.63549 0.14349 0.0
C871 C 0.38958 0.65039 0.14726 0.0
C872 C 0.36439 0.68648 0.09344 0.0
C873 C 0.35659 0.70482 0.13439 0.0
C874 C 0.3532 0.67309 0.1112 0.0
N875 N 0.34956 0.6823 0.13139 0.0
C876 C 0.36785 0.71873 0.11701 0.0
C877 C 0.37177 0.70945 0.09641 0.0
C878 C 0.30203 0.69379 0.18076 0.0
C879 C 0.23392 0.61651 0.20313 0.0
C880 C 0.25533 0.65939 0.21725 0.0
C881 C 0.22522 0.65203 0.21692 0.0
C882 C 0.2145 0.63043 0.20981 0.0
N883 N 0.27425 0.64561 0.21073 0.0
C884 C 0.2639 0.62444 0.20368 0.0
Co885 Co 0.67864 0.84754 0.15824 0.0
Co886 Co 0.69758 0.85743 0.21287 0.0
O887 O 0.69406 0.86751 0.18237 0.0
C888 C 0.73569 0.86751 0.13754 0.0
O889 O 0.7498 0.86123 0.15461 0.0
C890 C 0.66457 0.89543 0.21973 0.0
O891 O 0.6457 0.88726 0.20448 0.0
O892 O 0.65583 0.84215 0.21322 0.0
O893 O 0.64862 0.83077 0.17812 0.0
H894 H 0.68498 0.80129 0.27449 0.0
H895 H 0.68529 0.89652 0.15277 0.0
O896 O 0.70789 0.86398 0.13718 0.0
H897 H 0.58061 0.86872 0.14082 0.0
H898 H 0.64693 0.82927 0.07991 0.0
H899 H 0.65904 0.79877 0.15417 0.0
H900 H 0.61473 0.84261 0.14867 0.0
H901 H 0.66577 0.85417 0.1106 0.0
O902 O 0.68592 0.88556 0.22448 0.0
H903 H 0.68115 0.81433 0.2362 0.0
H904 H 0.72149 0.87958 0.25456 0.0
H905 H 0.63988 0.7733 0.12399 0.0
H906 H 0.65201 0.92326 0.14474 0.0
H907 H 0.63372 0.78853 0.08653 0.0
H908 H 0.59923 0.90939 0.13877 0.0
O909 O 0.70591 0.82627 0.16557 0.0
H910 H 0.77884 0.92064 0.19641 0.0
H911 H 0.75434 0.84482 0.22721 0.0
H912 H 0.80581 0.86298 0.22572 0.0
H913 H 0.81834 0.90122 0.21026 0.0
H914 H 0.72767 0.9017 0.19799 0.0
H915 H 0.72549 0.86731 0.29308 0.0
H916 H 0.70728 0.82788 0.30324 0.0
O917 O 0.71023 0.8294 0.20241 0.0
C918 C 0.64065 0.83081 0.19826 0.0
C919 C 0.69306 0.8185 0.27026 0.0
C920 C 0.71575 0.85556 0.2807 0.0
N921 N 0.70119 0.84767 0.24312 0.0
C922 C 0.69101 0.82597 0.24859 0.0
C923 C 0.71332 0.86244 0.25887 0.0
C924 C 0.70554 0.83343 0.28639 0.0
C925 C 0.66238 0.89036 0.15007 0.0
N926 N 0.65196 0.86802 0.15123 0.0
C927 C 0.64363 0.90558 0.14558 0.0
C928 C 0.61402 0.89779 0.14225 0.0
C929 C 0.60355 0.87498 0.14343 0.0
C930 C 0.62295 0.86026 0.14798 0.0
C931 C 0.64949 0.82244 0.09616 0.0
C932 C 0.6563 0.80554 0.13794 0.0
C933 C 0.66024 0.83645 0.11359 0.0
N934 N 0.66339 0.82795 0.13419 0.0
C935 C 0.64549 0.79103 0.12091 0.0
C936 C 0.64207 0.79958 0.09989 0.0
C937 C 0.71442 0.81987 0.18421 0.0
C938 C 0.77367 0.90397 0.20315 0.0
C939 C 0.75963 0.86131 0.22023 0.0
C940 C 0.78881 0.87159 0.21955 0.0
C941 C 0.79582 0.89306 0.21091 0.0
N942 N 0.73802 0.87208 0.21255 0.0
C943 C 0.74473 0.89316 0.20412 0.0
C944 C 0.20469 0.23433 0.19259 0.0
C945 C 0.20426 0.21137 0.19558 0.0
C946 C 0.21991 0.24978 0.20723 0.0
C947 C 0.25707 0.25455 0.26243 0.0
H948 H 0.29093 0.31269 0.23954 0.0
C949 C 0.33985 0.32036 0.30987 0.0
C950 C 0.32895 0.34029 0.31371 0.0
C951 C 0.32573 0.30448 0.29505 0.0
C952 C 0.28158 0.2965 0.24609 0.0
H953 H 0.21953 0.18653 0.21617 0.0
H954 H 0.24732 0.21343 0.24117 0.0
H955 H 0.26442 0.28494 0.21475 0.0
H956 H 0.29535 0.35953 0.30461 0.0
H957 H 0.27148 0.33213 0.27797 0.0
H958 H 0.27557 0.26618 0.29364 0.0
C959 C 0.23507 0.21964 0.22802 0.0
C960 C 0.26608 0.2806 0.23198 0.0
C961 C 0.21922 0.20414 0.21362 0.0
C962 C 0.30427 0.34435 0.30192 0.0
C963 C 0.29063 0.32873 0.28671 0.0
C964 C 0.27319 0.27031 0.2764 0.0
C965 C 0.2358 0.24274 0.22497 0.0
C966 C 0.25321 0.25945 0.23997 0.0
C967 C 0.30095 0.30852 0.28344 0.0
C968 C 0.28529 0.29147 0.26839 0.0
H969 H 0.19314 0.24039 0.1789 0.0
H970 H 0.21907 0.26728 0.20457 0.0
H971 H 0.24719 0.23872 0.26942 0.0
H972 H 0.35863 0.31669 0.31891 0.0
H973 H 0.33405 0.289 0.29273 0.0
C974 C 0.80318 0.26739 0.19049 0.0
C975 C 0.80527 0.29056 0.19298 0.0
C976 C 0.78693 0.25279 0.20539 0.0
C977 C 0.74952 0.25074 0.26043 0.0
H978 H 0.71172 0.19321 0.23859 0.0
C979 C 0.66229 0.18877 0.30852 0.0
C980 C 0.67189 0.16846 0.31305 0.0
C981 C 0.67747 0.2039 0.29347 0.0
C982 C 0.72216 0.20925 0.24484 0.0
H983 H 0.7919 0.31668 0.2129 0.0
H984 H 0.76234 0.2913 0.23834 0.0
H985 H 0.74018 0.2195 0.21337 0.0
H986 H 0.70425 0.14775 0.30494 0.0
H987 H 0.72996 0.17385 0.2779 0.0
H988 H 0.73017 0.24047 0.29177 0.0
C989 C 0.77406 0.28424 0.22541 0.0
C990 C 0.73878 0.22429 0.23049 0.0
C991 C 0.79094 0.29887 0.21077 0.0
C992 C 0.69634 0.16326 0.30173 0.0
C993 C 0.71103 0.17813 0.28629 0.0
C994 C 0.7323 0.23586 0.27464 0.0
C995 C 0.77164 0.26094 0.22287 0.0
C996 C 0.75308 0.24518 0.23812 0.0
C997 C 0.702 0.19871 0.28232 0.0
C998 C 0.71876 0.21493 0.26699 0.0
H999 H 0.8142 0.26051 0.17701 0.0
H1000 H 0.78647 0.23507 0.20314 0.0
H1001 H 0.76047 0.2664 0.26715 0.0
H1002 H 0.64371 0.1933 0.3172 0.0
H1003 H 0.67016 0.2197 0.2906 0.0
C1004 C 0.29665 0.72958 0.19888 0.0
C1005 C 0.28908 0.71444 0.1815 0.0
C1006 C 0.28246 0.7479 0.20156 0.0
C1007 C 0.25634 0.79025 0.19965 0.0
H1008 H 0.1723 0.77413 0.20462 0.0
C1009 C 0.18941 0.84764 0.24513 0.0
C1010 C 0.17343 0.83611 0.26245 0.0
C1011 C 0.19985 0.83581 0.2278 0.0
C1012 C 0.19571 0.77902 0.203 0.0
H1013 H 0.26135 0.707 0.15282 0.0
H1014 H 0.2358 0.73909 0.15783 0.0
H1015 H 0.20062 0.74806 0.18769 0.0
H1016 H 0.15377 0.80351 0.27443 0.0
H1017 H 0.17138 0.783 0.24425 0.0
H1018 H 0.25176 0.82051 0.21631 0.0
C1019 C 0.25301 0.73674 0.16923 0.0
C1020 C 0.21191 0.76416 0.19314 0.0
C1021 C 0.26767 0.71848 0.16631 0.0
C1022 C 0.16601 0.8128 0.26124 0.0
C1023 C 0.17601 0.80106 0.24385 0.0
C1024 C 0.24016 0.80514 0.20939 0.0
C1025 C 0.26004 0.75147 0.18709 0.0
C1026 C 0.24252 0.76921 0.19229 0.0
C1027 C 0.19403 0.81232 0.22738 0.0
C1028 C 0.2098 0.79926 0.21208 0.0
H1029 H 0.31318 0.72698 0.21079 0.0
H1030 H 0.28814 0.7587 0.21566 0.0
H1031 H 0.2799 0.79469 0.19899 0.0
H1032 H 0.19565 0.86561 0.24582 0.0
H1033 H 0.21357 0.84495 0.21528 0.0
C1034 C 0.78296 0.66296 0.25877 0.0
C1035 C 0.81179 0.65918 0.26127 0.0
C1036 C 0.77548 0.67628 0.24163 0.0
C1037 C 0.8085 0.72502 0.21136 0.0
H1038 H 0.73136 0.71933 0.18515 0.0
C1039 C 0.74511 0.79662 0.20476 0.0
C1040 C 0.73004 0.80042 0.18534 0.0
C1041 C 0.7591 0.77816 0.20675 0.0
C1042 C 0.75324 0.72103 0.19187 0.0
H1043 H 0.8551 0.66511 0.24695 0.0
H1044 H 0.84214 0.6889 0.21698 0.0
H1045 H 0.74794 0.68651 0.20104 0.0
H1046 H 0.71776 0.78737 0.15273 0.0
H1047 H 0.74157 0.7542 0.15668 0.0
H1048 H 0.81299 0.7598 0.20355 0.0
C1049 C 0.8253 0.68144 0.22833 0.0
C1050 C 0.76265 0.7023 0.20112 0.0
C1051 C 0.83269 0.66777 0.24539 0.0
C1052 C 0.72937 0.78507 0.16785 0.0
C1053 C 0.74294 0.76612 0.17008 0.0
C1054 C 0.799 0.74373 0.20229 0.0
C1055 C 0.79677 0.68637 0.22668 0.0
C1056 C 0.78987 0.70432 0.21185 0.0
C1057 C 0.758 0.7626 0.18958 0.0
C1058 C 0.77079 0.7421 0.19336 0.0
H1059 H 0.76632 0.65629 0.27056 0.0
H1060 H 0.75339 0.67985 0.24103 0.0
H1061 H 0.82948 0.72723 0.21959 0.0
H1062 H 0.74582 0.80772 0.21875 0.0
H1063 H 0.76997 0.77564 0.22216 0.0
C1064 C 0.28939 0.79953 0.70982 0.0
C1065 C 0.30351 0.79128 0.69187 0.0
C1066 C 0.2723 0.78488 0.72431 0.0
C1067 C 0.23632 0.72502 0.72913 0.0
H1068 H 0.2293 0.74074 0.79071 0.0
C1069 C 0.19664 0.66358 0.80066 0.0
C1070 C 0.17284 0.66871 0.81284 0.0
C1071 C 0.21036 0.67848 0.78484 0.0
C1072 C 0.23094 0.73627 0.77349 0.0
H1073 H 0.31166 0.76126 0.67542 0.0
H1074 H 0.28352 0.73574 0.70128 0.0
H1075 H 0.25911 0.76678 0.76593 0.0
H1076 H 0.1447 0.69338 0.81805 0.0
H1077 H 0.16949 0.71986 0.79077 0.0
H1078 H 0.20936 0.69391 0.73731 0.0
C1079 C 0.28436 0.75347 0.70378 0.0
C1080 C 0.24789 0.75122 0.7592 0.0
C1081 C 0.30084 0.76811 0.68903 0.0
C1082 C 0.16278 0.68891 0.80871 0.0
C1083 C 0.17702 0.70409 0.79327 0.0
C1084 C 0.21997 0.7099 0.74356 0.0
C1085 C 0.26943 0.76158 0.72149 0.0
C1086 C 0.25094 0.74581 0.73677 0.0
C1087 C 0.20102 0.69902 0.78132 0.0
C1088 C 0.21716 0.71541 0.76584 0.0
H1089 H 0.29078 0.81734 0.71224 0.0
H1090 H 0.26084 0.79192 0.73741 0.0
H1091 H 0.23734 0.72035 0.71195 0.0
H1092 H 0.20489 0.64815 0.80356 0.0
H1093 H 0.22891 0.67429 0.77586 0.0
C1094 C 0.69709 0.73596 0.69892 0.0
C1095 C 0.6988 0.71314 0.69979 0.0
C1096 C 0.71227 0.75078 0.71411 0.0
C1097 C 0.75503 0.75379 0.76685 0.0
H1098 H 0.78468 0.81327 0.74516 0.0
C1099 C 0.83979 0.81911 0.8132 0.0
C1100 C 0.82958 0.83924 0.81744 0.0
C1101 C 0.82456 0.80333 0.79878 0.0
C1102 C 0.7765 0.79672 0.7514 0.0
H1103 H 0.71741 0.68779 0.7173 0.0
H1104 H 0.74505 0.71373 0.74336 0.0
H1105 H 0.7564 0.7862 0.7207 0.0
H1106 H 0.79598 0.85891 0.80948 0.0
H1107 H 0.77013 0.8317 0.78361 0.0
H1108 H 0.77641 0.76443 0.79738 0.0
C1109 C 0.73124 0.72022 0.73144 0.0
C1110 C 0.75999 0.78119 0.73749 0.0
C1111 C 0.71542 0.70529 0.7165 0.0
C1112 C 0.8044 0.84356 0.80649 0.0
C1113 C 0.78962 0.82804 0.79171 0.0
C1114 C 0.77211 0.76923 0.78062 0.0
C1115 C 0.73029 0.74327 0.73022 0.0
C1116 C 0.74861 0.75957 0.74507 0.0
C1117 C 0.79931 0.80766 0.78797 0.0
C1118 C 0.78269 0.79088 0.77307 0.0
H1119 H 0.68426 0.74243 0.68625 0.0
H1120 H 0.71009 0.76821 0.71299 0.0
H1121 H 0.74643 0.73749 0.77348 0.0
H1122 H 0.85895 0.81524 0.82159 0.0
H1123 H 0.83247 0.78774 0.79607 0.0
C1124 C 0.7198 0.34442 0.75486 0.0
C1125 C 0.69077 0.3465 0.75949 0.0
C1126 C 0.72644 0.3314 0.73721 0.0
C1127 C 0.69305 0.28081 0.70973 0.0
H1128 H 0.76819 0.28777 0.68024 0.0
C1129 C 0.75954 0.21135 0.70298 0.0
C1130 C 0.77301 0.20684 0.68305 0.0
C1131 C 0.74509 0.22956 0.70491 0.0
C1132 C 0.74682 0.2857 0.68787 0.0
H1133 H 0.64603 0.3381 0.74841 0.0
H1134 H 0.65754 0.31504 0.71737 0.0
H1135 H 0.751 0.32045 0.69588 0.0
H1136 H 0.78218 0.2185 0.64952 0.0
H1137 H 0.75755 0.2513 0.6533 0.0
H1138 H 0.68975 0.2459 0.703 0.0
C1139 C 0.67521 0.32348 0.72747 0.0
C1140 C 0.73706 0.30435 0.697 0.0
C1141 C 0.66861 0.33677 0.74511 0.0
C1142 C 0.7718 0.22135 0.66504 0.0
C1143 C 0.75776 0.24008 0.66717 0.0
C1144 C 0.70286 0.26222 0.70073 0.0
C1145 C 0.70411 0.31997 0.72385 0.0
C1146 C 0.71071 0.30193 0.70897 0.0
C1147 C 0.74411 0.24419 0.68714 0.0
C1148 C 0.73044 0.26432 0.69067 0.0
H1149 H 0.7373 0.35201 0.76555 0.0
H1150 H 0.74887 0.32899 0.73511 0.0
H1151 H 0.67276 0.27824 0.71891 0.0
H1152 H 0.76035 0.20097 0.71739 0.0
H1153 H 0.73539 0.2326 0.72066 0.0
C1154 C 0.22644 0.28791 0.6702 0.0
C1155 C 0.22544 0.3042 0.68658 0.0
C1156 C 0.24175 0.27014 0.67394 0.0
C1157 C 0.299 0.25242 0.70888 0.0
H1158 H 0.25212 0.19346 0.70831 0.0
C1159 C 0.33795 0.17754 0.75164 0.0
C1160 C 0.31762 0.16806 0.76755 0.0
C1161 C 0.32973 0.19162 0.73526 0.0
C1162 C 0.26566 0.20976 0.70822 0.0
H1163 H 0.2404 0.31467 0.71948 0.0
H1164 H 0.26748 0.28448 0.72557 0.0
H1165 H 0.23337 0.22467 0.691 0.0
H1166 H 0.27241 0.16432 0.77777 0.0
H1167 H 0.25801 0.18854 0.7493 0.0
H1168 H 0.33055 0.23787 0.72721 0.0
C1169 C 0.25652 0.28535 0.70987 0.0
C1170 C 0.25503 0.22757 0.69819 0.0
C1171 C 0.24082 0.30268 0.70637 0.0
C1172 C 0.28863 0.17172 0.76598 0.0
C1173 C 0.2803 0.18537 0.74946 0.0
C1174 C 0.30977 0.2346 0.7187 0.0
C1175 C 0.25689 0.26874 0.69388 0.0
C1176 C 0.27105 0.24924 0.69929 0.0
C1177 C 0.30089 0.19595 0.73426 0.0
C1178 C 0.29265 0.21329 0.71932 0.0
H1179 H 0.2147 0.28849 0.65482 0.0
H1180 H 0.24157 0.25742 0.6614 0.0
H1181 H 0.31184 0.26897 0.70986 0.0
H1182 H 0.36046 0.17496 0.75252 0.0
H1183 H 0.34603 0.19954 0.72373 0.0
C1184 C 0.18336 0.95583 0.2861 0.0
C1185 C 0.20048 0.93964 0.28031 0.0
C1186 C 0.18847 0.97704 0.2766 0.0
C1187 C 0.22124 0.00741 0.22732 0.0
H1188 H 0.20388 0.05838 0.26021 0.0
C1189 C 0.22491 0.0971 0.19008 0.0
C1190 C 0.19884 0.10558 0.19359 0.0
C1191 C 0.22994 0.0777 0.20108 0.0
C1192 C 0.20891 0.04432 0.25083 0.0
H1193 H 0.23717 0.93348 0.26043 0.0
H1194 H 0.24649 0.97084 0.24408 0.0
H1195 H 0.20517 0.02326 0.27929 0.0
H1196 H 0.15797 0.10058 0.21173 0.0
H1197 H 0.16701 0.06732 0.23105 0.0
H1198 H 0.22482 0.02876 0.19881 0.0
C1199 C 0.22873 0.9669 0.25575 0.0
C1200 C 0.2095 0.02412 0.26172 0.0
C1201 C 0.22354 0.94552 0.26527 0.0
C1202 C 0.17821 0.09448 0.20852 0.0
C1203 C 0.18346 0.07548 0.21974 0.0
C1204 C 0.22099 0.02778 0.21645 0.0
C1205 C 0.211 0.98287 0.26111 0.0
C1206 C 0.21472 0.00515 0.25002 0.0
C1207 C 0.2093 0.06681 0.21614 0.0
C1208 C 0.21395 0.04624 0.22799 0.0
H1209 H 0.16539 0.95198 0.29761 0.0
H1210 H 0.17397 0.98862 0.28092 0.0
H1211 H 0.22515 0.99318 0.21769 0.0
H1212 H 0.24117 0.10524 0.17864 0.0
H1213 H 0.25005 0.07136 0.19801 0.0
C1214 C 0.83736 0.40815 0.20187 0.0
C1215 C 0.81503 0.39518 0.18964 0.0
C1216 C 0.83217 0.42704 0.21328 0.0
C1217 C 0.78777 0.47099 0.21478 0.0
H1218 H 0.81647 0.47848 0.27489 0.0
C1219 C 0.78441 0.55213 0.26557 0.0
C1220 C 0.81027 0.56014 0.27715 0.0
C1221 C 0.78013 0.53074 0.25611 0.0
C1222 C 0.80844 0.47674 0.25808 0.0
H1223 H 0.76976 0.39222 0.17953 0.0
H1224 H 0.76086 0.42582 0.19928 0.0
H1225 H 0.8182 0.44361 0.25551 0.0
H1226 H 0.85157 0.55166 0.28824 0.0
H1227 H 0.84434 0.51495 0.2717 0.0
H1228 H 0.77921 0.50455 0.21704 0.0
C1229 C 0.78231 0.42105 0.20007 0.0
C1230 C 0.80934 0.45672 0.24703 0.0
C1231 C 0.78739 0.40182 0.18885 0.0
C1232 C 0.83137 0.54612 0.27945 0.0
C1233 C 0.8271 0.52489 0.27008 0.0
C1234 C 0.7871 0.4912 0.22582 0.0
C1235 C 0.80461 0.43368 0.21261 0.0
C1236 C 0.79975 0.45382 0.22507 0.0
C1237 C 0.80154 0.5169 0.25817 0.0
C1238 C 0.79822 0.49453 0.24741 0.0
H1239 H 0.8589 0.40358 0.20293 0.0
H1240 H 0.84989 0.4366 0.22255 0.0
H1241 H 0.78031 0.46921 0.19783 0.0
H1242 H 0.76772 0.56249 0.26349 0.0
H1243 H 0.7601 0.52505 0.24717 0.0
C1244 C 0.28679 0.12875 0.90833 0.0
C1245 C 0.3143 0.14242 0.90686 0.0
C1246 C 0.27164 0.12631 0.92839 0.0
C1247 C 0.27817 0.13145 0.98853 0.0
H1248 H 0.20153 0.14904 0.98637 0.0
C1249 C 0.20064 0.12789 0.06446 0.0
C1250 C 0.19239 0.14859 0.06944 0.0
C1251 C 0.21401 0.12459 0.04425 0.0
C1252 C 0.22279 0.14393 0.98718 0.0
H1253 H 0.34819 0.16306 0.92564 0.0
H1254 H 0.32206 0.15812 0.96086 0.0
H1255 H 0.22908 0.14688 0.95216 0.0
H1256 H 0.19063 0.18173 0.05682 0.0
H1257 H 0.21293 0.17565 0.02123 0.0
H1258 H 0.27183 0.12856 0.0236 0.0
C1259 C 0.31214 0.14958 0.94638 0.0
C1260 C 0.23848 0.14259 0.96763 0.0
C1261 C 0.32707 0.15241 0.92622 0.0
C1262 C 0.19665 0.16558 0.05343 0.0
C1263 C 0.20939 0.1621 0.03307 0.0
C1264 C 0.26219 0.13233 0.00805 0.0
C1265 C 0.28391 0.13706 0.94751 0.0
C1266 C 0.2665 0.13665 0.96814 0.0
C1267 C 0.21874 0.14175 0.02845 0.0
C1268 C 0.23454 0.13892 0.00759 0.0
H1269 H 0.27619 0.1209 0.89375 0.0
H1270 H 0.24998 0.11644 0.92885 0.0
H1271 H 0.2997 0.12682 0.98937 0.0
H1272 H 0.19792 0.11455 0.07654 0.0
H1273 H 0.22094 0.10872 0.04105 0.0
C1274 C 0.82025 0.37268 0.05869 0.0
C1275 C 0.82201 0.35076 0.06536 0.0
C1276 C 0.8082 0.37675 0.03815 0.0
C1277 C 0.79136 0.3521 0.98311 0.0
H1278 H 0.73025 0.38859 0.981 0.0
C1279 C 0.71741 0.35034 0.90728 0.0
C1280 C 0.70918 0.37034 0.89989 0.0
C1281 C 0.73122 0.34929 0.92762 0.0
C1282 C 0.74756 0.37862 0.98119 0.0
H1283 H 0.81336 0.31602 0.05536 0.0
H1284 H 0.79296 0.32317 0.01952 0.0
H1285 H 0.75618 0.38496 0.01563 0.0
H1286 H 0.70829 0.40484 0.90845 0.0
H1287 H 0.73298 0.40316 0.94399 0.0
H1288 H 0.78316 0.34583 0.94881 0.0
C1289 C 0.80075 0.33721 0.03016 0.0
C1290 C 0.7624 0.37654 1.00105 0.0
C1291 C 0.81238 0.33311 0.05075 0.0
C1292 C 0.71423 0.38915 0.91372 0.0
C1293 C 0.72839 0.38816 0.9341 0.0
C1294 C 0.77676 0.35433 0.96327 0.0
C1295 C 0.79812 0.35902 0.02374 0.0
C1296 C 0.78412 0.36293 1.0023 0.0
C1297 C 0.73757 0.3683 0.94112 0.0
C1298 C 0.75424 0.36725 0.9621 0.0
H1299 H 0.8273 0.38663 0.06962 0.0
H1300 H 0.80664 0.39375 0.03358 0.0
H1301 H 0.80831 0.3418 0.98345 0.0
H1302 H 0.71355 0.33544 0.89716 0.0
H1303 H 0.73711 0.33352 0.93268 0.0
C1304 C 0.31741 0.8363 0.54957 0.0
C1305 C 0.32225 0.85338 0.56543 0.0
C1306 C 0.30615 0.84021 0.52879 0.0
C1307 C 0.25852 0.87295 0.50109 0.0
H1308 H 0.29339 0.855 0.44729 0.0
C1309 C 0.20641 0.88199 0.41467 0.0
C1310 C 0.20886 0.86524 0.39912 0.0
C1311 C 0.2217 0.88283 0.43475 0.0
C1312 C 0.28304 0.85983 0.46213 0.0
H1313 H 0.31922 0.88803 0.57185 0.0
H1314 H 0.29881 0.89469 0.53556 0.0
H1315 H 0.3178 0.85206 0.48249 0.0
H1316 H 0.22849 0.83583 0.3928 0.0
H1317 H 0.25388 0.8367 0.42772 0.0
H1318 H 0.22301 0.87969 0.48103 0.0
C1319 C 0.30411 0.87837 0.53924 0.0
C1320 C 0.29724 0.85829 0.48229 0.0
C1321 C 0.316 0.87459 0.55991 0.0
C1322 C 0.22643 0.84918 0.40424 0.0
C1323 C 0.24126 0.8498 0.42431 0.0
C1324 C 0.24399 0.87412 0.48094 0.0
C1325 C 0.2989 0.86115 0.52354 0.0
C1326 C 0.28498 0.86458 0.502 0.0
C1327 C 0.23947 0.86676 0.43982 0.0
C1328 C 0.25582 0.86723 0.46117 0.0
H1329 H 0.32191 0.81976 0.55336 0.0
H1330 H 0.30218 0.8266 0.51705 0.0
H1331 H 0.24848 0.87775 0.5161 0.0
H1332 H 0.19311 0.89465 0.41118 0.0
H1333 H 0.21991 0.89627 0.44612 0.0
C1334 C 0.72409 0.67189 0.56268 0.0
C1335 C 0.6959 0.66147 0.5688 0.0
C1336 C 0.73663 0.66653 0.5429 0.0
C1337 C 0.71917 0.64303 0.48757 0.0
H1338 H 0.80252 0.6421 0.48622 0.0
C1339 C 0.78068 0.63059 0.40627 0.0
C1340 C 0.80572 0.64668 0.40273 0.0
C1341 C 0.76731 0.62828 0.42708 0.0
C1342 C 0.77923 0.64231 0.48631 0.0
H1343 H 0.6588 0.6371 0.5587 0.0
H1344 H 0.68089 0.62764 0.52388 0.0
H1345 H 0.77828 0.64558 0.52144 0.0
H1346 H 0.83711 0.67215 0.41852 0.0
H1347 H 0.81412 0.66792 0.45475 0.0
H1348 H 0.72036 0.64013 0.45231 0.0
C1349 C 0.69314 0.64011 0.53452 0.0
C1350 C 0.76532 0.64436 0.50649 0.0
C1351 C 0.68052 0.64548 0.55448 0.0
C1352 C 0.81789 0.65958 0.42069 0.0
C1353 C 0.80474 0.6571 0.4415 0.0
C1354 C 0.73311 0.64088 0.46734 0.0
C1355 C 0.72146 0.65052 0.52856 0.0
C1356 C 0.73527 0.64538 0.50735 0.0
C1357 C 0.77892 0.64179 0.44484 0.0
C1358 C 0.76345 0.64107 0.46644 0.0
H1359 H 0.73669 0.68432 0.57318 0.0
H1360 H 0.75817 0.67527 0.53869 0.0
H1361 H 0.69606 0.6439 0.48758 0.0
H1362 H 0.77062 0.62046 0.39275 0.0
H1363 H 0.74759 0.6162 0.42918 0.0
C1364 C 0.92185 0.28931 0.15314 0.0
C1365 C 0.90684 0.29519 0.13443 0.0
C1366 C 0.94444 0.27686 0.15107 0.0
C1367 C 1.0014 0.26372 0.11485 0.0
H1368 H 0.99936 0.21205 0.15273 0.0
C1369 C 0.09492 0.20985 0.1162 0.0
C1370 C 0.10181 0.20163 0.13693 0.0
C1371 C 0.07031 0.22035 0.11362 0.0
C1372 C 1.00057 0.22658 0.14221 0.0
H1373 H 0.90424 0.29279 0.09875 0.0
H1374 H 0.94458 0.27134 0.09512 0.0
H1375 H 0.95819 0.23219 0.15239 0.0
H1376 H 0.08845 0.19867 0.17132 0.0
H1377 H 0.04669 0.21734 0.16701 0.0
H1378 H 0.04438 0.25872 0.10537 0.0
C1379 C 0.93841 0.2763 0.11139 0.0
C1380 C 0.9768 0.23801 0.14191 0.0
C1381 C 0.91528 0.28846 0.11349 0.0
C1382 C 0.08378 0.20451 0.15501 0.0
C1383 C 0.05951 0.21512 0.15249 0.0
C1384 C 0.02549 0.25243 0.11536 0.0
C1385 C 0.95303 0.27022 0.13022 0.0
C1386 C 0.97713 0.25692 0.12855 0.0
C1387 C 0.05212 0.22299 0.13174 0.0
C1388 C 0.02565 0.23396 0.12943 0.0
H1389 H 0.91597 0.29413 0.16954 0.0
H1390 H 0.95547 0.2726 0.16585 0.0
H1391 H 1.00227 0.27832 0.10445 0.0
H1392 H 0.1083 0.20792 0.10191 0.0
H1393 H 0.06529 0.22607 0.09735 0.0
C1394 C 0.89445 0.70257 0.34563 0.0
C1395 C 0.89792 0.68473 0.33161 0.0
C1396 C 0.91801 0.71969 0.3499 0.0
C1397 C 0.96711 0.75996 0.34448 0.0
H1398 H 0.045 0.74488 0.34797 0.0
C1399 C 0.07056 0.82407 0.32761 0.0
C1400 C 0.09677 0.82227 0.33864 0.0
C1401 C 0.04555 0.80817 0.33075 0.0
C1402 C 0.02343 0.74946 0.34741 0.0
H1403 H 0.9291 0.67131 0.31083 0.0
H1404 H 0.96943 0.70092 0.31799 0.0
H1405 H 1.0029 0.7153 0.34658 0.0
H1406 H 0.11669 0.80258 0.36232 0.0
H1407 H 0.07283 0.77495 0.36805 0.0
H1408 H 0.98772 0.79417 0.3454 0.0
C1409 C 0.94882 0.70155 0.32615 0.0
C1410 C 0.99924 0.73245 0.3463 0.0
C1411 C 0.92545 0.68457 0.3219 0.0
C1412 C 0.09697 0.80448 0.35349 0.0
C1413 C 0.07183 0.78855 0.35666 0.0
C1414 C 0.99135 0.77701 0.34567 0.0
C1415 C 0.94555 0.7193 0.34027 0.0
C1416 C 0.97081 0.73746 0.34422 0.0
C1417 C 0.0459 0.79 0.34506 0.0
C1418 C 0.0199 0.77199 0.34661 0.0
H1419 H 0.87359 0.70332 0.35334 0.0
H1420 H 0.91474 0.73309 0.36092 0.0
H1421 H 0.94559 0.76446 0.34286 0.0
H1422 H 0.06945 0.83749 0.31603 0.0
H1423 H 0.02623 0.80972 0.32125 0.0
C1424 C 0.5877 0.7114 0.6522 0.0
C1425 C 0.60543 0.70743 0.63426 0.0
C1426 C 0.56488 0.72348 0.64941 0.0
C1427 C 0.51145 0.73845 0.61155 0.0
H1428 H 0.50951 0.78783 0.65172 0.0
C1429 C 0.41622 0.79097 0.61294 0.0
C1430 C 0.40798 0.79773 0.6339 0.0
C1431 C 0.44115 0.7808 0.61044 0.0
C1432 C 0.50944 0.77395 0.6405 0.0
H1433 H 0.61255 0.7128 0.59916 0.0
H1434 H 0.57171 0.73362 0.5942 0.0
H1435 H 0.55138 0.76844 0.6518 0.0
H1436 H 0.41895 0.7982 0.66877 0.0
H1437 H 0.46125 0.78011 0.66456 0.0
H1438 H 0.4688 0.74327 0.60097 0.0
C1439 C 0.57599 0.72744 0.61044 0.0
C1440 C 0.53361 0.76298 0.64045 0.0
C1441 C 0.59937 0.71563 0.61331 0.0
C1442 C 0.42475 0.79353 0.6523 0.0
C1443 C 0.44931 0.78327 0.64985 0.0
C1444 C 0.48693 0.74928 0.61179 0.0
C1445 C 0.55877 0.73167 0.62857 0.0
C1446 C 0.53464 0.74484 0.62632 0.0
C1447 C 0.45824 0.77707 0.62889 0.0
C1448 C 0.48531 0.76684 0.6267 0.0
H1449 H 0.59166 0.70544 0.66859 0.0
H1450 H 0.55182 0.72634 0.66363 0.0
H1451 H 0.51169 0.72443 0.60055 0.0
H1452 H 0.40382 0.79396 0.59841 0.0
H1453 H 0.44735 0.77631 0.59403 0.0
C1454 C 0.82061 0.08361 0.74729 0.0
C1455 C 0.84115 0.09131 0.73077 0.0
C1456 C 0.82327 0.06482 0.75991 0.0
C1457 C 0.85695 0.01385 0.76073 0.0
H1458 H 0.84061 0.01499 0.82349 0.0
C1459 C 0.87779 0.94279 0.81893 0.0
C1460 C 0.85737 0.93598 0.83579 0.0
C1461 C 0.87626 0.96188 0.80639 0.0
C1462 C 0.8449 0.01426 0.80596 0.0
H1463 H 0.88049 0.08489 0.71445 0.0
H1464 H 0.88519 0.05191 0.73662 0.0
H1465 H 0.83772 0.04782 0.80098 0.0
H1466 H 0.81921 0.94413 0.85255 0.0
H1467 H 0.81633 0.97737 0.83046 0.0
H1468 H 0.8639 0.98023 0.76565 0.0
C1469 C 0.86691 0.0605 0.73968 0.0
C1470 C 0.84331 0.03313 0.79303 0.0
C1471 C 0.86429 0.07945 0.72702 0.0
C1472 C 0.83543 0.94892 0.83983 0.0
C1473 C 0.83385 0.96805 0.82719 0.0
C1474 C 0.85847 0.99494 0.77365 0.0
C1475 C 0.84652 0.05307 0.75641 0.0
C1476 C 0.8492 0.03315 0.77023 0.0
C1477 C 0.85419 0.97472 0.81022 0.0
C1478 C 0.85243 0.99487 0.79645 0.0
H1479 H 0.80233 0.09213 0.7506 0.0
H1480 H 0.80686 0.05937 0.77233 0.0
H1481 H 0.86122 0.01315 0.74319 0.0
H1482 H 0.89505 0.93334 0.81525 0.0
H1483 H 0.89261 0.96665 0.79377 0.0
C1484 C 0.17252 0.56324 0.83509 0.0
C1485 C 0.14743 0.57349 0.83525 0.0
C1486 C 0.17353 0.54429 0.82205 0.0
C1487 C 0.12729 0.4969 0.79563 0.0
H1488 H 0.19133 0.49667 0.75455 0.0
C1489 C 0.14822 0.41865 0.74719 0.0
C1490 C 0.15394 0.42147 0.72446 0.0
C1491 C 0.14637 0.43703 0.76069 0.0
C1492 C 0.17328 0.49656 0.7659 0.0
H1493 H 0.10368 0.57151 0.82181 0.0
H1494 H 0.1052 0.53824 0.79992 0.0
H1495 H 0.19111 0.52866 0.7792 0.0
H1496 H 0.16198 0.44582 0.69809 0.0
H1497 H 0.15925 0.47806 0.72186 0.0
H1498 H 0.10961 0.46472 0.78254 0.0
C1499 C 0.12409 0.54492 0.80978 0.0
C1500 C 0.17331 0.51473 0.78014 0.0
C1501 C 0.12327 0.56403 0.8224 0.0
C1502 C 0.15731 0.44308 0.71548 0.0
C1503 C 0.15602 0.46154 0.72911 0.0
C1504 C 0.12753 0.47856 0.7817 0.0
C1505 C 0.14929 0.53495 0.80927 0.0
C1506 C 0.15019 0.51516 0.79504 0.0
C1507 C 0.15074 0.45871 0.75188 0.0
C1508 C 0.15042 0.47826 0.76657 0.0
H1509 H 0.1916 0.57013 0.84463 0.0
H1510 H 0.19322 0.53688 0.82201 0.0
H1511 H 0.10923 0.49677 0.80698 0.0
H1512 H 0.14558 0.40223 0.75463 0.0
H1513 H 0.1424 0.43435 0.77819 0.0
C1514 C 0.78203 0.87835 0.11545 0.0
C1515 C 0.75159 0.87686 0.11743 0.0
C1516 C 0.79619 0.88528 0.09554 0.0
C1517 C 0.78462 0.91244 0.04139 0.0
H1518 H 0.8433 0.87905 0.02001 0.0
C1519 C 0.81007 0.90317 0.94924 0.0
C1520 C 0.83929 0.9044 0.94257 0.0
C1521 C 0.80283 0.90368 0.9716 0.0
C1522 C 0.82728 0.88878 0.02589 0.0
H1523 H 0.71237 0.88223 0.10011 0.0
H1524 H 0.73667 0.89373 0.06569 0.0
H1525 H 0.82444 0.87282 0.05753 0.0
H1526 H 0.88393 0.90752 0.9542 0.0
H1527 H 0.87114 0.90805 0.9935 0.0
H1528 H 0.78653 0.9276 0.00935 0.0
C1529 C 0.74989 0.88995 0.07947 0.0
C1530 C 0.81648 0.88525 0.04744 0.0
C1531 C 0.73584 0.88312 0.09928 0.0
C1532 C 0.86123 0.90669 0.95881 0.0
C1533 C 0.85391 0.90683 0.98129 0.0
C1534 C 0.79518 0.91577 0.01982 0.0
C1535 C 0.78021 0.89091 0.07717 0.0
C1536 C 0.79447 0.89665 0.05531 0.0
C1537 C 0.82458 0.90513 0.98791 0.0
C1538 C 0.81617 0.90364 0.01165 0.0
H1539 H 0.79486 0.8737 0.1291 0.0
H1540 H 0.81961 0.88607 0.0945 0.0
H1541 H 0.76824 0.92196 0.04699 0.0
H1542 H 0.79264 0.90138 0.93715 0.0
H1543 H 0.78002 0.90212 0.97614 0.0
C1544 C 0.2014 0.60922 0.94614 0.0
C1545 C 0.17192 0.60705 0.93986 0.0
C1546 C 0.20921 0.60886 0.9684 0.0
C1547 C 0.18519 0.6226 0.02316 0.0
H1548 H 0.24578 0.59044 0.04336 0.0
C1549 C 0.23077 0.63267 0.11261 0.0
C1550 C 0.26122 0.6343 0.11466 0.0
C1551 C 0.21676 0.62588 0.09262 0.0
C1552 C 0.229 0.59971 0.03801 0.0
H1553 H 0.12746 0.60252 0.95208 0.0
H1554 H 0.14124 0.60231 0.9912 0.0
H1555 H 0.22725 0.585 0.00577 0.0
H1556 H 0.30061 0.62936 0.09734 0.0
H1557 H 0.27659 0.6182 0.06276 0.0
H1558 H 0.18785 0.63815 0.05497 0.0
C1559 C 0.15823 0.60412 0.97876 0.0
C1560 C 0.21829 0.59647 0.01647 0.0
C1561 C 0.15035 0.60407 0.95639 0.0
C1562 C 0.27713 0.62834 0.09647 0.0
C1563 C 0.26323 0.6217 0.07656 0.0
C1564 C 0.19617 0.62606 0.04467 0.0
C1565 C 0.18778 0.60668 0.985 0.0
C1566 C 0.19666 0.60819 0.00865 0.0
C1567 C 0.23288 0.6206 0.07419 0.0
C1568 C 0.2187 0.61502 0.05225 0.0
H1569 H 0.21855 0.61155 0.93382 0.0
H1570 H 0.23216 0.61109 0.97266 0.0
H1571 H 0.16867 0.63201 0.01755 0.0
H1572 H 0.21781 0.63707 0.12629 0.0
H1573 H 0.19331 0.62494 0.09157 0.0
C1574 C 0.69199 0.10718 0.44656 0.0
C1575 C 0.66277 0.10609 0.43994 0.0
C1576 C 0.69926 0.10651 0.4689 0.0
C1577 C 0.67531 0.12115 0.52337 0.0
H1578 H 0.73307 0.08658 0.54414 0.0
C1579 C 0.72016 0.12981 0.61309 0.0
C1580 C 0.75048 0.1306 0.61521 0.0
C1581 C 0.706 0.12334 0.59307 0.0
C1582 C 0.71708 0.0965 0.53863 0.0
H1583 H 0.61818 0.10315 0.45165 0.0
H1584 H 0.63104 0.10239 0.49092 0.0
H1585 H 0.71487 0.08173 0.50642 0.0
H1586 H 0.78944 0.12444 0.59804 0.0
H1587 H 0.76518 0.11378 0.56343 0.0
H1588 H 0.67848 0.13673 0.55518 0.0
C1589 C 0.64823 0.10359 0.47868 0.0
C1590 C 0.70655 0.09361 0.51702 0.0
C1591 C 0.64087 0.10387 0.45622 0.0
C1592 C 0.76607 0.12408 0.5971 0.0
C1593 C 0.75203 0.11774 0.57717 0.0
C1594 C 0.6861 0.12424 0.54496 0.0
C1595 C 0.67755 0.10507 0.48525 0.0
C1596 C 0.68599 0.10621 0.50899 0.0
C1597 C 0.72185 0.11752 0.57472 0.0
C1598 C 0.70765 0.11232 0.55274 0.0
H1599 H 0.70938 0.10891 0.43444 0.0
H1600 H 0.72206 0.10789 0.47342 0.0
H1601 H 0.65963 0.13123 0.5176 0.0
H1602 H 0.70744 0.13467 0.6267 0.0
H1603 H 0.68268 0.1231 0.59192 0.0
C1604 C 0.27172 0.37999 0.61272 0.0
C1605 C 0.2411 0.37686 0.61436 0.0
C1606 C 0.2857 0.38683 0.59271 0.0
C1607 C 0.27242 0.41083 0.53731 0.0
H1608 H 0.33547 0.38067 0.51818 0.0
C1609 C 0.30148 0.40086 0.44591 0.0
C1610 C 0.33104 0.40352 0.43972 0.0
C1611 C 0.29352 0.40138 0.46813 0.0
C1612 C 0.31819 0.38951 0.52341 0.0
H1613 H 0.20131 0.37918 0.59629 0.0
H1614 H 0.22535 0.39052 0.56172 0.0
H1615 H 0.31619 0.37474 0.55561 0.0
H1616 H 0.37545 0.40914 0.45207 0.0
H1617 H 0.36142 0.40972 0.49111 0.0
H1618 H 0.27362 0.4248 0.50477 0.0
C1619 C 0.23881 0.3881 0.57583 0.0
C1620 C 0.30714 0.38615 0.54491 0.0
C1621 C 0.22492 0.38137 0.59573 0.0
C1622 C 0.3525 0.40717 0.4563 0.0
C1623 C 0.34448 0.40734 0.47864 0.0
C1624 C 0.28326 0.414 0.5158 0.0
C1625 C 0.26937 0.39071 0.57389 0.0
C1626 C 0.28362 0.39636 0.552 0.0
C1627 C 0.31487 0.40428 0.4848 0.0
C1628 C 0.30586 0.40302 0.50843 0.0
H1629 H 0.28488 0.37671 0.62673 0.0
H1630 H 0.30929 0.38891 0.59195 0.0
H1631 H 0.25482 0.41944 0.54229 0.0
H1632 H 0.28439 0.39802 0.43358 0.0
H1633 H 0.27052 0.39874 0.4723 0.0
C1634 C 0.05258 0.68769 0.8704 0.0
C1635 C 0.08144 0.69153 0.87824 0.0
C1636 C 0.03407 0.70325 0.87396 0.0
C1637 C 0.99344 0.7334 0.89016 0.0
H1638 H 0.02608 0.79623 0.88867 0.0
C1639 C 0.9187 0.80091 0.89266 0.0
C1640 C 0.92729 0.81998 0.87963 0.0
C1641 C 0.9379 0.7857 0.8963 0.0
C1642 C 0.01646 0.77875 0.88889 0.0
H1643 H 0.11331 0.71448 0.89654 0.0
H1644 H 0.08058 0.74137 0.90366 0.0
H1645 H 0.0584 0.76875 0.88721 0.0
H1646 H 0.96269 0.83796 0.86009 0.0
H1647 H 0.99533 0.81124 0.86546 0.0
H1648 H 0.95143 0.74335 0.89013 0.0
C1649 C 0.07245 0.7266 0.89412 0.0
C1650 C 0.03516 0.7629 0.88847 0.0
C1651 C 0.09122 0.71114 0.89017 0.0
C1652 C 0.95545 0.82357 0.87043 0.0
C1653 C 0.97437 0.80824 0.8737 0.0
C1654 C 0.97472 0.74924 0.89012 0.0
C1655 C 0.04364 0.72298 0.88587 0.0
C1656 C 0.02392 0.73995 0.88865 0.0
C1657 C 0.96594 0.78902 0.88665 0.0
C1658 C 0.98591 0.77217 0.88903 0.0
H1659 H 0.0444 0.67289 0.86091 0.0
H1660 H 0.01245 0.69998 0.86677 0.0
H1661 H 0.98384 0.71594 0.89096 0.0
H1662 H 0.89719 0.79778 0.90008 0.0
H1663 H 0.93069 0.77135 0.90667 0.0
C1664 C 0.09141 0.31157 0.72198 0.0
C1665 C 0.10292 0.31338 0.70039 0.0
C1666 C 0.06471 0.29759 0.7264 0.0
C1667 C 0.99642 0.27539 0.6994 0.0
H1668 H 0.9878 0.22337 0.73749 0.0
C1669 C 0.90735 0.202 0.68327 0.0
C1670 C 0.8904 0.19142 0.70071 0.0
C1671 C 0.93229 0.21752 0.68736 0.0
C1672 C 0.9897 0.23808 0.72714 0.0
H1673 H 0.0955 0.3011 0.66678 0.0
H1674 H 0.04925 0.2777 0.67441 0.0
H1675 H 0.03377 0.25018 0.7377 0.0
H1676 H 0.88732 0.1886 0.73636 0.0
H1677 H 0.93154 0.2161 0.74356 0.0
H1678 H 0.95306 0.26334 0.68832 0.0
C1679 C 0.06074 0.28706 0.68788 0.0
C1680 C 0.01596 0.25338 0.72728 0.0
C1681 C 0.08735 0.30059 0.68355 0.0
C1682 C 0.89983 0.19639 0.72252 0.0
C1683 C 0.92511 0.21212 0.72665 0.0
C1684 C 0.97033 0.26031 0.69938 0.0
C1685 C 0.04896 0.28553 0.70924 0.0
C1686 C 0.01985 0.27173 0.71278 0.0
C1687 C 0.94122 0.2232 0.70904 0.0
C1688 C 0.96702 0.24098 0.71254 0.0
H1689 H 0.1029 0.32098 0.73539 0.0
H1690 H 0.05606 0.29663 0.74304 0.0
H1691 H 0.99874 0.28953 0.68826 0.0
H1692 H 0.90117 0.19868 0.66622 0.0
H1693 H 0.94455 0.22525 0.67339 0.0
C1694 C 0.54776 0.18737 0.36663 0.0
C1695 C 0.57608 0.19073 0.37555 0.0
C1696 C 0.52926 0.20301 0.36992 0.0
C1697 C 0.48803 0.23296 0.38564 0.0
H1698 H 0.52135 0.29565 0.38739 0.0
C1699 C 0.41393 0.30081 0.38929 0.0
C1700 C 0.42325 0.32049 0.37734 0.0
C1701 C 0.43283 0.28533 0.39267 0.0
C1702 C 0.51155 0.27824 0.38669 0.0
H1703 H 0.60693 0.2129 0.39545 0.0
H1704 H 0.57417 0.23984 0.40208 0.0
H1705 H 0.55338 0.26798 0.38575 0.0
H1706 H 0.45969 0.33934 0.3595 0.0
H1707 H 0.49189 0.3122 0.3644 0.0
H1708 H 0.44622 0.24323 0.3849 0.0
C1709 C 0.5665 0.22543 0.39191 0.0
C1710 C 0.53006 0.26224 0.38617 0.0
C1711 C 0.58528 0.20992 0.38825 0.0
C1712 C 0.45188 0.32445 0.36901 0.0
C1713 C 0.47052 0.30886 0.372 0.0
C1714 C 0.46953 0.24896 0.38571 0.0
C1715 C 0.53827 0.22231 0.38261 0.0
C1716 C 0.5186 0.23935 0.38523 0.0
C1717 C 0.46132 0.28899 0.3838 0.0
C1718 C 0.48099 0.27187 0.38584 0.0
H1719 H 0.54006 0.1729 0.35653 0.0
H1720 H 0.50812 0.20013 0.36194 0.0
H1721 H 0.47822 0.21553 0.38554 0.0
H1722 H 0.39204 0.29736 0.39603 0.0
H1723 H 0.42501 0.27049 0.4022 0.0
C1724 C 0.67495 0.59604 0.70447 0.0
C1725 C 0.69774 0.6094 0.69301 0.0
C1726 C 0.67993 0.57717 0.71604 0.0
C1727 C 0.72413 0.5335 0.71861 0.0
H1728 H 0.69489 0.52625 0.77859 0.0
C1729 C 0.7256 0.45184 0.76892 0.0
C1730 C 0.69992 0.44418 0.78086 0.0
C1731 C 0.7303 0.4733 0.75958 0.0
C1732 C 0.70302 0.52788 0.76182 0.0
H1733 H 0.74362 0.61313 0.68446 0.0
H1734 H 0.75215 0.57946 0.7044 0.0
H1735 H 0.69361 0.56112 0.75906 0.0
H1736 H 0.65939 0.4534 0.79272 0.0
H1737 H 0.66721 0.49014 0.77629 0.0
H1738 H 0.73216 0.49981 0.72094 0.0
C1739 C 0.73051 0.58395 0.70449 0.0
C1740 C 0.70243 0.54793 0.75069 0.0
C1741 C 0.72564 0.6032 0.69316 0.0
C1742 C 0.67945 0.45864 0.78366 0.0
C1743 C 0.68408 0.47992 0.77435 0.0
C1744 C 0.7244 0.51324 0.72968 0.0
C1745 C 0.70772 0.57092 0.71624 0.0
C1746 C 0.71229 0.55077 0.7288 0.0
C1747 C 0.70944 0.48756 0.76205 0.0
C1748 C 0.71308 0.50996 0.75124 0.0
H1749 H 0.65321 0.60031 0.70482 0.0
H1750 H 0.66189 0.56732 0.72475 0.0
H1751 H 0.73177 0.53524 0.7017 0.0
H1752 H 0.74183 0.44115 0.76645 0.0
H1753 H 0.7502 0.47868 0.75038 0.0
C1754 C 0.32382 0.06314 0.75567 0.0
C1755 C 0.31017 0.06373 0.77629 0.0
C1756 C 0.32059 0.04346 0.7434 0.0
C1757 C 0.28 0.98491 0.7398 0.0
H1758 H 0.35139 0.97555 0.71078 0.0
C1759 C 0.33942 0.90973 0.70158 0.0
C1760 C 0.31661 0.89727 0.68942 0.0
C1761 C 0.33594 0.92979 0.71153 0.0
C1762 C 0.33128 0.97772 0.71892 0.0
H1763 H 0.28148 0.04439 0.7999 0.0
H1764 H 0.27671 0.00958 0.77889 0.0
H1765 H 0.34966 0.01049 0.72927 0.0
H1766 H 0.2719 0.89603 0.67857 0.0
H1767 H 0.26598 0.93167 0.6956 0.0
H1768 H 0.26229 0.95141 0.73023 0.0
C1769 C 0.28938 0.02449 0.77188 0.0
C1770 C 0.3301 0.99805 0.72926 0.0
C1771 C 0.29216 0.04441 0.784 0.0
C1772 C 0.28991 0.90526 0.68779 0.0
C1773 C 0.2865 0.92562 0.69764 0.0
C1774 C 0.2813 0.96436 0.72957 0.0
C1775 C 0.3042 0.02361 0.75166 0.0
C1776 C 0.30451 1.00199 0.73994 0.0
C1777 C 0.30966 0.93828 0.70942 0.0
C1778 C 0.30713 0.96042 0.71923 0.0
H1779 H 0.33752 0.07787 0.74916 0.0
H1780 H 0.33156 0.04374 0.72761 0.0
H1781 H 0.25981 0.98737 0.74763 0.0
H1782 H 0.36012 0.90394 0.70356 0.0
H1783 H 0.354 0.93864 0.72099 0.0
C1784 C 0.4357 0.18066 0.82627 0.0
C1785 C 0.40875 0.18201 0.83642 0.0
C1786 C 0.46003 0.19705 0.82976 0.0
C1787 C 0.51273 0.22837 0.8462 0.0
H1788 H 0.50144 0.29012 0.84522 0.0
C1789 C 0.61066 0.30153 0.84689 0.0
C1790 C 0.60816 0.31951 0.83276 0.0
C1791 C 0.58647 0.28491 0.85101 0.0
C1792 C 0.50504 0.27296 0.84543 0.0
H1793 H 0.38668 0.20175 0.85863 0.0
H1794 H 0.42951 0.23038 0.86499 0.0
H1795 H 0.45914 0.2606 0.84572 0.0
H1796 H 0.57801 0.33386 0.81182 0.0
H1797 H 0.53661 0.30495 0.81855 0.0
H1798 H 0.55858 0.2407 0.84468 0.0
C1799 C 0.43157 0.21661 0.85409 0.0
C1800 C 0.4807 0.25599 0.84605 0.0
C1801 C 0.40703 0.20012 0.85055 0.0
C1802 C 0.5809 0.32041 0.82292 0.0
C1803 C 0.55691 0.30384 0.82695 0.0
C1804 C 0.53706 0.24534 0.84544 0.0
C1805 C 0.45836 0.21535 0.84359 0.0
C1806 C 0.48418 0.23344 0.84588 0.0
C1807 C 0.55925 0.28586 0.84106 0.0
C1808 C 0.53355 0.26787 0.8445 0.0
H1809 H 0.43805 0.1671 0.81517 0.0
H1810 H 0.47998 0.19566 0.82099 0.0
H1811 H 0.51633 0.21121 0.84651 0.0
H1812 H 0.63125 0.3003 0.85481 0.0
H1813 H 0.58907 0.27141 0.86211 0.0
C1814 C 0.3224 0.58743 0.24733 0.0
C1815 C 0.34357 0.5945 0.23107 0.0
C1816 C 0.32344 0.56817 0.25975 0.0
C1817 C 0.37386 0.53028 0.27762 0.0
H1818 H 0.30234 0.49055 0.2925 0.0
C1819 C 0.37439 0.44426 0.31805 0.0
C1820 C 0.35348 0.43692 0.33443 0.0
C1821 C 0.37309 0.46364 0.30592 0.0
C1822 C 0.32249 0.50161 0.28875 0.0
H1823 H 0.38229 0.58654 0.215 0.0
H1824 H 0.38399 0.55275 0.23658 0.0
H1825 H 0.30024 0.52345 0.26986 0.0
H1826 H 0.31471 0.44449 0.35079 0.0
H1827 H 0.31259 0.4785 0.32968 0.0
H1828 H 0.39613 0.50844 0.29648 0.0
C1829 C 0.36676 0.56234 0.2399 0.0
C1830 C 0.3213 0.52048 0.27571 0.0
C1831 C 0.36569 0.58164 0.22742 0.0
C1832 C 0.33123 0.44962 0.33837 0.0
C1833 C 0.3299 0.46905 0.32614 0.0
C1834 C 0.37505 0.51141 0.29065 0.0
C1835 C 0.34568 0.55538 0.25629 0.0
C1836 C 0.34698 0.53507 0.26994 0.0
C1837 C 0.35082 0.4763 0.30972 0.0
C1838 C 0.34939 0.49677 0.29636 0.0
H1839 H 0.30502 0.59688 0.25066 0.0
H1840 H 0.30707 0.56355 0.27239 0.0
H1841 H 0.39403 0.54132 0.27386 0.0
H1842 H 0.39178 0.43493 0.31436 0.0
H1843 H 0.3893 0.46844 0.2932 0.0
C1844 C 0.6656 0.05994 0.33855 0.0
C1845 C 0.64351 0.07271 0.33436 0.0
C1846 C 0.6671 0.04056 0.32632 0.0
C1847 C 0.64214 0.01255 0.27345 0.0
H1848 H 0.66391 0.96045 0.30169 0.0
C1849 C 0.63779 0.92747 0.22822 0.0
C1850 C 0.66122 0.91596 0.23218 0.0
C1851 C 0.63481 0.94652 0.24057 0.0
C1852 C 0.65804 0.97492 0.29349 0.0
H1853 H 0.60544 0.07475 0.31405 0.0
H1854 H 0.6078 0.04099 0.29324 0.0
H1855 H 0.66063 0.99356 0.32361 0.0
H1856 H 0.70014 0.91584 0.25208 0.0
H1857 H 0.69499 0.9488 0.27328 0.0
H1858 H 0.63955 0.99384 0.24331 0.0
C1859 C 0.6243 0.0461 0.30567 0.0
C1860 C 0.65621 0.99395 0.30608 0.0
C1861 C 0.62283 0.06544 0.31781 0.0
C1862 C 0.68166 0.92409 0.24861 0.0
C1863 C 0.67863 0.94299 0.26093 0.0
C1864 C 0.64391 0.99348 0.26086 0.0
C1865 C 0.64655 0.03345 0.30962 0.0
C1866 C 0.64835 0.01307 0.29623 0.0
C1867 C 0.65511 0.95441 0.25721 0.0
C1868 C 0.65206 0.97446 0.27069 0.0
H1869 H 0.68201 0.06506 0.35104 0.0
H1870 H 0.68476 0.0314 0.32967 0.0
H1871 H 0.63644 0.02705 0.2652 0.0
H1872 H 0.62167 0.92169 0.21571 0.0
H1873 H 0.61632 0.95484 0.23735 0.0
C1874 C 0.59384 0.80729 0.18669 0.0
C1875 C 0.61219 0.81677 0.20388 0.0
C1876 C 0.56718 0.79394 0.19116 0.0
C1877 C 0.52708 0.75478 0.22851 0.0
H1878 H 0.46055 0.76877 0.19581 0.0
C1879 C 0.4116 0.69722 0.22275 0.0
C1880 C 0.40106 0.69457 0.20093 0.0
C1881 C 0.43673 0.71278 0.22761 0.0
C1882 C 0.47884 0.76464 0.20514 0.0
H1883 H 0.61688 0.81888 0.23949 0.0
H1884 H 0.56987 0.79476 0.24733 0.0
H1885 H 0.5057 0.79558 0.1968 0.0
H1886 H 0.40964 0.70578 0.16709 0.0
H1887 H 0.45275 0.7324 0.17556 0.0
H1888 H 0.50039 0.72321 0.23584 0.0
C1889 C 0.57641 0.79822 0.23035 0.0
C1890 C 0.50463 0.78004 0.20579 0.0
C1891 C 0.60318 0.81207 0.22585 0.0
C1892 C 0.41673 0.70735 0.18413 0.0
C1893 C 0.44148 0.72282 0.18899 0.0
C1894 C 0.5011 0.73922 0.2278 0.0
C1895 C 0.55806 0.78927 0.21296 0.0
C1896 C 0.52935 0.77497 0.21677 0.0
C1897 C 0.45152 0.72608 0.21078 0.0
C1898 C 0.47712 0.74368 0.21534 0.0
H1899 H 0.59997 0.81006 0.16956 0.0
H1900 H 0.55372 0.78698 0.17743 0.0
H1901 H 0.5459 0.75044 0.237 0.0
H1902 H 0.4001 0.68768 0.2361 0.0
H1903 H 0.44408 0.71488 0.24457 0.0
loop_
_geom_bond_atom_site_label_1
_geom_bond_atom_site_label_2
_geom_bond_distance
_geom_bond_site_symmetry_2
_ccdc_geom_bond_type
Co0 O2 2.143 . S
Co0 O8 2.074 . S
Co0 O11 2.093 . S
Co0 O24 2.097 . S
Co0 N41 2.151 . S
Co0 N49 2.214 . S
Co1 O2 2.160 . S
Co1 O7 2.058 . S
Co1 O17 2.057 . S
Co1 O32 2.037 . S
Co1 N36 2.145 . S
Co1 N57 2.257 . S
O2 Co0 2.143 . S
O2 Co1 2.160 . S
C3 O4 1.278 . S
C3 O11 1.224 . S
O4 C3 1.278 . S
C5 O6 1.245 . S
C5 O17 1.232 . S
O6 C5 1.245 . S
O7 Co1 2.058 . S
O7 C33 1.269 . S
O8 Co0 2.074 . S
O8 C33 1.257 . S
H9 C34 0.930 . S
H10 C40 0.930 . S
O11 Co0 2.093 . S
O11 C3 1.224 . S
H12 C44 0.929 . S
H13 C46 0.930 . S
H14 C47 0.930 . S
H15 C45 0.929 . S
H16 C48 0.928 . S
O17 Co1 2.057 . S
O17 C5 1.232 . S
H18 C37 0.929 . S
H19 C38 0.929 . S
H20 C50 0.931 . S
H21 C42 0.929 . S
H22 C51 0.930 . S
H23 C43 0.931 . S
O24 Co0 2.097 . S
O24 C52 1.214 . S
H25 C53 0.929 . S
H26 C54 0.929 . S
H27 C55 0.930 . S
H28 C56 0.929 . S
H29 C58 0.930 . S
H30 C35 0.930 . S
H31 C39 0.930 . S
O32 Co1 2.037 . S
O32 C52 1.234 . S
C33 O7 1.269 . S
C33 O8 1.257 . S
C34 H9 0.930 . S
C34 C37 1.388 . S
C34 C39 1.418 . S
C35 H30 0.930 . S
C35 C38 1.404 . S
C35 C39 1.353 . S
N36 Co1 2.145 . S
N36 C37 1.397 . S
N36 C38 1.334 . S
C37 H18 0.929 . S
C37 C34 1.388 . S
C37 N36 1.397 . S
C38 H19 0.929 . S
C38 C35 1.404 . S
C38 N36 1.334 . S
C39 H31 0.930 . S
C39 C34 1.418 . S
C39 C35 1.353 . S
C40 H10 0.930 . S
C40 N41 1.330 . S
C40 C42 1.446 . S
N41 Co0 2.151 . S
N41 C40 1.330 . S
N41 C45 1.418 . S
C42 H21 0.929 . S
C42 C40 1.446 . S
C42 C43 1.332 . S
C43 H23 0.931 . S
C43 C42 1.332 . S
C43 C44 1.267 . S
C44 H12 0.929 . S
C44 C43 1.267 . S
C44 C45 1.251 . S
C45 H15 0.929 . S
C45 N41 1.418 . S
C45 C44 1.251 . S
C46 H13 0.930 . S
C46 C48 1.406 . S
C46 C51 1.261 . S
C47 H14 0.930 . S
C47 N49 1.325 . S
C47 C50 1.357 . S
C48 H16 0.928 . S
C48 C46 1.406 . S
C48 N49 1.261 . S
N49 Co0 2.214 . S
N49 C47 1.325 . S
N49 C48 1.261 . S
C50 H20 0.931 . S
C50 C47 1.357 . S
C50 C51 1.312 . S
C51 H22 0.930 . S
C51 C46 1.261 . S
C51 C50 1.312 . S
C52 O24 1.214 . S
C52 O32 1.234 . S
C53 H25 0.929 . S
C53 C56 1.391 . S
C53 C58 1.391 . S
C54 H26 0.929 . S
C54 C55 1.390 . S
C54 N57 1.391 . S
C55 H27 0.930 . S
C55 C54 1.390 . S
C55 C56 1.392 . S
C56 H28 0.929 . S
C56 C53 1.391 . S
C56 C55 1.392 . S
N57 Co1 2.257 . S
N57 C54 1.391 . S
N57 C58 1.388 . S
C58 H29 0.930 . S
C58 C53 1.391 . S
C58 N57 1.388 . S
Co59 O61 2.143 . S
Co59 O67 2.074 . S
Co59 O70 2.093 . S
Co59 O83 2.097 . S
Co59 N100 2.151 . S
Co59 N108 2.214 . S
Co60 O61 2.160 . S
Co60 O66 2.058 . S
Co60 O76 2.057 . S
Co60 O91 2.037 . S
Co60 N95 2.145 . S
Co60 N116 2.257 . S
O61 Co59 2.143 . S
O61 Co60 2.160 . S
C62 O63 1.278 . S
C62 O70 1.224 . S
O63 C62 1.278 . S
C64 O65 1.245 . S
C64 O76 1.232 . S
O65 C64 1.245 . S
O66 Co60 2.058 . S
O66 C92 1.269 . S
O67 Co59 2.074 . S
O67 C92 1.257 . S
H68 C93 0.930 . S
H69 C99 0.930 . S
O70 Co59 2.093 . S
O70 C62 1.224 . S
H71 C103 0.929 . S
H72 C105 0.930 . S
H73 C106 0.930 . S
H74 C104 0.929 . S
H75 C107 0.928 . S
O76 Co60 2.057 . S
O76 C64 1.232 . S
H77 C96 0.929 . S
H78 C97 0.929 . S
H79 C109 0.931 . S
H80 C101 0.929 . S
H81 C110 0.930 . S
H82 C102 0.931 . S
O83 Co59 2.097 . S
O83 C111 1.214 . S
H84 C112 0.929 . S
H85 C113 0.929 . S
H86 C114 0.930 . S
H87 C115 0.929 . S
H88 C117 0.930 . S
H89 C94 0.930 . S
H90 C98 0.930 . S
O91 Co60 2.037 . S
O91 C111 1.234 . S
C92 O66 1.269 . S
C92 O67 1.257 . S
C93 H68 0.930 . S
C93 C96 1.388 . S
C93 C98 1.418 . S
C94 H89 0.930 . S
C94 C97 1.404 . S
C94 C98 1.353 . S
N95 Co60 2.145 . S
N95 C96 1.397 . S
N95 C97 1.334 . S
C96 H77 0.929 . S
C96 C93 1.388 . S
C96 N95 1.397 . S
C97 H78 0.929 . S
C97 C94 1.404 . S
C97 N95 1.334 . S
C98 H90 0.930 . S
C98 C93 1.418 . S
C98 C94 1.353 . S
C99 H69 0.930 . S
C99 N100 1.330 . S
C99 C101 1.446 . S
N100 Co59 2.151 . S
N100 C99 1.330 . S
N100 C104 1.418 . S
C101 H80 0.929 . S
C101 C99 1.446 . S
C101 C102 1.332 . S
C102 H82 0.931 . S
C102 C101 1.332 . S
C102 C103 1.267 . S
C103 H71 0.929 . S
C103 C102 1.267 . S
C103 C104 1.251 . S
C104 H74 0.929 . S
C104 N100 1.418 . S
C104 C103 1.251 . S
C105 H72 0.930 . S
C105 C107 1.406 . S
C105 C110 1.261 . S
C106 H73 0.930 . S
C106 N108 1.325 . S
C106 C109 1.357 . S
C107 H75 0.928 . S
C107 C105 1.406 . S
C107 N108 1.261 . S
N108 Co59 2.214 . S
N108 C106 1.325 . S
N108 C107 1.261 . S
C109 H79 0.931 . S
C109 C106 1.357 . S
C109 C110 1.312 . S
C110 H81 0.930 . S
C110 C105 1.261 . S
C110 C109 1.312 . S
C111 O83 1.214 . S
C111 O91 1.234 . S
C112 H84 0.929 . S
C112 C115 1.391 . S
C112 C117 1.391 . S
C113 H85 0.929 . S
C113 C114 1.390 . S
C113 N116 1.391 . S
C114 H86 0.930 . S
C114 C113 1.390 . S
C114 C115 1.392 . S
C115 H87 0.929 . S
C115 C112 1.391 . S
C115 C114 1.392 . S
N116 Co60 2.257 . S
N116 C113 1.391 . S
N116 C117 1.388 . S
C117 H88 0.930 . S
C117 C112 1.391 . S
C117 N116 1.388 . S
Co118 O120 2.143 . S
Co118 O126 2.074 . S
Co118 O129 2.093 . S
Co118 O142 2.097 . S
Co118 N159 2.151 . S
Co118 N167 2.214 . S
Co119 O120 2.160 . S
Co119 O125 2.058 . S
Co119 O135 2.057 . S
Co119 O150 2.037 . S
Co119 N154 2.145 . S
Co119 N175 2.257 . S
O120 Co118 2.143 . S
O120 Co119 2.160 . S
C121 O122 1.278 . S
C121 O129 1.224 . S
O122 C121 1.278 . S
C123 O124 1.245 . S
C123 O135 1.232 . S
O124 C123 1.245 . S
O125 Co119 2.058 . S
O125 C151 1.269 . S
O126 Co118 2.074 . S
O126 C151 1.257 . S
H127 C152 0.930 . S
H128 C158 0.930 . S
O129 Co118 2.093 . S
O129 C121 1.224 . S
H130 C162 0.929 . S
H131 C164 0.930 . S
H132 C165 0.930 . S
H133 C163 0.929 . S
H134 C166 0.928 . S
O135 Co119 2.057 . S
O135 C123 1.232 . S
H136 C155 0.929 . S
H137 C156 0.929 . S
H138 C168 0.931 . S
H139 C160 0.929 . S
H140 C169 0.930 . S
H141 C161 0.931 . S
O142 Co118 2.097 . S
O142 C170 1.214 . S
H143 C171 0.929 . S
H144 C172 0.929 . S
H145 C173 0.930 . S
H146 C174 0.929 . S
H147 C176 0.930 . S
H148 C153 0.930 . S
H149 C157 0.930 . S
O150 Co119 2.037 . S
O150 C170 1.234 . S
C151 O125 1.269 . S
C151 O126 1.257 . S
C152 H127 0.930 . S
C152 C155 1.388 . S
C152 C157 1.418 . S
C153 H148 0.930 . S
C153 C156 1.404 . S
C153 C157 1.353 . S
N154 Co119 2.145 . S
N154 C155 1.397 . S
N154 C156 1.334 . S
C155 H136 0.929 . S
C155 C152 1.388 . S
C155 N154 1.397 . S
C156 H137 0.929 . S
C156 C153 1.404 . S
C156 N154 1.334 . S
C157 H149 0.930 . S
C157 C152 1.418 . S
C157 C153 1.353 . S
C158 H128 0.930 . S
C158 N159 1.330 . S
C158 C160 1.446 . S
N159 Co118 2.151 . S
N159 C158 1.330 . S
N159 C163 1.418 . S
C160 H139 0.929 . S
C160 C158 1.446 . S
C160 C161 1.332 . S
C161 H141 0.931 . S
C161 C160 1.332 . S
C161 C162 1.267 . S
C162 H130 0.929 . S
C162 C161 1.267 . S
C162 C163 1.251 . S
C163 H133 0.929 . S
C163 N159 1.418 . S
C163 C162 1.251 . S
C164 H131 0.930 . S
C164 C166 1.406 . S
C164 C169 1.261 . S
C165 H132 0.930 . S
C165 N167 1.325 . S
C165 C168 1.357 . S
C166 H134 0.928 . S
C166 C164 1.406 . S
C166 N167 1.261 . S
N167 Co118 2.214 . S
N167 C165 1.325 . S
N167 C166 1.261 . S
C168 H138 0.931 . S
C168 C165 1.357 . S
C168 C169 1.312 . S
C169 H140 0.930 . S
C169 C164 1.261 . S
C169 C168 1.312 . S
C170 O142 1.214 . S
C170 O150 1.234 . S
C171 H143 0.929 . S
C171 C174 1.391 . S
C171 C176 1.391 . S
C172 H144 0.929 . S
C172 C173 1.390 . S
C172 N175 1.391 . S
C173 H145 0.930 . S
C173 C172 1.390 . S
C173 C174 1.392 . S
C174 H146 0.929 . S
C174 C171 1.391 . S
C174 C173 1.392 . S
N175 Co119 2.257 . S
N175 C172 1.391 . S
N175 C176 1.388 . S
C176 H147 0.930 . S
C176 C171 1.391 . S
C176 N175 1.388 . S
Co177 O179 2.143 . S
Co177 O185 2.074 . S
Co177 O188 2.093 . S
Co177 O201 2.097 . S
Co177 N218 2.151 . S
Co177 N226 2.214 . S
Co178 O179 2.160 . S
Co178 O184 2.058 . S
Co178 O194 2.057 . S
Co178 O209 2.037 . S
Co178 N213 2.145 . S
Co178 N234 2.257 . S
O179 Co177 2.143 . S
O179 Co178 2.160 . S
C180 O181 1.278 . S
C180 O188 1.224 . S
O181 C180 1.278 . S
C182 O183 1.245 . S
C182 O194 1.232 . S
O183 C182 1.245 . S
O184 Co178 2.058 . S
O184 C210 1.269 . S
O185 Co177 2.074 . S
O185 C210 1.257 . S
H186 C211 0.930 . S
H187 C217 0.930 . S
O188 Co177 2.093 . S
O188 C180 1.224 . S
H189 C221 0.929 . S
H190 C223 0.930 . S
H191 C224 0.930 . S
H192 C222 0.929 . S
H193 C225 0.928 . S
O194 Co178 2.057 . S
O194 C182 1.232 . S
H195 C214 0.929 . S
H196 C215 0.929 . S
H197 C227 0.931 . S
H198 C219 0.929 . S
H199 C228 0.930 . S
H200 C220 0.931 . S
O201 Co177 2.097 . S
O201 C229 1.214 . S
H202 C230 0.929 . S
H203 C231 0.929 . S
H204 C232 0.930 . S
H205 C233 0.929 . S
H206 C235 0.930 . S
H207 C212 0.930 . S
H208 C216 0.930 . S
O209 Co178 2.037 . S
O209 C229 1.234 . S
C210 O184 1.269 . S
C210 O185 1.257 . S
C211 H186 0.930 . S
C211 C214 1.388 . S
C211 C216 1.418 . S
C212 H207 0.930 . S
C212 C215 1.404 . S
C212 C216 1.353 . S
N213 Co178 2.145 . S
N213 C214 1.397 . S
N213 C215 1.334 . S
C214 H195 0.929 . S
C214 C211 1.388 . S
C214 N213 1.397 . S
C215 H196 0.929 . S
C215 C212 1.404 . S
C215 N213 1.334 . S
C216 H208 0.930 . S
C216 C211 1.418 . S
C216 C212 1.353 . S
C217 H187 0.930 . S
C217 N218 1.330 . S
C217 C219 1.446 . S
N218 Co177 2.151 . S
N218 C217 1.330 . S
N218 C222 1.418 . S
C219 H198 0.929 . S
C219 C217 1.446 . S
C219 C220 1.332 . S
C220 H200 0.931 . S
C220 C219 1.332 . S
C220 C221 1.267 . S
C221 H189 0.929 . S
C221 C220 1.267 . S
C221 C222 1.251 . S
C222 H192 0.929 . S
C222 N218 1.418 . S
C222 C221 1.251 . S
C223 H190 0.930 . S
C223 C225 1.406 . S
C223 C228 1.261 . S
C224 H191 0.930 . S
C224 N226 1.325 . S
C224 C227 1.357 . S
C225 H193 0.928 . S
C225 C223 1.406 . S
C225 N226 1.261 . S
N226 Co177 2.214 . S
N226 C224 1.325 . S
N226 C225 1.261 . S
C227 H197 0.931 . S
C227 C224 1.357 . S
C227 C228 1.312 . S
C228 H199 0.930 . S
C228 C223 1.261 . S
C228 C227 1.312 . S
C229 O201 1.214 . S
C229 O209 1.234 . S
C230 H202 0.929 . S
C230 C233 1.391 . S
C230 C235 1.391 . S
C231 H203 0.929 . S
C231 C232 1.390 . S
C231 N234 1.391 . S
C232 H204 0.930 . S
C232 C231 1.390 . S
C232 C233 1.392 . S
C233 H205 0.929 . S
C233 C230 1.391 . S
C233 C232 1.392 . S
N234 Co178 2.257 . S
N234 C231 1.391 . S
N234 C235 1.388 . S
C235 H206 0.930 . S
C235 C230 1.391 . S
C235 N234 1.388 . S
Co236 O238 2.143 . S
Co236 O244 2.074 . S
Co236 O247 2.093 . S
Co236 O260 2.097 . S
Co236 N277 2.151 . S
Co236 N285 2.214 . S
Co237 O238 2.160 . S
Co237 O243 2.058 . S
Co237 O253 2.057 . S
Co237 O268 2.037 . S
Co237 N272 2.145 . S
Co237 N293 2.257 . S
O238 Co236 2.143 . S
O238 Co237 2.160 . S
C239 O240 1.278 . S
C239 O247 1.224 . S
O240 C239 1.278 . S
C241 O242 1.245 . S
C241 O253 1.232 . S
O242 C241 1.245 . S
O243 Co237 2.058 . S
O243 C269 1.269 . S
O244 Co236 2.074 . S
O244 C269 1.257 . S
H245 C270 0.930 . S
H246 C276 0.930 . S
O247 Co236 2.093 . S
O247 C239 1.224 . S
H248 C280 0.929 . S
H249 C282 0.930 . S
H250 C283 0.930 . S
H251 C281 0.929 . S
H252 C284 0.928 . S
O253 Co237 2.057 . S
O253 C241 1.232 . S
H254 C273 0.929 . S
H255 C274 0.929 . S
H256 C286 0.931 . S
H257 C278 0.929 . S
H258 C287 0.930 . S
H259 C279 0.931 . S
O260 Co236 2.097 . S
O260 C288 1.214 . S
H261 C289 0.929 . S
H262 C290 0.929 . S
H263 C291 0.930 . S
H264 C292 0.929 . S
H265 C294 0.930 . S
H266 C271 0.930 . S
H267 C275 0.930 . S
O268 Co237 2.037 . S
O268 C288 1.234 . S
C269 O243 1.269 . S
C269 O244 1.257 . S
C270 H245 0.930 . S
C270 C273 1.388 . S
C270 C275 1.418 . S
C271 H266 0.930 . S
C271 C274 1.404 . S
C271 C275 1.353 . S
N272 Co237 2.145 . S
N272 C273 1.397 . S
N272 C274 1.334 . S
C273 H254 0.929 . S
C273 C270 1.388 . S
C273 N272 1.397 . S
C274 H255 0.929 . S
C274 C271 1.404 . S
C274 N272 1.334 . S
C275 H267 0.930 . S
C275 C270 1.418 . S
C275 C271 1.353 . S
C276 H246 0.930 . S
C276 N277 1.330 . S
C276 C278 1.446 . S
N277 Co236 2.151 . S
N277 C276 1.330 . S
N277 C281 1.418 . S
C278 H257 0.929 . S
C278 C276 1.446 . S
C278 C279 1.332 . S
C279 H259 0.931 . S
C279 C278 1.332 . S
C279 C280 1.267 . S
C280 H248 0.929 . S
C280 C279 1.267 . S
C280 C281 1.251 . S
C281 H251 0.929 . S
C281 N277 1.418 . S
C281 C280 1.251 . S
C282 H249 0.930 . S
C282 C284 1.406 . S
C282 C287 1.261 . S
C283 H250 0.930 . S
C283 N285 1.325 . S
C283 C286 1.357 . S
C284 H252 0.928 . S
C284 C282 1.406 . S
C284 N285 1.261 . S
N285 Co236 2.214 . S
N285 C283 1.325 . S
N285 C284 1.261 . S
C286 H256 0.931 . S
C286 C283 1.357 . S
C286 C287 1.312 . S
C287 H258 0.930 . S
C287 C282 1.261 . S
C287 C286 1.312 . S
C288 O260 1.214 . S
C288 O268 1.234 . S
C289 H261 0.929 . S
C289 C292 1.391 . S
C289 C294 1.391 . S
C290 H262 0.929 . S
C290 C291 1.390 . S
C290 N293 1.391 . S
C291 H263 0.930 . S
C291 C290 1.390 . S
C291 C292 1.392 . S
C292 H264 0.929 . S
C292 C289 1.391 . S
C292 C291 1.392 . S
N293 Co237 2.257 . S
N293 C290 1.391 . S
N293 C294 1.388 . S
C294 H265 0.930 . S
C294 C289 1.391 . S
C294 N293 1.388 . S
Co295 O297 2.143 . S
Co295 O303 2.074 . S
Co295 O306 2.093 . S
Co295 O319 2.097 . S
Co295 N336 2.151 . S
Co295 N344 2.214 . S
Co296 O297 2.160 . S
Co296 O302 2.058 . S
Co296 O312 2.057 . S
Co296 O327 2.037 . S
Co296 N331 2.145 . S
Co296 N352 2.257 . S
O297 Co295 2.143 . S
O297 Co296 2.160 . S
C298 O299 1.278 . S
C298 O306 1.224 . S
O299 C298 1.278 . S
C300 O301 1.245 . S
C300 O312 1.232 . S
O301 C300 1.245 . S
O302 Co296 2.058 . S
O302 C328 1.269 . S
O303 Co295 2.074 . S
O303 C328 1.257 . S
H304 C329 0.930 . S
H305 C335 0.930 . S
O306 Co295 2.093 . S
O306 C298 1.224 . S
H307 C339 0.929 . S
H308 C341 0.930 . S
H309 C342 0.930 . S
H310 C340 0.929 . S
H311 C343 0.928 . S
O312 Co296 2.057 . S
O312 C300 1.232 . S
H313 C332 0.929 . S
H314 C333 0.929 . S
H315 C345 0.931 . S
H316 C337 0.929 . S
H317 C346 0.930 . S
H318 C338 0.931 . S
O319 Co295 2.097 . S
O319 C347 1.214 . S
H320 C348 0.929 . S
H321 C349 0.929 . S
H322 C350 0.930 . S
H323 C351 0.929 . S
H324 C353 0.930 . S
H325 C330 0.930 . S
H326 C334 0.930 . S
O327 Co296 2.037 . S
O327 C347 1.234 . S
C328 O302 1.269 . S
C328 O303 1.257 . S
C329 H304 0.930 . S
C329 C332 1.388 . S
C329 C334 1.418 . S
C330 H325 0.930 . S
C330 C333 1.404 . S
C330 C334 1.353 . S
N331 Co296 2.145 . S
N331 C332 1.397 . S
N331 C333 1.334 . S
C332 H313 0.929 . S
C332 C329 1.388 . S
C332 N331 1.397 . S
C333 H314 0.929 . S
C333 C330 1.404 . S
C333 N331 1.334 . S
C334 H326 0.930 . S
C334 C329 1.418 . S
C334 C330 1.353 . S
C335 H305 0.930 . S
C335 N336 1.330 . S
C335 C337 1.446 . S
N336 Co295 2.151 . S
N336 C335 1.330 . S
N336 C340 1.418 . S
C337 H316 0.929 . S
C337 C335 1.446 . S
C337 C338 1.332 . S
C338 H318 0.931 . S
C338 C337 1.332 . S
C338 C339 1.267 . S
C339 H307 0.929 . S
C339 C338 1.267 . S
C339 C340 1.251 . S
C340 H310 0.929 . S
C340 N336 1.418 . S
C340 C339 1.251 . S
C341 H308 0.930 . S
C341 C343 1.406 . S
C341 C346 1.261 . S
C342 H309 0.930 . S
C342 N344 1.325 . S
C342 C345 1.357 . S
C343 H311 0.928 . S
C343 C341 1.406 . S
C343 N344 1.261 . S
N344 Co295 2.214 . S
N344 C342 1.325 . S
N344 C343 1.261 . S
C345 H315 0.931 . S
C345 C342 1.357 . S
C345 C346 1.312 . S
C346 H317 0.930 . S
C346 C341 1.261 . S
C346 C345 1.312 . S
C347 O319 1.214 . S
C347 O327 1.234 . S
C348 H320 0.929 . S
C348 C351 1.391 . S
C348 C353 1.391 . S
C349 H321 0.929 . S
C349 C350 1.390 . S
C349 N352 1.391 . S
C350 H322 0.930 . S
C350 C349 1.390 . S
C350 C351 1.392 . S
C351 H323 0.929 . S
C351 C348 1.391 . S
C351 C350 1.392 . S
N352 Co296 2.257 . S
N352 C349 1.391 . S
N352 C353 1.388 . S
C353 H324 0.930 . S
C353 C348 1.391 . S
C353 N352 1.388 . S
Co354 O356 2.143 . S
Co354 O362 2.074 . S
Co354 O365 2.093 . S
Co354 O378 2.097 . S
Co354 N395 2.151 . S
Co354 N403 2.214 . S
Co355 O356 2.160 . S
Co355 O361 2.058 . S
Co355 O371 2.057 . S
Co355 O386 2.037 . S
Co355 N390 2.145 . S
Co355 N411 2.257 . S
O356 Co354 2.143 . S
O356 Co355 2.160 . S
C357 O358 1.278 . S
C357 O365 1.224 . S
O358 C357 1.278 . S
C359 O360 1.245 . S
C359 O371 1.232 . S
O360 C359 1.245 . S
O361 Co355 2.058 . S
O361 C387 1.269 . S
O362 Co354 2.074 . S
O362 C387 1.257 . S
H363 C388 0.930 . S
H364 C394 0.930 . S
O365 Co354 2.093 . S
O365 C357 1.224 . S
H366 C398 0.929 . S
H367 C400 0.930 . S
H368 C401 0.930 . S
H369 C399 0.929 . S
H370 C402 0.928 . S
O371 Co355 2.057 . S
O371 C359 1.232 . S
H372 C391 0.929 . S
H373 C392 0.929 . S
H374 C404 0.931 . S
H375 C396 0.929 . S
H376 C405 0.930 . S
H377 C397 0.931 . S
O378 Co354 2.097 . S
O378 C406 1.214 . S
H379 C407 0.929 . S
H380 C408 0.929 . S
H381 C409 0.930 . S
H382 C410 0.929 . S
H383 C412 0.930 . S
H384 C389 0.930 . S
H385 C393 0.930 . S
O386 Co355 2.037 . S
O386 C406 1.234 . S
C387 O361 1.269 . S
C387 O362 1.257 . S
C388 H363 0.930 . S
C388 C391 1.388 . S
C388 C393 1.418 . S
C389 H384 0.930 . S
C389 C392 1.404 . S
C389 C393 1.353 . S
N390 Co355 2.145 . S
N390 C391 1.397 . S
N390 C392 1.334 . S
C391 H372 0.929 . S
C391 C388 1.388 . S
C391 N390 1.397 . S
C392 H373 0.929 . S
C392 C389 1.404 . S
C392 N390 1.334 . S
C393 H385 0.930 . S
C393 C388 1.418 . S
C393 C389 1.353 . S
C394 H364 0.930 . S
C394 N395 1.330 . S
C394 C396 1.446 . S
N395 Co354 2.151 . S
N395 C394 1.330 . S
N395 C399 1.418 . S
C396 H375 0.929 . S
C396 C394 1.446 . S
C396 C397 1.332 . S
C397 H377 0.931 . S
C397 C396 1.332 . S
C397 C398 1.267 . S
C398 H366 0.929 . S
C398 C397 1.267 . S
C398 C399 1.251 . S
C399 H369 0.929 . S
C399 N395 1.418 . S
C399 C398 1.251 . S
C400 H367 0.930 . S
C400 C402 1.406 . S
C400 C405 1.261 . S
C401 H368 0.930 . S
C401 N403 1.325 . S
C401 C404 1.357 . S
C402 H370 0.928 . S
C402 C400 1.406 . S
C402 N403 1.261 . S
N403 Co354 2.214 . S
N403 C401 1.325 . S
N403 C402 1.261 . S
C404 H374 0.931 . S
C404 C401 1.357 . S
C404 C405 1.312 . S
C405 H376 0.930 . S
C405 C400 1.261 . S
C405 C404 1.312 . S
C406 O378 1.214 . S
C406 O386 1.234 . S
C407 H379 0.929 . S
C407 C410 1.391 . S
C407 C412 1.391 . S
C408 H380 0.929 . S
C408 C409 1.390 . S
C408 N411 1.391 . S
C409 H381 0.930 . S
C409 C408 1.390 . S
C409 C410 1.392 . S
C410 H382 0.929 . S
C410 C407 1.391 . S
C410 C409 1.392 . S
N411 Co355 2.257 . S
N411 C408 1.391 . S
N411 C412 1.388 . S
C412 H383 0.930 . S
C412 C407 1.391 . S
C412 N411 1.388 . S
Co413 O415 2.143 . S
Co413 O421 2.074 . S
Co413 O424 2.093 . S
Co413 O437 2.097 . S
Co413 N454 2.151 . S
Co413 N462 2.214 . S
Co414 O415 2.160 . S
Co414 O420 2.058 . S
Co414 O430 2.057 . S
Co414 O445 2.037 . S
Co414 N449 2.145 . S
Co414 N470 2.257 . S
O415 Co413 2.143 . S
O415 Co414 2.160 . S
C416 O417 1.278 . S
C416 O424 1.224 . S
O417 C416 1.278 . S
C418 O419 1.245 . S
C418 O430 1.232 . S
O419 C418 1.245 . S
O420 Co414 2.058 . S
O420 C446 1.269 . S
O421 Co413 2.074 . S
O421 C446 1.257 . S
H422 C447 0.930 . S
H423 C453 0.930 . S
O424 Co413 2.093 . S
O424 C416 1.224 . S
H425 C457 0.929 . S
H426 C459 0.930 . S
H427 C460 0.930 . S
H428 C458 0.929 . S
H429 C461 0.928 . S
O430 Co414 2.057 . S
O430 C418 1.232 . S
H431 C450 0.929 . S
H432 C451 0.929 . S
H433 C463 0.931 . S
H434 C455 0.929 . S
H435 C464 0.930 . S
H436 C456 0.931 . S
O437 Co413 2.097 . S
O437 C465 1.214 . S
H438 C466 0.929 . S
H439 C467 0.929 . S
H440 C468 0.930 . S
H441 C469 0.929 . S
H442 C471 0.930 . S
H443 C448 0.930 . S
H444 C452 0.930 . S
O445 Co414 2.037 . S
O445 C465 1.234 . S
C446 O420 1.269 . S
C446 O421 1.257 . S
C447 H422 0.930 . S
C447 C450 1.388 . S
C447 C452 1.418 . S
C448 H443 0.930 . S
C448 C451 1.404 . S
C448 C452 1.353 . S
N449 Co414 2.145 . S
N449 C450 1.397 . S
N449 C451 1.334 . S
C450 H431 0.929 . S
C450 C447 1.388 . S
C450 N449 1.397 . S
C451 H432 0.929 . S
C451 C448 1.404 . S
C451 N449 1.334 . S
C452 H444 0.930 . S
C452 C447 1.418 . S
C452 C448 1.353 . S
C453 H423 0.930 . S
C453 N454 1.330 . S
C453 C455 1.446 . S
N454 Co413 2.151 . S
N454 C453 1.330 . S
N454 C458 1.418 . S
C455 H434 0.929 . S
C455 C453 1.446 . S
C455 C456 1.332 . S
C456 H436 0.931 . S
C456 C455 1.332 . S
C456 C457 1.267 . S
C457 H425 0.929 . S
C457 C456 1.267 . S
C457 C458 1.251 . S
C458 H428 0.929 . S
C458 N454 1.418 . S
C458 C457 1.251 . S
C459 H426 0.930 . S
C459 C461 1.406 . S
C459 C464 1.261 . S
C460 H427 0.930 . S
C460 N462 1.325 . S
C460 C463 1.357 . S
C461 H429 0.928 . S
C461 C459 1.406 . S
C461 N462 1.261 . S
N462 Co413 2.214 . S
N462 C460 1.325 . S
N462 C461 1.261 . S
C463 H433 0.931 . S
C463 C460 1.357 . S
C463 C464 1.312 . S
C464 H435 0.930 . S
C464 C459 1.261 . S
C464 C463 1.312 . S
C465 O437 1.214 . S
C465 O445 1.234 . S
C466 H438 0.929 . S
C466 C469 1.391 . S
C466 C471 1.391 . S
C467 H439 0.929 . S
C467 C468 1.390 . S
C467 N470 1.391 . S
C468 H440 0.930 . S
C468 C467 1.390 . S
C468 C469 1.392 . S
C469 H441 0.929 . S
C469 C466 1.391 . S
C469 C468 1.392 . S
N470 Co414 2.257 . S
N470 C467 1.391 . S
N470 C471 1.388 . S
C471 H442 0.930 . S
C471 C466 1.391 . S
C471 N470 1.388 . S
Co472 O474 2.143 . S
Co472 O480 2.074 . S
Co472 O483 2.093 . S
Co472 O496 2.097 . S
Co472 N513 2.151 . S
Co472 N521 2.214 . S
Co473 O474 2.160 . S
Co473 O479 2.058 . S
Co473 O489 2.057 . S
Co473 O504 2.037 . S
Co473 N508 2.145 . S
Co473 N529 2.257 . S
O474 Co472 2.143 . S
O474 Co473 2.160 . S
C475 O476 1.278 . S
C475 O483 1.224 . S
O476 C475 1.278 . S
C477 O478 1.245 . S
C477 O489 1.232 . S
O478 C477 1.245 . S
O479 Co473 2.058 . S
O479 C505 1.269 . S
O480 Co472 2.074 . S
O480 C505 1.257 . S
H481 C506 0.930 . S
H482 C512 0.930 . S
O483 Co472 2.093 . S
O483 C475 1.224 . S
H484 C516 0.929 . S
H485 C518 0.930 . S
H486 C519 0.930 . S
H487 C517 0.929 . S
H488 C520 0.928 . S
O489 Co473 2.057 . S
O489 C477 1.232 . S
H490 C509 0.929 . S
H491 C510 0.929 . S
H492 C522 0.931 . S
H493 C514 0.929 . S
H494 C523 0.930 . S
H495 C515 0.931 . S
O496 Co472 2.097 . S
O496 C524 1.214 . S
H497 C525 0.929 . S
H498 C526 0.929 . S
H499 C527 0.930 . S
H500 C528 0.929 . S
H501 C530 0.930 . S
H502 C507 0.930 . S
H503 C511 0.930 . S
O504 Co473 2.037 . S
O504 C524 1.234 . S
C505 O479 1.269 . S
C505 O480 1.257 . S
C506 H481 0.930 . S
C506 C509 1.388 . S
C506 C511 1.418 . S
C507 H502 0.930 . S
C507 C510 1.404 . S
C507 C511 1.353 . S
N508 Co473 2.145 . S
N508 C509 1.397 . S
N508 C510 1.334 . S
C509 H490 0.929 . S
C509 C506 1.388 . S
C509 N508 1.397 . S
C510 H491 0.929 . S
C510 C507 1.404 . S
C510 N508 1.334 . S
C511 H503 0.930 . S
C511 C506 1.418 . S
C511 C507 1.353 . S
C512 H482 0.930 . S
C512 N513 1.330 . S
C512 C514 1.446 . S
N513 Co472 2.151 . S
N513 C512 1.330 . S
N513 C517 1.418 . S
C514 H493 0.929 . S
C514 C512 1.446 . S
C514 C515 1.332 . S
C515 H495 0.931 . S
C515 C514 1.332 . S
C515 C516 1.267 . S
C516 H484 0.929 . S
C516 C515 1.267 . S
C516 C517 1.251 . S
C517 H487 0.929 . S
C517 N513 1.418 . S
C517 C516 1.251 . S
C518 H485 0.930 . S
C518 C520 1.406 . S
C518 C523 1.261 . S
C519 H486 0.930 . S
C519 N521 1.325 . S
C519 C522 1.357 . S
C520 H488 0.928 . S
C520 C518 1.406 . S
C520 N521 1.261 . S
N521 Co472 2.214 . S
N521 C519 1.325 . S
N521 C520 1.261 . S
C522 H492 0.931 . S
C522 C519 1.357 . S
C522 C523 1.312 . S
C523 H494 0.930 . S
C523 C518 1.261 . S
C523 C522 1.312 . S
C524 O496 1.214 . S
C524 O504 1.234 . S
C525 H497 0.929 . S
C525 C528 1.391 . S
C525 C530 1.391 . S
C526 H498 0.929 . S
C526 C527 1.390 . S
C526 N529 1.391 . S
C527 H499 0.930 . S
C527 C526 1.390 . S
C527 C528 1.392 . S
C528 H500 0.929 . S
C528 C525 1.391 . S
C528 C527 1.392 . S
N529 Co473 2.257 . S
N529 C526 1.391 . S
N529 C530 1.388 . S
C530 H501 0.930 . S
C530 C525 1.391 . S
C530 N529 1.388 . S
Co531 O533 2.143 . S
Co531 O539 2.074 . S
Co531 O542 2.093 . S
Co531 O555 2.097 . S
Co531 N572 2.151 . S
Co531 N580 2.214 . S
Co532 O533 2.160 . S
Co532 O538 2.058 . S
Co532 O548 2.057 . S
Co532 O563 2.037 . S
Co532 N567 2.145 . S
Co532 N588 2.257 . S
O533 Co531 2.143 . S
O533 Co532 2.160 . S
C534 O535 1.278 . S
C534 O542 1.224 . S
O535 C534 1.278 . S
C536 O537 1.245 . S
C536 O548 1.232 . S
O537 C536 1.245 . S
O538 Co532 2.058 . S
O538 C564 1.269 . S
O539 Co531 2.074 . S
O539 C564 1.257 . S
H540 C565 0.930 . S
H541 C571 0.930 . S
O542 Co531 2.093 . S
O542 C534 1.224 . S
H543 C575 0.929 . S
H544 C577 0.930 . S
H545 C578 0.930 . S
H546 C576 0.929 . S
H547 C579 0.928 . S
O548 Co532 2.057 . S
O548 C536 1.232 . S
H549 C568 0.929 . S
H550 C569 0.929 . S
H551 C581 0.931 . S
H552 C573 0.929 . S
H553 C582 0.930 . S
H554 C574 0.931 . S
O555 Co531 2.097 . S
O555 C583 1.214 . S
H556 C584 0.929 . S
H557 C585 0.929 . S
H558 C586 0.930 . S
H559 C587 0.929 . S
H560 C589 0.930 . S
H561 C566 0.930 . S
H562 C570 0.930 . S
O563 Co532 2.037 . S
O563 C583 1.234 . S
C564 O538 1.269 . S
C564 O539 1.257 . S
C565 H540 0.930 . S
C565 C568 1.388 . S
C565 C570 1.418 . S
C566 H561 0.930 . S
C566 C569 1.404 . S
C566 C570 1.353 . S
N567 Co532 2.145 . S
N567 C568 1.397 . S
N567 C569 1.334 . S
C568 H549 0.929 . S
C568 C565 1.388 . S
C568 N567 1.397 . S
C569 H550 0.929 . S
C569 C566 1.404 . S
C569 N567 1.334 . S
C570 H562 0.930 . S
C570 C565 1.418 . S
C570 C566 1.353 . S
C571 H541 0.930 . S
C571 N572 1.330 . S
C571 C573 1.446 . S
N572 Co531 2.151 . S
N572 C571 1.330 . S
N572 C576 1.418 . S
C573 H552 0.929 . S
C573 C571 1.446 . S
C573 C574 1.332 . S
C574 H554 0.931 . S
C574 C573 1.332 . S
C574 C575 1.267 . S
C575 H543 0.929 . S
C575 C574 1.267 . S
C575 C576 1.251 . S
C576 H546 0.929 . S
C576 N572 1.418 . S
C576 C575 1.251 . S
C577 H544 0.930 . S
C577 C579 1.406 . S
C577 C582 1.261 . S
C578 H545 0.930 . S
C578 N580 1.325 . S
C578 C581 1.357 . S
C579 H547 0.928 . S
C579 C577 1.406 . S
C579 N580 1.261 . S
N580 Co531 2.214 . S
N580 C578 1.325 . S
N580 C579 1.261 . S
C581 H551 0.931 . S
C581 C578 1.357 . S
C581 C582 1.312 . S
C582 H553 0.930 . S
C582 C577 1.261 . S
C582 C581 1.312 . S
C583 O555 1.214 . S
C583 O563 1.234 . S
C584 H556 0.929 . S
C584 C587 1.391 . S
C584 C589 1.391 . S
C585 H557 0.929 . S
C585 C586 1.390 . S
C585 N588 1.391 . S
C586 H558 0.930 . S
C586 C585 1.390 . S
C586 C587 1.392 . S
C587 H559 0.929 . S
C587 C584 1.391 . S
C587 C586 1.392 . S
N588 Co532 2.257 . S
N588 C585 1.391 . S
N588 C589 1.388 . S
C589 H560 0.930 . S
C589 C584 1.391 . S
C589 N588 1.388 . S
Co590 O592 2.143 . S
Co590 O598 2.074 . S
Co590 O601 2.093 . S
Co590 O614 2.097 . S
Co590 N631 2.151 . S
Co590 N639 2.214 . S
Co591 O592 2.160 . S
Co591 O597 2.058 . S
Co591 O607 2.057 . S
Co591 O622 2.037 . S
Co591 N626 2.145 . S
Co591 N647 2.257 . S
O592 Co590 2.143 . S
O592 Co591 2.160 . S
C593 O594 1.278 . S
C593 O601 1.224 . S
O594 C593 1.278 . S
C595 O596 1.245 . S
C595 O607 1.232 . S
O596 C595 1.245 . S
O597 Co591 2.058 . S
O597 C623 1.269 . S
O598 Co590 2.074 . S
O598 C623 1.257 . S
H599 C624 0.930 . S
H600 C630 0.930 . S
O601 Co590 2.093 . S
O601 C593 1.224 . S
H602 C634 0.929 . S
H603 C636 0.930 . S
H604 C637 0.930 . S
H605 C635 0.929 . S
H606 C638 0.928 . S
O607 Co591 2.057 . S
O607 C595 1.232 . S
H608 C627 0.929 . S
H609 C628 0.929 . S
H610 C640 0.931 . S
H611 C632 0.929 . S
H612 C641 0.930 . S
H613 C633 0.931 . S
O614 Co590 2.097 . S
O614 C642 1.214 . S
H615 C643 0.929 . S
H616 C644 0.929 . S
H617 C645 0.930 . S
H618 C646 0.929 . S
H619 C648 0.930 . S
H620 C625 0.930 . S
H621 C629 0.930 . S
O622 Co591 2.037 . S
O622 C642 1.234 . S
C623 O597 1.269 . S
C623 O598 1.257 . S
C624 H599 0.930 . S
C624 C627 1.388 . S
C624 C629 1.418 . S
C625 H620 0.930 . S
C625 C628 1.404 . S
C625 C629 1.353 . S
N626 Co591 2.145 . S
N626 C627 1.397 . S
N626 C628 1.334 . S
C627 H608 0.929 . S
C627 C624 1.388 . S
C627 N626 1.397 . S
C628 H609 0.929 . S
C628 C625 1.404 . S
C628 N626 1.334 . S
C629 H621 0.930 . S
C629 C624 1.418 . S
C629 C625 1.353 . S
C630 H600 0.930 . S
C630 N631 1.330 . S
C630 C632 1.446 . S
N631 Co590 2.151 . S
N631 C630 1.330 . S
N631 C635 1.418 . S
C632 H611 0.929 . S
C632 C630 1.446 . S
C632 C633 1.332 . S
C633 H613 0.931 . S
C633 C632 1.332 . S
C633 C634 1.267 . S
C634 H602 0.929 . S
C634 C633 1.267 . S
C634 C635 1.251 . S
C635 H605 0.929 . S
C635 N631 1.418 . S
C635 C634 1.251 . S
C636 H603 0.930 . S
C636 C638 1.406 . S
C636 C641 1.261 . S
C637 H604 0.930 . S
C637 N639 1.325 . S
C637 C640 1.357 . S
C638 H606 0.928 . S
C638 C636 1.406 . S
C638 N639 1.261 . S
N639 Co590 2.214 . S
N639 C637 1.325 . S
N639 C638 1.261 . S
C640 H610 0.931 . S
C640 C637 1.357 . S
C640 C641 1.312 . S
C641 H612 0.930 . S
C641 C636 1.261 . S
C641 C640 1.312 . S
C642 O614 1.214 . S
C642 O622 1.234 . S
C643 H615 0.929 . S
C643 C646 1.391 . S
C643 C648 1.391 . S
C644 H616 0.929 . S
C644 C645 1.390 . S
C644 N647 1.391 . S
C645 H617 0.930 . S
C645 C644 1.390 . S
C645 C646 1.392 . S
C646 H618 0.929 . S
C646 C643 1.391 . S
C646 C645 1.392 . S
N647 Co591 2.257 . S
N647 C644 1.391 . S
N647 C648 1.388 . S
C648 H619 0.930 . S
C648 C643 1.391 . S
C648 N647 1.388 . S
Co649 O651 2.143 . S
Co649 O657 2.074 . S
Co649 O660 2.093 . S
Co649 O673 2.097 . S
Co649 N690 2.151 . S
Co649 N698 2.214 . S
Co650 O651 2.160 . S
Co650 O656 2.058 . S
Co650 O666 2.057 . S
Co650 O681 2.037 . S
Co650 N685 2.145 . S
Co650 N706 2.257 . S
O651 Co649 2.143 . S
O651 Co650 2.160 . S
C652 O653 1.278 . S
C652 O660 1.224 . S
O653 C652 1.278 . S
C654 O655 1.245 . S
C654 O666 1.232 . S
O655 C654 1.245 . S
O656 Co650 2.058 . S
O656 C682 1.269 . S
O657 Co649 2.074 . S
O657 C682 1.257 . S
H658 C683 0.930 . S
H659 C689 0.930 . S
O660 Co649 2.093 . S
O660 C652 1.224 . S
H661 C693 0.929 . S
H662 C695 0.930 . S
H663 C696 0.930 . S
H664 C694 0.929 . S
H665 C697 0.928 . S
O666 Co650 2.057 . S
O666 C654 1.232 . S
H667 C686 0.929 . S
H668 C687 0.929 . S
H669 C699 0.931 . S
H670 C691 0.929 . S
H671 C700 0.930 . S
H672 C692 0.931 . S
O673 Co649 2.097 . S
O673 C701 1.214 . S
H674 C702 0.929 . S
H675 C703 0.929 . S
H676 C704 0.930 . S
H677 C705 0.929 . S
H678 C707 0.930 . S
H679 C684 0.930 . S
H680 C688 0.930 . S
O681 Co650 2.037 . S
O681 C701 1.234 . S
C682 O656 1.269 . S
C682 O657 1.257 . S
C683 H658 0.930 . S
C683 C686 1.388 . S
C683 C688 1.418 . S
C684 H679 0.930 . S
C684 C687 1.404 . S
C684 C688 1.353 . S
N685 Co650 2.145 . S
N685 C686 1.397 . S
N685 C687 1.334 . S
C686 H667 0.929 . S
C686 C683 1.388 . S
C686 N685 1.397 . S
C687 H668 0.929 . S
C687 C684 1.404 . S
C687 N685 1.334 . S
C688 H680 0.930 . S
C688 C683 1.418 . S
C688 C684 1.353 . S
C689 H659 0.930 . S
C689 N690 1.330 . S
C689 C691 1.446 . S
N690 Co649 2.151 . S
N690 C689 1.330 . S
N690 C694 1.418 . S
C691 H670 0.929 . S
C691 C689 1.446 . S
C691 C692 1.332 . S
C692 H672 0.931 . S
C692 C691 1.332 . S
C692 C693 1.267 . S
C693 H661 0.929 . S
C693 C692 1.267 . S
C693 C694 1.251 . S
C694 H664 0.929 . S
C694 N690 1.418 . S
C694 C693 1.251 . S
C695 H662 0.930 . S
C695 C697 1.406 . S
C695 C700 1.261 . S
C696 H663 0.930 . S
C696 N698 1.325 . S
C696 C699 1.357 . S
C697 H665 0.928 . S
C697 C695 1.406 . S
C697 N698 1.261 . S
N698 Co649 2.214 . S
N698 C696 1.325 . S
N698 C697 1.261 . S
C699 H669 0.931 . S
C699 C696 1.357 . S
C699 C700 1.312 . S
C700 H671 0.930 . S
C700 C695 1.261 . S
C700 C699 1.312 . S
C701 O673 1.214 . S
C701 O681 1.234 . S
C702 H674 0.929 . S
C702 C705 1.391 . S
C702 C707 1.391 . S
C703 H675 0.929 . S
C703 C704 1.390 . S
C703 N706 1.391 . S
C704 H676 0.930 . S
C704 C703 1.390 . S
C704 C705 1.392 . S
C705 H677 0.929 . S
C705 C702 1.391 . S
C705 C704 1.392 . S
N706 Co650 2.257 . S
N706 C703 1.391 . S
N706 C707 1.388 . S
C707 H678 0.930 . S
C707 C702 1.391 . S
C707 N706 1.388 . S
Co708 O710 2.143 . S
Co708 O716 2.074 . S
Co708 O719 2.093 . S
Co708 O732 2.097 . S
Co708 N749 2.151 . S
Co708 N757 2.214 . S
Co709 O710 2.160 . S
Co709 O715 2.058 . S
Co709 O725 2.057 . S
Co709 O740 2.037 . S
Co709 N744 2.145 . S
Co709 N765 2.257 . S
O710 Co708 2.143 . S
O710 Co709 2.160 . S
C711 O712 1.278 . S
C711 O719 1.224 . S
O712 C711 1.278 . S
C713 O714 1.245 . S
C713 O725 1.232 . S
O714 C713 1.245 . S
O715 Co709 2.058 . S
O715 C741 1.269 . S
O716 Co708 2.074 . S
O716 C741 1.257 . S
H717 C742 0.930 . S
H718 C748 0.930 . S
O719 Co708 2.093 . S
O719 C711 1.224 . S
H720 C752 0.929 . S
H721 C754 0.930 . S
H722 C755 0.930 . S
H723 C753 0.929 . S
H724 C756 0.928 . S
O725 Co709 2.057 . S
O725 C713 1.232 . S
H726 C745 0.929 . S
H727 C746 0.929 . S
H728 C758 0.931 . S
H729 C750 0.929 . S
H730 C759 0.930 . S
H731 C751 0.931 . S
O732 Co708 2.097 . S
O732 C760 1.214 . S
H733 C761 0.929 . S
H734 C762 0.929 . S
H735 C763 0.930 . S
H736 C764 0.929 . S
H737 C766 0.930 . S
H738 C743 0.930 . S
H739 C747 0.930 . S
O740 Co709 2.037 . S
O740 C760 1.234 . S
C741 O715 1.269 . S
C741 O716 1.257 . S
C742 H717 0.930 . S
C742 C745 1.388 . S
C742 C747 1.418 . S
C743 H738 0.930 . S
C743 C746 1.404 . S
C743 C747 1.353 . S
N744 Co709 2.145 . S
N744 C745 1.397 . S
N744 C746 1.334 . S
C745 H726 0.929 . S
C745 C742 1.388 . S
C745 N744 1.397 . S
C746 H727 0.929 . S
C746 C743 1.404 . S
C746 N744 1.334 . S
C747 H739 0.930 . S
C747 C742 1.418 . S
C747 C743 1.353 . S
C748 H718 0.930 . S
C748 N749 1.330 . S
C748 C750 1.446 . S
N749 Co708 2.151 . S
N749 C748 1.330 . S
N749 C753 1.418 . S
C750 H729 0.929 . S
C750 C748 1.446 . S
C750 C751 1.332 . S
C751 H731 0.931 . S
C751 C750 1.332 . S
C751 C752 1.267 . S
C752 H720 0.929 . S
C752 C751 1.267 . S
C752 C753 1.251 . S
C753 H723 0.929 . S
C753 N749 1.418 . S
C753 C752 1.251 . S
C754 H721 0.930 . S
C754 C756 1.406 . S
C754 C759 1.261 . S
C755 H722 0.930 . S
C755 N757 1.325 . S
C755 C758 1.357 . S
C756 H724 0.928 . S
C756 C754 1.406 . S
C756 N757 1.261 . S
N757 Co708 2.214 . S
N757 C755 1.325 . S
N757 C756 1.261 . S
C758 H728 0.931 . S
C758 C755 1.357 . S
C758 C759 1.312 . S
C759 H730 0.930 . S
C759 C754 1.261 . S
C759 C758 1.312 . S
C760 O732 1.214 . S
C760 O740 1.234 . S
C761 H733 0.929 . S
C761 C764 1.391 . S
C761 C766 1.391 . S
C762 H734 0.929 . S
C762 C763 1.390 . S
C762 N765 1.391 . S
C763 H735 0.930 . S
C763 C762 1.390 . S
C763 C764 1.392 . S
C764 H736 0.929 . S
C764 C761 1.391 . S
C764 C763 1.392 . S
N765 Co709 2.257 . S
N765 C762 1.391 . S
N765 C766 1.388 . S
C766 H737 0.930 . S
C766 C761 1.391 . S
C766 N765 1.388 . S
Co767 O769 2.143 . S
Co767 O775 2.074 . S
Co767 O778 2.093 . S
Co767 O791 2.097 . S
Co767 N808 2.151 . S
Co767 N816 2.214 . S
Co768 O769 2.160 . S
Co768 O774 2.058 . S
Co768 O784 2.057 . S
Co768 O799 2.037 . S
Co768 N803 2.145 . S
Co768 N824 2.257 . S
O769 Co767 2.143 . S
O769 Co768 2.160 . S
C770 O771 1.278 . S
C770 O778 1.224 . S
O771 C770 1.278 . S
C772 O773 1.245 . S
C772 O784 1.232 . S
O773 C772 1.245 . S
O774 Co768 2.058 . S
O774 C800 1.269 . S
O775 Co767 2.074 . S
O775 C800 1.257 . S
H776 C801 0.930 . S
H777 C807 0.930 . S
O778 Co767 2.093 . S
O778 C770 1.224 . S
H779 C811 0.929 . S
H780 C813 0.930 . S
H781 C814 0.930 . S
H782 C812 0.929 . S
H783 C815 0.928 . S
O784 Co768 2.057 . S
O784 C772 1.232 . S
H785 C804 0.929 . S
H786 C805 0.929 . S
H787 C817 0.931 . S
H788 C809 0.929 . S
H789 C818 0.930 . S
H790 C810 0.931 . S
O791 Co767 2.097 . S
O791 C819 1.214 . S
H792 C820 0.929 . S
H793 C821 0.929 . S
H794 C822 0.930 . S
H795 C823 0.929 . S
H796 C825 0.930 . S
H797 C802 0.930 . S
H798 C806 0.930 . S
O799 Co768 2.037 . S
O799 C819 1.234 . S
C800 O774 1.269 . S
C800 O775 1.257 . S
C801 H776 0.930 . S
C801 C804 1.388 . S
C801 C806 1.418 . S
C802 H797 0.930 . S
C802 C805 1.404 . S
C802 C806 1.353 . S
N803 Co768 2.145 . S
N803 C804 1.397 . S
N803 C805 1.334 . S
C804 H785 0.929 . S
C804 C801 1.388 . S
C804 N803 1.397 . S
C805 H786 0.929 . S
C805 C802 1.404 . S
C805 N803 1.334 . S
C806 H798 0.930 . S
C806 C801 1.418 . S
C806 C802 1.353 . S
C807 H777 0.930 . S
C807 N808 1.330 . S
C807 C809 1.446 . S
N808 Co767 2.151 . S
N808 C807 1.330 . S
N808 C812 1.418 . S
C809 H788 0.929 . S
C809 C807 1.446 . S
C809 C810 1.332 . S
C810 H790 0.931 . S
C810 C809 1.332 . S
C810 C811 1.267 . S
C811 H779 0.929 . S
C811 C810 1.267 . S
C811 C812 1.251 . S
C812 H782 0.929 . S
C812 N808 1.418 . S
C812 C811 1.251 . S
C813 H780 0.930 . S
C813 C815 1.406 . S
C813 C818 1.261 . S
C814 H781 0.930 . S
C814 N816 1.325 . S
C814 C817 1.357 . S
C815 H783 0.928 . S
C815 C813 1.406 . S
C815 N816 1.261 . S
N816 Co767 2.214 . S
N816 C814 1.325 . S
N816 C815 1.261 . S
C817 H787 0.931 . S
C817 C814 1.357 . S
C817 C818 1.312 . S
C818 H789 0.930 . S
C818 C813 1.261 . S
C818 C817 1.312 . S
C819 O791 1.214 . S
C819 O799 1.234 . S
C820 H792 0.929 . S
C820 C823 1.391 . S
C820 C825 1.391 . S
C821 H793 0.929 . S
C821 C822 1.390 . S
C821 N824 1.391 . S
C822 H794 0.930 . S
C822 C821 1.390 . S
C822 C823 1.392 . S
C823 H795 0.929 . S
C823 C820 1.391 . S
C823 C822 1.392 . S
N824 Co768 2.257 . S
N824 C821 1.391 . S
N824 C825 1.388 . S
C825 H796 0.930 . S
C825 C820 1.391 . S
C825 N824 1.388 . S
Co826 O828 2.143 . S
Co826 O834 2.074 . S
Co826 O837 2.093 . S
Co826 O850 2.097 . S
Co826 N867 2.151 . S
Co826 N875 2.214 . S
Co827 O828 2.160 . S
Co827 O833 2.058 . S
Co827 O843 2.057 . S
Co827 O858 2.037 . S
Co827 N862 2.145 . S
Co827 N883 2.257 . S
O828 Co826 2.143 . S
O828 Co827 2.160 . S
C829 O830 1.278 . S
C829 O837 1.224 . S
O830 C829 1.278 . S
C831 O832 1.245 . S
C831 O843 1.232 . S
O832 C831 1.245 . S
O833 Co827 2.058 . S
O833 C859 1.269 . S
O834 Co826 2.074 . S
O834 C859 1.257 . S
H835 C860 0.930 . S
H836 C866 0.930 . S
O837 Co826 2.093 . S
O837 C829 1.224 . S
H838 C870 0.929 . S
H839 C872 0.930 . S
H840 C873 0.930 . S
H841 C871 0.929 . S
H842 C874 0.928 . S
O843 Co827 2.057 . S
O843 C831 1.232 . S
H844 C863 0.929 . S
H845 C864 0.929 . S
H846 C876 0.931 . S
H847 C868 0.929 . S
H848 C877 0.930 . S
H849 C869 0.931 . S
O850 Co826 2.097 . S
O850 C878 1.214 . S
H851 C879 0.929 . S
H852 C880 0.929 . S
H853 C881 0.930 . S
H854 C882 0.929 . S
H855 C884 0.930 . S
H856 C861 0.930 . S
H857 C865 0.930 . S
O858 Co827 2.037 . S
O858 C878 1.234 . S
C859 O833 1.269 . S
C859 O834 1.257 . S
C860 H835 0.930 . S
C860 C863 1.388 . S
C860 C865 1.418 . S
C861 H856 0.930 . S
C861 C864 1.404 . S
C861 C865 1.353 . S
N862 Co827 2.145 . S
N862 C863 1.397 . S
N862 C864 1.334 . S
C863 H844 0.929 . S
C863 C860 1.388 . S
C863 N862 1.397 . S
C864 H845 0.929 . S
C864 C861 1.404 . S
C864 N862 1.334 . S
C865 H857 0.930 . S
C865 C860 1.418 . S
C865 C861 1.353 . S
C866 H836 0.930 . S
C866 N867 1.330 . S
C866 C868 1.446 . S
N867 Co826 2.151 . S
N867 C866 1.330 . S
N867 C871 1.418 . S
C868 H847 0.929 . S
C868 C866 1.446 . S
C868 C869 1.332 . S
C869 H849 0.931 . S
C869 C868 1.332 . S
C869 C870 1.267 . S
C870 H838 0.929 . S
C870 C869 1.267 . S
C870 C871 1.251 . S
C871 H841 0.929 . S
C871 N867 1.418 . S
C871 C870 1.251 . S
C872 H839 0.930 . S
C872 C874 1.406 . S
C872 C877 1.261 . S
C873 H840 0.930 . S
C873 N875 1.325 . S
C873 C876 1.357 . S
C874 H842 0.928 . S
C874 C872 1.406 . S
C874 N875 1.261 . S
N875 Co826 2.214 . S
N875 C873 1.325 . S
N875 C874 1.261 . S
C876 H846 0.931 . S
C876 C873 1.357 . S
C876 C877 1.312 . S
C877 H848 0.930 . S
C877 C872 1.261 . S
C877 C876 1.312 . S
C878 O850 1.214 . S
C878 O858 1.234 . S
C879 H851 0.929 . S
C879 C882 1.391 . S
C879 C884 1.391 . S
C880 H852 0.929 . S
C880 C881 1.390 . S
C880 N883 1.391 . S
C881 H853 0.930 . S
C881 C880 1.390 . S
C881 C882 1.392 . S
C882 H854 0.929 . S
C882 C879 1.391 . S
C882 C881 1.392 . S
N883 Co827 2.257 . S
N883 C880 1.391 . S
N883 C884 1.388 . S
C884 H855 0.930 . S
C884 C879 1.391 . S
C884 N883 1.388 . S
Co885 O887 2.143 . S
Co885 O893 2.074 . S
Co885 O896 2.093 . S
Co885 O909 2.097 . S
Co885 N926 2.151 . S
Co885 N934 2.214 . S
Co886 O887 2.160 . S
Co886 O892 2.058 . S
Co886 O902 2.057 . S
Co886 O917 2.037 . S
Co886 N921 2.145 . S
Co886 N942 2.257 . S
O887 Co885 2.143 . S
O887 Co886 2.160 . S
C888 O889 1.278 . S
C888 O896 1.224 . S
O889 C888 1.278 . S
C890 O891 1.245 . S
C890 O902 1.232 . S
O891 C890 1.245 . S
O892 Co886 2.058 . S
O892 C918 1.269 . S
O893 Co885 2.074 . S
O893 C918 1.257 . S
H894 C919 0.930 . S
H895 C925 0.930 . S
O896 Co885 2.093 . S
O896 C888 1.224 . S
H897 C929 0.929 . S
H898 C931 0.930 . S
H899 C932 0.930 . S
H900 C930 0.929 . S
H901 C933 0.928 . S
O902 Co886 2.057 . S
O902 C890 1.232 . S
H903 C922 0.929 . S
H904 C923 0.929 . S
H905 C935 0.931 . S
H906 C927 0.929 . S
H907 C936 0.930 . S
H908 C928 0.931 . S
O909 Co885 2.097 . S
O909 C937 1.214 . S
H910 C938 0.929 . S
H911 C939 0.929 . S
H912 C940 0.930 . S
H913 C941 0.929 . S
H914 C943 0.930 . S
H915 C920 0.930 . S
H916 C924 0.930 . S
O917 Co886 2.037 . S
O917 C937 1.234 . S
C918 O892 1.269 . S
C918 O893 1.257 . S
C919 H894 0.930 . S
C919 C922 1.388 . S
C919 C924 1.418 . S
C920 H915 0.930 . S
C920 C923 1.404 . S
C920 C924 1.353 . S
N921 Co886 2.145 . S
N921 C922 1.397 . S
N921 C923 1.334 . S
C922 H903 0.929 . S
C922 C919 1.388 . S
C922 N921 1.397 . S
C923 H904 0.929 . S
C923 C920 1.404 . S
C923 N921 1.334 . S
C924 H916 0.930 . S
C924 C919 1.418 . S
C924 C920 1.353 . S
C925 H895 0.930 . S
C925 N926 1.330 . S
C925 C927 1.446 . S
N926 Co885 2.151 . S
N926 C925 1.330 . S
N926 C930 1.418 . S
C927 H906 0.929 . S
C927 C925 1.446 . S
C927 C928 1.332 . S
C928 H908 0.931 . S
C928 C927 1.332 . S
C928 C929 1.267 . S
C929 H897 0.929 . S
C929 C928 1.267 . S
C929 C930 1.251 . S
C930 H900 0.929 . S
C930 N926 1.418 . S
C930 C929 1.251 . S
C931 H898 0.930 . S
C931 C933 1.406 . S
C931 C936 1.261 . S
C932 H899 0.930 . S
C932 N934 1.325 . S
C932 C935 1.357 . S
C933 H901 0.928 . S
C933 C931 1.406 . S
C933 N934 1.261 . S
N934 Co885 2.214 . S
N934 C932 1.325 . S
N934 C933 1.261 . S
C935 H905 0.931 . S
C935 C932 1.357 . S
C935 C936 1.312 . S
C936 H907 0.930 . S
C936 C931 1.261 . S
C936 C935 1.312 . S
C937 O909 1.214 . S
C937 O917 1.234 . S
C938 H910 0.929 . S
C938 C941 1.391 . S
C938 C943 1.391 . S
C939 H911 0.929 . S
C939 C940 1.390 . S
C939 N942 1.391 . S
C940 H912 0.930 . S
C940 C939 1.390 . S
C940 C941 1.392 . S
C941 H913 0.929 . S
C941 C938 1.391 . S
C941 C940 1.392 . S
N942 Co886 2.257 . S
N942 C939 1.391 . S
N942 C943 1.388 . S
C943 H914 0.930 . S
C943 C938 1.391 . S
C943 N942 1.388 . S
C944 C945 1.349 . S
C944 C946 1.327 . S
C944 H969 0.950 . S
C945 C944 1.349 . S
C945 C961 1.349 . S
C946 C944 1.327 . S
C946 C965 1.429 . S
C946 H970 0.950 . S
C947 C964 1.574 . S
C947 C966 1.368 . S
C947 H971 0.949 . S
H948 C952 0.949 . S
C949 C950 1.349 . S
C949 C951 1.327 . S
C949 H972 0.950 . S
C950 C949 1.349 . S
C950 C962 1.349 . S
C951 C949 1.327 . S
C951 C967 1.429 . S
C951 H973 0.950 . S
C952 H948 0.949 . S
C952 C960 1.574 . S
C952 C968 1.368 . S
H953 C961 0.950 . S
H954 C959 0.950 . S
H955 C960 0.949 . S
H956 C962 0.950 . S
H957 C963 0.950 . S
H958 C964 0.949 . S
C959 H954 0.950 . S
C959 C961 1.327 . S
C959 C965 1.429 . S
C960 C952 1.574 . S
C960 H955 0.949 . S
C960 C966 1.368 . S
C961 C945 1.349 . S
C961 H953 0.950 . S
C961 C959 1.327 . S
C962 C950 1.349 . S
C962 H956 0.950 . S
C962 C963 1.327 . S
C963 H957 0.950 . S
C963 C962 1.327 . S
C963 C967 1.429 . S
C964 C947 1.574 . S
C964 H958 0.949 . S
C964 C968 1.368 . S
C965 C946 1.429 . S
C965 C959 1.429 . S
C965 C966 1.523 . S
C966 C947 1.368 . S
C966 C960 1.368 . S
C966 C965 1.523 . S
C967 C951 1.429 . S
C967 C963 1.429 . S
C967 C968 1.523 . S
C968 C952 1.368 . S
C968 C964 1.368 . S
C968 C967 1.523 . S
H969 C944 0.950 . S
H970 C946 0.950 . S
H971 C947 0.949 . S
H972 C949 0.950 . S
H973 C951 0.950 . S
C974 C975 1.349 . S
C974 C976 1.327 . S
C974 H999 0.950 . S
C975 C974 1.349 . S
C975 C991 1.349 . S
C976 C974 1.327 . S
C976 C995 1.429 . S
C976 H1000 0.950 . S
C977 C994 1.574 . S
C977 C996 1.368 . S
C977 H1001 0.949 . S
H978 C982 0.949 . S
C979 C980 1.349 . S
C979 C981 1.327 . S
C979 H1002 0.950 . S
C980 C979 1.349 . S
C980 C992 1.349 . S
C981 C979 1.327 . S
C981 C997 1.429 . S
C981 H1003 0.950 . S
C982 H978 0.949 . S
C982 C990 1.574 . S
C982 C998 1.368 . S
H983 C991 0.950 . S
H984 C989 0.950 . S
H985 C990 0.949 . S
H986 C992 0.950 . S
H987 C993 0.950 . S
H988 C994 0.949 . S
C989 H984 0.950 . S
C989 C991 1.327 . S
C989 C995 1.429 . S
C990 C982 1.574 . S
C990 H985 0.949 . S
C990 C996 1.368 . S
C991 C975 1.349 . S
C991 H983 0.950 . S
C991 C989 1.327 . S
C992 C980 1.349 . S
C992 H986 0.950 . S
C992 C993 1.327 . S
C993 H987 0.950 . S
C993 C992 1.327 . S
C993 C997 1.429 . S
C994 C977 1.574 . S
C994 H988 0.949 . S
C994 C998 1.368 . S
C995 C976 1.429 . S
C995 C989 1.429 . S
C995 C996 1.523 . S
C996 C977 1.368 . S
C996 C990 1.368 . S
C996 C995 1.523 . S
C997 C981 1.429 . S
C997 C993 1.429 . S
C997 C998 1.523 . S
C998 C982 1.368 . S
C998 C994 1.368 . S
C998 C997 1.523 . S
H999 C974 0.950 . S
H1000 C976 0.950 . S
H1001 C977 0.949 . S
H1002 C979 0.950 . S
H1003 C981 0.950 . S
C1004 C1005 1.349 . S
C1004 C1006 1.327 . S
C1004 H1029 0.950 . S
C1005 C1004 1.349 . S
C1005 C1021 1.349 . S
C1006 C1004 1.327 . S
C1006 C1025 1.429 . S
C1006 H1030 0.950 . S
C1007 C1024 1.574 . S
C1007 C1026 1.368 . S
C1007 H1031 0.949 . S
H1008 C1012 0.949 . S
C1009 C1010 1.349 . S
C1009 C1011 1.327 . S
C1009 H1032 0.950 . S
C1010 C1009 1.349 . S
C1010 C1022 1.349 . S
C1011 C1009 1.327 . S
C1011 C1027 1.429 . S
C1011 H1033 0.950 . S
C1012 H1008 0.949 . S
C1012 C1020 1.574 . S
C1012 C1028 1.368 . S
H1013 C1021 0.950 . S
H1014 C1019 0.950 . S
H1015 C1020 0.949 . S
H1016 C1022 0.950 . S
H1017 C1023 0.950 . S
H1018 C1024 0.949 . S
C1019 H1014 0.950 . S
C1019 C1021 1.327 . S
C1019 C1025 1.429 . S
C1020 C1012 1.574 . S
C1020 H1015 0.949 . S
C1020 C1026 1.368 . S
C1021 C1005 1.349 . S
C1021 H1013 0.950 . S
C1021 C1019 1.327 . S
C1022 C1010 1.349 . S
C1022 H1016 0.950 . S
C1022 C1023 1.327 . S
C1023 H1017 0.950 . S
C1023 C1022 1.327 . S
C1023 C1027 1.429 . S
C1024 C1007 1.574 . S
C1024 H1018 0.949 . S
C1024 C1028 1.368 . S
C1025 C1006 1.429 . S
C1025 C1019 1.429 . S
C1025 C1026 1.523 . S
C1026 C1007 1.368 . S
C1026 C1020 1.368 . S
C1026 C1025 1.523 . S
C1027 C1011 1.429 . S
C1027 C1023 1.429 . S
C1027 C1028 1.523 . S
C1028 C1012 1.368 . S
C1028 C1024 1.368 . S
C1028 C1027 1.523 . S
H1029 C1004 0.950 . S
H1030 C1006 0.950 . S
H1031 C1007 0.949 . S
H1032 C1009 0.950 . S
H1033 C1011 0.950 . S
C1034 C1035 1.349 . S
C1034 C1036 1.327 . S
C1034 H1059 0.950 . S
C1035 C1034 1.349 . S
C1035 C1051 1.349 . S
C1036 C1034 1.327 . S
C1036 C1055 1.429 . S
C1036 H1060 0.950 . S
C1037 C1054 1.574 . S
C1037 C1056 1.368 . S
C1037 H1061 0.949 . S
H1038 C1042 0.949 . S
C1039 C1040 1.349 . S
C1039 C1041 1.327 . S
C1039 H1062 0.950 . S
C1040 C1039 1.349 . S
C1040 C1052 1.349 . S
C1041 C1039 1.327 . S
C1041 C1057 1.429 . S
C1041 H1063 0.950 . S
C1042 H1038 0.949 . S
C1042 C1050 1.574 . S
C1042 C1058 1.368 . S
H1043 C1051 0.950 . S
H1044 C1049 0.950 . S
H1045 C1050 0.949 . S
H1046 C1052 0.950 . S
H1047 C1053 0.950 . S
H1048 C1054 0.949 . S
C1049 H1044 0.950 . S
C1049 C1051 1.327 . S
C1049 C1055 1.429 . S
C1050 C1042 1.574 . S
C1050 H1045 0.949 . S
C1050 C1056 1.368 . S
C1051 C1035 1.349 . S
C1051 H1043 0.950 . S
C1051 C1049 1.327 . S
C1052 C1040 1.349 . S
C1052 H1046 0.950 . S
C1052 C1053 1.327 . S
C1053 H1047 0.950 . S
C1053 C1052 1.327 . S
C1053 C1057 1.429 . S
C1054 C1037 1.574 . S
C1054 H1048 0.949 . S
C1054 C1058 1.368 . S
C1055 C1036 1.429 . S
C1055 C1049 1.429 . S
C1055 C1056 1.523 . S
C1056 C1037 1.368 . S
C1056 C1050 1.368 . S
C1056 C1055 1.523 . S
C1057 C1041 1.429 . S
C1057 C1053 1.429 . S
C1057 C1058 1.523 . S
C1058 C1042 1.368 . S
C1058 C1054 1.368 . S
C1058 C1057 1.523 . S
H1059 C1034 0.950 . S
H1060 C1036 0.950 . S
H1061 C1037 0.949 . S
H1062 C1039 0.950 . S
H1063 C1041 0.950 . S
C1064 C1065 1.349 . S
C1064 C1066 1.327 . S
C1064 H1089 0.950 . S
C1065 C1064 1.349 . S
C1065 C1081 1.349 . S
C1066 C1064 1.327 . S
C1066 C1085 1.429 . S
C1066 H1090 0.950 . S
C1067 C1084 1.574 . S
C1067 C1086 1.368 . S
C1067 H1091 0.949 . S
H1068 C1072 0.949 . S
C1069 C1070 1.349 . S
C1069 C1071 1.327 . S
C1069 H1092 0.950 . S
C1070 C1069 1.349 . S
C1070 C1082 1.349 . S
C1071 C1069 1.327 . S
C1071 C1087 1.429 . S
C1071 H1093 0.950 . S
C1072 H1068 0.949 . S
C1072 C1080 1.574 . S
C1072 C1088 1.368 . S
H1073 C1081 0.950 . S
H1074 C1079 0.950 . S
H1075 C1080 0.949 . S
H1076 C1082 0.950 . S
H1077 C1083 0.950 . S
H1078 C1084 0.949 . S
C1079 H1074 0.950 . S
C1079 C1081 1.327 . S
C1079 C1085 1.429 . S
C1080 C1072 1.574 . S
C1080 H1075 0.949 . S
C1080 C1086 1.368 . S
C1081 C1065 1.349 . S
C1081 H1073 0.950 . S
C1081 C1079 1.327 . S
C1082 C1070 1.349 . S
C1082 H1076 0.950 . S
C1082 C1083 1.327 . S
C1083 H1077 0.950 . S
C1083 C1082 1.327 . S
C1083 C1087 1.429 . S
C1084 C1067 1.574 . S
C1084 H1078 0.949 . S
C1084 C1088 1.368 . S
C1085 C1066 1.429 . S
C1085 C1079 1.429 . S
C1085 C1086 1.523 . S
C1086 C1067 1.368 . S
C1086 C1080 1.368 . S
C1086 C1085 1.523 . S
C1087 C1071 1.429 . S
C1087 C1083 1.429 . S
C1087 C1088 1.523 . S
C1088 C1072 1.368 . S
C1088 C1084 1.368 . S
C1088 C1087 1.523 . S
H1089 C1064 0.950 . S
H1090 C1066 0.950 . S
H1091 C1067 0.949 . S
H1092 C1069 0.950 . S
H1093 C1071 0.950 . S
C1094 C1095 1.349 . S
C1094 C1096 1.327 . S
C1094 H1119 0.950 . S
C1095 C1094 1.349 . S
C1095 C1111 1.349 . S
C1096 C1094 1.327 . S
C1096 C1115 1.429 . S
C1096 H1120 0.950 . S
C1097 C1114 1.574 . S
C1097 C1116 1.368 . S
C1097 H1121 0.949 . S
H1098 C1102 0.949 . S
C1099 C1100 1.349 . S
C1099 C1101 1.327 . S
C1099 H1122 0.950 . S
C1100 C1099 1.349 . S
C1100 C1112 1.349 . S
C1101 C1099 1.327 . S
C1101 C1117 1.429 . S
C1101 H1123 0.950 . S
C1102 H1098 0.949 . S
C1102 C1110 1.574 . S
C1102 C1118 1.368 . S
H1103 C1111 0.950 . S
H1104 C1109 0.950 . S
H1105 C1110 0.949 . S
H1106 C1112 0.950 . S
H1107 C1113 0.950 . S
H1108 C1114 0.949 . S
C1109 H1104 0.950 . S
C1109 C1111 1.327 . S
C1109 C1115 1.429 . S
C1110 C1102 1.574 . S
C1110 H1105 0.949 . S
C1110 C1116 1.368 . S
C1111 C1095 1.349 . S
C1111 H1103 0.950 . S
C1111 C1109 1.327 . S
C1112 C1100 1.349 . S
C1112 H1106 0.950 . S
C1112 C1113 1.327 . S
C1113 H1107 0.950 . S
C1113 C1112 1.327 . S
C1113 C1117 1.429 . S
C1114 C1097 1.574 . S
C1114 H1108 0.949 . S
C1114 C1118 1.368 . S
C1115 C1096 1.429 . S
C1115 C1109 1.429 . S
C1115 C1116 1.523 . S
C1116 C1097 1.368 . S
C1116 C1110 1.368 . S
C1116 C1115 1.523 . S
C1117 C1101 1.429 . S
C1117 C1113 1.429 . S
C1117 C1118 1.523 . S
C1118 C1102 1.368 . S
C1118 C1114 1.368 . S
C1118 C1117 1.523 . S
H1119 C1094 0.950 . S
H1120 C1096 0.950 . S
H1121 C1097 0.949 . S
H1122 C1099 0.950 . S
H1123 C1101 0.950 . S
C1124 C1125 1.349 . S
C1124 C1126 1.327 . S
C1124 H1149 0.950 . S
C1125 C1124 1.349 . S
C1125 C1141 1.349 . S
C1126 C1124 1.327 . S
C1126 C1145 1.429 . S
C1126 H1150 0.950 . S
C1127 C1144 1.574 . S
C1127 C1146 1.368 . S
C1127 H1151 0.949 . S
H1128 C1132 0.949 . S
C1129 C1130 1.349 . S
C1129 C1131 1.327 . S
C1129 H1152 0.950 . S
C1130 C1129 1.349 . S
C1130 C1142 1.349 . S
C1131 C1129 1.327 . S
C1131 C1147 1.429 . S
C1131 H1153 0.950 . S
C1132 H1128 0.949 . S
C1132 C1140 1.574 . S
C1132 C1148 1.368 . S
H1133 C1141 0.950 . S
H1134 C1139 0.950 . S
H1135 C1140 0.949 . S
H1136 C1142 0.950 . S
H1137 C1143 0.950 . S
H1138 C1144 0.949 . S
C1139 H1134 0.950 . S
C1139 C1141 1.327 . S
C1139 C1145 1.429 . S
C1140 C1132 1.574 . S
C1140 H1135 0.949 . S
C1140 C1146 1.368 . S
C1141 C1125 1.349 . S
C1141 H1133 0.950 . S
C1141 C1139 1.327 . S
C1142 C1130 1.349 . S
C1142 H1136 0.950 . S
C1142 C1143 1.327 . S
C1143 H1137 0.950 . S
C1143 C1142 1.327 . S
C1143 C1147 1.429 . S
C1144 C1127 1.574 . S
C1144 H1138 0.949 . S
C1144 C1148 1.368 . S
C1145 C1126 1.429 . S
C1145 C1139 1.429 . S
C1145 C1146 1.523 . S
C1146 C1127 1.368 . S
C1146 C1140 1.368 . S
C1146 C1145 1.523 . S
C1147 C1131 1.429 . S
C1147 C1143 1.429 . S
C1147 C1148 1.523 . S
C1148 C1132 1.368 . S
C1148 C1144 1.368 . S
C1148 C1147 1.523 . S
H1149 C1124 0.950 . S
H1150 C1126 0.950 . S
H1151 C1127 0.949 . S
H1152 C1129 0.950 . S
H1153 C1131 0.950 . S
C1154 C1155 1.349 . S
C1154 C1156 1.327 . S
C1154 H1179 0.950 . S
C1155 C1154 1.349 . S
C1155 C1171 1.349 . S
C1156 C1154 1.327 . S
C1156 C1175 1.429 . S
C1156 H1180 0.950 . S
C1157 C1174 1.574 . S
C1157 C1176 1.368 . S
C1157 H1181 0.949 . S
H1158 C1162 0.949 . S
C1159 C1160 1.349 . S
C1159 C1161 1.327 . S
C1159 H1182 0.950 . S
C1160 C1159 1.349 . S
C1160 C1172 1.349 . S
C1161 C1159 1.327 . S
C1161 C1177 1.429 . S
C1161 H1183 0.950 . S
C1162 H1158 0.949 . S
C1162 C1170 1.574 . S
C1162 C1178 1.368 . S
H1163 C1171 0.950 . S
H1164 C1169 0.950 . S
H1165 C1170 0.949 . S
H1166 C1172 0.950 . S
H1167 C1173 0.950 . S
H1168 C1174 0.949 . S
C1169 H1164 0.950 . S
C1169 C1171 1.327 . S
C1169 C1175 1.429 . S
C1170 C1162 1.574 . S
C1170 H1165 0.949 . S
C1170 C1176 1.368 . S
C1171 C1155 1.349 . S
C1171 H1163 0.950 . S
C1171 C1169 1.327 . S
C1172 C1160 1.349 . S
C1172 H1166 0.950 . S
C1172 C1173 1.327 . S
C1173 H1167 0.950 . S
C1173 C1172 1.327 . S
C1173 C1177 1.429 . S
C1174 C1157 1.574 . S
C1174 H1168 0.949 . S
C1174 C1178 1.368 . S
C1175 C1156 1.429 . S
C1175 C1169 1.429 . S
C1175 C1176 1.523 . S
C1176 C1157 1.368 . S
C1176 C1170 1.368 . S
C1176 C1175 1.523 . S
C1177 C1161 1.429 . S
C1177 C1173 1.429 . S
C1177 C1178 1.523 . S
C1178 C1162 1.368 . S
C1178 C1174 1.368 . S
C1178 C1177 1.523 . S
H1179 C1154 0.950 . S
H1180 C1156 0.950 . S
H1181 C1157 0.949 . S
H1182 C1159 0.950 . S
H1183 C1161 0.950 . S
C1184 C1185 1.349 . S
C1184 C1186 1.327 . S
C1184 H1209 0.950 . S
C1185 C1184 1.349 . S
C1185 C1201 1.349 . S
C1186 C1184 1.327 . S
C1186 C1205 1.429 . S
C1186 H1210 0.950 . S
C1187 C1204 1.574 . S
C1187 C1206 1.368 1_545 S
C1187 H1211 0.949 . S
H1188 C1192 0.949 . S
C1189 C1190 1.349 . S
C1189 C1191 1.327 . S
C1189 H1212 0.950 . S
C1190 C1189 1.349 . S
C1190 C1202 1.349 . S
C1191 C1189 1.327 . S
C1191 C1207 1.429 . S
C1191 H1213 0.950 . S
C1192 H1188 0.949 . S
C1192 C1200 1.574 1_545 S
C1192 C1208 1.368 . S
H1193 C1201 0.950 . S
H1194 C1199 0.950 . S
H1195 C1200 0.949 . S
H1196 C1202 0.950 . S
H1197 C1203 0.950 . S
H1198 C1204 0.949 . S
C1199 H1194 0.950 . S
C1199 C1201 1.327 . S
C1199 C1205 1.429 . S
C1200 C1192 1.574 1_565 S
C1200 H1195 0.949 . S
C1200 C1206 1.368 . S
C1201 C1185 1.349 . S
C1201 H1193 0.950 . S
C1201 C1199 1.327 . S
C1202 C1190 1.349 . S
C1202 H1196 0.950 . S
C1202 C1203 1.327 . S
C1203 H1197 0.950 . S
C1203 C1202 1.327 . S
C1203 C1207 1.429 . S
C1204 C1187 1.574 . S
C1204 H1198 0.949 . S
C1204 C1208 1.368 . S
C1205 C1186 1.429 . S
C1205 C1199 1.429 . S
C1205 C1206 1.523 . S
C1206 C1187 1.368 1_565 S
C1206 C1200 1.368 . S
C1206 C1205 1.523 . S
C1207 C1191 1.429 . S
C1207 C1203 1.429 . S
C1207 C1208 1.523 . S
C1208 C1192 1.368 . S
C1208 C1204 1.368 . S
C1208 C1207 1.523 . S
H1209 C1184 0.950 . S
H1210 C1186 0.950 . S
H1211 C1187 0.949 . S
H1212 C1189 0.950 . S
H1213 C1191 0.950 . S
C1214 C1215 1.349 . S
C1214 C1216 1.327 . S
C1214 H1239 0.950 . S
C1215 C1214 1.349 . S
C1215 C1231 1.349 . S
C1216 C1214 1.327 . S
C1216 C1235 1.429 . S
C1216 H1240 0.950 . S
C1217 C1234 1.574 . S
C1217 C1236 1.368 . S
C1217 H1241 0.949 . S
H1218 C1222 0.949 . S
C1219 C1220 1.349 . S
C1219 C1221 1.327 . S
C1219 H1242 0.950 . S
C1220 C1219 1.349 . S
C1220 C1232 1.349 . S
C1221 C1219 1.327 . S
C1221 C1237 1.429 . S
C1221 H1243 0.950 . S
C1222 H1218 0.949 . S
C1222 C1230 1.574 . S
C1222 C1238 1.368 . S
H1223 C1231 0.950 . S
H1224 C1229 0.950 . S
H1225 C1230 0.949 . S
H1226 C1232 0.950 . S
H1227 C1233 0.950 . S
H1228 C1234 0.949 . S
C1229 H1224 0.950 . S
C1229 C1231 1.327 . S
C1229 C1235 1.429 . S
C1230 C1222 1.574 . S
C1230 H1225 0.949 . S
C1230 C1236 1.368 . S
C1231 C1215 1.349 . S
C1231 H1223 0.950 . S
C1231 C1229 1.327 . S
C1232 C1220 1.349 . S
C1232 H1226 0.950 . S
C1232 C1233 1.327 . S
C1233 H1227 0.950 . S
C1233 C1232 1.327 . S
C1233 C1237 1.429 . S
C1234 C1217 1.574 . S
C1234 H1228 0.949 . S
C1234 C1238 1.368 . S
C1235 C1216 1.429 . S
C1235 C1229 1.429 . S
C1235 C1236 1.523 . S
C1236 C1217 1.368 . S
C1236 C1230 1.368 . S
C1236 C1235 1.523 . S
C1237 C1221 1.429 . S
C1237 C1233 1.429 . S
C1237 C1238 1.523 . S
C1238 C1222 1.368 . S
C1238 C1234 1.368 . S
C1238 C1237 1.523 . S
H1239 C1214 0.950 . S
H1240 C1216 0.950 . S
H1241 C1217 0.949 . S
H1242 C1219 0.950 . S
H1243 C1221 0.950 . S
C1244 C1245 1.349 . S
C1244 C1246 1.327 . S
C1244 H1269 0.950 . S
C1245 C1244 1.349 . S
C1245 C1261 1.349 . S
C1246 C1244 1.327 . S
C1246 C1265 1.429 . S
C1246 H1270 0.950 . S
C1247 C1264 1.574 1_556 S
C1247 C1266 1.368 . S
C1247 H1271 0.949 . S
H1248 C1252 0.949 . S
C1249 C1250 1.349 . S
C1249 C1251 1.327 . S
C1249 H1272 0.950 . S
C1250 C1249 1.349 . S
C1250 C1262 1.349 . S
C1251 C1249 1.327 . S
C1251 C1267 1.429 . S
C1251 H1273 0.950 . S
C1252 H1248 0.949 . S
C1252 C1260 1.574 . S
C1252 C1268 1.330 1_556 S
H1253 C1261 0.950 . S
H1254 C1259 0.950 . S
H1255 C1260 0.949 . S
H1256 C1262 0.950 . S
H1257 C1263 0.950 . S
H1258 C1264 0.949 . S
C1259 H1254 0.950 . S
C1259 C1261 1.327 . S
C1259 C1265 1.429 . S
C1260 C1252 1.574 . S
C1260 H1255 0.949 . S
C1260 C1266 1.368 . S
C1261 C1245 1.349 . S
C1261 H1253 0.950 . S
C1261 C1259 1.327 . S
C1262 C1250 1.349 . S
C1262 H1256 0.950 . S
C1262 C1263 1.327 . S
C1263 H1257 0.950 . S
C1263 C1262 1.327 . S
C1263 C1267 1.429 . S
C1264 C1247 1.574 1_554 S
C1264 H1258 0.949 . S
C1264 C1268 1.371 . S
C1265 C1246 1.429 . S
C1265 C1259 1.429 . S
C1265 C1266 1.523 . S
C1266 C1247 1.368 . S
C1266 C1260 1.368 . S
C1266 C1265 1.523 . S
C1267 C1251 1.429 . S
C1267 C1263 1.429 . S
C1267 C1268 1.571 . S
C1268 C1252 1.330 1_554 S
C1268 C1264 1.371 . S
C1268 C1267 1.571 . S
H1269 C1244 0.950 . S
H1270 C1246 0.950 . S
H1271 C1247 0.949 . S
H1272 C1249 0.950 . S
H1273 C1251 0.950 . S
C1274 C1275 1.349 . S
C1274 C1276 1.327 . S
C1274 H1299 0.950 . S
C1275 C1274 1.349 . S
C1275 C1291 1.349 . S
C1276 C1274 1.327 . S
C1276 C1295 1.429 . S
C1276 H1300 0.950 . S
C1277 C1294 1.620 . S
C1277 C1296 1.363 1_556 S
C1277 H1301 0.912 1_556 S
H1278 C1282 0.949 . S
C1279 C1280 1.349 . S
C1279 C1281 1.327 . S
C1279 H1302 0.950 . S
C1280 C1279 1.349 . S
C1280 C1292 1.349 . S
C1281 C1279 1.327 . S
C1281 C1297 1.429 . S
C1281 H1303 0.950 . S
C1282 H1278 0.949 . S
C1282 C1290 1.574 . S
C1282 C1298 1.368 . S
H1283 C1291 0.950 . S
H1284 C1289 0.950 . S
H1285 C1290 0.949 . S
H1286 C1292 0.950 . S
H1287 C1293 0.950 . S
H1288 C1294 0.949 . S
C1289 H1284 0.950 . S
C1289 C1291 1.327 . S
C1289 C1295 1.429 . S
C1290 C1282 1.574 . S
C1290 H1285 0.949 . S
C1290 C1296 1.337 1_556 S
C1291 C1275 1.349 . S
C1291 H1283 0.950 . S
C1291 C1289 1.327 . S
C1292 C1280 1.349 . S
C1292 H1286 0.950 . S
C1292 C1293 1.327 . S
C1293 H1287 0.950 . S
C1293 C1292 1.327 . S
C1293 C1297 1.429 . S
C1294 C1277 1.620 . S
C1294 H1288 0.949 . S
C1294 C1298 1.368 . S
C1295 C1276 1.429 . S
C1295 C1289 1.429 . S
C1295 C1296 1.571 . S
C1296 C1277 1.363 1_554 S
C1296 C1290 1.337 1_554 S
C1296 C1295 1.571 . S
C1297 C1281 1.429 . S
C1297 C1293 1.429 . S
C1297 C1298 1.523 . S
C1298 C1282 1.368 . S
C1298 C1294 1.368 . S
C1298 C1297 1.523 . S
H1299 C1274 0.950 . S
H1300 C1276 0.950 . S
H1301 C1277 0.912 1_554 S
H1302 C1279 0.950 . S
H1303 C1281 0.950 . S
C1304 C1305 1.349 . S
C1304 C1306 1.327 . S
C1304 H1329 0.950 . S
C1305 C1304 1.349 . S
C1305 C1321 1.349 . S
C1306 C1304 1.327 . S
C1306 C1325 1.429 . S
C1306 H1330 0.950 . S
C1307 C1324 1.574 . S
C1307 C1326 1.368 . S
C1307 H1331 0.949 . S
H1308 C1312 0.949 . S
C1309 C1310 1.349 . S
C1309 C1311 1.327 . S
C1309 H1332 0.950 . S
C1310 C1309 1.349 . S
C1310 C1322 1.349 . S
C1311 C1309 1.327 . S
C1311 C1327 1.429 . S
C1311 H1333 0.950 . S
C1312 H1308 0.949 . S
C1312 C1320 1.574 . S
C1312 C1328 1.368 . S
H1313 C1321 0.950 . S
H1314 C1319 0.950 . S
H1315 C1320 0.949 . S
H1316 C1322 0.950 . S
H1317 C1323 0.950 . S
H1318 C1324 0.949 . S
C1319 H1314 0.950 . S
C1319 C1321 1.327 . S
C1319 C1325 1.429 . S
C1320 C1312 1.574 . S
C1320 H1315 0.949 . S
C1320 C1326 1.368 . S
C1321 C1305 1.349 . S
C1321 H1313 0.950 . S
C1321 C1319 1.327 . S
C1322 C1310 1.349 . S
C1322 H1316 0.950 . S
C1322 C1323 1.327 . S
C1323 H1317 0.950 . S
C1323 C1322 1.327 . S
C1323 C1327 1.429 . S
C1324 C1307 1.574 . S
C1324 H1318 0.949 . S
C1324 C1328 1.368 . S
C1325 C1306 1.429 . S
C1325 C1319 1.429 . S
C1325 C1326 1.523 . S
C1326 C1307 1.368 . S
C1326 C1320 1.368 . S
C1326 C1325 1.523 . S
C1327 C1311 1.429 . S
C1327 C1323 1.429 . S
C1327 C1328 1.523 . S
C1328 C1312 1.368 . S
C1328 C1324 1.368 . S
C1328 C1327 1.523 . S
H1329 C1304 0.950 . S
H1330 C1306 0.950 . S
H1331 C1307 0.949 . S
H1332 C1309 0.950 . S
H1333 C1311 0.950 . S
C1334 C1335 1.349 . S
C1334 C1336 1.327 . S
C1334 H1359 0.950 . S
C1335 C1334 1.349 . S
C1335 C1351 1.349 . S
C1336 C1334 1.327 . S
C1336 C1355 1.429 . S
C1336 H1360 0.950 . S
C1337 C1354 1.574 . S
C1337 C1356 1.368 . S
C1337 H1361 0.949 . S
H1338 C1342 0.949 . S
C1339 C1340 1.349 . S
C1339 C1341 1.327 . S
C1339 H1362 0.950 . S
C1340 C1339 1.349 . S
C1340 C1352 1.349 . S
C1341 C1339 1.327 . S
C1341 C1357 1.429 . S
C1341 H1363 0.950 . S
C1342 H1338 0.949 . S
C1342 C1350 1.574 . S
C1342 C1358 1.368 . S
H1343 C1351 0.950 . S
H1344 C1349 0.950 . S
H1345 C1350 0.949 . S
H1346 C1352 0.950 . S
H1347 C1353 0.950 . S
H1348 C1354 0.949 . S
C1349 H1344 0.950 . S
C1349 C1351 1.327 . S
C1349 C1355 1.429 . S
C1350 C1342 1.574 . S
C1350 H1345 0.949 . S
C1350 C1356 1.368 . S
C1351 C1335 1.349 . S
C1351 H1343 0.950 . S
C1351 C1349 1.327 . S
C1352 C1340 1.349 . S
C1352 H1346 0.950 . S
C1352 C1353 1.327 . S
C1353 H1347 0.950 . S
C1353 C1352 1.327 . S
C1353 C1357 1.429 . S
C1354 C1337 1.574 . S
C1354 H1348 0.949 . S
C1354 C1358 1.368 . S
C1355 C1336 1.429 . S
C1355 C1349 1.429 . S
C1355 C1356 1.523 . S
C1356 C1337 1.368 . S
C1356 C1350 1.368 . S
C1356 C1355 1.523 . S
C1357 C1341 1.429 . S
C1357 C1353 1.429 . S
C1357 C1358 1.523 . S
C1358 C1342 1.368 . S
C1358 C1354 1.368 . S
C1358 C1357 1.523 . S
H1359 C1334 0.950 . S
H1360 C1336 0.950 . S
H1361 C1337 0.949 . S
H1362 C1339 0.950 . S
H1363 C1341 0.950 . S
C1364 C1365 1.349 . S
C1364 C1366 1.327 . S
C1364 H1389 0.950 . S
C1365 C1364 1.349 . S
C1365 C1381 1.349 . S
C1366 C1364 1.327 . S
C1366 C1385 1.429 . S
C1366 H1390 0.950 . S
C1367 C1384 1.574 1_655 S
C1367 C1386 1.368 . S
C1367 H1391 0.949 . S
H1368 C1372 0.949 . S
C1369 C1370 1.349 . S
C1369 C1371 1.327 . S
C1369 H1392 0.950 . S
C1370 C1369 1.349 . S
C1370 C1382 1.349 . S
C1371 C1369 1.327 . S
C1371 C1387 1.429 . S
C1371 H1393 0.950 . S
C1372 H1368 0.949 . S
C1372 C1380 1.574 1_455 S
C1372 C1388 1.368 . S
H1373 C1381 0.950 . S
H1374 C1379 0.950 . S
H1375 C1380 0.949 . S
H1376 C1382 0.950 . S
H1377 C1383 0.950 . S
H1378 C1384 0.949 . S
C1379 H1374 0.950 . S
C1379 C1381 1.327 . S
C1379 C1385 1.429 . S
C1380 C1372 1.574 1_655 S
C1380 H1375 0.949 . S
C1380 C1386 1.368 . S
C1381 C1365 1.349 . S
C1381 H1373 0.950 . S
C1381 C1379 1.327 . S
C1382 C1370 1.349 . S
C1382 H1376 0.950 . S
C1382 C1383 1.327 . S
C1383 H1377 0.950 . S
C1383 C1382 1.327 . S
C1383 C1387 1.429 . S
C1384 C1367 1.574 1_455 S
C1384 H1378 0.949 . S
C1384 C1388 1.368 . S
C1385 C1366 1.429 . S
C1385 C1379 1.429 . S
C1385 C1386 1.523 . S
C1386 C1367 1.368 . S
C1386 C1380 1.368 . S
C1386 C1385 1.523 . S
C1387 C1371 1.429 . S
C1387 C1383 1.429 . S
C1387 C1388 1.523 . S
C1388 C1372 1.368 . S
C1388 C1384 1.368 . S
C1388 C1387 1.523 . S
H1389 C1364 0.950 . S
H1390 C1366 0.950 . S
H1391 C1367 0.949 . S
H1392 C1369 0.950 . S
H1393 C1371 0.950 . S
C1394 C1395 1.349 . S
C1394 C1396 1.327 . S
C1394 H1419 0.950 . S
C1395 C1394 1.349 . S
C1395 C1411 1.349 . S
C1396 C1394 1.327 . S
C1396 C1415 1.429 . S
C1396 H1420 0.950 . S
C1397 C1414 1.574 1_655 S
C1397 C1416 1.368 . S
C1397 H1421 0.949 . S
H1398 C1402 0.949 . S
C1399 C1400 1.349 . S
C1399 C1401 1.327 . S
C1399 H1422 0.950 . S
C1400 C1399 1.349 . S
C1400 C1412 1.349 . S
C1401 C1399 1.327 . S
C1401 C1417 1.429 . S
C1401 H1423 0.950 . S
C1402 H1398 0.949 . S
C1402 C1410 1.574 1_455 S
C1402 C1418 1.368 . S
H1403 C1411 0.950 . S
H1404 C1409 0.950 . S
H1405 C1410 0.949 . S
H1406 C1412 0.950 . S
H1407 C1413 0.950 . S
H1408 C1414 0.949 . S
C1409 H1404 0.950 . S
C1409 C1411 1.327 . S
C1409 C1415 1.429 . S
C1410 C1402 1.574 1_655 S
C1410 H1405 0.949 . S
C1410 C1416 1.368 . S
C1411 C1395 1.349 . S
C1411 H1403 0.950 . S
C1411 C1409 1.327 . S
C1412 C1400 1.349 . S
C1412 H1406 0.950 . S
C1412 C1413 1.327 . S
C1413 H1407 0.950 . S
C1413 C1412 1.327 . S
C1413 C1417 1.429 . S
C1414 C1397 1.574 1_455 S
C1414 H1408 0.949 . S
C1414 C1418 1.368 . S
C1415 C1396 1.429 . S
C1415 C1409 1.429 . S
C1415 C1416 1.523 . S
C1416 C1397 1.368 . S
C1416 C1410 1.368 . S
C1416 C1415 1.523 . S
C1417 C1401 1.429 . S
C1417 C1413 1.429 . S
C1417 C1418 1.523 . S
C1418 C1402 1.368 . S
C1418 C1414 1.368 . S
C1418 C1417 1.523 . S
H1419 C1394 0.950 . S
H1420 C1396 0.950 . S
H1421 C1397 0.949 . S
H1422 C1399 0.950 . S
H1423 C1401 0.950 . S
C1424 C1425 1.349 . S
C1424 C1426 1.327 . S
C1424 H1449 0.950 . S
C1425 C1424 1.349 . S
C1425 C1441 1.349 . S
C1426 C1424 1.327 . S
C1426 C1445 1.429 . S
C1426 H1450 0.950 . S
C1427 C1444 1.574 . S
C1427 C1446 1.368 . S
C1427 H1451 0.949 . S
H1428 C1432 0.949 . S
C1429 C1430 1.349 . S
C1429 C1431 1.327 . S
C1429 H1452 0.950 . S
C1430 C1429 1.349 . S
C1430 C1442 1.349 . S
C1431 C1429 1.327 . S
C1431 C1447 1.429 . S
C1431 H1453 0.950 . S
C1432 H1428 0.949 . S
C1432 C1440 1.574 . S
C1432 C1448 1.368 . S
H1433 C1441 0.950 . S
H1434 C1439 0.950 . S
H1435 C1440 0.949 . S
H1436 C1442 0.950 . S
H1437 C1443 0.950 . S
H1438 C1444 0.949 . S
C1439 H1434 0.950 . S
C1439 C1441 1.327 . S
C1439 C1445 1.429 . S
C1440 C1432 1.574 . S
C1440 H1435 0.949 . S
C1440 C1446 1.368 . S
C1441 C1425 1.349 . S
C1441 H1433 0.950 . S
C1441 C1439 1.327 . S
C1442 C1430 1.349 . S
C1442 H1436 0.950 . S
C1442 C1443 1.327 . S
C1443 H1437 0.950 . S
C1443 C1442 1.327 . S
C1443 C1447 1.429 . S
C1444 C1427 1.574 . S
C1444 H1438 0.949 . S
C1444 C1448 1.368 . S
C1445 C1426 1.429 . S
C1445 C1439 1.429 . S
C1445 C1446 1.523 . S
C1446 C1427 1.368 . S
C1446 C1440 1.368 . S
C1446 C1445 1.523 . S
C1447 C1431 1.429 . S
C1447 C1443 1.429 . S
C1447 C1448 1.523 . S
C1448 C1432 1.368 . S
C1448 C1444 1.368 . S
C1448 C1447 1.523 . S
H1449 C1424 0.950 . S
H1450 C1426 0.950 . S
H1451 C1427 0.949 . S
H1452 C1429 0.950 . S
H1453 C1431 0.950 . S
C1454 C1455 1.349 . S
C1454 C1456 1.327 . S
C1454 H1479 0.950 . S
C1455 C1454 1.349 . S
C1455 C1471 1.349 . S
C1456 C1454 1.327 . S
C1456 C1475 1.429 . S
C1456 H1480 0.950 . S
C1457 C1474 1.574 . S
C1457 C1476 1.368 1_565 S
C1457 H1481 0.950 . S
H1458 C1462 0.949 . S
C1459 C1460 1.349 . S
C1459 C1461 1.327 . S
C1459 H1482 0.950 . S
C1460 C1459 1.349 . S
C1460 C1472 1.349 . S
C1461 C1459 1.327 . S
C1461 C1477 1.429 . S
C1461 H1483 0.950 . S
C1462 H1458 0.949 . S
C1462 C1470 1.574 1_565 S
C1462 C1478 1.368 . S
H1463 C1471 0.950 . S
H1464 C1469 0.950 . S
H1465 C1470 0.949 . S
H1466 C1472 0.950 . S
H1467 C1473 0.950 . S
H1468 C1474 0.949 . S
C1469 H1464 0.950 . S
C1469 C1471 1.327 . S
C1469 C1475 1.429 . S
C1470 C1462 1.574 1_545 S
C1470 H1465 0.949 . S
C1470 C1476 1.368 . S
C1471 C1455 1.349 . S
C1471 H1463 0.950 . S
C1471 C1469 1.327 . S
C1472 C1460 1.349 . S
C1472 H1466 0.950 . S
C1472 C1473 1.327 . S
C1473 H1467 0.950 . S
C1473 C1472 1.327 . S
C1473 C1477 1.429 . S
C1474 C1457 1.574 . S
C1474 H1468 0.949 . S
C1474 C1478 1.368 . S
C1475 C1456 1.429 . S
C1475 C1469 1.429 . S
C1475 C1476 1.523 . S
C1476 C1457 1.368 1_545 S
C1476 C1470 1.368 . S
C1476 C1475 1.523 . S
C1477 C1461 1.429 . S
C1477 C1473 1.429 . S
C1477 C1478 1.523 . S
C1478 C1462 1.368 . S
C1478 C1474 1.368 . S
C1478 C1477 1.523 . S
H1479 C1454 0.950 . S
H1480 C1456 0.950 . S
H1481 C1457 0.950 . S
H1482 C1459 0.950 . S
H1483 C1461 0.950 . S
C1484 C1485 1.349 . S
C1484 C1486 1.327 . S
C1484 H1509 0.950 . S
C1485 C1484 1.349 . S
C1485 C1501 1.349 . S
C1486 C1484 1.327 . S
C1486 C1505 1.429 . S
C1486 H1510 0.950 . S
C1487 C1504 1.574 . S
C1487 C1506 1.368 . S
C1487 H1511 0.949 . S
H1488 C1492 0.949 . S
C1489 C1490 1.349 . S
C1489 C1491 1.327 . S
C1489 H1512 0.950 . S
C1490 C1489 1.349 . S
C1490 C1502 1.349 . S
C1491 C1489 1.327 . S
C1491 C1507 1.429 . S
C1491 H1513 0.950 . S
C1492 H1488 0.949 . S
C1492 C1500 1.574 . S
C1492 C1508 1.368 . S
H1493 C1501 0.950 . S
H1494 C1499 0.950 . S
H1495 C1500 0.949 . S
H1496 C1502 0.950 . S
H1497 C1503 0.950 . S
H1498 C1504 0.949 . S
C1499 H1494 0.950 . S
C1499 C1501 1.327 . S
C1499 C1505 1.429 . S
C1500 C1492 1.574 . S
C1500 H1495 0.949 . S
C1500 C1506 1.368 . S
C1501 C1485 1.349 . S
C1501 H1493 0.950 . S
C1501 C1499 1.327 . S
C1502 C1490 1.349 . S
C1502 H1496 0.950 . S
C1502 C1503 1.327 . S
C1503 H1497 0.950 . S
C1503 C1502 1.327 . S
C1503 C1507 1.429 . S
C1504 C1487 1.574 . S
C1504 H1498 0.949 . S
C1504 C1508 1.368 . S
C1505 C1486 1.429 . S
C1505 C1499 1.429 . S
C1505 C1506 1.523 . S
C1506 C1487 1.368 . S
C1506 C1500 1.368 . S
C1506 C1505 1.523 . S
C1507 C1491 1.429 . S
C1507 C1503 1.429 . S
C1507 C1508 1.523 . S
C1508 C1492 1.368 . S
C1508 C1504 1.368 . S
C1508 C1507 1.523 . S
H1509 C1484 0.950 . S
H1510 C1486 0.950 . S
H1511 C1487 0.949 . S
H1512 C1489 0.950 . S
H1513 C1491 0.950 . S
C1514 C1515 1.349 . S
C1514 C1516 1.327 . S
C1514 H1539 0.950 . S
C1515 C1514 1.349 . S
C1515 C1531 1.349 . S
C1516 C1514 1.327 . S
C1516 C1535 1.429 . S
C1516 H1540 0.950 . S
C1517 C1534 1.574 . S
C1517 C1536 1.368 . S
C1517 H1541 0.949 . S
H1518 C1522 0.949 . S
C1519 C1520 1.349 . S
C1519 C1521 1.327 . S
C1519 H1542 0.950 . S
C1520 C1519 1.349 . S
C1520 C1532 1.349 . S
C1521 C1519 1.327 . S
C1521 C1537 1.429 . S
C1521 H1543 0.950 . S
C1522 H1518 0.949 . S
C1522 C1530 1.574 . S
C1522 C1538 1.368 . S
H1523 C1531 0.950 . S
H1524 C1529 0.950 . S
H1525 C1530 0.949 . S
H1526 C1532 0.950 . S
H1527 C1533 0.950 . S
H1528 C1534 0.949 1_556 S
C1529 H1524 0.950 . S
C1529 C1531 1.327 . S
C1529 C1535 1.429 . S
C1530 C1522 1.574 . S
C1530 H1525 0.949 . S
C1530 C1536 1.368 . S
C1531 C1515 1.349 . S
C1531 H1523 0.950 . S
C1531 C1529 1.327 . S
C1532 C1520 1.349 . S
C1532 H1526 0.950 . S
C1532 C1533 1.327 . S
C1533 H1527 0.950 . S
C1533 C1532 1.327 . S
C1533 C1537 1.429 . S
C1534 C1517 1.574 . S
C1534 H1528 0.949 1_554 S
C1534 C1538 1.368 . S
C1535 C1516 1.429 . S
C1535 C1529 1.429 . S
C1535 C1536 1.523 . S
C1536 C1517 1.368 . S
C1536 C1530 1.368 . S
C1536 C1535 1.523 . S
C1537 C1521 1.429 . S
C1537 C1533 1.429 . S
C1537 C1538 1.523 1_556 S
C1538 C1522 1.368 . S
C1538 C1534 1.368 . S
C1538 C1537 1.523 1_554 S
H1539 C1514 0.950 . S
H1540 C1516 0.950 . S
H1541 C1517 0.949 . S
H1542 C1519 0.950 . S
H1543 C1521 0.950 . S
C1544 C1545 1.349 . S
C1544 C1546 1.327 . S
C1544 H1569 0.950 . S
C1545 C1544 1.349 . S
C1545 C1561 1.349 . S
C1546 C1544 1.327 . S
C1546 C1565 1.429 . S
C1546 H1570 0.950 . S
C1547 C1564 1.574 . S
C1547 C1566 1.368 . S
C1547 H1571 0.949 . S
H1548 C1552 0.949 . S
C1549 C1550 1.349 . S
C1549 C1551 1.327 . S
C1549 H1572 0.950 . S
C1550 C1549 1.349 . S
C1550 C1562 1.349 . S
C1551 C1549 1.327 . S
C1551 C1567 1.429 . S
C1551 H1573 0.950 . S
C1552 H1548 0.949 . S
C1552 C1560 1.574 . S
C1552 C1568 1.368 . S
H1553 C1561 0.950 . S
H1554 C1559 0.950 . S
H1555 C1560 0.949 1_556 S
H1556 C1562 0.950 . S
H1557 C1563 0.950 . S
H1558 C1564 0.949 . S
C1559 H1554 0.950 . S
C1559 C1561 1.327 . S
C1559 C1565 1.429 . S
C1560 C1552 1.574 . S
C1560 H1555 0.949 1_554 S
C1560 C1566 1.368 . S
C1561 C1545 1.349 . S
C1561 H1553 0.950 . S
C1561 C1559 1.327 . S
C1562 C1550 1.349 . S
C1562 H1556 0.950 . S
C1562 C1563 1.327 . S
C1563 H1557 0.950 . S
C1563 C1562 1.327 . S
C1563 C1567 1.429 . S
C1564 C1547 1.574 . S
C1564 H1558 0.949 . S
C1564 C1568 1.368 . S
C1565 C1546 1.429 . S
C1565 C1559 1.429 . S
C1565 C1566 1.523 1_556 S
C1566 C1547 1.368 . S
C1566 C1560 1.368 . S
C1566 C1565 1.523 1_554 S
C1567 C1551 1.429 . S
C1567 C1563 1.429 . S
C1567 C1568 1.523 . S
C1568 C1552 1.368 . S
C1568 C1564 1.368 . S
C1568 C1567 1.523 . S
H1569 C1544 0.950 . S
H1570 C1546 0.950 . S
H1571 C1547 0.949 . S
H1572 C1549 0.950 . S
H1573 C1551 0.950 . S
C1574 C1575 1.349 . S
C1574 C1576 1.327 . S
C1574 H1599 0.950 . S
C1575 C1574 1.349 . S
C1575 C1591 1.349 . S
C1576 C1574 1.327 . S
C1576 C1595 1.429 . S
C1576 H1600 0.950 . S
C1577 C1594 1.574 . S
C1577 C1596 1.368 . S
C1577 H1601 0.949 . S
H1578 C1582 0.949 . S
C1579 C1580 1.349 . S
C1579 C1581 1.327 . S
C1579 H1602 0.950 . S
C1580 C1579 1.349 . S
C1580 C1592 1.349 . S
C1581 C1579 1.327 . S
C1581 C1597 1.429 . S
C1581 H1603 0.950 . S
C1582 H1578 0.949 . S
C1582 C1590 1.574 . S
C1582 C1598 1.368 . S
H1583 C1591 0.950 . S
H1584 C1589 0.950 . S
H1585 C1590 0.949 . S
H1586 C1592 0.950 . S
H1587 C1593 0.950 . S
H1588 C1594 0.949 . S
C1589 H1584 0.950 . S
C1589 C1591 1.327 . S
C1589 C1595 1.429 . S
C1590 C1582 1.574 . S
C1590 H1585 0.949 . S
C1590 C1596 1.368 . S
C1591 C1575 1.349 . S
C1591 H1583 0.950 . S
C1591 C1589 1.327 . S
C1592 C1580 1.349 . S
C1592 H1586 0.950 . S
C1592 C1593 1.327 . S
C1593 H1587 0.950 . S
C1593 C1592 1.327 . S
C1593 C1597 1.429 . S
C1594 C1577 1.574 . S
C1594 H1588 0.949 . S
C1594 C1598 1.368 . S
C1595 C1576 1.429 . S
C1595 C1589 1.429 . S
C1595 C1596 1.523 . S
C1596 C1577 1.368 . S
C1596 C1590 1.368 . S
C1596 C1595 1.523 . S
C1597 C1581 1.429 . S
C1597 C1593 1.429 . S
C1597 C1598 1.523 . S
C1598 C1582 1.368 . S
C1598 C1594 1.368 . S
C1598 C1597 1.523 . S
H1599 C1574 0.950 . S
H1600 C1576 0.950 . S
H1601 C1577 0.949 . S
H1602 C1579 0.950 . S
H1603 C1581 0.950 . S
C1604 C1605 1.349 . S
C1604 C1606 1.327 . S
C1604 H1629 0.950 . S
C1605 C1604 1.349 . S
C1605 C1621 1.349 . S
C1606 C1604 1.327 . S
C1606 C1625 1.429 . S
C1606 H1630 0.950 . S
C1607 C1624 1.574 . S
C1607 C1626 1.368 . S
C1607 H1631 0.949 . S
H1608 C1612 0.949 . S
C1609 C1610 1.349 . S
C1609 C1611 1.327 . S
C1609 H1632 0.950 . S
C1610 C1609 1.349 . S
C1610 C1622 1.349 . S
C1611 C1609 1.327 . S
C1611 C1627 1.429 . S
C1611 H1633 0.950 . S
C1612 H1608 0.949 . S
C1612 C1620 1.574 . S
C1612 C1628 1.368 . S
H1613 C1621 0.950 . S
H1614 C1619 0.950 . S
H1615 C1620 0.949 . S
H1616 C1622 0.950 . S
H1617 C1623 0.950 . S
H1618 C1624 0.949 . S
C1619 H1614 0.950 . S
C1619 C1621 1.327 . S
C1619 C1625 1.429 . S
C1620 C1612 1.574 . S
C1620 H1615 0.949 . S
C1620 C1626 1.368 . S
C1621 C1605 1.349 . S
C1621 H1613 0.950 . S
C1621 C1619 1.327 . S
C1622 C1610 1.349 . S
C1622 H1616 0.950 . S
C1622 C1623 1.327 . S
C1623 H1617 0.950 . S
C1623 C1622 1.327 . S
C1623 C1627 1.429 . S
C1624 C1607 1.574 . S
C1624 H1618 0.949 . S
C1624 C1628 1.368 . S
C1625 C1606 1.429 . S
C1625 C1619 1.429 . S
C1625 C1626 1.523 . S
C1626 C1607 1.368 . S
C1626 C1620 1.368 . S
C1626 C1625 1.523 . S
C1627 C1611 1.429 . S
C1627 C1623 1.429 . S
C1627 C1628 1.523 . S
C1628 C1612 1.368 . S
C1628 C1624 1.368 . S
C1628 C1627 1.523 . S
H1629 C1604 0.950 . S
H1630 C1606 0.950 . S
H1631 C1607 0.949 . S
H1632 C1609 0.950 . S
H1633 C1611 0.950 . S
C1634 C1635 1.349 . S
C1634 C1636 1.327 . S
C1634 H1659 0.950 . S
C1635 C1634 1.349 . S
C1635 C1651 1.349 . S
C1636 C1634 1.327 . S
C1636 C1655 1.429 . S
C1636 H1660 0.950 . S
C1637 C1654 1.574 . S
C1637 C1656 1.368 . S
C1637 H1661 0.949 . S
H1638 C1642 0.949 . S
C1639 C1640 1.349 . S
C1639 C1641 1.327 . S
C1639 H1662 0.950 . S
C1640 C1639 1.349 . S
C1640 C1652 1.349 . S
C1641 C1639 1.327 . S
C1641 C1657 1.429 . S
C1641 H1663 0.950 . S
C1642 H1638 0.949 . S
C1642 C1650 1.574 . S
C1642 C1658 1.368 . S
H1643 C1651 0.950 . S
H1644 C1649 0.950 . S
H1645 C1650 0.949 . S
H1646 C1652 0.950 . S
H1647 C1653 0.950 . S
H1648 C1654 0.949 . S
C1649 H1644 0.950 . S
C1649 C1651 1.327 . S
C1649 C1655 1.429 . S
C1650 C1642 1.574 . S
C1650 H1645 0.949 . S
C1650 C1656 1.368 1_655 S
C1651 C1635 1.349 . S
C1651 H1643 0.950 . S
C1651 C1649 1.327 . S
C1652 C1640 1.349 . S
C1652 H1646 0.950 . S
C1652 C1653 1.327 . S
C1653 H1647 0.950 . S
C1653 C1652 1.327 . S
C1653 C1657 1.429 . S
C1654 C1637 1.574 . S
C1654 H1648 0.949 . S
C1654 C1658 1.368 1_455 S
C1655 C1636 1.429 . S
C1655 C1649 1.429 . S
C1655 C1656 1.523 . S
C1656 C1637 1.368 . S
C1656 C1650 1.368 1_455 S
C1656 C1655 1.523 . S
C1657 C1641 1.429 . S
C1657 C1653 1.429 . S
C1657 C1658 1.523 . S
C1658 C1642 1.368 . S
C1658 C1654 1.368 1_655 S
C1658 C1657 1.523 . S
H1659 C1634 0.950 . S
H1660 C1636 0.950 . S
H1661 C1637 0.949 . S
H1662 C1639 0.950 . S
H1663 C1641 0.950 . S
C1664 C1665 1.349 . S
C1664 C1666 1.327 . S
C1664 H1689 0.950 . S
C1665 C1664 1.349 . S
C1665 C1681 1.349 . S
C1666 C1664 1.327 . S
C1666 C1685 1.429 . S
C1666 H1690 0.950 . S
C1667 C1684 1.574 1_455 S
C1667 C1686 1.368 . S
C1667 H1691 0.949 . S
H1668 C1672 0.949 . S
C1669 C1670 1.349 . S
C1669 C1671 1.327 . S
C1669 H1692 0.950 . S
C1670 C1669 1.349 . S
C1670 C1682 1.349 . S
C1671 C1669 1.327 . S
C1671 C1687 1.429 . S
C1671 H1693 0.950 . S
C1672 H1668 0.949 . S
C1672 C1680 1.574 1_655 S
C1672 C1688 1.368 . S
H1673 C1681 0.950 . S
H1674 C1679 0.950 . S
H1675 C1680 0.949 . S
H1676 C1682 0.950 . S
H1677 C1683 0.950 . S
H1678 C1684 0.949 . S
C1679 H1674 0.950 . S
C1679 C1681 1.327 . S
C1679 C1685 1.429 . S
C1680 C1672 1.574 1_455 S
C1680 H1675 0.949 . S
C1680 C1686 1.368 . S
C1681 C1665 1.349 . S
C1681 H1673 0.950 . S
C1681 C1679 1.327 . S
C1682 C1670 1.349 . S
C1682 H1676 0.950 . S
C1682 C1683 1.327 . S
C1683 H1677 0.950 . S
C1683 C1682 1.327 . S
C1683 C1687 1.429 . S
C1684 C1667 1.574 1_655 S
C1684 H1678 0.949 . S
C1684 C1688 1.368 . S
C1685 C1666 1.429 . S
C1685 C1679 1.429 . S
C1685 C1686 1.523 . S
C1686 C1667 1.368 . S
C1686 C1680 1.368 . S
C1686 C1685 1.523 . S
C1687 C1671 1.429 . S
C1687 C1683 1.429 . S
C1687 C1688 1.523 . S
C1688 C1672 1.368 . S
C1688 C1684 1.368 . S
C1688 C1687 1.523 . S
H1689 C1664 0.950 . S
H1690 C1666 0.950 . S
H1691 C1667 0.949 . S
H1692 C1669 0.950 . S
H1693 C1671 0.950 . S
C1694 C1695 1.349 . S
C1694 C1696 1.327 . S
C1694 H1719 0.950 . S
C1695 C1694 1.349 . S
C1695 C1711 1.349 . S
C1696 C1694 1.327 . S
C1696 C1715 1.429 . S
C1696 H1720 0.950 . S
C1697 C1714 1.574 . S
C1697 C1716 1.368 . S
C1697 H1721 0.949 . S
H1698 C1702 0.949 . S
C1699 C1700 1.349 . S
C1699 C1701 1.327 . S
C1699 H1722 0.950 . S
C1700 C1699 1.349 . S
C1700 C1712 1.349 . S
C1701 C1699 1.327 . S
C1701 C1717 1.429 . S
C1701 H1723 0.950 . S
C1702 H1698 0.949 . S
C1702 C1710 1.574 . S
C1702 C1718 1.368 . S
H1703 C1711 0.950 . S
H1704 C1709 0.950 . S
H1705 C1710 0.949 . S
H1706 C1712 0.950 . S
H1707 C1713 0.950 . S
H1708 C1714 0.949 . S
C1709 H1704 0.950 . S
C1709 C1711 1.327 . S
C1709 C1715 1.429 . S
C1710 C1702 1.574 . S
C1710 H1705 0.949 . S
C1710 C1716 1.368 . S
C1711 C1695 1.349 . S
C1711 H1703 0.950 . S
C1711 C1709 1.327 . S
C1712 C1700 1.349 . S
C1712 H1706 0.950 . S
C1712 C1713 1.327 . S
C1713 H1707 0.950 . S
C1713 C1712 1.327 . S
C1713 C1717 1.429 . S
C1714 C1697 1.574 . S
C1714 H1708 0.949 . S
C1714 C1718 1.368 . S
C1715 C1696 1.429 . S
C1715 C1709 1.429 . S
C1715 C1716 1.523 . S
C1716 C1697 1.368 . S
C1716 C1710 1.368 . S
C1716 C1715 1.523 . S
C1717 C1701 1.429 . S
C1717 C1713 1.429 . S
C1717 C1718 1.523 . S
C1718 C1702 1.368 . S
C1718 C1714 1.368 . S
C1718 C1717 1.523 . S
H1719 C1694 0.950 . S
H1720 C1696 0.950 . S
H1721 C1697 0.949 . S
H1722 C1699 0.950 . S
H1723 C1701 0.950 . S
C1724 C1725 1.349 . S
C1724 C1726 1.327 . S
C1724 H1749 0.950 . S
C1725 C1724 1.349 . S
C1725 C1741 1.349 . S
C1726 C1724 1.327 . S
C1726 C1745 1.429 . S
C1726 H1750 0.950 . S
C1727 C1744 1.574 . S
C1727 C1746 1.368 . S
C1727 H1751 0.949 . S
H1728 C1732 0.949 . S
C1729 C1730 1.349 . S
C1729 C1731 1.327 . S
C1729 H1752 0.950 . S
C1730 C1729 1.349 . S
C1730 C1742 1.349 . S
C1731 C1729 1.327 . S
C1731 C1747 1.429 . S
C1731 H1753 0.950 . S
C1732 H1728 0.949 . S
C1732 C1740 1.574 . S
C1732 C1748 1.368 . S
H1733 C1741 0.950 . S
H1734 C1739 0.950 . S
H1735 C1740 0.949 . S
H1736 C1742 0.950 . S
H1737 C1743 0.950 . S
H1738 C1744 0.949 . S
C1739 H1734 0.950 . S
C1739 C1741 1.327 . S
C1739 C1745 1.429 . S
C1740 C1732 1.574 . S
C1740 H1735 0.949 . S
C1740 C1746 1.368 . S
C1741 C1725 1.349 . S
C1741 H1733 0.950 . S
C1741 C1739 1.327 . S
C1742 C1730 1.349 . S
C1742 H1736 0.950 . S
C1742 C1743 1.327 . S
C1743 H1737 0.950 . S
C1743 C1742 1.327 . S
C1743 C1747 1.429 . S
C1744 C1727 1.574 . S
C1744 H1738 0.949 . S
C1744 C1748 1.368 . S
C1745 C1726 1.429 . S
C1745 C1739 1.429 . S
C1745 C1746 1.523 . S
C1746 C1727 1.368 . S
C1746 C1740 1.368 . S
C1746 C1745 1.523 . S
C1747 C1731 1.429 . S
C1747 C1743 1.429 . S
C1747 C1748 1.523 . S
C1748 C1732 1.368 . S
C1748 C1744 1.368 . S
C1748 C1747 1.523 . S
H1749 C1724 0.950 . S
H1750 C1726 0.950 . S
H1751 C1727 0.949 . S
H1752 C1729 0.950 . S
H1753 C1731 0.950 . S
C1754 C1755 1.349 . S
C1754 C1756 1.327 . S
C1754 H1779 0.950 . S
C1755 C1754 1.349 . S
C1755 C1771 1.349 . S
C1756 C1754 1.327 . S
C1756 C1775 1.429 . S
C1756 H1780 0.950 . S
C1757 C1774 1.574 . S
C1757 C1776 1.368 1_565 S
C1757 H1781 0.949 . S
H1758 C1762 0.949 . S
C1759 C1760 1.349 . S
C1759 C1761 1.327 . S
C1759 H1782 0.950 . S
C1760 C1759 1.349 . S
C1760 C1772 1.349 . S
C1761 C1759 1.327 . S
C1761 C1777 1.429 . S
C1761 H1783 0.950 . S
C1762 H1758 0.949 . S
C1762 C1770 1.574 1_565 S
C1762 C1778 1.368 . S
H1763 C1771 0.950 . S
H1764 C1769 0.950 . S
H1765 C1770 0.949 . S
H1766 C1772 0.950 . S
H1767 C1773 0.950 . S
H1768 C1774 0.949 . S
C1769 H1764 0.950 . S
C1769 C1771 1.327 . S
C1769 C1775 1.429 . S
C1770 C1762 1.574 1_545 S
C1770 H1765 0.949 . S
C1770 C1776 1.368 . S
C1771 C1755 1.349 . S
C1771 H1763 0.950 . S
C1771 C1769 1.327 . S
C1772 C1760 1.349 . S
C1772 H1766 0.950 . S
C1772 C1773 1.327 . S
C1773 H1767 0.950 . S
C1773 C1772 1.327 . S
C1773 C1777 1.429 . S
C1774 C1757 1.574 . S
C1774 H1768 0.949 . S
C1774 C1778 1.368 . S
C1775 C1756 1.429 . S
C1775 C1769 1.429 . S
C1775 C1776 1.523 . S
C1776 C1757 1.368 1_545 S
C1776 C1770 1.368 . S
C1776 C1775 1.523 . S
C1777 C1761 1.429 . S
C1777 C1773 1.429 . S
C1777 C1778 1.523 . S
C1778 C1762 1.368 . S
C1778 C1774 1.368 . S
C1778 C1777 1.523 . S
H1779 C1754 0.950 . S
H1780 C1756 0.950 . S
H1781 C1757 0.949 . S
H1782 C1759 0.950 . S
H1783 C1761 0.950 . S
C1784 C1785 1.349 . S
C1784 C1786 1.327 . S
C1784 H1809 0.950 . S
C1785 C1784 1.349 . S
C1785 C1801 1.349 . S
C1786 C1784 1.327 . S
C1786 C1805 1.429 . S
C1786 H1810 0.950 . S
C1787 C1804 1.574 . S
C1787 C1806 1.368 . S
C1787 H1811 0.949 . S
H1788 C1792 0.949 . S
C1789 C1790 1.349 . S
C1789 C1791 1.327 . S
C1789 H1812 0.950 . S
C1790 C1789 1.349 . S
C1790 C1802 1.349 . S
C1791 C1789 1.327 . S
C1791 C1807 1.429 . S
C1791 H1813 0.950 . S
C1792 H1788 0.949 . S
C1792 C1800 1.574 . S
C1792 C1808 1.368 . S
H1793 C1801 0.950 . S
H1794 C1799 0.950 . S
H1795 C1800 0.949 . S
H1796 C1802 0.950 . S
H1797 C1803 0.950 . S
H1798 C1804 0.949 . S
C1799 H1794 0.950 . S
C1799 C1801 1.327 . S
C1799 C1805 1.429 . S
C1800 C1792 1.574 . S
C1800 H1795 0.949 . S
C1800 C1806 1.368 . S
C1801 C1785 1.349 . S
C1801 H1793 0.950 . S
C1801 C1799 1.327 . S
C1802 C1790 1.349 . S
C1802 H1796 0.950 . S
C1802 C1803 1.327 . S
C1803 H1797 0.950 . S
C1803 C1802 1.327 . S
C1803 C1807 1.429 . S
C1804 C1787 1.574 . S
C1804 H1798 0.949 . S
C1804 C1808 1.368 . S
C1805 C1786 1.429 . S
C1805 C1799 1.429 . S
C1805 C1806 1.523 . S
C1806 C1787 1.368 . S
C1806 C1800 1.368 . S
C1806 C1805 1.523 . S
C1807 C1791 1.429 . S
C1807 C1803 1.429 . S
C1807 C1808 1.523 . S
C1808 C1792 1.368 . S
C1808 C1804 1.368 . S
C1808 C1807 1.523 . S
H1809 C1784 0.950 . S
H1810 C1786 0.950 . S
H1811 C1787 0.949 . S
H1812 C1789 0.950 . S
H1813 C1791 0.950 . S
C1814 C1815 1.349 . S
C1814 C1816 1.327 . S
C1814 H1839 0.950 . S
C1815 C1814 1.349 . S
C1815 C1831 1.349 . S
C1816 C1814 1.327 . S
C1816 C1835 1.429 . S
C1816 H1840 0.950 . S
C1817 C1834 1.574 . S
C1817 C1836 1.368 . S
C1817 H1841 0.949 . S
H1818 C1822 0.949 . S
C1819 C1820 1.349 . S
C1819 C1821 1.327 . S
C1819 H1842 0.950 . S
C1820 C1819 1.349 . S
C1820 C1832 1.349 . S
C1821 C1819 1.327 . S
C1821 C1837 1.429 . S
C1821 H1843 0.950 . S
C1822 H1818 0.949 . S
C1822 C1830 1.574 . S
C1822 C1838 1.368 . S
H1823 C1831 0.950 . S
H1824 C1829 0.950 . S
H1825 C1830 0.949 . S
H1826 C1832 0.950 . S
H1827 C1833 0.950 . S
H1828 C1834 0.949 . S
C1829 H1824 0.950 . S
C1829 C1831 1.327 . S
C1829 C1835 1.429 . S
C1830 C1822 1.574 . S
C1830 H1825 0.949 . S
C1830 C1836 1.368 . S
C1831 C1815 1.349 . S
C1831 H1823 0.950 . S
C1831 C1829 1.327 . S
C1832 C1820 1.349 . S
C1832 H1826 0.950 . S
C1832 C1833 1.327 . S
C1833 H1827 0.950 . S
C1833 C1832 1.327 . S
C1833 C1837 1.429 . S
C1834 C1817 1.574 . S
C1834 H1828 0.949 . S
C1834 C1838 1.368 . S
C1835 C1816 1.429 . S
C1835 C1829 1.429 . S
C1835 C1836 1.523 . S
C1836 C1817 1.368 . S
C1836 C1830 1.368 . S
C1836 C1835 1.523 . S
C1837 C1821 1.429 . S
C1837 C1833 1.429 . S
C1837 C1838 1.523 . S
C1838 C1822 1.368 . S
C1838 C1834 1.368 . S
C1838 C1837 1.523 . S
H1839 C1814 0.950 . S
H1840 C1816 0.950 . S
H1841 C1817 0.949 . S
H1842 C1819 0.950 . S
H1843 C1821 0.950 . S
C1844 C1845 1.349 . S
C1844 C1846 1.327 . S
C1844 H1869 0.950 . S
C1845 C1844 1.349 . S
C1845 C1861 1.349 . S
C1846 C1844 1.327 . S
C1846 C1865 1.429 . S
C1846 H1870 0.950 . S
C1847 C1864 1.574 . S
C1847 C1866 1.368 . S
C1847 H1871 0.949 . S
H1848 C1852 0.949 . S
C1849 C1850 1.349 . S
C1849 C1851 1.327 . S
C1849 H1872 0.950 . S
C1850 C1849 1.349 . S
C1850 C1862 1.349 . S
C1851 C1849 1.327 . S
C1851 C1867 1.429 . S
C1851 H1873 0.950 . S
C1852 H1848 0.949 . S
C1852 C1860 1.574 1_565 S
C1852 C1868 1.368 . S
H1853 C1861 0.950 . S
H1854 C1859 0.950 . S
H1855 C1860 0.949 . S
H1856 C1862 0.950 . S
H1857 C1863 0.950 . S
H1858 C1864 0.949 . S
C1859 H1854 0.950 . S
C1859 C1861 1.327 . S
C1859 C1865 1.429 . S
C1860 C1852 1.574 1_545 S
C1860 H1855 0.949 . S
C1860 C1866 1.368 . S
C1861 C1845 1.349 . S
C1861 H1853 0.950 . S
C1861 C1859 1.327 . S
C1862 C1850 1.349 . S
C1862 H1856 0.950 . S
C1862 C1863 1.327 . S
C1863 H1857 0.950 . S
C1863 C1862 1.327 . S
C1863 C1867 1.429 . S
C1864 C1847 1.574 . S
C1864 H1858 0.949 . S
C1864 C1868 1.368 1_545 S
C1865 C1846 1.429 . S
C1865 C1859 1.429 . S
C1865 C1866 1.523 . S
C1866 C1847 1.368 . S
C1866 C1860 1.368 . S
C1866 C1865 1.523 . S
C1867 C1851 1.429 . S
C1867 C1863 1.429 . S
C1867 C1868 1.523 . S
C1868 C1852 1.368 . S
C1868 C1864 1.368 1_565 S
C1868 C1867 1.523 . S
H1869 C1844 0.950 . S
H1870 C1846 0.950 . S
H1871 C1847 0.949 . S
H1872 C1849 0.950 . S
H1873 C1851 0.950 . S
C1874 C1875 1.349 . S
C1874 C1876 1.327 . S
C1874 H1899 0.950 . S
C1875 C1874 1.349 . S
C1875 C1891 1.349 . S
C1876 C1874 1.327 . S
C1876 C1895 1.429 . S
C1876 H1900 0.950 . S
C1877 C1894 1.574 . S
C1877 C1896 1.368 . S
C1877 H1901 0.949 . S
H1878 C1882 0.949 . S
C1879 C1880 1.349 . S
C1879 C1881 1.327 . S
C1879 H1902 0.950 . S
C1880 C1879 1.349 . S
C1880 C1892 1.349 . S
C1881 C1879 1.327 . S
C1881 C1897 1.429 . S
C1881 H1903 0.950 . S
C1882 H1878 0.949 . S
C1882 C1890 1.574 . S
C1882 C1898 1.368 . S
H1883 C1891 0.950 . S
H1884 C1889 0.950 . S
H1885 C1890 0.949 . S
H1886 C1892 0.950 . S
H1887 C1893 0.950 . S
H1888 C1894 0.949 . S
C1889 H1884 0.950 . S
C1889 C1891 1.327 . S
C1889 C1895 1.429 . S
C1890 C1882 1.574 . S
C1890 H1885 0.949 . S
C1890 C1896 1.368 . S
C1891 C1875 1.349 . S
C1891 H1883 0.950 . S
C1891 C1889 1.327 . S
C1892 C1880 1.349 . S
C1892 H1886 0.950 . S
C1892 C1893 1.327 . S
C1893 H1887 0.950 . S
C1893 C1892 1.327 . S
C1893 C1897 1.429 . S
C1894 C1877 1.574 . S
C1894 H1888 0.949 . S
C1894 C1898 1.368 . S
C1895 C1876 1.429 . S
C1895 C1889 1.429 . S
C1895 C1896 1.523 . S
C1896 C1877 1.368 . S
C1896 C1890 1.368 . S
C1896 C1895 1.523 . S
C1897 C1881 1.429 . S
C1897 C1893 1.429 . S
C1897 C1898 1.523 . S
C1898 C1882 1.368 . S
C1898 C1894 1.368 . S
C1898 C1897 1.523 . S
H1899 C1874 0.950 . S
H1900 C1876 0.950 . S
H1901 C1877 0.949 . S
H1902 C1879 0.950 . S
H1903 C1881 0.950 . S
C945 C52 1.511 . S
C950 C819 1.494 . S
C975 C111 1.511 . S
C980 C583 1.494 . S
C1005 C878 0.838 . S
C1010 C170 0.835 . S
C1035 C229 0.835 . S
C1040 C937 0.838 . S
C1065 C288 1.511 . S
C1070 C406 1.494 . S
C1095 C642 1.511 . S
C1100 C347 1.494 . S
C1125 C701 0.835 . S
C1130 C465 0.838 . S
C1155 C524 0.838 . S
C1160 C760 0.835 . S
C1185 C121 1.480 . S
C1190 C3 1.487 . S
C1215 C62 1.487 . S
C1220 C180 1.480 . S
C1245 C713 1.511 . S
C1250 C5 1.543 . S
C1275 C64 1.543 . S
C1280 C654 1.511 . S
C1305 C241 1.543 . S
C1310 C123 1.511 . S
C1335 C595 1.543 . S
C1340 C182 1.511 . S
C1365 C92 2.353 . S
C1370 C33 2.353 . S
C1395 C210 1.598 . S
C1400 C151 1.598 . S
C1425 C623 2.353 . S
C1430 C269 2.353 . S
C1455 C418 1.909 . S
C1460 C328 1.924 . S
C1485 C387 1.924 . S
C1490 C477 1.909 . S
C1515 C888 1.637 . S
C1520 C300 1.668 . S
C1545 C359 1.668 . S
C1550 C829 1.637 . S
C1575 C536 1.668 . S
C1580 C416 1.637 . S
C1605 C475 1.637 . S
C1610 C772 1.668 . S
C1635 C357 1.049 . S
C1640 C298 1.049 . S
C1665 C505 1.919 . S
C1670 C446 1.919 . S
C1695 C534 1.049 . S
C1700 C770 1.049 . S
C1725 C593 1.487 . S
C1730 C652 1.480 . S
C1755 C711 1.480 . S
C1760 C239 1.487 . S
C1785 C741 1.598 . S
C1790 C682 1.598 . S
C1815 C831 1.909 . S
C1820 C800 1.924 . S
C1845 C564 1.924 . S
C1850 C890 1.909 . S
C1875 C918 1.919 . S
C1880 C859 1.919 . S
