# Generated by pormake.
# Topology smu, (6)-cn, num edge types: 1
# Building blocks:
#     Node 0, Type 0, BuildingBlock: HISSIN_clean_sbu_0, # of connection points: 6
#     Node 1, Type 0, BuildingBlock: HISSIN_clean_sbu_0, # of connection points: 6
#     Node 2, Type 0, BuildingBlock: HISSIN_clean_sbu_0, # of connection points: 6
#     Node 3, Type 0, BuildingBlock: HISSIN_clean_sbu_0, # of connection points: 6
#     Node 4, Type 0, BuildingBlock: HISSIN_clean_sbu_0, # of connection points: 6
#     Node 5, Type 0, BuildingBlock: HISSIN_clean_sbu_0, # of connection points: 6
#     Edge 6, Type (0, 0), BuildingBlock: CIFDUS_clean_linker_0, # of connection points: 2
#     Edge 7, Type (0, 0), BuildingBlock: CIFDUS_clean_linker_0, # of connection points: 2
#     Edge 8, Type (0, 0), BuildingBlock: CIFDUS_clean_linker_0, # of connection points: 2
#     Edge 9, Type (0, 0), BuildingBlock: CIFDUS_clean_linker_0, # of connection points: 2
#     Edge 10, Type (0, 0), BuildingBlock: CIFDUS_clean_linker_0, # of connection points: 2
#     Edge 11, Type (0, 0), BuildingBlock: CIFDUS_clean_linker_0, # of connection points: 2
#     Edge 12, Type (0, 0), BuildingBlock: CIFDUS_clean_linker_0, # of connection points: 2
#     Edge 13, Type (0, 0), BuildingBlock: CIFDUS_clean_linker_0, # of connection points: 2
#     Edge 14, Type (0, 0), BuildingBlock: CIFDUS_clean_linker_0, # of connection points: 2
#     Edge 15, Type (0, 0), BuildingBlock: CIFDUS_clean_linker_0, # of connection points: 2
#     Edge 16, Type (0, 0), BuildingBlock: CIFDUS_clean_linker_0, # of connection points: 2
#     Edge 17, Type (0, 0), BuildingBlock: CIFDUS_clean_linker_0, # of connection points: 2
#     Edge 18, Type (0, 0), BuildingBlock: CIFDUS_clean_linker_0, # of connection points: 2
#     Edge 19, Type (0, 0), BuildingBlock: CIFDUS_clean_linker_0, # of connection points: 2
#     Edge 20, Type (0, 0), BuildingBlock: CIFDUS_clean_linker_0, # of connection points: 2
#     Edge 21, Type (0, 0), BuildingBlock: CIFDUS_clean_linker_0, # of connection points: 2
#     Edge 22, Type (0, 0), BuildingBlock: CIFDUS_clean_linker_0, # of connection points: 2
#     Edge 23, Type (0, 0), BuildingBlock: CIFDUS_clean_linker_0, # of connection points: 2
# Relax obj value: 0.226
# Max RMSD: 0.322
# Mean RMSD: 0.322
data_MOF--net-smu--node1-HISSIN_clean_sbu_0--edge1-CIFDUS_clean_linker_0
_symmetry_space_group_name_H-M    P1
_symmetry_Int_Tables_number       1
_symmetry_cell_setting            triclinic
loop_
_symmetry_equiv_pos_as_xyz
'x, y, z'
_cell_length_a     36.190238
_cell_length_b     36.026093
_cell_length_c     24.155702
_cell_angle_alpha  90.277959
_cell_angle_beta   89.684675
_cell_angle_gamma 119.90106
loop_
_atom_site_label
_atom_site_type_symbol
_atom_site_fract_x
_atom_site_fract_y
_atom_site_fract_z
_atom_type_partial_charge
Eu0 Eu 0.32447 0.12493 0.25736 0.0
Eu1 Eu 0.39151 0.09131 0.26666 0.0
C2 C 0.34159 0.08063 0.15319 0.0
C3 C 0.24312 0.16843 0.25549 0.0
C4 C 0.2148 0.15561 0.21077 0.0
C5 C 0.2039 0.19909 0.29998 0.0
C6 C 0.18212 0.16529 0.20999 0.0
C7 C 0.23714 0.18987 0.3004 0.0
C8 C 0.17643 0.18751 0.25427 0.0
C9 C 0.28268 0.16646 0.25053 0.0
O10 O 0.42511 0.1623 0.28965 0.0
O11 O 0.38818 0.17374 0.22509 0.0
C12 C 0.4207 0.18919 0.25804 0.0
O13 O 0.3309 0.11557 0.35012 0.0
O14 O 0.43651 0.07692 0.22426 0.0
O15 O 0.43348 0.07611 0.31367 0.0
O16 O 0.35502 0.06756 0.34536 0.0
C17 C 0.33729 0.08594 0.37279 0.0
O18 O 0.2798 0.05566 0.27066 0.0
O19 O 0.32654 0.02938 0.25915 0.0
O20 O 0.37929 0.09461 0.17565 0.0
O21 O 0.30269 0.16614 0.29513 0.0
O22 O 0.28572 0.14383 0.21037 0.0
O23 O 0.31222 0.08523 0.17938 0.0
C24 C 0.50168 0.09958 0.27324 0.0
C25 C 0.52191 0.10619 0.32474 0.0
C26 C 0.57165 0.13466 0.22859 0.0
C27 C 0.56626 0.12622 0.32811 0.0
C28 C 0.52709 0.11458 0.22518 0.0
C29 C 0.59167 0.13985 0.28004 0.0
C30 C 0.45438 0.07506 0.27013 0.0
C31 C 0.28752 0.02383 0.26493 0.0
H32 H 0.21898 0.13984 0.17497 0.0
H33 H 0.20009 0.21571 0.33509 0.0
H34 H 0.16229 0.15663 0.17345 0.0
H35 H 0.25903 0.20082 0.33499 0.0
H36 H 0.50342 0.09505 0.36258 0.0
H37 H 0.59027 0.14451 0.19076 0.0
H38 H 0.58068 0.13031 0.36851 0.0
H39 H 0.51256 0.1099 0.18478 0.0
Eu40 Eu 0.8331 0.72502 0.28032 0.0
Eu41 Eu 0.73336 0.64557 0.25969 0.0
C42 C 0.78707 0.71231 0.16016 0.0
C43 C 0.95618 0.8057 0.28568 0.0
C44 C 0.96928 0.81208 0.23009 0.0
C45 C 0.03038 0.84419 0.31428 0.0
C46 C 1.01277 0.83494 0.21674 0.0
C47 C 0.98703 0.82129 0.3275 0.0
C48 C 0.04388 0.85195 0.25873 0.0
C49 C 0.91096 0.78522 0.30195 0.0
O50 O 0.77469 0.61609 0.28052 0.0
O51 O 0.83698 0.66943 0.2454 0.0
C52 C 0.81368 0.62989 0.26222 0.0
O53 O 0.80452 0.70526 0.36723 0.0
O54 O 0.69248 0.59016 0.20869 0.0
O55 O 0.66506 0.6063 0.27822 0.0
O56 O 0.73299 0.65837 0.35079 0.0
C57 C 0.76462 0.68187 0.38453 0.0
O58 O 0.78649 0.74355 0.30986 0.0
O59 O 0.73399 0.70944 0.24722 0.0
O60 O 0.75848 0.67311 0.17492 0.0
O61 O 0.89365 0.74668 0.32263 0.0
O62 O 0.88492 0.79075 0.27025 0.0
O63 O 0.81737 0.73877 0.19415 0.0
C64 C 0.63276 0.53266 0.25152 0.0
C65 C 0.64705 0.51245 0.28831 0.0
C66 C 0.57124 0.46335 0.23 0.0
C67 C 0.62345 0.46784 0.29588 0.0
C68 C 0.5946 0.50777 0.22288 0.0
C69 C 0.58528 0.44249 0.26644 0.0
C70 C 0.65846 0.57882 0.23867 0.0
C71 C 0.75885 0.74414 0.27635 0.0
H72 H 0.94598 0.80017 0.1971 0.0
H73 H 0.05317 0.85735 0.34775 0.0
H74 H 0.02201 0.83987 0.1735 0.0
H75 H 0.97751 0.81682 0.37068 0.0
H76 H 0.67669 0.53105 0.31052 0.0
H77 H 0.54274 0.44531 0.2055 0.0
H78 H 0.6352 0.45328 0.32476 0.0
H79 H 0.58329 0.52263 0.19374 0.0
Eu80 Eu 0.90342 0.20562 0.26328 0.0
Eu81 Eu 0.94546 0.30873 0.26919 0.0
C82 C 0.95177 0.26656 0.1581 0.0
C83 C 0.8563 0.07996 0.25105 0.0
C84 C 0.8405 0.05328 0.20426 0.0
C85 C 0.85526 0.02134 0.30153 0.0
C86 C 0.8318 1.01083 0.20616 0.0
C87 C 0.86395 0.06369 0.29961 0.0
C88 C 0.8388 0.99429 0.25498 0.0
C89 C 0.85921 0.12232 0.2501 0.0
O90 O 0.87608 0.27761 0.24167 0.0
O91 O 0.85575 0.22143 0.2974 0.0
C92 C 0.84585 0.24578 0.2694 0.0
O93 O 0.9397 0.22264 0.34459 0.0
O94 O 0.96337 0.36945 0.22818 0.0
O95 O 0.96081 0.36611 0.3176 0.0
O96 O 0.94139 0.28664 0.35782 0.0
C97 C 0.94866 0.25633 0.37567 0.0
O98 O 0.97196 0.2266 0.26179 0.0
O99 O 1.00464 0.30059 0.27188 0.0
O100 O 0.97269 0.29937 0.19085 0.0
O101 O 0.86238 0.14184 0.29694 0.0
O102 O 0.88056 0.14879 0.21027 0.0
O103 O 0.91592 0.2328 0.1748 0.0
C104 C 0.93924 0.41182 0.27408 0.0
C105 C 0.90455 0.40059 0.3101 0.0
C106 C 0.92815 0.46796 0.23571 0.0
C107 C 0.88233 0.42333 0.30947 0.0
C108 C 0.95047 0.44548 0.23667 0.0
C109 C 0.89405 0.45768 0.27257 0.0
C110 C 0.96383 0.38884 0.27408 0.0
C111 C 1.00617 0.26466 0.2656 0.0
H112 H 0.83389 0.065 0.16651 0.0
H113 H 0.86055 1.00945 0.34005 0.0
H114 H 0.81965 0.99101 0.16948 0.0
H115 H 0.87562 0.08327 0.33655 0.0
H116 H 0.89473 0.37444 0.33907 0.0
H117 H 0.93761 0.49336 0.20568 0.0
H118 H 0.85654 0.41449 0.33876 0.0
H119 H 0.97669 0.45446 0.20797 0.0
Eu120 Eu 0.0926 0.385 0.7702 0.0
Eu121 Eu 0.12875 0.31835 0.76143 0.0
C122 C 0.08716 0.33071 0.87737 0.0
C123 C 0.10218 0.49557 0.77531 0.0
C124 C 0.12232 0.51856 0.82377 0.0
C125 C 0.12991 0.56347 0.72655 0.0
C126 C 0.14565 0.56341 0.82369 0.0
C127 C 0.10644 0.51864 0.72669 0.0
C128 C 0.14947 0.58657 0.7752 0.0
C129 C 0.07615 0.44796 0.77564 0.0
O130 O 0.06095 0.27436 0.78148 0.0
O131 O 0.03259 0.31846 0.76263 0.0
C132 C 0.02852 0.28042 0.77343 0.0
O133 O 0.10021 0.37604 0.67929 0.0
O134 O 0.17865 0.30542 0.78806 0.0
O135 O 0.13633 0.26799 0.72084 0.0
O136 O 0.09215 0.30918 0.68126 0.0
C137 C 0.08782 0.33885 0.65545 0.0
O138 O 0.16253 0.42022 0.79291 0.0
O139 O 0.17898 0.3832 0.73221 0.0
O140 O 0.11601 0.32261 0.85478 0.0
O141 O 0.07419 0.42772 0.7298 0.0
O142 O 0.07969 0.42844 0.81882 0.0
O143 O 0.07036 0.34976 0.84973 0.0
C144 C 0.17678 0.23984 0.76379 0.0
C145 C 0.18384 0.21873 0.71956 0.0
C146 C 0.1955 0.20016 0.82799 0.0
C147 C 0.19712 0.18898 0.72926 0.0
C148 C 0.18225 0.23002 0.81821 0.0
C149 C 0.2037 0.17976 0.78356 0.0
C150 C 0.16902 0.27535 0.75116 0.0
C151 C 0.191 0.41707 0.76296 0.0
H152 H 0.11967 0.50197 0.86214 0.0
H153 H 0.13269 0.58002 0.68811 0.0
H154 H 0.15971 0.5799 0.86212 0.0
H155 H 0.0914 0.50203 0.68866 0.0
H156 H 0.18016 0.22611 0.6772 0.0
H157 H 0.20044 0.19393 0.87033 0.0
H158 H 0.20228 0.17327 0.69416 0.0
H159 H 0.17737 0.24614 0.85306 0.0
Eu160 Eu 0.30768 0.93592 0.76251 0.0
Eu161 Eu 0.20473 0.90434 0.75849 0.0
C162 C 0.26083 0.94062 0.8745 0.0
C163 C 0.41071 0.92655 0.76517 0.0
C164 C 0.41921 0.9168 0.81827 0.0
C165 C 0.45508 0.89951 0.72571 0.0
C166 C 0.44574 0.89901 0.82494 0.0
C167 C 0.42875 0.91738 0.71908 0.0
C168 C 0.46442 0.89053 0.77874 0.0
C169 C 0.38561 0.94855 0.75648 0.0
O170 O 0.23327 0.97321 0.77782 0.0
O171 O 0.30544 0.99859 0.76169 0.0
C172 C 0.27274 1.00454 0.77265 0.0
O173 O 0.29709 0.95186 0.67561 0.0
O174 O 0.14238 0.85246 0.78419 0.0
O175 O 0.14694 0.9019 0.72774 0.0
O176 O 0.22639 0.9346 0.67458 0.0
C177 C 0.26415 0.95081 0.65129 0.0
O178 O 0.26867 0.8644 0.78025 0.0
O179 O 0.21887 0.8564 0.71978 0.0
O180 O 0.22303 0.91932 0.85021 0.0
O181 O 0.35868 0.93477 0.71547 0.0
O182 O 0.37078 0.95922 0.79945 0.0
O183 O 0.29657 0.95028 0.84878 0.0
C184 C 0.07903 0.8575 0.77084 0.0
C185 C 0.05286 0.86051 0.73056 0.0
C186 C 1.01855 0.82576 0.83406 0.0
C187 C 1.00978 0.84543 0.74133 0.0
C188 C 0.06176 0.84068 0.82311 0.0
C189 C 0.99191 0.82698 0.79274 0.0
C190 C 0.12188 0.86641 0.75402 0.0
C191 C 0.23666 0.83929 0.74857 0.0
H192 H 0.4059 0.92343 0.85473 0.0
H193 H 0.46926 0.89407 0.68922 0.0
H194 H 0.45179 0.89207 0.8664 0.0
H195 H 0.42321 0.92492 0.67767 0.0
H196 H 0.06539 0.87308 0.68979 0.0
H197 H 1.00563 0.81173 0.87408 0.0
H198 H 0.99028 0.84762 0.70907 0.0
H199 H 0.08119 0.83772 0.85478 0.0
Eu200 Eu 0.64711 0.71999 0.77451 0.0
Eu201 Eu 0.71832 0.82163 0.77237 0.0
C202 C 0.70025 0.7678 0.88451 0.0
C203 C 0.53575 0.6169 0.77319 0.0
C204 C 0.50771 0.62163 0.80936 0.0
C205 C 0.47444 0.55933 0.72627 0.0
C206 C 0.46343 0.59475 0.8047 0.0
C207 C 0.51852 0.58592 0.73115 0.0
C208 C 0.44623 0.56253 0.76382 0.0
C209 C 0.58271 0.64142 0.78064 0.0
O210 O 0.75897 0.79168 0.76644 0.0
O211 O 0.71007 0.72026 0.78502 0.0
C212 C 0.7494 0.75206 0.77619 0.0
O213 O 0.67929 0.72525 0.69356 0.0
O214 O 0.76208 0.88304 0.81146 0.0
O215 O 0.74702 0.88022 0.7229 0.0
O216 O 0.71516 0.79843 0.68309 0.0
C217 C 0.70299 0.75954 0.66406 0.0
O218 O 0.61547 0.75668 0.74365 0.0
O219 O 0.65502 0.81495 0.79639 0.0
O220 O 0.72962 0.79959 0.85525 0.0
O221 O 0.60602 0.65745 0.73643 0.0
O222 O 0.59792 0.66723 0.82296 0.0
O223 O 0.66228 0.74239 0.86351 0.0
C224 C 0.79588 0.9504 0.76107 0.0
C225 C 0.81778 0.96888 0.71167 0.0
C226 C 0.82419 0.02121 0.80109 0.0
C227 C 0.84325 1.01332 0.70721 0.0
C228 C 0.79951 0.97681 0.80584 0.0
C229 C 0.8466 0.04014 0.7518 0.0
C230 C 0.76783 0.90385 0.76525 0.0
C231 C 0.6202 0.79112 0.76857 0.0
H232 H 0.51991 0.64528 0.84221 0.0
H233 H 0.4625 0.53571 0.69339 0.0
H234 H 0.44286 0.59816 0.83451 0.0
H235 H 0.53927 0.58157 0.70261 0.0
H236 H 0.81547 0.94894 0.67663 0.0
H237 H 0.82518 0.04064 0.83599 0.0
H238 H 0.86069 0.02653 0.66907 0.0
H239 H 0.78245 0.96318 0.84414 0.0
H240 H 0.3291 0.97089 0.9423 0.0
H241 H 0.20365 0.9564 0.93183 0.0
H242 H 0.21731 0.99919 1.01662 0.0
H243 H 0.26684 0.04355 0.09226 0.0
H244 H 0.39316 0.05898 0.09671 0.0
H245 H 0.37718 1.01358 1.01576 0.0
C246 C 0.30437 0.97657 0.95866 0.0
C247 C 0.26521 0.95994 0.93065 0.0
C248 C 0.3129 1.00213 1.00622 0.0
C249 C 0.2338 0.96795 0.95287 0.0
C250 C 0.24184 0.99295 1.00107 0.0
C251 C 0.29099 0.03732 0.07516 0.0
C252 C 0.33147 0.05542 0.10065 0.0
C253 C 0.28162 1.01081 0.02776 0.0
C254 C 0.36201 0.0463 0.07805 0.0
C255 C 0.35283 0.01995 0.03172 0.0
H256 H 0.67493 0.68505 0.60725 0.0
H257 H 0.76859 0.81949 0.59946 0.0
H258 H 0.79895 0.8067 0.51536 0.0
H259 H 0.79821 0.75686 0.44307 0.0
H260 H 0.70217 0.62328 0.45071 0.0
H261 H 0.67407 0.63607 0.53642 0.0
C262 C 0.7019 0.71176 0.58722 0.0
C263 C 0.71919 0.7533 0.60982 0.0
C264 C 0.71928 0.70411 0.5392 0.0
C265 C 0.75417 0.7873 0.58284 0.0
C266 C 0.77182 0.77989 0.53495 0.0
C267 C 0.77181 0.7304 0.46433 0.0
C268 C 0.75292 0.68885 0.44116 0.0
C269 C 0.75478 0.73834 0.51286 0.0
C270 C 0.71774 0.65528 0.46813 0.0
C271 C 0.70141 0.66268 0.51689 0.0
H272 H 0.0337 0.29162 0.13034 0.0
H273 H 0.90969 0.24844 0.05948 0.0
H274 H 0.9413 0.26423 0.96642 0.0
H275 H 1.00481 0.29675 0.90687 0.0
H276 H 0.12783 0.33107 0.97428 0.0
H277 H 0.09628 0.31324 0.06779 0.0
C278 C 1.01357 0.28512 0.09432 0.0
C279 C 0.9694 0.26936 0.10164 0.0
C280 C 0.03192 0.29327 0.04086 0.0
C281 C 0.94359 0.26051 0.05485 0.0
C282 C 0.96176 0.26983 1.00177 0.0
C283 C 0.02467 0.2992 0.94173 0.0
C284 C 0.06868 0.31491 0.93343 0.0
C285 C 1.00594 0.28708 0.99449 0.0
C286 C 0.09391 0.3186 0.97932 0.0
C287 C 0.07582 0.30855 0.03275 0.0
H288 H 0.27496 1.00756 0.40198 0.0
H289 H 0.36958 0.12846 0.47005 0.0
H290 H 0.35583 0.09681 0.56307 0.0
H291 H 0.32008 0.03291 0.62367 0.0
H292 H 0.22207 0.9134 0.55613 0.0
H293 H 0.23407 0.94583 0.4639 0.0
C294 C 0.29178 0.02711 0.43751 0.0
C295 C 0.32283 0.07034 0.42961 0.0
C296 C 0.28361 1.00862 0.49054 0.0
C297 C 0.34495 0.09538 0.47554 0.0
C298 C 0.33742 0.07711 0.52848 0.0
C299 C 0.3013 1.01419 0.58866 0.0
C300 C 0.27063 0.97075 0.59616 0.0
C301 C 0.30745 0.03353 0.53628 0.0
C302 C 0.24597 0.9468 0.55098 0.0
C303 C 0.2528 0.96537 0.49842 0.0
H304 H 0.77841 0.80196 0.93725 0.0
H305 H 0.6451 0.70796 0.95687 0.0
H306 H 0.66085 0.68224 0.04122 0.0
H307 H 0.71175 0.68406 0.10821 0.0
H308 H 0.84499 0.77839 0.09358 0.0
H309 H 0.83011 0.80565 1.0083 0.0
C310 C 0.75276 0.7761 0.9602 0.0
C311 C 0.71051 0.75692 0.93998 0.0
C312 C 0.7621 0.76091 1.00924 0.0
C313 C 0.67786 0.72347 0.97079 0.0
C314 C 0.68685 0.70846 0.01916 0.0
C315 C 0.73781 0.71032 0.08619 0.0
C316 C 0.77968 0.72849 0.10686 0.0
C317 C 0.72881 0.72643 0.03831 0.0
C318 C 0.81258 0.76339 0.07839 0.0
C319 C 0.80399 0.7791 0.02972 0.0
H320 H 0.98168 0.32703 0.44196 0.0
H321 H 0.96944 0.20189 0.42979 0.0
H322 H 1.01223 0.21622 0.51382 0.0
H323 H 0.05389 0.26507 0.59132 0.0
H324 H 0.06709 0.39098 0.5988 0.0
H325 H 0.02361 0.37545 0.51651 0.0
C326 C 0.98787 0.30254 0.45775 0.0
C327 C 0.97161 0.26312 0.42951 0.0
C328 C 1.01327 0.31133 0.50539 0.0
C329 C 0.98089 0.23232 0.45071 0.0
C330 C 1.00567 0.24062 0.49874 0.0
C331 C 0.04767 0.28929 0.57461 0.0
C332 C 0.06438 0.3294 0.6016 0.0
C333 C 0.02231 0.28019 0.52642 0.0
C334 C 0.05536 0.36003 0.57919 0.0
C335 C 0.03012 0.35111 0.53202 0.0
H336 H 0.6573 0.20824 0.22576 0.0
H337 H 0.631 0.10731 0.34215 0.0
H338 H 0.70675 0.13233 0.35014 0.0
H339 H 0.77994 0.1815 0.32392 0.0
H340 H 0.80895 0.28255 0.20678 0.0
H341 H 0.73266 0.25885 0.19927 0.0
C342 C 0.66824 0.19173 0.2527 0.0
C343 C 0.63837 0.15617 0.28379 0.0
C344 C 0.71226 0.20629 0.25706 0.0
C345 C 0.65315 0.13523 0.31865 0.0
C346 C 0.69652 0.14935 0.32301 0.0
C347 C 0.76985 0.19865 0.29677 0.0
C348 C 0.80027 0.23385 0.26596 0.0
C349 C 0.72628 0.18477 0.29253 0.0
C350 C 0.78627 0.25546 0.23111 0.0
C351 C 0.74264 0.24181 0.2267 0.0
H352 H 0.49879 0.38946 0.26286 0.0
H353 H 0.61589 0.38678 0.28276 0.0
H354 H 0.57569 0.30863 0.28687 0.0
H355 H 0.50682 0.2399 0.27905 0.0
H356 H 0.39167 0.24475 0.25107 0.0
H357 H 0.43148 0.32256 0.25495 0.0
C358 C 0.51583 0.37203 0.2675 0.0
C359 C 0.56061 0.39458 0.27212 0.0
C360 C 0.49267 0.32699 0.2681 0.0
C361 C 0.58151 0.37079 0.27974 0.0
C362 C 0.5585 0.32586 0.28163 0.0
C363 C 0.49058 0.25812 0.27434 0.0
C364 C 0.44634 0.23645 0.2646 0.0
C365 C 0.51402 0.30346 0.2752 0.0
C366 C 0.42574 0.26053 0.25811 0.0
C367 C 0.44847 0.30514 0.26041 0.0
H368 H 0.92884 0.54365 0.25632 0.0
H369 H 0.80861 0.42991 0.29042 0.0
H370 H 0.77296 0.47247 0.29153 0.0
H371 H 0.77582 0.54269 0.28153 0.0
H372 H 0.89684 0.65467 0.24351 0.0
H373 H 0.93154 0.61194 0.24409 0.0
C374 C 0.8947 0.52779 0.26317 0.0
C375 C 0.87169 0.48336 0.27304 0.0
C376 C 0.87424 0.55229 0.26287 0.0
C377 C 0.82753 0.46405 0.28331 0.0
C378 C 0.80695 0.48838 0.28359 0.0
C379 C 0.80975 0.55768 0.27332 0.0
C380 C 0.83342 0.60204 0.26234 0.0
C381 C 0.82997 0.53265 0.27334 0.0
C382 C 0.87745 0.62072 0.25178 0.0
C383 C 0.89757 0.59628 0.25222 0.0
H384 H 0.1274 0.63872 0.72113 0.0
H385 H 0.22276 0.64271 0.83127 0.0
H386 H 0.25845 0.72097 0.83342 0.0
H387 H 0.2625 0.78899 0.80358 0.0
H388 H 0.1671 0.78248 0.6909 0.0
H389 H 0.13245 0.70504 0.68954 0.0
C390 C 0.1564 0.65654 0.74494 0.0
C391 C 0.17226 0.6345 0.77575 0.0
C392 C 0.17704 0.70147 0.74548 0.0
C393 C 0.20937 0.65855 0.8075 0.0
C394 C 0.23002 0.70345 0.80852 0.0
C395 C 0.23431 0.77059 0.77852 0.0
C396 C 0.21773 0.79191 0.74729 0.0
C397 C 0.21413 0.72537 0.77766 0.0
C398 C 0.18094 0.76734 0.71525 0.0
C399 C 0.16086 0.7228 0.71444 0.0
H400 H 0.47129 0.83023 0.71657 0.0
H401 H 0.52714 0.9148 0.85648 0.0
H402 H 0.57945 0.89132 0.86605 0.0
H403 H 0.61094 0.84831 0.83328 0.0
H404 H 0.55465 0.76281 0.6944 0.0
H405 H 0.50155 0.78553 0.68546 0.0
C406 C 0.49498 0.84366 0.74907 0.0
C407 C 0.49507 0.87435 0.78572 0.0
C408 C 0.52518 0.83001 0.75437 0.0
C409 C 0.52576 0.8908 0.82806 0.0
C410 C 0.55599 0.8776 0.83334 0.0
C411 C 0.58702 0.83455 0.80108 0.0
C412 C 0.58696 0.8039 0.76447 0.0
C413 C 0.5562 0.84743 0.79655 0.0
C414 C 0.55545 0.78628 0.7233 0.0
C415 C 0.52507 0.79935 0.71808 0.0
H416 H 0.25836 0.40576 0.74301 0.0
H417 H 0.22658 0.50207 0.79011 0.0
H418 H 0.3026 0.556 0.79393 0.0
H419 H 0.37836 0.57568 0.78297 0.0
H420 H 0.40856 0.47694 0.74185 0.0
H421 H 0.33313 0.42441 0.73627 0.0
C422 C 0.26803 0.43861 0.75387 0.0
C423 C 0.23686 0.44999 0.76576 0.0
C424 C 0.31164 0.46912 0.75695 0.0
C425 C 0.24997 0.49251 0.78075 0.0
C426 C 0.29343 0.52334 0.78286 0.0
C427 C 0.36849 0.54264 0.77318 0.0
C428 C 0.39952 0.53074 0.76187 0.0
C429 C 0.32463 0.51202 0.77106 0.0
C430 C 0.38576 0.48759 0.74915 0.0
C431 C 0.34247 0.45727 0.7464 0.0
H432 H 0.17756 0.26055 0.29194 0.0
H433 H 0.09721 0.13874 0.21154 0.0
H434 H 0.04232 0.15744 0.19892 0.0
H435 H 1.01597 0.20565 0.21239 0.0
H436 H 0.08671 0.32158 0.30776 0.0
H437 H 0.14771 0.30882 0.31092 0.0
C438 C 0.14784 0.2379 0.27231 0.0
C439 C 0.14207 0.19856 0.25162 0.0
C440 C 0.11517 0.2481 0.26711 0.0
C441 C 0.10332 0.16975 0.22618 0.0
C442 C 0.0717 0.18028 0.21916 0.0
C443 C 0.04455 0.22829 0.23445 0.0
C444 C 0.04655 0.26408 0.26085 0.0
C445 C 0.07736 0.21915 0.23943 0.0
C446 C 0.08442 0.29373 0.2872 0.0
C447 C 0.11892 0.28606 0.28958 0.0
H448 H 0.11416 0.85717 0.30955 0.0
H449 H 0.07715 0.91269 0.17795 0.0
H450 H 0.15138 0.96589 0.16186 0.0
H451 H 0.22519 1.00248 0.19272 0.0
H452 H 0.26344 0.95198 0.32805 0.0
H453 H 0.19051 0.89071 0.335 0.0
C454 C 0.12236 0.88074 0.27712 0.0
C455 C 0.08981 0.8808 0.24514 0.0
C456 C 0.16534 0.91216 0.26885 0.0
C457 C 0.10125 0.91126 0.20273 0.0
C458 C 0.14378 0.94202 0.19373 0.0
C459 C 0.21774 0.97729 0.22266 0.0
C460 C 0.2493 0.98135 0.25972 0.0
C461 C 0.17583 0.94341 0.22741 0.0
C462 C 0.23961 0.94901 0.29866 0.0
C463 C 0.19783 0.9144 0.30302 0.0
H464 H 0.76935 0.92085 0.21468 0.0
H465 H 0.88873 0.96674 0.30096 0.0
H466 H 0.87319 0.89371 0.31475 0.0
H467 H 0.82615 0.81864 0.30637 0.0
H468 H 0.70759 0.76778 0.21704 0.0
H469 H 0.72261 0.84161 0.19995 0.0
C470 C 0.79207 0.91474 0.23594 0.0
C471 C 0.82983 0.94932 0.25789 0.0
C472 C 0.78299 0.87214 0.24358 0.0
C473 C 0.85903 0.94088 0.28505 0.0
C474 C 0.85026 0.89911 0.29274 0.0
C475 C 0.80295 0.82299 0.28334 0.0
C476 C 0.76507 0.78733 0.26422 0.0
C477 C 0.81215 0.86473 0.27312 0.0
C478 C 0.73657 0.79452 0.23313 0.0
C479 C 0.74531 0.83672 0.22326 0.0
H480 H 0.26443 0.17053 0.72661 0.0
H481 H 0.17585 0.11842 0.86342 0.0
H482 H 0.19709 0.06495 0.87871 0.0
H483 H 0.2349 0.02859 0.84797 0.0
H484 H 0.31882 0.07505 0.70665 0.0
H485 H 0.30645 0.13604 0.69921 0.0
C486 C 0.24982 0.14749 0.75979 0.0
C487 C 0.21847 0.14853 0.7938 0.0
C488 C 0.26174 0.1162 0.76787 0.0
C489 C 0.20035 0.11879 0.83709 0.0
C490 C 0.21238 0.08807 0.84576 0.0
C491 C 0.2514 0.05278 0.81641 0.0
C492 C 0.27775 0.04756 0.77791 0.0
C493 C 0.24245 0.08611 0.81093 0.0
C494 C 0.29892 0.07883 0.73718 0.0
C495 C 0.29121 0.11321 0.73244 0.0
H496 H 0.92711 0.77569 0.7235 0.0
H497 H 0.95255 0.8365 0.884 0.0
H498 H 0.87643 0.80964 0.89788 0.0
H499 H 0.80426 0.77651 0.8596 0.0
H500 H 0.77899 0.71982 0.69719 0.0
H501 H 0.8533 0.73648 0.68891 0.0
C502 C 0.91593 0.7829 0.76159 0.0
C503 C 0.94546 0.80839 0.80249 0.0
C504 C 0.87216 0.76758 0.76908 0.0
C505 C 0.93048 0.81686 0.85202 0.0
C506 C 0.88699 0.80158 0.85993 0.0
C507 C 0.81472 0.76607 0.82362 0.0
C508 C 0.78625 0.74582 0.77981 0.0
C509 C 0.85771 0.7776 0.81835 0.0
C510 C 0.80017 0.73394 0.73219 0.0
C511 C 0.8428 0.74431 0.72708 0.0
H512 H 0.96789 0.23651 0.69588 0.0
H513 H 1.00083 0.2356 0.86658 0.0
H514 H 0.94468 0.16191 0.87636 0.0
H515 H 0.89452 0.09503 0.83315 0.0
H516 H 0.8617 0.09208 0.66099 0.0
H517 H 0.91086 0.16911 0.65412 0.0
C518 C 0.96116 0.22055 0.73568 0.0
C519 C 0.98679 0.24214 0.78143 0.0
C520 C 0.93029 0.17682 0.73998 0.0
C521 C 0.97966 0.22059 0.83204 0.0
C522 C 0.94831 0.17793 0.83715 0.0
C523 C 0.89689 0.11117 0.79442 0.0
C524 C 0.87428 0.08748 0.74776 0.0
C525 C 0.92452 0.15537 0.79096 0.0
C526 C 0.87922 0.10921 0.69751 0.0
C527 C 0.907 0.15343 0.69363 0.0
loop_
_geom_bond_atom_site_label_1
_geom_bond_atom_site_label_2
_geom_bond_distance
_geom_bond_site_symmetry_2
_ccdc_geom_bond_type
Eu0 C9 2.828 . S
Eu0 O11 2.392 . S
Eu0 O13 2.418 . S
Eu0 O18 2.373 . S
Eu0 O21 2.488 . S
Eu0 O22 2.471 . S
Eu0 O23 2.349 . S
Eu1 O10 2.373 . S
Eu1 O14 2.488 . S
Eu1 O15 2.471 . S
Eu1 O16 2.349 . S
Eu1 O19 2.392 . S
Eu1 O20 2.418 . S
Eu1 C30 2.828 . S
C2 O20 1.244 . S
C2 O23 1.265 . S
C3 C4 1.379 . S
C3 C7 1.373 . S
C3 C9 1.505 . S
C4 C3 1.379 . S
C4 C6 1.369 . S
C4 H32 0.930 . S
C5 C7 1.383 . S
C5 C8 1.382 . S
C5 H33 0.930 . S
C6 C4 1.369 . S
C6 C8 1.392 . S
C6 H34 0.930 . S
C7 C3 1.373 . S
C7 C5 1.383 . S
C7 H35 0.931 . S
C8 C5 1.382 . S
C8 C6 1.392 . S
C9 Eu0 2.828 . S
C9 C3 1.505 . S
C9 O21 1.249 . S
C9 O22 1.244 . S
O10 Eu1 2.373 . S
O10 C12 1.258 . S
O11 Eu0 2.392 . S
O11 C12 1.242 . S
C12 O10 1.258 . S
C12 O11 1.242 . S
O13 Eu0 2.418 . S
O13 C17 1.244 . S
O14 Eu1 2.488 . S
O14 C30 1.249 . S
O15 Eu1 2.471 . S
O15 C30 1.244 . S
O16 Eu1 2.349 . S
O16 C17 1.265 . S
C17 O13 1.244 . S
C17 O16 1.265 . S
O18 Eu0 2.373 . S
O18 C31 1.258 . S
O19 Eu1 2.392 . S
O19 C31 1.242 . S
O20 Eu1 2.418 . S
O20 C2 1.244 . S
O21 Eu0 2.488 . S
O21 C9 1.249 . S
O22 Eu0 2.471 . S
O22 C9 1.244 . S
O23 Eu0 2.349 . S
O23 C2 1.265 . S
C24 C25 1.379 . S
C24 C28 1.373 . S
C24 C30 1.505 . S
C25 C24 1.379 . S
C25 C27 1.369 . S
C25 H36 0.930 . S
C26 C28 1.383 . S
C26 C29 1.382 . S
C26 H37 0.930 . S
C27 C25 1.369 . S
C27 C29 1.392 . S
C27 H38 0.930 . S
C28 C24 1.373 . S
C28 C26 1.383 . S
C28 H39 0.931 . S
C29 C26 1.382 . S
C29 C27 1.392 . S
C30 Eu1 2.828 . S
C30 O14 1.249 . S
C30 O15 1.244 . S
C30 C24 1.505 . S
C31 O18 1.258 . S
C31 O19 1.242 . S
H32 C4 0.930 . S
H33 C5 0.930 . S
H34 C6 0.930 . S
H35 C7 0.931 . S
H36 C25 0.930 . S
H37 C26 0.930 . S
H38 C27 0.930 . S
H39 C28 0.931 . S
Eu40 C49 2.828 . S
Eu40 O51 2.392 . S
Eu40 O53 2.418 . S
Eu40 O58 2.373 . S
Eu40 O61 2.488 . S
Eu40 O62 2.471 . S
Eu40 O63 2.349 . S
Eu41 O50 2.373 . S
Eu41 O54 2.488 . S
Eu41 O55 2.471 . S
Eu41 O56 2.349 . S
Eu41 O59 2.392 . S
Eu41 O60 2.418 . S
Eu41 C70 2.828 . S
C42 O60 1.244 . S
C42 O63 1.265 . S
C43 C44 1.379 . S
C43 C47 1.373 . S
C43 C49 1.505 . S
C44 C43 1.379 . S
C44 C46 1.369 . S
C44 H72 0.930 . S
C45 C47 1.383 1_455 S
C45 C48 1.382 . S
C45 H73 0.930 . S
C46 C44 1.369 . S
C46 C48 1.392 1_655 S
C46 H74 0.930 . S
C47 C43 1.373 . S
C47 C45 1.383 1_655 S
C47 H75 0.931 . S
C48 C45 1.382 . S
C48 C46 1.392 1_455 S
C49 Eu40 2.828 . S
C49 C43 1.505 . S
C49 O61 1.249 . S
C49 O62 1.244 . S
O50 Eu41 2.373 . S
O50 C52 1.258 . S
O51 Eu40 2.392 . S
O51 C52 1.242 . S
C52 O50 1.258 . S
C52 O51 1.242 . S
O53 Eu40 2.418 . S
O53 C57 1.244 . S
O54 Eu41 2.488 . S
O54 C70 1.249 . S
O55 Eu41 2.471 . S
O55 C70 1.244 . S
O56 Eu41 2.349 . S
O56 C57 1.265 . S
C57 O53 1.244 . S
C57 O56 1.265 . S
O58 Eu40 2.373 . S
O58 C71 1.258 . S
O59 Eu41 2.392 . S
O59 C71 1.242 . S
O60 Eu41 2.418 . S
O60 C42 1.244 . S
O61 Eu40 2.488 . S
O61 C49 1.249 . S
O62 Eu40 2.471 . S
O62 C49 1.244 . S
O63 Eu40 2.349 . S
O63 C42 1.265 . S
C64 C65 1.379 . S
C64 C68 1.373 . S
C64 C70 1.505 . S
C65 C64 1.379 . S
C65 C67 1.369 . S
C65 H76 0.930 . S
C66 C68 1.383 . S
C66 C69 1.382 . S
C66 H77 0.930 . S
C67 C65 1.369 . S
C67 C69 1.392 . S
C67 H78 0.930 . S
C68 C64 1.373 . S
C68 C66 1.383 . S
C68 H79 0.931 . S
C69 C66 1.382 . S
C69 C67 1.392 . S
C70 Eu41 2.828 . S
C70 O54 1.249 . S
C70 O55 1.244 . S
C70 C64 1.505 . S
C71 O58 1.258 . S
C71 O59 1.242 . S
H72 C44 0.930 . S
H73 C45 0.930 . S
H74 C46 0.930 . S
H75 C47 0.931 . S
H76 C65 0.930 . S
H77 C66 0.930 . S
H78 C67 0.930 . S
H79 C68 0.931 . S
Eu80 C89 2.828 . S
Eu80 O91 2.392 . S
Eu80 O93 2.418 . S
Eu80 O98 2.373 . S
Eu80 O101 2.488 . S
Eu80 O102 2.471 . S
Eu80 O103 2.349 . S
Eu81 O90 2.373 . S
Eu81 O94 2.488 . S
Eu81 O95 2.471 . S
Eu81 O96 2.349 . S
Eu81 O99 2.392 . S
Eu81 O100 2.418 . S
Eu81 C110 2.828 . S
C82 O100 1.244 . S
C82 O103 1.265 . S
C83 C84 1.379 . S
C83 C87 1.373 . S
C83 C89 1.505 . S
C84 C83 1.379 . S
C84 C86 1.369 . S
C84 H112 0.930 . S
C85 C87 1.383 1_565 S
C85 C88 1.382 . S
C85 H113 0.930 . S
C86 C84 1.369 . S
C86 C88 1.392 1_545 S
C86 H114 0.930 . S
C87 C83 1.373 . S
C87 C85 1.383 1_545 S
C87 H115 0.931 . S
C88 C85 1.382 . S
C88 C86 1.392 1_565 S
C89 Eu80 2.828 . S
C89 C83 1.505 . S
C89 O101 1.249 . S
C89 O102 1.244 . S
O90 Eu81 2.373 . S
O90 C92 1.258 . S
O91 Eu80 2.392 . S
O91 C92 1.242 . S
C92 O90 1.258 . S
C92 O91 1.242 . S
O93 Eu80 2.418 . S
O93 C97 1.244 . S
O94 Eu81 2.488 . S
O94 C110 1.249 . S
O95 Eu81 2.471 . S
O95 C110 1.244 . S
O96 Eu81 2.349 . S
O96 C97 1.265 . S
C97 O93 1.244 . S
C97 O96 1.265 . S
O98 Eu80 2.373 . S
O98 C111 1.258 . S
O99 Eu81 2.392 . S
O99 C111 1.242 . S
O100 Eu81 2.418 . S
O100 C82 1.244 . S
O101 Eu80 2.488 . S
O101 C89 1.249 . S
O102 Eu80 2.471 . S
O102 C89 1.244 . S
O103 Eu80 2.349 . S
O103 C82 1.265 . S
C104 C105 1.379 . S
C104 C108 1.373 . S
C104 C110 1.505 . S
C105 C104 1.379 . S
C105 C107 1.369 . S
C105 H116 0.930 . S
C106 C108 1.383 . S
C106 C109 1.382 . S
C106 H117 0.930 . S
C107 C105 1.369 . S
C107 C109 1.392 . S
C107 H118 0.930 . S
C108 C104 1.373 . S
C108 C106 1.383 . S
C108 H119 0.931 . S
C109 C106 1.382 . S
C109 C107 1.392 . S
C110 Eu81 2.828 . S
C110 O94 1.249 . S
C110 O95 1.244 . S
C110 C104 1.505 . S
C111 O98 1.258 . S
C111 O99 1.242 . S
H112 C84 0.930 . S
H113 C85 0.930 . S
H114 C86 0.930 . S
H115 C87 0.931 . S
H116 C105 0.930 . S
H117 C106 0.930 . S
H118 C107 0.930 . S
H119 C108 0.931 . S
Eu120 C129 2.828 . S
Eu120 O131 2.392 . S
Eu120 O133 2.418 . S
Eu120 O138 2.373 . S
Eu120 O141 2.488 . S
Eu120 O142 2.471 . S
Eu120 O143 2.349 . S
Eu121 O130 2.373 . S
Eu121 O134 2.488 . S
Eu121 O135 2.471 . S
Eu121 O136 2.349 . S
Eu121 O139 2.392 . S
Eu121 O140 2.418 . S
Eu121 C150 2.828 . S
C122 O140 1.244 . S
C122 O143 1.265 . S
C123 C124 1.379 . S
C123 C127 1.373 . S
C123 C129 1.505 . S
C124 C123 1.379 . S
C124 C126 1.369 . S
C124 H152 0.930 . S
C125 C127 1.383 . S
C125 C128 1.382 . S
C125 H153 0.930 . S
C126 C124 1.369 . S
C126 C128 1.392 . S
C126 H154 0.930 . S
C127 C123 1.373 . S
C127 C125 1.383 . S
C127 H155 0.931 . S
C128 C125 1.382 . S
C128 C126 1.392 . S
C129 Eu120 2.828 . S
C129 C123 1.505 . S
C129 O141 1.249 . S
C129 O142 1.244 . S
O130 Eu121 2.373 . S
O130 C132 1.258 . S
O131 Eu120 2.392 . S
O131 C132 1.242 . S
C132 O130 1.258 . S
C132 O131 1.242 . S
O133 Eu120 2.418 . S
O133 C137 1.244 . S
O134 Eu121 2.488 . S
O134 C150 1.249 . S
O135 Eu121 2.471 . S
O135 C150 1.244 . S
O136 Eu121 2.349 . S
O136 C137 1.265 . S
C137 O133 1.244 . S
C137 O136 1.265 . S
O138 Eu120 2.373 . S
O138 C151 1.258 . S
O139 Eu121 2.392 . S
O139 C151 1.242 . S
O140 Eu121 2.418 . S
O140 C122 1.244 . S
O141 Eu120 2.488 . S
O141 C129 1.249 . S
O142 Eu120 2.471 . S
O142 C129 1.244 . S
O143 Eu120 2.349 . S
O143 C122 1.265 . S
C144 C145 1.379 . S
C144 C148 1.373 . S
C144 C150 1.505 . S
C145 C144 1.379 . S
C145 C147 1.369 . S
C145 H156 0.930 . S
C146 C148 1.383 . S
C146 C149 1.382 . S
C146 H157 0.930 . S
C147 C145 1.369 . S
C147 C149 1.392 . S
C147 H158 0.930 . S
C148 C144 1.373 . S
C148 C146 1.383 . S
C148 H159 0.931 . S
C149 C146 1.382 . S
C149 C147 1.392 . S
C150 Eu121 2.828 . S
C150 O134 1.249 . S
C150 O135 1.244 . S
C150 C144 1.505 . S
C151 O138 1.258 . S
C151 O139 1.242 . S
H152 C124 0.930 . S
H153 C125 0.930 . S
H154 C126 0.930 . S
H155 C127 0.931 . S
H156 C145 0.930 . S
H157 C146 0.930 . S
H158 C147 0.930 . S
H159 C148 0.931 . S
Eu160 C169 2.828 . S
Eu160 O171 2.392 . S
Eu160 O173 2.418 . S
Eu160 O178 2.373 . S
Eu160 O181 2.488 . S
Eu160 O182 2.471 . S
Eu160 O183 2.349 . S
Eu161 O170 2.373 . S
Eu161 O174 2.488 . S
Eu161 O175 2.471 . S
Eu161 O176 2.349 . S
Eu161 O179 2.392 . S
Eu161 O180 2.418 . S
Eu161 C190 2.828 . S
C162 O180 1.244 . S
C162 O183 1.265 . S
C163 C164 1.379 . S
C163 C167 1.373 . S
C163 C169 1.505 . S
C164 C163 1.379 . S
C164 C166 1.369 . S
C164 H192 0.930 . S
C165 C167 1.383 . S
C165 C168 1.382 . S
C165 H193 0.930 . S
C166 C164 1.369 . S
C166 C168 1.392 . S
C166 H194 0.930 . S
C167 C163 1.373 . S
C167 C165 1.383 . S
C167 H195 0.931 . S
C168 C165 1.382 . S
C168 C166 1.392 . S
C169 Eu160 2.828 . S
C169 C163 1.505 . S
C169 O181 1.249 . S
C169 O182 1.244 . S
O170 Eu161 2.373 . S
O170 C172 1.258 . S
O171 Eu160 2.392 . S
O171 C172 1.242 . S
C172 O170 1.258 . S
C172 O171 1.242 . S
O173 Eu160 2.418 . S
O173 C177 1.244 . S
O174 Eu161 2.488 . S
O174 C190 1.249 . S
O175 Eu161 2.471 . S
O175 C190 1.244 . S
O176 Eu161 2.349 . S
O176 C177 1.265 . S
C177 O173 1.244 . S
C177 O176 1.265 . S
O178 Eu160 2.373 . S
O178 C191 1.258 . S
O179 Eu161 2.392 . S
O179 C191 1.242 . S
O180 Eu161 2.418 . S
O180 C162 1.244 . S
O181 Eu160 2.488 . S
O181 C169 1.249 . S
O182 Eu160 2.471 . S
O182 C169 1.244 . S
O183 Eu160 2.349 . S
O183 C162 1.265 . S
C184 C185 1.379 . S
C184 C188 1.373 . S
C184 C190 1.505 . S
C185 C184 1.379 . S
C185 C187 1.369 . S
C185 H196 0.930 . S
C186 C188 1.383 1_655 S
C186 C189 1.382 . S
C186 H197 0.930 . S
C187 C185 1.369 . S
C187 C189 1.392 1_455 S
C187 H198 0.930 . S
C188 C184 1.373 . S
C188 C186 1.383 1_455 S
C188 H199 0.931 . S
C189 C186 1.382 . S
C189 C187 1.392 1_655 S
C190 Eu161 2.828 . S
C190 O174 1.249 . S
C190 O175 1.244 . S
C190 C184 1.505 . S
C191 O178 1.258 . S
C191 O179 1.242 . S
H192 C164 0.930 . S
H193 C165 0.930 . S
H194 C166 0.930 . S
H195 C167 0.931 . S
H196 C185 0.930 . S
H197 C186 0.930 . S
H198 C187 0.930 . S
H199 C188 0.931 . S
Eu200 C209 2.828 . S
Eu200 O211 2.392 . S
Eu200 O213 2.418 . S
Eu200 O218 2.373 . S
Eu200 O221 2.488 . S
Eu200 O222 2.471 . S
Eu200 O223 2.349 . S
Eu201 O210 2.373 . S
Eu201 O214 2.488 . S
Eu201 O215 2.471 . S
Eu201 O216 2.349 . S
Eu201 O219 2.392 . S
Eu201 O220 2.418 . S
Eu201 C230 2.828 . S
C202 O220 1.244 . S
C202 O223 1.265 . S
C203 C204 1.379 . S
C203 C207 1.373 . S
C203 C209 1.505 . S
C204 C203 1.379 . S
C204 C206 1.369 . S
C204 H232 0.930 . S
C205 C207 1.383 . S
C205 C208 1.382 . S
C205 H233 0.930 . S
C206 C204 1.369 . S
C206 C208 1.392 . S
C206 H234 0.930 . S
C207 C203 1.373 . S
C207 C205 1.383 . S
C207 H235 0.931 . S
C208 C205 1.382 . S
C208 C206 1.392 . S
C209 Eu200 2.828 . S
C209 C203 1.505 . S
C209 O221 1.249 . S
C209 O222 1.244 . S
O210 Eu201 2.373 . S
O210 C212 1.258 . S
O211 Eu200 2.392 . S
O211 C212 1.242 . S
C212 O210 1.258 . S
C212 O211 1.242 . S
O213 Eu200 2.418 . S
O213 C217 1.244 . S
O214 Eu201 2.488 . S
O214 C230 1.249 . S
O215 Eu201 2.471 . S
O215 C230 1.244 . S
O216 Eu201 2.349 . S
O216 C217 1.265 . S
C217 O213 1.244 . S
C217 O216 1.265 . S
O218 Eu200 2.373 . S
O218 C231 1.258 . S
O219 Eu201 2.392 . S
O219 C231 1.242 . S
O220 Eu201 2.418 . S
O220 C202 1.244 . S
O221 Eu200 2.488 . S
O221 C209 1.249 . S
O222 Eu200 2.471 . S
O222 C209 1.244 . S
O223 Eu200 2.349 . S
O223 C202 1.265 . S
C224 C225 1.379 . S
C224 C228 1.373 . S
C224 C230 1.505 . S
C225 C224 1.379 . S
C225 C227 1.369 . S
C225 H236 0.930 . S
C226 C228 1.383 1_545 S
C226 C229 1.382 . S
C226 H237 0.930 . S
C227 C225 1.369 . S
C227 C229 1.392 1_565 S
C227 H238 0.930 . S
C228 C224 1.373 . S
C228 C226 1.383 1_565 S
C228 H239 0.931 . S
C229 C226 1.382 . S
C229 C227 1.392 1_545 S
C230 Eu201 2.828 . S
C230 O214 1.249 . S
C230 O215 1.244 . S
C230 C224 1.505 . S
C231 O218 1.258 . S
C231 O219 1.242 . S
H232 C204 0.930 . S
H233 C205 0.930 . S
H234 C206 0.930 . S
H235 C207 0.931 . S
H236 C225 0.930 . S
H237 C226 0.930 . S
H238 C227 0.930 . S
H239 C228 0.931 . S
H240 C246 0.930 . S
H241 C249 0.930 . S
H242 C250 0.930 . S
H243 C251 0.930 . S
H244 C254 0.930 . S
H245 C255 0.930 . S
C246 H240 0.930 . S
C246 C247 1.355 . S
C246 C248 1.415 1_556 S
C247 C246 1.355 . S
C247 C249 1.419 . S
C248 C246 1.415 1_554 S
C248 C253 1.425 1_564 S
C248 C255 1.409 . S
C249 H241 0.930 . S
C249 C247 1.419 . S
C249 C250 1.362 1_565 S
C250 H242 0.930 . S
C250 C249 1.362 1_545 S
C250 C253 1.409 . S
C251 H243 0.930 . S
C251 C252 1.355 . S
C251 C253 1.415 1_554 S
C252 C251 1.355 . S
C252 C254 1.419 . S
C253 C248 1.425 1_546 S
C253 C250 1.409 . S
C253 C251 1.415 1_556 S
C254 H244 0.930 . S
C254 C252 1.419 . S
C254 C255 1.362 1_545 S
C255 H245 0.930 . S
C255 C248 1.409 . S
C255 C254 1.362 1_565 S
H256 C262 0.930 . S
H257 C265 0.930 . S
H258 C266 0.930 . S
H259 C267 0.930 . S
H260 C270 0.930 . S
H261 C271 0.930 . S
C262 H256 0.930 . S
C262 C263 1.355 . S
C262 C264 1.415 . S
C263 C262 1.355 . S
C263 C265 1.419 . S
C264 C262 1.415 . S
C264 C269 1.425 . S
C264 C271 1.409 . S
C265 H257 0.930 . S
C265 C263 1.419 . S
C265 C266 1.362 . S
C266 H258 0.930 . S
C266 C265 1.362 . S
C266 C269 1.409 . S
C267 H259 0.930 . S
C267 C268 1.355 . S
C267 C269 1.415 . S
C268 C267 1.355 . S
C268 C270 1.419 . S
C269 C264 1.425 . S
C269 C266 1.409 . S
C269 C267 1.415 . S
C270 H260 0.930 . S
C270 C268 1.419 . S
C270 C271 1.362 . S
C271 H261 0.930 . S
C271 C264 1.409 . S
C271 C270 1.362 . S
H272 C278 0.930 . S
H273 C281 0.930 . S
H274 C282 0.930 . S
H275 C283 0.930 . S
H276 C286 0.930 . S
H277 C287 0.930 . S
C278 H272 0.930 . S
C278 C279 1.355 . S
C278 C280 1.415 1_655 S
C279 C278 1.355 . S
C279 C281 1.419 . S
C280 C278 1.415 1_455 S
C280 C285 1.425 1_454 S
C280 C287 1.409 . S
C281 H273 0.930 . S
C281 C279 1.419 . S
C281 C282 1.362 1_554 S
C282 H274 0.930 . S
C282 C281 1.362 1_556 S
C282 C285 1.409 . S
C283 H275 0.930 . S
C283 C284 1.355 . S
C283 C285 1.415 1_455 S
C284 C283 1.355 . S
C284 C286 1.419 . S
C285 C280 1.425 1_656 S
C285 C282 1.409 . S
C285 C283 1.415 1_655 S
C286 H276 0.930 . S
C286 C284 1.419 . S
C286 C287 1.362 1_556 S
C287 H277 0.930 . S
C287 C280 1.409 . S
C287 C286 1.362 1_554 S
H288 C294 0.930 . S
H289 C297 0.930 . S
H290 C298 0.930 . S
H291 C299 0.930 . S
H292 C302 0.930 . S
H293 C303 0.930 . S
C294 H288 0.930 . S
C294 C295 1.355 . S
C294 C296 1.415 1_545 S
C295 C294 1.355 . S
C295 C297 1.419 . S
C296 C294 1.415 1_565 S
C296 C301 1.425 1_565 S
C296 C303 1.409 . S
C297 H289 0.930 . S
C297 C295 1.419 . S
C297 C298 1.362 . S
C298 H290 0.930 . S
C298 C297 1.362 . S
C298 C301 1.409 . S
C299 H291 0.930 . S
C299 C300 1.355 . S
C299 C301 1.415 1_565 S
C300 C299 1.355 . S
C300 C302 1.419 . S
C301 C296 1.425 1_545 S
C301 C298 1.409 . S
C301 C299 1.415 1_545 S
C302 H292 0.930 . S
C302 C300 1.419 . S
C302 C303 1.362 . S
C303 H293 0.930 . S
C303 C296 1.409 . S
C303 C302 1.362 . S
H304 C310 0.930 . S
H305 C313 0.930 . S
H306 C314 0.930 . S
H307 C315 0.930 . S
H308 C318 0.930 . S
H309 C319 0.930 . S
C310 H304 0.930 . S
C310 C311 1.355 . S
C310 C312 1.415 . S
C311 C310 1.355 . S
C311 C313 1.419 . S
C312 C310 1.415 . S
C312 C317 1.425 1_556 S
C312 C319 1.409 . S
C313 H305 0.930 . S
C313 C311 1.419 . S
C313 C314 1.362 1_556 S
C314 H306 0.930 . S
C314 C313 1.362 1_554 S
C314 C317 1.409 . S
C315 H307 0.930 . S
C315 C316 1.355 . S
C315 C317 1.415 . S
C316 C315 1.355 . S
C316 C318 1.419 . S
C317 C312 1.425 1_554 S
C317 C314 1.409 . S
C317 C315 1.415 . S
C318 H308 0.930 . S
C318 C316 1.419 . S
C318 C319 1.362 1_554 S
C319 H309 0.930 . S
C319 C312 1.409 . S
C319 C318 1.362 1_556 S
H320 C326 0.930 . S
H321 C329 0.930 . S
H322 C330 0.930 . S
H323 C331 0.930 . S
H324 C334 0.930 . S
H325 C335 0.930 . S
C326 H320 0.930 . S
C326 C327 1.355 . S
C326 C328 1.415 . S
C327 C326 1.355 . S
C327 C329 1.419 . S
C328 C326 1.415 . S
C328 C333 1.425 1_655 S
C328 C335 1.409 . S
C329 H321 0.930 . S
C329 C327 1.419 . S
C329 C330 1.362 1_655 S
C330 H322 0.930 . S
C330 C329 1.362 1_455 S
C330 C333 1.409 . S
C331 H323 0.930 . S
C331 C332 1.355 . S
C331 C333 1.415 . S
C332 C331 1.355 . S
C332 C334 1.419 . S
C333 C328 1.425 1_455 S
C333 C330 1.409 . S
C333 C331 1.415 . S
C334 H324 0.930 . S
C334 C332 1.419 . S
C334 C335 1.362 1_455 S
C335 H325 0.930 . S
C335 C328 1.409 . S
C335 C334 1.362 1_655 S
H336 C342 0.930 . S
H337 C345 0.930 . S
H338 C346 0.930 . S
H339 C347 0.930 . S
H340 C350 0.930 . S
H341 C351 0.930 . S
C342 H336 0.930 . S
C342 C343 1.355 . S
C342 C344 1.415 . S
C343 C342 1.355 . S
C343 C345 1.419 . S
C344 C342 1.415 . S
C344 C349 1.425 . S
C344 C351 1.409 . S
C345 H337 0.930 . S
C345 C343 1.419 . S
C345 C346 1.362 . S
C346 H338 0.930 . S
C346 C345 1.362 . S
C346 C349 1.409 . S
C347 H339 0.930 . S
C347 C348 1.355 . S
C347 C349 1.415 . S
C348 C347 1.355 . S
C348 C350 1.419 . S
C349 C344 1.425 . S
C349 C346 1.409 . S
C349 C347 1.415 . S
C350 H340 0.930 . S
C350 C348 1.419 . S
C350 C351 1.362 . S
C351 H341 0.930 . S
C351 C344 1.409 . S
C351 C350 1.362 . S
H352 C358 0.930 . S
H353 C361 0.930 . S
H354 C362 0.930 . S
H355 C363 0.930 . S
H356 C366 0.930 . S
H357 C367 0.930 . S
C358 H352 0.930 . S
C358 C359 1.355 . S
C358 C360 1.415 . S
C359 C358 1.355 . S
C359 C361 1.419 . S
C360 C358 1.415 . S
C360 C365 1.425 . S
C360 C367 1.409 . S
C361 H353 0.930 . S
C361 C359 1.419 . S
C361 C362 1.362 . S
C362 H354 0.930 . S
C362 C361 1.362 . S
C362 C365 1.409 . S
C363 H355 0.930 . S
C363 C364 1.355 . S
C363 C365 1.415 . S
C364 C363 1.355 . S
C364 C366 1.419 . S
C365 C360 1.425 . S
C365 C362 1.409 . S
C365 C363 1.415 . S
C366 H356 0.930 . S
C366 C364 1.419 . S
C366 C367 1.362 . S
C367 H357 0.930 . S
C367 C360 1.409 . S
C367 C366 1.362 . S
H368 C374 0.930 . S
H369 C377 0.930 . S
H370 C378 0.930 . S
H371 C379 0.930 . S
H372 C382 0.930 . S
H373 C383 0.930 . S
C374 H368 0.930 . S
C374 C375 1.355 . S
C374 C376 1.415 . S
C375 C374 1.355 . S
C375 C377 1.419 . S
C376 C374 1.415 . S
C376 C381 1.425 . S
C376 C383 1.409 . S
C377 H369 0.930 . S
C377 C375 1.419 . S
C377 C378 1.362 . S
C378 H370 0.930 . S
C378 C377 1.362 . S
C378 C381 1.409 . S
C379 H371 0.930 . S
C379 C380 1.355 . S
C379 C381 1.415 . S
C380 C379 1.355 . S
C380 C382 1.419 . S
C381 C376 1.425 . S
C381 C378 1.409 . S
C381 C379 1.415 . S
C382 H372 0.930 . S
C382 C380 1.419 . S
C382 C383 1.362 . S
C383 H373 0.930 . S
C383 C376 1.409 . S
C383 C382 1.362 . S
H384 C390 0.930 . S
H385 C393 0.930 . S
H386 C394 0.930 . S
H387 C395 0.930 . S
H388 C398 0.930 . S
H389 C399 0.930 . S
C390 H384 0.930 . S
C390 C391 1.355 . S
C390 C392 1.415 . S
C391 C390 1.355 . S
C391 C393 1.419 . S
C392 C390 1.415 . S
C392 C397 1.425 . S
C392 C399 1.409 . S
C393 H385 0.930 . S
C393 C391 1.419 . S
C393 C394 1.362 . S
C394 H386 0.930 . S
C394 C393 1.362 . S
C394 C397 1.409 . S
C395 H387 0.930 . S
C395 C396 1.355 . S
C395 C397 1.415 . S
C396 C395 1.355 . S
C396 C398 1.419 . S
C397 C392 1.425 . S
C397 C394 1.409 . S
C397 C395 1.415 . S
C398 H388 0.930 . S
C398 C396 1.419 . S
C398 C399 1.362 . S
C399 H389 0.930 . S
C399 C392 1.409 . S
C399 C398 1.362 . S
H400 C406 0.930 . S
H401 C409 0.930 . S
H402 C410 0.930 . S
H403 C411 0.930 . S
H404 C414 0.930 . S
H405 C415 0.930 . S
C406 H400 0.930 . S
C406 C407 1.355 . S
C406 C408 1.415 . S
C407 C406 1.355 . S
C407 C409 1.419 . S
C408 C406 1.415 . S
C408 C413 1.425 . S
C408 C415 1.409 . S
C409 H401 0.930 . S
C409 C407 1.419 . S
C409 C410 1.362 . S
C410 H402 0.930 . S
C410 C409 1.362 . S
C410 C413 1.409 . S
C411 H403 0.930 . S
C411 C412 1.355 . S
C411 C413 1.415 . S
C412 C411 1.355 . S
C412 C414 1.419 . S
C413 C408 1.425 . S
C413 C410 1.409 . S
C413 C411 1.415 . S
C414 H404 0.930 . S
C414 C412 1.419 . S
C414 C415 1.362 . S
C415 H405 0.930 . S
C415 C408 1.409 . S
C415 C414 1.362 . S
H416 C422 0.930 . S
H417 C425 0.930 . S
H418 C426 0.930 . S
H419 C427 0.930 . S
H420 C430 0.930 . S
H421 C431 0.930 . S
C422 H416 0.930 . S
C422 C423 1.355 . S
C422 C424 1.415 . S
C423 C422 1.355 . S
C423 C425 1.419 . S
C424 C422 1.415 . S
C424 C429 1.425 . S
C424 C431 1.409 . S
C425 H417 0.930 . S
C425 C423 1.419 . S
C425 C426 1.362 . S
C426 H418 0.930 . S
C426 C425 1.362 . S
C426 C429 1.409 . S
C427 H419 0.930 . S
C427 C428 1.355 . S
C427 C429 1.415 . S
C428 C427 1.355 . S
C428 C430 1.419 . S
C429 C424 1.425 . S
C429 C426 1.409 . S
C429 C427 1.415 . S
C430 H420 0.930 . S
C430 C428 1.419 . S
C430 C431 1.362 . S
C431 H421 0.930 . S
C431 C424 1.409 . S
C431 C430 1.362 . S
H432 C438 0.930 . S
H433 C441 0.930 1_655 S
H434 C442 0.930 . S
H435 C443 0.930 . S
H436 C446 0.930 . S
H437 C447 0.930 . S
C438 H432 0.930 . S
C438 C439 1.355 . S
C438 C440 1.415 . S
C439 C438 1.355 . S
C439 C441 1.419 . S
C440 C438 1.415 . S
C440 C445 1.425 . S
C440 C447 1.409 . S
C441 H433 0.930 1_455 S
C441 C439 1.419 . S
C441 C442 1.362 1_455 S
C442 H434 0.930 . S
C442 C441 1.362 1_655 S
C442 C445 1.409 1_655 S
C443 H435 0.930 . S
C443 C444 1.355 1_655 S
C443 C445 1.415 1_655 S
C444 C443 1.355 1_455 S
C444 C446 1.424 . S
C445 C440 1.425 . S
C445 C442 1.409 1_455 S
C445 C443 1.415 1_455 S
C446 H436 0.930 . S
C446 C444 1.424 . S
C446 C447 1.362 . S
C447 H437 0.930 . S
C447 C440 1.409 . S
C447 C446 1.362 . S
H448 C454 0.930 . S
H449 C457 0.930 . S
H450 C458 0.930 . S
H451 C459 0.930 . S
H452 C462 0.930 . S
H453 C463 0.930 . S
C454 H448 0.930 . S
C454 C455 1.355 . S
C454 C456 1.415 . S
C455 C454 1.355 . S
C455 C457 1.419 . S
C456 C454 1.415 . S
C456 C461 1.425 . S
C456 C463 1.409 . S
C457 H449 0.930 . S
C457 C455 1.419 . S
C457 C458 1.362 . S
C458 H450 0.930 . S
C458 C457 1.362 . S
C458 C461 1.409 . S
C459 H451 0.930 . S
C459 C460 1.363 . S
C459 C461 1.415 1_545 S
C460 C459 1.363 . S
C460 C462 1.413 1_545 S
C461 C456 1.425 . S
C461 C458 1.409 . S
C461 C459 1.415 1_565 S
C462 H452 0.930 . S
C462 C460 1.413 1_565 S
C462 C463 1.362 . S
C463 H453 0.930 . S
C463 C456 1.409 . S
C463 C462 1.362 . S
H464 C470 0.930 . S
H465 C473 0.930 . S
H466 C474 0.930 . S
H467 C475 0.930 . S
H468 C478 0.930 . S
H469 C479 0.930 . S
C470 H464 0.930 . S
C470 C471 1.355 . S
C470 C472 1.415 . S
C471 C470 1.355 . S
C471 C473 1.419 . S
C472 C470 1.415 . S
C472 C477 1.425 . S
C472 C479 1.409 . S
C473 H465 0.930 . S
C473 C471 1.419 . S
C473 C474 1.362 . S
C474 H466 0.930 . S
C474 C473 1.362 . S
C474 C477 1.409 . S
C475 H467 0.930 . S
C475 C476 1.355 . S
C475 C477 1.415 . S
C476 C475 1.355 . S
C476 C478 1.419 . S
C477 C472 1.425 . S
C477 C474 1.409 . S
C477 C475 1.415 . S
C478 H468 0.930 . S
C478 C476 1.419 . S
C478 C479 1.362 . S
C479 H469 0.930 . S
C479 C472 1.409 . S
C479 C478 1.362 . S
H480 C486 0.930 . S
H481 C489 0.930 . S
H482 C490 0.930 . S
H483 C491 0.930 1_565 S
H484 C494 0.930 . S
H485 C495 0.930 . S
C486 H480 0.930 . S
C486 C487 1.355 . S
C486 C488 1.415 . S
C487 C486 1.355 . S
C487 C489 1.419 . S
C488 C486 1.415 . S
C488 C493 1.425 . S
C488 C495 1.409 . S
C489 H481 0.930 . S
C489 C487 1.419 . S
C489 C490 1.362 . S
C490 H482 0.930 . S
C490 C489 1.362 . S
C490 C493 1.409 . S
C491 H483 0.930 1_545 S
C491 C492 1.355 1_545 S
C491 C493 1.415 . S
C492 C491 1.355 1_565 S
C492 C494 1.419 1_565 S
C493 C488 1.425 . S
C493 C490 1.409 . S
C493 C491 1.415 . S
C494 H484 0.930 . S
C494 C492 1.419 1_545 S
C494 C495 1.362 . S
C495 H485 0.930 . S
C495 C488 1.409 . S
C495 C494 1.362 . S
H496 C502 0.930 . S
H497 C505 0.930 . S
H498 C506 0.930 . S
H499 C507 0.930 . S
H500 C510 0.930 . S
H501 C511 0.930 . S
C502 H496 0.930 . S
C502 C503 1.355 . S
C502 C504 1.415 . S
C503 C502 1.355 . S
C503 C505 1.419 . S
C504 C502 1.415 . S
C504 C509 1.425 . S
C504 C511 1.409 . S
C505 H497 0.930 . S
C505 C503 1.419 . S
C505 C506 1.362 . S
C506 H498 0.930 . S
C506 C505 1.362 . S
C506 C509 1.409 . S
C507 H499 0.930 . S
C507 C508 1.355 . S
C507 C509 1.415 . S
C508 C507 1.355 . S
C508 C510 1.419 . S
C509 C504 1.425 . S
C509 C506 1.409 . S
C509 C507 1.415 . S
C510 H500 0.930 . S
C510 C508 1.419 . S
C510 C511 1.362 . S
C511 H501 0.930 . S
C511 C504 1.409 . S
C511 C510 1.362 . S
H512 C518 0.930 . S
H513 C521 0.930 . S
H514 C522 0.930 . S
H515 C523 0.930 . S
H516 C526 0.930 . S
H517 C527 0.930 . S
C518 H512 0.930 . S
C518 C519 1.355 1_655 S
C518 C520 1.415 . S
C519 C518 1.355 1_455 S
C519 C521 1.419 . S
C520 C518 1.415 . S
C520 C525 1.425 . S
C520 C527 1.409 . S
C521 H513 0.930 . S
C521 C519 1.419 . S
C521 C522 1.362 . S
C522 H514 0.930 . S
C522 C521 1.362 . S
C522 C525 1.409 1_455 S
C523 H515 0.930 . S
C523 C524 1.355 . S
C523 C525 1.415 . S
C524 C523 1.355 . S
C524 C526 1.419 . S
C525 C520 1.425 . S
C525 C522 1.409 1_655 S
C525 C523 1.415 . S
C526 H516 0.930 . S
C526 C524 1.419 . S
C526 C527 1.362 . S
C527 H517 0.930 . S
C527 C520 1.409 . S
C527 C526 1.362 . S
C247 C162 2.503 . S
C252 C2 2.294 . S
C263 C217 2.317 . S
C268 C57 2.527 . S
C279 C82 2.368 . S
C284 C122 2.553 . S
C295 C17 2.545 . S
C300 C177 2.360 . S
C311 C202 2.555 . S
C316 C42 2.362 . S
C327 C97 2.503 . S
C332 C137 2.290 . S
C343 C29 1.947 . S
C348 C92 1.905 . S
C359 C69 1.914 . S
C364 C12 1.843 . S
C375 C109 1.919 . S
C380 C52 1.847 . S
C391 C128 1.920 . S
C396 C191 1.848 . S
C407 C168 1.941 . S
C412 C231 1.879 . S
C423 C151 1.904 . S
C428 C208 1.943 . S
C439 C8 1.307 . S
C444 C111 1.366 1_455 S
C455 C48 1.304 . S
C460 C31 1.376 . S
C471 C88 1.282 . S
C476 C71 1.356 . S
C487 C149 1.273 . S
C492 C172 1.350 . S
C503 C189 1.228 . S
C508 C212 1.321 . S
C519 C132 1.334 . S
C524 C229 1.252 . S
