# Generated by pormake.
# Topology umg, (4)-cn, num edge types: 1
# Building blocks:
#     Node 0, Type 0, BuildingBlock: KOZSID_clean_sbu_0, # of connection points: 4
#     Node 1, Type 0, BuildingBlock: KOZSID_clean_sbu_0, # of connection points: 4
#     Node 2, Type 0, BuildingBlock: KOZSID_clean_sbu_0, # of connection points: 4
#     Node 3, Type 0, BuildingBlock: KOZSID_clean_sbu_0, # of connection points: 4
#     Node 4, Type 0, BuildingBlock: KOZSID_clean_sbu_0, # of connection points: 4
#     Node 5, Type 0, BuildingBlock: KOZSID_clean_sbu_0, # of connection points: 4
#     Node 6, Type 0, BuildingBlock: KOZSID_clean_sbu_0, # of connection points: 4
#     Node 7, Type 0, BuildingBlock: KOZSID_clean_sbu_0, # of connection points: 4
#     Node 8, Type 0, BuildingBlock: KOZSID_clean_sbu_0, # of connection points: 4
#     Node 9, Type 0, BuildingBlock: KOZSID_clean_sbu_0, # of connection points: 4
#     Node 10, Type 0, BuildingBlock: KOZSID_clean_sbu_0, # of connection points: 4
#     Node 11, Type 0, BuildingBlock: KOZSID_clean_sbu_0, # of connection points: 4
#     Edge 12, Type (0, 0), BuildingBlock: OJICUG_clean_linker_0, # of connection points: 2
#     Edge 13, Type (0, 0), BuildingBlock: OJICUG_clean_linker_0, # of connection points: 2
#     Edge 14, Type (0, 0), BuildingBlock: OJICUG_clean_linker_0, # of connection points: 2
#     Edge 15, Type (0, 0), BuildingBlock: OJICUG_clean_linker_0, # of connection points: 2
#     Edge 16, Type (0, 0), BuildingBlock: OJICUG_clean_linker_0, # of connection points: 2
#     Edge 17, Type (0, 0), BuildingBlock: OJICUG_clean_linker_0, # of connection points: 2
#     Edge 18, Type (0, 0), BuildingBlock: OJICUG_clean_linker_0, # of connection points: 2
#     Edge 19, Type (0, 0), BuildingBlock: OJICUG_clean_linker_0, # of connection points: 2
#     Edge 20, Type (0, 0), BuildingBlock: OJICUG_clean_linker_0, # of connection points: 2
#     Edge 21, Type (0, 0), BuildingBlock: OJICUG_clean_linker_0, # of connection points: 2
#     Edge 22, Type (0, 0), BuildingBlock: OJICUG_clean_linker_0, # of connection points: 2
#     Edge 23, Type (0, 0), BuildingBlock: OJICUG_clean_linker_0, # of connection points: 2
#     Edge 24, Type (0, 0), BuildingBlock: OJICUG_clean_linker_0, # of connection points: 2
#     Edge 25, Type (0, 0), BuildingBlock: OJICUG_clean_linker_0, # of connection points: 2
#     Edge 26, Type (0, 0), BuildingBlock: OJICUG_clean_linker_0, # of connection points: 2
#     Edge 27, Type (0, 0), BuildingBlock: OJICUG_clean_linker_0, # of connection points: 2
#     Edge 28, Type (0, 0), BuildingBlock: OJICUG_clean_linker_0, # of connection points: 2
#     Edge 29, Type (0, 0), BuildingBlock: OJICUG_clean_linker_0, # of connection points: 2
#     Edge 30, Type (0, 0), BuildingBlock: OJICUG_clean_linker_0, # of connection points: 2
#     Edge 31, Type (0, 0), BuildingBlock: OJICUG_clean_linker_0, # of connection points: 2
#     Edge 32, Type (0, 0), BuildingBlock: OJICUG_clean_linker_0, # of connection points: 2
#     Edge 33, Type (0, 0), BuildingBlock: OJICUG_clean_linker_0, # of connection points: 2
#     Edge 34, Type (0, 0), BuildingBlock: OJICUG_clean_linker_0, # of connection points: 2
#     Edge 35, Type (0, 0), BuildingBlock: OJICUG_clean_linker_0, # of connection points: 2
# Relax obj value: 0.044
# Max RMSD: 0.161
# Mean RMSD: 0.161
data_MOF--net-umg--node1-KOZSID_clean_sbu_0--edge1-OJICUG_clean_linker_0
_symmetry_space_group_name_H-M    P1
_symmetry_Int_Tables_number       1
_symmetry_cell_setting            triclinic
loop_
_symmetry_equiv_pos_as_xyz
'x, y, z'
_cell_length_a     30.898014
_cell_length_b     30.964424
_cell_length_c     70.330902
_cell_angle_alpha  90.006805
_cell_angle_beta   90.020074
_cell_angle_gamma 120.06236
loop_
_atom_site_label
_atom_site_type_symbol
_atom_site_fract_x
_atom_site_fract_y
_atom_site_fract_z
_atom_type_partial_charge
C0 C 0.25628 0.52968 0.13505 0.0
C1 C 0.23407 0.49186 0.14849 0.0
C2 C 0.23108 0.44983 0.14059 0.0
C3 C 0.25011 0.46323 0.12256 0.0
N4 N 0.2646 0.51112 0.11866 0.0
Co5 Co 0.28264 0.54215 0.093 0.0
N6 N 0.25331 0.47684 0.07962 0.0
C7 C 0.24308 0.43352 0.08784 0.0
C8 C 0.22572 0.39472 0.07509 0.0
C9 C 0.22586 0.4152 0.05773 0.0
C10 C 0.24319 0.46548 0.06084 0.0
N11 N 0.30033 0.57466 0.06765 0.0
C12 C 0.28403 0.55552 0.05004 0.0
C13 C 0.30695 0.5924 0.03628 0.0
C14 C 0.33974 0.6354 0.04552 0.0
C15 C 0.33482 0.62274 0.06438 0.0
N16 N 0.31346 0.60739 0.10615 0.0
C17 C 0.35038 0.65044 0.099 0.0
C18 C 0.37094 0.6882 0.11213 0.0
C19 C 0.34516 0.6676 0.12859 0.0
C20 C 0.3092 0.61854 0.12442 0.0
N21 N 0.34743 0.54319 0.09398 0.0
C22 C 0.43353 0.53188 0.0954 0.0
C23 C 0.40419 0.5214 0.07887 0.0
C24 C 0.36287 0.52836 0.07833 0.0
C25 C 0.41841 0.54933 0.11122 0.0
C26 C 0.37527 0.55414 0.11029 0.0
N27 N 0.21693 0.53848 0.09198 0.0
C28 C 0.16322 0.57363 0.08713 0.0
C29 C 0.11994 0.52697 0.09064 0.0
C30 C 0.12719 0.48676 0.09465 0.0
C31 C 0.17517 0.49337 0.09553 0.0
C32 C 0.21126 0.5785 0.08776 0.0
H33 H 0.17797 0.46118 0.09907 0.0
H34 H 0.24375 0.61446 0.08492 0.0
H35 H 0.34244 0.5199 0.06519 0.0
H36 H 0.36405 0.56606 0.12286 0.0
C37 C 0.24302 0.42971 0.10776 0.0
C38 C 0.27228 0.58344 0.13816 0.0
C39 C 0.25384 0.50202 0.04551 0.0
C40 C 0.35898 0.65565 0.07943 0.0
H41 H 0.21918 0.49285 0.16223 0.0
H42 H 0.21315 0.41283 0.14675 0.0
H43 H 0.21325 0.35595 0.07809 0.0
H44 H 0.21514 0.39558 0.04428 0.0
H45 H 0.30206 0.58825 0.02107 0.0
H46 H 0.36413 0.67155 0.03923 0.0
H47 H 0.40012 0.72647 0.10989 0.0
H48 H 0.35203 0.68674 0.14209 0.0
H49 H 0.41155 0.50644 0.06621 0.0
H50 H 0.4393 0.55917 0.12438 0.0
H51 H 0.1603 0.60633 0.08411 0.0
H52 H 0.09595 0.44956 0.09692 0.0
C53 C 0.74253 0.26786 0.4666 0.0
C54 C 0.76436 0.2572 0.48175 0.0
C55 C 0.80211 0.25108 0.47432 0.0
C56 C 0.80146 0.25843 0.45507 0.0
N57 N 0.76564 0.26871 0.44996 0.0
Co58 Co 0.75178 0.28117 0.42354 0.0
N59 N 0.78972 0.25135 0.41197 0.0
C60 C 0.8233 0.24353 0.42125 0.0
C61 C 0.84656 0.22578 0.40958 0.0
C62 C 0.82696 0.22302 0.39178 0.0
C63 C 0.79264 0.2392 0.39357 0.0
N64 N 0.73638 0.29322 0.39726 0.0
C65 C 0.73996 0.27391 0.38042 0.0
C66 C 0.72186 0.29027 0.36567 0.0
C67 C 0.7085 0.32237 0.37337 0.0
C68 C 0.71838 0.32332 0.39239 0.0
N69 N 0.71453 0.31187 0.43501 0.0
C70 C 0.70066 0.3413 0.42591 0.0
C71 C 0.67238 0.3543 0.4369 0.0
C72 C 0.66809 0.33181 0.45404 0.0
C73 C 0.69495 0.30691 0.4527 0.0
N74 N 0.81507 0.34708 0.42346 0.0
C75 C 0.91479 0.43074 0.42443 0.0
C76 C 0.89474 0.40067 0.40813 0.0
C77 C 0.84548 0.36051 0.40783 0.0
C78 C 0.88186 0.41832 0.44009 0.0
C79 C 0.83266 0.37659 0.43935 0.0
N80 N 0.69041 0.2145 0.42355 0.0
C81 C 0.60172 0.15948 0.41812 0.0
C82 C 0.60564 0.1173 0.42263 0.0
C83 C 0.65273 0.12516 0.42784 0.0
C84 C 0.69405 0.17361 0.42849 0.0
C85 C 0.64458 0.2076 0.41841 0.0
H86 H 0.72916 0.17768 0.43299 0.0
H87 H 0.64066 0.23911 0.41442 0.0
H88 H 0.83305 0.33893 0.39497 0.0
H89 H 0.80935 0.36748 0.45184 0.0
C90 C 0.82791 0.2485 0.44113 0.0
C91 C 0.70268 0.28077 0.46868 0.0
C92 C 0.76708 0.24679 0.37728 0.0
C93 C 0.70441 0.34606 0.40623 0.0
H94 H 0.75421 0.25441 0.49661 0.0
H95 H 0.82596 0.24075 0.48198 0.0
H96 H 0.87407 0.21552 0.41354 0.0
H97 H 0.83737 0.21139 0.37889 0.0
H98 H 0.7193 0.28059 0.35083 0.0
H99 H 0.69213 0.3415 0.36604 0.0
H100 H 0.65405 0.37472 0.43257 0.0
H101 H 0.64661 0.333 0.46595 0.0
H102 H 0.91702 0.40633 0.39557 0.0
H103 H 0.89373 0.44016 0.453 0.0
H104 H 0.56598 0.15523 0.41405 0.0
H105 H 0.65753 0.09396 0.43172 0.0
C106 C 0.50712 0.73335 0.80219 0.0
C107 C 0.54469 0.74842 0.81575 0.0
C108 C 0.5871 0.78765 0.80808 0.0
C109 C 0.5742 0.79388 0.79004 0.0
N110 N 0.52624 0.7607 0.78593 0.0
Co111 Co 0.49599 0.74818 0.76011 0.0
N112 N 0.56188 0.78436 0.74705 0.0
C113 C 0.60507 0.8173 0.7555 0.0
C114 C 0.64438 0.83903 0.74295 0.0
C115 C 0.62441 0.81905 0.72548 0.0
C116 C 0.57389 0.78599 0.72834 0.0
N117 N 0.46436 0.73366 0.73461 0.0
C118 C 0.48404 0.73571 0.71717 0.0
C119 C 0.44722 0.71988 0.70329 0.0
C120 C 0.40382 0.70983 0.7122 0.0
C121 C 0.41614 0.71923 0.73106 0.0
N122 N 0.4302 0.71353 0.77297 0.0
C123 C 0.38726 0.70714 0.76555 0.0
C124 C 0.34889 0.68924 0.77846 0.0
C125 C 0.36896 0.6838 0.79503 0.0
C126 C 0.41837 0.69749 0.79115 0.0
N127 N 0.49506 0.8119 0.76107 0.0
C128 C 0.50471 0.90852 0.7624 0.0
C129 C 0.51628 0.8903 0.74596 0.0
C130 C 0.5102 0.84238 0.74547 0.0
C131 C 0.48723 0.87581 0.77817 0.0
C132 C 0.48324 0.82827 0.77728 0.0
N133 N 0.49919 0.68605 0.75912 0.0
C134 C 0.46271 0.59707 0.75435 0.0
C135 C 0.50906 0.59982 0.75791 0.0
C136 C 0.54989 0.6471 0.76192 0.0
C137 C 0.54406 0.68889 0.76273 0.0
C138 C 0.45867 0.64057 0.7549 0.0
H139 H 0.5766 0.72376 0.76628 0.0
H140 H 0.42288 0.63747 0.752 0.0
H141 H 0.51933 0.83076 0.7324 0.0
H142 H 0.47108 0.80499 0.78981 0.0
C143 C 0.60828 0.82058 0.77543 0.0
C144 C 0.45311 0.6955 0.80505 0.0
C145 C 0.53787 0.76004 0.71282 0.0
C146 C 0.38261 0.71027 0.74592 0.0
H147 H 0.54334 0.73199 0.82939 0.0
H148 H 0.62406 0.80639 0.81437 0.0
H149 H 0.68316 0.86525 0.74616 0.0
H150 H 0.64454 0.82813 0.71214 0.0
H151 H 0.45154 0.71703 0.68822 0.0
H152 H 0.36752 0.69654 0.70573 0.0
H153 H 0.31051 0.67965 0.77598 0.0
H154 H 0.34922 0.67091 0.80838 0.0
H155 H 0.53129 0.91285 0.73335 0.0
H156 H 0.47662 0.88639 0.79124 0.0
H157 H 0.42955 0.56167 0.75136 0.0
H158 H 0.5869 0.65255 0.76425 0.0
C159 C 0.78445 0.4983 0.13463 0.0
C160 C 0.808 0.53633 0.14793 0.0
C161 C 0.81184 0.57868 0.13998 0.0
C162 C 0.79196 0.56522 0.12206 0.0
N163 N 0.7761 0.51697 0.11828 0.0
Co164 Co 0.75646 0.48542 0.09274 0.0
N165 N 0.78693 0.55047 0.07917 0.0
C166 C 0.79863 0.59434 0.08728 0.0
C167 C 0.81669 0.63289 0.07441 0.0
C168 C 0.81546 0.61169 0.05709 0.0
C169 C 0.79685 0.56123 0.06036 0.0
N170 N 0.73712 0.45235 0.06753 0.0
C171 C 0.75319 0.47084 0.04984 0.0
C172 C 0.72883 0.43385 0.03621 0.0
C173 C 0.69542 0.39148 0.04563 0.0
C174 C 0.70141 0.40459 0.06446 0.0
N175 N 0.72458 0.42047 0.10611 0.0
C176 C 0.68662 0.37775 0.09918 0.0
C177 C 0.66587 0.34034 0.11243 0.0
C178 C 0.69266 0.36083 0.12873 0.0
C179 C 0.7293 0.40945 0.12434 0.0
N180 N 0.69266 0.4863 0.09396 0.0
C181 C 0.60711 0.49854 0.09546 0.0
C182 C 0.63642 0.50895 0.07893 0.0
C183 C 0.67745 0.50153 0.07836 0.0
C184 C 0.62214 0.48096 0.11127 0.0
C185 C 0.66504 0.47572 0.1103 0.0
N186 N 0.82115 0.48705 0.09144 0.0
C187 C 0.87219 0.44898 0.08654 0.0
C188 C 0.91621 0.49522 0.08926 0.0
C189 C 0.91128 0.53663 0.09331 0.0
C190 C 0.86399 0.53169 0.09458 0.0
C191 C 0.82496 0.44581 0.08744 0.0
H192 H 0.86255 0.56459 0.0982 0.0
H193 H 0.79163 0.41025 0.08494 0.0
H194 H 0.69772 0.50974 0.0652 0.0
H195 H 0.67614 0.46361 0.12286 0.0
C196 C 0.79948 0.59869 0.10719 0.0
C197 C 0.76734 0.44431 0.13784 0.0
C198 C 0.78485 0.52407 0.04514 0.0
C199 C 0.67716 0.37228 0.07966 0.0
H200 H 0.82325 0.53526 0.16157 0.0
H201 H 0.83089 0.61585 0.14601 0.0
H202 H 0.83035 0.67196 0.0773 0.0
H203 H 0.82637 0.63095 0.04358 0.0
H204 H 0.73321 0.43757 0.02097 0.0
H205 H 0.66996 0.35544 0.03948 0.0
H206 H 0.63593 0.30232 0.11038 0.0
H207 H 0.68599 0.34191 0.14226 0.0
H208 H 0.62919 0.52408 0.06629 0.0
H209 H 0.60131 0.47126 0.12443 0.0
H210 H 0.87428 0.4158 0.08347 0.0
H211 H 0.94398 0.5728 0.09591 0.0
C212 C 0.29866 0.75825 0.46706 0.0
C213 C 0.2763 0.76814 0.48223 0.0
C214 C 0.23821 0.77372 0.4748 0.0
C215 C 0.2392 0.76684 0.45553 0.0
N216 N 0.27556 0.75738 0.45041 0.0
Co217 Co 0.29001 0.74574 0.42395 0.0
N218 N 0.25125 0.77478 0.41245 0.0
C219 C 0.21714 0.78175 0.42174 0.0
C220 C 0.19336 0.79901 0.41011 0.0
C221 C 0.21317 0.80235 0.39232 0.0
C222 C 0.24812 0.78698 0.39408 0.0
N223 N 0.30599 0.73456 0.39764 0.0
C224 C 0.30211 0.75388 0.38085 0.0
C225 C 0.32088 0.73834 0.36606 0.0
C226 C 0.33499 0.70674 0.37367 0.0
C227 C 0.32487 0.70525 0.39269 0.0
N228 N 0.32807 0.71581 0.43534 0.0
C229 C 0.34276 0.68713 0.42616 0.0
C230 C 0.37133 0.67447 0.43714 0.0
C231 C 0.37496 0.69638 0.45436 0.0
C232 C 0.34746 0.72064 0.45307 0.0
N233 N 0.22731 0.67933 0.42369 0.0
C234 C 0.12778 0.59533 0.42452 0.0
C235 C 0.14787 0.6254 0.40823 0.0
C236 C 0.19704 0.66574 0.408 0.0
C237 C 0.16064 0.60784 0.44021 0.0
C238 C 0.20975 0.64971 0.43954 0.0
N239 N 0.35072 0.81293 0.42415 0.0
C240 C 0.43911 0.86955 0.41872 0.0
C241 C 0.43477 0.91154 0.4236 0.0
C242 C 0.38683 0.90194 0.42881 0.0
C243 C 0.34619 0.85312 0.4293 0.0
C244 C 0.39684 0.82097 0.41891 0.0
H245 H 0.31071 0.84824 0.43371 0.0
H246 H 0.40152 0.78998 0.41481 0.0
H247 H 0.20945 0.68738 0.39516 0.0
H248 H 0.23297 0.6589 0.45207 0.0
C249 C 0.21243 0.77642 0.44161 0.0
C250 C 0.33899 0.74603 0.46912 0.0
C251 C 0.2741 0.78012 0.37777 0.0
C252 C 0.3393 0.68277 0.40647 0.0
H253 H 0.28632 0.77076 0.49711 0.0
H254 H 0.21389 0.78337 0.48248 0.0
H255 H 0.16535 0.80856 0.4141 0.0
H256 H 0.20247 0.8138 0.37946 0.0
H257 H 0.32336 0.74822 0.35125 0.0
H258 H 0.35199 0.68829 0.36631 0.0
H259 H 0.39022 0.65464 0.43277 0.0
H260 H 0.3964 0.69524 0.4663 0.0
H261 H 0.12565 0.61966 0.39563 0.0
H262 H 0.14876 0.58596 0.45312 0.0
H263 H 0.47486 0.87366 0.41487 0.0
H264 H 0.37975 0.93185 0.43229 0.0
C265 C 0.5331 0.29079 0.80188 0.0
C266 C 0.4954 0.27665 0.81532 0.0
C267 C 0.45267 0.23791 0.8076 0.0
C268 C 0.46556 0.23105 0.78965 0.0
N269 N 0.51382 0.26335 0.78565 0.0
Co270 Co 0.54447 0.27496 0.75995 0.0
N271 N 0.47877 0.24005 0.7467 0.0
C272 C 0.43511 0.20794 0.75504 0.0
C273 C 0.39599 0.18703 0.74237 0.0
C274 C 0.41657 0.2067 0.72495 0.0
C275 C 0.46724 0.23877 0.72794 0.0
N276 N 0.57654 0.28856 0.73457 0.0
C277 C 0.55743 0.28698 0.71706 0.0
C278 C 0.59441 0.30184 0.7033 0.0
C279 C 0.63728 0.31075 0.71238 0.0
C280 C 0.62452 0.3017 0.73121 0.0
N281 N 0.61004 0.30837 0.773 0.0
C282 C 0.65269 0.31356 0.7658 0.0
C283 C 0.6908 0.33099 0.77882 0.0
C284 C 0.67085 0.33739 0.79525 0.0
C285 C 0.62181 0.32469 0.79116 0.0
N286 N 0.54368 0.21039 0.7611 0.0
C287 C 0.53315 0.1134 0.76247 0.0
C288 C 0.52164 0.13171 0.74604 0.0
C289 C 0.52816 0.17979 0.74553 0.0
C290 C 0.55079 0.14613 0.77825 0.0
C291 C 0.55519 0.19384 0.77734 0.0
N292 N 0.5431 0.33801 0.75872 0.0
C293 C 0.58213 0.42716 0.75387 0.0
C294 C 0.53618 0.4254 0.75675 0.0
C295 C 0.49433 0.3792 0.76082 0.0
C296 C 0.49866 0.33655 0.76198 0.0
C297 C 0.58467 0.3829 0.75467 0.0
H298 H 0.46554 0.30227 0.76563 0.0
H299 H 0.62006 0.38488 0.75205 0.0
H300 H 0.51923 0.19153 0.73244 0.0
H301 H 0.56756 0.21719 0.78986 0.0
C302 C 0.43148 0.20483 0.77496 0.0
C303 C 0.58731 0.32788 0.80483 0.0
C304 C 0.5038 0.26407 0.71254 0.0
C305 C 0.65754 0.31 0.7462 0.0
H306 H 0.49692 0.29342 0.82891 0.0
H307 H 0.41561 0.21999 0.81378 0.0
H308 H 0.35695 0.1616 0.74547 0.0
H309 H 0.39673 0.19809 0.71154 0.0
H310 H 0.59052 0.30483 0.68822 0.0
H311 H 0.67355 0.32314 0.70603 0.0
H312 H 0.72897 0.33973 0.77651 0.0
H313 H 0.69044 0.35029 0.80864 0.0
H314 H 0.50645 0.10914 0.73344 0.0
H315 H 0.5613 0.13546 0.79132 0.0
H316 H 0.61559 0.46226 0.75076 0.0
H317 H 0.45834 0.3761 0.76351 0.0
C318 C 0.48563 0.75676 0.5432 0.0
C319 C 0.51733 0.76665 0.52783 0.0
C320 C 0.56148 0.77268 0.53498 0.0
C321 C 0.55438 0.76599 0.5543 0.0
N322 N 0.5086 0.75622 0.55969 0.0
Co323 Co 0.48356 0.74479 0.5863 0.0
N324 N 0.55197 0.77547 0.5974 0.0
C325 C 0.5931 0.78347 0.58785 0.0
C326 C 0.63474 0.80184 0.59926 0.0
C327 C 0.61863 0.80486 0.61716 0.0
C328 C 0.5679 0.78817 0.6157 0.0
N329 N 0.45727 0.73312 0.61275 0.0
C330 C 0.48088 0.75306 0.62942 0.0
C331 C 0.44698 0.737 0.64437 0.0
C332 C 0.40117 0.70434 0.63698 0.0
C333 C 0.40931 0.70281 0.61792 0.0
N334 N 0.415 0.71387 0.57528 0.0
C335 C 0.37199 0.68469 0.58464 0.0
C336 C 0.33019 0.67172 0.57393 0.0
C337 C 0.34774 0.69398 0.5567 0.0
C338 C 0.39965 0.71872 0.5577 0.0
N339 N 0.48099 0.67894 0.58646 0.0
C340 C 0.49689 0.59531 0.58547 0.0
C341 C 0.50796 0.62596 0.60164 0.0
C342 C 0.49901 0.66615 0.60196 0.0
C343 C 0.47549 0.60716 0.56996 0.0
C344 C 0.46804 0.64883 0.57071 0.0
N345 N 0.48897 0.81146 0.58622 0.0
C346 C 0.45964 0.86827 0.59493 0.0
C347 C 0.50324 0.90974 0.58759 0.0
C348 C 0.53864 0.89981 0.57923 0.0
C349 C 0.53114 0.85127 0.57888 0.0
C350 C 0.45312 0.81973 0.59399 0.0
H351 H 0.5602 0.8463 0.57272 0.0
H352 H 0.41939 0.78904 0.59979 0.0
H353 H 0.50906 0.68823 0.6147 0.0
H354 H 0.45303 0.65741 0.55833 0.0
C355 C 0.59166 0.77715 0.56801 0.0
C356 C 0.43295 0.74452 0.54151 0.0
C357 C 0.53535 0.78052 0.63223 0.0
C358 C 0.37188 0.67999 0.60431 0.0
H359 H 0.50934 0.76916 0.51301 0.0
H360 H 0.59532 0.78277 0.52711 0.0
H361 H 0.6724 0.81213 0.59507 0.0
H362 H 0.64128 0.81688 0.62991 0.0
H363 H 0.4547 0.74741 0.65913 0.0
H364 H 0.3659 0.68541 0.64451 0.0
H365 H 0.29156 0.65143 0.57851 0.0
H366 H 0.32455 0.69273 0.54496 0.0
H367 H 0.52531 0.62067 0.61407 0.0
H368 H 0.46474 0.58485 0.55715 0.0
H369 H 0.43089 0.87302 0.60171 0.0
H370 H 0.57231 0.92925 0.57278 0.0
C371 C 0.7402 0.49686 0.87435 0.0
C372 C 0.75527 0.53485 0.86103 0.0
C373 C 0.79444 0.57694 0.86893 0.0
C374 C 0.80069 0.56332 0.88684 0.0
N375 N 0.76755 0.51529 0.89068 0.0
Co376 Co 0.75565 0.4837 0.91623 0.0
N377 N 0.7929 0.54864 0.92975 0.0
C378 C 0.82588 0.59208 0.92151 0.0
C379 C 0.84857 0.63054 0.93435 0.0
C380 C 0.82918 0.60975 0.95178 0.0
C381 C 0.79548 0.55962 0.9486 0.0
N382 N 0.74124 0.45066 0.9415 0.0
C383 C 0.7448 0.46956 0.9592 0.0
C384 C 0.73058 0.4324 0.97284 0.0
C385 C 0.71948 0.38941 0.96342 0.0
C386 C 0.72697 0.40239 0.94459 0.0
N387 N 0.72058 0.41869 0.90292 0.0
C388 C 0.71442 0.37551 0.90988 0.0
C389 C 0.69721 0.33808 0.89662 0.0
C390 C 0.69202 0.359 0.88027 0.0
C391 C 0.70514 0.40791 0.88464 0.0
N392 N 0.81951 0.48259 0.91465 0.0
C393 C 0.91758 0.4957 0.9124 0.0
C394 C 0.89655 0.4982 0.9298 0.0
C395 C 0.84844 0.49211 0.93059 0.0
C396 C 0.88668 0.48391 0.8962 0.0
C397 C 0.838 0.47717 0.89764 0.0
N398 N 0.69355 0.4875 0.91781 0.0
C399 C 0.60418 0.45174 0.92219 0.0
C400 C 0.60757 0.49855 0.91924 0.0
C401 C 0.65541 0.5392 0.91582 0.0
C402 C 0.697 0.53285 0.91491 0.0
C403 C 0.64751 0.44709 0.92152 0.0
H404 H 0.73222 0.5654 0.91176 0.0
H405 H 0.64383 0.41091 0.92387 0.0
H406 H 0.8355 0.49666 0.94422 0.0
H407 H 0.81591 0.46899 0.88485 0.0
C408 C 0.82824 0.59646 0.90159 0.0
C409 C 0.70273 0.44303 0.87112 0.0
C410 C 0.76934 0.52303 0.96388 0.0
C411 C 0.71782 0.36979 0.92941 0.0
H412 H 0.73908 0.53379 0.84735 0.0
H413 H 0.81343 0.61402 0.86283 0.0
H414 H 0.87498 0.66935 0.93138 0.0
H415 H 0.83896 0.6291 0.96529 0.0
H416 H 0.7304 0.43636 0.98808 0.0
H417 H 0.70744 0.3531 0.96959 0.0
H418 H 0.68808 0.2998 0.89871 0.0
H419 H 0.67966 0.34015 0.86672 0.0
H420 H 0.91712 0.50527 0.94297 0.0
H421 H 0.90027 0.48131 0.88232 0.0
H422 H 0.56837 0.41867 0.92475 0.0
H423 H 0.66145 0.57651 0.91398 0.0
C424 C 0.25463 0.73468 0.20765 0.0
C425 C 0.23106 0.74881 0.19423 0.0
C426 C 0.22702 0.78737 0.202 0.0
C427 C 0.24675 0.79413 0.21996 0.0
N428 N 0.26273 0.76192 0.22393 0.0
Co429 Co 0.28182 0.75024 0.24961 0.0
N430 N 0.25099 0.78491 0.2629 0.0
C431 C 0.23942 0.81697 0.2546 0.0
C432 C 0.22115 0.83766 0.2673 0.0
C433 C 0.22206 0.81792 0.2847 0.0
C434 C 0.24072 0.78603 0.28166 0.0
N435 N 0.3004 0.73664 0.27497 0.0
C436 C 0.28307 0.73829 0.29251 0.0
C437 C 0.30567 0.72399 0.30627 0.0
C438 C 0.33961 0.71522 0.29714 0.0
C439 C 0.33547 0.72387 0.27831 0.0
N440 N 0.31403 0.71709 0.23652 0.0
C441 C 0.35164 0.71212 0.2437 0.0
C442 C 0.37254 0.69514 0.23064 0.0
C443 C 0.34621 0.68882 0.2142 0.0
C444 C 0.30963 0.70109 0.21833 0.0
N445 N 0.34562 0.81483 0.24848 0.0
C446 C 0.43183 0.91203 0.24709 0.0
C447 C 0.40206 0.8936 0.26353 0.0
C448 C 0.36064 0.84538 0.26406 0.0
C449 C 0.41689 0.87933 0.23132 0.0
C450 C 0.37366 0.83149 0.23223 0.0
N451 N 0.21733 0.68717 0.25082 0.0
C452 C 0.16701 0.59809 0.25575 0.0
C453 C 0.12283 0.59985 0.25286 0.0
C454 C 0.12725 0.64595 0.24874 0.0
C455 C 0.17435 0.68858 0.24754 0.0
C456 C 0.21395 0.64236 0.25491 0.0
H457 H 0.17556 0.72279 0.24385 0.0
H458 H 0.2474 0.64046 0.25754 0.0
H459 H 0.34 0.83353 0.27715 0.0
H460 H 0.36269 0.80815 0.21971 0.0
C461 C 0.23891 0.8202 0.23469 0.0
C462 C 0.27193 0.69787 0.20464 0.0
C463 C 0.2521 0.7608 0.29704 0.0
C464 C 0.36021 0.71575 0.26329 0.0
H465 H 0.21583 0.73215 0.18062 0.0
H466 H 0.20788 0.80525 0.19585 0.0
H467 H 0.20751 0.863 0.26423 0.0
H468 H 0.21081 0.82639 0.29812 0.0
H469 H 0.29927 0.72145 0.32139 0.0
H470 H 0.36385 0.70331 0.30347 0.0
H471 H 0.4022 0.68674 0.23292 0.0
H472 H 0.3531 0.6763 0.20077 0.0
H473 H 0.40932 0.91617 0.27612 0.0
H474 H 0.43809 0.89012 0.21824 0.0
H475 H 0.16525 0.56301 0.25889 0.0
H476 H 0.09434 0.64898 0.24603 0.0
C477 C 0.55589 0.26928 0.54282 0.0
C478 C 0.52411 0.25938 0.52746 0.0
C479 C 0.47996 0.25323 0.53464 0.0
C480 C 0.48711 0.25988 0.55395 0.0
N481 N 0.53294 0.26973 0.55932 0.0
Co482 Co 0.55809 0.28118 0.58593 0.0
N483 N 0.48971 0.25035 0.59704 0.0
C484 C 0.44851 0.24228 0.58752 0.0
C485 C 0.40691 0.22379 0.59893 0.0
C486 C 0.42312 0.22074 0.61682 0.0
C487 C 0.47386 0.23754 0.61534 0.0
N488 N 0.58448 0.29286 0.61236 0.0
C489 C 0.56095 0.27279 0.62903 0.0
C490 C 0.59491 0.28881 0.64396 0.0
C491 C 0.64067 0.32161 0.63659 0.0
C492 C 0.63243 0.32325 0.61754 0.0
N493 N 0.62661 0.31222 0.57489 0.0
C494 C 0.66964 0.34143 0.58426 0.0
C495 C 0.71141 0.3544 0.57355 0.0
C496 C 0.69384 0.33211 0.55632 0.0
C497 C 0.64192 0.30737 0.55731 0.0
N498 N 0.56052 0.34696 0.58614 0.0
C499 C 0.54459 0.43058 0.58529 0.0
C500 C 0.53356 0.39983 0.60142 0.0
C501 C 0.54252 0.35965 0.60167 0.0
C502 C 0.56592 0.4188 0.56974 0.0
C503 C 0.57337 0.37713 0.57042 0.0
N504 N 0.55282 0.21456 0.58583 0.0
C505 C 0.58215 0.15785 0.59466 0.0
C506 C 0.53855 0.1163 0.58735 0.0
C507 C 0.50317 0.12615 0.57891 0.0
C508 C 0.51066 0.17469 0.57849 0.0
C509 C 0.58867 0.20637 0.59364 0.0
H510 H 0.4816 0.1796 0.57229 0.0
H511 H 0.6224 0.2371 0.59944 0.0
H512 H 0.53253 0.33751 0.6144 0.0
H513 H 0.58834 0.36861 0.55802 0.0
C514 C 0.44987 0.24864 0.56768 0.0
C515 C 0.60859 0.28163 0.54111 0.0
C516 C 0.5065 0.24518 0.63185 0.0
C517 C 0.66981 0.34613 0.60393 0.0
H518 H 0.53206 0.25693 0.51264 0.0
H519 H 0.44607 0.2431 0.52677 0.0
H520 H 0.36921 0.21341 0.59476 0.0
H521 H 0.40051 0.20862 0.62958 0.0
H522 H 0.58724 0.27822 0.65869 0.0
H523 H 0.67596 0.34053 0.64411 0.0
H524 H 0.75006 0.37468 0.57813 0.0
H525 H 0.71701 0.33333 0.54459 0.0
H526 H 0.51626 0.40505 0.61388 0.0
H527 H 0.57661 0.44118 0.55696 0.0
H528 H 0.61089 0.15316 0.6015 0.0
H529 H 0.46949 0.09664 0.57247 0.0
C530 C 0.3012 0.52689 0.8748 0.0
C531 C 0.28701 0.4887 0.86161 0.0
C532 C 0.24813 0.44643 0.86952 0.0
C533 C 0.2412 0.46017 0.88731 0.0
N534 N 0.27362 0.50846 0.89107 0.0
Co535 Co 0.28458 0.54045 0.91651 0.0
N536 N 0.24786 0.4757 0.93017 0.0
C537 C 0.21557 0.43189 0.92198 0.0
C538 C 0.19319 0.39361 0.9349 0.0
C539 C 0.21206 0.41489 0.95232 0.0
C540 C 0.24516 0.46512 0.94906 0.0
N541 N 0.29808 0.57391 0.94168 0.0
C542 C 0.29452 0.55544 0.95946 0.0
C543 C 0.30802 0.59278 0.97298 0.0
C544 C 0.31864 0.63541 0.9634 0.0
C545 C 0.31161 0.62206 0.9446 0.0
N546 N 0.3191 0.60525 0.90304 0.0
C547 C 0.32442 0.64828 0.90982 0.0
C548 C 0.34132 0.68543 0.89646 0.0
C549 C 0.34718 0.66448 0.88024 0.0
C550 C 0.33477 0.61587 0.88479 0.0
N551 N 0.22031 0.54063 0.91456 0.0
C552 C 0.12377 0.53047 0.91201 0.0
C553 C 0.14355 0.52666 0.92946 0.0
C554 C 0.19109 0.53136 0.93041 0.0
C555 C 0.15408 0.54038 0.89582 0.0
C556 C 0.20225 0.54594 0.89742 0.0
N557 N 0.34723 0.53779 0.91846 0.0
C558 C 0.43684 0.57557 0.92272 0.0
C559 C 0.43409 0.52898 0.92052 0.0
C560 C 0.38702 0.48745 0.91719 0.0
C561 C 0.34473 0.49267 0.91599 0.0
C562 C 0.39291 0.57908 0.92187 0.0
H563 H 0.30992 0.45962 0.91282 0.0
H564 H 0.39583 0.61504 0.92388 0.0
H565 H 0.20343 0.52617 0.94408 0.0
H566 H 0.22451 0.55376 0.88471 0.0
C567 C 0.21373 0.42712 0.90208 0.0
C568 C 0.33803 0.58086 0.87146 0.0
C569 C 0.27067 0.50211 0.96429 0.0
C570 C 0.32056 0.65424 0.9293 0.0
H571 H 0.30363 0.48977 0.84803 0.0
H572 H 0.22982 0.40922 0.86353 0.0
H573 H 0.16737 0.35461 0.93198 0.0
H574 H 0.20236 0.39578 0.96587 0.0
H575 H 0.30808 0.58915 0.98824 0.0
H576 H 0.3301 0.67173 0.96944 0.0
H577 H 0.34979 0.72356 0.89839 0.0
H578 H 0.3595 0.68312 0.86666 0.0
H579 H 0.12176 0.51857 0.94238 0.0
H580 H 0.14087 0.54422 0.88201 0.0
H581 H 0.4725 0.60889 0.92529 0.0
H582 H 0.38287 0.45092 0.91501 0.0
C583 C 0.78434 0.29238 0.20719 0.0
C584 C 0.80659 0.27716 0.19361 0.0
C585 C 0.80982 0.23809 0.20133 0.0
C586 C 0.79095 0.23211 0.21941 0.0
N587 N 0.77631 0.2653 0.2235 0.0
Co588 Co 0.7588 0.27803 0.2493 0.0
N589 N 0.78859 0.24207 0.26239 0.0
C590 C 0.79872 0.20911 0.25398 0.0
C591 C 0.81641 0.18759 0.26655 0.0
C592 C 0.81663 0.20774 0.28399 0.0
C593 C 0.79916 0.24068 0.2811 0.0
N594 N 0.74184 0.29268 0.27479 0.0
C595 C 0.75947 0.29068 0.29224 0.0
C596 C 0.73829 0.30621 0.30613 0.0
C597 C 0.70487 0.3161 0.2972 0.0
C598 C 0.70792 0.30687 0.27834 0.0
N599 N 0.72757 0.31245 0.23643 0.0
C600 C 0.69097 0.31872 0.24385 0.0
C601 C 0.67024 0.33622 0.23092 0.0
C602 C 0.6956 0.3415 0.21432 0.0
C603 C 0.7315 0.32814 0.21822 0.0
N604 N 0.69408 0.21433 0.24842 0.0
C605 C 0.60733 0.1175 0.24712 0.0
C606 C 0.63719 0.13588 0.26355 0.0
C607 C 0.67889 0.18394 0.26404 0.0
C608 C 0.6223 0.15017 0.23135 0.0
C609 C 0.66577 0.19782 0.23222 0.0
N610 N 0.82425 0.34014 0.25022 0.0
C611 C 0.87714 0.42901 0.25512 0.0
C612 C 0.92064 0.42617 0.2515 0.0
C613 C 0.91397 0.37896 0.24738 0.0
C614 C 0.86621 0.33727 0.24653 0.0
C615 C 0.82942 0.38558 0.25453 0.0
H616 H 0.86369 0.30243 0.24292 0.0
H617 H 0.79675 0.38865 0.25748 0.0
H618 H 0.69973 0.1957 0.2771 0.0
H619 H 0.6768 0.22108 0.21968 0.0
C620 C 0.79843 0.2056 0.23406 0.0
C621 C 0.76812 0.33006 0.20429 0.0
C622 C 0.78915 0.26665 0.29659 0.0
C623 C 0.68324 0.31564 0.26347 0.0
H624 H 0.82142 0.29336 0.17991 0.0
H625 H 0.82788 0.21928 0.19505 0.0
H626 H 0.82892 0.1614 0.26337 0.0
H627 H 0.82779 0.19883 0.29734 0.0
H628 H 0.74525 0.30882 0.32122 0.0
H629 H 0.68168 0.32909 0.30367 0.0
H630 H 0.64134 0.34559 0.23338 0.0
H631 H 0.68851 0.35405 0.20094 0.0
H632 H 0.62986 0.11336 0.27615 0.0
H633 H 0.60098 0.13944 0.21829 0.0
H634 H 0.87962 0.46441 0.2582 0.0
H635 H 0.94549 0.37351 0.24499 0.0
C636 C 0.29479 0.48552 0.99653 0.0
C637 C 0.25922 0.48792 0.98482 0.0
H638 H 0.31991 0.48651 0.02514 0.0
C639 C 0.21755 0.48692 0.99338 0.0
H640 H 0.32773 0.48733 0.99032 0.0
C641 C 0.21332 0.48696 0.01327 0.0
C642 C 0.25035 0.4874 0.025 0.0
H643 H 0.19022 0.48986 0.98466 0.0
H644 H 0.18291 0.49004 0.01949 0.0
C645 C 0.29025 0.48497 0.01643 0.0
C646 C 0.7479 0.20581 0.34506 0.0
C647 C 0.7817 0.24401 0.35716 0.0
H648 H 0.72463 0.18274 0.31621 0.0
C649 C 0.82295 0.28594 0.349 0.0
H650 H 0.71512 0.17379 0.35093 0.0
C651 C 0.82811 0.29134 0.32915 0.0
C652 C 0.79238 0.2547 0.31705 0.0
H653 H 0.84881 0.3165 0.35797 0.0
H654 H 0.85792 0.32577 0.32326 0.0
C655 C 0.75329 0.21102 0.32521 0.0
C656 C 0.55225 0.7358 0.6802 0.0
C657 C 0.55314 0.77223 0.69237 0.0
H658 H 0.54782 0.71097 0.65134 0.0
C659 C 0.55797 0.81602 0.68428 0.0
H660 H 0.54747 0.7013 0.68603 0.0
C661 C 0.55798 0.82151 0.66443 0.0
C662 C 0.55349 0.78346 0.65226 0.0
H663 H 0.55763 0.84418 0.69333 0.0
H664 H 0.55728 0.85355 0.65863 0.0
C665 C 0.55266 0.74146 0.66035 0.0
C666 C 0.82567 0.53782 0.01304 0.0
C667 C 0.7889 0.5384 0.02459 0.0
H668 H 0.84886 0.53395 0.98455 0.0
C669 C 0.74968 0.5417 0.01583 0.0
H670 H 0.85556 0.5341 0.01941 0.0
C671 C 0.74547 0.54096 0.99592 0.0
C672 C 0.78072 0.53751 0.98439 0.0
H673 H 0.72022 0.54098 0.02442 0.0
H674 H 0.71296 0.53979 0.98956 0.0
C675 C 0.8218 0.53769 0.99313 0.0
C676 C 0.28703 0.81629 0.32576 0.0
C677 C 0.24861 0.77222 0.31754 0.0
H678 H 0.3247 0.8538 0.35152 0.0
C679 C 0.21348 0.73496 0.32959 0.0
H680 H 0.31523 0.84508 0.31679 0.0
C681 C 0.21858 0.74022 0.34945 0.0
C682 C 0.25921 0.78265 0.35766 0.0
H683 H 0.18422 0.70024 0.32365 0.0
H684 H 0.19324 0.70928 0.35837 0.0
C685 C 0.29238 0.82137 0.34562 0.0
C686 C 0.49007 0.28935 0.68001 0.0
C687 C 0.48874 0.25247 0.69204 0.0
H688 H 0.4948 0.31483 0.65124 0.0
C689 C 0.48353 0.20869 0.6838 0.0
H690 H 0.49514 0.32384 0.68597 0.0
C691 C 0.48355 0.20359 0.66392 0.0
C692 C 0.48842 0.24202 0.65189 0.0
H693 H 0.48352 0.18019 0.69273 0.0
H694 H 0.48395 0.1715 0.658 0.0
C695 C 0.48966 0.28406 0.66014 0.0
C696 C 0.25746 0.61682 0.18982 0.0
C697 C 0.2602 0.6635 0.18749 0.0
H698 H 0.26776 0.56008 0.17722 0.0
C699 C 0.25964 0.67884 0.16868 0.0
H700 H 0.25783 0.60316 0.20396 0.0
C701 C 0.2562 0.64876 0.15309 0.0
C702 C 0.26018 0.6055 0.15539 0.0
H703 H 0.26577 0.71556 0.1656 0.0
H704 H 0.25566 0.66235 0.13895 0.0
C705 C 0.26079 0.59017 0.1742 0.0
C706 C 0.6443 0.23498 0.49637 0.0
C707 C 0.68004 0.27999 0.4878 0.0
H708 H 0.59338 0.20008 0.51985 0.0
C709 C 0.69127 0.32505 0.49678 0.0
H710 H 0.63462 0.19966 0.48977 0.0
C711 C 0.66611 0.32533 0.51333 0.0
C712 C 0.63096 0.28051 0.52214 0.0
H713 H 0.71871 0.36038 0.49063 0.0
H714 H 0.67503 0.36086 0.51954 0.0
C715 C 0.62017 0.23523 0.51341 0.0
C716 C 0.44597 0.67716 0.84106 0.0
C717 C 0.43064 0.66124 0.82225 0.0
H718 H 0.43305 0.66117 0.87081 0.0
C719 C 0.38735 0.61386 0.81992 0.0
H720 H 0.47599 0.71431 0.84411 0.0
C721 C 0.35731 0.58696 0.83552 0.0
C722 C 0.37264 0.603 0.85433 0.0
H723 H 0.3738 0.5997 0.80577 0.0
H724 H 0.32062 0.55601 0.83247 0.0
C725 C 0.4194 0.64704 0.85666 0.0
C726 C 0.78214 0.37801 0.15263 0.0
C727 C 0.77953 0.42202 0.15497 0.0
H728 H 0.77167 0.31094 0.16522 0.0
C729 C 0.78037 0.43806 0.17378 0.0
H730 H 0.78153 0.36385 0.13849 0.0
C731 C 0.78384 0.41141 0.18937 0.0
C732 C 0.77975 0.36412 0.18705 0.0
H733 H 0.77447 0.46879 0.17686 0.0
H734 H 0.78461 0.42563 0.20351 0.0
C735 C 0.77884 0.34806 0.16825 0.0
C736 C 0.42119 0.79116 0.51396 0.0
C737 C 0.41055 0.7458 0.52257 0.0
H738 H 0.40664 0.82694 0.49042 0.0
C739 C 0.37553 0.70106 0.51366 0.0
H740 H 0.44787 0.82625 0.52048 0.0
C741 C 0.35041 0.70147 0.49711 0.0
C742 C 0.36148 0.74662 0.48826 0.0
H743 H 0.36673 0.66547 0.51979 0.0
H744 H 0.32316 0.6662 0.49086 0.0
C745 C 0.39707 0.79156 0.49694 0.0
C746 C 0.68398 0.43634 0.83513 0.0
C747 C 0.66824 0.42097 0.85395 0.0
H748 H 0.66782 0.42298 0.80537 0.0
C749 C 0.62103 0.3775 0.85631 0.0
H750 H 0.72097 0.46679 0.83208 0.0
C751 C 0.5943 0.34722 0.84076 0.0
C752 C 0.61004 0.36248 0.82193 0.0
H753 H 0.60708 0.36389 0.87047 0.0
H754 H 0.56377 0.3104 0.84388 0.0
C755 C 0.65391 0.40936 0.81953 0.0
C756 C 0.97961 0.47229 0.10037 0.0
C757 C 0.96736 0.50122 0.08865 0.0
H758 H 0.03661 0.45935 0.11116 0.0
C759 C 1.00565 0.53924 0.07768 0.0
H760 H 0.95134 0.44361 0.10935 0.0
C761 C 0.05485 0.54778 0.07827 0.0
C762 C 0.06753 0.51912 0.09015 0.0
H763 H 0.99744 0.56243 0.06856 0.0
H764 H 0.08271 0.57658 0.06925 0.0
C765 C 0.0289 0.48148 0.10131 0.0
C766 C 0.51913 0.0525 0.43356 0.0
C767 C 0.56135 0.06534 0.42229 0.0
H768 H 0.44864 0.99521 0.44382 0.0
C769 C 0.56212 0.02741 0.41152 0.0
H770 H 0.51771 0.08055 0.44232 0.0
C771 C 0.52145 0.97813 0.41178 0.0
C772 C 0.47898 0.96465 0.42325 0.0
H773 H 0.59417 0.03603 0.40269 0.0
H774 H 0.52347 0.95091 0.40276 0.0
C775 C 0.47908 1.00304 0.43426 0.0
C776 C 0.49329 0.47186 0.74529 0.0
C777 C 0.53108 0.47097 0.7562 0.0
H778 H 0.45739 0.5127 0.73677 0.0
C779 C 0.56113 0.51226 0.76774 0.0
H780 H 0.46934 0.44044 0.73628 0.0
C781 C 0.55322 0.55309 0.76857 0.0
C782 C 0.5158 0.55469 0.75748 0.0
H783 H 0.58975 0.51227 0.77665 0.0
H784 H 0.57618 0.58302 0.77829 0.0
C785 C 0.48605 0.51322 0.74577 0.0
C786 C 0.4807 0.02154 0.58863 0.0
C787 C 0.52963 0.06337 0.58829 0.0
H788 H 0.43386 0.942 0.58819 0.0
C789 C 0.56961 0.05367 0.58851 0.0
H790 H 0.44841 0.02641 0.589 0.0
C791 C 0.56107 1.00451 0.58874 0.0
C792 C 0.51214 0.96267 0.58842 0.0
H793 H 0.60791 0.08403 0.58817 0.0
H794 H 0.59336 0.99964 0.58919 0.0
C795 C 0.47216 0.97237 0.58853 0.0
C796 C 0.47918 0.48378 0.93141 0.0
C797 C 0.47938 0.52282 0.921 0.0
H798 H 0.51868 0.44605 0.93949 0.0
C799 C 0.52165 0.55333 0.90993 0.0
H800 H 0.44719 0.45945 0.94011 0.0
C801 C 0.5622 0.54473 0.90908 0.0
C802 C 0.56263 0.50602 0.91966 0.0
H803 H 0.52273 0.58296 0.90139 0.0
H804 H 0.59288 0.56826 0.89974 0.0
C805 C 0.5202 0.47575 0.93088 0.0
C806 C 0.06042 0.5135 0.24161 0.0
C807 C 0.07207 0.55437 0.25342 0.0
H808 H 1.00411 0.44325 0.2308 0.0
C809 C 0.03362 0.55335 0.26451 0.0
H810 H 0.08888 0.5137 0.23256 0.0
C811 C 0.98478 0.51217 0.26395 0.0
C812 C 0.97267 0.47113 0.25198 0.0
H813 H 0.04145 0.58452 0.2737 0.0
H814 H 0.95677 0.51249 0.27309 0.0
C815 C 1.01145 0.47288 0.2407 0.0
C816 C 0.54014 0.51032 0.07884 0.0
C817 C 0.56215 0.50644 0.09588 0.0
H818 H 0.48798 0.52503 0.0651 0.0
C819 C 0.54096 0.51127 0.11302 0.0
H820 H 0.55277 0.50549 0.06512 0.0
C821 C 0.49971 0.51924 0.113 0.0
C822 C 0.47855 0.52408 0.09585 0.0
H823 H 0.55616 0.50929 0.12662 0.0
H824 H 0.48446 0.52118 0.12659 0.0
C825 C 0.5006 0.52021 0.07883 0.0
C826 C 0.99592 0.49362 0.44197 0.0
C827 C 0.96922 0.47354 0.42483 0.0
H828 H 0.06434 0.54689 0.45559 0.0
C829 C 0.99602 0.49426 0.40782 0.0
H830 H 0.9781 0.47926 0.45556 0.0
C831 C 0.04669 0.53168 0.40784 0.0
C832 C 0.07339 0.55248 0.42488 0.0
H833 H 0.97823 0.48218 0.3941 0.0
H834 H 0.06456 0.54372 0.39414 0.0
C835 C 0.0466 0.53245 0.44199 0.0
C836 C 0.52232 0.03528 0.77997 0.0
C837 C 0.52641 0.06103 0.76284 0.0
H838 H 0.51409 0.96962 0.79354 0.0
C839 C 0.52306 0.0354 0.7458 0.0
H840 H 0.52392 0.05226 0.79358 0.0
C841 C 0.51452 0.98645 0.74578 0.0
C842 C 0.51132 0.96083 0.76281 0.0
H843 H 0.52731 0.05276 0.73209 0.0
H844 H 0.51016 0.96908 0.73206 0.0
C845 C 0.51555 0.98658 0.77995 0.0
C846 C 0.51432 0.53169 0.60205 0.0
C847 C 0.50832 0.55247 0.58504 0.0
H848 H 0.53298 0.4819 0.61568 0.0
C849 C 0.51483 0.53241 0.56789 0.0
H850 H 0.50873 0.54385 0.61575 0.0
C851 C 0.52656 0.49358 0.56785 0.0
C852 C 0.53317 0.47343 0.58495 0.0
H853 H 0.51141 0.54685 0.55432 0.0
H854 H 0.5299 0.47921 0.55425 0.0
C855 C 0.52729 0.49414 0.602 0.0
C856 C 0.05636 0.5465 0.92467 0.0
C857 C 0.07193 0.52383 0.91106 0.0
H858 H 0.99803 0.55768 0.93534 0.0
C859 C 0.03678 0.4932 0.89726 0.0
H860 H 0.08238 0.571 0.93534 0.0
C861 C 0.9872 0.48426 0.8975 0.0
C862 C 0.9712 0.50618 0.91142 0.0
H863 H 0.04715 0.47476 0.88661 0.0
H864 H 0.96117 0.45905 0.88702 0.0
C865 C 1.00731 0.5383 0.92474 0.0
C866 C 0.49949 0.99022 0.26374 0.0
C867 C 0.47724 0.96453 0.2467 0.0
H868 H 0.55256 0.05678 0.27747 0.0
C869 C 0.49867 0.99035 0.22956 0.0
H870 H 0.48658 0.97279 0.27745 0.0
C871 C 0.54041 0.03923 0.22956 0.0
C872 C 0.56185 0.06504 0.24671 0.0
H873 H 0.48326 0.9733 0.21596 0.0
H874 H 0.55582 0.05627 0.21597 0.0
C875 C 0.53962 0.03936 0.26375 0.0
loop_
_geom_bond_atom_site_label_1
_geom_bond_atom_site_label_2
_geom_bond_distance
_geom_bond_site_symmetry_2
_ccdc_geom_bond_type
C0 C1 1.443 . S
C0 N4 1.376 . S
C0 C38 1.389 . S
C1 C0 1.443 . S
C1 C2 1.340 . S
C1 H41 0.951 . S
C2 C1 1.340 . S
C2 C3 1.439 . S
C2 H42 0.950 . S
C3 C2 1.439 . S
C3 N4 1.374 . S
C3 C37 1.395 . S
N4 C0 1.376 . S
N4 C3 1.374 . S
N4 Co5 2.008 . S
Co5 N4 2.008 . S
Co5 N6 1.995 . S
Co5 N11 2.008 . S
Co5 N16 1.995 . S
Co5 N21 2.282 . S
Co5 N27 2.282 . S
N6 Co5 1.995 . S
N6 C7 1.376 . S
N6 C10 1.383 . S
C7 N6 1.376 . S
C7 C8 1.446 . S
C7 C37 1.391 . S
C8 C7 1.446 . S
C8 C9 1.339 . S
C8 H43 0.949 . S
C9 C8 1.339 . S
C9 C10 1.439 . S
C9 H44 0.950 . S
C10 N6 1.383 . S
C10 C9 1.439 . S
C10 C39 1.392 . S
N11 Co5 2.008 . S
N11 C12 1.376 . S
N11 C15 1.374 . S
C12 N11 1.376 . S
C12 C13 1.443 . S
C12 C39 1.389 . S
C13 C12 1.443 . S
C13 C14 1.340 . S
C13 H45 0.951 . S
C14 C13 1.340 . S
C14 C15 1.439 . S
C14 H46 0.950 . S
C15 N11 1.374 . S
C15 C14 1.439 . S
C15 C40 1.395 . S
N16 Co5 1.995 . S
N16 C17 1.376 . S
N16 C20 1.383 . S
C17 N16 1.376 . S
C17 C18 1.446 . S
C17 C40 1.391 . S
C18 C17 1.446 . S
C18 C19 1.339 . S
C18 H47 0.949 . S
C19 C18 1.339 . S
C19 C20 1.439 . S
C19 H48 0.950 . S
C20 N16 1.383 . S
C20 C19 1.439 . S
C20 C38 1.392 . S
N21 Co5 2.282 . S
N21 C24 1.332 . S
N21 C26 1.332 . S
C22 C23 1.386 . S
C22 C25 1.388 . S
C23 C22 1.386 . S
C23 C24 1.382 . S
C23 H49 0.950 . S
C24 N21 1.332 . S
C24 C23 1.382 . S
C24 H35 0.952 . S
C25 C22 1.388 . S
C25 C26 1.382 . S
C25 H50 0.950 . S
C26 N21 1.332 . S
C26 C25 1.382 . S
C26 H36 0.948 . S
N27 Co5 2.282 . S
N27 C31 1.332 . S
N27 C32 1.332 . S
C28 C29 1.388 . S
C28 C32 1.382 . S
C28 H51 0.950 . S
C29 C28 1.388 . S
C29 C30 1.386 . S
C30 C29 1.386 . S
C30 C31 1.382 . S
C30 H52 0.950 . S
C31 N27 1.332 . S
C31 C30 1.382 . S
C31 H33 0.952 . S
C32 N27 1.332 . S
C32 C28 1.382 . S
C32 H34 0.948 . S
H33 C31 0.952 . S
H34 C32 0.948 . S
H35 C24 0.952 . S
H36 C26 0.948 . S
C37 C3 1.395 . S
C37 C7 1.391 . S
C38 C0 1.389 . S
C38 C20 1.392 . S
C39 C10 1.392 . S
C39 C12 1.389 . S
C40 C15 1.395 . S
C40 C17 1.391 . S
H41 C1 0.951 . S
H42 C2 0.950 . S
H43 C8 0.949 . S
H44 C9 0.950 . S
H45 C13 0.951 . S
H46 C14 0.950 . S
H47 C18 0.949 . S
H48 C19 0.950 . S
H49 C23 0.950 . S
H50 C25 0.950 . S
H51 C28 0.950 . S
H52 C30 0.950 . S
C53 C54 1.443 . S
C53 N57 1.376 . S
C53 C91 1.389 . S
C54 C53 1.443 . S
C54 C55 1.340 . S
C54 H94 0.951 . S
C55 C54 1.340 . S
C55 C56 1.439 . S
C55 H95 0.950 . S
C56 C55 1.439 . S
C56 N57 1.374 . S
C56 C90 1.395 . S
N57 C53 1.376 . S
N57 C56 1.374 . S
N57 Co58 2.008 . S
Co58 N57 2.008 . S
Co58 N59 1.995 . S
Co58 N64 2.008 . S
Co58 N69 1.995 . S
Co58 N74 2.282 . S
Co58 N80 2.282 . S
N59 Co58 1.995 . S
N59 C60 1.376 . S
N59 C63 1.383 . S
C60 N59 1.376 . S
C60 C61 1.446 . S
C60 C90 1.391 . S
C61 C60 1.446 . S
C61 C62 1.339 . S
C61 H96 0.949 . S
C62 C61 1.339 . S
C62 C63 1.439 . S
C62 H97 0.950 . S
C63 N59 1.383 . S
C63 C62 1.439 . S
C63 C92 1.392 . S
N64 Co58 2.008 . S
N64 C65 1.376 . S
N64 C68 1.374 . S
C65 N64 1.376 . S
C65 C66 1.443 . S
C65 C92 1.389 . S
C66 C65 1.443 . S
C66 C67 1.340 . S
C66 H98 0.951 . S
C67 C66 1.340 . S
C67 C68 1.439 . S
C67 H99 0.950 . S
C68 N64 1.374 . S
C68 C67 1.439 . S
C68 C93 1.395 . S
N69 Co58 1.995 . S
N69 C70 1.376 . S
N69 C73 1.383 . S
C70 N69 1.376 . S
C70 C71 1.446 . S
C70 C93 1.391 . S
C71 C70 1.446 . S
C71 C72 1.339 . S
C71 H100 0.949 . S
C72 C71 1.339 . S
C72 C73 1.439 . S
C72 H101 0.950 . S
C73 N69 1.383 . S
C73 C72 1.439 . S
C73 C91 1.392 . S
N74 Co58 2.282 . S
N74 C77 1.332 . S
N74 C79 1.332 . S
C75 C76 1.386 . S
C75 C78 1.388 . S
C76 C75 1.386 . S
C76 C77 1.382 . S
C76 H102 0.950 . S
C77 N74 1.332 . S
C77 C76 1.382 . S
C77 H88 0.952 . S
C78 C75 1.388 . S
C78 C79 1.382 . S
C78 H103 0.950 . S
C79 N74 1.332 . S
C79 C78 1.382 . S
C79 H89 0.948 . S
N80 Co58 2.282 . S
N80 C84 1.332 . S
N80 C85 1.332 . S
C81 C82 1.388 . S
C81 C85 1.382 . S
C81 H104 0.950 . S
C82 C81 1.388 . S
C82 C83 1.386 . S
C83 C82 1.386 . S
C83 C84 1.382 . S
C83 H105 0.950 . S
C84 N80 1.332 . S
C84 C83 1.382 . S
C84 H86 0.952 . S
C85 N80 1.332 . S
C85 C81 1.382 . S
C85 H87 0.948 . S
H86 C84 0.952 . S
H87 C85 0.948 . S
H88 C77 0.952 . S
H89 C79 0.948 . S
C90 C56 1.395 . S
C90 C60 1.391 . S
C91 C53 1.389 . S
C91 C73 1.392 . S
C92 C63 1.392 . S
C92 C65 1.389 . S
C93 C68 1.395 . S
C93 C70 1.391 . S
H94 C54 0.951 . S
H95 C55 0.950 . S
H96 C61 0.949 . S
H97 C62 0.950 . S
H98 C66 0.951 . S
H99 C67 0.950 . S
H100 C71 0.949 . S
H101 C72 0.950 . S
H102 C76 0.950 . S
H103 C78 0.950 . S
H104 C81 0.950 . S
H105 C83 0.950 . S
C106 C107 1.443 . S
C106 N110 1.376 . S
C106 C144 1.389 . S
C107 C106 1.443 . S
C107 C108 1.340 . S
C107 H147 0.951 . S
C108 C107 1.340 . S
C108 C109 1.439 . S
C108 H148 0.950 . S
C109 C108 1.439 . S
C109 N110 1.374 . S
C109 C143 1.395 . S
N110 C106 1.376 . S
N110 C109 1.374 . S
N110 Co111 2.008 . S
Co111 N110 2.008 . S
Co111 N112 1.995 . S
Co111 N117 2.008 . S
Co111 N122 1.995 . S
Co111 N127 2.282 . S
Co111 N133 2.282 . S
N112 Co111 1.995 . S
N112 C113 1.376 . S
N112 C116 1.383 . S
C113 N112 1.376 . S
C113 C114 1.446 . S
C113 C143 1.391 . S
C114 C113 1.446 . S
C114 C115 1.339 . S
C114 H149 0.949 . S
C115 C114 1.339 . S
C115 C116 1.439 . S
C115 H150 0.950 . S
C116 N112 1.383 . S
C116 C115 1.439 . S
C116 C145 1.392 . S
N117 Co111 2.008 . S
N117 C118 1.376 . S
N117 C121 1.374 . S
C118 N117 1.376 . S
C118 C119 1.443 . S
C118 C145 1.389 . S
C119 C118 1.443 . S
C119 C120 1.340 . S
C119 H151 0.951 . S
C120 C119 1.340 . S
C120 C121 1.439 . S
C120 H152 0.950 . S
C121 N117 1.374 . S
C121 C120 1.439 . S
C121 C146 1.395 . S
N122 Co111 1.995 . S
N122 C123 1.376 . S
N122 C126 1.383 . S
C123 N122 1.376 . S
C123 C124 1.446 . S
C123 C146 1.391 . S
C124 C123 1.446 . S
C124 C125 1.339 . S
C124 H153 0.949 . S
C125 C124 1.339 . S
C125 C126 1.439 . S
C125 H154 0.950 . S
C126 N122 1.383 . S
C126 C125 1.439 . S
C126 C144 1.392 . S
N127 Co111 2.282 . S
N127 C130 1.332 . S
N127 C132 1.332 . S
C128 C129 1.386 . S
C128 C131 1.388 . S
C129 C128 1.386 . S
C129 C130 1.382 . S
C129 H155 0.950 . S
C130 N127 1.332 . S
C130 C129 1.382 . S
C130 H141 0.952 . S
C131 C128 1.388 . S
C131 C132 1.382 . S
C131 H156 0.950 . S
C132 N127 1.332 . S
C132 C131 1.382 . S
C132 H142 0.948 . S
N133 Co111 2.282 . S
N133 C137 1.332 . S
N133 C138 1.332 . S
C134 C135 1.388 . S
C134 C138 1.382 . S
C134 H157 0.950 . S
C135 C134 1.388 . S
C135 C136 1.386 . S
C136 C135 1.386 . S
C136 C137 1.382 . S
C136 H158 0.950 . S
C137 N133 1.332 . S
C137 C136 1.382 . S
C137 H139 0.952 . S
C138 N133 1.332 . S
C138 C134 1.382 . S
C138 H140 0.948 . S
H139 C137 0.952 . S
H140 C138 0.948 . S
H141 C130 0.952 . S
H142 C132 0.948 . S
C143 C109 1.395 . S
C143 C113 1.391 . S
C144 C106 1.389 . S
C144 C126 1.392 . S
C145 C116 1.392 . S
C145 C118 1.389 . S
C146 C121 1.395 . S
C146 C123 1.391 . S
H147 C107 0.951 . S
H148 C108 0.950 . S
H149 C114 0.949 . S
H150 C115 0.950 . S
H151 C119 0.951 . S
H152 C120 0.950 . S
H153 C124 0.949 . S
H154 C125 0.950 . S
H155 C129 0.950 . S
H156 C131 0.950 . S
H157 C134 0.950 . S
H158 C136 0.950 . S
C159 C160 1.443 . S
C159 N163 1.376 . S
C159 C197 1.389 . S
C160 C159 1.443 . S
C160 C161 1.340 . S
C160 H200 0.951 . S
C161 C160 1.340 . S
C161 C162 1.439 . S
C161 H201 0.950 . S
C162 C161 1.439 . S
C162 N163 1.374 . S
C162 C196 1.395 . S
N163 C159 1.376 . S
N163 C162 1.374 . S
N163 Co164 2.008 . S
Co164 N163 2.008 . S
Co164 N165 1.995 . S
Co164 N170 2.008 . S
Co164 N175 1.995 . S
Co164 N180 2.282 . S
Co164 N186 2.282 . S
N165 Co164 1.995 . S
N165 C166 1.376 . S
N165 C169 1.383 . S
C166 N165 1.376 . S
C166 C167 1.446 . S
C166 C196 1.391 . S
C167 C166 1.446 . S
C167 C168 1.339 . S
C167 H202 0.949 . S
C168 C167 1.339 . S
C168 C169 1.439 . S
C168 H203 0.950 . S
C169 N165 1.383 . S
C169 C168 1.439 . S
C169 C198 1.392 . S
N170 Co164 2.008 . S
N170 C171 1.376 . S
N170 C174 1.374 . S
C171 N170 1.376 . S
C171 C172 1.443 . S
C171 C198 1.389 . S
C172 C171 1.443 . S
C172 C173 1.340 . S
C172 H204 0.951 . S
C173 C172 1.340 . S
C173 C174 1.439 . S
C173 H205 0.950 . S
C174 N170 1.374 . S
C174 C173 1.439 . S
C174 C199 1.395 . S
N175 Co164 1.995 . S
N175 C176 1.376 . S
N175 C179 1.383 . S
C176 N175 1.376 . S
C176 C177 1.446 . S
C176 C199 1.391 . S
C177 C176 1.446 . S
C177 C178 1.339 . S
C177 H206 0.949 . S
C178 C177 1.339 . S
C178 C179 1.439 . S
C178 H207 0.950 . S
C179 N175 1.383 . S
C179 C178 1.439 . S
C179 C197 1.392 . S
N180 Co164 2.282 . S
N180 C183 1.332 . S
N180 C185 1.332 . S
C181 C182 1.386 . S
C181 C184 1.388 . S
C182 C181 1.386 . S
C182 C183 1.382 . S
C182 H208 0.950 . S
C183 N180 1.332 . S
C183 C182 1.382 . S
C183 H194 0.952 . S
C184 C181 1.388 . S
C184 C185 1.382 . S
C184 H209 0.950 . S
C185 N180 1.332 . S
C185 C184 1.382 . S
C185 H195 0.948 . S
N186 Co164 2.282 . S
N186 C190 1.332 . S
N186 C191 1.332 . S
C187 C188 1.388 . S
C187 C191 1.382 . S
C187 H210 0.950 . S
C188 C187 1.388 . S
C188 C189 1.386 . S
C189 C188 1.386 . S
C189 C190 1.382 . S
C189 H211 0.950 . S
C190 N186 1.332 . S
C190 C189 1.382 . S
C190 H192 0.952 . S
C191 N186 1.332 . S
C191 C187 1.382 . S
C191 H193 0.948 . S
H192 C190 0.952 . S
H193 C191 0.948 . S
H194 C183 0.952 . S
H195 C185 0.948 . S
C196 C162 1.395 . S
C196 C166 1.391 . S
C197 C159 1.389 . S
C197 C179 1.392 . S
C198 C169 1.392 . S
C198 C171 1.389 . S
C199 C174 1.395 . S
C199 C176 1.391 . S
H200 C160 0.951 . S
H201 C161 0.950 . S
H202 C167 0.949 . S
H203 C168 0.950 . S
H204 C172 0.951 . S
H205 C173 0.950 . S
H206 C177 0.949 . S
H207 C178 0.950 . S
H208 C182 0.950 . S
H209 C184 0.950 . S
H210 C187 0.950 . S
H211 C189 0.950 . S
C212 C213 1.443 . S
C212 N216 1.376 . S
C212 C250 1.389 . S
C213 C212 1.443 . S
C213 C214 1.340 . S
C213 H253 0.951 . S
C214 C213 1.340 . S
C214 C215 1.439 . S
C214 H254 0.950 . S
C215 C214 1.439 . S
C215 N216 1.374 . S
C215 C249 1.395 . S
N216 C212 1.376 . S
N216 C215 1.374 . S
N216 Co217 2.008 . S
Co217 N216 2.008 . S
Co217 N218 1.995 . S
Co217 N223 2.008 . S
Co217 N228 1.995 . S
Co217 N233 2.282 . S
Co217 N239 2.282 . S
N218 Co217 1.995 . S
N218 C219 1.376 . S
N218 C222 1.383 . S
C219 N218 1.376 . S
C219 C220 1.446 . S
C219 C249 1.391 . S
C220 C219 1.446 . S
C220 C221 1.339 . S
C220 H255 0.949 . S
C221 C220 1.339 . S
C221 C222 1.439 . S
C221 H256 0.950 . S
C222 N218 1.383 . S
C222 C221 1.439 . S
C222 C251 1.392 . S
N223 Co217 2.008 . S
N223 C224 1.376 . S
N223 C227 1.374 . S
C224 N223 1.376 . S
C224 C225 1.443 . S
C224 C251 1.389 . S
C225 C224 1.443 . S
C225 C226 1.340 . S
C225 H257 0.951 . S
C226 C225 1.340 . S
C226 C227 1.439 . S
C226 H258 0.950 . S
C227 N223 1.374 . S
C227 C226 1.439 . S
C227 C252 1.395 . S
N228 Co217 1.995 . S
N228 C229 1.376 . S
N228 C232 1.383 . S
C229 N228 1.376 . S
C229 C230 1.446 . S
C229 C252 1.391 . S
C230 C229 1.446 . S
C230 C231 1.339 . S
C230 H259 0.949 . S
C231 C230 1.339 . S
C231 C232 1.439 . S
C231 H260 0.950 . S
C232 N228 1.383 . S
C232 C231 1.439 . S
C232 C250 1.392 . S
N233 Co217 2.282 . S
N233 C236 1.332 . S
N233 C238 1.332 . S
C234 C235 1.386 . S
C234 C237 1.388 . S
C235 C234 1.386 . S
C235 C236 1.382 . S
C235 H261 0.950 . S
C236 N233 1.332 . S
C236 C235 1.382 . S
C236 H247 0.952 . S
C237 C234 1.388 . S
C237 C238 1.382 . S
C237 H262 0.950 . S
C238 N233 1.332 . S
C238 C237 1.382 . S
C238 H248 0.948 . S
N239 Co217 2.282 . S
N239 C243 1.332 . S
N239 C244 1.332 . S
C240 C241 1.388 . S
C240 C244 1.382 . S
C240 H263 0.950 . S
C241 C240 1.388 . S
C241 C242 1.386 . S
C242 C241 1.386 . S
C242 C243 1.382 . S
C242 H264 0.950 . S
C243 N239 1.332 . S
C243 C242 1.382 . S
C243 H245 0.952 . S
C244 N239 1.332 . S
C244 C240 1.382 . S
C244 H246 0.948 . S
H245 C243 0.952 . S
H246 C244 0.948 . S
H247 C236 0.952 . S
H248 C238 0.948 . S
C249 C215 1.395 . S
C249 C219 1.391 . S
C250 C212 1.389 . S
C250 C232 1.392 . S
C251 C222 1.392 . S
C251 C224 1.389 . S
C252 C227 1.395 . S
C252 C229 1.391 . S
H253 C213 0.951 . S
H254 C214 0.950 . S
H255 C220 0.949 . S
H256 C221 0.950 . S
H257 C225 0.951 . S
H258 C226 0.950 . S
H259 C230 0.949 . S
H260 C231 0.950 . S
H261 C235 0.950 . S
H262 C237 0.950 . S
H263 C240 0.950 . S
H264 C242 0.950 . S
C265 C266 1.443 . S
C265 N269 1.376 . S
C265 C303 1.389 . S
C266 C265 1.443 . S
C266 C267 1.340 . S
C266 H306 0.951 . S
C267 C266 1.340 . S
C267 C268 1.439 . S
C267 H307 0.950 . S
C268 C267 1.439 . S
C268 N269 1.374 . S
C268 C302 1.395 . S
N269 C265 1.376 . S
N269 C268 1.374 . S
N269 Co270 2.008 . S
Co270 N269 2.008 . S
Co270 N271 1.995 . S
Co270 N276 2.008 . S
Co270 N281 1.995 . S
Co270 N286 2.282 . S
Co270 N292 2.282 . S
N271 Co270 1.995 . S
N271 C272 1.376 . S
N271 C275 1.383 . S
C272 N271 1.376 . S
C272 C273 1.446 . S
C272 C302 1.391 . S
C273 C272 1.446 . S
C273 C274 1.339 . S
C273 H308 0.949 . S
C274 C273 1.339 . S
C274 C275 1.439 . S
C274 H309 0.950 . S
C275 N271 1.383 . S
C275 C274 1.439 . S
C275 C304 1.392 . S
N276 Co270 2.008 . S
N276 C277 1.376 . S
N276 C280 1.374 . S
C277 N276 1.376 . S
C277 C278 1.443 . S
C277 C304 1.389 . S
C278 C277 1.443 . S
C278 C279 1.340 . S
C278 H310 0.951 . S
C279 C278 1.340 . S
C279 C280 1.439 . S
C279 H311 0.950 . S
C280 N276 1.374 . S
C280 C279 1.439 . S
C280 C305 1.395 . S
N281 Co270 1.995 . S
N281 C282 1.376 . S
N281 C285 1.383 . S
C282 N281 1.376 . S
C282 C283 1.446 . S
C282 C305 1.391 . S
C283 C282 1.446 . S
C283 C284 1.339 . S
C283 H312 0.949 . S
C284 C283 1.339 . S
C284 C285 1.439 . S
C284 H313 0.950 . S
C285 N281 1.383 . S
C285 C284 1.439 . S
C285 C303 1.392 . S
N286 Co270 2.282 . S
N286 C289 1.332 . S
N286 C291 1.332 . S
C287 C288 1.386 . S
C287 C290 1.388 . S
C288 C287 1.386 . S
C288 C289 1.382 . S
C288 H314 0.950 . S
C289 N286 1.332 . S
C289 C288 1.382 . S
C289 H300 0.952 . S
C290 C287 1.388 . S
C290 C291 1.382 . S
C290 H315 0.950 . S
C291 N286 1.332 . S
C291 C290 1.382 . S
C291 H301 0.948 . S
N292 Co270 2.282 . S
N292 C296 1.332 . S
N292 C297 1.332 . S
C293 C294 1.388 . S
C293 C297 1.382 . S
C293 H316 0.950 . S
C294 C293 1.388 . S
C294 C295 1.386 . S
C295 C294 1.386 . S
C295 C296 1.382 . S
C295 H317 0.950 . S
C296 N292 1.332 . S
C296 C295 1.382 . S
C296 H298 0.952 . S
C297 N292 1.332 . S
C297 C293 1.382 . S
C297 H299 0.948 . S
H298 C296 0.952 . S
H299 C297 0.948 . S
H300 C289 0.952 . S
H301 C291 0.948 . S
C302 C268 1.395 . S
C302 C272 1.391 . S
C303 C265 1.389 . S
C303 C285 1.392 . S
C304 C275 1.392 . S
C304 C277 1.389 . S
C305 C280 1.395 . S
C305 C282 1.391 . S
H306 C266 0.951 . S
H307 C267 0.950 . S
H308 C273 0.949 . S
H309 C274 0.950 . S
H310 C278 0.951 . S
H311 C279 0.950 . S
H312 C283 0.949 . S
H313 C284 0.950 . S
H314 C288 0.950 . S
H315 C290 0.950 . S
H316 C293 0.950 . S
H317 C295 0.950 . S
C318 C319 1.443 . S
C318 N322 1.376 . S
C318 C356 1.389 . S
C319 C318 1.443 . S
C319 C320 1.340 . S
C319 H359 0.951 . S
C320 C319 1.340 . S
C320 C321 1.439 . S
C320 H360 0.950 . S
C321 C320 1.439 . S
C321 N322 1.374 . S
C321 C355 1.395 . S
N322 C318 1.376 . S
N322 C321 1.374 . S
N322 Co323 2.008 . S
Co323 N322 2.008 . S
Co323 N324 1.995 . S
Co323 N329 2.008 . S
Co323 N334 1.995 . S
Co323 N339 2.282 . S
Co323 N345 2.282 . S
N324 Co323 1.995 . S
N324 C325 1.376 . S
N324 C328 1.383 . S
C325 N324 1.376 . S
C325 C326 1.446 . S
C325 C355 1.391 . S
C326 C325 1.446 . S
C326 C327 1.339 . S
C326 H361 0.949 . S
C327 C326 1.339 . S
C327 C328 1.439 . S
C327 H362 0.950 . S
C328 N324 1.383 . S
C328 C327 1.439 . S
C328 C357 1.392 . S
N329 Co323 2.008 . S
N329 C330 1.376 . S
N329 C333 1.374 . S
C330 N329 1.376 . S
C330 C331 1.443 . S
C330 C357 1.389 . S
C331 C330 1.443 . S
C331 C332 1.340 . S
C331 H363 0.951 . S
C332 C331 1.340 . S
C332 C333 1.439 . S
C332 H364 0.950 . S
C333 N329 1.374 . S
C333 C332 1.439 . S
C333 C358 1.395 . S
N334 Co323 1.995 . S
N334 C335 1.376 . S
N334 C338 1.383 . S
C335 N334 1.376 . S
C335 C336 1.446 . S
C335 C358 1.391 . S
C336 C335 1.446 . S
C336 C337 1.339 . S
C336 H365 0.949 . S
C337 C336 1.339 . S
C337 C338 1.439 . S
C337 H366 0.950 . S
C338 N334 1.383 . S
C338 C337 1.439 . S
C338 C356 1.392 . S
N339 Co323 2.282 . S
N339 C342 1.332 . S
N339 C344 1.332 . S
C340 C341 1.386 . S
C340 C343 1.388 . S
C341 C340 1.386 . S
C341 C342 1.382 . S
C341 H367 0.950 . S
C342 N339 1.332 . S
C342 C341 1.382 . S
C342 H353 0.952 . S
C343 C340 1.388 . S
C343 C344 1.382 . S
C343 H368 0.950 . S
C344 N339 1.332 . S
C344 C343 1.382 . S
C344 H354 0.948 . S
N345 Co323 2.282 . S
N345 C349 1.332 . S
N345 C350 1.332 . S
C346 C347 1.388 . S
C346 C350 1.382 . S
C346 H369 0.950 . S
C347 C346 1.388 . S
C347 C348 1.386 . S
C348 C347 1.386 . S
C348 C349 1.382 . S
C348 H370 0.950 . S
C349 N345 1.332 . S
C349 C348 1.382 . S
C349 H351 0.952 . S
C350 N345 1.332 . S
C350 C346 1.382 . S
C350 H352 0.948 . S
H351 C349 0.952 . S
H352 C350 0.948 . S
H353 C342 0.952 . S
H354 C344 0.948 . S
C355 C321 1.395 . S
C355 C325 1.391 . S
C356 C318 1.389 . S
C356 C338 1.392 . S
C357 C328 1.392 . S
C357 C330 1.389 . S
C358 C333 1.395 . S
C358 C335 1.391 . S
H359 C319 0.951 . S
H360 C320 0.950 . S
H361 C326 0.949 . S
H362 C327 0.950 . S
H363 C331 0.951 . S
H364 C332 0.950 . S
H365 C336 0.949 . S
H366 C337 0.950 . S
H367 C341 0.950 . S
H368 C343 0.950 . S
H369 C346 0.950 . S
H370 C348 0.950 . S
C371 C372 1.443 . S
C371 N375 1.376 . S
C371 C409 1.389 . S
C372 C371 1.443 . S
C372 C373 1.340 . S
C372 H412 0.951 . S
C373 C372 1.340 . S
C373 C374 1.439 . S
C373 H413 0.950 . S
C374 C373 1.439 . S
C374 N375 1.374 . S
C374 C408 1.395 . S
N375 C371 1.376 . S
N375 C374 1.374 . S
N375 Co376 2.008 . S
Co376 N375 2.008 . S
Co376 N377 1.995 . S
Co376 N382 2.008 . S
Co376 N387 1.995 . S
Co376 N392 2.282 . S
Co376 N398 2.282 . S
N377 Co376 1.995 . S
N377 C378 1.376 . S
N377 C381 1.383 . S
C378 N377 1.376 . S
C378 C379 1.446 . S
C378 C408 1.391 . S
C379 C378 1.446 . S
C379 C380 1.339 . S
C379 H414 0.949 . S
C380 C379 1.339 . S
C380 C381 1.439 . S
C380 H415 0.950 . S
C381 N377 1.383 . S
C381 C380 1.439 . S
C381 C410 1.392 . S
N382 Co376 2.008 . S
N382 C383 1.376 . S
N382 C386 1.374 . S
C383 N382 1.376 . S
C383 C384 1.443 . S
C383 C410 1.389 . S
C384 C383 1.443 . S
C384 C385 1.340 . S
C384 H416 0.951 . S
C385 C384 1.340 . S
C385 C386 1.439 . S
C385 H417 0.950 . S
C386 N382 1.374 . S
C386 C385 1.439 . S
C386 C411 1.395 . S
N387 Co376 1.995 . S
N387 C388 1.376 . S
N387 C391 1.383 . S
C388 N387 1.376 . S
C388 C389 1.446 . S
C388 C411 1.391 . S
C389 C388 1.446 . S
C389 C390 1.339 . S
C389 H418 0.949 . S
C390 C389 1.339 . S
C390 C391 1.439 . S
C390 H419 0.950 . S
C391 N387 1.383 . S
C391 C390 1.439 . S
C391 C409 1.392 . S
N392 Co376 2.282 . S
N392 C395 1.332 . S
N392 C397 1.332 . S
C393 C394 1.386 . S
C393 C396 1.388 . S
C394 C393 1.386 . S
C394 C395 1.382 . S
C394 H420 0.950 . S
C395 N392 1.332 . S
C395 C394 1.382 . S
C395 H406 0.952 . S
C396 C393 1.388 . S
C396 C397 1.382 . S
C396 H421 0.950 . S
C397 N392 1.332 . S
C397 C396 1.382 . S
C397 H407 0.948 . S
N398 Co376 2.282 . S
N398 C402 1.332 . S
N398 C403 1.332 . S
C399 C400 1.388 . S
C399 C403 1.382 . S
C399 H422 0.950 . S
C400 C399 1.388 . S
C400 C401 1.386 . S
C401 C400 1.386 . S
C401 C402 1.382 . S
C401 H423 0.950 . S
C402 N398 1.332 . S
C402 C401 1.382 . S
C402 H404 0.952 . S
C403 N398 1.332 . S
C403 C399 1.382 . S
C403 H405 0.948 . S
H404 C402 0.952 . S
H405 C403 0.948 . S
H406 C395 0.952 . S
H407 C397 0.948 . S
C408 C374 1.395 . S
C408 C378 1.391 . S
C409 C371 1.389 . S
C409 C391 1.392 . S
C410 C381 1.392 . S
C410 C383 1.389 . S
C411 C386 1.395 . S
C411 C388 1.391 . S
H412 C372 0.951 . S
H413 C373 0.950 . S
H414 C379 0.949 . S
H415 C380 0.950 . S
H416 C384 0.951 . S
H417 C385 0.950 . S
H418 C389 0.949 . S
H419 C390 0.950 . S
H420 C394 0.950 . S
H421 C396 0.950 . S
H422 C399 0.950 . S
H423 C401 0.950 . S
C424 C425 1.443 . S
C424 N428 1.376 . S
C424 C462 1.389 . S
C425 C424 1.443 . S
C425 C426 1.340 . S
C425 H465 0.951 . S
C426 C425 1.340 . S
C426 C427 1.439 . S
C426 H466 0.950 . S
C427 C426 1.439 . S
C427 N428 1.374 . S
C427 C461 1.395 . S
N428 C424 1.376 . S
N428 C427 1.374 . S
N428 Co429 2.008 . S
Co429 N428 2.008 . S
Co429 N430 1.995 . S
Co429 N435 2.008 . S
Co429 N440 1.995 . S
Co429 N445 2.282 . S
Co429 N451 2.282 . S
N430 Co429 1.995 . S
N430 C431 1.376 . S
N430 C434 1.383 . S
C431 N430 1.376 . S
C431 C432 1.446 . S
C431 C461 1.391 . S
C432 C431 1.446 . S
C432 C433 1.339 . S
C432 H467 0.949 . S
C433 C432 1.339 . S
C433 C434 1.439 . S
C433 H468 0.950 . S
C434 N430 1.383 . S
C434 C433 1.439 . S
C434 C463 1.392 . S
N435 Co429 2.008 . S
N435 C436 1.376 . S
N435 C439 1.374 . S
C436 N435 1.376 . S
C436 C437 1.443 . S
C436 C463 1.389 . S
C437 C436 1.443 . S
C437 C438 1.340 . S
C437 H469 0.951 . S
C438 C437 1.340 . S
C438 C439 1.439 . S
C438 H470 0.950 . S
C439 N435 1.374 . S
C439 C438 1.439 . S
C439 C464 1.395 . S
N440 Co429 1.995 . S
N440 C441 1.376 . S
N440 C444 1.383 . S
C441 N440 1.376 . S
C441 C442 1.446 . S
C441 C464 1.391 . S
C442 C441 1.446 . S
C442 C443 1.339 . S
C442 H471 0.949 . S
C443 C442 1.339 . S
C443 C444 1.439 . S
C443 H472 0.950 . S
C444 N440 1.383 . S
C444 C443 1.439 . S
C444 C462 1.392 . S
N445 Co429 2.282 . S
N445 C448 1.332 . S
N445 C450 1.332 . S
C446 C447 1.386 . S
C446 C449 1.388 . S
C447 C446 1.386 . S
C447 C448 1.382 . S
C447 H473 0.950 . S
C448 N445 1.332 . S
C448 C447 1.382 . S
C448 H459 0.952 . S
C449 C446 1.388 . S
C449 C450 1.382 . S
C449 H474 0.950 . S
C450 N445 1.332 . S
C450 C449 1.382 . S
C450 H460 0.948 . S
N451 Co429 2.282 . S
N451 C455 1.332 . S
N451 C456 1.332 . S
C452 C453 1.388 . S
C452 C456 1.382 . S
C452 H475 0.950 . S
C453 C452 1.388 . S
C453 C454 1.386 . S
C454 C453 1.386 . S
C454 C455 1.382 . S
C454 H476 0.950 . S
C455 N451 1.332 . S
C455 C454 1.382 . S
C455 H457 0.952 . S
C456 N451 1.332 . S
C456 C452 1.382 . S
C456 H458 0.948 . S
H457 C455 0.952 . S
H458 C456 0.948 . S
H459 C448 0.952 . S
H460 C450 0.948 . S
C461 C427 1.395 . S
C461 C431 1.391 . S
C462 C424 1.389 . S
C462 C444 1.392 . S
C463 C434 1.392 . S
C463 C436 1.389 . S
C464 C439 1.395 . S
C464 C441 1.391 . S
H465 C425 0.951 . S
H466 C426 0.950 . S
H467 C432 0.949 . S
H468 C433 0.950 . S
H469 C437 0.951 . S
H470 C438 0.950 . S
H471 C442 0.949 . S
H472 C443 0.950 . S
H473 C447 0.950 . S
H474 C449 0.950 . S
H475 C452 0.950 . S
H476 C454 0.950 . S
C477 C478 1.443 . S
C477 N481 1.376 . S
C477 C515 1.389 . S
C478 C477 1.443 . S
C478 C479 1.340 . S
C478 H518 0.951 . S
C479 C478 1.340 . S
C479 C480 1.439 . S
C479 H519 0.950 . S
C480 C479 1.439 . S
C480 N481 1.374 . S
C480 C514 1.395 . S
N481 C477 1.376 . S
N481 C480 1.374 . S
N481 Co482 2.008 . S
Co482 N481 2.008 . S
Co482 N483 1.995 . S
Co482 N488 2.008 . S
Co482 N493 1.995 . S
Co482 N498 2.282 . S
Co482 N504 2.282 . S
N483 Co482 1.995 . S
N483 C484 1.376 . S
N483 C487 1.383 . S
C484 N483 1.376 . S
C484 C485 1.446 . S
C484 C514 1.391 . S
C485 C484 1.446 . S
C485 C486 1.339 . S
C485 H520 0.949 . S
C486 C485 1.339 . S
C486 C487 1.439 . S
C486 H521 0.950 . S
C487 N483 1.383 . S
C487 C486 1.439 . S
C487 C516 1.392 . S
N488 Co482 2.008 . S
N488 C489 1.376 . S
N488 C492 1.374 . S
C489 N488 1.376 . S
C489 C490 1.443 . S
C489 C516 1.389 . S
C490 C489 1.443 . S
C490 C491 1.340 . S
C490 H522 0.951 . S
C491 C490 1.340 . S
C491 C492 1.439 . S
C491 H523 0.950 . S
C492 N488 1.374 . S
C492 C491 1.439 . S
C492 C517 1.395 . S
N493 Co482 1.995 . S
N493 C494 1.376 . S
N493 C497 1.383 . S
C494 N493 1.376 . S
C494 C495 1.446 . S
C494 C517 1.391 . S
C495 C494 1.446 . S
C495 C496 1.339 . S
C495 H524 0.949 . S
C496 C495 1.339 . S
C496 C497 1.439 . S
C496 H525 0.950 . S
C497 N493 1.383 . S
C497 C496 1.439 . S
C497 C515 1.392 . S
N498 Co482 2.282 . S
N498 C501 1.332 . S
N498 C503 1.332 . S
C499 C500 1.386 . S
C499 C502 1.388 . S
C500 C499 1.386 . S
C500 C501 1.382 . S
C500 H526 0.950 . S
C501 N498 1.332 . S
C501 C500 1.382 . S
C501 H512 0.952 . S
C502 C499 1.388 . S
C502 C503 1.382 . S
C502 H527 0.950 . S
C503 N498 1.332 . S
C503 C502 1.382 . S
C503 H513 0.948 . S
N504 Co482 2.282 . S
N504 C508 1.332 . S
N504 C509 1.332 . S
C505 C506 1.388 . S
C505 C509 1.382 . S
C505 H528 0.950 . S
C506 C505 1.388 . S
C506 C507 1.386 . S
C507 C506 1.386 . S
C507 C508 1.382 . S
C507 H529 0.950 . S
C508 N504 1.332 . S
C508 C507 1.382 . S
C508 H510 0.952 . S
C509 N504 1.332 . S
C509 C505 1.382 . S
C509 H511 0.948 . S
H510 C508 0.952 . S
H511 C509 0.948 . S
H512 C501 0.952 . S
H513 C503 0.948 . S
C514 C480 1.395 . S
C514 C484 1.391 . S
C515 C477 1.389 . S
C515 C497 1.392 . S
C516 C487 1.392 . S
C516 C489 1.389 . S
C517 C492 1.395 . S
C517 C494 1.391 . S
H518 C478 0.951 . S
H519 C479 0.950 . S
H520 C485 0.949 . S
H521 C486 0.950 . S
H522 C490 0.951 . S
H523 C491 0.950 . S
H524 C495 0.949 . S
H525 C496 0.950 . S
H526 C500 0.950 . S
H527 C502 0.950 . S
H528 C505 0.950 . S
H529 C507 0.950 . S
C530 C531 1.443 . S
C530 N534 1.376 . S
C530 C568 1.389 . S
C531 C530 1.443 . S
C531 C532 1.340 . S
C531 H571 0.951 . S
C532 C531 1.340 . S
C532 C533 1.439 . S
C532 H572 0.950 . S
C533 C532 1.439 . S
C533 N534 1.374 . S
C533 C567 1.395 . S
N534 C530 1.376 . S
N534 C533 1.374 . S
N534 Co535 2.008 . S
Co535 N534 2.008 . S
Co535 N536 1.995 . S
Co535 N541 2.008 . S
Co535 N546 1.995 . S
Co535 N551 2.282 . S
Co535 N557 2.282 . S
N536 Co535 1.995 . S
N536 C537 1.376 . S
N536 C540 1.383 . S
C537 N536 1.376 . S
C537 C538 1.446 . S
C537 C567 1.391 . S
C538 C537 1.446 . S
C538 C539 1.339 . S
C538 H573 0.949 . S
C539 C538 1.339 . S
C539 C540 1.439 . S
C539 H574 0.950 . S
C540 N536 1.383 . S
C540 C539 1.439 . S
C540 C569 1.392 . S
N541 Co535 2.008 . S
N541 C542 1.376 . S
N541 C545 1.374 . S
C542 N541 1.376 . S
C542 C543 1.443 . S
C542 C569 1.389 . S
C543 C542 1.443 . S
C543 C544 1.340 . S
C543 H575 0.951 . S
C544 C543 1.340 . S
C544 C545 1.439 . S
C544 H576 0.950 . S
C545 N541 1.374 . S
C545 C544 1.439 . S
C545 C570 1.395 . S
N546 Co535 1.995 . S
N546 C547 1.376 . S
N546 C550 1.383 . S
C547 N546 1.376 . S
C547 C548 1.446 . S
C547 C570 1.391 . S
C548 C547 1.446 . S
C548 C549 1.339 . S
C548 H577 0.949 . S
C549 C548 1.339 . S
C549 C550 1.439 . S
C549 H578 0.950 . S
C550 N546 1.383 . S
C550 C549 1.439 . S
C550 C568 1.392 . S
N551 Co535 2.282 . S
N551 C554 1.332 . S
N551 C556 1.332 . S
C552 C553 1.386 . S
C552 C555 1.388 . S
C553 C552 1.386 . S
C553 C554 1.382 . S
C553 H579 0.950 . S
C554 N551 1.332 . S
C554 C553 1.382 . S
C554 H565 0.952 . S
C555 C552 1.388 . S
C555 C556 1.382 . S
C555 H580 0.950 . S
C556 N551 1.332 . S
C556 C555 1.382 . S
C556 H566 0.948 . S
N557 Co535 2.282 . S
N557 C561 1.332 . S
N557 C562 1.332 . S
C558 C559 1.388 . S
C558 C562 1.382 . S
C558 H581 0.950 . S
C559 C558 1.388 . S
C559 C560 1.386 . S
C560 C559 1.386 . S
C560 C561 1.382 . S
C560 H582 0.950 . S
C561 N557 1.332 . S
C561 C560 1.382 . S
C561 H563 0.952 . S
C562 N557 1.332 . S
C562 C558 1.382 . S
C562 H564 0.948 . S
H563 C561 0.952 . S
H564 C562 0.948 . S
H565 C554 0.952 . S
H566 C556 0.948 . S
C567 C533 1.395 . S
C567 C537 1.391 . S
C568 C530 1.389 . S
C568 C550 1.392 . S
C569 C540 1.392 . S
C569 C542 1.389 . S
C570 C545 1.395 . S
C570 C547 1.391 . S
H571 C531 0.951 . S
H572 C532 0.950 . S
H573 C538 0.949 . S
H574 C539 0.950 . S
H575 C543 0.951 . S
H576 C544 0.950 . S
H577 C548 0.949 . S
H578 C549 0.950 . S
H579 C553 0.950 . S
H580 C555 0.950 . S
H581 C558 0.950 . S
H582 C560 0.950 . S
C583 C584 1.443 . S
C583 N587 1.376 . S
C583 C621 1.389 . S
C584 C583 1.443 . S
C584 C585 1.340 . S
C584 H624 0.951 . S
C585 C584 1.340 . S
C585 C586 1.439 . S
C585 H625 0.950 . S
C586 C585 1.439 . S
C586 N587 1.374 . S
C586 C620 1.395 . S
N587 C583 1.376 . S
N587 C586 1.374 . S
N587 Co588 2.008 . S
Co588 N587 2.008 . S
Co588 N589 1.995 . S
Co588 N594 2.008 . S
Co588 N599 1.995 . S
Co588 N604 2.282 . S
Co588 N610 2.282 . S
N589 Co588 1.995 . S
N589 C590 1.376 . S
N589 C593 1.383 . S
C590 N589 1.376 . S
C590 C591 1.446 . S
C590 C620 1.391 . S
C591 C590 1.446 . S
C591 C592 1.339 . S
C591 H626 0.949 . S
C592 C591 1.339 . S
C592 C593 1.439 . S
C592 H627 0.950 . S
C593 N589 1.383 . S
C593 C592 1.439 . S
C593 C622 1.392 . S
N594 Co588 2.008 . S
N594 C595 1.376 . S
N594 C598 1.374 . S
C595 N594 1.376 . S
C595 C596 1.443 . S
C595 C622 1.389 . S
C596 C595 1.443 . S
C596 C597 1.340 . S
C596 H628 0.951 . S
C597 C596 1.340 . S
C597 C598 1.439 . S
C597 H629 0.950 . S
C598 N594 1.374 . S
C598 C597 1.439 . S
C598 C623 1.395 . S
N599 Co588 1.995 . S
N599 C600 1.376 . S
N599 C603 1.383 . S
C600 N599 1.376 . S
C600 C601 1.446 . S
C600 C623 1.391 . S
C601 C600 1.446 . S
C601 C602 1.339 . S
C601 H630 0.949 . S
C602 C601 1.339 . S
C602 C603 1.439 . S
C602 H631 0.950 . S
C603 N599 1.383 . S
C603 C602 1.439 . S
C603 C621 1.392 . S
N604 Co588 2.282 . S
N604 C607 1.332 . S
N604 C609 1.332 . S
C605 C606 1.386 . S
C605 C608 1.388 . S
C606 C605 1.386 . S
C606 C607 1.382 . S
C606 H632 0.950 . S
C607 N604 1.332 . S
C607 C606 1.382 . S
C607 H618 0.952 . S
C608 C605 1.388 . S
C608 C609 1.382 . S
C608 H633 0.950 . S
C609 N604 1.332 . S
C609 C608 1.382 . S
C609 H619 0.948 . S
N610 Co588 2.282 . S
N610 C614 1.332 . S
N610 C615 1.332 . S
C611 C612 1.388 . S
C611 C615 1.382 . S
C611 H634 0.950 . S
C612 C611 1.388 . S
C612 C613 1.386 . S
C613 C612 1.386 . S
C613 C614 1.382 . S
C613 H635 0.950 . S
C614 N610 1.332 . S
C614 C613 1.382 . S
C614 H616 0.952 . S
C615 N610 1.332 . S
C615 C611 1.382 . S
C615 H617 0.948 . S
H616 C614 0.952 . S
H617 C615 0.948 . S
H618 C607 0.952 . S
H619 C609 0.948 . S
C620 C586 1.395 . S
C620 C590 1.391 . S
C621 C583 1.389 . S
C621 C603 1.392 . S
C622 C593 1.392 . S
C622 C595 1.389 . S
C623 C598 1.395 . S
C623 C600 1.391 . S
H624 C584 0.951 . S
H625 C585 0.950 . S
H626 C591 0.949 . S
H627 C592 0.950 . S
H628 C596 0.951 . S
H629 C597 0.950 . S
H630 C601 0.949 . S
H631 C602 0.950 . S
H632 C606 0.950 . S
H633 C608 0.950 . S
H634 C611 0.950 . S
H635 C613 0.950 . S
C636 C637 1.387 . S
C636 H640 0.950 . S
C636 C645 1.390 1_556 S
C637 C636 1.387 . S
C637 C639 1.387 . S
H638 C645 0.950 . S
C639 C637 1.387 . S
C639 C641 1.390 1_556 S
C639 H643 0.950 . S
H640 C636 0.950 . S
C641 C639 1.390 1_554 S
C641 C642 1.387 . S
C641 H644 0.950 . S
C642 C641 1.387 . S
C642 C645 1.387 . S
H643 C639 0.950 . S
H644 C641 0.950 . S
C645 C636 1.390 1_554 S
C645 H638 0.950 . S
C645 C642 1.387 . S
C646 C647 1.387 . S
C646 H650 0.950 . S
C646 C655 1.390 . S
C647 C646 1.387 . S
C647 C649 1.387 . S
H648 C655 0.950 . S
C649 C647 1.387 . S
C649 C651 1.390 . S
C649 H653 0.950 . S
H650 C646 0.950 . S
C651 C649 1.390 . S
C651 C652 1.387 . S
C651 H654 0.950 . S
C652 C651 1.387 . S
C652 C655 1.387 . S
H653 C649 0.950 . S
H654 C651 0.950 . S
C655 C646 1.390 . S
C655 H648 0.950 . S
C655 C652 1.387 . S
C656 C657 1.387 . S
C656 H660 0.950 . S
C656 C665 1.390 . S
C657 C656 1.387 . S
C657 C659 1.387 . S
H658 C665 0.950 . S
C659 C657 1.387 . S
C659 C661 1.390 . S
C659 H663 0.950 . S
H660 C656 0.950 . S
C661 C659 1.390 . S
C661 C662 1.387 . S
C661 H664 0.950 . S
C662 C661 1.387 . S
C662 C665 1.387 . S
H663 C659 0.950 . S
H664 C661 0.950 . S
C665 C656 1.390 . S
C665 H658 0.950 . S
C665 C662 1.387 . S
C666 C667 1.387 . S
C666 H670 0.950 . S
C666 C675 1.390 1_554 S
C667 C666 1.387 . S
C667 C669 1.387 . S
H668 C675 0.950 . S
C669 C667 1.387 . S
C669 C671 1.390 1_554 S
C669 H673 0.950 . S
H670 C666 0.950 . S
C671 C669 1.390 1_556 S
C671 C672 1.387 . S
C671 H674 0.950 . S
C672 C671 1.387 . S
C672 C675 1.387 . S
H673 C669 0.950 . S
H674 C671 0.950 . S
C675 C666 1.390 1_556 S
C675 H668 0.950 . S
C675 C672 1.387 . S
C676 C677 1.387 . S
C676 H680 0.950 . S
C676 C685 1.390 . S
C677 C676 1.387 . S
C677 C679 1.387 . S
H678 C685 0.950 . S
C679 C677 1.387 . S
C679 C681 1.390 . S
C679 H683 0.950 . S
H680 C676 0.950 . S
C681 C679 1.390 . S
C681 C682 1.387 . S
C681 H684 0.950 . S
C682 C681 1.387 . S
C682 C685 1.387 . S
H683 C679 0.950 . S
H684 C681 0.950 . S
C685 C676 1.390 . S
C685 H678 0.950 . S
C685 C682 1.387 . S
C686 C687 1.387 . S
C686 H690 0.950 . S
C686 C695 1.390 . S
C687 C686 1.387 . S
C687 C689 1.387 . S
H688 C695 0.950 . S
C689 C687 1.387 . S
C689 C691 1.390 . S
C689 H693 0.950 . S
H690 C686 0.950 . S
C691 C689 1.390 . S
C691 C692 1.387 . S
C691 H694 0.950 . S
C692 C691 1.387 . S
C692 C695 1.387 . S
H693 C689 0.950 . S
H694 C691 0.950 . S
C695 C686 1.390 . S
C695 H688 0.950 . S
C695 C692 1.387 . S
C696 C697 1.387 . S
C696 H700 0.950 . S
C696 C705 1.390 . S
C697 C696 1.387 . S
C697 C699 1.387 . S
H698 C705 0.950 . S
C699 C697 1.387 . S
C699 C701 1.390 . S
C699 H703 0.950 . S
H700 C696 0.950 . S
C701 C699 1.390 . S
C701 C702 1.387 . S
C701 H704 0.950 . S
C702 C701 1.387 . S
C702 C705 1.387 . S
H703 C699 0.950 . S
H704 C701 0.950 . S
C705 C696 1.390 . S
C705 H698 0.950 . S
C705 C702 1.387 . S
C706 C707 1.387 . S
C706 H710 0.950 . S
C706 C715 1.390 . S
C707 C706 1.387 . S
C707 C709 1.387 . S
H708 C715 0.950 . S
C709 C707 1.387 . S
C709 C711 1.390 . S
C709 H713 0.950 . S
H710 C706 0.950 . S
C711 C709 1.390 . S
C711 C712 1.387 . S
C711 H714 0.950 . S
C712 C711 1.387 . S
C712 C715 1.387 . S
H713 C709 0.950 . S
H714 C711 0.950 . S
C715 C706 1.390 . S
C715 H708 0.950 . S
C715 C712 1.387 . S
C716 C717 1.387 . S
C716 H720 0.950 . S
C716 C725 1.390 . S
C717 C716 1.387 . S
C717 C719 1.387 . S
H718 C725 0.950 . S
C719 C717 1.387 . S
C719 C721 1.390 . S
C719 H723 0.950 . S
H720 C716 0.950 . S
C721 C719 1.390 . S
C721 C722 1.387 . S
C721 H724 0.950 . S
C722 C721 1.387 . S
C722 C725 1.387 . S
H723 C719 0.950 . S
H724 C721 0.950 . S
C725 C716 1.390 . S
C725 H718 0.950 . S
C725 C722 1.387 . S
C726 C727 1.387 . S
C726 H730 0.950 . S
C726 C735 1.390 . S
C727 C726 1.387 . S
C727 C729 1.387 . S
H728 C735 0.950 . S
C729 C727 1.387 . S
C729 C731 1.390 . S
C729 H733 0.950 . S
H730 C726 0.950 . S
C731 C729 1.390 . S
C731 C732 1.387 . S
C731 H734 0.950 . S
C732 C731 1.387 . S
C732 C735 1.387 . S
H733 C729 0.950 . S
H734 C731 0.950 . S
C735 C726 1.390 . S
C735 H728 0.950 . S
C735 C732 1.387 . S
C736 C737 1.387 . S
C736 H740 0.950 . S
C736 C745 1.390 . S
C737 C736 1.387 . S
C737 C739 1.387 . S
H738 C745 0.950 . S
C739 C737 1.387 . S
C739 C741 1.390 . S
C739 H743 0.950 . S
H740 C736 0.950 . S
C741 C739 1.390 . S
C741 C742 1.387 . S
C741 H744 0.950 . S
C742 C741 1.387 . S
C742 C745 1.387 . S
H743 C739 0.950 . S
H744 C741 0.950 . S
C745 C736 1.390 . S
C745 H738 0.950 . S
C745 C742 1.387 . S
C746 C747 1.387 . S
C746 H750 0.950 . S
C746 C755 1.390 . S
C747 C746 1.387 . S
C747 C749 1.387 . S
H748 C755 0.950 . S
C749 C747 1.387 . S
C749 C751 1.390 . S
C749 H753 0.950 . S
H750 C746 0.950 . S
C751 C749 1.390 . S
C751 C752 1.387 . S
C751 H754 0.950 . S
C752 C751 1.387 . S
C752 C755 1.387 . S
H753 C749 0.950 . S
H754 C751 0.950 . S
C755 C746 1.390 . S
C755 H748 0.950 . S
C755 C752 1.387 . S
C756 C757 1.387 . S
C756 H760 0.950 . S
C756 C765 1.390 1_655 S
C757 C756 1.387 . S
C757 C759 1.387 . S
H758 C765 0.950 . S
C759 C757 1.387 . S
C759 C761 1.390 1_655 S
C759 H763 0.950 . S
H760 C756 0.950 . S
C761 C759 1.390 1_455 S
C761 C762 1.387 . S
C761 H764 0.950 . S
C762 C761 1.387 . S
C762 C765 1.387 . S
H763 C759 0.950 . S
H764 C761 0.950 . S
C765 C756 1.390 1_455 S
C765 H758 0.950 . S
C765 C762 1.387 . S
C766 C767 1.387 . S
C766 H770 0.950 . S
C766 C775 1.390 1_545 S
C767 C766 1.387 . S
C767 C769 1.387 . S
H768 C775 0.950 . S
C769 C767 1.387 . S
C769 C771 1.390 1_545 S
C769 H773 0.950 . S
H770 C766 0.950 . S
C771 C769 1.390 1_565 S
C771 C772 1.387 . S
C771 H774 0.950 . S
C772 C771 1.387 . S
C772 C775 1.387 . S
H773 C769 0.950 . S
H774 C771 0.950 . S
C775 C766 1.390 1_565 S
C775 H768 0.950 . S
C775 C772 1.387 . S
C776 C777 1.387 . S
C776 H780 0.950 . S
C776 C785 1.390 . S
C777 C776 1.387 . S
C777 C779 1.387 . S
H778 C785 0.950 . S
C779 C777 1.387 . S
C779 C781 1.390 . S
C779 H783 0.950 . S
H780 C776 0.950 . S
C781 C779 1.390 . S
C781 C782 1.387 . S
C781 H784 0.950 . S
C782 C781 1.387 . S
C782 C785 1.387 . S
H783 C779 0.950 . S
H784 C781 0.950 . S
C785 C776 1.390 . S
C785 H778 0.950 . S
C785 C782 1.387 . S
C786 C787 1.387 . S
C786 H790 0.950 . S
C786 C795 1.390 1_545 S
C787 C786 1.387 . S
C787 C789 1.387 . S
H788 C795 0.950 . S
C789 C787 1.387 . S
C789 C791 1.390 1_545 S
C789 H793 0.950 . S
H790 C786 0.950 . S
C791 C789 1.390 1_565 S
C791 C792 1.387 . S
C791 H794 0.950 . S
C792 C791 1.387 . S
C792 C795 1.387 . S
H793 C789 0.950 . S
H794 C791 0.950 . S
C795 C786 1.390 1_565 S
C795 H788 0.950 . S
C795 C792 1.387 . S
C796 C797 1.387 . S
C796 H800 0.950 . S
C796 C805 1.390 . S
C797 C796 1.387 . S
C797 C799 1.387 . S
H798 C805 0.950 . S
C799 C797 1.387 . S
C799 C801 1.390 . S
C799 H803 0.950 . S
H800 C796 0.950 . S
C801 C799 1.390 . S
C801 C802 1.387 . S
C801 H804 0.950 . S
C802 C801 1.387 . S
C802 C805 1.387 . S
H803 C799 0.950 . S
H804 C801 0.950 . S
C805 C796 1.390 . S
C805 H798 0.950 . S
C805 C802 1.387 . S
C806 C807 1.387 . S
C806 H810 0.950 . S
C806 C815 1.390 1_455 S
C807 C806 1.387 . S
C807 C809 1.387 . S
H808 C815 0.950 . S
C809 C807 1.387 . S
C809 C811 1.390 1_455 S
C809 H813 0.950 . S
H810 C806 0.950 . S
C811 C809 1.390 1_655 S
C811 C812 1.387 . S
C811 H814 0.950 . S
C812 C811 1.387 . S
C812 C815 1.387 . S
H813 C809 0.950 . S
H814 C811 0.950 . S
C815 C806 1.390 1_655 S
C815 H808 0.950 . S
C815 C812 1.387 . S
C816 C817 1.387 . S
C816 H820 0.950 . S
C816 C825 1.390 . S
C817 C816 1.387 . S
C817 C819 1.387 . S
H818 C825 0.950 . S
C819 C817 1.387 . S
C819 C821 1.390 . S
C819 H823 0.950 . S
H820 C816 0.950 . S
C821 C819 1.390 . S
C821 C822 1.387 . S
C821 H824 0.950 . S
C822 C821 1.387 . S
C822 C825 1.387 . S
H823 C819 0.950 . S
H824 C821 0.950 . S
C825 C816 1.390 . S
C825 H818 0.950 . S
C825 C822 1.387 . S
C826 C827 1.387 . S
C826 H830 0.950 . S
C826 C835 1.390 1_655 S
C827 C826 1.387 . S
C827 C829 1.387 . S
H828 C835 0.950 . S
C829 C827 1.387 . S
C829 C831 1.390 1_655 S
C829 H833 0.950 . S
H830 C826 0.950 . S
C831 C829 1.390 1_455 S
C831 C832 1.387 . S
C831 H834 0.950 . S
C832 C831 1.387 . S
C832 C835 1.387 . S
H833 C829 0.950 . S
H834 C831 0.950 . S
C835 C826 1.390 1_455 S
C835 H828 0.950 . S
C835 C832 1.387 . S
C836 C837 1.387 . S
C836 H840 0.950 . S
C836 C845 1.390 1_545 S
C837 C836 1.387 . S
C837 C839 1.387 . S
H838 C845 0.950 . S
C839 C837 1.387 . S
C839 C841 1.390 1_545 S
C839 H843 0.950 . S
H840 C836 0.950 . S
C841 C839 1.390 1_565 S
C841 C842 1.387 . S
C841 H844 0.950 . S
C842 C841 1.387 . S
C842 C845 1.387 . S
H843 C839 0.950 . S
H844 C841 0.950 . S
C845 C836 1.390 1_565 S
C845 H838 0.950 . S
C845 C842 1.387 . S
C846 C847 1.387 . S
C846 H850 0.950 . S
C846 C855 1.390 . S
C847 C846 1.387 . S
C847 C849 1.387 . S
H848 C855 0.950 . S
C849 C847 1.387 . S
C849 C851 1.390 . S
C849 H853 0.950 . S
H850 C846 0.950 . S
C851 C849 1.390 . S
C851 C852 1.387 . S
C851 H854 0.950 . S
C852 C851 1.387 . S
C852 C855 1.387 . S
H853 C849 0.950 . S
H854 C851 0.950 . S
C855 C846 1.390 . S
C855 H848 0.950 . S
C855 C852 1.387 . S
C856 C857 1.387 . S
C856 H860 0.950 . S
C856 C865 1.390 1_455 S
C857 C856 1.387 . S
C857 C859 1.387 . S
H858 C865 0.950 . S
C859 C857 1.387 . S
C859 C861 1.390 1_455 S
C859 H863 0.950 . S
H860 C856 0.950 . S
C861 C859 1.390 1_655 S
C861 C862 1.387 . S
C861 H864 0.950 . S
C862 C861 1.387 . S
C862 C865 1.387 . S
H863 C859 0.950 . S
H864 C861 0.950 . S
C865 C856 1.390 1_655 S
C865 H858 0.950 . S
C865 C862 1.387 . S
C866 C867 1.387 . S
C866 H870 0.950 . S
C866 C875 1.390 1_565 S
C867 C866 1.387 . S
C867 C869 1.387 . S
H868 C875 0.950 . S
C869 C867 1.387 . S
C869 C871 1.390 1_565 S
C869 H873 0.950 . S
H870 C866 0.950 . S
C871 C869 1.390 1_545 S
C871 C872 1.387 . S
C871 H874 0.950 . S
C872 C871 1.387 . S
C872 C875 1.387 . S
H873 C869 0.950 . S
H874 C871 0.950 . S
C875 C866 1.390 1_545 S
C875 H868 0.950 . S
C875 C872 1.387 . S
C637 C569 1.856 . S
C642 C39 1.855 . S
C647 C92 1.855 . S
C652 C622 1.854 . S
C657 C145 1.854 . S
C662 C357 1.853 . S
C667 C198 1.853 . S
C672 C410 1.853 . S
C677 C463 1.853 . S
C682 C251 1.854 . S
C687 C304 1.855 . S
C692 C516 1.854 . S
C697 C462 1.935 . S
C702 C38 1.936 . S
C707 C91 1.934 . S
C712 C515 1.934 . S
C717 C144 1.936 . S
C722 C568 1.935 . S
C727 C197 1.936 . S
C732 C621 1.936 . S
C737 C356 1.934 . S
C742 C250 1.934 . S
C747 C409 1.937 . S
C752 C303 1.936 . S
C757 C188 1.147 . S
C762 C29 1.147 . S
C767 C82 1.147 . S
C772 C241 1.147 . S
C777 C294 1.149 . S
C782 C135 1.149 . S
C787 C506 1.147 . S
C792 C347 1.147 . S
C797 C559 1.149 . S
C802 C400 1.149 . S
C807 C453 1.147 . S
C812 C612 1.147 . S
C817 C181 1.890 . S
C822 C22 1.890 . S
C827 C75 1.891 . S
C832 C234 1.891 . S
C837 C287 1.891 . S
C842 C128 1.891 . S
C847 C340 1.890 . S
C852 C499 1.890 . S
C857 C552 1.890 . S
C862 C393 1.890 . S
C867 C446 1.890 . S
C872 C605 1.890 . S
