# Generated by pormake.
# Topology umf, (4)-cn, num edge types: 1
# Building blocks:
#     Node 0, Type 0, BuildingBlock: ICAMEG_clean_sbu_1, # of connection points: 4
#     Node 1, Type 0, BuildingBlock: ICAMEG_clean_sbu_1, # of connection points: 4
#     Node 2, Type 0, BuildingBlock: ICAMEG_clean_sbu_1, # of connection points: 4
#     Node 3, Type 0, BuildingBlock: ICAMEG_clean_sbu_1, # of connection points: 4
#     Node 4, Type 0, BuildingBlock: ICAMEG_clean_sbu_1, # of connection points: 4
#     Node 5, Type 0, BuildingBlock: ICAMEG_clean_sbu_1, # of connection points: 4
#     Node 6, Type 0, BuildingBlock: ICAMEG_clean_sbu_1, # of connection points: 4
#     Node 7, Type 0, BuildingBlock: ICAMEG_clean_sbu_1, # of connection points: 4
#     Edge 8, Type (0, 0), BuildingBlock: EZIPEK_clean_linker_0, # of connection points: 2
#     Edge 9, Type (0, 0), BuildingBlock: EZIPEK_clean_linker_0, # of connection points: 2
#     Edge 10, Type (0, 0), BuildingBlock: EZIPEK_clean_linker_0, # of connection points: 2
#     Edge 11, Type (0, 0), BuildingBlock: EZIPEK_clean_linker_0, # of connection points: 2
#     Edge 12, Type (0, 0), BuildingBlock: EZIPEK_clean_linker_0, # of connection points: 2
#     Edge 13, Type (0, 0), BuildingBlock: EZIPEK_clean_linker_0, # of connection points: 2
#     Edge 14, Type (0, 0), BuildingBlock: EZIPEK_clean_linker_0, # of connection points: 2
#     Edge 15, Type (0, 0), BuildingBlock: EZIPEK_clean_linker_0, # of connection points: 2
#     Edge 16, Type (0, 0), BuildingBlock: EZIPEK_clean_linker_0, # of connection points: 2
#     Edge 17, Type (0, 0), BuildingBlock: EZIPEK_clean_linker_0, # of connection points: 2
#     Edge 18, Type (0, 0), BuildingBlock: EZIPEK_clean_linker_0, # of connection points: 2
#     Edge 19, Type (0, 0), BuildingBlock: EZIPEK_clean_linker_0, # of connection points: 2
#     Edge 20, Type (0, 0), BuildingBlock: EZIPEK_clean_linker_0, # of connection points: 2
#     Edge 21, Type (0, 0), BuildingBlock: EZIPEK_clean_linker_0, # of connection points: 2
#     Edge 22, Type (0, 0), BuildingBlock: EZIPEK_clean_linker_0, # of connection points: 2
#     Edge 23, Type (0, 0), BuildingBlock: EZIPEK_clean_linker_0, # of connection points: 2
# Relax obj value: 0.111
# Max RMSD: 0.200
# Mean RMSD: 0.200
data_MOF--net-umf--node1-ICAMEG_clean_sbu_1--edge1-EZIPEK_clean_linker_0
_symmetry_space_group_name_H-M    P1
_symmetry_Int_Tables_number       1
_symmetry_cell_setting            triclinic
loop_
_symmetry_equiv_pos_as_xyz
'x, y, z'
_cell_length_a     22.309569
_cell_length_b     22.363212
_cell_length_c     42.309566
_cell_angle_alpha  89.988423
_cell_angle_beta   90.01828
_cell_angle_gamma 90.0394
loop_
_atom_site_label
_atom_site_type_symbol
_atom_site_fract_x
_atom_site_fract_y
_atom_site_fract_z
_atom_type_partial_charge
Co0 Co 0.11369 0.22876 0.13272 0.0
Co1 Co 0.99766 0.25281 0.18557 0.0
O2 O 0.04268 0.27254 0.14716 0.0
C3 C 0.03077 0.23229 0.07779 0.0
O4 O 0.98627 0.22708 0.09778 0.0
C5 C 0.02915 0.3799 0.19338 0.0
O6 O 0.0847 0.36471 0.18713 0.0
O7 O 0.07265 0.25093 0.21065 0.0
O8 O 0.14466 0.22125 0.17749 0.0
H9 H 0.95825 0.14249 0.28711 0.0
H10 H 0.08525 0.34305 0.10098 0.0
O11 O 0.0848 0.23403 0.08757 0.0
H12 H 0.2847 0.37413 0.14796 0.0
H13 H 0.28605 0.18684 0.0592 0.0
H14 H 0.17742 0.12002 0.15437 0.0
H15 H 0.23328 0.27737 0.15298 0.0
H16 H 0.19823 0.24287 0.0786 0.0
O17 O 0.98795 0.34053 0.1942 0.0
H18 H 0.01368 0.16692 0.23845 0.0
H19 H 0.88728 0.302 0.21581 0.0
H20 H 0.26516 0.0628 0.1359 0.0
H21 H 0.13528 0.44052 0.09461 0.0
H22 H 0.3202 0.09624 0.08801 0.0
H23 H 0.23567 0.45681 0.1185 0.0
O24 O 0.07083 0.15113 0.13734 0.0
H25 H 0.84899 0.33809 0.10825 0.0
H26 H 0.89493 0.16853 0.17869 0.0
H27 H 0.80213 0.167 0.14715 0.0
H28 H 0.77854 0.25226 0.11162 0.0
H29 H 0.94167 0.33734 0.1399 0.0
H30 H 0.83063 0.27959 0.26451 0.0
H31 H 0.86596 0.19916 0.30048 0.0
O32 O 0.00618 0.16515 0.17754 0.0
C33 C 0.1263 0.23385 0.20534 0.0
C34 C 0.94223 0.17748 0.27157 0.0
C35 C 0.87071 0.2545 0.2589 0.0
N36 N 0.95323 0.23502 0.22395 0.0
C37 C 0.97326 0.19119 0.24383 0.0
C38 C 0.90294 0.26696 0.23135 0.0
C39 C 0.89057 0.2094 0.2791 0.0
C40 C 0.12883 0.34966 0.11132 0.0
N41 N 0.15553 0.30465 0.12794 0.0
C42 C 0.15701 0.40502 0.10768 0.0
C43 C 0.21328 0.41415 0.1211 0.0
C44 C 0.2407 0.36785 0.1377 0.0
C45 C 0.21106 0.31312 0.1408 0.0
C46 C 0.26263 0.17199 0.08019 0.0
C47 C 0.20137 0.13503 0.13362 0.0
C48 C 0.2129 0.20354 0.09129 0.0
N49 N 0.18336 0.18526 0.11789 0.0
C50 C 0.25092 0.10237 0.12323 0.0
C51 C 0.28174 0.12114 0.09635 0.0
C52 C 0.03282 0.13196 0.15747 0.0
C53 C 0.85871 0.30071 0.12367 0.0
C54 C 0.88534 0.20563 0.16312 0.0
C55 C 0.83252 0.20461 0.14541 0.0
C56 C 0.81926 0.2525 0.12553 0.0
N57 N 0.92394 0.25302 0.16111 0.0
C58 C 0.91106 0.30022 0.14178 0.0
Co59 Co 0.77565 0.105 0.63416 0.0
Co60 Co 0.75093 0.99203 0.68905 0.0
O61 O 0.73129 0.03553 0.65007 0.0
C62 C 0.75275 0.02373 0.57801 0.0
O63 O 0.72591 0.985 0.59639 0.0
C64 C 0.62353 0.02551 0.69534 0.0
O65 O 0.63942 0.07958 0.68665 0.0
O66 O 0.75467 0.06822 0.71324 0.0
O67 O 0.78233 0.13835 0.67837 0.0
H68 H 0.86081 0.95428 0.79112 0.0
H69 H 0.65777 0.07732 0.60381 0.0
O70 O 0.77252 0.07321 0.58911 0.0
H71 H 0.63579 0.28 0.64753 0.0
H72 H 0.81957 0.27267 0.5581 0.0
H73 H 0.88727 0.1667 0.65387 0.0
H74 H 0.73109 0.22571 0.65273 0.0
H75 H 0.7617 0.18763 0.57926 0.0
O76 O 0.66275 0.98451 0.69832 0.0
H77 H 0.83673 0.00916 0.74216 0.0
H78 H 0.70056 0.88344 0.7201 0.0
H79 H 0.94653 0.25153 0.63356 0.0
H80 H 0.56193 0.13009 0.59761 0.0
H81 H 0.91261 0.30532 0.5854 0.0
H82 H 0.55018 0.23227 0.61971 0.0
O83 O 0.85242 0.0622 0.63969 0.0
H84 H 0.6591 0.83796 0.61675 0.0
H85 H 0.83533 0.88965 0.68149 0.0
H86 H 0.83491 0.79565 0.65132 0.0
H87 H 0.74634 0.76913 0.6186 0.0
H88 H 0.66186 0.93201 0.64684 0.0
H89 H 0.72252 0.82758 0.76902 0.0
H90 H 0.80338 0.86281 0.80481 0.0
O91 O 0.83893 -0.00153 0.68023 0.0
C92 C 0.77066 0.12167 0.70661 0.0
C93 C 0.82575 0.93831 0.77558 0.0
C94 C 0.74804 0.86727 0.76322 0.0
N95 N 0.76838 0.94883 0.72784 0.0
C96 C 0.8123 0.96895 0.74767 0.0
C97 C 0.73589 0.89905 0.73552 0.0
C98 C 0.7934 0.88707 0.78331 0.0
C99 C 0.65343 0.1216 0.61339 0.0
N100 N 0.70031 0.14787 0.62878 0.0
C101 C 0.59883 0.15139 0.60984 0.0
C102 C 0.59224 0.20866 0.62225 0.0
C103 C 0.6402 0.2354 0.63789 0.0
C104 C 0.69411 0.2042 0.64094 0.0
C105 C 0.8346 0.24987 0.57923 0.0
C106 C 0.87207 0.19005 0.63298 0.0
C107 C 0.80194 0.20176 0.59136 0.0
N108 N 0.82039 0.17303 0.61817 0.0
C109 C 0.90587 0.238 0.62157 0.0
C110 C 0.88683 0.26812 0.59454 0.0
C111 C 0.87175 0.02394 0.65948 0.0
C112 C 0.69807 0.8491 0.63081 0.0
C113 C 0.79691 0.87914 0.66696 0.0
C114 C 0.79679 0.82547 0.6501 0.0
C115 C 0.74704 0.81054 0.63183 0.0
N116 N 0.74897 0.91719 0.66558 0.0
C117 C 0.69978 0.90237 0.64802 0.0
Co118 Co 0.88879 0.7848 0.13319 0.0
Co119 Co 0.00151 0.75753 0.18761 0.0
O120 O 0.95786 0.73959 0.14852 0.0
C121 C 0.97489 0.78282 0.0798 0.0
O122 O 0.0179 0.78999 0.1006 0.0
C123 C 0.96658 0.6307 0.1925 0.0
O124 O 0.91277 0.64698 0.18342 0.0
O125 O 0.92503 0.76131 0.21199 0.0
O126 O 0.8554 0.79115 0.17729 0.0
H127 H 0.04001 0.85935 0.29196 0.0
H128 H 0.91541 0.67116 0.09981 0.0
O129 O 0.9204 0.77971 0.08871 0.0
H130 H 0.71509 0.64265 0.14653 0.0
H131 H 0.72216 0.83071 0.05669 0.0
H132 H 0.82815 0.89678 0.15283 0.0
H133 H 0.76889 0.73793 0.15312 0.0
H134 H 0.80624 0.7718 0.07817 0.0
O135 O 0.00787 0.66942 0.19611 0.0
H136 H 0.98511 0.83973 0.2424 0.0
H137 H 0.11006 0.70485 0.2176 0.0
H138 H 0.74437 0.95712 0.13216 0.0
H139 H 0.86272 0.57541 0.09213 0.0
H140 H 0.69057 0.92403 0.08381 0.0
H141 H 0.76197 0.56045 0.11579 0.0
O142 O 0.93249 0.86122 0.13916 0.0
H143 H 0.15024 0.66743 0.11194 0.0
H144 H 0.10716 0.8385 0.1818 0.0
H145 H 0.20127 0.83687 0.15137 0.0
H146 H 0.22343 0.7508 0.11616 0.0
H147 H 0.05636 0.67136 0.14247 0.0
H148 H 0.16565 0.72212 0.26713 0.0
H149 H 0.13081 0.80006 0.30462 0.0
O150 O 0.99656 0.84597 0.17946 0.0
C151 C 0.87162 0.77798 0.20541 0.0
C152 C 0.05584 0.82566 0.27564 0.0
C153 C 0.12629 0.74851 0.26177 0.0
N154 N 0.04527 0.77265 0.22657 0.0
C155 C 0.02531 0.81489 0.24735 0.0
C156 C 0.09471 0.7391 0.2337 0.0
C157 C 0.1067 0.79222 0.28281 0.0
C158 C 0.87147 0.66525 0.11004 0.0
N159 N 0.84574 0.71004 0.12727 0.0
C160 C 0.84188 0.61081 0.10566 0.0
C161 C 0.7854 0.60241 0.11897 0.0
C162 C 0.75914 0.64846 0.13627 0.0
C163 C 0.79008 0.70228 0.14014 0.0
C164 C 0.7449 0.84534 0.07793 0.0
C165 C 0.80473 0.8819 0.13189 0.0
C166 C 0.7924 0.81204 0.09027 0.0
N167 N 0.82113 0.83006 0.11718 0.0
C168 C 0.7574 0.91632 0.12026 0.0
C169 C 0.72727 0.89774 0.09312 0.0
C170 C 0.97119 0.87976 0.15904 0.0
C171 C 0.14117 0.70513 0.12724 0.0
C172 C 0.11614 0.80111 0.16634 0.0
C173 C 0.1697 0.80031 0.14927 0.0
C174 C 0.18215 0.75197 0.12957 0.0
N175 N 0.07609 0.75501 0.16393 0.0
C176 C 0.08811 0.70744 0.14471 0.0
Co177 Co 0.22179 0.88181 0.632 0.0
Co178 Co 0.24388 0.99508 0.68652 0.0
O179 O 0.26497 0.95186 0.64781 0.0
C180 C 0.224 0.96704 0.57846 0.0
O181 O 0.2131 0.00959 0.59901 0.0
C182 C 0.3715 0.96391 0.6935 0.0
O183 O 0.35655 0.90969 0.68463 0.0
O184 O 0.24123 0.91891 0.71099 0.0
O185 O 0.21273 0.84903 0.67615 0.0
H186 H 0.13021 0.03257 0.78738 0.0
H187 H 0.33732 0.90968 0.60043 0.0
O188 O 0.22936 0.91297 0.58757 0.0
H189 H 0.3664 0.71185 0.64942 0.0
H190 H 0.18453 0.71345 0.55551 0.0
H191 H 0.10943 0.8192 0.64974 0.0
H192 H 0.26949 0.76375 0.65375 0.0
H193 H 0.24022 0.79906 0.57764 0.0
O194 O 0.33168 0.00439 0.69619 0.0
H195 H 0.15737 0.97696 0.73915 0.0
H196 H 0.29174 0.10485 0.7176 0.0
H197 H 0.05229 0.73383 0.62841 0.0
H198 H 0.43473 0.85885 0.59503 0.0
H199 H 0.08995 0.68015 0.58101 0.0
H200 H 0.44996 0.75939 0.61986 0.0
O201 O 0.14394 0.92381 0.63625 0.0
H202 H 0.33252 0.14641 0.6118 0.0
H203 H 0.15964 0.09773 0.67968 0.0
H204 H 0.15948 0.19153 0.64916 0.0
H205 H 0.24643 0.21651 0.61493 0.0
H206 H 0.33036 0.05268 0.64236 0.0
H207 H 0.26672 0.16155 0.76584 0.0
H208 H 0.18504 0.12574 0.80094 0.0
O209 O 0.15613 0.98688 0.6772 0.0
C210 C 0.22474 0.86557 0.70437 0.0
C211 C 0.16554 0.04889 0.77212 0.0
C212 C 0.24226 0.12119 0.76008 0.0
N213 N 0.22491 0.03835 0.72509 0.0
C214 C 0.18074 0.01779 0.74463 0.0
C215 C 0.2562 0.08889 0.73278 0.0
C216 C 0.19644 0.10106 0.77978 0.0
C217 C 0.34338 0.8663 0.61117 0.0
N218 N 0.29783 0.84023 0.62778 0.0
C219 C 0.39874 0.83776 0.60808 0.0
C220 C 0.40728 0.78199 0.62203 0.0
C221 C 0.36046 0.75537 0.63868 0.0
C222 C 0.30572 0.78523 0.64126 0.0
C223 C 0.16793 0.73614 0.57633 0.0
C224 C 0.1263 0.79583 0.62923 0.0
C225 C 0.19938 0.78451 0.58904 0.0
N226 N 0.17887 0.81316 0.61544 0.0
C227 C 0.09368 0.7476 0.61722 0.0
C228 C 0.11481 0.71754 0.59061 0.0
C229 C 0.12374 0.96126 0.65625 0.0
C230 C 0.29438 0.13606 0.62664 0.0
C231 C 0.19744 0.10788 0.66462 0.0
C232 C 0.1972 0.16128 0.64751 0.0
C233 C 0.24603 0.17532 0.62836 0.0
N234 N 0.245 0.06946 0.66276 0.0
C235 C 0.29306 0.08307 0.6441 0.0
Co236 Co 0.11242 0.77636 0.88924 0.0
Co237 Co 0.99675 0.75344 0.83546 0.0
O238 O 0.0408 0.73405 0.87433 0.0
C239 C 0.03114 0.76127 0.94614 0.0
O240 O 0.98945 0.73822 0.92809 0.0
C241 C 0.02698 0.62538 0.82986 0.0
O242 O 0.08166 0.6399 0.83834 0.0
O243 O 0.07266 0.75467 0.8106 0.0
O244 O 0.14503 0.77962 0.84487 0.0
H245 H 0.95921 0.8583 0.73188 0.0
H246 H 0.07931 0.66166 0.92064 0.0
O247 O 0.08181 0.77665 0.93454 0.0
H248 H 0.28145 0.6287 0.87741 0.0
H249 H 0.28393 0.81675 0.9637 0.0
H250 H 0.17789 0.88462 0.86795 0.0
H251 H 0.23134 0.72594 0.87104 0.0
H252 H 0.19608 0.76145 0.94373 0.0
O253 O 0.98687 0.66549 0.82688 0.0
H254 H 0.01531 0.83496 0.78059 0.0
H255 H 0.88508 0.70556 0.80625 0.0
H256 H 0.26552 0.9413 0.88708 0.0
H257 H 0.12799 0.56398 0.9281 0.0
H258 H 0.31937 0.90727 0.93523 0.0
H259 H 0.2298 0.54678 0.90624 0.0
O260 O 0.0726 0.8543 0.88275 0.0
H261 H 0.84243 0.66713 0.90958 0.0
H262 H 0.89612 0.84003 0.84308 0.0
H263 H 0.80257 0.84228 0.87383 0.0
H264 H 0.77503 0.75538 0.90739 0.0
H265 H 0.93617 0.66727 0.87896 0.0
H266 H 0.82798 0.72679 0.75764 0.0
H267 H 0.8648 0.80395 0.72018 0.0
O268 O 0.0055 0.84138 0.84362 0.0
C269 C 0.12705 0.76847 0.8168 0.0
C270 C 0.94244 0.82506 0.74822 0.0
C271 C 0.86887 0.75111 0.76261 0.0
N272 N 0.95265 0.77047 0.79684 0.0
C273 C 0.97374 0.81214 0.77602 0.0
C274 C 0.90134 0.73943 0.79016 0.0
C275 C 0.88956 0.79439 0.74159 0.0
C276 C 0.12362 0.65489 0.91128 0.0
N277 N 0.15218 0.6998 0.89544 0.0
C278 C 0.151 0.5993 0.91549 0.0
C279 C 0.20807 0.58965 0.9032 0.0
C280 C 0.23702 0.63556 0.887 0.0
C281 C 0.20823 0.69056 0.88332 0.0
C282 C 0.26114 0.83178 0.94256 0.0
C283 C 0.20127 0.86934 0.88882 0.0
C284 C 0.21145 0.80055 0.93109 0.0
N285 N 0.18271 0.81897 0.90426 0.0
C286 C 0.2508 0.9017 0.89958 0.0
C287 C 0.28095 0.8826 0.9266 0.0
C288 C 0.03349 0.87414 0.86352 0.0
C289 C 0.85401 0.70537 0.89512 0.0
C290 C 0.88519 0.80236 0.858 0.0
C291 C 0.83177 0.80373 0.87518 0.0
C292 C 0.81626 0.75491 0.89393 0.0
N293 N 0.9224 0.75382 0.85952 0.0
C294 C 0.90705 0.70556 0.87759 0.0
Co295 Co 0.21772 0.10165 0.38818 0.0
Co296 Co 0.24459 0.98742 0.33422 0.0
O297 O 0.26357 0.03318 0.37246 0.0
C298 C 0.2463 0.02381 0.44495 0.0
O299 O 0.27449 0.98562 0.42685 0.0
C300 C 0.37079 0.02453 0.32733 0.0
O301 O 0.35337 0.07816 0.33588 0.0
O302 O 0.23782 0.06221 0.30905 0.0
O303 O 0.20638 0.13221 0.34363 0.0
H304 H 0.13652 0.94297 0.2323 0.0
H305 H 0.33766 0.0819 0.41828 0.0
O306 O 0.22462 0.07216 0.43351 0.0
H307 H 0.3507 0.27919 0.36716 0.0
H308 H 0.18053 0.27468 0.46175 0.0
H309 H 0.09758 0.15517 0.3745 0.0
H310 H 0.2571 0.221 0.36495 0.0
H311 H 0.23692 0.18938 0.44017 0.0
O312 O 0.33277 0.9823 0.32457 0.0
H313 H 0.15846 -8e-05 0.28079 0.0
H314 H 0.29736 0.87866 0.30466 0.0
H315 H 0.04011 0.24055 0.39479 0.0
H316 H 0.43168 0.13884 0.42155 0.0
H317 H 0.08158 0.30129 0.43881 0.0
H318 H 0.43891 0.23828 0.3957 0.0
O319 O 0.14234 0.05544 0.38424 0.0
H320 H 0.34251 0.83931 0.40776 0.0
H321 H 0.16318 0.88325 0.34383 0.0
H322 H 0.16686 0.79074 0.37524 0.0
H323 H 0.257 0.76814 0.40756 0.0
H324 H 0.33648 0.93178 0.37646 0.0
H325 H 0.27777 0.8208 0.25614 0.0
H326 H 0.19689 0.85284 0.2196 0.0
O327 O 0.15659 0.99196 0.34351 0.0
C328 C 0.21727 0.11411 0.31543 0.0
C329 C 0.17172 0.92837 0.24814 0.0
C330 C 0.25105 0.85987 0.26149 0.0
N331 N 0.22791 0.94186 0.29608 0.0
C332 C 0.18382 0.96012 0.27586 0.0
C333 C 0.26179 0.89273 0.289 0.0
C334 C 0.20567 0.87791 0.24097 0.0
C335 C 0.34001 0.12503 0.40716 0.0
N336 N 0.29173 0.14753 0.39132 0.0
C337 C 0.39359 0.15717 0.40901 0.0
C338 C 0.39765 0.2129 0.39448 0.0
C339 C 0.34823 0.23581 0.37842 0.0
C340 C 0.2954 0.20236 0.37708 0.0
C341 C 0.16244 0.2493 0.44216 0.0
C342 C 0.11703 0.18239 0.39268 0.0
C343 C 0.19437 0.20109 0.42966 0.0
N344 N 0.17227 0.16912 0.40466 0.0
C345 C 0.08376 0.23028 0.40454 0.0
C346 C 0.10692 0.26416 0.42932 0.0
C347 C 0.12349 0.01687 0.36437 0.0
C348 C 0.30286 0.84875 0.39389 0.0
C349 C 0.20225 0.87445 0.35818 0.0
C350 C 0.20423 0.82161 0.37575 0.0
C351 C 0.25486 0.80888 0.3938 0.0
N352 N 0.24922 0.91381 0.35867 0.0
C353 C 0.29929 0.90112 0.37599 0.0
Co354 Co 0.88843 0.21842 0.89067 0.0
Co355 Co -0.00101 0.2478 0.83561 0.0
O356 O 0.95542 0.26628 0.87471 0.0
C357 C 0.97273 0.2286 0.94458 0.0
O358 O 0.01652 0.22249 0.92423 0.0
C359 C 0.96367 0.37434 0.82957 0.0
O360 O 0.90958 0.35776 0.83806 0.0
O361 O 0.92244 0.24317 0.81158 0.0
O362 O 0.85648 0.20663 0.84644 0.0
H363 H 0.03905 0.13661 0.73441 0.0
H364 H 0.90766 0.33612 0.92104 0.0
O365 O 0.91835 0.22854 0.93535 0.0
H366 H 0.70728 0.3491 0.87275 0.0
H367 H 0.72138 0.16937 0.96639 0.0
H368 H 0.83465 0.10186 0.87293 0.0
H369 H 0.76619 0.2564 0.86911 0.0
H370 H 0.80338 0.23093 0.94465 0.0
O371 O 0.0053 0.33582 0.82666 0.0
H372 H 0.9835 0.16098 0.78308 0.0
H373 H 0.10626 0.30051 0.80393 0.0
H374 H 0.75315 0.0388 0.89393 0.0
H375 H 0.85014 0.4297 0.92574 0.0
H376 H 0.69566 0.07263 0.94091 0.0
H377 H 0.74917 0.43677 0.90126 0.0
O378 O 0.93679 0.14422 0.88686 0.0
H379 H 0.14785 0.33925 0.91083 0.0
H380 H 0.10508 0.16744 0.84136 0.0
H381 H 0.19932 0.16978 0.87168 0.0
H382 H 0.22133 0.25622 0.9067 0.0
H383 H 0.05381 0.33465 0.8804 0.0
H384 H 0.16285 0.27827 0.75522 0.0
H385 H 0.12959 0.19545 0.72023 0.0
O386 O 0.99416 0.15978 0.84392 0.0
C387 C 0.87076 0.22195 0.81832 0.0
C388 C 0.05419 0.17261 0.74955 0.0
C389 C 0.12359 0.25217 0.76121 0.0
N390 N 0.0422 0.23127 0.7967 0.0
C391 C 0.02309 0.18633 0.77727 0.0
C392 C 0.09134 0.26458 0.78875 0.0
C393 C 0.10489 0.20573 0.74157 0.0
C394 C 0.86384 0.33875 0.91049 0.0
N395 N 0.84093 0.29096 0.89447 0.0
C396 C 0.83141 0.3919 0.91316 0.0
C397 C 0.77483 0.39586 0.8994 0.0
C398 C 0.75137 0.34675 0.88335 0.0
C399 C 0.78519 0.29437 0.88116 0.0
C400 C 0.74581 0.15435 0.94577 0.0
C401 C 0.80974 0.11696 0.89334 0.0
C402 C 0.79216 0.1891 0.93329 0.0
N403 N 0.8229 0.17062 0.90712 0.0
C404 C 0.76366 0.08103 0.90513 0.0
C405 C 0.73145 0.10003 0.93149 0.0
C406 C 0.97259 0.1261 0.86545 0.0
C407 C 0.13885 0.3014 0.8956 0.0
C408 C 0.11402 0.20503 0.8567 0.0
C409 C 0.16764 0.20621 0.87373 0.0
C410 C 0.18 0.25475 0.89333 0.0
N411 N 0.0738 0.25094 0.85907 0.0
C412 C 0.08573 0.29873 0.87818 0.0
Co413 Co 0.77042 0.88109 0.39067 0.0
Co414 Co 0.75122 -0.00294 0.33739 0.0
O415 O 0.72898 0.95271 0.37555 0.0
C416 C 0.77081 0.9649 0.44463 0.0
O417 O 0.78244 0.00744 0.42417 0.0
C418 C 0.62362 0.96718 0.32934 0.0
O419 O 0.63821 0.91244 0.33741 0.0
O420 O 0.75311 0.92202 0.31217 0.0
O421 O 0.7789 0.84972 0.34618 0.0
H422 H 0.86625 0.03556 0.23707 0.0
H423 H 0.6557 0.91054 0.42261 0.0
O424 O 0.76381 0.9111 0.43536 0.0
H425 H 0.62148 0.71541 0.37155 0.0
H426 H 0.80329 0.70929 0.46555 0.0
H427 H 0.88083 0.81608 0.37214 0.0
H428 H 0.71968 0.76515 0.3677 0.0
H429 H 0.75003 0.7972 0.44434 0.0
O430 O 0.66363 0.00774 0.32754 0.0
H431 H 0.83859 0.97977 0.28515 0.0
H432 H 0.70503 0.10816 0.30691 0.0
H433 H 0.93552 0.72837 0.39252 0.0
H434 H 0.55706 0.86181 0.4276 0.0
H435 H 0.89663 0.67418 0.43951 0.0
H436 H 0.53923 0.76376 0.40171 0.0
O437 O 0.84928 0.92124 0.38682 0.0
H438 H 0.66426 0.14706 0.41331 0.0
H439 H 0.83693 0.09819 0.34538 0.0
H440 H 0.83837 0.19089 0.37681 0.0
H441 H 0.75154 0.21594 0.41108 0.0
H442 H 0.66513 0.05446 0.38181 0.0
H443 H 0.73049 0.1651 0.25878 0.0
H444 H 0.8119 0.12903 0.22358 0.0
O445 O 0.8387 0.9871 0.34694 0.0
C446 C 0.76817 0.86805 0.31812 0.0
C447 C 0.83095 0.05196 0.25232 0.0
C448 C 0.75466 0.12455 0.26447 0.0
N449 N 0.77133 0.04131 0.29927 0.0
C450 C 0.8155 0.02076 0.27975 0.0
C451 C 0.7405 0.09216 0.29172 0.0
C452 C 0.80031 0.10428 0.24471 0.0
C453 C 0.64852 0.86774 0.41143 0.0
N454 N 0.69335 0.84124 0.39451 0.0
C455 C 0.59247 0.8404 0.41429 0.0
C456 C 0.58247 0.78542 0.39974 0.0
C457 C 0.62855 0.75834 0.38276 0.0
C458 C 0.68403 0.78698 0.38045 0.0
C459 C 0.82042 0.73222 0.44491 0.0
C460 C 0.86341 0.79248 0.39246 0.0
C461 C 0.79035 0.7819 0.43273 0.0
N462 N 0.81152 0.81085 0.40656 0.0
C463 C 0.89466 0.74294 0.40395 0.0
C464 C 0.87284 0.71259 0.43032 0.0
C465 C 0.87036 0.95939 0.36746 0.0
C466 C 0.70235 0.13667 0.39846 0.0
C467 C 0.79916 0.10839 0.36044 0.0
C468 C 0.80013 0.16116 0.37807 0.0
C469 C 0.75137 0.17524 0.39724 0.0
N470 N 0.75097 0.07062 0.36183 0.0
C471 C 0.70295 0.0843 0.38047 0.0
C472 C 0.00271 0.47402 0.22255 0.0
C473 C 0.01229 0.44388 0.19349 0.0
C474 C 0.98923 0.53549 0.16399 0.0
C475 C 0.98241 0.56645 0.19307 0.0
N476 N 0.98847 0.56865 0.24989 0.0
N477 N 0.01739 0.44454 0.13662 0.0
C478 C 0.99084 0.53667 0.22236 0.0
C479 C 0.00617 0.47429 0.16422 0.0
N480 N 0.00377 0.44231 0.25019 0.0
N481 N 0.9792 0.56482 0.13612 0.0
H482 H 0.02565 0.39882 0.1358 0.0
H483 H 0.021 0.46479 0.11458 0.0
H484 H 0.97185 0.61066 0.13489 0.0
H485 H 0.97584 0.54408 0.1142 0.0
H486 H 0.99127 0.4598 0.27199 0.0
H487 H 0.01369 0.39675 0.25112 0.0
H488 H 0.00017 0.55144 0.27188 0.0
H489 H 0.97808 0.61412 0.25059 0.0
C490 C 0.46741 0.98658 0.66543 0.0
C491 C 0.43571 0.98085 0.69436 0.0
C492 C 0.52797 0.00145 0.72425 0.0
C493 C 0.55911 0.00911 0.69528 0.0
N494 N 0.56003 0.01079 0.63836 0.0
N495 N 0.43227 0.98842 0.75108 0.0
C496 C 0.52916 0.00213 0.66589 0.0
C497 C 0.46501 0.98994 0.72376 0.0
N498 N 0.43826 0.97661 0.63747 0.0
N499 N 0.55901 0.00412 0.7521 0.0
H500 H 0.38658 0.97846 0.75152 0.0
H501 H 0.44905 0.00022 0.77315 0.0
H502 H 0.60471 0.01389 0.75319 0.0
H503 H 0.54084 0.99341 0.77401 0.0
H504 H 0.45913 0.97284 0.61561 0.0
H505 H 0.39219 0.97009 0.63607 0.0
H506 H 0.54057 0.0138 0.61609 0.0
H507 H 0.60619 0.01691 0.63776 0.0
C508 C 0.98866 0.46881 0.80014 0.0
C509 C 0.97931 0.43874 0.82928 0.0
C510 C 0.00164 0.53086 0.85856 0.0
C511 C 0.00916 0.56151 0.82942 0.0
N512 N 0.00339 0.56332 0.77262 0.0
N513 N 0.97408 0.43989 0.88617 0.0
C514 C 0.00076 0.5315 0.8002 0.0
C515 C 0.98498 0.46953 0.85847 0.0
N516 N 0.98695 0.43703 0.77253 0.0
N517 N 0.01115 0.56056 0.88635 0.0
H518 H 0.96706 0.39397 0.88722 0.0
H519 H 0.96983 0.46035 0.90811 0.0
H520 H 0.01851 0.60642 0.88738 0.0
H521 H 0.01391 0.54023 0.9084 0.0
H522 H -0.00073 0.45434 0.75066 0.0
H523 H 0.97627 0.39163 0.77165 0.0
H524 H 0.99204 0.54599 0.75061 0.0
H525 H 0.01357 0.60884 0.77189 0.0
C526 C 0.46698 0.00302 0.29849 0.0
C527 C 0.43563 0.01013 0.32743 0.0
C528 C 0.52763 0.98949 0.35734 0.0
C529 C 0.55947 0.98414 0.32844 0.0
N530 N 0.56303 0.99213 0.27175 0.0
N531 N 0.43507 0.01365 0.38436 0.0
C532 C 0.53014 0.99281 0.29903 0.0
C533 C 0.46578 0.0044 0.35684 0.0
N534 N 0.43597 0.00505 0.27061 0.0
N535 N 0.55662 0.97937 0.38532 0.0
H536 H 0.38885 0.01922 0.38505 0.0
H537 H 0.45492 0.01816 0.40646 0.0
H538 H 0.60267 0.97282 0.38677 0.0
H539 H 0.53546 0.97501 0.40708 0.0
H540 H 0.4544 0.99455 0.24873 0.0
H541 H 0.39015 0.01419 0.26947 0.0
H542 H 0.54607 0.00359 0.24967 0.0
H543 H 0.60897 0.98344 0.27139 0.0
C544 C 0.99353 0.17605 0.99562 0.0
C545 C 0.98662 0.23038 0.97878 0.0
C546 C 0.00351 0.28648 0.02771 0.0
C547 C 0.01794 0.23235 0.04346 0.0
N548 N 0.04014 0.12698 0.04025 0.0
N549 N 0.99644 0.33774 0.97735 0.0
C550 C 0.01713 0.17746 0.02675 0.0
C551 C 0.99502 0.28587 0.99438 0.0
N552 N 0.97562 0.12332 0.98235 0.0
N553 N 0.99656 0.33808 0.04457 0.0
H554 H 0.9918 0.33862 0.95283 0.0
H555 H 0.00793 0.37892 0.98714 0.0
H556 H 0.0014 0.33987 0.06906 0.0
H557 H 0.98058 0.37763 0.03466 0.0
H558 H 0.97496 0.08299 0.99469 0.0
H559 H 0.95527 0.12118 0.96019 0.0
H560 H 0.0452 0.08687 0.02801 0.0
H561 H 0.05992 0.12697 0.06259 0.0
C562 C 0.79277 0.95926 0.53398 0.0
C563 C 0.75865 0.00977 0.54374 0.0
C564 C 0.72666 0.02553 0.48881 0.0
C565 C 0.76619 0.97969 0.47875 0.0
N566 N 0.84638 0.91117 0.49122 0.0
N567 N 0.6996 0.09641 0.52947 0.0
C568 C 0.80179 0.94864 0.50118 0.0
C569 C 0.72803 0.04488 0.52082 0.0
N570 N 0.81632 0.92094 0.55588 0.0
N571 N 0.68512 0.04812 0.46825 0.0
H572 H 0.69652 0.11094 0.55273 0.0
H573 H 0.68295 0.12718 0.5132 0.0
H574 H 0.68044 0.03279 0.44511 0.0
H575 H 0.65105 0.07724 0.47503 0.0
H576 H 0.83531 0.8799 0.54993 0.0
H577 H 0.81287 0.92746 0.58017 0.0
H578 H 0.87798 0.89252 0.50643 0.0
H579 H 0.85583 0.90335 0.46744 0.0
C580 C 0.96146 0.81622 0.02338 0.0
C581 C 0.98982 0.77809 0.04565 0.0
C582 C 0.05179 0.73565 1.0033 0.0
C583 C 0.01871 0.76882 0.98052 0.0
N584 N 0.9351 0.83413 0.96874 0.0
N585 N 0.05218 0.6921 0.05572 0.0
C586 C 0.97128 0.80693 0.99051 0.0
C587 C 0.0326 0.73543 0.03537 0.0
N588 N 0.92735 0.86321 0.03358 0.0
N589 N 0.10123 0.70377 0.9945 0.0
H590 H 0.0368 0.68829 0.0789 0.0
H591 H 0.07855 0.65604 0.04872 0.0
H592 H 0.11564 0.70021 0.97124 0.0
H593 H 0.13083 0.68477 1.01068 0.0
H594 H 0.91115 0.89639 0.01856 0.0
H595 H 0.92005 0.87265 0.0574 0.0
H596 H 0.89563 0.85624 0.97475 0.0
H597 H 0.94171 0.83109 0.94443 0.0
C598 C 0.26931 0.04608 0.50219 0.0
C599 C 0.23986 0.01017 0.47922 0.0
C600 C 0.1948 0.95026 0.52169 0.0
C601 C 0.22947 0.98186 0.54433 0.0
N602 N 0.31019 0.05071 0.55518 0.0
N603 N 0.1834 0.92053 0.46709 0.0
C604 C 0.26941 0.02755 0.53437 0.0
C605 C 0.20554 0.95978 0.48895 0.0
N606 N 0.29783 0.09754 0.49343 0.0
N607 N 0.14943 0.91336 0.53133 0.0
H608 H 0.18848 0.92607 0.4428 0.0
H609 H 0.16414 0.87967 0.47318 0.0
H610 H 0.13833 0.9068 0.55501 0.0
H611 H 0.11868 0.89421 0.5158 0.0
H612 H 0.31381 0.12879 0.50964 0.0
H613 H 0.30161 0.11145 0.47006 0.0
H614 H 0.3444 0.07982 0.54853 0.0
H615 H 0.31416 0.03583 0.57843 0.0
C616 C 0.13933 0.23093 0.26417 0.0
C617 C 0.16464 0.21989 0.23401 0.0
C618 C 0.23988 0.15724 0.26117 0.0
C619 C 0.20216 0.15421 0.2882 0.0
N620 N 0.10495 0.17882 0.31002 0.0
N621 N 0.24869 0.17661 0.20538 0.0
C622 C 0.14917 0.18917 0.28855 0.0
C623 C 0.218 0.1844 0.23287 0.0
N624 N 0.1055 0.28064 0.2696 0.0
N625 N 0.29753 0.13694 0.26284 0.0
H626 H 0.24408 0.20478 0.18615 0.0
H627 H 0.28021 0.14275 0.2022 0.0
H628 H 0.31629 0.12072 0.28365 0.0
H629 H 0.32874 0.14281 0.24479 0.0
H630 H 0.08813 0.29061 0.29188 0.0
H631 H 0.10217 0.31503 0.25299 0.0
H632 H 0.06428 0.20184 0.30965 0.0
H633 H 0.10521 0.14115 0.32437 0.0
C634 C 0.83854 0.24085 0.762 0.0
C635 C 0.82771 0.21131 0.79117 0.0
C636 C 0.75289 0.14946 0.76353 0.0
C637 C 0.77962 0.16413 0.7341 0.0
N638 N 0.83815 0.23774 0.70521 0.0
N639 N 0.76007 0.14583 0.82012 0.0
C640 C 0.81927 0.21423 0.73317 0.0
C641 C 0.7803 0.16838 0.7922 0.0
N642 N 0.86302 0.29689 0.76211 0.0
N643 N 0.69853 0.12126 0.76394 0.0
H644 H 0.76331 0.16893 0.84126 0.0
H645 H 0.73601 0.10594 0.82165 0.0
H646 H 0.67433 0.11323 0.74329 0.0
H647 H 0.674 0.11339 0.78447 0.0
H648 H 0.86791 0.32309 0.74191 0.0
H649 H 0.87066 0.32036 0.78301 0.0
H650 H 0.87609 0.26476 0.7033 0.0
H651 H 0.81385 0.23366 0.68445 0.0
C652 C 0.81831 0.77802 0.29051 0.0
C653 C 0.77769 0.8272 0.29009 0.0
C654 C 0.7788 0.82573 0.23198 0.0
C655 C 0.82813 0.78506 0.23264 0.0
N656 N 0.86809 0.7002 0.26051 0.0
N657 N 0.69636 0.87055 0.26077 0.0
C658 C 0.84008 0.75449 0.26141 0.0
C659 C 0.751 0.84296 0.26083 0.0
N660 N 0.8354 0.75247 0.3183 0.0
N661 N 0.75731 0.84766 0.20418 0.0
H662 H 0.6722 0.87751 0.28152 0.0
H663 H 0.67169 0.87928 0.24038 0.0
H664 H 0.76066 0.8244 0.18307 0.0
H665 H 0.73194 0.88669 0.20272 0.0
H666 H 0.87382 0.72636 0.32062 0.0
H667 H 0.80881 0.75394 0.33841 0.0
H668 H 0.87444 0.67301 0.28021 0.0
H669 H 0.87786 0.67878 0.23927 0.0
C670 C 0.17413 0.77447 0.73096 0.0
C671 C 0.21589 0.82283 0.73174 0.0
C672 C 0.21984 0.81507 0.78971 0.0
C673 C 0.16929 0.77593 0.78906 0.0
N674 N 0.12438 0.69516 0.76002 0.0
N675 N 0.30041 0.86197 0.76027 0.0
C676 C 0.15409 0.74862 0.75986 0.0
C677 C 0.24536 0.83514 0.76074 0.0
N678 N 0.15414 0.75198 0.70298 0.0
N679 N 0.24469 0.83253 0.81761 0.0
H680 H 0.32292 0.87071 0.7392 0.0
H681 H 0.32696 0.86841 0.78022 0.0
H682 H 0.24197 0.80669 0.83791 0.0
H683 H 0.27164 0.87038 0.81987 0.0
H684 H 0.11479 0.72715 0.70087 0.0
H685 H 0.17939 0.75417 0.68243 0.0
H686 H 0.11558 0.67005 0.73983 0.0
H687 H 0.11538 0.6722 0.78094 0.0
C688 C 0.02066 0.03437 0.18619 0.0
C689 C 0.01821 0.06731 0.15762 0.0
C690 C 0.99411 0.97541 0.12928 0.0
C691 C 0.98714 0.94451 0.15845 0.0
N692 N 0.97346 0.95432 0.2149 0.0
N693 N 0.98379 0.07076 0.10354 0.0
C694 C 0.99484 0.97658 0.18712 0.0
C695 C -0.00051 0.03839 0.12954 0.0
N696 N 0.04893 0.05712 0.21214 0.0
N697 N 0.9982 0.94528 0.10135 0.0
H698 H 0.98313 0.11721 0.10358 0.0
H699 H 0.96468 0.0514 0.0835 0.0
H700 H -0.00062 0.899 0.10006 0.0
H701 H 0.00801 0.96645 0.08 0.0
H702 H 0.05506 0.0323 0.23276 0.0
H703 H 0.07236 0.09749 0.21154 0.0
H704 H 0.97502 0.97849 0.23596 0.0
H705 H 0.94622 0.91648 0.21568 0.0
C706 C 0.02714 0.97644 0.68521 0.0
C707 C 0.05842 0.97431 0.65612 0.0
C708 C 0.964 0.9947 0.62862 0.0
C709 C 0.93616 0.00771 0.65805 0.0
N710 N 0.94974 0.02831 0.71366 0.0
N711 N 0.05696 0.99332 0.59968 0.0
C712 C 0.97008 0.00356 0.68624 0.0
C713 C 0.02704 0.98666 0.62758 0.0
N714 N 0.05016 0.9498 0.71153 0.0
N715 N 0.93053 0.9878 0.60183 0.0
H716 H 0.1032 0.99019 0.59778 0.0
H717 H 0.03626 0.00821 0.57904 0.0
H718 H 0.88403 0.99103 0.60159 0.0
H719 H 0.9485 0.97243 0.58059 0.0
H720 H 0.02642 0.94725 0.73269 0.0
H721 H 0.08859 0.92329 0.71074 0.0
H722 H 0.97562 0.02947 0.73419 0.0
H723 H 0.91126 0.05469 0.71446 0.0
C724 C 0.98522 0.0286 0.83673 0.0
C725 C 0.98925 0.06195 0.8651 0.0
C726 C 0.01561 0.97055 0.89347 0.0
C727 C 0.02002 0.93925 0.8643 0.0
N728 N 0.03115 0.9484 0.80771 0.0
N729 N 0.02815 0.06658 0.9183 0.0
C730 C 0.01112 0.971 0.83567 0.0
C731 C 0.0102 0.03359 0.89294 0.0
N732 N 0.95496 0.05047 0.81121 0.0
N733 N 0.01427 0.94084 0.92165 0.0
H734 H 0.02938 0.11305 0.91776 0.0
H735 H 0.04861 0.04765 0.93808 0.0
H736 H 0.01455 0.89447 0.92345 0.0
H737 H 0.00595 0.96244 0.94306 0.0
H738 H 0.94822 0.02532 0.79076 0.0
H739 H 0.93051 0.09016 0.81207 0.0
H740 H 0.0288 0.97252 0.78667 0.0
H741 H 0.05818 0.91044 0.80673 0.0
C742 C 0.96776 0.98155 0.39609 0.0
C743 C 0.93601 0.97013 0.36757 0.0
C744 C 0.02519 0.99591 0.33729 0.0
C745 C 0.05911 0.00019 0.36557 0.0
N746 N 0.06434 0.98061 0.42179 0.0
N747 N 0.94294 0.94477 0.31224 0.0
C748 C 0.03097 0.98807 0.39501 0.0
C749 C 0.96724 0.97069 0.33847 0.0
N750 N 0.93805 0.98872 0.42401 0.0
N751 N 0.04629 0.01896 0.30962 0.0
H752 H 0.90338 0.91991 0.31316 0.0
H753 H 0.96604 0.94136 0.2909 0.0
H754 H 0.08581 0.04356 0.30842 0.0
H755 H 0.02044 0.02059 0.2891 0.0
H756 H 0.95908 0.00315 0.44465 0.0
H757 H 0.89177 0.98622 0.42594 0.0
H758 H 0.04608 0.96593 0.44311 0.0
H759 H 0.11092 0.98251 0.42191 0.0
loop_
_geom_bond_atom_site_label_1
_geom_bond_atom_site_label_2
_geom_bond_distance
_geom_bond_site_symmetry_2
_ccdc_geom_bond_type
Co0 O2 2.143 . S
Co0 O8 2.074 . S
Co0 O11 2.093 . S
Co0 O24 2.097 . S
Co0 N41 2.151 . S
Co0 N49 2.214 . S
Co1 O2 2.160 . S
Co1 O7 2.058 . S
Co1 O17 2.057 1_455 S
Co1 O32 2.037 1_455 S
Co1 N36 2.145 1_455 S
Co1 N57 2.257 1_455 S
O2 Co0 2.143 . S
O2 Co1 2.160 . S
C3 O4 1.278 . S
C3 O11 1.224 . S
O4 C3 1.278 . S
C5 O6 1.245 . S
C5 O17 1.232 1_455 S
O6 C5 1.245 . S
O7 Co1 2.058 . S
O7 C33 1.269 . S
O8 Co0 2.074 . S
O8 C33 1.257 . S
H9 C34 0.930 . S
H10 C40 0.930 . S
O11 Co0 2.093 . S
O11 C3 1.224 . S
H12 C44 0.929 . S
H13 C46 0.930 . S
H14 C47 0.930 . S
H15 C45 0.929 . S
H16 C48 0.928 . S
O17 Co1 2.057 1_655 S
O17 C5 1.232 1_655 S
H18 C37 0.929 . S
H19 C38 0.929 . S
H20 C50 0.931 1_565 S
H21 C42 0.929 . S
H22 C51 0.930 1_565 S
H23 C43 0.931 . S
O24 Co0 2.097 . S
O24 C52 1.214 . S
H25 C53 0.929 . S
H26 C54 0.929 . S
H27 C55 0.930 . S
H28 C56 0.929 . S
H29 C58 0.930 . S
H30 C35 0.930 . S
H31 C39 0.930 . S
O32 Co1 2.037 1_655 S
O32 C52 1.234 1_655 S
C33 O7 1.269 . S
C33 O8 1.257 . S
C34 H9 0.930 . S
C34 C37 1.388 . S
C34 C39 1.418 . S
C35 H30 0.930 . S
C35 C38 1.404 . S
C35 C39 1.353 . S
N36 Co1 2.145 1_655 S
N36 C37 1.397 . S
N36 C38 1.334 . S
C37 H18 0.929 . S
C37 C34 1.388 . S
C37 N36 1.397 . S
C38 H19 0.929 . S
C38 C35 1.404 . S
C38 N36 1.334 . S
C39 H31 0.930 . S
C39 C34 1.418 . S
C39 C35 1.353 . S
C40 H10 0.930 . S
C40 N41 1.330 . S
C40 C42 1.446 . S
N41 Co0 2.151 . S
N41 C40 1.330 . S
N41 C45 1.418 . S
C42 H21 0.929 . S
C42 C40 1.446 . S
C42 C43 1.332 . S
C43 H23 0.931 . S
C43 C42 1.332 . S
C43 C44 1.267 . S
C44 H12 0.929 . S
C44 C43 1.267 . S
C44 C45 1.251 . S
C45 H15 0.929 . S
C45 N41 1.418 . S
C45 C44 1.251 . S
C46 H13 0.930 . S
C46 C48 1.406 . S
C46 C51 1.261 . S
C47 H14 0.930 . S
C47 N49 1.325 . S
C47 C50 1.357 . S
C48 H16 0.928 . S
C48 C46 1.406 . S
C48 N49 1.261 . S
N49 Co0 2.214 . S
N49 C47 1.325 . S
N49 C48 1.261 . S
C50 H20 0.931 1_545 S
C50 C47 1.357 . S
C50 C51 1.312 . S
C51 H22 0.930 1_545 S
C51 C46 1.261 . S
C51 C50 1.312 . S
C52 O24 1.214 . S
C52 O32 1.234 1_455 S
C53 H25 0.929 . S
C53 C56 1.391 . S
C53 C58 1.391 . S
C54 H26 0.929 . S
C54 C55 1.390 . S
C54 N57 1.391 . S
C55 H27 0.930 . S
C55 C54 1.390 . S
C55 C56 1.392 . S
C56 H28 0.929 . S
C56 C53 1.391 . S
C56 C55 1.392 . S
N57 Co1 2.257 1_655 S
N57 C54 1.391 . S
N57 C58 1.388 . S
C58 H29 0.930 . S
C58 C53 1.391 . S
C58 N57 1.388 . S
Co59 O61 2.143 . S
Co59 O67 2.074 . S
Co59 O70 2.093 . S
Co59 O83 2.097 . S
Co59 N100 2.151 . S
Co59 N108 2.214 . S
Co60 O61 2.160 . S
Co60 O66 2.058 . S
Co60 O76 2.057 1_545 S
Co60 O91 2.037 1_545 S
Co60 N95 2.145 1_545 S
Co60 N116 2.257 1_545 S
O61 Co59 2.143 . S
O61 Co60 2.160 . S
C62 O63 1.278 . S
C62 O70 1.224 . S
O63 C62 1.278 . S
C64 O65 1.245 . S
C64 O76 1.232 1_545 S
O65 C64 1.245 . S
O66 Co60 2.058 . S
O66 C92 1.269 . S
O67 Co59 2.074 . S
O67 C92 1.257 . S
H68 C93 0.930 . S
H69 C99 0.930 . S
O70 Co59 2.093 . S
O70 C62 1.224 . S
H71 C103 0.929 . S
H72 C105 0.930 . S
H73 C106 0.930 . S
H74 C104 0.929 . S
H75 C107 0.928 . S
O76 Co60 2.057 1_565 S
O76 C64 1.232 1_565 S
H77 C96 0.929 . S
H78 C97 0.929 . S
H79 C109 0.931 1_455 S
H80 C101 0.929 . S
H81 C110 0.930 1_455 S
H82 C102 0.931 . S
O83 Co59 2.097 . S
O83 C111 1.214 . S
H84 C112 0.929 . S
H85 C113 0.929 . S
H86 C114 0.930 . S
H87 C115 0.929 . S
H88 C117 0.930 . S
H89 C94 0.930 . S
H90 C98 0.930 . S
O91 Co60 2.037 1_565 S
O91 C111 1.234 1_565 S
C92 O66 1.269 . S
C92 O67 1.257 . S
C93 H68 0.930 . S
C93 C96 1.388 . S
C93 C98 1.418 . S
C94 H89 0.930 . S
C94 C97 1.404 . S
C94 C98 1.353 . S
N95 Co60 2.145 1_565 S
N95 C96 1.397 . S
N95 C97 1.334 . S
C96 H77 0.929 . S
C96 C93 1.388 . S
C96 N95 1.397 . S
C97 H78 0.929 . S
C97 C94 1.404 . S
C97 N95 1.334 . S
C98 H90 0.930 . S
C98 C93 1.418 . S
C98 C94 1.353 . S
C99 H69 0.930 . S
C99 N100 1.330 . S
C99 C101 1.446 . S
N100 Co59 2.151 . S
N100 C99 1.330 . S
N100 C104 1.418 . S
C101 H80 0.929 . S
C101 C99 1.446 . S
C101 C102 1.332 . S
C102 H82 0.931 . S
C102 C101 1.332 . S
C102 C103 1.267 . S
C103 H71 0.929 . S
C103 C102 1.267 . S
C103 C104 1.251 . S
C104 H74 0.929 . S
C104 N100 1.418 . S
C104 C103 1.251 . S
C105 H72 0.930 . S
C105 C107 1.406 . S
C105 C110 1.261 . S
C106 H73 0.930 . S
C106 N108 1.325 . S
C106 C109 1.357 . S
C107 H75 0.928 . S
C107 C105 1.406 . S
C107 N108 1.261 . S
N108 Co59 2.214 . S
N108 C106 1.325 . S
N108 C107 1.261 . S
C109 H79 0.931 1_655 S
C109 C106 1.357 . S
C109 C110 1.312 . S
C110 H81 0.930 1_655 S
C110 C105 1.261 . S
C110 C109 1.312 . S
C111 O83 1.214 . S
C111 O91 1.234 1_545 S
C112 H84 0.929 . S
C112 C115 1.391 . S
C112 C117 1.391 . S
C113 H85 0.929 . S
C113 C114 1.390 . S
C113 N116 1.391 . S
C114 H86 0.930 . S
C114 C113 1.390 . S
C114 C115 1.392 . S
C115 H87 0.929 . S
C115 C112 1.391 . S
C115 C114 1.392 . S
N116 Co60 2.257 1_565 S
N116 C113 1.391 . S
N116 C117 1.388 . S
C117 H88 0.930 . S
C117 C112 1.391 . S
C117 N116 1.388 . S
Co118 O120 2.143 . S
Co118 O126 2.074 . S
Co118 O129 2.093 . S
Co118 O142 2.097 . S
Co118 N159 2.151 . S
Co118 N167 2.214 . S
Co119 O120 2.160 . S
Co119 O125 2.058 . S
Co119 O135 2.057 1_655 S
Co119 O150 2.037 1_655 S
Co119 N154 2.145 1_655 S
Co119 N175 2.257 1_655 S
O120 Co118 2.143 . S
O120 Co119 2.160 . S
C121 O122 1.278 . S
C121 O129 1.224 . S
O122 C121 1.278 . S
C123 O124 1.245 . S
C123 O135 1.232 1_655 S
O124 C123 1.245 . S
O125 Co119 2.058 . S
O125 C151 1.269 . S
O126 Co118 2.074 . S
O126 C151 1.257 . S
H127 C152 0.930 . S
H128 C158 0.930 . S
O129 Co118 2.093 . S
O129 C121 1.224 . S
H130 C162 0.929 . S
H131 C164 0.930 . S
H132 C165 0.930 . S
H133 C163 0.929 . S
H134 C166 0.928 . S
O135 Co119 2.057 1_455 S
O135 C123 1.232 1_455 S
H136 C155 0.929 . S
H137 C156 0.929 . S
H138 C168 0.931 1_545 S
H139 C160 0.929 . S
H140 C169 0.930 1_545 S
H141 C161 0.931 . S
O142 Co118 2.097 . S
O142 C170 1.214 . S
H143 C171 0.929 . S
H144 C172 0.929 . S
H145 C173 0.930 . S
H146 C174 0.929 . S
H147 C176 0.930 . S
H148 C153 0.930 . S
H149 C157 0.930 . S
O150 Co119 2.037 1_455 S
O150 C170 1.234 1_455 S
C151 O125 1.269 . S
C151 O126 1.257 . S
C152 H127 0.930 . S
C152 C155 1.388 . S
C152 C157 1.418 . S
C153 H148 0.930 . S
C153 C156 1.404 . S
C153 C157 1.353 . S
N154 Co119 2.145 1_455 S
N154 C155 1.397 . S
N154 C156 1.334 . S
C155 H136 0.929 . S
C155 C152 1.388 . S
C155 N154 1.397 . S
C156 H137 0.929 . S
C156 C153 1.404 . S
C156 N154 1.334 . S
C157 H149 0.930 . S
C157 C152 1.418 . S
C157 C153 1.353 . S
C158 H128 0.930 . S
C158 N159 1.330 . S
C158 C160 1.446 . S
N159 Co118 2.151 . S
N159 C158 1.330 . S
N159 C163 1.418 . S
C160 H139 0.929 . S
C160 C158 1.446 . S
C160 C161 1.332 . S
C161 H141 0.931 . S
C161 C160 1.332 . S
C161 C162 1.267 . S
C162 H130 0.929 . S
C162 C161 1.267 . S
C162 C163 1.251 . S
C163 H133 0.929 . S
C163 N159 1.418 . S
C163 C162 1.251 . S
C164 H131 0.930 . S
C164 C166 1.406 . S
C164 C169 1.261 . S
C165 H132 0.930 . S
C165 N167 1.325 . S
C165 C168 1.357 . S
C166 H134 0.928 . S
C166 C164 1.406 . S
C166 N167 1.261 . S
N167 Co118 2.214 . S
N167 C165 1.325 . S
N167 C166 1.261 . S
C168 H138 0.931 1_565 S
C168 C165 1.357 . S
C168 C169 1.312 . S
C169 H140 0.930 1_565 S
C169 C164 1.261 . S
C169 C168 1.312 . S
C170 O142 1.214 . S
C170 O150 1.234 1_655 S
C171 H143 0.929 . S
C171 C174 1.391 . S
C171 C176 1.391 . S
C172 H144 0.929 . S
C172 C173 1.390 . S
C172 N175 1.391 . S
C173 H145 0.930 . S
C173 C172 1.390 . S
C173 C174 1.392 . S
C174 H146 0.929 . S
C174 C171 1.391 . S
C174 C173 1.392 . S
N175 Co119 2.257 1_455 S
N175 C172 1.391 . S
N175 C176 1.388 . S
C176 H147 0.930 . S
C176 C171 1.391 . S
C176 N175 1.388 . S
Co177 O179 2.143 . S
Co177 O185 2.074 . S
Co177 O188 2.093 . S
Co177 O201 2.097 . S
Co177 N218 2.151 . S
Co177 N226 2.214 . S
Co178 O179 2.160 . S
Co178 O184 2.058 . S
Co178 O194 2.057 1_565 S
Co178 O209 2.037 1_565 S
Co178 N213 2.145 1_565 S
Co178 N234 2.257 1_565 S
O179 Co177 2.143 . S
O179 Co178 2.160 . S
C180 O181 1.278 . S
C180 O188 1.224 . S
O181 C180 1.278 . S
C182 O183 1.245 . S
C182 O194 1.232 1_565 S
O183 C182 1.245 . S
O184 Co178 2.058 . S
O184 C210 1.269 . S
O185 Co177 2.074 . S
O185 C210 1.257 . S
H186 C211 0.930 . S
H187 C217 0.930 . S
O188 Co177 2.093 . S
O188 C180 1.224 . S
H189 C221 0.929 . S
H190 C223 0.930 . S
H191 C224 0.930 . S
H192 C222 0.929 . S
H193 C225 0.928 . S
O194 Co178 2.057 1_545 S
O194 C182 1.232 1_545 S
H195 C214 0.929 . S
H196 C215 0.929 . S
H197 C227 0.931 1_655 S
H198 C219 0.929 . S
H199 C228 0.930 1_655 S
H200 C220 0.931 . S
O201 Co177 2.097 . S
O201 C229 1.214 . S
H202 C230 0.929 . S
H203 C231 0.929 . S
H204 C232 0.930 . S
H205 C233 0.929 . S
H206 C235 0.930 . S
H207 C212 0.930 . S
H208 C216 0.930 . S
O209 Co178 2.037 1_545 S
O209 C229 1.234 1_545 S
C210 O184 1.269 . S
C210 O185 1.257 . S
C211 H186 0.930 . S
C211 C214 1.388 . S
C211 C216 1.418 . S
C212 H207 0.930 . S
C212 C215 1.404 . S
C212 C216 1.353 . S
N213 Co178 2.145 1_545 S
N213 C214 1.397 . S
N213 C215 1.334 . S
C214 H195 0.929 . S
C214 C211 1.388 . S
C214 N213 1.397 . S
C215 H196 0.929 . S
C215 C212 1.404 . S
C215 N213 1.334 . S
C216 H208 0.930 . S
C216 C211 1.418 . S
C216 C212 1.353 . S
C217 H187 0.930 . S
C217 N218 1.330 . S
C217 C219 1.446 . S
N218 Co177 2.151 . S
N218 C217 1.330 . S
N218 C222 1.418 . S
C219 H198 0.929 . S
C219 C217 1.446 . S
C219 C220 1.332 . S
C220 H200 0.931 . S
C220 C219 1.332 . S
C220 C221 1.267 . S
C221 H189 0.929 . S
C221 C220 1.267 . S
C221 C222 1.251 . S
C222 H192 0.929 . S
C222 N218 1.418 . S
C222 C221 1.251 . S
C223 H190 0.930 . S
C223 C225 1.406 . S
C223 C228 1.261 . S
C224 H191 0.930 . S
C224 N226 1.325 . S
C224 C227 1.357 . S
C225 H193 0.928 . S
C225 C223 1.406 . S
C225 N226 1.261 . S
N226 Co177 2.214 . S
N226 C224 1.325 . S
N226 C225 1.261 . S
C227 H197 0.931 1_455 S
C227 C224 1.357 . S
C227 C228 1.312 . S
C228 H199 0.930 1_455 S
C228 C223 1.261 . S
C228 C227 1.312 . S
C229 O201 1.214 . S
C229 O209 1.234 1_565 S
C230 H202 0.929 . S
C230 C233 1.391 . S
C230 C235 1.391 . S
C231 H203 0.929 . S
C231 C232 1.390 . S
C231 N234 1.391 . S
C232 H204 0.930 . S
C232 C231 1.390 . S
C232 C233 1.392 . S
C233 H205 0.929 . S
C233 C230 1.391 . S
C233 C232 1.392 . S
N234 Co178 2.257 1_545 S
N234 C231 1.391 . S
N234 C235 1.388 . S
C235 H206 0.930 . S
C235 C230 1.391 . S
C235 N234 1.388 . S
Co236 O238 2.143 . S
Co236 O244 2.074 . S
Co236 O247 2.093 . S
Co236 O260 2.097 . S
Co236 N277 2.151 . S
Co236 N285 2.214 . S
Co237 O238 2.160 . S
Co237 O243 2.058 . S
Co237 O253 2.057 1_455 S
Co237 O268 2.037 1_455 S
Co237 N272 2.145 1_455 S
Co237 N293 2.257 1_455 S
O238 Co236 2.143 . S
O238 Co237 2.160 . S
C239 O240 1.278 . S
C239 O247 1.224 . S
O240 C239 1.278 . S
C241 O242 1.245 . S
C241 O253 1.232 1_455 S
O242 C241 1.245 . S
O243 Co237 2.058 . S
O243 C269 1.269 . S
O244 Co236 2.074 . S
O244 C269 1.257 . S
H245 C270 0.930 . S
H246 C276 0.930 . S
O247 Co236 2.093 . S
O247 C239 1.224 . S
H248 C280 0.929 . S
H249 C282 0.930 . S
H250 C283 0.930 . S
H251 C281 0.929 . S
H252 C284 0.928 . S
O253 Co237 2.057 1_655 S
O253 C241 1.232 1_655 S
H254 C273 0.929 . S
H255 C274 0.929 . S
H256 C286 0.931 1_545 S
H257 C278 0.929 . S
H258 C287 0.930 1_545 S
H259 C279 0.931 . S
O260 Co236 2.097 . S
O260 C288 1.214 . S
H261 C289 0.929 . S
H262 C290 0.929 . S
H263 C291 0.930 . S
H264 C292 0.929 . S
H265 C294 0.930 . S
H266 C271 0.930 . S
H267 C275 0.930 . S
O268 Co237 2.037 1_655 S
O268 C288 1.234 1_655 S
C269 O243 1.269 . S
C269 O244 1.257 . S
C270 H245 0.930 . S
C270 C273 1.388 . S
C270 C275 1.418 . S
C271 H266 0.930 . S
C271 C274 1.404 . S
C271 C275 1.353 . S
N272 Co237 2.145 1_655 S
N272 C273 1.397 . S
N272 C274 1.334 . S
C273 H254 0.929 . S
C273 C270 1.388 . S
C273 N272 1.397 . S
C274 H255 0.929 . S
C274 C271 1.404 . S
C274 N272 1.334 . S
C275 H267 0.930 . S
C275 C270 1.418 . S
C275 C271 1.353 . S
C276 H246 0.930 . S
C276 N277 1.330 . S
C276 C278 1.446 . S
N277 Co236 2.151 . S
N277 C276 1.330 . S
N277 C281 1.418 . S
C278 H257 0.929 . S
C278 C276 1.446 . S
C278 C279 1.332 . S
C279 H259 0.931 . S
C279 C278 1.332 . S
C279 C280 1.267 . S
C280 H248 0.929 . S
C280 C279 1.267 . S
C280 C281 1.251 . S
C281 H251 0.929 . S
C281 N277 1.418 . S
C281 C280 1.251 . S
C282 H249 0.930 . S
C282 C284 1.406 . S
C282 C287 1.261 . S
C283 H250 0.930 . S
C283 N285 1.325 . S
C283 C286 1.357 . S
C284 H252 0.928 . S
C284 C282 1.406 . S
C284 N285 1.261 . S
N285 Co236 2.214 . S
N285 C283 1.325 . S
N285 C284 1.261 . S
C286 H256 0.931 1_565 S
C286 C283 1.357 . S
C286 C287 1.312 . S
C287 H258 0.930 1_565 S
C287 C282 1.261 . S
C287 C286 1.312 . S
C288 O260 1.214 . S
C288 O268 1.234 1_455 S
C289 H261 0.929 . S
C289 C292 1.391 . S
C289 C294 1.391 . S
C290 H262 0.929 . S
C290 C291 1.390 . S
C290 N293 1.391 . S
C291 H263 0.930 . S
C291 C290 1.390 . S
C291 C292 1.392 . S
C292 H264 0.929 . S
C292 C289 1.391 . S
C292 C291 1.392 . S
N293 Co237 2.257 1_655 S
N293 C290 1.391 . S
N293 C294 1.388 . S
C294 H265 0.930 . S
C294 C289 1.391 . S
C294 N293 1.388 . S
Co295 O297 2.143 . S
Co295 O303 2.074 . S
Co295 O306 2.093 . S
Co295 O319 2.097 . S
Co295 N336 2.151 . S
Co295 N344 2.214 . S
Co296 O297 2.160 . S
Co296 O302 2.058 . S
Co296 O312 2.057 1_545 S
Co296 O327 2.037 1_545 S
Co296 N331 2.145 1_545 S
Co296 N352 2.257 1_545 S
O297 Co295 2.143 . S
O297 Co296 2.160 . S
C298 O299 1.278 . S
C298 O306 1.224 . S
O299 C298 1.278 . S
C300 O301 1.245 . S
C300 O312 1.232 1_545 S
O301 C300 1.245 . S
O302 Co296 2.058 . S
O302 C328 1.269 . S
O303 Co295 2.074 . S
O303 C328 1.257 . S
H304 C329 0.930 . S
H305 C335 0.930 . S
O306 Co295 2.093 . S
O306 C298 1.224 . S
H307 C339 0.929 . S
H308 C341 0.930 . S
H309 C342 0.930 . S
H310 C340 0.929 . S
H311 C343 0.928 . S
O312 Co296 2.057 1_565 S
O312 C300 1.232 1_565 S
H313 C332 0.929 . S
H314 C333 0.929 . S
H315 C345 0.931 1_655 S
H316 C337 0.929 . S
H317 C346 0.930 1_655 S
H318 C338 0.931 . S
O319 Co295 2.097 . S
O319 C347 1.214 . S
H320 C348 0.929 . S
H321 C349 0.929 . S
H322 C350 0.930 . S
H323 C351 0.929 . S
H324 C353 0.930 . S
H325 C330 0.930 . S
H326 C334 0.930 . S
O327 Co296 2.037 1_565 S
O327 C347 1.234 1_565 S
C328 O302 1.269 . S
C328 O303 1.257 . S
C329 H304 0.930 . S
C329 C332 1.388 . S
C329 C334 1.418 . S
C330 H325 0.930 . S
C330 C333 1.404 . S
C330 C334 1.353 . S
N331 Co296 2.145 1_565 S
N331 C332 1.397 . S
N331 C333 1.334 . S
C332 H313 0.929 . S
C332 C329 1.388 . S
C332 N331 1.397 . S
C333 H314 0.929 . S
C333 C330 1.404 . S
C333 N331 1.334 . S
C334 H326 0.930 . S
C334 C329 1.418 . S
C334 C330 1.353 . S
C335 H305 0.930 . S
C335 N336 1.330 . S
C335 C337 1.446 . S
N336 Co295 2.151 . S
N336 C335 1.330 . S
N336 C340 1.418 . S
C337 H316 0.929 . S
C337 C335 1.446 . S
C337 C338 1.332 . S
C338 H318 0.931 . S
C338 C337 1.332 . S
C338 C339 1.267 . S
C339 H307 0.929 . S
C339 C338 1.267 . S
C339 C340 1.251 . S
C340 H310 0.929 . S
C340 N336 1.418 . S
C340 C339 1.251 . S
C341 H308 0.930 . S
C341 C343 1.406 . S
C341 C346 1.261 . S
C342 H309 0.930 . S
C342 N344 1.325 . S
C342 C345 1.357 . S
C343 H311 0.928 . S
C343 C341 1.406 . S
C343 N344 1.261 . S
N344 Co295 2.214 . S
N344 C342 1.325 . S
N344 C343 1.261 . S
C345 H315 0.931 1_455 S
C345 C342 1.357 . S
C345 C346 1.312 . S
C346 H317 0.930 1_455 S
C346 C341 1.261 . S
C346 C345 1.312 . S
C347 O319 1.214 . S
C347 O327 1.234 1_545 S
C348 H320 0.929 . S
C348 C351 1.391 . S
C348 C353 1.391 . S
C349 H321 0.929 . S
C349 C350 1.390 . S
C349 N352 1.391 . S
C350 H322 0.930 . S
C350 C349 1.390 . S
C350 C351 1.392 . S
C351 H323 0.929 . S
C351 C348 1.391 . S
C351 C350 1.392 . S
N352 Co296 2.257 1_565 S
N352 C349 1.391 . S
N352 C353 1.388 . S
C353 H324 0.930 . S
C353 C348 1.391 . S
C353 N352 1.388 . S
Co354 O356 2.143 . S
Co354 O362 2.074 . S
Co354 O365 2.093 . S
Co354 O378 2.097 . S
Co354 N395 2.151 . S
Co354 N403 2.214 . S
Co355 O356 2.160 . S
Co355 O361 2.058 . S
Co355 O371 2.057 1_655 S
Co355 O386 2.037 1_655 S
Co355 N390 2.145 1_655 S
Co355 N411 2.257 1_655 S
O356 Co354 2.143 . S
O356 Co355 2.160 . S
C357 O358 1.278 . S
C357 O365 1.224 . S
O358 C357 1.278 . S
C359 O360 1.245 . S
C359 O371 1.232 1_655 S
O360 C359 1.245 . S
O361 Co355 2.058 . S
O361 C387 1.269 . S
O362 Co354 2.074 . S
O362 C387 1.257 . S
H363 C388 0.930 . S
H364 C394 0.930 . S
O365 Co354 2.093 . S
O365 C357 1.224 . S
H366 C398 0.929 . S
H367 C400 0.930 . S
H368 C401 0.930 . S
H369 C399 0.929 . S
H370 C402 0.928 . S
O371 Co355 2.057 1_455 S
O371 C359 1.232 1_455 S
H372 C391 0.929 . S
H373 C392 0.929 . S
H374 C404 0.931 1_565 S
H375 C396 0.929 . S
H376 C405 0.930 1_565 S
H377 C397 0.931 . S
O378 Co354 2.097 . S
O378 C406 1.214 . S
H379 C407 0.929 . S
H380 C408 0.929 . S
H381 C409 0.930 . S
H382 C410 0.929 . S
H383 C412 0.930 . S
H384 C389 0.930 . S
H385 C393 0.930 . S
O386 Co355 2.037 1_455 S
O386 C406 1.234 1_455 S
C387 O361 1.269 . S
C387 O362 1.257 . S
C388 H363 0.930 . S
C388 C391 1.388 . S
C388 C393 1.418 . S
C389 H384 0.930 . S
C389 C392 1.404 . S
C389 C393 1.353 . S
N390 Co355 2.145 1_455 S
N390 C391 1.397 . S
N390 C392 1.334 . S
C391 H372 0.929 . S
C391 C388 1.388 . S
C391 N390 1.397 . S
C392 H373 0.929 . S
C392 C389 1.404 . S
C392 N390 1.334 . S
C393 H385 0.930 . S
C393 C388 1.418 . S
C393 C389 1.353 . S
C394 H364 0.930 . S
C394 N395 1.330 . S
C394 C396 1.446 . S
N395 Co354 2.151 . S
N395 C394 1.330 . S
N395 C399 1.418 . S
C396 H375 0.929 . S
C396 C394 1.446 . S
C396 C397 1.332 . S
C397 H377 0.931 . S
C397 C396 1.332 . S
C397 C398 1.267 . S
C398 H366 0.929 . S
C398 C397 1.267 . S
C398 C399 1.251 . S
C399 H369 0.929 . S
C399 N395 1.418 . S
C399 C398 1.251 . S
C400 H367 0.930 . S
C400 C402 1.406 . S
C400 C405 1.261 . S
C401 H368 0.930 . S
C401 N403 1.325 . S
C401 C404 1.357 . S
C402 H370 0.928 . S
C402 C400 1.406 . S
C402 N403 1.261 . S
N403 Co354 2.214 . S
N403 C401 1.325 . S
N403 C402 1.261 . S
C404 H374 0.931 1_545 S
C404 C401 1.357 . S
C404 C405 1.312 . S
C405 H376 0.930 1_545 S
C405 C400 1.261 . S
C405 C404 1.312 . S
C406 O378 1.214 . S
C406 O386 1.234 1_655 S
C407 H379 0.929 . S
C407 C410 1.391 . S
C407 C412 1.391 . S
C408 H380 0.929 . S
C408 C409 1.390 . S
C408 N411 1.391 . S
C409 H381 0.930 . S
C409 C408 1.390 . S
C409 C410 1.392 . S
C410 H382 0.929 . S
C410 C407 1.391 . S
C410 C409 1.392 . S
N411 Co355 2.257 1_455 S
N411 C408 1.391 . S
N411 C412 1.388 . S
C412 H383 0.930 . S
C412 C407 1.391 . S
C412 N411 1.388 . S
Co413 O415 2.143 . S
Co413 O421 2.074 . S
Co413 O424 2.093 . S
Co413 O437 2.097 . S
Co413 N454 2.151 . S
Co413 N462 2.214 . S
Co414 O415 2.160 . S
Co414 O420 2.058 . S
Co414 O430 2.057 1_565 S
Co414 O445 2.037 1_565 S
Co414 N449 2.145 1_565 S
Co414 N470 2.257 1_565 S
O415 Co413 2.143 . S
O415 Co414 2.160 . S
C416 O417 1.278 . S
C416 O424 1.224 . S
O417 C416 1.278 . S
C418 O419 1.245 . S
C418 O430 1.232 1_565 S
O419 C418 1.245 . S
O420 Co414 2.058 . S
O420 C446 1.269 . S
O421 Co413 2.074 . S
O421 C446 1.257 . S
H422 C447 0.930 . S
H423 C453 0.930 . S
O424 Co413 2.093 . S
O424 C416 1.224 . S
H425 C457 0.929 . S
H426 C459 0.930 . S
H427 C460 0.930 . S
H428 C458 0.929 . S
H429 C461 0.928 . S
O430 Co414 2.057 1_545 S
O430 C418 1.232 1_545 S
H431 C450 0.929 . S
H432 C451 0.929 . S
H433 C463 0.931 1_455 S
H434 C455 0.929 . S
H435 C464 0.930 1_455 S
H436 C456 0.931 . S
O437 Co413 2.097 . S
O437 C465 1.214 . S
H438 C466 0.929 . S
H439 C467 0.929 . S
H440 C468 0.930 . S
H441 C469 0.929 . S
H442 C471 0.930 . S
H443 C448 0.930 . S
H444 C452 0.930 . S
O445 Co414 2.037 1_545 S
O445 C465 1.234 1_545 S
C446 O420 1.269 . S
C446 O421 1.257 . S
C447 H422 0.930 . S
C447 C450 1.388 . S
C447 C452 1.418 . S
C448 H443 0.930 . S
C448 C451 1.404 . S
C448 C452 1.353 . S
N449 Co414 2.145 1_545 S
N449 C450 1.397 . S
N449 C451 1.334 . S
C450 H431 0.929 . S
C450 C447 1.388 . S
C450 N449 1.397 . S
C451 H432 0.929 . S
C451 C448 1.404 . S
C451 N449 1.334 . S
C452 H444 0.930 . S
C452 C447 1.418 . S
C452 C448 1.353 . S
C453 H423 0.930 . S
C453 N454 1.330 . S
C453 C455 1.446 . S
N454 Co413 2.151 . S
N454 C453 1.330 . S
N454 C458 1.418 . S
C455 H434 0.929 . S
C455 C453 1.446 . S
C455 C456 1.332 . S
C456 H436 0.931 . S
C456 C455 1.332 . S
C456 C457 1.267 . S
C457 H425 0.929 . S
C457 C456 1.267 . S
C457 C458 1.251 . S
C458 H428 0.929 . S
C458 N454 1.418 . S
C458 C457 1.251 . S
C459 H426 0.930 . S
C459 C461 1.406 . S
C459 C464 1.261 . S
C460 H427 0.930 . S
C460 N462 1.325 . S
C460 C463 1.357 . S
C461 H429 0.928 . S
C461 C459 1.406 . S
C461 N462 1.261 . S
N462 Co413 2.214 . S
N462 C460 1.325 . S
N462 C461 1.261 . S
C463 H433 0.931 1_655 S
C463 C460 1.357 . S
C463 C464 1.312 . S
C464 H435 0.930 1_655 S
C464 C459 1.261 . S
C464 C463 1.312 . S
C465 O437 1.214 . S
C465 O445 1.234 1_565 S
C466 H438 0.929 . S
C466 C469 1.391 . S
C466 C471 1.391 . S
C467 H439 0.929 . S
C467 C468 1.390 . S
C467 N470 1.391 . S
C468 H440 0.930 . S
C468 C467 1.390 . S
C468 C469 1.392 . S
C469 H441 0.929 . S
C469 C466 1.391 . S
C469 C468 1.392 . S
N470 Co414 2.257 1_545 S
N470 C467 1.391 . S
N470 C471 1.388 . S
C471 H442 0.930 . S
C471 C466 1.391 . S
C471 N470 1.388 . S
C472 C473 1.363 1_655 S
C472 C478 1.379 . S
C472 N480 1.356 . S
C473 C472 1.363 1_455 S
C473 C479 1.363 . S
C474 C475 1.363 1_455 S
C474 C479 1.379 . S
C474 N481 1.356 . S
C475 C474 1.363 1_655 S
C475 C478 1.363 . S
N476 C478 1.356 . S
N476 H488 0.984 . S
N476 H489 0.985 . S
N477 C479 1.356 . S
N477 H482 0.984 . S
N477 H483 0.985 . S
C478 C472 1.379 . S
C478 C475 1.363 . S
C478 N476 1.356 . S
C479 C473 1.363 . S
C479 C474 1.379 . S
C479 N477 1.356 . S
N480 C472 1.356 . S
N480 H486 0.984 . S
N480 H487 0.984 . S
N481 C474 1.356 . S
N481 H484 0.984 . S
N481 H485 0.985 . S
H482 N477 0.984 . S
H483 N477 0.985 . S
H484 N481 0.984 . S
H485 N481 0.985 . S
H486 N480 0.984 . S
H487 N480 0.984 . S
H488 N476 0.984 . S
H489 N476 0.985 . S
C490 C491 1.363 . S
C490 C496 1.379 . S
C490 N498 1.356 . S
C491 C490 1.363 . S
C491 C497 1.363 1_565 S
C492 C493 1.363 . S
C492 C497 1.379 . S
C492 N499 1.356 . S
C493 C492 1.363 . S
C493 C496 1.363 1_545 S
N494 C496 1.356 . S
N494 H506 0.984 . S
N494 H507 0.985 . S
N495 C497 1.356 . S
N495 H500 0.984 . S
N495 H501 0.985 . S
C496 C490 1.379 . S
C496 C493 1.363 1_565 S
C496 N494 1.356 . S
C497 C491 1.363 1_545 S
C497 C492 1.379 . S
C497 N495 1.356 . S
N498 C490 1.356 . S
N498 H504 0.984 . S
N498 H505 0.984 . S
N499 C492 1.356 . S
N499 H502 0.984 . S
N499 H503 0.985 . S
H500 N495 0.984 . S
H501 N495 0.985 . S
H502 N499 0.984 . S
H503 N499 0.985 . S
H504 N498 0.984 . S
H505 N498 0.984 . S
H506 N494 0.984 . S
H507 N494 0.985 . S
C508 C509 1.363 1_455 S
C508 C514 1.379 . S
C508 N516 1.356 . S
C509 C508 1.363 1_655 S
C509 C515 1.363 . S
C510 C511 1.363 1_655 S
C510 C515 1.379 . S
C510 N517 1.356 . S
C511 C510 1.363 1_455 S
C511 C514 1.363 . S
N512 C514 1.356 . S
N512 H524 0.984 . S
N512 H525 0.985 . S
N513 C515 1.356 . S
N513 H518 0.984 . S
N513 H519 0.985 . S
C514 C508 1.379 . S
C514 C511 1.363 . S
C514 N512 1.356 . S
C515 C509 1.363 . S
C515 C510 1.379 . S
C515 N513 1.356 . S
N516 C508 1.356 . S
N516 H522 0.984 . S
N516 H523 0.984 . S
N517 C510 1.356 . S
N517 H520 0.984 . S
N517 H521 0.985 . S
H518 N513 0.984 . S
H519 N513 0.985 . S
H520 N517 0.984 . S
H521 N517 0.985 . S
H522 N516 0.984 . S
H523 N516 0.984 . S
H524 N512 0.984 . S
H525 N512 0.985 . S
C526 C527 1.363 1_565 S
C526 C532 1.379 . S
C526 N534 1.356 . S
C527 C526 1.363 1_545 S
C527 C533 1.363 . S
C528 C529 1.363 1_545 S
C528 C533 1.379 . S
C528 N535 1.356 . S
C529 C528 1.363 1_565 S
C529 C532 1.363 . S
N530 C532 1.356 . S
N530 H542 0.984 . S
N530 H543 0.985 . S
N531 C533 1.356 . S
N531 H536 0.984 . S
N531 H537 0.985 . S
C532 C526 1.379 . S
C532 C529 1.363 . S
C532 N530 1.356 . S
C533 C527 1.363 . S
C533 C528 1.379 . S
C533 N531 1.356 . S
N534 C526 1.356 . S
N534 H540 0.984 . S
N534 H541 0.984 . S
N535 C528 1.356 . S
N535 H538 0.984 . S
N535 H539 0.985 . S
H536 N531 0.984 . S
H537 N531 0.985 . S
H538 N535 0.984 . S
H539 N535 0.985 . S
H540 N534 0.984 . S
H541 N534 0.984 . S
H542 N530 0.984 . S
H543 N530 0.985 . S
C544 C545 1.363 . S
C544 C550 1.379 1_556 S
C544 N552 1.356 . S
C545 C544 1.363 . S
C545 C551 1.363 1_655 S
C546 C547 1.363 . S
C546 C551 1.379 1_554 S
C546 N553 1.356 . S
C547 C546 1.363 . S
C547 C550 1.363 1_455 S
N548 C550 1.356 1_455 S
N548 H560 0.984 1_455 S
N548 H561 0.985 . S
N549 C551 1.356 1_655 S
N549 H554 0.984 . S
N549 H555 0.985 1_655 S
C550 C544 1.379 1_554 S
C550 C547 1.363 1_655 S
C550 N548 1.356 1_655 S
C551 C545 1.363 1_455 S
C551 C546 1.379 1_556 S
C551 N549 1.356 1_455 S
N552 C544 1.356 . S
N552 H558 0.984 . S
N552 H559 0.984 . S
N553 C546 1.356 . S
N553 H556 0.984 . S
N553 H557 0.985 . S
H554 N549 0.984 . S
H555 N549 0.985 1_455 S
H556 N553 0.984 . S
H557 N553 0.985 . S
H558 N552 0.984 . S
H559 N552 0.984 . S
H560 N548 0.984 1_655 S
H561 N548 0.985 . S
C562 C563 1.363 1_565 S
C562 C568 1.379 . S
C562 N570 1.356 . S
C563 C562 1.363 1_545 S
C563 C569 1.363 . S
C564 C565 1.363 1_545 S
C564 C569 1.379 . S
C564 N571 1.356 . S
C565 C564 1.363 1_565 S
C565 C568 1.363 . S
N566 C568 1.356 . S
N566 H578 0.984 . S
N566 H579 0.985 . S
N567 C569 1.356 . S
N567 H572 0.984 . S
N567 H573 0.985 . S
C568 C562 1.379 . S
C568 C565 1.363 . S
C568 N566 1.356 . S
C569 C563 1.363 . S
C569 C564 1.379 . S
C569 N567 1.356 . S
N570 C562 1.356 . S
N570 H576 0.984 . S
N570 H577 0.984 1_565 S
N571 C564 1.356 . S
N571 H574 0.984 1_545 S
N571 H575 0.985 . S
H572 N567 0.984 . S
H573 N567 0.985 . S
H574 N571 0.984 1_565 S
H575 N571 0.985 . S
H576 N570 0.984 . S
H577 N570 0.984 1_545 S
H578 N566 0.984 . S
H579 N566 0.985 . S
C580 C581 1.363 . S
C580 C586 1.379 1_554 S
C580 N588 1.356 . S
C581 C580 1.363 . S
C581 C587 1.363 1_655 S
C582 C583 1.363 . S
C582 C587 1.379 1_556 S
C582 N589 1.356 . S
C583 C582 1.363 . S
C583 C586 1.363 1_455 S
N584 C586 1.356 1_455 S
N584 H596 0.984 1_455 S
N584 H597 0.985 . S
N585 C587 1.356 1_655 S
N585 H590 0.984 . S
N585 H591 0.985 1_655 S
C586 C580 1.379 1_556 S
C586 C583 1.363 1_655 S
C586 N584 1.356 1_655 S
C587 C581 1.363 1_455 S
C587 C582 1.379 1_554 S
C587 N585 1.356 1_455 S
N588 C580 1.356 . S
N588 H594 0.984 . S
N588 H595 0.984 . S
N589 C582 1.356 . S
N589 H592 0.984 . S
N589 H593 0.985 . S
H590 N585 0.984 . S
H591 N585 0.985 1_455 S
H592 N589 0.984 . S
H593 N589 0.985 . S
H594 N588 0.984 . S
H595 N588 0.984 . S
H596 N584 0.984 1_655 S
H597 N584 0.985 . S
C598 C599 1.363 . S
C598 C604 1.379 . S
C598 N606 1.356 . S
C599 C598 1.363 . S
C599 C605 1.363 1_545 S
C600 C601 1.363 . S
C600 C605 1.379 . S
C600 N607 1.356 . S
C601 C600 1.363 . S
C601 C604 1.363 1_565 S
N602 C604 1.356 . S
N602 H614 0.984 . S
N602 H615 0.985 1_545 S
N603 C605 1.356 . S
N603 H608 0.984 1_565 S
N603 H609 0.985 . S
C604 C598 1.379 . S
C604 C601 1.363 1_545 S
C604 N602 1.356 . S
C605 C599 1.363 1_565 S
C605 C600 1.379 . S
C605 N603 1.356 . S
N606 C598 1.356 . S
N606 H612 0.984 . S
N606 H613 0.984 . S
N607 C600 1.356 . S
N607 H610 0.984 . S
N607 H611 0.985 . S
H608 N603 0.984 1_545 S
H609 N603 0.985 . S
H610 N607 0.984 . S
H611 N607 0.985 . S
H612 N606 0.984 . S
H613 N606 0.984 . S
H614 N602 0.984 . S
H615 N602 0.985 1_565 S
C616 C617 1.363 . S
C616 C622 1.379 . S
C616 N624 1.356 . S
C617 C616 1.363 . S
C617 C623 1.363 . S
C618 C619 1.363 . S
C618 C623 1.379 . S
C618 N625 1.356 . S
C619 C618 1.363 . S
C619 C622 1.363 . S
N620 C622 1.356 . S
N620 H632 0.984 . S
N620 H633 0.985 . S
N621 C623 1.356 . S
N621 H626 0.984 . S
N621 H627 0.985 . S
C622 C616 1.379 . S
C622 C619 1.363 . S
C622 N620 1.356 . S
C623 C617 1.363 . S
C623 C618 1.379 . S
C623 N621 1.356 . S
N624 C616 1.356 . S
N624 H630 0.984 . S
N624 H631 0.984 . S
N625 C618 1.356 . S
N625 H628 0.984 . S
N625 H629 0.985 . S
H626 N621 0.984 . S
H627 N621 0.985 . S
H628 N625 0.984 . S
H629 N625 0.985 . S
H630 N624 0.984 . S
H631 N624 0.984 . S
H632 N620 0.984 . S
H633 N620 0.985 . S
C634 C635 1.363 . S
C634 C640 1.379 . S
C634 N642 1.356 . S
C635 C634 1.363 . S
C635 C641 1.363 . S
C636 C637 1.363 . S
C636 C641 1.379 . S
C636 N643 1.356 . S
C637 C636 1.363 . S
C637 C640 1.363 . S
N638 C640 1.356 . S
N638 H650 0.984 . S
N638 H651 0.985 . S
N639 C641 1.356 . S
N639 H644 0.984 . S
N639 H645 0.985 . S
C640 C634 1.379 . S
C640 C637 1.363 . S
C640 N638 1.356 . S
C641 C635 1.363 . S
C641 C636 1.379 . S
C641 N639 1.356 . S
N642 C634 1.356 . S
N642 H648 0.984 . S
N642 H649 0.984 . S
N643 C636 1.356 . S
N643 H646 0.984 . S
N643 H647 0.985 . S
H644 N639 0.984 . S
H645 N639 0.985 . S
H646 N643 0.984 . S
H647 N643 0.985 . S
H648 N642 0.984 . S
H649 N642 0.984 . S
H650 N638 0.984 . S
H651 N638 0.985 . S
C652 C653 1.363 . S
C652 C658 1.379 . S
C652 N660 1.356 . S
C653 C652 1.363 . S
C653 C659 1.363 . S
C654 C655 1.363 . S
C654 C659 1.379 . S
C654 N661 1.356 . S
C655 C654 1.363 . S
C655 C658 1.363 . S
N656 C658 1.356 . S
N656 H668 0.984 . S
N656 H669 0.985 . S
N657 C659 1.356 . S
N657 H662 0.984 . S
N657 H663 0.985 . S
C658 C652 1.379 . S
C658 C655 1.363 . S
C658 N656 1.356 . S
C659 C653 1.363 . S
C659 C654 1.379 . S
C659 N657 1.356 . S
N660 C652 1.356 . S
N660 H666 0.984 . S
N660 H667 0.984 . S
N661 C654 1.356 . S
N661 H664 0.984 . S
N661 H665 0.985 . S
H662 N657 0.984 . S
H663 N657 0.985 . S
H664 N661 0.984 . S
H665 N661 0.985 . S
H666 N660 0.984 . S
H667 N660 0.984 . S
H668 N656 0.984 . S
H669 N656 0.985 . S
C670 C671 1.363 . S
C670 C676 1.379 . S
C670 N678 1.356 . S
C671 C670 1.363 . S
C671 C677 1.363 . S
C672 C673 1.363 . S
C672 C677 1.379 . S
C672 N679 1.356 . S
C673 C672 1.363 . S
C673 C676 1.363 . S
N674 C676 1.356 . S
N674 H686 0.984 . S
N674 H687 0.985 . S
N675 C677 1.356 . S
N675 H680 0.984 . S
N675 H681 0.985 . S
C676 C670 1.379 . S
C676 C673 1.363 . S
C676 N674 1.356 . S
C677 C671 1.363 . S
C677 C672 1.379 . S
C677 N675 1.356 . S
N678 C670 1.356 . S
N678 H684 0.984 . S
N678 H685 0.984 . S
N679 C672 1.356 . S
N679 H682 0.984 . S
N679 H683 0.985 . S
H680 N675 0.984 . S
H681 N675 0.985 . S
H682 N679 0.984 . S
H683 N679 0.985 . S
H684 N678 0.984 . S
H685 N678 0.984 . S
H686 N674 0.984 . S
H687 N674 0.985 . S
C688 C689 1.364 1_455 S
C688 C694 1.379 1_545 S
C688 N696 1.356 . S
C689 C688 1.364 1_655 S
C689 C695 1.362 . S
C690 C691 1.363 1_655 S
C690 C695 1.379 1_565 S
C690 N697 1.356 . S
C691 C690 1.363 1_455 S
C691 C694 1.363 . S
N692 C694 1.356 . S
N692 H704 0.984 . S
N692 H705 0.985 . S
N693 C695 1.356 . S
N693 H698 0.984 . S
N693 H699 0.985 . S
C694 C688 1.379 1_565 S
C694 C691 1.363 . S
C694 N692 1.356 . S
C695 C689 1.362 . S
C695 C690 1.379 1_545 S
C695 N693 1.356 . S
N696 C688 1.356 . S
N696 H702 0.984 . S
N696 H703 0.984 . S
N697 C690 1.356 . S
N697 H700 0.984 . S
N697 H701 0.985 . S
H698 N693 0.984 . S
H699 N693 0.985 . S
H700 N697 0.984 . S
H701 N697 0.985 . S
H702 N696 0.984 . S
H703 N696 0.984 . S
H704 N692 0.984 . S
H705 N692 0.985 . S
C706 C707 1.363 1_565 S
C706 C712 1.379 1_455 S
C706 N714 1.356 . S
C707 C706 1.363 1_545 S
C707 C713 1.363 . S
C708 C709 1.364 1_545 S
C708 C713 1.379 1_655 S
C708 N715 1.356 . S
C709 C708 1.364 1_565 S
C709 C712 1.362 . S
N710 C712 1.356 . S
N710 H722 0.984 . S
N710 H723 0.985 . S
N711 C713 1.356 . S
N711 H716 0.984 . S
N711 H717 0.985 . S
C712 C706 1.379 1_655 S
C712 C709 1.362 . S
C712 N710 1.356 . S
C713 C707 1.363 . S
C713 C708 1.379 1_455 S
C713 N711 1.356 . S
N714 C706 1.356 . S
N714 H720 0.984 . S
N714 H721 0.984 . S
N715 C708 1.356 . S
N715 H718 0.984 . S
N715 H719 0.985 . S
H716 N711 0.984 . S
H717 N711 0.985 . S
H718 N715 0.984 . S
H719 N715 0.985 . S
H720 N714 0.984 . S
H721 N714 0.984 . S
H722 N710 0.984 . S
H723 N710 0.985 . S
C724 C725 1.364 1_655 S
C724 C730 1.379 1_545 S
C724 N732 1.356 . S
C725 C724 1.364 1_455 S
C725 C731 1.362 . S
C726 C727 1.363 1_455 S
C726 C731 1.379 1_565 S
C726 N733 1.356 . S
C727 C726 1.363 1_655 S
C727 C730 1.363 . S
N728 C730 1.356 . S
N728 H740 0.984 . S
N728 H741 0.985 . S
N729 C731 1.356 . S
N729 H734 0.984 . S
N729 H735 0.985 . S
C730 C724 1.379 1_565 S
C730 C727 1.363 . S
C730 N728 1.356 . S
C731 C725 1.362 . S
C731 C726 1.379 1_545 S
C731 N729 1.356 . S
N732 C724 1.356 . S
N732 H738 0.984 . S
N732 H739 0.984 . S
N733 C726 1.356 . S
N733 H736 0.984 . S
N733 H737 0.985 . S
H734 N729 0.984 . S
H735 N729 0.985 . S
H736 N733 0.984 . S
H737 N733 0.985 . S
H738 N732 0.984 . S
H739 N732 0.984 . S
H740 N728 0.984 . S
H741 N728 0.985 . S
C742 C743 1.362 . S
C742 C748 1.379 1_655 S
C742 N750 1.356 . S
C743 C742 1.362 . S
C743 C749 1.364 1_545 S
C744 C745 1.363 . S
C744 C749 1.379 1_455 S
C744 N751 1.356 . S
C745 C744 1.363 . S
C745 C748 1.363 1_565 S
N746 C748 1.356 . S
N746 H758 0.984 . S
N746 H759 0.985 . S
N747 C749 1.356 . S
N747 H752 0.984 . S
N747 H753 0.985 . S
C748 C742 1.379 1_455 S
C748 C745 1.363 1_545 S
C748 N746 1.356 . S
C749 C743 1.364 1_565 S
C749 C744 1.379 1_655 S
C749 N747 1.356 . S
N750 C742 1.356 . S
N750 H756 0.984 . S
N750 H757 0.984 . S
N751 C744 1.356 . S
N751 H754 0.984 . S
N751 H755 0.985 . S
H752 N747 0.984 . S
H753 N747 0.985 . S
H754 N751 0.984 . S
H755 N751 0.985 . S
H756 N750 0.984 . S
H757 N750 0.984 . S
H758 N746 0.984 . S
H759 N746 0.985 . S
C473 C5 1.443 . S
C475 C123 1.443 . S
C491 C182 1.443 . S
C493 C64 1.443 . S
C509 C359 1.443 . S
C511 C241 1.443 . S
C527 C300 1.443 . S
C529 C418 1.443 . S
C545 C357 1.620 . S
C547 C3 1.620 . S
C563 C62 1.620 . S
C565 C416 1.620 . S
C581 C121 1.620 . S
C583 C239 1.620 . S
C599 C298 1.620 . S
C601 C180 1.620 . S
C617 C33 1.408 . S
C619 C328 1.408 . S
C635 C387 1.408 . S
C637 C92 1.408 . S
C653 C446 1.408 . S
C655 C151 1.408 . S
C671 C210 1.408 . S
C673 C269 1.408 . S
C689 C52 1.121 1_655 S
C691 C170 1.121 1_455 S
C707 C229 1.120 1_545 S
C709 C111 1.121 1_565 S
C725 C406 1.121 1_455 S
C727 C288 1.120 1_655 S
C743 C465 1.121 1_545 S
C745 C347 1.121 1_565 S
