# Generated by pormake.
# Topology nfa, (4)-cn, num edge types: 1
# Building blocks:
#     Node 0, Type 0, BuildingBlock: NAWXER_clean_sbu_0, # of connection points: 4
#     Node 1, Type 0, BuildingBlock: NAWXER_clean_sbu_0, # of connection points: 4
#     Node 2, Type 0, BuildingBlock: NAWXER_clean_sbu_0, # of connection points: 4
#     Node 3, Type 0, BuildingBlock: NAWXER_clean_sbu_0, # of connection points: 4
#     Node 4, Type 0, BuildingBlock: NAWXER_clean_sbu_0, # of connection points: 4
#     Node 5, Type 0, BuildingBlock: NAWXER_clean_sbu_0, # of connection points: 4
#     Node 6, Type 0, BuildingBlock: NAWXER_clean_sbu_0, # of connection points: 4
#     Node 7, Type 0, BuildingBlock: NAWXER_clean_sbu_0, # of connection points: 4
#     Node 8, Type 0, BuildingBlock: NAWXER_clean_sbu_0, # of connection points: 4
#     Node 9, Type 0, BuildingBlock: NAWXER_clean_sbu_0, # of connection points: 4
#     Node 10, Type 0, BuildingBlock: NAWXER_clean_sbu_0, # of connection points: 4
#     Node 11, Type 0, BuildingBlock: NAWXER_clean_sbu_0, # of connection points: 4
#     Node 12, Type 0, BuildingBlock: NAWXER_clean_sbu_0, # of connection points: 4
#     Node 13, Type 0, BuildingBlock: NAWXER_clean_sbu_0, # of connection points: 4
#     Node 14, Type 0, BuildingBlock: NAWXER_clean_sbu_0, # of connection points: 4
#     Node 15, Type 0, BuildingBlock: NAWXER_clean_sbu_0, # of connection points: 4
#     Node 16, Type 0, BuildingBlock: NAWXER_clean_sbu_0, # of connection points: 4
#     Node 17, Type 0, BuildingBlock: NAWXER_clean_sbu_0, # of connection points: 4
#     Node 18, Type 0, BuildingBlock: NAWXER_clean_sbu_0, # of connection points: 4
#     Node 19, Type 0, BuildingBlock: NAWXER_clean_sbu_0, # of connection points: 4
#     Node 20, Type 0, BuildingBlock: NAWXER_clean_sbu_0, # of connection points: 4
#     Node 21, Type 0, BuildingBlock: NAWXER_clean_sbu_0, # of connection points: 4
#     Node 22, Type 0, BuildingBlock: NAWXER_clean_sbu_0, # of connection points: 4
#     Node 23, Type 0, BuildingBlock: NAWXER_clean_sbu_0, # of connection points: 4
#     Edge 24, Type (0, 0), BuildingBlock: AJUNOK_clean_linker_0, # of connection points: 2
#     Edge 25, Type (0, 0), BuildingBlock: AJUNOK_clean_linker_0, # of connection points: 2
#     Edge 26, Type (0, 0), BuildingBlock: AJUNOK_clean_linker_0, # of connection points: 2
#     Edge 27, Type (0, 0), BuildingBlock: AJUNOK_clean_linker_0, # of connection points: 2
#     Edge 28, Type (0, 0), BuildingBlock: AJUNOK_clean_linker_0, # of connection points: 2
#     Edge 29, Type (0, 0), BuildingBlock: AJUNOK_clean_linker_0, # of connection points: 2
#     Edge 30, Type (0, 0), BuildingBlock: AJUNOK_clean_linker_0, # of connection points: 2
#     Edge 31, Type (0, 0), BuildingBlock: AJUNOK_clean_linker_0, # of connection points: 2
#     Edge 32, Type (0, 0), BuildingBlock: AJUNOK_clean_linker_0, # of connection points: 2
#     Edge 33, Type (0, 0), BuildingBlock: AJUNOK_clean_linker_0, # of connection points: 2
#     Edge 34, Type (0, 0), BuildingBlock: AJUNOK_clean_linker_0, # of connection points: 2
#     Edge 35, Type (0, 0), BuildingBlock: AJUNOK_clean_linker_0, # of connection points: 2
#     Edge 36, Type (0, 0), BuildingBlock: AJUNOK_clean_linker_0, # of connection points: 2
#     Edge 37, Type (0, 0), BuildingBlock: AJUNOK_clean_linker_0, # of connection points: 2
#     Edge 38, Type (0, 0), BuildingBlock: AJUNOK_clean_linker_0, # of connection points: 2
#     Edge 39, Type (0, 0), BuildingBlock: AJUNOK_clean_linker_0, # of connection points: 2
#     Edge 40, Type (0, 0), BuildingBlock: AJUNOK_clean_linker_0, # of connection points: 2
#     Edge 41, Type (0, 0), BuildingBlock: AJUNOK_clean_linker_0, # of connection points: 2
#     Edge 42, Type (0, 0), BuildingBlock: AJUNOK_clean_linker_0, # of connection points: 2
#     Edge 43, Type (0, 0), BuildingBlock: AJUNOK_clean_linker_0, # of connection points: 2
#     Edge 44, Type (0, 0), BuildingBlock: AJUNOK_clean_linker_0, # of connection points: 2
#     Edge 45, Type (0, 0), BuildingBlock: AJUNOK_clean_linker_0, # of connection points: 2
#     Edge 46, Type (0, 0), BuildingBlock: AJUNOK_clean_linker_0, # of connection points: 2
#     Edge 47, Type (0, 0), BuildingBlock: AJUNOK_clean_linker_0, # of connection points: 2
#     Edge 48, Type (0, 0), BuildingBlock: AJUNOK_clean_linker_0, # of connection points: 2
#     Edge 49, Type (0, 0), BuildingBlock: AJUNOK_clean_linker_0, # of connection points: 2
#     Edge 50, Type (0, 0), BuildingBlock: AJUNOK_clean_linker_0, # of connection points: 2
#     Edge 51, Type (0, 0), BuildingBlock: AJUNOK_clean_linker_0, # of connection points: 2
#     Edge 52, Type (0, 0), BuildingBlock: AJUNOK_clean_linker_0, # of connection points: 2
#     Edge 53, Type (0, 0), BuildingBlock: AJUNOK_clean_linker_0, # of connection points: 2
#     Edge 54, Type (0, 0), BuildingBlock: AJUNOK_clean_linker_0, # of connection points: 2
#     Edge 55, Type (0, 0), BuildingBlock: AJUNOK_clean_linker_0, # of connection points: 2
#     Edge 56, Type (0, 0), BuildingBlock: AJUNOK_clean_linker_0, # of connection points: 2
#     Edge 57, Type (0, 0), BuildingBlock: AJUNOK_clean_linker_0, # of connection points: 2
#     Edge 58, Type (0, 0), BuildingBlock: AJUNOK_clean_linker_0, # of connection points: 2
#     Edge 59, Type (0, 0), BuildingBlock: AJUNOK_clean_linker_0, # of connection points: 2
#     Edge 60, Type (0, 0), BuildingBlock: AJUNOK_clean_linker_0, # of connection points: 2
#     Edge 61, Type (0, 0), BuildingBlock: AJUNOK_clean_linker_0, # of connection points: 2
#     Edge 62, Type (0, 0), BuildingBlock: AJUNOK_clean_linker_0, # of connection points: 2
#     Edge 63, Type (0, 0), BuildingBlock: AJUNOK_clean_linker_0, # of connection points: 2
#     Edge 64, Type (0, 0), BuildingBlock: AJUNOK_clean_linker_0, # of connection points: 2
#     Edge 65, Type (0, 0), BuildingBlock: AJUNOK_clean_linker_0, # of connection points: 2
#     Edge 66, Type (0, 0), BuildingBlock: AJUNOK_clean_linker_0, # of connection points: 2
#     Edge 67, Type (0, 0), BuildingBlock: AJUNOK_clean_linker_0, # of connection points: 2
#     Edge 68, Type (0, 0), BuildingBlock: AJUNOK_clean_linker_0, # of connection points: 2
#     Edge 69, Type (0, 0), BuildingBlock: AJUNOK_clean_linker_0, # of connection points: 2
#     Edge 70, Type (0, 0), BuildingBlock: AJUNOK_clean_linker_0, # of connection points: 2
#     Edge 71, Type (0, 0), BuildingBlock: AJUNOK_clean_linker_0, # of connection points: 2
# Relax obj value: 0.171
# Max RMSD: 0.184
# Mean RMSD: 0.184
data_MOF--net-nfa--node1-NAWXER_clean_sbu_0--edge1-AJUNOK_clean_linker_0
_symmetry_space_group_name_H-M    P1
_symmetry_Int_Tables_number       1
_symmetry_cell_setting            triclinic
loop_
_symmetry_equiv_pos_as_xyz
'x, y, z'
_cell_length_a     29.262866
_cell_length_b     29.450865
_cell_length_c     29.247122
_cell_angle_alpha  89.90743
_cell_angle_beta   89.464383
_cell_angle_gamma 89.640168
loop_
_atom_site_label
_atom_site_type_symbol
_atom_site_fract_x
_atom_site_fract_y
_atom_site_fract_z
_atom_type_partial_charge
C0 C 0.15616 0.29965 0.41914 0.0
C1 C 0.1344 0.36893 0.26858 0.0
O2 O 0.12751 0.33273 0.41894 0.0
Zn3 Zn 0.09884 0.37983 0.37175 0.0
O4 O 0.17589 0.28792 0.38198 0.0
Zn5 Zn 0.14689 0.33186 0.34206 0.0
O6 O 0.17592 0.39347 0.36411 0.0
O7 O 0.12136 0.43822 0.39177 0.0
O8 O 0.1612 0.33571 0.27669 0.0
O9 O 0.11055 0.38655 0.30081 0.0
O10 O 0.03432 0.36534 0.37391 0.0
O11 O 0.07721 0.31122 0.34335 0.0
C12 C 0.16319 0.43128 0.38149 0.0
C13 C 0.03779 0.32619 0.35581 0.0
C14 C 0.95377 0.87113 0.63245 0.0
C15 C 0.8428 0.99274 0.63822 0.0
O16 O 0.95325 0.90752 0.60915 0.0
Zn17 Zn 0.89514 0.92955 0.63128 0.0
O18 O 0.91866 0.86056 0.65674 0.0
Zn19 Zn 0.8542 0.89092 0.67588 0.0
O20 O 0.80731 0.85248 0.65144 0.0
O21 O 0.84387 0.88935 0.59704 0.0
O22 O 0.83009 0.95871 0.66251 0.0
O23 O 0.87881 0.99033 0.61389 0.0
O24 O 0.90969 0.93533 0.70413 0.0
O25 O 0.86098 0.89126 0.74107 0.0
C26 C 0.81209 0.8619 0.60937 0.0
C27 C 0.89468 0.91828 0.74183 0.0
C28 C 0.37364 0.67464 0.92939 0.0
C29 C 0.34958 0.5658 0.80565 0.0
O30 O 0.40133 0.64079 0.92992 0.0
Zn31 Zn 0.41761 0.58295 0.88898 0.0
O32 O 0.34279 0.6771 0.89902 0.0
Zn33 Zn 0.36001 0.62316 0.86504 0.0
O34 O 0.34324 0.56858 0.90892 0.0
O35 O 0.40507 0.52988 0.92805 0.0
O36 O 0.32709 0.60268 0.8108 0.0
O37 O 0.3843 0.55787 0.83065 0.0
O38 O 0.47873 0.60008 0.8666 0.0
O39 O 0.42419 0.64461 0.84068 0.0
C40 C 0.36167 0.53445 0.92877 0.0
C41 C 0.46668 0.63513 0.84395 0.0
C42 C 0.6228 0.14684 0.20583 0.0
C43 C 0.70115 0.16334 0.05748 0.0
O44 O 0.65654 0.17244 0.19677 0.0
Zn45 Zn 0.66107 0.15757 0.1319 0.0
O46 O 0.6054 0.1226 0.17419 0.0
Zn47 Zn 0.61456 0.11093 0.10214 0.0
O48 O 0.62879 0.04562 0.10065 0.0
O49 O 0.68221 0.08764 0.13179 0.0
O50 O 0.66644 0.13692 0.05533 0.0
O51 O 0.70942 0.18374 0.09476 0.0
O52 O 0.5991 0.18828 0.10831 0.0
O53 O 0.55569 0.13417 0.08049 0.0
C54 C 0.66806 0.04864 0.11881 0.0
C55 C 0.56125 0.17569 0.09088 0.0
C56 C 0.21596 0.60186 0.12984 0.0
C57 C 0.06162 0.65303 0.17215 0.0
O58 O 0.20417 0.63094 0.15985 0.0
Zn59 Zn 0.13893 0.62589 0.15149 0.0
O60 O 0.18518 0.58351 0.105 0.0
Zn61 Zn 0.11094 0.58482 0.10017 0.0
O62 O 0.10126 0.60654 0.03899 0.0
O63 O 0.12671 0.65859 0.08678 0.0
O64 O 0.06095 0.62507 0.13848 0.0
O65 O 0.09935 0.66051 0.1918 0.0
O66 O 0.13006 0.55585 0.1698 0.0
O67 O 0.09622 0.52193 0.11217 0.0
C68 C 0.11193 0.64743 0.04721 0.0
C69 C 0.11441 0.51975 0.15134 0.0
C70 C 0.58329 0.84661 0.33373 0.0
C71 C 0.67538 0.82786 0.47208 0.0
O72 O 0.61872 0.82189 0.33829 0.0
Zn73 Zn 0.63022 0.83611 0.40221 0.0
O74 O 0.56925 0.87136 0.36704 0.0
Zn75 Zn 0.58736 0.8843 0.43683 0.0
O76 O 0.60401 0.94842 0.4376 0.0
O77 O 0.65374 0.9043 0.40171 0.0
O78 O 0.64164 0.85546 0.47746 0.0
O79 O 0.68107 0.80777 0.43395 0.0
O80 O 0.57036 0.80864 0.43378 0.0
O81 O 0.53188 0.86455 0.46703 0.0
C82 C 0.64231 0.94341 0.41724 0.0
C83 C 0.53523 0.82285 0.45614 0.0
C84 C 0.35391 0.49726 0.56448 0.0
C85 C 0.43217 0.36094 0.62029 0.0
O86 O 0.32705 0.46402 0.57241 0.0
Zn87 Zn 0.33026 0.39615 0.59695 0.0
O88 O 0.39694 0.49135 0.5665 0.0
Zn89 Zn 0.39516 0.42845 0.58769 0.0
O90 O 0.37495 0.3858 0.53222 0.0
O91 O 0.30598 0.35974 0.54835 0.0
O92 O 0.45022 0.39817 0.60762 0.0
O93 O 0.38863 0.35651 0.61832 0.0
O94 O 0.29486 0.4054 0.65311 0.0
O95 O 0.36147 0.44074 0.65067 0.0
C96 C 0.34042 0.36151 0.52168 0.0
C97 C 0.32376 0.43196 0.67101 0.0
C98 C 0.82903 0.14548 0.90437 0.0
C99 C 0.9109 0.11466 0.75999 0.0
O100 O 0.82192 0.16255 0.86512 0.0
Zn101 Zn 0.86993 0.13024 0.832 0.0
O102 O 0.86169 0.11654 0.9093 0.0
Zn103 Zn 0.91223 0.08266 0.86576 0.0
O104 O 0.97017 0.09934 0.89101 0.0
O105 O 0.93242 0.15656 0.85978 0.0
O106 O 0.9258 0.09047 0.79327 0.0
O107 O 0.8783 0.14254 0.76697 0.0
O108 O 0.84445 0.06205 0.83551 0.0
O109 O 0.8951 0.02035 0.87275 0.0
C110 C 0.96785 0.14105 0.88036 0.0
C111 C 0.85714 0.02393 0.85248 0.0
C112 C 0.48327 0.144 0.34283 0.0
C113 C 0.34227 0.08618 0.41301 0.0
O114 O 0.47914 0.11702 0.37657 0.0
Zn115 Zn 0.41313 0.11629 0.37824 0.0
O116 O 0.44731 0.16182 0.32515 0.0
Zn117 Zn 0.37341 0.15668 0.33427 0.0
O118 O 0.35472 0.21708 0.35079 0.0
O119 O 0.39452 0.18236 0.4042 0.0
O120 O 0.33396 0.11528 0.38137 0.0
O121 O 0.38349 0.07573 0.42147 0.0
O122 O 0.40079 0.08807 0.31152 0.0
O123 O 0.35548 0.13586 0.27472 0.0
C124 C 0.37185 0.21721 0.39047 0.0
C125 C 0.37914 0.09962 0.27536 0.0
C126 C 0.15705 0.17945 0.57413 0.0
C127 C 0.16999 0.05434 0.68275 0.0
O128 O 0.17631 0.18074 0.6129 0.0
Zn129 Zn 0.16279 0.11846 0.62946 0.0
O130 O 0.13624 0.14363 0.56125 0.0
Zn131 Zn 0.12425 0.07592 0.58553 0.0
O132 O 0.05773 0.07316 0.59345 0.0
O133 O 0.09028 0.12012 0.64164 0.0
O134 O 0.14779 0.04351 0.6468 0.0
O135 O 0.18544 0.09434 0.68667 0.0
O136 O 0.20208 0.08441 0.57685 0.0
O137 O 0.15483 0.04328 0.53586 0.0
C138 C 0.05414 0.10135 0.62621 0.0
C139 C 0.19492 0.05828 0.54265 0.0
C140 C 0.15214 0.92706 0.83337 0.0
C141 C 0.09827 0.80002 0.92451 0.0
O142 O 0.16004 0.88491 0.82929 0.0
Zn143 Zn 0.12566 0.86365 0.88102 0.0
O144 O 0.12948 0.9413 0.86839 0.0
Zn145 Zn 0.09596 0.9102 0.92693 0.0
O146 O 0.1292 0.93058 0.97992 0.0
O147 O 0.16591 0.87757 0.94072 0.0
O148 O 0.0869 0.83834 0.9425 0.0
O149 O 0.11953 0.79939 0.88646 0.0
O150 O 0.0569 0.88471 0.86586 0.0
O151 O 0.0339 0.9318 0.92039 0.0
C152 C 0.16273 0.90327 0.97597 0.0
C153 C 0.02603 0.91034 0.88373 0.0
C154 C 0.40006 0.96309 0.13966 0.0
C155 C 0.41461 0.82194 0.05305 0.0
O156 O 0.38162 0.9285 0.15867 0.0
Zn157 Zn 0.37497 0.85732 0.14838 0.0
O158 O 0.4233 0.95872 0.10284 0.0
Zn159 Zn 0.4136 0.89366 0.09692 0.0
O160 O 0.34138 0.89292 0.08791 0.0
O161 O 0.30861 0.85274 0.14312 0.0
O162 O 0.43279 0.85976 0.04263 0.0
O163 O 0.39415 0.81738 0.09154 0.0
O164 O 0.40889 0.83202 0.19978 0.0
O165 O 0.45388 0.86946 0.15243 0.0
C166 C 0.30551 0.87667 0.1069 0.0
C167 C 0.44833 0.8473 0.18977 0.0
C168 C 0.42718 0.3205 0.11359 0.0
C169 C 0.35796 0.47059 0.13604 0.0
O170 O 0.42982 0.35618 0.08941 0.0
Zn171 Zn 0.39147 0.39606 0.12556 0.0
O172 O 0.40137 0.32088 0.14942 0.0
Zn173 Zn 0.35746 0.3706 0.18376 0.0
O174 O 0.29584 0.34658 0.17999 0.0
O175 O 0.32209 0.37465 0.11485 0.0
O176 O 0.34566 0.44208 0.16709 0.0
O177 O 0.38583 0.45825 0.10482 0.0
O178 O 0.42788 0.40221 0.18942 0.0
O179 O 0.38349 0.37467 0.24401 0.0
C180 C 0.28945 0.35732 0.13851 0.0
C181 C 0.42086 0.39296 0.23189 0.0
C182 C 0.90966 0.92666 0.20668 0.0
C183 C 0.90865 0.84946 0.0563 0.0
O184 O 0.93766 0.93304 0.17372 0.0
Zn185 Zn 0.9127 0.88767 0.13169 0.0
O186 O 0.88012 0.89475 0.20369 0.0
Zn187 Zn 0.85856 0.84421 0.15462 0.0
O188 O 0.8753 0.78521 0.18119 0.0
O189 O 0.93551 0.82505 0.16035 0.0
O190 O 0.8794 0.83385 0.085 0.0
O191 O 0.93515 0.88132 0.06827 0.0
O192 O 0.84431 0.91373 0.12393 0.0
O193 O 0.79447 0.86255 0.14749 0.0
C194 C 0.91846 0.78867 0.17712 0.0
C195 C 0.80273 0.90191 0.13144 0.0
C196 C 0.09921 0.62478 0.68741 0.0
C197 C 0.13817 0.67772 0.53148 0.0
O198 O 0.13019 0.65544 0.68622 0.0
Zn199 Zn 0.16895 0.69266 0.63599 0.0
O200 O 0.08574 0.60774 0.64993 0.0
Zn201 Zn 0.11974 0.64614 0.60707 0.0
O202 O 0.18758 0.62217 0.6059 0.0
O203 O 0.23325 0.67152 0.63843 0.0
O204 O 0.10942 0.64653 0.54082 0.0
O205 O 0.16081 0.69593 0.56375 0.0
O206 O 0.15018 0.75497 0.65015 0.0
O207 O 0.09466 0.71133 0.62422 0.0
C208 C 0.22786 0.63469 0.61644 0.0
C209 C 0.10841 0.74945 0.63951 0.0
C210 C 0.62445 0.84372 0.94705 0.0
C211 C 0.58772 0.92548 0.80523 0.0
O212 O 0.59486 0.87485 0.94105 0.0
Zn213 Zn 0.60452 0.88241 0.87579 0.0
O214 O 0.64753 0.82867 0.91263 0.0
Zn215 Zn 0.6507 0.84134 0.83911 0.0
O216 O 0.71317 0.85744 0.8296 0.0
O217 O 0.67406 0.90681 0.87166 0.0
O218 O 0.61653 0.89308 0.79797 0.0
O219 O 0.57136 0.9308 0.84523 0.0
O220 O 0.57659 0.81985 0.8498 0.0
O221 O 0.63288 0.7835 0.81454 0.0
C222 C 0.7116 0.89397 0.8525 0.0
C223 C 0.59158 0.78497 0.82788 0.0
C224 C 0.89677 0.05624 0.35825 0.0
C225 C 0.8807 0.14498 0.5016 0.0
O226 O 0.92108 0.05234 0.39395 0.0
Zn227 Zn 0.89036 0.09994 0.43008 0.0
O228 O 0.8659 0.0874 0.35668 0.0
Zn229 Zn 0.83747 0.14042 0.40045 0.0
O230 O 0.85272 0.19672 0.36898 0.0
O231 O 0.91248 0.15947 0.3958 0.0
O232 O 0.85254 0.15728 0.47052 0.0
O233 O 0.90873 0.11281 0.49324 0.0
O234 O 0.8223 0.07301 0.43465 0.0
O235 O 0.77443 0.1213 0.40226 0.0
C236 C 0.89563 0.19361 0.37454 0.0
C237 C 0.78171 0.08341 0.42177 0.0
C238 C 0.69455 0.11889 0.63034 0.0
C239 C 0.5561 0.20848 0.64592 0.0
O240 O 0.68784 0.15392 0.65485 0.0
Zn241 Zn 0.62468 0.1608 0.64061 0.0
O242 O 0.66165 0.1019 0.60738 0.0
Zn243 Zn 0.58962 0.11584 0.59755 0.0
O244 O 0.58757 0.12508 0.53148 0.0
O245 O 0.62842 0.17614 0.56812 0.0
O246 O 0.54951 0.17344 0.62077 0.0
O247 O 0.59425 0.21326 0.66542 0.0
O248 O 0.59748 0.10248 0.67588 0.0
O249 O 0.56244 0.06127 0.62449 0.0
C250 C 0.61284 0.16007 0.53064 0.0
C251 C 0.57555 0.06645 0.66545 0.0
C252 C 0.1441 0.35595 0.0148 0.0
C253 C 0.09143 0.39431 0.86001 0.0
O254 O 0.16568 0.33561 0.98248 0.0
Zn255 Zn 0.16829 0.33328 0.90962 0.0
O256 O 0.11177 0.38355 1.00539 0.0
Zn257 Zn 0.1172 0.37836 0.93919 0.0
O258 O 0.09581 0.31142 0.92742 0.0
O259 O 0.15178 0.26954 0.89855 0.0
O260 O 0.07737 0.41119 0.89769 0.0
O261 O 0.12528 0.36642 0.86022 0.0
O262 O 0.23044 0.35834 0.90043 0.0
O263 O 0.18221 0.40744 0.93087 0.0
C264 C 0.11028 0.2734 0.9118 0.0
C265 C 0.22279 0.39735 0.91786 0.0
C266 C 0.26214 0.68698 0.38669 0.0
C267 C 0.39113 0.64708 0.28519 0.0
O268 O 0.26873 0.70232 0.34644 0.0
Zn269 Zn 0.326 0.66926 0.33621 0.0
O270 O 0.292 0.66108 0.40536 0.0
Zn271 Zn 0.35584 0.6281 0.38771 0.0
O272 O 0.39709 0.6529 0.4314 0.0
O273 O 0.37226 0.70376 0.38172 0.0
O274 O 0.39493 0.62993 0.32532 0.0
O275 O 0.35593 0.67065 0.27589 0.0
O276 O 0.29883 0.60208 0.34284 0.0
O277 O 0.33775 0.56555 0.39557 0.0
C278 C 0.39665 0.69346 0.41661 0.0
C279 C 0.30494 0.56659 0.3674 0.0
C280 C 0.90365 0.721 0.90831 0.0
C281 C 0.84961 0.59473 0.81238 0.0
O282 O 0.87935 0.72402 0.87255 0.0
Zn283 Zn 0.87697 0.65954 0.8561 0.0
O284 O 0.91841 0.68183 0.92071 0.0
Zn285 Zn 0.91337 0.61262 0.89959 0.0
O286 O 0.97553 0.59433 0.88059 0.0
O287 O 0.94398 0.64267 0.83231 0.0
O288 O 0.87513 0.5832 0.84576 0.0
O289 O 0.84187 0.63663 0.80419 0.0
O290 O 0.83766 0.63138 0.91111 0.0
O291 O 0.88109 0.58534 0.9518 0.0
C292 C 0.97759 0.6172 0.84367 0.0
C293 C 0.8422 0.60367 0.94457 0.0
C294 C 0.63763 0.72272 0.10086 0.0
C295 C 0.67447 0.58893 0.19544 0.0
O296 O 0.66244 0.72229 0.13636 0.0
Zn297 Zn 0.65484 0.6578 0.15226 0.0
O298 O 0.61782 0.68627 0.08831 0.0
Zn299 Zn 0.61364 0.61687 0.10795 0.0
O300 O 0.54852 0.60963 0.12347 0.0
O301 O 0.58502 0.65095 0.17401 0.0
O302 O 0.6476 0.58084 0.16205 0.0
O303 O 0.68685 0.6296 0.20319 0.0
O304 O 0.69073 0.62652 0.09692 0.0
O305 O 0.64247 0.58829 0.0542 0.0
C306 C 0.5481 0.63207 0.16064 0.0
C307 C 0.68308 0.60126 0.06235 0.0
C308 C 0.65139 0.29396 0.39479 0.0
C309 C 0.69655 0.43364 0.31338 0.0
O310 O 0.67638 0.29558 0.35894 0.0
Zn311 Zn 0.67797 0.36185 0.35286 0.0
O312 O 0.63761 0.33081 0.41369 0.0
Zn313 Zn 0.64234 0.40238 0.40406 0.0
O314 O 0.57775 0.41849 0.39442 0.0
O315 O 0.60897 0.37832 0.33838 0.0
O316 O 0.67345 0.44007 0.35019 0.0
O317 O 0.70743 0.39332 0.30152 0.0
O318 O 0.71862 0.3801 0.40943 0.0
O319 O 0.67758 0.42207 0.45704 0.0
C320 C 0.57463 0.39973 0.35531 0.0
C321 C 0.71527 0.40263 0.44669 0.0
C322 C 0.97306 0.3852 0.70153 0.0
C323 C 0.86199 0.40136 0.57728 0.0
O324 O 0.98203 0.39819 0.66092 0.0
Zn325 Zn 0.92074 0.38968 0.63511 0.0
O326 O 0.93342 0.36929 0.71087 0.0
Zn327 Zn 0.86976 0.35851 0.6778 0.0
O328 O 0.86171 0.2929 0.6718 0.0
O329 O 0.91396 0.31803 0.62358 0.0
O330 O 0.84669 0.38109 0.61286 0.0
O331 O 0.90382 0.41297 0.57478 0.0
O332 O 0.88064 0.435 0.67704 0.0
O333 O 0.8304 0.39538 0.71712 0.0
C334 C 0.88964 0.28528 0.63905 0.0
C335 C 0.8478 0.43357 0.70632 0.0
C336 C 0.13025 0.27881 0.49808 0.0
C337 C 0.16221 0.27326 0.46197 0.0
C338 C 0.13064 0.25026 0.53646 0.0
C339 C 0.16347 0.21577 0.54042 0.0
H340 H 0.10313 0.30389 0.49577 0.0
H341 H 0.10379 0.25374 0.56201 0.0
S342 S 0.25785 0.18993 0.45901 0.0
N343 N 0.2301 0.23273 0.43517 0.0
N344 N 0.23062 0.17915 0.50752 0.0
C345 C 0.19717 0.21135 0.50619 0.0
C346 C 0.1967 0.24018 0.46693 0.0
C347 C 0.9162 0.89318 0.82071 0.0
C348 C 0.92101 0.92456 0.78447 0.0
C349 C 0.9485 0.89087 0.85587 0.0
C350 C 0.98561 0.92077 0.85648 0.0
H351 H 0.88949 0.8679 0.82013 0.0
H352 H 0.94603 0.86386 0.88097 0.0
S353 S 0.01031 0.01329 0.77448 0.0
N354 N 0.96361 0.98922 0.75487 0.0
N355 N 0.02314 0.98534 0.82163 0.0
C356 C 0.98847 0.95482 0.82322 0.0
C357 C 0.9563 0.95675 0.78707 0.0
C358 C 0.40884 0.73969 0.03472 0.0
C359 C 0.40968 0.785 0.01936 0.0
C360 C 0.3963 0.70424 1.00558 0.0
C361 C 0.3826 0.71295 0.96046 0.0
H362 H 0.41742 0.73164 0.06979 0.0
H363 H 0.39679 0.66978 0.01863 0.0
S364 S 0.38004 0.82531 0.90308 0.0
N365 N 0.39704 0.83645 0.95557 0.0
N366 N 0.37244 0.76981 0.90105 0.0
C367 C 0.38365 0.75798 0.94447 0.0
C368 C 0.39755 0.794 0.97383 0.0
C369 C 0.53657 0.18788 0.29242 0.0
C370 C 0.5275 0.14836 0.31801 0.0
C371 C 0.57155 0.18872 0.25921 0.0
C372 C 0.59803 0.1498 0.24985 0.0
H373 H 0.5147 0.2175 0.29614 0.0
H374 H 0.57526 0.21877 0.23809 0.0
S375 S 0.59098 0.03907 0.30955 0.0
N376 N 0.551 0.07059 0.33436 0.0
N377 N 0.61533 0.0719 0.27062 0.0
C378 C 0.59133 0.11108 0.27699 0.0
C379 C 0.5565 0.11048 0.31158 0.0
C380 C 0.08113 0.7618 0.99848 0.0
C381 C 0.09402 0.75803 0.95214 0.0
C382 C 0.08627 0.72533 0.02855 0.0
C383 C 0.10353 0.68337 0.01335 0.0
H384 H 0.06917 0.79384 0.01243 0.0
H385 H 0.07741 0.73033 0.06427 0.0
S386 S 0.13689 0.65337 0.89474 0.0
N387 N 0.12128 0.70731 0.89178 0.0
N388 N 0.12957 0.63827 0.94871 0.0
C389 C 0.11338 0.67778 0.9667 0.0
C390 C 0.10892 0.71526 0.93596 0.0
C391 C 0.51881 0.8109 0.29263 0.0
C392 C 0.55425 0.84293 0.29301 0.0
C393 C 0.48554 0.8114 0.25825 0.0
C394 C 0.48663 0.84393 0.22289 0.0
H395 H 0.51577 0.78637 0.32015 0.0
H396 H 0.45819 0.78683 0.26004 0.0
S397 S 0.57305 0.93529 0.2092 0.0
N398 N 0.58885 0.9078 0.25576 0.0
N399 N 0.52722 0.90885 0.19061 0.0
C400 C 0.52295 0.87539 0.22241 0.0
C401 C 0.55646 0.87498 0.2577 0.0
C402 C 0.37203 0.28744 0.49874 0.0
C403 C 0.34684 0.32624 0.48686 0.0
C404 C 0.38027 0.25281 0.46713 0.0
C405 C 0.36381 0.25579 0.42213 0.0
H406 H 0.38552 0.28383 0.5329 0.0
H407 H 0.39953 0.22338 0.47836 0.0
S408 S 0.29687 0.352 0.37401 0.0
N409 N 0.30615 0.36678 0.42759 0.0
N410 N 0.32148 0.30179 0.36728 0.0
C411 C 0.33872 0.29493 0.40972 0.0
C412 C 0.33023 0.33017 0.44232 0.0
C413 C 0.97977 0.07254 0.65835 0.0
C414 C 0.01 0.10892 0.65077 0.0
C415 C 0.94431 0.07583 0.69111 0.0
C416 C 0.93768 0.11564 0.71686 0.0
H417 H 0.98561 0.04026 0.64151 0.0
H418 H 0.92344 0.04634 0.69801 0.0
S419 S 1.00132 0.22325 0.70348 0.0
N420 N 0.0264 0.18809 0.66698 0.0
N421 N 0.9597 0.19409 0.72797 0.0
C422 C 0.9645 0.15359 0.70617 0.0
C423 C 1.0008 0.15021 0.67333 0.0
C424 C 0.28049 0.56204 0.08971 0.0
C425 C 0.26232 0.58118 0.13005 0.0
C426 C 0.31577 0.52943 0.09111 0.0
C427 C 0.3335 0.51459 0.13315 0.0
H428 H 0.26487 0.56975 0.05726 0.0
H429 H 0.32592 0.51272 0.0596 0.0
S430 S 0.30478 0.56066 0.2472 0.0
N431 N 0.27025 0.58822 0.21238 0.0
N432 N 0.33602 0.52657 0.21487 0.0
C433 C 0.3192 0.53702 0.17303 0.0
C434 C 0.2838 0.57057 0.17156 0.0
C435 C 0.81111 0.96546 0.81345 0.0
C436 C 0.82443 0.98668 0.85399 0.0
C437 C 0.776 0.93337 0.81372 0.0
C438 C 0.75171 0.92355 0.85421 0.0
H439 H 0.8273 0.97444 0.78132 0.0
H440 H 0.76629 0.9179 0.78168 0.0
S441 S 0.77267 0.9717 0.96904 0.0
N442 N 0.81149 0.99569 0.93562 0.0
N443 N 0.743 0.93783 0.93567 0.0
C444 C 0.76443 0.94505 0.89488 0.0
C445 C 0.80149 0.9761 0.8949 0.0
C446 C 0.69901 0.05972 0.42262 0.0
C447 C 0.74583 0.04817 0.42299 0.0
C448 C 0.66524 0.0259 0.42075 0.0
C449 C 0.6773 0.97962 0.41778 0.0
H450 H 0.68845 0.09501 0.42391 0.0
H451 H 0.62958 0.03605 0.42105 0.0
S452 S 0.79533 0.93181 0.41699 0.0
N453 N 0.80228 0.98717 0.4203 0.0
N454 N 0.73959 0.92429 0.41585 0.0
C455 C 0.72409 0.9679 0.41793 0.0
C456 C 0.75812 1.00199 0.4208 0.0
C457 C 0.74655 0.01785 0.12971 0.0
C458 C 0.69998 0.00911 0.12197 0.0
C459 C 0.7788 0.98286 0.13188 0.0
C460 C 0.76637 0.93711 0.12704 0.0
H461 H 0.75864 0.05225 0.13373 0.0
H462 H 0.81403 0.99203 0.13824 0.0
S463 S 0.6492 0.89505 0.10583 0.0
N464 N 0.64301 0.95081 0.10868 0.0
N465 N 0.7041 0.88455 0.11395 0.0
C466 C 0.71995 0.92738 0.11951 0.0
C467 C 0.68681 0.96348 0.11657 0.0
C468 C 0.30761 0.60149 0.62154 0.0
C469 C 0.26682 0.60804 0.59735 0.0
C470 C 0.34024 0.56916 0.60665 0.0
C471 C 0.33305 0.54284 0.5671 0.0
H472 H 0.31272 0.6187 0.65377 0.0
H473 H 0.36882 0.56151 0.62872 0.0
S474 S 0.23671 0.55434 0.48689 0.0
N475 N 0.22519 0.59139 0.52768 0.0
N476 N 0.28562 0.53013 0.50107 0.0
C477 C 0.29481 0.5526 0.54044 0.0
C478 C 0.2619 0.58535 0.55525 0.0
C479 C 0.23927 0.46112 0.40209 0.0
C480 C 0.19662 0.46809 0.38167 0.0
C481 C 0.27502 0.49199 0.39561 0.0
C482 C 0.26916 0.53111 0.36851 0.0
H483 H 0.24483 0.43152 0.42325 0.0
H484 H 0.30711 0.48551 0.41266 0.0
S485 S 0.16403 0.56233 0.30454 0.0
N486 N 0.15079 0.51474 0.33127 0.0
N487 N 0.21707 0.5736 0.31925 0.0
C488 C 0.22647 0.53784 0.34717 0.0
C489 C 0.19029 0.50632 0.35397 0.0
C490 C 0.34104 0.45208 0.92559 0.0
C491 C 0.3305 0.49651 0.9402 0.0
C492 C 0.30634 0.41977 0.91877 0.0
C493 C 0.25997 0.43067 0.92687 0.0
H494 H 0.37576 0.44329 0.91581 0.0
H495 H 0.31581 0.38663 0.90566 0.0
S496 S 0.21573 0.54074 0.97242 0.0
N497 N 0.27139 0.54804 0.96747 0.0
N498 N 0.20659 0.48817 0.95573 0.0
C499 C 0.24977 0.47398 0.94526 0.0
C500 C 0.28491 0.50652 0.95193 0.0
C501 C 0.58929 0.80548 0.01488 0.0
C502 C 0.62875 0.82102 0.99211 0.0
C503 C 0.59243 0.77611 0.05264 0.0
C504 C 0.6351 0.76255 0.07001 0.0
H505 H 0.55577 0.81345 1.0015 0.0
H506 H 0.56127 0.76216 0.06703 0.0
S507 S 0.74851 0.79887 0.02645 0.0
N508 N 0.7117 0.82385 0.99186 0.0
N509 N 0.71753 0.77024 0.06409 0.0
C510 C 0.67471 0.78077 0.04979 0.0
C511 C 0.67156 0.80958 0.01046 0.0
C512 C 0.53994 0.40623 0.27876 0.0
C513 C 0.53357 0.40405 0.32646 0.0
C514 C 0.50306 0.40457 0.24891 0.0
C515 C 0.45804 0.4 0.26532 0.0
H516 H 0.57405 0.4083 0.26415 0.0
H517 H 0.5103 0.40511 0.21251 0.0
S518 S 0.42241 0.39693 0.38759 0.0
N519 N 0.47871 0.4005 0.38914 0.0
N520 N 0.40874 0.39666 0.33287 0.0
C521 C 0.45082 0.39968 0.31313 0.0
C522 C 0.48871 0.40203 0.34373 0.0
C523 C 0.92811 0.22494 0.59108 0.0
C524 C 0.88833 0.24203 0.6127 0.0
C525 C 0.92589 0.19026 0.55797 0.0
C526 C 0.88364 0.17241 0.54422 0.0
H527 H 0.96099 0.23988 0.59831 0.0
H528 H 0.95711 0.17979 0.54069 0.0
S529 S 0.77002 0.20346 0.59207 0.0
N530 N 0.80589 0.23608 0.61995 0.0
N531 N 0.80172 0.17207 0.55724 0.0
C532 C 0.84405 0.18754 0.56725 0.0
C533 C 0.84638 0.222 0.60162 0.0
C534 C 0.04882 0.64526 0.80612 0.0
C535 C 0.01546 0.61151 0.81033 0.0
C536 C 0.07819 0.64692 0.76785 0.0
C537 C 0.07437 0.61571 0.73142 0.0
H538 H 0.05059 0.67201 0.83141 0.0
H539 H 0.10202 0.67484 0.76556 0.0
S540 S 0.99336 0.51917 0.72763 0.0
N541 N 0.98151 0.54467 0.77664 0.0
N542 N 0.03575 0.54808 0.70414 0.0
C543 C 0.04225 0.58051 0.73638 0.0
C544 C 0.01292 0.57847 0.77585 0.0
C545 C 0.59652 0.23984 0.43085 0.0
C546 C 0.64182 0.25086 0.41879 0.0
C547 C 0.58703 0.20668 0.46425 0.0
C548 C 0.62263 0.18465 0.48761 0.0
H549 H 0.56834 0.2588 0.41624 0.0
H550 H 0.55183 0.20097 0.4744 0.0
S551 S 0.74651 0.19976 0.46683 0.0
N552 N 0.72215 0.23489 0.43031 0.0
N553 N 0.70452 0.1741 0.49451 0.0
C554 C 0.66785 0.19372 0.47416 0.0
C555 C 0.67741 0.22645 0.43931 0.0
C556 C 0.01654 0.40707 0.82138 0.0
C557 C 0.06394 0.39949 0.81763 0.0
C558 C 0.98797 0.40299 0.78339 0.0
C559 C 0.00552 0.39214 0.7397 0.0
H560 H 1.0009 0.41384 0.85441 0.0
H561 H 0.95153 0.40784 0.78849 0.0
S562 S 0.12769 0.37407 0.71013 0.0
N563 N 0.1276 0.38367 0.76579 0.0
N564 N 0.07377 0.37755 0.69412 0.0
C565 C 0.05308 0.38726 0.73473 0.0
C566 C 0.08226 0.39048 0.77373 0.0
C567 C 0.94501 0.75843 0.97289 0.0
C568 C 0.91084 0.76067 0.93918 0.0
C569 C 0.94675 0.79029 0.00859 0.0
C570 C 0.91436 0.82556 0.01211 0.0
H571 H 0.96928 0.7305 0.97311 0.0
H572 H 0.97173 0.78543 0.03532 0.0
S573 S 0.82141 0.84999 0.93052 0.0
N574 N 0.84671 0.80421 0.90954 0.0
N575 N 0.84952 0.86324 0.97732 0.0
C576 C 0.88193 0.83003 0.9773 0.0
C577 C 0.88044 0.79794 0.94054 0.0
C578 C 0.47467 0.64077 0.26819 0.0
C579 C 0.42962 0.64218 0.25184 0.0
C580 C 0.51228 0.63768 0.23827 0.0
C581 C 0.50665 0.63468 0.19061 0.0
H582 H 0.48108 0.643 0.30455 0.0
H583 H 0.54621 0.63724 0.25281 0.0
S584 S 0.3957 0.63541 0.1301 0.0
N585 N 0.38135 0.64007 0.18469 0.0
N586 N 0.45213 0.63252 0.1284 0.0
C587 C 0.46174 0.63513 0.17366 0.0
C588 C 0.42326 0.63944 0.20425 0.0
C589 C 0.7932 0.04422 0.5934 0.0
C590 C 0.81267 0.03246 0.63552 0.0
C591 C 0.75605 0.07436 0.59154 0.0
C592 C 0.73846 0.09457 0.63157 0.0
H593 H 0.80454 0.02759 0.56223 0.0
H594 H 0.73995 0.08064 0.55888 0.0
S595 S 0.78104 0.07823 0.74929 0.0
N596 N 0.81414 0.04519 0.71741 0.0
N597 N 0.74549 0.10352 0.71375 0.0
C598 C 0.76003 0.08569 0.6733 0.0
C599 C 0.79693 0.05408 0.67533 0.0
C600 C 0.16237 0.47013 0.20035 0.0
C601 C 0.12282 0.47559 0.17379 0.0
C602 C 0.16978 0.43063 0.22586 0.0
C603 C 0.13744 0.39567 0.22651 0.0
H604 H 0.18709 0.49726 0.20275 0.0
H605 H 0.19867 0.4295 0.24879 0.0
S606 S 0.03137 0.3907 0.15877 0.0
N607 N 0.05394 0.44028 0.14517 0.0
N608 N 0.06671 0.36687 0.19561 0.0
C609 C 0.09956 0.39916 0.19763 0.0
C610 C 0.09252 0.43898 0.17061 0.0
C611 C 0.79 0.84396 0.52847 0.0
C612 C 0.77853 0.84521 0.57536 0.0
C613 C 0.75706 0.83408 0.49526 0.0
C614 C 0.71115 0.82642 0.50758 0.0
H615 H 0.82439 0.85196 0.51721 0.0
H616 H 0.76701 0.83535 0.45952 0.0
S617 S 0.66391 0.82168 0.62542 0.0
N618 N 0.71843 0.83379 0.63233 0.0
N619 N 0.6565 0.81742 0.56969 0.0
C620 C 0.69962 0.82559 0.55425 0.0
C621 C 0.7333 0.83439 0.58817 0.0
C622 C 0.30645 0.53785 0.73717 0.0
C623 C 0.33389 0.52884 0.77534 0.0
C624 C 0.29683 0.50334 0.7056 0.0
C625 C 0.31367 0.45886 0.71177 0.0
H626 H 0.29496 0.57215 0.73006 0.0
H627 H 0.27971 0.51242 0.67415 0.0
S628 S 0.3798 0.41568 0.80969 0.0
N629 N 0.3721 0.47019 0.82052 0.0
N630 N 0.35396 0.40637 0.76074 0.0
C631 C 0.33715 0.44856 0.75173 0.0
C632 C 0.34734 0.48335 0.78364 0.0
C633 C 0.75013 0.15952 0.9362 0.0
C634 C 0.79754 0.15556 0.9434 0.0
C635 C 0.7191 0.16333 0.97315 0.0
C636 C 0.73438 0.1649 0.01863 0.0
H637 H 0.7367 0.15757 0.90187 0.0
H638 H 0.68283 0.16435 0.9661 0.0
S639 S 0.8552 0.15804 0.05574 0.0
N640 N 0.85822 0.15444 0.99944 0.0
N641 N 0.80034 0.16344 0.06854 0.0
C642 C 0.78182 0.16282 0.02611 0.0
C643 C 0.81326 0.15765 0.98862 0.0
C644 C 0.31338 0.05932 0.48934 0.0
C645 C 0.30453 0.0697 0.4432 0.0
C646 C 0.2776 0.05223 0.52091 0.0
C647 C 0.23158 0.05392 0.50742 0.0
H648 H 0.34807 0.0596 0.50192 0.0
H649 H 0.28597 0.04749 0.55661 0.0
S650 S 0.19007 0.0754 0.38984 0.0
N651 N 0.24627 0.07818 0.38507 0.0
N652 N 0.17926 0.0637 0.4441 0.0
C653 C 0.22236 0.06106 0.46082 0.0
C654 C 0.25875 0.06927 0.42882 0.0
C655 C 0.1691 0.03681 0.76659 0.0
C656 C 0.17293 0.02156 0.72112 0.0
C657 C 0.16412 0.006 0.80302 0.0
C658 C 0.1638 0.95878 0.79545 0.0
H659 H 0.16749 0.07284 0.7739 0.0
H660 H 0.15925 0.01936 0.83723 0.0
S661 S 0.17685 0.90162 0.6828 0.0
N662 N 0.17871 0.95634 0.67067 0.0
N663 N 0.17059 0.89843 0.73886 0.0
C664 C 0.17009 0.94316 0.75025 0.0
C665 C 0.17427 0.97454 0.71319 0.0
C666 C 0.24459 0.84613 0.05791 0.0
C667 C 0.26225 0.88275 0.08257 0.0
C668 C 0.21194 0.85324 0.0238 0.0
C669 C 0.19546 0.89715 0.01368 0.0
H670 H 0.25818 0.81219 0.06298 0.0
H671 H 0.20009 0.8242 1.00465 0.0
S672 S 0.22952 0.00388 0.07055 0.0
N673 N 0.26048 0.96408 0.09567 0.0
N674 N 0.19756 0.97735 0.03285 0.0
C675 C 0.2112 0.93372 0.03978 0.0
C676 C 0.24514 0.92654 0.07384 0.0
C677 C 0.34631 0.05322 0.21293 0.0
C678 C 0.38462 0.07196 0.234 0.0
C679 C 0.35169 0.02042 0.17864 0.0
C680 C 0.39544 0.0066 0.16356 0.0
H681 H 0.31222 0.06155 0.22517 0.0
H682 H 0.32153 0.00377 0.16572 0.0
S683 S 0.50615 0.0512 0.20326 0.0
N684 N 0.46741 0.07831 0.23453 0.0
N685 N 0.47737 0.01759 0.16885 0.0
C686 C 0.43381 0.02813 0.18158 0.0
C687 C 0.42841 0.06061 0.21729 0.0
C688 C 0.53031 0.25246 0.07135 0.0
C689 C 0.52297 0.2089 0.08952 0.0
C690 C 0.49791 0.28743 0.07724 0.0
C691 C 0.45745 0.28077 0.10293 0.0
H692 H 0.56203 0.25994 0.05356 0.0
H693 H 0.50586 0.32063 0.06341 0.0
S694 S 0.42196 0.17239 0.15738 0.0
N695 N 0.47175 0.16036 0.13305 0.0
N696 N 0.41147 0.22632 0.14552 0.0
C697 C 0.44925 0.23692 0.12045 0.0
C698 C 0.48183 0.20097 0.1134 0.0
C699 C 0.995 0.21784 0.89986 0.0
C700 C 0.00552 0.17224 0.89096 0.0
C701 C 0.02936 0.2494 0.90738 0.0
C702 C 0.07601 0.23706 0.90569 0.0
H703 H 0.95979 0.22941 0.90088 0.0
H704 H 0.01886 0.28423 0.9136 0.0
S705 S 0.12171 0.12145 0.88298 0.0
N706 N 0.06564 0.11557 0.8809 0.0
N707 N 0.13084 0.17559 0.89435 0.0
C708 C 0.0872 0.19137 0.89693 0.0
C709 C 0.0518 0.1588 0.88988 0.0
C710 C 0.02719 0.72443 0.20445 0.0
C711 C 0.021 0.68244 0.18231 0.0
C712 C 0.99249 0.75759 0.20549 0.0
C713 C 0.94968 0.74975 0.18566 0.0
H714 H 0.06013 0.73317 0.21842 0.0
H715 H 0.99996 0.79048 0.2201 0.0
S716 S 0.91387 0.64418 0.12772 0.0
N717 N 0.96714 0.63386 0.14298 0.0
N718 N 0.90173 0.69587 0.14614 0.0
C719 C 0.94172 0.70684 0.16647 0.0
C720 C 0.97739 0.67329 0.16451 0.0
C721 C 0.4695 0.71373 0.45498 0.0
C722 C 0.42746 0.72765 0.4365 0.0
C723 C 0.50322 0.74548 0.46565 0.0
C724 C 0.49563 0.79225 0.45938 0.0
H725 H 0.47776 0.67796 0.45811 0.0
H726 H 0.53647 0.73317 0.47621 0.0
S727 S 0.38874 0.84646 0.41865 0.0
N728 N 0.37818 0.79147 0.41711 0.0
N729 N 0.44128 0.8512 0.43816 0.0
C730 C 0.45227 0.80681 0.44492 0.0
C731 C 0.41825 0.77444 0.43312 0.0
C732 C 0.03195 0.77381 0.66467 0.0
C733 C 0.07384 0.78537 0.64419 0.0
C734 C 0.99368 0.8019 0.6606 0.0
C735 C 0.99556 0.84262 0.63543 0.0
H736 H 0.02829 0.74177 0.68262 0.0
H737 H 0.96211 0.79089 0.67662 0.0
S738 S 0.09849 0.88895 0.5768 0.0
N739 N 0.11609 0.84038 0.59911 0.0
N740 N 0.04406 0.89419 0.59156 0.0
C741 C 0.03793 0.85541 0.61601 0.0
C742 C 0.07715 0.82658 0.62046 0.0
C743 C 0.00641 0.24912 0.34309 0.0
C744 C 0.99814 0.29528 0.35278 0.0
C745 C 0.9718 0.21701 0.34692 0.0
C746 C 0.92723 0.22966 0.35983 0.0
H747 H 0.04051 0.23694 0.33483 0.0
H748 H 0.98057 0.18156 0.34177 0.0
S749 S 0.88536 0.34684 0.38122 0.0
N750 N 0.94057 0.35279 0.37062 0.0
N751 N 0.87492 0.29195 0.37676 0.0
C752 C 0.91724 0.27603 0.36569 0.0
C753 C 0.95289 0.30897 0.36253 0.0
C754 C 0.54719 0.66477 0.83836 0.0
C755 C 0.50027 0.67032 0.82937 0.0
C756 C 0.57752 0.70151 0.83456 0.0
C757 C 0.56178 0.74514 0.8225 0.0
H758 H 0.5602 0.63256 0.85074 0.0
H759 H 0.61288 0.69639 0.84406 0.0
S760 S 0.44428 0.77688 0.78883 0.0
N761 N 0.44122 0.72241 0.80171 0.0
N762 N 0.49805 0.79106 0.7969 0.0
C763 C 0.51591 0.75057 0.81059 0.0
C764 C 0.48523 0.71322 0.81329 0.0
C765 C 0.57209 0.00573 0.78058 0.0
C766 C 0.57811 0.95969 0.76879 0.0
C767 C 0.56936 0.03983 0.74693 0.0
C768 C 0.57117 0.02929 0.69999 0.0
H769 H 0.57176 0.01586 0.81617 0.0
H770 H 0.56692 0.0749 0.75783 0.0
S771 S 0.58256 0.91358 0.65086 0.0
N772 N 0.58347 0.90519 0.7067 0.0
N773 N 0.57667 0.96892 0.64357 0.0
C774 C 0.57472 0.98314 0.68771 0.0
C775 C 0.57869 0.9485 0.72202 0.0
C776 C 0.18522 0.31553 0.07683 0.0
C777 C 0.16673 0.35637 0.05957 0.0
C778 C 0.2228 0.3157 0.10644 0.0
C779 C 0.24341 0.35673 0.11872 0.0
H780 H 0.1732 0.28325 0.06409 0.0
H781 H 0.23818 0.28366 0.11638 0.0
S782 S 0.206 0.47247 0.08598 0.0
N783 N 0.16941 0.43866 0.06055 0.0
N784 N 0.24068 0.43897 0.11497 0.0
C785 C 0.22302 0.39768 0.10478 0.0
C786 C 0.18426 0.39753 0.07564 0.0
C787 C 0.94322 0.00735 0.30348 0.0
C788 C 0.9005 0.02279 0.32012 0.0
C789 C 0.94635 0.97661 0.26646 0.0
C790 C 0.90686 0.95892 0.24595 0.0
H791 H 0.97439 0.01983 0.31853 0.0
H792 H 0.97984 0.96619 0.25421 0.0
S793 S 0.7869 0.98763 0.27768 0.0
N794 N 0.81802 0.01788 0.31308 0.0
N795 N 0.82377 0.95922 0.24544 0.0
C796 C 0.86406 0.97358 0.26295 0.0
C797 C 0.86093 0.00568 0.29949 0.0
C798 C 0.15924 0.65095 0.45346 0.0
C799 C 0.15393 0.6872 0.48421 0.0
C800 C 0.19132 0.65335 0.41761 0.0
C801 C 0.21814 0.69233 0.41077 0.0
H802 H 0.14286 0.61871 0.46026 0.0
H803 H 0.1983 0.62294 0.39797 0.0
S804 S 0.20954 0.79989 0.47525 0.0
N805 N 0.17213 0.76607 0.50048 0.0
N806 N 0.23232 0.77015 0.43285 0.0
C807 C 0.20895 0.73067 0.43747 0.0
C808 C 0.17655 0.72827 0.47416 0.0
C809 C 0.71826 0.60063 0.98433 0.0
C810 C 0.72185 0.5912 0.03116 0.0
C811 C 0.75742 0.6025 0.9563 0.0
C812 C 0.80154 0.59441 0.97392 0.0
H813 H 0.68546 0.60962 0.96989 0.0
H814 H 0.75316 0.61197 0.92078 0.0
S815 S 0.82788 0.56148 0.09324 0.0
N816 N 0.77193 0.56917 0.09324 0.0
N817 N 0.84543 0.57162 0.04036 0.0
C818 C 0.80502 0.58147 0.02 0.0
C819 C 0.7652 0.58025 0.04867 0.0
C820 C 0.69552 0.46782 0.23525 0.0
C821 C 0.70291 0.47293 0.28232 0.0
C822 C 0.68854 0.50583 0.20706 0.0
C823 C 0.68934 0.55038 0.22472 0.0
H824 H 0.69175 0.43428 0.22066 0.0
H825 H 0.68067 0.5001 0.17141 0.0
S826 S 0.71412 0.58197 0.34458 0.0
N827 N 0.7154 0.5259 0.34457 0.0
N828 N 0.70314 0.59726 0.29142 0.0
C829 C 0.70044 0.55598 0.27098 0.0
C830 C 0.70694 0.51726 0.29981 0.0
C831 C 0.80116 0.44296 0.53483 0.0
C832 C 0.83098 0.40551 0.5383 0.0
C833 C 0.76379 0.4422 0.50485 0.0
C834 C 0.75514 0.40389 0.4776 0.0
H835 H 0.80566 0.47217 0.55676 0.0
H836 H 0.74127 0.47149 0.50342 0.0
S837 S 0.8213 0.29577 0.47804 0.0
N838 N 0.84824 0.32858 0.51449 0.0
N839 N 0.77878 0.32683 0.45791 0.0
C840 C 0.78514 0.36638 0.48084 0.0
C841 C 0.82281 0.36725 0.51135 0.0
C842 C 0.84592 0.55864 0.73577 0.0
C843 C 0.83389 0.55806 0.78227 0.0
C844 C 0.84658 0.51834 0.7102 0.0
C845 C 0.83487 0.47625 0.7302 0.0
H846 H 0.85895 0.58942 0.7202 0.0
H847 H 0.85926 0.51977 0.67531 0.0
S848 S 0.79347 0.45881 0.84909 0.0
N849 N 0.80455 0.51364 0.84595 0.0
N850 N 0.80507 0.43803 0.79783 0.0
C851 C 0.81828 0.47628 0.77542 0.0
C852 C 0.81808 0.5172 0.8015 0.0
C853 C 0.5375 0.29129 0.65044 0.0
C854 C 0.52227 0.2462 0.64645 0.0
C855 C 0.5078 0.32819 0.64353 0.0
C856 C 0.46144 0.32156 0.63327 0.0
H857 H 0.5732 0.29824 0.65662 0.0
H858 H 0.52165 0.36219 0.6451 0.0
S859 S 0.4034 0.20998 0.62436 0.0
N860 N 0.45725 0.19689 0.63478 0.0
N861 N 0.40092 0.266 0.62348 0.0
C862 C 0.44516 0.27656 0.63203 0.0
C863 C 0.47571 0.23899 0.63811 0.0
loop_
_geom_bond_atom_site_label_1
_geom_bond_atom_site_label_2
_geom_bond_distance
_geom_bond_site_symmetry_2
_ccdc_geom_bond_type
C0 O2 1.247 . S
C0 O4 1.258 . S
C1 O8 1.247 . S
C1 O9 1.258 . S
O2 C0 1.247 . S
O2 Zn3 2.028 . S
Zn3 O2 2.028 . S
Zn3 O7 2.035 . S
Zn3 O9 2.035 . S
Zn3 O10 2.028 . S
O4 C0 1.258 . S
O4 Zn5 2.035 . S
Zn5 O4 2.035 . S
Zn5 O6 2.028 . S
Zn5 O8 2.028 . S
Zn5 O11 2.035 . S
O6 Zn5 2.028 . S
O6 C12 1.247 . S
O7 Zn3 2.035 . S
O7 C12 1.258 . S
O8 C1 1.247 . S
O8 Zn5 2.028 . S
O9 C1 1.258 . S
O9 Zn3 2.035 . S
O10 Zn3 2.028 . S
O10 C13 1.247 . S
O11 Zn5 2.035 . S
O11 C13 1.258 . S
C12 O6 1.247 . S
C12 O7 1.258 . S
C13 O10 1.247 . S
C13 O11 1.258 . S
C14 O16 1.247 . S
C14 O18 1.258 . S
C15 O22 1.247 . S
C15 O23 1.258 . S
O16 C14 1.247 . S
O16 Zn17 2.028 . S
Zn17 O16 2.028 . S
Zn17 O21 2.035 . S
Zn17 O23 2.035 . S
Zn17 O24 2.028 . S
O18 C14 1.258 . S
O18 Zn19 2.035 . S
Zn19 O18 2.035 . S
Zn19 O20 2.028 . S
Zn19 O22 2.028 . S
Zn19 O25 2.035 . S
O20 Zn19 2.028 . S
O20 C26 1.247 . S
O21 Zn17 2.035 . S
O21 C26 1.258 . S
O22 C15 1.247 . S
O22 Zn19 2.028 . S
O23 C15 1.258 . S
O23 Zn17 2.035 . S
O24 Zn17 2.028 . S
O24 C27 1.247 . S
O25 Zn19 2.035 . S
O25 C27 1.258 . S
C26 O20 1.247 . S
C26 O21 1.258 . S
C27 O24 1.247 . S
C27 O25 1.258 . S
C28 O30 1.247 . S
C28 O32 1.258 . S
C29 O36 1.247 . S
C29 O37 1.258 . S
O30 C28 1.247 . S
O30 Zn31 2.028 . S
Zn31 O30 2.028 . S
Zn31 O35 2.035 . S
Zn31 O37 2.035 . S
Zn31 O38 2.028 . S
O32 C28 1.258 . S
O32 Zn33 2.035 . S
Zn33 O32 2.035 . S
Zn33 O34 2.028 . S
Zn33 O36 2.028 . S
Zn33 O39 2.035 . S
O34 Zn33 2.028 . S
O34 C40 1.247 . S
O35 Zn31 2.035 . S
O35 C40 1.258 . S
O36 C29 1.247 . S
O36 Zn33 2.028 . S
O37 C29 1.258 . S
O37 Zn31 2.035 . S
O38 Zn31 2.028 . S
O38 C41 1.247 . S
O39 Zn33 2.035 . S
O39 C41 1.258 . S
C40 O34 1.247 . S
C40 O35 1.258 . S
C41 O38 1.247 . S
C41 O39 1.258 . S
C42 O44 1.247 . S
C42 O46 1.258 . S
C43 O50 1.247 . S
C43 O51 1.258 . S
O44 C42 1.247 . S
O44 Zn45 2.028 . S
Zn45 O44 2.028 . S
Zn45 O49 2.035 . S
Zn45 O51 2.035 . S
Zn45 O52 2.028 . S
O46 C42 1.258 . S
O46 Zn47 2.035 . S
Zn47 O46 2.035 . S
Zn47 O48 2.028 . S
Zn47 O50 2.028 . S
Zn47 O53 2.035 . S
O48 Zn47 2.028 . S
O48 C54 1.247 . S
O49 Zn45 2.035 . S
O49 C54 1.258 . S
O50 C43 1.247 . S
O50 Zn47 2.028 . S
O51 C43 1.258 . S
O51 Zn45 2.035 . S
O52 Zn45 2.028 . S
O52 C55 1.247 . S
O53 Zn47 2.035 . S
O53 C55 1.258 . S
C54 O48 1.247 . S
C54 O49 1.258 . S
C55 O52 1.247 . S
C55 O53 1.258 . S
C56 O58 1.247 . S
C56 O60 1.258 . S
C57 O64 1.247 . S
C57 O65 1.258 . S
O58 C56 1.247 . S
O58 Zn59 2.028 . S
Zn59 O58 2.028 . S
Zn59 O63 2.035 . S
Zn59 O65 2.035 . S
Zn59 O66 2.028 . S
O60 C56 1.258 . S
O60 Zn61 2.035 . S
Zn61 O60 2.035 . S
Zn61 O62 2.028 . S
Zn61 O64 2.028 . S
Zn61 O67 2.035 . S
O62 Zn61 2.028 . S
O62 C68 1.247 . S
O63 Zn59 2.035 . S
O63 C68 1.258 . S
O64 C57 1.247 . S
O64 Zn61 2.028 . S
O65 C57 1.258 . S
O65 Zn59 2.035 . S
O66 Zn59 2.028 . S
O66 C69 1.247 . S
O67 Zn61 2.035 . S
O67 C69 1.258 . S
C68 O62 1.247 . S
C68 O63 1.258 . S
C69 O66 1.247 . S
C69 O67 1.258 . S
C70 O72 1.247 . S
C70 O74 1.258 . S
C71 O78 1.247 . S
C71 O79 1.258 . S
O72 C70 1.247 . S
O72 Zn73 2.028 . S
Zn73 O72 2.028 . S
Zn73 O77 2.035 . S
Zn73 O79 2.035 . S
Zn73 O80 2.028 . S
O74 C70 1.258 . S
O74 Zn75 2.035 . S
Zn75 O74 2.035 . S
Zn75 O76 2.028 . S
Zn75 O78 2.028 . S
Zn75 O81 2.035 . S
O76 Zn75 2.028 . S
O76 C82 1.247 . S
O77 Zn73 2.035 . S
O77 C82 1.258 . S
O78 C71 1.247 . S
O78 Zn75 2.028 . S
O79 C71 1.258 . S
O79 Zn73 2.035 . S
O80 Zn73 2.028 . S
O80 C83 1.247 . S
O81 Zn75 2.035 . S
O81 C83 1.258 . S
C82 O76 1.247 . S
C82 O77 1.258 . S
C83 O80 1.247 . S
C83 O81 1.258 . S
C84 O86 1.247 . S
C84 O88 1.258 . S
C85 O92 1.247 . S
C85 O93 1.258 . S
O86 C84 1.247 . S
O86 Zn87 2.028 . S
Zn87 O86 2.028 . S
Zn87 O91 2.035 . S
Zn87 O93 2.035 . S
Zn87 O94 2.028 . S
O88 C84 1.258 . S
O88 Zn89 2.035 . S
Zn89 O88 2.035 . S
Zn89 O90 2.028 . S
Zn89 O92 2.028 . S
Zn89 O95 2.035 . S
O90 Zn89 2.028 . S
O90 C96 1.247 . S
O91 Zn87 2.035 . S
O91 C96 1.258 . S
O92 C85 1.247 . S
O92 Zn89 2.028 . S
O93 C85 1.258 . S
O93 Zn87 2.035 . S
O94 Zn87 2.028 . S
O94 C97 1.247 . S
O95 Zn89 2.035 . S
O95 C97 1.258 . S
C96 O90 1.247 . S
C96 O91 1.258 . S
C97 O94 1.247 . S
C97 O95 1.258 . S
C98 O100 1.247 . S
C98 O102 1.258 . S
C99 O106 1.247 . S
C99 O107 1.258 . S
O100 C98 1.247 . S
O100 Zn101 2.028 . S
Zn101 O100 2.028 . S
Zn101 O105 2.035 . S
Zn101 O107 2.035 . S
Zn101 O108 2.028 . S
O102 C98 1.258 . S
O102 Zn103 2.035 . S
Zn103 O102 2.035 . S
Zn103 O104 2.028 . S
Zn103 O106 2.028 . S
Zn103 O109 2.035 . S
O104 Zn103 2.028 . S
O104 C110 1.247 . S
O105 Zn101 2.035 . S
O105 C110 1.258 . S
O106 C99 1.247 . S
O106 Zn103 2.028 . S
O107 C99 1.258 . S
O107 Zn101 2.035 . S
O108 Zn101 2.028 . S
O108 C111 1.247 . S
O109 Zn103 2.035 . S
O109 C111 1.258 . S
C110 O104 1.247 . S
C110 O105 1.258 . S
C111 O108 1.247 . S
C111 O109 1.258 . S
C112 O114 1.247 . S
C112 O116 1.258 . S
C113 O120 1.247 . S
C113 O121 1.258 . S
O114 C112 1.247 . S
O114 Zn115 2.028 . S
Zn115 O114 2.028 . S
Zn115 O119 2.035 . S
Zn115 O121 2.035 . S
Zn115 O122 2.028 . S
O116 C112 1.258 . S
O116 Zn117 2.035 . S
Zn117 O116 2.035 . S
Zn117 O118 2.028 . S
Zn117 O120 2.028 . S
Zn117 O123 2.035 . S
O118 Zn117 2.028 . S
O118 C124 1.247 . S
O119 Zn115 2.035 . S
O119 C124 1.258 . S
O120 C113 1.247 . S
O120 Zn117 2.028 . S
O121 C113 1.258 . S
O121 Zn115 2.035 . S
O122 Zn115 2.028 . S
O122 C125 1.247 . S
O123 Zn117 2.035 . S
O123 C125 1.258 . S
C124 O118 1.247 . S
C124 O119 1.258 . S
C125 O122 1.247 . S
C125 O123 1.258 . S
C126 O128 1.247 . S
C126 O130 1.258 . S
C127 O134 1.247 . S
C127 O135 1.258 . S
O128 C126 1.247 . S
O128 Zn129 2.028 . S
Zn129 O128 2.028 . S
Zn129 O133 2.035 . S
Zn129 O135 2.035 . S
Zn129 O136 2.028 . S
O130 C126 1.258 . S
O130 Zn131 2.035 . S
Zn131 O130 2.035 . S
Zn131 O132 2.028 . S
Zn131 O134 2.028 . S
Zn131 O137 2.035 . S
O132 Zn131 2.028 . S
O132 C138 1.247 . S
O133 Zn129 2.035 . S
O133 C138 1.258 . S
O134 C127 1.247 . S
O134 Zn131 2.028 . S
O135 C127 1.258 . S
O135 Zn129 2.035 . S
O136 Zn129 2.028 . S
O136 C139 1.247 . S
O137 Zn131 2.035 . S
O137 C139 1.258 . S
C138 O132 1.247 . S
C138 O133 1.258 . S
C139 O136 1.247 . S
C139 O137 1.258 . S
C140 O142 1.247 . S
C140 O144 1.258 . S
C141 O148 1.247 . S
C141 O149 1.258 . S
O142 C140 1.247 . S
O142 Zn143 2.028 . S
Zn143 O142 2.028 . S
Zn143 O147 2.035 . S
Zn143 O149 2.035 . S
Zn143 O150 2.028 . S
O144 C140 1.258 . S
O144 Zn145 2.035 . S
Zn145 O144 2.035 . S
Zn145 O146 2.028 . S
Zn145 O148 2.028 . S
Zn145 O151 2.035 . S
O146 Zn145 2.028 . S
O146 C152 1.247 . S
O147 Zn143 2.035 . S
O147 C152 1.258 . S
O148 C141 1.247 . S
O148 Zn145 2.028 . S
O149 C141 1.258 . S
O149 Zn143 2.035 . S
O150 Zn143 2.028 . S
O150 C153 1.247 . S
O151 Zn145 2.035 . S
O151 C153 1.258 . S
C152 O146 1.247 . S
C152 O147 1.258 . S
C153 O150 1.247 . S
C153 O151 1.258 . S
C154 O156 1.247 . S
C154 O158 1.258 . S
C155 O162 1.247 . S
C155 O163 1.258 . S
O156 C154 1.247 . S
O156 Zn157 2.028 . S
Zn157 O156 2.028 . S
Zn157 O161 2.035 . S
Zn157 O163 2.035 . S
Zn157 O164 2.028 . S
O158 C154 1.258 . S
O158 Zn159 2.035 . S
Zn159 O158 2.035 . S
Zn159 O160 2.028 . S
Zn159 O162 2.028 . S
Zn159 O165 2.035 . S
O160 Zn159 2.028 . S
O160 C166 1.247 . S
O161 Zn157 2.035 . S
O161 C166 1.258 . S
O162 C155 1.247 . S
O162 Zn159 2.028 . S
O163 C155 1.258 . S
O163 Zn157 2.035 . S
O164 Zn157 2.028 . S
O164 C167 1.247 . S
O165 Zn159 2.035 . S
O165 C167 1.258 . S
C166 O160 1.247 . S
C166 O161 1.258 . S
C167 O164 1.247 . S
C167 O165 1.258 . S
C168 O170 1.247 . S
C168 O172 1.258 . S
C169 O176 1.247 . S
C169 O177 1.258 . S
O170 C168 1.247 . S
O170 Zn171 2.028 . S
Zn171 O170 2.028 . S
Zn171 O175 2.035 . S
Zn171 O177 2.035 . S
Zn171 O178 2.028 . S
O172 C168 1.258 . S
O172 Zn173 2.035 . S
Zn173 O172 2.035 . S
Zn173 O174 2.028 . S
Zn173 O176 2.028 . S
Zn173 O179 2.035 . S
O174 Zn173 2.028 . S
O174 C180 1.247 . S
O175 Zn171 2.035 . S
O175 C180 1.258 . S
O176 C169 1.247 . S
O176 Zn173 2.028 . S
O177 C169 1.258 . S
O177 Zn171 2.035 . S
O178 Zn171 2.028 . S
O178 C181 1.247 . S
O179 Zn173 2.035 . S
O179 C181 1.258 . S
C180 O174 1.247 . S
C180 O175 1.258 . S
C181 O178 1.247 . S
C181 O179 1.258 . S
C182 O184 1.247 . S
C182 O186 1.258 . S
C183 O190 1.247 . S
C183 O191 1.258 . S
O184 C182 1.247 . S
O184 Zn185 2.028 . S
Zn185 O184 2.028 . S
Zn185 O189 2.035 . S
Zn185 O191 2.035 . S
Zn185 O192 2.028 . S
O186 C182 1.258 . S
O186 Zn187 2.035 . S
Zn187 O186 2.035 . S
Zn187 O188 2.028 . S
Zn187 O190 2.028 . S
Zn187 O193 2.035 . S
O188 Zn187 2.028 . S
O188 C194 1.247 . S
O189 Zn185 2.035 . S
O189 C194 1.258 . S
O190 C183 1.247 . S
O190 Zn187 2.028 . S
O191 C183 1.258 . S
O191 Zn185 2.035 . S
O192 Zn185 2.028 . S
O192 C195 1.247 . S
O193 Zn187 2.035 . S
O193 C195 1.258 . S
C194 O188 1.247 . S
C194 O189 1.258 . S
C195 O192 1.247 . S
C195 O193 1.258 . S
C196 O198 1.247 . S
C196 O200 1.258 . S
C197 O204 1.247 . S
C197 O205 1.258 . S
O198 C196 1.247 . S
O198 Zn199 2.028 . S
Zn199 O198 2.028 . S
Zn199 O203 2.035 . S
Zn199 O205 2.035 . S
Zn199 O206 2.028 . S
O200 C196 1.258 . S
O200 Zn201 2.035 . S
Zn201 O200 2.035 . S
Zn201 O202 2.028 . S
Zn201 O204 2.028 . S
Zn201 O207 2.035 . S
O202 Zn201 2.028 . S
O202 C208 1.247 . S
O203 Zn199 2.035 . S
O203 C208 1.258 . S
O204 C197 1.247 . S
O204 Zn201 2.028 . S
O205 C197 1.258 . S
O205 Zn199 2.035 . S
O206 Zn199 2.028 . S
O206 C209 1.247 . S
O207 Zn201 2.035 . S
O207 C209 1.258 . S
C208 O202 1.247 . S
C208 O203 1.258 . S
C209 O206 1.247 . S
C209 O207 1.258 . S
C210 O212 1.247 . S
C210 O214 1.258 . S
C211 O218 1.247 . S
C211 O219 1.258 . S
O212 C210 1.247 . S
O212 Zn213 2.028 . S
Zn213 O212 2.028 . S
Zn213 O217 2.035 . S
Zn213 O219 2.035 . S
Zn213 O220 2.028 . S
O214 C210 1.258 . S
O214 Zn215 2.035 . S
Zn215 O214 2.035 . S
Zn215 O216 2.028 . S
Zn215 O218 2.028 . S
Zn215 O221 2.035 . S
O216 Zn215 2.028 . S
O216 C222 1.247 . S
O217 Zn213 2.035 . S
O217 C222 1.258 . S
O218 C211 1.247 . S
O218 Zn215 2.028 . S
O219 C211 1.258 . S
O219 Zn213 2.035 . S
O220 Zn213 2.028 . S
O220 C223 1.247 . S
O221 Zn215 2.035 . S
O221 C223 1.258 . S
C222 O216 1.247 . S
C222 O217 1.258 . S
C223 O220 1.247 . S
C223 O221 1.258 . S
C224 O226 1.247 . S
C224 O228 1.258 . S
C225 O232 1.247 . S
C225 O233 1.258 . S
O226 C224 1.247 . S
O226 Zn227 2.028 . S
Zn227 O226 2.028 . S
Zn227 O231 2.035 . S
Zn227 O233 2.035 . S
Zn227 O234 2.028 . S
O228 C224 1.258 . S
O228 Zn229 2.035 . S
Zn229 O228 2.035 . S
Zn229 O230 2.028 . S
Zn229 O232 2.028 . S
Zn229 O235 2.035 . S
O230 Zn229 2.028 . S
O230 C236 1.247 . S
O231 Zn227 2.035 . S
O231 C236 1.258 . S
O232 C225 1.247 . S
O232 Zn229 2.028 . S
O233 C225 1.258 . S
O233 Zn227 2.035 . S
O234 Zn227 2.028 . S
O234 C237 1.247 . S
O235 Zn229 2.035 . S
O235 C237 1.258 . S
C236 O230 1.247 . S
C236 O231 1.258 . S
C237 O234 1.247 . S
C237 O235 1.258 . S
C238 O240 1.247 . S
C238 O242 1.258 . S
C239 O246 1.247 . S
C239 O247 1.258 . S
O240 C238 1.247 . S
O240 Zn241 2.028 . S
Zn241 O240 2.028 . S
Zn241 O245 2.035 . S
Zn241 O247 2.035 . S
Zn241 O248 2.028 . S
O242 C238 1.258 . S
O242 Zn243 2.035 . S
Zn243 O242 2.035 . S
Zn243 O244 2.028 . S
Zn243 O246 2.028 . S
Zn243 O249 2.035 . S
O244 Zn243 2.028 . S
O244 C250 1.247 . S
O245 Zn241 2.035 . S
O245 C250 1.258 . S
O246 C239 1.247 . S
O246 Zn243 2.028 . S
O247 C239 1.258 . S
O247 Zn241 2.035 . S
O248 Zn241 2.028 . S
O248 C251 1.247 . S
O249 Zn243 2.035 . S
O249 C251 1.258 . S
C250 O244 1.247 . S
C250 O245 1.258 . S
C251 O248 1.247 . S
C251 O249 1.258 . S
C252 O254 1.247 . S
C252 O256 1.258 . S
C253 O260 1.247 . S
C253 O261 1.258 . S
O254 C252 1.247 . S
O254 Zn255 2.028 . S
Zn255 O254 2.028 . S
Zn255 O259 2.035 . S
Zn255 O261 2.035 . S
Zn255 O262 2.028 . S
O256 C252 1.258 . S
O256 Zn257 2.035 . S
Zn257 O256 2.035 . S
Zn257 O258 2.028 . S
Zn257 O260 2.028 . S
Zn257 O263 2.035 . S
O258 Zn257 2.028 . S
O258 C264 1.247 . S
O259 Zn255 2.035 . S
O259 C264 1.258 . S
O260 C253 1.247 . S
O260 Zn257 2.028 . S
O261 C253 1.258 . S
O261 Zn255 2.035 . S
O262 Zn255 2.028 . S
O262 C265 1.247 . S
O263 Zn257 2.035 . S
O263 C265 1.258 . S
C264 O258 1.247 . S
C264 O259 1.258 . S
C265 O262 1.247 . S
C265 O263 1.258 . S
C266 O268 1.247 . S
C266 O270 1.258 . S
C267 O274 1.247 . S
C267 O275 1.258 . S
O268 C266 1.247 . S
O268 Zn269 2.028 . S
Zn269 O268 2.028 . S
Zn269 O273 2.035 . S
Zn269 O275 2.035 . S
Zn269 O276 2.028 . S
O270 C266 1.258 . S
O270 Zn271 2.035 . S
Zn271 O270 2.035 . S
Zn271 O272 2.028 . S
Zn271 O274 2.028 . S
Zn271 O277 2.035 . S
O272 Zn271 2.028 . S
O272 C278 1.247 . S
O273 Zn269 2.035 . S
O273 C278 1.258 . S
O274 C267 1.247 . S
O274 Zn271 2.028 . S
O275 C267 1.258 . S
O275 Zn269 2.035 . S
O276 Zn269 2.028 . S
O276 C279 1.247 . S
O277 Zn271 2.035 . S
O277 C279 1.258 . S
C278 O272 1.247 . S
C278 O273 1.258 . S
C279 O276 1.247 . S
C279 O277 1.258 . S
C280 O282 1.247 . S
C280 O284 1.258 . S
C281 O288 1.247 . S
C281 O289 1.258 . S
O282 C280 1.247 . S
O282 Zn283 2.028 . S
Zn283 O282 2.028 . S
Zn283 O287 2.035 . S
Zn283 O289 2.035 . S
Zn283 O290 2.028 . S
O284 C280 1.258 . S
O284 Zn285 2.035 . S
Zn285 O284 2.035 . S
Zn285 O286 2.028 . S
Zn285 O288 2.028 . S
Zn285 O291 2.035 . S
O286 Zn285 2.028 . S
O286 C292 1.247 . S
O287 Zn283 2.035 . S
O287 C292 1.258 . S
O288 C281 1.247 . S
O288 Zn285 2.028 . S
O289 C281 1.258 . S
O289 Zn283 2.035 . S
O290 Zn283 2.028 . S
O290 C293 1.247 . S
O291 Zn285 2.035 . S
O291 C293 1.258 . S
C292 O286 1.247 . S
C292 O287 1.258 . S
C293 O290 1.247 . S
C293 O291 1.258 . S
C294 O296 1.247 . S
C294 O298 1.258 . S
C295 O302 1.247 . S
C295 O303 1.258 . S
O296 C294 1.247 . S
O296 Zn297 2.028 . S
Zn297 O296 2.028 . S
Zn297 O301 2.035 . S
Zn297 O303 2.035 . S
Zn297 O304 2.028 . S
O298 C294 1.258 . S
O298 Zn299 2.035 . S
Zn299 O298 2.035 . S
Zn299 O300 2.028 . S
Zn299 O302 2.028 . S
Zn299 O305 2.035 . S
O300 Zn299 2.028 . S
O300 C306 1.247 . S
O301 Zn297 2.035 . S
O301 C306 1.258 . S
O302 C295 1.247 . S
O302 Zn299 2.028 . S
O303 C295 1.258 . S
O303 Zn297 2.035 . S
O304 Zn297 2.028 . S
O304 C307 1.247 . S
O305 Zn299 2.035 . S
O305 C307 1.258 . S
C306 O300 1.247 . S
C306 O301 1.258 . S
C307 O304 1.247 . S
C307 O305 1.258 . S
C308 O310 1.247 . S
C308 O312 1.258 . S
C309 O316 1.247 . S
C309 O317 1.258 . S
O310 C308 1.247 . S
O310 Zn311 2.028 . S
Zn311 O310 2.028 . S
Zn311 O315 2.035 . S
Zn311 O317 2.035 . S
Zn311 O318 2.028 . S
O312 C308 1.258 . S
O312 Zn313 2.035 . S
Zn313 O312 2.035 . S
Zn313 O314 2.028 . S
Zn313 O316 2.028 . S
Zn313 O319 2.035 . S
O314 Zn313 2.028 . S
O314 C320 1.247 . S
O315 Zn311 2.035 . S
O315 C320 1.258 . S
O316 C309 1.247 . S
O316 Zn313 2.028 . S
O317 C309 1.258 . S
O317 Zn311 2.035 . S
O318 Zn311 2.028 . S
O318 C321 1.247 . S
O319 Zn313 2.035 . S
O319 C321 1.258 . S
C320 O314 1.247 . S
C320 O315 1.258 . S
C321 O318 1.247 . S
C321 O319 1.258 . S
C322 O324 1.247 . S
C322 O326 1.258 . S
C323 O330 1.247 . S
C323 O331 1.258 . S
O324 C322 1.247 . S
O324 Zn325 2.028 . S
Zn325 O324 2.028 . S
Zn325 O329 2.035 . S
Zn325 O331 2.035 . S
Zn325 O332 2.028 . S
O326 C322 1.258 . S
O326 Zn327 2.035 . S
Zn327 O326 2.035 . S
Zn327 O328 2.028 . S
Zn327 O330 2.028 . S
Zn327 O333 2.035 . S
O328 Zn327 2.028 . S
O328 C334 1.247 . S
O329 Zn325 2.035 . S
O329 C334 1.258 . S
O330 C323 1.247 . S
O330 Zn327 2.028 . S
O331 C323 1.258 . S
O331 Zn325 2.035 . S
O332 Zn325 2.028 . S
O332 C335 1.247 . S
O333 Zn327 2.035 . S
O333 C335 1.258 . S
C334 O328 1.247 . S
C334 O329 1.258 . S
C335 O332 1.247 . S
C335 O333 1.258 . S
C336 C337 1.369 . S
C336 C338 1.419 . S
C336 H340 0.930 . S
C337 C336 1.369 . S
C337 C346 1.429 . S
C338 C336 1.419 . S
C338 C339 1.363 . S
C338 H341 0.929 . S
C339 C338 1.363 . S
C339 C345 1.428 . S
H340 C336 0.930 . S
H341 C338 0.929 . S
S342 N343 1.613 . S
S342 N344 1.610 . S
N343 S342 1.613 . S
N343 C346 1.350 . S
N344 S342 1.610 . S
N344 C345 1.351 . S
C345 C339 1.428 . S
C345 N344 1.351 . S
C345 C346 1.434 . S
C346 C337 1.429 . S
C346 N343 1.350 . S
C346 C345 1.434 . S
C347 C348 1.369 1_455 S
C347 C349 1.419 . S
C347 H351 0.930 . S
C348 C347 1.369 1_655 S
C348 C357 1.429 . S
C349 C347 1.419 . S
C349 C350 1.363 . S
C349 H352 0.929 . S
C350 C349 1.363 . S
C350 C356 1.428 1_455 S
H351 C347 0.930 . S
H352 C349 0.929 . S
S353 N354 1.613 . S
S353 N355 1.610 . S
N354 S353 1.613 . S
N354 C357 1.350 . S
N355 S353 1.610 . S
N355 C356 1.351 . S
C356 C350 1.428 1_655 S
C356 N355 1.351 . S
C356 C357 1.434 . S
C357 C348 1.429 . S
C357 N354 1.350 . S
C357 C356 1.434 . S
C358 C359 1.369 . S
C358 C360 1.419 . S
C358 H362 0.930 . S
C359 C358 1.369 . S
C359 C368 1.429 1_554 S
C360 C358 1.419 . S
C360 C361 1.363 1_554 S
C360 H363 0.929 . S
C361 C360 1.363 1_556 S
C361 C367 1.428 . S
H362 C358 0.930 . S
H363 C360 0.929 . S
S364 N365 1.613 . S
S364 N366 1.610 . S
N365 S364 1.613 . S
N365 C368 1.350 . S
N366 S364 1.610 . S
N366 C367 1.351 . S
C367 C361 1.428 . S
C367 N366 1.351 . S
C367 C368 1.434 . S
C368 C359 1.429 1_556 S
C368 N365 1.350 . S
C368 C367 1.434 . S
C369 C370 1.369 . S
C369 C371 1.419 . S
C369 H373 0.930 . S
C370 C369 1.369 . S
C370 C379 1.429 . S
C371 C369 1.419 . S
C371 C372 1.363 . S
C371 H374 0.929 . S
C372 C371 1.363 . S
C372 C378 1.428 . S
H373 C369 0.930 . S
H374 C371 0.929 . S
S375 N376 1.613 . S
S375 N377 1.610 . S
N376 S375 1.613 . S
N376 C379 1.350 . S
N377 S375 1.610 . S
N377 C378 1.351 . S
C378 C372 1.428 . S
C378 N377 1.351 . S
C378 C379 1.434 . S
C379 C370 1.429 . S
C379 N376 1.350 . S
C379 C378 1.434 . S
C380 C381 1.369 1_554 S
C380 C382 1.419 . S
C380 H384 0.930 . S
C381 C380 1.369 1_556 S
C381 C390 1.429 . S
C382 C380 1.419 . S
C382 C383 1.363 . S
C382 H385 0.929 . S
C383 C382 1.363 . S
C383 C389 1.428 1_554 S
H384 C380 0.930 . S
H385 C382 0.929 . S
S386 N387 1.613 . S
S386 N388 1.610 . S
N387 S386 1.613 . S
N387 C390 1.350 . S
N388 S386 1.610 . S
N388 C389 1.351 . S
C389 C383 1.428 1_556 S
C389 N388 1.351 . S
C389 C390 1.434 . S
C390 C381 1.429 . S
C390 N387 1.350 . S
C390 C389 1.434 . S
C391 C392 1.369 . S
C391 C393 1.419 . S
C391 H395 0.930 . S
C392 C391 1.369 . S
C392 C401 1.429 . S
C393 C391 1.419 . S
C393 C394 1.363 . S
C393 H396 0.929 . S
C394 C393 1.363 . S
C394 C400 1.428 . S
H395 C391 0.930 . S
H396 C393 0.929 . S
S397 N398 1.613 . S
S397 N399 1.610 . S
N398 S397 1.613 . S
N398 C401 1.350 . S
N399 S397 1.610 . S
N399 C400 1.351 . S
C400 C394 1.428 . S
C400 N399 1.351 . S
C400 C401 1.434 . S
C401 C392 1.429 . S
C401 N398 1.350 . S
C401 C400 1.434 . S
C402 C403 1.369 . S
C402 C404 1.419 . S
C402 H406 0.930 . S
C403 C402 1.369 . S
C403 C412 1.429 . S
C404 C402 1.419 . S
C404 C405 1.363 . S
C404 H407 0.929 . S
C405 C404 1.363 . S
C405 C411 1.428 . S
H406 C402 0.930 . S
H407 C404 0.929 . S
S408 N409 1.613 . S
S408 N410 1.610 . S
N409 S408 1.613 . S
N409 C412 1.350 . S
N410 S408 1.610 . S
N410 C411 1.351 . S
C411 C405 1.428 . S
C411 N410 1.351 . S
C411 C412 1.434 . S
C412 C403 1.429 . S
C412 N409 1.350 . S
C412 C411 1.434 . S
C413 C414 1.369 1_655 S
C413 C415 1.419 . S
C413 H417 0.930 . S
C414 C413 1.369 1_455 S
C414 C423 1.429 . S
C415 C413 1.419 . S
C415 C416 1.363 . S
C415 H418 0.929 . S
C416 C415 1.363 . S
C416 C422 1.428 1_655 S
H417 C413 0.930 . S
H418 C415 0.929 . S
S419 N420 1.613 . S
S419 N421 1.610 . S
N420 S419 1.613 . S
N420 C423 1.350 . S
N421 S419 1.610 . S
N421 C422 1.351 . S
C422 C416 1.428 1_455 S
C422 N421 1.351 . S
C422 C423 1.434 . S
C423 C414 1.429 . S
C423 N420 1.350 . S
C423 C422 1.434 . S
C424 C425 1.369 . S
C424 C426 1.419 . S
C424 H428 0.930 . S
C425 C424 1.369 . S
C425 C434 1.429 . S
C426 C424 1.419 . S
C426 C427 1.363 . S
C426 H429 0.929 . S
C427 C426 1.363 . S
C427 C433 1.428 . S
H428 C424 0.930 . S
H429 C426 0.929 . S
S430 N431 1.613 . S
S430 N432 1.610 . S
N431 S430 1.613 . S
N431 C434 1.350 . S
N432 S430 1.610 . S
N432 C433 1.351 . S
C433 C427 1.428 . S
C433 N432 1.351 . S
C433 C434 1.434 . S
C434 C425 1.429 . S
C434 N431 1.350 . S
C434 C433 1.434 . S
C435 C436 1.369 1_565 S
C435 C437 1.419 . S
C435 H439 0.930 . S
C436 C435 1.369 1_545 S
C436 C445 1.429 . S
C437 C435 1.419 . S
C437 C438 1.363 . S
C437 H440 0.929 . S
C438 C437 1.363 . S
C438 C444 1.428 1_565 S
H439 C435 0.930 . S
H440 C437 0.929 . S
S441 N442 1.613 . S
S441 N443 1.610 . S
N442 S441 1.613 . S
N442 C445 1.350 . S
N443 S441 1.610 . S
N443 C444 1.351 . S
C444 C438 1.428 1_545 S
C444 N443 1.351 . S
C444 C445 1.434 . S
C445 C436 1.429 . S
C445 N442 1.350 . S
C445 C444 1.434 . S
C446 C447 1.369 . S
C446 C448 1.423 . S
C446 H450 0.930 . S
C447 C446 1.369 . S
C447 C456 1.429 . S
C448 C446 1.423 . S
C448 C449 1.359 1_545 S
C448 H451 0.929 . S
C449 C448 1.359 1_565 S
C449 C455 1.428 . S
H450 C446 0.930 . S
H451 C448 0.929 . S
S452 N453 1.613 1_565 S
S452 N454 1.610 . S
N453 S452 1.613 1_545 S
N453 C456 1.350 . S
N454 S452 1.610 . S
N454 C455 1.351 . S
C455 C449 1.428 . S
C455 N454 1.351 . S
C455 C456 1.434 1_565 S
C456 C447 1.429 . S
C456 N453 1.350 . S
C456 C455 1.434 1_545 S
C457 C458 1.369 . S
C457 C459 1.419 . S
C457 H461 0.930 . S
C458 C457 1.369 . S
C458 C467 1.429 1_545 S
C459 C457 1.419 . S
C459 C460 1.363 1_545 S
C459 H462 0.929 . S
C460 C459 1.363 1_565 S
C460 C466 1.428 . S
H461 C457 0.930 . S
H462 C459 0.929 . S
S463 N464 1.613 . S
S463 N465 1.610 . S
N464 S463 1.613 . S
N464 C467 1.350 . S
N465 S463 1.610 . S
N465 C466 1.351 . S
C466 C460 1.428 . S
C466 N465 1.351 . S
C466 C467 1.434 . S
C467 C458 1.429 1_565 S
C467 N464 1.350 . S
C467 C466 1.434 . S
C468 C469 1.369 . S
C468 C470 1.419 . S
C468 H472 0.930 . S
C469 C468 1.369 . S
C469 C478 1.429 . S
C470 C468 1.419 . S
C470 C471 1.363 . S
C470 H473 0.929 . S
C471 C470 1.363 . S
C471 C477 1.428 . S
H472 C468 0.930 . S
H473 C470 0.929 . S
S474 N475 1.613 . S
S474 N476 1.610 . S
N475 S474 1.613 . S
N475 C478 1.350 . S
N476 S474 1.610 . S
N476 C477 1.351 . S
C477 C471 1.428 . S
C477 N476 1.351 . S
C477 C478 1.434 . S
C478 C469 1.429 . S
C478 N475 1.350 . S
C478 C477 1.434 . S
C479 C480 1.369 . S
C479 C481 1.419 . S
C479 H483 0.930 . S
C480 C479 1.369 . S
C480 C489 1.429 . S
C481 C479 1.419 . S
C481 C482 1.363 . S
C481 H484 0.929 . S
C482 C481 1.363 . S
C482 C488 1.428 . S
H483 C479 0.930 . S
H484 C481 0.929 . S
S485 N486 1.613 . S
S485 N487 1.610 . S
N486 S485 1.613 . S
N486 C489 1.350 . S
N487 S485 1.610 . S
N487 C488 1.351 . S
C488 C482 1.428 . S
C488 N487 1.351 . S
C488 C489 1.434 . S
C489 C480 1.429 . S
C489 N486 1.350 . S
C489 C488 1.434 . S
C490 C491 1.369 . S
C490 C492 1.419 . S
C490 H494 0.930 . S
C491 C490 1.369 . S
C491 C500 1.429 . S
C492 C490 1.419 . S
C492 C493 1.363 . S
C492 H495 0.929 . S
C493 C492 1.363 . S
C493 C499 1.428 . S
H494 C490 0.930 . S
H495 C492 0.929 . S
S496 N497 1.613 . S
S496 N498 1.610 . S
N497 S496 1.613 . S
N497 C500 1.350 . S
N498 S496 1.610 . S
N498 C499 1.351 . S
C499 C493 1.428 . S
C499 N498 1.351 . S
C499 C500 1.434 . S
C500 C491 1.429 . S
C500 N497 1.350 . S
C500 C499 1.434 . S
C501 C502 1.369 . S
C501 C503 1.419 1_556 S
C501 H505 0.930 . S
C502 C501 1.369 . S
C502 C511 1.429 . S
C503 C501 1.419 1_554 S
C503 C504 1.363 . S
C503 H506 0.929 . S
C504 C503 1.363 . S
C504 C510 1.428 . S
H505 C501 0.930 . S
H506 C503 0.929 . S
S507 N508 1.613 . S
S507 N509 1.610 1_556 S
N508 S507 1.613 . S
N508 C511 1.350 . S
N509 S507 1.610 1_554 S
N509 C510 1.351 . S
C510 C504 1.428 . S
C510 N509 1.351 . S
C510 C511 1.434 1_554 S
C511 C502 1.429 . S
C511 N508 1.350 . S
C511 C510 1.434 1_556 S
C512 C513 1.369 . S
C512 C514 1.419 . S
C512 H516 0.930 . S
C513 C512 1.369 . S
C513 C522 1.429 . S
C514 C512 1.419 . S
C514 C515 1.363 . S
C514 H517 0.929 . S
C515 C514 1.363 . S
C515 C521 1.428 . S
H516 C512 0.930 . S
H517 C514 0.929 . S
S518 N519 1.613 . S
S518 N520 1.610 . S
N519 S518 1.613 . S
N519 C522 1.350 . S
N520 S518 1.610 . S
N520 C521 1.351 . S
C521 C515 1.428 . S
C521 N520 1.351 . S
C521 C522 1.434 . S
C522 C513 1.429 . S
C522 N519 1.350 . S
C522 C521 1.434 . S
C523 C524 1.369 . S
C523 C525 1.419 . S
C523 H527 0.930 . S
C524 C523 1.369 . S
C524 C533 1.429 . S
C525 C523 1.419 . S
C525 C526 1.363 . S
C525 H528 0.929 . S
C526 C525 1.363 . S
C526 C532 1.428 . S
H527 C523 0.930 . S
H528 C525 0.929 . S
S529 N530 1.613 . S
S529 N531 1.610 . S
N530 S529 1.613 . S
N530 C533 1.350 . S
N531 S529 1.610 . S
N531 C532 1.351 . S
C532 C526 1.428 . S
C532 N531 1.351 . S
C532 C533 1.434 . S
C533 C524 1.429 . S
C533 N530 1.350 . S
C533 C532 1.434 . S
C534 C535 1.369 1_455 S
C534 C536 1.419 . S
C534 H538 0.930 . S
C535 C534 1.369 1_655 S
C535 C544 1.429 . S
C536 C534 1.419 . S
C536 C537 1.363 . S
C536 H539 0.929 . S
C537 C536 1.363 . S
C537 C543 1.428 1_455 S
H538 C534 0.930 . S
H539 C536 0.929 . S
S540 N541 1.613 . S
S540 N542 1.610 . S
N541 S540 1.613 . S
N541 C544 1.350 . S
N542 S540 1.610 . S
N542 C543 1.351 . S
C543 C537 1.428 1_655 S
C543 N542 1.351 . S
C543 C544 1.434 . S
C544 C535 1.429 . S
C544 N541 1.350 . S
C544 C543 1.434 . S
C545 C546 1.369 . S
C545 C547 1.419 . S
C545 H549 0.930 . S
C546 C545 1.369 . S
C546 C555 1.429 . S
C547 C545 1.419 . S
C547 C548 1.363 . S
C547 H550 0.929 . S
C548 C547 1.363 . S
C548 C554 1.428 . S
H549 C545 0.930 . S
H550 C547 0.929 . S
S551 N552 1.613 . S
S551 N553 1.610 . S
N552 S551 1.613 . S
N552 C555 1.350 . S
N553 S551 1.610 . S
N553 C554 1.351 . S
C554 C548 1.428 . S
C554 N553 1.351 . S
C554 C555 1.434 . S
C555 C546 1.429 . S
C555 N552 1.350 . S
C555 C554 1.434 . S
C556 C557 1.369 . S
C556 C558 1.419 1_455 S
C556 H560 0.930 . S
C557 C556 1.369 . S
C557 C566 1.429 . S
C558 C556 1.419 1_655 S
C558 C559 1.363 . S
C558 H561 0.929 . S
C559 C558 1.363 . S
C559 C565 1.428 1_655 S
H560 C556 0.930 . S
H561 C558 0.929 . S
S562 N563 1.613 . S
S562 N564 1.610 . S
N563 S562 1.613 . S
N563 C566 1.350 . S
N564 S562 1.610 . S
N564 C565 1.351 . S
C565 C559 1.428 1_455 S
C565 N564 1.351 . S
C565 C566 1.434 . S
C566 C557 1.429 . S
C566 N563 1.350 . S
C566 C565 1.434 . S
C567 C568 1.369 1_554 S
C567 C569 1.419 . S
C567 H571 0.930 . S
C568 C567 1.369 1_556 S
C568 C577 1.429 . S
C569 C567 1.419 . S
C569 C570 1.363 . S
C569 H572 0.929 . S
C570 C569 1.363 . S
C570 C576 1.428 1_554 S
H571 C567 0.930 . S
H572 C569 0.929 . S
S573 N574 1.613 . S
S573 N575 1.610 . S
N574 S573 1.613 . S
N574 C577 1.350 . S
N575 S573 1.610 . S
N575 C576 1.351 . S
C576 C570 1.428 1_556 S
C576 N575 1.351 . S
C576 C577 1.434 . S
C577 C568 1.429 . S
C577 N574 1.350 . S
C577 C576 1.434 . S
C578 C579 1.369 . S
C578 C580 1.419 . S
C578 H582 0.930 . S
C579 C578 1.369 . S
C579 C588 1.429 . S
C580 C578 1.419 . S
C580 C581 1.363 . S
C580 H583 0.929 . S
C581 C580 1.363 . S
C581 C587 1.428 . S
H582 C578 0.930 . S
H583 C580 0.929 . S
S584 N585 1.613 . S
S584 N586 1.610 . S
N585 S584 1.613 . S
N585 C588 1.350 . S
N586 S584 1.610 . S
N586 C587 1.351 . S
C587 C581 1.428 . S
C587 N586 1.351 . S
C587 C588 1.434 . S
C588 C579 1.429 . S
C588 N585 1.350 . S
C588 C587 1.434 . S
C589 C590 1.369 . S
C589 C591 1.419 1_565 S
C589 H593 0.930 . S
C590 C589 1.369 . S
C590 C599 1.429 . S
C591 C589 1.419 1_545 S
C591 C592 1.363 . S
C591 H594 0.929 . S
C592 C591 1.363 . S
C592 C598 1.428 . S
H593 C589 0.930 . S
H594 C591 0.929 . S
S595 N596 1.613 1_545 S
S595 N597 1.610 . S
N596 S595 1.613 1_565 S
N596 C599 1.350 . S
N597 S595 1.610 . S
N597 C598 1.351 . S
C598 C592 1.428 . S
C598 N597 1.351 . S
C598 C599 1.434 1_545 S
C599 C590 1.429 . S
C599 N596 1.350 . S
C599 C598 1.434 1_565 S
C600 C601 1.369 . S
C600 C602 1.419 . S
C600 H604 0.930 . S
C601 C600 1.369 . S
C601 C610 1.429 . S
C602 C600 1.419 . S
C602 C603 1.363 . S
C602 H605 0.929 . S
C603 C602 1.363 . S
C603 C609 1.428 . S
H604 C600 0.930 . S
H605 C602 0.929 . S
S606 N607 1.613 . S
S606 N608 1.610 . S
N607 S606 1.613 . S
N607 C610 1.350 . S
N608 S606 1.610 . S
N608 C609 1.351 . S
C609 C603 1.428 . S
C609 N608 1.351 . S
C609 C610 1.434 . S
C610 C601 1.429 . S
C610 N607 1.350 . S
C610 C609 1.434 . S
C611 C612 1.369 . S
C611 C613 1.419 . S
C611 H615 0.930 . S
C612 C611 1.369 . S
C612 C621 1.429 . S
C613 C611 1.419 . S
C613 C614 1.363 . S
C613 H616 0.929 . S
C614 C613 1.363 . S
C614 C620 1.428 . S
H615 C611 0.930 . S
H616 C613 0.929 . S
S617 N618 1.613 . S
S617 N619 1.610 . S
N618 S617 1.613 . S
N618 C621 1.350 . S
N619 S617 1.610 . S
N619 C620 1.351 . S
C620 C614 1.428 . S
C620 N619 1.351 . S
C620 C621 1.434 . S
C621 C612 1.429 . S
C621 N618 1.350 . S
C621 C620 1.434 . S
C622 C623 1.369 . S
C622 C624 1.419 . S
C622 H626 0.930 . S
C623 C622 1.369 . S
C623 C632 1.429 . S
C624 C622 1.419 . S
C624 C625 1.363 . S
C624 H627 0.929 . S
C625 C624 1.363 . S
C625 C631 1.428 . S
H626 C622 0.930 . S
H627 C624 0.929 . S
S628 N629 1.613 . S
S628 N630 1.610 . S
N629 S628 1.613 . S
N629 C632 1.350 . S
N630 S628 1.610 . S
N630 C631 1.351 . S
C631 C625 1.428 . S
C631 N630 1.351 . S
C631 C632 1.434 . S
C632 C623 1.429 . S
C632 N629 1.350 . S
C632 C631 1.434 . S
C633 C634 1.369 . S
C633 C635 1.419 . S
C633 H637 0.930 . S
C634 C633 1.369 . S
C634 C643 1.429 1_556 S
C635 C633 1.419 . S
C635 C636 1.363 1_556 S
C635 H638 0.929 . S
C636 C635 1.363 1_554 S
C636 C642 1.428 . S
H637 C633 0.930 . S
H638 C635 0.929 . S
S639 N640 1.613 . S
S639 N641 1.610 . S
N640 S639 1.613 . S
N640 C643 1.350 . S
N641 S639 1.610 . S
N641 C642 1.351 . S
C642 C636 1.428 . S
C642 N641 1.351 . S
C642 C643 1.434 . S
C643 C634 1.429 1_554 S
C643 N640 1.350 . S
C643 C642 1.434 . S
C644 C645 1.369 . S
C644 C646 1.419 . S
C644 H648 0.930 . S
C645 C644 1.369 . S
C645 C654 1.429 . S
C646 C644 1.419 . S
C646 C647 1.363 . S
C646 H649 0.929 . S
C647 C646 1.363 . S
C647 C653 1.428 . S
H648 C644 0.930 . S
H649 C646 0.929 . S
S650 N651 1.613 . S
S650 N652 1.610 . S
N651 S650 1.613 . S
N651 C654 1.350 . S
N652 S650 1.610 . S
N652 C653 1.351 . S
C653 C647 1.428 . S
C653 N652 1.351 . S
C653 C654 1.434 . S
C654 C645 1.429 . S
C654 N651 1.350 . S
C654 C653 1.434 . S
C655 C656 1.369 . S
C655 C657 1.419 . S
C655 H659 0.930 . S
C656 C655 1.369 . S
C656 C665 1.429 1_545 S
C657 C655 1.419 . S
C657 C658 1.363 1_545 S
C657 H660 0.929 . S
C658 C657 1.363 1_565 S
C658 C664 1.428 . S
H659 C655 0.930 . S
H660 C657 0.929 . S
S661 N662 1.613 . S
S661 N663 1.610 . S
N662 S661 1.613 . S
N662 C665 1.350 . S
N663 S661 1.610 . S
N663 C664 1.351 . S
C664 C658 1.428 . S
C664 N663 1.351 . S
C664 C665 1.434 . S
C665 C656 1.429 1_565 S
C665 N662 1.350 . S
C665 C664 1.434 . S
C666 C667 1.369 . S
C666 C668 1.419 1_554 S
C666 H670 0.930 . S
C667 C666 1.369 . S
C667 C676 1.429 . S
C668 C666 1.419 1_556 S
C668 C669 1.363 . S
C668 H671 0.929 . S
C669 C668 1.363 . S
C669 C675 1.428 . S
H670 C666 0.930 . S
H671 C668 0.929 . S
S672 N673 1.613 1_545 S
S672 N674 1.610 1_544 S
N673 S672 1.613 1_565 S
N673 C676 1.350 . S
N674 S672 1.610 1_566 S
N674 C675 1.351 . S
C675 C669 1.428 . S
C675 N674 1.351 . S
C675 C676 1.434 1_556 S
C676 C667 1.429 . S
C676 N673 1.350 . S
C676 C675 1.434 1_554 S
C677 C678 1.369 1_565 S
C677 C679 1.419 . S
C677 H681 0.930 . S
C678 C677 1.369 1_545 S
C678 C687 1.429 . S
C679 C677 1.419 . S
C679 C680 1.363 . S
C679 H682 0.929 . S
C680 C679 1.363 . S
C680 C686 1.428 1_565 S
H681 C677 0.930 . S
H682 C679 0.929 . S
S683 N684 1.613 . S
S683 N685 1.610 . S
N684 S683 1.613 . S
N684 C687 1.350 . S
N685 S683 1.610 . S
N685 C686 1.351 . S
C686 C680 1.428 1_545 S
C686 N685 1.351 . S
C686 C687 1.434 . S
C687 C678 1.429 . S
C687 N684 1.350 . S
C687 C686 1.434 . S
C688 C689 1.369 . S
C688 C690 1.419 . S
C688 H692 0.930 . S
C689 C688 1.369 . S
C689 C698 1.429 . S
C690 C688 1.419 . S
C690 C691 1.363 . S
C690 H693 0.929 . S
C691 C690 1.363 . S
C691 C697 1.428 . S
H692 C688 0.930 . S
H693 C690 0.929 . S
S694 N695 1.613 . S
S694 N696 1.610 . S
N695 S694 1.613 . S
N695 C698 1.350 . S
N696 S694 1.610 . S
N696 C697 1.351 . S
C697 C691 1.428 . S
C697 N696 1.351 . S
C697 C698 1.434 . S
C698 C689 1.429 . S
C698 N695 1.350 . S
C698 C697 1.434 . S
C699 C700 1.369 . S
C699 C701 1.419 1_655 S
C699 H703 0.930 . S
C700 C699 1.369 . S
C700 C709 1.429 . S
C701 C699 1.419 1_455 S
C701 C702 1.363 . S
C701 H704 0.929 . S
C702 C701 1.363 . S
C702 C708 1.428 . S
H703 C699 0.930 . S
H704 C701 0.929 . S
S705 N706 1.613 1_454 S
S705 N707 1.610 1_554 S
N706 S705 1.613 1_656 S
N706 C709 1.350 . S
N707 S705 1.610 1_556 S
N707 C708 1.351 . S
C708 C702 1.428 . S
C708 N707 1.351 . S
C708 C709 1.434 1_455 S
C709 C700 1.429 . S
C709 N706 1.350 . S
C709 C708 1.434 1_655 S
C710 C711 1.369 . S
C710 C712 1.419 . S
C710 H714 0.930 . S
C711 C710 1.369 . S
C711 C720 1.429 1_455 S
C712 C710 1.419 . S
C712 C713 1.363 1_455 S
C712 H715 0.929 . S
C713 C712 1.363 1_655 S
C713 C719 1.428 . S
H714 C710 0.930 . S
H715 C712 0.929 . S
S716 N717 1.613 . S
S716 N718 1.610 . S
N717 S716 1.613 . S
N717 C720 1.350 . S
N718 S716 1.610 . S
N718 C719 1.351 . S
C719 C713 1.428 . S
C719 N718 1.351 . S
C719 C720 1.434 . S
C720 C711 1.429 1_655 S
C720 N717 1.350 . S
C720 C719 1.434 . S
C721 C722 1.369 . S
C721 C723 1.419 . S
C721 H725 0.930 . S
C722 C721 1.369 . S
C722 C731 1.429 . S
C723 C721 1.419 . S
C723 C724 1.363 . S
C723 H726 0.929 . S
C724 C723 1.363 . S
C724 C730 1.428 . S
H725 C721 0.930 . S
H726 C723 0.929 . S
S727 N728 1.613 . S
S727 N729 1.610 . S
N728 S727 1.613 . S
N728 C731 1.350 . S
N729 S727 1.610 . S
N729 C730 1.351 . S
C730 C724 1.428 . S
C730 N729 1.351 . S
C730 C731 1.434 . S
C731 C722 1.429 . S
C731 N728 1.350 . S
C731 C730 1.434 . S
C732 C733 1.369 . S
C732 C734 1.419 1_455 S
C732 H736 0.930 . S
C733 C732 1.369 . S
C733 C742 1.429 . S
C734 C732 1.419 1_655 S
C734 C735 1.363 . S
C734 H737 0.929 . S
C735 C734 1.363 . S
C735 C741 1.445 . S
H736 C732 0.930 . S
H737 C734 0.929 . S
S738 N739 1.613 . S
S738 N740 1.610 . S
N739 S738 1.613 . S
N739 C742 1.350 . S
N740 S738 1.610 . S
N740 C741 1.349 1_455 S
C741 C735 1.445 . S
C741 N740 1.349 1_655 S
C741 C742 1.418 1_655 S
C742 C733 1.429 . S
C742 N739 1.350 . S
C742 C741 1.418 1_455 S
C743 C744 1.369 . S
C743 C745 1.419 . S
C743 H747 0.930 . S
C744 C743 1.369 . S
C744 C753 1.429 1_455 S
C745 C743 1.419 . S
C745 C746 1.363 1_455 S
C745 H748 0.929 . S
C746 C745 1.363 1_655 S
C746 C752 1.428 . S
H747 C743 0.930 . S
H748 C745 0.929 . S
S749 N750 1.613 . S
S749 N751 1.610 . S
N750 S749 1.613 . S
N750 C753 1.350 . S
N751 S749 1.610 . S
N751 C752 1.351 . S
C752 C746 1.428 . S
C752 N751 1.351 . S
C752 C753 1.434 . S
C753 C744 1.429 1_655 S
C753 N750 1.350 . S
C753 C752 1.434 . S
C754 C755 1.369 . S
C754 C756 1.419 . S
C754 H758 0.930 . S
C755 C754 1.369 . S
C755 C764 1.429 . S
C756 C754 1.419 . S
C756 C757 1.363 . S
C756 H759 0.929 . S
C757 C756 1.363 . S
C757 C763 1.428 . S
H758 C754 0.930 . S
H759 C756 0.929 . S
S760 N761 1.613 . S
S760 N762 1.610 . S
N761 S760 1.613 . S
N761 C764 1.350 . S
N762 S760 1.610 . S
N762 C763 1.351 . S
C763 C757 1.428 . S
C763 N762 1.351 . S
C763 C764 1.434 . S
C764 C755 1.429 . S
C764 N761 1.350 . S
C764 C763 1.434 . S
C765 C766 1.369 . S
C765 C767 1.419 1_565 S
C765 H769 0.930 . S
C766 C765 1.369 . S
C766 C775 1.429 . S
C767 C765 1.419 1_545 S
C767 C768 1.363 . S
C767 H770 0.929 . S
C768 C767 1.363 . S
C768 C774 1.428 . S
H769 C765 0.930 . S
H770 C767 0.929 . S
S771 N772 1.613 . S
S771 N773 1.595 1_565 S
N772 S771 1.613 . S
N772 C775 1.350 . S
N773 S771 1.595 1_545 S
N773 C774 1.352 . S
C774 C768 1.428 . S
C774 N773 1.352 . S
C774 C775 1.434 1_545 S
C775 C766 1.429 . S
C775 N772 1.350 . S
C775 C774 1.434 1_565 S
C776 C777 1.369 . S
C776 C778 1.419 1_556 S
C776 H780 0.930 . S
C777 C776 1.369 . S
C777 C786 1.429 . S
C778 C776 1.419 1_554 S
C778 C779 1.363 . S
C778 H781 0.929 . S
C779 C778 1.363 . S
C779 C785 1.434 . S
H780 C776 0.930 . S
H781 C778 0.929 . S
S782 N783 1.613 . S
S782 N784 1.610 . S
N783 S782 1.613 . S
N783 C786 1.350 . S
N784 S782 1.610 . S
N784 C785 1.350 1_556 S
C785 C779 1.434 . S
C785 N784 1.350 1_554 S
C785 C786 1.428 1_554 S
C786 C777 1.429 . S
C786 N783 1.350 . S
C786 C785 1.428 1_556 S
C787 C788 1.369 . S
C787 C789 1.419 1_545 S
C787 H791 0.930 . S
C788 C787 1.369 . S
C788 C797 1.429 . S
C789 C787 1.419 1_565 S
C789 C790 1.363 . S
C789 H792 0.929 . S
C790 C789 1.363 . S
C790 C796 1.428 . S
H791 C787 0.930 . S
H792 C789 0.929 . S
S793 N794 1.613 . S
S793 N795 1.610 1_545 S
N794 S793 1.613 . S
N794 C797 1.350 . S
N795 S793 1.610 1_565 S
N795 C796 1.351 . S
C796 C790 1.428 . S
C796 N795 1.351 . S
C796 C797 1.434 1_565 S
C797 C788 1.429 . S
C797 N794 1.350 . S
C797 C796 1.434 1_545 S
C798 C799 1.369 . S
C798 C800 1.419 . S
C798 H802 0.930 . S
C799 C798 1.369 . S
C799 C808 1.429 . S
C800 C798 1.419 . S
C800 C801 1.363 . S
C800 H803 0.929 . S
C801 C800 1.363 . S
C801 C807 1.428 . S
H802 C798 0.930 . S
H803 C800 0.929 . S
S804 N805 1.613 . S
S804 N806 1.610 . S
N805 S804 1.613 . S
N805 C808 1.350 . S
N806 S804 1.610 . S
N806 C807 1.351 . S
C807 C801 1.428 . S
C807 N806 1.351 . S
C807 C808 1.434 . S
C808 C799 1.429 . S
C808 N805 1.350 . S
C808 C807 1.434 . S
C809 C810 1.369 . S
C809 C811 1.419 1_554 S
C809 H813 0.930 . S
C810 C809 1.369 . S
C810 C819 1.429 . S
C811 C809 1.419 1_556 S
C811 C812 1.363 . S
C811 H814 0.929 . S
C812 C811 1.363 . S
C812 C818 1.428 . S
H813 C809 0.930 . S
H814 C811 0.929 . S
S815 N816 1.613 . S
S815 N817 1.610 1_554 S
N816 S815 1.613 . S
N816 C819 1.350 . S
N817 S815 1.610 1_556 S
N817 C818 1.351 . S
C818 C812 1.428 . S
C818 N817 1.351 . S
C818 C819 1.434 1_556 S
C819 C810 1.429 . S
C819 N816 1.350 . S
C819 C818 1.434 1_554 S
C820 C821 1.369 . S
C820 C822 1.419 . S
C820 H824 0.930 . S
C821 C820 1.369 . S
C821 C830 1.429 . S
C822 C820 1.419 . S
C822 C823 1.363 . S
C822 H825 0.929 . S
C823 C822 1.363 . S
C823 C829 1.428 . S
H824 C820 0.930 . S
H825 C822 0.929 . S
S826 N827 1.613 . S
S826 N828 1.610 . S
N827 S826 1.613 . S
N827 C830 1.350 . S
N828 S826 1.610 . S
N828 C829 1.351 . S
C829 C823 1.428 . S
C829 N828 1.351 . S
C829 C830 1.434 . S
C830 C821 1.429 . S
C830 N827 1.350 . S
C830 C829 1.434 . S
C831 C832 1.369 . S
C831 C833 1.419 . S
C831 H835 0.930 . S
C832 C831 1.369 . S
C832 C841 1.429 . S
C833 C831 1.419 . S
C833 C834 1.363 . S
C833 H836 0.929 . S
C834 C833 1.363 . S
C834 C840 1.428 . S
H835 C831 0.930 . S
H836 C833 0.929 . S
S837 N838 1.613 . S
S837 N839 1.610 . S
N838 S837 1.613 . S
N838 C841 1.350 . S
N839 S837 1.610 . S
N839 C840 1.351 . S
C840 C834 1.428 . S
C840 N839 1.351 . S
C840 C841 1.434 . S
C841 C832 1.429 . S
C841 N838 1.350 . S
C841 C840 1.434 . S
C842 C843 1.369 . S
C842 C844 1.419 . S
C842 H846 0.930 . S
C843 C842 1.369 . S
C843 C852 1.429 . S
C844 C842 1.419 . S
C844 C845 1.363 . S
C844 H847 0.929 . S
C845 C844 1.363 . S
C845 C851 1.428 . S
H846 C842 0.930 . S
H847 C844 0.929 . S
S848 N849 1.613 . S
S848 N850 1.610 . S
N849 S848 1.613 . S
N849 C852 1.350 . S
N850 S848 1.610 . S
N850 C851 1.351 . S
C851 C845 1.428 . S
C851 N850 1.351 . S
C851 C852 1.434 . S
C852 C843 1.429 . S
C852 N849 1.350 . S
C852 C851 1.434 . S
C853 C854 1.369 . S
C853 C855 1.419 . S
C853 H857 0.930 . S
C854 C853 1.369 . S
C854 C863 1.429 . S
C855 C853 1.419 . S
C855 C856 1.363 . S
C855 H858 0.929 . S
C856 C855 1.363 . S
C856 C862 1.428 . S
H857 C853 0.930 . S
H858 C855 0.929 . S
S859 N860 1.613 . S
S859 N861 1.610 . S
N860 S859 1.613 . S
N860 C863 1.350 . S
N861 S859 1.610 . S
N861 C862 1.351 . S
C862 C856 1.428 . S
C862 N861 1.351 . S
C862 C863 1.434 . S
C863 C854 1.429 . S
C863 N860 1.350 . S
C863 C862 1.434 . S
C337 C0 1.491 . S
C339 C126 1.488 . S
C348 C27 1.492 . S
C350 C153 1.489 . S
C359 C155 1.490 . S
C361 C28 1.489 . S
C370 C112 1.488 . S
C372 C42 1.491 . S
C381 C141 1.490 . S
C383 C68 1.490 . S
C392 C70 1.491 . S
C394 C167 1.488 . S
C403 C96 1.490 . S
C405 C124 1.490 . S
C414 C138 1.489 . S
C416 C99 1.490 . S
C425 C56 1.487 . S
C427 C169 1.491 . S
C436 C111 1.488 . S
C438 C222 1.491 . S
C447 C237 1.488 . S
C449 C82 1.491 . S
C458 C54 1.490 . S
C460 C195 1.490 . S
C469 C208 1.491 . S
C471 C84 1.489 . S
C480 C12 1.487 . S
C482 C279 1.491 . S
C491 C40 1.491 . S
C493 C265 1.489 . S
C502 C210 1.490 . S
C504 C294 1.488 . S
C513 C320 1.491 . S
C515 C181 1.489 . S
C524 C334 1.489 . S
C526 C225 1.491 . S
C535 C292 1.489 . S
C537 C196 1.489 . S
C546 C308 1.488 . S
C548 C250 1.491 . S
C557 C253 1.492 . S
C559 C322 1.488 . S
C568 C280 1.490 . S
C570 C183 1.490 . S
C579 C267 1.492 . S
C581 C306 1.489 . S
C590 C15 1.492 . S
C592 C238 1.488 . S
C601 C69 1.124 . S
C603 C1 1.130 . S
C612 C26 1.124 . S
C614 C71 1.131 . S
C623 C29 1.131 . S
C625 C97 1.125 . S
C634 C98 1.131 . S
C636 C43 1.125 . S
C645 C113 1.130 . S
C647 C139 1.125 . S
C656 C127 1.129 . S
C658 C140 1.125 . S
C667 C166 1.130 . S
C669 C152 1.126 . S
C678 C125 1.124 . S
C680 C154 1.129 . S
C689 C55 1.125 . S
C691 C168 1.130 . S
C700 C110 1.127 . S
C702 C264 1.129 . S
C711 C57 1.128 . S
C713 C194 1.125 . S
C722 C278 1.129 . S
C724 C83 1.125 . S
C733 C209 1.131 . S
C735 C14 1.124 . S
C744 C13 1.131 . S
C746 C236 1.124 . S
C755 C41 1.128 . S
C757 C223 1.130 . S
C766 C211 1.131 . S
C768 C251 1.125 . S
C777 C252 1.124 . S
C779 C180 1.128 . S
C788 C224 1.125 . S
C790 C182 1.127 . S
C799 C197 1.131 . S
C801 C266 1.125 . S
C810 C307 1.127 . S
C812 C293 1.126 . S
C821 C309 1.128 . S
C823 C295 1.125 . S
C832 C323 1.125 . S
C834 C321 1.128 . S
C843 C281 1.131 . S
C845 C335 1.125 . S
C854 C239 1.127 . S
C856 C85 1.126 . S
