# Generated by pormake.
# Topology wgp, (5)-cn, num edge types: 1
# Building blocks:
#     Node 0, Type 0, BuildingBlock: XOMCOT_clean_sbu_1, # of connection points: 5
#     Node 1, Type 0, BuildingBlock: XOMCOT_clean_sbu_1, # of connection points: 5
#     Node 2, Type 0, BuildingBlock: XOMCOT_clean_sbu_1, # of connection points: 5
#     Node 3, Type 0, BuildingBlock: XOMCOT_clean_sbu_1, # of connection points: 5
#     Node 4, Type 0, BuildingBlock: XOMCOT_clean_sbu_1, # of connection points: 5
#     Node 5, Type 0, BuildingBlock: XOMCOT_clean_sbu_1, # of connection points: 5
#     Node 6, Type 0, BuildingBlock: XOMCOT_clean_sbu_1, # of connection points: 5
#     Node 7, Type 0, BuildingBlock: XOMCOT_clean_sbu_1, # of connection points: 5
#     Node 8, Type 0, BuildingBlock: XOMCOT_clean_sbu_1, # of connection points: 5
#     Node 9, Type 0, BuildingBlock: XOMCOT_clean_sbu_1, # of connection points: 5
#     Node 10, Type 0, BuildingBlock: XOMCOT_clean_sbu_1, # of connection points: 5
#     Node 11, Type 0, BuildingBlock: XOMCOT_clean_sbu_1, # of connection points: 5
#     Node 12, Type 0, BuildingBlock: XOMCOT_clean_sbu_1, # of connection points: 5
#     Node 13, Type 0, BuildingBlock: XOMCOT_clean_sbu_1, # of connection points: 5
#     Node 14, Type 0, BuildingBlock: XOMCOT_clean_sbu_1, # of connection points: 5
#     Node 15, Type 0, BuildingBlock: XOMCOT_clean_sbu_1, # of connection points: 5
#     Node 16, Type 0, BuildingBlock: XOMCOT_clean_sbu_1, # of connection points: 5
#     Node 17, Type 0, BuildingBlock: XOMCOT_clean_sbu_1, # of connection points: 5
#     Node 18, Type 0, BuildingBlock: XOMCOT_clean_sbu_1, # of connection points: 5
#     Node 19, Type 0, BuildingBlock: XOMCOT_clean_sbu_1, # of connection points: 5
#     Node 20, Type 0, BuildingBlock: XOMCOT_clean_sbu_1, # of connection points: 5
#     Node 21, Type 0, BuildingBlock: XOMCOT_clean_sbu_1, # of connection points: 5
#     Node 22, Type 0, BuildingBlock: XOMCOT_clean_sbu_1, # of connection points: 5
#     Node 23, Type 0, BuildingBlock: XOMCOT_clean_sbu_1, # of connection points: 5
#     Node 24, Type 0, BuildingBlock: XOMCOT_clean_sbu_1, # of connection points: 5
#     Node 25, Type 0, BuildingBlock: XOMCOT_clean_sbu_1, # of connection points: 5
#     Node 26, Type 0, BuildingBlock: XOMCOT_clean_sbu_1, # of connection points: 5
#     Node 27, Type 0, BuildingBlock: XOMCOT_clean_sbu_1, # of connection points: 5
#     Node 28, Type 0, BuildingBlock: XOMCOT_clean_sbu_1, # of connection points: 5
#     Node 29, Type 0, BuildingBlock: XOMCOT_clean_sbu_1, # of connection points: 5
#     Node 30, Type 0, BuildingBlock: XOMCOT_clean_sbu_1, # of connection points: 5
#     Node 31, Type 0, BuildingBlock: XOMCOT_clean_sbu_1, # of connection points: 5
#     Edge 32, Type (0, 0), BuildingBlock: OJICUG_clean_linker_0, # of connection points: 2
#     Edge 33, Type (0, 0), BuildingBlock: OJICUG_clean_linker_0, # of connection points: 2
#     Edge 34, Type (0, 0), BuildingBlock: OJICUG_clean_linker_0, # of connection points: 2
#     Edge 35, Type (0, 0), BuildingBlock: OJICUG_clean_linker_0, # of connection points: 2
#     Edge 36, Type (0, 0), BuildingBlock: OJICUG_clean_linker_0, # of connection points: 2
#     Edge 37, Type (0, 0), BuildingBlock: OJICUG_clean_linker_0, # of connection points: 2
#     Edge 38, Type (0, 0), BuildingBlock: OJICUG_clean_linker_0, # of connection points: 2
#     Edge 39, Type (0, 0), BuildingBlock: OJICUG_clean_linker_0, # of connection points: 2
#     Edge 40, Type (0, 0), BuildingBlock: OJICUG_clean_linker_0, # of connection points: 2
#     Edge 41, Type (0, 0), BuildingBlock: OJICUG_clean_linker_0, # of connection points: 2
#     Edge 42, Type (0, 0), BuildingBlock: OJICUG_clean_linker_0, # of connection points: 2
#     Edge 43, Type (0, 0), BuildingBlock: OJICUG_clean_linker_0, # of connection points: 2
#     Edge 44, Type (0, 0), BuildingBlock: OJICUG_clean_linker_0, # of connection points: 2
#     Edge 45, Type (0, 0), BuildingBlock: OJICUG_clean_linker_0, # of connection points: 2
#     Edge 46, Type (0, 0), BuildingBlock: OJICUG_clean_linker_0, # of connection points: 2
#     Edge 47, Type (0, 0), BuildingBlock: OJICUG_clean_linker_0, # of connection points: 2
#     Edge 48, Type (0, 0), BuildingBlock: OJICUG_clean_linker_0, # of connection points: 2
#     Edge 49, Type (0, 0), BuildingBlock: OJICUG_clean_linker_0, # of connection points: 2
#     Edge 50, Type (0, 0), BuildingBlock: OJICUG_clean_linker_0, # of connection points: 2
#     Edge 51, Type (0, 0), BuildingBlock: OJICUG_clean_linker_0, # of connection points: 2
#     Edge 52, Type (0, 0), BuildingBlock: OJICUG_clean_linker_0, # of connection points: 2
#     Edge 53, Type (0, 0), BuildingBlock: OJICUG_clean_linker_0, # of connection points: 2
#     Edge 54, Type (0, 0), BuildingBlock: OJICUG_clean_linker_0, # of connection points: 2
#     Edge 55, Type (0, 0), BuildingBlock: OJICUG_clean_linker_0, # of connection points: 2
#     Edge 56, Type (0, 0), BuildingBlock: OJICUG_clean_linker_0, # of connection points: 2
#     Edge 57, Type (0, 0), BuildingBlock: OJICUG_clean_linker_0, # of connection points: 2
#     Edge 58, Type (0, 0), BuildingBlock: OJICUG_clean_linker_0, # of connection points: 2
#     Edge 59, Type (0, 0), BuildingBlock: OJICUG_clean_linker_0, # of connection points: 2
#     Edge 60, Type (0, 0), BuildingBlock: OJICUG_clean_linker_0, # of connection points: 2
#     Edge 61, Type (0, 0), BuildingBlock: OJICUG_clean_linker_0, # of connection points: 2
#     Edge 62, Type (0, 0), BuildingBlock: OJICUG_clean_linker_0, # of connection points: 2
#     Edge 63, Type (0, 0), BuildingBlock: OJICUG_clean_linker_0, # of connection points: 2
#     Edge 64, Type (0, 0), BuildingBlock: OJICUG_clean_linker_0, # of connection points: 2
#     Edge 65, Type (0, 0), BuildingBlock: OJICUG_clean_linker_0, # of connection points: 2
#     Edge 66, Type (0, 0), BuildingBlock: OJICUG_clean_linker_0, # of connection points: 2
#     Edge 67, Type (0, 0), BuildingBlock: OJICUG_clean_linker_0, # of connection points: 2
#     Edge 68, Type (0, 0), BuildingBlock: OJICUG_clean_linker_0, # of connection points: 2
#     Edge 69, Type (0, 0), BuildingBlock: OJICUG_clean_linker_0, # of connection points: 2
#     Edge 70, Type (0, 0), BuildingBlock: OJICUG_clean_linker_0, # of connection points: 2
#     Edge 71, Type (0, 0), BuildingBlock: OJICUG_clean_linker_0, # of connection points: 2
#     Edge 72, Type (0, 0), BuildingBlock: OJICUG_clean_linker_0, # of connection points: 2
#     Edge 73, Type (0, 0), BuildingBlock: OJICUG_clean_linker_0, # of connection points: 2
#     Edge 74, Type (0, 0), BuildingBlock: OJICUG_clean_linker_0, # of connection points: 2
#     Edge 75, Type (0, 0), BuildingBlock: OJICUG_clean_linker_0, # of connection points: 2
#     Edge 76, Type (0, 0), BuildingBlock: OJICUG_clean_linker_0, # of connection points: 2
#     Edge 77, Type (0, 0), BuildingBlock: OJICUG_clean_linker_0, # of connection points: 2
#     Edge 78, Type (0, 0), BuildingBlock: OJICUG_clean_linker_0, # of connection points: 2
#     Edge 79, Type (0, 0), BuildingBlock: OJICUG_clean_linker_0, # of connection points: 2
#     Edge 80, Type (0, 0), BuildingBlock: OJICUG_clean_linker_0, # of connection points: 2
#     Edge 81, Type (0, 0), BuildingBlock: OJICUG_clean_linker_0, # of connection points: 2
#     Edge 82, Type (0, 0), BuildingBlock: OJICUG_clean_linker_0, # of connection points: 2
#     Edge 83, Type (0, 0), BuildingBlock: OJICUG_clean_linker_0, # of connection points: 2
#     Edge 84, Type (0, 0), BuildingBlock: OJICUG_clean_linker_0, # of connection points: 2
#     Edge 85, Type (0, 0), BuildingBlock: OJICUG_clean_linker_0, # of connection points: 2
#     Edge 86, Type (0, 0), BuildingBlock: OJICUG_clean_linker_0, # of connection points: 2
#     Edge 87, Type (0, 0), BuildingBlock: OJICUG_clean_linker_0, # of connection points: 2
#     Edge 88, Type (0, 0), BuildingBlock: OJICUG_clean_linker_0, # of connection points: 2
#     Edge 89, Type (0, 0), BuildingBlock: OJICUG_clean_linker_0, # of connection points: 2
#     Edge 90, Type (0, 0), BuildingBlock: OJICUG_clean_linker_0, # of connection points: 2
#     Edge 91, Type (0, 0), BuildingBlock: OJICUG_clean_linker_0, # of connection points: 2
#     Edge 92, Type (0, 0), BuildingBlock: OJICUG_clean_linker_0, # of connection points: 2
#     Edge 93, Type (0, 0), BuildingBlock: OJICUG_clean_linker_0, # of connection points: 2
#     Edge 94, Type (0, 0), BuildingBlock: OJICUG_clean_linker_0, # of connection points: 2
#     Edge 95, Type (0, 0), BuildingBlock: OJICUG_clean_linker_0, # of connection points: 2
#     Edge 96, Type (0, 0), BuildingBlock: OJICUG_clean_linker_0, # of connection points: 2
#     Edge 97, Type (0, 0), BuildingBlock: OJICUG_clean_linker_0, # of connection points: 2
#     Edge 98, Type (0, 0), BuildingBlock: OJICUG_clean_linker_0, # of connection points: 2
#     Edge 99, Type (0, 0), BuildingBlock: OJICUG_clean_linker_0, # of connection points: 2
#     Edge 100, Type (0, 0), BuildingBlock: OJICUG_clean_linker_0, # of connection points: 2
#     Edge 101, Type (0, 0), BuildingBlock: OJICUG_clean_linker_0, # of connection points: 2
#     Edge 102, Type (0, 0), BuildingBlock: OJICUG_clean_linker_0, # of connection points: 2
#     Edge 103, Type (0, 0), BuildingBlock: OJICUG_clean_linker_0, # of connection points: 2
#     Edge 104, Type (0, 0), BuildingBlock: OJICUG_clean_linker_0, # of connection points: 2
#     Edge 105, Type (0, 0), BuildingBlock: OJICUG_clean_linker_0, # of connection points: 2
#     Edge 106, Type (0, 0), BuildingBlock: OJICUG_clean_linker_0, # of connection points: 2
#     Edge 107, Type (0, 0), BuildingBlock: OJICUG_clean_linker_0, # of connection points: 2
#     Edge 108, Type (0, 0), BuildingBlock: OJICUG_clean_linker_0, # of connection points: 2
#     Edge 109, Type (0, 0), BuildingBlock: OJICUG_clean_linker_0, # of connection points: 2
#     Edge 110, Type (0, 0), BuildingBlock: OJICUG_clean_linker_0, # of connection points: 2
#     Edge 111, Type (0, 0), BuildingBlock: OJICUG_clean_linker_0, # of connection points: 2
# Relax obj value: 0.168
# Max RMSD: 0.159
# Mean RMSD: 0.159
data_MOF--net-wgp--node1-XOMCOT_clean_sbu_1--edge1-OJICUG_clean_linker_0
_symmetry_space_group_name_H-M    P1
_symmetry_Int_Tables_number       1
_symmetry_cell_setting            triclinic
loop_
_symmetry_equiv_pos_as_xyz
'x, y, z'
_cell_length_a     27.356458
_cell_length_b     27.388704
_cell_length_c     75.741867
_cell_angle_alpha  90.145191
_cell_angle_beta   89.982406
_cell_angle_gamma 90.129075
loop_
_atom_site_label
_atom_site_type_symbol
_atom_site_fract_x
_atom_site_fract_y
_atom_site_fract_z
_atom_type_partial_charge
C0 C 0.1966 0.22201 0.05764 0.0
C1 C 0.18928 0.27184 0.05722 0.0
N2 N 0.22287 0.29356 0.06766 0.0
N3 N 0.23471 0.21196 0.06828 0.0
C4 C 0.24957 0.25628 0.07432 0.0
H5 H 0.17593 0.19486 0.05039 0.0
Co6 Co 0.26194 0.14952 0.07312 0.0
C7 C 0.28453 0.10591 0.03878 0.0
O8 O 0.32399 0.08854 0.04634 0.0
N9 N 0.28776 0.08537 0.07826 0.0
C10 C 0.33069 0.01949 0.08615 0.0
C11 C 0.33024 0.06976 0.08548 0.0
C12 C 0.26316 0.04308 0.07485 0.0
N13 N 0.28839 1.0025 0.07946 0.0
O14 O 0.20007 0.1261 0.08042 0.0
H15 H 0.35993 0.09249 0.08994 0.0
H16 H 0.22754 0.04213 0.06866 0.0
O17 O 0.25343 0.13014 0.04804 0.0
C18 C 0.19594 0.14143 0.0963 0.0
O19 O 0.22656 0.1752 0.10184 0.0
N20 N 0.32276 0.17569 0.06824 0.0
C21 C 0.399 0.24271 0.06811 0.0
C22 C 0.3718 0.23405 0.05273 0.0
C23 C 0.33364 0.20042 0.05308 0.0
C24 C 0.34845 0.18418 0.08329 0.0
C25 C 0.38789 0.21593 0.08336 0.0
H26 H 0.30985 0.19865 0.04174 0.0
H27 H 0.33591 0.16906 0.09566 0.0
H28 H 0.27982 0.26112 0.08335 0.0
H29 H 0.16228 0.29063 0.04933 0.0
H30 H 0.3598 0.99729 0.09149 0.0
H31 H 0.37783 0.25504 0.04084 0.0
H32 H 0.40807 0.22067 0.09553 0.0
C33 C 0.02486 0.06783 0.33561 0.0
C34 C 0.97546 0.06388 0.33831 0.0
N35 N 0.96073 0.01944 0.33286 0.0
N36 N 0.04212 0.02659 0.32805 0.0
C37 C 1.00211 0.99704 0.32709 0.0
H38 H 0.04702 0.09927 0.33895 0.0
Co39 Co 0.11072 0.01931 0.32303 0.0
C40 C 0.06773 0.98331 0.28741 0.0
O41 O 0.02111 0.98559 0.29134 0.0
N42 N 0.17893 0.01305 0.31843 0.0
C43 C 0.2487 0.01845 0.30339 0.0
C44 C 0.1989 0.022 0.30245 0.0
C45 C 0.21815 1.00504 0.32906 0.0
N46 N 0.2612 0.00783 0.32011 0.0
O47 O 0.11094 0.95758 0.33472 0.0
H48 H 0.17877 0.0338 0.29098 0.0
H49 H 0.21525 0.9985 0.34311 0.0
O50 O 0.09986 0.99141 0.29933 0.0
C51 C 0.10673 0.9657 0.35128 0.0
O52 O 0.10036 0.01093 0.35662 0.0
N53 N 0.11202 0.0815 0.31311 0.0
C54 C 0.10522 0.1799 0.30485 0.0
C55 C 0.07427 0.14548 0.29678 0.0
C56 C 0.07839 0.09656 0.30104 0.0
C57 C 0.14475 0.11369 0.32013 0.0
C58 C 0.14312 0.16287 0.31568 0.0
H59 H 0.05073 0.07219 0.29617 0.0
H60 H 0.17067 0.10174 0.32998 0.0
H61 H 1.00333 0.95966 0.32246 0.0
H62 H 0.95201 0.0922 0.34355 0.0
H63 H 0.27398 0.02594 0.29273 0.0
H64 H 0.0435 0.15608 0.2887 0.0
H65 H 0.16885 0.18763 0.32186 0.0
C66 C 0.20198 0.75919 0.58629 0.0
C67 C 0.20271 0.70928 0.58714 0.0
N68 N 0.24751 0.69353 0.58258 0.0
N69 N 0.24591 0.7763 0.58091 0.0
C70 C 0.2734 0.73502 0.57925 0.0
H71 H 0.17103 0.7812 0.58999 0.0
Co72 Co 0.26267 0.84485 0.57908 0.0
C73 C 0.28234 0.80895 0.54113 0.0
O74 O 0.27513 0.76215 0.54368 0.0
N75 N 0.27979 0.9126 0.57731 0.0
C76 C 0.32527 0.97734 0.57008 0.0
C77 C 0.32256 0.92723 0.57013 0.0
C78 C 0.25701 0.95534 0.58148 0.0
N79 N 0.28393 0.99525 0.57719 0.0
O80 O 0.32726 0.83202 0.58737 0.0
H81 H 0.35011 0.90282 0.56496 0.0
H82 H 0.22149 0.95784 0.58757 0.0
O83 O 0.28029 0.83874 0.55415 0.0
C84 C 0.32628 0.82397 0.60398 0.0
O85 O 0.28419 0.81216 0.61119 0.0
N86 N 0.19857 0.85929 0.573 0.0
C87 C 0.09741 0.85643 0.57226 0.0
C88 C 0.12476 0.84386 0.55722 0.0
C89 C 0.17535 0.84596 0.55781 0.0
C90 C 0.1727 0.87672 0.58701 0.0
C91 C 0.12196 0.8775 0.58665 0.0
H92 H 0.19466 0.83168 0.54666 0.0
H93 H 0.19148 0.88584 0.59915 0.0
H94 H 0.31162 0.73548 0.57556 0.0
H95 H 0.17263 0.6865 0.59142 0.0
H96 H 0.35495 0.99889 0.56473 0.0
H97 H 0.10831 0.82719 0.5457 0.0
H98 H 0.10261 0.88968 0.59831 0.0
C99 C 0.50564 0.944 0.83906 0.0
C100 C 0.55495 0.95081 0.84134 0.0
N101 N 0.56793 0.9932 0.83368 0.0
N102 N 0.48674 0.98134 0.8297 0.0
C103 C 0.5256 0.01158 0.82704 0.0
H104 H 0.48477 0.91306 0.84376 0.0
Co105 Co 0.41841 0.98314 0.82401 0.0
C106 C 0.45989 0.01662 0.7877 0.0
O107 O 0.507 0.01178 0.79039 0.0
N108 N 0.35013 0.98445 0.81854 0.0
C109 C 0.28207 0.97233 0.80296 0.0
C110 C 0.33205 0.9695 0.80283 0.0
C111 C 0.30964 0.9958 0.82813 0.0
N112 N 0.26753 0.98896 0.81884 0.0
O113 O 0.41322 0.04576 0.8347 0.0
H114 H 0.35384 0.95545 0.79206 0.0
H115 H 0.31099 0.00842 0.84167 0.0
O116 O 0.42946 0.00854 0.80019 0.0
C117 C 0.41139 0.03611 0.8512 0.0
O118 O 0.41534 0.9903 0.85613 0.0
N119 N 0.42198 0.91967 0.81545 0.0
C120 C 0.43406 0.8203 0.81014 0.0
C121 C 0.46382 0.85403 0.80126 0.0
C122 C 0.45699 0.90365 0.80403 0.0
C123 C 0.39117 0.88757 0.8235 0.0
C124 C 0.39549 0.83776 0.82056 0.0
H125 H 0.48312 0.92841 0.79842 0.0
H126 H 0.36456 0.90047 0.83297 0.0
H127 H 0.52294 0.04652 0.82049 0.0
H128 H 0.5796 0.92554 0.84772 0.0
H129 H 0.25824 0.96115 0.79228 0.0
H130 H 0.49498 0.84258 0.79349 0.0
H131 H 0.371 0.81317 0.82742 0.0
C132 C 0.30999 0.80542 0.41643 0.0
C133 C 0.30767 0.75548 0.41492 0.0
N134 N 0.27381 0.73899 0.42635 0.0
N135 N 0.27747 0.82049 0.42867 0.0
C136 C 0.25619 0.77903 0.43463 0.0
H137 H 0.3334 0.82946 0.40889 0.0
Co138 Co 0.26377 0.88621 0.43352 0.0
C139 C 0.25239 0.89321 0.47191 0.0
O140 O 0.27524 0.93523 0.47029 0.0
N141 N 0.24762 0.95297 0.43776 0.0
C142 C 0.20076 0.01466 0.44697 0.0
C143 C 0.20436 0.96497 0.44529 0.0
C144 C 0.26847 0.99692 0.4341 0.0
N145 N 0.24108 0.03469 0.43996 0.0
O146 O 0.2011 0.87837 0.42276 0.0
H147 H 0.17696 0.9389 0.44945 0.0
H148 H 0.30244 1.00196 0.42714 0.0
O149 O 0.24093 0.86887 0.4579 0.0
C150 C 0.21 0.88106 0.40622 0.0
O151 O 0.25551 0.88729 0.40113 0.0
N152 N 0.32767 0.89308 0.44205 0.0
C153 C 0.42733 0.88784 0.4491 0.0
C154 C 0.39393 0.85941 0.4586 0.0
C155 C 0.34478 0.86162 0.45457 0.0
C156 C 0.35963 0.92034 0.4324 0.0
C157 C 0.40963 0.91941 0.43604 0.0
H158 H 0.32131 0.83461 0.46052 0.0
H159 H 0.34715 0.93941 0.42082 0.0
H160 H 0.22761 0.77825 0.44451 0.0
H161 H 0.3296 0.73289 0.40627 0.0
H162 H 0.17014 0.03471 0.45239 0.0
H163 H 0.40579 0.83196 0.46792 0.0
H164 H 0.43434 0.94054 0.4279 0.0
C165 C 0.47478 0.06666 0.66702 0.0
C166 C 0.525 0.06801 0.66744 0.0
N167 N 0.54108 0.03071 0.67747 0.0
N168 N 0.45868 0.02892 0.67682 0.0
C169 C 0.49986 0.00754 0.68298 0.0
H170 H 0.45132 0.09171 0.66 0.0
Co171 Co 0.39231 0.01187 0.6796 0.0
C172 C 0.37855 0.9953 0.71747 0.0
O173 O 0.33488 0.01422 0.71531 0.0
N174 N 0.32486 0.99297 0.6818 0.0
C175 C 0.26306 0.94099 0.68644 0.0
C176 C 0.3129 0.94662 0.68629 0.0
C177 C 0.28063 0.01472 0.67919 0.0
N178 N 0.24287 0.98387 0.68213 0.0
O179 O 0.40515 0.94996 0.66888 0.0
H180 H 0.339 0.91829 0.68935 0.0
H181 H 0.2753 0.05176 0.67489 0.0
O182 O 0.40562 0.98753 0.70386 0.0
C183 C 0.41048 0.95388 0.65221 0.0
O184 O 0.41125 0.99784 0.6453 0.0
N185 N 0.38095 0.07454 0.68861 0.0
C186 C 0.38 0.17372 0.69687 0.0
C187 C 0.40752 0.1408 0.7069 0.0
C188 C 0.40825 0.09191 0.70237 0.0
C189 C 0.35468 0.10595 0.67847 0.0
C190 C 0.35204 0.15541 0.68277 0.0
H191 H 0.4347 0.0692 0.70895 0.0
H192 H 0.33883 0.09345 0.66621 0.0
H193 H 0.49939 0.97523 0.69116 0.0
H194 H 0.54767 0.09508 0.66104 0.0
H195 H 0.24305 0.90776 0.68927 0.0
H196 H 0.4324 0.15294 0.71713 0.0
H197 H 0.33117 0.17943 0.67433 0.0
C198 C 0.3357 0.24395 0.93649 0.0
C199 C 0.34071 0.29394 0.93535 0.0
N200 N 0.29964 0.31262 0.92821 0.0
N201 N 0.29162 0.23073 0.93012 0.0
C202 C 0.27091 0.27325 0.92489 0.0
H203 H 0.36165 0.21902 0.94233 0.0
Co204 Co 0.2631 0.16764 0.93118 0.0
C205 C 0.30512 0.12315 0.96305 0.0
O206 O 0.32188 0.08614 0.95382 0.0
N207 N 0.23462 0.10353 0.93269 0.0
C208 C 0.19483 0.04003 0.94433 0.0
C209 C 0.20064 0.08981 0.94469 0.0
C210 C 0.24879 0.06062 0.92519 0.0
N211 N 0.22556 0.02126 0.93222 0.0
O212 O 0.3201 0.14089 0.92059 0.0
H213 H 0.18305 0.11399 0.95402 0.0
H214 H 0.27809 0.05786 0.91566 0.0
O215 O 0.28611 0.1594 0.95515 0.0
C216 C 0.318 0.15101 0.90414 0.0
O217 O 0.28125 0.17753 0.89846 0.0
N218 N 0.20673 0.19558 0.93978 0.0
C219 C 0.12472 0.25109 0.9467 0.0
C220 C 0.16541 0.25401 0.95784 0.0
C221 C 0.20629 0.22592 0.95411 0.0
C222 C 0.16721 0.1915 0.92901 0.0
C223 C 0.12531 0.21837 0.93241 0.0
H224 H 0.23896 0.23191 0.9618 0.0
H225 H 0.16899 0.16847 0.9174 0.0
H226 H 0.23443 0.27529 0.91944 0.0
H227 H 0.37124 0.31498 0.94036 0.0
H228 H 0.1708 0.01929 0.95284 0.0
H229 H 0.16674 0.27968 0.96873 0.0
H230 H 0.09423 0.21447 0.92367 0.0
C231 C 0.02826 0.98176 0.15921 0.0
C232 C 0.97836 0.9871 0.15897 0.0
N233 N 0.96335 1.00052 0.1752 0.0
N234 N 0.04565 0.99223 0.17546 0.0
C235 C 1.00501 1.00364 0.18493 0.0
H236 H 0.04988 0.96804 0.14837 0.0
Co237 Co 0.11111 0.97928 0.18245 0.0
C238 C 0.13077 0.03051 0.21641 0.0
O239 O 0.17736 0.03719 0.21303 0.0
N240 N 0.17768 0.96409 0.1891 0.0
C241 C 0.24155 0.93054 0.20282 0.0
C242 C 0.19151 0.93154 0.20153 0.0
C243 C 0.22098 0.98233 0.18308 0.0
N244 N 0.2606 0.9627 0.19127 0.0
O245 O 0.13218 0.03433 0.16938 0.0
H246 H 0.16703 0.91015 0.20961 0.0
H247 H 0.22341 0.01064 0.17323 0.0
O248 O 0.10174 0.01708 0.20411 0.0
C249 C 0.14054 0.01879 0.15377 0.0
O250 O 0.14088 0.97137 0.15102 0.0
N251 N 0.08839 0.92389 0.19345 0.0
C252 C 0.03311 0.84256 0.20127 0.0
C253 C 0.03268 0.88281 0.21259 0.0
C254 C 0.06062 0.92329 0.20843 0.0
C255 C 0.09217 0.8837 0.183 0.0
C256 C 0.06495 0.84215 0.18675 0.0
H257 H 0.05576 0.95506 0.21649 0.0
H258 H 0.11382 0.88526 0.17106 0.0
H259 H 1.00573 0.01206 0.19888 0.0
H260 H 0.95477 0.97868 0.1479 0.0
H261 H 0.26195 0.90767 0.21178 0.0
H262 H 0.00818 0.88467 0.22381 0.0
H263 H 0.06694 0.81107 0.17791 0.0
C264 C 0.79434 0.77622 0.92319 0.0
C265 C 0.80442 0.72746 0.92427 0.0
N266 N 0.79276 0.71185 0.94053 0.0
N267 N 0.77653 0.793 0.93872 0.0
C268 C 0.77661 0.75241 0.94915 0.0
H269 H 0.79693 0.79673 0.91113 0.0
Co270 Co 0.74822 0.85741 0.94035 0.0
C271 C 0.7362 0.88372 0.97736 0.0
O272 O 0.69335 0.90048 0.9725 0.0
N273 N 0.72094 0.92271 0.94084 0.0
C274 C 0.67572 0.98985 0.93733 0.0
C275 C 0.6762 0.93958 0.93635 0.0
C276 C 0.74674 0.96411 0.94448 0.0
N277 N 0.72031 0.00552 0.94234 0.0
O278 O 0.80812 0.88527 0.9325 0.0
H279 H 0.64556 0.91751 0.93226 0.0
H280 H 0.7847 0.96378 0.94845 0.0
O281 O 0.7649 0.86431 0.96581 0.0
C282 C 0.79946 0.89017 0.91602 0.0
O283 O 0.7563 0.87744 0.9099 0.0
N284 N 0.68865 0.82796 0.94555 0.0
C285 C 0.61009 0.76358 0.94481 0.0
C286 C 0.63922 0.76778 0.95994 0.0
C287 C 0.67816 0.80034 0.96008 0.0
C288 C 0.6609 0.82401 0.93073 0.0
C289 C 0.62054 0.79337 0.93025 0.0
H290 H 0.70177 0.79972 0.97143 0.0
H291 H 0.67122 0.84356 0.91893 0.0
H292 H 0.76353 0.75179 0.96258 0.0
H293 H 0.81577 0.70452 0.91337 0.0
H294 H 0.64523 0.01304 0.93388 0.0
H295 H 0.63366 0.74462 0.97132 0.0
H296 H 0.59857 0.79251 0.91838 0.0
C297 C 0.96976 0.92905 0.67804 0.0
C298 C 0.01837 0.92975 0.67389 0.0
N299 N 0.03698 0.97327 0.67867 0.0
N300 N 0.95686 0.97145 0.68591 0.0
C301 C 0.99872 0.99844 0.68557 0.0
H302 H 0.9451 0.89912 0.67529 0.0
Co303 Co 0.88985 0.98181 0.6923 0.0
C304 C 0.9389 0.02268 0.72633 0.0
O305 O 0.98434 0.02578 0.72098 0.0
N306 N 0.82305 0.99022 0.6981 0.0
C307 C 0.75464 0.98428 0.71382 0.0
C308 C 0.80443 0.97996 0.71417 0.0
C309 C 0.7832 1.00023 0.68806 0.0
N310 N 0.7408 0.99661 0.69737 0.0
O311 O 0.89063 0.04353 0.68087 0.0
H312 H 0.82547 0.96718 0.72528 0.0
H313 H 0.78514 0.00785 0.67406 0.0
O314 O 0.90548 0.00912 0.7156 0.0
C315 C 0.89188 0.03584 0.66424 0.0
O316 O 0.89399 0.99052 0.65855 0.0
N317 N 0.88781 0.92005 0.7022 0.0
C318 C 0.89708 0.82188 0.70947 0.0
C319 C 0.92453 0.85628 0.71891 0.0
C320 C 0.91978 0.9053 0.71491 0.0
C321 C 0.85756 0.88753 0.69404 0.0
C322 C 0.86137 0.8379 0.69758 0.0
H323 H 0.94571 0.93018 0.72068 0.0
H324 H 0.83319 0.89977 0.68372 0.0
H325 H 1.00095 0.0362 0.68969 0.0
H326 H 0.03872 0.89992 0.66807 0.0
H327 H 0.73055 0.97795 0.72491 0.0
H328 H 0.95347 0.84532 0.72781 0.0
H329 H 0.83971 0.81214 0.69001 0.0
C330 C 0.77487 0.26584 0.42132 0.0
C331 C 0.76823 0.31542 0.42046 0.0
N332 N 0.74592 0.33047 0.43532 0.0
N333 N 0.75672 0.24844 0.43664 0.0
C334 C 0.73882 0.28904 0.44492 0.0
H335 H 0.79496 0.24454 0.41178 0.0
Co336 Co 0.77207 0.18336 0.44417 0.0
C337 C 0.7191 0.16193 0.47677 0.0
O338 O 0.70364 0.11992 0.47047 0.0
N339 N 0.78957 0.11733 0.45157 0.0
C340 C 0.82152 0.05597 0.46727 0.0
C341 C 0.81857 0.10593 0.46543 0.0
C342 C 0.77556 0.07269 0.44525 0.0
N343 N 0.79434 0.03471 0.45457 0.0
O344 O 0.71628 0.1587 0.43195 0.0
H345 H 0.83595 0.13226 0.47405 0.0
H346 H 0.75061 0.06774 0.43439 0.0
O347 O 0.73764 0.19323 0.4663 0.0
C348 C 0.73437 0.14859 0.41682 0.0
O349 O 0.78138 0.15573 0.41436 0.0
N350 N 0.8284 0.20813 0.45394 0.0
C351 C 0.90895 0.26844 0.45624 0.0
C352 C 0.87018 0.27406 0.46812 0.0
C353 C 0.82983 0.24331 0.46674 0.0
C354 C 0.86772 0.19916 0.44348 0.0
C355 C 0.90876 0.22885 0.44448 0.0
H356 H 0.79823 0.25141 0.47471 0.0
H357 H 0.86541 0.17162 0.43326 0.0
H358 H 0.72431 0.28887 0.45821 0.0
H359 H 0.78049 0.33895 0.40987 0.0
H360 H 0.84247 0.03692 0.4772 0.0
H361 H 0.86923 0.30425 0.47737 0.0
H362 H 0.93878 0.22266 0.43542 0.0
C363 C 0.52604 0.06756 0.18073 0.0
C364 C 0.4768 0.06205 0.17799 0.0
N365 N 0.46301 0.01814 0.18416 0.0
N366 N 0.54416 0.02792 0.18903 0.0
C367 C 0.50482 0.99759 0.19039 0.0
H368 H 0.54742 0.09906 0.17692 0.0
Co369 Co 0.61281 0.02367 0.19443 0.0
C370 C 0.57093 0.98803 0.23024 0.0
O371 O 0.52427 0.98732 0.2263 0.0
N372 N 0.68109 0.02064 0.19935 0.0
C373 C 0.75031 0.03146 0.21435 0.0
C374 C 0.70042 0.03465 0.21497 0.0
C375 C 0.72074 0.00968 0.18927 0.0
N376 N 0.76351 0.01569 0.1982 0.0
O377 O 0.61539 0.96139 0.1836 0.0
H378 H 0.67961 0.04879 0.22597 0.0
H379 H 0.71833 0.99819 0.17562 0.0
O380 O 0.60249 0.99797 0.21833 0.0
C381 C 0.61621 0.97146 0.16714 0.0
O382 O 0.61438 0.01759 0.16241 0.0
N383 N 0.61136 0.08649 0.20335 0.0
C384 C 0.59707 0.18505 0.20876 0.0
C385 C 0.57107 0.15074 0.21875 0.0
C386 C 0.57855 0.10152 0.21575 0.0
C387 C 0.63991 0.1192 0.19458 0.0
C388 C 0.63396 0.16897 0.19732 0.0
H389 H 0.55381 0.07634 0.22191 0.0
H390 H 0.6649 0.10673 0.18447 0.0
H391 H 0.50681 0.9609 0.1956 0.0
H392 H 0.45278 0.08905 0.17225 0.0
H393 H 0.77507 0.04211 0.22482 0.0
H394 H 0.54124 0.16135 0.22733 0.0
H395 H 0.65497 0.19447 0.18946 0.0
C396 C 0.70449 0.22794 0.59837 0.0
C397 C 0.70713 0.27788 0.59987 0.0
N398 N 0.74584 0.29412 0.59049 0.0
N399 N 0.74144 0.21168 0.58818 0.0
C400 C 0.76618 0.25289 0.5836 0.0
H401 H 0.67684 0.20473 0.6042 0.0
Co402 Co 0.74873 0.14453 0.58185 0.0
C403 C 0.80376 0.17609 0.54633 0.0
O404 O 0.84602 0.19867 0.54745 0.0
N405 N 0.75524 0.07743 0.57541 0.0
C406 C 0.74725 0.01048 0.55887 0.0
C407 C 0.74473 0.06044 0.55912 0.0
C408 C 0.76312 0.03632 0.58504 0.0
N409 N 0.75874 0.99487 0.57517 0.0
O410 O 0.80834 0.14137 0.59465 0.0
H411 H 0.73148 0.08274 0.54848 0.0
H412 H 0.77031 0.03673 0.59909 0.0
O413 O 0.78178 0.1635 0.56044 0.0
C414 C 0.79894 0.14185 0.61114 0.0
O415 O 0.75321 0.14601 0.6162 0.0
N416 N 0.68897 0.1465 0.57083 0.0
C417 C 0.59168 0.15655 0.56186 0.0
C418 C 0.62734 0.18691 0.55421 0.0
C419 C 0.67611 0.18108 0.55883 0.0
C420 C 0.6554 0.11493 0.57758 0.0
C421 C 0.60669 0.11818 0.57277 0.0
H422 H 0.70268 0.20711 0.55407 0.0
H423 H 0.66611 0.08859 0.58746 0.0
H424 H 0.79787 0.25262 0.57508 0.0
H425 H 0.68221 0.30022 0.60745 0.0
H426 H 0.73802 0.9873 0.54776 0.0
H427 H 0.61755 0.21773 0.54603 0.0
H428 H 0.58062 0.09332 0.57869 0.0
C429 C 0.52794 0.00779 0.35957 0.0
C430 C 0.47784 0.01139 0.35976 0.0
N431 N 0.4615 0.01104 0.34298 0.0
N432 N 0.54406 0.0056 0.34275 0.0
C433 C 0.50257 0.00789 0.33293 0.0
H434 H 0.55056 1.00389 0.37114 0.0
Co435 Co 0.60877 0.98859 0.33605 0.0
C436 C 0.63006 0.0362 0.30163 0.0
O437 O 0.67635 0.04319 0.30542 0.0
N438 N 0.67478 0.96944 0.32966 0.0
C439 C 0.73801 0.92898 0.31797 0.0
C440 C 0.68795 0.93125 0.31934 0.0
C441 C 0.71853 0.98963 0.33436 0.0
N442 N 0.75761 0.96584 0.3274 0.0
O443 O 0.63263 0.04543 0.34762 0.0
H444 H 0.66317 0.90605 0.31298 0.0
H445 H 0.72183 0.02237 0.34221 0.0
O446 O 0.60036 0.0224 0.31364 0.0
C447 C 0.64403 0.03201 0.36318 0.0
O448 O 0.64153 0.98537 0.36715 0.0
N449 N 0.58364 0.93179 0.32643 0.0
C450 C 0.52413 0.85263 0.31905 0.0
C451 C 0.53349 0.88771 0.3061 0.0
C452 C 0.56399 0.92665 0.30997 0.0
C453 C 0.57788 0.89641 0.3388 0.0
C454 C 0.54857 0.85603 0.33532 0.0
H455 H 0.56874 0.9536 0.29993 0.0
H456 H 0.59387 0.90114 0.35175 0.0
H457 H 0.50244 1.00519 0.3187 0.0
H458 H 0.45521 0.01123 0.37147 0.0
H459 H 0.75817 0.90175 0.31063 0.0
H460 H 0.51554 0.88677 0.29337 0.0
H461 H 0.5439 0.82873 0.3455 0.0
C462 C 0.68676 0.7658 0.07463 0.0
C463 C 0.68007 0.71581 0.07507 0.0
N464 N 0.71529 0.69594 0.08524 0.0
N465 N 0.72612 0.7777 0.08444 0.0
C466 C 0.74224 0.7345 0.09089 0.0
H467 H 0.66503 0.79166 0.06727 0.0
Co468 Co 0.75535 0.83983 0.08775 0.0
C469 C 0.76805 0.8814 0.05267 0.0
O470 O 0.8111 0.89589 0.05832 0.0
N471 N 0.78359 0.90383 0.09164 0.0
C472 C 0.82988 0.96904 0.09791 0.0
C473 C 0.82831 0.91884 0.09711 0.0
C474 C 0.75881 0.94648 0.08939 0.0
N475 N 0.78608 0.98671 0.09305 0.0
O476 O 0.69636 0.86367 0.09736 0.0
H477 H 0.85873 0.89578 0.10038 0.0
H478 H 0.72133 0.94792 0.08487 0.0
O479 O 0.73855 0.85966 0.06334 0.0
C480 C 0.69517 0.84994 0.11344 0.0
O481 O 0.72926 0.81994 0.11901 0.0
N482 N 0.8137 0.81265 0.07994 0.0
C483 C 0.89175 0.75035 0.07359 0.0
C484 C 0.85561 0.757 0.06077 0.0
C485 C 0.8167 0.7879 0.06425 0.0
C486 C 0.84716 0.80461 0.09286 0.0
C487 C 0.88758 0.7753 0.08974 0.0
H488 H 0.78695 0.78821 0.05491 0.0
H489 H 0.84091 0.81864 0.10602 0.0
H490 H 0.7739 0.73151 0.09936 0.0
H491 H 0.65245 0.69565 0.06787 0.0
H492 H 0.86085 0.99072 0.10216 0.0
H493 H 0.85578 0.73661 0.04851 0.0
H494 H 0.91435 0.77125 0.10014 0.0
C495 C 1.00258 0.0368 0.85507 0.0
C496 C 0.05221 0.03 0.8556 0.0
N497 N 0.06669 0.01055 0.84014 0.0
N498 N 0.98465 0.02122 0.83944 0.0
C499 C 0.0249 1.00535 0.83057 0.0
H500 H 0.98166 0.05521 0.86515 0.0
Co501 Co 0.91894 0.03403 0.83241 0.0
C502 C 0.89744 0.97956 0.7996 0.0
O503 O 0.85266 0.9689 0.80454 0.0
N504 N 0.85233 0.0489 0.8258 0.0
C505 C 0.78791 0.07926 0.81145 0.0
C506 C 0.83809 0.07861 0.81254 0.0
C507 C 0.80929 0.03203 0.83253 0.0
N508 N 0.76934 0.04969 0.82399 0.0
O509 O 0.89786 0.97918 0.84544 0.0
H510 H 0.8625 0.09798 0.80378 0.0
H511 H 0.80726 0.00585 0.84312 0.0
O512 O 0.92779 0.99674 0.81079 0.0
C513 C 0.89113 0.99492 0.86113 0.0
O514 O 0.89331 0.04222 0.86399 0.0
N515 N 0.94149 0.08928 0.82132 0.0
C516 C 1.00522 0.16651 0.81743 0.0
C517 C 0.00742 0.1268 0.80581 0.0
C518 C 0.97462 0.08861 0.80783 0.0
C519 C 0.93496 0.12989 0.83134 0.0
C520 C 0.96605 0.1696 0.82939 0.0
H521 H 0.9806 0.05648 0.79996 0.0
H522 H 0.90874 0.12944 0.84204 0.0
H523 H 0.02393 0.9924 0.81707 0.0
H524 H 0.07616 0.0417 0.86617 0.0
H525 H 0.76707 0.09991 0.80194 0.0
H526 H 0.03681 0.12281 0.79635 0.0
H527 H 0.96164 0.2007 0.83809 0.0
C528 C 0.77469 0.72746 0.61196 0.0
C529 C 0.76789 0.77696 0.61224 0.0
N530 N 0.75985 0.7924 0.59565 0.0
N531 N 0.77079 0.7103 0.59532 0.0
C532 C 0.76118 0.75101 0.5856 0.0
H533 H 0.78559 0.70598 0.6232 0.0
Co534 Co 0.79146 0.64477 0.59093 0.0
C535 C 0.78444 0.62404 0.5532 0.0
O536 O 0.82614 0.60119 0.55529 0.0
N537 N 0.81292 0.57759 0.58803 0.0
C538 C 0.85718 0.5091 0.58709 0.0
C539 C 0.8588 0.55915 0.58821 0.0
C540 C 0.78417 0.53696 0.58681 0.0
N541 N 0.81018 0.49473 0.58628 0.0
O542 O 0.73289 0.6216 0.60145 0.0
H543 H 0.89213 0.57993 0.58911 0.0
H544 H 0.74467 0.53835 0.58647 0.0
O545 O 0.76308 0.6434 0.56668 0.0
C546 C 0.74261 0.61225 0.61756 0.0
O547 O 0.78836 0.61485 0.62281 0.0
N548 N 0.84987 0.67084 0.58246 0.0
C549 C 0.92782 0.73543 0.57863 0.0
C550 C 0.88985 0.73443 0.56629 0.0
C551 C 0.85163 0.70187 0.56835 0.0
C552 C 0.88619 0.67153 0.59471 0.0
C553 C 0.92655 0.70197 0.59268 0.0
H554 H 0.82123 0.70638 0.55954 0.0
H555 H 0.88258 0.65007 0.60662 0.0
H556 H 0.75771 0.75077 0.57139 0.0
H557 H 0.77227 0.80013 0.62372 0.0
H558 H 0.88856 0.48515 0.58742 0.0
H559 H 0.88736 0.76075 0.55571 0.0
H560 H 0.95523 0.70043 0.60248 0.0
C561 C 0.53322 0.42896 0.82658 0.0
C562 C 0.48298 0.42501 0.82575 0.0
N563 N 0.46311 0.46519 0.83315 0.0
N564 N 0.5453 0.47146 0.83447 0.0
C565 C 0.50177 0.49233 0.83854 0.0
H566 H 0.55931 0.40312 0.82132 0.0
Co567 Co 0.60881 0.49768 0.83767 0.0
C568 C 0.65132 0.50103 0.80222 0.0
O569 O 0.66952 0.54371 0.80676 0.0
N570 N 0.67383 0.52311 0.84138 0.0
C571 C 0.73961 0.56606 0.84953 0.0
C572 C 0.68938 0.56444 0.84943 0.0
C573 C 0.7162 0.49971 0.83721 0.0
N574 N 0.75691 0.52539 0.84175 0.0
O575 O 0.62936 0.43881 0.84855 0.0
H576 H 0.66668 0.59189 0.85539 0.0
H577 H 0.71684 0.46444 0.83077 0.0
O578 O 0.62787 0.47561 0.81371 0.0
C579 C 0.6142 0.43898 0.8645 0.0
O580 O 0.58554 0.47479 0.86962 0.0
N581 N 0.58545 0.5564 0.82862 0.0
C582 C 0.53015 0.63822 0.82063 0.0
C583 C 0.53601 0.60109 0.80814 0.0
C584 C 0.56297 0.55999 0.81252 0.0
C585 C 0.57811 0.59129 0.84112 0.0
C586 C 0.55219 0.63336 0.83724 0.0
H587 H 0.56173 0.52947 0.8035 0.0
H588 H 0.58865 0.5846 0.85463 0.0
H589 H 0.49851 0.52741 0.84501 0.0
H590 H 0.46276 0.39571 0.81949 0.0
H591 H 0.76146 0.59473 0.85543 0.0
H592 H 0.51748 0.60231 0.79551 0.0
H593 H 0.54781 0.66078 0.84743 0.0
C594 C 0.68982 0.25397 0.10689 0.0
C595 C 0.69051 0.20387 0.10687 0.0
N596 N 0.7293 0.1886 0.09738 0.0
N597 N 0.72778 0.27111 0.09737 0.0
C598 C 0.7516 0.23032 0.09184 0.0
H599 H 0.66333 0.27673 0.11357 0.0
Co600 Co 0.73951 0.33914 0.09453 0.0
C601 C 0.75447 0.35511 0.05707 0.0
O602 O 0.72613 0.39327 0.05934 0.0
N603 N 0.75334 0.40835 0.09223 0.0
C604 C 0.80196 0.47232 0.08674 0.0
C605 C 0.799 0.42246 0.08759 0.0
C606 C 0.7292 0.45168 0.09419 0.0
N607 N 0.75809 0.49107 0.0909 0.0
O608 O 0.80133 0.33227 0.10585 0.0
H609 H 0.8286 0.39773 0.08455 0.0
H610 H 0.69144 0.45513 0.09798 0.0
O611 O 0.76653 0.32846 0.07035 0.0
C612 C 0.7953 0.32938 0.12253 0.0
O613 O 0.75067 0.32346 0.12859 0.0
N614 N 0.67662 0.34489 0.08512 0.0
C615 C 0.5789 0.34154 0.07502 0.0
C616 C 0.61395 0.31299 0.06634 0.0
C617 C 0.66213 0.3146 0.07175 0.0
C618 C 0.64295 0.37131 0.09425 0.0
C619 C 0.59415 0.37184 0.08897 0.0
H620 H 0.68725 0.28892 0.06585 0.0
H621 H 0.65325 0.38951 0.10635 0.0
H622 H 0.78445 0.23125 0.08389 0.0
H623 H 0.66492 0.18052 0.11376 0.0
H624 H 0.83389 0.49307 0.08285 0.0
H625 H 0.60407 0.28646 0.05634 0.0
H626 H 0.56835 0.3935 0.09645 0.0
C627 C 0.98457 0.49665 0.36187 0.0
C628 C 0.03452 0.50122 0.36182 0.0
N629 N 0.05054 0.4997 0.345 0.0
N630 N 0.96792 0.49259 0.34517 0.0
C631 C 0.00919 0.49454 0.33516 0.0
H632 H 0.96253 0.49364 0.37362 0.0
Co633 Co 0.90254 0.47521 0.3389 0.0
C634 C 0.88137 0.52509 0.3046 0.0
O635 O 0.8351 0.53219 0.30831 0.0
N636 N 0.8361 0.45624 0.33311 0.0
C637 C 0.77094 0.41364 0.32395 0.0
C638 C 0.82106 0.41427 0.32532 0.0
C639 C 0.79336 0.47989 0.33664 0.0
N640 N 0.7532 0.45504 0.33104 0.0
O641 O 0.87928 0.53145 0.35082 0.0
H642 H 0.84445 0.38485 0.32107 0.0
H643 H 0.79161 0.51548 0.34279 0.0
O644 O 0.91045 0.50975 0.31654 0.0
C645 C 0.8697 0.51966 0.36672 0.0
O646 O 0.87325 0.47354 0.37132 0.0
N647 N 0.92715 0.41905 0.32866 0.0
C648 C 0.99189 0.34751 0.31791 0.0
C649 C 0.96923 0.37762 0.30546 0.0
C650 C 0.93588 0.41234 0.31109 0.0
C651 C 0.94491 0.38726 0.34078 0.0
C652 C 0.97713 0.35077 0.33567 0.0
H653 H 0.91872 0.43452 0.30128 0.0
H654 H 0.93665 0.39255 0.35462 0.0
H655 H 0.00885 0.4902 0.32097 0.0
H656 H 0.05722 0.50292 0.37348 0.0
H657 H 0.74929 0.3842 0.31846 0.0
H658 H 0.97831 0.37606 0.29157 0.0
H659 H 0.99137 0.32653 0.34567 0.0
C660 C 0.82663 0.2704 0.93176 0.0
C661 C 0.82403 0.22037 0.9311 0.0
N662 N 0.78534 0.20548 0.94072 0.0
N663 N 0.79006 0.28784 0.9419 0.0
C664 C 0.76511 0.24732 0.94707 0.0
H665 H 0.85333 0.29286 0.92505 0.0
Co666 Co 0.779 0.35571 0.94582 0.0
C667 C 0.77209 0.36698 0.98375 0.0
O668 O 0.79935 0.40595 0.98132 0.0
N669 N 0.76551 0.42444 0.94946 0.0
C670 C 0.71867 0.4879 0.95709 0.0
C671 C 0.72115 0.43806 0.95558 0.0
C672 C 0.78925 0.46788 0.9472 0.0
N673 N 0.76159 0.50709 0.95187 0.0
O674 O 0.71586 0.34943 0.9354 0.0
H675 H 0.69195 0.413 0.95888 0.0
H676 H 0.82614 0.47132 0.94242 0.0
O677 O 0.75681 0.34223 0.97037 0.0
C678 C 0.72585 0.35159 0.91892 0.0
O679 O 0.77206 0.35336 0.91418 0.0
N680 N 0.84349 0.36136 0.95346 0.0
C681 C 0.94417 0.35142 0.95603 0.0
C682 C 0.91319 0.32605 0.96755 0.0
C683 C 0.86297 0.33089 0.96586 0.0
C684 C 0.87312 0.38665 0.94232 0.0
C685 C 0.92362 0.38388 0.94385 0.0
H686 H 0.84006 0.30619 0.97327 0.0
H687 H 0.85772 0.40518 0.93106 0.0
H688 H 0.73273 0.24858 0.95527 0.0
H689 H 0.84813 0.19687 0.9236 0.0
H690 H 0.68695 0.50828 0.96134 0.0
H691 H 0.92707 0.29876 0.97656 0.0
H692 H 0.94613 0.40359 0.9345 0.0
C693 C 0.98285 0.55243 0.18069 0.0
C694 C 0.0321 0.54916 0.17774 0.0
N695 N 0.0487 0.50831 0.18546 0.0
N696 N 0.9674 0.51448 0.19062 0.0
C697 C 0.0085 0.48721 0.19284 0.0
H698 H 0.95953 0.58134 0.17592 0.0
Co699 Co 0.89921 0.5107 0.19659 0.0
C700 C 0.94114 0.47815 0.2331 0.0
O701 O 0.98782 0.47516 0.22936 0.0
N702 N 0.83139 0.5089 0.20184 0.0
C703 C 0.76253 0.52341 0.2166 0.0
C704 C 0.8125 0.52404 0.21738 0.0
C705 C 0.79154 0.50028 0.19158 0.0
N706 N 0.749 0.50858 0.20038 0.0
O707 O 0.89563 0.44602 0.18733 0.0
H708 H 0.8337 0.53827 0.22827 0.0
H709 H 0.79372 0.48961 0.17784 0.0
O710 O 0.91047 0.48876 0.22098 0.0
C711 C 0.89797 0.44792 0.17051 0.0
O712 O 0.90478 0.49062 0.16301 0.0
N713 N 0.90155 0.57472 0.20434 0.0
C714 C 0.91561 0.6735 0.20948 0.0
C715 C 0.94218 0.63959 0.21937 0.0
C716 C 0.93491 0.5903 0.21647 0.0
C717 C 0.87284 0.60704 0.1955 0.0
C718 C 0.87883 0.65694 0.19807 0.0
H719 H 0.95982 0.56534 0.22263 0.0
H720 H 0.84746 0.59412 0.18558 0.0
H721 H 0.00897 0.4521 0.19932 0.0
H722 H 0.05422 0.57575 0.17081 0.0
H723 H 0.73804 0.53587 0.22689 0.0
H724 H 0.97209 0.65065 0.22787 0.0
H725 H 0.85768 0.6822 0.19019 0.0
C726 C 0.78253 0.76 0.42484 0.0
C727 C 0.79213 0.80902 0.42468 0.0
N728 N 0.7818 0.82765 0.44065 0.0
N729 N 0.76623 0.74579 0.4409 0.0
C730 C 0.76737 0.78842 0.45044 0.0
H731 H 0.78464 0.73732 0.41326 0.0
Co732 Co 0.73584 0.68161 0.4434 0.0
C733 C 0.72996 0.65591 0.48066 0.0
O734 O 0.6849 0.64264 0.47706 0.0
N735 N 0.70597 0.61673 0.44465 0.0
C736 C 0.65557 0.55224 0.44343 0.0
C737 C 0.65879 0.60251 0.44285 0.0
C738 C 0.73041 0.57353 0.44626 0.0
N739 N 0.70075 0.53376 0.44543 0.0
O740 O 0.79312 0.65125 0.43419 0.0
H741 H 0.62807 0.62657 0.44107 0.0
H742 H 0.76961 0.57113 0.44784 0.0
O743 O 0.75725 0.67394 0.46839 0.0
C744 C 0.7825 0.64423 0.41794 0.0
O745 O 0.73955 0.65856 0.41216 0.0
N746 N 0.67857 0.71325 0.45004 0.0
C747 C 0.60404 0.78199 0.451 0.0
C748 C 0.63522 0.7761 0.46549 0.0
C749 C 0.67218 0.74148 0.46478 0.0
C750 C 0.6484 0.71831 0.43591 0.0
C751 C 0.61006 0.75138 0.43628 0.0
H752 H 0.69796 0.74115 0.47551 0.0
H753 H 0.65542 0.69779 0.42397 0.0
H754 H 0.7553 0.79166 0.46395 0.0
H755 H 0.80413 0.82974 0.41332 0.0
H756 H 0.62252 0.53091 0.44179 0.0
H757 H 0.633 0.79967 0.47695 0.0
H758 H 0.58624 0.75357 0.42491 0.0
C759 C 0.5187 0.55276 0.70621 0.0
C760 C 0.46959 0.5628 0.70778 0.0
N761 N 0.44393 0.52932 0.69853 0.0
N762 N 0.52481 0.51268 0.69611 0.0
C763 C 0.47839 0.49971 0.69132 0.0
H764 H 0.54809 0.57241 0.71264 0.0
Co765 Co 0.58634 0.48047 0.69258 0.0
C766 C 0.62489 0.46158 0.72785 0.0
O767 O 0.63378 0.41708 0.72224 0.0
N768 N 0.64978 0.44933 0.68892 0.0
C769 C 0.71285 0.39839 0.68482 0.0
C770 C 0.66264 0.40253 0.68541 0.0
C771 C 0.69388 0.47257 0.6903 0.0
N772 N 0.73275 0.44253 0.68786 0.0
O773 O 0.61438 0.53928 0.68445 0.0
H774 H 0.63794 0.37217 0.68381 0.0
H775 H 0.69764 0.51084 0.69356 0.0
O776 O 0.60573 0.49299 0.71735 0.0
C777 C 0.60334 0.54292 0.66815 0.0
O778 O 0.57018 0.51301 0.66169 0.0
N779 N 0.55557 0.4227 0.69855 0.0
C780 C 0.48385 0.35089 0.69983 0.0
C781 C 0.49244 0.38107 0.71449 0.0
C782 C 0.52843 0.41694 0.71358 0.0
C783 C 0.54717 0.39424 0.68416 0.0
C784 C 0.51297 0.35691 0.68472 0.0
H785 H 0.53071 0.44306 0.72424 0.0
H786 H 0.56538 0.40234 0.67183 0.0
H787 H 0.46982 0.46741 0.68366 0.0
H788 H 0.4538 0.59182 0.71564 0.0
H789 H 0.73314 0.3653 0.68214 0.0
H790 H 0.46988 0.37902 0.72621 0.0
H791 H 0.50856 0.33412 0.67314 0.0
C792 C 0.20142 0.30384 0.41795 0.0
C793 C 0.2037 0.2539 0.4169 0.0
N794 N 0.23639 0.23827 0.42885 0.0
N795 N 0.23292 0.31989 0.43039 0.0
C796 C 0.25348 0.27887 0.43701 0.0
H797 H 0.17855 0.32724 0.40999 0.0
Co798 Co 0.24437 0.38661 0.43431 0.0
C799 C 0.25561 0.39997 0.47216 0.0
O800 O 0.22615 0.43733 0.46999 0.0
N801 N 0.25816 0.45437 0.43751 0.0
C802 C 0.30372 0.51813 0.44585 0.0
C803 C 0.30105 0.46833 0.44494 0.0
C804 C 0.23657 0.49732 0.4331 0.0
N805 N 0.26322 0.53631 0.43845 0.0
O806 O 0.30686 0.38024 0.4234 0.0
H807 H 0.32909 0.44354 0.44945 0.0
H808 H 0.20277 0.50063 0.42589 0.0
O809 O 0.26945 0.37439 0.45874 0.0
C810 C 0.29798 0.38151 0.40685 0.0
O811 O 0.2524 0.38648 0.40171 0.0
N812 N 0.18049 0.39131 0.44312 0.0
C813 C 0.08173 0.38108 0.45089 0.0
C814 C 0.11681 0.35555 0.46054 0.0
C815 C 0.16554 0.35989 0.45607 0.0
C816 C 0.14683 0.41637 0.4335 0.0
C817 C 0.09708 0.41252 0.43738 0.0
H818 H 0.19077 0.33499 0.46226 0.0
H819 H 0.1579 0.4357 0.42178 0.0
H820 H 0.28097 0.27875 0.44728 0.0
H821 H 0.18247 0.23066 0.40821 0.0
H822 H 0.3339 0.53954 0.45097 0.0
H823 H 0.10653 0.32858 0.47031 0.0
H824 H 0.07077 0.43112 0.42912 0.0
C825 C 0.48406 0.50447 0.16002 0.0
C826 C 0.53417 0.50741 0.15994 0.0
N827 N 0.54972 0.5148 0.1766 0.0
N828 N 0.4671 0.51052 0.17662 0.0
C829 C 0.5082 0.51711 0.18642 0.0
H830 H 0.46213 0.49451 0.14874 0.0
Co831 Co 0.40228 0.49487 0.18371 0.0
C832 C 0.38296 0.54158 0.21847 0.0
O833 O 0.33666 0.54947 0.21495 0.0
N834 N 0.3368 0.47664 0.19056 0.0
C835 C 0.27553 0.44018 0.20493 0.0
C836 C 0.32531 0.44445 0.20344 0.0
C837 C 0.29238 0.49129 0.18443 0.0
N838 N 0.25433 0.4698 0.19304 0.0
O839 O 0.37911 0.55247 0.17238 0.0
H840 H 0.35125 0.42557 0.2117 0.0
H841 H 0.28794 0.51817 0.17416 0.0
O842 O 0.41209 0.52876 0.20614 0.0
C843 C 0.3715 0.54203 0.15619 0.0
O844 O 0.37295 0.49595 0.15133 0.0
N845 N 0.4267 0.43782 0.19318 0.0
C846 C 0.4814 0.35547 0.20008 0.0
C847 C 0.48065 0.39405 0.21213 0.0
C848 C 0.45292 0.43485 0.20848 0.0
C849 C 0.42447 0.39946 0.18179 0.0
C850 C 0.45141 0.35745 0.18506 0.0
H851 H 0.4562 0.46487 0.21745 0.0
H852 H 0.40387 0.40277 0.16967 0.0
H853 H 0.50781 0.52076 0.20062 0.0
H854 H 0.55734 0.50082 0.14861 0.0
H855 H 0.25672 0.41674 0.21418 0.0
H856 H 0.50372 0.39431 0.22375 0.0
H857 H 0.45023 0.32774 0.1756 0.0
C858 C 0.30504 0.75167 0.91062 0.0
C859 C 0.3036 0.8016 0.90968 0.0
N860 N 0.26821 0.81796 0.92055 0.0
N861 N 0.27101 0.73567 0.92213 0.0
C862 C 0.249 0.77703 0.92804 0.0
H863 H 0.32939 0.72818 0.90325 0.0
Co864 Co 0.26148 0.6678 0.92592 0.0
C865 C 0.25798 0.65284 0.96393 0.0
O866 O 0.2872 0.61586 0.96072 0.0
N867 N 0.25022 0.59871 0.92894 0.0
C868 C 0.20637 0.53298 0.93642 0.0
C869 C 0.20767 0.58299 0.93606 0.0
C870 C 0.27392 0.55639 0.92482 0.0
N871 N 0.24803 0.51591 0.92932 0.0
O872 O 0.19635 0.6727 0.91712 0.0
H873 H 0.17907 0.60668 0.94092 0.0
H874 H 0.30888 0.55448 0.91835 0.0
O875 O 0.24124 0.67865 0.95107 0.0
C876 C 0.19706 0.67562 0.90032 0.0
O877 O 0.23944 0.68176 0.89246 0.0
N878 N 0.32689 0.66398 0.93288 0.0
C879 C 0.4265 0.66945 0.9397 0.0
C880 C 0.39331 0.69737 0.9495 0.0
C881 C 0.34407 0.69487 0.94566 0.0
C882 C 0.35872 0.63868 0.92253 0.0
C883 C 0.40869 0.63943 0.92611 0.0
H884 H 0.32003 0.72004 0.95237 0.0
H885 H 0.34586 0.62062 0.91074 0.0
H886 H 0.21899 0.77699 0.93735 0.0
H887 H 0.3274 0.82408 0.90168 0.0
H888 H 0.17709 0.51098 0.94182 0.0
H889 H 0.40526 0.72383 0.95924 0.0
H890 H 0.43317 0.6188 0.91771 0.0
C891 C 1.00357 0.51202 0.66607 0.0
C892 C 0.95379 0.50656 0.66495 0.0
N893 N 0.93781 0.48339 0.67948 0.0
N894 N 0.02016 0.49228 0.68123 0.0
C895 C 0.97887 0.47462 0.68915 0.0
H896 H 0.02569 0.53257 0.6569 0.0
Co897 Co 0.08525 0.50701 0.68909 0.0
C898 C 0.10421 0.45606 0.72264 0.0
O899 O 0.14817 0.44265 0.71764 0.0
N900 N 0.15116 0.52421 0.69673 0.0
C901 C 0.20973 0.55741 0.71342 0.0
C902 C 0.16038 0.55324 0.71081 0.0
C903 C 0.1969 0.5113 0.69102 0.0
N904 N 0.23334 0.5307 0.70115 0.0
O905 O 0.10934 0.45087 0.67724 0.0
H906 H 0.13296 0.56961 0.71919 0.0
H907 H 0.20348 0.48688 0.68004 0.0
O908 O 0.07426 0.47258 0.71122 0.0
C909 C 0.11857 0.46566 0.66162 0.0
O910 O 0.11442 0.51251 0.65825 0.0
N911 N 0.06045 0.56338 0.69887 0.0
C912 C 0.00724 0.64703 0.70513 0.0
C913 C 0.99961 0.60572 0.71551 0.0
C914 C 0.02634 0.56392 0.71204 0.0
C915 C 0.07042 0.60417 0.68933 0.0
C916 C 0.04423 0.64681 0.69231 0.0
H917 H 0.01611 0.53128 0.71893 0.0
H918 H 0.09666 0.60253 0.67866 0.0
H919 H 0.97831 0.4592 0.70229 0.0
H920 H 0.93076 0.52032 0.65447 0.0
H921 H 0.22677 0.57872 0.72378 0.0
H922 H 0.97074 0.60449 0.72529 0.0
H923 H 0.05128 0.67851 0.68417 0.0
C924 C 0.18469 0.73635 0.08795 0.0
C925 C 0.18638 0.78642 0.08844 0.0
N926 N 0.22684 0.80156 0.07989 0.0
N927 N 0.22362 0.71911 0.07896 0.0
C928 C 0.24904 0.75986 0.07434 0.0
H929 H 0.15697 0.71373 0.09402 0.0
Co930 Co 0.23658 0.65116 0.07562 0.0
C931 C 0.24621 0.63872 0.03767 0.0
O932 O 0.2202 0.59889 0.04005 0.0
N933 N 0.25187 0.58258 0.07254 0.0
C934 C 0.30163 0.52033 0.06605 0.0
C935 C 0.29709 0.57011 0.06689 0.0
C936 C 0.2295 0.53842 0.07497 0.0
N937 N 0.25915 0.5001 0.07114 0.0
O938 O 0.29922 0.65895 0.08644 0.0
H939 H 0.32541 0.59593 0.06338 0.0
H940 H 0.19257 0.53359 0.07957 0.0
O941 O 0.25985 0.66425 0.0511 0.0
C942 C 0.29182 0.66198 0.10309 0.0
O943 O 0.24689 0.66898 0.10866 0.0
N944 N 0.17282 0.64349 0.06747 0.0
C945 C 0.07199 0.65003 0.06385 0.0
C946 C 0.10318 0.6766 0.0527 0.0
C947 C 0.15336 0.67315 0.05483 0.0
C948 C 0.14318 0.61711 0.07826 0.0
C949 C 0.09279 0.61779 0.07608 0.0
H950 H 0.17608 0.6985 0.04762 0.0
H951 H 0.15821 0.59925 0.08971 0.0
H952 H 0.28316 0.7589 0.06712 0.0
H953 H 0.1604 0.80983 0.0951 0.0
H954 H 0.33364 0.50059 0.06165 0.0
H955 H 0.08948 0.70378 0.04363 0.0
H956 H 0.07046 0.59659 0.08504 0.0
C957 C 0.02665 0.42606 0.8347 0.0
C958 C 0.97679 0.42525 0.83621 0.0
N959 N 0.95992 0.47122 0.83512 0.0
N960 N 0.04276 0.47237 0.83242 0.0
C961 C 1.0008 0.49917 0.83321 0.0
H962 H 0.04916 0.39398 0.83562 0.0
Co963 Co 0.11076 0.49253 0.83049 0.0
C964 C 0.07032 0.52183 0.79445 0.0
O965 O 0.02615 0.53352 0.79964 0.0
N966 N 0.17735 0.51243 0.8288 0.0
C967 C 0.24238 0.5572 0.82139 0.0
C968 C 0.19213 0.55426 0.82104 0.0
C969 C 0.21977 0.49082 0.8339 0.0
N970 N 0.25993 0.51707 0.82942 0.0
O971 O 0.09487 0.55606 0.8389 0.0
H972 H 0.16781 0.58079 0.81521 0.0
H973 H 0.22173 0.45661 0.84085 0.0
O974 O 0.10281 0.51021 0.80576 0.0
C975 C 0.08844 0.55508 0.85558 0.0
O976 O 0.08385 0.51231 0.86326 0.0
N977 N 0.12839 0.42955 0.82371 0.0
C978 C 0.13316 0.32911 0.81974 0.0
C979 C 0.12212 0.35906 0.80528 0.0
C980 C 0.12006 0.40918 0.80752 0.0
C981 C 0.14492 0.40168 0.83731 0.0
C982 C 0.14942 0.35138 0.83539 0.0
H983 H 0.10669 0.42993 0.79659 0.0
H984 H 0.15071 0.41814 0.85014 0.0
H985 H 1.00028 0.53857 0.83234 0.0
H986 H 0.95495 0.39288 0.83843 0.0
H987 H 0.26426 0.58606 0.81566 0.0
H988 H 0.10921 0.34442 0.79284 0.0
H989 H 0.16027 0.33003 0.84673 0.0
C990 C 0.2038 0.26991 0.56953 0.0
C991 C 0.19822 0.21978 0.56918 0.0
N992 N 0.23571 0.1994 0.57806 0.0
N993 N 0.24468 0.28137 0.57857 0.0
C994 C 0.26279 0.23768 0.58383 0.0
H995 H 0.18041 0.29622 0.5631 0.0
Co996 Co 0.27335 0.34386 0.58176 0.0
C997 C 0.28553 0.38399 0.5465 0.0
O998 O 0.32833 0.39938 0.55212 0.0
N999 N 0.30102 0.40805 0.58545 0.0
C1000 C 0.34568 0.4735 0.59274 0.0
C1001 C 0.34369 0.42327 0.59265 0.0
C1002 C 0.27762 0.45055 0.58159 0.0
N1003 N 0.30408 0.49104 0.58573 0.0
O1004 O 0.21421 0.36769 0.59138 0.0
H1005 H 0.37208 0.4003 0.59783 0.0
H1006 H 0.24173 0.45146 0.57562 0.0
O1007 O 0.25614 0.36263 0.55728 0.0
C1008 C 0.21299 0.35423 0.6075 0.0
O1009 O 0.24717 0.32451 0.61319 0.0
N1010 N 0.332 0.31717 0.57399 0.0
C1011 C 0.41103 0.25633 0.56789 0.0
C1012 C 0.37585 0.26304 0.55479 0.0
C1013 C 0.33603 0.2928 0.55823 0.0
C1014 C 0.36499 0.3093 0.58708 0.0
C1015 C 0.40571 0.28033 0.58415 0.0
H1016 H 0.30655 0.29247 0.54878 0.0
H1017 H 0.35768 0.32236 0.60028 0.0
H1018 H 0.29611 0.23401 0.59138 0.0
H1019 H 0.16993 0.19991 0.56221 0.0
H1020 H 0.37531 0.49523 0.59805 0.0
H1021 H 0.37749 0.24323 0.54241 0.0
H1022 H 0.43175 0.2754 0.59476 0.0
C1023 C 0.48889 0.56559 0.33709 0.0
C1024 C 0.53815 0.56082 0.3398 0.0
N1025 N 0.552 0.51608 0.33443 0.0
N1026 N 0.4707 0.52465 0.32955 0.0
C1027 C 0.51011 0.49441 0.32863 0.0
H1028 H 0.46747 0.59735 0.34054 0.0
Co1029 Co 0.40165 0.51846 0.32476 0.0
C1030 C 0.44313 0.48436 0.28879 0.0
O1031 O 0.48975 0.48455 0.2928 0.0
N1032 N 0.33312 0.51337 0.32034 0.0
C1033 C 0.26314 0.52038 0.3055 0.0
C1034 C 0.3129 0.52502 0.30463 0.0
C1035 C 0.29404 0.50264 0.33076 0.0
N1036 N 0.25089 0.50629 0.32191 0.0
O1037 O 0.40075 0.45592 0.33573 0.0
H1038 H 0.33291 0.53875 0.2934 0.0
H1039 H 0.29711 0.49312 0.34457 0.0
O1040 O 0.41125 0.49255 0.30077 0.0
C1041 C 0.40532 0.4633 0.35232 0.0
O1042 O 0.41265 0.50822 0.35789 0.0
N1043 N 0.40105 0.58135 0.31567 0.0
C1044 C 0.41123 0.68039 0.30954 0.0
C1045 C 0.43907 0.64649 0.29997 0.0
C1046 C 0.43346 0.59715 0.30326 0.0
C1047 C 0.37094 0.61338 0.3241 0.0
C1048 C 0.37461 0.6632 0.3209 0.0
H1049 H 0.45939 0.57274 0.29735 0.0
H1050 H 0.34614 0.60055 0.3342 0.0
H1051 H 0.50803 0.457 0.32405 0.0
H1052 H 0.56203 0.5888 0.34509 0.0
H1053 H 0.23769 0.52911 0.29504 0.0
H1054 H 0.46882 0.65767 0.29145 0.0
H1055 H 0.35179 0.68807 0.32836 0.0
C1056 C 0.16078 0.06298 0.10714 0.0
C1057 C 0.17034 0.11269 0.10988 0.0
H1058 H 0.1447 0.99421 0.11898 0.0
C1059 C 0.16492 0.1324 0.12696 0.0
H1060 H 0.1648 0.04672 0.09418 0.0
C1061 C 0.15376 0.10231 0.14127 0.0
C1062 C 0.14802 0.05197 0.13871 0.0
H1063 H 0.17201 0.17075 0.12945 0.0
H1064 H 0.15167 0.11814 0.15436 0.0
C1065 C 0.14997 0.03285 0.12144 0.0
C1066 C 0.15673 0.8951 0.36122 0.0
C1067 C 0.12006 0.92934 0.36474 0.0
H1068 H 0.21405 0.8517 0.37216 0.0
C1069 C 0.10503 0.93692 0.38234 0.0
H1070 H 0.16916 0.88872 0.34783 0.0
C1071 C 0.13062 0.91563 0.39631 0.0
C1072 C 0.17167 0.88683 0.39277 0.0
H1073 H 0.07653 0.96303 0.38537 0.0
H1074 H 0.12171 0.92617 0.40972 0.0
C1075 C 0.18253 0.87413 0.37518 0.0
C1076 C 0.36068 0.83625 0.63405 0.0
C1077 C 0.36356 0.84554 0.61579 0.0
H1078 H 0.37383 0.86346 0.66015 0.0
C1079 C 0.39281 0.88437 0.60991 0.0
H1080 H 0.33877 0.80623 0.63898 0.0
C1081 C 0.41272 0.91729 0.62207 0.0
C1082 C 0.40406 0.91162 0.64028 0.0
H1083 H 0.39612 0.89237 0.59597 0.0
H1084 H 0.43133 0.94942 0.61712 0.0
C1085 C 0.38076 0.86907 0.64622 0.0
C1086 C 0.37103 0.11432 0.86006 0.0
C1087 C 0.39714 0.07234 0.86466 0.0
H1088 H 0.32573 0.17267 0.86915 0.0
C1089 C 0.40321 0.06085 0.88265 0.0
H1090 H 0.36569 0.12395 0.84633 0.0
C1091 C 0.38023 0.08846 0.89574 0.0
C1092 C 0.35067 0.12802 0.89105 0.0
H1093 H 0.42358 0.0288 0.8866 0.0
H1094 H 0.38321 0.07698 0.90937 0.0
C1095 C 0.34792 0.14192 0.87316 0.0
C1096 C 0.85659 0.91681 0.87243 0.0
C1097 C 0.87718 0.9627 0.87576 0.0
H1098 H 0.81611 0.85704 0.88315 0.0
C1099 C 0.88035 0.97992 0.89328 0.0
H1100 H 0.85399 0.90263 0.8591 0.0
C1101 C 0.85939 0.95352 0.90709 0.0
C1102 C 0.83471 0.90996 0.90343 0.0
H1103 H 0.89681 0.01503 0.8962 0.0
H1104 H 0.85889 0.96909 0.92025 0.0
C1105 C 0.83516 0.89077 0.88619 0.0
C1106 C 0.89406 0.06656 0.63348 0.0
C1107 C 0.88131 0.07425 0.65128 0.0
H1108 H 0.87831 0.08329 0.60648 0.0
C1109 C 0.84992 0.11275 0.65565 0.0
H1110 H 0.91858 0.03721 0.62981 0.0
C1111 C 0.82676 0.13893 0.64227 0.0
C1112 C 0.83514 0.12721 0.62442 0.0
H1113 H 0.83946 0.11934 0.66925 0.0
H1114 H 0.79919 0.16548 0.64589 0.0
C1115 C 0.87129 0.09308 0.62011 0.0
C1116 C 0.71279 0.05261 0.38249 0.0
C1117 C 0.66678 0.06509 0.37592 0.0
H1118 H 0.76977 0.06957 0.40064 0.0
C1119 C 0.64124 0.10469 0.38328 0.0
H1120 H 0.73256 0.02159 0.3772 0.0
C1121 C 0.66191 0.13145 0.39727 0.0
C1122 C 0.70847 0.11908 0.4036 0.0
H1123 H 0.60506 0.11396 0.37856 0.0
H1124 H 0.64222 0.1621 0.40284 0.0
C1125 C 0.73372 0.07973 0.396 0.0
C1126 C 0.6209 0.94766 0.13553 0.0
C1127 C 0.62595 0.93462 0.15341 0.0
H1128 H 0.63842 0.93068 0.1087 0.0
C1129 C 0.64631 0.88931 0.15768 0.0
H1130 H 0.60471 0.98221 0.13183 0.0
C1131 C 0.66539 0.85961 0.14435 0.0
C1132 C 0.66434 0.87484 0.1266 0.0
H1133 H 0.6505 0.87832 0.17133 0.0
H1134 H 0.68365 0.82614 0.1481 0.0
C1135 C 0.63993 0.91804 0.12223 0.0
C1136 C 0.7157 0.60095 0.64866 0.0
C1137 C 0.70437 0.6002 0.63054 0.0
H1138 H 0.69197 0.58514 0.67492 0.0
C1139 C 0.65718 0.58684 0.62519 0.0
H1140 H 0.75161 0.61193 0.65323 0.0
C1141 C 0.62295 0.57138 0.63769 0.0
C1142 C 0.63528 0.5694 0.65573 0.0
H1143 H 0.64735 0.58644 0.61134 0.0
H1144 H 0.58752 0.55895 0.63311 0.0
C1145 C 0.68139 0.58602 0.66115 0.0
C1146 C 0.70148 0.35402 0.88741 0.0
C1147 C 0.68899 0.36179 0.90523 0.0
H1148 H 0.68742 0.37213 0.86041 0.0
C1149 C 0.64647 0.38791 0.90926 0.0
H1150 H 0.73403 0.33367 0.88392 0.0
C1151 C 0.61969 0.40995 0.89573 0.0
C1152 C 0.6351 0.4062 0.878 0.0
H1153 H 0.6362 0.3947 0.92287 0.0
H1154 H 0.58881 0.4326 0.8993 0.0
C1155 C 0.67482 0.37603 0.8739 0.0
C1156 C 0.82539 0.34173 0.15324 0.0
C1157 C 0.83299 0.34704 0.13495 0.0
H1158 H 0.84086 0.36946 0.17914 0.0
C1159 C 0.87037 0.37809 0.12905 0.0
H1160 H 0.79701 0.31771 0.15818 0.0
C1161 C 0.89531 0.40777 0.14107 0.0
C1162 C 0.88357 0.40653 0.15916 0.0
H1163 H 0.8772 0.38294 0.11508 0.0
H1164 H 0.92107 0.43441 0.13603 0.0
C1165 C 0.8506 0.37121 0.16529 0.0
C1166 C 0.83281 0.59974 0.37485 0.0
C1167 C 0.85476 0.55593 0.38 0.0
H1168 H 0.79288 0.66268 0.38321 0.0
C1169 C 0.85961 0.54533 0.3981 0.0
H1170 H 0.82887 0.60885 0.36101 0.0
C1171 C 0.84001 0.57665 0.41084 0.0
C1172 C 0.8145 0.61833 0.40556 0.0
H1173 H 0.8771 0.51197 0.40241 0.0
H1174 H 0.84182 0.56652 0.42464 0.0
C1175 C 0.81241 0.63048 0.38755 0.0
C1176 C 0.37884 0.41341 0.39708 0.0
C1177 C 0.33642 0.38662 0.39341 0.0
H1178 H 0.43545 0.45839 0.38635 0.0
C1179 C 0.32531 0.37453 0.37577 0.0
H1180 H 0.3881 0.42327 0.41054 0.0
C1181 C 0.3524 0.39443 0.36191 0.0
C1182 C 0.39064 0.42695 0.36559 0.0
H1183 H 0.29287 0.35344 0.37265 0.0
H1184 H 0.33989 0.38881 0.34849 0.0
C1185 C 0.40576 0.43359 0.38321 0.0
C1186 C 0.33877 0.62366 0.14725 0.0
C1187 C 0.36133 0.57951 0.14275 0.0
H1188 H 0.29975 0.68593 0.13772 0.0
C1189 C 0.37075 0.56914 0.12485 0.0
H1190 H 0.33152 0.63271 0.16093 0.0
C1191 C 0.35373 0.60008 0.11159 0.0
C1192 C 0.32626 0.64144 0.11603 0.0
H1193 H 0.38908 0.5357 0.12104 0.0
H1194 H 0.35805 0.58904 0.09794 0.0
C1195 C 0.32106 0.65426 0.13396 0.0
C1196 C 0.13005 0.63546 0.85979 0.0
C1197 C 0.10152 0.59746 0.86673 0.0
H1198 H 0.18242 0.69144 0.86536 0.0
C1199 C 0.09514 0.59453 0.88515 0.0
H1200 H 0.13552 0.63889 0.84568 0.0
C1201 C 0.1221 0.62466 0.89646 0.0
C1202 C 0.15582 0.65805 0.88947 0.0
H1203 H 0.07285 0.56592 0.89088 0.0
H1204 H 0.12021 0.61819 0.91055 0.0
C1205 C 0.15706 0.66549 0.8711 0.0
C1206 C 0.17835 0.35999 0.63791 0.0
C1207 C 0.1809 0.37811 0.62054 0.0
H1208 H 0.15628 0.37341 0.66468 0.0
C1209 C 0.15808 0.42244 0.61654 0.0
H1210 H 0.19551 0.3257 0.64135 0.0
C1211 C 0.13603 0.44971 0.62991 0.0
C1212 C 0.13612 0.43305 0.64748 0.0
H1213 H 0.15958 0.4374 0.60332 0.0
H1214 H 0.12035 0.48475 0.62653 0.0
C1215 C 0.15595 0.38718 0.65128 0.0
C1216 C 0.32067 0.07974 0.99158 0.0
C1217 C 0.29906 0.11865 0.98248 0.0
H1218 H 0.33186 0.04463 0.01643 0.0
C1219 C 0.26878 0.15112 0.99195 0.0
H1220 H 0.34361 0.05366 0.98473 0.0
C1221 C 0.26124 0.14543 0.01012 0.0
C1222 C 0.28418 0.10735 0.01925 0.0
H1223 H 0.25077 0.18102 0.98539 0.0
H1224 H 0.23907 0.17193 0.0171 0.0
C1225 C 0.31348 0.07429 1.00974 0.0
C1226 C 0.05022 0.01295 0.2567 0.0
C1227 C 0.08281 0.99137 0.26877 0.0
H1228 H 0.04016 0.04371 0.23091 0.0
C1229 C 0.13156 0.9842 0.26351 0.0
H1230 H 0.01252 0.01963 0.26032 0.0
C1231 C 0.14766 0.99939 0.24685 0.0
C1232 C 0.11518 0.02138 0.23488 0.0
H1233 H 0.15741 0.96702 0.27234 0.0
H1234 H 0.18527 0.9925 0.24314 0.0
C1235 C 0.06622 0.02776 0.23998 0.0
C1236 C 0.27376 0.88024 0.5208 0.0
C1237 C 0.27596 0.82939 0.52308 0.0
H1238 H 0.2622 0.93967 0.5032 0.0
C1239 C 0.26626 0.79908 0.5084 0.0
H1240 H 0.28011 0.90493 0.53177 0.0
C1241 C 0.25546 0.81931 0.49181 0.0
C1242 C 0.25409 0.87025 0.48962 0.0
H1243 H 0.26687 0.75973 0.50972 0.0
H1244 H 0.24983 0.79518 0.48064 0.0
C1245 C 0.26276 0.90026 0.50439 0.0
C1246 C 0.47037 0.99882 0.75525 0.0
C1247 C 0.44082 0.01489 0.76936 0.0
H1248 H 0.47396 0.97894 0.7278 0.0
C1249 C 0.39103 0.02326 0.76619 0.0
H1250 H 0.50885 0.99152 0.75725 0.0
C1251 C 0.37087 0.01447 0.74958 0.0
C1252 C 0.40008 0.99809 0.73545 0.0
H1253 H 0.36731 0.03612 0.77665 0.0
H1254 H 0.33221 0.02138 0.74781 0.0
C1255 C 0.45023 0.99063 0.73844 0.0
C1256 C 0.79273 0.88264 1.00341 0.0
C1257 C 0.74541 0.88006 0.9965 0.0
H1258 H 0.83678 0.88605 0.02666 0.0
C1259 C 0.7054 0.8763 1.00819 0.0
H1260 H 0.82406 0.88544 0.99471 0.0
C1261 C 0.71247 0.87613 0.02645 0.0
C1262 C 0.75962 0.88072 0.0334 0.0
H1263 H 0.66838 0.87355 1.0032 0.0
H1264 H 0.68105 0.8733 0.0351 0.0
C1265 C 0.79974 0.88347 0.0217 0.0
C1266 C 0.95617 0.98772 0.77434 0.0
C1267 C 0.9079 0.98819 0.78067 0.0
H1268 H 1.00405 0.9992 0.75238 0.0
C1269 C 0.87038 1.0036 0.7693 0.0
H1270 H 0.98594 0.97678 0.78289 0.0
C1271 C 0.88089 0.01788 0.75198 0.0
C1272 C 0.92899 0.01617 0.74547 0.0
H1273 H 0.83299 0.00602 0.77393 0.0
H1274 H 0.85129 0.03023 0.74366 0.0
C1275 C 0.96661 1.00146 0.75695 0.0
C1276 C 0.76246 0.21438 0.52043 0.0
C1277 C 0.77897 0.17226 0.52908 0.0
H1278 H 0.72921 0.2441 0.49713 0.0
C1279 C 0.77307 0.12677 0.52083 0.0
H1280 H 0.76728 0.24997 0.52646 0.0
C1281 C 0.74979 0.12312 0.50444 0.0
C1282 C 0.73385 0.16525 0.49558 0.0
H1283 H 0.78794 0.09412 0.52677 0.0
H1284 H 0.74703 0.08752 0.49825 0.0
C1285 C 0.74028 0.21095 0.50378 0.0
C1286 C 0.56608 0.03028 0.27797 0.0
C1287 C 0.61548 0.02793 0.28298 0.0
H1288 H 0.51303 0.0182 0.25766 0.0
C1289 C 0.64974 0.00996 0.27074 0.0
H1290 H 0.5387 0.04308 0.28722 0.0
C1291 C 0.63487 0.99438 0.25396 0.0
C1292 C 0.58553 0.99705 0.24887 0.0
H1293 H 0.68788 0.00628 0.27433 0.0
H1294 H 0.6621 0.98024 0.24494 0.0
C1295 C 0.55127 0.01496 0.26115 0.0
C1296 C 0.72207 0.6475 0.53043 0.0
C1297 C 0.7704 0.63661 0.53491 0.0
H1298 H 0.67155 0.66225 0.50959 0.0
C1299 C 0.80643 0.63692 0.52154 0.0
H1300 H 0.69378 0.64809 0.54044 0.0
C1301 C 0.79407 0.64583 0.50394 0.0
C1302 C 0.74529 0.65381 0.49933 0.0
H1303 H 0.84439 0.62969 0.52463 0.0
H1304 H 0.82223 0.64436 0.49389 0.0
C1305 C 0.70956 0.65554 0.51277 0.0
C1306 C 0.63982 0.51973 0.75285 0.0
C1307 C 0.63155 0.47208 0.74683 0.0
H1308 H 0.65377 0.56591 0.77506 0.0
C1309 C 0.63017 0.43361 0.75915 0.0
H1310 H 0.64091 0.54998 0.74367 0.0
C1311 C 0.63681 0.44264 0.77718 0.0
C1312 C 0.64618 0.49016 0.78317 0.0
H1313 H 0.62325 0.39644 0.75489 0.0
H1314 H 0.63483 0.4125 0.78639 0.0
C1315 C 0.64762 0.52861 0.77082 0.0
C1316 C 0.72451 0.33586 1.00954 0.0
C1317 C 0.76938 0.34799 1.00188 0.0
H1318 H 0.68497 0.3278 0.03374 0.0
C1319 C 0.81146 0.35066 0.01258 0.0
H1320 H 0.69168 0.33401 1.00157 0.0
C1321 C 0.80792 0.34626 0.03091 0.0
C1322 C 0.7622 0.33949 0.03874 0.0
H1323 H 0.84663 0.35979 1.00687 0.0
H1324 H 0.83994 0.35307 0.03898 0.0
C1325 C 0.72088 0.33211 0.02792 0.0
C1326 C 0.94604 0.51781 0.2812 0.0
C1327 C 0.89631 0.51784 0.28591 0.0
H1328 H 0.9993 0.50453 0.26104 0.0
C1329 C 0.86177 0.50208 0.27336 0.0
H1330 H 0.97366 0.52854 0.2907 0.0
C1331 C 0.87662 0.48646 0.25658 0.0
C1332 C 0.92621 0.48739 0.25172 0.0
H1333 H 0.82335 0.49982 0.27672 0.0
H1334 H 0.84919 0.47333 0.24744 0.0
C1335 C 0.96079 0.50298 0.2643 0.0
C1336 C 0.2305 0.37776 0.5201 0.0
C1337 C 0.27756 0.3818 0.52722 0.0
H1338 H 0.187 0.37986 0.4966 0.0
C1339 C 0.31805 0.38402 0.51568 0.0
H1340 H 0.19881 0.37538 0.52864 0.0
C1341 C 0.31144 0.38516 0.4974 0.0
C1342 C 0.26425 0.38461 0.4904 0.0
H1343 H 0.35498 0.38606 0.52078 0.0
H1344 H 0.34287 0.38971 0.48884 0.0
C1345 C 0.22389 0.37979 0.50182 0.0
C1346 C 0.44689 0.53421 0.24209 0.0
C1347 C 0.39776 0.53024 0.23687 0.0
H1348 H 0.50007 0.52156 0.26228 0.0
C1349 C 0.36422 0.50831 0.2485 0.0
H1350 H 0.47373 0.55011 0.23328 0.0
C1351 C 0.37951 0.49067 0.26494 0.0
C1352 C 0.42854 0.49514 0.27028 0.0
H1353 H 0.32637 0.50332 0.24469 0.0
H1354 H 0.35284 0.47365 0.27352 0.0
C1355 C 0.46213 0.51681 0.25857 0.0
C1356 C 0.2051 0.6571 1.00927 0.0
C1357 C 0.2481 0.65805 0.01954 0.0
H1358 H 0.17426 0.65668 0.98319 0.0
C1359 C 0.29275 0.66836 0.01136 0.0
H1360 H 0.17013 0.64909 0.01535 0.0
C1361 C 0.29496 0.67238 0.99294 0.0
C1362 C 0.25248 0.66705 0.98256 0.0
H1363 H 0.3263 0.66875 0.01896 0.0
H1364 H 0.33046 0.67564 0.9867 0.0
C1365 C 0.20722 0.66189 0.99091 0.0
C1366 C 0.12681 0.49936 0.76957 0.0
C1367 C 0.07902 0.50795 0.77571 0.0
H1368 H 0.17221 0.47536 0.74821 0.0
C1369 C 0.03954 0.4966 0.76453 0.0
H1370 H 0.15805 0.50702 0.77793 0.0
C1371 C 0.04764 0.47701 0.74768 0.0
C1372 C 0.09539 0.46909 0.74144 0.0
H1373 H 1.00223 0.50153 0.76896 0.0
H1374 H 0.0164 0.46824 0.73949 0.0
C1375 C 0.13489 0.48023 0.75265 0.0
C1376 C 0.2083 0.89018 0.0783 0.0
C1377 C 0.24276 0.85196 0.07818 0.0
H1378 H 0.1954 0.96725 0.07886 0.0
C1379 C 0.29264 0.86436 0.07747 0.0
H1380 H 0.16956 0.88221 0.07858 0.0
C1381 C 0.30755 0.91357 0.07756 0.0
C1382 C 0.273 0.95176 0.07822 0.0
H1383 H 0.3202 0.83608 0.07742 0.0
H1384 H 0.34627 0.92163 0.07723 0.0
C1385 C 0.22314 0.93922 0.07829 0.0
C1386 C 0.39782 0.99136 0.32059 0.0
C1387 C 0.41069 0.00915 0.33739 0.0
H1388 H 0.34047 0.97576 0.3022 0.0
C1389 C 0.37264 0.02399 0.34883 0.0
H1390 H 0.42545 0.97849 0.3115 0.0
C1391 C 0.32347 0.02181 0.34352 0.0
C1392 C 0.31098 1.00518 0.32656 0.0
H1393 H 0.38072 0.0383 0.36183 0.0
H1394 H 0.29541 0.03474 0.35245 0.0
C1395 C 0.34881 0.98947 0.31528 0.0
C1396 C 0.29619 0.13218 0.58067 0.0
C1397 C 0.24738 0.1478 0.57921 0.0
H1398 H 0.34587 0.07192 0.5814 0.0
C1399 C 0.21047 0.11193 0.57804 0.0
H1400 H 0.32573 0.15844 0.58143 0.0
C1401 C 0.22214 0.06196 0.57794 0.0
C1402 C 0.2711 0.04648 0.57883 0.0
H1403 H 0.17248 0.1225 0.57707 0.0
H1404 H 0.19289 0.03554 0.57659 0.0
C1405 C 0.30783 0.08235 0.58045 0.0
C1406 C 0.17982 1.00268 0.81177 0.0
C1407 C 0.21709 0.99535 0.82439 0.0
H1408 H 0.10342 0.01314 0.80675 0.0
C1409 C 0.20361 0.99246 0.84225 0.0
H1410 H 0.1886 0.00603 0.79791 0.0
C1411 C 0.15436 0.9964 0.84731 0.0
C1412 C 0.11711 1.00358 0.83468 0.0
H1413 H 0.23093 0.98625 0.85232 0.0
H1414 H 0.14546 0.99341 0.86119 0.0
C1415 C 0.13065 0.0066 0.81683 0.0
C1416 C 0.25774 0.15596 0.41832 0.0
C1417 C 0.24741 0.18796 0.43237 0.0
H1418 H 0.26521 0.08135 0.4099 0.0
C1419 C 0.24095 0.16888 0.44937 0.0
H1420 H 0.26253 0.17009 0.40509 0.0
C1421 C 0.2413 0.1183 0.45202 0.0
C1422 C 0.24941 0.08618 0.43781 0.0
H1423 H 0.23233 0.1929 0.46031 0.0
H1424 H 0.23337 0.10402 0.46503 0.0
C1425 C 0.25942 0.10547 0.42106 0.0
C1426 C 0.11746 0.96614 0.66419 0.0
C1427 C 0.08823 0.98619 0.67768 0.0
H1428 H 0.19002 0.95005 0.65513 0.0
C1429 C 0.11134 0.01243 0.69135 0.0
H1430 H 0.10089 0.94627 0.65336 0.0
C1431 C 0.16272 0.01504 0.69218 0.0
C1432 C 0.1915 0.99168 0.67932 0.0
H1433 H 0.08993 0.02786 0.70201 0.0
H1434 H 0.18001 0.03248 0.70341 0.0
C1435 C 0.1684 0.96854 0.66509 0.0
C1436 C 0.26623 0.90424 0.91034 0.0
C1437 C 0.25512 0.8688 0.92325 0.0
H1438 H 0.26547 0.97973 0.90293 0.0
C1439 C 0.233 0.88453 0.939 0.0
H1440 H 0.28237 0.89374 0.89786 0.0
C1441 C 0.22321 0.93423 0.94188 0.0
C1442 C 0.23501 0.96976 0.92906 0.0
H1443 H 0.22441 0.85864 0.94932 0.0
H1444 H 0.20736 0.94471 0.9544 0.0
C1445 C 0.25648 0.95387 0.91322 0.0
C1446 C 0.34803 0.95753 0.20087 0.0
C1447 C 0.31223 0.97453 0.1889 0.0
H1448 H 0.42352 0.9575 0.20871 0.0
C1449 C 0.32819 1.00369 0.17472 0.0
H1450 H 0.33807 0.93537 0.21209 0.0
C1451 C 0.37766 0.01642 0.17288 0.0
C1452 C 0.41303 1.00032 0.18508 0.0
H1453 H 0.30263 0.01706 0.165 0.0
H1454 H 0.38819 0.03928 0.16188 0.0
C1455 C 0.39758 0.97005 0.19894 0.0
C1456 C 0.70375 0.09469 0.94579 0.0
C1457 C 0.73705 0.05591 0.9434 0.0
H1458 H 0.6927 0.17234 0.94691 0.0
C1459 C 0.78679 0.06764 0.94125 0.0
H1460 H 0.66526 0.08733 0.94773 0.0
C1461 C 0.80248 0.1164 0.94093 0.0
C1462 C 0.76907 0.15523 0.94273 0.0
H1463 H 0.81366 0.03925 0.93926 0.0
H1464 H 0.84103 0.12362 0.93907 0.0
C1465 C 0.71954 0.14363 0.94551 0.0
C1466 C 0.67944 0.03101 0.67658 0.0
C1467 C 0.69075 1.00253 0.69142 0.0
H1468 H 0.62359 0.06165 0.66031 0.0
C1469 C 0.65181 0.98123 0.70091 0.0
H1470 H 0.70823 0.04792 0.66891 0.0
C1471 C 0.60314 0.98975 0.6962 0.0
C1472 C 0.5916 0.01953 0.68172 0.0
H1473 H 0.65868 0.95799 0.71215 0.0
H1474 H 0.57466 0.97376 0.70424 0.0
C1475 C 0.63058 0.03933 0.67178 0.0
C1476 C 0.77448 0.96457 0.43478 0.0
C1477 C 0.7878 0.98245 0.45153 0.0
H1478 H 0.76121 0.90235 0.41837 0.0
C1479 C 0.79599 0.94791 0.46508 0.0
H1480 H 0.76785 0.98941 0.42397 0.0
C1481 C 0.79241 0.89724 0.46181 0.0
C1482 C 0.78104 0.87961 0.44485 0.0
H1483 H 0.80546 0.95992 0.47826 0.0
H1484 H 0.80002 0.8719 0.4724 0.0
C1485 C 0.7712 0.9142 0.43152 0.0
C1486 C 0.90022 0.99793 0.19881 0.0
C1487 C 0.91291 1.00467 0.18101 0.0
H1488 H 0.84321 0.99458 0.21807 0.0
C1489 C 0.87495 0.01362 0.1688 0.0
H1490 H 0.92791 0.9899 0.20857 0.0
C1491 C 0.82593 0.01605 0.17426 0.0
C1492 C 0.81346 0.0099 0.19211 0.0
H1493 H 0.88308 0.01946 0.15498 0.0
H1494 H 0.798 0.02394 0.16457 0.0
C1495 C 0.85133 1.00044 0.20426 0.0
C1496 C 0.77163 0.85755 0.57308 0.0
C1497 C 0.75805 0.8433 0.59021 0.0
H1498 H 0.78375 0.91654 0.55507 0.0
C1499 C 0.74556 0.88037 0.60243 0.0
H1500 H 0.78239 0.83057 0.56338 0.0
C1501 C 0.74699 0.92994 0.59773 0.0
C1502 C 0.76039 0.94406 0.58059 0.0
H1503 H 0.73423 0.8712 0.6157 0.0
H1504 H 0.73647 0.95709 0.60741 0.0
C1505 C 0.77272 0.90711 0.56835 0.0
C1506 C 0.8259 0.00888 0.34276 0.0
C1507 C 0.80932 0.97759 0.32925 0.0
H1508 H 0.8866 0.04553 0.35476 0.0
C1509 C 0.8445 0.95808 0.31753 0.0
H1510 H 0.80067 0.02406 0.35227 0.0
C1511 C 0.89428 0.97019 0.31908 0.0
C1512 C 0.91043 1.00246 0.33231 0.0
H1513 H 0.83368 0.93428 0.30681 0.0
H1514 H 0.91985 0.95564 0.30952 0.0
C1515 C 0.87555 0.02112 0.34424 0.0
C1516 C 0.7221 0.05103 0.09465 0.0
C1517 C 0.77144 0.03773 0.09276 0.0
H1518 H 0.67009 0.10877 0.09725 0.0
C1519 C 0.80646 0.07546 0.09126 0.0
H1520 H 0.69401 0.02339 0.09592 0.0
C1521 C 0.79272 0.12487 0.09217 0.0
C1522 C 0.74356 0.13802 0.09471 0.0
H1523 H 0.84474 0.0669 0.0895 0.0
H1524 H 0.82081 0.15267 0.09145 0.0
C1525 C 0.70843 0.1003 0.09561 0.0
C1526 C 0.70278 0.01197 0.84202 0.0
C1527 C 0.71792 0.03786 0.82692 0.0
H1528 H 0.64377 0.97866 0.85618 0.0
C1529 C 0.68152 0.05135 0.8146 0.0
H1530 H 0.72878 1.00143 0.85205 0.0
C1531 C 0.63221 0.03849 0.81711 0.0
C1532 C 0.61763 0.0114 0.83194 0.0
H1533 H 0.6909 0.07091 0.8027 0.0
H1534 H 0.6058 0.04826 0.80709 0.0
C1535 C 0.6536 0.99892 0.84445 0.0
C1536 C 0.80776 0.35694 0.58184 0.0
C1537 C 0.76123 0.34487 0.58848 0.0
H1538 H 0.85924 0.41322 0.57555 0.0
C1539 C 0.73018 0.38375 0.59348 0.0
H1540 H 0.83295 0.32869 0.57779 0.0
C1541 C 0.74562 0.43262 0.59241 0.0
C1542 C 0.79259 0.4445 0.58622 0.0
H1543 H 0.69371 0.37682 0.59836 0.0
H1544 H 0.721 0.46095 0.59686 0.0
C1545 C 0.82311 0.40585 0.5807 0.0
C1546 C 0.82173 0.46417 0.83515 0.0
C1547 C 0.80808 0.51227 0.83934 0.0
H1548 H 0.87934 0.41383 0.83008 0.0
C1549 C 0.84575 0.54726 0.84139 0.0
H1550 H 0.79446 0.43594 0.83341 0.0
C1551 C 0.89525 0.53425 0.83981 0.0
C1552 C 0.90882 0.48584 0.83603 0.0
H1553 H 0.83729 0.58498 0.84426 0.0
H1554 H 0.92277 0.56211 0.84185 0.0
C1555 C 0.87108 0.45128 0.83345 0.0
C1556 C 0.77205 0.62802 0.0924 0.0
C1557 C 0.72488 0.64431 0.08798 0.0
H1558 H 0.81915 0.56731 0.09716 0.0
C1559 C 0.68786 0.6089 0.08562 0.0
H1560 H 0.80176 0.65367 0.09421 0.0
C1561 C 0.6981 0.55875 0.08713 0.0
C1562 C 0.74571 0.54262 0.09097 0.0
H1563 H 0.65094 0.61985 0.08243 0.0
H1564 H 0.66908 0.53265 0.08474 0.0
C1565 C 0.78223 0.5781 0.09389 0.0
C1566 C 0.6865 0.50374 0.3448 0.0
C1567 C 0.70208 0.46924 0.33225 0.0
H1568 H 0.62705 0.54426 0.35575 0.0
C1569 C 0.66652 0.44862 0.32092 0.0
H1570 H 0.71223 0.51984 0.35398 0.0
C1571 C 0.61718 0.46267 0.32195 0.0
C1572 C 0.60189 0.49789 0.33429 0.0
H1573 H 0.67685 0.42234 0.31092 0.0
H1574 H 0.59132 0.44703 0.3127 0.0
C1575 C 0.63729 0.51771 0.34583 0.0
C1576 C 0.81137 0.57555 0.93972 0.0
C1577 C 0.7734 0.55884 0.95069 0.0
H1578 H 0.84823 0.63691 0.92837 0.0
C1579 C 0.74543 0.59413 0.95984 0.0
H1580 H 0.83389 0.55009 0.93245 0.0
C1581 C 0.7533 0.64434 0.95729 0.0
C1582 C 0.78959 0.66084 0.9456 0.0
H1583 H 0.71658 0.58316 0.96875 0.0
H1584 H 0.72947 0.67008 0.96388 0.0
C1585 C 0.81939 0.62568 0.93727 0.0
C1586 C 0.66027 0.49814 0.20571 0.0
C1587 C 0.69915 0.50735 0.19396 0.0
H1588 H 0.58302 0.49285 0.20956 0.0
C1589 C 0.68798 0.51869 0.17636 0.0
H1590 H 0.66754 0.48863 0.21931 0.0
C1591 C 0.63915 0.52176 0.17076 0.0
C1592 C 0.60013 0.51312 0.18258 0.0
H1593 H 0.71689 0.52665 0.16703 0.0
H1594 H 0.6321 0.53168 0.15719 0.0
C1595 C 0.61156 0.50092 0.20012 0.0
C1596 C 0.69306 0.39558 0.44827 0.0
C1597 C 0.73667 0.38121 0.43994 0.0
H1598 H 0.6473 0.45527 0.45648 0.0
C1599 C 0.76976 0.41807 0.43473 0.0
H1600 H 0.66677 0.36829 0.45238 0.0
C1601 C 0.75892 0.46774 0.43717 0.0
C1602 C 0.71429 0.48237 0.4447 0.0
H1603 H 0.80396 0.40843 0.42844 0.0
H1604 H 0.78472 0.49472 0.43246 0.0
C1605 C 0.68182 0.44549 0.45047 0.0
C1606 C 0.82031 0.42024 0.69266 0.0
C1607 C 0.7846 0.45471 0.68761 0.0
H1608 H 0.89702 0.40269 0.69447 0.0
C1609 C 0.80082 0.50019 0.68131 0.0
H1610 H 0.80926 0.38501 0.69774 0.0
C1611 C 0.85098 0.51 0.67931 0.0
C1612 C 0.88666 0.475 0.6838 0.0
H1613 H 0.77468 0.52753 0.67722 0.0
H1614 H 0.86195 0.54489 0.6739 0.0
C1615 C 0.87066 0.43044 0.69095 0.0
C1616 C 0.25786 0.65578 0.41519 0.0
C1617 C 0.26179 0.68858 0.42944 0.0
H1618 H 0.25349 0.58064 0.40702 0.0
C1619 C 0.25915 0.6705 0.44673 0.0
H1620 H 0.25971 0.66903 0.40174 0.0
C1621 C 0.2564 0.62015 0.44968 0.0
C1622 C 0.25481 0.58728 0.43542 0.0
H1623 H 0.26255 0.69504 0.4579 0.0
H1624 H 0.25781 0.60655 0.46309 0.0
C1625 C 0.25385 0.6055 0.41816 0.0
C1626 C 0.11776 0.47019 0.20161 0.0
C1627 C 0.0997 0.49427 0.18665 0.0
H1628 H 0.18022 0.44485 0.21568 0.0
C1629 C 0.13332 0.50868 0.17353 0.0
H1630 H 0.09317 0.4593 0.2121 0.0
C1631 C 0.18362 0.50037 0.17549 0.0
C1632 C 0.20205 0.47741 0.19068 0.0
H1633 H 0.12075 0.52683 0.1617 0.0
H1634 H 0.20791 0.51207 0.16505 0.0
C1635 C 0.16811 0.46209 0.20365 0.0
C1636 C 0.23758 0.37872 0.92671 0.0
C1637 C 0.28681 0.36394 0.92691 0.0
H1638 H 0.18683 0.43787 0.92692 0.0
C1639 C 0.3232 0.40053 0.92679 0.0
H1640 H 0.20833 0.35209 0.92692 0.0
C1641 C 0.31072 0.45027 0.92707 0.0
C1642 C 0.26146 0.46488 0.92749 0.0
H1643 H 0.3615 0.3908 0.9267 0.0
H1644 H 0.33973 0.47717 0.9275 0.0
C1645 C 0.22516 0.4283 0.92695 0.0
C1646 C 0.36593 0.53177 0.71491 0.0
C1647 C 0.39103 0.52354 0.69901 0.0
H1648 H 0.29775 0.53829 0.72823 0.0
C1649 C 0.36311 0.51287 0.6838 0.0
H1650 H 0.38607 0.53885 0.72696 0.0
C1651 C 0.31125 0.51346 0.68441 0.0
C1652 C 0.28633 0.52429 0.70029 0.0
H1653 H 0.38132 0.50615 0.67134 0.0
H1654 H 0.29084 0.50722 0.67237 0.0
C1655 C 0.31485 0.53172 0.71558 0.0
C1656 C 0.27779 0.36393 0.07389 0.0
C1657 C 0.23098 0.34564 0.06991 0.0
H1658 H 0.32316 0.42687 0.07764 0.0
C1659 C 0.19274 0.37942 0.06741 0.0
H1660 H 0.30828 0.33938 0.07578 0.0
C1661 C 0.2014 0.42999 0.06841 0.0
C1662 C 0.24862 0.44816 0.07176 0.0
H1663 H 0.15609 0.36679 0.06453 0.0
H1664 H 0.17145 0.45484 0.06597 0.0
C1665 C 0.28646 0.41434 0.07477 0.0
C1666 C 0.39718 0.5276 0.8332 0.0
C1667 C 0.41175 0.47834 0.83347 0.0
H1668 H 0.33791 0.57845 0.83187 0.0
C1669 C 0.37513 0.44211 0.83324 0.0
H1670 H 0.42414 0.55657 0.83319 0.0
C1671 C 0.32547 0.45471 0.83238 0.0
C1672 C 0.31096 0.50394 0.8316 0.0
H1673 H 0.38486 0.40386 0.83361 0.0
H1674 H 0.29856 0.42573 0.8318 0.0
C1675 C 0.34756 0.54018 0.83223 0.0
C1676 C 0.32573 0.57989 0.58501 0.0
C1677 C 0.29047 0.54218 0.58382 0.0
H1678 H 0.34013 0.6571 0.5856 0.0
C1679 C 0.24148 0.55573 0.58116 0.0
H1680 H 0.36401 0.57142 0.58672 0.0
C1681 C 0.22803 0.60501 0.58024 0.0
C1682 C 0.26291 0.64272 0.58208 0.0
H1683 H 0.21302 0.52843 0.58016 0.0
H1684 H 0.18985 0.6134 0.57818 0.0
C1685 C 0.31216 0.62938 0.58416 0.0
C1686 C 0.11461 0.48539 0.32212 0.0
C1687 C 0.10141 0.49986 0.3393 0.0
H1688 H 0.17221 0.47502 0.30333 0.0
C1689 C 0.13933 0.51397 0.35098 0.0
H1690 H 0.08724 0.47343 0.31276 0.0
C1691 C 0.18846 0.51418 0.34559 0.0
C1692 C 0.2012 0.50094 0.32829 0.0
H1693 H 0.13132 0.52595 0.36427 0.0
H1694 H 0.21625 0.52643 0.35476 0.0
C1695 C 0.16364 0.48606 0.31671 0.0
C1696 C 0.49381 0.32907 0.08601 0.0
C1697 C 0.52654 0.33136 0.07175 0.0
H1698 H 0.42619 0.30165 0.09571 0.0
C1699 C 0.51128 0.31391 0.05515 0.0
H1700 H 0.5036 0.34245 0.09899 0.0
C1701 C 0.46825 0.28711 0.05362 0.0
C1702 C 0.43858 0.27951 0.06849 0.0
H1703 H 0.53468 0.31705 0.04367 0.0
H1704 H 0.46045 0.26952 0.04112 0.0
C1705 C 0.44977 0.30423 0.08427 0.0
C1706 C 0.02883 0.2898 0.29586 0.0
C1707 C 0.0301 0.31242 0.31253 0.0
H1708 H 0.05615 0.23275 0.27949 0.0
C1709 C 0.06675 0.29901 0.32453 0.0
H1710 H 1.00191 0.29957 0.28603 0.0
C1711 C 0.09582 0.25858 0.32119 0.0
C1712 C 0.09005 0.23181 0.30544 0.0
H1713 H 0.07095 0.31763 0.33706 0.0
H1714 H 0.1192 0.24619 0.33176 0.0
C1715 C 0.05966 0.25079 0.29217 0.0
C1716 C 0.01889 0.82515 0.55948 0.0
C1717 C 0.04726 0.83662 0.57438 0.0
H1718 H 0.96262 0.78101 0.5487 0.0
C1719 C 0.03163 0.81989 0.59102 0.0
H1720 H 0.02829 0.83885 0.54653 0.0
C1721 C 0.99134 0.78927 0.59247 0.0
C1722 C 0.96689 0.77278 0.57728 0.0
H1723 H 0.05202 0.8274 0.60295 0.0
H1724 H 0.98071 0.77733 0.60552 0.0
C1725 C 0.98027 0.79235 0.56081 0.0
C1726 C 0.44542 0.74419 0.82756 0.0
C1727 C 0.44934 0.76871 0.81133 0.0
H1728 H 0.46634 0.68283 0.84295 0.0
C1729 C 0.47483 0.74635 0.79737 0.0
H1730 H 0.42663 0.76016 0.83873 0.0
C1731 C 0.49994 0.70289 0.80016 0.0
C1732 C 0.49892 0.68058 0.81682 0.0
H1733 H 0.47756 0.76368 0.78458 0.0
H1734 H 0.52204 0.68818 0.78955 0.0
C1735 C 0.46938 0.70027 0.83017 0.0
C1736 C 0.5408 0.83111 0.46697 0.0
C1737 C 0.56527 0.81952 0.4512 0.0
H1738 H 0.47923 0.86574 0.47882 0.0
C1739 C 0.54999 0.84155 0.43539 0.0
H1740 H 0.55158 0.81532 0.47945 0.0
C1741 C 0.50718 0.8688 0.43494 0.0
C1742 C 0.47972 0.87562 0.45041 0.0
H1743 H 0.5694 0.83543 0.42313 0.0
H1744 H 0.49367 0.88061 0.42222 0.0
C1745 C 0.49899 0.85982 0.46661 0.0
C1746 C 0.39547 0.25559 0.68359 0.0
C1747 C 0.39023 0.22661 0.69876 0.0
H1748 H 0.42691 0.31933 0.67227 0.0
C1749 C 0.40591 0.24551 0.71509 0.0
H1750 H 0.38347 0.24302 0.67075 0.0
C1751 C 0.43423 0.28774 0.71572 0.0
C1752 C 0.4451 0.31313 0.70011 0.0
H1753 H 0.40051 0.22518 0.72719 0.0
H1754 H 0.45053 0.29797 0.72821 0.0
C1755 C 0.42186 0.29894 0.68436 0.0
C1756 C 0.0151 0.32893 0.93717 0.0
C1757 C 0.99542 0.33554 0.95415 0.0
H1758 H 0.07214 0.29821 0.9216 0.0
C1759 C 0.02187 0.31913 0.96888 0.0
H1760 H 0.99562 0.34037 0.92545 0.0
C1761 C 0.06489 0.29281 0.96655 0.0
C1762 C 0.08249 0.28336 0.94948 0.0
H1763 H 0.00798 0.32434 0.98214 0.0
H1764 H 0.08294 0.27791 0.97806 0.0
C1765 C 0.05846 0.30357 0.93489 0.0
C1766 C 0.95518 0.74649 0.22292 0.0
C1767 C 0.93478 0.72342 0.20808 0.0
H1768 H 1.00451 0.80109 0.23233 0.0
C1769 C 0.94256 0.74326 0.19123 0.0
H1770 H 0.94931 0.73207 0.23606 0.0
C1771 C 0.97346 0.78301 0.18913 0.0
C1772 C 0.9975 0.80312 0.2038 0.0
H1773 H 0.92781 0.72603 0.17949 0.0
H1774 H 0.97974 0.79696 0.17595 0.0
C1775 C 0.98679 0.7858 0.22078 0.0
C1776 C 0.49763 0.69345 0.95833 0.0
C1777 C 0.47918 0.67947 0.94176 0.0
H1778 H 0.55177 0.7337 0.97224 0.0
C1779 C 0.50886 0.68468 0.92676 0.0
H1780 H 0.47626 0.68838 0.97023 0.0
C1781 C 0.55364 0.70844 0.92805 0.0
C1782 C 0.56864 0.72895 0.94421 0.0
H1783 H 0.49611 0.67414 0.91377 0.0
H1784 H 0.57499 0.71315 0.91614 0.0
C1785 C 0.5414 0.71901 0.95951 0.0
C1786 C 0.95415 0.70913 0.69123 0.0
C1787 C 0.97371 0.68846 0.70658 0.0
H1788 H 0.91329 0.76757 0.6802 0.0
C1789 C 0.96072 0.70724 0.72317 0.0
H1790 H 0.96261 0.69425 0.67831 0.0
C1791 C 0.9313 0.7485 0.72431 0.0
C1792 C 0.91474 0.77136 0.70886 0.0
H1793 H 0.97507 0.69138 0.73518 0.0
H1794 H 0.92386 0.76421 0.73717 0.0
C1795 C 0.9249 0.75031 0.69235 0.0
C1796 C 0.96421 0.32121 0.4385 0.0
C1797 C 0.94783 0.30544 0.45512 0.0
H1798 H 0.01966 0.35872 0.42414 0.0
C1799 C 0.96998 0.32384 0.47044 0.0
H1800 H 0.94659 0.30876 0.42649 0.0
C1801 C 0.01098 0.35384 0.46911 0.0
C1802 C 0.03047 0.36531 0.45244 0.0
H1803 H 0.95758 0.31265 0.4834 0.0
H1804 H 0.02966 0.36495 0.48108 0.0
C1805 C 1.00533 0.35081 0.43716 0.0
C1806 C 0.55594 0.25737 0.22197 0.0
C1807 C 0.57738 0.23472 0.20726 0.0
H1808 H 0.50635 0.31166 0.23114 0.0
C1809 C 0.57083 0.25501 0.19041 0.0
H1810 H 0.56086 0.24273 0.23513 0.0
C1811 C 0.54059 0.29509 0.18817 0.0
C1812 C 0.51578 0.31505 0.20268 0.0
H1813 H 0.58628 0.23812 0.17874 0.0
H1814 H 0.53564 0.30958 0.175 0.0
C1815 C 0.5248 0.29681 0.21968 0.0
C1816 C 0.51214 0.16812 0.57719 0.0
C1817 C 0.53988 0.17142 0.56159 0.0
H1818 H 0.44865 0.1912 0.59115 0.0
C1819 C 0.5206 0.19665 0.54706 0.0
H1820 H 0.52565 0.14941 0.58877 0.0
C1821 C 0.47722 0.22269 0.54879 0.0
C1822 C 0.45213 0.2229 0.56496 0.0
H1823 H 0.54051 0.19884 0.53473 0.0
H1824 H 0.46501 0.24489 0.53784 0.0
C1825 C 0.4684 0.19315 0.57876 0.0
C1826 C 0.45937 0.79571 0.32966 0.0
C1827 C 0.4882 0.81349 0.31576 0.0
H1828 H 0.41245 0.73933 0.3387 0.0
C1829 C 0.48305 0.79289 0.29886 0.0
H1830 H 0.46079 0.81213 0.34268 0.0
C1831 C 0.45262 0.75283 0.29627 0.0
C1832 C 0.42849 0.73138 0.31067 0.0
H1833 H 0.50441 0.80582 0.28778 0.0
H1834 H 0.4509 0.73652 0.28324 0.0
C1835 C 0.4303 0.75466 0.32722 0.0
C1836 C 0.99753 0.66604 0.08204 0.0
C1837 C 0.02001 0.66441 0.06534 0.0
H1838 H 0.93826 0.69213 0.09754 0.0
C1839 C 0.9955 0.68484 0.05083 0.0
H1840 H 0.01487 0.65115 0.09367 0.0
C1841 C 0.95293 0.71164 0.05336 0.0
C1842 C 0.93288 0.71668 0.07035 0.0
H1843 H 0.01079 0.68291 0.03766 0.0
H1844 H 0.93749 0.73048 0.04214 0.0
C1845 C 0.95399 0.69107 0.08443 0.0
C1846 C 0.09248 0.26031 0.83544 0.0
C1847 C 0.11417 0.27836 0.81991 0.0
H1848 H 0.04238 0.21009 0.84682 0.0
C1849 C 0.10636 0.25297 0.80398 0.0
H1850 H 0.09739 0.27799 0.84809 0.0
C1851 C 0.07146 0.21597 0.80308 0.0
C1852 C 0.04576 0.20201 0.8183 0.0
H1853 H 0.12411 0.26423 0.79187 0.0
H1854 H 0.06296 0.20038 0.7903 0.0
C1855 C 0.05924 0.22213 0.83464 0.0
loop_
_geom_bond_atom_site_label_1
_geom_bond_atom_site_label_2
_geom_bond_distance
_geom_bond_site_symmetry_2
_ccdc_geom_bond_type
C0 C1 1.351 . S
C0 N3 1.368 . S
C0 H5 0.931 . S
C1 C0 1.351 . S
C1 N2 1.373 . S
C1 H29 0.930 . S
N2 C1 1.373 . S
N2 C4 1.340 . S
N3 C0 1.368 . S
N3 C4 1.321 . S
N3 Co6 2.135 . S
C4 N2 1.340 . S
C4 N3 1.321 . S
C4 H28 0.930 . S
H5 C0 0.931 . S
Co6 N3 2.135 . S
Co6 N9 2.121 . S
Co6 O14 2.055 . S
Co6 O17 2.039 . S
Co6 N20 2.140 . S
C7 O8 1.227 . S
C7 O17 1.265 . S
O8 C7 1.227 . S
N9 Co6 2.121 . S
N9 C11 1.375 . S
N9 C12 1.313 . S
C10 C11 1.338 . S
C10 N13 1.377 . S
C10 H30 0.930 . S
C11 N9 1.375 . S
C11 C10 1.338 . S
C11 H15 0.931 . S
C12 N9 1.313 . S
C12 N13 1.344 . S
C12 H16 0.930 . S
N13 C10 1.377 . S
N13 C12 1.344 . S
O14 Co6 2.055 . S
O14 C18 1.253 . S
H15 C11 0.931 . S
H16 C12 0.930 . S
O17 Co6 2.039 . S
O17 C7 1.265 . S
C18 O14 1.253 . S
C18 O19 1.227 . S
O19 C18 1.227 . S
N20 Co6 2.140 . S
N20 C23 1.346 . S
N20 C24 1.345 . S
C21 C22 1.387 . S
C21 C25 1.391 . S
C22 C21 1.387 . S
C22 C23 1.369 . S
C22 H31 0.929 . S
C23 N20 1.346 . S
C23 C22 1.369 . S
C23 H26 0.928 . S
C24 N20 1.345 . S
C24 C25 1.371 . S
C24 H27 0.931 . S
C25 C21 1.391 . S
C25 C24 1.371 . S
C25 H32 0.930 . S
H26 C23 0.928 . S
H27 C24 0.931 . S
H28 C4 0.930 . S
H29 C1 0.930 . S
H30 C10 0.930 . S
H31 C22 0.929 . S
H32 C25 0.930 . S
C33 C34 1.351 . S
C33 N36 1.368 . S
C33 H38 0.931 . S
C34 C33 1.351 . S
C34 N35 1.373 . S
C34 H62 0.930 . S
N35 C34 1.373 . S
N35 C37 1.340 . S
N36 C33 1.368 . S
N36 C37 1.321 . S
N36 Co39 2.135 1_655 S
C37 N35 1.340 . S
C37 N36 1.321 . S
C37 H61 0.930 . S
H38 C33 0.931 . S
Co39 N36 2.135 1_455 S
Co39 N42 2.121 1_565 S
Co39 O47 2.055 . S
Co39 O50 2.039 . S
Co39 N53 2.140 1_565 S
C40 O41 1.227 1_565 S
C40 O50 1.265 . S
O41 C40 1.227 1_545 S
N42 Co39 2.121 1_545 S
N42 C44 1.375 . S
N42 C45 1.313 1_545 S
C43 C44 1.338 . S
C43 N46 1.377 . S
C43 H63 0.930 . S
C44 N42 1.375 . S
C44 C43 1.338 . S
C44 H48 0.931 . S
C45 N42 1.313 1_565 S
C45 N46 1.344 1_565 S
C45 H49 0.930 . S
N46 C43 1.377 . S
N46 C45 1.344 1_545 S
O47 Co39 2.055 . S
O47 C51 1.253 . S
H48 C44 0.931 . S
H49 C45 0.930 . S
O50 Co39 2.039 . S
O50 C40 1.265 . S
C51 O47 1.253 . S
C51 O52 1.227 . S
O52 C51 1.227 . S
N53 Co39 2.140 1_545 S
N53 C56 1.349 . S
N53 C57 1.345 . S
C54 C55 1.387 1_455 S
C54 C58 1.391 . S
C55 C54 1.387 1_655 S
C55 C56 1.369 1_655 S
C55 H64 0.929 . S
C56 N53 1.349 . S
C56 C55 1.369 1_455 S
C56 H59 0.926 1_455 S
C57 N53 1.345 . S
C57 C58 1.371 . S
C57 H60 0.931 . S
C58 C54 1.391 . S
C58 C57 1.371 . S
C58 H65 0.930 . S
H59 C56 0.926 1_655 S
H60 C57 0.931 . S
H61 C37 0.930 . S
H62 C34 0.930 . S
H63 C43 0.930 . S
H64 C55 0.929 . S
H65 C58 0.930 . S
C66 C67 1.351 . S
C66 N69 1.368 . S
C66 H71 0.931 . S
C67 C66 1.351 . S
C67 N68 1.373 . S
C67 H95 0.930 . S
N68 C67 1.373 . S
N68 C70 1.340 . S
N69 C66 1.368 . S
N69 C70 1.321 . S
N69 Co72 2.135 . S
C70 N68 1.340 . S
C70 N69 1.321 . S
C70 H94 0.930 . S
H71 C66 0.931 . S
Co72 N69 2.135 . S
Co72 N75 2.121 . S
Co72 O80 2.055 . S
Co72 O83 2.039 . S
Co72 N86 2.140 . S
C73 O74 1.227 . S
C73 O83 1.265 . S
O74 C73 1.227 . S
N75 Co72 2.121 . S
N75 C77 1.375 . S
N75 C78 1.313 . S
C76 C77 1.338 . S
C76 N79 1.377 . S
C76 H96 0.930 . S
C77 N75 1.375 . S
C77 C76 1.338 . S
C77 H81 0.931 . S
C78 N75 1.313 . S
C78 N79 1.344 . S
C78 H82 0.930 . S
N79 C76 1.377 . S
N79 C78 1.344 . S
O80 Co72 2.055 . S
O80 C84 1.253 . S
H81 C77 0.931 . S
H82 C78 0.930 . S
O83 Co72 2.039 . S
O83 C73 1.265 . S
C84 O80 1.253 . S
C84 O85 1.227 . S
O85 C84 1.227 . S
N86 Co72 2.140 . S
N86 C89 1.346 . S
N86 C90 1.345 . S
C87 C88 1.387 . S
C87 C91 1.391 . S
C88 C87 1.387 . S
C88 C89 1.369 . S
C88 H97 0.929 . S
C89 N86 1.346 . S
C89 C88 1.369 . S
C89 H92 0.928 . S
C90 N86 1.345 . S
C90 C91 1.371 . S
C90 H93 0.931 . S
C91 C87 1.391 . S
C91 C90 1.371 . S
C91 H98 0.930 . S
H92 C89 0.928 . S
H93 C90 0.931 . S
H94 C70 0.930 . S
H95 C67 0.930 . S
H96 C76 0.930 . S
H97 C88 0.929 . S
H98 C91 0.930 . S
C99 C100 1.351 . S
C99 N102 1.368 . S
C99 H104 0.931 . S
C100 C99 1.351 . S
C100 N101 1.373 . S
C100 H128 0.930 . S
N101 C100 1.373 . S
N101 C103 1.340 . S
N102 C99 1.368 . S
N102 C103 1.321 . S
N102 Co105 2.135 . S
C103 N101 1.340 . S
C103 N102 1.321 . S
C103 H127 0.930 . S
H104 C99 0.931 . S
Co105 N102 2.135 . S
Co105 N108 2.121 1_545 S
Co105 O113 2.055 . S
Co105 O116 2.039 . S
Co105 N119 2.140 1_545 S
C106 O107 1.227 1_545 S
C106 O116 1.265 . S
O107 C106 1.227 1_565 S
N108 Co105 2.121 1_565 S
N108 C110 1.375 . S
N108 C111 1.313 1_565 S
C109 C110 1.338 . S
C109 N112 1.377 . S
C109 H129 0.930 . S
C110 N108 1.375 . S
C110 C109 1.338 . S
C110 H114 0.931 . S
C111 N108 1.313 1_545 S
C111 N112 1.344 1_545 S
C111 H115 0.930 . S
N112 C109 1.377 . S
N112 C111 1.344 1_565 S
O113 Co105 2.055 . S
O113 C117 1.253 . S
H114 C110 0.931 . S
H115 C111 0.930 . S
O116 Co105 2.039 . S
O116 C106 1.265 . S
C117 O113 1.253 . S
C117 O118 1.227 . S
O118 C117 1.227 . S
N119 Co105 2.140 1_565 S
N119 C122 1.346 . S
N119 C123 1.345 . S
C120 C121 1.387 . S
C120 C124 1.391 . S
C121 C120 1.387 . S
C121 C122 1.369 . S
C121 H130 0.929 . S
C122 N119 1.346 . S
C122 C121 1.369 . S
C122 H125 0.928 . S
C123 N119 1.345 . S
C123 C124 1.371 . S
C123 H126 0.931 . S
C124 C120 1.391 . S
C124 C123 1.371 . S
C124 H131 0.930 . S
H125 C122 0.928 . S
H126 C123 0.931 . S
H127 C103 0.930 . S
H128 C100 0.930 . S
H129 C109 0.930 . S
H130 C121 0.929 . S
H131 C124 0.930 . S
C132 C133 1.351 . S
C132 N135 1.368 . S
C132 H137 0.931 . S
C133 C132 1.351 . S
C133 N134 1.373 . S
C133 H161 0.930 . S
N134 C133 1.373 . S
N134 C136 1.340 . S
N135 C132 1.368 . S
N135 C136 1.321 . S
N135 Co138 2.135 . S
C136 N134 1.340 . S
C136 N135 1.321 . S
C136 H160 0.930 . S
H137 C132 0.931 . S
Co138 N135 2.135 . S
Co138 N141 2.121 . S
Co138 O146 2.055 . S
Co138 O149 2.039 . S
Co138 N152 2.140 . S
C139 O140 1.227 . S
C139 O149 1.265 . S
O140 C139 1.227 . S
N141 Co138 2.121 . S
N141 C143 1.375 . S
N141 C144 1.313 . S
C142 C143 1.338 . S
C142 N145 1.377 . S
C142 H162 0.930 . S
C143 N141 1.375 . S
C143 C142 1.338 . S
C143 H147 0.931 . S
C144 N141 1.313 . S
C144 N145 1.344 . S
C144 H148 0.930 . S
N145 C142 1.377 . S
N145 C144 1.344 . S
O146 Co138 2.055 . S
O146 C150 1.253 . S
H147 C143 0.931 . S
H148 C144 0.930 . S
O149 Co138 2.039 . S
O149 C139 1.265 . S
C150 O146 1.253 . S
C150 O151 1.227 . S
O151 C150 1.227 . S
N152 Co138 2.140 . S
N152 C155 1.346 . S
N152 C156 1.345 . S
C153 C154 1.387 . S
C153 C157 1.391 . S
C154 C153 1.387 . S
C154 C155 1.369 . S
C154 H163 0.929 . S
C155 N152 1.346 . S
C155 C154 1.369 . S
C155 H158 0.928 . S
C156 N152 1.345 . S
C156 C157 1.371 . S
C156 H159 0.931 . S
C157 C153 1.391 . S
C157 C156 1.371 . S
C157 H164 0.930 . S
H158 C155 0.928 . S
H159 C156 0.931 . S
H160 C136 0.930 . S
H161 C133 0.930 . S
H162 C142 0.930 . S
H163 C154 0.929 . S
H164 C157 0.930 . S
C165 C166 1.351 . S
C165 N168 1.368 . S
C165 H170 0.931 . S
C166 C165 1.351 . S
C166 N167 1.373 . S
C166 H194 0.930 . S
N167 C166 1.373 . S
N167 C169 1.340 . S
N168 C165 1.368 . S
N168 C169 1.321 . S
N168 Co171 2.135 . S
C169 N167 1.340 . S
C169 N168 1.321 . S
C169 H193 0.930 . S
H170 C165 0.931 . S
Co171 N168 2.135 . S
Co171 N174 2.121 1_565 S
Co171 O179 2.055 . S
Co171 O182 2.039 . S
Co171 N185 2.140 1_565 S
C172 O173 1.227 1_565 S
C172 O182 1.265 . S
O173 C172 1.227 1_545 S
N174 Co171 2.121 1_545 S
N174 C176 1.375 . S
N174 C177 1.313 1_545 S
C175 C176 1.338 . S
C175 N178 1.377 . S
C175 H195 0.930 . S
C176 N174 1.375 . S
C176 C175 1.338 . S
C176 H180 0.931 . S
C177 N174 1.313 1_565 S
C177 N178 1.344 1_565 S
C177 H181 0.930 . S
N178 C175 1.377 . S
N178 C177 1.344 1_545 S
O179 Co171 2.055 . S
O179 C183 1.253 . S
H180 C176 0.931 . S
H181 C177 0.930 . S
O182 Co171 2.039 . S
O182 C172 1.265 . S
C183 O179 1.253 . S
C183 O184 1.227 . S
O184 C183 1.227 . S
N185 Co171 2.140 1_545 S
N185 C188 1.346 . S
N185 C189 1.345 . S
C186 C187 1.387 . S
C186 C190 1.391 . S
C187 C186 1.387 . S
C187 C188 1.369 . S
C187 H196 0.929 . S
C188 N185 1.346 . S
C188 C187 1.369 . S
C188 H191 0.928 . S
C189 N185 1.345 . S
C189 C190 1.371 . S
C189 H192 0.931 . S
C190 C186 1.391 . S
C190 C189 1.371 . S
C190 H197 0.930 . S
H191 C188 0.928 . S
H192 C189 0.931 . S
H193 C169 0.930 . S
H194 C166 0.930 . S
H195 C175 0.930 . S
H196 C187 0.929 . S
H197 C190 0.930 . S
C198 C199 1.351 . S
C198 N201 1.368 . S
C198 H203 0.931 . S
C199 C198 1.351 . S
C199 N200 1.373 . S
C199 H227 0.930 . S
N200 C199 1.373 . S
N200 C202 1.340 . S
N201 C198 1.368 . S
N201 C202 1.321 . S
N201 Co204 2.135 . S
C202 N200 1.340 . S
C202 N201 1.321 . S
C202 H226 0.930 . S
H203 C198 0.931 . S
Co204 N201 2.135 . S
Co204 N207 2.121 . S
Co204 O212 2.055 . S
Co204 O215 2.039 . S
Co204 N218 2.140 . S
C205 O206 1.227 . S
C205 O215 1.265 . S
O206 C205 1.227 . S
N207 Co204 2.121 . S
N207 C209 1.375 . S
N207 C210 1.313 . S
C208 C209 1.338 . S
C208 N211 1.377 . S
C208 H228 0.930 . S
C209 N207 1.375 . S
C209 C208 1.338 . S
C209 H213 0.931 . S
C210 N207 1.313 . S
C210 N211 1.344 . S
C210 H214 0.930 . S
N211 C208 1.377 . S
N211 C210 1.344 . S
O212 Co204 2.055 . S
O212 C216 1.253 . S
H213 C209 0.931 . S
H214 C210 0.930 . S
O215 Co204 2.039 . S
O215 C205 1.265 . S
C216 O212 1.253 . S
C216 O217 1.227 . S
O217 C216 1.227 . S
N218 Co204 2.140 . S
N218 C221 1.346 . S
N218 C222 1.345 . S
C219 C220 1.387 . S
C219 C223 1.391 . S
C220 C219 1.387 . S
C220 C221 1.369 . S
C220 H229 0.929 . S
C221 N218 1.346 . S
C221 C220 1.369 . S
C221 H224 0.928 . S
C222 N218 1.345 . S
C222 C223 1.371 . S
C222 H225 0.931 . S
C223 C219 1.391 . S
C223 C222 1.371 . S
C223 H230 0.930 . S
H224 C221 0.928 . S
H225 C222 0.931 . S
H226 C202 0.930 . S
H227 C199 0.930 . S
H228 C208 0.930 . S
H229 C220 0.929 . S
H230 C223 0.930 . S
C231 C232 1.351 . S
C231 N234 1.368 . S
C231 H236 0.931 . S
C232 C231 1.351 . S
C232 N233 1.373 . S
C232 H260 0.930 . S
N233 C232 1.373 . S
N233 C235 1.340 . S
N234 C231 1.368 . S
N234 C235 1.321 . S
N234 Co237 2.135 1_655 S
C235 N233 1.340 . S
C235 N234 1.321 . S
C235 H259 0.930 . S
H236 C231 0.931 . S
Co237 N234 2.135 1_455 S
Co237 N240 2.121 1_545 S
Co237 O245 2.055 . S
Co237 O248 2.039 . S
Co237 N251 2.140 1_545 S
C238 O239 1.227 1_545 S
C238 O248 1.265 . S
O239 C238 1.227 1_565 S
N240 Co237 2.121 1_565 S
N240 C242 1.375 . S
N240 C243 1.313 1_565 S
C241 C242 1.338 . S
C241 N244 1.377 . S
C241 H261 0.930 . S
C242 N240 1.375 . S
C242 C241 1.338 . S
C242 H246 0.931 . S
C243 N240 1.313 1_545 S
C243 N244 1.344 1_545 S
C243 H247 0.930 . S
N244 C241 1.377 . S
N244 C243 1.344 1_565 S
O245 Co237 2.055 . S
O245 C249 1.253 . S
H246 C242 0.931 . S
H247 C243 0.930 . S
O248 Co237 2.039 . S
O248 C238 1.265 . S
C249 O245 1.253 . S
C249 O250 1.227 . S
O250 C249 1.227 . S
N251 Co237 2.140 1_565 S
N251 C254 1.349 . S
N251 C255 1.345 . S
C252 C253 1.387 1_455 S
C252 C256 1.391 . S
C253 C252 1.387 1_655 S
C253 C254 1.369 1_655 S
C253 H262 0.929 . S
C254 N251 1.349 . S
C254 C253 1.369 1_455 S
C254 H257 0.926 1_455 S
C255 N251 1.345 . S
C255 C256 1.371 . S
C255 H258 0.931 . S
C256 C252 1.391 . S
C256 C255 1.371 . S
C256 H263 0.930 . S
H257 C254 0.926 1_655 S
H258 C255 0.931 . S
H259 C235 0.930 . S
H260 C232 0.930 . S
H261 C241 0.930 . S
H262 C253 0.929 . S
H263 C256 0.930 . S
C264 C265 1.351 . S
C264 N267 1.368 . S
C264 H269 0.931 . S
C265 C264 1.351 . S
C265 N266 1.373 . S
C265 H293 0.930 . S
N266 C265 1.373 . S
N266 C268 1.340 . S
N267 C264 1.368 . S
N267 C268 1.321 . S
N267 Co270 2.135 . S
C268 N266 1.340 . S
C268 N267 1.321 . S
C268 H292 0.930 . S
H269 C264 0.931 . S
Co270 N267 2.135 . S
Co270 N273 2.121 . S
Co270 O278 2.055 . S
Co270 O281 2.039 . S
Co270 N284 2.140 . S
C271 O272 1.227 . S
C271 O281 1.265 . S
O272 C271 1.227 . S
N273 Co270 2.121 . S
N273 C275 1.375 . S
N273 C276 1.313 . S
C274 C275 1.338 . S
C274 N277 1.377 . S
C274 H294 0.930 . S
C275 N273 1.375 . S
C275 C274 1.338 . S
C275 H279 0.931 . S
C276 N273 1.313 . S
C276 N277 1.344 . S
C276 H280 0.930 . S
N277 C274 1.377 . S
N277 C276 1.344 . S
O278 Co270 2.055 . S
O278 C282 1.253 . S
H279 C275 0.931 . S
H280 C276 0.930 . S
O281 Co270 2.039 . S
O281 C271 1.265 . S
C282 O278 1.253 . S
C282 O283 1.227 . S
O283 C282 1.227 . S
N284 Co270 2.140 . S
N284 C287 1.346 . S
N284 C288 1.345 . S
C285 C286 1.387 . S
C285 C289 1.391 . S
C286 C285 1.387 . S
C286 C287 1.369 . S
C286 H295 0.929 . S
C287 N284 1.346 . S
C287 C286 1.369 . S
C287 H290 0.928 . S
C288 N284 1.345 . S
C288 C289 1.371 . S
C288 H291 0.931 . S
C289 C285 1.391 . S
C289 C288 1.371 . S
C289 H296 0.930 . S
H290 C287 0.928 . S
H291 C288 0.931 . S
H292 C268 0.930 . S
H293 C265 0.930 . S
H294 C274 0.930 . S
H295 C286 0.929 . S
H296 C289 0.930 . S
C297 C298 1.351 . S
C297 N300 1.368 . S
C297 H302 0.931 . S
C298 C297 1.351 . S
C298 N299 1.373 . S
C298 H326 0.930 . S
N299 C298 1.373 . S
N299 C301 1.340 . S
N300 C297 1.368 . S
N300 C301 1.321 . S
N300 Co303 2.135 1_455 S
C301 N299 1.340 . S
C301 N300 1.321 . S
C301 H325 0.930 . S
H302 C297 0.931 . S
Co303 N300 2.135 1_655 S
Co303 N306 2.121 1_545 S
Co303 O311 2.055 . S
Co303 O314 2.039 . S
Co303 N317 2.140 1_545 S
C304 O305 1.227 1_545 S
C304 O314 1.265 . S
O305 C304 1.227 1_565 S
N306 Co303 2.121 1_565 S
N306 C308 1.375 . S
N306 C309 1.313 1_565 S
C307 C308 1.338 . S
C307 N310 1.377 . S
C307 H327 0.930 . S
C308 N306 1.375 . S
C308 C307 1.338 . S
C308 H312 0.931 . S
C309 N306 1.313 1_545 S
C309 N310 1.344 1_545 S
C309 H313 0.930 . S
N310 C307 1.377 . S
N310 C309 1.344 1_565 S
O311 Co303 2.055 . S
O311 C315 1.253 . S
H312 C308 0.931 . S
H313 C309 0.930 . S
O314 Co303 2.039 . S
O314 C304 1.265 . S
C315 O311 1.253 . S
C315 O316 1.227 . S
O316 C315 1.227 . S
N317 Co303 2.140 1_565 S
N317 C320 1.349 . S
N317 C321 1.345 . S
C318 C319 1.387 1_655 S
C318 C322 1.391 . S
C319 C318 1.387 1_455 S
C319 C320 1.369 1_455 S
C319 H328 0.929 . S
C320 N317 1.349 . S
C320 C319 1.369 1_655 S
C320 H323 0.926 1_655 S
C321 N317 1.345 . S
C321 C322 1.371 . S
C321 H324 0.931 . S
C322 C318 1.391 . S
C322 C321 1.371 . S
C322 H329 0.930 . S
H323 C320 0.926 1_455 S
H324 C321 0.931 . S
H325 C301 0.930 . S
H326 C298 0.930 . S
H327 C307 0.930 . S
H328 C319 0.929 . S
H329 C322 0.930 . S
C330 C331 1.351 . S
C330 N333 1.368 . S
C330 H335 0.931 . S
C331 C330 1.351 . S
C331 N332 1.373 . S
C331 H359 0.930 . S
N332 C331 1.373 . S
N332 C334 1.340 . S
N333 C330 1.368 . S
N333 C334 1.321 . S
N333 Co336 2.135 . S
C334 N332 1.340 . S
C334 N333 1.321 . S
C334 H358 0.930 . S
H335 C330 0.931 . S
Co336 N333 2.135 . S
Co336 N339 2.121 . S
Co336 O344 2.055 . S
Co336 O347 2.039 . S
Co336 N350 2.140 . S
C337 O338 1.227 . S
C337 O347 1.265 . S
O338 C337 1.227 . S
N339 Co336 2.121 . S
N339 C341 1.375 . S
N339 C342 1.313 . S
C340 C341 1.338 . S
C340 N343 1.377 . S
C340 H360 0.930 . S
C341 N339 1.375 . S
C341 C340 1.338 . S
C341 H345 0.931 . S
C342 N339 1.313 . S
C342 N343 1.344 . S
C342 H346 0.930 . S
N343 C340 1.377 . S
N343 C342 1.344 . S
O344 Co336 2.055 . S
O344 C348 1.253 . S
H345 C341 0.931 . S
H346 C342 0.930 . S
O347 Co336 2.039 . S
O347 C337 1.265 . S
C348 O344 1.253 . S
C348 O349 1.227 . S
O349 C348 1.227 . S
N350 Co336 2.140 . S
N350 C353 1.346 . S
N350 C354 1.345 . S
C351 C352 1.387 . S
C351 C355 1.391 . S
C352 C351 1.387 . S
C352 C353 1.369 . S
C352 H361 0.929 . S
C353 N350 1.346 . S
C353 C352 1.369 . S
C353 H356 0.928 . S
C354 N350 1.345 . S
C354 C355 1.371 . S
C354 H357 0.931 . S
C355 C351 1.391 . S
C355 C354 1.371 . S
C355 H362 0.930 . S
H356 C353 0.928 . S
H357 C354 0.931 . S
H358 C334 0.930 . S
H359 C331 0.930 . S
H360 C340 0.930 . S
H361 C352 0.929 . S
H362 C355 0.930 . S
C363 C364 1.351 . S
C363 N366 1.368 . S
C363 H368 0.931 . S
C364 C363 1.351 . S
C364 N365 1.373 . S
C364 H392 0.930 . S
N365 C364 1.373 . S
N365 C367 1.340 . S
N366 C363 1.368 . S
N366 C367 1.321 . S
N366 Co369 2.135 . S
C367 N365 1.340 . S
C367 N366 1.321 . S
C367 H391 0.930 . S
H368 C363 0.931 . S
Co369 N366 2.135 . S
Co369 N372 2.121 1_565 S
Co369 O377 2.055 . S
Co369 O380 2.039 . S
Co369 N383 2.140 1_565 S
C370 O371 1.227 1_565 S
C370 O380 1.265 . S
O371 C370 1.227 1_545 S
N372 Co369 2.121 1_545 S
N372 C374 1.375 . S
N372 C375 1.313 1_545 S
C373 C374 1.338 . S
C373 N376 1.377 . S
C373 H393 0.930 . S
C374 N372 1.375 . S
C374 C373 1.338 . S
C374 H378 0.931 . S
C375 N372 1.313 1_565 S
C375 N376 1.344 1_565 S
C375 H379 0.930 . S
N376 C373 1.377 . S
N376 C375 1.344 1_545 S
O377 Co369 2.055 . S
O377 C381 1.253 . S
H378 C374 0.931 . S
H379 C375 0.930 . S
O380 Co369 2.039 . S
O380 C370 1.265 . S
C381 O377 1.253 . S
C381 O382 1.227 . S
O382 C381 1.227 . S
N383 Co369 2.140 1_545 S
N383 C386 1.346 . S
N383 C387 1.345 . S
C384 C385 1.387 . S
C384 C388 1.391 . S
C385 C384 1.387 . S
C385 C386 1.369 . S
C385 H394 0.929 . S
C386 N383 1.346 . S
C386 C385 1.369 . S
C386 H389 0.928 . S
C387 N383 1.345 . S
C387 C388 1.371 . S
C387 H390 0.931 . S
C388 C384 1.391 . S
C388 C387 1.371 . S
C388 H395 0.930 . S
H389 C386 0.928 . S
H390 C387 0.931 . S
H391 C367 0.930 . S
H392 C364 0.930 . S
H393 C373 0.930 . S
H394 C385 0.929 . S
H395 C388 0.930 . S
C396 C397 1.351 . S
C396 N399 1.368 . S
C396 H401 0.931 . S
C397 C396 1.351 . S
C397 N398 1.373 . S
C397 H425 0.930 . S
N398 C397 1.373 . S
N398 C400 1.340 . S
N399 C396 1.368 . S
N399 C400 1.321 . S
N399 Co402 2.135 . S
C400 N398 1.340 . S
C400 N399 1.321 . S
C400 H424 0.930 . S
H401 C396 0.931 . S
Co402 N399 2.135 . S
Co402 N405 2.121 . S
Co402 O410 2.055 . S
Co402 O413 2.039 . S
Co402 N416 2.140 . S
C403 O404 1.227 . S
C403 O413 1.265 . S
O404 C403 1.227 . S
N405 Co402 2.121 . S
N405 C407 1.375 . S
N405 C408 1.313 . S
C406 C407 1.338 . S
C406 N409 1.377 . S
C406 H426 0.930 . S
C407 N405 1.375 . S
C407 C406 1.338 . S
C407 H411 0.931 . S
C408 N405 1.313 . S
C408 N409 1.344 . S
C408 H412 0.930 . S
N409 C406 1.377 . S
N409 C408 1.344 . S
O410 Co402 2.055 . S
O410 C414 1.253 . S
H411 C407 0.931 . S
H412 C408 0.930 . S
O413 Co402 2.039 . S
O413 C403 1.265 . S
C414 O410 1.253 . S
C414 O415 1.227 . S
O415 C414 1.227 . S
N416 Co402 2.140 . S
N416 C419 1.346 . S
N416 C420 1.345 . S
C417 C418 1.387 . S
C417 C421 1.391 . S
C418 C417 1.387 . S
C418 C419 1.369 . S
C418 H427 0.929 . S
C419 N416 1.346 . S
C419 C418 1.369 . S
C419 H422 0.928 . S
C420 N416 1.345 . S
C420 C421 1.371 . S
C420 H423 0.931 . S
C421 C417 1.391 . S
C421 C420 1.371 . S
C421 H428 0.930 . S
H422 C419 0.928 . S
H423 C420 0.931 . S
H424 C400 0.930 . S
H425 C397 0.930 . S
H426 C406 0.930 . S
H427 C418 0.929 . S
H428 C421 0.930 . S
C429 C430 1.351 . S
C429 N432 1.368 . S
C429 H434 0.931 . S
C430 C429 1.351 . S
C430 N431 1.373 . S
C430 H458 0.930 . S
N431 C430 1.373 . S
N431 C433 1.340 . S
N432 C429 1.368 . S
N432 C433 1.321 . S
N432 Co435 2.135 . S
C433 N431 1.340 . S
C433 N432 1.321 . S
C433 H457 0.930 . S
H434 C429 0.931 . S
Co435 N432 2.135 . S
Co435 N438 2.121 1_545 S
Co435 O443 2.055 . S
Co435 O446 2.039 . S
Co435 N449 2.140 1_545 S
C436 O437 1.227 1_545 S
C436 O446 1.265 . S
O437 C436 1.227 1_565 S
N438 Co435 2.121 1_565 S
N438 C440 1.375 . S
N438 C441 1.313 1_565 S
C439 C440 1.338 . S
C439 N442 1.377 . S
C439 H459 0.930 . S
C440 N438 1.375 . S
C440 C439 1.338 . S
C440 H444 0.931 . S
C441 N438 1.313 1_545 S
C441 N442 1.344 1_545 S
C441 H445 0.930 . S
N442 C439 1.377 . S
N442 C441 1.344 1_565 S
O443 Co435 2.055 . S
O443 C447 1.253 . S
H444 C440 0.931 . S
H445 C441 0.930 . S
O446 Co435 2.039 . S
O446 C436 1.265 . S
C447 O443 1.253 . S
C447 O448 1.227 . S
O448 C447 1.227 . S
N449 Co435 2.140 1_565 S
N449 C452 1.346 . S
N449 C453 1.345 . S
C450 C451 1.387 . S
C450 C454 1.391 . S
C451 C450 1.387 . S
C451 C452 1.369 . S
C451 H460 0.929 . S
C452 N449 1.346 . S
C452 C451 1.369 . S
C452 H455 0.928 . S
C453 N449 1.345 . S
C453 C454 1.371 . S
C453 H456 0.931 . S
C454 C450 1.391 . S
C454 C453 1.371 . S
C454 H461 0.930 . S
H455 C452 0.928 . S
H456 C453 0.931 . S
H457 C433 0.930 . S
H458 C430 0.930 . S
H459 C439 0.930 . S
H460 C451 0.929 . S
H461 C454 0.930 . S
C462 C463 1.351 . S
C462 N465 1.368 . S
C462 H467 0.931 . S
C463 C462 1.351 . S
C463 N464 1.373 . S
C463 H491 0.930 . S
N464 C463 1.373 . S
N464 C466 1.340 . S
N465 C462 1.368 . S
N465 C466 1.321 . S
N465 Co468 2.135 . S
C466 N464 1.340 . S
C466 N465 1.321 . S
C466 H490 0.930 . S
H467 C462 0.931 . S
Co468 N465 2.135 . S
Co468 N471 2.121 . S
Co468 O476 2.055 . S
Co468 O479 2.039 . S
Co468 N482 2.140 . S
C469 O470 1.227 . S
C469 O479 1.265 . S
O470 C469 1.227 . S
N471 Co468 2.121 . S
N471 C473 1.375 . S
N471 C474 1.313 . S
C472 C473 1.338 . S
C472 N475 1.377 . S
C472 H492 0.930 . S
C473 N471 1.375 . S
C473 C472 1.338 . S
C473 H477 0.931 . S
C474 N471 1.313 . S
C474 N475 1.344 . S
C474 H478 0.930 . S
N475 C472 1.377 . S
N475 C474 1.344 . S
O476 Co468 2.055 . S
O476 C480 1.253 . S
H477 C473 0.931 . S
H478 C474 0.930 . S
O479 Co468 2.039 . S
O479 C469 1.265 . S
C480 O476 1.253 . S
C480 O481 1.227 . S
O481 C480 1.227 . S
N482 Co468 2.140 . S
N482 C485 1.346 . S
N482 C486 1.345 . S
C483 C484 1.387 . S
C483 C487 1.391 . S
C484 C483 1.387 . S
C484 C485 1.369 . S
C484 H493 0.929 . S
C485 N482 1.346 . S
C485 C484 1.369 . S
C485 H488 0.928 . S
C486 N482 1.345 . S
C486 C487 1.371 . S
C486 H489 0.931 . S
C487 C483 1.391 . S
C487 C486 1.371 . S
C487 H494 0.930 . S
H488 C485 0.928 . S
H489 C486 0.931 . S
H490 C466 0.930 . S
H491 C463 0.930 . S
H492 C472 0.930 . S
H493 C484 0.929 . S
H494 C487 0.930 . S
C495 C496 1.351 . S
C495 N498 1.368 . S
C495 H500 0.931 . S
C496 C495 1.351 . S
C496 N497 1.373 . S
C496 H524 0.930 . S
N497 C496 1.373 . S
N497 C499 1.340 . S
N498 C495 1.368 . S
N498 C499 1.321 . S
N498 Co501 2.135 1_455 S
C499 N497 1.340 . S
C499 N498 1.321 . S
C499 H523 0.930 . S
H500 C495 0.931 . S
Co501 N498 2.135 1_655 S
Co501 N504 2.121 1_565 S
Co501 O509 2.055 . S
Co501 O512 2.039 . S
Co501 N515 2.140 1_565 S
C502 O503 1.227 1_565 S
C502 O512 1.265 . S
O503 C502 1.227 1_545 S
N504 Co501 2.121 1_545 S
N504 C506 1.375 . S
N504 C507 1.313 1_545 S
C505 C506 1.338 . S
C505 N508 1.377 . S
C505 H525 0.930 . S
C506 N504 1.375 . S
C506 C505 1.338 . S
C506 H510 0.931 . S
C507 N504 1.313 1_565 S
C507 N508 1.344 1_565 S
C507 H511 0.930 . S
N508 C505 1.377 . S
N508 C507 1.344 1_545 S
O509 Co501 2.055 . S
O509 C513 1.253 . S
H510 C506 0.931 . S
H511 C507 0.930 . S
O512 Co501 2.039 . S
O512 C502 1.265 . S
C513 O509 1.253 . S
C513 O514 1.227 . S
O514 C513 1.227 . S
N515 Co501 2.140 1_545 S
N515 C518 1.349 . S
N515 C519 1.345 . S
C516 C517 1.387 1_655 S
C516 C520 1.391 . S
C517 C516 1.387 1_455 S
C517 C518 1.369 1_455 S
C517 H526 0.929 . S
C518 N515 1.349 . S
C518 C517 1.369 1_655 S
C518 H521 0.926 1_655 S
C519 N515 1.345 . S
C519 C520 1.371 . S
C519 H522 0.931 . S
C520 C516 1.391 . S
C520 C519 1.371 . S
C520 H527 0.930 . S
H521 C518 0.926 1_455 S
H522 C519 0.931 . S
H523 C499 0.930 . S
H524 C496 0.930 . S
H525 C505 0.930 . S
H526 C517 0.929 . S
H527 C520 0.930 . S
C528 C529 1.351 . S
C528 N531 1.368 . S
C528 H533 0.931 . S
C529 C528 1.351 . S
C529 N530 1.373 . S
C529 H557 0.930 . S
N530 C529 1.373 . S
N530 C532 1.340 . S
N531 C528 1.368 . S
N531 C532 1.321 . S
N531 Co534 2.135 . S
C532 N530 1.340 . S
C532 N531 1.321 . S
C532 H556 0.930 . S
H533 C528 0.931 . S
Co534 N531 2.135 . S
Co534 N537 2.121 . S
Co534 O542 2.055 . S
Co534 O545 2.039 . S
Co534 N548 2.140 . S
C535 O536 1.227 . S
C535 O545 1.265 . S
O536 C535 1.227 . S
N537 Co534 2.121 . S
N537 C539 1.375 . S
N537 C540 1.313 . S
C538 C539 1.338 . S
C538 N541 1.377 . S
C538 H558 0.930 . S
C539 N537 1.375 . S
C539 C538 1.338 . S
C539 H543 0.931 . S
C540 N537 1.313 . S
C540 N541 1.344 . S
C540 H544 0.930 . S
N541 C538 1.377 . S
N541 C540 1.344 . S
O542 Co534 2.055 . S
O542 C546 1.253 . S
H543 C539 0.931 . S
H544 C540 0.930 . S
O545 Co534 2.039 . S
O545 C535 1.265 . S
C546 O542 1.253 . S
C546 O547 1.227 . S
O547 C546 1.227 . S
N548 Co534 2.140 . S
N548 C551 1.346 . S
N548 C552 1.345 . S
C549 C550 1.387 . S
C549 C553 1.391 . S
C550 C549 1.387 . S
C550 C551 1.369 . S
C550 H559 0.929 . S
C551 N548 1.346 . S
C551 C550 1.369 . S
C551 H554 0.928 . S
C552 N548 1.345 . S
C552 C553 1.371 . S
C552 H555 0.931 . S
C553 C549 1.391 . S
C553 C552 1.371 . S
C553 H560 0.930 . S
H554 C551 0.928 . S
H555 C552 0.931 . S
H556 C532 0.930 . S
H557 C529 0.930 . S
H558 C538 0.930 . S
H559 C550 0.929 . S
H560 C553 0.930 . S
C561 C562 1.351 . S
C561 N564 1.368 . S
C561 H566 0.931 . S
C562 C561 1.351 . S
C562 N563 1.373 . S
C562 H590 0.930 . S
N563 C562 1.373 . S
N563 C565 1.340 . S
N564 C561 1.368 . S
N564 C565 1.321 . S
N564 Co567 2.135 . S
C565 N563 1.340 . S
C565 N564 1.321 . S
C565 H589 0.930 . S
H566 C561 0.931 . S
Co567 N564 2.135 . S
Co567 N570 2.121 . S
Co567 O575 2.055 . S
Co567 O578 2.039 . S
Co567 N581 2.140 . S
C568 O569 1.227 . S
C568 O578 1.265 . S
O569 C568 1.227 . S
N570 Co567 2.121 . S
N570 C572 1.375 . S
N570 C573 1.313 . S
C571 C572 1.338 . S
C571 N574 1.377 . S
C571 H591 0.930 . S
C572 N570 1.375 . S
C572 C571 1.338 . S
C572 H576 0.931 . S
C573 N570 1.313 . S
C573 N574 1.344 . S
C573 H577 0.930 . S
N574 C571 1.377 . S
N574 C573 1.344 . S
O575 Co567 2.055 . S
O575 C579 1.253 . S
H576 C572 0.931 . S
H577 C573 0.930 . S
O578 Co567 2.039 . S
O578 C568 1.265 . S
C579 O575 1.253 . S
C579 O580 1.227 . S
O580 C579 1.227 . S
N581 Co567 2.140 . S
N581 C584 1.346 . S
N581 C585 1.345 . S
C582 C583 1.387 . S
C582 C586 1.391 . S
C583 C582 1.387 . S
C583 C584 1.369 . S
C583 H592 0.929 . S
C584 N581 1.346 . S
C584 C583 1.369 . S
C584 H587 0.928 . S
C585 N581 1.345 . S
C585 C586 1.371 . S
C585 H588 0.931 . S
C586 C582 1.391 . S
C586 C585 1.371 . S
C586 H593 0.930 . S
H587 C584 0.928 . S
H588 C585 0.931 . S
H589 C565 0.930 . S
H590 C562 0.930 . S
H591 C571 0.930 . S
H592 C583 0.929 . S
H593 C586 0.930 . S
C594 C595 1.351 . S
C594 N597 1.368 . S
C594 H599 0.931 . S
C595 C594 1.351 . S
C595 N596 1.373 . S
C595 H623 0.930 . S
N596 C595 1.373 . S
N596 C598 1.340 . S
N597 C594 1.368 . S
N597 C598 1.321 . S
N597 Co600 2.135 . S
C598 N596 1.340 . S
C598 N597 1.321 . S
C598 H622 0.930 . S
H599 C594 0.931 . S
Co600 N597 2.135 . S
Co600 N603 2.121 . S
Co600 O608 2.055 . S
Co600 O611 2.039 . S
Co600 N614 2.140 . S
C601 O602 1.227 . S
C601 O611 1.265 . S
O602 C601 1.227 . S
N603 Co600 2.121 . S
N603 C605 1.375 . S
N603 C606 1.313 . S
C604 C605 1.338 . S
C604 N607 1.377 . S
C604 H624 0.930 . S
C605 N603 1.375 . S
C605 C604 1.338 . S
C605 H609 0.931 . S
C606 N603 1.313 . S
C606 N607 1.344 . S
C606 H610 0.930 . S
N607 C604 1.377 . S
N607 C606 1.344 . S
O608 Co600 2.055 . S
O608 C612 1.253 . S
H609 C605 0.931 . S
H610 C606 0.930 . S
O611 Co600 2.039 . S
O611 C601 1.265 . S
C612 O608 1.253 . S
C612 O613 1.227 . S
O613 C612 1.227 . S
N614 Co600 2.140 . S
N614 C617 1.346 . S
N614 C618 1.345 . S
C615 C616 1.387 . S
C615 C619 1.391 . S
C616 C615 1.387 . S
C616 C617 1.369 . S
C616 H625 0.929 . S
C617 N614 1.346 . S
C617 C616 1.369 . S
C617 H620 0.928 . S
C618 N614 1.345 . S
C618 C619 1.371 . S
C618 H621 0.931 . S
C619 C615 1.391 . S
C619 C618 1.371 . S
C619 H626 0.930 . S
H620 C617 0.928 . S
H621 C618 0.931 . S
H622 C598 0.930 . S
H623 C595 0.930 . S
H624 C604 0.930 . S
H625 C616 0.929 . S
H626 C619 0.930 . S
C627 C628 1.351 . S
C627 N630 1.368 . S
C627 H632 0.931 . S
C628 C627 1.351 . S
C628 N629 1.373 . S
C628 H656 0.930 . S
N629 C628 1.373 . S
N629 C631 1.340 . S
N630 C627 1.368 . S
N630 C631 1.321 . S
N630 Co633 2.135 1_455 S
C631 N629 1.340 . S
C631 N630 1.321 . S
C631 H655 0.930 . S
H632 C627 0.931 . S
Co633 N630 2.135 1_655 S
Co633 N636 2.121 . S
Co633 O641 2.055 . S
Co633 O644 2.039 . S
Co633 N647 2.140 . S
C634 O635 1.227 . S
C634 O644 1.265 . S
O635 C634 1.227 . S
N636 Co633 2.121 . S
N636 C638 1.375 . S
N636 C639 1.313 . S
C637 C638 1.338 . S
C637 N640 1.377 . S
C637 H657 0.930 . S
C638 N636 1.375 . S
C638 C637 1.338 . S
C638 H642 0.931 . S
C639 N636 1.313 . S
C639 N640 1.344 . S
C639 H643 0.930 . S
N640 C637 1.377 . S
N640 C639 1.344 . S
O641 Co633 2.055 . S
O641 C645 1.253 . S
H642 C638 0.931 . S
H643 C639 0.930 . S
O644 Co633 2.039 . S
O644 C634 1.265 . S
C645 O641 1.253 . S
C645 O646 1.227 . S
O646 C645 1.227 . S
N647 Co633 2.140 . S
N647 C650 1.349 . S
N647 C651 1.345 . S
C648 C649 1.387 1_655 S
C648 C652 1.391 . S
C649 C648 1.387 1_455 S
C649 C650 1.369 1_455 S
C649 H658 0.929 . S
C650 N647 1.349 . S
C650 C649 1.369 1_655 S
C650 H653 0.926 1_655 S
C651 N647 1.345 . S
C651 C652 1.371 . S
C651 H654 0.931 . S
C652 C648 1.391 . S
C652 C651 1.371 . S
C652 H659 0.930 . S
H653 C650 0.926 1_455 S
H654 C651 0.931 . S
H655 C631 0.930 . S
H656 C628 0.930 . S
H657 C637 0.930 . S
H658 C649 0.929 . S
H659 C652 0.930 . S
C660 C661 1.351 . S
C660 N663 1.368 . S
C660 H665 0.931 . S
C661 C660 1.351 . S
C661 N662 1.373 . S
C661 H689 0.930 . S
N662 C661 1.373 . S
N662 C664 1.340 . S
N663 C660 1.368 . S
N663 C664 1.321 . S
N663 Co666 2.135 . S
C664 N662 1.340 . S
C664 N663 1.321 . S
C664 H688 0.930 . S
H665 C660 0.931 . S
Co666 N663 2.135 . S
Co666 N669 2.121 . S
Co666 O674 2.055 . S
Co666 O677 2.039 . S
Co666 N680 2.140 . S
C667 O668 1.227 . S
C667 O677 1.265 . S
O668 C667 1.227 . S
N669 Co666 2.121 . S
N669 C671 1.375 . S
N669 C672 1.313 . S
C670 C671 1.338 . S
C670 N673 1.377 . S
C670 H690 0.930 . S
C671 N669 1.375 . S
C671 C670 1.338 . S
C671 H675 0.931 . S
C672 N669 1.313 . S
C672 N673 1.344 . S
C672 H676 0.930 . S
N673 C670 1.377 . S
N673 C672 1.344 . S
O674 Co666 2.055 . S
O674 C678 1.253 . S
H675 C671 0.931 . S
H676 C672 0.930 . S
O677 Co666 2.039 . S
O677 C667 1.265 . S
C678 O674 1.253 . S
C678 O679 1.227 . S
O679 C678 1.227 . S
N680 Co666 2.140 . S
N680 C683 1.346 . S
N680 C684 1.345 . S
C681 C682 1.387 . S
C681 C685 1.391 . S
C682 C681 1.387 . S
C682 C683 1.369 . S
C682 H691 0.929 . S
C683 N680 1.346 . S
C683 C682 1.369 . S
C683 H686 0.928 . S
C684 N680 1.345 . S
C684 C685 1.371 . S
C684 H687 0.931 . S
C685 C681 1.391 . S
C685 C684 1.371 . S
C685 H692 0.930 . S
H686 C683 0.928 . S
H687 C684 0.931 . S
H688 C664 0.930 . S
H689 C661 0.930 . S
H690 C670 0.930 . S
H691 C682 0.929 . S
H692 C685 0.930 . S
C693 C694 1.351 . S
C693 N696 1.368 . S
C693 H698 0.931 . S
C694 C693 1.351 . S
C694 N695 1.373 . S
C694 H722 0.930 . S
N695 C694 1.373 . S
N695 C697 1.340 . S
N696 C693 1.368 . S
N696 C697 1.321 . S
N696 Co699 2.135 1_455 S
C697 N695 1.340 . S
C697 N696 1.321 . S
C697 H721 0.930 . S
H698 C693 0.931 . S
Co699 N696 2.135 1_655 S
Co699 N702 2.121 . S
Co699 O707 2.055 . S
Co699 O710 2.039 . S
Co699 N713 2.140 . S
C700 O701 1.227 . S
C700 O710 1.265 . S
O701 C700 1.227 . S
N702 Co699 2.121 . S
N702 C704 1.375 . S
N702 C705 1.313 . S
C703 C704 1.338 . S
C703 N706 1.377 . S
C703 H723 0.930 . S
C704 N702 1.375 . S
C704 C703 1.338 . S
C704 H708 0.931 . S
C705 N702 1.313 . S
C705 N706 1.344 . S
C705 H709 0.930 . S
N706 C703 1.377 . S
N706 C705 1.344 . S
O707 Co699 2.055 . S
O707 C711 1.253 . S
H708 C704 0.931 . S
H709 C705 0.930 . S
O710 Co699 2.039 . S
O710 C700 1.265 . S
C711 O707 1.253 . S
C711 O712 1.227 . S
O712 C711 1.227 . S
N713 Co699 2.140 . S
N713 C716 1.349 . S
N713 C717 1.345 . S
C714 C715 1.387 1_655 S
C714 C718 1.391 . S
C715 C714 1.387 1_455 S
C715 C716 1.369 1_455 S
C715 H724 0.929 . S
C716 N713 1.349 . S
C716 C715 1.369 1_655 S
C716 H719 0.926 1_655 S
C717 N713 1.345 . S
C717 C718 1.371 . S
C717 H720 0.931 . S
C718 C714 1.391 . S
C718 C717 1.371 . S
C718 H725 0.930 . S
H719 C716 0.926 1_455 S
H720 C717 0.931 . S
H721 C697 0.930 . S
H722 C694 0.930 . S
H723 C703 0.930 . S
H724 C715 0.929 . S
H725 C718 0.930 . S
C726 C727 1.351 . S
C726 N729 1.368 . S
C726 H731 0.931 . S
C727 C726 1.351 . S
C727 N728 1.373 . S
C727 H755 0.930 . S
N728 C727 1.373 . S
N728 C730 1.340 . S
N729 C726 1.368 . S
N729 C730 1.321 . S
N729 Co732 2.135 . S
C730 N728 1.340 . S
C730 N729 1.321 . S
C730 H754 0.930 . S
H731 C726 0.931 . S
Co732 N729 2.135 . S
Co732 N735 2.121 . S
Co732 O740 2.055 . S
Co732 O743 2.039 . S
Co732 N746 2.140 . S
C733 O734 1.227 . S
C733 O743 1.265 . S
O734 C733 1.227 . S
N735 Co732 2.121 . S
N735 C737 1.375 . S
N735 C738 1.313 . S
C736 C737 1.338 . S
C736 N739 1.377 . S
C736 H756 0.930 . S
C737 N735 1.375 . S
C737 C736 1.338 . S
C737 H741 0.931 . S
C738 N735 1.313 . S
C738 N739 1.344 . S
C738 H742 0.930 . S
N739 C736 1.377 . S
N739 C738 1.344 . S
O740 Co732 2.055 . S
O740 C744 1.253 . S
H741 C737 0.931 . S
H742 C738 0.930 . S
O743 Co732 2.039 . S
O743 C733 1.265 . S
C744 O740 1.253 . S
C744 O745 1.227 . S
O745 C744 1.227 . S
N746 Co732 2.140 . S
N746 C749 1.346 . S
N746 C750 1.345 . S
C747 C748 1.387 . S
C747 C751 1.391 . S
C748 C747 1.387 . S
C748 C749 1.369 . S
C748 H757 0.929 . S
C749 N746 1.346 . S
C749 C748 1.369 . S
C749 H752 0.928 . S
C750 N746 1.345 . S
C750 C751 1.371 . S
C750 H753 0.931 . S
C751 C747 1.391 . S
C751 C750 1.371 . S
C751 H758 0.930 . S
H752 C749 0.928 . S
H753 C750 0.931 . S
H754 C730 0.930 . S
H755 C727 0.930 . S
H756 C736 0.930 . S
H757 C748 0.929 . S
H758 C751 0.930 . S
C759 C760 1.351 . S
C759 N762 1.368 . S
C759 H764 0.931 . S
C760 C759 1.351 . S
C760 N761 1.373 . S
C760 H788 0.930 . S
N761 C760 1.373 . S
N761 C763 1.340 . S
N762 C759 1.368 . S
N762 C763 1.321 . S
N762 Co765 2.135 . S
C763 N761 1.340 . S
C763 N762 1.321 . S
C763 H787 0.930 . S
H764 C759 0.931 . S
Co765 N762 2.135 . S
Co765 N768 2.121 . S
Co765 O773 2.055 . S
Co765 O776 2.039 . S
Co765 N779 2.140 . S
C766 O767 1.227 . S
C766 O776 1.265 . S
O767 C766 1.227 . S
N768 Co765 2.121 . S
N768 C770 1.375 . S
N768 C771 1.313 . S
C769 C770 1.338 . S
C769 N772 1.377 . S
C769 H789 0.930 . S
C770 N768 1.375 . S
C770 C769 1.338 . S
C770 H774 0.931 . S
C771 N768 1.313 . S
C771 N772 1.344 . S
C771 H775 0.930 . S
N772 C769 1.377 . S
N772 C771 1.344 . S
O773 Co765 2.055 . S
O773 C777 1.253 . S
H774 C770 0.931 . S
H775 C771 0.930 . S
O776 Co765 2.039 . S
O776 C766 1.265 . S
C777 O773 1.253 . S
C777 O778 1.227 . S
O778 C777 1.227 . S
N779 Co765 2.140 . S
N779 C782 1.346 . S
N779 C783 1.345 . S
C780 C781 1.387 . S
C780 C784 1.391 . S
C781 C780 1.387 . S
C781 C782 1.369 . S
C781 H790 0.929 . S
C782 N779 1.346 . S
C782 C781 1.369 . S
C782 H785 0.928 . S
C783 N779 1.345 . S
C783 C784 1.371 . S
C783 H786 0.931 . S
C784 C780 1.391 . S
C784 C783 1.371 . S
C784 H791 0.930 . S
H785 C782 0.928 . S
H786 C783 0.931 . S
H787 C763 0.930 . S
H788 C760 0.930 . S
H789 C769 0.930 . S
H790 C781 0.929 . S
H791 C784 0.930 . S
C792 C793 1.351 . S
C792 N795 1.368 . S
C792 H797 0.931 . S
C793 C792 1.351 . S
C793 N794 1.373 . S
C793 H821 0.930 . S
N794 C793 1.373 . S
N794 C796 1.340 . S
N795 C792 1.368 . S
N795 C796 1.321 . S
N795 Co798 2.135 . S
C796 N794 1.340 . S
C796 N795 1.321 . S
C796 H820 0.930 . S
H797 C792 0.931 . S
Co798 N795 2.135 . S
Co798 N801 2.121 . S
Co798 O806 2.055 . S
Co798 O809 2.039 . S
Co798 N812 2.140 . S
C799 O800 1.227 . S
C799 O809 1.265 . S
O800 C799 1.227 . S
N801 Co798 2.121 . S
N801 C803 1.375 . S
N801 C804 1.313 . S
C802 C803 1.338 . S
C802 N805 1.377 . S
C802 H822 0.930 . S
C803 N801 1.375 . S
C803 C802 1.338 . S
C803 H807 0.931 . S
C804 N801 1.313 . S
C804 N805 1.344 . S
C804 H808 0.930 . S
N805 C802 1.377 . S
N805 C804 1.344 . S
O806 Co798 2.055 . S
O806 C810 1.253 . S
H807 C803 0.931 . S
H808 C804 0.930 . S
O809 Co798 2.039 . S
O809 C799 1.265 . S
C810 O806 1.253 . S
C810 O811 1.227 . S
O811 C810 1.227 . S
N812 Co798 2.140 . S
N812 C815 1.346 . S
N812 C816 1.345 . S
C813 C814 1.387 . S
C813 C817 1.391 . S
C814 C813 1.387 . S
C814 C815 1.369 . S
C814 H823 0.929 . S
C815 N812 1.346 . S
C815 C814 1.369 . S
C815 H818 0.928 . S
C816 N812 1.345 . S
C816 C817 1.371 . S
C816 H819 0.931 . S
C817 C813 1.391 . S
C817 C816 1.371 . S
C817 H824 0.930 . S
H818 C815 0.928 . S
H819 C816 0.931 . S
H820 C796 0.930 . S
H821 C793 0.930 . S
H822 C802 0.930 . S
H823 C814 0.929 . S
H824 C817 0.930 . S
C825 C826 1.351 . S
C825 N828 1.368 . S
C825 H830 0.931 . S
C826 C825 1.351 . S
C826 N827 1.373 . S
C826 H854 0.930 . S
N827 C826 1.373 . S
N827 C829 1.340 . S
N828 C825 1.368 . S
N828 C829 1.321 . S
N828 Co831 2.135 . S
C829 N827 1.340 . S
C829 N828 1.321 . S
C829 H853 0.930 . S
H830 C825 0.931 . S
Co831 N828 2.135 . S
Co831 N834 2.121 . S
Co831 O839 2.055 . S
Co831 O842 2.039 . S
Co831 N845 2.140 . S
C832 O833 1.227 . S
C832 O842 1.265 . S
O833 C832 1.227 . S
N834 Co831 2.121 . S
N834 C836 1.375 . S
N834 C837 1.313 . S
C835 C836 1.338 . S
C835 N838 1.377 . S
C835 H855 0.930 . S
C836 N834 1.375 . S
C836 C835 1.338 . S
C836 H840 0.931 . S
C837 N834 1.313 . S
C837 N838 1.344 . S
C837 H841 0.930 . S
N838 C835 1.377 . S
N838 C837 1.344 . S
O839 Co831 2.055 . S
O839 C843 1.253 . S
H840 C836 0.931 . S
H841 C837 0.930 . S
O842 Co831 2.039 . S
O842 C832 1.265 . S
C843 O839 1.253 . S
C843 O844 1.227 . S
O844 C843 1.227 . S
N845 Co831 2.140 . S
N845 C848 1.346 . S
N845 C849 1.345 . S
C846 C847 1.387 . S
C846 C850 1.391 . S
C847 C846 1.387 . S
C847 C848 1.369 . S
C847 H856 0.929 . S
C848 N845 1.346 . S
C848 C847 1.369 . S
C848 H851 0.928 . S
C849 N845 1.345 . S
C849 C850 1.371 . S
C849 H852 0.931 . S
C850 C846 1.391 . S
C850 C849 1.371 . S
C850 H857 0.930 . S
H851 C848 0.928 . S
H852 C849 0.931 . S
H853 C829 0.930 . S
H854 C826 0.930 . S
H855 C835 0.930 . S
H856 C847 0.929 . S
H857 C850 0.930 . S
C858 C859 1.351 . S
C858 N861 1.368 . S
C858 H863 0.931 . S
C859 C858 1.351 . S
C859 N860 1.373 . S
C859 H887 0.930 . S
N860 C859 1.373 . S
N860 C862 1.340 . S
N861 C858 1.368 . S
N861 C862 1.321 . S
N861 Co864 2.135 . S
C862 N860 1.340 . S
C862 N861 1.321 . S
C862 H886 0.930 . S
H863 C858 0.931 . S
Co864 N861 2.135 . S
Co864 N867 2.121 . S
Co864 O872 2.055 . S
Co864 O875 2.039 . S
Co864 N878 2.140 . S
C865 O866 1.227 . S
C865 O875 1.265 . S
O866 C865 1.227 . S
N867 Co864 2.121 . S
N867 C869 1.375 . S
N867 C870 1.313 . S
C868 C869 1.338 . S
C868 N871 1.377 . S
C868 H888 0.930 . S
C869 N867 1.375 . S
C869 C868 1.338 . S
C869 H873 0.931 . S
C870 N867 1.313 . S
C870 N871 1.344 . S
C870 H874 0.930 . S
N871 C868 1.377 . S
N871 C870 1.344 . S
O872 Co864 2.055 . S
O872 C876 1.253 . S
H873 C869 0.931 . S
H874 C870 0.930 . S
O875 Co864 2.039 . S
O875 C865 1.265 . S
C876 O872 1.253 . S
C876 O877 1.227 . S
O877 C876 1.227 . S
N878 Co864 2.140 . S
N878 C881 1.346 . S
N878 C882 1.345 . S
C879 C880 1.387 . S
C879 C883 1.391 . S
C880 C879 1.387 . S
C880 C881 1.369 . S
C880 H889 0.929 . S
C881 N878 1.346 . S
C881 C880 1.369 . S
C881 H884 0.928 . S
C882 N878 1.345 . S
C882 C883 1.371 . S
C882 H885 0.931 . S
C883 C879 1.391 . S
C883 C882 1.371 . S
C883 H890 0.930 . S
H884 C881 0.928 . S
H885 C882 0.931 . S
H886 C862 0.930 . S
H887 C859 0.930 . S
H888 C868 0.930 . S
H889 C880 0.929 . S
H890 C883 0.930 . S
C891 C892 1.351 . S
C891 N894 1.368 . S
C891 H896 0.931 . S
C892 C891 1.351 . S
C892 N893 1.373 . S
C892 H920 0.930 . S
N893 C892 1.373 . S
N893 C895 1.340 . S
N894 C891 1.368 . S
N894 C895 1.321 . S
N894 Co897 2.135 1_655 S
C895 N893 1.340 . S
C895 N894 1.321 . S
C895 H919 0.930 . S
H896 C891 0.931 . S
Co897 N894 2.135 1_455 S
Co897 N900 2.121 . S
Co897 O905 2.055 . S
Co897 O908 2.039 . S
Co897 N911 2.140 . S
C898 O899 1.227 . S
C898 O908 1.265 . S
O899 C898 1.227 . S
N900 Co897 2.121 . S
N900 C902 1.375 . S
N900 C903 1.313 . S
C901 C902 1.338 . S
C901 N904 1.377 . S
C901 H921 0.930 . S
C902 N900 1.375 . S
C902 C901 1.338 . S
C902 H906 0.931 . S
C903 N900 1.313 . S
C903 N904 1.344 . S
C903 H907 0.930 . S
N904 C901 1.377 . S
N904 C903 1.344 . S
O905 Co897 2.055 . S
O905 C909 1.253 . S
H906 C902 0.931 . S
H907 C903 0.930 . S
O908 Co897 2.039 . S
O908 C898 1.265 . S
C909 O905 1.253 . S
C909 O910 1.227 . S
O910 C909 1.227 . S
N911 Co897 2.140 . S
N911 C914 1.349 . S
N911 C915 1.345 . S
C912 C913 1.387 1_455 S
C912 C916 1.391 . S
C913 C912 1.387 1_655 S
C913 C914 1.369 1_655 S
C913 H922 0.929 . S
C914 N911 1.349 . S
C914 C913 1.369 1_455 S
C914 H917 0.926 1_455 S
C915 N911 1.345 . S
C915 C916 1.371 . S
C915 H918 0.931 . S
C916 C912 1.391 . S
C916 C915 1.371 . S
C916 H923 0.930 . S
H917 C914 0.926 1_655 S
H918 C915 0.931 . S
H919 C895 0.930 . S
H920 C892 0.930 . S
H921 C901 0.930 . S
H922 C913 0.929 . S
H923 C916 0.930 . S
C924 C925 1.351 . S
C924 N927 1.368 . S
C924 H929 0.931 . S
C925 C924 1.351 . S
C925 N926 1.373 . S
C925 H953 0.930 . S
N926 C925 1.373 . S
N926 C928 1.340 . S
N927 C924 1.368 . S
N927 C928 1.321 . S
N927 Co930 2.135 . S
C928 N926 1.340 . S
C928 N927 1.321 . S
C928 H952 0.930 . S
H929 C924 0.931 . S
Co930 N927 2.135 . S
Co930 N933 2.121 . S
Co930 O938 2.055 . S
Co930 O941 2.039 . S
Co930 N944 2.140 . S
C931 O932 1.227 . S
C931 O941 1.265 . S
O932 C931 1.227 . S
N933 Co930 2.121 . S
N933 C935 1.375 . S
N933 C936 1.313 . S
C934 C935 1.338 . S
C934 N937 1.377 . S
C934 H954 0.930 . S
C935 N933 1.375 . S
C935 C934 1.338 . S
C935 H939 0.931 . S
C936 N933 1.313 . S
C936 N937 1.344 . S
C936 H940 0.930 . S
N937 C934 1.377 . S
N937 C936 1.344 . S
O938 Co930 2.055 . S
O938 C942 1.253 . S
H939 C935 0.931 . S
H940 C936 0.930 . S
O941 Co930 2.039 . S
O941 C931 1.265 . S
C942 O938 1.253 . S
C942 O943 1.227 . S
O943 C942 1.227 . S
N944 Co930 2.140 . S
N944 C947 1.346 . S
N944 C948 1.345 . S
C945 C946 1.387 . S
C945 C949 1.391 . S
C946 C945 1.387 . S
C946 C947 1.369 . S
C946 H955 0.929 . S
C947 N944 1.346 . S
C947 C946 1.369 . S
C947 H950 0.928 . S
C948 N944 1.345 . S
C948 C949 1.371 . S
C948 H951 0.931 . S
C949 C945 1.391 . S
C949 C948 1.371 . S
C949 H956 0.930 . S
H950 C947 0.928 . S
H951 C948 0.931 . S
H952 C928 0.930 . S
H953 C925 0.930 . S
H954 C934 0.930 . S
H955 C946 0.929 . S
H956 C949 0.930 . S
C957 C958 1.351 . S
C957 N960 1.368 . S
C957 H962 0.931 . S
C958 C957 1.351 . S
C958 N959 1.373 . S
C958 H986 0.930 . S
N959 C958 1.373 . S
N959 C961 1.340 . S
N960 C957 1.368 . S
N960 C961 1.321 . S
N960 Co963 2.135 1_655 S
C961 N959 1.340 . S
C961 N960 1.321 . S
C961 H985 0.930 . S
H962 C957 0.931 . S
Co963 N960 2.135 1_455 S
Co963 N966 2.121 . S
Co963 O971 2.055 . S
Co963 O974 2.039 . S
Co963 N977 2.140 . S
C964 O965 1.227 . S
C964 O974 1.265 . S
O965 C964 1.227 . S
N966 Co963 2.121 . S
N966 C968 1.375 . S
N966 C969 1.313 . S
C967 C968 1.338 . S
C967 N970 1.377 . S
C967 H987 0.930 . S
C968 N966 1.375 . S
C968 C967 1.338 . S
C968 H972 0.931 . S
C969 N966 1.313 . S
C969 N970 1.344 . S
C969 H973 0.930 . S
N970 C967 1.377 . S
N970 C969 1.344 . S
O971 Co963 2.055 . S
O971 C975 1.253 . S
H972 C968 0.931 . S
H973 C969 0.930 . S
O974 Co963 2.039 . S
O974 C964 1.265 . S
C975 O971 1.253 . S
C975 O976 1.227 . S
O976 C975 1.227 . S
N977 Co963 2.140 . S
N977 C980 1.349 . S
N977 C981 1.345 . S
C978 C979 1.387 1_455 S
C978 C982 1.391 . S
C979 C978 1.387 1_655 S
C979 C980 1.369 1_655 S
C979 H988 0.929 . S
C980 N977 1.349 . S
C980 C979 1.369 1_455 S
C980 H983 0.926 1_455 S
C981 N977 1.345 . S
C981 C982 1.371 . S
C981 H984 0.931 . S
C982 C978 1.391 . S
C982 C981 1.371 . S
C982 H989 0.930 . S
H983 C980 0.926 1_655 S
H984 C981 0.931 . S
H985 C961 0.930 . S
H986 C958 0.930 . S
H987 C967 0.930 . S
H988 C979 0.929 . S
H989 C982 0.930 . S
C990 C991 1.351 . S
C990 N993 1.368 . S
C990 H995 0.931 . S
C991 C990 1.351 . S
C991 N992 1.373 . S
C991 H1019 0.930 . S
N992 C991 1.373 . S
N992 C994 1.340 . S
N993 C990 1.368 . S
N993 C994 1.321 . S
N993 Co996 2.135 . S
C994 N992 1.340 . S
C994 N993 1.321 . S
C994 H1018 0.930 . S
H995 C990 0.931 . S
Co996 N993 2.135 . S
Co996 N999 2.121 . S
Co996 O1004 2.055 . S
Co996 O1007 2.039 . S
Co996 N1010 2.140 . S
C997 O998 1.227 . S
C997 O1007 1.265 . S
O998 C997 1.227 . S
N999 Co996 2.121 . S
N999 C1001 1.375 . S
N999 C1002 1.313 . S
C1000 C1001 1.338 . S
C1000 N1003 1.377 . S
C1000 H1020 0.930 . S
C1001 N999 1.375 . S
C1001 C1000 1.338 . S
C1001 H1005 0.931 . S
C1002 N999 1.313 . S
C1002 N1003 1.344 . S
C1002 H1006 0.930 . S
N1003 C1000 1.377 . S
N1003 C1002 1.344 . S
O1004 Co996 2.055 . S
O1004 C1008 1.253 . S
H1005 C1001 0.931 . S
H1006 C1002 0.930 . S
O1007 Co996 2.039 . S
O1007 C997 1.265 . S
C1008 O1004 1.253 . S
C1008 O1009 1.227 . S
O1009 C1008 1.227 . S
N1010 Co996 2.140 . S
N1010 C1013 1.346 . S
N1010 C1014 1.345 . S
C1011 C1012 1.387 . S
C1011 C1015 1.391 . S
C1012 C1011 1.387 . S
C1012 C1013 1.369 . S
C1012 H1021 0.929 . S
C1013 N1010 1.346 . S
C1013 C1012 1.369 . S
C1013 H1016 0.928 . S
C1014 N1010 1.345 . S
C1014 C1015 1.371 . S
C1014 H1017 0.931 . S
C1015 C1011 1.391 . S
C1015 C1014 1.371 . S
C1015 H1022 0.930 . S
H1016 C1013 0.928 . S
H1017 C1014 0.931 . S
H1018 C994 0.930 . S
H1019 C991 0.930 . S
H1020 C1000 0.930 . S
H1021 C1012 0.929 . S
H1022 C1015 0.930 . S
C1023 C1024 1.351 . S
C1023 N1026 1.368 . S
C1023 H1028 0.931 . S
C1024 C1023 1.351 . S
C1024 N1025 1.373 . S
C1024 H1052 0.930 . S
N1025 C1024 1.373 . S
N1025 C1027 1.340 . S
N1026 C1023 1.368 . S
N1026 C1027 1.321 . S
N1026 Co1029 2.135 . S
C1027 N1025 1.340 . S
C1027 N1026 1.321 . S
C1027 H1051 0.930 . S
H1028 C1023 0.931 . S
Co1029 N1026 2.135 . S
Co1029 N1032 2.121 . S
Co1029 O1037 2.055 . S
Co1029 O1040 2.039 . S
Co1029 N1043 2.140 . S
C1030 O1031 1.227 . S
C1030 O1040 1.265 . S
O1031 C1030 1.227 . S
N1032 Co1029 2.121 . S
N1032 C1034 1.375 . S
N1032 C1035 1.313 . S
C1033 C1034 1.338 . S
C1033 N1036 1.377 . S
C1033 H1053 0.930 . S
C1034 N1032 1.375 . S
C1034 C1033 1.338 . S
C1034 H1038 0.931 . S
C1035 N1032 1.313 . S
C1035 N1036 1.344 . S
C1035 H1039 0.930 . S
N1036 C1033 1.377 . S
N1036 C1035 1.344 . S
O1037 Co1029 2.055 . S
O1037 C1041 1.253 . S
H1038 C1034 0.931 . S
H1039 C1035 0.930 . S
O1040 Co1029 2.039 . S
O1040 C1030 1.265 . S
C1041 O1037 1.253 . S
C1041 O1042 1.227 . S
O1042 C1041 1.227 . S
N1043 Co1029 2.140 . S
N1043 C1046 1.346 . S
N1043 C1047 1.345 . S
C1044 C1045 1.387 . S
C1044 C1048 1.391 . S
C1045 C1044 1.387 . S
C1045 C1046 1.369 . S
C1045 H1054 0.929 . S
C1046 N1043 1.346 . S
C1046 C1045 1.369 . S
C1046 H1049 0.928 . S
C1047 N1043 1.345 . S
C1047 C1048 1.371 . S
C1047 H1050 0.931 . S
C1048 C1044 1.391 . S
C1048 C1047 1.371 . S
C1048 H1055 0.930 . S
H1049 C1046 0.928 . S
H1050 C1047 0.931 . S
H1051 C1027 0.930 . S
H1052 C1024 0.930 . S
H1053 C1033 0.930 . S
H1054 C1045 0.929 . S
H1055 C1048 0.930 . S
C1056 C1057 1.387 . S
C1056 H1060 0.950 . S
C1056 C1065 1.390 . S
C1057 C1056 1.387 . S
C1057 C1059 1.387 . S
H1058 C1065 0.950 . S
C1059 C1057 1.387 . S
C1059 C1061 1.390 . S
C1059 H1063 0.950 . S
H1060 C1056 0.950 . S
C1061 C1059 1.390 . S
C1061 C1062 1.387 . S
C1061 H1064 0.950 . S
C1062 C1061 1.387 . S
C1062 C1065 1.387 . S
H1063 C1059 0.950 . S
H1064 C1061 0.950 . S
C1065 C1056 1.390 . S
C1065 H1058 0.950 . S
C1065 C1062 1.387 . S
C1066 C1067 1.387 . S
C1066 H1070 0.950 . S
C1066 C1075 1.390 . S
C1067 C1066 1.387 . S
C1067 C1069 1.387 . S
H1068 C1075 0.950 . S
C1069 C1067 1.387 . S
C1069 C1071 1.390 . S
C1069 H1073 0.950 . S
H1070 C1066 0.950 . S
C1071 C1069 1.390 . S
C1071 C1072 1.387 . S
C1071 H1074 0.950 . S
C1072 C1071 1.387 . S
C1072 C1075 1.387 . S
H1073 C1069 0.950 . S
H1074 C1071 0.950 . S
C1075 C1066 1.390 . S
C1075 H1068 0.950 . S
C1075 C1072 1.387 . S
C1076 C1077 1.387 . S
C1076 H1080 0.950 . S
C1076 C1085 1.390 . S
C1077 C1076 1.387 . S
C1077 C1079 1.387 . S
H1078 C1085 0.950 . S
C1079 C1077 1.387 . S
C1079 C1081 1.390 . S
C1079 H1083 0.950 . S
H1080 C1076 0.950 . S
C1081 C1079 1.390 . S
C1081 C1082 1.387 . S
C1081 H1084 0.950 . S
C1082 C1081 1.387 . S
C1082 C1085 1.387 . S
H1083 C1079 0.950 . S
H1084 C1081 0.950 . S
C1085 C1076 1.390 . S
C1085 H1078 0.950 . S
C1085 C1082 1.387 . S
C1086 C1087 1.387 . S
C1086 H1090 0.950 . S
C1086 C1095 1.390 . S
C1087 C1086 1.387 . S
C1087 C1089 1.387 . S
H1088 C1095 0.950 . S
C1089 C1087 1.387 . S
C1089 C1091 1.390 . S
C1089 H1093 0.950 . S
H1090 C1086 0.950 . S
C1091 C1089 1.390 . S
C1091 C1092 1.387 . S
C1091 H1094 0.950 . S
C1092 C1091 1.387 . S
C1092 C1095 1.387 . S
H1093 C1089 0.950 . S
H1094 C1091 0.950 . S
C1095 C1086 1.390 . S
C1095 H1088 0.950 . S
C1095 C1092 1.387 . S
C1096 C1097 1.387 . S
C1096 H1100 0.950 . S
C1096 C1105 1.390 . S
C1097 C1096 1.387 . S
C1097 C1099 1.387 . S
H1098 C1105 0.950 . S
C1099 C1097 1.387 . S
C1099 C1101 1.390 . S
C1099 H1103 0.950 . S
H1100 C1096 0.950 . S
C1101 C1099 1.390 . S
C1101 C1102 1.387 . S
C1101 H1104 0.950 . S
C1102 C1101 1.387 . S
C1102 C1105 1.387 . S
H1103 C1099 0.950 . S
H1104 C1101 0.950 . S
C1105 C1096 1.390 . S
C1105 H1098 0.950 . S
C1105 C1102 1.387 . S
C1106 C1107 1.387 . S
C1106 H1110 0.950 . S
C1106 C1115 1.390 . S
C1107 C1106 1.387 . S
C1107 C1109 1.387 . S
H1108 C1115 0.950 . S
C1109 C1107 1.387 . S
C1109 C1111 1.390 . S
C1109 H1113 0.950 . S
H1110 C1106 0.950 . S
C1111 C1109 1.390 . S
C1111 C1112 1.387 . S
C1111 H1114 0.950 . S
C1112 C1111 1.387 . S
C1112 C1115 1.387 . S
H1113 C1109 0.950 . S
H1114 C1111 0.950 . S
C1115 C1106 1.390 . S
C1115 H1108 0.950 . S
C1115 C1112 1.387 . S
C1116 C1117 1.387 . S
C1116 H1120 0.950 . S
C1116 C1125 1.390 . S
C1117 C1116 1.387 . S
C1117 C1119 1.387 . S
H1118 C1125 0.950 . S
C1119 C1117 1.387 . S
C1119 C1121 1.390 . S
C1119 H1123 0.950 . S
H1120 C1116 0.950 . S
C1121 C1119 1.390 . S
C1121 C1122 1.387 . S
C1121 H1124 0.950 . S
C1122 C1121 1.387 . S
C1122 C1125 1.387 . S
H1123 C1119 0.950 . S
H1124 C1121 0.950 . S
C1125 C1116 1.390 . S
C1125 H1118 0.950 . S
C1125 C1122 1.387 . S
C1126 C1127 1.387 . S
C1126 H1130 0.950 . S
C1126 C1135 1.390 . S
C1127 C1126 1.387 . S
C1127 C1129 1.387 . S
H1128 C1135 0.950 . S
C1129 C1127 1.387 . S
C1129 C1131 1.390 . S
C1129 H1133 0.950 . S
H1130 C1126 0.950 . S
C1131 C1129 1.390 . S
C1131 C1132 1.387 . S
C1131 H1134 0.950 . S
C1132 C1131 1.387 . S
C1132 C1135 1.387 . S
H1133 C1129 0.950 . S
H1134 C1131 0.950 . S
C1135 C1126 1.390 . S
C1135 H1128 0.950 . S
C1135 C1132 1.387 . S
C1136 C1137 1.387 . S
C1136 H1140 0.950 . S
C1136 C1145 1.390 . S
C1137 C1136 1.387 . S
C1137 C1139 1.387 . S
H1138 C1145 0.950 . S
C1139 C1137 1.387 . S
C1139 C1141 1.390 . S
C1139 H1143 0.950 . S
H1140 C1136 0.950 . S
C1141 C1139 1.390 . S
C1141 C1142 1.387 . S
C1141 H1144 0.950 . S
C1142 C1141 1.387 . S
C1142 C1145 1.387 . S
H1143 C1139 0.950 . S
H1144 C1141 0.950 . S
C1145 C1136 1.390 . S
C1145 H1138 0.950 . S
C1145 C1142 1.387 . S
C1146 C1147 1.387 . S
C1146 H1150 0.950 . S
C1146 C1155 1.390 . S
C1147 C1146 1.387 . S
C1147 C1149 1.387 . S
H1148 C1155 0.950 . S
C1149 C1147 1.387 . S
C1149 C1151 1.390 . S
C1149 H1153 0.950 . S
H1150 C1146 0.950 . S
C1151 C1149 1.390 . S
C1151 C1152 1.387 . S
C1151 H1154 0.950 . S
C1152 C1151 1.387 . S
C1152 C1155 1.387 . S
H1153 C1149 0.950 . S
H1154 C1151 0.950 . S
C1155 C1146 1.390 . S
C1155 H1148 0.950 . S
C1155 C1152 1.387 . S
C1156 C1157 1.387 . S
C1156 H1160 0.950 . S
C1156 C1165 1.390 . S
C1157 C1156 1.387 . S
C1157 C1159 1.387 . S
H1158 C1165 0.950 . S
C1159 C1157 1.387 . S
C1159 C1161 1.390 . S
C1159 H1163 0.950 . S
H1160 C1156 0.950 . S
C1161 C1159 1.390 . S
C1161 C1162 1.387 . S
C1161 H1164 0.950 . S
C1162 C1161 1.387 . S
C1162 C1165 1.387 . S
H1163 C1159 0.950 . S
H1164 C1161 0.950 . S
C1165 C1156 1.390 . S
C1165 H1158 0.950 . S
C1165 C1162 1.387 . S
C1166 C1167 1.387 . S
C1166 H1170 0.950 . S
C1166 C1175 1.390 . S
C1167 C1166 1.387 . S
C1167 C1169 1.387 . S
H1168 C1175 0.950 . S
C1169 C1167 1.387 . S
C1169 C1171 1.390 . S
C1169 H1173 0.950 . S
H1170 C1166 0.950 . S
C1171 C1169 1.390 . S
C1171 C1172 1.387 . S
C1171 H1174 0.950 . S
C1172 C1171 1.387 . S
C1172 C1175 1.387 . S
H1173 C1169 0.950 . S
H1174 C1171 0.950 . S
C1175 C1166 1.390 . S
C1175 H1168 0.950 . S
C1175 C1172 1.387 . S
C1176 C1177 1.387 . S
C1176 H1180 0.950 . S
C1176 C1185 1.390 . S
C1177 C1176 1.387 . S
C1177 C1179 1.387 . S
H1178 C1185 0.950 . S
C1179 C1177 1.387 . S
C1179 C1181 1.390 . S
C1179 H1183 0.950 . S
H1180 C1176 0.950 . S
C1181 C1179 1.390 . S
C1181 C1182 1.387 . S
C1181 H1184 0.950 . S
C1182 C1181 1.387 . S
C1182 C1185 1.387 . S
H1183 C1179 0.950 . S
H1184 C1181 0.950 . S
C1185 C1176 1.390 . S
C1185 H1178 0.950 . S
C1185 C1182 1.387 . S
C1186 C1187 1.387 . S
C1186 H1190 0.950 . S
C1186 C1195 1.390 . S
C1187 C1186 1.387 . S
C1187 C1189 1.387 . S
H1188 C1195 0.950 . S
C1189 C1187 1.387 . S
C1189 C1191 1.390 . S
C1189 H1193 0.950 . S
H1190 C1186 0.950 . S
C1191 C1189 1.390 . S
C1191 C1192 1.387 . S
C1191 H1194 0.950 . S
C1192 C1191 1.387 . S
C1192 C1195 1.387 . S
H1193 C1189 0.950 . S
H1194 C1191 0.950 . S
C1195 C1186 1.390 . S
C1195 H1188 0.950 . S
C1195 C1192 1.387 . S
C1196 C1197 1.387 . S
C1196 H1200 0.950 . S
C1196 C1205 1.390 . S
C1197 C1196 1.387 . S
C1197 C1199 1.387 . S
H1198 C1205 0.950 . S
C1199 C1197 1.387 . S
C1199 C1201 1.390 . S
C1199 H1203 0.950 . S
H1200 C1196 0.950 . S
C1201 C1199 1.390 . S
C1201 C1202 1.387 . S
C1201 H1204 0.950 . S
C1202 C1201 1.387 . S
C1202 C1205 1.387 . S
H1203 C1199 0.950 . S
H1204 C1201 0.950 . S
C1205 C1196 1.390 . S
C1205 H1198 0.950 . S
C1205 C1202 1.387 . S
C1206 C1207 1.387 . S
C1206 H1210 0.950 . S
C1206 C1215 1.390 . S
C1207 C1206 1.387 . S
C1207 C1209 1.387 . S
H1208 C1215 0.950 . S
C1209 C1207 1.387 . S
C1209 C1211 1.390 . S
C1209 H1213 0.950 . S
H1210 C1206 0.950 . S
C1211 C1209 1.390 . S
C1211 C1212 1.387 . S
C1211 H1214 0.950 . S
C1212 C1211 1.387 . S
C1212 C1215 1.387 . S
H1213 C1209 0.950 . S
H1214 C1211 0.950 . S
C1215 C1206 1.390 . S
C1215 H1208 0.950 . S
C1215 C1212 1.387 . S
C1216 C1217 1.387 . S
C1216 H1220 0.950 . S
C1216 C1225 1.390 1_556 S
C1217 C1216 1.387 . S
C1217 C1219 1.387 . S
H1218 C1225 0.950 . S
C1219 C1217 1.387 . S
C1219 C1221 1.390 1_556 S
C1219 H1223 0.950 . S
H1220 C1216 0.950 . S
C1221 C1219 1.390 1_554 S
C1221 C1222 1.387 . S
C1221 H1224 0.950 . S
C1222 C1221 1.387 . S
C1222 C1225 1.387 . S
H1223 C1219 0.950 . S
H1224 C1221 0.950 . S
C1225 C1216 1.390 1_554 S
C1225 H1218 0.950 . S
C1225 C1222 1.387 . S
C1226 C1227 1.387 1_655 S
C1226 H1230 0.950 . S
C1226 C1235 1.390 1_565 S
C1227 C1226 1.387 1_455 S
C1227 C1229 1.387 . S
H1228 C1235 0.950 . S
C1229 C1227 1.387 . S
C1229 C1231 1.390 1_565 S
C1229 H1233 0.950 . S
H1230 C1226 0.950 . S
C1231 C1229 1.390 1_545 S
C1231 C1232 1.387 . S
C1231 H1234 0.950 . S
C1232 C1231 1.387 . S
C1232 C1235 1.387 1_455 S
H1233 C1229 0.950 . S
H1234 C1231 0.950 . S
C1235 C1226 1.390 1_545 S
C1235 H1228 0.950 . S
C1235 C1232 1.387 1_655 S
C1236 C1237 1.387 . S
C1236 H1240 0.950 . S
C1236 C1245 1.390 . S
C1237 C1236 1.387 . S
C1237 C1239 1.387 . S
H1238 C1245 0.950 . S
C1239 C1237 1.387 . S
C1239 C1241 1.390 . S
C1239 H1243 0.950 . S
H1240 C1236 0.950 . S
C1241 C1239 1.390 . S
C1241 C1242 1.387 . S
C1241 H1244 0.950 . S
C1242 C1241 1.387 . S
C1242 C1245 1.387 . S
H1243 C1239 0.950 . S
H1244 C1241 0.950 . S
C1245 C1236 1.390 . S
C1245 H1238 0.950 . S
C1245 C1242 1.387 . S
C1246 C1247 1.387 . S
C1246 H1250 0.950 . S
C1246 C1255 1.390 1_545 S
C1247 C1246 1.387 . S
C1247 C1249 1.387 . S
H1248 C1255 0.950 . S
C1249 C1247 1.387 . S
C1249 C1251 1.390 1_545 S
C1249 H1253 0.950 . S
H1250 C1246 0.950 . S
C1251 C1249 1.390 1_565 S
C1251 C1252 1.387 . S
C1251 H1254 0.950 . S
C1252 C1251 1.387 . S
C1252 C1255 1.387 . S
H1253 C1249 0.950 . S
H1254 C1251 0.950 . S
C1255 C1246 1.390 1_565 S
C1255 H1248 0.950 . S
C1255 C1252 1.387 . S
C1256 C1257 1.387 . S
C1256 H1260 0.950 . S
C1256 C1265 1.390 1_556 S
C1257 C1256 1.387 . S
C1257 C1259 1.387 . S
H1258 C1265 0.950 . S
C1259 C1257 1.387 . S
C1259 C1261 1.390 1_556 S
C1259 H1263 0.950 . S
H1260 C1256 0.950 . S
C1261 C1259 1.390 1_554 S
C1261 C1262 1.387 . S
C1261 H1264 0.950 . S
C1262 C1261 1.387 . S
C1262 C1265 1.387 . S
H1263 C1259 0.950 . S
H1264 C1261 0.950 . S
C1265 C1256 1.390 1_554 S
C1265 H1258 0.950 . S
C1265 C1262 1.387 . S
C1266 C1267 1.387 1_455 S
C1266 H1270 0.950 . S
C1266 C1275 1.390 1_565 S
C1267 C1266 1.387 1_655 S
C1267 C1269 1.387 . S
H1268 C1275 0.950 . S
C1269 C1267 1.387 . S
C1269 C1271 1.390 1_565 S
C1269 H1273 0.950 . S
H1270 C1266 0.950 . S
C1271 C1269 1.390 1_545 S
C1271 C1272 1.387 . S
C1271 H1274 0.950 . S
C1272 C1271 1.387 . S
C1272 C1275 1.387 1_655 S
H1273 C1269 0.950 . S
H1274 C1271 0.950 . S
C1275 C1266 1.390 1_545 S
C1275 H1268 0.950 . S
C1275 C1272 1.387 1_455 S
C1276 C1277 1.387 . S
C1276 H1280 0.950 . S
C1276 C1285 1.390 . S
C1277 C1276 1.387 . S
C1277 C1279 1.387 . S
H1278 C1285 0.950 . S
C1279 C1277 1.387 . S
C1279 C1281 1.390 . S
C1279 H1283 0.950 . S
H1280 C1276 0.950 . S
C1281 C1279 1.390 . S
C1281 C1282 1.387 . S
C1281 H1284 0.950 . S
C1282 C1281 1.387 . S
C1282 C1285 1.387 . S
H1283 C1279 0.950 . S
H1284 C1281 0.950 . S
C1285 C1276 1.390 . S
C1285 H1278 0.950 . S
C1285 C1282 1.387 . S
C1286 C1287 1.387 . S
C1286 H1290 0.950 . S
C1286 C1295 1.390 1_545 S
C1287 C1286 1.387 . S
C1287 C1289 1.387 . S
H1288 C1295 0.950 . S
C1289 C1287 1.387 . S
C1289 C1291 1.390 1_545 S
C1289 H1293 0.950 . S
H1290 C1286 0.950 . S
C1291 C1289 1.390 1_565 S
C1291 C1292 1.387 . S
C1291 H1294 0.950 . S
C1292 C1291 1.387 . S
C1292 C1295 1.387 . S
H1293 C1289 0.950 . S
H1294 C1291 0.950 . S
C1295 C1286 1.390 1_565 S
C1295 H1288 0.950 . S
C1295 C1292 1.387 . S
C1296 C1297 1.387 . S
C1296 H1300 0.950 . S
C1296 C1305 1.390 . S
C1297 C1296 1.387 . S
C1297 C1299 1.387 . S
H1298 C1305 0.950 . S
C1299 C1297 1.387 . S
C1299 C1301 1.390 . S
C1299 H1303 0.950 . S
H1300 C1296 0.950 . S
C1301 C1299 1.390 . S
C1301 C1302 1.387 . S
C1301 H1304 0.950 . S
C1302 C1301 1.387 . S
C1302 C1305 1.387 . S
H1303 C1299 0.950 . S
H1304 C1301 0.950 . S
C1305 C1296 1.390 . S
C1305 H1298 0.950 . S
C1305 C1302 1.387 . S
C1306 C1307 1.387 . S
C1306 H1310 0.950 . S
C1306 C1315 1.390 . S
C1307 C1306 1.387 . S
C1307 C1309 1.387 . S
H1308 C1315 0.950 . S
C1309 C1307 1.387 . S
C1309 C1311 1.390 . S
C1309 H1313 0.950 . S
H1310 C1306 0.950 . S
C1311 C1309 1.390 . S
C1311 C1312 1.387 . S
C1311 H1314 0.950 . S
C1312 C1311 1.387 . S
C1312 C1315 1.387 . S
H1313 C1309 0.950 . S
H1314 C1311 0.950 . S
C1315 C1306 1.390 . S
C1315 H1308 0.950 . S
C1315 C1312 1.387 . S
C1316 C1317 1.387 . S
C1316 H1320 0.950 . S
C1316 C1325 1.390 1_556 S
C1317 C1316 1.387 . S
C1317 C1319 1.387 . S
H1318 C1325 0.950 . S
C1319 C1317 1.387 . S
C1319 C1321 1.390 1_556 S
C1319 H1323 0.950 . S
H1320 C1316 0.950 . S
C1321 C1319 1.390 1_554 S
C1321 C1322 1.387 . S
C1321 H1324 0.950 . S
C1322 C1321 1.387 . S
C1322 C1325 1.387 . S
H1323 C1319 0.950 . S
H1324 C1321 0.950 . S
C1325 C1316 1.390 1_554 S
C1325 H1318 0.950 . S
C1325 C1322 1.387 . S
C1326 C1327 1.387 1_455 S
C1326 H1330 0.950 . S
C1326 C1335 1.390 . S
C1327 C1326 1.387 1_655 S
C1327 C1329 1.387 . S
H1328 C1335 0.950 . S
C1329 C1327 1.387 . S
C1329 C1331 1.390 . S
C1329 H1333 0.950 . S
H1330 C1326 0.950 . S
C1331 C1329 1.390 . S
C1331 C1332 1.387 . S
C1331 H1334 0.950 . S
C1332 C1331 1.387 . S
C1332 C1335 1.387 1_655 S
H1333 C1329 0.950 . S
H1334 C1331 0.950 . S
C1335 C1326 1.390 . S
C1335 H1328 0.950 . S
C1335 C1332 1.387 1_455 S
C1336 C1337 1.387 . S
C1336 H1340 0.950 . S
C1336 C1345 1.390 . S
C1337 C1336 1.387 . S
C1337 C1339 1.387 . S
H1338 C1345 0.950 . S
C1339 C1337 1.387 . S
C1339 C1341 1.390 . S
C1339 H1343 0.950 . S
H1340 C1336 0.950 . S
C1341 C1339 1.390 . S
C1341 C1342 1.387 . S
C1341 H1344 0.950 . S
C1342 C1341 1.387 . S
C1342 C1345 1.387 . S
H1343 C1339 0.950 . S
H1344 C1341 0.950 . S
C1345 C1336 1.390 . S
C1345 H1338 0.950 . S
C1345 C1342 1.387 . S
C1346 C1347 1.387 . S
C1346 H1350 0.950 . S
C1346 C1355 1.390 . S
C1347 C1346 1.387 . S
C1347 C1349 1.387 . S
H1348 C1355 0.950 . S
C1349 C1347 1.387 . S
C1349 C1351 1.390 . S
C1349 H1353 0.950 . S
H1350 C1346 0.950 . S
C1351 C1349 1.390 . S
C1351 C1352 1.387 . S
C1351 H1354 0.950 . S
C1352 C1351 1.387 . S
C1352 C1355 1.387 . S
H1353 C1349 0.950 . S
H1354 C1351 0.950 . S
C1355 C1346 1.390 . S
C1355 H1348 0.950 . S
C1355 C1352 1.387 . S
C1356 C1357 1.387 . S
C1356 H1360 0.950 . S
C1356 C1365 1.390 1_554 S
C1357 C1356 1.387 . S
C1357 C1359 1.387 . S
H1358 C1365 0.950 . S
C1359 C1357 1.387 . S
C1359 C1361 1.390 1_554 S
C1359 H1363 0.950 . S
H1360 C1356 0.950 . S
C1361 C1359 1.390 1_556 S
C1361 C1362 1.387 . S
C1361 H1364 0.950 . S
C1362 C1361 1.387 . S
C1362 C1365 1.387 . S
H1363 C1359 0.950 . S
H1364 C1361 0.950 . S
C1365 C1356 1.390 1_556 S
C1365 H1358 0.950 . S
C1365 C1362 1.387 . S
C1366 C1367 1.387 . S
C1366 H1370 0.950 . S
C1366 C1375 1.390 . S
C1367 C1366 1.387 . S
C1367 C1369 1.387 1_455 S
H1368 C1375 0.950 . S
C1369 C1367 1.387 1_655 S
C1369 C1371 1.390 . S
C1369 H1373 0.950 . S
H1370 C1366 0.950 . S
C1371 C1369 1.390 . S
C1371 C1372 1.387 1_655 S
C1371 H1374 0.950 . S
C1372 C1371 1.387 1_455 S
C1372 C1375 1.387 . S
H1373 C1369 0.950 . S
H1374 C1371 0.950 . S
C1375 C1366 1.390 . S
C1375 H1368 0.950 . S
C1375 C1372 1.387 . S
C1376 C1377 1.387 . S
C1376 H1380 0.950 . S
C1376 C1385 1.390 . S
C1377 C1376 1.387 . S
C1377 C1379 1.387 . S
H1378 C1385 0.950 . S
C1379 C1377 1.387 . S
C1379 C1381 1.390 . S
C1379 H1383 0.950 . S
H1380 C1376 0.950 . S
C1381 C1379 1.390 . S
C1381 C1382 1.390 . S
C1381 H1384 0.950 . S
C1382 C1381 1.390 . S
C1382 C1385 1.389 . S
H1383 C1379 0.950 . S
H1384 C1381 0.950 . S
C1385 C1376 1.390 . S
C1385 H1378 0.950 . S
C1385 C1382 1.389 . S
C1386 C1387 1.387 . S
C1386 H1390 0.950 . S
C1386 C1395 1.390 . S
C1387 C1386 1.387 . S
C1387 C1389 1.387 . S
H1388 C1395 0.950 . S
C1389 C1387 1.387 . S
C1389 C1391 1.390 . S
C1389 H1393 0.950 . S
H1390 C1386 0.950 . S
C1391 C1389 1.390 . S
C1391 C1392 1.387 . S
C1391 H1394 0.950 1_545 S
C1392 C1391 1.387 . S
C1392 C1395 1.387 . S
H1393 C1389 0.950 . S
H1394 C1391 0.950 1_565 S
C1395 C1386 1.390 . S
C1395 H1388 0.950 . S
C1395 C1392 1.387 . S
C1396 C1397 1.387 . S
C1396 H1400 0.950 . S
C1396 C1405 1.390 . S
C1397 C1396 1.387 . S
C1397 C1399 1.387 . S
H1398 C1405 0.950 . S
C1399 C1397 1.387 . S
C1399 C1401 1.390 . S
C1399 H1403 0.950 . S
H1400 C1396 0.950 . S
C1401 C1399 1.390 . S
C1401 C1402 1.390 . S
C1401 H1404 0.950 . S
C1402 C1401 1.390 . S
C1402 C1405 1.390 . S
H1403 C1399 0.950 . S
H1404 C1401 0.950 . S
C1405 C1396 1.390 . S
C1405 H1398 0.950 . S
C1405 C1402 1.390 . S
C1406 C1407 1.388 . S
C1406 H1410 0.950 1_565 S
C1406 C1415 1.390 . S
C1407 C1406 1.388 . S
C1407 C1409 1.387 . S
H1408 C1415 0.950 1_545 S
C1409 C1407 1.387 . S
C1409 C1411 1.390 . S
C1409 H1413 0.950 . S
H1410 C1406 0.950 1_545 S
C1411 C1409 1.390 . S
C1411 C1412 1.387 . S
C1411 H1414 0.950 . S
C1412 C1411 1.387 . S
C1412 C1415 1.387 . S
H1413 C1409 0.950 . S
H1414 C1411 0.950 . S
C1415 C1406 1.390 . S
C1415 H1408 0.950 1_565 S
C1415 C1412 1.387 . S
C1416 C1417 1.387 . S
C1416 H1420 0.950 . S
C1416 C1425 1.390 . S
C1417 C1416 1.387 . S
C1417 C1419 1.387 . S
H1418 C1425 0.950 . S
C1419 C1417 1.387 . S
C1419 C1421 1.390 . S
C1419 H1423 0.950 . S
H1420 C1416 0.950 . S
C1421 C1419 1.390 . S
C1421 C1422 1.390 . S
C1421 H1424 0.950 . S
C1422 C1421 1.390 . S
C1422 C1425 1.389 . S
H1423 C1419 0.950 . S
H1424 C1421 0.950 . S
C1425 C1416 1.390 . S
C1425 H1418 0.950 . S
C1425 C1422 1.389 . S
C1426 C1427 1.387 . S
C1426 H1430 0.950 . S
C1426 C1435 1.390 . S
C1427 C1426 1.387 . S
C1427 C1429 1.387 . S
H1428 C1435 0.950 . S
C1429 C1427 1.387 . S
C1429 C1431 1.390 . S
C1429 H1433 0.950 . S
H1430 C1426 0.950 . S
C1431 C1429 1.390 . S
C1431 C1432 1.387 . S
C1431 H1434 0.950 . S
C1432 C1431 1.387 . S
C1432 C1435 1.387 . S
H1433 C1429 0.950 . S
H1434 C1431 0.950 . S
C1435 C1426 1.390 . S
C1435 H1428 0.950 . S
C1435 C1432 1.387 . S
C1436 C1437 1.387 . S
C1436 H1440 0.950 . S
C1436 C1445 1.390 . S
C1437 C1436 1.387 . S
C1437 C1439 1.387 . S
H1438 C1445 0.950 . S
C1439 C1437 1.387 . S
C1439 C1441 1.390 . S
C1439 H1443 0.950 . S
H1440 C1436 0.950 . S
C1441 C1439 1.390 . S
C1441 C1442 1.389 . S
C1441 H1444 0.953 . S
C1442 C1441 1.389 . S
C1442 C1445 1.390 . S
H1443 C1439 0.950 . S
H1444 C1441 0.953 . S
C1445 C1436 1.390 . S
C1445 H1438 0.950 . S
C1445 C1442 1.390 . S
C1446 C1447 1.387 . S
C1446 H1450 0.950 . S
C1446 C1455 1.390 . S
C1447 C1446 1.387 . S
C1447 C1449 1.387 . S
H1448 C1455 0.950 . S
C1449 C1447 1.387 . S
C1449 C1451 1.390 . S
C1449 H1453 0.950 1_565 S
H1450 C1446 0.950 . S
C1451 C1449 1.390 . S
C1451 C1452 1.387 . S
C1451 H1454 0.950 . S
C1452 C1451 1.387 . S
C1452 C1455 1.387 . S
H1453 C1449 0.950 1_545 S
H1454 C1451 0.950 . S
C1455 C1446 1.390 . S
C1455 H1448 0.950 . S
C1455 C1452 1.387 . S
C1456 C1457 1.390 . S
C1456 H1460 0.950 . S
C1456 C1465 1.390 . S
C1457 C1456 1.390 . S
C1457 C1459 1.389 . S
H1458 C1465 0.950 . S
C1459 C1457 1.389 . S
C1459 C1461 1.390 . S
C1459 H1463 0.950 . S
H1460 C1456 0.950 . S
C1461 C1459 1.390 . S
C1461 C1462 1.387 . S
C1461 H1464 0.950 . S
C1462 C1461 1.387 . S
C1462 C1465 1.387 . S
H1463 C1459 0.950 . S
H1464 C1461 0.950 . S
C1465 C1456 1.390 . S
C1465 H1458 0.950 . S
C1465 C1462 1.387 . S
C1466 C1467 1.387 1_545 S
C1466 H1470 0.950 . S
C1466 C1475 1.390 . S
C1467 C1466 1.387 1_565 S
C1467 C1469 1.387 . S
H1468 C1475 0.950 . S
C1469 C1467 1.387 . S
C1469 C1471 1.390 . S
C1469 H1473 0.950 . S
H1470 C1466 0.950 . S
C1471 C1469 1.390 . S
C1471 C1472 1.387 . S
C1471 H1474 0.950 . S
C1472 C1471 1.387 . S
C1472 C1475 1.387 1_565 S
H1473 C1469 0.950 . S
H1474 C1471 0.950 . S
C1475 C1466 1.390 . S
C1475 H1468 0.950 . S
C1475 C1472 1.387 1_545 S
C1476 C1477 1.390 . S
C1476 H1480 0.950 . S
C1476 C1485 1.390 . S
C1477 C1476 1.390 . S
C1477 C1479 1.390 . S
H1478 C1485 0.950 . S
C1479 C1477 1.390 . S
C1479 C1481 1.390 . S
C1479 H1483 0.950 . S
H1480 C1476 0.950 . S
C1481 C1479 1.390 . S
C1481 C1482 1.387 . S
C1481 H1484 0.950 . S
C1482 C1481 1.387 . S
C1482 C1485 1.387 . S
H1483 C1479 0.950 . S
H1484 C1481 0.950 . S
C1485 C1476 1.390 . S
C1485 H1478 0.950 . S
C1485 C1482 1.387 . S
C1486 C1487 1.387 . S
C1486 H1490 0.950 . S
C1486 C1495 1.390 . S
C1487 C1486 1.387 . S
C1487 C1489 1.387 . S
H1488 C1495 0.950 . S
C1489 C1487 1.387 . S
C1489 C1491 1.390 1_545 S
C1489 H1493 0.950 1_545 S
H1490 C1486 0.950 . S
C1491 C1489 1.390 1_565 S
C1491 C1492 1.387 1_565 S
C1491 H1494 0.950 . S
C1492 C1491 1.387 1_545 S
C1492 C1495 1.387 . S
H1493 C1489 0.950 1_565 S
H1494 C1491 0.950 . S
C1495 C1486 1.390 . S
C1495 H1488 0.950 . S
C1495 C1492 1.387 . S
C1496 C1497 1.387 . S
C1496 H1500 0.950 . S
C1496 C1505 1.390 . S
C1497 C1496 1.387 . S
C1497 C1499 1.387 . S
H1498 C1505 0.950 . S
C1499 C1497 1.387 . S
C1499 C1501 1.390 . S
C1499 H1503 0.950 . S
H1500 C1496 0.950 . S
C1501 C1499 1.390 . S
C1501 C1502 1.389 . S
C1501 H1504 0.950 . S
C1502 C1501 1.389 . S
C1502 C1505 1.390 . S
H1503 C1499 0.950 . S
H1504 C1501 0.950 . S
C1505 C1496 1.390 . S
C1505 H1498 0.950 . S
C1505 C1502 1.390 . S
C1506 C1507 1.387 . S
C1506 H1510 0.950 . S
C1506 C1515 1.390 . S
C1507 C1506 1.387 . S
C1507 C1509 1.387 . S
H1508 C1515 0.950 . S
C1509 C1507 1.387 . S
C1509 C1511 1.390 . S
C1509 H1513 0.950 . S
H1510 C1506 0.950 . S
C1511 C1509 1.390 . S
C1511 C1512 1.387 . S
C1511 H1514 0.950 . S
C1512 C1511 1.387 . S
C1512 C1515 1.387 . S
H1513 C1509 0.950 . S
H1514 C1511 0.950 . S
C1515 C1506 1.390 . S
C1515 H1508 0.950 . S
C1515 C1512 1.387 . S
C1516 C1517 1.390 . S
C1516 H1520 0.950 . S
C1516 C1525 1.390 . S
C1517 C1516 1.390 . S
C1517 C1519 1.391 . S
H1518 C1525 0.950 . S
C1519 C1517 1.391 . S
C1519 C1521 1.390 . S
C1519 H1523 0.950 . S
H1520 C1516 0.950 . S
C1521 C1519 1.390 . S
C1521 C1522 1.387 . S
C1521 H1524 0.950 . S
C1522 C1521 1.387 . S
C1522 C1525 1.387 . S
H1523 C1519 0.950 . S
H1524 C1521 0.950 . S
C1525 C1516 1.390 . S
C1525 H1518 0.950 . S
C1525 C1522 1.387 . S
C1526 C1527 1.387 1_565 S
C1526 H1530 0.950 . S
C1526 C1535 1.390 1_565 S
C1527 C1526 1.387 1_545 S
C1527 C1529 1.387 . S
H1528 C1535 0.950 1_565 S
C1529 C1527 1.387 . S
C1529 C1531 1.390 . S
C1529 H1533 0.950 . S
H1530 C1526 0.950 . S
C1531 C1529 1.390 . S
C1531 C1532 1.387 . S
C1531 H1534 0.950 . S
C1532 C1531 1.387 . S
C1532 C1535 1.387 . S
H1533 C1529 0.950 . S
H1534 C1531 0.950 . S
C1535 C1526 1.390 1_545 S
C1535 H1528 0.950 1_545 S
C1535 C1532 1.387 . S
C1536 C1537 1.387 . S
C1536 H1540 0.950 . S
C1536 C1545 1.390 . S
C1537 C1536 1.387 . S
C1537 C1539 1.387 . S
H1538 C1545 0.950 . S
C1539 C1537 1.387 . S
C1539 C1541 1.390 . S
C1539 H1543 0.950 . S
H1540 C1536 0.950 . S
C1541 C1539 1.390 . S
C1541 C1542 1.387 . S
C1541 H1544 0.950 . S
C1542 C1541 1.387 . S
C1542 C1545 1.387 . S
H1543 C1539 0.950 . S
H1544 C1541 0.950 . S
C1545 C1536 1.390 . S
C1545 H1538 0.950 . S
C1545 C1542 1.387 . S
C1546 C1547 1.387 . S
C1546 H1550 0.950 . S
C1546 C1555 1.390 . S
C1547 C1546 1.387 . S
C1547 C1549 1.387 . S
H1548 C1555 0.950 . S
C1549 C1547 1.387 . S
C1549 C1551 1.390 . S
C1549 H1553 0.950 . S
H1550 C1546 0.950 . S
C1551 C1549 1.390 . S
C1551 C1552 1.387 . S
C1551 H1554 0.950 . S
C1552 C1551 1.387 . S
C1552 C1555 1.387 . S
H1553 C1549 0.950 . S
H1554 C1551 0.950 . S
C1555 C1546 1.390 . S
C1555 H1548 0.950 . S
C1555 C1552 1.387 . S
C1556 C1557 1.387 . S
C1556 H1560 0.950 . S
C1556 C1565 1.390 . S
C1557 C1556 1.387 . S
C1557 C1559 1.387 . S
H1558 C1565 0.950 . S
C1559 C1557 1.387 . S
C1559 C1561 1.390 . S
C1559 H1563 0.950 . S
H1560 C1556 0.950 . S
C1561 C1559 1.390 . S
C1561 C1562 1.387 . S
C1561 H1564 0.950 . S
C1562 C1561 1.387 . S
C1562 C1565 1.387 . S
H1563 C1559 0.950 . S
H1564 C1561 0.950 . S
C1565 C1556 1.390 . S
C1565 H1558 0.950 . S
C1565 C1562 1.387 . S
C1566 C1567 1.387 . S
C1566 H1570 0.950 . S
C1566 C1575 1.390 . S
C1567 C1566 1.387 . S
C1567 C1569 1.387 . S
H1568 C1575 0.950 . S
C1569 C1567 1.387 . S
C1569 C1571 1.390 . S
C1569 H1573 0.950 . S
H1570 C1566 0.950 . S
C1571 C1569 1.390 . S
C1571 C1572 1.387 . S
C1571 H1574 0.950 . S
C1572 C1571 1.387 . S
C1572 C1575 1.387 . S
H1573 C1569 0.950 . S
H1574 C1571 0.950 . S
C1575 C1566 1.390 . S
C1575 H1568 0.950 . S
C1575 C1572 1.387 . S
C1576 C1577 1.387 . S
C1576 H1580 0.950 . S
C1576 C1585 1.390 . S
C1577 C1576 1.387 . S
C1577 C1579 1.387 . S
H1578 C1585 0.950 . S
C1579 C1577 1.387 . S
C1579 C1581 1.390 . S
C1579 H1583 0.950 . S
H1580 C1576 0.950 . S
C1581 C1579 1.390 . S
C1581 C1582 1.387 . S
C1581 H1584 0.950 . S
C1582 C1581 1.387 . S
C1582 C1585 1.387 . S
H1583 C1579 0.950 . S
H1584 C1581 0.950 . S
C1585 C1576 1.390 . S
C1585 H1578 0.950 . S
C1585 C1582 1.387 . S
C1586 C1587 1.387 . S
C1586 H1590 0.950 . S
C1586 C1595 1.390 . S
C1587 C1586 1.387 . S
C1587 C1589 1.387 . S
H1588 C1595 0.950 . S
C1589 C1587 1.387 . S
C1589 C1591 1.390 . S
C1589 H1593 0.950 . S
H1590 C1586 0.950 . S
C1591 C1589 1.390 . S
C1591 C1592 1.387 . S
C1591 H1594 0.950 . S
C1592 C1591 1.387 . S
C1592 C1595 1.387 . S
H1593 C1589 0.950 . S
H1594 C1591 0.950 . S
C1595 C1586 1.390 . S
C1595 H1588 0.950 . S
C1595 C1592 1.387 . S
C1596 C1597 1.387 . S
C1596 H1600 0.950 . S
C1596 C1605 1.390 . S
C1597 C1596 1.387 . S
C1597 C1599 1.387 . S
H1598 C1605 0.950 . S
C1599 C1597 1.387 . S
C1599 C1601 1.390 . S
C1599 H1603 0.950 . S
H1600 C1596 0.950 . S
C1601 C1599 1.390 . S
C1601 C1602 1.387 . S
C1601 H1604 0.950 . S
C1602 C1601 1.387 . S
C1602 C1605 1.387 . S
H1603 C1599 0.950 . S
H1604 C1601 0.950 . S
C1605 C1596 1.390 . S
C1605 H1598 0.950 . S
C1605 C1602 1.387 . S
C1606 C1607 1.387 . S
C1606 H1610 0.950 . S
C1606 C1615 1.390 . S
C1607 C1606 1.387 . S
C1607 C1609 1.387 . S
H1608 C1615 0.950 . S
C1609 C1607 1.387 . S
C1609 C1611 1.390 . S
C1609 H1613 0.950 . S
H1610 C1606 0.950 . S
C1611 C1609 1.390 . S
C1611 C1612 1.387 . S
C1611 H1614 0.950 . S
C1612 C1611 1.387 . S
C1612 C1615 1.387 . S
H1613 C1609 0.950 . S
H1614 C1611 0.950 . S
C1615 C1606 1.390 . S
C1615 H1608 0.950 . S
C1615 C1612 1.387 . S
C1616 C1617 1.387 . S
C1616 H1620 0.950 . S
C1616 C1625 1.390 . S
C1617 C1616 1.387 . S
C1617 C1619 1.387 . S
H1618 C1625 0.950 . S
C1619 C1617 1.387 . S
C1619 C1621 1.390 . S
C1619 H1623 0.950 . S
H1620 C1616 0.950 . S
C1621 C1619 1.390 . S
C1621 C1622 1.387 . S
C1621 H1624 0.950 . S
C1622 C1621 1.387 . S
C1622 C1625 1.387 . S
H1623 C1619 0.950 . S
H1624 C1621 0.950 . S
C1625 C1616 1.390 . S
C1625 H1618 0.950 . S
C1625 C1622 1.387 . S
C1626 C1627 1.387 . S
C1626 H1630 0.950 . S
C1626 C1635 1.390 . S
C1627 C1626 1.387 . S
C1627 C1629 1.387 . S
H1628 C1635 0.950 . S
C1629 C1627 1.387 . S
C1629 C1631 1.390 . S
C1629 H1633 0.950 . S
H1630 C1626 0.950 . S
C1631 C1629 1.390 . S
C1631 C1632 1.387 . S
C1631 H1634 0.950 . S
C1632 C1631 1.387 . S
C1632 C1635 1.387 . S
H1633 C1629 0.950 . S
H1634 C1631 0.950 . S
C1635 C1626 1.390 . S
C1635 H1628 0.950 . S
C1635 C1632 1.387 . S
C1636 C1637 1.387 . S
C1636 H1640 0.950 . S
C1636 C1645 1.390 . S
C1637 C1636 1.387 . S
C1637 C1639 1.387 . S
H1638 C1645 0.950 . S
C1639 C1637 1.387 . S
C1639 C1641 1.390 . S
C1639 H1643 0.950 . S
H1640 C1636 0.950 . S
C1641 C1639 1.390 . S
C1641 C1642 1.387 . S
C1641 H1644 0.950 . S
C1642 C1641 1.387 . S
C1642 C1645 1.387 . S
H1643 C1639 0.950 . S
H1644 C1641 0.950 . S
C1645 C1636 1.390 . S
C1645 H1638 0.950 . S
C1645 C1642 1.387 . S
C1646 C1647 1.387 . S
C1646 H1650 0.950 . S
C1646 C1655 1.390 . S
C1647 C1646 1.387 . S
C1647 C1649 1.387 . S
H1648 C1655 0.950 . S
C1649 C1647 1.387 . S
C1649 C1651 1.390 . S
C1649 H1653 0.950 . S
H1650 C1646 0.950 . S
C1651 C1649 1.390 . S
C1651 C1652 1.387 . S
C1651 H1654 0.950 . S
C1652 C1651 1.387 . S
C1652 C1655 1.387 . S
H1653 C1649 0.950 . S
H1654 C1651 0.950 . S
C1655 C1646 1.390 . S
C1655 H1648 0.950 . S
C1655 C1652 1.387 . S
C1656 C1657 1.387 . S
C1656 H1660 0.950 . S
C1656 C1665 1.390 . S
C1657 C1656 1.387 . S
C1657 C1659 1.387 . S
H1658 C1665 0.950 . S
C1659 C1657 1.387 . S
C1659 C1661 1.390 . S
C1659 H1663 0.950 . S
H1660 C1656 0.950 . S
C1661 C1659 1.390 . S
C1661 C1662 1.387 . S
C1661 H1664 0.950 . S
C1662 C1661 1.387 . S
C1662 C1665 1.387 . S
H1663 C1659 0.950 . S
H1664 C1661 0.950 . S
C1665 C1656 1.390 . S
C1665 H1658 0.950 . S
C1665 C1662 1.387 . S
C1666 C1667 1.387 . S
C1666 H1670 0.950 . S
C1666 C1675 1.390 . S
C1667 C1666 1.387 . S
C1667 C1669 1.387 . S
H1668 C1675 0.950 . S
C1669 C1667 1.387 . S
C1669 C1671 1.390 . S
C1669 H1673 0.950 . S
H1670 C1666 0.950 . S
C1671 C1669 1.390 . S
C1671 C1672 1.387 . S
C1671 H1674 0.950 . S
C1672 C1671 1.387 . S
C1672 C1675 1.387 . S
H1673 C1669 0.950 . S
H1674 C1671 0.950 . S
C1675 C1666 1.390 . S
C1675 H1668 0.950 . S
C1675 C1672 1.387 . S
C1676 C1677 1.387 . S
C1676 H1680 0.950 . S
C1676 C1685 1.390 . S
C1677 C1676 1.387 . S
C1677 C1679 1.387 . S
H1678 C1685 0.950 . S
C1679 C1677 1.387 . S
C1679 C1681 1.390 . S
C1679 H1683 0.950 . S
H1680 C1676 0.950 . S
C1681 C1679 1.390 . S
C1681 C1682 1.387 . S
C1681 H1684 0.950 . S
C1682 C1681 1.387 . S
C1682 C1685 1.387 . S
H1683 C1679 0.950 . S
H1684 C1681 0.950 . S
C1685 C1676 1.390 . S
C1685 H1678 0.950 . S
C1685 C1682 1.387 . S
C1686 C1687 1.387 . S
C1686 H1690 0.950 . S
C1686 C1695 1.390 . S
C1687 C1686 1.387 . S
C1687 C1689 1.387 . S
H1688 C1695 0.950 . S
C1689 C1687 1.387 . S
C1689 C1691 1.390 . S
C1689 H1693 0.950 . S
H1690 C1686 0.950 . S
C1691 C1689 1.390 . S
C1691 C1692 1.387 . S
C1691 H1694 0.950 . S
C1692 C1691 1.387 . S
C1692 C1695 1.387 . S
H1693 C1689 0.950 . S
H1694 C1691 0.950 . S
C1695 C1686 1.390 . S
C1695 H1688 0.950 . S
C1695 C1692 1.387 . S
C1696 C1697 1.387 . S
C1696 H1700 0.950 . S
C1696 C1705 1.390 . S
C1697 C1696 1.387 . S
C1697 C1699 1.387 . S
H1698 C1705 0.950 . S
C1699 C1697 1.387 . S
C1699 C1701 1.390 . S
C1699 H1703 0.950 . S
H1700 C1696 0.950 . S
C1701 C1699 1.390 . S
C1701 C1702 1.387 . S
C1701 H1704 0.950 . S
C1702 C1701 1.387 . S
C1702 C1705 1.387 . S
H1703 C1699 0.950 . S
H1704 C1701 0.950 . S
C1705 C1696 1.390 . S
C1705 H1698 0.950 . S
C1705 C1702 1.387 . S
C1706 C1707 1.387 . S
C1706 H1710 0.950 . S
C1706 C1715 1.390 1_655 S
C1707 C1706 1.387 . S
C1707 C1709 1.387 . S
H1708 C1715 0.950 . S
C1709 C1707 1.387 . S
C1709 C1711 1.390 1_655 S
C1709 H1713 0.950 . S
H1710 C1706 0.950 . S
C1711 C1709 1.390 1_455 S
C1711 C1712 1.387 . S
C1711 H1714 0.950 . S
C1712 C1711 1.387 . S
C1712 C1715 1.387 . S
H1713 C1709 0.950 . S
H1714 C1711 0.950 . S
C1715 C1706 1.390 1_455 S
C1715 H1708 0.950 . S
C1715 C1712 1.387 . S
C1716 C1717 1.387 . S
C1716 H1720 0.950 . S
C1716 C1725 1.390 1_455 S
C1717 C1716 1.387 . S
C1717 C1719 1.387 . S
H1718 C1725 0.950 . S
C1719 C1717 1.387 . S
C1719 C1721 1.390 1_455 S
C1719 H1723 0.950 . S
H1720 C1716 0.950 . S
C1721 C1719 1.390 1_655 S
C1721 C1722 1.387 . S
C1721 H1724 0.950 . S
C1722 C1721 1.387 . S
C1722 C1725 1.387 . S
H1723 C1719 0.950 . S
H1724 C1721 0.950 . S
C1725 C1716 1.390 1_655 S
C1725 H1718 0.950 . S
C1725 C1722 1.387 . S
C1726 C1727 1.387 . S
C1726 H1730 0.950 . S
C1726 C1735 1.390 . S
C1727 C1726 1.387 . S
C1727 C1729 1.387 . S
H1728 C1735 0.950 . S
C1729 C1727 1.387 . S
C1729 C1731 1.390 . S
C1729 H1733 0.950 . S
H1730 C1726 0.950 . S
C1731 C1729 1.390 . S
C1731 C1732 1.387 . S
C1731 H1734 0.950 . S
C1732 C1731 1.387 . S
C1732 C1735 1.387 . S
H1733 C1729 0.950 . S
H1734 C1731 0.950 . S
C1735 C1726 1.390 . S
C1735 H1728 0.950 . S
C1735 C1732 1.387 . S
C1736 C1737 1.387 . S
C1736 H1740 0.950 . S
C1736 C1745 1.390 . S
C1737 C1736 1.387 . S
C1737 C1739 1.387 . S
H1738 C1745 0.950 . S
C1739 C1737 1.387 . S
C1739 C1741 1.390 . S
C1739 H1743 0.950 . S
H1740 C1736 0.950 . S
C1741 C1739 1.390 . S
C1741 C1742 1.387 . S
C1741 H1744 0.950 . S
C1742 C1741 1.387 . S
C1742 C1745 1.387 . S
H1743 C1739 0.950 . S
H1744 C1741 0.950 . S
C1745 C1736 1.390 . S
C1745 H1738 0.950 . S
C1745 C1742 1.387 . S
C1746 C1747 1.387 . S
C1746 H1750 0.950 . S
C1746 C1755 1.390 . S
C1747 C1746 1.387 . S
C1747 C1749 1.387 . S
H1748 C1755 0.950 . S
C1749 C1747 1.387 . S
C1749 C1751 1.390 . S
C1749 H1753 0.950 . S
H1750 C1746 0.950 . S
C1751 C1749 1.390 . S
C1751 C1752 1.387 . S
C1751 H1754 0.950 . S
C1752 C1751 1.387 . S
C1752 C1755 1.387 . S
H1753 C1749 0.950 . S
H1754 C1751 0.950 . S
C1755 C1746 1.390 . S
C1755 H1748 0.950 . S
C1755 C1752 1.387 . S
C1756 C1757 1.387 . S
C1756 H1760 0.950 . S
C1756 C1765 1.390 1_655 S
C1757 C1756 1.387 . S
C1757 C1759 1.387 . S
H1758 C1765 0.950 . S
C1759 C1757 1.387 . S
C1759 C1761 1.390 1_655 S
C1759 H1763 0.950 . S
H1760 C1756 0.950 . S
C1761 C1759 1.390 1_455 S
C1761 C1762 1.387 . S
C1761 H1764 0.950 . S
C1762 C1761 1.387 . S
C1762 C1765 1.387 . S
H1763 C1759 0.950 . S
H1764 C1761 0.950 . S
C1765 C1756 1.390 1_455 S
C1765 H1758 0.950 . S
C1765 C1762 1.387 . S
C1766 C1767 1.387 . S
C1766 H1770 0.950 . S
C1766 C1775 1.390 1_655 S
C1767 C1766 1.387 . S
C1767 C1769 1.387 . S
H1768 C1775 0.950 . S
C1769 C1767 1.387 . S
C1769 C1771 1.390 1_655 S
C1769 H1773 0.950 . S
H1770 C1766 0.950 . S
C1771 C1769 1.390 1_455 S
C1771 C1772 1.387 . S
C1771 H1774 0.950 . S
C1772 C1771 1.387 . S
C1772 C1775 1.387 . S
H1773 C1769 0.950 . S
H1774 C1771 0.950 . S
C1775 C1766 1.390 1_455 S
C1775 H1768 0.950 . S
C1775 C1772 1.387 . S
C1776 C1777 1.387 . S
C1776 H1780 0.950 . S
C1776 C1785 1.390 . S
C1777 C1776 1.387 . S
C1777 C1779 1.387 . S
H1778 C1785 0.950 . S
C1779 C1777 1.387 . S
C1779 C1781 1.390 . S
C1779 H1783 0.950 . S
H1780 C1776 0.950 . S
C1781 C1779 1.390 . S
C1781 C1782 1.387 . S
C1781 H1784 0.950 . S
C1782 C1781 1.387 . S
C1782 C1785 1.387 . S
H1783 C1779 0.950 . S
H1784 C1781 0.950 . S
C1785 C1776 1.390 . S
C1785 H1778 0.950 . S
C1785 C1782 1.387 . S
C1786 C1787 1.387 . S
C1786 H1790 0.950 . S
C1786 C1795 1.390 1_455 S
C1787 C1786 1.387 . S
C1787 C1789 1.387 . S
H1788 C1795 0.950 . S
C1789 C1787 1.387 . S
C1789 C1791 1.390 1_455 S
C1789 H1793 0.950 . S
H1790 C1786 0.950 . S
C1791 C1789 1.390 1_655 S
C1791 C1792 1.387 . S
C1791 H1794 0.950 . S
C1792 C1791 1.387 . S
C1792 C1795 1.387 . S
H1793 C1789 0.950 . S
H1794 C1791 0.950 . S
C1795 C1786 1.390 1_655 S
C1795 H1788 0.950 . S
C1795 C1792 1.387 . S
C1796 C1797 1.387 . S
C1796 H1800 0.950 . S
C1796 C1805 1.390 1_655 S
C1797 C1796 1.387 . S
C1797 C1799 1.387 . S
H1798 C1805 0.950 . S
C1799 C1797 1.387 . S
C1799 C1801 1.390 1_655 S
C1799 H1803 0.950 . S
H1800 C1796 0.950 . S
C1801 C1799 1.390 1_455 S
C1801 C1802 1.387 . S
C1801 H1804 0.950 . S
C1802 C1801 1.387 . S
C1802 C1805 1.387 . S
H1803 C1799 0.950 . S
H1804 C1801 0.950 . S
C1805 C1796 1.390 1_455 S
C1805 H1798 0.950 . S
C1805 C1802 1.387 . S
C1806 C1807 1.387 . S
C1806 H1810 0.950 . S
C1806 C1815 1.390 . S
C1807 C1806 1.387 . S
C1807 C1809 1.387 . S
H1808 C1815 0.950 . S
C1809 C1807 1.387 . S
C1809 C1811 1.390 . S
C1809 H1813 0.950 . S
H1810 C1806 0.950 . S
C1811 C1809 1.390 . S
C1811 C1812 1.387 . S
C1811 H1814 0.950 . S
C1812 C1811 1.387 . S
C1812 C1815 1.387 . S
H1813 C1809 0.950 . S
H1814 C1811 0.950 . S
C1815 C1806 1.390 . S
C1815 H1808 0.950 . S
C1815 C1812 1.387 . S
C1816 C1817 1.387 . S
C1816 H1820 0.950 . S
C1816 C1825 1.390 . S
C1817 C1816 1.387 . S
C1817 C1819 1.387 . S
H1818 C1825 0.950 . S
C1819 C1817 1.387 . S
C1819 C1821 1.390 . S
C1819 H1823 0.950 . S
H1820 C1816 0.950 . S
C1821 C1819 1.390 . S
C1821 C1822 1.387 . S
C1821 H1824 0.950 . S
C1822 C1821 1.387 . S
C1822 C1825 1.387 . S
H1823 C1819 0.950 . S
H1824 C1821 0.950 . S
C1825 C1816 1.390 . S
C1825 H1818 0.950 . S
C1825 C1822 1.387 . S
C1826 C1827 1.387 . S
C1826 H1830 0.950 . S
C1826 C1835 1.390 . S
C1827 C1826 1.387 . S
C1827 C1829 1.387 . S
H1828 C1835 0.950 . S
C1829 C1827 1.387 . S
C1829 C1831 1.390 . S
C1829 H1833 0.950 . S
H1830 C1826 0.950 . S
C1831 C1829 1.390 . S
C1831 C1832 1.387 . S
C1831 H1834 0.950 . S
C1832 C1831 1.387 . S
C1832 C1835 1.387 . S
H1833 C1829 0.950 . S
H1834 C1831 0.950 . S
C1835 C1826 1.390 . S
C1835 H1828 0.950 . S
C1835 C1832 1.387 . S
C1836 C1837 1.387 . S
C1836 H1840 0.950 . S
C1836 C1845 1.390 1_455 S
C1837 C1836 1.387 . S
C1837 C1839 1.387 . S
H1838 C1845 0.950 . S
C1839 C1837 1.387 . S
C1839 C1841 1.390 1_455 S
C1839 H1843 0.950 . S
H1840 C1836 0.950 . S
C1841 C1839 1.390 1_655 S
C1841 C1842 1.387 . S
C1841 H1844 0.950 . S
C1842 C1841 1.387 . S
C1842 C1845 1.387 . S
H1843 C1839 0.950 . S
H1844 C1841 0.950 . S
C1845 C1836 1.390 1_655 S
C1845 H1838 0.950 . S
C1845 C1842 1.387 . S
C1846 C1847 1.387 . S
C1846 H1850 0.950 . S
C1846 C1855 1.390 1_455 S
C1847 C1846 1.387 . S
C1847 C1849 1.387 . S
H1848 C1855 0.950 . S
C1849 C1847 1.387 . S
C1849 C1851 1.390 1_455 S
C1849 H1853 0.950 . S
H1850 C1846 0.950 . S
C1851 C1849 1.390 1_655 S
C1851 C1852 1.387 . S
C1851 H1854 0.950 . S
C1852 C1851 1.387 . S
C1852 C1855 1.387 . S
H1853 C1849 0.950 . S
H1854 C1851 0.950 . S
C1855 C1846 1.390 1_655 S
C1855 H1848 0.950 . S
C1855 C1852 1.387 . S
C1057 C18 1.512 . S
C1062 C249 1.510 . S
C1067 C51 1.512 . S
C1072 C150 1.510 . S
C1077 C84 1.511 . S
C1082 C183 1.513 . S
C1087 C117 1.512 . S
C1092 C216 1.512 . S
C1097 C513 1.510 . S
C1102 C282 1.512 . S
C1107 C315 1.512 . S
C1112 C414 1.510 . S
C1117 C447 1.512 . S
C1122 C348 1.512 . S
C1127 C381 1.512 . S
C1132 C480 1.510 . S
C1137 C546 1.510 . S
C1142 C777 1.511 . S
C1147 C678 1.511 . S
C1152 C579 1.512 . S
C1157 C612 1.512 . S
C1162 C711 1.513 . S
C1167 C645 1.512 . S
C1172 C744 1.512 . S
C1177 C810 1.511 . S
C1182 C1041 1.512 . S
C1187 C843 1.510 . S
C1192 C942 1.511 . S
C1197 C975 1.512 . S
C1202 C876 1.512 . S
C1207 C1008 1.512 . S
C1212 C909 1.510 . S
C1217 C205 1.620 . S
C1222 C7 1.620 . S
C1227 C40 1.623 . S
C1232 C238 1.623 . S
C1237 C73 1.623 . S
C1242 C139 1.623 . S
C1247 C106 1.623 . S
C1252 C172 1.623 . S
C1257 C271 1.620 . S
C1262 C469 1.620 . S
C1267 C502 1.620 . S
C1272 C304 1.620 . S
C1277 C403 1.620 . S
C1282 C337 1.620 . S
C1287 C436 1.620 . S
C1292 C370 1.620 . S
C1297 C535 1.620 . S
C1302 C733 1.620 . S
C1307 C766 1.623 . S
C1312 C568 1.623 . S
C1317 C667 1.623 . S
C1322 C601 1.623 . S
C1327 C634 1.623 . S
C1332 C700 1.623 . S
C1337 C997 1.620 . S
C1342 C799 1.620 . S
C1347 C832 1.620 . S
C1352 C1030 1.620 . S
C1357 C931 1.620 . S
C1362 C865 1.620 . S
C1367 C964 1.623 . S
C1372 C898 1.623 . S
C1377 N926 1.350 . S
C1382 N13 1.345 1_565 S
C1387 N431 1.350 . S
C1392 N46 1.349 . S
C1397 N992 1.351 . S
C1402 N79 1.344 1_545 S
C1407 N112 1.350 . S
C1412 N497 1.351 . S
C1417 N794 1.350 . S
C1422 N145 1.345 1_545 S
C1427 N299 1.350 . S
C1432 N178 1.349 . S
C1437 N860 1.352 . S
C1442 N211 1.346 1_565 S
C1447 N244 1.349 . S
C1452 N365 1.350 . S
C1457 N277 1.345 1_545 S
C1462 N662 1.350 . S
C1467 N310 1.349 . S
C1472 N167 1.350 . S
C1477 N343 1.344 1_565 S
C1482 N728 1.351 . S
C1487 N233 1.351 . S
C1492 N376 1.349 . S
C1497 N530 1.350 . S
C1502 N409 1.345 1_565 S
C1507 N442 1.350 . S
C1512 N35 1.351 . S
C1517 N475 1.345 1_545 S
C1522 N596 1.351 . S
C1527 N508 1.349 . S
C1532 N101 1.350 . S
C1537 N398 1.349 . S
C1542 N541 1.348 . S
C1547 N574 1.349 . S
C1552 N959 1.351 . S
C1557 N464 1.351 . S
C1562 N607 1.350 . S
C1567 N640 1.349 . S
C1572 N1025 1.351 . S
C1577 N673 1.349 . S
C1582 N266 1.350 . S
C1587 N706 1.349 . S
C1592 N827 1.350 . S
C1597 N332 1.350 . S
C1602 N739 1.349 . S
C1607 N772 1.349 . S
C1612 N893 1.350 . S
C1617 N134 1.351 . S
C1622 N805 1.350 . S
C1627 N695 1.351 . S
C1632 N838 1.349 . S
C1637 N200 1.350 . S
C1642 N871 1.349 . S
C1647 N761 1.351 . S
C1652 N904 1.349 . S
C1657 N2 1.350 . S
C1662 N937 1.348 . S
C1667 N563 1.351 . S
C1672 N970 1.350 . S
C1677 N1003 1.349 . S
C1682 N68 1.351 . S
C1687 N629 1.351 . S
C1692 N1036 1.349 . S
C1697 C615 1.123 . S
C1702 C21 1.123 . S
C1707 C648 1.124 . S
C1712 C54 1.124 . S
C1717 C87 1.124 . S
C1722 C549 1.124 . S
C1727 C120 1.123 . S
C1732 C582 1.123 . S
C1737 C747 1.124 . S
C1742 C153 1.124 . S
C1747 C186 1.123 . S
C1752 C780 1.123 . S
C1757 C681 1.123 . S
C1762 C219 1.123 . S
C1767 C714 1.124 . S
C1772 C252 1.124 . S
C1777 C879 1.123 . S
C1782 C285 1.123 . S
C1787 C912 1.124 . S
C1792 C318 1.124 . S
C1797 C351 1.124 . S
C1802 C813 1.124 . S
C1807 C384 1.123 . S
C1812 C846 1.123 . S
C1817 C417 1.124 . S
C1822 C1011 1.124 . S
C1827 C450 1.124 . S
C1832 C1044 1.124 . S
C1837 C945 1.124 . S
C1842 C483 1.124 . S
C1847 C978 1.124 . S
C1852 C516 1.124 . S
