# Generated by pormake.
# Topology sxb, (6)-cn, num edge types: 1
# Building blocks:
#     Node 0, Type 0, BuildingBlock: BETDIP_clean_sbu_0, # of connection points: 6
#     Node 1, Type 0, BuildingBlock: BETDIP_clean_sbu_0, # of connection points: 6
#     Node 2, Type 0, BuildingBlock: BETDIP_clean_sbu_0, # of connection points: 6
#     Node 3, Type 0, BuildingBlock: BETDIP_clean_sbu_0, # of connection points: 6
#     Edge 4, Type (0, 0), BuildingBlock: FUNLAD_clean_linker_1, # of connection points: 2
#     Edge 5, Type (0, 0), BuildingBlock: FUNLAD_clean_linker_1, # of connection points: 2
#     Edge 6, Type (0, 0), BuildingBlock: FUNLAD_clean_linker_1, # of connection points: 2
#     Edge 7, Type (0, 0), BuildingBlock: FUNLAD_clean_linker_1, # of connection points: 2
#     Edge 8, Type (0, 0), BuildingBlock: FUNLAD_clean_linker_1, # of connection points: 2
#     Edge 9, Type (0, 0), BuildingBlock: FUNLAD_clean_linker_1, # of connection points: 2
#     Edge 10, Type (0, 0), BuildingBlock: FUNLAD_clean_linker_1, # of connection points: 2
#     Edge 11, Type (0, 0), BuildingBlock: FUNLAD_clean_linker_1, # of connection points: 2
#     Edge 12, Type (0, 0), BuildingBlock: FUNLAD_clean_linker_1, # of connection points: 2
#     Edge 13, Type (0, 0), BuildingBlock: FUNLAD_clean_linker_1, # of connection points: 2
#     Edge 14, Type (0, 0), BuildingBlock: FUNLAD_clean_linker_1, # of connection points: 2
#     Edge 15, Type (0, 0), BuildingBlock: FUNLAD_clean_linker_1, # of connection points: 2
# Relax obj value: 0.402
# Max RMSD: 0.127
# Mean RMSD: 0.086
data_MOF--net-sxb--node1-BETDIP_clean_sbu_0--edge1-FUNLAD_clean_linker_1
_symmetry_space_group_name_H-M    P1
_symmetry_Int_Tables_number       1
_symmetry_cell_setting            triclinic
loop_
_symmetry_equiv_pos_as_xyz
'x, y, z'
_cell_length_a     18.646631
_cell_length_b     37.70061
_cell_length_c     31.171818
_cell_angle_alpha  95.114385
_cell_angle_beta   95.401093
_cell_angle_gamma 70.472416
loop_
_atom_site_label
_atom_site_type_symbol
_atom_site_fract_x
_atom_site_fract_y
_atom_site_fract_z
_atom_type_partial_charge
Tb0 Tb 1.00678 1.01687 0.99345 0.0
Tb1 Tb 0.14763 1.02436 0.99222 0.0
C2 C 0.87615 1.02899 0.01726 0.0
C3 C 0.81584 0.06631 0.01851 0.0
C4 C 0.79155 0.08451 0.05855 0.0
C5 C 0.75169 0.12329 0.06182 0.0
C6 C 0.73527 0.14425 0.02509 0.0
C7 C 0.75642 0.12588 0.98487 0.0
C8 C 0.79581 0.08728 0.98149 0.0
C9 C 1.04545 1.0117 0.91307 0.0
C10 C 1.00742 0.10557 0.99109 0.0
C11 C 0.27345 1.02288 0.96882 0.0
C12 C 0.35691 1.00727 0.97014 0.0
C13 C 0.39087 1.00499 0.93129 0.0
C14 C 0.46168 1.01004 0.93188 0.0
C15 C 0.49813 1.01756 0.97143 0.0
C16 C 0.47199 1.01147 0.00997 0.0
C17 C 0.40077 1.00671 0.00942 0.0
C18 C 0.10841 1.02543 0.07274 0.0
C19 C 0.14824 0.93552 0.99347 0.0
O20 O 0.9351 1.02714 0.04433 0.0
O21 O 0.89666 1.01345 0.97907 0.0
O22 O 1.05595 0.0352 0.94295 0.0
O23 O 1.01005 0.99159 0.92796 0.0
O24 O 0.96721 0.08283 -0.00321 0.0
O25 O 1.0816 0.08721 0.98554 0.0
O26 O 0.23239 1.0042 0.94736 0.0
O27 O 0.2423 0.04215 0.00319 0.0
O28 O 0.09986 1.00388 0.04079 0.0
O29 O 0.14418 0.04646 0.06052 0.0
O30 O 0.18943 0.95849 0.9901 0.0
O31 O 1.07278 0.95344 -0.00278 0.0
H32 H 0.80717 0.06916 0.08766 0.0
H33 H 0.73478 0.13702 0.09305 0.0
H34 H 0.74489 0.14168 0.95622 0.0
H35 H 0.81471 0.07449 0.95024 0.0
H36 H 0.35829 1.00491 0.9006 0.0
H37 H 0.482 1.01379 0.90171 0.0
H38 H 0.50016 1.01647 0.04081 0.0
H39 H 0.37615 1.00779 0.03984 0.0
Tb40 Tb 0.11171 0.9892 0.49234 0.0
Tb41 Tb 1.05249 0.06467 0.49952 0.0
C42 C 0.14801 0.91967 0.50252 0.0
C43 C 0.11345 0.88989 0.49244 0.0
C44 C 1.03789 0.89544 0.50116 0.0
C45 C 1.00568 0.86715 0.48956 0.0
C46 C 1.04827 0.83294 0.46843 0.0
C47 C 0.12429 0.82735 0.46061 0.0
C48 C 0.15655 0.85557 0.47246 0.0
C49 C 0.086 1.01728 0.41471 0.0
C50 C 0.91702 1.02688 0.49219 0.0
C51 C 1.01934 0.13433 0.4921 0.0
C52 C 1.05794 0.16131 0.50826 0.0
C53 C 1.04118 0.19526 0.48845 0.0
C54 C 1.07991 0.22044 0.50298 0.0
C55 C 0.1361 0.21195 0.5374 0.0
C56 C 0.15108 0.17819 0.55797 0.0
C57 C 0.1127 0.15297 0.54322 0.0
C58 C 1.08004 0.03636 0.57718 0.0
C59 C 0.24572 1.02875 0.4968 0.0
O60 O 0.11794 0.94599 0.53208 0.0
O61 O 0.16407 0.9334 0.46918 0.0
O62 O 1.04154 1.0276 0.44523 0.0
O63 O 0.14561 0.99008 0.42708 0.0
O64 O 0.98028 0.9956 0.49594 0.0
O65 O 0.93414 0.05825 0.48826 0.0
O66 O 1.0543 0.10868 0.46319 0.0
O67 O 0.99444 0.11998 0.52172 0.0
O68 O 0.12385 1.02652 0.54636 0.0
O69 O 1.01947 0.06295 0.56478 0.0
O70 O 0.18065 0.05886 0.49456 0.0
O71 O 0.23252 0.99603 0.49979 0.0
H72 H 1.00356 0.92163 0.51681 0.0
H73 H 0.94782 0.87233 0.49765 0.0
H74 H 0.15867 0.80121 0.44485 0.0
H75 H 0.21507 0.85076 0.46556 0.0
H76 H 0.99888 0.20206 0.46145 0.0
H77 H 1.067 0.24629 0.48668 0.0
H78 H 0.19217 0.17087 0.58531 0.0
H79 H 0.12603 0.12683 0.559 0.0
Tb80 Tb 0.50941 0.51955 0.98824 0.0
Tb81 Tb 0.65478 0.52335 -0.00243 0.0
C82 C 0.38938 0.50849 0.00401 0.0
C83 C 0.3194 0.53308 0.02307 0.0
C84 C 0.28127 0.51783 0.04911 0.0
C85 C 0.21381 0.54069 0.0667 0.0
C86 C 0.18322 0.57898 0.05793 0.0
C87 C 0.22379 0.59477 0.03417 0.0
C88 C 0.29142 0.57191 0.01665 0.0
C89 C 0.56274 0.51903 0.91175 0.0
C90 C 0.50682 0.60621 0.99352 0.0
C91 C 0.7738 0.5352 0.98128 0.0
C92 C 0.8429 0.51175 0.96054 0.0
C93 C 0.87864 0.52847 0.93474 0.0
C94 C 0.94563 0.50681 0.91584 0.0
C95 C 0.97825 0.46827 0.92309 0.0
C96 C 0.93979 0.45101 0.94643 0.0
C97 C 0.87254 0.47266 0.96524 0.0
C98 C 0.60125 0.52485 0.07421 0.0
C99 C 0.65671 0.43656 0.99221 0.0
O100 O 0.45065 0.50056 0.03033 0.0
O101 O 0.40163 0.51679 0.96612 0.0
O102 O 0.59897 0.5012 0.9441 0.0
O103 O 0.49319 0.53673 0.92138 0.0
O104 O 0.46339 0.58429 0.99404 0.0
O105 O 0.58288 0.58719 0.99361 0.0
O106 O 0.71143 0.54397 0.95587 0.0
O107 O 0.76359 0.52522 0.01875 0.0
O108 O 0.56505 0.5422 0.04153 0.0
O109 O 0.67086 0.50707 0.06474 0.0
O110 O 0.70033 0.45844 0.99162 0.0
O111 O 0.58075 0.45571 0.99229 0.0
H112 H 0.30285 0.48811 0.05511 0.0
H113 H 0.1837 0.52817 0.08556 0.0
H114 H 0.20087 0.62422 0.02703 0.0
H115 H 0.3206 0.58441 -0.00284 0.0
H116 H 0.85562 0.55841 0.93 0.0
H117 H 0.97394 0.52045 0.89721 0.0
H118 H 0.96418 0.42132 0.95233 0.0
H119 H 0.84499 0.45905 0.98438 0.0
Tb120 Tb 0.61008 0.4916 0.49824 0.0
Tb121 Tb 0.56122 0.56673 0.491 0.0
C122 C 0.63831 0.42569 0.52116 0.0
C123 C 0.59342 0.40404 0.53525 0.0
C124 C 0.6242 0.37903 0.56799 0.0
C125 C 0.583 0.35743 0.58089 0.0
C126 C 0.51032 0.36056 0.56132 0.0
C127 C 0.47924 0.38625 0.52884 0.0
C128 C 0.5203 0.40789 0.51615 0.0
C129 C 0.6178 0.50748 0.41735 0.0
C130 C 0.41905 0.53346 0.49186 0.0
C131 C 0.53193 0.63272 0.46806 0.0
C132 C 0.57456 0.65303 0.44917 0.0
C133 C 0.63731 0.63369 0.42491 0.0
C134 C 0.68199 0.65306 0.41089 0.0
C135 C 0.66477 0.69199 0.4214 0.0
C136 C 0.59936 0.7114 0.44359 0.0
C137 C 0.5548 0.69203 0.45754 0.0
C138 C 0.55432 0.5503 0.57177 0.0
C139 C 0.75192 0.52524 0.49757 0.0
O140 O 0.64376 0.45369 0.54757 0.0
O141 O 0.62532 0.43476 0.48103 0.0
O142 O 0.56275 0.52344 0.44118 0.0
O143 O 0.66906 0.48207 0.43892 0.0
O144 O 0.47856 0.50177 0.49957 0.0
O145 O 0.43997 0.56323 0.48496 0.0
O146 O 0.51759 0.60569 0.44339 0.0
O147 O 0.55542 0.62277 0.50735 0.0
O148 O 0.60915 0.53474 0.54777 0.0
O149 O 0.50271 0.57589 0.55064 0.0
O150 O 0.69239 0.55654 0.48845 0.0
O151 O 0.73101 0.49574 0.50573 0.0
H152 H 0.68053 0.37585 0.5832 0.0
H153 H 0.60856 0.33776 0.60575 0.0
H154 H 0.42447 0.38923 0.51194 0.0
H155 H 0.49533 0.42706 0.49077 0.0
H156 H 0.65281 0.60353 0.4177 0.0
H157 H 0.73038 0.63725 0.39265 0.0
H158 H 0.58446 0.7414 0.45183 0.0
H159 H 0.50625 0.70735 0.47603 0.0
H160 H 0.52044 0.66416 0.99333 0.0
C161 C 0.4747 0.65242 0.99345 0.0
H162 H 0.35488 0.66851 -0.00431 0.0
H163 H 0.19396 0.8408 0.05496 0.0
H164 H 0.16169 0.80598 0.10722 0.0
H165 H 0.22111 0.73726 0.10895 0.0
H166 H 0.31459 0.70214 0.059 0.0
C167 C 0.3999 0.68052 -0.00579 0.0
C168 C 0.36808 0.72727 -0.00504 0.0
C169 C 0.31026 0.75029 0.02348 0.0
C170 C 0.27321 0.79199 0.02217 0.0
C171 C 0.22092 0.81059 0.05333 0.0
C172 C 0.20231 0.79088 0.0838 0.0
C173 C 0.23587 0.75207 0.08478 0.0
C174 C 0.28917 0.73212 0.05547 0.0
H175 H 0.13719 0.87731 -0.00457 0.0
C176 C 0.1822 0.88931 0.9939 0.0
H177 H 0.3014 0.87351 0.98929 0.0
H178 H 0.4647 0.70105 0.93233 0.0
H179 H 0.49643 0.73575 0.87969 0.0
H180 H 0.43581 0.80435 0.87726 0.0
H181 H 0.34195 0.8395 0.92696 0.0
C182 C 0.25701 0.86135 0.99201 0.0
C183 C 0.28932 0.81459 0.99161 0.0
C184 C 0.34706 0.79152 0.96303 0.0
C185 C 0.38437 0.74985 0.9645 0.0
C186 C 0.43712 0.73122 0.93358 0.0
C187 C 0.45551 0.75086 0.90295 0.0
C188 C 0.42131 0.7896 0.9016 0.0
C189 C 0.3678 0.80959 0.93079 0.0
H190 H 0.64203 0.37888 0.99284 0.0
C191 C 0.68819 0.39025 0.9922 0.0
H192 H 0.80853 0.37352 0.99317 0.0
H193 H 0.98597 0.2074 0.05063 0.0
H194 H 1.03583 0.24765 0.10061 0.0
H195 H 0.97762 0.3166 0.10263 0.0
H196 H 0.8682 0.34665 0.05524 0.0
C197 C 0.76272 0.36173 0.99251 0.0
C198 C 0.79382 0.315 0.99366 0.0
C199 C 0.86024 0.29482 0.02103 0.0
C200 C 0.89607 0.25291 0.01982 0.0
C201 C 0.95857 0.23749 0.04937 0.0
C202 C 0.98754 0.26035 0.07842 0.0
C203 C 0.9547 0.29929 0.07953 0.0
C204 C 0.89203 0.31628 0.05167 0.0
H205 H 1.01989 0.16338 0.98785 0.0
C206 C 0.97456 0.15188 0.99074 0.0
H207 H 0.8547 0.16895 0.99343 0.0
H208 H 0.67892 0.33459 0.93279 0.0
H209 H 0.63152 0.29431 0.88156 0.0
H210 H 0.69034 0.22547 0.87944 0.0
H211 H 0.79627 0.19531 0.92903 0.0
C212 C 0.90036 0.18045 0.99234 0.0
C213 C 0.8695 0.2271 0.99084 0.0
C214 C 0.80339 0.24723 0.96335 0.0
C215 C 0.76762 0.28915 0.96446 0.0
C216 C 0.70614 0.30452 0.93429 0.0
C217 C 0.67864 0.28164 0.90447 0.0
C218 C 0.71168 0.24273 0.90338 0.0
C219 C 0.77255 0.22572 0.9323 0.0
H220 H 0.15827 0.26569 0.53533 0.0
C221 C 0.17918 0.23843 0.54955 0.0
H222 H 0.27239 0.20189 0.58603 0.0
H223 H 0.48341 0.28094 0.5128 0.0
H224 H 0.52873 0.21825 0.47828 0.0
H225 H 0.4675 0.17111 0.4883 0.0
H226 H 0.35978 0.18678 0.53254 0.0
C227 C 0.24609 0.22945 0.57329 0.0
C228 C 0.29235 0.25483 0.57568 0.0
C229 C 0.3575 0.24457 0.55138 0.0
C230 C 0.39404 0.27141 0.54664 0.0
C231 C 0.45526 0.26136 0.51926 0.0
C232 C 0.48154 0.22546 0.49879 0.0
C233 C 0.44699 0.19895 0.50435 0.0
C234 C 0.38526 0.20833 0.52995 0.0
H235 H 0.50529 0.31078 0.59196 0.0
C236 C 0.47177 0.33454 0.57323 0.0
H237 H 0.3618 0.36169 0.5438 0.0
H238 H 0.17547 0.28107 0.62935 0.0
H239 H 0.13227 0.34322 0.6665 0.0
H240 H 0.19714 0.38957 0.65957 0.0
H241 H 0.30561 0.37401 0.61562 0.0
C242 C 0.39956 0.33736 0.55992 0.0
C243 C 0.36688 0.3079 0.56781 0.0
C244 C 0.30459 0.31725 0.59422 0.0
C245 C 0.26719 0.29065 0.59816 0.0
C246 C 0.20499 0.3006 0.6247 0.0
C247 C 0.17998 0.33605 0.64639 0.0
C248 C 0.21653 0.36213 0.64251 0.0
C249 C 0.27839 0.35293 0.61697 0.0
H250 H 1.05602 0.77444 0.44605 0.0
C251 C 1.0164 0.80219 0.45477 0.0
H252 H 0.89938 0.83452 0.45707 0.0
H253 H 0.76035 0.73077 0.33557 0.0
H254 H 0.74163 0.7825 0.28974 0.0
H255 H 0.80147 0.83135 0.31095 0.0
H256 H 0.88057 0.8287 0.37782 0.0
C257 C 0.94151 0.80689 0.45194 0.0
C258 C 0.91241 0.77535 0.43747 0.0
C259 C 0.86665 0.77736 0.3982 0.0
C260 C 0.83154 0.74953 0.38616 0.0
C261 C 0.78678 0.75181 0.34658 0.0
C262 C 0.77607 0.78116 0.3199 0.0
C263 C 0.80981 0.80864 0.33183 0.0
C264 C 0.85483 0.80686 0.3704 0.0
H265 H 0.69371 0.74366 0.41797 0.0
C266 C 0.71587 0.71306 0.41316 0.0
H267 H 0.81661 0.66635 0.40495 0.0
H268 H 0.99781 0.76256 0.51505 0.0
H269 H 1.02074 0.70931 0.55846 0.0
H270 H 0.96221 0.66015 0.53631 0.0
H271 H 0.87972 0.66437 0.47091 0.0
C272 C 0.79057 0.69675 0.40724 0.0
C273 C 0.84121 0.72018 0.41377 0.0
C274 C 0.89143 0.71654 0.45143 0.0
C275 C 0.92637 0.74448 0.46369 0.0
C276 C 0.97202 0.74154 0.5031 0.0
C277 C 0.98515 0.71122 0.52866 0.0
C278 C 0.95208 0.68361 0.51627 0.0
C279 C 0.90498 0.68634 0.47846 0.0
H280 H 0.58906 0.04038 -0.00137 0.0
C281 C 0.5425 0.04363 0.97391 0.0
H282 H 0.46102 0.08128 0.93281 0.0
H283 H 0.55866 0.19592 0.08208 0.0
H284 H 0.50431 0.16795 0.13244 0.0
H285 H 0.45672 0.11526 0.10813 0.0
H286 H 0.46491 0.08975 0.03405 0.0
C287 C 0.5104 0.07695 0.95576 0.0
C288 C 0.53219 0.11075 0.96995 0.0
C289 C 0.52276 0.12649 0.01307 0.0
C290 C 0.54696 0.15784 0.02669 0.0
C291 C 0.5407 0.17213 0.07023 0.0
C292 C 0.50921 0.15652 0.09932 0.0
C293 C 0.48261 0.12681 0.08566 0.0
C294 C 0.48866 0.11204 0.04305 0.0
H295 H 0.72359 0.20412 0.04301 0.0
C296 C 0.69392 0.18531 0.02818 0.0
H297 H 0.59218 0.22999 0.01536 0.0
H298 H 0.54785 0.09077 0.8837 0.0
H299 H 0.58758 0.124 0.83219 0.0
H300 H 0.61901 0.18169 0.85515 0.0
H301 H 0.61244 0.20608 0.93046 0.0
C302 C 0.62079 0.19972 0.01313 0.0
C303 C 0.57673 0.17439 -0.00319 0.0
C304 C 0.57625 0.16193 0.9527 0.0
C305 C 0.5559 0.12939 0.93934 0.0
C306 C 0.5612 0.11587 0.89549 0.0
C307 C 0.58406 0.13463 0.86562 0.0
C308 C 0.60196 0.16709 0.87859 0.0
C309 C 0.59823 0.18071 0.92166 0.0
H310 H 0.32298 0.06328 0.48712 0.0
C311 C 0.33047 0.0346 0.49435 0.0
H312 H 0.41684 0.98262 0.50552 0.0
H313 H 0.7515 0.952 0.45293 0.0
H314 H 0.71391 0.89986 0.42039 0.0
H315 H 0.58102 0.90129 0.41815 0.0
H316 H 0.48369 0.95421 0.44917 0.0
C317 C 0.41086 1.01116 0.4985 0.0
C318 C 0.49636 1.01642 0.4936 0.0
C319 C 0.55843 0.9866 0.47356 0.0
C320 C 0.63907 0.9863 0.4733 0.0
C321 C 0.69238 0.95417 0.45402 0.0
C322 C 0.67148 0.92398 0.43499 0.0
C323 C 0.59653 0.92476 0.43383 0.0
C324 C 0.54103 0.9554 0.4524 0.0
H325 H 0.81328 1.00595 0.49997 0.0
C326 C 0.82496 1.02991 0.48933 0.0
H327 H 0.71165 1.02576 0.47567 0.0
H328 H 0.41432 0.0778 0.53826 0.0
H329 H 0.4529 0.12914 0.57341 0.0
H330 H 0.58379 0.12993 0.57154 0.0
H331 H 0.6798 0.07895 0.53449 0.0
C332 C 0.7662 1.01158 0.49345 0.0
C333 C 0.66834 1.01714 0.49068 0.0
C334 C 0.60492 0.04668 0.51256 0.0
C335 C 0.52423 0.04637 0.51326 0.0
C336 C 0.47248 0.07666 0.53587 0.0
C337 C 0.49418 0.10623 0.55636 0.0
C338 C 0.56829 0.10662 0.55541 0.0
C339 C 0.62283 0.07734 0.53413 0.0
H340 H 1.06892 0.42179 0.89147 0.0
C341 C 1.05754 0.44743 0.91232 0.0
H342 H 0.17394 0.44191 0.92181 0.0
H343 H 1.06274 0.61967 0.97899 0.0
H344 H 0.11251 0.62 0.90975 0.0
H345 H 0.16015 0.56117 0.8641 0.0
H346 H 0.15776 0.50173 0.88725 0.0
C347 C 0.11649 0.45784 0.93057 0.0
C348 C 0.10477 0.49109 0.96222 0.0
C349 C 0.10876 0.52522 0.94881 0.0
C350 C 1.08287 0.55894 0.97552 0.0
C351 C 1.08378 0.59307 0.9604 0.0
C352 C 0.11172 0.59368 0.92066 0.0
C353 C 0.13843 0.56056 0.89493 0.0
C354 C 0.13669 0.52668 0.90856 0.0
H355 H 0.09286 0.62653 0.0883 0.0
C356 C 0.10381 0.60091 0.06745 0.0
H357 H 0.98693 0.60797 0.05587 0.0
H358 H 0.10031 0.42937 0.00026 0.0
H359 H 1.05039 0.42904 0.06946 0.0
H360 H 1.00127 0.488 0.1147 0.0
H361 H 1.00269 0.54754 0.09125 0.0
C362 C 1.04459 0.59133 0.04814 0.0
C363 C 1.05639 0.55809 0.0165 0.0
C364 C 1.05243 0.52395 0.02991 0.0
C365 C 1.07873 0.4902 0.00332 0.0
C366 C 1.07863 0.45601 0.01867 0.0
C367 C 1.05064 0.45541 0.0584 0.0
C368 C 1.0231 0.48859 0.0839 0.0
C369 C 1.02427 0.52253 0.0701 0.0
H370 H 0.3153 0.51281 0.49303 0.0
C371 C 0.32714 0.53895 0.49252 0.0
H372 H 0.2196 0.53983 0.51524 0.0
H373 H 0.91673 0.58574 0.43937 0.0
H374 H 0.95934 0.62538 0.39804 0.0
H375 H 0.09447 0.62028 0.40055 0.0
H376 H 0.19002 0.57562 0.44521 0.0
C377 C 0.27049 0.52047 0.49941 0.0
C378 C 0.17304 0.5279 0.49823 0.0
C379 C 0.11112 0.55275 0.47056 0.0
C380 C 1.02897 0.55537 0.46873 0.0
C381 C 0.97697 0.58223 0.4422 0.0
C382 C 1.00075 0.60514 0.41814 0.0
C383 C 1.07712 0.60223 0.41951 0.0
C384 C 0.13143 0.57648 0.44514 0.0
H385 H 0.85528 0.54609 0.49609 0.0
C386 C 0.8438 0.51993 0.4971 0.0
H387 H 0.95124 0.51923 0.47414 0.0
H388 H 0.25359 0.4739 0.55054 0.0
H389 H 0.21086 0.43488 0.59257 0.0
H390 H 1.07567 0.44005 0.59034 0.0
H391 H 0.98023 0.48423 0.54505 0.0
C392 C 0.90007 0.53853 0.48981 0.0
C393 C 0.99744 0.53136 0.49127 0.0
C394 C 1.05926 0.5067 0.51916 0.0
C395 C 0.14142 0.50404 0.52093 0.0
C396 C 0.19336 0.47738 0.54769 0.0
C397 C 0.1695 0.45479 0.57214 0.0
C398 C 0.09309 0.4578 0.57096 0.0
C399 C 1.03885 0.48328 0.54498 0.0
H400 H 1.01374 0.05109 0.36139 0.0
C401 C 1.06709 1.02891 0.3689 0.0
H402 H 0.16938 0.99159 0.3456 0.0
H403 H 0.97697 1.02444 0.15444 0.0
H404 H 0.88844 0.99825 0.18061 0.0
H405 H 0.89881 0.98257 0.25655 0.0
H406 H 0.9966 0.99406 0.30726 0.0
C407 C 0.11519 1.01286 0.33705 0.0
C408 C 0.10374 1.02464 0.29078 0.0
C409 C 1.04827 1.01649 0.26063 0.0
C410 C 1.04516 1.02351 0.21573 0.0
C411 C 0.98531 1.01755 0.18784 0.0
C412 C 0.93339 1.00291 0.20261 0.0
C413 C 0.93903 0.99422 0.24543 0.0
C414 C 0.99544 1.001 0.27425 0.0
H415 H 0.10163 0.99061 0.12516 0.0
C416 C 0.10302 1.01822 0.11883 0.0
H417 H 0.10079 0.07166 0.14526 0.0
H418 H 0.21254 0.047 0.33882 0.0
H419 H 0.30409 0.07136 0.31267 0.0
H420 H 0.30536 0.07905 0.23509 0.0
H421 H 0.215 0.06282 0.18314 0.0
C422 C 0.0996 0.04419 0.1524 0.0
C423 C 0.10041 0.03675 0.19987 0.0
C424 C 0.1552 0.04535 0.23032 0.0
C425 C 0.1561 0.0398 0.27534 0.0
C426 C 0.2104 0.04973 0.30441 0.0
C427 C 0.26313 0.06392 0.28988 0.0
C428 C 0.26369 0.06835 0.24622 0.0
C429 C 0.21088 0.05911 0.2167 0.0
H430 H 1.01448 0.99892 0.84478 0.0
C431 C 1.047 1.01382 0.86522 0.0
H432 H 0.11839 0.04684 0.86561 0.0
H433 H 0.10541 0.96742 0.6615 0.0
H434 H 0.15596 0.90719 0.69374 0.0
H435 H 0.1785 0.9037 0.77269 0.0
H436 H 0.14839 0.96045 0.82007 0.0
C437 C 0.08627 0.03148 0.8456 0.0
C438 C 1.08285 0.03301 0.7966 0.0
C439 C 0.10522 0.99966 0.76863 0.0
C440 C 0.0969 1.00174 0.72245 0.0
C441 C 0.11393 0.96774 0.69625 0.0
C442 C 0.14262 0.93288 0.7144 0.0
C443 C 0.15497 0.93091 0.75888 0.0
C444 C 0.13671 0.96375 0.78577 0.0
H445 H 0.16152 1.01151 0.63254 0.0
C446 C 0.1027 1.02783 0.62378 0.0
H447 H 0.99423 0.05779 0.64537 0.0
H448 H 1.03721 0.10283 0.83862 0.0
H449 H 0.99679 0.16306 0.80647 0.0
H450 H 0.99197 0.16664 0.72765 0.0
H451 H 1.02674 0.10995 0.68028 0.0
C452 C 1.05225 0.04084 0.65508 0.0
C453 C 1.07075 0.03726 0.70354 0.0
C454 C 1.0529 0.07054 0.73164 0.0
C455 C 1.05795 0.06846 0.77764 0.0
C456 C 1.03638 0.10251 0.80386 0.0
C457 C 1.01273 0.13739 0.78581 0.0
C458 C 1.00982 0.13941 0.74142 0.0
C459 C 1.02954 0.10656 0.71456 0.0
H460 H 0.66918 0.48744 0.35511 0.0
C461 C 0.61939 0.50783 0.36906 0.0
H462 H 0.51736 0.552 0.35461 0.0
H463 H 0.60973 0.58623 0.17437 0.0
H464 H 0.60609 0.64306 0.21849 0.0
H465 H 0.5882 0.64771 0.29641 0.0
H466 H 0.57382 0.59562 0.33097 0.0
C467 C 0.56628 0.53028 0.34154 0.0
C468 C 0.57507 0.52753 0.29288 0.0
C469 C 0.58184 0.55841 0.27226 0.0
C470 C 0.59221 0.55571 0.22673 0.0
C471 C 0.60112 0.58678 0.20827 0.0
C472 C 0.59928 0.61957 0.23328 0.0
C473 C 0.58915 0.62221 0.27718 0.0
C474 C 0.58072 0.59209 0.2966 0.0
H475 H 0.51754 0.55146 0.12424 0.0
C476 C 0.57484 0.5323 0.11956 0.0
H477 H 0.67582 0.49622 0.14928 0.0
H478 H 0.55259 0.46479 0.31826 0.0
H479 H 0.55637 0.40809 0.27413 0.0
H480 H 0.57826 0.40279 0.19672 0.0
H481 H 0.59562 0.45442 0.16263 0.0
C482 C 0.61954 0.51629 0.15456 0.0
C483 C 0.59566 0.52212 0.20092 0.0
C484 C 0.58668 0.49169 0.22131 0.0
C485 C 0.57553 0.49449 0.26668 0.0
C486 C 0.56384 0.46388 0.28472 0.0
C487 C 0.56523 0.43121 0.25963 0.0
C488 C 0.57748 0.42824 0.21601 0.0
C489 C 0.58778 0.45803 0.1969 0.0
H490 H 0.49532 0.56208 0.63213 0.0
C491 C 0.54958 0.54602 0.61904 0.0
H492 H 0.66115 0.51016 0.63509 0.0
H493 H 0.66021 0.55658 0.8374 0.0
H494 H 0.75592 0.5801 0.81517 0.0
H495 H 0.77873 0.57831 0.73827 0.0
H496 H 0.70558 0.55314 0.68287 0.0
C497 C 0.60524 0.5252 0.64672 0.0
C498 C 0.59364 0.52422 0.69457 0.0
C499 C 0.63778 0.53815 0.72737 0.0
C500 C 0.62513 0.53876 0.77237 0.0
C501 C 0.66826 0.55453 0.8033 0.0
C502 C 0.72325 0.56836 0.79093 0.0
C503 C 0.73607 0.56736 0.7476 0.0
C504 C 0.6938 0.5527 0.7161 0.0
H505 H 0.64818 0.49518 0.86207 0.0
C506 C 0.59031 0.5136 0.86676 0.0
H507 H 0.48728 0.54776 0.83711 0.0
H508 H 0.50749 0.48937 0.64289 0.0
H509 H 0.41409 0.46427 0.66516 0.0
H510 H 0.39024 0.4666 0.74197 0.0
H511 H 0.46037 0.49364 0.79724 0.0
C512 C 0.54584 0.53045 0.83207 0.0
C513 C 0.56878 0.52489 0.78546 0.0
C514 C 0.52678 0.50961 0.75271 0.0
C515 C 0.5396 0.5089 0.7078 0.0
C516 C 0.49844 0.49193 0.67693 0.0
C517 C 0.44501 0.47708 0.68932 0.0
C518 C 0.43165 0.47835 0.7326 0.0
C519 C 0.47203 0.4942 0.764 0.0
loop_
_geom_bond_atom_site_label_1
_geom_bond_atom_site_label_2
_geom_bond_distance
_geom_bond_site_symmetry_2
_ccdc_geom_bond_type
Tb0 C2 2.808 1_565 S
Tb0 O20 2.484 1_566 S
Tb0 O21 2.440 . S
Tb0 O22 2.658 1_655 S
Tb0 O23 2.409 . S
Tb0 O24 2.378 1_565 S
Tb0 O28 2.325 1_566 S
Tb0 O31 2.341 1_655 S
Tb1 C11 2.809 1_545 S
Tb1 O22 2.325 1_544 S
Tb1 O25 2.341 1_455 S
Tb1 O26 2.484 1_544 S
Tb1 O27 2.440 . S
Tb1 O28 2.658 1_455 S
Tb1 O29 2.409 . S
Tb1 O30 2.378 1_545 S
C2 Tb0 2.808 1_545 S
C2 C3 1.514 . S
C2 O20 1.250 1_556 S
C2 O21 1.264 1_545 S
C3 C2 1.514 . S
C3 C4 1.359 1_556 S
C3 C8 1.348 . S
C4 C3 1.359 1_554 S
C4 C5 1.380 . S
C4 H32 0.929 . S
C5 C4 1.380 . S
C5 C6 1.347 . S
C5 H33 0.931 . S
C6 C5 1.347 . S
C6 C7 1.369 1_554 S
C7 C6 1.369 1_556 S
C7 C8 1.408 . S
C7 H34 0.930 . S
C8 C3 1.348 . S
C8 C7 1.408 . S
C8 H35 0.930 . S
C9 O22 1.281 1_655 S
C9 O23 1.254 . S
C10 O24 1.236 . S
C10 O25 1.266 1_556 S
C11 Tb1 2.809 1_565 S
C11 C12 1.513 . S
C11 O26 1.248 1_554 S
C11 O27 1.266 1_565 S
C12 C11 1.513 . S
C12 C13 1.359 1_554 S
C12 C17 1.348 . S
C13 C12 1.359 1_556 S
C13 C14 1.380 . S
C13 H36 0.929 . S
C14 C13 1.380 . S
C14 C15 1.347 . S
C14 H37 0.931 . S
C15 C14 1.347 . S
C15 C16 1.369 1_556 S
C16 C15 1.369 1_554 S
C16 C17 1.408 . S
C16 H38 0.930 . S
C17 C12 1.348 . S
C17 C16 1.408 . S
C17 H39 0.930 . S
C18 O28 1.281 1_455 S
C18 O29 1.254 . S
C19 O30 1.236 . S
C19 O31 1.266 1_554 S
O20 Tb0 2.484 1_544 S
O20 C2 1.250 1_554 S
O21 Tb0 2.440 . S
O21 C2 1.264 1_565 S
O22 Tb0 2.658 1_455 S
O22 Tb1 2.325 1_566 S
O22 C9 1.281 1_455 S
O23 Tb0 2.409 . S
O23 C9 1.254 . S
O24 Tb0 2.378 1_545 S
O24 C10 1.236 . S
O25 Tb1 2.341 1_655 S
O25 C10 1.266 1_554 S
O26 Tb1 2.484 1_566 S
O26 C11 1.248 1_556 S
O27 Tb1 2.440 . S
O27 C11 1.266 1_545 S
O28 Tb0 2.325 1_544 S
O28 Tb1 2.658 1_655 S
O28 C18 1.281 1_655 S
O29 Tb1 2.409 . S
O29 C18 1.254 . S
O30 Tb1 2.378 1_565 S
O30 C19 1.236 . S
O31 Tb0 2.341 1_455 S
O31 C19 1.266 1_556 S
H32 C4 0.929 . S
H33 C5 0.931 . S
H34 C7 0.930 . S
H35 C8 0.930 . S
H36 C13 0.929 . S
H37 C14 0.931 . S
H38 C16 0.930 . S
H39 C17 0.930 . S
Tb40 C42 2.809 1_455 S
Tb40 O60 2.484 1_455 S
Tb40 O61 2.440 1_455 S
Tb40 O62 2.658 1_565 S
Tb40 O63 2.409 . S
Tb40 O64 2.378 1_455 S
Tb40 O68 2.325 1_455 S
Tb40 O71 2.341 . S
Tb41 C51 2.809 1_655 S
Tb41 O62 2.325 1_655 S
Tb41 O65 2.341 . S
Tb41 O66 2.484 1_655 S
Tb41 O67 2.440 1_655 S
Tb41 O68 2.658 1_545 S
Tb41 O69 2.409 . S
Tb41 O70 2.378 1_655 S
C42 Tb40 2.809 1_655 S
C42 C43 1.514 . S
C42 O60 1.248 . S
C42 O61 1.266 . S
C43 C42 1.514 . S
C43 C44 1.359 . S
C43 C48 1.348 . S
C44 C43 1.359 . S
C44 C45 1.380 . S
C44 H72 0.929 . S
C45 C44 1.380 . S
C45 C46 1.347 . S
C45 H73 0.931 . S
C46 C45 1.347 . S
C46 C47 1.369 . S
C47 C46 1.369 . S
C47 C48 1.408 . S
C47 H74 0.930 . S
C48 C43 1.348 . S
C48 C47 1.408 . S
C48 H75 0.930 . S
C49 O62 1.281 1_565 S
C49 O63 1.254 . S
C50 O64 1.236 1_545 S
C50 O65 1.266 . S
C51 Tb41 2.809 1_455 S
C51 C52 1.514 . S
C51 O66 1.248 . S
C51 O67 1.266 . S
C52 C51 1.514 . S
C52 C53 1.359 . S
C52 C57 1.348 . S
C53 C52 1.359 . S
C53 C54 1.380 . S
C53 H76 0.929 . S
C54 C53 1.380 . S
C54 C55 1.347 . S
C54 H77 0.931 . S
C55 C54 1.347 . S
C55 C56 1.369 . S
C56 C55 1.369 . S
C56 C57 1.408 . S
C56 H78 0.930 . S
C57 C52 1.348 . S
C57 C56 1.408 . S
C57 H79 0.930 . S
C58 O68 1.281 1_545 S
C58 O69 1.254 . S
C59 O70 1.236 1_565 S
C59 O71 1.266 . S
O60 Tb40 2.484 1_655 S
O60 C42 1.248 . S
O61 Tb40 2.440 1_655 S
O61 C42 1.266 . S
O62 Tb40 2.658 1_545 S
O62 Tb41 2.325 1_455 S
O62 C49 1.281 1_545 S
O63 Tb40 2.409 . S
O63 C49 1.254 . S
O64 Tb40 2.378 1_655 S
O64 C50 1.236 1_565 S
O65 Tb41 2.341 . S
O65 C50 1.266 . S
O66 Tb41 2.484 1_455 S
O66 C51 1.248 . S
O67 Tb41 2.440 1_455 S
O67 C51 1.266 . S
O68 Tb40 2.325 1_655 S
O68 Tb41 2.658 1_565 S
O68 C58 1.281 1_565 S
O69 Tb41 2.409 . S
O69 C58 1.254 . S
O70 Tb41 2.378 1_455 S
O70 C59 1.236 1_545 S
O71 Tb40 2.341 . S
O71 C59 1.266 . S
H72 C44 0.929 . S
H73 C45 0.931 . S
H74 C47 0.930 . S
H75 C48 0.930 . S
H76 C53 0.929 . S
H77 C54 0.931 . S
H78 C56 0.930 . S
H79 C57 0.930 . S
Tb80 C82 2.809 . S
Tb80 O100 2.484 1_556 S
Tb80 O101 2.440 . S
Tb80 O102 2.658 . S
Tb80 O103 2.409 . S
Tb80 O104 2.378 . S
Tb80 O108 2.325 1_556 S
Tb80 O111 2.341 . S
Tb81 C91 2.809 . S
Tb81 O102 2.325 1_554 S
Tb81 O105 2.341 . S
Tb81 O106 2.484 1_554 S
Tb81 O107 2.440 . S
Tb81 O108 2.658 . S
Tb81 O109 2.409 . S
Tb81 O110 2.378 . S
C82 Tb80 2.809 . S
C82 C83 1.514 . S
C82 O100 1.248 1_556 S
C82 O101 1.266 . S
C83 C82 1.514 . S
C83 C84 1.359 1_556 S
C83 C88 1.348 . S
C84 C83 1.359 1_554 S
C84 C85 1.380 . S
C84 H112 0.929 . S
C85 C84 1.380 . S
C85 C86 1.347 . S
C85 H113 0.931 . S
C86 C85 1.347 . S
C86 C87 1.369 1_554 S
C87 C86 1.369 1_556 S
C87 C88 1.408 . S
C87 H114 0.930 . S
C88 C83 1.348 . S
C88 C87 1.408 . S
C88 H115 0.930 . S
C89 O102 1.281 . S
C89 O103 1.254 . S
C90 O104 1.236 . S
C90 O105 1.266 1_556 S
C91 Tb81 2.809 . S
C91 C92 1.514 . S
C91 O106 1.248 1_554 S
C91 O107 1.266 . S
C92 C91 1.514 . S
C92 C93 1.359 1_554 S
C92 C97 1.348 . S
C93 C92 1.359 1_556 S
C93 C94 1.380 . S
C93 H116 0.929 . S
C94 C93 1.380 . S
C94 C95 1.347 . S
C94 H117 0.931 . S
C95 C94 1.347 . S
C95 C96 1.369 1_556 S
C96 C95 1.369 1_554 S
C96 C97 1.408 . S
C96 H118 0.930 . S
C97 C92 1.348 . S
C97 C96 1.408 . S
C97 H119 0.930 . S
C98 O108 1.281 . S
C98 O109 1.254 . S
C99 O110 1.236 . S
C99 O111 1.266 1_554 S
O100 Tb80 2.484 1_554 S
O100 C82 1.248 1_554 S
O101 Tb80 2.440 . S
O101 C82 1.266 . S
O102 Tb80 2.658 . S
O102 Tb81 2.325 1_556 S
O102 C89 1.281 . S
O103 Tb80 2.409 . S
O103 C89 1.254 . S
O104 Tb80 2.378 . S
O104 C90 1.236 . S
O105 Tb81 2.341 . S
O105 C90 1.266 1_554 S
O106 Tb81 2.484 1_556 S
O106 C91 1.248 1_556 S
O107 Tb81 2.440 . S
O107 C91 1.266 . S
O108 Tb80 2.325 1_554 S
O108 Tb81 2.658 . S
O108 C98 1.281 . S
O109 Tb81 2.409 . S
O109 C98 1.254 . S
O110 Tb81 2.378 . S
O110 C99 1.236 . S
O111 Tb80 2.341 . S
O111 C99 1.266 1_556 S
H112 C84 0.929 . S
H113 C85 0.931 . S
H114 C87 0.930 . S
H115 C88 0.930 . S
H116 C93 0.929 . S
H117 C94 0.931 . S
H118 C96 0.930 . S
H119 C97 0.930 . S
Tb120 C122 2.809 . S
Tb120 O140 2.484 . S
Tb120 O141 2.440 . S
Tb120 O142 2.658 . S
Tb120 O143 2.409 . S
Tb120 O144 2.378 . S
Tb120 O148 2.325 . S
Tb120 O151 2.341 . S
Tb121 C131 2.809 . S
Tb121 O142 2.325 . S
Tb121 O145 2.341 . S
Tb121 O146 2.484 . S
Tb121 O147 2.440 . S
Tb121 O148 2.658 . S
Tb121 O149 2.409 . S
Tb121 O150 2.378 . S
C122 Tb120 2.809 . S
C122 C123 1.514 . S
C122 O140 1.248 . S
C122 O141 1.266 . S
C123 C122 1.514 . S
C123 C124 1.359 . S
C123 C128 1.348 . S
C124 C123 1.359 . S
C124 C125 1.380 . S
C124 H152 0.929 . S
C125 C124 1.380 . S
C125 C126 1.347 . S
C125 H153 0.931 . S
C126 C125 1.347 . S
C126 C127 1.369 . S
C127 C126 1.369 . S
C127 C128 1.408 . S
C127 H154 0.930 . S
C128 C123 1.348 . S
C128 C127 1.408 . S
C128 H155 0.930 . S
C129 O142 1.281 . S
C129 O143 1.254 . S
C130 O144 1.236 . S
C130 O145 1.266 . S
C131 Tb121 2.809 . S
C131 C132 1.514 . S
C131 O146 1.248 . S
C131 O147 1.266 . S
C132 C131 1.514 . S
C132 C133 1.359 . S
C132 C137 1.348 . S
C133 C132 1.359 . S
C133 C134 1.380 . S
C133 H156 0.929 . S
C134 C133 1.380 . S
C134 C135 1.347 . S
C134 H157 0.931 . S
C135 C134 1.347 . S
C135 C136 1.369 . S
C136 C135 1.369 . S
C136 C137 1.408 . S
C136 H158 0.930 . S
C137 C132 1.348 . S
C137 C136 1.408 . S
C137 H159 0.930 . S
C138 O148 1.281 . S
C138 O149 1.254 . S
C139 O150 1.236 . S
C139 O151 1.266 . S
O140 Tb120 2.484 . S
O140 C122 1.248 . S
O141 Tb120 2.440 . S
O141 C122 1.266 . S
O142 Tb120 2.658 . S
O142 Tb121 2.325 . S
O142 C129 1.281 . S
O143 Tb120 2.409 . S
O143 C129 1.254 . S
O144 Tb120 2.378 . S
O144 C130 1.236 . S
O145 Tb121 2.341 . S
O145 C130 1.266 . S
O146 Tb121 2.484 . S
O146 C131 1.248 . S
O147 Tb121 2.440 . S
O147 C131 1.266 . S
O148 Tb120 2.325 . S
O148 Tb121 2.658 . S
O148 C138 1.281 . S
O149 Tb121 2.409 . S
O149 C138 1.254 . S
O150 Tb121 2.378 . S
O150 C139 1.236 . S
O151 Tb120 2.341 . S
O151 C139 1.266 . S
H152 C124 0.929 . S
H153 C125 0.931 . S
H154 C127 0.930 . S
H155 C128 0.930 . S
H156 C133 0.929 . S
H157 C134 0.931 . S
H158 C136 0.930 . S
H159 C137 0.930 . S
H160 C161 0.950 1_556 S
C161 H160 0.950 1_554 S
C161 C167 1.265 . S
H162 C167 0.950 . S
H163 C171 0.949 . S
H164 C172 0.950 . S
H165 C173 0.951 . S
H166 C174 0.951 . S
C167 C161 1.265 . S
C167 H162 0.950 . S
C167 C168 1.481 . S
C168 C167 1.481 . S
C168 C169 1.416 . S
C168 C185 1.373 1_554 S
C169 C168 1.416 . S
C169 C170 1.438 . S
C169 C174 1.429 . S
C170 C169 1.438 . S
C170 C171 1.428 . S
C170 C183 1.378 1_554 S
C171 H163 0.949 . S
C171 C170 1.428 . S
C171 C172 1.345 . S
C172 H164 0.950 . S
C172 C171 1.345 . S
C172 C173 1.424 . S
C173 H165 0.951 . S
C173 C172 1.424 . S
C173 C174 1.347 . S
C174 H166 0.951 . S
C174 C169 1.429 . S
C174 C173 1.347 . S
H175 C176 0.951 1_554 S
C176 H175 0.951 1_556 S
C176 C182 1.265 . S
H177 C182 0.950 . S
H178 C186 0.949 . S
H179 C187 0.950 . S
H180 C188 0.951 . S
H181 C189 0.951 . S
C182 C176 1.265 . S
C182 H177 0.950 . S
C182 C183 1.480 . S
C183 C170 1.378 1_556 S
C183 C182 1.480 . S
C183 C184 1.412 . S
C184 C183 1.412 . S
C184 C185 1.438 . S
C184 C189 1.429 . S
C185 C168 1.373 1_556 S
C185 C184 1.438 . S
C185 C186 1.428 . S
C186 H178 0.949 . S
C186 C185 1.428 . S
C186 C187 1.345 . S
C187 H179 0.950 . S
C187 C186 1.345 . S
C187 C188 1.424 . S
C188 H180 0.951 . S
C188 C187 1.424 . S
C188 C189 1.347 . S
C189 H181 0.951 . S
C189 C184 1.429 . S
C189 C188 1.347 . S
H190 C191 0.953 . S
C191 H190 0.953 . S
C191 C197 1.263 1_556 S
H192 C197 0.950 . S
H193 C201 0.949 . S
H194 C202 0.950 . S
H195 C203 0.951 . S
H196 C204 0.951 . S
C197 C191 1.263 1_554 S
C197 H192 0.950 . S
C197 C198 1.478 . S
C198 C197 1.478 . S
C198 C199 1.397 . S
C198 C215 1.394 1_554 S
C199 C198 1.397 . S
C199 C200 1.438 . S
C199 C204 1.429 . S
C200 C199 1.438 . S
C200 C201 1.428 . S
C200 C213 1.394 1_554 S
C201 H193 0.949 . S
C201 C200 1.428 . S
C201 C202 1.345 . S
C202 H194 0.950 . S
C202 C201 1.345 . S
C202 C203 1.424 . S
C203 H195 0.951 . S
C203 C202 1.424 . S
C203 C204 1.347 . S
C204 H196 0.951 . S
C204 C199 1.429 . S
C204 C203 1.347 . S
H205 C206 0.951 . S
C206 H205 0.951 . S
C206 C212 1.265 1_554 S
H207 C212 0.950 . S
H208 C216 0.949 . S
H209 C217 0.950 . S
H210 C218 0.951 . S
H211 C219 0.951 . S
C212 C206 1.265 1_556 S
C212 H207 0.950 . S
C212 C213 1.478 . S
C213 C200 1.394 1_556 S
C213 C212 1.478 . S
C213 C214 1.397 . S
C214 C213 1.397 . S
C214 C215 1.438 . S
C214 C219 1.429 . S
C215 C198 1.394 1_556 S
C215 C214 1.438 . S
C215 C216 1.428 . S
C216 H208 0.949 . S
C216 C215 1.428 . S
C216 C217 1.345 . S
C217 H209 0.950 . S
C217 C216 1.345 . S
C217 C218 1.424 . S
C218 H210 0.951 . S
C218 C217 1.424 . S
C218 C219 1.347 . S
C219 H211 0.951 . S
C219 C214 1.429 . S
C219 C218 1.347 . S
H220 C221 0.951 . S
C221 H220 0.951 . S
C221 C227 1.265 . S
H222 C227 0.950 . S
H223 C231 0.949 . S
H224 C232 0.950 . S
H225 C233 0.951 . S
H226 C234 0.951 . S
C227 C221 1.265 . S
C227 H222 0.950 . S
C227 C228 1.478 . S
C228 C227 1.478 . S
C228 C229 1.397 . S
C228 C245 1.394 . S
C229 C228 1.397 . S
C229 C230 1.438 . S
C229 C234 1.429 . S
C230 C229 1.438 . S
C230 C231 1.428 . S
C230 C243 1.394 . S
C231 H223 0.949 . S
C231 C230 1.428 . S
C231 C232 1.345 . S
C232 H224 0.950 . S
C232 C231 1.345 . S
C232 C233 1.424 . S
C233 H225 0.951 . S
C233 C232 1.424 . S
C233 C234 1.347 . S
C234 H226 0.951 . S
C234 C229 1.429 . S
C234 C233 1.347 . S
H235 C236 0.951 . S
C236 H235 0.951 . S
C236 C242 1.265 . S
H237 C242 0.950 . S
H238 C246 0.949 . S
H239 C247 0.950 . S
H240 C248 0.951 . S
H241 C249 0.951 . S
C242 C236 1.265 . S
C242 H237 0.950 . S
C242 C243 1.478 . S
C243 C230 1.394 . S
C243 C242 1.478 . S
C243 C244 1.397 . S
C244 C243 1.397 . S
C244 C245 1.438 . S
C244 C249 1.429 . S
C245 C228 1.394 . S
C245 C244 1.438 . S
C245 C246 1.428 . S
C246 H238 0.949 . S
C246 C245 1.428 . S
C246 C247 1.345 . S
C247 H239 0.950 . S
C247 C246 1.345 . S
C247 C248 1.424 . S
C248 H240 0.951 . S
C248 C247 1.424 . S
C248 C249 1.347 . S
C249 H241 0.951 . S
C249 C244 1.429 . S
C249 C248 1.347 . S
H250 C251 0.951 . S
C251 H250 0.951 . S
C251 C257 1.265 . S
H252 C257 0.950 . S
H253 C261 0.949 . S
H254 C262 0.950 . S
H255 C263 0.951 . S
H256 C264 0.951 . S
C257 C251 1.265 . S
C257 H252 0.950 . S
C257 C258 1.478 . S
C258 C257 1.478 . S
C258 C259 1.397 . S
C258 C275 1.394 . S
C259 C258 1.397 . S
C259 C260 1.438 . S
C259 C264 1.429 . S
C260 C259 1.438 . S
C260 C261 1.428 . S
C260 C273 1.394 . S
C261 H253 0.949 . S
C261 C260 1.428 . S
C261 C262 1.345 . S
C262 H254 0.950 . S
C262 C261 1.345 . S
C262 C263 1.424 . S
C263 H255 0.951 . S
C263 C262 1.424 . S
C263 C264 1.347 . S
C264 H256 0.951 . S
C264 C259 1.429 . S
C264 C263 1.347 . S
H265 C266 0.951 . S
C266 H265 0.951 . S
C266 C272 1.265 . S
H267 C272 0.950 . S
H268 C276 0.949 . S
H269 C277 0.950 . S
H270 C278 0.951 . S
H271 C279 0.951 . S
C272 C266 1.265 . S
C272 H267 0.950 . S
C272 C273 1.478 . S
C273 C260 1.394 . S
C273 C272 1.478 . S
C273 C274 1.397 . S
C274 C273 1.397 . S
C274 C275 1.438 . S
C274 C279 1.429 . S
C275 C258 1.394 . S
C275 C274 1.438 . S
C275 C276 1.428 . S
C276 H268 0.949 . S
C276 C275 1.428 . S
C276 C277 1.345 . S
C277 H269 0.950 . S
C277 C276 1.345 . S
C277 C278 1.424 . S
C278 H270 0.951 . S
C278 C277 1.424 . S
C278 C279 1.347 . S
C279 H271 0.951 . S
C279 C274 1.429 . S
C279 C278 1.347 . S
H280 C281 0.951 . S
C281 H280 0.951 . S
C281 C287 1.265 . S
H282 C287 0.950 . S
H283 C291 0.949 . S
H284 C292 0.950 . S
H285 C293 0.951 . S
H286 C294 0.951 . S
C287 C281 1.265 . S
C287 H282 0.950 . S
C287 C288 1.478 . S
C288 C287 1.478 . S
C288 C289 1.397 1_566 S
C288 C305 1.394 . S
C289 C288 1.397 1_544 S
C289 C290 1.438 . S
C289 C294 1.429 . S
C290 C289 1.438 . S
C290 C291 1.428 . S
C290 C303 1.394 . S
C291 H283 0.949 . S
C291 C290 1.428 . S
C291 C292 1.345 . S
C292 H284 0.950 . S
C292 C291 1.345 . S
C292 C293 1.424 . S
C293 H285 0.951 . S
C293 C292 1.424 . S
C293 C294 1.347 . S
C294 H286 0.951 . S
C294 C289 1.429 . S
C294 C293 1.347 . S
H295 C296 0.951 . S
C296 H295 0.951 . S
C296 C302 1.265 . S
H297 C302 0.950 . S
H298 C306 0.949 . S
H299 C307 0.950 . S
H300 C308 0.951 . S
H301 C309 0.951 . S
C302 C296 1.265 . S
C302 H297 0.950 . S
C302 C303 1.478 . S
C303 C290 1.394 . S
C303 C302 1.478 . S
C303 C304 1.397 1_544 S
C304 C303 1.397 1_566 S
C304 C305 1.438 . S
C304 C309 1.429 . S
C305 C288 1.394 . S
C305 C304 1.438 . S
C305 C306 1.428 . S
C306 H298 0.949 . S
C306 C305 1.428 . S
C306 C307 1.345 . S
C307 H299 0.950 . S
C307 C306 1.345 . S
C307 C308 1.424 . S
C308 H300 0.951 . S
C308 C307 1.424 . S
C308 C309 1.347 . S
C309 H301 0.951 . S
C309 C304 1.429 . S
C309 C308 1.347 . S
H310 C311 0.951 . S
C311 H310 0.951 . S
C311 C317 1.265 1_545 S
H312 C317 0.950 . S
H313 C321 0.949 . S
H314 C322 0.950 . S
H315 C323 0.951 . S
H316 C324 0.951 . S
C317 C311 1.265 1_565 S
C317 H312 0.950 . S
C317 C318 1.478 . S
C318 C317 1.478 . S
C318 C319 1.397 . S
C318 C335 1.394 1_565 S
C319 C318 1.397 . S
C319 C320 1.438 . S
C319 C324 1.429 . S
C320 C319 1.438 . S
C320 C321 1.428 . S
C320 C333 1.394 1_565 S
C321 H313 0.949 . S
C321 C320 1.428 . S
C321 C322 1.345 . S
C322 H314 0.950 . S
C322 C321 1.345 . S
C322 C323 1.424 . S
C323 H315 0.951 . S
C323 C322 1.424 . S
C323 C324 1.347 . S
C324 H316 0.951 . S
C324 C319 1.429 . S
C324 C323 1.347 . S
H325 C326 0.951 . S
C326 H325 0.951 . S
C326 C332 1.265 1_565 S
H327 C332 0.950 . S
H328 C336 0.949 . S
H329 C337 0.950 . S
H330 C338 0.951 . S
H331 C339 0.951 . S
C332 C326 1.265 1_545 S
C332 H327 0.950 . S
C332 C333 1.478 . S
C333 C320 1.394 1_545 S
C333 C332 1.478 . S
C333 C334 1.397 . S
C334 C333 1.397 . S
C334 C335 1.438 . S
C334 C339 1.429 . S
C335 C318 1.394 1_545 S
C335 C334 1.438 . S
C335 C336 1.428 . S
C336 H328 0.949 . S
C336 C335 1.428 . S
C336 C337 1.345 . S
C337 H329 0.950 . S
C337 C336 1.345 . S
C337 C338 1.424 . S
C338 H330 0.951 . S
C338 C337 1.424 . S
C338 C339 1.347 . S
C339 H331 0.951 . S
C339 C334 1.429 . S
C339 C338 1.347 . S
H340 C341 0.951 . S
C341 H340 0.951 . S
C341 C347 1.265 . S
H342 C347 0.950 . S
H343 C351 0.949 . S
H344 C352 0.950 . S
H345 C353 0.951 . S
H346 C354 0.951 1_655 S
C347 C341 1.265 . S
C347 H342 0.950 . S
C347 C348 1.478 . S
C348 C347 1.478 . S
C348 C349 1.397 1_655 S
C348 C365 1.394 1_556 S
C349 C348 1.397 1_455 S
C349 C350 1.438 . S
C349 C354 1.429 . S
C350 C349 1.438 . S
C350 C351 1.428 . S
C350 C363 1.394 1_556 S
C351 H343 0.949 . S
C351 C350 1.428 . S
C351 C352 1.345 . S
C352 H344 0.950 . S
C352 C351 1.345 . S
C352 C353 1.424 . S
C353 H345 0.951 . S
C353 C352 1.424 . S
C353 C354 1.347 . S
C354 H346 0.951 1_455 S
C354 C349 1.429 . S
C354 C353 1.347 . S
H355 C356 0.951 . S
C356 H355 0.951 . S
C356 C362 1.265 . S
H357 C362 0.950 . S
H358 C366 0.949 . S
H359 C367 0.950 . S
H360 C368 0.951 . S
H361 C369 0.951 1_455 S
C362 C356 1.265 . S
C362 H357 0.950 . S
C362 C363 1.478 . S
C363 C350 1.394 1_554 S
C363 C362 1.478 . S
C363 C364 1.397 1_455 S
C364 C363 1.397 1_655 S
C364 C365 1.438 . S
C364 C369 1.429 . S
C365 C348 1.394 1_554 S
C365 C364 1.438 . S
C365 C366 1.428 . S
C366 H358 0.949 . S
C366 C365 1.428 . S
C366 C367 1.345 . S
C367 H359 0.950 . S
C367 C366 1.345 . S
C367 C368 1.424 . S
C368 H360 0.951 . S
C368 C367 1.424 . S
C368 C369 1.347 . S
C369 H361 0.951 1_655 S
C369 C364 1.429 . S
C369 C368 1.347 . S
H370 C371 0.951 . S
C371 H370 0.951 . S
C371 C377 1.265 . S
H372 C377 0.950 . S
H373 C381 0.949 . S
H374 C382 0.950 . S
H375 C383 0.951 . S
H376 C384 0.951 . S
C377 C371 1.265 . S
C377 H372 0.950 . S
C377 C378 1.478 . S
C378 C377 1.478 . S
C378 C379 1.397 . S
C378 C395 1.394 . S
C379 C378 1.397 . S
C379 C380 1.438 1_455 S
C379 C384 1.429 . S
C380 C379 1.438 1_655 S
C380 C381 1.428 . S
C380 C393 1.394 . S
C381 H373 0.949 . S
C381 C380 1.428 . S
C381 C382 1.345 . S
C382 H374 0.950 . S
C382 C381 1.345 . S
C382 C383 1.424 . S
C383 H375 0.951 . S
C383 C382 1.424 . S
C383 C384 1.347 1_655 S
C384 H376 0.951 . S
C384 C379 1.429 . S
C384 C383 1.347 1_455 S
H385 C386 0.951 . S
C386 H385 0.951 . S
C386 C392 1.265 . S
H387 C392 0.950 . S
H388 C396 0.949 . S
H389 C397 0.950 . S
H390 C398 0.951 . S
H391 C399 0.951 . S
C392 C386 1.265 . S
C392 H387 0.950 . S
C392 C393 1.478 . S
C393 C380 1.394 . S
C393 C392 1.478 . S
C393 C394 1.397 . S
C394 C393 1.397 . S
C394 C395 1.438 1_655 S
C394 C399 1.429 . S
C395 C378 1.394 . S
C395 C394 1.438 1_455 S
C395 C396 1.428 . S
C396 H388 0.949 . S
C396 C395 1.428 . S
C396 C397 1.345 . S
C397 H389 0.950 . S
C397 C396 1.345 . S
C397 C398 1.424 . S
C398 H390 0.951 . S
C398 C397 1.424 . S
C398 C399 1.347 1_455 S
C399 H391 0.951 . S
C399 C394 1.429 . S
C399 C398 1.347 1_655 S
H400 C401 0.951 . S
C401 H400 0.951 . S
C401 C407 1.265 1_645 S
H402 C407 0.950 . S
H403 C411 0.949 1_655 S
H404 C412 0.950 . S
H405 C413 0.951 . S
H406 C414 0.951 . S
C407 C401 1.265 1_465 S
C407 H402 0.950 . S
C407 C408 1.478 . S
C408 C407 1.478 . S
C408 C409 1.397 . S
C408 C425 1.394 1_465 S
C409 C408 1.397 . S
C409 C410 1.438 . S
C409 C414 1.429 . S
C410 C409 1.438 . S
C410 C411 1.428 . S
C410 C423 1.394 1_465 S
C411 H403 0.949 1_455 S
C411 C410 1.428 . S
C411 C412 1.345 . S
C412 H404 0.950 . S
C412 C411 1.345 . S
C412 C413 1.424 . S
C413 H405 0.951 . S
C413 C412 1.424 . S
C413 C414 1.347 . S
C414 H406 0.951 . S
C414 C409 1.429 . S
C414 C413 1.347 . S
H415 C416 0.951 . S
C416 H415 0.951 . S
C416 C422 1.265 1_465 S
H417 C422 0.950 . S
H418 C426 0.949 . S
H419 C427 0.950 . S
H420 C428 0.951 . S
H421 C429 0.951 . S
C422 C416 1.265 1_645 S
C422 H417 0.950 . S
C422 C423 1.478 . S
C423 C410 1.394 1_645 S
C423 C422 1.478 . S
C423 C424 1.397 . S
C424 C423 1.397 . S
C424 C425 1.438 . S
C424 C429 1.429 . S
C425 C408 1.394 1_645 S
C425 C424 1.438 . S
C425 C426 1.428 . S
C426 H418 0.949 . S
C426 C425 1.428 . S
C426 C427 1.345 . S
C427 H419 0.950 . S
C427 C426 1.345 . S
C427 C428 1.424 . S
C428 H420 0.951 . S
C428 C427 1.424 . S
C428 C429 1.347 . S
C429 H421 0.951 . S
C429 C424 1.429 . S
C429 C428 1.347 . S
H430 C431 0.956 1_545 S
C431 H430 0.956 1_565 S
C431 C437 1.264 1_655 S
H432 C437 0.950 . S
H433 C441 0.949 . S
H434 C442 0.950 . S
H435 C443 0.951 . S
H436 C444 0.951 . S
C437 C431 1.264 1_455 S
C437 H432 0.950 . S
C437 C438 1.480 . S
C438 C437 1.480 . S
C438 C439 1.419 . S
C438 C455 1.371 1_465 S
C439 C438 1.419 . S
C439 C440 1.438 . S
C439 C444 1.429 . S
C440 C439 1.438 . S
C440 C441 1.428 . S
C440 C453 1.400 1_455 S
C441 H433 0.949 . S
C441 C440 1.428 . S
C441 C442 1.345 . S
C442 H434 0.950 . S
C442 C441 1.345 . S
C442 C443 1.424 . S
C443 H435 0.951 . S
C443 C442 1.424 . S
C443 C444 1.347 . S
C444 H436 0.951 . S
C444 C439 1.429 . S
C444 C443 1.347 . S
H445 C446 0.951 . S
C446 H445 0.951 . S
C446 C452 1.267 1_465 S
H447 C452 0.948 . S
H448 C456 0.949 . S
H449 C457 0.950 . S
H450 C458 0.951 . S
H451 C459 0.951 . S
C452 C446 1.267 1_645 S
C452 H447 0.948 . S
C452 C453 1.478 1_545 S
C453 C440 1.400 1_655 S
C453 C452 1.478 1_565 S
C453 C454 1.391 1_565 S
C454 C453 1.391 1_545 S
C454 C455 1.438 . S
C454 C459 1.429 . S
C455 C438 1.371 1_645 S
C455 C454 1.438 . S
C455 C456 1.428 . S
C456 H448 0.949 . S
C456 C455 1.428 . S
C456 C457 1.345 . S
C457 H449 0.950 . S
C457 C456 1.345 . S
C457 C458 1.424 . S
C458 H450 0.951 . S
C458 C457 1.424 . S
C458 C459 1.347 . S
C459 H451 0.951 . S
C459 C454 1.429 . S
C459 C458 1.347 . S
H460 C461 0.951 . S
C461 H460 0.951 . S
C461 C467 1.265 . S
H462 C467 0.950 . S
H463 C471 0.949 . S
H464 C472 0.950 . S
H465 C473 0.951 . S
H466 C474 0.951 . S
C467 C461 1.265 . S
C467 H462 0.950 . S
C467 C468 1.478 . S
C468 C467 1.478 . S
C468 C469 1.397 . S
C468 C485 1.394 . S
C469 C468 1.397 . S
C469 C470 1.438 . S
C469 C474 1.429 . S
C470 C469 1.438 . S
C470 C471 1.428 . S
C470 C483 1.394 . S
C471 H463 0.949 . S
C471 C470 1.428 . S
C471 C472 1.345 . S
C472 H464 0.950 . S
C472 C471 1.345 . S
C472 C473 1.424 . S
C473 H465 0.951 . S
C473 C472 1.424 . S
C473 C474 1.347 . S
C474 H466 0.951 . S
C474 C469 1.429 . S
C474 C473 1.347 . S
H475 C476 0.951 . S
C476 H475 0.951 . S
C476 C482 1.265 . S
H477 C482 0.950 . S
H478 C486 0.949 . S
H479 C487 0.950 . S
H480 C488 0.951 . S
H481 C489 0.951 . S
C482 C476 1.265 . S
C482 H477 0.950 . S
C482 C483 1.478 . S
C483 C470 1.394 . S
C483 C482 1.478 . S
C483 C484 1.397 . S
C484 C483 1.397 . S
C484 C485 1.438 . S
C484 C489 1.429 . S
C485 C468 1.394 . S
C485 C484 1.438 . S
C485 C486 1.428 . S
C486 H478 0.949 . S
C486 C485 1.428 . S
C486 C487 1.345 . S
C487 H479 0.950 . S
C487 C486 1.345 . S
C487 C488 1.424 . S
C488 H480 0.951 . S
C488 C487 1.424 . S
C488 C489 1.347 . S
C489 H481 0.951 . S
C489 C484 1.429 . S
C489 C488 1.347 . S
H490 C491 0.951 . S
C491 H490 0.951 . S
C491 C497 1.265 . S
H492 C497 0.950 . S
H493 C501 0.949 . S
H494 C502 0.950 . S
H495 C503 0.951 . S
H496 C504 0.951 . S
C497 C491 1.265 . S
C497 H492 0.950 . S
C497 C498 1.478 . S
C498 C497 1.478 . S
C498 C499 1.397 . S
C498 C515 1.394 . S
C499 C498 1.397 . S
C499 C500 1.438 . S
C499 C504 1.429 . S
C500 C499 1.438 . S
C500 C501 1.428 . S
C500 C513 1.394 . S
C501 H493 0.949 . S
C501 C500 1.428 . S
C501 C502 1.345 . S
C502 H494 0.950 . S
C502 C501 1.345 . S
C502 C503 1.424 . S
C503 H495 0.951 . S
C503 C502 1.424 . S
C503 C504 1.347 . S
C504 H496 0.951 . S
C504 C499 1.429 . S
C504 C503 1.347 . S
H505 C506 0.951 . S
C506 H505 0.951 . S
C506 C512 1.265 . S
H507 C512 0.950 . S
H508 C516 0.949 . S
H509 C517 0.950 . S
H510 C518 0.951 . S
H511 C519 0.951 . S
C512 C506 1.265 . S
C512 H507 0.950 . S
C512 C513 1.478 . S
C513 C500 1.394 . S
C513 C512 1.478 . S
C513 C514 1.397 . S
C514 C513 1.397 . S
C514 C515 1.438 . S
C514 C519 1.429 . S
C515 C498 1.394 . S
C515 C514 1.438 . S
C515 C516 1.428 . S
C516 H508 0.949 . S
C516 C515 1.428 . S
C516 C517 1.345 . S
C517 H509 0.950 . S
C517 C516 1.345 . S
C517 C518 1.424 . S
C518 H510 0.951 . S
C518 C517 1.424 . S
C518 C519 1.347 . S
C519 H511 0.951 . S
C519 C514 1.429 . S
C519 C518 1.347 . S
C161 C90 3.533 1_554 S
C176 C19 3.533 1_556 S
C191 C99 3.534 1_556 S
C206 C10 3.535 1_554 S
C221 C55 0.262 . S
C236 C126 0.262 . S
C251 C46 0.261 . S
C266 C135 0.261 . S
C281 C15 1.018 . S
C296 C6 1.018 . S
C311 C59 4.861 1_545 S
C326 C50 4.861 1_565 S
C341 C95 0.810 . S
C356 C86 0.810 . S
C371 C130 4.855 . S
C386 C139 4.855 . S
C401 C49 1.464 1_645 S
C416 C18 1.415 1_565 S
C431 C9 1.403 . S
C446 C58 1.445 1_465 S
C461 C129 1.426 . S
C476 C98 1.474 . S
C491 C138 1.414 . S
C506 C89 1.466 . S
