# Generated by pormake.
# Topology lig, (3)-cn, num edge types: 1
# Building blocks:
#     Node 0, Type 0, BuildingBlock: OLANEW_clean_sbu_2, # of connection points: 3
#     Node 1, Type 0, BuildingBlock: OLANEW_clean_sbu_2, # of connection points: 3
#     Node 2, Type 0, BuildingBlock: OLANEW_clean_sbu_2, # of connection points: 3
#     Node 3, Type 0, BuildingBlock: OLANEW_clean_sbu_2, # of connection points: 3
#     Node 4, Type 0, BuildingBlock: OLANEW_clean_sbu_2, # of connection points: 3
#     Node 5, Type 0, BuildingBlock: OLANEW_clean_sbu_2, # of connection points: 3
#     Node 6, Type 0, BuildingBlock: OLANEW_clean_sbu_2, # of connection points: 3
#     Node 7, Type 0, BuildingBlock: OLANEW_clean_sbu_2, # of connection points: 3
#     Node 8, Type 0, BuildingBlock: OLANEW_clean_sbu_2, # of connection points: 3
#     Node 9, Type 0, BuildingBlock: OLANEW_clean_sbu_2, # of connection points: 3
#     Node 10, Type 0, BuildingBlock: OLANEW_clean_sbu_2, # of connection points: 3
#     Node 11, Type 0, BuildingBlock: OLANEW_clean_sbu_2, # of connection points: 3
#     Node 12, Type 0, BuildingBlock: OLANEW_clean_sbu_2, # of connection points: 3
#     Node 13, Type 0, BuildingBlock: OLANEW_clean_sbu_2, # of connection points: 3
#     Node 14, Type 0, BuildingBlock: OLANEW_clean_sbu_2, # of connection points: 3
#     Node 15, Type 0, BuildingBlock: OLANEW_clean_sbu_2, # of connection points: 3
#     Edge 16, Type (0, 0), BuildingBlock: AJUNOK_clean_linker_0, # of connection points: 2
#     Edge 17, Type (0, 0), BuildingBlock: AJUNOK_clean_linker_0, # of connection points: 2
#     Edge 18, Type (0, 0), BuildingBlock: AJUNOK_clean_linker_0, # of connection points: 2
#     Edge 19, Type (0, 0), BuildingBlock: AJUNOK_clean_linker_0, # of connection points: 2
#     Edge 20, Type (0, 0), BuildingBlock: AJUNOK_clean_linker_0, # of connection points: 2
#     Edge 21, Type (0, 0), BuildingBlock: AJUNOK_clean_linker_0, # of connection points: 2
#     Edge 22, Type (0, 0), BuildingBlock: AJUNOK_clean_linker_0, # of connection points: 2
#     Edge 23, Type (0, 0), BuildingBlock: AJUNOK_clean_linker_0, # of connection points: 2
#     Edge 24, Type (0, 0), BuildingBlock: AJUNOK_clean_linker_0, # of connection points: 2
#     Edge 25, Type (0, 0), BuildingBlock: AJUNOK_clean_linker_0, # of connection points: 2
#     Edge 26, Type (0, 0), BuildingBlock: AJUNOK_clean_linker_0, # of connection points: 2
#     Edge 27, Type (0, 0), BuildingBlock: AJUNOK_clean_linker_0, # of connection points: 2
#     Edge 28, Type (0, 0), BuildingBlock: AJUNOK_clean_linker_0, # of connection points: 2
#     Edge 29, Type (0, 0), BuildingBlock: AJUNOK_clean_linker_0, # of connection points: 2
#     Edge 30, Type (0, 0), BuildingBlock: AJUNOK_clean_linker_0, # of connection points: 2
#     Edge 31, Type (0, 0), BuildingBlock: AJUNOK_clean_linker_0, # of connection points: 2
#     Edge 32, Type (0, 0), BuildingBlock: AJUNOK_clean_linker_0, # of connection points: 2
#     Edge 33, Type (0, 0), BuildingBlock: AJUNOK_clean_linker_0, # of connection points: 2
#     Edge 34, Type (0, 0), BuildingBlock: AJUNOK_clean_linker_0, # of connection points: 2
#     Edge 35, Type (0, 0), BuildingBlock: AJUNOK_clean_linker_0, # of connection points: 2
#     Edge 36, Type (0, 0), BuildingBlock: AJUNOK_clean_linker_0, # of connection points: 2
#     Edge 37, Type (0, 0), BuildingBlock: AJUNOK_clean_linker_0, # of connection points: 2
#     Edge 38, Type (0, 0), BuildingBlock: AJUNOK_clean_linker_0, # of connection points: 2
#     Edge 39, Type (0, 0), BuildingBlock: AJUNOK_clean_linker_0, # of connection points: 2
# Relax obj value: 0.020
# Max RMSD: 0.105
# Mean RMSD: 0.076
data_MOF--net-lig--node1-OLANEW_clean_sbu_2--edge1-AJUNOK_clean_linker_0
_symmetry_space_group_name_H-M    P1
_symmetry_Int_Tables_number       1
_symmetry_cell_setting            triclinic
loop_
_symmetry_equiv_pos_as_xyz
'x, y, z'
_cell_length_a     42.965705
_cell_length_b     36.991137
_cell_length_c     43.063011
_cell_angle_alpha  90.140417
_cell_angle_beta   89.89404
_cell_angle_gamma 116.30064
loop_
_atom_site_label
_atom_site_type_symbol
_atom_site_fract_x
_atom_site_fract_y
_atom_site_fract_z
_atom_type_partial_charge
O0 O 0.17039 0.04414 0.05569 0.0
Cd1 Cd 0.12626 0.02724 0.09635 0.0
O2 O 0.19889 0.10682 0.0718 0.0
Cd3 Cd 0.15476 0.10231 0.09935 0.0
O4 O 0.10232 0.09632 0.10577 0.0
C5 C 0.0865 0.0975 0.08116 0.0
O6 O 0.10268 0.10236 0.05446 0.0
C7 C 0.19689 0.07822 0.05418 0.0
C8 C 0.15302 0.01487 0.1523 0.0
O9 O 0.13699 0.98583 0.13328 0.0
O10 O 0.15581 0.04977 0.1451 0.0
O11 O 0.22438 0.87891 0.34564 0.0
Cd12 Cd 0.20928 0.93537 0.34431 0.0
O13 O 0.27465 0.91326 0.32275 0.0
Cd14 Cd 0.25692 0.95588 0.30459 0.0
O15 O 0.22716 0.96571 0.26735 0.0
C16 C 0.22304 0.99727 0.26311 0.0
O17 O 0.23756 0.02767 0.2825 0.0
C18 C 0.25377 0.88182 0.33709 0.0
C19 C 0.24428 0.98574 0.39376 0.0
O20 O 0.21357 0.9572 0.39717 0.0
O21 O 0.25782 0.99136 0.36659 0.0
O22 O 0.37371 0.02371 0.63208 0.0
Cd23 Cd 0.32871 0.04577 0.62328 0.0
O24 O 0.39625 0.03704 0.58522 0.0
Cd25 Cd 0.35495 0.0491 0.56574 0.0
O26 O 0.31771 0.04077 0.52877 0.0
C27 C 0.32944 0.05627 0.50242 0.0
O28 O 0.36298 0.07898 0.49949 0.0
C29 C 0.39688 0.02557 0.6129 0.0
C30 C 0.31537 0.07222 0.6803 0.0
O31 O 0.29696 0.03602 0.67092 0.0
O32 O 0.33944 0.09614 0.6623 0.0
O33 O 0.29666 0.21203 0.86776 0.0
Cd34 Cd 0.30076 0.14832 0.86669 0.0
O35 O 0.34536 0.24337 0.8937 0.0
Cd36 Cd 0.34443 0.18669 0.90883 0.0
O37 O 0.32085 0.1525 0.95076 0.0
C38 C 0.29179 0.12136 0.95002 0.0
O39 O 0.27791 0.10663 0.92292 0.0
C40 C 0.32013 0.24444 0.87905 0.0
C41 C 0.30299 0.12341 0.80585 0.0
O42 O 0.27416 0.11089 0.82059 0.0
O43 O 0.33068 0.14767 0.81994 0.0
O44 O 0.92416 0.06772 0.06535 0.0
Cd45 Cd 0.86211 0.04936 0.06401 0.0
O46 O 0.92865 0.06677 0.11615 0.0
Cd47 Cd 0.8744 0.05127 0.12622 0.0
O48 O 0.82934 0.02948 0.15702 0.0
C49 C 0.83404 0.04508 0.18397 0.0
O50 O 0.86465 0.07441 0.19074 0.0
C51 C 0.9425 0.0717 0.08941 0.0
C52 C 0.84515 0.07929 0.01052 0.0
O53 O 0.8488 0.09737 0.03665 0.0
O54 O 0.84941 0.04715 0.00967 0.0
O55 O 0.79246 0.22722 0.84453 0.0
Cd56 Cd 0.79507 0.16258 0.84036 0.0
O57 O 0.73798 0.19682 0.85952 0.0
Cd58 Cd 0.73198 0.13716 0.84637 0.0
O59 O 0.71432 0.09432 0.80795 0.0
C60 C 0.72683 0.10811 0.78138 0.0
O61 O 0.75129 0.14536 0.77957 0.0
C62 C 0.76522 0.22922 0.85408 0.0
C63 C 0.81192 0.13821 0.89656 0.0
O64 O 0.83493 0.15434 0.87537 0.0
O65 O 0.78106 0.1336 0.89125 0.0
O66 O 0.64546 0.05301 0.6503 0.0
Cd67 Cd 0.60384 0.03451 0.60735 0.0
O68 O 0.61738 0.99659 0.67621 0.0
Cd69 Cd 0.57396 0.97684 0.64401 0.0
O70 O 0.5277 0.98088 0.62756 0.0
C71 C 0.51007 0.98782 0.64842 0.0
O72 O 0.5203 0.99052 0.67743 0.0
C73 C 0.64338 0.03093 0.67359 0.0
C74 C 0.62495 0.00492 0.55587 0.0
O75 O 0.63327 0.0426 0.5586 0.0
O76 O 0.60672 0.98137 0.57758 0.0
O77 O 0.71927 0.8704 0.34504 0.0
Cd78 Cd 0.70044 0.92287 0.33628 0.0
O79 O 0.73228 0.88515 0.39428 0.0
Cd80 Cd 0.71112 0.92867 0.39952 0.0
O81 O 0.68959 0.95878 0.43052 0.0
C82 C 0.67253 0.93815 0.45364 0.0
O83 O 0.6681 0.90077 0.45622 0.0
C84 C 0.73157 0.86463 0.37033 0.0
C85 C 0.738 0.96808 0.28552 0.0
O86 O 0.74888 0.97824 0.31338 0.0
O87 O 0.70867 0.93723 0.28179 0.0
O88 O 0.6289 0.52612 0.58443 0.0
Cd89 Cd 0.58954 0.50665 0.629 0.0
O90 O 0.65128 0.59046 0.59652 0.0
Cd91 Cd 0.607 0.58028 0.62641 0.0
O92 O 0.55156 0.56446 0.62473 0.0
C93 C 0.53669 0.54404 0.60076 0.0
O94 O 0.55538 0.53446 0.58122 0.0
C95 C 0.65156 0.56219 0.57979 0.0
C96 C 0.62203 0.48991 0.67924 0.0
O97 O 0.60257 0.46203 0.66057 0.0
O98 O 0.62555 0.5257 0.67446 0.0
O99 O 0.71803 0.37412 0.85686 0.0
Cd100 Cd 0.70358 0.4311 0.85518 0.0
O101 O 0.76775 0.4064 0.83255 0.0
Cd102 Cd 0.75287 0.45274 0.81727 0.0
O103 O 0.72435 0.47613 0.78819 0.0
C104 C 0.69789 0.4497 0.77441 0.0
O105 O 0.68955 0.41145 0.77932 0.0
C106 C 0.74662 0.37554 0.84735 0.0
C107 C 0.73858 0.48203 0.90439 0.0
O108 O 0.7077 0.45389 0.90781 0.0
O109 O 0.75232 0.48693 0.87734 0.0
O110 O 0.88784 0.53864 0.13562 0.0
Cd111 Cd 0.84077 0.55836 0.13089 0.0
O112 O 0.9023 0.54773 0.08627 0.0
Cd113 Cd 0.85847 0.55833 0.07164 0.0
O114 O 0.81802 0.54662 0.03713 0.0
C115 C 0.82776 0.55885 0.00964 0.0
O116 O 0.86109 0.58042 0.0043 0.0
C117 C 0.90765 0.53883 0.11359 0.0
C118 C 0.82536 0.58063 0.18889 0.0
O119 O 0.80886 0.54444 0.17876 0.0
O120 O 0.84899 0.60631 0.17146 0.0
O121 O 0.77387 0.71347 0.36319 0.0
Cd122 Cd 0.78959 0.65793 0.36908 0.0
O123 O 0.78445 0.73207 0.4121 0.0
Cd124 Cd 0.79007 0.68011 0.42977 0.0
O125 O 0.76892 0.64583 0.47226 0.0
C126 C 0.74123 0.61294 0.47152 0.0
O127 O 0.72769 0.59769 0.44443 0.0
C128 C 0.77608 0.73782 0.38491 0.0
C129 C 0.80002 0.63076 0.31112 0.0
O130 O 0.77041 0.61423 0.32465 0.0
O131 O 0.82473 0.66006 0.32509 0.0
O132 O 0.38831 0.50863 0.53788 0.0
Cd133 Cd 0.33004 0.49383 0.51994 0.0
O134 O 0.37431 0.516 0.58548 0.0
Cd135 Cd 0.37795 0.52189 0.63601 0.0
O136 O 0.36001 0.51559 0.68407 0.0
C137 C 0.37604 0.54051 0.70552 0.0
O138 O 0.40576 0.57158 0.69915 0.0
C139 C 0.39654 0.51502 0.56639 0.0
C140 C 0.32891 0.5452 0.47326 0.0
O141 O 0.3234 0.55118 0.50164 0.0
O142 O 0.3355 0.5154 0.46705 0.0
O143 O 0.30259 0.73688 0.32718 0.0
Cd144 Cd 0.30611 0.67382 0.31633 0.0
O145 O 0.24746 0.70435 0.33986 0.0
Cd146 Cd 0.24213 0.64635 0.323 0.0
O147 O 0.22467 0.60192 0.28572 0.0
C148 C 0.23781 0.61374 0.25901 0.0
O149 O 0.26291 0.65049 0.25616 0.0
C150 C 0.27484 0.73738 0.33703 0.0
C151 C 0.31595 0.63748 0.36965 0.0
O152 O 0.34159 0.65824 0.35183 0.0
O153 O 0.28589 0.63402 0.36235 0.0
O154 O 0.16223 0.5574 0.12593 0.0
Cd155 Cd 0.12469 0.53975 0.08011 0.0
O156 O 0.1286 0.50378 0.15276 0.0
Cd157 Cd 0.0862 0.48794 0.11982 0.0
O158 O 0.03927 0.49424 0.1092 0.0
C159 C 0.02393 0.50008 0.13258 0.0
O160 O 0.03673 0.50057 0.16034 0.0
C161 C 0.15669 0.53602 0.15029 0.0
C162 C 0.15682 0.52379 0.02899 0.0
O163 O 0.16091 0.55962 0.03476 0.0
O164 O 0.13731 0.49555 0.04734 0.0
O165 O 0.31648 0.41961 0.89657 0.0
Cd166 Cd 0.30787 0.48037 0.89379 0.0
O167 O 0.26499 0.38262 0.87664 0.0
Cd168 Cd 0.24557 0.426 0.88968 0.0
O169 O 0.21767 0.44752 0.92143 0.0
C170 C 0.22736 0.48447 0.92796 0.0
O171 O 0.25504 0.51189 0.91421 0.0
C172 C 0.29474 0.38645 0.88483 0.0
C173 C 0.3263 0.50772 0.83312 0.0
O174 O 0.34857 0.52081 0.85517 0.0
O175 O 0.29498 0.48333 0.84017 0.0
C176 C 0.21501 0.06268 0.00264 0.0
C177 C 0.22369 0.08579 0.03006 0.0
C178 C 0.23805 0.07308 0.97745 0.0
C179 C 0.27081 0.10675 0.97881 0.0
H180 H 0.18954 0.03756 0.99993 0.0
H181 H 0.22945 0.05547 0.95632 0.0
S182 S 0.30815 0.17305 0.04746 0.0
N183 N 0.26873 0.14094 0.05853 0.0
N184 N 0.31227 0.16028 0.01148 0.0
C185 C 0.28081 0.12825 0.00703 0.0
C186 C 0.25717 0.11787 0.03255 0.0
C187 C 0.20333 0.03727 0.22821 0.0
C188 C 0.20337 0.00027 0.23565 0.0
C189 C 0.18651 0.04147 0.20156 0.0
C190 C 0.1689 0.00882 0.18125 0.0
H191 H 0.2169 0.06353 0.24278 0.0
H192 H 0.18776 0.0708 0.19669 0.0
S193 S 0.15948 0.90469 0.191 0.0
N194 N 0.18294 0.92975 0.22106 0.0
N195 N 0.15142 0.93767 0.17112 0.0
C196 C 0.16799 0.97135 0.18879 0.0
C197 C 0.18519 0.96708 0.2159 0.0
C198 C 0.25165 0.99635 0.45116 0.0
C199 C 0.26457 0.00883 0.421 0.0
C200 C 0.2722 0.01337 0.47742 0.0
C201 C 0.30657 0.04362 0.47464 0.0
H202 H 0.22592 0.97198 0.4546 0.0
H203 H 0.26143 0.00142 0.49998 0.0
S204 S 0.35095 0.0914 0.40111 0.0
N205 N 0.31258 0.05653 0.39004 0.0
N206 N 0.35119 0.08861 0.43934 0.0
C207 C 0.319 0.05834 0.44472 0.0
C208 C 0.29804 0.04092 0.41794 0.0
C209 C 0.33443 0.13198 0.75545 0.0
C210 C 0.30457 0.11037 0.77351 0.0
C211 C 0.33719 0.12 0.72509 0.0
C212 C 0.31042 0.08557 0.71166 0.0
H213 H 0.35597 0.15842 0.76481 0.0
H214 H 0.36091 0.13744 0.71234 0.0
S215 S 0.22634 0.01897 0.74875 0.0
N216 N 0.24719 0.05338 0.7754 0.0
N217 N 0.25261 0.03055 0.71849 0.0
C218 C 0.28021 0.0639 0.72929 0.0
C219 C 0.27722 0.07639 0.76014 0.0
C220 C 0.79236 0.02298 0.26382 0.0
C221 C 0.75993 0.98987 0.25861 0.0
C222 C 0.81544 0.04152 0.23937 0.0
C223 C 0.8072 0.02769 0.20859 0.0
H224 H 0.80054 0.03414 0.28715 0.0
H225 H 0.84043 0.06615 0.24491 0.0
S226 S 0.72411 0.94453 0.18186 0.0
N227 N 0.71962 0.94589 0.21986 0.0
N228 N 0.76306 0.9807 0.1739 0.0
C229 C 0.77419 0.99579 0.20277 0.0
C230 C 0.75057 0.97691 0.22774 0.0
C231 C 0.85122 0.09198 0.95343 0.0
C232 C 0.83668 0.09517 0.98199 0.0
C233 C 0.84371 0.10689 0.92598 0.0
C234 C 0.82054 0.12434 0.926 0.0
H235 H 0.86886 0.07827 0.95234 0.0
H236 H 0.85554 0.10393 0.90449 0.0
S237 S 0.77536 0.13952 0.99462 0.0
N238 N 0.79848 0.11762 0.00872 0.0
N239 N 0.78324 0.14416 0.95691 0.0
C240 C 0.80564 0.12746 0.95435 0.0
C241 C 0.81403 0.11329 0.98242 0.0
C242 C 0.65981 0.02954 0.72911 0.0
C243 C 0.66864 0.0472 0.69947 0.0
C244 C 0.67995 0.04827 0.75524 0.0
C245 C 0.70984 0.08536 0.7528 0.0
H246 H 0.63612 0.00209 0.73256 0.0
H247 H 0.671 0.03439 0.7777 0.0
S248 S 0.74776 0.14031 0.67955 0.0
N249 N 0.71182 0.10113 0.66857 0.0
N250 N 0.74984 0.13623 0.71757 0.0
C251 C 0.72053 0.10165 0.72292 0.0
C252 C 0.69989 0.08263 0.69631 0.0
C253 C 0.64044 0.93183 0.50338 0.0
C254 C 0.65946 0.95603 0.47837 0.0
C255 C 0.62913 0.94785 0.52799 0.0
C256 C 0.63639 0.98885 0.52877 0.0
H257 H 0.63443 0.90015 0.50425 0.0
H258 H 0.61491 0.92785 0.54674 0.0
S259 S 0.6841 0.06508 0.4684 0.0
N260 N 0.68415 0.02307 0.45546 0.0
N261 N 0.66295 0.05322 0.50174 0.0
C262 C 0.65486 0.01337 0.50366 0.0
C263 C 0.66634 0.99697 0.47848 0.0
C264 C 0.72767 0.62188 0.52668 0.0
C265 C 0.72115 0.59669 0.5005 0.0
C266 C 0.70574 0.60986 0.55264 0.0
C267 C 0.67664 0.57192 0.55371 0.0
H268 H 0.74897 0.65197 0.52666 0.0
H269 H 0.71118 0.63098 0.57169 0.0
S270 S 0.65049 0.49272 0.49269 0.0
N271 N 0.68517 0.53071 0.4783 0.0
N272 N 0.64416 0.50782 0.52722 0.0
C273 C 0.67102 0.54543 0.52847 0.0
C274 C 0.69318 0.5579 0.50184 0.0
C275 C 0.63378 0.44067 0.7108 0.0
C276 C 0.64054 0.48088 0.70492 0.0
C277 C 0.65196 0.43105 0.73369 0.0
C278 C 0.67789 0.46121 0.75166 0.0
H279 H 0.61446 0.41624 0.69739 0.0
H280 H 0.64592 0.3996 0.73688 0.0
S281 S 0.70471 0.57126 0.74651 0.0
N282 N 0.6743 0.55118 0.71978 0.0
N283 N 0.70858 0.53308 0.76274 0.0
C284 C 0.6845 0.50156 0.74652 0.0
C285 C 0.66582 0.51139 0.72322 0.0
C286 C 0.81577 0.55159 0.95261 0.0
C287 C 0.80303 0.54382 0.98324 0.0
C288 C 0.79427 0.533 0.9272 0.0
C289 C 0.75908 0.50588 0.9313 0.0
H290 H 0.84296 0.57094 0.94813 0.0
H291 H 0.80582 0.53883 0.90425 0.0
S292 S 0.71157 0.47976 0.00639 0.0
N293 N 0.75195 0.51047 0.01598 0.0
N294 N 0.71152 0.47554 0.96822 0.0
C295 C 0.74539 0.49986 0.96163 0.0
C296 C 0.76735 0.51882 0.98758 0.0
C297 C 0.84128 0.6294 0.23325 0.0
C298 C 0.81792 0.59249 0.21998 0.0
C299 C 0.83536 0.64126 0.26274 0.0
C300 C 0.80562 0.61697 0.28009 0.0
H301 H 0.86458 0.64926 0.22091 0.0
H302 H 0.85422 0.66995 0.27186 0.0
S303 S 0.73612 0.51752 0.25588 0.0
N304 N 0.76375 0.53163 0.22656 0.0
N305 N 0.75246 0.55412 0.2818 0.0
C306 C 0.78191 0.58005 0.26707 0.0
C307 C 0.78811 0.56777 0.23712 0.0
C308 C 0.38347 0.55429 0.7627 0.0
C309 C 0.3619 0.53373 0.73762 0.0
C310 C 0.37141 0.54658 0.79341 0.0
C311 C 0.33717 0.51827 0.80029 0.0
H312 H 0.41023 0.57579 0.75873 0.0
H313 H 0.38936 0.56245 0.81191 0.0
S314 S 0.26924 0.45876 0.74277 0.0
N315 N 0.30391 0.48553 0.7216 0.0
N316 N 0.28121 0.47123 0.77916 0.0
C317 C 0.31489 0.49862 0.77532 0.0
C318 C 0.32726 0.50625 0.74406 0.0
C319 C 0.34443 0.60021 0.39634 0.0
C320 C 0.32053 0.61662 0.39718 0.0
C321 C 0.34717 0.57737 0.4212 0.0
C322 C 0.32682 0.57115 0.44811 0.0
H323 H 0.36032 0.60391 0.37591 0.0
H324 H 0.3653 0.56442 0.41929 0.0
S325 S 0.26182 0.60983 0.46249 0.0
N326 N 0.27687 0.62615 0.42735 0.0
N327 N 0.28286 0.58441 0.47453 0.0
C328 C 0.3037 0.5886 0.44966 0.0
C329 C 0.30031 0.611 0.42405 0.0
C330 C 0.22939 0.60822 0.20151 0.0
C331 C 0.2209 0.58983 0.2309 0.0
C332 C 0.20975 0.58943 0.17518 0.0
C333 C 0.18084 0.55136 0.1771 0.0
H334 H 0.25028 0.63834 0.19893 0.0
H335 H 0.2164 0.60586 0.15347 0.0
S336 S 0.15168 0.48714 0.24759 0.0
N337 N 0.18454 0.52904 0.25962 0.0
N338 N 0.14765 0.49358 0.21016 0.0
C339 C 0.17385 0.53117 0.20586 0.0
C340 C 0.19384 0.55043 0.23274 0.0
C341 C 0.1668 0.47482 0.9952 0.0
C342 C 0.17434 0.51502 0.00225 0.0
C343 C 0.18357 0.46539 0.97083 0.0
C344 C 0.20883 0.49573 0.95249 0.0
H345 H 0.14789 0.45024 0.00875 0.0
H346 H 0.17697 0.43391 0.96674 0.0
S347 S 0.23727 0.60588 0.96045 0.0
N348 N 0.20815 0.58555 0.9882 0.0
N349 N 0.23979 0.5678 0.94248 0.0
C350 C 0.21628 0.5361 0.95891 0.0
C351 C 0.19903 0.54573 0.98372 0.0
C352 C 0.99856 0.0804 0.11323 0.0
C353 C 0.97965 0.0803 0.08652 0.0
C354 C 0.03306 0.08636 0.11127 0.0
C355 C 0.05025 0.09257 0.08251 0.0
H356 H 0.98655 0.07527 0.13597 0.0
H357 H 0.04619 0.08569 0.13255 0.0
S358 S 0.01302 0.09686 0.00553 0.0
N359 N 0.9812 0.08825 0.03034 0.0
N360 N 0.04596 0.09949 0.02664 0.0
C361 C 0.0319 0.0933 0.0556 0.0
C362 C 0.99669 0.08717 0.0576 0.0
C363 C 0.24139 0.77535 0.3522 0.0
C364 C 0.27275 0.77607 0.34178 0.0
C365 C 0.23621 0.81013 0.35203 0.0
C366 C 0.26211 0.8472 0.34135 0.0
H367 H 0.21998 0.74734 0.35945 0.0
H368 H 0.21105 0.80737 0.35915 0.0
S369 S 0.35088 0.86685 0.31593 0.0
N370 N 0.33156 0.81814 0.32369 0.0
N371 N 0.32182 0.88355 0.32336 0.0
C372 C 0.29448 0.84905 0.33285 0.0
C373 C 0.2998 0.81353 0.3331 0.0
C374 C 0.44717 0.01105 0.60028 0.0
C375 C 0.42474 0.0146 0.62268 0.0
C376 C 0.47414 0.00155 0.60875 0.0
C377 C 0.48004 0.99549 0.64002 0.0
H378 H 0.44401 0.01576 0.5759 0.0
H379 H 0.49085 -0.00036 0.59061 0.0
S380 S 0.42818 7e-05 0.70774 0.0
N381 N 0.40984 0.01032 0.67758 0.0
N382 N 0.46054 0.99261 0.69347 0.0
C383 C 0.45755 0.99839 0.66266 0.0
C384 C 0.42993 0.00787 0.65402 0.0
C385 C 0.2785 0.3152 0.86896 0.0
C386 C 0.30332 0.35188 0.8814 0.0
C387 C 0.28479 0.28122 0.86714 0.0
C388 C 0.31616 0.28233 0.87778 0.0
H389 H 0.25356 0.31228 0.86105 0.0
H390 H 0.26436 0.25354 0.85815 0.0
S391 S 0.39115 0.372 0.90979 0.0
N392 N 0.36162 0.38801 0.90262 0.0
N393 N 0.37341 0.32413 0.89927 0.0
C394 C 0.34182 0.31924 0.88916 0.0
C395 C 0.33543 0.35397 0.89097 0.0
C396 C 0.72838 0.30457 0.86484 0.0
C397 C 0.75408 0.34031 0.852 0.0
C398 C 0.733 0.26949 0.86672 0.0
C399 C 0.76357 0.2685 0.85592 0.0
H400 H 0.70389 0.30313 0.87269 0.0
H401 H 0.71183 0.24256 0.87589 0.0
S402 S 0.84064 0.35524 0.82347 0.0
N403 N 0.81259 0.3735 0.83068 0.0
N404 N 0.82126 0.30752 0.83422 0.0
C405 C 0.79032 0.3046 0.84455 0.0
C406 C 0.78557 0.34044 0.84256 0.0
C407 C 0.7544 0.82483 0.40163 0.0
C408 C 0.74444 0.83345 0.37252 0.0
C409 C 0.76533 0.79466 0.40506 0.0
C410 C 0.76683 0.77157 0.37958 0.0
H411 H 0.75328 0.84108 0.42221 0.0
H412 H 0.77204 0.789 0.4282 0.0
S413 S 0.74598 0.78387 0.29777 0.0
N414 N 0.73853 0.81773 0.31726 0.0
N415 N 0.75906 0.76084 0.32376 0.0
C416 C 0.75787 0.7805 0.3501 0.0
C417 C 0.74668 0.81141 0.34658 0.0
C418 C 0.44846 0.54528 0.60165 0.0
C419 C 0.43108 0.51982 0.57665 0.0
C420 C 0.48226 0.55211 0.60995 0.0
C421 C 0.4999 0.53379 0.59351 0.0
H422 H 0.43648 0.56124 0.61417 0.0
H423 H 0.49496 0.57282 0.62883 0.0
S424 S 0.46424 0.46137 0.52805 0.0
N425 N 0.43301 0.47407 0.53691 0.0
N426 N 0.4962 0.48676 0.55237 0.0
C427 C 0.48222 0.50717 0.56913 0.0
C428 C 0.44795 0.5003 0.56071 0.0
C429 C 0.95654 0.52542 0.09416 0.0
C430 C 0.93675 0.52827 0.11934 0.0
C431 C 0.98421 0.51566 0.09863 0.0
C432 C 0.99346 0.50854 0.1285 0.0
H433 H 0.95073 0.53081 0.07065 0.0
H434 H 0.99871 0.51422 0.07845 0.0
S435 S 0.9495 0.51101 0.20232 0.0
N436 N 0.92803 0.52228 0.17533 0.0
N437 N 0.98003 0.50404 0.18373 0.0
C438 C 0.97372 0.51086 0.15392 0.0
C439 C 0.94541 0.52068 0.14935 0.0
loop_
_geom_bond_atom_site_label_1
_geom_bond_atom_site_label_2
_geom_bond_distance
_geom_bond_site_symmetry_2
_ccdc_geom_bond_type
O0 Cd1 2.300 . S
O0 C7 1.275 . S
Cd1 O0 2.300 . S
Cd1 O9 2.381 1_545 S
Cd1 O10 2.378 . S
O2 Cd3 2.385 . S
O2 C7 1.255 . S
Cd3 O2 2.385 . S
Cd3 O4 2.317 . S
O4 Cd3 2.317 . S
O4 C5 1.232 . S
C5 O4 1.232 . S
C5 O6 1.218 . S
O6 C5 1.218 . S
C7 O0 1.275 . S
C7 O2 1.255 . S
C8 O9 1.258 . S
C8 O10 1.256 1_565 S
O9 Cd1 2.381 1_565 S
O9 C8 1.258 . S
O10 Cd1 2.378 . S
O10 C8 1.256 1_545 S
O11 Cd12 2.300 . S
O11 C18 1.275 . S
Cd12 O11 2.300 . S
Cd12 O20 2.381 . S
Cd12 O21 2.378 1_565 S
O13 Cd14 2.385 . S
O13 C18 1.255 . S
Cd14 O13 2.385 . S
Cd14 O15 2.317 . S
O15 Cd14 2.317 . S
O15 C16 1.232 . S
C16 O15 1.232 . S
C16 O17 1.218 . S
O17 C16 1.218 . S
C18 O11 1.275 . S
C18 O13 1.255 . S
C19 O20 1.258 . S
C19 O21 1.256 1_565 S
O20 Cd12 2.381 . S
O20 C19 1.258 . S
O21 Cd12 2.378 1_545 S
O21 C19 1.256 1_545 S
O22 Cd23 2.300 . S
O22 C29 1.275 . S
Cd23 O22 2.300 . S
Cd23 O31 2.381 . S
Cd23 O32 2.378 . S
O24 Cd25 2.385 . S
O24 C29 1.255 . S
Cd25 O24 2.385 . S
Cd25 O26 2.317 . S
O26 Cd25 2.317 . S
O26 C27 1.232 . S
C27 O26 1.232 . S
C27 O28 1.218 . S
O28 C27 1.218 . S
C29 O22 1.275 . S
C29 O24 1.255 . S
C30 O31 1.258 . S
C30 O32 1.256 . S
O31 Cd23 2.381 . S
O31 C30 1.258 . S
O32 Cd23 2.378 . S
O32 C30 1.256 . S
O33 Cd34 2.300 . S
O33 C40 1.275 . S
Cd34 O33 2.300 . S
Cd34 O42 2.381 . S
Cd34 O43 2.378 . S
O35 Cd36 2.385 . S
O35 C40 1.255 . S
Cd36 O35 2.385 . S
Cd36 O37 2.317 . S
O37 Cd36 2.317 . S
O37 C38 1.232 . S
C38 O37 1.232 . S
C38 O39 1.218 . S
O39 C38 1.218 . S
C40 O33 1.275 . S
C40 O35 1.255 . S
C41 O42 1.258 . S
C41 O43 1.256 . S
O42 Cd34 2.381 . S
O42 C41 1.258 . S
O43 Cd34 2.378 . S
O43 C41 1.256 . S
O44 Cd45 2.300 . S
O44 C51 1.275 . S
Cd45 O44 2.300 . S
Cd45 O53 2.381 . S
Cd45 O54 2.378 . S
O46 Cd47 2.385 1_545 S
O46 C51 1.255 . S
Cd47 O46 2.385 1_565 S
Cd47 O48 2.317 1_565 S
O48 Cd47 2.317 1_545 S
O48 C49 1.232 . S
C49 O48 1.232 . S
C49 O50 1.218 1_545 S
O50 C49 1.218 1_565 S
C51 O44 1.275 . S
C51 O46 1.255 . S
C52 O53 1.258 . S
C52 O54 1.256 . S
O53 Cd45 2.381 . S
O53 C52 1.258 . S
O54 Cd45 2.378 . S
O54 C52 1.256 . S
O55 Cd56 2.300 . S
O55 C62 1.275 . S
Cd56 O55 2.300 . S
Cd56 O64 2.381 . S
Cd56 O65 2.378 . S
O57 Cd58 2.385 . S
O57 C62 1.255 . S
Cd58 O57 2.385 . S
Cd58 O59 2.317 . S
O59 Cd58 2.317 . S
O59 C60 1.232 . S
C60 O59 1.232 . S
C60 O61 1.218 . S
O61 C60 1.218 . S
C62 O55 1.275 . S
C62 O57 1.255 . S
C63 O64 1.258 . S
C63 O65 1.256 . S
O64 Cd56 2.381 . S
O64 C63 1.258 . S
O65 Cd56 2.378 . S
O65 C63 1.256 . S
O66 Cd67 2.300 1_545 S
O66 C73 1.275 . S
Cd67 O66 2.300 1_565 S
Cd67 O75 2.381 1_565 S
Cd67 O76 2.378 . S
O68 Cd69 2.385 1_545 S
O68 C73 1.255 . S
Cd69 O68 2.385 1_565 S
Cd69 O70 2.317 . S
O70 Cd69 2.317 . S
O70 C71 1.232 1_565 S
C71 O70 1.232 1_545 S
C71 O72 1.218 . S
O72 C71 1.218 . S
C73 O66 1.275 . S
C73 O68 1.255 . S
C74 O75 1.258 1_565 S
C74 O76 1.256 . S
O75 Cd67 2.381 1_545 S
O75 C74 1.258 1_545 S
O76 Cd67 2.378 . S
O76 C74 1.256 . S
O77 Cd78 2.300 . S
O77 C84 1.275 . S
Cd78 O77 2.300 . S
Cd78 O86 2.381 . S
Cd78 O87 2.378 . S
O79 Cd80 2.385 . S
O79 C84 1.255 . S
Cd80 O79 2.385 . S
Cd80 O81 2.317 . S
O81 Cd80 2.317 . S
O81 C82 1.232 . S
C82 O81 1.232 . S
C82 O83 1.218 . S
O83 C82 1.218 . S
C84 O77 1.275 . S
C84 O79 1.255 . S
C85 O86 1.258 . S
C85 O87 1.256 . S
O86 Cd78 2.381 . S
O86 C85 1.258 . S
O87 Cd78 2.378 . S
O87 C85 1.256 . S
O88 Cd89 2.300 . S
O88 C95 1.275 . S
Cd89 O88 2.300 . S
Cd89 O97 2.381 . S
Cd89 O98 2.378 . S
O90 Cd91 2.385 . S
O90 C95 1.255 . S
Cd91 O90 2.385 . S
Cd91 O92 2.317 . S
O92 Cd91 2.317 . S
O92 C93 1.232 . S
C93 O92 1.232 . S
C93 O94 1.218 . S
O94 C93 1.218 . S
C95 O88 1.275 . S
C95 O90 1.255 . S
C96 O97 1.258 . S
C96 O98 1.256 . S
O97 Cd89 2.381 . S
O97 C96 1.258 . S
O98 Cd89 2.378 . S
O98 C96 1.256 . S
O99 Cd100 2.300 . S
O99 C106 1.275 . S
Cd100 O99 2.300 . S
Cd100 O108 2.381 . S
Cd100 O109 2.378 . S
O101 Cd102 2.385 . S
O101 C106 1.255 . S
Cd102 O101 2.385 . S
Cd102 O103 2.317 . S
O103 Cd102 2.317 . S
O103 C104 1.232 . S
C104 O103 1.232 . S
C104 O105 1.218 . S
O105 C104 1.218 . S
C106 O99 1.275 . S
C106 O101 1.255 . S
C107 O108 1.258 . S
C107 O109 1.256 . S
O108 Cd100 2.381 . S
O108 C107 1.258 . S
O109 Cd100 2.378 . S
O109 C107 1.256 . S
O110 Cd111 2.300 . S
O110 C117 1.275 . S
Cd111 O110 2.300 . S
Cd111 O119 2.381 . S
Cd111 O120 2.378 . S
O112 Cd113 2.385 . S
O112 C117 1.255 . S
Cd113 O112 2.385 . S
Cd113 O114 2.317 . S
O114 Cd113 2.317 . S
O114 C115 1.232 . S
C115 O114 1.232 . S
C115 O116 1.218 . S
O116 C115 1.218 . S
C117 O110 1.275 . S
C117 O112 1.255 . S
C118 O119 1.258 . S
C118 O120 1.256 . S
O119 Cd111 2.381 . S
O119 C118 1.258 . S
O120 Cd111 2.378 . S
O120 C118 1.256 . S
O121 Cd122 2.300 . S
O121 C128 1.275 . S
Cd122 O121 2.300 . S
Cd122 O130 2.381 . S
Cd122 O131 2.378 . S
O123 Cd124 2.385 . S
O123 C128 1.255 . S
Cd124 O123 2.385 . S
Cd124 O125 2.317 . S
O125 Cd124 2.317 . S
O125 C126 1.232 . S
C126 O125 1.232 . S
C126 O127 1.218 . S
O127 C126 1.218 . S
C128 O121 1.275 . S
C128 O123 1.255 . S
C129 O130 1.258 . S
C129 O131 1.256 . S
O130 Cd122 2.381 . S
O130 C129 1.258 . S
O131 Cd122 2.378 . S
O131 C129 1.256 . S
O132 Cd133 2.300 . S
O132 C139 1.275 . S
Cd133 O132 2.300 . S
Cd133 O141 2.381 . S
Cd133 O142 2.378 . S
O134 Cd135 2.385 . S
O134 C139 1.255 . S
Cd135 O134 2.385 . S
Cd135 O136 2.317 . S
O136 Cd135 2.317 . S
O136 C137 1.232 . S
C137 O136 1.232 . S
C137 O138 1.218 . S
O138 C137 1.218 . S
C139 O132 1.275 . S
C139 O134 1.255 . S
C140 O141 1.258 . S
C140 O142 1.256 . S
O141 Cd133 2.381 . S
O141 C140 1.258 . S
O142 Cd133 2.378 . S
O142 C140 1.256 . S
O143 Cd144 2.300 . S
O143 C150 1.275 . S
Cd144 O143 2.300 . S
Cd144 O152 2.381 . S
Cd144 O153 2.378 . S
O145 Cd146 2.385 . S
O145 C150 1.255 . S
Cd146 O145 2.385 . S
Cd146 O147 2.317 . S
O147 Cd146 2.317 . S
O147 C148 1.232 . S
C148 O147 1.232 . S
C148 O149 1.218 . S
O149 C148 1.218 . S
C150 O143 1.275 . S
C150 O145 1.255 . S
C151 O152 1.258 . S
C151 O153 1.256 . S
O152 Cd144 2.381 . S
O152 C151 1.258 . S
O153 Cd144 2.378 . S
O153 C151 1.256 . S
O154 Cd155 2.300 . S
O154 C161 1.275 . S
Cd155 O154 2.300 . S
Cd155 O163 2.381 . S
Cd155 O164 2.378 . S
O156 Cd157 2.385 . S
O156 C161 1.255 . S
Cd157 O156 2.385 . S
Cd157 O158 2.317 . S
O158 Cd157 2.317 . S
O158 C159 1.232 . S
C159 O158 1.232 . S
C159 O160 1.218 . S
O160 C159 1.218 . S
C161 O154 1.275 . S
C161 O156 1.255 . S
C162 O163 1.258 . S
C162 O164 1.256 . S
O163 Cd155 2.381 . S
O163 C162 1.258 . S
O164 Cd155 2.378 . S
O164 C162 1.256 . S
O165 Cd166 2.300 . S
O165 C172 1.275 . S
Cd166 O165 2.300 . S
Cd166 O174 2.381 . S
Cd166 O175 2.378 . S
O167 Cd168 2.385 . S
O167 C172 1.255 . S
Cd168 O167 2.385 . S
Cd168 O169 2.317 . S
O169 Cd168 2.317 . S
O169 C170 1.232 . S
C170 O169 1.232 . S
C170 O171 1.218 . S
O171 C170 1.218 . S
C172 O165 1.275 . S
C172 O167 1.255 . S
C173 O174 1.258 . S
C173 O175 1.256 . S
O174 Cd166 2.381 . S
O174 C173 1.258 . S
O175 Cd166 2.378 . S
O175 C173 1.256 . S
C176 C177 1.369 . S
C176 C178 1.419 1_554 S
C176 H180 0.930 . S
C177 C176 1.369 . S
C177 C186 1.429 . S
C178 C176 1.419 1_556 S
C178 C179 1.363 . S
C178 H181 0.929 . S
C179 C178 1.363 . S
C179 C185 1.428 1_556 S
H180 C176 0.930 . S
H181 C178 0.929 . S
S182 N183 1.613 . S
S182 N184 1.610 . S
N183 S182 1.613 . S
N183 C186 1.350 . S
N184 S182 1.610 . S
N184 C185 1.351 . S
C185 C179 1.428 1_554 S
C185 N184 1.351 . S
C185 C186 1.434 . S
C186 C177 1.429 . S
C186 N183 1.350 . S
C186 C185 1.434 . S
C187 C188 1.369 . S
C187 C189 1.419 . S
C187 H191 0.930 . S
C188 C187 1.369 . S
C188 C197 1.429 . S
C189 C187 1.419 . S
C189 C190 1.363 . S
C189 H192 0.929 . S
C190 C189 1.363 . S
C190 C196 1.428 . S
H191 C187 0.930 . S
H192 C189 0.929 . S
S193 N194 1.613 . S
S193 N195 1.610 . S
N194 S193 1.613 . S
N194 C197 1.350 . S
N195 S193 1.610 . S
N195 C196 1.351 . S
C196 C190 1.428 . S
C196 N195 1.351 . S
C196 C197 1.434 . S
C197 C188 1.429 . S
C197 N194 1.350 . S
C197 C196 1.434 . S
C198 C199 1.369 1_565 S
C198 C200 1.419 1_565 S
C198 H202 0.930 . S
C199 C198 1.369 1_545 S
C199 C208 1.429 . S
C200 C198 1.419 1_545 S
C200 C201 1.363 . S
C200 H203 0.929 1_545 S
C201 C200 1.363 . S
C201 C207 1.428 . S
H202 C198 0.930 . S
H203 C200 0.929 1_565 S
S204 N205 1.613 . S
S204 N206 1.610 . S
N205 S204 1.613 . S
N205 C208 1.350 . S
N206 S204 1.610 . S
N206 C207 1.351 . S
C207 C201 1.428 . S
C207 N206 1.351 . S
C207 C208 1.434 . S
C208 C199 1.429 . S
C208 N205 1.350 . S
C208 C207 1.434 . S
C209 C210 1.369 . S
C209 C211 1.419 . S
C209 H213 0.930 . S
C210 C209 1.369 . S
C210 C219 1.429 . S
C211 C209 1.419 . S
C211 C212 1.363 . S
C211 H214 0.929 . S
C212 C211 1.363 . S
C212 C218 1.428 . S
H213 C209 0.930 . S
H214 C211 0.929 . S
S215 N216 1.613 . S
S215 N217 1.610 . S
N216 S215 1.613 . S
N216 C219 1.350 . S
N217 S215 1.610 . S
N217 C218 1.351 . S
C218 C212 1.428 . S
C218 N217 1.351 . S
C218 C219 1.434 . S
C219 C210 1.429 . S
C219 N216 1.350 . S
C219 C218 1.434 . S
C220 C221 1.369 . S
C220 C222 1.419 . S
C220 H224 0.930 . S
C221 C220 1.369 . S
C221 C230 1.429 1_545 S
C222 C220 1.419 . S
C222 C223 1.363 . S
C222 H225 0.929 . S
C223 C222 1.363 . S
C223 C229 1.428 1_545 S
H224 C220 0.930 . S
H225 C222 0.929 . S
S226 N227 1.613 . S
S226 N228 1.610 . S
N227 S226 1.613 . S
N227 C230 1.350 . S
N228 S226 1.610 . S
N228 C229 1.351 . S
C229 C223 1.428 1_565 S
C229 N228 1.351 . S
C229 C230 1.434 . S
C230 C221 1.429 1_565 S
C230 N227 1.350 . S
C230 C229 1.434 . S
C231 C232 1.369 . S
C231 C233 1.419 . S
C231 H235 0.930 . S
C232 C231 1.369 . S
C232 C241 1.429 . S
C233 C231 1.419 . S
C233 C234 1.363 . S
C233 H236 0.929 . S
C234 C233 1.363 . S
C234 C240 1.428 . S
H235 C231 0.930 . S
H236 C233 0.929 . S
S237 N238 1.613 . S
S237 N239 1.610 . S
N238 S237 1.613 . S
N238 C241 1.350 . S
N239 S237 1.610 . S
N239 C240 1.351 . S
C240 C234 1.428 . S
C240 N239 1.351 . S
C240 C241 1.434 . S
C241 C232 1.429 . S
C241 N238 1.350 . S
C241 C240 1.434 . S
C242 C243 1.369 . S
C242 C244 1.419 . S
C242 H246 0.930 . S
C243 C242 1.369 . S
C243 C252 1.429 . S
C244 C242 1.419 . S
C244 C245 1.363 . S
C244 H247 0.929 . S
C245 C244 1.363 . S
C245 C251 1.428 . S
H246 C242 0.930 . S
H247 C244 0.929 . S
S248 N249 1.613 . S
S248 N250 1.610 . S
N249 S248 1.613 . S
N249 C252 1.350 . S
N250 S248 1.610 . S
N250 C251 1.351 . S
C251 C245 1.428 . S
C251 N250 1.351 . S
C251 C252 1.434 . S
C252 C243 1.429 . S
C252 N249 1.350 . S
C252 C251 1.434 . S
C253 C254 1.369 . S
C253 C255 1.419 . S
C253 H257 0.930 . S
C254 C253 1.369 . S
C254 C263 1.429 . S
C255 C253 1.419 . S
C255 C256 1.363 . S
C255 H258 0.929 . S
C256 C255 1.363 . S
C256 C262 1.428 . S
H257 C253 0.930 . S
H258 C255 0.929 . S
S259 N260 1.613 . S
S259 N261 1.610 . S
N260 S259 1.613 . S
N260 C263 1.350 1_545 S
N261 S259 1.610 . S
N261 C262 1.351 1_545 S
C262 C256 1.428 . S
C262 N261 1.351 1_565 S
C262 C263 1.434 . S
C263 C254 1.429 . S
C263 N260 1.350 1_565 S
C263 C262 1.434 . S
C264 C265 1.369 . S
C264 C266 1.419 . S
C264 H268 0.930 . S
C265 C264 1.369 . S
C265 C274 1.429 . S
C266 C264 1.419 . S
C266 C267 1.363 . S
C266 H269 0.929 . S
C267 C266 1.363 . S
C267 C273 1.428 . S
H268 C264 0.930 . S
H269 C266 0.929 . S
S270 N271 1.613 . S
S270 N272 1.610 . S
N271 S270 1.613 . S
N271 C274 1.350 . S
N272 S270 1.610 . S
N272 C273 1.351 . S
C273 C267 1.428 . S
C273 N272 1.351 . S
C273 C274 1.434 . S
C274 C265 1.429 . S
C274 N271 1.350 . S
C274 C273 1.434 . S
C275 C276 1.369 . S
C275 C277 1.419 . S
C275 H279 0.930 . S
C276 C275 1.369 . S
C276 C285 1.429 . S
C277 C275 1.419 . S
C277 C278 1.363 . S
C277 H280 0.929 . S
C278 C277 1.363 . S
C278 C284 1.428 . S
H279 C275 0.930 . S
H280 C277 0.929 . S
S281 N282 1.613 . S
S281 N283 1.610 . S
N282 S281 1.613 . S
N282 C285 1.350 . S
N283 S281 1.610 . S
N283 C284 1.351 . S
C284 C278 1.428 . S
C284 N283 1.351 . S
C284 C285 1.434 . S
C285 C276 1.429 . S
C285 N282 1.350 . S
C285 C284 1.434 . S
C286 C287 1.369 . S
C286 C288 1.419 1_554 S
C286 H290 0.930 . S
C287 C286 1.369 . S
C287 C296 1.429 . S
C288 C286 1.419 1_556 S
C288 C289 1.363 . S
C288 H291 0.929 . S
C289 C288 1.363 . S
C289 C295 1.428 . S
H290 C286 0.930 . S
H291 C288 0.929 . S
S292 N293 1.613 . S
S292 N294 1.610 1_554 S
N293 S292 1.613 . S
N293 C296 1.350 . S
N294 S292 1.610 1_556 S
N294 C295 1.351 . S
C295 C289 1.428 . S
C295 N294 1.351 . S
C295 C296 1.434 1_556 S
C296 C287 1.429 . S
C296 N293 1.350 . S
C296 C295 1.434 1_554 S
C297 C298 1.369 . S
C297 C299 1.419 . S
C297 H301 0.930 . S
C298 C297 1.369 . S
C298 C307 1.429 . S
C299 C297 1.419 . S
C299 C300 1.363 . S
C299 H302 0.929 . S
C300 C299 1.363 . S
C300 C306 1.428 . S
H301 C297 0.930 . S
H302 C299 0.929 . S
S303 N304 1.613 . S
S303 N305 1.610 . S
N304 S303 1.613 . S
N304 C307 1.350 . S
N305 S303 1.610 . S
N305 C306 1.351 . S
C306 C300 1.428 . S
C306 N305 1.351 . S
C306 C307 1.434 . S
C307 C298 1.429 . S
C307 N304 1.350 . S
C307 C306 1.434 . S
C308 C309 1.369 . S
C308 C310 1.419 . S
C308 H312 0.930 . S
C309 C308 1.369 . S
C309 C318 1.429 . S
C310 C308 1.419 . S
C310 C311 1.363 . S
C310 H313 0.929 . S
C311 C310 1.363 . S
C311 C317 1.428 . S
H312 C308 0.930 . S
H313 C310 0.929 . S
S314 N315 1.613 . S
S314 N316 1.610 . S
N315 S314 1.613 . S
N315 C318 1.350 . S
N316 S314 1.610 . S
N316 C317 1.351 . S
C317 C311 1.428 . S
C317 N316 1.351 . S
C317 C318 1.434 . S
C318 C309 1.429 . S
C318 N315 1.350 . S
C318 C317 1.434 . S
C319 C320 1.369 . S
C319 C321 1.419 . S
C319 H323 0.930 . S
C320 C319 1.369 . S
C320 C329 1.429 . S
C321 C319 1.419 . S
C321 C322 1.363 . S
C321 H324 0.929 . S
C322 C321 1.363 . S
C322 C328 1.428 . S
H323 C319 0.930 . S
H324 C321 0.929 . S
S325 N326 1.613 . S
S325 N327 1.610 . S
N326 S325 1.613 . S
N326 C329 1.350 . S
N327 S325 1.610 . S
N327 C328 1.351 . S
C328 C322 1.428 . S
C328 N327 1.351 . S
C328 C329 1.434 . S
C329 C320 1.429 . S
C329 N326 1.350 . S
C329 C328 1.434 . S
C330 C331 1.369 . S
C330 C332 1.419 . S
C330 H334 0.930 . S
C331 C330 1.369 . S
C331 C340 1.429 . S
C332 C330 1.419 . S
C332 C333 1.363 . S
C332 H335 0.929 . S
C333 C332 1.363 . S
C333 C339 1.428 . S
H334 C330 0.930 . S
H335 C332 0.929 . S
S336 N337 1.613 . S
S336 N338 1.610 . S
N337 S336 1.613 . S
N337 C340 1.350 . S
N338 S336 1.610 . S
N338 C339 1.351 . S
C339 C333 1.428 . S
C339 N338 1.351 . S
C339 C340 1.434 . S
C340 C331 1.429 . S
C340 N337 1.350 . S
C340 C339 1.434 . S
C341 C342 1.369 1_556 S
C341 C343 1.419 . S
C341 H345 0.930 . S
C342 C341 1.369 1_554 S
C342 C351 1.429 . S
C343 C341 1.419 . S
C343 C344 1.363 . S
C343 H346 0.929 . S
C344 C343 1.363 . S
C344 C350 1.428 . S
H345 C341 0.930 . S
H346 C343 0.929 . S
S347 N348 1.613 . S
S347 N349 1.610 1_554 S
N348 S347 1.613 . S
N348 C351 1.350 . S
N349 S347 1.610 1_556 S
N349 C350 1.351 . S
C350 C344 1.428 . S
C350 N349 1.351 . S
C350 C351 1.434 1_556 S
C351 C342 1.429 . S
C351 N348 1.350 . S
C351 C350 1.434 1_554 S
C352 C353 1.369 . S
C352 C354 1.419 . S
C352 H356 0.930 . S
C353 C352 1.369 . S
C353 C362 1.429 . S
C354 C352 1.419 . S
C354 C355 1.363 1_655 S
C354 H357 0.929 . S
C355 C354 1.363 1_455 S
C355 C361 1.428 1_455 S
H356 C352 0.930 . S
H357 C354 0.929 . S
S358 N359 1.613 . S
S358 N360 1.610 1_655 S
N359 S358 1.613 . S
N359 C362 1.350 . S
N360 S358 1.610 1_455 S
N360 C361 1.351 1_455 S
C361 C355 1.428 1_655 S
C361 N360 1.351 1_655 S
C361 C362 1.434 . S
C362 C353 1.429 . S
C362 N359 1.350 . S
C362 C361 1.434 . S
C363 C364 1.369 . S
C363 C365 1.419 . S
C363 H367 0.930 . S
C364 C363 1.369 . S
C364 C373 1.429 . S
C365 C363 1.419 . S
C365 C366 1.363 . S
C365 H368 0.929 . S
C366 C365 1.363 . S
C366 C372 1.428 . S
H367 C363 0.930 . S
H368 C365 0.929 . S
S369 N370 1.613 . S
S369 N371 1.610 . S
N370 S369 1.613 . S
N370 C373 1.350 . S
N371 S369 1.610 . S
N371 C372 1.351 . S
C372 C366 1.428 . S
C372 N371 1.351 . S
C372 C373 1.434 . S
C373 C364 1.429 . S
C373 N370 1.350 . S
C373 C372 1.434 . S
C374 C375 1.369 . S
C374 C376 1.419 . S
C374 H378 0.930 . S
C375 C374 1.369 . S
C375 C384 1.429 . S
C376 C374 1.419 . S
C376 C377 1.363 . S
C376 H379 0.929 . S
C377 C376 1.363 . S
C377 C383 1.428 . S
H378 C374 0.930 . S
H379 C376 0.929 . S
S380 N381 1.613 1_565 S
S380 N382 1.610 . S
N381 S380 1.613 1_545 S
N381 C384 1.350 . S
N382 S380 1.610 . S
N382 C383 1.351 1_565 S
C383 C377 1.428 . S
C383 N382 1.351 1_545 S
C383 C384 1.434 . S
C384 C375 1.429 . S
C384 N381 1.350 . S
C384 C383 1.434 . S
C385 C386 1.369 . S
C385 C387 1.419 . S
C385 H389 0.930 . S
C386 C385 1.369 . S
C386 C395 1.429 . S
C387 C385 1.419 . S
C387 C388 1.363 . S
C387 H390 0.929 . S
C388 C387 1.363 . S
C388 C394 1.428 . S
H389 C385 0.930 . S
H390 C387 0.929 . S
S391 N392 1.613 . S
S391 N393 1.610 . S
N392 S391 1.613 . S
N392 C395 1.350 . S
N393 S391 1.610 . S
N393 C394 1.351 . S
C394 C388 1.428 . S
C394 N393 1.351 . S
C394 C395 1.434 . S
C395 C386 1.429 . S
C395 N392 1.350 . S
C395 C394 1.434 . S
C396 C397 1.369 . S
C396 C398 1.419 . S
C396 H400 0.930 . S
C397 C396 1.369 . S
C397 C406 1.429 . S
C398 C396 1.419 . S
C398 C399 1.363 . S
C398 H401 0.929 . S
C399 C398 1.363 . S
C399 C405 1.428 . S
H400 C396 0.930 . S
H401 C398 0.929 . S
S402 N403 1.613 . S
S402 N404 1.610 . S
N403 S402 1.613 . S
N403 C406 1.350 . S
N404 S402 1.610 . S
N404 C405 1.351 . S
C405 C399 1.428 . S
C405 N404 1.351 . S
C405 C406 1.434 . S
C406 C397 1.429 . S
C406 N403 1.350 . S
C406 C405 1.434 . S
C407 C408 1.369 . S
C407 C409 1.419 . S
C407 H411 0.930 . S
C408 C407 1.369 . S
C408 C417 1.429 . S
C409 C407 1.419 . S
C409 C410 1.363 . S
C409 H412 0.929 . S
C410 C409 1.363 . S
C410 C416 1.428 . S
H411 C407 0.930 . S
H412 C409 0.929 . S
S413 N414 1.613 . S
S413 N415 1.610 . S
N414 S413 1.613 . S
N414 C417 1.350 . S
N415 S413 1.610 . S
N415 C416 1.351 . S
C416 C410 1.428 . S
C416 N415 1.351 . S
C416 C417 1.434 . S
C417 C408 1.429 . S
C417 N414 1.350 . S
C417 C416 1.434 . S
C418 C419 1.369 . S
C418 C420 1.419 . S
C418 H422 0.930 . S
C419 C418 1.369 . S
C419 C428 1.429 . S
C420 C418 1.419 . S
C420 C421 1.363 . S
C420 H423 0.929 . S
C421 C420 1.363 . S
C421 C427 1.428 . S
H422 C418 0.930 . S
H423 C420 0.929 . S
S424 N425 1.613 . S
S424 N426 1.610 . S
N425 S424 1.613 . S
N425 C428 1.350 . S
N426 S424 1.610 . S
N426 C427 1.351 . S
C427 C421 1.428 . S
C427 N426 1.351 . S
C427 C428 1.434 . S
C428 C419 1.429 . S
C428 N425 1.350 . S
C428 C427 1.434 . S
C429 C430 1.369 . S
C429 C431 1.419 1_655 S
C429 H433 0.930 . S
C430 C429 1.369 . S
C430 C439 1.429 . S
C431 C429 1.419 1_455 S
C431 C432 1.363 . S
C431 H434 0.929 . S
C432 C431 1.363 . S
C432 C438 1.428 1_455 S
H433 C429 0.930 . S
H434 C431 0.929 . S
S435 N436 1.613 . S
S435 N437 1.610 . S
N436 S435 1.613 . S
N436 C439 1.350 . S
N437 S435 1.610 . S
N437 C438 1.351 . S
C438 C432 1.428 1_655 S
C438 N437 1.351 . S
C438 C439 1.434 . S
C439 C430 1.429 . S
C439 N436 1.350 . S
C439 C438 1.434 . S
C177 C7 1.450 . S
C179 C38 1.437 . S
C188 C16 1.365 . S
C190 C8 1.521 . S
C199 C19 1.510 1_545 S
C201 C27 1.303 . S
C210 C41 1.516 . S
C212 C30 1.522 . S
C221 C85 1.495 1_545 S
C223 C49 1.315 . S
C232 C52 1.506 1_556 S
C234 C63 1.494 . S
C243 C73 1.523 . S
C245 C60 1.294 . S
C254 C82 1.312 . S
C256 C74 1.547 . S
C265 C126 1.448 . S
C267 C95 1.459 . S
C276 C96 1.519 . S
C278 C104 1.369 . S
C287 C115 1.313 . S
C289 C107 1.513 . S
C298 C118 1.523 . S
C300 C129 1.517 . S
C309 C137 1.313 . S
C311 C173 1.494 . S
C320 C151 1.494 . S
C322 C140 1.506 . S
C331 C148 1.295 . S
C333 C161 1.525 . S
C342 C162 1.547 . S
C344 C170 1.316 . S
C353 C51 1.476 . S
C355 C5 1.260 . S
C364 C150 1.466 . S
C366 C18 1.497 . S
C375 C29 1.523 . S
C377 C71 1.420 . S
C386 C172 1.492 . S
C388 C40 1.498 . S
C397 C106 1.501 . S
C399 C62 1.471 . S
C408 C84 1.483 . S
C410 C128 1.494 . S
C419 C139 1.477 . S
C421 C93 1.260 . S
C430 C117 1.524 . S
C432 C159 1.419 . S
