# Generated by pormake.
# Topology uml, (4)-cn, num edge types: 1
# Building blocks:
#     Node 0, Type 0, BuildingBlock: CEKHIL_clean_sbu_0, # of connection points: 4
#     Node 1, Type 0, BuildingBlock: CEKHIL_clean_sbu_0, # of connection points: 4
#     Node 2, Type 0, BuildingBlock: CEKHIL_clean_sbu_0, # of connection points: 4
#     Node 3, Type 0, BuildingBlock: CEKHIL_clean_sbu_0, # of connection points: 4
#     Node 4, Type 0, BuildingBlock: CEKHIL_clean_sbu_0, # of connection points: 4
#     Node 5, Type 0, BuildingBlock: CEKHIL_clean_sbu_0, # of connection points: 4
#     Node 6, Type 0, BuildingBlock: CEKHIL_clean_sbu_0, # of connection points: 4
#     Node 7, Type 0, BuildingBlock: CEKHIL_clean_sbu_0, # of connection points: 4
#     Node 8, Type 0, BuildingBlock: CEKHIL_clean_sbu_0, # of connection points: 4
#     Node 9, Type 0, BuildingBlock: CEKHIL_clean_sbu_0, # of connection points: 4
#     Node 10, Type 0, BuildingBlock: CEKHIL_clean_sbu_0, # of connection points: 4
#     Node 11, Type 0, BuildingBlock: CEKHIL_clean_sbu_0, # of connection points: 4
#     Node 12, Type 0, BuildingBlock: CEKHIL_clean_sbu_0, # of connection points: 4
#     Node 13, Type 0, BuildingBlock: CEKHIL_clean_sbu_0, # of connection points: 4
#     Node 14, Type 0, BuildingBlock: CEKHIL_clean_sbu_0, # of connection points: 4
#     Node 15, Type 0, BuildingBlock: CEKHIL_clean_sbu_0, # of connection points: 4
#     Node 16, Type 0, BuildingBlock: CEKHIL_clean_sbu_0, # of connection points: 4
#     Node 17, Type 0, BuildingBlock: CEKHIL_clean_sbu_0, # of connection points: 4
#     Node 18, Type 0, BuildingBlock: CEKHIL_clean_sbu_0, # of connection points: 4
#     Node 19, Type 0, BuildingBlock: CEKHIL_clean_sbu_0, # of connection points: 4
#     Node 20, Type 0, BuildingBlock: CEKHIL_clean_sbu_0, # of connection points: 4
#     Node 21, Type 0, BuildingBlock: CEKHIL_clean_sbu_0, # of connection points: 4
#     Node 22, Type 0, BuildingBlock: CEKHIL_clean_sbu_0, # of connection points: 4
#     Node 23, Type 0, BuildingBlock: CEKHIL_clean_sbu_0, # of connection points: 4
#     Node 24, Type 0, BuildingBlock: CEKHIL_clean_sbu_0, # of connection points: 4
#     Node 25, Type 0, BuildingBlock: CEKHIL_clean_sbu_0, # of connection points: 4
#     Node 26, Type 0, BuildingBlock: CEKHIL_clean_sbu_0, # of connection points: 4
#     Node 27, Type 0, BuildingBlock: CEKHIL_clean_sbu_0, # of connection points: 4
#     Node 28, Type 0, BuildingBlock: CEKHIL_clean_sbu_0, # of connection points: 4
#     Node 29, Type 0, BuildingBlock: CEKHIL_clean_sbu_0, # of connection points: 4
#     Node 30, Type 0, BuildingBlock: CEKHIL_clean_sbu_0, # of connection points: 4
#     Node 31, Type 0, BuildingBlock: CEKHIL_clean_sbu_0, # of connection points: 4
#     Node 32, Type 0, BuildingBlock: CEKHIL_clean_sbu_0, # of connection points: 4
#     Node 33, Type 0, BuildingBlock: CEKHIL_clean_sbu_0, # of connection points: 4
#     Node 34, Type 0, BuildingBlock: CEKHIL_clean_sbu_0, # of connection points: 4
#     Node 35, Type 0, BuildingBlock: CEKHIL_clean_sbu_0, # of connection points: 4
#     Edge 36, Type (0, 0), BuildingBlock: OJICUG_clean_linker_0, # of connection points: 2
#     Edge 37, Type (0, 0), BuildingBlock: OJICUG_clean_linker_0, # of connection points: 2
#     Edge 38, Type (0, 0), BuildingBlock: OJICUG_clean_linker_0, # of connection points: 2
#     Edge 39, Type (0, 0), BuildingBlock: OJICUG_clean_linker_0, # of connection points: 2
#     Edge 40, Type (0, 0), BuildingBlock: OJICUG_clean_linker_0, # of connection points: 2
#     Edge 41, Type (0, 0), BuildingBlock: OJICUG_clean_linker_0, # of connection points: 2
#     Edge 42, Type (0, 0), BuildingBlock: OJICUG_clean_linker_0, # of connection points: 2
#     Edge 43, Type (0, 0), BuildingBlock: OJICUG_clean_linker_0, # of connection points: 2
#     Edge 44, Type (0, 0), BuildingBlock: OJICUG_clean_linker_0, # of connection points: 2
#     Edge 45, Type (0, 0), BuildingBlock: OJICUG_clean_linker_0, # of connection points: 2
#     Edge 46, Type (0, 0), BuildingBlock: OJICUG_clean_linker_0, # of connection points: 2
#     Edge 47, Type (0, 0), BuildingBlock: OJICUG_clean_linker_0, # of connection points: 2
#     Edge 48, Type (0, 0), BuildingBlock: OJICUG_clean_linker_0, # of connection points: 2
#     Edge 49, Type (0, 0), BuildingBlock: OJICUG_clean_linker_0, # of connection points: 2
#     Edge 50, Type (0, 0), BuildingBlock: OJICUG_clean_linker_0, # of connection points: 2
#     Edge 51, Type (0, 0), BuildingBlock: OJICUG_clean_linker_0, # of connection points: 2
#     Edge 52, Type (0, 0), BuildingBlock: OJICUG_clean_linker_0, # of connection points: 2
#     Edge 53, Type (0, 0), BuildingBlock: OJICUG_clean_linker_0, # of connection points: 2
#     Edge 54, Type (0, 0), BuildingBlock: OJICUG_clean_linker_0, # of connection points: 2
#     Edge 55, Type (0, 0), BuildingBlock: OJICUG_clean_linker_0, # of connection points: 2
#     Edge 56, Type (0, 0), BuildingBlock: OJICUG_clean_linker_0, # of connection points: 2
#     Edge 57, Type (0, 0), BuildingBlock: OJICUG_clean_linker_0, # of connection points: 2
#     Edge 58, Type (0, 0), BuildingBlock: OJICUG_clean_linker_0, # of connection points: 2
#     Edge 59, Type (0, 0), BuildingBlock: OJICUG_clean_linker_0, # of connection points: 2
#     Edge 60, Type (0, 0), BuildingBlock: OJICUG_clean_linker_0, # of connection points: 2
#     Edge 61, Type (0, 0), BuildingBlock: OJICUG_clean_linker_0, # of connection points: 2
#     Edge 62, Type (0, 0), BuildingBlock: OJICUG_clean_linker_0, # of connection points: 2
#     Edge 63, Type (0, 0), BuildingBlock: OJICUG_clean_linker_0, # of connection points: 2
#     Edge 64, Type (0, 0), BuildingBlock: OJICUG_clean_linker_0, # of connection points: 2
#     Edge 65, Type (0, 0), BuildingBlock: OJICUG_clean_linker_0, # of connection points: 2
#     Edge 66, Type (0, 0), BuildingBlock: OJICUG_clean_linker_0, # of connection points: 2
#     Edge 67, Type (0, 0), BuildingBlock: OJICUG_clean_linker_0, # of connection points: 2
#     Edge 68, Type (0, 0), BuildingBlock: OJICUG_clean_linker_0, # of connection points: 2
#     Edge 69, Type (0, 0), BuildingBlock: OJICUG_clean_linker_0, # of connection points: 2
#     Edge 70, Type (0, 0), BuildingBlock: OJICUG_clean_linker_0, # of connection points: 2
#     Edge 71, Type (0, 0), BuildingBlock: OJICUG_clean_linker_0, # of connection points: 2
#     Edge 72, Type (0, 0), BuildingBlock: OJICUG_clean_linker_0, # of connection points: 2
#     Edge 73, Type (0, 0), BuildingBlock: OJICUG_clean_linker_0, # of connection points: 2
#     Edge 74, Type (0, 0), BuildingBlock: OJICUG_clean_linker_0, # of connection points: 2
#     Edge 75, Type (0, 0), BuildingBlock: OJICUG_clean_linker_0, # of connection points: 2
#     Edge 76, Type (0, 0), BuildingBlock: OJICUG_clean_linker_0, # of connection points: 2
#     Edge 77, Type (0, 0), BuildingBlock: OJICUG_clean_linker_0, # of connection points: 2
#     Edge 78, Type (0, 0), BuildingBlock: OJICUG_clean_linker_0, # of connection points: 2
#     Edge 79, Type (0, 0), BuildingBlock: OJICUG_clean_linker_0, # of connection points: 2
#     Edge 80, Type (0, 0), BuildingBlock: OJICUG_clean_linker_0, # of connection points: 2
#     Edge 81, Type (0, 0), BuildingBlock: OJICUG_clean_linker_0, # of connection points: 2
#     Edge 82, Type (0, 0), BuildingBlock: OJICUG_clean_linker_0, # of connection points: 2
#     Edge 83, Type (0, 0), BuildingBlock: OJICUG_clean_linker_0, # of connection points: 2
#     Edge 84, Type (0, 0), BuildingBlock: OJICUG_clean_linker_0, # of connection points: 2
#     Edge 85, Type (0, 0), BuildingBlock: OJICUG_clean_linker_0, # of connection points: 2
#     Edge 86, Type (0, 0), BuildingBlock: OJICUG_clean_linker_0, # of connection points: 2
#     Edge 87, Type (0, 0), BuildingBlock: OJICUG_clean_linker_0, # of connection points: 2
#     Edge 88, Type (0, 0), BuildingBlock: OJICUG_clean_linker_0, # of connection points: 2
#     Edge 89, Type (0, 0), BuildingBlock: OJICUG_clean_linker_0, # of connection points: 2
#     Edge 90, Type (0, 0), BuildingBlock: OJICUG_clean_linker_0, # of connection points: 2
#     Edge 91, Type (0, 0), BuildingBlock: OJICUG_clean_linker_0, # of connection points: 2
#     Edge 92, Type (0, 0), BuildingBlock: OJICUG_clean_linker_0, # of connection points: 2
#     Edge 93, Type (0, 0), BuildingBlock: OJICUG_clean_linker_0, # of connection points: 2
#     Edge 94, Type (0, 0), BuildingBlock: OJICUG_clean_linker_0, # of connection points: 2
#     Edge 95, Type (0, 0), BuildingBlock: OJICUG_clean_linker_0, # of connection points: 2
#     Edge 96, Type (0, 0), BuildingBlock: OJICUG_clean_linker_0, # of connection points: 2
#     Edge 97, Type (0, 0), BuildingBlock: OJICUG_clean_linker_0, # of connection points: 2
#     Edge 98, Type (0, 0), BuildingBlock: OJICUG_clean_linker_0, # of connection points: 2
#     Edge 99, Type (0, 0), BuildingBlock: OJICUG_clean_linker_0, # of connection points: 2
#     Edge 100, Type (0, 0), BuildingBlock: OJICUG_clean_linker_0, # of connection points: 2
#     Edge 101, Type (0, 0), BuildingBlock: OJICUG_clean_linker_0, # of connection points: 2
#     Edge 102, Type (0, 0), BuildingBlock: OJICUG_clean_linker_0, # of connection points: 2
#     Edge 103, Type (0, 0), BuildingBlock: OJICUG_clean_linker_0, # of connection points: 2
#     Edge 104, Type (0, 0), BuildingBlock: OJICUG_clean_linker_0, # of connection points: 2
#     Edge 105, Type (0, 0), BuildingBlock: OJICUG_clean_linker_0, # of connection points: 2
#     Edge 106, Type (0, 0), BuildingBlock: OJICUG_clean_linker_0, # of connection points: 2
#     Edge 107, Type (0, 0), BuildingBlock: OJICUG_clean_linker_0, # of connection points: 2
# Relax obj value: 0.147
# Max RMSD: 0.438
# Mean RMSD: 0.262
data_MOF--net-uml--node1-CEKHIL_clean_sbu_0--edge1-OJICUG_clean_linker_0
_symmetry_space_group_name_H-M    P1
_symmetry_Int_Tables_number       1
_symmetry_cell_setting            triclinic
loop_
_symmetry_equiv_pos_as_xyz
'x, y, z'
_cell_length_a     67.397181
_cell_length_b     65.317869
_cell_length_c     20.224834
_cell_angle_alpha  90.073258
_cell_angle_beta   90.180255
_cell_angle_gamma 115.95678
loop_
_atom_site_label
_atom_site_type_symbol
_atom_site_fract_x
_atom_site_fract_y
_atom_site_fract_z
_atom_type_partial_charge
Co0 Co 0.35168 0.0932 0.18336 0.0
O1 O 0.36866 0.07616 0.17746 0.0
O2 O 0.38014 0.11199 0.14497 0.0
C3 C 0.33911 0.0831 0.28703 0.0
O4 O 0.33899 0.11623 0.18375 0.0
Co5 Co 0.30074 0.06702 0.19618 0.0
O6 O 0.30272 0.0981 0.20685 0.0
C7 C 0.32089 0.07068 0.06589 0.0
C8 C 0.38398 0.09422 0.15091 0.0
C9 C 0.32024 0.11623 0.19542 0.0
O10 O 0.33971 0.08362 0.09141 0.0
O11 O 0.30333 0.06053 0.10009 0.0
O12 O 0.35882 0.09914 0.27715 0.0
O13 O 0.32881 0.07191 0.23502 0.0
Co14 Co 0.89843 0.26886 0.19112 0.0
O15 O 0.89295 0.2691 0.28447 0.0
O16 O 0.91884 0.26114 0.24066 0.0
C17 C 0.89718 0.30207 0.16548 0.0
O18 O 0.90937 0.26792 0.09709 0.0
Co19 Co 0.86085 0.26406 0.09379 0.0
O20 O 0.88347 0.26818 0.02645 0.0
C21 C 0.85828 0.2234 0.16187 0.0
C22 C 0.90892 0.26337 0.29337 0.0
C23 C 0.90225 0.26872 0.03831 0.0
O24 O 0.87756 0.23546 0.18612 0.0
O25 O 0.8478 0.23192 0.1274 0.0
O26 O 0.91482 0.30197 0.19119 0.0
O27 O 0.88012 0.28244 0.16392 0.0
Co28 Co 0.73497 0.62289 0.15456 0.0
O29 O 0.70364 0.60589 0.15314 0.0
O30 O 0.72618 0.59258 0.11407 0.0
C31 C 0.73656 0.63503 0.25927 0.0
O32 O 0.76938 0.63869 0.15406 0.0
Co33 Co 0.74881 0.67466 0.16447 0.0
O34 O 0.77716 0.67448 0.1881 0.0
C35 C 0.73619 0.65285 0.03534 0.0
C36 C 0.70591 0.58953 0.12427 0.0
C37 C 0.7831 0.65891 0.17467 0.0
O38 O 0.7341 0.63444 0.06317 0.0
O39 O 0.74107 0.67132 0.06753 0.0
O40 O 0.73567 0.61515 0.24703 0.0
O41 O 0.73363 0.64547 0.20839 0.0
Co42 Co 0.10087 0.35633 0.31613 0.0
O43 O 0.08616 0.37558 0.31373 0.0
O44 O 0.11957 0.38556 0.3557 0.0
C45 C 0.09261 0.34347 0.21156 0.0
O46 O 0.12132 0.34076 0.3242 0.0
Co47 Co 0.07317 0.30457 0.30609 0.0
O48 O 0.10204 0.3039 0.29616 0.0
C49 C 0.07489 0.32678 0.43331 0.0
C50 C 0.10328 0.39072 0.34394 0.0
C51 C 0.12009 0.32086 0.31157 0.0
O52 O 0.08853 0.34546 0.40682 0.0
O53 O 0.06572 0.30811 0.40071 0.0
O54 O 0.10914 0.36301 0.22401 0.0
O55 O 0.08019 0.33339 0.26165 0.0
Co56 Co 0.62651 0.74351 0.3273 0.0
O57 O 0.62097 0.74496 0.23466 0.0
O58 O 0.6503 0.74253 0.27686 0.0
C59 C 0.59273 0.7168 0.35478 0.0
O60 O 0.63679 0.74044 0.42035 0.0
Co61 Co 0.60196 0.76084 0.42511 0.0
O62 O 0.61577 0.74901 0.49158 0.0
C63 C 0.64082 0.79438 0.35739 0.0
C64 C 0.63941 0.74368 0.22486 0.0
C65 C 0.63016 0.74187 0.47909 0.0
O66 O 0.64341 0.77774 0.3317 0.0
O67 O 0.62422 0.79145 0.39347 0.0
O68 O 0.6071 0.7113 0.32744 0.0
O69 O 0.59807 0.73848 0.35636 0.0
Co70 Co 0.25943 0.90323 0.32766 0.0
O71 O 0.29119 0.91726 0.33138 0.0
O72 O 0.27028 0.88313 0.37109 0.0
C73 C 0.25704 0.91235 0.22057 0.0
O74 O 0.22548 0.88387 0.32791 0.0
Co75 Co 0.23808 0.93649 0.3044 0.0
O76 O 0.21173 0.90738 0.28798 0.0
C77 C 0.25418 0.93326 0.43727 0.0
C78 C 0.29006 0.89928 0.3609 0.0
C79 C 0.20928 0.88771 0.30609 0.0
O80 O 0.25798 0.91658 0.41729 0.0
O81 O 0.24803 0.94483 0.39822 0.0
O82 O 0.26025 0.89463 0.23476 0.0
O83 O 0.25798 0.92502 0.27058 0.0
Co84 Co 0.65592 0.91278 0.81531 0.0
O85 O 0.65039 0.90804 0.72234 0.0
O86 O 0.68366 0.92364 0.76815 0.0
C87 C 0.63242 0.92789 0.83512 0.0
O88 O 0.66735 0.92096 0.90988 0.0
Co89 Co 0.61763 0.88808 0.91572 0.0
O90 O 0.63835 0.91053 0.97869 0.0
C91 C 0.64244 0.86408 0.85987 0.0
C92 C 0.6716 0.9176 0.71467 0.0
C93 C 0.659 0.92074 0.96741 0.0
O94 O 0.65512 0.8817 0.82635 0.0
O95 O 0.62609 0.86312 0.894 0.0
O96 O 0.65185 0.94053 0.81133 0.0
O97 O 0.627 0.9064 0.83745 0.0
Co98 Co 0.10945 0.74718 0.81365 0.0
O99 O 0.11578 0.74721 0.72054 0.0
O100 O 0.08932 0.75471 0.76177 0.0
C101 C 0.11103 0.7142 0.83966 0.0
O102 O 0.09775 0.74833 0.90653 0.0
Co103 Co 0.14506 0.75144 0.91756 0.0
O104 O 0.12109 0.74554 0.98186 0.0
C105 C 0.1484 0.79265 0.84919 0.0
C106 C 0.09982 0.75285 0.70994 0.0
C107 C 0.10321 0.74662 0.96686 0.0
O108 O 0.13001 0.78055 0.81993 0.0
O109 O 0.15804 0.78407 0.88713 0.0
O110 O 0.09341 0.71403 0.81297 0.0
O111 O 0.12785 0.73396 0.84299 0.0
Co112 Co 0.26106 0.38974 0.82769 0.0
O113 O 0.26231 0.39745 0.73577 0.0
O114 O 0.25452 0.36305 0.7749 0.0
C115 C 0.2934 0.41855 0.8607 0.0
O116 O 0.25923 0.37632 0.91956 0.0
Co117 Co 0.25495 0.42173 0.92799 0.0
O118 O 0.26324 0.40411 0.99187 0.0
C119 C 0.21535 0.38576 0.8668 0.0
C120 C 0.25746 0.37625 0.72404 0.0
C121 C 0.26194 0.3845 0.97874 0.0
O122 O 0.22822 0.38085 0.83031 0.0
O123 O 0.22269 0.40214 0.90871 0.0
O124 O 0.29272 0.40078 0.8306 0.0
O125 O 0.27482 0.42026 0.86024 0.0
Co126 Co 0.90658 0.65063 0.69493 0.0
O127 O 0.90171 0.64436 0.78715 0.0
O128 O 0.91432 0.6788 0.74301 0.0
C129 C 0.92442 0.62937 0.67532 0.0
O130 O 0.91397 0.66275 0.60111 0.0
Co131 Co 0.88515 0.61032 0.59442 0.0
O132 O 0.90572 0.63297 0.53213 0.0
C133 C 0.8592 0.63342 0.64702 0.0
C134 C 0.90895 0.6661 0.79577 0.0
C135 C 0.91419 0.65432 0.54353 0.0
O136 O 0.87568 0.64704 0.68191 0.0
O137 O 0.85942 0.61704 0.61268 0.0
O138 O 0.93494 0.64958 0.70066 0.0
O139 O 0.90326 0.62165 0.67203 0.0
Co140 Co 0.38845 0.26881 0.67172 0.0
O141 O 0.39659 0.26543 0.76078 0.0
O142 O 0.3648 0.26504 0.72936 0.0
C143 C 0.42018 0.30057 0.64633 0.0
O144 O 0.37671 0.27172 0.58438 0.0
Co145 Co 0.41242 0.24978 0.60175 0.0
O146 O 0.39751 0.25871 0.52731 0.0
C147 C 0.37595 0.21692 0.65696 0.0
C148 C 0.37722 0.26354 0.7766 0.0
C149 C 0.38333 0.26692 0.52969 0.0
O150 O 0.37185 0.23426 0.66042 0.0
O151 O 0.39511 0.21945 0.64182 0.0
O152 O 0.40468 0.30138 0.68132 0.0
O153 O 0.4171 0.28028 0.62845 0.0
Co154 Co 0.74731 0.11681 0.68097 0.0
O155 O 0.74712 0.12273 0.77447 0.0
O156 O 0.75918 0.09926 0.73062 0.0
C157 C 0.71216 0.11147 0.66013 0.0
O158 O 0.74909 0.10558 0.58737 0.0
Co159 Co 0.74308 0.14931 0.57818 0.0
O160 O 0.73754 0.12418 0.51513 0.0
C161 C 0.78696 0.16056 0.6372 0.0
C162 C 0.75534 0.10832 0.78347 0.0
C163 C 0.74347 0.10862 0.52839 0.0
O164 O 0.77829 0.14229 0.67196 0.0
O165 O 0.77549 0.1669 0.59903 0.0
O166 O 0.71634 0.09544 0.68466 0.0
O167 O 0.72912 0.13115 0.65519 0.0
Co168 Co 0.02797 0.42793 0.51778 0.0
O169 O 0.04691 0.41317 0.51213 0.0
O170 O 0.05529 0.44802 0.47535 0.0
C171 C 0.01734 0.41843 0.62307 0.0
O172 O 0.01239 0.44855 0.51765 0.0
Co173 Co 0.97783 0.3978 0.53691 0.0
O174 O 0.97721 0.42766 0.54925 0.0
C175 C 0.99694 0.40143 0.40471 0.0
C176 C 0.06082 0.43138 0.48259 0.0
C177 C 0.99314 0.44662 0.53349 0.0
O178 O 0.01545 0.41615 0.4278 0.0
O179 O 0.98008 0.39059 0.44122 0.0
O180 O 0.03613 0.43558 0.61012 0.0
O181 O 0.00702 0.40608 0.57275 0.0
Co182 Co 0.56164 0.60555 0.51758 0.0
O183 O 0.55604 0.6051 0.61125 0.0
O184 O 0.58275 0.59868 0.56676 0.0
C185 C 0.55845 0.63797 0.49456 0.0
O186 O 0.57292 0.60534 0.42317 0.0
Co187 Co 0.52423 0.60025 0.41828 0.0
O188 O 0.54712 0.60503 0.35119 0.0
C189 C 0.52246 0.55989 0.48711 0.0
C190 C 0.57251 0.6001 0.61975 0.0
C191 C 0.56598 0.60588 0.36389 0.0
O192 O 0.54171 0.57203 0.51141 0.0
O193 O 0.5118 0.56827 0.45284 0.0
O194 O 0.57665 0.63882 0.51895 0.0
O195 O 0.54222 0.61786 0.49144 0.0
Co196 Co 0.4043 0.96535 0.50248 0.0
O197 O 0.37273 0.95006 0.49931 0.0
O198 O 0.39396 0.93478 0.46262 0.0
C199 C 0.40632 0.97805 0.60707 0.0
O200 O 0.43867 0.97871 0.50339 0.0
Co201 Co 0.42231 0.01776 0.51252 0.0
O202 O 0.44935 0.01504 0.53775 0.0
C203 C 0.40866 0.9963 0.38296 0.0
C204 C 0.37406 0.93303 0.47126 0.0
C205 C 0.4536 0.99831 0.52438 0.0
O206 O 0.40476 0.9773 0.41063 0.0
O207 O 0.41505 0.01497 0.41531 0.0
O208 O 0.40394 0.95755 0.59553 0.0
O209 O 0.40457 0.98895 0.55559 0.0
Co210 Co 0.76001 0.6825 0.62985 0.0
O211 O 0.74214 0.69845 0.63355 0.0
O212 O 0.77649 0.71212 0.6706 0.0
C213 C 0.75146 0.66981 0.52574 0.0
O214 O 0.78292 0.66995 0.63215 0.0
Co215 Co 0.73513 0.63014 0.61957 0.0
O216 O 0.7651 0.63289 0.60354 0.0
C217 C 0.73839 0.65119 0.74902 0.0
C218 C 0.75836 0.71453 0.66437 0.0
C219 C 0.7827 0.65062 0.6176 0.0
O220 O 0.75019 0.67022 0.72101 0.0
O221 O 0.72928 0.63247 0.7166 0.0
O222 O 0.76648 0.69034 0.5374 0.0
O223 O 0.74027 0.65872 0.57668 0.0
Co224 Co 0.29015 0.07515 0.65164 0.0
O225 O 0.28429 0.07611 0.55867 0.0
O226 O 0.31389 0.07418 0.60024 0.0
C227 C 0.25686 0.04801 0.683 0.0
O228 O 0.3012 0.07345 0.74463 0.0
Co229 Co 0.26526 0.0928 0.74781 0.0
O230 O 0.2836 0.08691 0.81481 0.0
C231 C 0.30342 0.12623 0.6781 0.0
C232 C 0.30289 0.07521 0.5484 0.0
C233 C 0.29735 0.07885 0.80289 0.0
O234 O 0.30644 0.10952 0.65455 0.0
O235 O 0.28652 0.12332 0.71264 0.0
O236 O 0.27115 0.04266 0.65446 0.0
O237 O 0.26175 0.06958 0.68231 0.0
Co238 Co 0.9311 0.23395 0.66334 0.0
O239 O 0.96277 0.24729 0.66681 0.0
O240 O 0.94131 0.21314 0.70547 0.0
C241 C 0.929 0.24374 0.55704 0.0
O242 O 0.89706 0.21535 0.66354 0.0
Co243 Co 0.91104 0.26846 0.64261 0.0
O244 O 0.88414 0.23986 0.62606 0.0
C245 C 0.92699 0.26403 0.77453 0.0
C246 C 0.96125 0.22902 0.69547 0.0
C247 C 0.88116 0.21989 0.64285 0.0
O248 O 0.93007 0.24703 0.75351 0.0
O249 O 0.92134 0.27623 0.7364 0.0
O250 O 0.93167 0.22564 0.57023 0.0
O251 O 0.93025 0.25631 0.60759 0.0
Co252 Co 0.33082 0.25018 0.14345 0.0
O253 O 0.32414 0.24494 0.05182 0.0
O254 O 0.35779 0.25757 0.09501 0.0
C255 C 0.31023 0.26872 0.16293 0.0
O256 O 0.34343 0.25807 0.23597 0.0
Co257 Co 0.293 0.22952 0.24702 0.0
O258 O 0.31549 0.25246 0.3053 0.0
C259 C 0.31225 0.20077 0.1878 0.0
C260 C 0.34512 0.25184 0.04281 0.0
C261 C 0.33601 0.26021 0.29276 0.0
O262 O 0.32649 0.21788 0.15571 0.0
O263 O 0.29691 0.20178 0.2229 0.0
O264 O 0.32991 0.27971 0.13851 0.0
O265 O 0.3031 0.24699 0.16732 0.0
Co266 Co 0.78234 0.08009 0.15158 0.0
O267 O 0.78913 0.08072 0.05874 0.0
O268 O 0.76251 0.08804 0.09965 0.0
C269 C 0.78357 0.04686 0.17556 0.0
O270 O 0.77027 0.08066 0.24437 0.0
Co271 Co 0.81742 0.0835 0.25613 0.0
O272 O 0.79317 0.07707 0.31976 0.0
C273 C 0.82117 0.12525 0.19033 0.0
C274 C 0.77321 0.0864 0.04799 0.0
C275 C 0.77544 0.07844 0.30466 0.0
O276 O 0.80296 0.11333 0.15996 0.0
O277 O 0.83062 0.11644 0.22818 0.0
O278 O 0.76613 0.04705 0.1487 0.0
O279 O 0.80049 0.06651 0.18042 0.0
Co280 Co 0.9242 0.71513 0.16524 0.0
O281 O 0.92553 0.72267 0.07317 0.0
O282 O 0.91868 0.68857 0.11268 0.0
C283 C 0.95584 0.74505 0.19842 0.0
O284 O 0.92243 0.70196 0.25755 0.0
Co285 Co 0.91601 0.74636 0.26313 0.0
O286 O 0.92388 0.72901 0.3291 0.0
C287 C 0.87753 0.70982 0.19941 0.0
C288 C 0.92108 0.70157 0.06163 0.0
C289 C 0.92389 0.7099 0.31672 0.0
O290 O 0.8911 0.70507 0.16584 0.0
O291 O 0.88406 0.72642 0.24059 0.0
O292 O 0.95606 0.72741 0.16999 0.0
O293 O 0.9368 0.74577 0.19705 0.0
Co294 Co 0.57237 0.9833 0.04095 0.0
O295 O 0.56696 0.97685 0.13286 0.0
O296 O 0.58101 0.01149 0.08952 0.0
C297 C 0.58938 0.96136 0.02024 0.0
O298 O 0.58059 0.99542 0.94729 0.0
Co299 Co 0.54922 0.94331 0.94103 0.0
O300 O 0.57078 0.96515 0.87921 0.0
C301 C 0.52529 0.9687 0.99143 0.0
C302 C 0.57508 0.99864 0.14195 0.0
C303 C 0.58048 0.98652 0.89017 0.0
O304 O 0.54203 0.98132 0.02703 0.0
O305 O 0.52451 0.95191 0.95691 0.0
O306 O 0.60011 0.98116 0.04776 0.0
O307 O 0.5682 0.95402 0.01734 0.0
Co308 Co 0.05296 0.60177 0.01348 0.0
O309 O 0.06049 0.60234 0.10557 0.0
O310 O 0.02784 0.59737 0.06708 0.0
C311 C 0.08289 0.63277 0.97978 0.0
O312 O 0.03985 0.60079 0.92191 0.0
Co313 Co 0.0813 0.5902 0.91444 0.0
O314 O 0.0625 0.59568 0.84879 0.0
C315 C 0.0461 0.55262 0.9825 0.0
C316 C 0.04029 0.59859 0.11773 0.0
C317 C 0.04578 0.59914 0.86235 0.0
O318 O 0.04176 0.56772 0.01109 0.0
O319 O 0.06239 0.55786 0.94307 0.0
O320 O 0.06687 0.6347 0.01005 0.0
O321 O 0.08199 0.61244 0.98015 0.0
Co322 Co 0.41089 0.45573 0.01868 0.0
O323 O 0.41093 0.46177 0.11232 0.0
O324 O 0.42257 0.438 0.06836 0.0
C325 C 0.37588 0.45067 0.99776 0.0
O326 O 0.41245 0.44433 0.92515 0.0
Co327 Co 0.40636 0.48805 0.91484 0.0
O328 O 0.40072 0.46269 0.85254 0.0
C329 C 0.45043 0.49898 0.97253 0.0
C330 C 0.41886 0.44711 0.12132 0.0
C331 C 0.40675 0.44722 0.86612 0.0
O332 O 0.44186 0.48101 0.00861 0.0
O333 O 0.43887 0.50521 0.93437 0.0
O334 O 0.3799 0.4346 0.02288 0.0
O335 O 0.39294 0.47024 0.99267 0.0
Co336 Co 0.68377 0.75649 0.85516 0.0
O337 O 0.6968 0.73611 0.85111 0.0
O338 O 0.71247 0.77145 0.81293 0.0
C339 C 0.6725 0.74906 0.96052 0.0
O340 O 0.67401 0.78191 0.85395 0.0
Co341 Co 0.63281 0.73374 0.87393 0.0
O342 O 0.63877 0.7659 0.88974 0.0
C343 C 0.65105 0.73337 0.74277 0.0
C344 C 0.71326 0.75201 0.8211 0.0
C345 C 0.65636 0.78321 0.87292 0.0
O346 O 0.67028 0.74617 0.76558 0.0
O347 O 0.63383 0.72481 0.77919 0.0
O348 O 0.69269 0.76337 0.94731 0.0
O349 O 0.66083 0.73786 0.91042 0.0
Co350 Co 0.22495 0.93627 0.85425 0.0
O351 O 0.21932 0.93574 0.94773 0.0
O352 O 0.2455 0.92844 0.90318 0.0
C353 C 0.22331 0.96952 0.83182 0.0
O354 O 0.23598 0.93615 0.7596 0.0
Co355 Co 0.18754 0.93211 0.75711 0.0
O356 O 0.21112 0.9394 0.69068 0.0
C357 C 0.18525 0.89084 0.8213 0.0
C358 C 0.23547 0.93025 0.9562 0.0
C359 C 0.22953 0.93893 0.70152 0.0
O360 O 0.20429 0.90288 0.84711 0.0
O361 O 0.17483 0.89949 0.78697 0.0
O362 O 0.24105 0.96939 0.85665 0.0
O363 O 0.20641 0.9498 0.82886 0.0
Co364 Co 0.07263 0.29829 0.83736 0.0
O365 O 0.04135 0.28024 0.83774 0.0
O366 O 0.06462 0.2684 0.7955 0.0
C367 C 0.07495 0.31014 0.943 0.0
O368 O 0.10693 0.3148 0.83395 0.0
Co369 Co 0.08552 0.34967 0.84838 0.0
O370 O 0.11443 0.35035 0.86924 0.0
C371 C 0.0722 0.32824 0.71923 0.0
C372 C 0.04418 0.26444 0.80721 0.0
C373 C 0.12058 0.33506 0.8541 0.0
O374 O 0.07068 0.30997 0.74678 0.0
O375 O 0.077 0.34662 0.75185 0.0
O376 O 0.07441 0.29049 0.92924 0.0
O377 O 0.07115 0.32048 0.89329 0.0
Co378 Co 0.43212 0.02625 0.97776 0.0
O379 O 0.41583 0.04394 0.98116 0.0
O380 O 0.44995 0.05559 0.01894 0.0
C381 C 0.42306 0.0138 0.8732 0.0
O382 O 0.45365 0.01181 0.97991 0.0
Co383 Co 0.40499 0.97418 0.96663 0.0
O384 O 0.43422 0.97522 0.94853 0.0
C385 C 0.40937 0.99535 0.09651 0.0
C386 C 0.43267 0.05944 0.01131 0.0
C387 C 0.45237 0.99215 0.96355 0.0
O388 O 0.42171 0.01426 0.06871 0.0
O389 O 0.39962 0.97674 0.06392 0.0
O390 O 0.43893 0.03386 0.88506 0.0
O391 O 0.41154 0.00319 0.92418 0.0
Co392 Co 0.96903 0.40822 0.9891 0.0
O393 O 0.96328 0.40868 0.8959 0.0
O394 O 0.99337 0.40823 0.93906 0.0
C395 C 0.93574 0.38061 0.01835 0.0
O396 O 0.97989 0.40644 0.08245 0.0
Co397 Co 0.94316 0.42424 0.08649 0.0
O398 O 0.95898 0.4151 0.15388 0.0
C399 C 0.98086 0.45878 0.01645 0.0
C400 C 0.98227 0.40853 0.88664 0.0
C401 C 0.97381 0.40858 0.14137 0.0
O402 O 0.98459 0.44267 0.99163 0.0
O403 O 0.96401 0.455 0.05232 0.0
O404 O 0.95053 0.37562 0.99151 0.0
O405 O 0.94033 0.40209 0.01833 0.0
Co406 Co 0.5944 0.56903 0.98911 0.0
O407 O 0.62604 0.58066 0.99175 0.0
O408 O 0.60314 0.54693 0.02995 0.0
C409 C 0.5926 0.57928 0.88267 0.0
O410 O 0.56036 0.55174 0.99037 0.0
Co411 Co 0.57581 0.60476 0.96837 0.0
O412 O 0.54825 0.57679 0.95227 0.0
C413 C 0.59127 0.59965 0.10082 0.0
C414 C 0.62344 0.56181 0.01922 0.0
C415 C 0.54478 0.55675 0.96993 0.0
O416 O 0.59418 0.58248 0.07988 0.0
O417 O 0.58589 0.612 0.06248 0.0
O418 O 0.5943 0.56064 0.89558 0.0
O419 O 0.59452 0.59199 0.93345 0.0
Co420 Co 0.98897 0.57449 0.48239 0.0
O421 O 0.98351 0.57017 0.38943 0.0
O422 O 0.01674 0.58475 0.43548 0.0
C423 C 0.96656 0.59075 0.50325 0.0
O424 O 1.0001 0.58209 0.57733 0.0
Co425 Co 0.95008 0.54916 0.5798 0.0
O426 O 0.97052 0.57132 0.644 0.0
C427 C 0.97387 0.52474 0.52174 0.0
C428 C 0.00471 0.57919 0.38188 0.0
C429 C 0.99124 0.5817 0.63414 0.0
O430 O 0.98724 0.54298 0.49204 0.0
O431 O 0.95725 0.52345 0.55512 0.0
O432 O 0.98607 0.60283 0.47917 0.0
O433 O 0.96027 0.56903 0.50444 0.0
Co434 Co 0.44475 0.41714 0.48906 0.0
O435 O 0.4509 0.41707 0.39584 0.0
O436 O 0.42481 0.42508 0.43741 0.0
C437 C 0.44604 0.38404 0.51512 0.0
O438 O 0.43332 0.41856 0.5822 0.0
Co439 Co 0.48063 0.42115 0.59202 0.0
O440 O 0.45717 0.41651 0.65712 0.0
C441 C 0.48446 0.46219 0.52224 0.0
C442 C 0.43521 0.42313 0.38545 0.0
C443 C 0.43916 0.41737 0.64248 0.0
O444 O 0.46567 0.45032 0.49489 0.0
O445 O 0.49419 0.45351 0.55942 0.0
O446 O 0.4284 0.38398 0.48878 0.0
O447 O 0.46295 0.40371 0.51805 0.0
Co448 Co 0.5941 0.04743 0.51174 0.0
O449 O 0.59521 0.05505 0.41991 0.0
O450 O 0.58733 0.02062 0.45896 0.0
C451 C 0.62651 0.07651 0.54346 0.0
O452 O 0.59237 0.03415 0.60385 0.0
Co453 Co 0.58785 0.07933 0.61113 0.0
O454 O 0.59657 0.06216 0.6754 0.0
C455 C 0.54824 0.04385 0.54897 0.0
C456 C 0.58993 0.03377 0.40813 0.0
C457 C 0.59529 0.04253 0.66281 0.0
O458 O 0.56121 0.03862 0.51397 0.0
O459 O 0.55553 0.06028 0.59076 0.0
O460 O 0.62582 0.0585 0.51481 0.0
O461 O 0.60786 0.0781 0.54332 0.0
Co462 Co 0.24752 0.32628 0.35757 0.0
O463 O 0.2449 0.3203 0.45008 0.0
O464 O 0.25441 0.35431 0.40544 0.0
C465 C 0.26685 0.30706 0.33145 0.0
O466 O 0.25219 0.33782 0.26304 0.0
Co467 Co 0.22462 0.28478 0.26238 0.0
O468 O 0.24302 0.30735 0.1961 0.0
C469 C 0.19827 0.30552 0.32431 0.0
C470 C 0.25052 0.3418 0.45841 0.0
C471 C 0.25136 0.3288 0.2057 0.0
O472 O 0.21573 0.32058 0.35206 0.0
O473 O 0.19808 0.28889 0.29032 0.0
O474 O 0.27688 0.32741 0.35636 0.0
O475 O 0.24555 0.29797 0.33346 0.0
Co476 Co 0.7199 0.93636 0.34673 0.0
O477 O 0.72702 0.93677 0.43901 0.0
O478 O 0.69532 0.9343 0.39948 0.0
C479 C 0.75131 0.96556 0.3132 0.0
O480 O 0.70741 0.93611 0.25452 0.0
Co481 Co 0.7463 0.92161 0.24896 0.0
O482 O 0.72893 0.92883 0.18221 0.0
C483 C 0.70977 0.88612 0.31929 0.0
C484 C 0.70733 0.93476 0.45056 0.0
C485 C 0.71309 0.93383 0.19513 0.0
O486 O 0.70643 0.90214 0.34598 0.0
O487 O 0.72597 0.89004 0.28041 0.0
O488 O 0.73598 0.96914 0.34218 0.0
O489 O 0.7487 0.94461 0.31434 0.0
Co490 Co 0.07515 0.78495 0.34326 0.0
O491 O 0.07486 0.79064 0.43696 0.0
O492 O 0.08646 0.76688 0.39274 0.0
C493 C 0.04025 0.78028 0.32157 0.0
O494 O 0.07695 0.77385 0.24954 0.0
Co495 Co 0.07167 0.81798 0.24053 0.0
O496 O 0.06586 0.79284 0.17729 0.0
C497 C 0.11532 0.82834 0.30006 0.0
C498 C 0.08269 0.77589 0.44578 0.0
C499 C 0.0715 0.77707 0.19053 0.0
O500 O 0.10636 0.81012 0.33502 0.0
O501 O 0.10411 0.83491 0.26156 0.0
O502 O 0.04402 0.76399 0.34616 0.0
O503 O 0.05745 0.79979 0.31721 0.0
C504 C 0.30681 0.08884 0.43195 0.0
C505 C 0.31146 0.07628 0.48079 0.0
H506 H 0.31243 0.10125 0.33254 0.0
C507 C 0.32461 0.06523 0.46463 0.0
H508 H 0.29695 0.09776 0.44341 0.0
C509 C 0.33305 0.06684 0.40062 0.0
C510 C 0.32865 0.0797 0.35231 0.0
H511 H 0.32831 0.05534 0.50139 0.0
H512 H 0.34329 0.05835 0.3891 0.0
C513 C 0.31555 0.09074 0.36843 0.0
C514 C 0.91453 0.26394 0.47974 0.0
C515 C 0.92436 0.24915 0.48949 0.0
H516 H 0.90168 0.27977 0.40995 0.0
C517 C 0.92961 0.23948 0.43409 0.0
H518 H 0.91028 0.27163 0.52146 0.0
C519 C 0.92516 0.24456 0.37008 0.0
C520 C 0.9149 0.25898 0.36047 0.0
H521 H 0.93728 0.22808 0.44019 0.0
H522 H 0.92929 0.23682 0.32824 0.0
C523 C 0.90959 0.26857 0.41591 0.0
C524 C 0.73841 0.63728 0.44593 0.0
C525 C 0.74687 0.66071 0.45789 0.0
H526 H 0.72889 0.61087 0.37307 0.0
C527 C 0.7515 0.67573 0.40411 0.0
H528 H 0.73482 0.6254 0.48654 0.0
C529 C 0.74766 0.66744 0.33927 0.0
C530 C 0.73969 0.64405 0.32723 0.0
H531 H 0.75799 0.69391 0.41221 0.0
H532 H 0.75135 0.67933 0.29868 0.0
C533 C 0.73511 0.62904 0.38107 0.0
C534 C 0.08741 0.34226 0.02497 0.0
C535 C 0.07859 0.31887 0.01157 0.0
H536 H 0.09921 0.36836 0.09931 0.0
C537 C 0.07391 0.30353 0.06466 0.0
H538 H 0.09123 0.35443 0.98506 0.0
C539 C 0.07791 0.31141 0.12996 0.0
C540 C 0.0873 0.33482 0.14319 0.0
H541 H 0.06706 0.28536 0.05571 0.0
H542 H 0.0742 0.29926 0.16989 0.0
C543 C 0.09204 0.35019 0.09021 0.0
C544 C 0.67021 0.75084 0.14654 0.0
C545 C 0.64766 0.74396 0.15744 0.0
H546 H 0.69575 0.75814 0.07504 0.0
C547 C 0.63311 0.73795 0.10316 0.0
H548 H 0.68177 0.75561 0.18753 0.0
C549 C 0.64103 0.73893 0.0389 0.0
C550 C 0.66369 0.74649 0.02799 0.0
H551 H 0.6156 0.73249 0.11035 0.0
H552 H 0.62953 0.73434 0.99783 0.0
C553 C 0.67819 0.75236 0.08227 0.0
C554 C 0.24173 0.93159 0.14253 0.0
C555 C 0.25193 0.91715 0.15269 0.0
H556 H 0.2283 0.94675 0.07251 0.0
C557 C 0.2571 0.90731 0.09746 0.0
H558 H 0.23753 0.93941 0.184 0.0
C559 C 0.25228 0.91196 0.03328 0.0
C560 C 0.2417 0.92608 0.02334 0.0
H561 H 0.26503 0.89616 0.10382 0.0
H562 H 0.2564 0.90414 0.99159 0.0
C563 C 0.23643 0.93577 0.07864 0.0
C564 C 0.66721 0.91899 0.59261 0.0
C565 C 0.68114 0.92227 0.64758 0.0
H566 H 0.66461 0.92071 0.48756 0.0
C567 C 0.70392 0.93042 0.63744 0.0
H568 H 0.64958 0.91286 0.59875 0.0
C569 C 0.71253 0.93484 0.57333 0.0
C570 C 0.69853 0.93145 0.51846 0.0
H571 H 0.71504 0.9332 0.67885 0.0
H572 H 0.73013 0.94082 0.56674 0.0
C573 C 0.67582 0.92364 0.52883 0.0
C574 C 0.09949 0.75758 0.52275 0.0
C575 C 0.08671 0.76951 0.51316 0.0
H576 H 0.11376 0.7431 0.59242 0.0
C577 C 0.07773 0.77532 0.56877 0.0
H578 H 0.10662 0.75283 0.48096 0.0
C579 C 0.08153 0.76945 0.63256 0.0
C580 C 0.09467 0.75791 0.64225 0.0
H581 H 0.06768 0.78439 0.56304 0.0
H582 H 0.0745 0.77431 0.67434 0.0
C583 C 0.10357 0.75201 0.58663 0.0
C584 C 0.25808 0.37419 0.53697 0.0
C585 C 0.2523 0.35107 0.52579 0.0
H586 H 0.26423 0.40037 0.60903 0.0
C587 C 0.24815 0.33638 0.58017 0.0
H588 H 0.26136 0.38587 0.49598 0.0
C589 C 0.24978 0.34459 0.64446 0.0
C590 C 0.25557 0.36767 0.65585 0.0
H591 H 0.24366 0.31844 0.57327 0.0
H592 H 0.24652 0.33282 0.6852 0.0
C593 C 0.25969 0.38244 0.60161 0.0
C594 C 0.90791 0.66091 0.91773 0.0
C595 C 0.91179 0.67554 0.8633 0.0
H596 H 0.90798 0.65768 0.02284 0.0
C597 C 0.91891 0.6989 0.87451 0.0
H598 H 0.90249 0.6428 0.91078 0.0
C599 C 0.92203 0.70743 0.93915 0.0
C600 C 0.9182 0.69273 0.99345 0.0
H601 H 0.92209 0.71057 0.83352 0.0
H602 H 0.92748 0.72552 0.94652 0.0
C603 C 0.91114 0.66942 0.98206 0.0
C604 C 0.33937 0.25072 0.92187 0.0
C605 C 0.35377 0.25386 0.97532 0.0
H606 H 0.33558 0.25135 0.81749 0.0
C607 C 0.37604 0.25943 0.9631 0.0
H608 H 0.32209 0.24638 0.92959 0.0
C609 C 0.38379 0.26217 0.89807 0.0
C610 C 0.36937 0.25964 0.84499 0.0
H611 H 0.38743 0.26183 0.00354 0.0
H612 H 0.40107 0.26669 0.88946 0.0
C613 C 0.3471 0.25365 0.85748 0.0
C614 C 0.77377 0.09192 0.86096 0.0
C615 C 0.75969 0.10234 0.85092 0.0
H616 H 0.78925 0.07892 0.93111 0.0
C617 C 0.74971 0.10707 0.90612 0.0
H618 H 0.78172 0.0881 0.81946 0.0
C619 C 0.75375 0.10153 0.97002 0.0
C620 C 0.76811 0.09143 0.98021 0.0
H621 H 0.73865 0.11497 0.89994 0.0
H622 H 0.74585 0.10544 0.01148 0.0
C623 C 0.77808 0.08669 0.92496 0.0
C624 C 0.9768 0.40196 0.76467 0.0
C625 C 0.9911 0.40959 0.81946 0.0
H626 H 0.97392 0.39819 0.65919 0.0
C627 C 0.01397 0.41913 0.80925 0.0
H628 H 0.95908 0.39447 0.7713 0.0
C629 C 0.02242 0.42177 0.74521 0.0
C630 C 0.00816 0.41434 0.6904 0.0
H631 H 0.02534 0.42522 0.8506 0.0
H632 H 0.04015 0.42971 0.73854 0.0
C633 C 0.98527 0.40401 0.70065 0.0
C634 C 0.58863 0.58082 0.6955 0.0
C635 C 0.57861 0.5955 0.68662 0.0
H636 H 0.60046 0.56378 0.76474 0.0
C637 C 0.57356 0.60507 0.74262 0.0
H638 H 0.59255 0.57307 0.65325 0.0
C639 C 0.57851 0.60016 0.80619 0.0
C640 C 0.58804 0.58506 0.81524 0.0
H641 H 0.56583 0.61645 0.73726 0.0
H642 H 0.57447 0.60786 0.84828 0.0
C643 C 0.59303 0.57541 0.75926 0.0
C644 C 0.40747 0.98105 0.79394 0.0
C645 C 0.41815 0.00459 0.80528 0.0
H646 H 0.39571 0.95426 0.72192 0.0
C647 C 0.42454 0.01948 0.75087 0.0
H648 H 0.40246 0.96922 0.83494 0.0
C649 C 0.42022 0.01097 0.68619 0.0
C650 C 0.41 0.98742 0.67487 0.0
H651 H 0.43275 0.03774 0.75831 0.0
H652 H 0.42529 0.02279 0.64519 0.0
C653 C 0.40369 0.97254 0.72929 0.0
C654 C 0.57829 0.00155 0.32815 0.0
C655 C 0.58634 0.02496 0.33992 0.0
H656 H 0.5682 0.97494 0.25638 0.0
C657 C 0.59046 0.03985 0.28598 0.0
H658 H 0.57492 0.98968 0.36868 0.0
C659 C 0.58663 0.03141 0.22128 0.0
C660 C 0.5785 0.00796 0.20965 0.0
H661 H 0.59667 0.05802 0.29368 0.0
H662 H 0.59006 0.04322 0.18055 0.0
C663 C 0.57435 0.99313 0.26371 0.0
C664 C 1.00017 0.58017 0.25988 0.0
C665 C 0.01424 0.584 0.31478 0.0
H666 H 0.99738 0.58206 0.15502 0.0
C667 C 0.0371 0.59309 0.30455 0.0
H668 H 0.98246 0.57327 0.26601 0.0
C669 C 0.04566 0.59809 0.24043 0.0
C670 C 0.03151 0.59431 0.18569 0.0
H671 H 0.04833 0.5963 0.34591 0.0
H672 H 0.06334 0.60492 0.23375 0.0
C673 C 0.00871 0.58536 0.19616 0.0
C674 C 0.4144 0.4471 0.24458 0.0
C675 C 0.42286 0.44073 0.18881 0.0
H676 H 0.41133 0.44625 0.35025 0.0
C677 C 0.43493 0.42805 0.19827 0.0
H678 H 0.40492 0.45678 0.23901 0.0
C679 C 0.43877 0.42221 0.26209 0.0
C680 C 0.43031 0.42858 0.31785 0.0
H681 H 0.44164 0.42285 0.15641 0.0
H682 H 0.44837 0.41267 0.26771 0.0
C683 C 0.41795 0.44096 0.30835 0.0
C684 C 0.33202 0.17725 0.15657 0.0
C685 C 0.3142 0.17905 0.18761 0.0
H686 H 0.34805 0.15599 0.13527 0.0
C687 C 0.29866 0.1601 0.2218 0.0
H688 H 0.34436 0.19153 0.13014 0.0
C689 C 0.3008 0.13986 0.22476 0.0
C690 C 0.3186 0.13804 0.19394 0.0
H691 H 0.2848 0.16086 0.24676 0.0
H692 H 0.28853 0.12564 0.25164 0.0
C693 C 0.33425 0.15695 0.15997 0.0
C694 C 0.85025 0.16467 0.21714 0.0
C695 C 0.83091 0.15039 0.18298 0.0
H696 H 0.87394 0.19882 0.23796 0.0
C697 C 0.82037 0.16041 0.14324 0.0
H698 H 0.85872 0.15759 0.24857 0.0
C699 C 0.82899 0.18405 0.13751 0.0
C700 C 0.84843 0.19834 0.17117 0.0
H701 H 0.80537 0.15001 0.11636 0.0
H702 H 0.82051 0.19108 0.10597 0.0
C703 C 0.85893 0.18836 0.21125 0.0
C704 C 0.83935 0.69294 0.2466 0.0
C705 C 0.85338 0.69437 0.19388 0.0
H706 H 0.80633 0.67927 0.28296 0.0
C707 C 0.84414 0.68031 0.13803 0.0
H708 H 0.84581 0.70297 0.29106 0.0
C709 C 0.82115 0.6665 0.1333 0.0
C710 C 0.80711 0.66613 0.18507 0.0
H711 H 0.85453 0.68072 0.09681 0.0
H712 H 0.81428 0.65736 0.08776 0.0
C713 C 0.81669 0.67894 0.24246 0.0
C714 C 0.13961 0.29638 0.29386 0.0
C715 C 0.1401 0.31695 0.31679 0.0
H716 H 0.15733 0.27652 0.27906 0.0
C717 C 0.1596 0.33326 0.34572 0.0
H718 H 0.12486 0.28337 0.27141 0.0
C719 C 0.17829 0.3292 0.35067 0.0
C720 C 0.17788 0.3088 0.32634 0.0
H721 H 0.16047 0.34918 0.36443 0.0
H722 H 0.19318 0.34231 0.37214 0.0
C723 C 0.15825 0.29238 0.29847 0.0
C724 C 0.67623 0.82188 0.30418 0.0
C725 C 0.65848 0.81784 0.34718 0.0
H726 H 0.70642 0.84642 0.26187 0.0
C727 C 0.65829 0.8363 0.38235 0.0
H728 H 0.67698 0.80806 0.27636 0.0
C729 C 0.67527 0.85821 0.37453 0.0
C730 C 0.69293 0.86236 0.33105 0.0
H731 H 0.64505 0.83387 0.41634 0.0
H732 H 0.67437 0.87197 0.40232 0.0
C733 C 0.69323 0.84388 0.29614 0.0
C734 C 0.17279 0.871 0.25016 0.0
C735 C 0.18626 0.86945 0.30127 0.0
H736 H 0.14043 0.85975 0.21013 0.0
C737 C 0.17643 0.85304 0.35091 0.0
H738 H 0.17981 0.88333 0.21084 0.0
C739 C 0.15339 0.83929 0.35064 0.0
C740 C 0.13985 0.84188 0.301 0.0
H741 H 0.18629 0.85162 0.39141 0.0
H742 H 0.14612 0.82719 0.39027 0.0
C743 C 0.15005 0.85756 0.25011 0.0
C744 C 0.63697 0.8276 0.91233 0.0
C745 C 0.64742 0.84417 0.86364 0.0
H746 H 0.63214 0.79587 0.95425 0.0
C747 C 0.66274 0.84159 0.82138 0.0
H748 H 0.62551 0.82921 0.947 0.0
C749 C 0.6667 0.82224 0.82613 0.0
C750 C 0.65537 0.80531 0.87311 0.0
H751 H 0.67127 0.8542 0.78391 0.0
H752 H 0.67788 0.8201 0.7915 0.0
C753 C 0.64088 0.80848 0.91694 0.0
C754 C 0.1562 0.85141 0.79534 0.0
C755 C 0.17555 0.86573 0.8294 0.0
H756 H 0.13264 0.8173 0.77407 0.0
C757 C 0.18607 0.85575 0.86937 0.0
H758 H 0.14771 0.85844 0.76382 0.0
C759 C 0.17747 0.83209 0.87511 0.0
C760 C 0.15814 0.81776 0.84097 0.0
H761 H 0.20103 0.86621 0.89635 0.0
H762 H 0.18595 0.82506 0.90667 0.0
C763 C 0.14762 0.82774 0.80099 0.0
C764 C 0.15514 0.35577 0.9172 0.0
C765 C 0.14474 0.34265 0.86107 0.0
H766 H 0.18499 0.37982 0.96229 0.0
C767 C 0.15798 0.3426 0.80752 0.0
H768 H 0.14539 0.35635 0.95907 0.0
C769 C 0.18101 0.35631 0.80928 0.0
C770 C 0.19109 0.37063 0.86404 0.0
H771 H 0.15044 0.33316 0.76293 0.0
H772 H 0.19077 0.35639 0.76677 0.0
C773 C 0.17786 0.36962 0.91854 0.0
C774 C 0.82064 0.66157 0.6636 0.0
C775 C 0.80315 0.64769 0.62209 0.0
H776 H 0.85198 0.66767 0.70554 0.0
C777 C 0.80427 0.62923 0.58949 0.0
H778 H 0.82007 0.67574 0.68996 0.0
C779 C 0.82223 0.62444 0.59889 0.0
C780 C 0.83963 0.63798 0.64117 0.0
H781 H 0.79108 0.61824 0.55698 0.0
H782 H 0.82244 0.61008 0.57256 0.0
C783 C 0.83874 0.65673 0.67319 0.0
C784 C 0.33656 0.19074 0.6862 0.0
C785 C 0.35735 0.19372 0.66294 0.0
H786 H 0.30319 0.16728 0.70889 0.0
C787 C 0.35986 0.17442 0.64275 0.0
H788 H 0.33397 0.20525 0.702 0.0
C789 C 0.34214 0.15273 0.6457 0.0
C790 C 0.32143 0.14965 0.66979 0.0
H791 H 0.37552 0.17604 0.62407 0.0
H792 H 0.34487 0.1383 0.63011 0.0
C793 C 0.31884 0.16896 0.68988 0.0
C794 C 0.82531 0.17066 0.68429 0.0
C795 C 0.81146 0.17447 0.63825 0.0
H796 H 0.85848 0.18183 0.72197 0.0
C797 C 0.82132 0.1916 0.5908 0.0
H798 H 0.81833 0.15743 0.72118 0.0
C799 C 0.84405 0.20509 0.59064 0.0
C800 C 0.85788 0.20213 0.63813 0.0
H801 H 0.81146 0.19485 0.5536 0.0
H802 H 0.85078 0.21841 0.55386 0.0
C803 C 0.84834 0.18442 0.68432 0.0
C804 C 0.00312 0.48692 0.49839 0.0
C805 C 0.98867 0.4669 0.53077 0.0
H806 H 0.00965 0.52079 0.46892 0.0
C807 C 0.96919 0.46597 0.55841 0.0
H808 H 0.01818 0.48814 0.4761 0.0
C809 C 0.96425 0.48453 0.55401 0.0
C810 C 0.97862 0.50459 0.52174 0.0
H811 H 0.95767 0.45086 0.58382 0.0
H812 H 0.94915 0.48313 0.57658 0.0
C813 C 0.99812 0.50556 0.49376 0.0
C814 C 0.4842 0.49703 0.47149 0.0
C815 C 0.49461 0.48717 0.5123 0.0
H816 H 0.48465 0.52753 0.43193 0.0
C817 C 0.51419 0.50149 0.5453 0.0
H818 H 0.46906 0.48657 0.4453 0.0
C819 C 0.52312 0.52511 0.5377 0.0
C820 C 0.51265 0.53493 0.49698 0.0
H821 H 0.52257 0.49451 0.57742 0.0
H822 H 0.53824 0.53564 0.56386 0.0
C823 C 0.49309 0.5206 0.46401 0.0
C824 C 0.51399 0.0164 0.48644 0.0
C825 C 0.52387 0.02932 0.54371 0.0
H826 H 0.48357 0.99573 0.43504 0.0
C827 C 0.51022 0.02779 0.59761 0.0
H828 H 0.52405 0.01692 0.44423 0.0
C829 C 0.48734 0.01496 0.59322 0.0
C830 C 0.4772 0.00346 0.53452 0.0
H831 H 0.51717 0.03694 0.64309 0.0
H832 H 0.47732 0.01533 0.63461 0.0
C833 C 0.49083 0.0038 0.48157 0.0
C834 C 0.47197 0.96881 0.93372 0.0
C835 C 0.47208 0.98774 0.96717 0.0
H836 H 0.48827 0.94783 0.91583 0.0
C837 C 0.48997 0.0006 0.00875 0.0
H838 H 0.45848 0.95858 0.90102 0.0
C839 C 0.50714 0.99424 0.01788 0.0
C840 C 0.50673 0.97496 0.98534 0.0
H841 H 0.4904 0.01514 0.03566 0.0
H842 H 0.52068 0.00442 0.05047 0.0
C843 C 0.48903 0.96252 0.94266 0.0
C844 C 0.01217 0.5229 0.03547 0.0
C845 C 0.03022 0.52834 0.99263 0.0
H846 H 0.98254 0.49712 0.0758 0.0
C847 C 0.03176 0.5106 0.95689 0.0
H848 H 0.01027 0.53601 0.06378 0.0
C849 C 0.01563 0.48805 0.96385 0.0
C850 C 0.99754 0.48274 0.00646 0.0
H851 H 0.04527 0.51414 0.92298 0.0
H852 H 0.01734 0.4748 0.93568 0.0
C853 C 0.99607 0.50049 0.04211 0.0
C854 C 0.48455 0.52924 0.92273 0.0
C855 C 0.47491 0.51258 0.97163 0.0
H856 H 0.51392 0.55537 0.88283 0.0
C857 C 0.48895 0.50884 0.01705 0.0
H858 H 0.4745 0.53237 0.8859 0.0
C859 C 0.512 0.52222 0.015 0.0
C860 C 0.52133 0.53948 0.9674 0.0
H861 H 0.48212 0.49596 0.05496 0.0
H862 H 0.52234 0.51971 0.05212 0.0
C863 C 0.50731 0.54238 0.92061 0.0
C864 C 0.42726 0.07419 0.11813 0.0
C865 C 0.42918 0.07677 0.04928 0.0
H866 H 0.41053 0.07724 0.20491 0.0
C867 C 0.42013 0.08986 0.01746 0.0
H868 H 0.43388 0.06399 0.14354 0.0
C869 C 0.40754 0.09833 0.05308 0.0
C870 C 0.40314 0.09294 0.12024 0.0
H871 H 0.42102 0.09166 0.96416 0.0
H872 H 0.3992 0.10675 0.02657 0.0
C873 C 0.41384 0.0817 0.15318 0.0
C874 C 0.90892 0.34379 0.16235 0.0
C875 C 0.89863 0.32255 0.1307 0.0
H876 H 0.92659 0.37974 0.15085 0.0
C877 C 0.89502 0.32195 0.06225 0.0
H878 H 0.91163 0.34477 0.21534 0.0
C879 C 0.90509 0.34187 0.02489 0.0
C880 C 0.91769 0.36285 0.05597 0.0
H881 H 0.88654 0.30601 0.03654 0.0
H882 H 0.90466 0.34058 0.97142 0.0
C883 C 0.91773 0.36387 0.12523 0.0
C884 C 0.68276 0.57182 0.02629 0.0
C885 C 0.68577 0.57138 0.09484 0.0
H886 H 0.66021 0.56947 0.94819 0.0
C887 C 0.66688 0.56158 0.13511 0.0
H888 H 0.69692 0.57934 0.99411 0.0
C889 C 0.64572 0.55532 0.10868 0.0
C890 C 0.64318 0.55921 0.04171 0.0
H891 H 0.66871 0.56143 0.18834 0.0
H892 H 0.63182 0.55015 0.14201 0.0
C893 C 0.6617 0.56629 1.00011 0.0
C894 C 0.07978 0.4315 0.37864 0.0
C895 C 0.07951 0.4306 0.4479 0.0
H896 H 0.08804 0.41912 0.28978 0.0
C897 C 0.09259 0.42199 0.48088 0.0
H898 H 0.06944 0.43767 0.35232 0.0
C899 C 0.10387 0.4121 0.44504 0.0
C900 C 0.10137 0.40992 0.37615 0.0
H901 H 0.09229 0.42085 0.53435 0.0
H902 H 0.11198 0.4035 0.47177 0.0
C903 C 0.09038 0.42087 0.34289 0.0
C904 C 0.5739 0.69938 0.45978 0.0
C905 C 0.57423 0.69895 0.39047 0.0
H906 H 0.56901 0.67966 0.54846 0.0
C907 C 0.56277 0.67799 0.35801 0.0
H908 H 0.58159 0.71523 0.4864 0.0
C909 C 0.55438 0.65767 0.39375 0.0
C910 C 0.55825 0.65807 0.46195 0.0
H911 H 0.56257 0.67713 0.30447 0.0
H912 H 0.54725 0.64183 0.36686 0.0
C913 C 0.5666 0.67901 0.49537 0.0
C914 C 0.32949 0.90703 0.34588 0.0
C915 C 0.31069 0.89918 0.38656 0.0
H916 H 0.36489 0.92244 0.34129 0.0
C917 C 0.31338 0.89716 0.45467 0.0
H918 H 0.32791 0.90907 0.29325 0.0
C919 C 0.33465 0.9054 0.48228 0.0
C920 C 0.35357 0.9152 0.44218 0.0
H921 H 0.29929 0.89166 0.48734 0.0
H922 H 0.33635 0.9062 0.53564 0.0
C923 C 0.35071 0.91458 0.37334 0.0
C924 C 0.58922 0.93086 0.94621 0.0
C925 C 0.60074 0.95241 0.97517 0.0
H926 H 0.59019 0.90647 0.87733 0.0
C927 C 0.62239 0.96646 0.95458 0.0
H928 H 0.57243 0.91984 0.96063 0.0
C929 C 0.63233 0.95907 0.90578 0.0
C930 C 0.62089 0.93738 0.87757 0.0
H931 H 0.63153 0.98334 0.97527 0.0
H932 H 0.64918 0.97003 0.89176 0.0
C933 C 0.59925 0.92338 0.89797 0.0
C934 C 0.11707 0.6936 0.93637 0.0
C935 C 0.11045 0.69344 0.87043 0.0
H936 H 0.1133 0.67368 0.02389 0.0
C937 C 0.09979 0.67253 0.83735 0.0
H938 H 0.12554 0.70946 0.96294 0.0
C939 C 0.09405 0.65208 0.8712 0.0
C940 C 0.09795 0.65211 0.93941 0.0
H941 H 0.09468 0.67196 0.78626 0.0
H942 H 0.08458 0.63648 0.84504 0.0
C943 C 0.11038 0.67307 0.97104 0.0
C944 C 0.33638 0.42392 0.98521 0.0
C945 C 0.35353 0.44539 0.97133 0.0
H946 H 0.30447 0.3988 0.96029 0.0
C947 C 0.34921 0.45995 0.92825 0.0
H948 H 0.33897 0.41221 0.01802 0.0
C949 C 0.32846 0.45234 0.89649 0.0
C950 C 0.3119 0.43016 0.90767 0.0
H951 H 0.36215 0.47659 0.91629 0.0
H952 H 0.32598 0.46307 0.8598 0.0
C953 C 0.31614 0.41635 0.95318 0.0
C954 C 0.95737 0.63252 0.61257 0.0
C955 C 0.93577 0.61921 0.63459 0.0
H956 H 0.98389 0.63412 0.55166 0.0
C957 C 0.92416 0.59682 0.61127 0.0
H958 H 0.96655 0.64998 0.62903 0.0
C959 C 0.934 0.58782 0.56676 0.0
C960 C 0.95552 0.60114 0.54439 0.0
H961 H 0.90741 0.58629 0.62709 0.0
H962 H 0.92479 0.57039 0.55013 0.0
C963 C 0.96713 0.6236 0.56742 0.0
C964 C 0.43694 0.34275 0.50958 0.0
C965 C 0.44558 0.36326 0.54537 0.0
H966 H 0.42384 0.30643 0.51347 0.0
C967 C 0.45061 0.36292 0.61264 0.0
H968 H 0.43297 0.3426 0.45758 0.0
C969 C 0.4446 0.34214 0.64521 0.0
C970 C 0.43448 0.32145 0.61032 0.0
H971 H 0.45736 0.37845 0.64137 0.0
H972 H 0.44631 0.34214 0.69851 0.0
C973 C 0.43192 0.32206 0.54152 0.0
C974 C 0.66321 0.11041 0.56135 0.0
C975 C 0.64609 0.09008 0.58493 0.0
H976 H 0.6979 0.13357 0.56695 0.0
C977 C 0.65069 0.07892 0.63778 0.0
H978 H 0.66041 0.1189 0.51888 0.0
C979 C 0.67184 0.08703 0.66454 0.0
C980 C 0.68934 0.10642 0.6386 0.0
H981 H 0.63845 0.0627 0.65508 0.0
H982 H 0.67473 0.0772 0.70328 0.0
C983 C 0.68471 0.11865 0.58837 0.0
C984 C 0.72884 0.72475 0.80482 0.0
C985 C 0.72997 0.74623 0.79057 0.0
H986 H 0.73575 0.69784 0.77219 0.0
C987 C 0.74399 0.75931 0.73967 0.0
H988 H 0.71816 0.71408 0.84329 0.0
C989 C 0.75532 0.75006 0.70042 0.0
C990 C 0.75253 0.72778 0.71225 0.0
H991 H 0.74496 0.77585 0.72734 0.0
H992 H 0.76488 0.75957 0.65855 0.0
C993 C 0.73946 0.7155 0.76506 0.0
C994 C 0.23689 0.01154 0.8307 0.0
C995 C 0.22432 0.9904 0.80047 0.0
H996 H 0.25506 0.04732 0.8178 0.0
C997 C 0.21699 0.99003 0.73523 0.0
H998 H 0.24246 0.01237 0.88139 0.0
C999 C 0.22545 0.01003 0.69753 0.0
C1000 C 0.24017 0.03084 0.72584 0.0
H1001 H 0.20668 0.97413 0.71115 0.0
H1002 H 0.22211 0.00885 0.64486 0.0
C1003 C 0.24419 0.03165 0.79408 0.0
C1004 C 0.00539 0.23528 0.81755 0.0
C1005 C 0.02438 0.2457 0.77796 0.0
H1006 H 0.97 0.22081 0.82168 0.0
C1007 C 0.02174 0.24475 0.70903 0.0
H1008 H 0.00691 0.2362 0.87096 0.0
C1009 C 1.00057 0.23661 0.68097 0.0
C1010 C 0.98166 0.22853 0.72119 0.0
H1011 H 0.03597 0.25295 0.67735 0.0
H1012 H 0.99909 0.2386 0.62826 0.0
C1013 C 0.98419 0.22652 0.78936 0.0
C1014 C 0.31075 0.30202 0.22578 0.0
C1015 C 0.29908 0.27993 0.20019 0.0
H1016 H 0.30975 0.32786 0.28929 0.0
C1017 C 0.27695 0.26704 0.21797 0.0
H1018 H 0.32794 0.31216 0.21349 0.0
C1019 C 0.26672 0.27577 0.26176 0.0
C1020 C 0.2784 0.29761 0.28861 0.0
H1021 H 0.26761 0.24992 0.19909 0.0
H1022 H 0.24965 0.26531 0.27472 0.0
C1023 C 0.30047 0.3108 0.26996 0.0
C1024 C 0.78109 0.00471 0.30534 0.0
C1025 C 0.76767 0.98411 0.27336 0.0
H1026 H 0.79793 0.04108 0.29798 0.0
C1027 C 0.76418 0.9844 0.20503 0.0
H1028 H 0.78377 0.00505 0.35827 0.0
C1029 C 0.7711 0.00506 0.17151 0.0
C1030 C 0.78251 0.02576 0.20515 0.0
H1031 H 0.75401 0.96905 0.17866 0.0
H1032 H 0.76615 0.0049 0.1204 0.0
C1033 C 0.78891 0.0254 0.27104 0.0
C1034 C 0.99979 0.75681 0.32531 0.0
C1035 C 0.01769 0.77558 0.29841 0.0
H1036 H 0.96638 0.7328 0.31524 0.0
C1037 C 0.01371 0.78725 0.24532 0.0
H1038 H 0.0022 0.74741 0.36617 0.0
C1039 C 0.99247 0.77892 0.21646 0.0
C1040 C 0.97493 0.75912 0.24109 0.0
H1041 H 0.02724 0.80168 0.2231 0.0
H1042 H 0.99022 0.78686 0.17189 0.0
C1043 C 0.97887 0.74865 0.29685 0.0
C1044 C 0.30361 0.05175 0.95884 0.0
C1045 C 0.31874 0.07092 0.99335 0.0
H1046 H 0.28591 0.03904 0.86797 0.0
C1047 C 0.32967 0.09168 0.95959 0.0
H1048 H 0.29493 0.03562 0.98392 0.0
C1049 C 0.32418 0.09371 0.89416 0.0
C1050 C 0.30822 0.07487 0.86084 0.0
H1051 H 0.34111 0.10684 0.98535 0.0
H1052 H 0.33125 0.11035 0.8711 0.0
C1053 C 0.29858 0.05367 0.8926 0.0
C1054 C 0.91997 0.28882 0.93625 0.0
C1055 C 0.91589 0.27074 0.97985 0.0
H1056 H 0.92719 0.30115 0.83735 0.0
C1057 C 0.91957 0.25225 0.95854 0.0
H1058 H 0.91707 0.30318 0.95163 0.0
C1059 C 0.92521 0.25091 0.89245 0.0
C1060 C 0.92706 0.26799 0.84693 0.0
H1061 H 0.91613 0.23794 0.9911 0.0
H1062 H 0.92631 0.23565 0.87599 0.0
C1063 C 0.92558 0.28753 0.87059 0.0
C1064 C 0.72366 0.63203 0.9273 0.0
C1065 C 0.73468 0.65269 0.9622 0.0
H1066 H 0.71575 0.61523 0.83293 0.0
C1067 C 0.74627 0.67272 0.92641 0.0
H1068 H 0.71475 0.61626 0.95362 0.0
C1069 C 0.74752 0.67202 0.85766 0.0
C1070 C 0.73635 0.65145 0.82228 0.0
H1071 H 0.75536 0.68881 0.95168 0.0
H1072 H 0.75795 0.68766 0.83265 0.0
C1073 C 0.72428 0.63142 0.8581 0.0
C1074 C 0.07701 0.34815 0.60947 0.0
C1075 C 0.06991 0.32789 0.64592 0.0
H1076 H 0.084 0.36367 0.51382 0.0
C1077 C 0.06239 0.30709 0.61116 0.0
H1078 H 0.0829 0.36445 0.63438 0.0
C1079 C 0.06292 0.3066 0.54207 0.0
C1080 C 0.07118 0.32692 0.50576 0.0
H1081 H 0.05673 0.29112 0.63742 0.0
H1082 H 0.05778 0.29034 0.51737 0.0
C1083 C 0.07772 0.34767 0.54024 0.0
C1084 C 0.62851 0.71536 0.64223 0.0
C1085 C 0.64836 0.73124 0.67015 0.0
H1086 H 0.60769 0.70589 0.55699 0.0
C1087 C 0.66439 0.74735 0.62863 0.0
H1088 H 0.61597 0.70258 0.67254 0.0
C1089 C 0.65953 0.74919 0.56225 0.0
C1090 C 0.63877 0.73475 0.5366 0.0
H1091 H 0.67993 0.75984 0.64855 0.0
H1092 H 0.67113 0.76317 0.53299 0.0
C1093 C 0.6238 0.71712 0.57594 0.0
C1094 C 0.24772 0.923 0.62249 0.0
C1095 C 0.24298 0.94098 0.64234 0.0
H1096 H 0.25522 0.90643 0.54121 0.0
C1097 C 0.24598 0.95837 0.59715 0.0
H1098 H 0.24516 0.9092 0.65623 0.0
C1099 C 0.25158 0.95681 0.53162 0.0
C1100 C 0.25411 0.93767 0.50949 0.0
H1101 H 0.24232 0.97236 0.61133 0.0
H1102 H 0.2524 0.96988 0.49734 0.0
C1103 C 0.25329 0.92136 0.55643 0.0
C1104 C 0.67824 0.93169 0.14501 0.0
C1105 C 0.70034 0.93577 0.13812 0.0
H1106 H 0.64771 0.92404 0.09576 0.0
C1107 C 0.70961 0.93902 0.07448 0.0
H1108 H 0.67074 0.92934 0.19342 0.0
C1109 C 0.6965 0.93598 0.01855 0.0
C1110 C 0.67385 0.92956 0.02516 0.0
H1111 H 0.72678 0.94273 0.06767 0.0
H1112 H 0.70387 0.93719 0.97032 0.0
C1113 C 0.66507 0.92859 0.08892 0.0
C1114 C 0.08624 0.75101 0.14224 0.0
C1115 C 0.07489 0.76445 0.13377 0.0
H1116 H 0.10371 0.73438 0.09574 0.0
C1117 C 0.06939 0.76819 0.06899 0.0
H1118 H 0.09056 0.74754 0.1912 0.0
C1119 C 0.07694 0.76062 0.01404 0.0
C1120 C 0.09019 0.74918 0.02267 0.0
H1121 H 0.06037 0.77819 0.06046 0.0
H1122 H 0.07375 0.76522 0.96506 0.0
C1123 C 0.09382 0.7435 0.08733 0.0
C1124 C 0.25443 0.33393 0.08314 0.0
C1125 C 0.25806 0.34358 0.14698 0.0
H1126 H 0.25281 0.33934 0.97938 0.0
C1127 C 0.26598 0.36721 0.15377 0.0
H1128 H 0.24862 0.31577 0.07609 0.0
C1129 C 0.26847 0.38067 0.0983 0.0
C1130 C 0.26298 0.37074 0.035 0.0
H1131 H 0.2693 0.37523 0.20207 0.0
H1132 H 0.27379 0.39875 0.10553 0.0
C1133 C 0.25684 0.34741 0.02758 0.0
C1134 C 0.92653 0.69277 0.49319 0.0
C1135 C 0.92142 0.66964 0.48589 0.0
H1136 H 0.93148 0.72364 0.4454 0.0
C1137 C 0.92028 0.66067 0.42183 0.0
H1138 H 0.92778 0.70031 0.54169 0.0
C1139 C 0.92218 0.67403 0.36623 0.0
C1140 C 0.92534 0.69659 0.37382 0.0
H1141 H 0.91669 0.64297 0.41444 0.0
H1142 H 0.92009 0.66635 0.31765 0.0
C1143 C 0.92849 0.7061 0.43775 0.0
C1144 C 0.35619 0.27582 0.46675 0.0
C1145 C 0.37404 0.2702 0.46701 0.0
H1146 H 0.33018 0.27751 0.40976 0.0
C1147 C 0.38182 0.26583 0.40675 0.0
H1148 H 0.35012 0.27975 0.51224 0.0
C1149 C 0.37057 0.26479 0.34816 0.0
C1150 C 0.35128 0.26794 0.34911 0.0
H1151 H 0.39587 0.26193 0.40514 0.0
H1152 H 0.37598 0.25971 0.30329 0.0
C1153 C 0.34483 0.27462 0.40812 0.0
C1154 C 0.75841 0.08271 0.48012 0.0
C1155 C 0.74693 0.09602 0.47166 0.0
H1156 H 0.776 0.06621 0.43362 0.0
C1157 C 0.74135 0.09967 0.40689 0.0
H1158 H 0.76278 0.07929 0.52908 0.0
C1159 C 0.74896 0.09216 0.35192 0.0
C1160 C 0.76233 0.08086 0.36051 0.0
H1161 H 0.73222 0.10956 0.39835 0.0
H1162 H 0.7457 0.0967 0.30296 0.0
C1163 C 0.76603 0.07523 0.42518 0.0
C1164 C 0.00356 0.41852 0.22486 0.0
C1165 C 0.9834 0.40263 0.19897 0.0
H1166 H 0.02397 0.43036 0.31087 0.0
C1167 C 0.96966 0.38407 0.23778 0.0
H1168 H 0.01415 0.43321 0.19603 0.0
C1169 C 0.97497 0.38251 0.30372 0.0
C1170 C 0.99415 0.39957 0.33192 0.0
H1171 H 0.95395 0.37172 0.21869 0.0
H1172 H 0.9633 0.36882 0.33366 0.0
C1173 C 0.00901 0.41691 0.29083 0.0
C1174 C 0.59007 0.62366 0.19601 0.0
C1175 C 0.59121 0.60382 0.17329 0.0
H1176 H 0.5816 0.63995 0.27569 0.0
C1177 C 0.58872 0.58676 0.2196 0.0
H1178 H 0.59211 0.63729 0.16221 0.0
C1179 C 0.58295 0.58852 0.2854 0.0
C1180 C 0.5797 0.6074 0.30576 0.0
H1181 H 0.58947 0.57124 0.20394 0.0
H1182 H 0.57909 0.57426 0.31848 0.0
C1183 C 0.58425 0.62534 0.2613 0.0
C1184 C 0.42068 0.01597 0.27436 0.0
C1185 C 0.40717 0.99646 0.30988 0.0
H1186 H 0.43261 0.03052 0.18021 0.0
C1187 C 0.39371 0.9765 0.27471 0.0
H1188 H 0.4316 0.03144 0.29986 0.0
C1189 C 0.39389 0.97606 0.20538 0.0
C1190 C 0.40775 0.99553 0.16984 0.0
H1191 H 0.38316 0.96115 0.30087 0.0
H1192 H 0.38346 0.96041 0.17984 0.0
C1193 C 0.42114 0.01543 0.20544 0.0
C1194 C 0.58685 0.99197 0.7685 0.0
C1195 C 0.58921 0.00147 0.83232 0.0
H1196 H 0.58689 0.99753 0.66427 0.0
C1197 C 0.59726 0.02511 0.83906 0.0
H1198 H 0.58108 0.97381 0.7615 0.0
C1199 C 0.60072 0.03867 0.78324 0.0
C1200 C 0.59609 0.02883 0.71967 0.0
H1201 H 0.59964 0.03303 0.88739 0.0
H1202 H 0.60589 0.05673 0.79034 0.0
C1203 C 0.5902 0.00554 0.71259 0.0
C1204 C 0.02858 0.60035 0.68633 0.0
C1205 C 0.00559 0.59113 0.69257 0.0
H1206 H 0.05944 0.61064 0.73594 0.0
C1207 C 0.99633 0.58857 0.75624 0.0
H1208 H 0.03629 0.60295 0.63818 0.0
C1209 C 0.00963 0.59295 0.8125 0.0
C1210 C 0.03235 0.59992 0.8058 0.0
H1211 H 0.97865 0.58186 0.76284 0.0
H1212 H 0.00194 0.58931 0.86076 0.0
C1213 C 0.04183 0.60471 0.74243 0.0
C1214 C 0.43034 0.41473 0.76332 0.0
C1215 C 0.42619 0.41988 0.69857 0.0
H1216 H 0.42722 0.41899 0.86713 0.0
C1217 C 0.41224 0.43052 0.68991 0.0
H1218 H 0.44075 0.40621 0.77182 0.0
C1219 C 0.40444 0.43785 0.74485 0.0
C1220 C 0.41039 0.43467 0.80961 0.0
H1221 H 0.40861 0.43465 0.64087 0.0
H1222 H 0.39483 0.44725 0.73627 0.0
C1223 C 0.42251 0.42201 0.81818 0.0
loop_
_geom_bond_atom_site_label_1
_geom_bond_atom_site_label_2
_geom_bond_distance
_geom_bond_site_symmetry_2
_ccdc_geom_bond_type
Co0 O1 2.216 . S
Co0 O2 2.091 . S
Co0 O4 2.004 . S
Co0 O10 2.021 . S
Co0 O12 2.137 . S
Co0 O13 2.244 . S
O1 Co0 2.216 . S
O1 C8 1.247 . S
O2 Co0 2.091 . S
O2 C8 1.261 . S
C3 O12 1.247 . S
C3 O13 1.272 . S
O4 Co0 2.004 . S
O4 C9 1.259 . S
Co5 O6 2.061 . S
Co5 O11 2.052 . S
Co5 O13 2.135 . S
O6 Co5 2.061 . S
O6 C9 1.235 . S
C7 O10 1.238 . S
C7 O11 1.241 . S
C8 O1 1.247 . S
C8 O2 1.261 . S
C9 O4 1.259 . S
C9 O6 1.235 . S
O10 Co0 2.021 . S
O10 C7 1.238 . S
O11 Co5 2.052 . S
O11 C7 1.241 . S
O12 Co0 2.137 . S
O12 C3 1.247 . S
O13 Co0 2.244 . S
O13 C3 1.272 . S
O13 Co5 2.135 . S
Co14 O15 2.216 . S
Co14 O16 2.091 . S
Co14 O18 2.004 . S
Co14 O24 2.021 . S
Co14 O26 2.137 . S
Co14 O27 2.244 . S
O15 Co14 2.216 . S
O15 C22 1.247 . S
O16 Co14 2.091 . S
O16 C22 1.261 . S
C17 O26 1.247 . S
C17 O27 1.272 . S
O18 Co14 2.004 . S
O18 C23 1.259 . S
Co19 O20 2.061 . S
Co19 O25 2.052 . S
Co19 O27 2.135 . S
O20 Co19 2.061 . S
O20 C23 1.235 . S
C21 O24 1.238 . S
C21 O25 1.241 . S
C22 O15 1.247 . S
C22 O16 1.261 . S
C23 O18 1.259 . S
C23 O20 1.235 . S
O24 Co14 2.021 . S
O24 C21 1.238 . S
O25 Co19 2.052 . S
O25 C21 1.241 . S
O26 Co14 2.137 . S
O26 C17 1.247 . S
O27 Co14 2.244 . S
O27 C17 1.272 . S
O27 Co19 2.135 . S
Co28 O29 2.216 . S
Co28 O30 2.091 . S
Co28 O32 2.004 . S
Co28 O38 2.021 . S
Co28 O40 2.137 . S
Co28 O41 2.244 . S
O29 Co28 2.216 . S
O29 C36 1.247 . S
O30 Co28 2.091 . S
O30 C36 1.261 . S
C31 O40 1.247 . S
C31 O41 1.272 . S
O32 Co28 2.004 . S
O32 C37 1.259 . S
Co33 O34 2.061 . S
Co33 O39 2.052 . S
Co33 O41 2.135 . S
O34 Co33 2.061 . S
O34 C37 1.235 . S
C35 O38 1.238 . S
C35 O39 1.241 . S
C36 O29 1.247 . S
C36 O30 1.261 . S
C37 O32 1.259 . S
C37 O34 1.235 . S
O38 Co28 2.021 . S
O38 C35 1.238 . S
O39 Co33 2.052 . S
O39 C35 1.241 . S
O40 Co28 2.137 . S
O40 C31 1.247 . S
O41 Co28 2.244 . S
O41 C31 1.272 . S
O41 Co33 2.135 . S
Co42 O43 2.216 . S
Co42 O44 2.091 . S
Co42 O46 2.004 . S
Co42 O52 2.021 . S
Co42 O54 2.137 . S
Co42 O55 2.244 . S
O43 Co42 2.216 . S
O43 C50 1.247 . S
O44 Co42 2.091 . S
O44 C50 1.261 . S
C45 O54 1.247 . S
C45 O55 1.272 . S
O46 Co42 2.004 . S
O46 C51 1.259 . S
Co47 O48 2.061 . S
Co47 O53 2.052 . S
Co47 O55 2.135 . S
O48 Co47 2.061 . S
O48 C51 1.235 . S
C49 O52 1.238 . S
C49 O53 1.241 . S
C50 O43 1.247 . S
C50 O44 1.261 . S
C51 O46 1.259 . S
C51 O48 1.235 . S
O52 Co42 2.021 . S
O52 C49 1.238 . S
O53 Co47 2.052 . S
O53 C49 1.241 . S
O54 Co42 2.137 . S
O54 C45 1.247 . S
O55 Co42 2.244 . S
O55 C45 1.272 . S
O55 Co47 2.135 . S
Co56 O57 2.216 . S
Co56 O58 2.091 . S
Co56 O60 2.004 . S
Co56 O66 2.021 . S
Co56 O68 2.137 . S
Co56 O69 2.244 . S
O57 Co56 2.216 . S
O57 C64 1.247 . S
O58 Co56 2.091 . S
O58 C64 1.261 . S
C59 O68 1.247 . S
C59 O69 1.272 . S
O60 Co56 2.004 . S
O60 C65 1.259 . S
Co61 O62 2.061 . S
Co61 O67 2.052 . S
Co61 O69 2.135 . S
O62 Co61 2.061 . S
O62 C65 1.235 . S
C63 O66 1.238 . S
C63 O67 1.241 . S
C64 O57 1.247 . S
C64 O58 1.261 . S
C65 O60 1.259 . S
C65 O62 1.235 . S
O66 Co56 2.021 . S
O66 C63 1.238 . S
O67 Co61 2.052 . S
O67 C63 1.241 . S
O68 Co56 2.137 . S
O68 C59 1.247 . S
O69 Co56 2.244 . S
O69 C59 1.272 . S
O69 Co61 2.135 . S
Co70 O71 2.216 . S
Co70 O72 2.091 . S
Co70 O74 2.004 . S
Co70 O80 2.021 . S
Co70 O82 2.137 . S
Co70 O83 2.244 . S
O71 Co70 2.216 . S
O71 C78 1.247 . S
O72 Co70 2.091 . S
O72 C78 1.261 . S
C73 O82 1.247 . S
C73 O83 1.272 . S
O74 Co70 2.004 . S
O74 C79 1.259 . S
Co75 O76 2.061 . S
Co75 O81 2.052 . S
Co75 O83 2.135 . S
O76 Co75 2.061 . S
O76 C79 1.235 . S
C77 O80 1.238 . S
C77 O81 1.241 . S
C78 O71 1.247 . S
C78 O72 1.261 . S
C79 O74 1.259 . S
C79 O76 1.235 . S
O80 Co70 2.021 . S
O80 C77 1.238 . S
O81 Co75 2.052 . S
O81 C77 1.241 . S
O82 Co70 2.137 . S
O82 C73 1.247 . S
O83 Co70 2.244 . S
O83 C73 1.272 . S
O83 Co75 2.135 . S
Co84 O85 2.216 . S
Co84 O86 2.091 . S
Co84 O88 2.004 . S
Co84 O94 2.021 . S
Co84 O96 2.137 . S
Co84 O97 2.244 . S
O85 Co84 2.216 . S
O85 C92 1.247 . S
O86 Co84 2.091 . S
O86 C92 1.261 . S
C87 O96 1.247 . S
C87 O97 1.272 . S
O88 Co84 2.004 . S
O88 C93 1.259 . S
Co89 O90 2.061 . S
Co89 O95 2.052 . S
Co89 O97 2.135 . S
O90 Co89 2.061 . S
O90 C93 1.235 . S
C91 O94 1.238 . S
C91 O95 1.241 . S
C92 O85 1.247 . S
C92 O86 1.261 . S
C93 O88 1.259 . S
C93 O90 1.235 . S
O94 Co84 2.021 . S
O94 C91 1.238 . S
O95 Co89 2.052 . S
O95 C91 1.241 . S
O96 Co84 2.137 . S
O96 C87 1.247 . S
O97 Co84 2.244 . S
O97 C87 1.272 . S
O97 Co89 2.135 . S
Co98 O99 2.216 . S
Co98 O100 2.091 . S
Co98 O102 2.004 . S
Co98 O108 2.021 . S
Co98 O110 2.137 . S
Co98 O111 2.244 . S
O99 Co98 2.216 . S
O99 C106 1.247 . S
O100 Co98 2.091 . S
O100 C106 1.261 . S
C101 O110 1.247 . S
C101 O111 1.272 . S
O102 Co98 2.004 . S
O102 C107 1.259 . S
Co103 O104 2.061 . S
Co103 O109 2.052 . S
Co103 O111 2.135 . S
O104 Co103 2.061 . S
O104 C107 1.235 . S
C105 O108 1.238 . S
C105 O109 1.241 . S
C106 O99 1.247 . S
C106 O100 1.261 . S
C107 O102 1.259 . S
C107 O104 1.235 . S
O108 Co98 2.021 . S
O108 C105 1.238 . S
O109 Co103 2.052 . S
O109 C105 1.241 . S
O110 Co98 2.137 . S
O110 C101 1.247 . S
O111 Co98 2.244 . S
O111 C101 1.272 . S
O111 Co103 2.135 . S
Co112 O113 2.216 . S
Co112 O114 2.091 . S
Co112 O116 2.004 . S
Co112 O122 2.021 . S
Co112 O124 2.137 . S
Co112 O125 2.244 . S
O113 Co112 2.216 . S
O113 C120 1.247 . S
O114 Co112 2.091 . S
O114 C120 1.261 . S
C115 O124 1.247 . S
C115 O125 1.272 . S
O116 Co112 2.004 . S
O116 C121 1.259 . S
Co117 O118 2.061 . S
Co117 O123 2.052 . S
Co117 O125 2.135 . S
O118 Co117 2.061 . S
O118 C121 1.235 . S
C119 O122 1.238 . S
C119 O123 1.241 . S
C120 O113 1.247 . S
C120 O114 1.261 . S
C121 O116 1.259 . S
C121 O118 1.235 . S
O122 Co112 2.021 . S
O122 C119 1.238 . S
O123 Co117 2.052 . S
O123 C119 1.241 . S
O124 Co112 2.137 . S
O124 C115 1.247 . S
O125 Co112 2.244 . S
O125 C115 1.272 . S
O125 Co117 2.135 . S
Co126 O127 2.216 . S
Co126 O128 2.091 . S
Co126 O130 2.004 . S
Co126 O136 2.021 . S
Co126 O138 2.137 . S
Co126 O139 2.244 . S
O127 Co126 2.216 . S
O127 C134 1.247 . S
O128 Co126 2.091 . S
O128 C134 1.261 . S
C129 O138 1.247 . S
C129 O139 1.272 . S
O130 Co126 2.004 . S
O130 C135 1.259 . S
Co131 O132 2.061 . S
Co131 O137 2.052 . S
Co131 O139 2.135 . S
O132 Co131 2.061 . S
O132 C135 1.235 . S
C133 O136 1.238 . S
C133 O137 1.241 . S
C134 O127 1.247 . S
C134 O128 1.261 . S
C135 O130 1.259 . S
C135 O132 1.235 . S
O136 Co126 2.021 . S
O136 C133 1.238 . S
O137 Co131 2.052 . S
O137 C133 1.241 . S
O138 Co126 2.137 . S
O138 C129 1.247 . S
O139 Co126 2.244 . S
O139 C129 1.272 . S
O139 Co131 2.135 . S
Co140 O141 2.216 . S
Co140 O142 2.091 . S
Co140 O144 2.004 . S
Co140 O150 2.021 . S
Co140 O152 2.137 . S
Co140 O153 2.244 . S
O141 Co140 2.216 . S
O141 C148 1.247 . S
O142 Co140 2.091 . S
O142 C148 1.261 . S
C143 O152 1.247 . S
C143 O153 1.272 . S
O144 Co140 2.004 . S
O144 C149 1.259 . S
Co145 O146 2.061 . S
Co145 O151 2.052 . S
Co145 O153 2.135 . S
O146 Co145 2.061 . S
O146 C149 1.235 . S
C147 O150 1.238 . S
C147 O151 1.241 . S
C148 O141 1.247 . S
C148 O142 1.261 . S
C149 O144 1.259 . S
C149 O146 1.235 . S
O150 Co140 2.021 . S
O150 C147 1.238 . S
O151 Co145 2.052 . S
O151 C147 1.241 . S
O152 Co140 2.137 . S
O152 C143 1.247 . S
O153 Co140 2.244 . S
O153 C143 1.272 . S
O153 Co145 2.135 . S
Co154 O155 2.216 . S
Co154 O156 2.091 . S
Co154 O158 2.004 . S
Co154 O164 2.021 . S
Co154 O166 2.137 . S
Co154 O167 2.244 . S
O155 Co154 2.216 . S
O155 C162 1.247 . S
O156 Co154 2.091 . S
O156 C162 1.261 . S
C157 O166 1.247 . S
C157 O167 1.272 . S
O158 Co154 2.004 . S
O158 C163 1.259 . S
Co159 O160 2.061 . S
Co159 O165 2.052 . S
Co159 O167 2.135 . S
O160 Co159 2.061 . S
O160 C163 1.235 . S
C161 O164 1.238 . S
C161 O165 1.241 . S
C162 O155 1.247 . S
C162 O156 1.261 . S
C163 O158 1.259 . S
C163 O160 1.235 . S
O164 Co154 2.021 . S
O164 C161 1.238 . S
O165 Co159 2.052 . S
O165 C161 1.241 . S
O166 Co154 2.137 . S
O166 C157 1.247 . S
O167 Co154 2.244 . S
O167 C157 1.272 . S
O167 Co159 2.135 . S
Co168 O169 2.216 . S
Co168 O170 2.091 . S
Co168 O172 2.004 . S
Co168 O178 2.021 1_455 S
Co168 O180 2.137 . S
Co168 O181 2.244 1_455 S
O169 Co168 2.216 . S
O169 C176 1.247 . S
O170 Co168 2.091 . S
O170 C176 1.261 . S
C171 O180 1.247 1_655 S
C171 O181 1.272 . S
O172 Co168 2.004 . S
O172 C177 1.259 . S
Co173 O174 2.061 . S
Co173 O179 2.052 . S
Co173 O181 2.135 . S
O174 Co173 2.061 . S
O174 C177 1.235 1_655 S
C175 O178 1.238 . S
C175 O179 1.241 . S
C176 O169 1.247 . S
C176 O170 1.261 . S
C177 O172 1.259 . S
C177 O174 1.235 1_455 S
O178 Co168 2.021 1_655 S
O178 C175 1.238 . S
O179 Co173 2.052 . S
O179 C175 1.241 . S
O180 Co168 2.137 . S
O180 C171 1.247 1_455 S
O181 Co168 2.244 1_655 S
O181 C171 1.272 . S
O181 Co173 2.135 . S
Co182 O183 2.216 . S
Co182 O184 2.091 . S
Co182 O186 2.004 . S
Co182 O192 2.021 . S
Co182 O194 2.137 . S
Co182 O195 2.244 . S
O183 Co182 2.216 . S
O183 C190 1.247 . S
O184 Co182 2.091 . S
O184 C190 1.261 . S
C185 O194 1.247 . S
C185 O195 1.272 . S
O186 Co182 2.004 . S
O186 C191 1.259 . S
Co187 O188 2.061 . S
Co187 O193 2.052 . S
Co187 O195 2.135 . S
O188 Co187 2.061 . S
O188 C191 1.235 . S
C189 O192 1.238 . S
C189 O193 1.241 . S
C190 O183 1.247 . S
C190 O184 1.261 . S
C191 O186 1.259 . S
C191 O188 1.235 . S
O192 Co182 2.021 . S
O192 C189 1.238 . S
O193 Co187 2.052 . S
O193 C189 1.241 . S
O194 Co182 2.137 . S
O194 C185 1.247 . S
O195 Co182 2.244 . S
O195 C185 1.272 . S
O195 Co187 2.135 . S
Co196 O197 2.216 . S
Co196 O198 2.091 . S
Co196 O200 2.004 . S
Co196 O206 2.021 . S
Co196 O208 2.137 . S
Co196 O209 2.244 . S
O197 Co196 2.216 . S
O197 C204 1.247 . S
O198 Co196 2.091 . S
O198 C204 1.261 . S
C199 O208 1.247 . S
C199 O209 1.272 . S
O200 Co196 2.004 . S
O200 C205 1.259 . S
Co201 O202 2.061 1_545 S
Co201 O207 2.052 . S
Co201 O209 2.135 1_545 S
O202 Co201 2.061 1_565 S
O202 C205 1.235 . S
C203 O206 1.238 . S
C203 O207 1.241 1_565 S
C204 O197 1.247 . S
C204 O198 1.261 . S
C205 O200 1.259 . S
C205 O202 1.235 . S
O206 Co196 2.021 . S
O206 C203 1.238 . S
O207 Co201 2.052 . S
O207 C203 1.241 1_545 S
O208 Co196 2.137 . S
O208 C199 1.247 . S
O209 Co196 2.244 . S
O209 C199 1.272 . S
O209 Co201 2.135 1_565 S
Co210 O211 2.216 . S
Co210 O212 2.091 . S
Co210 O214 2.004 . S
Co210 O220 2.021 . S
Co210 O222 2.137 . S
Co210 O223 2.244 . S
O211 Co210 2.216 . S
O211 C218 1.247 . S
O212 Co210 2.091 . S
O212 C218 1.261 . S
C213 O222 1.247 . S
C213 O223 1.272 . S
O214 Co210 2.004 . S
O214 C219 1.259 . S
Co215 O216 2.061 . S
Co215 O221 2.052 . S
Co215 O223 2.135 . S
O216 Co215 2.061 . S
O216 C219 1.235 . S
C217 O220 1.238 . S
C217 O221 1.241 . S
C218 O211 1.247 . S
C218 O212 1.261 . S
C219 O214 1.259 . S
C219 O216 1.235 . S
O220 Co210 2.021 . S
O220 C217 1.238 . S
O221 Co215 2.052 . S
O221 C217 1.241 . S
O222 Co210 2.137 . S
O222 C213 1.247 . S
O223 Co210 2.244 . S
O223 C213 1.272 . S
O223 Co215 2.135 . S
Co224 O225 2.216 . S
Co224 O226 2.091 . S
Co224 O228 2.004 . S
Co224 O234 2.021 . S
Co224 O236 2.137 . S
Co224 O237 2.244 . S
O225 Co224 2.216 . S
O225 C232 1.247 . S
O226 Co224 2.091 . S
O226 C232 1.261 . S
C227 O236 1.247 . S
C227 O237 1.272 . S
O228 Co224 2.004 . S
O228 C233 1.259 . S
Co229 O230 2.061 . S
Co229 O235 2.052 . S
Co229 O237 2.135 . S
O230 Co229 2.061 . S
O230 C233 1.235 . S
C231 O234 1.238 . S
C231 O235 1.241 . S
C232 O225 1.247 . S
C232 O226 1.261 . S
C233 O228 1.259 . S
C233 O230 1.235 . S
O234 Co224 2.021 . S
O234 C231 1.238 . S
O235 Co229 2.052 . S
O235 C231 1.241 . S
O236 Co224 2.137 . S
O236 C227 1.247 . S
O237 Co224 2.244 . S
O237 C227 1.272 . S
O237 Co229 2.135 . S
Co238 O239 2.216 . S
Co238 O240 2.091 . S
Co238 O242 2.004 . S
Co238 O248 2.021 . S
Co238 O250 2.137 . S
Co238 O251 2.244 . S
O239 Co238 2.216 . S
O239 C246 1.247 . S
O240 Co238 2.091 . S
O240 C246 1.261 . S
C241 O250 1.247 . S
C241 O251 1.272 . S
O242 Co238 2.004 . S
O242 C247 1.259 . S
Co243 O244 2.061 . S
Co243 O249 2.052 . S
Co243 O251 2.135 . S
O244 Co243 2.061 . S
O244 C247 1.235 . S
C245 O248 1.238 . S
C245 O249 1.241 . S
C246 O239 1.247 . S
C246 O240 1.261 . S
C247 O242 1.259 . S
C247 O244 1.235 . S
O248 Co238 2.021 . S
O248 C245 1.238 . S
O249 Co243 2.052 . S
O249 C245 1.241 . S
O250 Co238 2.137 . S
O250 C241 1.247 . S
O251 Co238 2.244 . S
O251 C241 1.272 . S
O251 Co243 2.135 . S
Co252 O253 2.216 . S
Co252 O254 2.091 . S
Co252 O256 2.004 . S
Co252 O262 2.021 . S
Co252 O264 2.137 . S
Co252 O265 2.244 . S
O253 Co252 2.216 . S
O253 C260 1.247 . S
O254 Co252 2.091 . S
O254 C260 1.261 . S
C255 O264 1.247 . S
C255 O265 1.272 . S
O256 Co252 2.004 . S
O256 C261 1.259 . S
Co257 O258 2.061 . S
Co257 O263 2.052 . S
Co257 O265 2.135 . S
O258 Co257 2.061 . S
O258 C261 1.235 . S
C259 O262 1.238 . S
C259 O263 1.241 . S
C260 O253 1.247 . S
C260 O254 1.261 . S
C261 O256 1.259 . S
C261 O258 1.235 . S
O262 Co252 2.021 . S
O262 C259 1.238 . S
O263 Co257 2.052 . S
O263 C259 1.241 . S
O264 Co252 2.137 . S
O264 C255 1.247 . S
O265 Co252 2.244 . S
O265 C255 1.272 . S
O265 Co257 2.135 . S
Co266 O267 2.216 . S
Co266 O268 2.091 . S
Co266 O270 2.004 . S
Co266 O276 2.021 . S
Co266 O278 2.137 . S
Co266 O279 2.244 . S
O267 Co266 2.216 . S
O267 C274 1.247 . S
O268 Co266 2.091 . S
O268 C274 1.261 . S
C269 O278 1.247 . S
C269 O279 1.272 . S
O270 Co266 2.004 . S
O270 C275 1.259 . S
Co271 O272 2.061 . S
Co271 O277 2.052 . S
Co271 O279 2.135 . S
O272 Co271 2.061 . S
O272 C275 1.235 . S
C273 O276 1.238 . S
C273 O277 1.241 . S
C274 O267 1.247 . S
C274 O268 1.261 . S
C275 O270 1.259 . S
C275 O272 1.235 . S
O276 Co266 2.021 . S
O276 C273 1.238 . S
O277 Co271 2.052 . S
O277 C273 1.241 . S
O278 Co266 2.137 . S
O278 C269 1.247 . S
O279 Co266 2.244 . S
O279 C269 1.272 . S
O279 Co271 2.135 . S
Co280 O281 2.216 . S
Co280 O282 2.091 . S
Co280 O284 2.004 . S
Co280 O290 2.021 . S
Co280 O292 2.137 . S
Co280 O293 2.244 . S
O281 Co280 2.216 . S
O281 C288 1.247 . S
O282 Co280 2.091 . S
O282 C288 1.261 . S
C283 O292 1.247 . S
C283 O293 1.272 . S
O284 Co280 2.004 . S
O284 C289 1.259 . S
Co285 O286 2.061 . S
Co285 O291 2.052 . S
Co285 O293 2.135 . S
O286 Co285 2.061 . S
O286 C289 1.235 . S
C287 O290 1.238 . S
C287 O291 1.241 . S
C288 O281 1.247 . S
C288 O282 1.261 . S
C289 O284 1.259 . S
C289 O286 1.235 . S
O290 Co280 2.021 . S
O290 C287 1.238 . S
O291 Co285 2.052 . S
O291 C287 1.241 . S
O292 Co280 2.137 . S
O292 C283 1.247 . S
O293 Co280 2.244 . S
O293 C283 1.272 . S
O293 Co285 2.135 . S
Co294 O295 2.216 1_545 S
Co294 O296 2.091 . S
Co294 O298 2.004 1_554 S
Co294 O304 2.021 . S
Co294 O306 2.137 1_545 S
Co294 O307 2.244 1_544 S
O295 Co294 2.216 1_565 S
O295 C302 1.247 1_565 S
O296 Co294 2.091 . S
O296 C302 1.261 . S
C297 O306 1.247 1_556 S
C297 O307 1.272 . S
O298 Co294 2.004 1_556 S
O298 C303 1.259 . S
Co299 O300 2.061 . S
Co299 O305 2.052 . S
Co299 O307 2.135 . S
O300 Co299 2.061 . S
O300 C303 1.235 1_565 S
C301 O304 1.238 1_566 S
C301 O305 1.241 . S
C302 O295 1.247 1_545 S
C302 O296 1.261 . S
C303 O298 1.259 . S
C303 O300 1.235 1_545 S
O304 Co294 2.021 . S
O304 C301 1.238 1_544 S
O305 Co299 2.052 . S
O305 C301 1.241 . S
O306 Co294 2.137 1_565 S
O306 C297 1.247 1_554 S
O307 Co294 2.244 1_566 S
O307 C297 1.272 . S
O307 Co299 2.135 . S
Co308 O309 2.216 . S
Co308 O310 2.091 . S
Co308 O312 2.004 1_554 S
Co308 O318 2.021 . S
Co308 O320 2.137 . S
Co308 O321 2.244 1_554 S
O309 Co308 2.216 . S
O309 C316 1.247 . S
O310 Co308 2.091 . S
O310 C316 1.261 . S
C311 O320 1.247 1_556 S
C311 O321 1.272 . S
O312 Co308 2.004 1_556 S
O312 C317 1.259 . S
Co313 O314 2.061 . S
Co313 O319 2.052 . S
Co313 O321 2.135 . S
O314 Co313 2.061 . S
O314 C317 1.235 . S
C315 O318 1.238 1_556 S
C315 O319 1.241 . S
C316 O309 1.247 . S
C316 O310 1.261 . S
C317 O312 1.259 . S
C317 O314 1.235 . S
O318 Co308 2.021 . S
O318 C315 1.238 1_554 S
O319 Co313 2.052 . S
O319 C315 1.241 . S
O320 Co308 2.137 . S
O320 C311 1.247 1_554 S
O321 Co308 2.244 1_556 S
O321 C311 1.272 . S
O321 Co313 2.135 . S
Co322 O323 2.216 . S
Co322 O324 2.091 . S
Co322 O326 2.004 1_554 S
Co322 O332 2.021 . S
Co322 O334 2.137 . S
Co322 O335 2.244 1_554 S
O323 Co322 2.216 . S
O323 C330 1.247 . S
O324 Co322 2.091 . S
O324 C330 1.261 . S
C325 O334 1.247 1_556 S
C325 O335 1.272 . S
O326 Co322 2.004 1_556 S
O326 C331 1.259 . S
Co327 O328 2.061 . S
Co327 O333 2.052 . S
Co327 O335 2.135 . S
O328 Co327 2.061 . S
O328 C331 1.235 . S
C329 O332 1.238 1_556 S
C329 O333 1.241 . S
C330 O323 1.247 . S
C330 O324 1.261 . S
C331 O326 1.259 . S
C331 O328 1.235 . S
O332 Co322 2.021 . S
O332 C329 1.238 1_554 S
O333 Co327 2.052 . S
O333 C329 1.241 . S
O334 Co322 2.137 . S
O334 C325 1.247 1_554 S
O335 Co322 2.244 1_556 S
O335 C325 1.272 . S
O335 Co327 2.135 . S
Co336 O337 2.216 . S
Co336 O338 2.091 . S
Co336 O340 2.004 . S
Co336 O346 2.021 . S
Co336 O348 2.137 . S
Co336 O349 2.244 . S
O337 Co336 2.216 . S
O337 C344 1.247 . S
O338 Co336 2.091 . S
O338 C344 1.261 . S
C339 O348 1.247 . S
C339 O349 1.272 . S
O340 Co336 2.004 . S
O340 C345 1.259 . S
Co341 O342 2.061 . S
Co341 O347 2.052 . S
Co341 O349 2.135 . S
O342 Co341 2.061 . S
O342 C345 1.235 . S
C343 O346 1.238 . S
C343 O347 1.241 . S
C344 O337 1.247 . S
C344 O338 1.261 . S
C345 O340 1.259 . S
C345 O342 1.235 . S
O346 Co336 2.021 . S
O346 C343 1.238 . S
O347 Co341 2.052 . S
O347 C343 1.241 . S
O348 Co336 2.137 . S
O348 C339 1.247 . S
O349 Co336 2.244 . S
O349 C339 1.272 . S
O349 Co341 2.135 . S
Co350 O351 2.216 . S
Co350 O352 2.091 . S
Co350 O354 2.004 . S
Co350 O360 2.021 . S
Co350 O362 2.137 . S
Co350 O363 2.244 . S
O351 Co350 2.216 . S
O351 C358 1.247 . S
O352 Co350 2.091 . S
O352 C358 1.261 . S
C353 O362 1.247 . S
C353 O363 1.272 . S
O354 Co350 2.004 . S
O354 C359 1.259 . S
Co355 O356 2.061 . S
Co355 O361 2.052 . S
Co355 O363 2.135 . S
O356 Co355 2.061 . S
O356 C359 1.235 . S
C357 O360 1.238 . S
C357 O361 1.241 . S
C358 O351 1.247 . S
C358 O352 1.261 . S
C359 O354 1.259 . S
C359 O356 1.235 . S
O360 Co350 2.021 . S
O360 C357 1.238 . S
O361 Co355 2.052 . S
O361 C357 1.241 . S
O362 Co350 2.137 . S
O362 C353 1.247 . S
O363 Co350 2.244 . S
O363 C353 1.272 . S
O363 Co355 2.135 . S
Co364 O365 2.216 . S
Co364 O366 2.091 . S
Co364 O368 2.004 . S
Co364 O374 2.021 . S
Co364 O376 2.137 . S
Co364 O377 2.244 . S
O365 Co364 2.216 . S
O365 C372 1.247 . S
O366 Co364 2.091 . S
O366 C372 1.261 . S
C367 O376 1.247 . S
C367 O377 1.272 . S
O368 Co364 2.004 . S
O368 C373 1.259 . S
Co369 O370 2.061 . S
Co369 O375 2.052 . S
Co369 O377 2.135 . S
O370 Co369 2.061 . S
O370 C373 1.235 . S
C371 O374 1.238 . S
C371 O375 1.241 . S
C372 O365 1.247 . S
C372 O366 1.261 . S
C373 O368 1.259 . S
C373 O370 1.235 . S
O374 Co364 2.021 . S
O374 C371 1.238 . S
O375 Co369 2.052 . S
O375 C371 1.241 . S
O376 Co364 2.137 . S
O376 C367 1.247 . S
O377 Co364 2.244 . S
O377 C367 1.272 . S
O377 Co369 2.135 . S
Co378 O379 2.216 1_556 S
Co378 O380 2.091 1_556 S
Co378 O382 2.004 . S
Co378 O388 2.021 1_546 S
Co378 O390 2.137 . S
Co378 O391 2.244 1_545 S
O379 Co378 2.216 1_554 S
O379 C386 1.247 . S
O380 Co378 2.091 1_554 S
O380 C386 1.261 . S
C381 O390 1.247 1_565 S
C381 O391 1.272 . S
O382 Co378 2.004 . S
O382 C387 1.259 . S
Co383 O384 2.061 . S
Co383 O389 2.052 1_556 S
Co383 O391 2.135 . S
O384 Co383 2.061 . S
O384 C387 1.235 1_565 S
C385 O388 1.238 . S
C385 O389 1.241 . S
C386 O379 1.247 . S
C386 O380 1.261 . S
C387 O382 1.259 . S
C387 O384 1.235 1_545 S
O388 Co378 2.021 1_564 S
O388 C385 1.238 . S
O389 Co383 2.052 1_554 S
O389 C385 1.241 . S
O390 Co378 2.137 . S
O390 C381 1.247 1_545 S
O391 Co378 2.244 1_565 S
O391 C381 1.272 . S
O391 Co383 2.135 . S
Co392 O393 2.216 . S
Co392 O394 2.091 . S
Co392 O396 2.004 1_556 S
Co392 O402 2.021 . S
Co392 O404 2.137 . S
Co392 O405 2.244 1_556 S
O393 Co392 2.216 . S
O393 C400 1.247 . S
O394 Co392 2.091 . S
O394 C400 1.261 . S
C395 O404 1.247 1_554 S
C395 O405 1.272 . S
O396 Co392 2.004 1_554 S
O396 C401 1.259 . S
Co397 O398 2.061 . S
Co397 O403 2.052 . S
Co397 O405 2.135 . S
O398 Co397 2.061 . S
O398 C401 1.235 . S
C399 O402 1.238 1_554 S
C399 O403 1.241 . S
C400 O393 1.247 . S
C400 O394 1.261 . S
C401 O396 1.259 . S
C401 O398 1.235 . S
O402 Co392 2.021 . S
O402 C399 1.238 1_556 S
O403 Co397 2.052 . S
O403 C399 1.241 . S
O404 Co392 2.137 . S
O404 C395 1.247 1_556 S
O405 Co392 2.244 1_554 S
O405 C395 1.272 . S
O405 Co397 2.135 . S
Co406 O407 2.216 1_556 S
Co406 O408 2.091 1_556 S
Co406 O410 2.004 . S
Co406 O416 2.021 1_556 S
Co406 O418 2.137 . S
Co406 O419 2.244 . S
O407 Co406 2.216 1_554 S
O407 C414 1.247 . S
O408 Co406 2.091 1_554 S
O408 C414 1.261 . S
C409 O418 1.247 . S
C409 O419 1.272 . S
O410 Co406 2.004 . S
O410 C415 1.259 . S
Co411 O412 2.061 . S
Co411 O417 2.052 1_556 S
Co411 O419 2.135 . S
O412 Co411 2.061 . S
O412 C415 1.235 . S
C413 O416 1.238 . S
C413 O417 1.241 . S
C414 O407 1.247 . S
C414 O408 1.261 . S
C415 O410 1.259 . S
C415 O412 1.235 . S
O416 Co406 2.021 1_554 S
O416 C413 1.238 . S
O417 Co411 2.052 1_554 S
O417 C413 1.241 . S
O418 Co406 2.137 . S
O418 C409 1.247 . S
O419 Co406 2.244 . S
O419 C409 1.272 . S
O419 Co411 2.135 . S
Co420 O421 2.216 1_455 S
Co420 O422 2.091 . S
Co420 O424 2.004 . S
Co420 O430 2.021 . S
Co420 O432 2.137 1_455 S
Co420 O433 2.244 1_455 S
O421 Co420 2.216 1_655 S
O421 C428 1.247 1_655 S
O422 Co420 2.091 . S
O422 C428 1.261 . S
C423 O432 1.247 . S
C423 O433 1.272 . S
O424 Co420 2.004 . S
O424 C429 1.259 . S
Co425 O426 2.061 . S
Co425 O431 2.052 . S
Co425 O433 2.135 . S
O426 Co425 2.061 . S
O426 C429 1.235 1_655 S
C427 O430 1.238 1_655 S
C427 O431 1.241 . S
C428 O421 1.247 1_455 S
C428 O422 1.261 . S
C429 O424 1.259 . S
C429 O426 1.235 1_455 S
O430 Co420 2.021 . S
O430 C427 1.238 1_455 S
O431 Co425 2.052 . S
O431 C427 1.241 . S
O432 Co420 2.137 1_655 S
O432 C423 1.247 . S
O433 Co420 2.244 1_655 S
O433 C423 1.272 . S
O433 Co425 2.135 . S
Co434 O435 2.216 . S
Co434 O436 2.091 . S
Co434 O438 2.004 . S
Co434 O444 2.021 . S
Co434 O446 2.137 . S
Co434 O447 2.244 . S
O435 Co434 2.216 . S
O435 C442 1.247 . S
O436 Co434 2.091 . S
O436 C442 1.261 . S
C437 O446 1.247 . S
C437 O447 1.272 . S
O438 Co434 2.004 . S
O438 C443 1.259 . S
Co439 O440 2.061 . S
Co439 O445 2.052 . S
Co439 O447 2.135 . S
O440 Co439 2.061 . S
O440 C443 1.235 . S
C441 O444 1.238 . S
C441 O445 1.241 . S
C442 O435 1.247 . S
C442 O436 1.261 . S
C443 O438 1.259 . S
C443 O440 1.235 . S
O444 Co434 2.021 . S
O444 C441 1.238 . S
O445 Co439 2.052 . S
O445 C441 1.241 . S
O446 Co434 2.137 . S
O446 C437 1.247 . S
O447 Co434 2.244 . S
O447 C437 1.272 . S
O447 Co439 2.135 . S
Co448 O449 2.216 . S
Co448 O450 2.091 . S
Co448 O452 2.004 . S
Co448 O458 2.021 . S
Co448 O460 2.137 . S
Co448 O461 2.244 . S
O449 Co448 2.216 . S
O449 C456 1.247 . S
O450 Co448 2.091 . S
O450 C456 1.261 . S
C451 O460 1.247 . S
C451 O461 1.272 . S
O452 Co448 2.004 . S
O452 C457 1.259 . S
Co453 O454 2.061 . S
Co453 O459 2.052 . S
Co453 O461 2.135 . S
O454 Co453 2.061 . S
O454 C457 1.235 . S
C455 O458 1.238 . S
C455 O459 1.241 . S
C456 O449 1.247 . S
C456 O450 1.261 . S
C457 O452 1.259 . S
C457 O454 1.235 . S
O458 Co448 2.021 . S
O458 C455 1.238 . S
O459 Co453 2.052 . S
O459 C455 1.241 . S
O460 Co448 2.137 . S
O460 C451 1.247 . S
O461 Co448 2.244 . S
O461 C451 1.272 . S
O461 Co453 2.135 . S
Co462 O463 2.216 . S
Co462 O464 2.091 . S
Co462 O466 2.004 . S
Co462 O472 2.021 . S
Co462 O474 2.137 . S
Co462 O475 2.244 . S
O463 Co462 2.216 . S
O463 C470 1.247 . S
O464 Co462 2.091 . S
O464 C470 1.261 . S
C465 O474 1.247 . S
C465 O475 1.272 . S
O466 Co462 2.004 . S
O466 C471 1.259 . S
Co467 O468 2.061 . S
Co467 O473 2.052 . S
Co467 O475 2.135 . S
O468 Co467 2.061 . S
O468 C471 1.235 . S
C469 O472 1.238 . S
C469 O473 1.241 . S
C470 O463 1.247 . S
C470 O464 1.261 . S
C471 O466 1.259 . S
C471 O468 1.235 . S
O472 Co462 2.021 . S
O472 C469 1.238 . S
O473 Co467 2.052 . S
O473 C469 1.241 . S
O474 Co462 2.137 . S
O474 C465 1.247 . S
O475 Co462 2.244 . S
O475 C465 1.272 . S
O475 Co467 2.135 . S
Co476 O477 2.216 . S
Co476 O478 2.091 . S
Co476 O480 2.004 . S
Co476 O486 2.021 . S
Co476 O488 2.137 . S
Co476 O489 2.244 . S
O477 Co476 2.216 . S
O477 C484 1.247 . S
O478 Co476 2.091 . S
O478 C484 1.261 . S
C479 O488 1.247 . S
C479 O489 1.272 . S
O480 Co476 2.004 . S
O480 C485 1.259 . S
Co481 O482 2.061 . S
Co481 O487 2.052 . S
Co481 O489 2.135 . S
O482 Co481 2.061 . S
O482 C485 1.235 . S
C483 O486 1.238 . S
C483 O487 1.241 . S
C484 O477 1.247 . S
C484 O478 1.261 . S
C485 O480 1.259 . S
C485 O482 1.235 . S
O486 Co476 2.021 . S
O486 C483 1.238 . S
O487 Co481 2.052 . S
O487 C483 1.241 . S
O488 Co476 2.137 . S
O488 C479 1.247 . S
O489 Co476 2.244 . S
O489 C479 1.272 . S
O489 Co481 2.135 . S
Co490 O491 2.216 . S
Co490 O492 2.091 . S
Co490 O494 2.004 . S
Co490 O500 2.021 . S
Co490 O502 2.137 . S
Co490 O503 2.244 . S
O491 Co490 2.216 . S
O491 C498 1.247 . S
O492 Co490 2.091 . S
O492 C498 1.261 . S
C493 O502 1.247 . S
C493 O503 1.272 . S
O494 Co490 2.004 . S
O494 C499 1.259 . S
Co495 O496 2.061 . S
Co495 O501 2.052 . S
Co495 O503 2.135 . S
O496 Co495 2.061 . S
O496 C499 1.235 . S
C497 O500 1.238 . S
C497 O501 1.241 . S
C498 O491 1.247 . S
C498 O492 1.261 . S
C499 O494 1.259 . S
C499 O496 1.235 . S
O500 Co490 2.021 . S
O500 C497 1.238 . S
O501 Co495 2.052 . S
O501 C497 1.241 . S
O502 Co490 2.137 . S
O502 C493 1.247 . S
O503 Co490 2.244 . S
O503 C493 1.272 . S
O503 Co495 2.135 . S
C504 C505 1.387 . S
C504 H508 0.950 . S
C504 C513 1.390 . S
C505 C504 1.387 . S
C505 C507 1.387 . S
H506 C513 0.950 . S
C507 C505 1.387 . S
C507 C509 1.390 . S
C507 H511 0.950 . S
H508 C504 0.950 . S
C509 C507 1.390 . S
C509 C510 1.387 . S
C509 H512 0.950 . S
C510 C509 1.387 . S
C510 C513 1.387 . S
H511 C507 0.950 . S
H512 C509 0.950 . S
C513 C504 1.390 . S
C513 H506 0.950 . S
C513 C510 1.387 . S
C514 C515 1.387 . S
C514 H518 0.950 . S
C514 C523 1.390 . S
C515 C514 1.387 . S
C515 C517 1.387 . S
H516 C523 0.950 . S
C517 C515 1.387 . S
C517 C519 1.390 . S
C517 H521 0.950 . S
H518 C514 0.950 . S
C519 C517 1.390 . S
C519 C520 1.387 . S
C519 H522 0.950 . S
C520 C519 1.387 . S
C520 C523 1.387 . S
H521 C517 0.950 . S
H522 C519 0.950 . S
C523 C514 1.390 . S
C523 H516 0.950 . S
C523 C520 1.387 . S
C524 C525 1.387 . S
C524 H528 0.950 . S
C524 C533 1.390 . S
C525 C524 1.387 . S
C525 C527 1.387 . S
H526 C533 0.950 . S
C527 C525 1.387 . S
C527 C529 1.390 . S
C527 H531 0.950 . S
H528 C524 0.950 . S
C529 C527 1.390 . S
C529 C530 1.387 . S
C529 H532 0.950 . S
C530 C529 1.387 . S
C530 C533 1.387 . S
H531 C527 0.950 . S
H532 C529 0.950 . S
C533 C524 1.390 . S
C533 H526 0.950 . S
C533 C530 1.387 . S
C534 C535 1.387 . S
C534 H538 0.950 . S
C534 C543 1.390 . S
C535 C534 1.387 . S
C535 C537 1.387 . S
H536 C543 0.950 . S
C537 C535 1.387 . S
C537 C539 1.390 . S
C537 H541 0.950 . S
H538 C534 0.950 . S
C539 C537 1.390 . S
C539 C540 1.387 . S
C539 H542 0.950 . S
C540 C539 1.387 . S
C540 C543 1.387 . S
H541 C537 0.950 . S
H542 C539 0.950 . S
C543 C534 1.390 . S
C543 H536 0.950 . S
C543 C540 1.387 . S
C544 C545 1.387 . S
C544 H548 0.950 . S
C544 C553 1.390 . S
C545 C544 1.387 . S
C545 C547 1.387 . S
H546 C553 0.950 . S
C547 C545 1.387 . S
C547 C549 1.390 . S
C547 H551 0.950 . S
H548 C544 0.950 . S
C549 C547 1.390 . S
C549 C550 1.387 1_554 S
C549 H552 0.950 . S
C550 C549 1.387 1_556 S
C550 C553 1.387 1_556 S
H551 C547 0.950 . S
H552 C549 0.950 . S
C553 C544 1.390 . S
C553 H546 0.950 . S
C553 C550 1.387 1_554 S
C554 C555 1.387 . S
C554 H558 0.950 . S
C554 C563 1.390 . S
C555 C554 1.387 . S
C555 C557 1.387 . S
H556 C563 0.950 . S
C557 C555 1.387 . S
C557 C559 1.390 . S
C557 H561 0.950 . S
H558 C554 0.950 . S
C559 C557 1.390 . S
C559 C560 1.387 . S
C559 H562 0.950 . S
C560 C559 1.387 . S
C560 C563 1.387 . S
H561 C557 0.950 . S
H562 C559 0.950 . S
C563 C554 1.390 . S
C563 H556 0.950 . S
C563 C560 1.387 . S
C564 C565 1.387 . S
C564 H568 0.950 . S
C564 C573 1.390 . S
C565 C564 1.387 . S
C565 C567 1.387 . S
H566 C573 0.950 . S
C567 C565 1.387 . S
C567 C569 1.390 . S
C567 H571 0.950 . S
H568 C564 0.950 . S
C569 C567 1.390 . S
C569 C570 1.387 . S
C569 H572 0.950 . S
C570 C569 1.387 . S
C570 C573 1.387 . S
H571 C567 0.950 . S
H572 C569 0.950 . S
C573 C564 1.390 . S
C573 H566 0.950 . S
C573 C570 1.387 . S
C574 C575 1.387 . S
C574 H578 0.950 . S
C574 C583 1.390 . S
C575 C574 1.387 . S
C575 C577 1.387 . S
H576 C583 0.950 . S
C577 C575 1.387 . S
C577 C579 1.390 . S
C577 H581 0.950 . S
H578 C574 0.950 . S
C579 C577 1.390 . S
C579 C580 1.387 . S
C579 H582 0.950 . S
C580 C579 1.387 . S
C580 C583 1.387 . S
H581 C577 0.950 . S
H582 C579 0.950 . S
C583 C574 1.390 . S
C583 H576 0.950 . S
C583 C580 1.387 . S
C584 C585 1.387 . S
C584 H588 0.950 . S
C584 C593 1.390 . S
C585 C584 1.387 . S
C585 C587 1.387 . S
H586 C593 0.950 . S
C587 C585 1.387 . S
C587 C589 1.390 . S
C587 H591 0.950 . S
H588 C584 0.950 . S
C589 C587 1.390 . S
C589 C590 1.387 . S
C589 H592 0.950 . S
C590 C589 1.387 . S
C590 C593 1.387 . S
H591 C587 0.950 . S
H592 C589 0.950 . S
C593 C584 1.390 . S
C593 H586 0.950 . S
C593 C590 1.387 . S
C594 C595 1.387 . S
C594 H598 0.950 . S
C594 C603 1.390 . S
C595 C594 1.387 . S
C595 C597 1.387 . S
H596 C603 0.950 . S
C597 C595 1.387 . S
C597 C599 1.390 . S
C597 H601 0.950 . S
H598 C594 0.950 . S
C599 C597 1.390 . S
C599 C600 1.387 . S
C599 H602 0.950 . S
C600 C599 1.387 . S
C600 C603 1.387 . S
H601 C597 0.950 . S
H602 C599 0.950 . S
C603 C594 1.390 . S
C603 H596 0.950 . S
C603 C600 1.387 . S
C604 C605 1.387 . S
C604 H608 0.950 . S
C604 C613 1.390 . S
C605 C604 1.387 . S
C605 C607 1.387 . S
H606 C613 0.950 . S
C607 C605 1.387 . S
C607 C609 1.390 . S
C607 H611 0.950 . S
H608 C604 0.950 . S
C609 C607 1.390 . S
C609 C610 1.387 . S
C609 H612 0.950 . S
C610 C609 1.387 . S
C610 C613 1.387 . S
H611 C607 0.950 . S
H612 C609 0.950 . S
C613 C604 1.390 . S
C613 H606 0.950 . S
C613 C610 1.387 . S
C614 C615 1.387 . S
C614 H618 0.950 . S
C614 C623 1.390 . S
C615 C614 1.387 . S
C615 C617 1.387 . S
H616 C623 0.950 . S
C617 C615 1.387 . S
C617 C619 1.390 . S
C617 H621 0.950 . S
H618 C614 0.950 . S
C619 C617 1.390 . S
C619 C620 1.387 . S
C619 H622 0.950 . S
C620 C619 1.387 . S
C620 C623 1.387 . S
H621 C617 0.950 . S
H622 C619 0.950 . S
C623 C614 1.390 . S
C623 H616 0.950 . S
C623 C620 1.387 . S
C624 C625 1.387 . S
C624 H628 0.950 . S
C624 C633 1.390 . S
C625 C624 1.387 . S
C625 C627 1.387 . S
H626 C633 0.950 . S
C627 C625 1.387 . S
C627 C629 1.390 . S
C627 H631 0.950 . S
H628 C624 0.950 . S
C629 C627 1.390 . S
C629 C630 1.387 . S
C629 H632 0.950 . S
C630 C629 1.387 . S
C630 C633 1.387 . S
H631 C627 0.950 . S
H632 C629 0.950 . S
C633 C624 1.390 . S
C633 H626 0.950 . S
C633 C630 1.387 . S
C634 C635 1.387 . S
C634 H638 0.950 . S
C634 C643 1.390 . S
C635 C634 1.387 . S
C635 C637 1.387 . S
H636 C643 0.950 . S
C637 C635 1.387 . S
C637 C639 1.390 . S
C637 H641 0.950 . S
H638 C634 0.950 . S
C639 C637 1.390 . S
C639 C640 1.387 . S
C639 H642 0.950 . S
C640 C639 1.387 . S
C640 C643 1.387 . S
H641 C637 0.950 . S
H642 C639 0.950 . S
C643 C634 1.390 . S
C643 H636 0.950 . S
C643 C640 1.387 . S
C644 C645 1.387 . S
C644 H648 0.950 . S
C644 C653 1.390 . S
C645 C644 1.387 . S
C645 C647 1.387 . S
H646 C653 0.950 . S
C647 C645 1.387 . S
C647 C649 1.391 . S
C647 H651 0.950 1_565 S
H648 C644 0.950 . S
C649 C647 1.391 . S
C649 C650 1.403 . S
C649 H652 0.934 1_565 S
C650 C649 1.403 . S
C650 C653 1.387 . S
H651 C647 0.950 1_545 S
H652 C649 0.934 1_545 S
C653 C644 1.390 . S
C653 H646 0.950 . S
C653 C650 1.387 . S
C654 C655 1.387 . S
C654 H658 0.950 1_545 S
C654 C663 1.390 . S
C655 C654 1.387 . S
C655 C657 1.387 . S
H656 C663 0.950 1_565 S
C657 C655 1.387 . S
C657 C659 1.390 . S
C657 H661 0.950 . S
H658 C654 0.950 1_565 S
C659 C657 1.390 . S
C659 C660 1.387 . S
C659 H662 0.950 . S
C660 C659 1.387 . S
C660 C663 1.387 . S
H661 C657 0.950 . S
H662 C659 0.950 . S
C663 C654 1.390 . S
C663 H656 0.950 1_545 S
C663 C660 1.387 . S
C664 C665 1.387 . S
C664 H668 0.950 . S
C664 C673 1.390 . S
C665 C664 1.387 . S
C665 C667 1.387 . S
H666 C673 0.950 . S
C667 C665 1.387 . S
C667 C669 1.390 . S
C667 H671 0.950 . S
H668 C664 0.950 . S
C669 C667 1.390 . S
C669 C670 1.387 . S
C669 H672 0.950 . S
C670 C669 1.387 . S
C670 C673 1.387 . S
H671 C667 0.950 . S
H672 C669 0.950 . S
C673 C664 1.390 . S
C673 H666 0.950 . S
C673 C670 1.387 . S
C674 C675 1.387 . S
C674 H678 0.950 . S
C674 C683 1.390 . S
C675 C674 1.387 . S
C675 C677 1.387 . S
H676 C683 0.950 . S
C677 C675 1.387 . S
C677 C679 1.390 . S
C677 H681 0.950 . S
H678 C674 0.950 . S
C679 C677 1.390 . S
C679 C680 1.387 . S
C679 H682 0.950 . S
C680 C679 1.387 . S
C680 C683 1.387 . S
H681 C677 0.950 . S
H682 C679 0.950 . S
C683 C674 1.390 . S
C683 H676 0.950 . S
C683 C680 1.387 . S
C684 C685 1.387 . S
C684 H688 0.950 . S
C684 C693 1.390 . S
C685 C684 1.387 . S
C685 C687 1.387 . S
H686 C693 0.950 . S
C687 C685 1.387 . S
C687 C689 1.390 . S
C687 H691 0.950 . S
H688 C684 0.950 . S
C689 C687 1.390 . S
C689 C690 1.387 . S
C689 H692 0.950 . S
C690 C689 1.387 . S
C690 C693 1.387 . S
H691 C687 0.950 . S
H692 C689 0.950 . S
C693 C684 1.390 . S
C693 H686 0.950 . S
C693 C690 1.387 . S
C694 C695 1.387 . S
C694 H698 0.950 . S
C694 C703 1.390 . S
C695 C694 1.387 . S
C695 C697 1.387 . S
H696 C703 0.950 . S
C697 C695 1.387 . S
C697 C699 1.390 . S
C697 H701 0.950 . S
H698 C694 0.950 . S
C699 C697 1.390 . S
C699 C700 1.387 . S
C699 H702 0.950 . S
C700 C699 1.387 . S
C700 C703 1.387 . S
H701 C697 0.950 . S
H702 C699 0.950 . S
C703 C694 1.390 . S
C703 H696 0.950 . S
C703 C700 1.387 . S
C704 C705 1.387 . S
C704 H708 0.950 . S
C704 C713 1.390 . S
C705 C704 1.387 . S
C705 C707 1.387 . S
H706 C713 0.950 . S
C707 C705 1.387 . S
C707 C709 1.390 . S
C707 H711 0.950 . S
H708 C704 0.950 . S
C709 C707 1.390 . S
C709 C710 1.387 . S
C709 H712 0.950 . S
C710 C709 1.387 . S
C710 C713 1.387 . S
H711 C707 0.950 . S
H712 C709 0.950 . S
C713 C704 1.390 . S
C713 H706 0.950 . S
C713 C710 1.387 . S
C714 C715 1.387 . S
C714 H718 0.950 . S
C714 C723 1.390 . S
C715 C714 1.387 . S
C715 C717 1.387 . S
H716 C723 0.950 . S
C717 C715 1.387 . S
C717 C719 1.390 . S
C717 H721 0.950 . S
H718 C714 0.950 . S
C719 C717 1.390 . S
C719 C720 1.387 . S
C719 H722 0.950 . S
C720 C719 1.387 . S
C720 C723 1.387 . S
H721 C717 0.950 . S
H722 C719 0.950 . S
C723 C714 1.390 . S
C723 H716 0.950 . S
C723 C720 1.387 . S
C724 C725 1.387 . S
C724 H728 0.950 . S
C724 C733 1.390 . S
C725 C724 1.387 . S
C725 C727 1.387 . S
H726 C733 0.950 . S
C727 C725 1.387 . S
C727 C729 1.390 . S
C727 H731 0.950 . S
H728 C724 0.950 . S
C729 C727 1.390 . S
C729 C730 1.387 . S
C729 H732 0.950 . S
C730 C729 1.387 . S
C730 C733 1.387 . S
H731 C727 0.950 . S
H732 C729 0.950 . S
C733 C724 1.390 . S
C733 H726 0.950 . S
C733 C730 1.387 . S
C734 C735 1.387 . S
C734 H738 0.950 . S
C734 C743 1.390 . S
C735 C734 1.387 . S
C735 C737 1.387 . S
H736 C743 0.950 . S
C737 C735 1.387 . S
C737 C739 1.390 . S
C737 H741 0.950 . S
H738 C734 0.950 . S
C739 C737 1.390 . S
C739 C740 1.387 . S
C739 H742 0.950 . S
C740 C739 1.387 . S
C740 C743 1.387 . S
H741 C737 0.950 . S
H742 C739 0.950 . S
C743 C734 1.390 . S
C743 H736 0.950 . S
C743 C740 1.387 . S
C744 C745 1.387 . S
C744 H748 0.950 . S
C744 C753 1.390 . S
C745 C744 1.387 . S
C745 C747 1.387 . S
H746 C753 0.950 . S
C747 C745 1.387 . S
C747 C749 1.390 . S
C747 H751 0.950 . S
H748 C744 0.950 . S
C749 C747 1.390 . S
C749 C750 1.387 . S
C749 H752 0.950 . S
C750 C749 1.387 . S
C750 C753 1.387 . S
H751 C747 0.950 . S
H752 C749 0.950 . S
C753 C744 1.390 . S
C753 H746 0.950 . S
C753 C750 1.387 . S
C754 C755 1.387 . S
C754 H758 0.950 . S
C754 C763 1.390 . S
C755 C754 1.387 . S
C755 C757 1.387 . S
H756 C763 0.950 . S
C757 C755 1.387 . S
C757 C759 1.390 . S
C757 H761 0.950 . S
H758 C754 0.950 . S
C759 C757 1.390 . S
C759 C760 1.387 . S
C759 H762 0.950 . S
C760 C759 1.387 . S
C760 C763 1.387 . S
H761 C757 0.950 . S
H762 C759 0.950 . S
C763 C754 1.390 . S
C763 H756 0.950 . S
C763 C760 1.387 . S
C764 C765 1.387 . S
C764 H768 0.950 . S
C764 C773 1.390 . S
C765 C764 1.387 . S
C765 C767 1.387 . S
H766 C773 0.950 . S
C767 C765 1.387 . S
C767 C769 1.390 . S
C767 H771 0.950 . S
H768 C764 0.950 . S
C769 C767 1.390 . S
C769 C770 1.387 . S
C769 H772 0.950 . S
C770 C769 1.387 . S
C770 C773 1.387 . S
H771 C767 0.950 . S
H772 C769 0.950 . S
C773 C764 1.390 . S
C773 H766 0.950 . S
C773 C770 1.387 . S
C774 C775 1.387 . S
C774 H778 0.950 . S
C774 C783 1.390 . S
C775 C774 1.387 . S
C775 C777 1.387 . S
H776 C783 0.950 . S
C777 C775 1.387 . S
C777 C779 1.390 . S
C777 H781 0.950 . S
H778 C774 0.950 . S
C779 C777 1.390 . S
C779 C780 1.387 . S
C779 H782 0.950 . S
C780 C779 1.387 . S
C780 C783 1.387 . S
H781 C777 0.950 . S
H782 C779 0.950 . S
C783 C774 1.390 . S
C783 H776 0.950 . S
C783 C780 1.387 . S
C784 C785 1.387 . S
C784 H788 0.950 . S
C784 C793 1.390 . S
C785 C784 1.387 . S
C785 C787 1.387 . S
H786 C793 0.950 . S
C787 C785 1.387 . S
C787 C789 1.390 . S
C787 H791 0.950 . S
H788 C784 0.950 . S
C789 C787 1.390 . S
C789 C790 1.387 . S
C789 H792 0.950 . S
C790 C789 1.387 . S
C790 C793 1.387 . S
H791 C787 0.950 . S
H792 C789 0.950 . S
C793 C784 1.390 . S
C793 H786 0.950 . S
C793 C790 1.387 . S
C794 C795 1.387 . S
C794 H798 0.950 . S
C794 C803 1.390 . S
C795 C794 1.387 . S
C795 C797 1.387 . S
H796 C803 0.950 . S
C797 C795 1.387 . S
C797 C799 1.390 . S
C797 H801 0.950 . S
H798 C794 0.950 . S
C799 C797 1.390 . S
C799 C800 1.387 . S
C799 H802 0.950 . S
C800 C799 1.387 . S
C800 C803 1.387 . S
H801 C797 0.950 . S
H802 C799 0.950 . S
C803 C794 1.390 . S
C803 H796 0.950 . S
C803 C800 1.387 . S
C804 C805 1.387 . S
C804 H808 0.950 . S
C804 C813 1.390 1_455 S
C805 C804 1.387 . S
C805 C807 1.387 . S
H806 C813 0.950 . S
C807 C805 1.387 . S
C807 C809 1.390 1_455 S
C807 H811 0.950 . S
H808 C804 0.950 . S
C809 C807 1.390 1_655 S
C809 C810 1.387 . S
C809 H812 0.950 . S
C810 C809 1.387 . S
C810 C813 1.387 . S
H811 C807 0.950 . S
H812 C809 0.950 . S
C813 C804 1.390 1_655 S
C813 H806 0.950 . S
C813 C810 1.387 . S
C814 C815 1.387 . S
C814 H818 0.950 . S
C814 C823 1.390 . S
C815 C814 1.387 . S
C815 C817 1.387 . S
H816 C823 0.950 . S
C817 C815 1.387 . S
C817 C819 1.390 . S
C817 H821 0.950 . S
H818 C814 0.950 . S
C819 C817 1.390 . S
C819 C820 1.387 . S
C819 H822 0.950 . S
C820 C819 1.387 . S
C820 C823 1.387 . S
H821 C817 0.950 . S
H822 C819 0.950 . S
C823 C814 1.390 . S
C823 H816 0.950 . S
C823 C820 1.387 . S
C824 C825 1.387 . S
C824 H828 0.950 . S
C824 C833 1.390 1_545 S
C825 C824 1.387 . S
C825 C827 1.387 . S
H826 C833 0.950 . S
C827 C825 1.387 . S
C827 C829 1.390 1_545 S
C827 H831 0.950 . S
H828 C824 0.950 . S
C829 C827 1.390 1_565 S
C829 C830 1.387 . S
C829 H832 0.950 . S
C830 C829 1.387 . S
C830 C833 1.387 . S
H831 C827 0.950 . S
H832 C829 0.950 . S
C833 C824 1.390 1_565 S
C833 H826 0.950 . S
C833 C830 1.387 . S
C834 C835 1.387 1_565 S
C834 H838 0.950 . S
C834 C843 1.390 . S
C835 C834 1.387 1_545 S
C835 C837 1.387 1_556 S
H836 C843 0.950 . S
C837 C835 1.387 1_554 S
C837 C839 1.390 . S
C837 H841 0.950 . S
H838 C834 0.950 . S
C839 C837 1.390 . S
C839 C840 1.387 1_545 S
C839 H842 0.950 . S
C840 C839 1.387 1_565 S
C840 C843 1.387 1_554 S
H841 C837 0.950 . S
H842 C839 0.950 . S
C843 C834 1.390 . S
C843 H836 0.950 . S
C843 C840 1.387 1_556 S
C844 C845 1.387 . S
C844 H848 0.950 . S
C844 C853 1.390 1_455 S
C845 C844 1.387 . S
C845 C847 1.387 1_554 S
H846 C853 0.950 . S
C847 C845 1.387 1_556 S
C847 C849 1.390 1_455 S
C847 H851 0.950 . S
H848 C844 0.950 . S
C849 C847 1.390 1_655 S
C849 C850 1.387 . S
C849 H852 0.950 . S
C850 C849 1.387 . S
C850 C853 1.387 1_556 S
H851 C847 0.950 . S
H852 C849 0.950 . S
C853 C844 1.390 1_655 S
C853 H846 0.950 . S
C853 C850 1.387 1_554 S
C854 C855 1.387 1_556 S
C854 H858 0.950 . S
C854 C863 1.390 . S
C855 C854 1.387 1_554 S
C855 C857 1.387 . S
H856 C863 0.950 . S
C857 C855 1.387 . S
C857 C859 1.390 . S
C857 H861 0.950 . S
H858 C854 0.950 . S
C859 C857 1.390 . S
C859 C860 1.387 1_554 S
C859 H862 0.950 . S
C860 C859 1.387 1_556 S
C860 C863 1.387 . S
H861 C857 0.950 . S
H862 C859 0.950 . S
C863 C854 1.390 . S
C863 H856 0.950 . S
C863 C860 1.387 . S
C864 C865 1.387 . S
C864 H868 0.950 . S
C864 C873 1.390 . S
C865 C864 1.387 . S
C865 C867 1.387 . S
H866 C873 0.950 . S
C867 C865 1.387 . S
C867 C869 1.390 . S
C867 H871 0.950 1_554 S
H868 C864 0.950 . S
C869 C867 1.390 . S
C869 C870 1.387 . S
C869 H872 0.950 . S
C870 C869 1.387 . S
C870 C873 1.387 . S
H871 C867 0.950 1_556 S
H872 C869 0.950 . S
C873 C864 1.390 . S
C873 H866 0.950 . S
C873 C870 1.387 . S
C874 C875 1.387 . S
C874 H878 0.950 . S
C874 C883 1.390 . S
C875 C874 1.387 . S
C875 C877 1.387 . S
H876 C883 0.950 . S
C877 C875 1.387 . S
C877 C879 1.390 . S
C877 H881 0.950 . S
H878 C874 0.950 . S
C879 C877 1.390 . S
C879 C880 1.387 . S
C879 H882 0.950 1_554 S
C880 C879 1.387 . S
C880 C883 1.387 . S
H881 C877 0.950 . S
H882 C879 0.950 1_556 S
C883 C874 1.390 . S
C883 H876 0.950 . S
C883 C880 1.387 . S
C884 C885 1.387 . S
C884 H888 0.950 . S
C884 C893 1.390 . S
C885 C884 1.387 . S
C885 C887 1.387 . S
H886 C893 0.950 . S
C887 C885 1.387 . S
C887 C889 1.390 . S
C887 H891 0.950 . S
H888 C884 0.950 . S
C889 C887 1.390 . S
C889 C890 1.387 . S
C889 H892 0.950 . S
C890 C889 1.387 . S
C890 C893 1.387 . S
H891 C887 0.950 . S
H892 C889 0.950 . S
C893 C884 1.390 . S
C893 H886 0.950 . S
C893 C890 1.387 . S
C894 C895 1.387 . S
C894 H898 0.950 . S
C894 C903 1.390 . S
C895 C894 1.387 . S
C895 C897 1.387 . S
H896 C903 0.950 . S
C897 C895 1.387 . S
C897 C899 1.390 . S
C897 H901 0.950 . S
H898 C894 0.950 . S
C899 C897 1.390 . S
C899 C900 1.387 . S
C899 H902 0.950 . S
C900 C899 1.387 . S
C900 C903 1.387 . S
H901 C897 0.950 . S
H902 C899 0.950 . S
C903 C894 1.390 . S
C903 H896 0.950 . S
C903 C900 1.387 . S
C904 C905 1.387 . S
C904 H908 0.950 . S
C904 C913 1.390 . S
C905 C904 1.387 . S
C905 C907 1.387 . S
H906 C913 0.950 . S
C907 C905 1.387 . S
C907 C909 1.390 . S
C907 H911 0.950 . S
H908 C904 0.950 . S
C909 C907 1.390 . S
C909 C910 1.387 . S
C909 H912 0.950 . S
C910 C909 1.387 . S
C910 C913 1.387 . S
H911 C907 0.950 . S
H912 C909 0.950 . S
C913 C904 1.390 . S
C913 H906 0.950 . S
C913 C910 1.387 . S
C914 C915 1.387 . S
C914 H918 0.950 . S
C914 C923 1.390 . S
C915 C914 1.387 . S
C915 C917 1.387 . S
H916 C923 0.950 . S
C917 C915 1.387 . S
C917 C919 1.390 . S
C917 H921 0.950 . S
H918 C914 0.950 . S
C919 C917 1.390 . S
C919 C920 1.387 . S
C919 H922 0.950 . S
C920 C919 1.387 . S
C920 C923 1.387 . S
H921 C917 0.950 . S
H922 C919 0.950 . S
C923 C914 1.390 . S
C923 H916 0.950 . S
C923 C920 1.387 . S
C924 C925 1.387 . S
C924 H928 0.950 . S
C924 C933 1.390 . S
C925 C924 1.387 . S
C925 C927 1.387 . S
H926 C933 0.950 . S
C927 C925 1.387 . S
C927 C929 1.390 . S
C927 H931 0.950 . S
H928 C924 0.950 . S
C929 C927 1.390 . S
C929 C930 1.387 . S
C929 H932 0.950 . S
C930 C929 1.387 . S
C930 C933 1.387 . S
H931 C927 0.950 . S
H932 C929 0.950 . S
C933 C924 1.390 . S
C933 H926 0.950 . S
C933 C930 1.387 . S
C934 C935 1.387 . S
C934 H938 0.950 . S
C934 C943 1.390 . S
C935 C934 1.387 . S
C935 C937 1.387 . S
H936 C943 0.950 1_554 S
C937 C935 1.387 . S
C937 C939 1.390 . S
C937 H941 0.950 . S
H938 C934 0.950 . S
C939 C937 1.390 . S
C939 C940 1.387 . S
C939 H942 0.950 . S
C940 C939 1.387 . S
C940 C943 1.387 . S
H941 C937 0.950 . S
H942 C939 0.950 . S
C943 C934 1.390 . S
C943 H936 0.950 1_556 S
C943 C940 1.387 . S
C944 C945 1.387 . S
C944 H948 0.950 . S
C944 C953 1.390 . S
C945 C944 1.387 . S
C945 C947 1.387 . S
H946 C953 0.950 . S
C947 C945 1.387 . S
C947 C949 1.390 . S
C947 H951 0.950 . S
H948 C944 0.950 . S
C949 C947 1.390 . S
C949 C950 1.387 . S
C949 H952 0.950 . S
C950 C949 1.387 . S
C950 C953 1.387 . S
H951 C947 0.950 . S
H952 C949 0.950 . S
C953 C944 1.390 . S
C953 H946 0.950 . S
C953 C950 1.387 . S
C954 C955 1.387 . S
C954 H958 0.950 . S
C954 C963 1.390 . S
C955 C954 1.387 . S
C955 C957 1.387 . S
H956 C963 0.950 . S
C957 C955 1.387 . S
C957 C959 1.390 . S
C957 H961 0.950 . S
H958 C954 0.950 . S
C959 C957 1.390 . S
C959 C960 1.387 . S
C959 H962 0.950 . S
C960 C959 1.387 . S
C960 C963 1.387 . S
H961 C957 0.950 . S
H962 C959 0.950 . S
C963 C954 1.390 . S
C963 H956 0.950 . S
C963 C960 1.387 . S
C964 C965 1.387 . S
C964 H968 0.950 . S
C964 C973 1.390 . S
C965 C964 1.387 . S
C965 C967 1.387 . S
H966 C973 0.950 . S
C967 C965 1.387 . S
C967 C969 1.390 . S
C967 H971 0.950 . S
H968 C964 0.950 . S
C969 C967 1.390 . S
C969 C970 1.387 . S
C969 H972 0.950 . S
C970 C969 1.387 . S
C970 C973 1.387 . S
H971 C967 0.950 . S
H972 C969 0.950 . S
C973 C964 1.390 . S
C973 H966 0.950 . S
C973 C970 1.387 . S
C974 C975 1.387 . S
C974 H978 0.950 . S
C974 C983 1.390 . S
C975 C974 1.387 . S
C975 C977 1.387 . S
H976 C983 0.950 . S
C977 C975 1.387 . S
C977 C979 1.390 . S
C977 H981 0.950 . S
H978 C974 0.950 . S
C979 C977 1.390 . S
C979 C980 1.387 . S
C979 H982 0.950 . S
C980 C979 1.387 . S
C980 C983 1.387 . S
H981 C977 0.950 . S
H982 C979 0.950 . S
C983 C974 1.390 . S
C983 H976 0.950 . S
C983 C980 1.387 . S
C984 C985 1.387 . S
C984 H988 0.950 . S
C984 C993 1.390 . S
C985 C984 1.387 . S
C985 C987 1.387 . S
H986 C993 0.950 . S
C987 C985 1.387 . S
C987 C989 1.390 . S
C987 H991 0.950 . S
H988 C984 0.950 . S
C989 C987 1.390 . S
C989 C990 1.387 . S
C989 H992 0.950 . S
C990 C989 1.387 . S
C990 C993 1.387 . S
H991 C987 0.950 . S
H992 C989 0.950 . S
C993 C984 1.390 . S
C993 H986 0.950 . S
C993 C990 1.387 . S
C994 C995 1.387 1_545 S
C994 H998 0.950 . S
C994 C1003 1.390 . S
C995 C994 1.387 1_565 S
C995 C997 1.387 . S
H996 C1003 0.950 . S
C997 C995 1.387 . S
C997 C999 1.390 1_565 S
C997 H1001 0.950 . S
H998 C994 0.950 . S
C999 C997 1.390 1_545 S
C999 C1000 1.387 . S
C999 H1002 0.950 . S
C1000 C999 1.387 . S
C1000 C1003 1.387 . S
H1001 C997 0.950 . S
H1002 C999 0.950 . S
C1003 C994 1.390 . S
C1003 H996 0.950 . S
C1003 C1000 1.387 . S
C1004 C1005 1.387 1_655 S
C1004 H1008 0.950 . S
C1004 C1013 1.390 . S
C1005 C1004 1.387 1_455 S
C1005 C1007 1.387 . S
H1006 C1013 0.950 . S
C1007 C1005 1.387 . S
C1007 C1009 1.437 . S
C1007 H1011 0.950 . S
H1008 C1004 0.950 . S
C1009 C1007 1.437 . S
C1009 C1010 1.361 1_455 S
C1009 H1012 0.931 . S
C1010 C1009 1.361 1_655 S
C1010 C1013 1.387 . S
H1011 C1007 0.950 . S
H1012 C1009 0.931 . S
C1013 C1004 1.390 . S
C1013 H1006 0.950 . S
C1013 C1010 1.387 . S
C1014 C1015 1.387 . S
C1014 H1018 0.950 . S
C1014 C1023 1.390 . S
C1015 C1014 1.387 . S
C1015 C1017 1.387 . S
H1016 C1023 0.950 . S
C1017 C1015 1.387 . S
C1017 C1019 1.390 . S
C1017 H1021 0.950 . S
H1018 C1014 0.950 . S
C1019 C1017 1.390 . S
C1019 C1020 1.387 . S
C1019 H1022 0.950 . S
C1020 C1019 1.387 . S
C1020 C1023 1.387 . S
H1021 C1017 0.950 . S
H1022 C1019 0.950 . S
C1023 C1014 1.390 . S
C1023 H1016 0.950 . S
C1023 C1020 1.387 . S
C1024 C1025 1.387 1_545 S
C1024 H1028 0.950 . S
C1024 C1033 1.390 . S
C1025 C1024 1.387 1_565 S
C1025 C1027 1.387 . S
H1026 C1033 0.950 . S
C1027 C1025 1.387 . S
C1027 C1029 1.390 1_565 S
C1027 H1031 0.950 . S
H1028 C1024 0.950 . S
C1029 C1027 1.390 1_545 S
C1029 C1030 1.387 . S
C1029 H1032 0.950 . S
C1030 C1029 1.387 . S
C1030 C1033 1.387 . S
H1031 C1027 0.950 . S
H1032 C1029 0.950 . S
C1033 C1024 1.390 . S
C1033 H1026 0.950 . S
C1033 C1030 1.387 . S
C1034 C1035 1.387 1_655 S
C1034 H1038 0.950 . S
C1034 C1043 1.390 . S
C1035 C1034 1.387 1_455 S
C1035 C1037 1.387 . S
H1036 C1043 0.950 . S
C1037 C1035 1.387 . S
C1037 C1039 1.385 . S
C1037 H1041 0.950 . S
H1038 C1034 0.950 . S
C1039 C1037 1.385 . S
C1039 C1040 1.391 1_455 S
C1039 H1042 0.962 . S
C1040 C1039 1.391 1_655 S
C1040 C1043 1.387 . S
H1041 C1037 0.950 . S
H1042 C1039 0.962 . S
C1043 C1034 1.390 . S
C1043 H1036 0.950 . S
C1043 C1040 1.387 . S
C1044 C1045 1.387 . S
C1044 H1048 0.950 . S
C1044 C1053 1.390 . S
C1045 C1044 1.387 . S
C1045 C1047 1.387 . S
H1046 C1053 0.950 . S
C1047 C1045 1.387 . S
C1047 C1049 1.390 . S
C1047 H1051 0.950 . S
H1048 C1044 0.950 . S
C1049 C1047 1.390 . S
C1049 C1050 1.387 . S
C1049 H1052 0.950 . S
C1050 C1049 1.387 . S
C1050 C1053 1.387 . S
H1051 C1047 0.950 . S
H1052 C1049 0.950 . S
C1053 C1044 1.390 . S
C1053 H1046 0.950 . S
C1053 C1050 1.387 . S
C1054 C1055 1.387 . S
C1054 H1058 0.950 . S
C1054 C1063 1.390 . S
C1055 C1054 1.387 . S
C1055 C1057 1.387 . S
H1056 C1063 0.950 . S
C1057 C1055 1.387 . S
C1057 C1059 1.390 . S
C1057 H1061 0.950 . S
H1058 C1054 0.950 . S
C1059 C1057 1.390 . S
C1059 C1060 1.387 . S
C1059 H1062 0.950 . S
C1060 C1059 1.387 . S
C1060 C1063 1.387 . S
H1061 C1057 0.950 . S
H1062 C1059 0.950 . S
C1063 C1054 1.390 . S
C1063 H1056 0.950 . S
C1063 C1060 1.387 . S
C1064 C1065 1.387 . S
C1064 H1068 0.950 . S
C1064 C1073 1.390 . S
C1065 C1064 1.387 . S
C1065 C1067 1.387 . S
H1066 C1073 0.950 . S
C1067 C1065 1.387 . S
C1067 C1069 1.390 . S
C1067 H1071 0.950 . S
H1068 C1064 0.950 . S
C1069 C1067 1.390 . S
C1069 C1070 1.387 . S
C1069 H1072 0.950 . S
C1070 C1069 1.387 . S
C1070 C1073 1.387 . S
H1071 C1067 0.950 . S
H1072 C1069 0.950 . S
C1073 C1064 1.390 . S
C1073 H1066 0.950 . S
C1073 C1070 1.387 . S
C1074 C1075 1.387 . S
C1074 H1078 0.950 . S
C1074 C1083 1.390 . S
C1075 C1074 1.387 . S
C1075 C1077 1.387 . S
H1076 C1083 0.950 . S
C1077 C1075 1.387 . S
C1077 C1079 1.390 . S
C1077 H1081 0.950 . S
H1078 C1074 0.950 . S
C1079 C1077 1.390 . S
C1079 C1080 1.387 . S
C1079 H1082 0.950 . S
C1080 C1079 1.387 . S
C1080 C1083 1.387 . S
H1081 C1077 0.950 . S
H1082 C1079 0.950 . S
C1083 C1074 1.390 . S
C1083 H1076 0.950 . S
C1083 C1080 1.387 . S
C1084 C1085 1.387 . S
C1084 H1088 0.950 . S
C1084 C1093 1.390 . S
C1085 C1084 1.387 . S
C1085 C1087 1.387 . S
H1086 C1093 0.950 . S
C1087 C1085 1.387 . S
C1087 C1089 1.390 . S
C1087 H1091 0.950 . S
H1088 C1084 0.950 . S
C1089 C1087 1.390 . S
C1089 C1090 1.387 . S
C1089 H1092 0.950 . S
C1090 C1089 1.387 . S
C1090 C1093 1.387 . S
H1091 C1087 0.950 . S
H1092 C1089 0.950 . S
C1093 C1084 1.390 . S
C1093 H1086 0.950 . S
C1093 C1090 1.387 . S
C1094 C1095 1.387 . S
C1094 H1098 0.950 . S
C1094 C1103 1.390 . S
C1095 C1094 1.387 . S
C1095 C1097 1.387 . S
H1096 C1103 0.950 . S
C1097 C1095 1.387 . S
C1097 C1099 1.390 . S
C1097 H1101 0.950 . S
H1098 C1094 0.950 . S
C1099 C1097 1.390 . S
C1099 C1100 1.387 . S
C1099 H1102 0.950 . S
C1100 C1099 1.387 . S
C1100 C1103 1.387 . S
H1101 C1097 0.950 . S
H1102 C1099 0.950 . S
C1103 C1094 1.390 . S
C1103 H1096 0.950 . S
C1103 C1100 1.387 . S
C1104 C1105 1.387 . S
C1104 H1108 0.950 . S
C1104 C1113 1.390 . S
C1105 C1104 1.387 . S
C1105 C1107 1.387 . S
H1106 C1113 0.950 . S
C1107 C1105 1.387 . S
C1107 C1109 1.390 . S
C1107 H1111 0.950 . S
H1108 C1104 0.950 . S
C1109 C1107 1.390 . S
C1109 C1110 1.387 . S
C1109 H1112 0.950 . S
C1110 C1109 1.387 . S
C1110 C1113 1.387 . S
H1111 C1107 0.950 . S
H1112 C1109 0.950 . S
C1113 C1104 1.390 . S
C1113 H1106 0.950 . S
C1113 C1110 1.387 . S
C1114 C1115 1.387 . S
C1114 H1118 0.950 . S
C1114 C1123 1.390 . S
C1115 C1114 1.387 . S
C1115 C1117 1.387 . S
H1116 C1123 0.950 . S
C1117 C1115 1.387 . S
C1117 C1119 1.390 . S
C1117 H1121 0.950 . S
H1118 C1114 0.950 . S
C1119 C1117 1.390 . S
C1119 C1120 1.387 . S
C1119 H1122 0.950 . S
C1120 C1119 1.387 . S
C1120 C1123 1.387 . S
H1121 C1117 0.950 . S
H1122 C1119 0.950 . S
C1123 C1114 1.390 . S
C1123 H1116 0.950 . S
C1123 C1120 1.387 . S
C1124 C1125 1.387 . S
C1124 H1128 0.950 . S
C1124 C1133 1.390 . S
C1125 C1124 1.387 . S
C1125 C1127 1.387 . S
H1126 C1133 0.950 . S
C1127 C1125 1.387 . S
C1127 C1129 1.390 . S
C1127 H1131 0.950 . S
H1128 C1124 0.950 . S
C1129 C1127 1.390 . S
C1129 C1130 1.387 . S
C1129 H1132 0.950 . S
C1130 C1129 1.387 . S
C1130 C1133 1.387 . S
H1131 C1127 0.950 . S
H1132 C1129 0.950 . S
C1133 C1124 1.390 . S
C1133 H1126 0.950 . S
C1133 C1130 1.387 . S
C1134 C1135 1.387 . S
C1134 H1138 0.950 . S
C1134 C1143 1.390 . S
C1135 C1134 1.387 . S
C1135 C1137 1.387 . S
H1136 C1143 0.950 . S
C1137 C1135 1.387 . S
C1137 C1139 1.390 . S
C1137 H1141 0.950 . S
H1138 C1134 0.950 . S
C1139 C1137 1.390 . S
C1139 C1140 1.387 . S
C1139 H1142 0.950 . S
C1140 C1139 1.387 . S
C1140 C1143 1.387 . S
H1141 C1137 0.950 . S
H1142 C1139 0.950 . S
C1143 C1134 1.390 . S
C1143 H1136 0.950 . S
C1143 C1140 1.387 . S
C1144 C1145 1.387 . S
C1144 H1148 0.950 . S
C1144 C1153 1.390 . S
C1145 C1144 1.387 . S
C1145 C1147 1.387 . S
H1146 C1153 0.950 . S
C1147 C1145 1.387 . S
C1147 C1149 1.390 . S
C1147 H1151 0.950 . S
H1148 C1144 0.950 . S
C1149 C1147 1.390 . S
C1149 C1150 1.387 . S
C1149 H1152 0.950 . S
C1150 C1149 1.387 . S
C1150 C1153 1.387 . S
H1151 C1147 0.950 . S
H1152 C1149 0.950 . S
C1153 C1144 1.390 . S
C1153 H1146 0.950 . S
C1153 C1150 1.387 . S
C1154 C1155 1.387 . S
C1154 H1158 0.950 . S
C1154 C1163 1.390 . S
C1155 C1154 1.387 . S
C1155 C1157 1.387 . S
H1156 C1163 0.950 . S
C1157 C1155 1.387 . S
C1157 C1159 1.390 . S
C1157 H1161 0.950 . S
H1158 C1154 0.950 . S
C1159 C1157 1.390 . S
C1159 C1160 1.387 . S
C1159 H1162 0.950 . S
C1160 C1159 1.387 . S
C1160 C1163 1.387 . S
H1161 C1157 0.950 . S
H1162 C1159 0.950 . S
C1163 C1154 1.390 . S
C1163 H1156 0.950 . S
C1163 C1160 1.387 . S
C1164 C1165 1.387 . S
C1164 H1168 0.950 . S
C1164 C1173 1.390 . S
C1165 C1164 1.387 . S
C1165 C1167 1.387 . S
H1166 C1173 0.950 . S
C1167 C1165 1.387 . S
C1167 C1169 1.390 . S
C1167 H1171 0.950 . S
H1168 C1164 0.950 . S
C1169 C1167 1.390 . S
C1169 C1170 1.387 . S
C1169 H1172 0.950 . S
C1170 C1169 1.387 . S
C1170 C1173 1.387 . S
H1171 C1167 0.950 . S
H1172 C1169 0.950 . S
C1173 C1164 1.390 . S
C1173 H1166 0.950 . S
C1173 C1170 1.387 . S
C1174 C1175 1.387 . S
C1174 H1178 0.950 . S
C1174 C1183 1.390 . S
C1175 C1174 1.387 . S
C1175 C1177 1.387 . S
H1176 C1183 0.950 . S
C1177 C1175 1.387 . S
C1177 C1179 1.390 . S
C1177 H1181 0.950 . S
H1178 C1174 0.950 . S
C1179 C1177 1.390 . S
C1179 C1180 1.387 . S
C1179 H1182 0.950 . S
C1180 C1179 1.387 . S
C1180 C1183 1.387 . S
H1181 C1177 0.950 . S
H1182 C1179 0.950 . S
C1183 C1174 1.390 . S
C1183 H1176 0.950 . S
C1183 C1180 1.387 . S
C1184 C1185 1.387 . S
C1184 H1188 0.950 1_565 S
C1184 C1193 1.390 . S
C1185 C1184 1.387 . S
C1185 C1187 1.387 . S
H1186 C1193 0.950 . S
C1187 C1185 1.387 . S
C1187 C1189 1.390 . S
C1187 H1191 0.950 . S
H1188 C1184 0.950 1_545 S
C1189 C1187 1.390 . S
C1189 C1190 1.387 . S
C1189 H1192 0.950 . S
C1190 C1189 1.387 . S
C1190 C1193 1.387 . S
H1191 C1187 0.950 . S
H1192 C1189 0.950 . S
C1193 C1184 1.390 . S
C1193 H1186 0.950 . S
C1193 C1190 1.387 . S
C1194 C1195 1.387 . S
C1194 H1198 0.950 1_545 S
C1194 C1203 1.390 . S
C1195 C1194 1.387 . S
C1195 C1197 1.387 . S
H1196 C1203 0.950 1_565 S
C1197 C1195 1.387 . S
C1197 C1199 1.390 . S
C1197 H1201 0.950 . S
H1198 C1194 0.950 1_565 S
C1199 C1197 1.390 . S
C1199 C1200 1.387 . S
C1199 H1202 0.950 . S
C1200 C1199 1.387 . S
C1200 C1203 1.387 . S
H1201 C1197 0.950 . S
H1202 C1199 0.950 . S
C1203 C1194 1.390 . S
C1203 H1196 0.950 1_545 S
C1203 C1200 1.387 . S
C1204 C1205 1.387 . S
C1204 H1208 0.950 . S
C1204 C1213 1.390 . S
C1205 C1204 1.387 . S
C1205 C1207 1.387 . S
H1206 C1213 0.950 . S
C1207 C1205 1.387 . S
C1207 C1209 1.390 . S
C1207 H1211 0.950 . S
H1208 C1204 0.950 . S
C1209 C1207 1.390 . S
C1209 C1210 1.387 . S
C1209 H1212 0.950 . S
C1210 C1209 1.387 . S
C1210 C1213 1.387 . S
H1211 C1207 0.950 . S
H1212 C1209 0.950 . S
C1213 C1204 1.390 . S
C1213 H1206 0.950 . S
C1213 C1210 1.387 . S
C1214 C1215 1.387 . S
C1214 H1218 0.950 . S
C1214 C1223 1.390 . S
C1215 C1214 1.387 . S
C1215 C1217 1.387 . S
H1216 C1223 0.950 . S
C1217 C1215 1.387 . S
C1217 C1219 1.390 . S
C1217 H1221 0.950 . S
H1218 C1214 0.950 . S
C1219 C1217 1.390 . S
C1219 C1220 1.387 . S
C1219 H1222 0.950 . S
C1220 C1219 1.387 . S
C1220 C1223 1.387 . S
H1221 C1217 0.950 . S
H1222 C1219 0.950 . S
C1223 C1214 1.390 . S
C1223 H1216 0.950 . S
C1223 C1220 1.387 . S
C505 C232 1.575 . S
C510 C3 1.533 . S
C515 C241 1.498 . S
C520 C22 1.541 . S
C525 C213 1.679 . S
C530 C31 1.695 . S
C535 C367 1.668 1_554 S
C540 C45 1.659 . S
C545 C64 1.562 . S
C550 C339 1.509 . S
C555 C73 1.485 . S
C560 C358 1.523 1_554 S
C565 C92 1.405 . S
C570 C484 1.416 . S
C575 C498 1.382 . S
C580 C106 1.383 . S
C585 C470 1.414 . S
C590 C120 1.426 . S
C595 C134 1.395 . S
C600 C288 1.404 1_556 S
C605 C260 1.386 1_556 S
C610 C148 1.399 . S
C615 C162 1.355 . S
C620 C274 1.354 1_556 S
C625 C400 1.517 . S
C630 C171 1.474 . S
C635 C190 1.474 . S
C640 C409 1.438 . S
C645 C381 1.598 . S
C650 C199 1.601 . S
C655 C456 1.342 . S
C660 C302 1.338 . S
C665 C428 1.348 . S
C670 C316 1.355 . S
C675 C330 1.318 . S
C680 C442 1.312 . S
C685 C259 1.273 . S
C690 C9 1.250 . S
C695 C273 1.500 . S
C700 C21 1.494 . S
C705 C287 2.355 . S
C710 C37 2.092 . S
C715 C51 1.265 . S
C720 C469 1.282 . S
C725 C63 2.309 . S
C730 C483 2.290 . S
C735 C79 1.404 . S
C740 C497 1.474 . S
C745 C91 1.269 . S
C750 C345 1.241 . S
C755 C357 1.503 . S
C760 C105 1.505 . S
C765 C373 2.075 . S
C770 C119 2.367 . S
C775 C219 1.263 . S
C780 C133 1.281 . S
C785 C147 2.291 . S
C790 C231 2.309 . S
C795 C161 1.493 . S
C800 C247 1.433 . S
C805 C177 1.278 . S
C810 C427 1.364 . S
C815 C441 1.448 . S
C820 C189 1.446 . S
C825 C455 2.040 . S
C830 C205 1.785 . S
C835 C387 1.311 . S
C840 C301 1.374 1_554 S
C845 C315 2.008 1_554 S
C850 C399 2.027 1_556 S
C855 C329 1.475 1_554 S
C860 C415 1.419 . S
C865 C386 1.581 . S
C870 C8 1.579 . S
C875 C17 1.583 . S
C880 C395 1.457 . S
C885 C36 1.664 . S
C890 C414 1.816 . S
C895 C176 1.553 . S
C900 C50 1.547 . S
C905 C59 1.474 . S
C910 C185 1.701 . S
C915 C78 1.650 . S
C920 C204 1.557 . S
C925 C297 1.500 . S
C930 C87 1.532 . S
C935 C101 1.646 . S
C940 C311 1.482 . S
C945 C325 1.693 . S
C950 C115 1.484 . S
C955 C129 1.497 . S
C960 C423 1.465 . S
C965 C437 1.784 . S
C970 C143 1.526 . S
C975 C451 1.404 . S
C980 C157 1.520 . S
C985 C344 1.600 . S
C990 C218 1.600 . S
C995 C353 1.730 . S
C1000 C227 1.526 . S
C1005 C372 1.708 . S
C1010 C246 1.865 . S
C1015 C255 1.539 . S
C1020 C465 1.539 . S
C1025 C479 1.564 . S
C1030 C269 1.808 . S
C1035 C493 1.768 . S
C1040 C283 1.536 . S
C1045 C7 1.169 1_556 S
C1050 C233 1.101 . S
C1055 C23 1.115 1_556 S
C1060 C245 1.241 . S
C1065 C35 1.362 1_556 S
C1070 C217 1.337 . S
C1075 C371 1.346 . S
C1080 C49 1.330 . S
C1085 C343 1.204 . S
C1090 C65 1.127 . S
C1095 C359 1.123 . S
C1100 C77 1.235 . S
C1105 C485 0.975 . S
C1110 C93 0.971 1_554 S
C1115 C499 1.008 . S
C1120 C107 1.010 1_554 S
C1125 C471 0.981 . S
C1130 C121 0.989 1_554 S
C1135 C135 0.985 . S
C1140 C289 0.991 . S
C1145 C149 1.001 . S
C1150 C261 0.993 . S
C1155 C163 1.007 . S
C1160 C275 1.007 . S
C1165 C401 1.141 . S
C1170 C175 1.219 . S
C1175 C413 1.294 . S
C1180 C191 1.171 . S
C1185 C203 1.408 . S
C1190 C385 1.388 . S
C1195 C303 1.048 . S
C1200 C457 1.061 . S
C1205 C429 1.021 . S
C1210 C317 1.028 . S
C1215 C443 1.050 . S
C1220 C331 1.045 . S
