# Generated by pormake.
# Topology lta, (4)-cn, num edge types: 1
# Building blocks:
#     Node 0, Type 0, BuildingBlock: QUQFOY_clean_sbu_3, # of connection points: 4
#     Node 1, Type 0, BuildingBlock: QUQFOY_clean_sbu_3, # of connection points: 4
#     Node 2, Type 0, BuildingBlock: QUQFOY_clean_sbu_3, # of connection points: 4
#     Node 3, Type 0, BuildingBlock: QUQFOY_clean_sbu_3, # of connection points: 4
#     Node 4, Type 0, BuildingBlock: QUQFOY_clean_sbu_3, # of connection points: 4
#     Node 5, Type 0, BuildingBlock: QUQFOY_clean_sbu_3, # of connection points: 4
#     Node 6, Type 0, BuildingBlock: QUQFOY_clean_sbu_3, # of connection points: 4
#     Node 7, Type 0, BuildingBlock: QUQFOY_clean_sbu_3, # of connection points: 4
#     Node 8, Type 0, BuildingBlock: QUQFOY_clean_sbu_3, # of connection points: 4
#     Node 9, Type 0, BuildingBlock: QUQFOY_clean_sbu_3, # of connection points: 4
#     Node 10, Type 0, BuildingBlock: QUQFOY_clean_sbu_3, # of connection points: 4
#     Node 11, Type 0, BuildingBlock: QUQFOY_clean_sbu_3, # of connection points: 4
#     Node 12, Type 0, BuildingBlock: QUQFOY_clean_sbu_3, # of connection points: 4
#     Node 13, Type 0, BuildingBlock: QUQFOY_clean_sbu_3, # of connection points: 4
#     Node 14, Type 0, BuildingBlock: QUQFOY_clean_sbu_3, # of connection points: 4
#     Node 15, Type 0, BuildingBlock: QUQFOY_clean_sbu_3, # of connection points: 4
#     Node 16, Type 0, BuildingBlock: QUQFOY_clean_sbu_3, # of connection points: 4
#     Node 17, Type 0, BuildingBlock: QUQFOY_clean_sbu_3, # of connection points: 4
#     Node 18, Type 0, BuildingBlock: QUQFOY_clean_sbu_3, # of connection points: 4
#     Node 19, Type 0, BuildingBlock: QUQFOY_clean_sbu_3, # of connection points: 4
#     Node 20, Type 0, BuildingBlock: QUQFOY_clean_sbu_3, # of connection points: 4
#     Node 21, Type 0, BuildingBlock: QUQFOY_clean_sbu_3, # of connection points: 4
#     Node 22, Type 0, BuildingBlock: QUQFOY_clean_sbu_3, # of connection points: 4
#     Node 23, Type 0, BuildingBlock: QUQFOY_clean_sbu_3, # of connection points: 4
#     Edge 24, Type (0, 0), BuildingBlock: XIVTED_clean_linker_0, # of connection points: 2
#     Edge 25, Type (0, 0), BuildingBlock: XIVTED_clean_linker_0, # of connection points: 2
#     Edge 26, Type (0, 0), BuildingBlock: XIVTED_clean_linker_0, # of connection points: 2
#     Edge 27, Type (0, 0), BuildingBlock: XIVTED_clean_linker_0, # of connection points: 2
#     Edge 28, Type (0, 0), BuildingBlock: XIVTED_clean_linker_0, # of connection points: 2
#     Edge 29, Type (0, 0), BuildingBlock: XIVTED_clean_linker_0, # of connection points: 2
#     Edge 30, Type (0, 0), BuildingBlock: XIVTED_clean_linker_0, # of connection points: 2
#     Edge 31, Type (0, 0), BuildingBlock: XIVTED_clean_linker_0, # of connection points: 2
#     Edge 32, Type (0, 0), BuildingBlock: XIVTED_clean_linker_0, # of connection points: 2
#     Edge 33, Type (0, 0), BuildingBlock: XIVTED_clean_linker_0, # of connection points: 2
#     Edge 34, Type (0, 0), BuildingBlock: XIVTED_clean_linker_0, # of connection points: 2
#     Edge 35, Type (0, 0), BuildingBlock: XIVTED_clean_linker_0, # of connection points: 2
#     Edge 36, Type (0, 0), BuildingBlock: XIVTED_clean_linker_0, # of connection points: 2
#     Edge 37, Type (0, 0), BuildingBlock: XIVTED_clean_linker_0, # of connection points: 2
#     Edge 38, Type (0, 0), BuildingBlock: XIVTED_clean_linker_0, # of connection points: 2
#     Edge 39, Type (0, 0), BuildingBlock: XIVTED_clean_linker_0, # of connection points: 2
#     Edge 40, Type (0, 0), BuildingBlock: XIVTED_clean_linker_0, # of connection points: 2
#     Edge 41, Type (0, 0), BuildingBlock: XIVTED_clean_linker_0, # of connection points: 2
#     Edge 42, Type (0, 0), BuildingBlock: XIVTED_clean_linker_0, # of connection points: 2
#     Edge 43, Type (0, 0), BuildingBlock: XIVTED_clean_linker_0, # of connection points: 2
#     Edge 44, Type (0, 0), BuildingBlock: XIVTED_clean_linker_0, # of connection points: 2
#     Edge 45, Type (0, 0), BuildingBlock: XIVTED_clean_linker_0, # of connection points: 2
#     Edge 46, Type (0, 0), BuildingBlock: XIVTED_clean_linker_0, # of connection points: 2
#     Edge 47, Type (0, 0), BuildingBlock: XIVTED_clean_linker_0, # of connection points: 2
#     Edge 48, Type (0, 0), BuildingBlock: XIVTED_clean_linker_0, # of connection points: 2
#     Edge 49, Type (0, 0), BuildingBlock: XIVTED_clean_linker_0, # of connection points: 2
#     Edge 50, Type (0, 0), BuildingBlock: XIVTED_clean_linker_0, # of connection points: 2
#     Edge 51, Type (0, 0), BuildingBlock: XIVTED_clean_linker_0, # of connection points: 2
#     Edge 52, Type (0, 0), BuildingBlock: XIVTED_clean_linker_0, # of connection points: 2
#     Edge 53, Type (0, 0), BuildingBlock: XIVTED_clean_linker_0, # of connection points: 2
#     Edge 54, Type (0, 0), BuildingBlock: XIVTED_clean_linker_0, # of connection points: 2
#     Edge 55, Type (0, 0), BuildingBlock: XIVTED_clean_linker_0, # of connection points: 2
#     Edge 56, Type (0, 0), BuildingBlock: XIVTED_clean_linker_0, # of connection points: 2
#     Edge 57, Type (0, 0), BuildingBlock: XIVTED_clean_linker_0, # of connection points: 2
#     Edge 58, Type (0, 0), BuildingBlock: XIVTED_clean_linker_0, # of connection points: 2
#     Edge 59, Type (0, 0), BuildingBlock: XIVTED_clean_linker_0, # of connection points: 2
#     Edge 60, Type (0, 0), BuildingBlock: XIVTED_clean_linker_0, # of connection points: 2
#     Edge 61, Type (0, 0), BuildingBlock: XIVTED_clean_linker_0, # of connection points: 2
#     Edge 62, Type (0, 0), BuildingBlock: XIVTED_clean_linker_0, # of connection points: 2
#     Edge 63, Type (0, 0), BuildingBlock: XIVTED_clean_linker_0, # of connection points: 2
#     Edge 64, Type (0, 0), BuildingBlock: XIVTED_clean_linker_0, # of connection points: 2
#     Edge 65, Type (0, 0), BuildingBlock: XIVTED_clean_linker_0, # of connection points: 2
#     Edge 66, Type (0, 0), BuildingBlock: XIVTED_clean_linker_0, # of connection points: 2
#     Edge 67, Type (0, 0), BuildingBlock: XIVTED_clean_linker_0, # of connection points: 2
#     Edge 68, Type (0, 0), BuildingBlock: XIVTED_clean_linker_0, # of connection points: 2
#     Edge 69, Type (0, 0), BuildingBlock: XIVTED_clean_linker_0, # of connection points: 2
#     Edge 70, Type (0, 0), BuildingBlock: XIVTED_clean_linker_0, # of connection points: 2
#     Edge 71, Type (0, 0), BuildingBlock: XIVTED_clean_linker_0, # of connection points: 2
# Relax obj value: 0.276
# Max RMSD: 0.159
# Mean RMSD: 0.159
data_MOF--net-lta--node1-QUQFOY_clean_sbu_3--edge1-XIVTED_clean_linker_0
_symmetry_space_group_name_H-M    P1
_symmetry_Int_Tables_number       1
_symmetry_cell_setting            triclinic
loop_
_symmetry_equiv_pos_as_xyz
'x, y, z'
_cell_length_a     59.01994
_cell_length_b     59.229966
_cell_length_c     59.193709
_cell_angle_alpha  90.145437
_cell_angle_beta   90.196598
_cell_angle_gamma 89.958511
loop_
_atom_site_label
_atom_site_type_symbol
_atom_site_fract_x
_atom_site_fract_y
_atom_site_fract_z
_atom_type_partial_charge
C0 C 0.13156 0.32647 0.44772 0.0
O1 O 0.1496 0.32455 0.45898 0.0
Cd2 Cd 0.12869 0.31495 0.49383 0.0
O3 O 0.11346 0.3215 0.45785 0.0
Cd4 Cd 0.12543 0.30803 0.49826 0.0
C5 C 0.07637 0.30836 0.49651 0.0
O6 O 0.14336 0.34136 0.51807 0.0
O7 O 0.11761 0.32438 0.53706 0.0
O8 O 0.16288 0.29145 0.4895 0.0
C9 C 0.13236 0.33997 0.53625 0.0
O10 O 0.08731 0.32621 0.49223 0.0
C11 C 0.15824 0.27214 0.49741 0.0
O12 O 0.08788 0.29101 0.50133 0.0
O13 O 0.13867 0.26951 0.50583 0.0
C14 C 0.65625 0.10904 0.43634 0.0
O15 O 0.66187 0.12709 0.44615 0.0
Cd16 Cd 0.67406 0.10723 0.48057 0.0
O17 O 0.66074 0.09093 0.44667 0.0
Cd18 Cd 0.6811 0.10255 0.48432 0.0
C19 C 0.67017 0.05504 0.4871 0.0
O20 O 0.65357 0.12796 0.50546 0.0
O21 O 0.66672 0.10022 0.52465 0.0
O22 O 0.70168 0.13477 0.46812 0.0
C23 C 0.65422 0.11768 0.52407 0.0
O24 O 0.65479 0.06974 0.48472 0.0
C25 C 0.72033 0.13084 0.47797 0.0
O26 O 0.69043 0.06208 0.48771 0.0
O27 O 0.72139 0.11318 0.4901 0.0
C28 C 0.84403 0.62146 0.46212 0.0
O29 O 0.84719 0.6069 0.47751 0.0
Cd30 Cd 0.85835 0.61657 0.51481 0.0
O31 O 0.84532 0.64252 0.46646 0.0
Cd32 Cd 0.8497 0.66748 0.50038 0.0
C33 C 0.90407 0.65203 0.50432 0.0
O34 O 0.82995 0.6428 0.52575 0.0
O35 O 0.84879 0.66891 0.54254 0.0
O36 O 0.81789 0.68473 0.48232 0.0
C37 C 0.83498 0.65259 0.54405 0.0
O38 O 0.89609 0.63344 0.5116 0.0
C39 C 0.82319 0.70506 0.48639 0.0
O40 O 0.8909 0.66777 0.49775 0.0
O41 O 0.84165 0.70845 0.497 0.0
C42 C 0.34861 0.8696 0.46281 0.0
O43 O 0.35818 0.88348 0.47621 0.0
Cd44 Cd 0.3509 0.88874 0.51588 0.0
O45 O 0.33219 0.85725 0.46933 0.0
Cd46 Cd 0.30897 0.85352 0.50397 0.0
C47 C 0.29831 0.91023 0.50829 0.0
O48 O 0.34164 0.85169 0.52754 0.0
O49 O 0.31062 0.84771 0.54596 0.0
O50 O 0.29713 0.81598 0.49153 0.0
C51 C 0.33205 0.84891 0.54633 0.0
O52 O 0.31793 0.91331 0.51672 0.0
C53 C 0.27611 0.82037 0.49345 0.0
O54 O 0.29221 0.89098 0.50097 0.0
O55 O 0.27076 0.83992 0.50046 0.0
C56 C 0.1347 0.65309 0.53336 0.0
O57 O 0.15074 0.65256 0.51937 0.0
Cd58 Cd 0.12528 0.66146 0.48755 0.0
O59 O 0.11551 0.65876 0.52571 0.0
Cd60 Cd 0.12146 0.66932 0.48317 0.0
C61 C 0.0727 0.66722 0.49041 0.0
O62 O 0.1354 0.63476 0.46161 0.0
O63 O 0.10916 0.65407 0.44544 0.0
O64 O 0.16062 0.68348 0.48567 0.0
C65 C 0.12285 0.63755 0.44452 0.0
O66 O 0.08501 0.65028 0.49487 0.0
C67 C 0.15607 0.70322 0.47889 0.0
O68 O 0.08268 0.68476 0.4834 0.0
O69 O 0.13549 0.70747 0.47415 0.0
C70 C 0.33839 0.09782 0.50665 0.0
O71 O 0.34933 0.08508 0.4933 0.0
Cd72 Cd 0.3421 0.08346 0.45343 0.0
O73 O 0.32185 0.10962 0.49948 0.0
Cd74 Cd 0.3013 0.11326 0.46317 0.0
C75 C 0.29178 0.05761 0.45762 0.0
O76 O 0.33451 0.12136 0.44126 0.0
O77 O 0.30479 0.11411 0.42128 0.0
O78 O 0.29111 0.15099 0.47528 0.0
C79 C 0.32501 0.12134 0.4221 0.0
O80 O 0.3113 0.05649 0.44864 0.0
C81 C 0.27 0.1484 0.47211 0.0
O82 O 0.28483 0.07591 0.46642 0.0
O83 O 0.26347 0.12946 0.46442 0.0
C84 C 0.85067 0.32449 0.52031 0.0
O85 O 0.83305 0.31901 0.50954 0.0
Cd86 Cd 0.85524 0.30356 0.47775 0.0
O87 O 0.86929 0.31855 0.51172 0.0
Cd88 Cd 0.8596 0.2964 0.4746 0.0
C89 C 0.90815 0.30133 0.47614 0.0
O90 O 0.83732 0.32205 0.44879 0.0
O91 O 0.86754 0.30842 0.43411 0.0
O92 O 0.82469 0.27687 0.48678 0.0
C93 C 0.84984 0.3204 0.43166 0.0
O94 O 0.89555 0.31864 0.47684 0.0
C95 C 0.83113 0.25748 0.4803 0.0
O96 O 0.89836 0.2824 0.47486 0.0
O97 O 0.85071 0.25604 0.47162 0.0
C98 C 0.60993 0.82586 0.50929 0.0
O99 O 0.59438 0.83038 0.49515 0.0
Cd100 Cd 0.60087 0.84585 0.45873 0.0
O101 O 0.63077 0.82766 0.5039 0.0
Cd102 Cd 0.65271 0.83596 0.46874 0.0
C103 C 0.63677 0.89013 0.47242 0.0
O104 O 0.62664 0.82048 0.44127 0.0
O105 O 0.65149 0.84315 0.42754 0.0
O106 O 0.67466 0.80205 0.47319 0.0
C107 C 0.63557 0.82921 0.42398 0.0
O108 O 0.61755 0.88327 0.46532 0.0
C109 C 0.69393 0.81151 0.47325 0.0
O110 O 0.65276 0.87622 0.47626 0.0
O111 O 0.69426 0.83292 0.47186 0.0
C112 C 0.44914 0.12552 0.31238 0.0
O113 O 0.46306 0.14161 0.31132 0.0
Cd114 Cd 0.49331 0.1172 0.29653 0.0
O115 O 0.45581 0.10673 0.3047 0.0
Cd116 Cd 0.49651 0.11335 0.28865 0.0
C117 C 0.48997 0.06514 0.28846 0.0
O118 O 0.52248 0.12743 0.31991 0.0
O119 O 0.53447 0.09839 0.3018 0.0
O120 O 0.49194 0.15222 0.27464 0.0
C121 C 0.53806 0.11313 0.31699 0.0
O122 O 0.48827 0.07624 0.30669 0.0
C123 C 0.49831 0.14792 0.25467 0.0
O124 O 0.49381 0.07627 0.27066 0.0
O125 O 0.50354 0.1276 0.25019 0.0
C126 C 0.83655 0.45331 0.3399 0.0
O127 O 0.83749 0.46674 0.35662 0.0
Cd128 Cd 0.84721 0.50545 0.35476 0.0
O129 O 0.83914 0.46027 0.31969 0.0
Cd130 Cd 0.84348 0.49779 0.3006 0.0
C131 C 0.89589 0.50021 0.32318 0.0
O132 O 0.821 0.51833 0.32698 0.0
O133 O 0.84023 0.53973 0.30526 0.0
O134 O 0.81836 0.48297 0.27175 0.0
C135 C 0.82597 0.53818 0.32114 0.0
O136 O 0.88711 0.50486 0.34229 0.0
C137 C 0.82963 0.49075 0.25526 0.0
O138 O 0.88353 0.49633 0.30601 0.0
O139 O 0.8473 0.50208 0.25989 0.0
C140 C 0.51865 0.83437 0.30706 0.0
O141 O 0.50453 0.81853 0.30498 0.0
Cd142 Cd 0.47382 0.84454 0.29363 0.0
O143 O 0.51188 0.85374 0.30126 0.0
Cd144 Cd 0.47028 0.84876 0.28694 0.0
C145 C 0.47822 0.89661 0.28611 0.0
O146 O 0.44636 0.83507 0.31954 0.0
O147 O 0.43526 0.86601 0.30435 0.0
O148 O 0.47028 0.80987 0.27156 0.0
C149 C 0.43207 0.85092 0.31919 0.0
O150 O 0.4813 0.88537 0.30402 0.0
C151 C 0.46417 0.81551 0.25181 0.0
O152 O 0.47232 0.88569 0.26868 0.0
O153 O 0.46096 0.83639 0.24821 0.0
C154 C 0.12148 0.51944 0.32469 0.0
O155 O 0.13882 0.50784 0.32019 0.0
Cd156 Cd 0.11598 0.47708 0.30397 0.0
O157 O 0.10271 0.51171 0.3179 0.0
Cd158 Cd 0.11046 0.4742 0.29615 0.0
C159 C 0.0627 0.47707 0.30479 0.0
O160 O 0.13323 0.44722 0.32107 0.0
O161 O 0.1014 0.43463 0.3088 0.0
O162 O 0.14135 0.49055 0.27344 0.0
C163 C 0.11935 0.43103 0.3201 0.0
O164 O 0.0766 0.47697 0.32114 0.0
C165 C 0.13561 0.48044 0.25539 0.0
O166 O 0.0709 0.476 0.28512 0.0
O167 O 0.11858 0.4674 0.25633 0.0
C168 C 0.44695 0.84595 0.66663 0.0
O169 O 0.45493 0.82703 0.67228 0.0
Cd170 Cd 0.49302 0.84337 0.67908 0.0
O171 O 0.45996 0.86272 0.66895 0.0
Cd172 Cd 0.49847 0.84865 0.68548 0.0
C173 C 0.50341 0.89512 0.67238 0.0
O174 O 0.51429 0.82002 0.65706 0.0
O175 O 0.5364 0.84731 0.66622 0.0
O176 O 0.48075 0.82326 0.71339 0.0
C177 C 0.53334 0.82945 0.6547 0.0
O178 O 0.49787 0.88028 0.65797 0.0
C179 C 0.49498 0.82755 0.72892 0.0
O180 O 0.50641 0.88851 0.69247 0.0
O181 O 0.51077 0.84132 0.72432 0.0
C182 C 0.12496 0.47759 0.62945 0.0
O183 O 0.12264 0.4939 0.61577 0.0
Cd184 Cd 0.11253 0.53099 0.62645 0.0
O185 O 0.12318 0.48059 0.65073 0.0
Cd186 Cd 0.11808 0.51349 0.67705 0.0
C187 C 0.06488 0.51916 0.65809 0.0
O188 O 0.14025 0.53885 0.65473 0.0
O189 O 0.12003 0.55555 0.67959 0.0
O190 O 0.14453 0.49243 0.70022 0.0
C191 C 0.13493 0.55712 0.66432 0.0
O192 O 0.07339 0.52766 0.64027 0.0
C193 C 0.1366 0.49917 0.71895 0.0
O194 O 0.07752 0.51174 0.67384 0.0
O195 O 0.11976 0.51248 0.71832 0.0
C196 C 0.51543 0.12159 0.61072 0.0
O197 O 0.50046 0.11776 0.59577 0.0
Cd198 Cd 0.46475 0.10174 0.60472 0.0
O199 O 0.51093 0.11964 0.63165 0.0
Cd200 Cd 0.47705 0.11314 0.6557 0.0
C201 C 0.48255 0.05913 0.64087 0.0
O202 O 0.44826 0.12744 0.63085 0.0
O203 O 0.43575 0.10521 0.65652 0.0
O204 O 0.48719 0.14762 0.67419 0.0
C205 C 0.43136 0.11835 0.64019 0.0
O206 O 0.47419 0.06506 0.62188 0.0
C207 C 0.48627 0.14008 0.6942 0.0
O208 O 0.48626 0.0736 0.65635 0.0
O209 O 0.48086 0.11945 0.69661 0.0
C210 C 0.83386 0.53103 0.65318 0.0
O211 O 0.81845 0.51629 0.65238 0.0
Cd212 Cd 0.84504 0.4862 0.66339 0.0
O213 O 0.85298 0.52457 0.66033 0.0
Cd214 Cd 0.85014 0.48197 0.67171 0.0
C215 C 0.89774 0.49263 0.66746 0.0
O216 O 0.83525 0.45816 0.63882 0.0
O217 O 0.86534 0.44582 0.65513 0.0
O218 O 0.81278 0.48126 0.68984 0.0
C219 C 0.8501 0.44287 0.64022 0.0
O220 O 0.88467 0.49547 0.65069 0.0
C221 C 0.82008 0.47463 0.70887 0.0
O222 O 0.88889 0.48552 0.68552 0.0
O223 O 0.8413 0.47173 0.71089 0.0
C224 C 0.31005 0.43401 0.11979 0.0
O225 O 0.30452 0.44495 0.13719 0.0
Cd226 Cd 0.29881 0.48019 0.11591 0.0
O227 O 0.30846 0.44439 0.10122 0.0
Cd228 Cd 0.29299 0.48468 0.1111 0.0
C229 C 0.30181 0.48464 0.06331 0.0
O230 O 0.32398 0.50178 0.13586 0.0
O231 O 0.31363 0.52174 0.10747 0.0
O232 O 0.2658 0.4692 0.13876 0.0
C233 C 0.32632 0.51976 0.1247 0.0
O234 O 0.31729 0.47951 0.07723 0.0
C235 C 0.25119 0.48463 0.13606 0.0
O236 O 0.28257 0.48925 0.07144 0.0
O237 O 0.25587 0.50017 0.12213 0.0
C238 C 0.34536 0.50579 0.83119 0.0
O239 O 0.36075 0.49107 0.83401 0.0
Cd240 Cd 0.35434 0.45443 0.84899 0.0
O241 O 0.3246 0.50107 0.83472 0.0
Cd242 Cd 0.30203 0.4667 0.84427 0.0
C243 C 0.32388 0.46892 0.89657 0.0
O244 O 0.32554 0.4394 0.82492 0.0
O245 O 0.30183 0.42524 0.84839 0.0
O246 O 0.27586 0.48131 0.81637 0.0
C247 C 0.31676 0.42192 0.83341 0.0
O248 O 0.34204 0.46074 0.88829 0.0
C249 C 0.2581 0.47565 0.82696 0.0
O250 O 0.3071 0.4737 0.88393 0.0
O251 O 0.26066 0.46579 0.8458 0.0
C252 C 0.43529 0.30756 0.83843 0.0
O253 O 0.44784 0.30449 0.82154 0.0
Cd254 Cd 0.48132 0.29706 0.84537 0.0
O255 O 0.44415 0.30382 0.85753 0.0
Cd256 Cd 0.48582 0.29045 0.84967 0.0
C257 C 0.48292 0.29762 0.898 0.0
O258 O 0.50515 0.32308 0.82999 0.0
O259 O 0.52404 0.30851 0.85732 0.0
O260 O 0.48009 0.27191 0.8129 0.0
C261 C 0.52309 0.32306 0.84162 0.0
O262 O 0.47771 0.31323 0.88438 0.0
C263 C 0.4883 0.25301 0.81854 0.0
O264 O 0.48869 0.27886 0.88948 0.0
O265 O 0.495 0.25093 0.83886 0.0
C266 C 0.61521 0.46215 0.84335 0.0
O267 O 0.60197 0.47901 0.84415 0.0
Cd268 Cd 0.61428 0.5157 0.85412 0.0
O269 O 0.63656 0.46459 0.84576 0.0
Cd270 Cd 0.66447 0.49626 0.84909 0.0
C271 C 0.64585 0.50229 0.90192 0.0
O272 O 0.64339 0.52281 0.82741 0.0
O273 O 0.66903 0.5383 0.8479 0.0
O274 O 0.68318 0.47663 0.81909 0.0
C275 C 0.65384 0.54059 0.83288 0.0
O276 O 0.62818 0.51099 0.89303 0.0
C277 C 0.70315 0.47887 0.82674 0.0
O278 O 0.66188 0.4948 0.88968 0.0
O279 O 0.70538 0.48906 0.84555 0.0
C280 C 0.51786 0.6228 0.83742 0.0
O281 O 0.50474 0.60583 0.83777 0.0
Cd282 Cd 0.46653 0.60746 0.84965 0.0
O283 O 0.5106 0.64254 0.84213 0.0
Cd284 Cd 0.47344 0.66136 0.85017 0.0
C285 C 0.47362 0.63551 0.90063 0.0
O286 O 0.45282 0.63674 0.82564 0.0
O287 O 0.43134 0.65748 0.8461 0.0
O288 O 0.49121 0.6892 0.82669 0.0
C289 C 0.43294 0.64277 0.8306 0.0
O290 O 0.46935 0.6172 0.89008 0.0
C291 C 0.48256 0.7062 0.83645 0.0
O292 O 0.47629 0.65394 0.89001 0.0
O293 O 0.46914 0.70248 0.85276 0.0
C294 C 0.6452 0.5266 0.13261 0.0
O295 O 0.62702 0.51517 0.13279 0.0
Cd296 Cd 0.62365 0.47706 0.1213 0.0
O297 O 0.66418 0.51771 0.12744 0.0
Cd298 Cd 0.6795 0.47904 0.11909 0.0
C299 C 0.65139 0.48079 0.0696 0.0
O300 O 0.65299 0.46111 0.14337 0.0
O301 O 0.67198 0.43766 0.12351 0.0
O302 O 0.7095 0.49453 0.14179 0.0
C303 C 0.65675 0.44078 0.13823 0.0
O304 O 0.63319 0.47829 0.08088 0.0
C305 C 0.72537 0.48347 0.13253 0.0
O306 O 0.67055 0.48211 0.07944 0.0
O307 O 0.72006 0.46999 0.11667 0.0
C308 C 0.4706 0.60443 0.12851 0.0
O309 O 0.48782 0.59161 0.12771 0.0
Cd310 Cd 0.52344 0.60544 0.1152 0.0
O311 O 0.47251 0.62558 0.12505 0.0
Cd312 Cd 0.50249 0.65456 0.11919 0.0
C313 C 0.50583 0.6336 0.06686 0.0
O314 O 0.5319 0.63616 0.14008 0.0
O315 O 0.54397 0.66211 0.11786 0.0
O316 O 0.48344 0.67311 0.14962 0.0
C317 C 0.5484 0.64784 0.1332 0.0
O318 O 0.51572 0.61674 0.07592 0.0
C319 C 0.48332 0.69267 0.14099 0.0
O320 O 0.49865 0.64994 0.07886 0.0
O321 O 0.49219 0.6948 0.12155 0.0
C322 C 0.51233 0.35976 0.12686 0.0
O323 O 0.49638 0.37358 0.12287 0.0
Cd324 Cd 0.46009 0.36239 0.10903 0.0
O325 O 0.50909 0.33855 0.12531 0.0
Cd326 Cd 0.47676 0.31239 0.11875 0.0
C327 C 0.47544 0.32751 0.06448 0.0
O328 O 0.44693 0.33492 0.13515 0.0
O329 O 0.43551 0.3077 0.11379 0.0
O330 O 0.48915 0.29389 0.15254 0.0
C331 C 0.43052 0.32357 0.12729 0.0
O332 O 0.46642 0.34577 0.07154 0.0
C333 C 0.48952 0.27408 0.14438 0.0
O334 O 0.4822 0.31249 0.0783 0.0
O335 O 0.48408 0.27186 0.1237 0.0
H336 H 0.08857 0.39765 0.32885 0.0
H337 H 0.16757 0.34211 0.42344 0.0
H338 H 0.15766 0.4176 0.34219 0.0
H339 H 0.09514 0.33259 0.41968 0.0
H340 H 0.1661 0.36282 0.38782 0.0
H341 H 0.09282 0.36693 0.35615 0.0
C342 C 0.10475 0.39532 0.33723 0.0
C343 C 0.12269 0.41037 0.33355 0.0
C344 C 0.15057 0.35596 0.39465 0.0
C345 C 0.12762 0.37542 0.36474 0.0
C346 C 0.1514 0.3441 0.41495 0.0
C347 C 0.13138 0.33596 0.4247 0.0
C348 C 0.12959 0.35969 0.38404 0.0
C349 C 0.11094 0.33885 0.41288 0.0
C350 C 0.10713 0.37785 0.35284 0.0
C351 C 0.1433 0.40655 0.34477 0.0
N352 N 0.11052 0.35071 0.39327 0.0
N353 N 0.14514 0.38958 0.36003 0.0
H354 H 0.64135 0.07293 0.41127 0.0
H355 H 0.55424 0.14777 0.34247 0.0
H356 H 0.64112 0.1458 0.41316 0.0
H357 H 0.56831 0.07865 0.32402 0.0
H358 H 0.5864 0.14707 0.36839 0.0
H359 H 0.61532 0.07412 0.37894 0.0
C360 C 0.63608 0.08916 0.40469 0.0
C361 C 0.6432 0.10929 0.41504 0.0
C362 C 0.58265 0.1321 0.35852 0.0
C363 C 0.61334 0.11075 0.37838 0.0
C364 C 0.56423 0.13247 0.3438 0.0
C365 C 0.55857 0.11319 0.33124 0.0
C366 C 0.59529 0.11218 0.36103 0.0
C367 C 0.57215 0.09387 0.33346 0.0
C368 C 0.62126 0.08982 0.38625 0.0
C369 C 0.63592 0.12986 0.40582 0.0
N370 N 0.58976 0.09373 0.34835 0.0
N371 N 0.62117 0.13004 0.3882 0.0
H372 H 0.85276 0.64154 0.42119 0.0
H373 H 0.79393 0.54031 0.35374 0.0
H374 H 0.82049 0.5837 0.45137 0.0
H375 H 0.84952 0.57812 0.32557 0.0
H376 H 0.7941 0.56533 0.3865 0.0
H377 H 0.84344 0.62622 0.38349 0.0
C378 C 0.84353 0.62579 0.41986 0.0
C379 C 0.83766 0.61365 0.43932 0.0
C380 C 0.80599 0.56842 0.37295 0.0
C381 C 0.82653 0.59655 0.39671 0.0
C382 C 0.80583 0.55424 0.3542 0.0
C383 C 0.82206 0.55686 0.33719 0.0
C384 C 0.82255 0.5853 0.37476 0.0
C385 C 0.83688 0.57537 0.33848 0.0
C386 C 0.83824 0.61712 0.39845 0.0
C387 C 0.82566 0.5934 0.43678 0.0
N388 N 0.83708 0.58871 0.35725 0.0
N389 N 0.8205 0.58551 0.41589 0.0
H390 H 0.3709 0.90145 0.43824 0.0
H391 H 0.41479 0.81758 0.3457 0.0
H392 H 0.34544 0.83326 0.43427 0.0
H393 H 0.41035 0.88917 0.33317 0.0
H394 H 0.39037 0.82237 0.37873 0.0
H395 H 0.38695 0.89711 0.40044 0.0
C396 C 0.36861 0.8856 0.42935 0.0
C397 C 0.35699 0.86762 0.43943 0.0
C398 C 0.39444 0.83695 0.36852 0.0
C399 C 0.37545 0.86251 0.39637 0.0
C400 C 0.40838 0.83425 0.34973 0.0
C401 C 0.41465 0.85304 0.33682 0.0
C402 C 0.38722 0.85867 0.3747 0.0
C403 C 0.40588 0.87426 0.3427 0.0
C404 C 0.37762 0.8832 0.40775 0.0
C405 C 0.35431 0.84752 0.4271 0.0
N406 N 0.39292 0.87658 0.36149 0.0
N407 N 0.3638 0.84537 0.40631 0.0
H408 H 0.10809 0.59488 0.66262 0.0
H409 H 0.17356 0.63788 0.55339 0.0
H410 H 0.17137 0.56752 0.63863 0.0
H411 H 0.1032 0.65205 0.56721 0.0
H412 H 0.17728 0.62117 0.59089 0.0
H413 H 0.11093 0.62505 0.6345 0.0
C414 C 0.12295 0.59566 0.65194 0.0
C415 C 0.13937 0.57854 0.65261 0.0
C416 C 0.16111 0.62824 0.58584 0.0
C417 C 0.14257 0.61267 0.62045 0.0
C418 C 0.15896 0.63775 0.56443 0.0
C419 C 0.13791 0.64593 0.55702 0.0
C420 C 0.14207 0.62686 0.59992 0.0
C421 C 0.11965 0.6456 0.57214 0.0
C422 C 0.12446 0.61275 0.6358 0.0
C423 C 0.15821 0.58027 0.63838 0.0
N424 N 0.12207 0.63591 0.5928 0.0
N425 N 0.15914 0.59683 0.62265 0.0
H426 H 0.3601 0.0661 0.5321 0.0
H427 H 0.41078 0.15146 0.61608 0.0
H428 H 0.33337 0.13386 0.53512 0.0
H429 H 0.40431 0.0814 0.63458 0.0
H430 H 0.38142 0.14613 0.58725 0.0
H431 H 0.376 0.07113 0.57001 0.0
C432 C 0.35738 0.08195 0.54087 0.0
C433 C 0.34567 0.0997 0.53042 0.0
C434 C 0.38596 0.13208 0.59805 0.0
C435 C 0.36397 0.10562 0.57354 0.0
C436 C 0.40266 0.13513 0.61447 0.0
C437 C 0.40994 0.11682 0.62757 0.0
C438 C 0.37711 0.11041 0.59427 0.0
C439 C 0.39907 0.09595 0.62482 0.0
C440 C 0.36628 0.08473 0.56254 0.0
C441 C 0.3424 0.1198 0.54259 0.0
N442 N 0.38357 0.09313 0.60801 0.0
N443 N 0.35195 0.12242 0.56335 0.0
H444 H 0.88354 0.41136 0.63379 0.0
H445 H 0.81335 0.34408 0.53928 0.0
H446 H 0.81614 0.42956 0.61191 0.0
H447 H 0.88571 0.3374 0.54788 0.0
H448 H 0.8126 0.37087 0.57071 0.0
H449 H 0.88315 0.37985 0.60683 0.0
C450 C 0.86863 0.40863 0.62342 0.0
C451 C 0.84991 0.42316 0.62493 0.0
C452 C 0.82862 0.36342 0.56582 0.0
C453 C 0.8493 0.3872 0.59429 0.0
C454 C 0.82905 0.34805 0.54795 0.0
C455 C 0.84966 0.33866 0.54085 0.0
C456 C 0.84892 0.36935 0.57675 0.0
C457 C 0.86947 0.34438 0.55273 0.0
C458 C 0.86843 0.3907 0.60804 0.0
C459 C 0.83101 0.41887 0.61115 0.0
N460 N 0.86864 0.35946 0.57005 0.0
N461 N 0.8312 0.4013 0.5964 0.0
H462 H 0.52803 0.7953 0.62409 0.0
H463 H 0.63295 0.83439 0.54873 0.0
H464 H 0.57501 0.84726 0.64482 0.0
H465 H 0.57185 0.80392 0.5226 0.0
H466 H 0.61828 0.82968 0.58726 0.0
H467 H 0.55092 0.78859 0.59044 0.0
C468 C 0.54341 0.80499 0.62181 0.0
C469 C 0.54941 0.82217 0.63705 0.0
C470 C 0.60833 0.82368 0.57306 0.0
C471 C 0.57557 0.8146 0.59856 0.0
C472 C 0.61671 0.82626 0.55114 0.0
C473 C 0.60341 0.8198 0.53252 0.0
C474 C 0.58675 0.81424 0.57625 0.0
C475 C 0.58247 0.80943 0.53651 0.0
C476 C 0.55641 0.80119 0.60256 0.0
C477 C 0.56962 0.83406 0.63332 0.0
N478 N 0.57472 0.80709 0.55792 0.0
N479 N 0.58186 0.83026 0.61426 0.0
H480 H 0.32167 0.10118 0.38042 0.0
H481 H 0.43358 0.16217 0.33562 0.0
H482 H 0.35929 0.15124 0.41795 0.0
H483 H 0.41444 0.09486 0.31494 0.0
H484 H 0.3993 0.16443 0.35851 0.0
H485 H 0.34889 0.1049 0.34921 0.0
C486 C 0.33534 0.1133 0.38184 0.0
C487 C 0.33848 0.1258 0.40175 0.0
C488 C 0.40248 0.14929 0.34872 0.0
C489 C 0.36924 0.13023 0.36639 0.0
C490 C 0.422 0.14798 0.33562 0.0
C491 C 0.42703 0.12814 0.32366 0.0
C492 C 0.3878 0.13071 0.34973 0.0
C493 C 0.41132 0.11035 0.32416 0.0
C494 C 0.35087 0.11531 0.36415 0.0
C495 C 0.35648 0.14116 0.40291 0.0
N496 N 0.39245 0.11197 0.33718 0.0
N497 N 0.37124 0.14289 0.38551 0.0
H498 H 0.87837 0.33033 0.39638 0.0
H499 H 0.80274 0.43442 0.3638 0.0
H500 H 0.81021 0.34077 0.42041 0.0
H501 H 0.864 0.41821 0.32789 0.0
H502 H 0.80248 0.39655 0.3798 0.0
H503 H 0.87149 0.35843 0.36672 0.0
C504 C 0.86183 0.33817 0.39511 0.0
C505 C 0.845 0.33366 0.41115 0.0
C506 C 0.81577 0.40096 0.36805 0.0
C507 C 0.83706 0.36572 0.37752 0.0
C508 C 0.81582 0.42255 0.35888 0.0
C509 C 0.83342 0.42925 0.34465 0.0
C510 C 0.83392 0.38624 0.36357 0.0
C511 C 0.8501 0.41347 0.33879 0.0
C512 C 0.8579 0.35419 0.3782 0.0
C513 C 0.82383 0.34413 0.40868 0.0
N514 N 0.85027 0.39277 0.34873 0.0
N515 N 0.82059 0.35989 0.39244 0.0
H516 H 0.53571 0.7953 0.32474 0.0
H517 H 0.63755 0.85827 0.38797 0.0
H518 H 0.55205 0.86558 0.31471 0.0
H519 H 0.60774 0.79553 0.40975 0.0
H520 H 0.61337 0.85728 0.35416 0.0
H521 H 0.56928 0.79144 0.34866 0.0
C522 C 0.54657 0.80983 0.32725 0.0
C523 C 0.54087 0.8309 0.31807 0.0
C524 C 0.61244 0.84356 0.36618 0.0
C525 C 0.57921 0.82662 0.3455 0.0
C526 C 0.62627 0.84407 0.3854 0.0
C527 C 0.62433 0.82712 0.40179 0.0
C528 C 0.59682 0.82587 0.36334 0.0
C529 C 0.60949 0.8091 0.39766 0.0
C530 C 0.5657 0.80763 0.34096 0.0
C531 C 0.55567 0.8491 0.32172 0.0
N532 N 0.59616 0.80904 0.37894 0.0
N533 N 0.57404 0.84662 0.33541 0.0
H534 H 0.15531 0.60619 0.43529 0.0
H535 H 0.08763 0.54956 0.33398 0.0
H536 H 0.09292 0.63406 0.40922 0.0
H537 H 0.15808 0.53559 0.34798 0.0
H538 H 0.08891 0.58064 0.36124 0.0
H539 H 0.1563 0.57986 0.40355 0.0
C540 C 0.14184 0.60679 0.42283 0.0
C541 C 0.12392 0.6222 0.42492 0.0
C542 C 0.10415 0.57095 0.35813 0.0
C543 C 0.1249 0.59208 0.38861 0.0
C544 C 0.10343 0.55321 0.3426 0.0
C545 C 0.12274 0.5399 0.33886 0.0
C546 C 0.12423 0.57516 0.3702 0.0
C547 C 0.14279 0.54539 0.35041 0.0
C548 C 0.14247 0.59184 0.40465 0.0
C549 C 0.107 0.62238 0.40823 0.0
N550 N 0.14294 0.56244 0.36578 0.0
N551 N 0.10778 0.60736 0.39084 0.0
H552 H 0.36796 0.87603 0.5542 0.0
H553 H 0.41488 0.81315 0.65897 0.0
H554 H 0.32591 0.82598 0.58616 0.0
H555 H 0.42905 0.88365 0.6473 0.0
H556 H 0.38245 0.81584 0.633 0.0
H557 H 0.39161 0.87757 0.58794 0.0
C558 C 0.36366 0.86544 0.56845 0.0
C559 C 0.34508 0.85078 0.56746 0.0
C560 C 0.3924 0.83079 0.63659 0.0
C561 C 0.37228 0.8522 0.606 0.0
C562 C 0.4109 0.82928 0.65134 0.0
C563 C 0.42489 0.84812 0.65499 0.0
C564 C 0.38827 0.85114 0.62521 0.0
C565 C 0.41891 0.86863 0.64478 0.0
C566 C 0.37706 0.86645 0.58775 0.0
C567 C 0.34013 0.83751 0.5864 0.0
N568 N 0.40133 0.86947 0.62999 0.0
N569 N 0.35398 0.83818 0.60487 0.0
H570 H 0.11132 0.43617 0.64529 0.0
H571 H 0.16474 0.3724 0.53891 0.0
H572 H 0.14966 0.46801 0.59228 0.0
H573 H 0.10691 0.34609 0.57469 0.0
H574 H 0.16668 0.40363 0.56562 0.0
H575 H 0.11643 0.39951 0.62613 0.0
C576 C 0.1211 0.43535 0.62986 0.0
C577 C 0.12988 0.45506 0.62014 0.0
C578 C 0.15369 0.39092 0.56778 0.0
C579 C 0.13597 0.41359 0.59854 0.0
C580 C 0.15257 0.37306 0.55255 0.0
C581 C 0.13536 0.35687 0.55435 0.0
C582 C 0.13745 0.3927 0.58494 0.0
C583 C 0.12028 0.3584 0.57259 0.0
C584 C 0.12392 0.41454 0.61895 0.0
C585 C 0.14237 0.45322 0.60014 0.0
N586 N 0.12148 0.37624 0.58709 0.0
N587 N 0.145 0.43288 0.59 0.0
H588 H 0.5554 0.10907 0.6306 0.0
H589 H 0.62721 0.1548 0.52644 0.0
H590 H 0.52789 0.14601 0.57409 0.0
H591 H 0.64597 0.09502 0.56367 0.0
H592 H 0.59616 0.16117 0.55274 0.0
H593 H 0.59349 0.11303 0.61429 0.0
C594 C 0.55748 0.11846 0.61506 0.0
C595 C 0.53858 0.12701 0.60345 0.0
C596 C 0.60732 0.14688 0.55538 0.0
C597 C 0.58171 0.13179 0.58506 0.0
C598 C 0.62507 0.14323 0.54041 0.0
C599 C 0.63883 0.12404 0.5426 0.0
C600 C 0.60332 0.13126 0.57265 0.0
C601 C 0.6355 0.10983 0.56123 0.0
C602 C 0.57911 0.12062 0.60577 0.0
C603 C 0.54205 0.13893 0.58337 0.0
N604 N 0.61778 0.11352 0.57541 0.0
N605 N 0.5632 0.14089 0.57475 0.0
H606 H 0.86387 0.56624 0.6531 0.0
H607 H 0.79896 0.62598 0.5536 0.0
H608 H 0.79629 0.54787 0.63191 0.0
H609 H 0.85994 0.65327 0.58324 0.0
H610 H 0.79492 0.60092 0.58593 0.0
H611 H 0.86045 0.60135 0.63178 0.0
C612 C 0.84815 0.56978 0.64428 0.0
C613 C 0.83049 0.55392 0.64392 0.0
C614 C 0.80897 0.61266 0.58567 0.0
C615 C 0.82656 0.59394 0.61932 0.0
C616 C 0.81126 0.62698 0.5672 0.0
C617 C 0.82996 0.64145 0.56567 0.0
C618 C 0.82582 0.61243 0.60248 0.0
C619 C 0.84532 0.64226 0.58377 0.0
C620 C 0.8462 0.58985 0.63213 0.0
C621 C 0.81045 0.55947 0.6324 0.0
N622 N 0.84319 0.62754 0.60125 0.0
N623 N 0.80918 0.57884 0.62024 0.0
H624 H 0.32339 0.40601 0.08536 0.0
H625 H 0.41232 0.34704 0.16219 0.0
H626 H 0.32107 0.41093 0.15809 0.0
H627 H 0.39646 0.32098 0.09591 0.0
H628 H 0.37687 0.36829 0.16181 0.0
H629 H 0.34762 0.37265 0.08887 0.0
C630 C 0.32759 0.3998 0.10206 0.0
C631 C 0.32059 0.41149 0.12146 0.0
C632 C 0.38085 0.35755 0.14753 0.0
C633 C 0.34846 0.37364 0.12557 0.0
C634 C 0.40109 0.34547 0.14775 0.0
C635 C 0.40733 0.33248 0.12898 0.0
C636 C 0.36709 0.35712 0.12813 0.0
C637 C 0.39222 0.33088 0.1107 0.0
C638 C 0.34137 0.38074 0.10405 0.0
C639 C 0.32636 0.40262 0.14267 0.0
N640 N 0.37298 0.34353 0.11049 0.0
N641 N 0.34036 0.3845 0.14416 0.0
H642 H 0.43077 0.61467 0.79445 0.0
H643 H 0.32597 0.54597 0.84385 0.0
H644 H 0.39161 0.63777 0.85142 0.0
H645 H 0.38034 0.51783 0.80422 0.0
H646 H 0.34198 0.58387 0.838 0.0
H647 H 0.40369 0.58414 0.7886 0.0
C648 C 0.41617 0.61359 0.80544 0.0
C649 C 0.41368 0.62841 0.82377 0.0
C650 C 0.35007 0.5694 0.83024 0.0
C651 C 0.38285 0.59331 0.81738 0.0
C652 C 0.34094 0.54785 0.83349 0.0
C653 C 0.35211 0.52883 0.82477 0.0
C654 C 0.37019 0.57178 0.81786 0.0
C655 C 0.37145 0.53207 0.81153 0.0
C656 C 0.40077 0.59612 0.80213 0.0
C657 C 0.39427 0.62649 0.83726 0.0
N658 N 0.37995 0.5531 0.8086 0.0
N659 N 0.37978 0.60889 0.8341 0.0
H660 H 0.40412 0.31596 0.87164 0.0
H661 H 0.34286 0.40772 0.79839 0.0
H662 H 0.41484 0.32253 0.79986 0.0
H663 H 0.31658 0.38622 0.86276 0.0
H664 H 0.36707 0.37432 0.79745 0.0
H665 H 0.36986 0.33898 0.86813 0.0
C666 C 0.39904 0.32189 0.85508 0.0
C667 C 0.41253 0.31766 0.83607 0.0
C668 C 0.35571 0.37663 0.81159 0.0
C669 C 0.37361 0.34419 0.83199 0.0
C670 C 0.34192 0.39572 0.81213 0.0
C671 C 0.32795 0.39983 0.83079 0.0
C672 C 0.35591 0.36182 0.83009 0.0
C673 C 0.32723 0.3837 0.84809 0.0
C674 C 0.37947 0.335 0.85308 0.0
C675 C 0.40508 0.32562 0.81501 0.0
N676 N 0.3414 0.3656 0.84756 0.0
N677 N 0.38635 0.33885 0.8136 0.0
H678 H 0.63137 0.42125 0.85816 0.0
H679 H 0.52444 0.35476 0.80859 0.0
H680 H 0.5767 0.45183 0.8205 0.0
H681 H 0.56162 0.33092 0.86678 0.0
H682 H 0.55034 0.38657 0.80577 0.0
H683 H 0.61213 0.3845 0.85484 0.0
C684 C 0.61552 0.42015 0.84893 0.0
C685 C 0.60543 0.43955 0.83977 0.0
C686 C 0.55297 0.37427 0.81904 0.0
C687 C 0.58372 0.39791 0.83572 0.0
C688 C 0.53823 0.35607 0.82065 0.0
C689 C 0.54067 0.34039 0.83819 0.0
C690 C 0.57034 0.37686 0.83505 0.0
C691 C 0.55903 0.3428 0.85315 0.0
C692 C 0.60456 0.39927 0.84714 0.0
C693 C 0.5849 0.43731 0.82804 0.0
N694 N 0.57311 0.36091 0.85139 0.0
N695 N 0.57472 0.41688 0.82637 0.0
H696 H 0.65066 0.57758 0.86067 0.0
H697 H 0.55534 0.64509 0.85384 0.0
H698 H 0.63133 0.55256 0.79494 0.0
H699 H 0.53475 0.59219 0.80799 0.0
H700 H 0.59509 0.63389 0.84832 0.0
H701 H 0.62122 0.60644 0.85783 0.0
C702 C 0.64092 0.57887 0.84518 0.0
C703 C 0.64302 0.56246 0.82819 0.0
C704 C 0.58187 0.62488 0.83935 0.0
C705 C 0.60931 0.59523 0.82479 0.0
C706 C 0.55926 0.63138 0.84236 0.0
C707 C 0.54184 0.61913 0.83176 0.0
C708 C 0.58685 0.60622 0.82549 0.0
C709 C 0.54768 0.60169 0.81689 0.0
C710 C 0.62403 0.59537 0.84355 0.0
C711 C 0.62991 0.56471 0.80857 0.0
N712 N 0.56966 0.59568 0.81432 0.0
N713 N 0.61322 0.58041 0.80765 0.0
H714 H 0.63242 0.54518 0.17221 0.0
H715 H 0.5855 0.64929 0.10543 0.0
H716 H 0.65279 0.56216 0.10459 0.0
H717 H 0.56379 0.62834 0.1716 0.0
H718 H 0.61963 0.62607 0.10973 0.0
H719 H 0.61792 0.58344 0.17729 0.0
C720 C 0.63447 0.55731 0.1587 0.0
C721 C 0.64354 0.55069 0.13793 0.0
C722 C 0.60774 0.62709 0.12359 0.0
C723 C 0.62601 0.59401 0.14305 0.0
C724 C 0.58832 0.64044 0.12118 0.0
C725 C 0.57164 0.64018 0.13798 0.0
C726 C 0.61027 0.61353 0.1429 0.0
C727 C 0.57608 0.62852 0.15805 0.0
C728 C 0.6261 0.57911 0.1615 0.0
C729 C 0.64582 0.56681 0.12084 0.0
N730 N 0.59477 0.61533 0.15979 0.0
N731 N 0.6365 0.58765 0.12355 0.0
H732 H 0.33462 0.56056 0.10464 0.0
H733 H 0.46089 0.56402 0.14823 0.0
H734 H 0.36007 0.51544 0.15596 0.0
H735 H 0.42908 0.62211 0.11768 0.0
H736 H 0.4238 0.54614 0.15142 0.0
H737 H 0.36848 0.58399 0.10944 0.0
C738 C 0.34716 0.55578 0.11715 0.0
C739 C 0.34468 0.53591 0.12974 0.0
C740 C 0.42488 0.56292 0.14427 0.0
C741 C 0.38347 0.56236 0.13507 0.0
C742 C 0.44606 0.57308 0.14235 0.0
C743 C 0.44806 0.59449 0.1325 0.0
C744 C 0.4056 0.57404 0.13588 0.0
C745 C 0.42827 0.60556 0.12534 0.0
C746 C 0.36645 0.56916 0.11989 0.0
C747 C 0.36138 0.53053 0.14578 0.0
N748 N 0.40786 0.59505 0.12686 0.0
N749 N 0.38024 0.54349 0.14773 0.0
H750 H 0.65142 0.39882 0.11873 0.0
H751 H 0.52184 0.39973 0.14743 0.0
H752 H 0.62191 0.44392 0.16791 0.0
H753 H 0.55386 0.33979 0.12091 0.0
H754 H 0.55907 0.41552 0.15559 0.0
H755 H 0.61717 0.37545 0.12039 0.0
C756 C 0.63801 0.4035 0.13027 0.0
C757 C 0.63928 0.42359 0.14285 0.0
C758 C 0.55802 0.39879 0.14823 0.0
C759 C 0.60013 0.39725 0.14454 0.0
C760 C 0.53676 0.38985 0.14342 0.0
C761 C 0.53482 0.36854 0.13329 0.0
C762 C 0.57756 0.38658 0.14241 0.0
C763 C 0.55469 0.35634 0.12869 0.0
C764 C 0.61846 0.3902 0.13117 0.0
C765 C 0.62146 0.4288 0.1576 0.0
N766 N 0.57533 0.3657 0.13294 0.0
N767 N 0.60246 0.41597 0.15771 0.0
H768 H 0.04897 0.27153 0.50086 0.0
H769 H 0.93415 0.33959 0.47786 0.0
H770 H 0.04716 0.34318 0.48773 0.0
H771 H 0.93863 0.26685 0.47924 0.0
H772 H 0.97521 0.34172 0.48337 0.0
H773 H 0.00799 0.26999 0.49555 0.0
C774 C 0.03992 0.28697 0.49699 0.0
C775 C 0.05147 0.30751 0.4947 0.0
C776 C 0.96719 0.3253 0.48237 0.0
C777 C 0.00459 0.30586 0.48848 0.0
C778 C 0.94379 0.32408 0.4792 0.0
C779 C 0.93299 0.30301 0.47809 0.0
C780 C 0.97982 0.30531 0.4846 0.0
C781 C 0.94626 0.28345 0.47996 0.0
C782 C 0.01654 0.28606 0.49385 0.0
C783 C 0.0389 0.32698 0.48962 0.0
N784 N 0.96897 0.28508 0.48322 0.0
N785 N 0.01611 0.32568 0.48667 0.0
H786 H 0.6283 0.03635 0.49139 0.0
H787 H 0.60678 0.92465 0.46547 0.0
H788 H 0.69892 0.01861 0.48486 0.0
H789 H 0.67535 0.91138 0.48746 0.0
H790 H 0.61339 0.96477 0.4705 0.0
H791 H 0.61845 -0.00344 0.49006 0.0
C792 C 0.64175 0.02403 0.48953 0.0
C793 C 0.66445 0.03081 0.48791 0.0
C794 C 0.62688 0.95317 0.4748 0.0
C795 C 0.65322 -0.01495 0.48546 0.0
C796 C 0.62317 0.93016 0.47166 0.0
C797 C 0.6405 0.91456 0.47613 0.0
C798 C 0.64806 0.96074 0.48265 0.0
C799 C 0.66146 0.92278 0.48387 0.0
C800 C 0.63608 0.00124 0.48849 0.0
C801 C 0.68119 0.0141 0.48599 0.0
N802 N 0.66469 0.94533 0.48679 0.0
N803 N 0.67522 -0.00804 0.48469 0.0
H804 H 0.93677 0.622 0.51716 0.0
H805 H 0.04113 0.69987 0.48043 0.0
H806 H 0.92818 0.68861 0.48883 0.0
H807 H 0.04769 0.63217 0.50652 0.0
H808 H -0.0001 0.69699 0.48443 0.0
H809 H 0.97761 0.62638 0.51448 0.0
C810 C 0.94345 0.6376 0.51039 0.0
C811 C 0.92895 0.65495 0.50316 0.0
C812 C 0.0104 0.68281 0.4893 0.0
C813 C 0.97596 0.66006 0.5 0.0
C814 C 0.03391 0.68444 0.48704 0.0
C815 C 0.04785 0.66621 0.49311 0.0
C816 C 0.00082 0.66282 0.49771 0.0
C817 C 0.03761 0.64663 0.50158 0.0
C818 C 0.96685 0.64009 0.50886 0.0
C819 C 0.9387 0.67478 0.49458 0.0
N820 N 0.01476 0.64546 0.5036 0.0
N821 N 0.96162 0.67679 0.4932 0.0
H822 H 0.29131 0.01947 0.43165 0.0
H823 H 0.29368 0.94837 0.5337 0.0
H824 H 0.26481 0.04764 0.49344 0.0
H825 H 0.27193 0.91747 0.47125 0.0
H826 H 0.27928 -0.01535 0.52022 0.0
H827 H 0.28031 0.98186 0.44452 0.0
C828 C 0.28253 0.01777 0.44761 0.0
C829 C 0.27934 0.03652 0.46172 0.0
C830 C 0.27694 0.96978 0.50977 0.0
C831 C 0.26738 -0.00627 0.47675 0.0
C832 C 0.28524 0.94915 0.51743 0.0
C833 C 0.28426 0.93012 0.50339 0.0
C834 C 0.26848 0.97143 0.48764 0.0
C835 C 0.27311 0.93187 0.4825 0.0
C836 C 0.27617 -0.00364 0.45491 0.0
C837 C 0.26777 0.03352 0.48217 0.0
N838 N 0.26632 0.9524 0.47487 0.0
N839 N 0.26289 0.01237 0.48947 0.0
H840 H 0.47593 0.92488 0.24967 0.0
H841 H 0.48606 0.03688 0.32456 0.0
H842 H 0.48597 0.92465 0.32196 0.0
H843 H 0.48955 0.03699 0.25171 0.0
H844 H 0.48363 -0.00424 0.32386 0.0
H845 H 0.47884 0.96608 0.24997 0.0
C846 C 0.47881 0.9335 0.26559 0.0
C847 C 0.4807 0.92137 0.28583 0.0
C848 C 0.48495 0.00477 0.30802 0.0
C849 C 0.48388 0.96839 0.2863 0.0
C850 C 0.48626 0.02824 0.3084 0.0
C851 C 0.48802 0.04034 0.28815 0.0
C852 C 0.48525 -0.0067 0.28724 0.0
C853 C 0.48824 0.0283 0.26772 0.0
C854 C 0.48048 0.95699 0.26574 0.0
C855 C 0.48443 0.93335 0.30596 0.0
N856 N 0.48683 0.00541 0.26777 0.0
N857 N 0.48581 0.95622 0.3057 0.0
H858 H 0.9197 0.49498 0.28421 0.0
H859 H 0.04025 0.48267 0.34486 0.0
H860 H 0.92858 0.50066 0.35648 0.0
H861 H 0.02938 0.47767 0.27285 0.0
H862 H -0.00041 0.48913 0.34992 0.0
H863 H 0.96015 0.48913 0.28015 0.0
C864 C 0.93017 0.49508 0.29928 0.0
C865 C 0.92069 0.49822 0.32076 0.0
C866 C 0.00613 0.48657 0.33304 0.0
C867 C 0.96724 0.49138 0.31618 0.0
C868 C 0.02929 0.4828 0.33015 0.0
C869 C 0.03816 0.47964 0.3084 0.0
C870 C -0.00816 0.48716 0.31404 0.0
C871 C 0.02327 0.48003 0.28992 0.0
C872 C 0.95334 0.4917 0.29693 0.0
C873 C 0.93519 0.49831 0.33961 0.0
N874 N 0.00086 0.48377 0.29317 0.0
N875 N 0.95779 0.49483 0.33689 0.0
H876 H 0.4952 0.9142 0.63119 0.0
H877 H 0.50022 0.04033 0.67927 0.0
H878 H 0.51335 0.93091 0.69995 0.0
H879 H 0.47772 0.02331 0.61182 0.0
H880 H 0.50853 0.00059 0.68605 0.0
H881 H 0.49258 0.95441 0.6226 0.0
C882 C 0.49887 0.92634 0.64443 0.0
C883 C 0.50433 0.91923 0.66637 0.0
C884 C 0.50184 0.00556 0.66974 0.0
C885 C 0.50118 0.96522 0.65671 0.0
C886 C 0.49706 0.02826 0.66585 0.0
C887 C 0.48809 0.03517 0.64499 0.0
C888 C 0.49764 -0.01039 0.65266 0.0
C889 C 0.48448 0.01875 0.62821 0.0
C890 C 0.4973 0.94929 0.63953 0.0
C891 C 0.50897 0.93566 0.68284 0.0
N892 N 0.48919 -0.00328 0.63245 0.0
N893 N 0.50713 0.95792 0.67771 0.0
H894 H 0.92108 0.50942 0.6314 0.0
H895 H 0.04094 0.50396 0.69445 0.0
H896 H 0.92994 0.48721 0.70028 0.0
H897 H 0.03221 0.52924 0.62659 0.0
H898 H 0.00015 0.49851 0.69706 0.0
H899 H 0.96164 0.51735 0.62938 0.0
C900 C 0.93156 0.50621 0.6461 0.0
C901 C 0.92216 0.49758 0.66602 0.0
C902 C 0.00712 0.50533 0.68162 0.0
C903 C 0.96852 0.50663 0.66384 0.0
C904 C 0.03045 0.50846 0.68011 0.0
C905 C 0.04005 0.51699 0.66022 0.0
C906 C -0.00675 0.51068 0.66309 0.0
C907 C 0.02556 0.52259 0.64223 0.0
C908 C 0.9547 0.51078 0.64495 0.0
C909 C 0.9365 0.49381 0.68457 0.0
N910 N 0.00287 0.51923 0.64406 0.0
N911 N 0.95898 0.49832 0.68301 0.0
H912 H 0.3555 0.46031 0.92965 0.0
H913 H 0.2722 0.49638 0.02983 0.0
H914 H 0.2878 0.48628 0.91958 0.0
H915 H 0.34042 0.4724 0.04093 0.0
H916 H 0.27839 0.49415 -0.01082 0.0
H917 H 0.35107 0.46585 0.97037 0.0
C918 C 0.33975 0.46723 0.93597 0.0
C919 C 0.32195 0.47272 0.92117 0.0
C920 C 0.29206 0.48946 0.00048 0.0
C921 C 0.31679 0.47909 0.96767 0.0
C922 C 0.28852 0.49073 0.0237 0.0
C923 C 0.30579 0.48446 0.03875 0.0
C924 C 0.31299 0.48177 -0.00777 0.0
C925 C 0.32663 0.47734 0.02989 0.0
C926 C 0.33724 0.4704 0.95921 0.0
C927 C 0.30195 0.4817 0.93031 0.0
N928 N 0.32963 0.47608 0.00717 0.0
N929 N 0.2999 0.48452 0.95295 0.0
H930 H 0.49428 0.26809 0.93186 0.0
H931 H 0.4643 0.35624 0.03008 0.0
H932 H 0.4703 0.33596 0.92015 0.0
H933 H 0.49118 0.28961 0.04286 0.0
H934 H 0.46657 0.3489 -0.01035 0.0
H935 H 0.49326 0.27535 0.9726 0.0
C936 C 0.48879 0.2845 0.93786 0.0
C937 C 0.48235 0.30144 0.92263 0.0
C938 C 0.47203 0.33588 0.00128 0.0
C939 C 0.48116 0.30986 0.96907 0.0
C940 C 0.47074 0.34007 0.0244 0.0
C941 C 0.47752 0.3235 0.03992 0.0
C942 C 0.48009 0.31494 -0.00645 0.0
C943 C 0.48576 0.30288 0.03152 0.0
C944 C 0.48825 0.28864 0.96109 0.0
C945 C 0.47541 0.3224 0.93129 0.0
N946 N 0.48675 0.29916 0.00889 0.0
N947 N 0.47499 0.32599 0.95391 0.0
H948 H 0.6825 0.48944 0.92729 0.0
H949 H 0.61358 0.48596 0.04312 0.0
H950 H 0.61231 0.50932 0.933 0.0
H951 H 0.68652 0.48114 0.03956 0.0
H952 H 0.61228 0.49151 0.00227 0.0
H953 H 0.68385 0.48374 0.96811 0.0
C954 C 0.66739 0.49268 0.93712 0.0
C955 C 0.64725 0.49987 0.9267 0.0
C956 C 0.62855 0.48924 0.01045 0.0
C957 C 0.64866 0.4932 0.97338 0.0
C958 C 0.62931 0.48595 0.03375 0.0
C959 C 0.6502 0.48312 0.04479 0.0
C960 C 0.6488 0.48952 -0.00192 0.0
C961 C 0.67004 0.48334 0.03178 0.0
C962 C 0.66819 0.48943 0.96042 0.0
C963 C 0.62822 0.50383 0.94031 0.0
N964 N 0.66885 0.48646 0.0091 0.0
N965 N 0.62936 0.50033 0.96294 0.0
H966 H 0.47567 0.67171 0.92926 0.0
H967 H 0.5112 0.59874 0.03682 0.0
H968 H 0.4792 0.59888 0.92835 0.0
H969 H 0.4907 0.66865 0.04082 0.0
H970 H 0.50248 0.59894 -0.00358 0.0
H971 H 0.48356 0.67127 0.96973 0.0
C972 C 0.478 0.65561 0.93759 0.0
C973 C 0.4768 0.63529 0.92539 0.0
C974 C 0.49989 0.61421 0.00617 0.0
C975 C 0.48605 0.63472 0.97169 0.0
C976 C 0.50499 0.61417 0.0292 0.0
C977 C 0.50167 0.63372 0.04223 0.0
C978 C 0.49161 0.634 -0.00393 0.0
C979 C 0.49347 0.65318 0.03146 0.0
C980 C 0.48249 0.65538 0.9607 0.0
C981 C 0.4799 0.61494 0.9371 0.0
N982 N 0.48877 0.65283 0.00899 0.0
N983 N 0.48454 0.61517 0.9596 0.0
H984 H 0.15062 0.22703 0.50369 0.0
H985 H 0.27944 0.19239 0.48202 0.0
H986 H 0.20325 0.27506 0.48808 0.0
H987 H 0.22383 0.14566 0.47415 0.0
H988 H 0.25232 0.22243 0.49028 0.0
H989 H 0.1781 0.19634 0.49904 0.0
C990 C 0.16798 0.23111 0.49947 0.0
C991 C 0.1747 0.25355 0.49614 0.0
C992 C 0.24608 0.2056 0.48675 0.0
C993 C 0.20604 0.21874 0.4909 0.0
C994 C 0.26152 0.18845 0.48207 0.0
C995 C 0.25382 0.16658 0.47726 0.0
C996 C 0.22281 0.20075 0.48685 0.0
C997 C 0.23044 0.16237 0.47761 0.0
C998 C 0.18358 0.21363 0.49672 0.0
C999 C 0.19736 0.25796 0.49065 0.0
N1000 N 0.21571 0.17933 0.48237 0.0
N1001 N 0.21224 0.24069 0.4882 0.0
H1002 H 0.7644 0.12682 0.49319 0.0
H1003 H 0.78561 0.25805 0.48647 0.0
H1004 H 0.71798 0.17309 0.46084 0.0
H1005 H 0.84195 0.21252 0.4768 0.0
H1006 H 0.75986 0.22589 0.48564 0.0
H1007 H 0.79304 0.15712 0.49435 0.0
C1008 C 0.76032 0.1432 0.48619 0.0
C1009 C 0.7388 0.1475 0.47697 0.0
C1010 C 0.77788 0.22296 0.48379 0.0
C1011 C 0.77092 0.18191 0.47878 0.0
C1012 C 0.79258 0.24125 0.48439 0.0
C1013 C 0.81589 0.23789 0.48155 0.0
C1014 C 0.78656 0.20114 0.48069 0.0
C1015 C 0.82402 0.21575 0.47888 0.0
C1016 C 0.77659 0.16038 0.48686 0.0
C1017 C 0.73433 0.169 0.46812 0.0
N1018 N 0.80932 0.19807 0.47858 0.0
N1019 N 0.75014 0.18546 0.46951 0.0
H1020 H 0.78719 0.70227 0.45805 0.0
H1021 H 0.73758 0.8252 0.48278 0.0
H1022 H 0.82297 0.74933 0.50104 0.0
H1023 H 0.69772 0.76676 0.46469 0.0
H1024 H 0.77174 0.8012 0.4832 0.0
H1025 H 0.75744 0.73009 0.4526 0.0
C1026 C 0.78891 0.71859 0.46618 0.0
C1027 C 0.80737 0.72337 0.48034 0.0
C1028 C 0.75546 0.79378 0.47911 0.0
C1029 C 0.77316 0.75528 0.47432 0.0
C1030 C 0.73604 0.80739 0.47887 0.0
C1031 C 0.71482 0.79788 0.47384 0.0
C1032 C 0.75352 0.77074 0.47384 0.0
C1033 C 0.71369 0.77477 0.46885 0.0
C1034 C 0.77186 0.73444 0.46312 0.0
C1035 C 0.80888 0.74495 0.49013 0.0
N1036 N 0.73275 0.76206 0.4689 0.0
N1037 N 0.79177 0.76013 0.48715 0.0
H1038 H 0.20161 0.69652 0.48136 0.0
H1039 H 0.23053 0.82719 0.49053 0.0
H1040 H 0.15137 0.74889 0.47309 0.0
H1041 H 0.28164 0.77538 0.48423 0.0
H1042 H 0.2013 0.79888 0.48365 0.0
H1043 H 0.23119 0.72518 0.48181 0.0
C1044 C 0.19682 0.71408 0.4795 0.0
C1045 C 0.174 0.7204 0.47738 0.0
C1046 C 0.2189 0.79372 0.4836 0.0
C1047 C 0.20778 0.75328 0.47801 0.0
C1048 C 0.2356 0.80984 0.48761 0.0
C1049 C 0.25852 0.80355 0.48814 0.0
C1050 C 0.22516 0.7711 0.48033 0.0
C1051 C 0.26415 0.78091 0.48407 0.0
C1052 C 0.21373 0.73042 0.4797 0.0
C1053 C 0.16876 0.74333 0.47484 0.0
N1054 N 0.24754 0.76544 0.48052 0.0
N1055 N 0.18554 0.75901 0.47546 0.0
H1056 H 0.49768 0.193 0.26249 0.0
H1057 H 0.48825 0.22887 0.13364 0.0
H1058 H 0.50219 0.14402 0.20855 0.0
H1059 H 0.50262 0.27509 0.18837 0.0
H1060 H 0.49321 0.1972 0.1599 0.0
H1061 H 0.49881 0.22315 0.23481 0.0
C1062 C 0.49894 0.1886 0.24476 0.0
C1063 C 0.49972 0.16601 0.23776 0.0
C1064 C 0.49551 0.21429 0.16601 0.0
C1065 C 0.50096 0.20052 0.20587 0.0
C1066 C 0.49269 0.23233 0.15108 0.0
C1067 C 0.49477 0.25462 0.15893 0.0
C1068 C 0.50026 0.21872 0.18886 0.0
C1069 C 0.5006 0.2582 0.18163 0.0
C1070 C 0.4997 0.20584 0.22894 0.0
C1071 C 0.50153 0.16128 0.21459 0.0
N1072 N 0.50293 0.24046 0.19581 0.0
N1073 N 0.50187 0.17845 0.19937 0.0
H1074 H 0.8389 0.51724 0.21871 0.0
H1075 H 0.74762 0.52103 0.14635 0.0
H1076 H 0.8026 0.45736 0.23873 0.0
H1077 H 0.75445 0.44879 0.1407 0.0
H1078 H 0.78113 0.522 0.17068 0.0
H1079 H 0.8207 0.515 0.18139 0.0
C1080 C 0.82743 0.50341 0.2151 0.0
C1081 C 0.82174 0.48775 0.23188 0.0
C1082 C 0.77587 0.50603 0.16342 0.0
C1083 C 0.80127 0.48504 0.18956 0.0
C1084 C 0.7567 0.50548 0.14968 0.0
C1085 C 0.74839 0.4848 0.14173 0.0
C1086 C 0.78621 0.48566 0.16977 0.0
C1087 C 0.76051 0.46504 0.14654 0.0
C1088 C 0.81708 0.5022 0.1939 0.0
C1089 C 0.80699 0.47004 0.22636 0.0
N1090 N 0.77846 0.46585 0.16095 0.0
N1091 N 0.79711 0.46924 0.20566 0.0
H1092 H 0.48747 0.73797 0.13163 0.0
H1093 H 0.45667 0.77076 0.25729 0.0
H1094 H 0.45952 0.69138 0.18009 0.0
H1095 H 0.46598 0.82142 0.2059 0.0
H1096 H 0.45602 0.74177 0.22815 0.0
H1097 H 0.47782 0.76932 0.15705 0.0
C1098 C 0.47898 0.73438 0.14741 0.0
C1099 C 0.47465 0.71206 0.15398 0.0
C1100 C 0.45795 0.75922 0.22312 0.0
C1101 C 0.46377 0.74758 0.18301 0.0
C1102 C 0.45842 0.77577 0.23979 0.0
C1103 C 0.4616 0.79842 0.23395 0.0
C1104 C 0.46114 0.7653 0.20044 0.0
C1105 C 0.46355 0.80406 0.21103 0.0
C1106 C 0.47349 0.75224 0.16189 0.0
C1107 C 0.46353 0.70831 0.17452 0.0
N1108 N 0.46366 0.78751 0.19504 0.0
N1109 N 0.45875 0.72586 0.18841 0.0
H1110 H 0.16323 0.5154 0.24403 0.0
H1111 H 0.22881 0.44827 0.15249 0.0
H1112 H 0.13781 0.45153 0.21953 0.0
H1113 H 0.22631 0.52102 0.14982 0.0
H1114 H 0.19647 0.44856 0.17818 0.0
H1115 H 0.1877 0.51786 0.21081 0.0
C1116 C 0.16269 0.502 0.23154 0.0
C1117 C 0.14873 0.48312 0.23454 0.0
C1118 C 0.20277 0.46443 0.17168 0.0
C1119 C 0.17668 0.48572 0.19689 0.0
C1120 C 0.22125 0.46428 0.15717 0.0
C1121 C 0.23022 0.48467 0.14927 0.0
C1122 C 0.19369 0.48512 0.17879 0.0
C1123 C 0.21981 0.50497 0.15563 0.0
C1124 C 0.17649 0.5035 0.21257 0.0
C1125 C 0.14844 0.46632 0.21783 0.0
N1126 N 0.20229 0.50473 0.17046 0.0
N1127 N 0.16258 0.4678 0.19986 0.0
H1128 H 0.52121 0.72146 0.81723 0.0
H1129 H 0.52894 0.82196 0.75994 0.0
H1130 H 0.45381 0.74231 0.83601 0.0
H1131 H 0.45847 0.80675 0.74755 0.0
H1132 H 0.52804 0.79734 0.79319 0.0
H1133 H 0.52615 0.75697 0.79701 0.0
C1134 C 0.50766 0.73381 0.8175 0.0
C1135 C 0.48702 0.72903 0.82806 0.0
C1136 C 0.51276 0.79965 0.78328 0.0
C1137 C 0.49246 0.76947 0.80498 0.0
C1138 C 0.51322 0.81373 0.76444 0.0
C1139 C 0.49389 0.81587 0.75077 0.0
C1140 C 0.49278 0.78791 0.78843 0.0
C1141 C 0.47386 0.80509 0.75741 0.0
C1142 C 0.51056 0.75415 0.80618 0.0
C1143 C 0.46997 0.74549 0.82802 0.0
N1144 N 0.47387 0.79139 0.77573 0.0
N1145 N 0.47282 0.76481 0.81603 0.0
H1146 H 0.22135 0.44786 0.82878 0.0
H1147 H 0.15623 0.45923 0.73034 0.0
H1148 H 0.24415 0.51173 0.80244 0.0
H1149 H 0.14362 0.52658 0.75516 0.0
H1150 H 0.18118 0.45243 0.76288 0.0
H1151 H 0.18594 0.45202 0.80701 0.0
C1152 C 0.21864 0.46296 0.81883 0.0
C1153 C 0.23562 0.47939 0.81704 0.0
C1154 C 0.17239 0.46844 0.7615 0.0
C1155 C 0.19552 0.48434 0.79283 0.0
C1156 C 0.15834 0.47236 0.74295 0.0
C1157 C 0.148 0.49347 0.74022 0.0
C1158 C 0.1766 0.48603 0.77684 0.0
C1159 C 0.15127 0.51004 0.75685 0.0
C1160 C 0.19859 0.46524 0.80646 0.0
C1161 C 0.23149 0.49861 0.80394 0.0
N1162 N 0.16591 0.50621 0.77418 0.0
N1163 N 0.21177 0.50059 0.79228 0.0
H1164 H 0.50073 0.18347 0.69276 0.0
H1165 H 0.49444 0.20733 0.82535 0.0
H1166 H 0.48158 0.13112 0.73962 0.0
H1167 H 0.48742 0.25775 0.77324 0.0
H1168 H 0.49705 0.17805 0.79574 0.0
H1169 H 0.50435 0.20975 0.72408 0.0
C1170 C 0.49739 0.17745 0.70969 0.0
C1171 C 0.49048 0.15517 0.71357 0.0
C1172 C 0.49501 0.19557 0.79095 0.0
C1173 C 0.49451 0.18531 0.74957 0.0
C1174 C 0.49357 0.21221 0.80775 0.0
C1175 C 0.49055 0.2349 0.80166 0.0
C1176 C 0.49386 0.20194 0.76813 0.0
C1177 C 0.48952 0.24044 0.77869 0.0
C1178 C 0.49943 0.19249 0.72757 0.0
C1179 C 0.48672 0.14825 0.73593 0.0
N1180 N 0.49122 0.22409 0.76281 0.0
N1181 N 0.4886 0.16338 0.75319 0.0
H1182 H 0.74828 0.48827 0.83363 0.0
H1183 H 0.77533 0.46507 0.70581 0.0
H1184 H 0.70238 0.45379 0.7883 0.0
H1185 H 0.82916 0.4748 0.75436 0.0
H1186 H 0.74861 0.46056 0.73666 0.0
H1187 H 0.7789 0.4825 0.80625 0.0
C1188 C 0.74476 0.4791 0.81816 0.0
C1189 C 0.7227 0.47189 0.81299 0.0
C1190 C 0.76629 0.46343 0.74065 0.0
C1191 C 0.75734 0.46551 0.78172 0.0
C1192 C 0.78151 0.46616 0.72303 0.0
C1193 C 0.80437 0.47051 0.72762 0.0
C1194 C 0.77388 0.46553 0.76306 0.0
C1195 C 0.81159 0.47152 0.75021 0.0
C1196 C 0.7622 0.47584 0.80257 0.0
C1197 C 0.71905 0.46001 0.79279 0.0
N1198 N 0.79627 0.46941 0.7672 0.0
N1199 N 0.7361 0.45751 0.77775 0.0
loop_
_geom_bond_atom_site_label_1
_geom_bond_atom_site_label_2
_geom_bond_distance
_geom_bond_site_symmetry_2
_ccdc_geom_bond_type
C0 O1 1.306 . S
C0 O3 1.160 . S
O1 C0 1.306 . S
O1 Cd2 2.228 . S
Cd2 O1 2.228 . S
Cd2 O6 2.273 . S
Cd2 O10 2.277 . S
O3 C0 1.160 . S
O3 Cd4 2.203 . S
Cd4 O3 2.203 . S
Cd4 O6 2.411 . S
Cd4 O7 2.333 . S
Cd4 O8 2.352 . S
Cd4 O12 2.277 . S
Cd4 O13 2.356 . S
C5 O10 1.209 . S
C5 O12 1.226 . S
O6 Cd2 2.273 . S
O6 Cd4 2.411 . S
O6 C9 1.320 . S
O7 Cd4 2.333 . S
O7 C9 1.214 . S
O8 Cd4 2.352 . S
O8 C11 1.258 . S
C9 O6 1.320 . S
C9 O7 1.214 . S
O10 Cd2 2.277 . S
O10 C5 1.209 . S
C11 O8 1.258 . S
C11 O13 1.282 . S
O12 Cd4 2.277 . S
O12 C5 1.226 . S
O13 Cd4 2.356 . S
O13 C11 1.282 . S
C14 O15 1.306 . S
C14 O17 1.160 . S
O15 C14 1.306 . S
O15 Cd16 2.228 . S
Cd16 O15 2.228 . S
Cd16 O20 2.273 . S
Cd16 O24 2.277 . S
O17 C14 1.160 . S
O17 Cd18 2.203 . S
Cd18 O17 2.203 . S
Cd18 O20 2.411 . S
Cd18 O21 2.333 . S
Cd18 O22 2.352 . S
Cd18 O26 2.277 . S
Cd18 O27 2.356 . S
C19 O24 1.209 . S
C19 O26 1.226 . S
O20 Cd16 2.273 . S
O20 Cd18 2.411 . S
O20 C23 1.320 . S
O21 Cd18 2.333 . S
O21 C23 1.214 . S
O22 Cd18 2.352 . S
O22 C25 1.258 . S
C23 O20 1.320 . S
C23 O21 1.214 . S
O24 Cd16 2.277 . S
O24 C19 1.209 . S
C25 O22 1.258 . S
C25 O27 1.282 . S
O26 Cd18 2.277 . S
O26 C19 1.226 . S
O27 Cd18 2.356 . S
O27 C25 1.282 . S
C28 O29 1.306 . S
C28 O31 1.160 . S
O29 C28 1.306 . S
O29 Cd30 2.228 . S
Cd30 O29 2.228 . S
Cd30 O34 2.273 . S
Cd30 O38 2.277 . S
O31 C28 1.160 . S
O31 Cd32 2.203 . S
Cd32 O31 2.203 . S
Cd32 O34 2.411 . S
Cd32 O35 2.333 . S
Cd32 O36 2.352 . S
Cd32 O40 2.277 . S
Cd32 O41 2.356 . S
C33 O38 1.209 . S
C33 O40 1.226 . S
O34 Cd30 2.273 . S
O34 Cd32 2.411 . S
O34 C37 1.320 . S
O35 Cd32 2.333 . S
O35 C37 1.214 . S
O36 Cd32 2.352 . S
O36 C39 1.258 . S
C37 O34 1.320 . S
C37 O35 1.214 . S
O38 Cd30 2.277 . S
O38 C33 1.209 . S
C39 O36 1.258 . S
C39 O41 1.282 . S
O40 Cd32 2.277 . S
O40 C33 1.226 . S
O41 Cd32 2.356 . S
O41 C39 1.282 . S
C42 O43 1.306 . S
C42 O45 1.160 . S
O43 C42 1.306 . S
O43 Cd44 2.228 . S
Cd44 O43 2.228 . S
Cd44 O48 2.273 . S
Cd44 O52 2.277 . S
O45 C42 1.160 . S
O45 Cd46 2.203 . S
Cd46 O45 2.203 . S
Cd46 O48 2.411 . S
Cd46 O49 2.333 . S
Cd46 O50 2.352 . S
Cd46 O54 2.277 . S
Cd46 O55 2.356 . S
C47 O52 1.209 . S
C47 O54 1.226 . S
O48 Cd44 2.273 . S
O48 Cd46 2.411 . S
O48 C51 1.320 . S
O49 Cd46 2.333 . S
O49 C51 1.214 . S
O50 Cd46 2.352 . S
O50 C53 1.258 . S
C51 O48 1.320 . S
C51 O49 1.214 . S
O52 Cd44 2.277 . S
O52 C47 1.209 . S
C53 O50 1.258 . S
C53 O55 1.282 . S
O54 Cd46 2.277 . S
O54 C47 1.226 . S
O55 Cd46 2.356 . S
O55 C53 1.282 . S
C56 O57 1.306 . S
C56 O59 1.160 . S
O57 C56 1.306 . S
O57 Cd58 2.228 . S
Cd58 O57 2.228 . S
Cd58 O62 2.273 . S
Cd58 O66 2.277 . S
O59 C56 1.160 . S
O59 Cd60 2.203 . S
Cd60 O59 2.203 . S
Cd60 O62 2.411 . S
Cd60 O63 2.333 . S
Cd60 O64 2.352 . S
Cd60 O68 2.277 . S
Cd60 O69 2.356 . S
C61 O66 1.209 . S
C61 O68 1.226 . S
O62 Cd58 2.273 . S
O62 Cd60 2.411 . S
O62 C65 1.320 . S
O63 Cd60 2.333 . S
O63 C65 1.214 . S
O64 Cd60 2.352 . S
O64 C67 1.258 . S
C65 O62 1.320 . S
C65 O63 1.214 . S
O66 Cd58 2.277 . S
O66 C61 1.209 . S
C67 O64 1.258 . S
C67 O69 1.282 . S
O68 Cd60 2.277 . S
O68 C61 1.226 . S
O69 Cd60 2.356 . S
O69 C67 1.282 . S
C70 O71 1.306 . S
C70 O73 1.160 . S
O71 C70 1.306 . S
O71 Cd72 2.228 . S
Cd72 O71 2.228 . S
Cd72 O76 2.273 . S
Cd72 O80 2.277 . S
O73 C70 1.160 . S
O73 Cd74 2.203 . S
Cd74 O73 2.203 . S
Cd74 O76 2.411 . S
Cd74 O77 2.333 . S
Cd74 O78 2.352 . S
Cd74 O82 2.277 . S
Cd74 O83 2.356 . S
C75 O80 1.209 . S
C75 O82 1.226 . S
O76 Cd72 2.273 . S
O76 Cd74 2.411 . S
O76 C79 1.320 . S
O77 Cd74 2.333 . S
O77 C79 1.214 . S
O78 Cd74 2.352 . S
O78 C81 1.258 . S
C79 O76 1.320 . S
C79 O77 1.214 . S
O80 Cd72 2.277 . S
O80 C75 1.209 . S
C81 O78 1.258 . S
C81 O83 1.282 . S
O82 Cd74 2.277 . S
O82 C75 1.226 . S
O83 Cd74 2.356 . S
O83 C81 1.282 . S
C84 O85 1.306 . S
C84 O87 1.160 . S
O85 C84 1.306 . S
O85 Cd86 2.228 . S
Cd86 O85 2.228 . S
Cd86 O90 2.273 . S
Cd86 O94 2.277 . S
O87 C84 1.160 . S
O87 Cd88 2.203 . S
Cd88 O87 2.203 . S
Cd88 O90 2.411 . S
Cd88 O91 2.333 . S
Cd88 O92 2.352 . S
Cd88 O96 2.277 . S
Cd88 O97 2.356 . S
C89 O94 1.209 . S
C89 O96 1.226 . S
O90 Cd86 2.273 . S
O90 Cd88 2.411 . S
O90 C93 1.320 . S
O91 Cd88 2.333 . S
O91 C93 1.214 . S
O92 Cd88 2.352 . S
O92 C95 1.258 . S
C93 O90 1.320 . S
C93 O91 1.214 . S
O94 Cd86 2.277 . S
O94 C89 1.209 . S
C95 O92 1.258 . S
C95 O97 1.282 . S
O96 Cd88 2.277 . S
O96 C89 1.226 . S
O97 Cd88 2.356 . S
O97 C95 1.282 . S
C98 O99 1.306 . S
C98 O101 1.160 . S
O99 C98 1.306 . S
O99 Cd100 2.228 . S
Cd100 O99 2.228 . S
Cd100 O104 2.273 . S
Cd100 O108 2.277 . S
O101 C98 1.160 . S
O101 Cd102 2.203 . S
Cd102 O101 2.203 . S
Cd102 O104 2.411 . S
Cd102 O105 2.333 . S
Cd102 O106 2.352 . S
Cd102 O110 2.277 . S
Cd102 O111 2.356 . S
C103 O108 1.209 . S
C103 O110 1.226 . S
O104 Cd100 2.273 . S
O104 Cd102 2.411 . S
O104 C107 1.320 . S
O105 Cd102 2.333 . S
O105 C107 1.214 . S
O106 Cd102 2.352 . S
O106 C109 1.258 . S
C107 O104 1.320 . S
C107 O105 1.214 . S
O108 Cd100 2.277 . S
O108 C103 1.209 . S
C109 O106 1.258 . S
C109 O111 1.282 . S
O110 Cd102 2.277 . S
O110 C103 1.226 . S
O111 Cd102 2.356 . S
O111 C109 1.282 . S
C112 O113 1.306 . S
C112 O115 1.160 . S
O113 C112 1.306 . S
O113 Cd114 2.228 . S
Cd114 O113 2.228 . S
Cd114 O118 2.273 . S
Cd114 O122 2.277 . S
O115 C112 1.160 . S
O115 Cd116 2.203 . S
Cd116 O115 2.203 . S
Cd116 O118 2.411 . S
Cd116 O119 2.333 . S
Cd116 O120 2.352 . S
Cd116 O124 2.277 . S
Cd116 O125 2.356 . S
C117 O122 1.209 . S
C117 O124 1.226 . S
O118 Cd114 2.273 . S
O118 Cd116 2.411 . S
O118 C121 1.320 . S
O119 Cd116 2.333 . S
O119 C121 1.214 . S
O120 Cd116 2.352 . S
O120 C123 1.258 . S
C121 O118 1.320 . S
C121 O119 1.214 . S
O122 Cd114 2.277 . S
O122 C117 1.209 . S
C123 O120 1.258 . S
C123 O125 1.282 . S
O124 Cd116 2.277 . S
O124 C117 1.226 . S
O125 Cd116 2.356 . S
O125 C123 1.282 . S
C126 O127 1.306 . S
C126 O129 1.160 . S
O127 C126 1.306 . S
O127 Cd128 2.228 . S
Cd128 O127 2.228 . S
Cd128 O132 2.273 . S
Cd128 O136 2.277 . S
O129 C126 1.160 . S
O129 Cd130 2.203 . S
Cd130 O129 2.203 . S
Cd130 O132 2.411 . S
Cd130 O133 2.333 . S
Cd130 O134 2.352 . S
Cd130 O138 2.277 . S
Cd130 O139 2.356 . S
C131 O136 1.209 . S
C131 O138 1.226 . S
O132 Cd128 2.273 . S
O132 Cd130 2.411 . S
O132 C135 1.320 . S
O133 Cd130 2.333 . S
O133 C135 1.214 . S
O134 Cd130 2.352 . S
O134 C137 1.258 . S
C135 O132 1.320 . S
C135 O133 1.214 . S
O136 Cd128 2.277 . S
O136 C131 1.209 . S
C137 O134 1.258 . S
C137 O139 1.282 . S
O138 Cd130 2.277 . S
O138 C131 1.226 . S
O139 Cd130 2.356 . S
O139 C137 1.282 . S
C140 O141 1.306 . S
C140 O143 1.160 . S
O141 C140 1.306 . S
O141 Cd142 2.228 . S
Cd142 O141 2.228 . S
Cd142 O146 2.273 . S
Cd142 O150 2.277 . S
O143 C140 1.160 . S
O143 Cd144 2.203 . S
Cd144 O143 2.203 . S
Cd144 O146 2.411 . S
Cd144 O147 2.333 . S
Cd144 O148 2.352 . S
Cd144 O152 2.277 . S
Cd144 O153 2.356 . S
C145 O150 1.209 . S
C145 O152 1.226 . S
O146 Cd142 2.273 . S
O146 Cd144 2.411 . S
O146 C149 1.320 . S
O147 Cd144 2.333 . S
O147 C149 1.214 . S
O148 Cd144 2.352 . S
O148 C151 1.258 . S
C149 O146 1.320 . S
C149 O147 1.214 . S
O150 Cd142 2.277 . S
O150 C145 1.209 . S
C151 O148 1.258 . S
C151 O153 1.282 . S
O152 Cd144 2.277 . S
O152 C145 1.226 . S
O153 Cd144 2.356 . S
O153 C151 1.282 . S
C154 O155 1.306 . S
C154 O157 1.160 . S
O155 C154 1.306 . S
O155 Cd156 2.228 . S
Cd156 O155 2.228 . S
Cd156 O160 2.273 . S
Cd156 O164 2.277 . S
O157 C154 1.160 . S
O157 Cd158 2.203 . S
Cd158 O157 2.203 . S
Cd158 O160 2.411 . S
Cd158 O161 2.333 . S
Cd158 O162 2.352 . S
Cd158 O166 2.277 . S
Cd158 O167 2.356 . S
C159 O164 1.209 . S
C159 O166 1.226 . S
O160 Cd156 2.273 . S
O160 Cd158 2.411 . S
O160 C163 1.320 . S
O161 Cd158 2.333 . S
O161 C163 1.214 . S
O162 Cd158 2.352 . S
O162 C165 1.258 . S
C163 O160 1.320 . S
C163 O161 1.214 . S
O164 Cd156 2.277 . S
O164 C159 1.209 . S
C165 O162 1.258 . S
C165 O167 1.282 . S
O166 Cd158 2.277 . S
O166 C159 1.226 . S
O167 Cd158 2.356 . S
O167 C165 1.282 . S
C168 O169 1.306 . S
C168 O171 1.160 . S
O169 C168 1.306 . S
O169 Cd170 2.228 . S
Cd170 O169 2.228 . S
Cd170 O174 2.273 . S
Cd170 O178 2.277 . S
O171 C168 1.160 . S
O171 Cd172 2.203 . S
Cd172 O171 2.203 . S
Cd172 O174 2.411 . S
Cd172 O175 2.333 . S
Cd172 O176 2.352 . S
Cd172 O180 2.277 . S
Cd172 O181 2.356 . S
C173 O178 1.209 . S
C173 O180 1.226 . S
O174 Cd170 2.273 . S
O174 Cd172 2.411 . S
O174 C177 1.320 . S
O175 Cd172 2.333 . S
O175 C177 1.214 . S
O176 Cd172 2.352 . S
O176 C179 1.258 . S
C177 O174 1.320 . S
C177 O175 1.214 . S
O178 Cd170 2.277 . S
O178 C173 1.209 . S
C179 O176 1.258 . S
C179 O181 1.282 . S
O180 Cd172 2.277 . S
O180 C173 1.226 . S
O181 Cd172 2.356 . S
O181 C179 1.282 . S
C182 O183 1.306 . S
C182 O185 1.160 . S
O183 C182 1.306 . S
O183 Cd184 2.228 . S
Cd184 O183 2.228 . S
Cd184 O188 2.273 . S
Cd184 O192 2.277 . S
O185 C182 1.160 . S
O185 Cd186 2.203 . S
Cd186 O185 2.203 . S
Cd186 O188 2.411 . S
Cd186 O189 2.333 . S
Cd186 O190 2.352 . S
Cd186 O194 2.277 . S
Cd186 O195 2.356 . S
C187 O192 1.209 . S
C187 O194 1.226 . S
O188 Cd184 2.273 . S
O188 Cd186 2.411 . S
O188 C191 1.320 . S
O189 Cd186 2.333 . S
O189 C191 1.214 . S
O190 Cd186 2.352 . S
O190 C193 1.258 . S
C191 O188 1.320 . S
C191 O189 1.214 . S
O192 Cd184 2.277 . S
O192 C187 1.209 . S
C193 O190 1.258 . S
C193 O195 1.282 . S
O194 Cd186 2.277 . S
O194 C187 1.226 . S
O195 Cd186 2.356 . S
O195 C193 1.282 . S
C196 O197 1.306 . S
C196 O199 1.160 . S
O197 C196 1.306 . S
O197 Cd198 2.228 . S
Cd198 O197 2.228 . S
Cd198 O202 2.273 . S
Cd198 O206 2.277 . S
O199 C196 1.160 . S
O199 Cd200 2.203 . S
Cd200 O199 2.203 . S
Cd200 O202 2.411 . S
Cd200 O203 2.333 . S
Cd200 O204 2.352 . S
Cd200 O208 2.277 . S
Cd200 O209 2.356 . S
C201 O206 1.209 . S
C201 O208 1.226 . S
O202 Cd198 2.273 . S
O202 Cd200 2.411 . S
O202 C205 1.320 . S
O203 Cd200 2.333 . S
O203 C205 1.214 . S
O204 Cd200 2.352 . S
O204 C207 1.258 . S
C205 O202 1.320 . S
C205 O203 1.214 . S
O206 Cd198 2.277 . S
O206 C201 1.209 . S
C207 O204 1.258 . S
C207 O209 1.282 . S
O208 Cd200 2.277 . S
O208 C201 1.226 . S
O209 Cd200 2.356 . S
O209 C207 1.282 . S
C210 O211 1.306 . S
C210 O213 1.160 . S
O211 C210 1.306 . S
O211 Cd212 2.228 . S
Cd212 O211 2.228 . S
Cd212 O216 2.273 . S
Cd212 O220 2.277 . S
O213 C210 1.160 . S
O213 Cd214 2.203 . S
Cd214 O213 2.203 . S
Cd214 O216 2.411 . S
Cd214 O217 2.333 . S
Cd214 O218 2.352 . S
Cd214 O222 2.277 . S
Cd214 O223 2.356 . S
C215 O220 1.209 . S
C215 O222 1.226 . S
O216 Cd212 2.273 . S
O216 Cd214 2.411 . S
O216 C219 1.320 . S
O217 Cd214 2.333 . S
O217 C219 1.214 . S
O218 Cd214 2.352 . S
O218 C221 1.258 . S
C219 O216 1.320 . S
C219 O217 1.214 . S
O220 Cd212 2.277 . S
O220 C215 1.209 . S
C221 O218 1.258 . S
C221 O223 1.282 . S
O222 Cd214 2.277 . S
O222 C215 1.226 . S
O223 Cd214 2.356 . S
O223 C221 1.282 . S
C224 O225 1.306 . S
C224 O227 1.160 . S
O225 C224 1.306 . S
O225 Cd226 2.228 . S
Cd226 O225 2.228 . S
Cd226 O230 2.273 . S
Cd226 O234 2.277 . S
O227 C224 1.160 . S
O227 Cd228 2.203 . S
Cd228 O227 2.203 . S
Cd228 O230 2.411 . S
Cd228 O231 2.333 . S
Cd228 O232 2.352 . S
Cd228 O236 2.277 . S
Cd228 O237 2.356 . S
C229 O234 1.209 . S
C229 O236 1.226 . S
O230 Cd226 2.273 . S
O230 Cd228 2.411 . S
O230 C233 1.320 . S
O231 Cd228 2.333 . S
O231 C233 1.214 . S
O232 Cd228 2.352 . S
O232 C235 1.258 . S
C233 O230 1.320 . S
C233 O231 1.214 . S
O234 Cd226 2.277 . S
O234 C229 1.209 . S
C235 O232 1.258 . S
C235 O237 1.282 . S
O236 Cd228 2.277 . S
O236 C229 1.226 . S
O237 Cd228 2.356 . S
O237 C235 1.282 . S
C238 O239 1.306 . S
C238 O241 1.160 . S
O239 C238 1.306 . S
O239 Cd240 2.228 . S
Cd240 O239 2.228 . S
Cd240 O244 2.273 . S
Cd240 O248 2.277 . S
O241 C238 1.160 . S
O241 Cd242 2.203 . S
Cd242 O241 2.203 . S
Cd242 O244 2.411 . S
Cd242 O245 2.333 . S
Cd242 O246 2.352 . S
Cd242 O250 2.277 . S
Cd242 O251 2.356 . S
C243 O248 1.209 . S
C243 O250 1.226 . S
O244 Cd240 2.273 . S
O244 Cd242 2.411 . S
O244 C247 1.320 . S
O245 Cd242 2.333 . S
O245 C247 1.214 . S
O246 Cd242 2.352 . S
O246 C249 1.258 . S
C247 O244 1.320 . S
C247 O245 1.214 . S
O248 Cd240 2.277 . S
O248 C243 1.209 . S
C249 O246 1.258 . S
C249 O251 1.282 . S
O250 Cd242 2.277 . S
O250 C243 1.226 . S
O251 Cd242 2.356 . S
O251 C249 1.282 . S
C252 O253 1.306 . S
C252 O255 1.160 . S
O253 C252 1.306 . S
O253 Cd254 2.228 . S
Cd254 O253 2.228 . S
Cd254 O258 2.273 . S
Cd254 O262 2.277 . S
O255 C252 1.160 . S
O255 Cd256 2.203 . S
Cd256 O255 2.203 . S
Cd256 O258 2.411 . S
Cd256 O259 2.333 . S
Cd256 O260 2.352 . S
Cd256 O264 2.277 . S
Cd256 O265 2.356 . S
C257 O262 1.209 . S
C257 O264 1.226 . S
O258 Cd254 2.273 . S
O258 Cd256 2.411 . S
O258 C261 1.320 . S
O259 Cd256 2.333 . S
O259 C261 1.214 . S
O260 Cd256 2.352 . S
O260 C263 1.258 . S
C261 O258 1.320 . S
C261 O259 1.214 . S
O262 Cd254 2.277 . S
O262 C257 1.209 . S
C263 O260 1.258 . S
C263 O265 1.282 . S
O264 Cd256 2.277 . S
O264 C257 1.226 . S
O265 Cd256 2.356 . S
O265 C263 1.282 . S
C266 O267 1.306 . S
C266 O269 1.160 . S
O267 C266 1.306 . S
O267 Cd268 2.228 . S
Cd268 O267 2.228 . S
Cd268 O272 2.273 . S
Cd268 O276 2.277 . S
O269 C266 1.160 . S
O269 Cd270 2.203 . S
Cd270 O269 2.203 . S
Cd270 O272 2.411 . S
Cd270 O273 2.333 . S
Cd270 O274 2.352 . S
Cd270 O278 2.277 . S
Cd270 O279 2.356 . S
C271 O276 1.209 . S
C271 O278 1.226 . S
O272 Cd268 2.273 . S
O272 Cd270 2.411 . S
O272 C275 1.320 . S
O273 Cd270 2.333 . S
O273 C275 1.214 . S
O274 Cd270 2.352 . S
O274 C277 1.258 . S
C275 O272 1.320 . S
C275 O273 1.214 . S
O276 Cd268 2.277 . S
O276 C271 1.209 . S
C277 O274 1.258 . S
C277 O279 1.282 . S
O278 Cd270 2.277 . S
O278 C271 1.226 . S
O279 Cd270 2.356 . S
O279 C277 1.282 . S
C280 O281 1.306 . S
C280 O283 1.160 . S
O281 C280 1.306 . S
O281 Cd282 2.228 . S
Cd282 O281 2.228 . S
Cd282 O286 2.273 . S
Cd282 O290 2.277 . S
O283 C280 1.160 . S
O283 Cd284 2.203 . S
Cd284 O283 2.203 . S
Cd284 O286 2.411 . S
Cd284 O287 2.333 . S
Cd284 O288 2.352 . S
Cd284 O292 2.277 . S
Cd284 O293 2.356 . S
C285 O290 1.209 . S
C285 O292 1.226 . S
O286 Cd282 2.273 . S
O286 Cd284 2.411 . S
O286 C289 1.320 . S
O287 Cd284 2.333 . S
O287 C289 1.214 . S
O288 Cd284 2.352 . S
O288 C291 1.258 . S
C289 O286 1.320 . S
C289 O287 1.214 . S
O290 Cd282 2.277 . S
O290 C285 1.209 . S
C291 O288 1.258 . S
C291 O293 1.282 . S
O292 Cd284 2.277 . S
O292 C285 1.226 . S
O293 Cd284 2.356 . S
O293 C291 1.282 . S
C294 O295 1.306 . S
C294 O297 1.160 . S
O295 C294 1.306 . S
O295 Cd296 2.228 . S
Cd296 O295 2.228 . S
Cd296 O300 2.273 . S
Cd296 O304 2.277 . S
O297 C294 1.160 . S
O297 Cd298 2.203 . S
Cd298 O297 2.203 . S
Cd298 O300 2.411 . S
Cd298 O301 2.333 . S
Cd298 O302 2.352 . S
Cd298 O306 2.277 . S
Cd298 O307 2.356 . S
C299 O304 1.209 . S
C299 O306 1.226 . S
O300 Cd296 2.273 . S
O300 Cd298 2.411 . S
O300 C303 1.320 . S
O301 Cd298 2.333 . S
O301 C303 1.214 . S
O302 Cd298 2.352 . S
O302 C305 1.258 . S
C303 O300 1.320 . S
C303 O301 1.214 . S
O304 Cd296 2.277 . S
O304 C299 1.209 . S
C305 O302 1.258 . S
C305 O307 1.282 . S
O306 Cd298 2.277 . S
O306 C299 1.226 . S
O307 Cd298 2.356 . S
O307 C305 1.282 . S
C308 O309 1.306 . S
C308 O311 1.160 . S
O309 C308 1.306 . S
O309 Cd310 2.228 . S
Cd310 O309 2.228 . S
Cd310 O314 2.273 . S
Cd310 O318 2.277 . S
O311 C308 1.160 . S
O311 Cd312 2.203 . S
Cd312 O311 2.203 . S
Cd312 O314 2.411 . S
Cd312 O315 2.333 . S
Cd312 O316 2.352 . S
Cd312 O320 2.277 . S
Cd312 O321 2.356 . S
C313 O318 1.209 . S
C313 O320 1.226 . S
O314 Cd310 2.273 . S
O314 Cd312 2.411 . S
O314 C317 1.320 . S
O315 Cd312 2.333 . S
O315 C317 1.214 . S
O316 Cd312 2.352 . S
O316 C319 1.258 . S
C317 O314 1.320 . S
C317 O315 1.214 . S
O318 Cd310 2.277 . S
O318 C313 1.209 . S
C319 O316 1.258 . S
C319 O321 1.282 . S
O320 Cd312 2.277 . S
O320 C313 1.226 . S
O321 Cd312 2.356 . S
O321 C319 1.282 . S
C322 O323 1.306 . S
C322 O325 1.160 . S
O323 C322 1.306 . S
O323 Cd324 2.228 . S
Cd324 O323 2.228 . S
Cd324 O328 2.273 . S
Cd324 O332 2.277 . S
O325 C322 1.160 . S
O325 Cd326 2.203 . S
Cd326 O325 2.203 . S
Cd326 O328 2.411 . S
Cd326 O329 2.333 . S
Cd326 O330 2.352 . S
Cd326 O334 2.277 . S
Cd326 O335 2.356 . S
C327 O332 1.209 . S
C327 O334 1.226 . S
O328 Cd324 2.273 . S
O328 Cd326 2.411 . S
O328 C331 1.320 . S
O329 Cd326 2.333 . S
O329 C331 1.214 . S
O330 Cd326 2.352 . S
O330 C333 1.258 . S
C331 O328 1.320 . S
C331 O329 1.214 . S
O332 Cd324 2.277 . S
O332 C327 1.209 . S
C333 O330 1.258 . S
C333 O335 1.282 . S
O334 Cd326 2.277 . S
O334 C327 1.226 . S
O335 Cd326 2.356 . S
O335 C333 1.282 . S
H336 C342 0.930 . S
H337 C346 0.930 . S
H338 C351 0.929 . S
H339 C349 0.929 . S
H340 C344 0.929 . S
H341 C350 0.929 . S
C342 H336 0.930 . S
C342 C343 1.367 . S
C342 C350 1.378 . S
C343 C342 1.367 . S
C343 C351 1.433 . S
C344 H340 0.929 . S
C344 C346 1.378 . S
C344 C348 1.350 . S
C345 C348 1.463 . S
C345 C350 1.350 . S
C345 N353 1.427 . S
C346 H337 0.930 . S
C346 C344 1.378 . S
C346 C347 1.367 . S
C347 C346 1.367 . S
C347 C349 1.433 . S
C348 C344 1.350 . S
C348 C345 1.463 . S
C348 N352 1.427 . S
C349 H339 0.929 . S
C349 C347 1.433 . S
C349 N352 1.384 . S
C350 H341 0.929 . S
C350 C342 1.378 . S
C350 C345 1.350 . S
C351 H338 0.929 . S
C351 C343 1.433 . S
C351 N353 1.384 . S
N352 C348 1.427 . S
N352 C349 1.384 . S
N353 C345 1.427 . S
N353 C351 1.384 . S
H354 C360 0.930 . S
H355 C364 0.930 . S
H356 C369 0.929 . S
H357 C367 0.929 . S
H358 C362 0.929 . S
H359 C368 0.929 . S
C360 H354 0.930 . S
C360 C361 1.367 . S
C360 C368 1.378 . S
C361 C360 1.367 . S
C361 C369 1.433 . S
C362 H358 0.929 . S
C362 C364 1.378 . S
C362 C366 1.350 . S
C363 C366 1.463 . S
C363 C368 1.350 . S
C363 N371 1.427 . S
C364 H355 0.930 . S
C364 C362 1.378 . S
C364 C365 1.367 . S
C365 C364 1.367 . S
C365 C367 1.433 . S
C366 C362 1.350 . S
C366 C363 1.463 . S
C366 N370 1.427 . S
C367 H357 0.929 . S
C367 C365 1.433 . S
C367 N370 1.384 . S
C368 H359 0.929 . S
C368 C360 1.378 . S
C368 C363 1.350 . S
C369 H356 0.929 . S
C369 C361 1.433 . S
C369 N371 1.384 . S
N370 C366 1.427 . S
N370 C367 1.384 . S
N371 C363 1.427 . S
N371 C369 1.384 . S
H372 C378 0.930 . S
H373 C382 0.930 . S
H374 C387 0.929 . S
H375 C385 0.929 . S
H376 C380 0.929 . S
H377 C386 0.929 . S
C378 H372 0.930 . S
C378 C379 1.367 . S
C378 C386 1.378 . S
C379 C378 1.367 . S
C379 C387 1.433 . S
C380 H376 0.929 . S
C380 C382 1.378 . S
C380 C384 1.350 . S
C381 C384 1.463 . S
C381 C386 1.350 . S
C381 N389 1.427 . S
C382 H373 0.930 . S
C382 C380 1.378 . S
C382 C383 1.367 . S
C383 C382 1.367 . S
C383 C385 1.433 . S
C384 C380 1.350 . S
C384 C381 1.463 . S
C384 N388 1.427 . S
C385 H375 0.929 . S
C385 C383 1.433 . S
C385 N388 1.384 . S
C386 H377 0.929 . S
C386 C378 1.378 . S
C386 C381 1.350 . S
C387 H374 0.929 . S
C387 C379 1.433 . S
C387 N389 1.384 . S
N388 C384 1.427 . S
N388 C385 1.384 . S
N389 C381 1.427 . S
N389 C387 1.384 . S
H390 C396 0.930 . S
H391 C400 0.930 . S
H392 C405 0.929 . S
H393 C403 0.929 . S
H394 C398 0.929 . S
H395 C404 0.929 . S
C396 H390 0.930 . S
C396 C397 1.367 . S
C396 C404 1.378 . S
C397 C396 1.367 . S
C397 C405 1.433 . S
C398 H394 0.929 . S
C398 C400 1.378 . S
C398 C402 1.350 . S
C399 C402 1.463 . S
C399 C404 1.350 . S
C399 N407 1.427 . S
C400 H391 0.930 . S
C400 C398 1.378 . S
C400 C401 1.367 . S
C401 C400 1.367 . S
C401 C403 1.433 . S
C402 C398 1.350 . S
C402 C399 1.463 . S
C402 N406 1.427 . S
C403 H393 0.929 . S
C403 C401 1.433 . S
C403 N406 1.384 . S
C404 H395 0.929 . S
C404 C396 1.378 . S
C404 C399 1.350 . S
C405 H392 0.929 . S
C405 C397 1.433 . S
C405 N407 1.384 . S
N406 C402 1.427 . S
N406 C403 1.384 . S
N407 C399 1.427 . S
N407 C405 1.384 . S
H408 C414 0.930 . S
H409 C418 0.930 . S
H410 C423 0.929 . S
H411 C421 0.929 . S
H412 C416 0.929 . S
H413 C422 0.929 . S
C414 H408 0.930 . S
C414 C415 1.367 . S
C414 C422 1.378 . S
C415 C414 1.367 . S
C415 C423 1.433 . S
C416 H412 0.929 . S
C416 C418 1.378 . S
C416 C420 1.350 . S
C417 C420 1.463 . S
C417 C422 1.350 . S
C417 N425 1.427 . S
C418 H409 0.930 . S
C418 C416 1.378 . S
C418 C419 1.367 . S
C419 C418 1.367 . S
C419 C421 1.433 . S
C420 C416 1.350 . S
C420 C417 1.463 . S
C420 N424 1.427 . S
C421 H411 0.929 . S
C421 C419 1.433 . S
C421 N424 1.384 . S
C422 H413 0.929 . S
C422 C414 1.378 . S
C422 C417 1.350 . S
C423 H410 0.929 . S
C423 C415 1.433 . S
C423 N425 1.384 . S
N424 C420 1.427 . S
N424 C421 1.384 . S
N425 C417 1.427 . S
N425 C423 1.384 . S
H426 C432 0.930 . S
H427 C436 0.930 . S
H428 C441 0.929 . S
H429 C439 0.929 . S
H430 C434 0.929 . S
H431 C440 0.929 . S
C432 H426 0.930 . S
C432 C433 1.367 . S
C432 C440 1.378 . S
C433 C432 1.367 . S
C433 C441 1.433 . S
C434 H430 0.929 . S
C434 C436 1.378 . S
C434 C438 1.350 . S
C435 C438 1.463 . S
C435 C440 1.350 . S
C435 N443 1.427 . S
C436 H427 0.930 . S
C436 C434 1.378 . S
C436 C437 1.367 . S
C437 C436 1.367 . S
C437 C439 1.433 . S
C438 C434 1.350 . S
C438 C435 1.463 . S
C438 N442 1.427 . S
C439 H429 0.929 . S
C439 C437 1.433 . S
C439 N442 1.384 . S
C440 H431 0.929 . S
C440 C432 1.378 . S
C440 C435 1.350 . S
C441 H428 0.929 . S
C441 C433 1.433 . S
C441 N443 1.384 . S
N442 C438 1.427 . S
N442 C439 1.384 . S
N443 C435 1.427 . S
N443 C441 1.384 . S
H444 C450 0.930 . S
H445 C454 0.930 . S
H446 C459 0.929 . S
H447 C457 0.929 . S
H448 C452 0.929 . S
H449 C458 0.929 . S
C450 H444 0.930 . S
C450 C451 1.367 . S
C450 C458 1.378 . S
C451 C450 1.367 . S
C451 C459 1.433 . S
C452 H448 0.929 . S
C452 C454 1.378 . S
C452 C456 1.350 . S
C453 C456 1.463 . S
C453 C458 1.350 . S
C453 N461 1.427 . S
C454 H445 0.930 . S
C454 C452 1.378 . S
C454 C455 1.367 . S
C455 C454 1.367 . S
C455 C457 1.433 . S
C456 C452 1.350 . S
C456 C453 1.463 . S
C456 N460 1.427 . S
C457 H447 0.929 . S
C457 C455 1.433 . S
C457 N460 1.384 . S
C458 H449 0.929 . S
C458 C450 1.378 . S
C458 C453 1.350 . S
C459 H446 0.929 . S
C459 C451 1.433 . S
C459 N461 1.384 . S
N460 C456 1.427 . S
N460 C457 1.384 . S
N461 C453 1.427 . S
N461 C459 1.384 . S
H462 C468 0.930 . S
H463 C472 0.930 . S
H464 C477 0.929 . S
H465 C475 0.929 . S
H466 C470 0.929 . S
H467 C476 0.929 . S
C468 H462 0.930 . S
C468 C469 1.367 . S
C468 C476 1.378 . S
C469 C468 1.367 . S
C469 C477 1.433 . S
C470 H466 0.929 . S
C470 C472 1.378 . S
C470 C474 1.350 . S
C471 C474 1.463 . S
C471 C476 1.350 . S
C471 N479 1.427 . S
C472 H463 0.930 . S
C472 C470 1.378 . S
C472 C473 1.367 . S
C473 C472 1.367 . S
C473 C475 1.433 . S
C474 C470 1.350 . S
C474 C471 1.463 . S
C474 N478 1.427 . S
C475 H465 0.929 . S
C475 C473 1.433 . S
C475 N478 1.384 . S
C476 H467 0.929 . S
C476 C468 1.378 . S
C476 C471 1.350 . S
C477 H464 0.929 . S
C477 C469 1.433 . S
C477 N479 1.384 . S
N478 C474 1.427 . S
N478 C475 1.384 . S
N479 C471 1.427 . S
N479 C477 1.384 . S
H480 C486 0.930 . S
H481 C490 0.930 . S
H482 C495 0.929 . S
H483 C493 0.929 . S
H484 C488 0.929 . S
H485 C494 0.929 . S
C486 H480 0.930 . S
C486 C487 1.367 . S
C486 C494 1.378 . S
C487 C486 1.367 . S
C487 C495 1.433 . S
C488 H484 0.929 . S
C488 C490 1.378 . S
C488 C492 1.350 . S
C489 C492 1.463 . S
C489 C494 1.350 . S
C489 N497 1.427 . S
C490 H481 0.930 . S
C490 C488 1.378 . S
C490 C491 1.367 . S
C491 C490 1.367 . S
C491 C493 1.433 . S
C492 C488 1.350 . S
C492 C489 1.463 . S
C492 N496 1.427 . S
C493 H483 0.929 . S
C493 C491 1.433 . S
C493 N496 1.384 . S
C494 H485 0.929 . S
C494 C486 1.378 . S
C494 C489 1.350 . S
C495 H482 0.929 . S
C495 C487 1.433 . S
C495 N497 1.384 . S
N496 C492 1.427 . S
N496 C493 1.384 . S
N497 C489 1.427 . S
N497 C495 1.384 . S
H498 C504 0.930 . S
H499 C508 0.930 . S
H500 C513 0.929 . S
H501 C511 0.929 . S
H502 C506 0.929 . S
H503 C512 0.929 . S
C504 H498 0.930 . S
C504 C505 1.367 . S
C504 C512 1.378 . S
C505 C504 1.367 . S
C505 C513 1.433 . S
C506 H502 0.929 . S
C506 C508 1.378 . S
C506 C510 1.350 . S
C507 C510 1.463 . S
C507 C512 1.350 . S
C507 N515 1.427 . S
C508 H499 0.930 . S
C508 C506 1.378 . S
C508 C509 1.367 . S
C509 C508 1.367 . S
C509 C511 1.433 . S
C510 C506 1.350 . S
C510 C507 1.463 . S
C510 N514 1.427 . S
C511 H501 0.929 . S
C511 C509 1.433 . S
C511 N514 1.384 . S
C512 H503 0.929 . S
C512 C504 1.378 . S
C512 C507 1.350 . S
C513 H500 0.929 . S
C513 C505 1.433 . S
C513 N515 1.384 . S
N514 C510 1.427 . S
N514 C511 1.384 . S
N515 C507 1.427 . S
N515 C513 1.384 . S
H516 C522 0.930 . S
H517 C526 0.930 . S
H518 C531 0.929 . S
H519 C529 0.929 . S
H520 C524 0.929 . S
H521 C530 0.929 . S
C522 H516 0.930 . S
C522 C523 1.367 . S
C522 C530 1.378 . S
C523 C522 1.367 . S
C523 C531 1.433 . S
C524 H520 0.929 . S
C524 C526 1.378 . S
C524 C528 1.350 . S
C525 C528 1.463 . S
C525 C530 1.350 . S
C525 N533 1.427 . S
C526 H517 0.930 . S
C526 C524 1.378 . S
C526 C527 1.367 . S
C527 C526 1.367 . S
C527 C529 1.433 . S
C528 C524 1.350 . S
C528 C525 1.463 . S
C528 N532 1.427 . S
C529 H519 0.929 . S
C529 C527 1.433 . S
C529 N532 1.384 . S
C530 H521 0.929 . S
C530 C522 1.378 . S
C530 C525 1.350 . S
C531 H518 0.929 . S
C531 C523 1.433 . S
C531 N533 1.384 . S
N532 C528 1.427 . S
N532 C529 1.384 . S
N533 C525 1.427 . S
N533 C531 1.384 . S
H534 C540 0.930 . S
H535 C544 0.930 . S
H536 C549 0.929 . S
H537 C547 0.929 . S
H538 C542 0.929 . S
H539 C548 0.929 . S
C540 H534 0.930 . S
C540 C541 1.367 . S
C540 C548 1.378 . S
C541 C540 1.367 . S
C541 C549 1.433 . S
C542 H538 0.929 . S
C542 C544 1.378 . S
C542 C546 1.350 . S
C543 C546 1.463 . S
C543 C548 1.350 . S
C543 N551 1.427 . S
C544 H535 0.930 . S
C544 C542 1.378 . S
C544 C545 1.367 . S
C545 C544 1.367 . S
C545 C547 1.433 . S
C546 C542 1.350 . S
C546 C543 1.463 . S
C546 N550 1.427 . S
C547 H537 0.929 . S
C547 C545 1.433 . S
C547 N550 1.384 . S
C548 H539 0.929 . S
C548 C540 1.378 . S
C548 C543 1.350 . S
C549 H536 0.929 . S
C549 C541 1.433 . S
C549 N551 1.384 . S
N550 C546 1.427 . S
N550 C547 1.384 . S
N551 C543 1.427 . S
N551 C549 1.384 . S
H552 C558 0.930 . S
H553 C562 0.930 . S
H554 C567 0.929 . S
H555 C565 0.929 . S
H556 C560 0.929 . S
H557 C566 0.929 . S
C558 H552 0.930 . S
C558 C559 1.367 . S
C558 C566 1.378 . S
C559 C558 1.367 . S
C559 C567 1.433 . S
C560 H556 0.929 . S
C560 C562 1.378 . S
C560 C564 1.350 . S
C561 C564 1.463 . S
C561 C566 1.350 . S
C561 N569 1.427 . S
C562 H553 0.930 . S
C562 C560 1.378 . S
C562 C563 1.367 . S
C563 C562 1.367 . S
C563 C565 1.433 . S
C564 C560 1.350 . S
C564 C561 1.463 . S
C564 N568 1.427 . S
C565 H555 0.929 . S
C565 C563 1.433 . S
C565 N568 1.384 . S
C566 H557 0.929 . S
C566 C558 1.378 . S
C566 C561 1.350 . S
C567 H554 0.929 . S
C567 C559 1.433 . S
C567 N569 1.384 . S
N568 C564 1.427 . S
N568 C565 1.384 . S
N569 C561 1.427 . S
N569 C567 1.384 . S
H570 C576 0.930 . S
H571 C580 0.930 . S
H572 C585 0.929 . S
H573 C583 0.929 . S
H574 C578 0.929 . S
H575 C584 0.929 . S
C576 H570 0.930 . S
C576 C577 1.367 . S
C576 C584 1.378 . S
C577 C576 1.367 . S
C577 C585 1.433 . S
C578 H574 0.929 . S
C578 C580 1.378 . S
C578 C582 1.350 . S
C579 C582 1.463 . S
C579 C584 1.350 . S
C579 N587 1.427 . S
C580 H571 0.930 . S
C580 C578 1.378 . S
C580 C581 1.367 . S
C581 C580 1.367 . S
C581 C583 1.433 . S
C582 C578 1.350 . S
C582 C579 1.463 . S
C582 N586 1.427 . S
C583 H573 0.929 . S
C583 C581 1.433 . S
C583 N586 1.384 . S
C584 H575 0.929 . S
C584 C576 1.378 . S
C584 C579 1.350 . S
C585 H572 0.929 . S
C585 C577 1.433 . S
C585 N587 1.384 . S
N586 C582 1.427 . S
N586 C583 1.384 . S
N587 C579 1.427 . S
N587 C585 1.384 . S
H588 C594 0.930 . S
H589 C598 0.930 . S
H590 C603 0.929 . S
H591 C601 0.929 . S
H592 C596 0.929 . S
H593 C602 0.929 . S
C594 H588 0.930 . S
C594 C595 1.367 . S
C594 C602 1.378 . S
C595 C594 1.367 . S
C595 C603 1.433 . S
C596 H592 0.929 . S
C596 C598 1.378 . S
C596 C600 1.350 . S
C597 C600 1.463 . S
C597 C602 1.350 . S
C597 N605 1.427 . S
C598 H589 0.930 . S
C598 C596 1.378 . S
C598 C599 1.367 . S
C599 C598 1.367 . S
C599 C601 1.433 . S
C600 C596 1.350 . S
C600 C597 1.463 . S
C600 N604 1.427 . S
C601 H591 0.929 . S
C601 C599 1.433 . S
C601 N604 1.384 . S
C602 H593 0.929 . S
C602 C594 1.378 . S
C602 C597 1.350 . S
C603 H590 0.929 . S
C603 C595 1.433 . S
C603 N605 1.384 . S
N604 C600 1.427 . S
N604 C601 1.384 . S
N605 C597 1.427 . S
N605 C603 1.384 . S
H606 C612 0.930 . S
H607 C616 0.930 . S
H608 C621 0.929 . S
H609 C619 0.929 . S
H610 C614 0.929 . S
H611 C620 0.929 . S
C612 H606 0.930 . S
C612 C613 1.367 . S
C612 C620 1.378 . S
C613 C612 1.367 . S
C613 C621 1.433 . S
C614 H610 0.929 . S
C614 C616 1.378 . S
C614 C618 1.350 . S
C615 C618 1.463 . S
C615 C620 1.350 . S
C615 N623 1.427 . S
C616 H607 0.930 . S
C616 C614 1.378 . S
C616 C617 1.367 . S
C617 C616 1.367 . S
C617 C619 1.433 . S
C618 C614 1.350 . S
C618 C615 1.463 . S
C618 N622 1.427 . S
C619 H609 0.929 . S
C619 C617 1.433 . S
C619 N622 1.384 . S
C620 H611 0.929 . S
C620 C612 1.378 . S
C620 C615 1.350 . S
C621 H608 0.929 . S
C621 C613 1.433 . S
C621 N623 1.384 . S
N622 C618 1.427 . S
N622 C619 1.384 . S
N623 C615 1.427 . S
N623 C621 1.384 . S
H624 C630 0.930 . S
H625 C634 0.930 . S
H626 C639 0.929 . S
H627 C637 0.929 . S
H628 C632 0.929 . S
H629 C638 0.929 . S
C630 H624 0.930 . S
C630 C631 1.367 . S
C630 C638 1.378 . S
C631 C630 1.367 . S
C631 C639 1.433 . S
C632 H628 0.929 . S
C632 C634 1.378 . S
C632 C636 1.350 . S
C633 C636 1.463 . S
C633 C638 1.350 . S
C633 N641 1.427 . S
C634 H625 0.930 . S
C634 C632 1.378 . S
C634 C635 1.367 . S
C635 C634 1.367 . S
C635 C637 1.433 . S
C636 C632 1.350 . S
C636 C633 1.463 . S
C636 N640 1.427 . S
C637 H627 0.929 . S
C637 C635 1.433 . S
C637 N640 1.384 . S
C638 H629 0.929 . S
C638 C630 1.378 . S
C638 C633 1.350 . S
C639 H626 0.929 . S
C639 C631 1.433 . S
C639 N641 1.384 . S
N640 C636 1.427 . S
N640 C637 1.384 . S
N641 C633 1.427 . S
N641 C639 1.384 . S
H642 C648 0.930 . S
H643 C652 0.930 . S
H644 C657 0.929 . S
H645 C655 0.929 . S
H646 C650 0.929 . S
H647 C656 0.929 . S
C648 H642 0.930 . S
C648 C649 1.367 . S
C648 C656 1.378 . S
C649 C648 1.367 . S
C649 C657 1.433 . S
C650 H646 0.929 . S
C650 C652 1.378 . S
C650 C654 1.350 . S
C651 C654 1.463 . S
C651 C656 1.350 . S
C651 N659 1.427 . S
C652 H643 0.930 . S
C652 C650 1.378 . S
C652 C653 1.367 . S
C653 C652 1.367 . S
C653 C655 1.433 . S
C654 C650 1.350 . S
C654 C651 1.463 . S
C654 N658 1.427 . S
C655 H645 0.929 . S
C655 C653 1.433 . S
C655 N658 1.384 . S
C656 H647 0.929 . S
C656 C648 1.378 . S
C656 C651 1.350 . S
C657 H644 0.929 . S
C657 C649 1.433 . S
C657 N659 1.384 . S
N658 C654 1.427 . S
N658 C655 1.384 . S
N659 C651 1.427 . S
N659 C657 1.384 . S
H660 C666 0.930 . S
H661 C670 0.930 . S
H662 C675 0.929 . S
H663 C673 0.929 . S
H664 C668 0.929 . S
H665 C674 0.929 . S
C666 H660 0.930 . S
C666 C667 1.367 . S
C666 C674 1.378 . S
C667 C666 1.367 . S
C667 C675 1.433 . S
C668 H664 0.929 . S
C668 C670 1.378 . S
C668 C672 1.350 . S
C669 C672 1.463 . S
C669 C674 1.350 . S
C669 N677 1.427 . S
C670 H661 0.930 . S
C670 C668 1.378 . S
C670 C671 1.367 . S
C671 C670 1.367 . S
C671 C673 1.433 . S
C672 C668 1.350 . S
C672 C669 1.463 . S
C672 N676 1.427 . S
C673 H663 0.929 . S
C673 C671 1.433 . S
C673 N676 1.384 . S
C674 H665 0.929 . S
C674 C666 1.378 . S
C674 C669 1.350 . S
C675 H662 0.929 . S
C675 C667 1.433 . S
C675 N677 1.384 . S
N676 C672 1.427 . S
N676 C673 1.384 . S
N677 C669 1.427 . S
N677 C675 1.384 . S
H678 C684 0.930 . S
H679 C688 0.930 . S
H680 C693 0.929 . S
H681 C691 0.929 . S
H682 C686 0.929 . S
H683 C692 0.929 . S
C684 H678 0.930 . S
C684 C685 1.367 . S
C684 C692 1.378 . S
C685 C684 1.367 . S
C685 C693 1.433 . S
C686 H682 0.929 . S
C686 C688 1.378 . S
C686 C690 1.350 . S
C687 C690 1.463 . S
C687 C692 1.350 . S
C687 N695 1.427 . S
C688 H679 0.930 . S
C688 C686 1.378 . S
C688 C689 1.367 . S
C689 C688 1.367 . S
C689 C691 1.433 . S
C690 C686 1.350 . S
C690 C687 1.463 . S
C690 N694 1.427 . S
C691 H681 0.929 . S
C691 C689 1.433 . S
C691 N694 1.384 . S
C692 H683 0.929 . S
C692 C684 1.378 . S
C692 C687 1.350 . S
C693 H680 0.929 . S
C693 C685 1.433 . S
C693 N695 1.384 . S
N694 C690 1.427 . S
N694 C691 1.384 . S
N695 C687 1.427 . S
N695 C693 1.384 . S
H696 C702 0.930 . S
H697 C706 0.930 . S
H698 C711 0.929 . S
H699 C709 0.929 . S
H700 C704 0.929 . S
H701 C710 0.929 . S
C702 H696 0.930 . S
C702 C703 1.367 . S
C702 C710 1.378 . S
C703 C702 1.367 . S
C703 C711 1.433 . S
C704 H700 0.929 . S
C704 C706 1.378 . S
C704 C708 1.350 . S
C705 C708 1.463 . S
C705 C710 1.350 . S
C705 N713 1.427 . S
C706 H697 0.930 . S
C706 C704 1.378 . S
C706 C707 1.367 . S
C707 C706 1.367 . S
C707 C709 1.433 . S
C708 C704 1.350 . S
C708 C705 1.463 . S
C708 N712 1.427 . S
C709 H699 0.929 . S
C709 C707 1.433 . S
C709 N712 1.384 . S
C710 H701 0.929 . S
C710 C702 1.378 . S
C710 C705 1.350 . S
C711 H698 0.929 . S
C711 C703 1.433 . S
C711 N713 1.384 . S
N712 C708 1.427 . S
N712 C709 1.384 . S
N713 C705 1.427 . S
N713 C711 1.384 . S
H714 C720 0.930 . S
H715 C724 0.930 . S
H716 C729 0.929 . S
H717 C727 0.929 . S
H718 C722 0.929 . S
H719 C728 0.929 . S
C720 H714 0.930 . S
C720 C721 1.367 . S
C720 C728 1.378 . S
C721 C720 1.367 . S
C721 C729 1.433 . S
C722 H718 0.929 . S
C722 C724 1.378 . S
C722 C726 1.350 . S
C723 C726 1.463 . S
C723 C728 1.350 . S
C723 N731 1.427 . S
C724 H715 0.930 . S
C724 C722 1.378 . S
C724 C725 1.367 . S
C725 C724 1.367 . S
C725 C727 1.433 . S
C726 C722 1.350 . S
C726 C723 1.463 . S
C726 N730 1.427 . S
C727 H717 0.929 . S
C727 C725 1.433 . S
C727 N730 1.384 . S
C728 H719 0.929 . S
C728 C720 1.378 . S
C728 C723 1.350 . S
C729 H716 0.929 . S
C729 C721 1.433 . S
C729 N731 1.384 . S
N730 C726 1.427 . S
N730 C727 1.384 . S
N731 C723 1.427 . S
N731 C729 1.384 . S
H732 C738 0.930 . S
H733 C742 0.930 . S
H734 C747 0.929 . S
H735 C745 0.929 . S
H736 C740 0.929 . S
H737 C746 0.929 . S
C738 H732 0.930 . S
C738 C739 1.367 . S
C738 C746 1.378 . S
C739 C738 1.367 . S
C739 C747 1.433 . S
C740 H736 0.929 . S
C740 C742 1.378 . S
C740 C744 1.350 . S
C741 C744 1.463 . S
C741 C746 1.350 . S
C741 N749 1.427 . S
C742 H733 0.930 . S
C742 C740 1.378 . S
C742 C743 1.367 . S
C743 C742 1.367 . S
C743 C745 1.433 . S
C744 C740 1.350 . S
C744 C741 1.463 . S
C744 N748 1.427 . S
C745 H735 0.929 . S
C745 C743 1.433 . S
C745 N748 1.384 . S
C746 H737 0.929 . S
C746 C738 1.378 . S
C746 C741 1.350 . S
C747 H734 0.929 . S
C747 C739 1.433 . S
C747 N749 1.384 . S
N748 C744 1.427 . S
N748 C745 1.384 . S
N749 C741 1.427 . S
N749 C747 1.384 . S
H750 C756 0.930 . S
H751 C760 0.930 . S
H752 C765 0.929 . S
H753 C763 0.929 . S
H754 C758 0.929 . S
H755 C764 0.929 . S
C756 H750 0.930 . S
C756 C757 1.367 . S
C756 C764 1.378 . S
C757 C756 1.367 . S
C757 C765 1.433 . S
C758 H754 0.929 . S
C758 C760 1.378 . S
C758 C762 1.350 . S
C759 C762 1.463 . S
C759 C764 1.350 . S
C759 N767 1.427 . S
C760 H751 0.930 . S
C760 C758 1.378 . S
C760 C761 1.367 . S
C761 C760 1.367 . S
C761 C763 1.433 . S
C762 C758 1.350 . S
C762 C759 1.463 . S
C762 N766 1.427 . S
C763 H753 0.929 . S
C763 C761 1.433 . S
C763 N766 1.384 . S
C764 H755 0.929 . S
C764 C756 1.378 . S
C764 C759 1.350 . S
C765 H752 0.929 . S
C765 C757 1.433 . S
C765 N767 1.384 . S
N766 C762 1.427 . S
N766 C763 1.384 . S
N767 C759 1.427 . S
N767 C765 1.384 . S
H768 C774 0.930 . S
H769 C778 0.930 . S
H770 C783 0.929 . S
H771 C781 0.929 . S
H772 C776 0.929 . S
H773 C782 0.929 . S
C774 H768 0.930 . S
C774 C775 1.367 . S
C774 C782 1.378 . S
C775 C774 1.367 . S
C775 C783 1.433 . S
C776 H772 0.929 . S
C776 C778 1.378 . S
C776 C780 1.350 . S
C777 C780 1.463 1_455 S
C777 C782 1.350 . S
C777 N785 1.427 . S
C778 H769 0.930 . S
C778 C776 1.378 . S
C778 C779 1.367 . S
C779 C778 1.367 . S
C779 C781 1.433 . S
C780 C776 1.350 . S
C780 C777 1.463 1_655 S
C780 N784 1.427 . S
C781 H771 0.929 . S
C781 C779 1.433 . S
C781 N784 1.384 . S
C782 H773 0.929 . S
C782 C774 1.378 . S
C782 C777 1.350 . S
C783 H770 0.929 . S
C783 C775 1.433 . S
C783 N785 1.384 . S
N784 C780 1.427 . S
N784 C781 1.384 . S
N785 C777 1.427 . S
N785 C783 1.384 . S
H786 C792 0.930 . S
H787 C796 0.930 . S
H788 C801 0.929 . S
H789 C799 0.929 . S
H790 C794 0.929 . S
H791 C800 0.929 . S
C792 H786 0.930 . S
C792 C793 1.367 . S
C792 C800 1.378 . S
C793 C792 1.367 . S
C793 C801 1.433 . S
C794 H790 0.929 . S
C794 C796 1.378 . S
C794 C798 1.350 . S
C795 C798 1.463 1_545 S
C795 C800 1.350 . S
C795 N803 1.427 . S
C796 H787 0.930 . S
C796 C794 1.378 . S
C796 C797 1.367 . S
C797 C796 1.367 . S
C797 C799 1.433 . S
C798 C794 1.350 . S
C798 C795 1.463 1_565 S
C798 N802 1.427 . S
C799 H789 0.929 . S
C799 C797 1.433 . S
C799 N802 1.384 . S
C800 H791 0.929 . S
C800 C792 1.378 . S
C800 C795 1.350 . S
C801 H788 0.929 . S
C801 C793 1.433 . S
C801 N803 1.384 . S
N802 C798 1.427 . S
N802 C799 1.384 . S
N803 C795 1.427 . S
N803 C801 1.384 . S
H804 C810 0.930 . S
H805 C814 0.930 . S
H806 C819 0.929 . S
H807 C817 0.929 . S
H808 C812 0.929 . S
H809 C818 0.929 . S
C810 H804 0.930 . S
C810 C811 1.367 . S
C810 C818 1.378 . S
C811 C810 1.367 . S
C811 C819 1.433 . S
C812 H808 0.929 . S
C812 C814 1.378 . S
C812 C816 1.350 . S
C813 C816 1.463 1_655 S
C813 C818 1.350 . S
C813 N821 1.427 . S
C814 H805 0.930 . S
C814 C812 1.378 . S
C814 C815 1.367 . S
C815 C814 1.367 . S
C815 C817 1.433 . S
C816 C812 1.350 . S
C816 C813 1.463 1_455 S
C816 N820 1.427 . S
C817 H807 0.929 . S
C817 C815 1.433 . S
C817 N820 1.384 . S
C818 H809 0.929 . S
C818 C810 1.378 . S
C818 C813 1.350 . S
C819 H806 0.929 . S
C819 C811 1.433 . S
C819 N821 1.384 . S
N820 C816 1.427 . S
N820 C817 1.384 . S
N821 C813 1.427 . S
N821 C819 1.384 . S
H822 C828 0.930 . S
H823 C832 0.930 . S
H824 C837 0.929 . S
H825 C835 0.929 . S
H826 C830 0.929 . S
H827 C836 0.929 . S
C828 H822 0.930 . S
C828 C829 1.367 . S
C828 C836 1.378 . S
C829 C828 1.367 . S
C829 C837 1.433 . S
C830 H826 0.929 . S
C830 C832 1.378 . S
C830 C834 1.350 . S
C831 C834 1.463 1_545 S
C831 C836 1.350 . S
C831 N839 1.427 . S
C832 H823 0.930 . S
C832 C830 1.378 . S
C832 C833 1.367 . S
C833 C832 1.367 . S
C833 C835 1.433 . S
C834 C830 1.350 . S
C834 C831 1.463 1_565 S
C834 N838 1.427 . S
C835 H825 0.929 . S
C835 C833 1.433 . S
C835 N838 1.384 . S
C836 H827 0.929 . S
C836 C828 1.378 . S
C836 C831 1.350 . S
C837 H824 0.929 . S
C837 C829 1.433 . S
C837 N839 1.384 . S
N838 C834 1.427 . S
N838 C835 1.384 . S
N839 C831 1.427 . S
N839 C837 1.384 . S
H840 C846 0.930 . S
H841 C850 0.930 . S
H842 C855 0.929 . S
H843 C853 0.929 . S
H844 C848 0.929 . S
H845 C854 0.929 . S
C846 H840 0.930 . S
C846 C847 1.367 . S
C846 C854 1.378 . S
C847 C846 1.367 . S
C847 C855 1.433 . S
C848 H844 0.929 . S
C848 C850 1.378 . S
C848 C852 1.350 . S
C849 C852 1.463 1_565 S
C849 C854 1.350 . S
C849 N857 1.427 . S
C850 H841 0.930 . S
C850 C848 1.378 . S
C850 C851 1.367 . S
C851 C850 1.367 . S
C851 C853 1.433 . S
C852 C848 1.350 . S
C852 C849 1.463 1_545 S
C852 N856 1.427 . S
C853 H843 0.929 . S
C853 C851 1.433 . S
C853 N856 1.384 . S
C854 H845 0.929 . S
C854 C846 1.378 . S
C854 C849 1.350 . S
C855 H842 0.929 . S
C855 C847 1.433 . S
C855 N857 1.384 . S
N856 C852 1.427 . S
N856 C853 1.384 . S
N857 C849 1.427 . S
N857 C855 1.384 . S
H858 C864 0.930 . S
H859 C868 0.930 . S
H860 C873 0.929 . S
H861 C871 0.929 . S
H862 C866 0.929 . S
H863 C872 0.929 . S
C864 H858 0.930 . S
C864 C865 1.367 . S
C864 C872 1.378 . S
C865 C864 1.367 . S
C865 C873 1.433 . S
C866 H862 0.929 . S
C866 C868 1.378 . S
C866 C870 1.350 . S
C867 C870 1.463 1_655 S
C867 C872 1.350 . S
C867 N875 1.427 . S
C868 H859 0.930 . S
C868 C866 1.378 . S
C868 C869 1.367 . S
C869 C868 1.367 . S
C869 C871 1.433 . S
C870 C866 1.350 . S
C870 C867 1.463 1_455 S
C870 N874 1.427 . S
C871 H861 0.929 . S
C871 C869 1.433 . S
C871 N874 1.384 . S
C872 H863 0.929 . S
C872 C864 1.378 . S
C872 C867 1.350 . S
C873 H860 0.929 . S
C873 C865 1.433 . S
C873 N875 1.384 . S
N874 C870 1.427 . S
N874 C871 1.384 . S
N875 C867 1.427 . S
N875 C873 1.384 . S
H876 C882 0.930 . S
H877 C886 0.930 . S
H878 C891 0.929 . S
H879 C889 0.929 . S
H880 C884 0.929 . S
H881 C890 0.929 . S
C882 H876 0.930 . S
C882 C883 1.367 . S
C882 C890 1.378 . S
C883 C882 1.367 . S
C883 C891 1.433 . S
C884 H880 0.929 . S
C884 C886 1.378 . S
C884 C888 1.350 . S
C885 C888 1.463 1_565 S
C885 C890 1.350 . S
C885 N893 1.427 . S
C886 H877 0.930 . S
C886 C884 1.378 . S
C886 C887 1.367 . S
C887 C886 1.367 . S
C887 C889 1.433 . S
C888 C884 1.350 . S
C888 C885 1.463 1_545 S
C888 N892 1.427 . S
C889 H879 0.929 . S
C889 C887 1.433 . S
C889 N892 1.384 . S
C890 H881 0.929 . S
C890 C882 1.378 . S
C890 C885 1.350 . S
C891 H878 0.929 . S
C891 C883 1.433 . S
C891 N893 1.384 . S
N892 C888 1.427 . S
N892 C889 1.384 . S
N893 C885 1.427 . S
N893 C891 1.384 . S
H894 C900 0.930 . S
H895 C904 0.930 . S
H896 C909 0.929 . S
H897 C907 0.929 . S
H898 C902 0.929 . S
H899 C908 0.929 . S
C900 H894 0.930 . S
C900 C901 1.367 . S
C900 C908 1.378 . S
C901 C900 1.367 . S
C901 C909 1.433 . S
C902 H898 0.929 . S
C902 C904 1.378 . S
C902 C906 1.350 . S
C903 C906 1.463 1_655 S
C903 C908 1.350 . S
C903 N911 1.427 . S
C904 H895 0.930 . S
C904 C902 1.378 . S
C904 C905 1.367 . S
C905 C904 1.367 . S
C905 C907 1.433 . S
C906 C902 1.350 . S
C906 C903 1.463 1_455 S
C906 N910 1.427 . S
C907 H897 0.929 . S
C907 C905 1.433 . S
C907 N910 1.384 . S
C908 H899 0.929 . S
C908 C900 1.378 . S
C908 C903 1.350 . S
C909 H896 0.929 . S
C909 C901 1.433 . S
C909 N911 1.384 . S
N910 C906 1.427 . S
N910 C907 1.384 . S
N911 C903 1.427 . S
N911 C909 1.384 . S
H912 C918 0.930 . S
H913 C922 0.930 . S
H914 C927 0.929 . S
H915 C925 0.929 . S
H916 C920 0.929 . S
H917 C926 0.929 . S
C918 H912 0.930 . S
C918 C919 1.367 . S
C918 C926 1.378 . S
C919 C918 1.367 . S
C919 C927 1.433 . S
C920 H916 0.929 . S
C920 C922 1.378 . S
C920 C924 1.350 . S
C921 C924 1.463 1_556 S
C921 C926 1.350 . S
C921 N929 1.427 . S
C922 H913 0.930 . S
C922 C920 1.378 . S
C922 C923 1.367 . S
C923 C922 1.367 . S
C923 C925 1.433 . S
C924 C920 1.350 . S
C924 C921 1.463 1_554 S
C924 N928 1.427 . S
C925 H915 0.929 . S
C925 C923 1.433 . S
C925 N928 1.384 . S
C926 H917 0.929 . S
C926 C918 1.378 . S
C926 C921 1.350 . S
C927 H914 0.929 . S
C927 C919 1.433 . S
C927 N929 1.384 . S
N928 C924 1.427 . S
N928 C925 1.384 . S
N929 C921 1.427 . S
N929 C927 1.384 . S
H930 C936 0.930 . S
H931 C940 0.930 . S
H932 C945 0.929 . S
H933 C943 0.929 . S
H934 C938 0.929 . S
H935 C944 0.929 . S
C936 H930 0.930 . S
C936 C937 1.367 . S
C936 C944 1.378 . S
C937 C936 1.367 . S
C937 C945 1.433 . S
C938 H934 0.929 . S
C938 C940 1.378 . S
C938 C942 1.350 . S
C939 C942 1.463 1_556 S
C939 C944 1.350 . S
C939 N947 1.427 . S
C940 H931 0.930 . S
C940 C938 1.378 . S
C940 C941 1.367 . S
C941 C940 1.367 . S
C941 C943 1.433 . S
C942 C938 1.350 . S
C942 C939 1.463 1_554 S
C942 N946 1.427 . S
C943 H933 0.929 . S
C943 C941 1.433 . S
C943 N946 1.384 . S
C944 H935 0.929 . S
C944 C936 1.378 . S
C944 C939 1.350 . S
C945 H932 0.929 . S
C945 C937 1.433 . S
C945 N947 1.384 . S
N946 C942 1.427 . S
N946 C943 1.384 . S
N947 C939 1.427 . S
N947 C945 1.384 . S
H948 C954 0.930 . S
H949 C958 0.930 . S
H950 C963 0.929 . S
H951 C961 0.929 . S
H952 C956 0.929 . S
H953 C962 0.929 . S
C954 H948 0.930 . S
C954 C955 1.367 . S
C954 C962 1.378 . S
C955 C954 1.367 . S
C955 C963 1.433 . S
C956 H952 0.929 . S
C956 C958 1.378 . S
C956 C960 1.350 . S
C957 C960 1.463 1_556 S
C957 C962 1.350 . S
C957 N965 1.427 . S
C958 H949 0.930 . S
C958 C956 1.378 . S
C958 C959 1.367 . S
C959 C958 1.367 . S
C959 C961 1.433 . S
C960 C956 1.350 . S
C960 C957 1.463 1_554 S
C960 N964 1.427 . S
C961 H951 0.929 . S
C961 C959 1.433 . S
C961 N964 1.384 . S
C962 H953 0.929 . S
C962 C954 1.378 . S
C962 C957 1.350 . S
C963 H950 0.929 . S
C963 C955 1.433 . S
C963 N965 1.384 . S
N964 C960 1.427 . S
N964 C961 1.384 . S
N965 C957 1.427 . S
N965 C963 1.384 . S
H966 C972 0.930 . S
H967 C976 0.930 . S
H968 C981 0.929 . S
H969 C979 0.929 . S
H970 C974 0.929 . S
H971 C980 0.929 . S
C972 H966 0.930 . S
C972 C973 1.367 . S
C972 C980 1.378 . S
C973 C972 1.367 . S
C973 C981 1.433 . S
C974 H970 0.929 . S
C974 C976 1.378 . S
C974 C978 1.350 . S
C975 C978 1.463 1_556 S
C975 C980 1.350 . S
C975 N983 1.427 . S
C976 H967 0.930 . S
C976 C974 1.378 . S
C976 C977 1.367 . S
C977 C976 1.367 . S
C977 C979 1.433 . S
C978 C974 1.350 . S
C978 C975 1.463 1_554 S
C978 N982 1.427 . S
C979 H969 0.929 . S
C979 C977 1.433 . S
C979 N982 1.384 . S
C980 H971 0.929 . S
C980 C972 1.378 . S
C980 C975 1.350 . S
C981 H968 0.929 . S
C981 C973 1.433 . S
C981 N983 1.384 . S
N982 C978 1.427 . S
N982 C979 1.384 . S
N983 C975 1.427 . S
N983 C981 1.384 . S
H984 C990 0.930 . S
H985 C994 0.930 . S
H986 C999 0.929 . S
H987 C997 0.929 . S
H988 C992 0.929 . S
H989 C998 0.929 . S
C990 H984 0.930 . S
C990 C991 1.367 . S
C990 C998 1.378 . S
C991 C990 1.367 . S
C991 C999 1.433 . S
C992 H988 0.929 . S
C992 C994 1.378 . S
C992 C996 1.350 . S
C993 C996 1.463 . S
C993 C998 1.350 . S
C993 N1001 1.427 . S
C994 H985 0.930 . S
C994 C992 1.378 . S
C994 C995 1.367 . S
C995 C994 1.367 . S
C995 C997 1.433 . S
C996 C992 1.350 . S
C996 C993 1.463 . S
C996 N1000 1.427 . S
C997 H987 0.929 . S
C997 C995 1.433 . S
C997 N1000 1.384 . S
C998 H989 0.929 . S
C998 C990 1.378 . S
C998 C993 1.350 . S
C999 H986 0.929 . S
C999 C991 1.433 . S
C999 N1001 1.384 . S
N1000 C996 1.427 . S
N1000 C997 1.384 . S
N1001 C993 1.427 . S
N1001 C999 1.384 . S
H1002 C1008 0.930 . S
H1003 C1012 0.930 . S
H1004 C1017 0.929 . S
H1005 C1015 0.929 . S
H1006 C1010 0.929 . S
H1007 C1016 0.929 . S
C1008 H1002 0.930 . S
C1008 C1009 1.367 . S
C1008 C1016 1.378 . S
C1009 C1008 1.367 . S
C1009 C1017 1.433 . S
C1010 H1006 0.929 . S
C1010 C1012 1.378 . S
C1010 C1014 1.350 . S
C1011 C1014 1.463 . S
C1011 C1016 1.350 . S
C1011 N1019 1.427 . S
C1012 H1003 0.930 . S
C1012 C1010 1.378 . S
C1012 C1013 1.367 . S
C1013 C1012 1.367 . S
C1013 C1015 1.433 . S
C1014 C1010 1.350 . S
C1014 C1011 1.463 . S
C1014 N1018 1.427 . S
C1015 H1005 0.929 . S
C1015 C1013 1.433 . S
C1015 N1018 1.384 . S
C1016 H1007 0.929 . S
C1016 C1008 1.378 . S
C1016 C1011 1.350 . S
C1017 H1004 0.929 . S
C1017 C1009 1.433 . S
C1017 N1019 1.384 . S
N1018 C1014 1.427 . S
N1018 C1015 1.384 . S
N1019 C1011 1.427 . S
N1019 C1017 1.384 . S
H1020 C1026 0.930 . S
H1021 C1030 0.930 . S
H1022 C1035 0.929 . S
H1023 C1033 0.929 . S
H1024 C1028 0.929 . S
H1025 C1034 0.929 . S
C1026 H1020 0.930 . S
C1026 C1027 1.367 . S
C1026 C1034 1.378 . S
C1027 C1026 1.367 . S
C1027 C1035 1.433 . S
C1028 H1024 0.929 . S
C1028 C1030 1.378 . S
C1028 C1032 1.350 . S
C1029 C1032 1.463 . S
C1029 C1034 1.350 . S
C1029 N1037 1.427 . S
C1030 H1021 0.930 . S
C1030 C1028 1.378 . S
C1030 C1031 1.367 . S
C1031 C1030 1.367 . S
C1031 C1033 1.433 . S
C1032 C1028 1.350 . S
C1032 C1029 1.463 . S
C1032 N1036 1.427 . S
C1033 H1023 0.929 . S
C1033 C1031 1.433 . S
C1033 N1036 1.384 . S
C1034 H1025 0.929 . S
C1034 C1026 1.378 . S
C1034 C1029 1.350 . S
C1035 H1022 0.929 . S
C1035 C1027 1.433 . S
C1035 N1037 1.384 . S
N1036 C1032 1.427 . S
N1036 C1033 1.384 . S
N1037 C1029 1.427 . S
N1037 C1035 1.384 . S
H1038 C1044 0.930 . S
H1039 C1048 0.930 . S
H1040 C1053 0.929 . S
H1041 C1051 0.929 . S
H1042 C1046 0.929 . S
H1043 C1052 0.929 . S
C1044 H1038 0.930 . S
C1044 C1045 1.367 . S
C1044 C1052 1.378 . S
C1045 C1044 1.367 . S
C1045 C1053 1.433 . S
C1046 H1042 0.929 . S
C1046 C1048 1.378 . S
C1046 C1050 1.350 . S
C1047 C1050 1.463 . S
C1047 C1052 1.350 . S
C1047 N1055 1.427 . S
C1048 H1039 0.930 . S
C1048 C1046 1.378 . S
C1048 C1049 1.367 . S
C1049 C1048 1.367 . S
C1049 C1051 1.433 . S
C1050 C1046 1.350 . S
C1050 C1047 1.463 . S
C1050 N1054 1.427 . S
C1051 H1041 0.929 . S
C1051 C1049 1.433 . S
C1051 N1054 1.384 . S
C1052 H1043 0.929 . S
C1052 C1044 1.378 . S
C1052 C1047 1.350 . S
C1053 H1040 0.929 . S
C1053 C1045 1.433 . S
C1053 N1055 1.384 . S
N1054 C1050 1.427 . S
N1054 C1051 1.384 . S
N1055 C1047 1.427 . S
N1055 C1053 1.384 . S
H1056 C1062 0.930 . S
H1057 C1066 0.930 . S
H1058 C1071 0.929 . S
H1059 C1069 0.929 . S
H1060 C1064 0.929 . S
H1061 C1070 0.929 . S
C1062 H1056 0.930 . S
C1062 C1063 1.367 . S
C1062 C1070 1.378 . S
C1063 C1062 1.367 . S
C1063 C1071 1.433 . S
C1064 H1060 0.929 . S
C1064 C1066 1.378 . S
C1064 C1068 1.350 . S
C1065 C1068 1.463 . S
C1065 C1070 1.350 . S
C1065 N1073 1.427 . S
C1066 H1057 0.930 . S
C1066 C1064 1.378 . S
C1066 C1067 1.367 . S
C1067 C1066 1.367 . S
C1067 C1069 1.433 . S
C1068 C1064 1.350 . S
C1068 C1065 1.463 . S
C1068 N1072 1.427 . S
C1069 H1059 0.929 . S
C1069 C1067 1.433 . S
C1069 N1072 1.384 . S
C1070 H1061 0.929 . S
C1070 C1062 1.378 . S
C1070 C1065 1.350 . S
C1071 H1058 0.929 . S
C1071 C1063 1.433 . S
C1071 N1073 1.384 . S
N1072 C1068 1.427 . S
N1072 C1069 1.384 . S
N1073 C1065 1.427 . S
N1073 C1071 1.384 . S
H1074 C1080 0.930 . S
H1075 C1084 0.930 . S
H1076 C1089 0.929 . S
H1077 C1087 0.929 . S
H1078 C1082 0.929 . S
H1079 C1088 0.929 . S
C1080 H1074 0.930 . S
C1080 C1081 1.367 . S
C1080 C1088 1.378 . S
C1081 C1080 1.367 . S
C1081 C1089 1.433 . S
C1082 H1078 0.929 . S
C1082 C1084 1.378 . S
C1082 C1086 1.350 . S
C1083 C1086 1.463 . S
C1083 C1088 1.350 . S
C1083 N1091 1.427 . S
C1084 H1075 0.930 . S
C1084 C1082 1.378 . S
C1084 C1085 1.367 . S
C1085 C1084 1.367 . S
C1085 C1087 1.433 . S
C1086 C1082 1.350 . S
C1086 C1083 1.463 . S
C1086 N1090 1.427 . S
C1087 H1077 0.929 . S
C1087 C1085 1.433 . S
C1087 N1090 1.384 . S
C1088 H1079 0.929 . S
C1088 C1080 1.378 . S
C1088 C1083 1.350 . S
C1089 H1076 0.929 . S
C1089 C1081 1.433 . S
C1089 N1091 1.384 . S
N1090 C1086 1.427 . S
N1090 C1087 1.384 . S
N1091 C1083 1.427 . S
N1091 C1089 1.384 . S
H1092 C1098 0.930 . S
H1093 C1102 0.930 . S
H1094 C1107 0.929 . S
H1095 C1105 0.929 . S
H1096 C1100 0.929 . S
H1097 C1106 0.929 . S
C1098 H1092 0.930 . S
C1098 C1099 1.367 . S
C1098 C1106 1.378 . S
C1099 C1098 1.367 . S
C1099 C1107 1.433 . S
C1100 H1096 0.929 . S
C1100 C1102 1.378 . S
C1100 C1104 1.350 . S
C1101 C1104 1.463 . S
C1101 C1106 1.350 . S
C1101 N1109 1.427 . S
C1102 H1093 0.930 . S
C1102 C1100 1.378 . S
C1102 C1103 1.367 . S
C1103 C1102 1.367 . S
C1103 C1105 1.433 . S
C1104 C1100 1.350 . S
C1104 C1101 1.463 . S
C1104 N1108 1.427 . S
C1105 H1095 0.929 . S
C1105 C1103 1.433 . S
C1105 N1108 1.384 . S
C1106 H1097 0.929 . S
C1106 C1098 1.378 . S
C1106 C1101 1.350 . S
C1107 H1094 0.929 . S
C1107 C1099 1.433 . S
C1107 N1109 1.384 . S
N1108 C1104 1.427 . S
N1108 C1105 1.384 . S
N1109 C1101 1.427 . S
N1109 C1107 1.384 . S
H1110 C1116 0.930 . S
H1111 C1120 0.930 . S
H1112 C1125 0.929 . S
H1113 C1123 0.929 . S
H1114 C1118 0.929 . S
H1115 C1124 0.929 . S
C1116 H1110 0.930 . S
C1116 C1117 1.367 . S
C1116 C1124 1.378 . S
C1117 C1116 1.367 . S
C1117 C1125 1.433 . S
C1118 H1114 0.929 . S
C1118 C1120 1.378 . S
C1118 C1122 1.350 . S
C1119 C1122 1.463 . S
C1119 C1124 1.350 . S
C1119 N1127 1.427 . S
C1120 H1111 0.930 . S
C1120 C1118 1.378 . S
C1120 C1121 1.367 . S
C1121 C1120 1.367 . S
C1121 C1123 1.433 . S
C1122 C1118 1.350 . S
C1122 C1119 1.463 . S
C1122 N1126 1.427 . S
C1123 H1113 0.929 . S
C1123 C1121 1.433 . S
C1123 N1126 1.384 . S
C1124 H1115 0.929 . S
C1124 C1116 1.378 . S
C1124 C1119 1.350 . S
C1125 H1112 0.929 . S
C1125 C1117 1.433 . S
C1125 N1127 1.384 . S
N1126 C1122 1.427 . S
N1126 C1123 1.384 . S
N1127 C1119 1.427 . S
N1127 C1125 1.384 . S
H1128 C1134 0.930 . S
H1129 C1138 0.930 . S
H1130 C1143 0.929 . S
H1131 C1141 0.929 . S
H1132 C1136 0.929 . S
H1133 C1142 0.929 . S
C1134 H1128 0.930 . S
C1134 C1135 1.367 . S
C1134 C1142 1.378 . S
C1135 C1134 1.367 . S
C1135 C1143 1.433 . S
C1136 H1132 0.929 . S
C1136 C1138 1.378 . S
C1136 C1140 1.350 . S
C1137 C1140 1.463 . S
C1137 C1142 1.350 . S
C1137 N1145 1.427 . S
C1138 H1129 0.930 . S
C1138 C1136 1.378 . S
C1138 C1139 1.367 . S
C1139 C1138 1.367 . S
C1139 C1141 1.433 . S
C1140 C1136 1.350 . S
C1140 C1137 1.463 . S
C1140 N1144 1.427 . S
C1141 H1131 0.929 . S
C1141 C1139 1.433 . S
C1141 N1144 1.384 . S
C1142 H1133 0.929 . S
C1142 C1134 1.378 . S
C1142 C1137 1.350 . S
C1143 H1130 0.929 . S
C1143 C1135 1.433 . S
C1143 N1145 1.384 . S
N1144 C1140 1.427 . S
N1144 C1141 1.384 . S
N1145 C1137 1.427 . S
N1145 C1143 1.384 . S
H1146 C1152 0.930 . S
H1147 C1156 0.930 . S
H1148 C1161 0.929 . S
H1149 C1159 0.929 . S
H1150 C1154 0.929 . S
H1151 C1160 0.929 . S
C1152 H1146 0.930 . S
C1152 C1153 1.367 . S
C1152 C1160 1.378 . S
C1153 C1152 1.367 . S
C1153 C1161 1.433 . S
C1154 H1150 0.929 . S
C1154 C1156 1.378 . S
C1154 C1158 1.350 . S
C1155 C1158 1.463 . S
C1155 C1160 1.350 . S
C1155 N1163 1.427 . S
C1156 H1147 0.930 . S
C1156 C1154 1.378 . S
C1156 C1157 1.367 . S
C1157 C1156 1.367 . S
C1157 C1159 1.433 . S
C1158 C1154 1.350 . S
C1158 C1155 1.463 . S
C1158 N1162 1.427 . S
C1159 H1149 0.929 . S
C1159 C1157 1.433 . S
C1159 N1162 1.384 . S
C1160 H1151 0.929 . S
C1160 C1152 1.378 . S
C1160 C1155 1.350 . S
C1161 H1148 0.929 . S
C1161 C1153 1.433 . S
C1161 N1163 1.384 . S
N1162 C1158 1.427 . S
N1162 C1159 1.384 . S
N1163 C1155 1.427 . S
N1163 C1161 1.384 . S
H1164 C1170 0.930 . S
H1165 C1174 0.930 . S
H1166 C1179 0.929 . S
H1167 C1177 0.929 . S
H1168 C1172 0.929 . S
H1169 C1178 0.929 . S
C1170 H1164 0.930 . S
C1170 C1171 1.367 . S
C1170 C1178 1.378 . S
C1171 C1170 1.367 . S
C1171 C1179 1.433 . S
C1172 H1168 0.929 . S
C1172 C1174 1.378 . S
C1172 C1176 1.350 . S
C1173 C1176 1.463 . S
C1173 C1178 1.350 . S
C1173 N1181 1.427 . S
C1174 H1165 0.930 . S
C1174 C1172 1.378 . S
C1174 C1175 1.367 . S
C1175 C1174 1.367 . S
C1175 C1177 1.433 . S
C1176 C1172 1.350 . S
C1176 C1173 1.463 . S
C1176 N1180 1.427 . S
C1177 H1167 0.929 . S
C1177 C1175 1.433 . S
C1177 N1180 1.384 . S
C1178 H1169 0.929 . S
C1178 C1170 1.378 . S
C1178 C1173 1.350 . S
C1179 H1166 0.929 . S
C1179 C1171 1.433 . S
C1179 N1181 1.384 . S
N1180 C1176 1.427 . S
N1180 C1177 1.384 . S
N1181 C1173 1.427 . S
N1181 C1179 1.384 . S
H1182 C1188 0.930 . S
H1183 C1192 0.930 . S
H1184 C1197 0.929 . S
H1185 C1195 0.929 . S
H1186 C1190 0.929 . S
H1187 C1196 0.929 . S
C1188 H1182 0.930 . S
C1188 C1189 1.367 . S
C1188 C1196 1.378 . S
C1189 C1188 1.367 . S
C1189 C1197 1.433 . S
C1190 H1186 0.929 . S
C1190 C1192 1.378 . S
C1190 C1194 1.350 . S
C1191 C1194 1.463 . S
C1191 C1196 1.350 . S
C1191 N1199 1.427 . S
C1192 H1183 0.930 . S
C1192 C1190 1.378 . S
C1192 C1193 1.367 . S
C1193 C1192 1.367 . S
C1193 C1195 1.433 . S
C1194 C1190 1.350 . S
C1194 C1191 1.463 . S
C1194 N1198 1.427 . S
C1195 H1185 0.929 . S
C1195 C1193 1.433 . S
C1195 N1198 1.384 . S
C1196 H1187 0.929 . S
C1196 C1188 1.378 . S
C1196 C1191 1.350 . S
C1197 H1184 0.929 . S
C1197 C1189 1.433 . S
C1197 N1199 1.384 . S
N1198 C1194 1.427 . S
N1198 C1195 1.384 . S
N1199 C1191 1.427 . S
N1199 C1197 1.384 . S
C343 C163 1.451 . S
C347 C0 1.417 . S
C361 C14 1.403 . S
C365 C121 1.456 . S
C379 C28 1.413 . S
C383 C135 1.452 . S
C397 C42 1.403 . S
C401 C149 1.456 . S
C415 C191 1.453 . S
C419 C56 1.412 . S
C433 C70 1.402 . S
C437 C205 1.456 . S
C451 C219 1.451 . S
C455 C84 1.417 . S
C469 C177 1.452 . S
C473 C98 1.413 . S
C487 C79 1.452 . S
C491 C112 1.415 . S
C505 C93 1.451 . S
C509 C126 1.417 . S
C523 C140 1.416 . S
C527 C107 1.451 . S
C541 C65 1.456 . S
C545 C154 1.402 . S
C559 C51 1.451 . S
C563 C168 1.417 . S
C577 C182 1.416 . S
C581 C9 1.451 . S
C595 C196 1.404 . S
C599 C23 1.455 . S
C613 C210 1.408 . S
C617 C37 1.454 . S
C631 C224 1.405 . S
C635 C331 1.455 . S
C649 C289 1.454 . S
C653 C238 1.409 . S
C667 C252 1.409 . S
C671 C247 1.454 . S
C685 C266 1.403 . S
C689 C261 1.456 . S
C703 C275 1.451 . S
C707 C280 1.417 . S
C721 C294 1.409 . S
C725 C317 1.454 . S
C739 C233 1.454 . S
C743 C308 1.410 . S
C757 C303 1.453 . S
C761 C322 1.412 . S
C775 C5 1.522 . S
C779 C89 1.521 . S
C793 C19 1.521 . S
C797 C103 1.522 . S
C811 C33 1.520 . S
C815 C61 1.523 . S
C829 C75 1.522 . S
C833 C47 1.521 . S
C847 C145 1.524 . S
C851 C117 1.520 . S
C865 C131 1.524 . S
C869 C159 1.521 . S
C883 C173 1.521 . S
C887 C201 1.522 . S
C901 C215 1.520 . S
C905 C187 1.524 . S
C919 C243 1.520 . S
C923 C229 1.523 . S
C937 C257 1.523 . S
C941 C327 1.520 . S
C955 C271 1.524 . S
C959 C299 1.521 . S
C973 C285 1.524 . S
C977 C313 1.520 . S
C991 C11 1.034 . S
C995 C81 1.040 . S
C1009 C25 1.034 . S
C1013 C95 1.039 . S
C1027 C39 1.040 . S
C1031 C109 1.036 . S
C1045 C67 1.036 . S
C1049 C53 1.035 . S
C1063 C123 1.038 . S
C1067 C333 1.034 . S
C1081 C137 1.034 . S
C1085 C305 1.039 . S
C1099 C319 1.035 . S
C1103 C151 1.037 . S
C1117 C165 1.038 . S
C1121 C235 1.039 . S
C1135 C291 1.040 . S
C1139 C179 1.034 . S
C1153 C249 1.035 . S
C1157 C193 1.041 . S
C1171 C207 1.040 . S
C1175 C263 1.035 . S
C1189 C277 1.034 . S
C1193 C221 1.039 . S
