# Generated by pormake.
# Topology uoh, (4)-cn, num edge types: 1
# Building blocks:
#     Node 0, Type 0, BuildingBlock: AZAVOO_clean_sbu_0, # of connection points: 4
#     Node 1, Type 0, BuildingBlock: AZAVOO_clean_sbu_0, # of connection points: 4
#     Node 2, Type 0, BuildingBlock: AZAVOO_clean_sbu_0, # of connection points: 4
#     Node 3, Type 0, BuildingBlock: AZAVOO_clean_sbu_0, # of connection points: 4
#     Node 4, Type 0, BuildingBlock: AZAVOO_clean_sbu_0, # of connection points: 4
#     Node 5, Type 0, BuildingBlock: AZAVOO_clean_sbu_0, # of connection points: 4
#     Node 6, Type 0, BuildingBlock: AZAVOO_clean_sbu_0, # of connection points: 4
#     Node 7, Type 0, BuildingBlock: AZAVOO_clean_sbu_0, # of connection points: 4
#     Node 8, Type 0, BuildingBlock: AZAVOO_clean_sbu_0, # of connection points: 4
#     Node 9, Type 0, BuildingBlock: AZAVOO_clean_sbu_0, # of connection points: 4
#     Node 10, Type 0, BuildingBlock: AZAVOO_clean_sbu_0, # of connection points: 4
#     Node 11, Type 0, BuildingBlock: AZAVOO_clean_sbu_0, # of connection points: 4
#     Node 12, Type 0, BuildingBlock: AZAVOO_clean_sbu_0, # of connection points: 4
#     Node 13, Type 0, BuildingBlock: AZAVOO_clean_sbu_0, # of connection points: 4
#     Node 14, Type 0, BuildingBlock: AZAVOO_clean_sbu_0, # of connection points: 4
#     Node 15, Type 0, BuildingBlock: AZAVOO_clean_sbu_0, # of connection points: 4
#     Node 16, Type 0, BuildingBlock: AZAVOO_clean_sbu_0, # of connection points: 4
#     Node 17, Type 0, BuildingBlock: AZAVOO_clean_sbu_0, # of connection points: 4
#     Node 18, Type 0, BuildingBlock: AZAVOO_clean_sbu_0, # of connection points: 4
#     Node 19, Type 0, BuildingBlock: AZAVOO_clean_sbu_0, # of connection points: 4
#     Node 20, Type 0, BuildingBlock: AZAVOO_clean_sbu_0, # of connection points: 4
#     Node 21, Type 0, BuildingBlock: AZAVOO_clean_sbu_0, # of connection points: 4
#     Node 22, Type 0, BuildingBlock: AZAVOO_clean_sbu_0, # of connection points: 4
#     Node 23, Type 0, BuildingBlock: AZAVOO_clean_sbu_0, # of connection points: 4
#     Node 24, Type 0, BuildingBlock: AZAVOO_clean_sbu_0, # of connection points: 4
#     Node 25, Type 0, BuildingBlock: AZAVOO_clean_sbu_0, # of connection points: 4
#     Node 26, Type 0, BuildingBlock: AZAVOO_clean_sbu_0, # of connection points: 4
#     Node 27, Type 0, BuildingBlock: AZAVOO_clean_sbu_0, # of connection points: 4
#     Node 28, Type 0, BuildingBlock: AZAVOO_clean_sbu_0, # of connection points: 4
#     Node 29, Type 0, BuildingBlock: AZAVOO_clean_sbu_0, # of connection points: 4
#     Node 30, Type 0, BuildingBlock: AZAVOO_clean_sbu_0, # of connection points: 4
#     Node 31, Type 0, BuildingBlock: AZAVOO_clean_sbu_0, # of connection points: 4
#     Node 32, Type 0, BuildingBlock: AZAVOO_clean_sbu_0, # of connection points: 4
#     Node 33, Type 0, BuildingBlock: AZAVOO_clean_sbu_0, # of connection points: 4
#     Node 34, Type 0, BuildingBlock: AZAVOO_clean_sbu_0, # of connection points: 4
#     Node 35, Type 0, BuildingBlock: AZAVOO_clean_sbu_0, # of connection points: 4
#     Edge 36, Type (0, 0), BuildingBlock: KIFKEQ_clean_linker_1, # of connection points: 2
#     Edge 37, Type (0, 0), BuildingBlock: KIFKEQ_clean_linker_1, # of connection points: 2
#     Edge 38, Type (0, 0), BuildingBlock: KIFKEQ_clean_linker_1, # of connection points: 2
#     Edge 39, Type (0, 0), BuildingBlock: KIFKEQ_clean_linker_1, # of connection points: 2
#     Edge 40, Type (0, 0), BuildingBlock: KIFKEQ_clean_linker_1, # of connection points: 2
#     Edge 41, Type (0, 0), BuildingBlock: KIFKEQ_clean_linker_1, # of connection points: 2
#     Edge 42, Type (0, 0), BuildingBlock: KIFKEQ_clean_linker_1, # of connection points: 2
#     Edge 43, Type (0, 0), BuildingBlock: KIFKEQ_clean_linker_1, # of connection points: 2
#     Edge 44, Type (0, 0), BuildingBlock: KIFKEQ_clean_linker_1, # of connection points: 2
#     Edge 45, Type (0, 0), BuildingBlock: KIFKEQ_clean_linker_1, # of connection points: 2
#     Edge 46, Type (0, 0), BuildingBlock: KIFKEQ_clean_linker_1, # of connection points: 2
#     Edge 47, Type (0, 0), BuildingBlock: KIFKEQ_clean_linker_1, # of connection points: 2
#     Edge 48, Type (0, 0), BuildingBlock: KIFKEQ_clean_linker_1, # of connection points: 2
#     Edge 49, Type (0, 0), BuildingBlock: KIFKEQ_clean_linker_1, # of connection points: 2
#     Edge 50, Type (0, 0), BuildingBlock: KIFKEQ_clean_linker_1, # of connection points: 2
#     Edge 51, Type (0, 0), BuildingBlock: KIFKEQ_clean_linker_1, # of connection points: 2
#     Edge 52, Type (0, 0), BuildingBlock: KIFKEQ_clean_linker_1, # of connection points: 2
#     Edge 53, Type (0, 0), BuildingBlock: KIFKEQ_clean_linker_1, # of connection points: 2
#     Edge 54, Type (0, 0), BuildingBlock: KIFKEQ_clean_linker_1, # of connection points: 2
#     Edge 55, Type (0, 0), BuildingBlock: KIFKEQ_clean_linker_1, # of connection points: 2
#     Edge 56, Type (0, 0), BuildingBlock: KIFKEQ_clean_linker_1, # of connection points: 2
#     Edge 57, Type (0, 0), BuildingBlock: KIFKEQ_clean_linker_1, # of connection points: 2
#     Edge 58, Type (0, 0), BuildingBlock: KIFKEQ_clean_linker_1, # of connection points: 2
#     Edge 59, Type (0, 0), BuildingBlock: KIFKEQ_clean_linker_1, # of connection points: 2
#     Edge 60, Type (0, 0), BuildingBlock: KIFKEQ_clean_linker_1, # of connection points: 2
#     Edge 61, Type (0, 0), BuildingBlock: KIFKEQ_clean_linker_1, # of connection points: 2
#     Edge 62, Type (0, 0), BuildingBlock: KIFKEQ_clean_linker_1, # of connection points: 2
#     Edge 63, Type (0, 0), BuildingBlock: KIFKEQ_clean_linker_1, # of connection points: 2
#     Edge 64, Type (0, 0), BuildingBlock: KIFKEQ_clean_linker_1, # of connection points: 2
#     Edge 65, Type (0, 0), BuildingBlock: KIFKEQ_clean_linker_1, # of connection points: 2
#     Edge 66, Type (0, 0), BuildingBlock: KIFKEQ_clean_linker_1, # of connection points: 2
#     Edge 67, Type (0, 0), BuildingBlock: KIFKEQ_clean_linker_1, # of connection points: 2
#     Edge 68, Type (0, 0), BuildingBlock: KIFKEQ_clean_linker_1, # of connection points: 2
#     Edge 69, Type (0, 0), BuildingBlock: KIFKEQ_clean_linker_1, # of connection points: 2
#     Edge 70, Type (0, 0), BuildingBlock: KIFKEQ_clean_linker_1, # of connection points: 2
#     Edge 71, Type (0, 0), BuildingBlock: KIFKEQ_clean_linker_1, # of connection points: 2
#     Edge 72, Type (0, 0), BuildingBlock: KIFKEQ_clean_linker_1, # of connection points: 2
#     Edge 73, Type (0, 0), BuildingBlock: KIFKEQ_clean_linker_1, # of connection points: 2
#     Edge 74, Type (0, 0), BuildingBlock: KIFKEQ_clean_linker_1, # of connection points: 2
#     Edge 75, Type (0, 0), BuildingBlock: KIFKEQ_clean_linker_1, # of connection points: 2
#     Edge 76, Type (0, 0), BuildingBlock: KIFKEQ_clean_linker_1, # of connection points: 2
#     Edge 77, Type (0, 0), BuildingBlock: KIFKEQ_clean_linker_1, # of connection points: 2
#     Edge 78, Type (0, 0), BuildingBlock: KIFKEQ_clean_linker_1, # of connection points: 2
#     Edge 79, Type (0, 0), BuildingBlock: KIFKEQ_clean_linker_1, # of connection points: 2
#     Edge 80, Type (0, 0), BuildingBlock: KIFKEQ_clean_linker_1, # of connection points: 2
#     Edge 81, Type (0, 0), BuildingBlock: KIFKEQ_clean_linker_1, # of connection points: 2
#     Edge 82, Type (0, 0), BuildingBlock: KIFKEQ_clean_linker_1, # of connection points: 2
#     Edge 83, Type (0, 0), BuildingBlock: KIFKEQ_clean_linker_1, # of connection points: 2
#     Edge 84, Type (0, 0), BuildingBlock: KIFKEQ_clean_linker_1, # of connection points: 2
#     Edge 85, Type (0, 0), BuildingBlock: KIFKEQ_clean_linker_1, # of connection points: 2
#     Edge 86, Type (0, 0), BuildingBlock: KIFKEQ_clean_linker_1, # of connection points: 2
#     Edge 87, Type (0, 0), BuildingBlock: KIFKEQ_clean_linker_1, # of connection points: 2
#     Edge 88, Type (0, 0), BuildingBlock: KIFKEQ_clean_linker_1, # of connection points: 2
#     Edge 89, Type (0, 0), BuildingBlock: KIFKEQ_clean_linker_1, # of connection points: 2
#     Edge 90, Type (0, 0), BuildingBlock: KIFKEQ_clean_linker_1, # of connection points: 2
#     Edge 91, Type (0, 0), BuildingBlock: KIFKEQ_clean_linker_1, # of connection points: 2
#     Edge 92, Type (0, 0), BuildingBlock: KIFKEQ_clean_linker_1, # of connection points: 2
#     Edge 93, Type (0, 0), BuildingBlock: KIFKEQ_clean_linker_1, # of connection points: 2
#     Edge 94, Type (0, 0), BuildingBlock: KIFKEQ_clean_linker_1, # of connection points: 2
#     Edge 95, Type (0, 0), BuildingBlock: KIFKEQ_clean_linker_1, # of connection points: 2
#     Edge 96, Type (0, 0), BuildingBlock: KIFKEQ_clean_linker_1, # of connection points: 2
#     Edge 97, Type (0, 0), BuildingBlock: KIFKEQ_clean_linker_1, # of connection points: 2
#     Edge 98, Type (0, 0), BuildingBlock: KIFKEQ_clean_linker_1, # of connection points: 2
#     Edge 99, Type (0, 0), BuildingBlock: KIFKEQ_clean_linker_1, # of connection points: 2
#     Edge 100, Type (0, 0), BuildingBlock: KIFKEQ_clean_linker_1, # of connection points: 2
#     Edge 101, Type (0, 0), BuildingBlock: KIFKEQ_clean_linker_1, # of connection points: 2
#     Edge 102, Type (0, 0), BuildingBlock: KIFKEQ_clean_linker_1, # of connection points: 2
#     Edge 103, Type (0, 0), BuildingBlock: KIFKEQ_clean_linker_1, # of connection points: 2
#     Edge 104, Type (0, 0), BuildingBlock: KIFKEQ_clean_linker_1, # of connection points: 2
#     Edge 105, Type (0, 0), BuildingBlock: KIFKEQ_clean_linker_1, # of connection points: 2
#     Edge 106, Type (0, 0), BuildingBlock: KIFKEQ_clean_linker_1, # of connection points: 2
#     Edge 107, Type (0, 0), BuildingBlock: KIFKEQ_clean_linker_1, # of connection points: 2
# Relax obj value: 0.294
# Max RMSD: 0.303
# Mean RMSD: 0.303
data_MOF--net-uoh--node1-AZAVOO_clean_sbu_0--edge1-KIFKEQ_clean_linker_1
_symmetry_space_group_name_H-M    P1
_symmetry_Int_Tables_number       1
_symmetry_cell_setting            triclinic
loop_
_symmetry_equiv_pos_as_xyz
'x, y, z'
_cell_length_a     86.999016
_cell_length_b     87.040291
_cell_length_c     27.590599
_cell_angle_alpha  89.97931
_cell_angle_beta   90.007604
_cell_angle_gamma 120.02198
loop_
_atom_site_label
_atom_site_type_symbol
_atom_site_fract_x
_atom_site_fract_y
_atom_site_fract_z
_atom_type_partial_charge
Mg0 Mg 0.24858 0.16354 0.2705 0.0
O1 O 0.27564 0.16755 0.25222 0.0
O2 O 0.29512 0.18279 0.31028 0.0
Mg3 Mg 0.27875 0.18615 0.37092 0.0
C4 C 0.29133 0.17504 0.26916 0.0
C5 C 0.22817 0.14597 0.17148 0.0
O6 O 0.21442 0.13589 0.19897 0.0
O7 O 0.2584 0.19269 0.25831 0.0
O8 O 0.27448 0.20582 0.32451 0.0
O9 O 0.24107 0.13768 0.30572 0.0
O10 O 0.25342 0.16347 0.34397 0.0
C11 C 0.26737 0.20644 0.2845 0.0
C12 C 0.24737 0.14661 0.34546 0.0
O13 O 0.24244 0.15782 0.19082 0.0
Mg14 Mg 0.83701 0.08973 0.2713 0.0
O15 O 0.83296 0.11291 0.25589 0.0
O16 O 0.81877 0.11735 0.31647 0.0
Mg17 Mg 0.81631 0.09765 0.37615 0.0
C18 C 0.82591 0.12124 0.27453 0.0
C19 C 0.85449 0.08856 0.17128 0.0
O20 O 0.86473 0.08507 0.19863 0.0
O21 O 0.80748 0.07028 0.26238 0.0
O22 O 0.79606 0.07367 0.33153 0.0
O23 O 0.86343 0.10783 0.30489 0.0
O24 O 0.83808 0.0944 0.34516 0.0
C25 C 0.79444 0.06563 0.29144 0.0
C26 C 0.85497 0.10501 0.34556 0.0
O27 O 0.84202 0.08996 0.19066 0.0
Mg28 Mg 0.91132 0.75848 0.2789 0.0
O29 O 0.88748 0.73153 0.2622 0.0
O30 O 0.88204 0.71332 0.32484 0.0
Mg31 Mg 0.90114 0.73023 0.3857 0.0
C32 C 0.87869 0.71631 0.28192 0.0
C33 C 0.91517 0.7769 0.17605 0.0
O34 O 0.91656 0.79031 0.20145 0.0
O35 O 0.92938 0.74681 0.2742 0.0
O36 O 0.92498 0.73208 0.34392 0.0
O37 O 0.89378 0.76833 0.30703 0.0
O38 O 0.90479 0.75503 0.35191 0.0
C39 C 0.93317 0.73789 0.3037 0.0
C40 C 0.89475 0.76195 0.34863 0.0
O41 O 0.91368 0.76339 0.19789 0.0
Mg42 Mg 0.15421 0.23681 0.25105 0.0
O43 O 0.15604 0.26336 0.26407 0.0
O44 O 0.16871 0.28134 0.20095 0.0
Mg45 Mg 0.17269 0.26452 0.1434 0.0
C46 C 0.16187 0.27831 0.24327 0.0
C47 C 0.13888 0.21996 0.3556 0.0
O48 O 0.12708 0.20594 0.33169 0.0
O49 O 0.18405 0.24936 0.25851 0.0
O50 O 0.19466 0.26408 0.18898 0.0
O51 O 0.127 0.22606 0.22052 0.0
O52 O 0.15167 0.23948 0.17701 0.0
C53 C 0.19695 0.25862 0.22987 0.0
C54 C 0.13464 0.23233 0.17915 0.0
O55 O 0.15099 0.23303 0.33247 0.0
Mg56 Mg 0.7552 0.91758 0.24971 0.0
O57 O 0.72799 0.89372 0.26299 0.0
O58 O 0.70868 0.88978 0.20487 0.0
Mg59 Mg 0.72508 0.91204 0.14985 0.0
C60 C 0.71251 0.88517 0.24492 0.0
C61 C 0.75847 0.89882 0.33646 0.0
O62 O 0.75408 0.8876 0.30025 0.0
O63 O 0.74481 0.93619 0.26893 0.0
O64 O 0.72841 0.93369 0.20369 0.0
O65 O 0.76318 0.90085 0.20774 0.0
O66 O 0.75072 0.91522 0.17537 0.0
C67 C 0.73532 0.94084 0.24439 0.0
C68 C 0.75685 0.9046 0.17003 0.0
O69 O 0.76139 0.91442 0.32805 0.0
Mg70 Mg 0.08241 0.83341 0.23194 0.0
O71 O 0.10432 0.82708 0.24601 0.0
O72 O 0.10568 0.80979 0.18887 0.0
Mg73 Mg 0.08383 0.80568 0.13446 0.0
C74 C 0.11127 0.81849 0.22834 0.0
C75 C 0.10237 0.85474 0.31885 0.0
O76 O 0.11405 0.86026 0.28352 0.0
O77 O 0.0619 0.80544 0.25358 0.0
O78 O 0.06181 0.78932 0.19033 0.0
O79 O 0.10092 0.85713 0.18946 0.0
O80 O 0.08437 0.83039 0.15777 0.0
C81 C 0.05566 0.79066 0.23126 0.0
C82 C 0.09644 0.84677 0.15213 0.0
O83 O 0.08629 0.84337 0.30959 0.0
Mg84 Mg 0.75558 0.83698 0.74991 0.0
O85 O 0.72825 0.83337 0.76298 0.0
O86 O 0.70897 0.81721 0.70555 0.0
Mg87 Mg 0.72549 0.81115 0.65158 0.0
C88 C 0.71273 0.82602 0.74497 0.0
C89 C 0.75879 0.85923 0.83623 0.0
O90 O 0.75401 0.8658 0.80024 0.0
O91 O 0.74548 0.80834 0.77135 0.0
O92 O 0.7289 0.79335 0.70748 0.0
O93 O 0.76314 0.86132 0.7071 0.0
O94 O 0.75093 0.83432 0.67564 0.0
C95 C 0.73594 0.79381 0.74856 0.0
C96 C 0.75676 0.85103 0.66977 0.0
O97 O 0.76196 0.84673 0.82769 0.0
Mg98 Mg 0.16326 0.91507 0.73169 0.0
O99 O 0.17053 0.89372 0.74129 0.0
O100 O 0.1856 0.89145 0.67937 0.0
Mg101 Mg 0.18895 0.91383 0.62801 0.0
C102 C 0.17829 0.88641 0.72084 0.0
C103 C 0.14403 0.89401 0.81997 0.0
O104 O 0.13864 0.88244 0.78439 0.0
O105 O 0.19162 0.93568 0.75007 0.0
O106 O 0.20634 0.93533 0.6839 0.0
O107 O 0.13887 0.89654 0.6909 0.0
O108 O 0.16509 0.91369 0.65695 0.0
C109 C 0.20594 0.94162 0.72551 0.0
C110 C 0.14867 0.90162 0.65238 0.0
O111 O 0.15449 0.91032 0.8106 0.0
Mg112 Mg 0.08613 0.24339 0.75234 0.0
O113 O 0.10991 0.2706 0.76725 0.0
O114 O 0.11552 0.28815 0.703 0.0
Mg115 Mg 0.0954 0.27095 0.64439 0.0
C116 C 0.11889 0.28555 0.74629 0.0
C117 C 0.08146 0.22433 0.85393 0.0
O118 O 0.07759 0.21036 0.82722 0.0
O119 O 0.06788 0.25478 0.75807 0.0
O120 O 0.07194 0.26931 0.68816 0.0
O121 O 0.10352 0.23354 0.72327 0.0
O122 O 0.09189 0.24629 0.67862 0.0
C123 C 0.06391 0.26358 0.72865 0.0
C124 C 0.10197 0.23939 0.68144 0.0
O125 O 0.08468 0.2387 0.83344 0.0
Mg126 Mg 0.8418 0.75629 0.77956 0.0
O127 O 0.83941 0.72961 0.76384 0.0
O128 O 0.8274 0.71162 0.82732 0.0
Mg129 Mg 0.82519 0.72861 0.88792 0.0
C130 C 0.83351 0.71455 0.78414 0.0
C131 C 0.8553 0.77459 0.67639 0.0
O132 O 0.86671 0.78839 0.70175 0.0
O133 O 0.8119 0.7439 0.77662 0.0
O134 O 0.80259 0.72977 0.84755 0.0
O135 O 0.86953 0.76709 0.80634 0.0
O136 O 0.84555 0.75346 0.85249 0.0
C137 C 0.79961 0.73513 0.80739 0.0
C138 C 0.86255 0.76084 0.84838 0.0
O139 O 0.8438 0.76075 0.6983 0.0
Mg140 Mg 0.23982 0.08535 0.77267 0.0
O141 O 0.26649 0.10928 0.75465 0.0
O142 O 0.28548 0.11554 0.81569 0.0
Mg143 Mg 0.26969 0.09568 0.87632 0.0
C144 C 0.28186 0.11855 0.77313 0.0
C145 C 0.22668 0.09291 0.67695 0.0
O146 O 0.22107 0.10017 0.70892 0.0
O147 O 0.25171 0.06759 0.76372 0.0
O148 O 0.26767 0.07238 0.83138 0.0
O149 O 0.23016 0.10242 0.8053 0.0
O150 O 0.24408 0.09124 0.84649 0.0
C151 C 0.26132 0.06411 0.79152 0.0
C152 C 0.23688 0.10107 0.8458 0.0
O153 O 0.23379 0.08412 0.69196 0.0
Mg154 Mg 0.91743 0.15967 0.77011 0.0
O155 O 0.8937 0.16283 0.75175 0.0
O156 O 0.88948 0.1779 0.81047 0.0
Mg157 Mg 0.90951 0.18207 0.87072 0.0
C158 C 0.88538 0.1701 0.7694 0.0
C159 C 0.90921 0.13756 0.67625 0.0
O160 O 0.90169 0.12496 0.70892 0.0
O161 O 0.93609 0.18895 0.75701 0.0
O162 O 0.93293 0.20196 0.8231 0.0
O163 O 0.89986 0.13371 0.80573 0.0
O164 O 0.91224 0.15945 0.84408 0.0
C165 C 0.94058 0.20271 0.78287 0.0
C166 C 0.90183 0.14249 0.8453 0.0
O167 O 0.91809 0.15357 0.69028 0.0
Mg168 Mg 0.90515 0.49018 0.56797 0.0
O169 O 0.93267 0.49412 0.55478 0.0
O170 O 0.94957 0.50576 0.62035 0.0
Mg171 Mg 0.93186 0.50847 0.67746 0.0
C172 C 0.94741 0.50002 0.57688 0.0
C173 C 0.88722 0.47622 0.46442 0.0
O174 O 0.87298 0.46556 0.48957 0.0
O175 O 0.91619 0.51981 0.56269 0.0
O176 O 0.93052 0.53023 0.63281 0.0
O177 O 0.89559 0.46289 0.59667 0.0
O178 O 0.90766 0.48714 0.64186 0.0
C179 C 0.92491 0.53257 0.59218 0.0
C180 C 0.9012 0.47023 0.63868 0.0
O181 O 0.90122 0.48735 0.48649 0.0
Mg182 Mg 0.50069 0.415 0.57257 0.0
O183 O 0.49488 0.43718 0.5588 0.0
O184 O 0.47875 0.43924 0.61827 0.0
Mg185 Mg 0.4757 0.41824 0.67429 0.0
C186 C 0.48669 0.44438 0.57757 0.0
C187 C 0.51321 0.40933 0.46686 0.0
O188 O 0.51437 0.39597 0.48487 0.0
O189 O 0.47207 0.3945 0.55623 0.0
O190 O 0.45772 0.39552 0.62232 0.0
O191 O 0.52555 0.43386 0.61126 0.0
O192 O 0.49941 0.4177 0.64672 0.0
C193 C 0.45791 0.38873 0.58137 0.0
C194 C 0.51595 0.42956 0.6502 0.0
O195 O 0.50824 0.41789 0.49362 0.0
Mg196 Mg 0.58364 0.08904 0.58797 0.0
O197 O 0.56127 0.06113 0.57365 0.0
O198 O 0.55857 0.04212 0.63133 0.0
Mg199 Mg 0.57984 0.0595 0.6878 0.0
C200 C 0.55365 0.04555 0.59117 0.0
C201 C 0.56446 0.09077 0.50001 0.0
O202 O 0.55305 0.08581 0.5359 0.0
O203 O 0.60393 0.08066 0.5694 0.0
O204 O 0.60276 0.06523 0.63571 0.0
O205 O 0.56522 0.09509 0.62922 0.0
O206 O 0.58084 0.08416 0.66238 0.0
C207 C 0.60966 0.07231 0.59494 0.0
C208 C 0.56914 0.08898 0.66709 0.0
O209 O 0.58039 0.09485 0.50916 0.0
Mg210 Mg 0.82136 0.57418 0.58365 0.0
O211 O 0.82501 0.60124 0.60161 0.0
O212 O 0.83649 0.61942 0.5383 0.0
Mg213 Mg 0.83897 0.60281 0.47716 0.0
C214 C 0.83085 0.61639 0.58194 0.0
C215 C 0.80731 0.55541 0.68669 0.0
O216 O 0.79505 0.54213 0.66144 0.0
O217 O 0.85105 0.58553 0.58703 0.0
O218 O 0.86114 0.6009 0.51817 0.0
O219 O 0.79384 0.56464 0.55624 0.0
O220 O 0.818 0.57789 0.51081 0.0
C221 C 0.86367 0.59473 0.55756 0.0
C222 C 0.80105 0.57104 0.51452 0.0
O223 O 0.8192 0.569 0.66471 0.0
Mg224 Mg 0.42191 0.24288 0.56108 0.0
O225 O 0.39503 0.21932 0.58058 0.0
O226 O 0.37641 0.21326 0.51854 0.0
Mg227 Mg 0.39293 0.23114 0.45525 0.0
C228 C 0.37965 0.21044 0.56177 0.0
C229 C 0.44172 0.2484 0.66188 0.0
O230 O 0.45433 0.24876 0.63488 0.0
O231 O 0.41034 0.2611 0.56348 0.0
O232 O 0.39539 0.25577 0.4938 0.0
O233 O 0.43168 0.22503 0.53455 0.0
O234 O 0.41791 0.23529 0.48885 0.0
C235 C 0.40144 0.26457 0.53306 0.0
C236 C 0.42508 0.22549 0.49284 0.0
O237 O 0.42785 0.24676 0.64173 0.0
Mg238 Mg 0.75592 0.17982 0.56823 0.0
O239 O 0.7795 0.17646 0.58628 0.0
O240 O 0.78706 0.16642 0.52147 0.0
Mg241 Mg 0.76926 0.16582 0.45859 0.0
C242 C 0.78911 0.17111 0.56595 0.0
C243 C 0.74901 0.19197 0.66996 0.0
O244 O 0.74757 0.20369 0.64324 0.0
O245 O 0.738 0.14988 0.56567 0.0
O246 O 0.74399 0.14285 0.49265 0.0
O247 O 0.77358 0.20817 0.5456 0.0
O248 O 0.76408 0.18514 0.49647 0.0
C249 C 0.73485 0.13874 0.53166 0.0
C250 C 0.77352 0.20201 0.50283 0.0
O251 O 0.75161 0.18042 0.64936 0.0
Mg252 Mg 0.42653 0.17968 0.05885 0.0
O253 O 0.4004 0.17792 0.07731 0.0
O254 O 0.38214 0.16824 0.01379 0.0
Mg255 Mg 0.39833 0.16589 0.95082 0.0
C256 C 0.38543 0.17327 0.05793 0.0
C257 C 0.44368 0.19254 0.16345 0.0
O258 O 0.45657 0.20579 0.13962 0.0
O259 O 0.41303 0.14963 0.05803 0.0
O260 O 0.39898 0.14225 0.98645 0.0
O261 O 0.4381 0.20802 0.03497 0.0
O262 O 0.42357 0.18474 0.98702 0.0
C263 C 0.404 0.13821 0.02555 0.0
C264 C 0.43139 0.20165 0.99281 0.0
O265 O 0.43096 0.18015 0.14004 0.0
Mg266 Mg 0.81615 0.24976 0.06848 0.0
O267 O 0.81957 0.22635 0.08704 0.0
O268 O 0.83066 0.21911 0.02393 0.0
Mg269 Mg 0.83259 0.23763 0.96145 0.0
C270 C 0.82521 0.21682 0.06775 0.0
C271 C 0.80195 0.25263 0.17312 0.0
O272 O 0.78812 0.25102 0.14942 0.0
O273 O 0.84603 0.26788 0.07 0.0
O274 O 0.85498 0.26234 -0.00064 0.0
O275 O 0.78829 0.23163 0.04259 0.0
O276 O 0.81216 0.24204 0.99619 0.0
C277 C 0.85808 0.27115 0.0387 0.0
C278 C 0.79527 0.23194 0.00086 0.0
O279 O 0.81482 0.25331 0.14964 0.0
Mg280 Mg 0.75425 0.57392 0.08125 0.0
O281 O 0.77714 0.60134 0.09782 0.0
O282 O 0.7842 0.61869 0.0326 0.0
Mg283 Mg 0.76641 0.60081 0.9707 0.0
C284 C 0.78638 0.6163 0.07718 0.0
C285 C 0.74953 0.55659 0.18541 0.0
O286 O 0.74858 0.54324 0.16071 0.0
O287 O 0.73552 0.58501 0.07866 0.0
O288 O 0.74112 0.59808 0.00572 0.0
O289 O 0.77277 0.56426 0.0588 0.0
O290 O 0.76216 0.5767 0.00929 0.0
C291 C 0.73209 0.59287 0.04488 0.0
C292 C 0.77231 0.57008 0.01593 0.0
O293 O 0.75082 0.56989 0.16276 0.0
Mg294 Mg 0.4991 0.08315 0.08859 0.0
O295 O 0.49132 0.05446 0.07825 0.0
O296 O 0.4766 0.03723 0.14075 0.0
Mg297 Mg 0.4745 0.05657 0.19408 0.0
C298 C 0.48346 0.03937 0.09868 0.0
C299 C 0.51715 0.08131 0.99747 0.0
O300 O 0.52246 0.07444 0.03141 0.0
O301 O 0.47056 0.07573 0.07292 0.0
O302 O 0.4569 0.06167 0.14148 0.0
O303 O 0.52393 0.08879 0.12736 0.0
O304 O 0.49813 0.08 0.16334 0.0
C305 C 0.45678 0.06809 0.09984 0.0
C306 C 0.51456 0.08432 0.16668 0.0
O307 O 0.50706 0.0874 0.00897 0.0
Mg308 Mg 0.90369 0.4189 0.06904 0.0
O309 O 0.93155 0.44194 0.05774 0.0
O310 O 0.94774 0.4468 0.12463 0.0
Mg311 Mg 0.92887 0.42694 0.18158 0.0
C312 C 0.94614 0.45043 0.08071 0.0
C313 C 0.88693 0.41495 0.96388 0.0
O314 O 0.87226 0.41075 0.9877 0.0
O315 O 0.91421 0.39973 0.06637 0.0
O316 O 0.92657 0.40298 0.13959 0.0
O317 O 0.89437 0.43718 0.09545 0.0
O318 O 0.90554 0.42465 0.14269 0.0
C319 C 0.9217 0.39518 0.09856 0.0
C320 C 0.89953 0.43542 0.13808 0.0
O321 O 0.90076 0.41803 0.98723 0.0
Mg322 Mg 0.58253 0.48798 0.07807 0.0
O323 O 0.55938 0.49297 0.07224 0.0
O324 O 0.55639 0.50612 0.13781 0.0
Mg325 Mg 0.5777 0.50767 0.19048 0.0
C326 C 0.55152 0.49967 0.09539 0.0
C327 C 0.56405 0.47158 0.98469 0.0
O328 O 0.55226 0.46353 0.01907 0.0
O329 O 0.6019 0.51758 0.06924 0.0
O330 O 0.60031 0.52799 0.14221 0.0
O331 O 0.56507 0.46129 0.11024 0.0
O332 O 0.57938 0.48593 0.1532 0.0
C333 C 0.60723 0.53018 0.10009 0.0
C334 C 0.56838 0.4691 0.15195 0.0
O335 O 0.57987 0.48296 0.99645 0.0
Mg336 Mg 0.57667 0.8275 0.92413 0.0
O337 O 0.60458 0.8328 0.91072 0.0
O338 O 0.62294 0.84667 0.97199 0.0
Mg339 Mg 0.60561 0.85114 0.02698 0.0
C340 C 0.61983 0.83954 0.93009 0.0
C341 C 0.57597 0.8085 0.83308 0.0
O342 O 0.58146 0.80189 0.86729 0.0
O343 O 0.58593 0.85646 0.90892 0.0
O344 O 0.60199 0.86987 0.97504 0.0
O345 O 0.56971 0.80228 0.96275 0.0
O346 O 0.58079 0.82845 0.99846 0.0
C347 C 0.59506 0.87036 0.93457 0.0
C348 C 0.57551 0.81179 0.00167 0.0
O349 O 0.57127 0.8197 0.84449 0.0
Mg350 Mg 0.18073 0.74971 0.9016 0.0
O351 O 0.17898 0.77438 0.88532 0.0
O352 O 0.1663 0.78006 0.94774 0.0
Mg353 Mg 0.16263 0.76019 0.00778 0.0
C354 C 0.17303 0.78355 0.90526 0.0
C355 C 0.1963 0.74649 0.8001 0.0
O356 O 0.20814 0.74526 0.8268 0.0
O357 O 0.15086 0.73238 0.89508 0.0
O358 O 0.14055 0.73706 0.96434 0.0
O359 O 0.20804 0.76633 0.93149 0.0
O360 O 0.18346 0.75579 0.97506 0.0
C361 C 0.1381 0.72889 0.92409 0.0
C362 C 0.20051 0.76539 0.97276 0.0
O363 O 0.18387 0.74765 0.82065 0.0
Mg364 Mg 0.25062 0.42754 0.92887 0.0
O365 O 0.22661 0.40045 0.9152 0.0
O366 O 0.22284 0.38243 0.97703 0.0
Mg367 Mg 0.24316 0.39959 0.03534 0.0
C368 C 0.21841 0.38528 0.93533 0.0
C369 C 0.24035 0.43856 0.834 0.0
O370 O 0.23268 0.44336 0.86689 0.0
O371 O 0.26907 0.41632 0.91827 0.0
O372 O 0.26651 0.40263 0.98907 0.0
O373 O 0.23355 0.43697 0.96307 0.0
O374 O 0.24615 0.42435 0.00367 0.0
C375 C 0.27385 0.40817 0.94773 0.0
C376 C 0.23585 0.43101 0.00373 0.0
O377 O 0.25022 0.43251 0.84784 0.0
Mg378 Mg 0.4847 0.90307 0.90927 0.0
O379 O 0.48549 0.9289 0.92782 0.0
O380 O 0.49839 0.94815 0.86733 0.0
Mg381 Mg 0.50336 0.93327 0.80614 0.0
C382 C 0.49125 0.94422 0.90927 0.0
C383 C 0.46431 0.88685 0.00467 0.0
O384 O 0.45142 0.87938 0.97276 0.0
O385 O 0.51459 0.91614 0.91837 0.0
O386 O 0.52511 0.93202 0.85039 0.0
O387 O 0.45778 0.89233 0.87654 0.0
O388 O 0.48284 0.90727 0.83563 0.0
C389 C 0.52746 0.92594 0.89014 0.0
C390 C 0.46576 0.89945 0.83618 0.0
O391 O 0.48012 0.89648 0.98965 0.0
Mg392 Mg 0.09137 0.58208 0.90943 0.0
O393 O 0.06387 0.55848 0.92248 0.0
O394 O 0.04662 0.55439 0.85845 0.0
Mg395 Mg 0.06455 0.57441 0.80072 0.0
C396 C 0.04892 0.55022 0.90111 0.0
C397 C 0.10931 0.58584 0.01305 0.0
O398 O 0.12383 0.5902 0.98827 0.0
O399 O 0.08069 0.601 0.91573 0.0
O400 O 0.06678 0.59785 0.84523 0.0
O401 O 0.10067 0.56431 0.87987 0.0
O402 O 0.08875 0.57684 0.83545 0.0
C403 C 0.07241 0.60556 0.88611 0.0
C404 C 0.09508 0.56627 0.83806 0.0
O405 O 0.09527 0.58269 0.99073 0.0
Mg406 Mg 0.41995 0.51188 0.9119 0.0
O407 O 0.44364 0.50864 0.93081 0.0
O408 O 0.44995 0.49718 0.86666 0.0
Mg409 Mg 0.43145 0.49517 0.80434 0.0
C410 C 0.4528 0.50277 0.91038 0.0
C411 C 0.41316 0.52632 0.00846 0.0
O412 O 0.41158 0.53691 0.97747 0.0
O413 O 0.40175 0.48199 0.91449 0.0
O414 O 0.40668 0.47317 0.84277 0.0
O415 O 0.43774 0.53965 0.88506 0.0
O416 O 0.42745 0.51569 0.83935 0.0
C417 C 0.39809 0.47004 0.88253 0.0
C418 C 0.43725 0.53264 0.8433 0.0
O419 O 0.41607 0.51433 0.99247 0.0
Mg420 Mg 0.09121 0.51034 0.40882 0.0
O421 O 0.06393 0.50721 0.41976 0.0
O422 O 0.04701 0.49449 0.35486 0.0
Mg423 Mg 0.06507 0.49187 0.29865 0.0
C424 C 0.04918 0.50094 0.39752 0.0
C425 C 0.10844 0.52374 0.51373 0.0
O426 O 0.12339 0.53336 0.49013 0.0
O427 O 0.07964 0.4806 0.41518 0.0
O428 O 0.06606 0.47016 0.34412 0.0
O429 O 0.10144 0.53758 0.37939 0.0
O430 O 0.08925 0.5132 0.33466 0.0
C431 C 0.0712 0.46784 0.38548 0.0
C432 C 0.09593 0.53015 0.33743 0.0
O433 O 0.09444 0.51345 0.49035 0.0
Mg434 Mg 0.48327 0.58075 0.40683 0.0
O435 O 0.48445 0.55564 0.41622 0.0
O436 O 0.49317 0.5485 0.34826 0.0
Mg437 Mg 0.49626 0.56952 0.29192 0.0
C438 C 0.48842 0.54556 0.39265 0.0
C439 C 0.47199 0.58476 0.51399 0.0
O440 O 0.46098 0.5886 0.49173 0.0
O441 O 0.51349 0.59703 0.40646 0.0
O442 O 0.52021 0.59183 0.33203 0.0
O443 O 0.45497 0.56489 0.38022 0.0
O444 O 0.47871 0.57632 0.33324 0.0
C445 C 0.52468 0.59991 0.37273 0.0
C446 C 0.46175 0.56722 0.3372 0.0
O447 O 0.48243 0.58168 0.48908 0.0
Mg448 Mg 0.41506 0.90965 0.40995 0.0
O449 O 0.43933 0.93638 0.42427 0.0
O450 O 0.44494 0.95455 0.36164 0.0
Mg451 Mg 0.4236 0.93809 0.30449 0.0
C452 C 0.44859 0.9514 0.40401 0.0
C453 C 0.4109 0.89046 0.51199 0.0
O454 O 0.40507 0.87581 0.48664 0.0
O455 O 0.39708 0.92124 0.42007 0.0
O456 O 0.40083 0.93648 0.35163 0.0
O457 O 0.43199 0.90001 0.37575 0.0
O458 O 0.41927 0.91272 0.33579 0.0
C459 C 0.39302 0.93039 0.39224 0.0
C460 C 0.42934 0.90582 0.33514 0.0
O461 O 0.41504 0.90491 0.49049 0.0
Mg462 Mg 0.16987 0.41836 0.42673 0.0
O463 O 0.16465 0.39061 0.41269 0.0
O464 O 0.15055 0.37263 0.47465 0.0
Mg465 Mg 0.14726 0.39027 0.53112 0.0
C466 C 0.1575 0.3754 0.43253 0.0
C467 C 0.18557 0.43752 0.32478 0.0
O468 O 0.1928 0.45247 0.34923 0.0
O469 O 0.14084 0.40914 0.41437 0.0
O470 O 0.12779 0.39386 0.48176 0.0
O471 O 0.19565 0.42562 0.46225 0.0
O472 O 0.17004 0.41475 0.50101 0.0
C473 C 0.12712 0.40051 0.44098 0.0
C474 C 0.18679 0.4202 0.5024 0.0
O475 O 0.17585 0.42298 0.34663 0.0
Mg476 Mg 0.57785 0.74685 0.42416 0.0
O477 O 0.60566 0.76957 0.41138 0.0
O478 O 0.62389 0.77416 0.47306 0.0
Mg479 Mg 0.60636 0.75254 0.52854 0.0
C480 C 0.62086 0.77814 0.43098 0.0
C481 C 0.5773 0.76505 0.33276 0.0
O482 O 0.58266 0.77716 0.3669 0.0
O483 O 0.58751 0.72734 0.4099 0.0
O484 O 0.6025 0.72975 0.47827 0.0
O485 O 0.57042 0.76493 0.46221 0.0
O486 O 0.58161 0.75008 0.4986 0.0
C487 C 0.5961 0.72243 0.43734 0.0
C488 C 0.57608 0.76126 0.50146 0.0
O489 O 0.57268 0.74917 0.34429 0.0
Mg490 Mg 0.25064 0.82 0.40287 0.0
O491 O 0.22555 0.82125 0.38896 0.0
O492 O 0.21868 0.83166 0.45429 0.0
Mg493 Mg 0.23952 0.83609 0.51225 0.0
C494 C 0.21561 0.82588 0.4108 0.0
C495 C 0.2543 0.80595 0.29955 0.0
O496 O 0.25687 0.79465 0.32494 0.0
O497 O 0.2673 0.84996 0.39857 0.0
O498 O 0.26199 0.8591 0.46901 0.0
O499 O 0.23464 0.79228 0.43083 0.0
O500 O 0.24475 0.81633 0.47644 0.0
C501 C 0.27028 0.86228 0.42868 0.0
C502 C 0.23544 0.79931 0.47279 0.0
O503 O 0.25233 0.81768 0.32142 0.0
H504 H 0.25803 0.11001 0.92589 0.0
H505 H 0.21331 0.11221 0.86581 0.0
H506 H 0.25511 0.12293 0.001 0.0
H507 H 0.21021 0.12496 0.94197 0.0
H508 H 0.20076 0.12097 0.11623 0.0
H509 H 0.20266 0.11214 0.03308 0.0
H510 H 0.25773 0.15316 0.02651 0.0
H511 H 0.25594 0.16215 0.10875 0.0
C512 C 0.24764 0.11333 0.92856 0.0
C513 C 0.23593 0.1101 0.88993 0.0
C514 C 0.24602 0.1208 0.97152 0.0
C515 C 0.23245 0.12492 0.97705 0.0
C516 C 0.22075 0.12184 0.93844 0.0
C517 C 0.22261 0.11467 0.89494 0.0
C518 C 0.21316 0.1283 0.0967 0.0
C519 C 0.22824 0.1421 0.11933 0.0
C520 C 0.21422 0.1233 0.04915 0.0
C521 C 0.23039 0.1319 0.02387 0.0
C522 C 0.24517 0.14624 0.04555 0.0
C523 C 0.24409 0.15137 0.09264 0.0
H524 H 0.89643 0.15687 0.92717 0.0
H525 H 0.88716 0.10727 0.86588 0.0
H526 H 0.88311 0.14183 0.00325 0.0
H527 H 0.87413 0.0923 0.9427 0.0
H528 H 0.8417 0.10484 0.11282 0.0
H529 H 0.85168 0.11661 0.03161 0.0
H530 H 0.88745 0.09578 0.03173 0.0
H531 H 0.87768 0.08412 0.11374 0.0
C532 C 0.89146 0.14276 0.92977 0.0
C533 C 0.8928 0.13326 0.89045 0.0
C534 C 0.8838 0.13415 0.97329 0.0
C535 C 0.87763 0.11593 0.97866 0.0
C536 C 0.87886 0.10637 0.93939 0.0
C537 C 0.88622 0.11493 0.89547 0.0
C538 C 0.85152 0.10252 0.09543 0.0
C539 C 0.85899 0.09362 0.11986 0.0
C540 C 0.85727 0.10935 0.04903 0.0
C541 C 0.87038 0.10718 0.02574 0.0
C542 C 0.87726 0.09755 0.04901 0.0
C543 C 0.87172 0.09094 0.09589 0.0
H544 H 0.91523 0.80218 0.11637 0.0
H545 H 0.9088 0.74959 0.11549 0.0
H546 H 0.90581 0.79842 0.03157 0.0
H547 H 0.89936 0.74593 0.03122 0.0
H548 H 0.85384 0.7383 0.92496 0.0
H549 H 0.87039 0.74314 -0.0001 0.0
H550 H 0.91278 0.79253 0.94342 0.0
H551 H 0.89613 0.78757 0.86765 0.0
C552 C 0.91217 0.78999 0.09791 0.0
C553 C 0.91249 0.77608 0.12294 0.0
C554 C 0.90687 0.78789 0.04933 0.0
C555 C 0.9017 0.77181 0.02517 0.0
C556 C 0.9031 0.75838 0.04925 0.0
C557 C 0.90853 0.76052 0.09752 0.0
C558 C 0.86674 0.75009 0.92825 0.0
C559 C 0.87362 0.76263 0.89076 0.0
C560 C 0.8763 0.75279 0.97099 0.0
C561 C 0.89284 0.76823 0.9774 0.0
C562 C 0.90002 0.78055 0.93933 0.0
C563 C 0.89056 0.77766 0.89604 0.0
H564 H 0.15736 0.24972 0.41062 0.0
H565 H 0.11524 0.19499 0.41903 0.0
H566 H 0.15097 0.2546 0.49322 0.0
H567 H 0.10904 0.19999 0.50235 0.0
H568 H 0.11239 0.21502 0.6654 0.0
H569 H 0.12371 0.20972 0.58954 0.0
H570 H 0.12252 0.25413 0.52381 0.0
H571 H 0.11105 0.25925 0.5988 0.0
C572 C 0.14695 0.23862 0.43032 0.0
C573 C 0.13665 0.22198 0.40798 0.0
C574 C 0.1433 0.24147 0.4776 0.0
C575 C 0.12945 0.22772 0.50386 0.0
C576 C 0.11985 0.21079 0.48282 0.0
C577 C 0.12334 0.20796 0.43512 0.0
C578 C 0.1148 0.22379 0.63491 0.0
C579 C 0.11076 0.23751 0.63792 0.0
C580 C 0.12115 0.22068 0.59155 0.0
C581 C 0.12395 0.23151 0.55099 0.0
C582 C 0.12059 0.24566 0.55471 0.0
C583 C 0.11393 0.24853 0.59759 0.0
H584 H 0.77531 0.91839 0.41731 0.0
H585 H 0.74039 0.86486 0.36766 0.0
H586 H 0.77481 0.90709 0.49886 0.0
H587 H 0.73881 0.85374 0.44882 0.0
H588 H 0.75467 0.83591 0.58246 0.0
H589 H 0.75563 0.84819 0.5029 0.0
H590 H 0.75792 0.89433 0.56934 0.0
H591 H 0.75807 0.88237 0.64928 0.0
C592 C 0.7674 0.90426 0.42402 0.0
C593 C 0.75807 0.89249 0.38617 0.0
C594 C 0.76697 0.89777 0.47074 0.0
C595 C 0.75689 0.87944 0.48049 0.0
C596 C 0.74715 0.86784 0.4426 0.0
C597 C 0.74794 0.87425 0.39597 0.0
C598 C 0.75529 0.84864 0.58002 0.0
C599 C 0.75623 0.85817 0.62189 0.0
C600 C 0.75575 0.85567 0.53436 0.0
C601 C 0.75671 0.87224 0.52947 0.0
C602 C 0.75745 0.88168 0.57161 0.0
C603 C 0.75737 0.87478 0.61741 0.0
H604 H 0.1638 0.91445 0.56486 0.0
H605 H 0.11718 0.87154 0.63199 0.0
H606 H 0.15182 0.90269 0.48543 0.0
H607 H 0.10539 0.85921 0.55195 0.0
H608 H 0.08247 0.85352 0.39743 0.0
H609 H 0.09326 0.86431 0.47938 0.0
H610 H 0.14648 0.8789 0.43445 0.0
H611 H 0.1359 0.86899 0.35288 0.0
C612 C 0.15108 0.90232 0.56261 0.0
C613 C 0.14147 0.89384 0.60458 0.0
C614 C 0.14422 0.89552 0.51702 0.0
C615 C 0.1277 0.8799 0.51226 0.0
C616 C 0.11806 0.87137 0.55434 0.0
C617 C 0.12486 0.87834 0.60014 0.0
C618 C 0.09647 0.85909 0.4053 0.0
C619 C 0.10839 0.86068 0.36874 0.0
C620 C 0.10263 0.86515 0.45222 0.0
C621 C 0.12078 0.87265 0.46336 0.0
C622 C 0.13252 0.87366 0.42689 0.0
C623 C 0.12643 0.8679 0.3801 0.0
H624 H 0.75463 0.91755 0.08287 0.0
H625 H 0.75902 0.87499 0.14945 0.0
H626 H 0.75573 0.90641 0.00329 0.0
H627 H 0.75904 0.86304 0.0693 0.0
H628 H 0.77634 0.85703 0.91614 0.0
H629 H 0.77589 0.86761 0.998 0.0
H630 H 0.73868 0.88371 0.95003 0.0
H631 H 0.74014 0.87434 0.86855 0.0
C632 C 0.75552 0.90559 0.08038 0.0
C633 C 0.75664 0.89706 0.1222 0.0
C634 C 0.75605 0.89911 0.0347 0.0
C635 C 0.75728 0.88368 0.02969 0.0
C636 C 0.75831 0.87507 0.07173 0.0
C637 C 0.75815 0.88181 0.11762 0.0
C638 C 0.76818 0.86294 0.92337 0.0
C639 C 0.75847 0.86509 0.88601 0.0
C640 C 0.76778 0.86886 0.97025 0.0
C641 C 0.75738 0.87671 0.98063 0.0
C642 C 0.74727 0.87827 0.94326 0.0
C643 C 0.748 0.87276 0.89646 0.0
H644 H 0.0858 0.83029 0.06479 0.0
H645 H 0.1259 0.87866 0.13223 0.0
H646 H 0.09824 0.84221 0.9856 0.0
H647 H 0.13886 0.89041 0.05292 0.0
H648 H 0.14344 0.91288 0.89869 0.0
H649 H 0.13286 0.90147 0.98024 0.0
H650 H 0.12294 0.84968 0.93532 0.0
H651 H 0.13273 0.86088 0.85392 0.0
C652 C 0.09746 0.84337 0.06272 0.0
C653 C 0.10488 0.85354 0.10464 0.0
C654 C 0.10467 0.8502 0.01731 0.0
C655 C 0.11959 0.86728 0.01285 0.0
C656 C 0.12721 0.87732 0.05499 0.0
C657 C 0.11987 0.87054 0.10044 0.0
C658 C 0.139 0.89908 0.9065 0.0
C659 C 0.13862 0.8877 0.86995 0.0
C660 C 0.13306 0.89255 0.9532 0.0
C661 C 0.12688 0.8746 0.96422 0.0
C662 C 0.12715 0.86345 0.92785 0.0
C663 C 0.13283 0.86989 0.88119 0.0
H664 H 0.0923 0.25201 0.91682 0.0
H665 H 0.07827 0.19686 0.91018 0.0
H666 H 0.1024 0.25371 -8e-05 0.0
H667 H 0.08843 0.19867 0.9938 0.0
H668 H 0.10014 0.20789 0.1588 0.0
H669 H 0.08383 0.20514 0.08361 0.0
H670 H 0.12951 0.2521 0.02752 0.0
H671 H 0.14566 0.25476 0.10169 0.0
C672 C 0.09107 0.24015 0.93329 0.0
C673 C 0.08474 0.22436 0.90657 0.0
C674 C 0.09689 0.24116 0.98089 0.0
C675 C 0.09637 0.22638 0.00297 0.0
C676 C 0.08891 0.21024 0.97759 0.0
C677 C 0.08318 0.20924 0.92968 0.0
C678 C 0.10658 0.21771 0.13052 0.0
C679 C 0.12424 0.23146 0.13591 0.0
C680 C 0.09729 0.21607 0.08756 0.0
C681 C 0.10542 0.22843 0.04992 0.0
C682 C 0.12286 0.24248 0.05614 0.0
C683 C 0.13219 0.24391 0.09851 0.0
H684 H 0.88248 0.73944 0.42577 0.0
H685 H 0.88561 0.78706 0.36823 0.0
H686 H 0.86997 0.74314 0.5007 0.0
H687 H 0.87311 0.79087 0.44402 0.0
H688 H 0.87942 0.80082 0.61669 0.0
H689 H 0.88581 0.79765 0.53211 0.0
H690 H 0.84253 0.74351 0.53194 0.0
H691 H 0.83604 0.74658 0.61602 0.0
C692 C 0.88037 0.75062 0.42898 0.0
C693 C 0.88516 0.76304 0.39137 0.0
C694 C 0.87306 0.75266 0.47176 0.0
C695 C 0.87061 0.76731 0.47811 0.0
C696 C 0.87493 0.7795 0.44 0.0
C697 C 0.88197 0.77726 0.39669 0.0
C698 C 0.87104 0.78836 0.59832 0.0
C699 C 0.85741 0.77388 0.62334 0.0
C700 C 0.87465 0.78659 0.54985 0.0
C701 C 0.86476 0.77027 0.52581 0.0
C702 C 0.85046 0.75616 0.54988 0.0
C703 C 0.84676 0.75797 0.59804 0.0
H704 H 0.24007 0.08274 0.60109 0.0
H705 H 0.21611 0.11453 0.63594 0.0
H706 H 0.24589 0.09476 0.51853 0.0
H707 H 0.22202 0.12646 0.55408 0.0
H708 H 0.23489 0.1112 0.36186 0.0
H709 H 0.2293 0.09634 0.44073 0.0
H710 H 0.25163 0.14709 0.51251 0.0
H711 H 0.25721 0.1619 0.43447 0.0
C712 C 0.2358 0.09204 0.59099 0.0
C713 C 0.22777 0.09781 0.62522 0.0
C714 C 0.23915 0.09891 0.54381 0.0
C715 C 0.23468 0.11175 0.53039 0.0
C716 C 0.2259 0.11682 0.56387 0.0
C717 C 0.22241 0.10988 0.61067 0.0
C718 C 0.23886 0.11918 0.39449 0.0
C719 C 0.24636 0.13771 0.39194 0.0
C720 C 0.23566 0.11067 0.43951 0.0
C721 C 0.23976 0.12057 0.48253 0.0
C722 C 0.24805 0.13913 0.47982 0.0
C723 C 0.25136 0.14762 0.43506 0.0
H724 H 0.88753 0.10517 0.63619 0.0
H725 H 0.9201 0.16067 0.59932 0.0
H726 H 0.87587 0.09886 0.554 0.0
H727 H 0.90831 0.15421 0.51664 0.0
H728 H 0.8907 0.12718 0.36063 0.0
H729 H 0.90605 0.13592 0.43903 0.0
H730 H 0.85559 0.1081 0.51273 0.0
H731 H 0.84034 0.09937 0.43538 0.0
C732 C 0.89242 0.11599 0.6104 0.0
C733 C 0.90458 0.13345 0.62449 0.0
C734 C 0.88566 0.11238 0.56341 0.0
C735 C 0.89097 0.12612 0.52936 0.0
C736 C 0.90398 0.14341 0.54232 0.0
C737 C 0.91069 0.14707 0.58962 0.0
C738 C 0.88291 0.12317 0.39362 0.0
C739 C 0.86431 0.1125 0.39179 0.0
C740 C 0.89169 0.12815 0.43836 0.0
C741 C 0.88199 0.12238 0.48176 0.0
C742 C 0.8634 0.11241 0.47977 0.0
C743 C 0.85466 0.10755 0.43536 0.0
H744 H 0.92245 0.44858 0.214 0.0
H745 H 0.87418 0.44423 0.15749 0.0
H746 H 0.91881 0.46122 0.28866 0.0
H747 H 0.87047 0.45704 0.2329 0.0
H748 H 0.86089 0.45205 0.40507 0.0
H749 H 0.86397 0.4453 0.32079 0.0
H750 H 0.91835 0.48813 0.32016 0.0
H751 H 0.9154 0.49489 0.40403 0.0
C752 C 0.9111 0.45041 0.21746 0.0
C753 C 0.89848 0.44521 0.1803 0.0
C754 C 0.90911 0.45785 0.26004 0.0
C755 C 0.89432 0.46006 0.2666 0.0
C756 C 0.88194 0.45539 0.22879 0.0
C757 C 0.88412 0.44819 0.18568 0.0
C758 C 0.87339 0.46023 0.38667 0.0
C759 C 0.88797 0.47381 0.41153 0.0
C760 C 0.87511 0.45643 0.33834 0.0
C761 C 0.89146 0.46609 0.31422 0.0
C762 C 0.90567 0.48034 0.33814 0.0
C763 C 0.90394 0.4842 0.38619 0.0
H764 H 0.57171 0.48225 0.24337 0.0
H765 H 0.54527 0.43344 0.1613 0.0
H766 H 0.55698 0.46611 0.31665 0.0
H767 H 0.53067 0.4172 0.23553 0.0
H768 H 0.52786 0.39708 0.39941 0.0
H769 H 0.54035 0.4104 0.32029 0.0
H770 H 0.52433 0.44944 0.34335 0.0
H771 H 0.5119 0.43634 0.42144 0.0
C772 C 0.56267 0.46811 0.24081 0.0
C773 C 0.55945 0.45919 0.19635 0.0
C774 C 0.55426 0.45887 0.28285 0.0
C775 C 0.54262 0.44046 0.28149 0.0
C776 C 0.53963 0.43139 0.23738 0.0
C777 C 0.54791 0.44071 0.19501 0.0
C778 C 0.52682 0.40836 0.38724 0.0
C779 C 0.51911 0.41578 0.41699 0.0
C780 C 0.53391 0.41592 0.34203 0.0
C781 C 0.53347 0.43106 0.32629 0.0
C782 C 0.52508 0.43795 0.35509 0.0
C783 C 0.51793 0.43038 0.3998 0.0
H784 H 0.58381 0.10698 0.418 0.0
H785 H 0.53058 0.07139 0.46898 0.0
H786 H 0.57224 0.1051 0.33587 0.0
H787 H 0.51926 0.06865 0.3876 0.0
H788 H 0.50062 0.08378 0.25469 0.0
H789 H 0.5136 0.08571 0.33354 0.0
H790 H 0.55899 0.08679 0.26591 0.0
H791 H 0.5462 0.08574 0.18606 0.0
C792 C 0.5697 0.09866 0.41153 0.0
C793 C 0.55807 0.08957 0.44993 0.0
C794 C 0.56308 0.09745 0.36452 0.0
C795 C 0.54477 0.0869 0.35517 0.0
C796 C 0.53335 0.07733 0.39355 0.0
C797 C 0.53987 0.07883 0.44033 0.0
C798 C 0.51332 0.08431 0.25654 0.0
C799 C 0.52234 0.08447 0.21425 0.0
C800 C 0.52076 0.08533 0.30188 0.0
C801 C 0.53728 0.0862 0.30626 0.0
C802 C 0.54632 0.08631 0.26386 0.0
C803 C 0.53895 0.08556 0.21818 0.0
H804 H 0.82958 0.58188 0.74787 0.0
H805 H 0.78203 0.53028 0.74652 0.0
H806 H 0.82488 0.58515 0.83332 0.0
H807 H 0.77736 0.53366 0.8323 0.0
H808 H 0.77779 0.54259 0.99508 0.0
H809 H 0.78955 0.53789 0.91904 0.0
H810 H 0.80077 0.58951 0.86888 0.0
H811 H 0.78912 0.5941 0.94422 0.0
C812 C 0.81828 0.57108 0.76594 0.0
C813 C 0.80599 0.55593 0.74012 0.0
C814 C 0.81561 0.57299 0.81492 0.0
C815 C 0.80067 0.55975 0.83927 0.0
C816 C 0.78906 0.54404 0.81448 0.0
C817 C 0.79168 0.54215 0.76527 0.0
C818 C 0.78319 0.55306 0.96814 0.0
C819 C 0.78238 0.56862 0.97506 0.0
C820 C 0.78977 0.55032 0.92463 0.0
C821 C 0.79597 0.56329 0.88801 0.0
C822 C 0.79619 0.57931 0.89652 0.0
C823 C 0.78935 0.58189 0.93947 0.0
H824 H 0.41728 0.24665 0.72704 0.0
H825 H 0.46732 0.24752 0.71784 0.0
H826 H 0.41554 0.2398 0.81311 0.0
H827 H 0.46544 0.24051 0.80411 0.0
H828 H 0.45993 0.2334 0.96725 0.0
H829 H 0.46394 0.24948 0.89083 0.0
H830 H 0.41004 0.21146 0.85024 0.0
H831 H 0.40613 0.19567 0.92602 0.0
C832 C 0.42807 0.24568 0.74349 0.0
C833 C 0.44229 0.24731 0.71535 0.0
C834 C 0.42704 0.24174 0.79283 0.0
C835 C 0.44024 0.23942 0.81517 0.0
C836 C 0.45512 0.24233 0.78792 0.0
C837 C 0.45613 0.24623 0.73841 0.0
C838 C 0.44887 0.22881 0.94235 0.0
C839 C 0.43281 0.21318 0.95198 0.0
C840 C 0.45119 0.2379 0.8986 0.0
C841 C 0.43734 0.23166 0.86448 0.0
C842 C 0.42093 0.21668 0.87587 0.0
C843 C 0.41873 0.20749 0.91905 0.0
H844 H 0.75452 0.17142 0.73462 0.0
H845 H 0.74679 0.2167 0.72635 0.0
H846 H 0.76171 0.17731 0.82038 0.0
H847 H 0.75415 0.22263 0.81221 0.0
H848 H 0.76216 0.22519 0.97526 0.0
H849 H 0.74656 0.212 0.89895 0.0
H850 H 0.78874 0.20219 0.85713 0.0
H851 H 0.80403 0.21511 0.93283 0.0
C852 C 0.75405 0.18245 0.75122 0.0
C853 C 0.75036 0.19378 0.72341 0.0
C854 C 0.75821 0.18583 0.80037 0.0
C855 C 0.7587 0.20054 0.82285 0.0
C856 C 0.75378 0.21113 0.79595 0.0
C857 C 0.74968 0.20779 0.74666 0.0
C858 C 0.76783 0.21984 0.95007 0.0
C859 C 0.78442 0.22141 0.95944 0.0
C860 C 0.75899 0.21242 0.90638 0.0
C861 C 0.76648 0.20616 0.87196 0.0
C862 C 0.78255 0.20678 0.88297 0.0
C863 C 0.79145 0.21439 0.92612 0.0
H864 H 0.45101 0.21741 0.47451 0.0
H865 H 0.40302 0.21283 0.41477 0.0
H866 H 0.45622 0.20626 0.39822 0.0
H867 H 0.40809 0.20158 0.33927 0.0
H868 H 0.41531 0.17092 0.22036 0.0
H869 H 0.41059 0.17545 0.30494 0.0
H870 H 0.4635 0.22079 0.31196 0.0
H871 H 0.46829 0.21642 0.22691 0.0
C872 C 0.44138 0.21365 0.44552 0.0
C873 C 0.42668 0.21612 0.45033 0.0
C874 C 0.44443 0.20739 0.4019 0.0
C875 C 0.43259 0.20313 0.36293 0.0
C876 C 0.41738 0.20466 0.36886 0.0
C877 C 0.41453 0.21122 0.41198 0.0
C878 C 0.4261 0.18166 0.24006 0.0
C879 C 0.44212 0.19347 0.21667 0.0
C880 C 0.42335 0.18425 0.28848 0.0
C881 C 0.43662 0.19853 0.31475 0.0
C882 C 0.45308 0.20961 0.29252 0.0
C883 C 0.45579 0.20716 0.2438 0.0
H884 H 0.78976 0.19565 0.42769 0.0
H885 H 0.77765 0.23461 0.48431 0.0
H886 H 0.79983 0.21219 0.35206 0.0
H887 H 0.78767 0.25124 0.40795 0.0
H888 H 0.82611 0.25007 0.2306 0.0
H889 H 0.82295 0.24177 0.31584 0.0
H890 H 0.7736 0.24219 0.32217 0.0
H891 H 0.77664 0.25044 0.23652 0.0
C892 C 0.78952 0.20791 0.42419 0.0
C893 C 0.78278 0.21377 0.46155 0.0
C894 C 0.79541 0.21746 0.38103 0.0
C895 C 0.79442 0.23294 0.3741 0.0
C896 C 0.78848 0.23929 0.41237 0.0
C897 C 0.78289 0.22987 0.45605 0.0
C898 C 0.81474 0.24874 0.25025 0.0
C899 C 0.80147 0.25067 0.22652 0.0
C900 C 0.81295 0.24396 0.29909 0.0
C901 C 0.79798 0.24121 0.32542 0.0
C902 C 0.78534 0.24435 0.30275 0.0
C903 C 0.78703 0.24896 0.25365 0.0
H904 H 0.81099 0.59367 0.43766 0.0
H905 H 0.76689 0.54565 0.49483 0.0
H906 H 0.79487 0.58964 0.36236 0.0
H907 H 0.75065 0.5415 0.41871 0.0
H908 H 0.74768 0.53094 0.24681 0.0
H909 H 0.75699 0.53468 0.33167 0.0
H910 H 0.76703 0.58851 0.32883 0.0
H911 H 0.75771 0.58486 0.24436 0.0
C912 C 0.79778 0.58235 0.43432 0.0
C913 C 0.79027 0.5699 0.47192 0.0
C914 C 0.78847 0.58011 0.39131 0.0
C915 C 0.77153 0.56523 0.38469 0.0
C916 C 0.76372 0.55305 0.42289 0.0
C917 C 0.77295 0.55548 0.46642 0.0
C918 C 0.75152 0.54344 0.26457 0.0
C919 C 0.75218 0.55766 0.23861 0.0
C920 C 0.75676 0.54554 0.31321 0.0
C921 C 0.76288 0.56194 0.33658 0.0
C922 C 0.76253 0.57579 0.31149 0.0
C923 C 0.75714 0.57365 0.26312 0.0
H924 H 0.5399 0.09212 0.68566 0.0
H925 H 0.57852 0.08191 0.75453 0.0
H926 H 0.52562 0.08929 0.76407 0.0
H927 H 0.56474 0.07969 0.83255 0.0
H928 H 0.52787 0.05977 0.95822 0.0
H929 H 0.53871 0.06057 0.87668 0.0
H930 H 0.53023 0.10417 0.84115 0.0
H931 H 0.51864 0.10284 0.92285 0.0
C932 C 0.54534 0.0893 0.71753 0.0
C933 C 0.56023 0.08709 0.71396 0.0
C934 C 0.53723 0.08778 0.76244 0.0
C935 C 0.54395 0.08414 0.80456 0.0
C936 C 0.55894 0.08208 0.80075 0.0
C937 C 0.56691 0.08344 0.75599 0.0
C938 C 0.52827 0.0695 0.93296 0.0
C939 C 0.52267 0.08142 0.94697 0.0
C940 C 0.53455 0.07001 0.88626 0.0
C941 C 0.53564 0.08264 0.85261 0.0
C942 C 0.52947 0.09421 0.86612 0.0
C943 C 0.52293 0.09353 0.9129 0.0
H944 H 0.92189 0.48131 0.71972 0.0
H945 H 0.87761 0.4352 0.65528 0.0
H946 H 0.91809 0.46479 0.79398 0.0
H947 H 0.87368 0.41855 0.7305 0.0
H948 H 0.86072 0.41136 0.90159 0.0
H949 H 0.86448 0.42214 0.81807 0.0
H950 H 0.92008 0.43814 0.82409 0.0
H951 H 0.91644 0.4274 0.90709 0.0
C952 C 0.91141 0.46762 0.72125 0.0
C953 C 0.89999 0.45961 0.68176 0.0
C954 C 0.90932 0.45809 0.76372 0.0
C955 C 0.89559 0.4404 0.76793 0.0
C956 C 0.88434 0.4322 0.72815 0.0
C957 C 0.88665 0.44169 0.68516 0.0
C958 C 0.87366 0.41686 0.88478 0.0
C959 C 0.88832 0.41875 0.91126 0.0
C960 C 0.87578 0.42294 0.83692 0.0
C961 C 0.89261 0.43112 0.81495 0.0
C962 C 0.90701 0.43206 0.84043 0.0
C963 C 0.90488 0.42587 0.88796 0.0
H964 H 0.50081 0.41818 0.73834 0.0
H965 H 0.54841 0.45887 0.66905 0.0
H966 H 0.51347 0.4299 0.81701 0.0
H967 H 0.56096 0.47127 0.74862 0.0
H968 H 0.58377 0.47422 0.90406 0.0
H969 H 0.5727 0.46556 0.82105 0.0
H970 H 0.52052 0.45382 0.86828 0.0
H971 H 0.53127 0.46133 0.95061 0.0
C972 C 0.5139 0.42987 0.73992 0.0
C973 C 0.52357 0.43767 0.69752 0.0
C974 C 0.52115 0.43668 0.78516 0.0
C975 C 0.53818 0.45169 0.78929 0.0
C976 C 0.54787 0.45962 0.74677 0.0
C977 C 0.54065 0.4526 0.70124 0.0
C978 C 0.56997 0.46983 0.89632 0.0
C979 C 0.55829 0.46812 0.93374 0.0
C980 C 0.56364 0.46498 0.84884 0.0
C981 C 0.54562 0.45867 0.83811 0.0
C982 C 0.53432 0.45804 0.87538 0.0
C983 C 0.54051 0.46247 0.92264 0.0
H984 H 0.59847 0.79882 0.79574 0.0
H985 H 0.55591 0.80828 0.75593 0.0
H986 H 0.59956 0.78957 0.71359 0.0
H987 H 0.55637 0.79812 0.67327 0.0
H988 H 0.57189 0.79005 0.51865 0.0
H989 H 0.57271 0.80347 0.59744 0.0
H990 H 0.5811 0.76388 0.6679 0.0
H991 H 0.58091 0.75106 0.59004 0.0
C992 C 0.58923 0.79878 0.76933 0.0
C993 C 0.57687 0.80393 0.78226 0.0
C994 C 0.58981 0.79343 0.72225 0.0
C995 C 0.57778 0.79271 0.68711 0.0
C996 C 0.56584 0.79856 0.6995 0.0
C997 C 0.56549 0.80426 0.74675 0.0
C998 C 0.57402 0.78436 0.55111 0.0
C999 C 0.57656 0.76966 0.54822 0.0
C1000 C 0.57438 0.79196 0.59616 0.0
C1001 C 0.57719 0.78488 0.63891 0.0
C1002 C 0.57941 0.77 0.63568 0.0
C1003 C 0.57922 0.76257 0.59095 0.0
H1004 H 0.22045 0.80757 0.54742 0.0
H1005 H 0.22967 0.76625 0.49421 0.0
H1006 H 0.2084 0.79113 0.62227 0.0
H1007 H 0.21754 0.74963 0.56988 0.0
H1008 H 0.22243 0.74697 0.74329 0.0
H1009 H 0.22902 0.75654 0.65876 0.0
H1010 H 0.18251 0.76217 0.65287 0.0
H1011 H 0.17584 0.75263 0.73693 0.0
C1012 C 0.21982 0.79493 0.55164 0.0
C1013 C 0.22619 0.7883 0.51533 0.0
C1014 C 0.21274 0.7854 0.59432 0.0
C1015 C 0.21207 0.76913 0.60185 0.0
C1016 C 0.21797 0.76219 0.56496 0.0
C1017 C 0.22479 0.77162 0.52172 0.0
C1018 C 0.21342 0.7499 0.72368 0.0
C1019 C 0.19878 0.74931 0.7471 0.0
C1020 C 0.21715 0.75528 0.67523 0.0
C1021 C 0.20636 0.76026 0.64957 0.0
C1022 C 0.19114 0.7586 0.67206 0.0
C1023 C 0.18733 0.7531 0.72021 0.0
H1024 H 0.22214 0.43228 0.51908 0.0
H1025 H 0.17137 0.41044 0.59131 0.0
H1026 H 0.23683 0.43725 0.59802 0.0
H1027 H 0.18596 0.4152 0.6693 0.0
H1028 H 0.21803 0.44863 0.79527 0.0
H1029 H 0.20617 0.44347 0.71348 0.0
H1030 H 0.23866 0.42083 0.67398 0.0
H1031 H 0.25071 0.42603 0.75647 0.0
C1032 C 0.2141 0.42828 0.55162 0.0
C1033 C 0.1956 0.42108 0.54894 0.0
C1034 C 0.22251 0.43111 0.5967 0.0
C1035 C 0.21254 0.42688 0.63966 0.0
C1036 C 0.194 0.41891 0.63674 0.0
C1037 C 0.18563 0.41605 0.59195 0.0
C1038 C 0.22284 0.44273 0.76917 0.0
C1039 C 0.23519 0.43759 0.78254 0.0
C1040 C 0.21594 0.43967 0.72238 0.0
C1041 C 0.22127 0.43146 0.68773 0.0
C1042 C 0.23431 0.42714 0.70011 0.0
C1043 C 0.24119 0.43012 0.74727 0.0
H1044 H 0.48751 0.90183 0.08068 0.0
H1045 H 0.43155 0.87223 0.04605 0.0
H1046 H 0.48022 0.90607 0.16355 0.0
H1047 H 0.42443 0.87661 0.12837 0.0
H1048 H 0.45314 0.89422 0.3206 0.0
H1049 H 0.46258 0.88815 0.24246 0.0
H1050 H 0.43109 0.90638 0.1677 0.0
H1051 H 0.4218 0.91253 0.2448 0.0
C1052 C 0.47368 0.89596 0.09092 0.0
C1053 C 0.4601 0.88687 0.05661 0.0
C1054 C 0.46954 0.89838 0.13832 0.0
C1055 C 0.4518 0.89189 0.1519 0.0
C1056 C 0.43824 0.88196 0.11846 0.0
C1057 C 0.44233 0.87939 0.07139 0.0
C1058 C 0.44842 0.8971 0.28741 0.0
C1059 C 0.43668 0.90379 0.28886 0.0
C1060 C 0.45381 0.89363 0.24286 0.0
C1061 C 0.44731 0.89655 0.19929 0.0
C1062 C 0.43604 0.90373 0.20085 0.0
C1063 C 0.43085 0.90739 0.24507 0.0
H1064 H 0.13586 0.58892 0.07325 0.0
H1065 H 0.08032 0.57376 0.07167 0.0
H1066 H 0.13257 0.57797 0.15654 0.0
H1067 H 0.07716 0.56284 0.15432 0.0
H1068 H 0.07535 0.51911 0.25623 0.0
H1069 H 0.07916 0.53571 0.1821 0.0
H1070 H 0.1238 0.58178 0.24544 0.0
H1071 H 0.11986 0.56506 0.32056 0.0
C1072 C 0.12307 0.58358 0.09087 0.0
C1073 C 0.1083 0.58196 0.06556 0.0
C1074 C 0.12122 0.5774 0.13857 0.0
C1075 C 0.10456 0.56941 0.16147 0.0
C1076 C 0.09009 0.56877 0.1372 0.0
C1077 C 0.09195 0.57505 0.08987 0.0
C1078 C 0.0859 0.53277 0.25466 0.0
C1079 C 0.09736 0.54073 0.29411 0.0
C1080 C 0.088 0.54234 0.21229 0.0
C1081 C 0.10176 0.56002 0.20816 0.0
C1082 C 0.11311 0.56814 0.24779 0.0
C1083 C 0.11079 0.55861 0.2907 0.0
H1084 H 0.41513 0.55518 0.05344 0.0
H1085 H 0.41419 0.50592 0.08259 0.0
H1086 H 0.42289 0.56395 0.1379 0.0
H1087 H 0.42182 0.51474 0.16729 0.0
H1088 H 0.4289 0.53716 0.32648 0.0
H1089 H 0.41242 0.52548 0.24991 0.0
H1090 H 0.4538 0.57039 0.17324 0.0
H1091 H 0.47026 0.58167 0.24829 0.0
C1092 C 0.41613 0.54602 0.07805 0.0
C1093 C 0.41438 0.53 0.06111 0.0
C1094 C 0.42054 0.55104 0.12639 0.0
C1095 C 0.42304 0.54005 0.15882 0.0
C1096 C 0.41984 0.52339 0.143 0.0
C1097 C 0.41562 0.51843 0.09445 0.0
C1098 C 0.43431 0.54451 0.29319 0.0
C1099 C 0.45087 0.56022 0.29309 0.0
C1100 C 0.42494 0.53786 0.24962 0.0
C1101 C 0.43181 0.54717 0.20597 0.0
C1102 C 0.4481 0.5631 0.20647 0.0
C1103 C 0.45757 0.56946 0.24939 0.0
H1104 H 0.07548 0.55856 0.75522 0.0
H1105 H 0.11744 0.55326 0.82235 0.0
H1106 H 0.079 0.54563 0.68102 0.0
H1107 H 0.12112 0.5404 0.74712 0.0
H1108 H 0.07866 0.50814 0.56979 0.0
H1109 H 0.07526 0.51588 0.65222 0.0
H1110 H 0.13143 0.55346 0.65923 0.0
H1111 H 0.13497 0.54582 0.57614 0.0
C1112 C 0.08537 0.55453 0.75432 0.0
C1113 C 0.0962 0.55698 0.79461 0.0
C1114 C 0.08732 0.54701 0.71184 0.0
C1115 C 0.10032 0.54201 0.70845 0.0
C1116 C 0.11103 0.54419 0.74889 0.0
C1117 C 0.10885 0.55145 0.79187 0.0
C1118 C 0.09039 0.51787 0.58898 0.0
C1119 C 0.10707 0.52657 0.56609 0.0
C1120 C 0.08839 0.52229 0.63619 0.0
C1121 C 0.10304 0.53537 0.66176 0.0
C1122 C 0.11993 0.54327 0.64024 0.0
C1123 C 0.12193 0.53895 0.59266 0.0
H1124 H 0.44998 0.52303 0.76588 0.0
H1125 H 0.44598 0.56687 0.82452 0.0
H1126 H 0.4615 0.53911 0.69046 0.0
H1127 H 0.45771 0.5832 0.74837 0.0
H1128 H 0.44951 0.58743 0.57873 0.0
H1129 H 0.44473 0.57802 0.66348 0.0
H1130 H 0.487 0.56579 0.65387 0.0
H1131 H 0.49173 0.57504 0.56933 0.0
C1132 C 0.45174 0.53619 0.76287 0.0
C1133 C 0.44686 0.54358 0.80088 0.0
C1134 C 0.45853 0.54551 0.71974 0.0
C1135 C 0.46044 0.5624 0.71342 0.0
C1136 C 0.45626 0.57015 0.75218 0.0
C1137 C 0.44968 0.56087 0.79577 0.0
C1138 C 0.45799 0.58304 0.59493 0.0
C1139 C 0.47081 0.58172 0.56703 0.0
C1140 C 0.45533 0.57775 0.64357 0.0
C1141 C 0.46538 0.571 0.6651 0.0
C1142 C 0.4789 0.57071 0.63801 0.0
C1143 C 0.48161 0.57605 0.58958 0.0
H1144 H 0.47841 0.91889 0.75325 0.0
H1145 H 0.43033 0.87754 0.81899 0.0
H1146 H 0.46228 0.91624 0.67905 0.0
H1147 H 0.41417 0.87465 0.74353 0.0
H1148 H 0.42543 0.91933 0.57126 0.0
H1149 H 0.43647 0.92134 0.65329 0.0
H1150 H 0.41707 0.86499 0.65357 0.0
H1151 H 0.406 0.86285 0.57071 0.0
C1152 C 0.46438 0.90935 0.75214 0.0
C1153 C 0.45565 0.89851 0.79218 0.0
C1154 C 0.45513 0.90786 0.70958 0.0
C1155 C 0.437 0.89529 0.70579 0.0
C1156 C 0.42816 0.88443 0.74571 0.0
C1157 C 0.43739 0.88616 0.7888 0.0
C1158 C 0.42324 0.90727 0.58885 0.0
C1159 C 0.41505 0.89094 0.56414 0.0
C1160 C 0.42959 0.90847 0.63584 0.0
C1161 C 0.42775 0.89336 0.65936 0.0
C1162 C 0.41858 0.87682 0.63609 0.0
C1163 C 0.41233 0.87562 0.58869 0.0
H1164 H 0.20629 0.46557 0.2646 0.0
H1165 H 0.176 0.40821 0.26945 0.0
H1166 H 0.21705 0.46404 0.18356 0.0
H1167 H 0.18689 0.40685 0.18938 0.0
H1168 H 0.23354 0.41475 0.09028 0.0
H1169 H 0.21958 0.41662 0.16462 0.0
H1170 H 0.20471 0.45157 0.09429 0.0
H1171 H 0.21841 0.4494 0.01886 0.0
C1172 C 0.20175 0.45269 0.24823 0.0
C1173 C 0.19045 0.43703 0.27369 0.0
C1174 C 0.20785 0.45184 0.20189 0.0
C1175 C 0.20289 0.43533 0.18072 0.0
C1176 C 0.19103 0.41973 0.20526 0.0
C1177 C 0.18478 0.42056 0.25108 0.0
C1178 C 0.22714 0.42266 0.09023 0.0
C1179 C 0.22692 0.43176 0.04846 0.0
C1180 C 0.21915 0.42373 0.13287 0.0
C1181 C 0.21104 0.43418 0.13493 0.0
C1182 C 0.21092 0.44345 0.09346 0.0
C1183 C 0.21866 0.44211 0.05039 0.0
H1184 H 0.57168 0.77897 0.01884 0.0
H1185 H 0.58109 0.82712 0.09009 0.0
H1186 H 0.57312 0.7666 0.09737 0.0
H1187 H 0.58189 0.8147 0.16783 0.0
H1188 H 0.59974 0.79719 0.295 0.0
H1189 H 0.6005 0.80749 0.21291 0.0
H1190 H 0.55718 0.7557 0.17353 0.0
H1191 H 0.55704 0.74513 0.25605 0.0
C1192 C 0.57403 0.78688 0.05123 0.0
C1193 C 0.57646 0.80408 0.04835 0.0
C1194 C 0.57475 0.77977 0.09614 0.0
C1195 C 0.57781 0.78973 0.13882 0.0
C1196 C 0.58 0.80683 0.13564 0.0
C1197 C 0.57945 0.81394 0.09099 0.0
C1198 C 0.59041 0.78797 0.26878 0.0
C1199 C 0.5781 0.77047 0.28193 0.0
C1200 C 0.5908 0.79388 0.22175 0.0
C1201 C 0.57864 0.78254 0.18691 0.0
C1202 C 0.56676 0.76476 0.1995 0.0
C1203 C 0.56659 0.75872 0.24669 0.0
H1204 H 0.24393 0.82412 0.24 0.0
H1205 H 0.25657 0.78197 0.23975 0.0
H1206 H 0.23362 0.81701 0.15663 0.0
H1207 H 0.24626 0.77497 0.15584 0.0
H1208 H 0.23501 0.77517 0.99178 0.0
H1209 H 0.25138 0.78766 0.06748 0.0
H1210 H 0.20606 0.78888 0.12656 0.0
H1211 H 0.18978 0.77636 0.05181 0.0
C1212 C 0.24483 0.81355 0.22194 0.0
C1213 C 0.25085 0.80344 0.24679 0.0
C1214 C 0.23888 0.80948 0.17421 0.0
C1215 C 0.239 0.79536 0.15008 0.0
C1216 C 0.24611 0.78599 0.17364 0.0
C1217 C 0.25192 0.78994 0.22171 0.0
C1218 C 0.22867 0.77835 0.02078 0.0
C1219 C 0.21106 0.77467 0.01603 0.0
C1220 C 0.23799 0.78538 0.06404 0.0
C1221 C 0.22996 0.78922 0.10273 0.0
C1222 C 0.21262 0.78619 0.09714 0.0
C1223 C 0.20323 0.77888 0.0544 0.0
H1224 H 0.208 0.2518 0.31577 0.0
H1225 H 0.22563 0.26979 0.16948 0.0
H1226 H 0.2329 0.24701 0.32743 0.0
H1227 H 0.25081 0.26518 0.18154 0.0
H1228 H 0.27454 0.23457 0.34349 0.0
H1229 H 0.26444 0.25585 0.33075 0.0
H1230 H 0.24805 0.23578 0.18546 0.0
H1231 H 0.25829 0.21479 0.19784 0.0
C1232 C 0.21751 0.25528 0.28658 0.0
C1233 C 0.21452 0.26067 0.24124 0.0
C1234 C 0.23194 0.2527 0.29343 0.0
C1235 C 0.24367 0.25541 0.25505 0.0
C1236 C 0.24182 0.26271 0.2115 0.0
C1237 C 0.22739 0.26537 0.20469 0.0
C1238 C 0.2694 0.23516 0.3082 0.0
C1239 C 0.26673 0.22265 0.27212 0.0
C1240 C 0.26355 0.24732 0.30102 0.0
C1241 C 0.25508 0.24723 0.25755 0.0
C1242 C 0.25451 0.23624 0.21942 0.0
C1243 C 0.26026 0.22406 0.22666 0.0
H1244 H 0.74767 0.95986 0.32856 0.0
H1245 H 0.72275 0.95899 0.19215 0.0
H1246 H 0.7551 0.99049 0.34088 0.0
H1247 H 0.73029 0.98968 0.20466 0.0
H1248 H 0.76823 0.04563 0.35656 0.0
H1249 H 0.74644 0.01416 0.34907 0.0
H1250 H 0.76189 0.01517 0.19988 0.0
H1251 H 0.78371 0.04655 0.20721 0.0
C1252 C 0.74326 0.96598 0.30196 0.0
C1253 C 0.73504 0.9571 0.25879 0.0
C1254 C 0.74742 0.98353 0.30917 0.0
C1255 C 0.74353 0.99254 0.27326 0.0
C1256 C 0.73364 0.98309 0.23259 0.0
C1257 C 0.72931 0.96548 0.22557 0.0
C1258 C 0.76658 0.03932 0.32163 0.0
C1259 C 0.778 0.04851 0.28273 0.0
C1260 C 0.75412 0.02127 0.3175 0.0
C1261 C 0.75266 0.01218 0.2742 0.0
C1262 C 0.76266 0.02183 0.23373 0.0
C1263 C 0.77526 0.03981 0.238 0.0
H1264 H 0.9531 0.7313 0.36822 0.0
H1265 H 0.94954 0.74174 0.21671 0.0
H1266 H 0.98324 0.73688 0.35519 0.0
H1267 H 0.97952 0.7474 0.20388 0.0
H1268 H 0.03993 0.7872 0.31946 0.0
H1269 H 0.00914 0.76666 0.33958 0.0
H1270 H 0.00264 0.73882 0.20479 0.0
H1271 H 0.03351 0.75955 0.18419 0.0
C1272 C 0.9585 0.73421 0.33185 0.0
C1273 C 0.94911 0.7365 0.29368 0.0
C1274 C 0.97578 0.73746 0.32447 0.0
C1275 C 0.98384 0.74283 0.27873 0.0
C1276 C 0.9737 0.7432 0.23955 0.0
C1277 C 0.95653 0.74012 0.24699 0.0
C1278 C 0.03213 0.77639 0.29471 0.0
C1279 C 0.03904 0.77535 0.24957 0.0
C1280 C 0.01447 0.76448 0.30648 0.0
C1281 C 0.00337 0.75133 0.27329 0.0
C1282 C 0.01083 0.74903 0.23068 0.0
C1283 C 0.02855 0.7609 0.21899 0.0
H1284 H 0.78589 0.73888 0.72226 0.0
H1285 H 0.77411 0.72894 0.87504 0.0
H1286 H 0.76225 0.74579 0.71357 0.0
H1287 H 0.75027 0.73579 0.86617 0.0
H1288 H 0.72342 0.76207 0.70124 0.0
H1289 H 0.73128 0.73944 0.71901 0.0
H1290 H 0.75603 0.76634 0.85257 0.0
H1291 H 0.74808 0.7888 0.83525 0.0
C1292 C 0.77785 0.73758 0.75368 0.0
C1293 C 0.78218 0.73384 0.79955 0.0
C1294 C 0.76415 0.74139 0.74864 0.0
C1295 C 0.75459 0.74164 0.78943 0.0
C1296 C 0.75759 0.73593 0.83426 0.0
C1297 C 0.77122 0.73196 0.83924 0.0
C1298 C 0.73 0.76284 0.73524 0.0
C1299 C 0.73564 0.77757 0.76611 0.0
C1300 C 0.73451 0.74986 0.74532 0.0
C1301 C 0.74462 0.75132 0.78658 0.0
C1302 C 0.74824 0.76479 0.82042 0.0
C1303 C 0.7438 0.77781 0.81026 0.0
H1304 H 0.25586 0.04716 0.70475 0.0
H1305 H 0.2695 0.04488 0.85418 0.0
H1306 H 0.24978 0.01701 0.69248 0.0
H1307 H 0.26343 0.01458 0.84171 0.0
H1308 H 0.23647 0.96267 0.67471 0.0
H1309 H 0.2581 0.99352 0.69241 0.0
H1310 H 0.23282 0.98897 0.83054 0.0
H1311 H 0.2113 0.95819 0.81322 0.0
C1312 C 0.25812 0.04042 0.73456 0.0
C1313 C 0.26272 0.04823 0.78071 0.0
C1314 C 0.25479 0.02316 0.72743 0.0
C1315 C 0.25587 0.01333 0.7664 0.0
C1316 C 0.2623 0.0218 0.81122 0.0
C1317 C 0.26581 0.03917 0.81825 0.0
C1318 C 0.23587 0.96805 0.70958 0.0
C1319 C 0.22182 0.95812 0.74196 0.0
C1320 C 0.24827 0.98574 0.71962 0.0
C1321 C 0.24694 0.99375 0.76237 0.0
C1322 C 0.23423 0.9832 0.79727 0.0
C1323 C 0.22177 0.96555 0.78713 0.0
H1324 H 0.95998 0.23234 0.83878 0.0
H1325 H 0.95839 0.21067 0.69672 0.0
H1326 H 0.99066 0.25544 0.82471 0.0
H1327 H 0.98897 0.23346 0.68313 0.0
H1328 H 0.04627 0.25759 0.81454 0.0
H1329 H 0.01562 0.25005 0.82488 0.0
H1330 H 0.01369 0.26383 0.67542 0.0
H1331 H 0.04447 0.27116 0.66477 0.0
C1332 C 0.96595 0.2328 0.80398 0.0
C1333 C 0.95691 0.21935 0.7694 0.0
C1334 C 0.98356 0.24603 0.79602 0.0
C1335 C 0.99238 0.24608 0.75327 0.0
C1336 C 0.98262 0.23388 0.71647 0.0
C1337 C 0.96508 0.22065 0.72447 0.0
C1338 C 0.03951 0.25955 0.78423 0.0
C1339 C 0.04764 0.26447 0.73847 0.0
C1340 C 0.02192 0.25537 0.79027 0.0
C1341 C 0.01208 0.25598 0.75064 0.0
C1342 C 0.02085 0.26292 0.70638 0.0
C1343 C 0.03852 0.26719 0.70037 0.0
H1344 H 0.87551 0.58726 0.6409 0.0
H1345 H 0.8908 0.60396 0.49263 0.0
H1346 H 0.89874 0.57977 0.6473 0.0
H1347 H 0.91445 0.59676 0.49942 0.0
H1348 H 0.91634 0.54326 0.50838 0.0
H1349 H 0.90918 0.56668 0.50054 0.0
H1350 H 0.92866 0.58465 0.64553 0.0
H1351 H 0.93551 0.56083 0.65388 0.0
C1352 C 0.88423 0.58991 0.61014 0.0
C1353 C 0.88093 0.59566 0.56579 0.0
C1354 C 0.89773 0.58577 0.61395 0.0
C1355 C 0.90822 0.58728 0.57345 0.0
C1356 C 0.90634 0.59511 0.53094 0.0
C1357 C 0.89282 0.59931 0.52715 0.0
C1358 C 0.9196 0.55249 0.53815 0.0
C1359 C 0.92592 0.54978 0.58235 0.0
C1360 C 0.91565 0.5661 0.53347 0.0
C1361 C 0.91796 0.57731 0.57289 0.0
C1362 C 0.92638 0.57598 0.6149 0.0
C1363 C 0.93035 0.56234 0.61959 0.0
H1364 H 0.40692 0.2832 0.61691 0.0
H1365 H 0.39428 0.28317 0.46539 0.0
H1366 H 0.41353 0.31369 0.62403 0.0
H1367 H 0.40082 0.31381 0.47272 0.0
H1368 H 0.42741 0.3685 0.63324 0.0
H1369 H 0.4058 0.33736 0.61906 0.0
H1370 H 0.43113 0.33952 0.48259 0.0
H1371 H 0.45257 0.37059 0.49631 0.0
C1372 C 0.40501 0.28952 0.58547 0.0
C1373 C 0.40051 0.28092 0.54034 0.0
C1374 C 0.40865 0.30699 0.58964 0.0
C1375 C 0.40795 0.31625 0.54869 0.0
C1376 C 0.40168 0.30706 0.50471 0.0
C1377 C 0.39788 0.28949 0.50062 0.0
C1378 C 0.42803 0.36251 0.59943 0.0
C1379 C 0.44205 0.3719 0.56655 0.0
C1380 C 0.41565 0.34465 0.59142 0.0
C1381 C 0.41699 0.3359 0.55025 0.0
C1382 C 0.4297 0.34585 0.51469 0.0
C1383 C 0.44212 0.36368 0.52277 0.0
H1384 H 0.62232 0.07162 0.50442 0.0
H1385 H 0.63582 0.07709 0.65621 0.0
H1386 H 0.65277 0.08013 0.48362 0.0
H1387 H 0.66632 0.08746 0.63643 0.0
H1388 H 0.72209 0.1137 0.60332 0.0
H1389 H 0.6915 0.08986 0.61275 0.0
H1390 H 0.67849 0.10467 0.47508 0.0
H1391 H 0.70927 0.12668 0.46402 0.0
C1392 C 0.63184 0.07453 0.53328 0.0
C1393 C 0.62681 0.0739 0.5818 0.0
C1394 C 0.64943 0.0797 0.52152 0.0
C1395 C 0.66256 0.08527 0.55798 0.0
C1396 C 0.65699 0.08327 0.60673 0.0
C1397 C 0.63932 0.07739 0.61839 0.0
C1398 C 0.71267 0.11124 0.57452 0.0
C1399 C 0.71787 0.12199 0.53317 0.0
C1400 C 0.695 0.09778 0.58011 0.0
C1401 C 0.68197 0.09556 0.54579 0.0
C1402 C 0.68774 0.10557 0.50261 0.0
C1403 C 0.70552 0.11841 0.49615 0.0
H1404 H 0.4152 0.12326 0.9598 0.0
H1405 H 0.39046 0.11445 0.10007 0.0
H1406 H 0.42179 0.09987 0.97438 0.0
H1407 H 0.39499 0.08933 0.11329 0.0
H1408 H 0.43667 0.07508 0.16015 0.0
H1409 H 0.41721 0.08607 0.13819 0.0
H1410 H 0.42107 0.0745 0.98721 0.0
H1411 H 0.44234 0.06533 0.00984 0.0
C1412 C 0.41039 0.11562 0.99294 0.0
C1413 C 0.40262 0.12075 0.02917 0.0
C1414 C 0.41407 0.10199 0.00147 0.0
C1415 C 0.40954 0.09279 0.04604 0.0
C1416 C 0.39961 0.09657 0.07959 0.0
C1417 C 0.39667 0.11077 0.07185 0.0
C1418 C 0.43305 0.07455 0.12234 0.0
C1419 C 0.44128 0.06974 0.08657 0.0
C1420 C 0.42166 0.08079 0.10944 0.0
C1421 C 0.41774 0.08185 0.06035 0.0
C1422 C 0.42433 0.07484 0.02515 0.0
C1423 C 0.43635 0.06929 0.03801 0.0
H1424 H 0.92892 0.38264 0.01589 0.0
H1425 H 0.9135 0.36961 0.1654 0.0
H1426 H 0.92166 0.35218 0.00065 0.0
H1427 H 0.90439 0.33903 0.14995 0.0
H1428 H 0.87911 0.28333 0.11911 0.0
H1429 H 0.90304 0.3136 0.13294 0.0
H1430 H 0.89706 0.32691 0.98525 0.0
H1431 H 0.87486 0.29642 0.97094 0.0
C1432 C 0.92417 0.37323 0.04559 0.0
C1433 C 0.92154 0.37834 0.09159 0.0
C1434 C 0.91971 0.35565 0.03686 0.0
C1435 C 0.91163 0.34262 0.07334 0.0
C1436 C 0.91056 0.34831 0.12047 0.0
C1437 C 0.91572 0.366 0.12956 0.0
C1438 C 0.88354 0.29272 0.08936 0.0
C1439 C 0.87511 0.28771 0.04419 0.0
C1440 C 0.89706 0.3102 0.09732 0.0
C1441 C 0.9017 0.32324 0.06103 0.0
C1442 C 0.8942 0.31761 0.01452 0.0
C1443 C 0.88126 0.29999 0.0061 0.0
H1444 H 0.70711 0.58144 0.97534 0.0
H1445 H 0.71864 0.60299 0.11993 0.0
H1446 H 0.67623 0.57227 0.98606 0.0
H1447 H 0.68792 0.5958 0.12953 0.0
H1448 H 0.63252 0.55015 0.16543 0.0
H1449 H 0.66288 0.57179 0.14898 0.0
H1450 H 0.65027 0.57063 0.99646 0.0
H1451 H 0.61998 0.54726 0.01328 0.0
C1452 C 0.70308 0.58497 0.00874 0.0
C1453 C 0.71507 0.59258 0.04716 0.0
C1454 C 0.68523 0.5798 0.01502 0.0
C1455 C 0.67906 0.58263 0.05954 0.0
C1456 C 0.69175 0.59244 0.09563 0.0
C1457 C 0.70948 0.59689 0.09003 0.0
C1458 C 0.63616 0.55479 0.12847 0.0
C1459 C 0.62402 0.54674 0.09048 0.0
C1460 C 0.65375 0.56746 0.11881 0.0
C1461 C 0.65958 0.57285 0.07086 0.0
C1462 C 0.64672 0.56631 0.03358 0.0
C1463 C 0.62922 0.55306 0.04314 0.0
H1464 H 0.55521 0.93649 0.82691 0.0
H1465 H 0.53928 0.91882 0.97431 0.0
H1466 H 0.57972 0.93065 0.83488 0.0
H1467 H 0.56371 0.91301 0.98208 0.0
H1468 H 0.58397 0.87788 0.8496 0.0
H1469 H 0.5747 0.89974 0.83883 0.0
H1470 H 0.59581 0.92174 0.97979 0.0
H1471 H 0.6051 0.89981 0.99082 0.0
C1472 C 0.55727 0.93196 0.86157 0.0
C1473 C 0.545 0.92765 0.89961 0.0
C1474 C 0.57132 0.92859 0.86601 0.0
C1475 C 0.57345 0.92109 0.90874 0.0
C1476 C 0.56247 0.91884 0.94867 0.0
C1477 C 0.54834 0.92204 0.94411 0.0
C1478 C 0.5872 0.88774 0.87764 0.0
C1479 C 0.59478 0.88674 0.92165 0.0
C1480 C 0.58201 0.9004 0.87131 0.0
C1481 C 0.58422 0.91223 0.90896 0.0
C1482 C 0.59371 0.9126 0.95052 0.0
C1483 C 0.59905 0.90002 0.95671 0.0
H1484 H 0.06344 0.62437 0.82377 0.0
H1485 H 0.08113 0.62461 0.97034 0.0
H1486 H 0.07182 0.65547 0.83206 0.0
H1487 H 0.08972 0.6556 0.97822 0.0
H1488 H 0.12677 0.70976 0.84019 0.0
H1489 H 0.10267 0.67945 0.83237 0.0
H1490 H 0.08552 0.6813 0.97813 0.0
H1491 H 0.10993 0.71171 0.98635 0.0
C1492 C 0.06858 0.63085 0.85829 0.0
C1493 C 0.07216 0.62216 0.8959 0.0
C1494 C 0.07342 0.6487 0.86293 0.0
C1495 C 0.08183 0.65813 0.90531 0.0
C1496 C 0.08328 0.64879 0.945 0.0
C1497 C 0.07849 0.63099 0.94034 0.0
C1498 C 0.11757 0.70394 0.87012 0.0
C1499 C 0.12063 0.71297 0.91441 0.0
C1500 C 0.10358 0.68655 0.86548 0.0
C1501 C 0.09238 0.67782 0.90506 0.0
C1502 C 0.09414 0.68758 0.94733 0.0
C1503 C 0.10812 0.70504 0.95193 0.0
H1504 H 0.29969 0.41453 0.012 0.0
H1505 H 0.28582 0.40272 0.86122 0.0
H1506 H 0.32998 0.42324 0.99412 0.0
H1507 H 0.31596 0.40948 0.8431 0.0
H1508 H 0.37242 0.45498 0.81524 0.0
H1509 H 0.34173 0.4334 0.82926 0.0
H1510 H 0.35504 0.42454 0.97425 0.0
H1511 H 0.38557 0.44799 0.96106 0.0
C1512 C 0.30304 0.41304 0.97513 0.0
C1513 C 0.29056 0.40833 0.93781 0.0
C1514 C 0.32058 0.41795 0.96461 0.0
C1515 C 0.32599 0.41774 0.91652 0.0
C1516 C 0.31277 0.4108 0.88019 0.0
C1517 C 0.29535 0.40661 0.8905 0.0
C1518 C 0.36878 0.44809 0.84973 0.0
C1519 C 0.38119 0.45331 0.88738 0.0
C1520 C 0.35103 0.43549 0.85796 0.0
C1521 C 0.34536 0.42736 0.90378 0.0
C1522 C 0.35846 0.43105 0.93933 0.0
C1523 C 0.37609 0.44428 0.93169 0.0
H1524 H 0.0618 0.43983 0.32373 0.0
H1525 H 0.0779 0.45675 0.4715 0.0
H1526 H 0.0677 0.41549 0.3354 0.0
H1527 H 0.08399 0.43268 0.48278 0.0
H1528 H 0.09828 0.39225 0.49838 0.0
H1529 H 0.0764 0.4015 0.4848 0.0
H1530 H 0.09758 0.41949 0.34117 0.0
H1531 H 0.11919 0.41008 0.35432 0.0
C1532 C 0.06607 0.43807 0.35914 0.0
C1533 C 0.06987 0.45054 0.3963 0.0
C1534 C 0.06949 0.42413 0.36573 0.0
C1535 C 0.07664 0.42235 0.40965 0.0
C1536 C 0.07844 0.4336 0.44848 0.0
C1537 C 0.07511 0.44756 0.44186 0.0
C1538 C 0.09786 0.3976 0.46325 0.0
C1539 C 0.11082 0.40091 0.42791 0.0
C1540 C 0.08534 0.40295 0.4556 0.0
C1541 C 0.08551 0.41158 0.41238 0.0
C1542 C 0.09705 0.41287 0.37491 0.0
C1543 C 0.10959 0.4076 0.38261 0.0
H1544 H 0.5474 0.61031 0.45013 0.0
H1545 H 0.54164 0.62506 0.30505 0.0
H1546 H 0.57337 0.63947 0.46217 0.0
H1547 H 0.56583 0.65461 0.31804 0.0
H1548 H 0.59974 0.70982 0.34963 0.0
H1549 H 0.59075 0.67915 0.33086 0.0
H1550 H 0.57867 0.66582 0.48296 0.0
H1551 H 0.58967 0.6965 0.50117 0.0
C1552 C 0.55187 0.61983 0.42072 0.0
C1553 C 0.54246 0.61562 0.377 0.0
C1554 C 0.5666 0.63674 0.42769 0.0
C1555 C 0.57151 0.65011 0.39218 0.0
C1556 C 0.56288 0.64512 0.34682 0.0
C1557 C 0.54874 0.62801 0.33918 0.0
C1558 C 0.59575 0.70028 0.37892 0.0
C1559 C 0.5951 0.70539 0.42664 0.0
C1560 C 0.59025 0.68255 0.36827 0.0
C1561 C 0.58293 0.6694 0.40476 0.0
C1562 C 0.58403 0.67509 0.45317 0.0
C1563 C 0.5903 0.69289 0.46394 0.0
H1564 H 0.37427 0.92143 0.477 0.0
H1565 H 0.37412 0.93981 0.33154 0.0
H1566 H 0.34311 0.91217 0.48528 0.0
H1567 H 0.34285 0.93079 0.34027 0.0
H1568 H 0.28664 0.88987 0.49308 0.0
H1569 H 0.31672 0.91502 0.48618 0.0
H1570 H 0.31947 0.89986 0.33873 0.0
H1571 H 0.28948 0.87504 0.34526 0.0
C1572 C 0.36777 0.92412 0.4474 0.0
C1573 C 0.37654 0.9308 0.40303 0.0
C1574 C 0.34985 0.91892 0.45229 0.0
C1575 C 0.34034 0.92031 0.4129 0.0
C1576 C 0.34973 0.92919 0.37086 0.0
C1577 C 0.3677 0.93443 0.36599 0.0
C1578 C 0.29343 0.89226 0.45862 0.0
C1579 C 0.28585 0.88012 0.42016 0.0
C1580 C 0.3107 0.90667 0.45476 0.0
C1581 C 0.32066 0.90923 0.41234 0.0
C1582 C 0.31223 0.89835 0.372 0.0
C1583 C 0.29502 0.88395 0.37587 0.0
H1584 H 0.3275 0.19457 0.28119 0.0
H1585 H 0.28684 0.15498 0.18886 0.0
H1586 H 0.35029 0.19473 0.22922 0.0
H1587 H 0.30946 0.15468 0.13818 0.0
H1588 H 0.35399 0.17066 0.02901 0.0
H1589 H 0.33165 0.17175 0.08005 0.0
H1590 H 0.36308 0.17718 0.2071 0.0
H1591 H 0.38557 0.17673 0.15619 0.0
C1592 C 0.32342 0.18579 0.25013 0.0
C1593 C 0.30535 0.1748 0.23922 0.0
C1594 C 0.33647 0.18582 0.22038 0.0
C1595 C 0.33173 0.17475 0.17931 0.0
C1596 C 0.31364 0.16364 0.16884 0.0
C1597 C 0.30064 0.16372 0.19825 0.0
C1598 C 0.35611 0.1721 0.06783 0.0
C1599 C 0.37158 0.17363 0.08841 0.0
C1600 C 0.34327 0.17265 0.09717 0.0
C1601 C 0.34554 0.17457 0.14781 0.0
C1602 C 0.36101 0.17603 0.16826 0.0
C1603 C 0.37388 0.17564 0.13897 0.0
H1604 H 0.82875 0.18868 0.03787 0.0
H1605 H 0.8221 0.21332 0.16602 0.0
H1606 H 0.82834 0.16542 0.08808 0.0
H1607 H 0.82238 0.19055 0.21622 0.0
H1608 H 0.80616 0.13752 0.28879 0.0
H1609 H 0.80554 0.16021 0.23812 0.0
H1610 H 0.84565 0.16044 0.14512 0.0
H1611 H 0.84575 0.13742 0.19441 0.0
C1612 C 0.82736 0.18922 0.07674 0.0
C1613 C 0.82543 0.20284 0.09784 0.0
C1614 C 0.8272 0.17593 0.10564 0.0
C1615 C 0.82533 0.17607 0.15634 0.0
C1616 C 0.82351 0.18979 0.17732 0.0
C1617 C 0.82348 0.20294 0.14845 0.0
C1618 C 0.81485 0.14247 0.25759 0.0
C1619 C 0.82595 0.13562 0.24564 0.0
C1620 C 0.81457 0.15552 0.22858 0.0
C1621 C 0.82551 0.16214 0.18729 0.0
C1622 C 0.83677 0.15542 0.17592 0.0
C1623 C 0.83692 0.14229 0.20454 0.0
H1624 H 0.78876 0.6183 0.17566 0.0
H1625 H 0.81415 0.64808 0.04592 0.0
H1626 H 0.81046 0.64247 0.22514 0.0
H1627 H 0.83642 0.67212 0.09561 0.0
H1628 H 0.86323 0.71899 0.19864 0.0
H1629 H 0.84079 0.69512 0.14953 0.0
H1630 H 0.84043 0.65662 0.24927 0.0
H1631 H 0.8624 0.68057 0.29947 0.0
C1632 C 0.79909 0.62997 0.15761 0.0
C1633 C 0.79973 0.63124 0.10674 0.0
C1634 C 0.81163 0.64382 0.1861 0.0
C1635 C 0.82531 0.65926 0.16453 0.0
C1636 C 0.82594 0.66055 0.11357 0.0
C1637 C 0.81323 0.64673 0.085 0.0
C1638 C 0.85831 0.70542 0.21025 0.0
C1639 C 0.86459 0.70169 0.25309 0.0
C1640 C 0.84552 0.69171 0.18181 0.0
C1641 C 0.8388 0.67389 0.19517 0.0
C1642 C 0.84506 0.67017 0.23817 0.0
C1643 C 0.85773 0.68391 0.26694 0.0
H1644 H 0.15316 0.34394 0.4674 0.0
H1645 H 0.16146 0.37374 0.33523 0.0
H1646 H 0.15437 0.32061 0.42149 0.0
H1647 H 0.16185 0.35021 0.28917 0.0
H1648 H 0.14069 0.27447 0.32043 0.0
H1649 H 0.13897 0.29752 0.3655 0.0
H1650 H 0.17941 0.33736 0.27297 0.0
H1651 H 0.1805 0.31413 0.22646 0.0
C1652 C 0.15503 0.3454 0.4285 0.0
C1653 C 0.15731 0.36071 0.40504 0.0
C1654 C 0.15564 0.332 0.40206 0.0
C1655 C 0.15829 0.33351 0.35149 0.0
C1656 C 0.16021 0.34872 0.3281 0.0
C1657 C 0.15985 0.36219 0.35455 0.0
C1658 C 0.14918 0.28815 0.30958 0.0
C1659 C 0.16073 0.29248 0.26979 0.0
C1660 C 0.14828 0.30141 0.33572 0.0
C1661 C 0.15909 0.31936 0.32317 0.0
C1662 C 0.17065 0.32367 0.28327 0.0
C1663 C 0.17136 0.31037 0.25666 0.0
H1664 H 0.62152 0.78486 0.33442 0.0
H1665 H 0.65183 0.80604 0.466 0.0
H1666 H 0.64349 0.81043 0.28955 0.0
H1667 H 0.6736 0.83212 0.42136 0.0
H1668 H 0.71803 0.86801 0.31944 0.0
H1669 H 0.6964 0.84212 0.36359 0.0
H1670 H 0.65439 0.8409 0.2769 0.0
H1671 H 0.67634 0.86653 0.23105 0.0
C1672 C 0.63288 0.79504 0.35387 0.0
C1673 C 0.63494 0.79339 0.40388 0.0
C1674 C 0.64543 0.80982 0.32812 0.0
C1675 C 0.66031 0.82349 0.35171 0.0
C1676 C 0.66245 0.82177 0.40173 0.0
C1677 C 0.64996 0.80683 0.42746 0.0
C1678 C 0.70419 0.86224 0.30964 0.0
C1679 C 0.69895 0.86937 0.27156 0.0
C1680 C 0.69172 0.84741 0.33534 0.0
C1681 C 0.67357 0.83936 0.32413 0.0
C1682 C 0.66828 0.84654 0.28612 0.0
C1683 C 0.68084 0.86131 0.25993 0.0
H1684 H 0.18746 0.82791 0.44793 0.0
H1685 H 0.20853 0.82036 0.31387 0.0
H1686 H 0.1618 0.82505 0.40436 0.0
H1687 H 0.18326 0.81814 0.2701 0.0
H1688 H 0.12755 0.79884 0.2115 0.0
H1689 H 0.1522 0.79981 0.25651 0.0
H1690 H 0.15405 0.84079 0.349 0.0
H1691 H 0.12919 0.83934 0.30557 0.0
C1692 C 0.1867 0.82578 0.40915 0.0
C1693 C 0.20007 0.8244 0.38447 0.0
C1694 C 0.17201 0.8242 0.38404 0.0
C1695 C 0.17044 0.8214 0.33358 0.0
C1696 C 0.18384 0.82 0.30899 0.0
C1697 C 0.19842 0.82141 0.33414 0.0
C1698 C 0.13321 0.80801 0.24148 0.0
C1699 C 0.12635 0.81898 0.25483 0.0
C1700 C 0.14741 0.80865 0.2672 0.0
C1701 C 0.15513 0.82037 0.30655 0.0
C1702 C 0.14826 0.83136 0.31961 0.0
C1703 C 0.13404 0.83061 0.29428 0.0
H1704 H 0.71784 0.84939 0.81723 0.0
H1705 H 0.67653 0.80734 0.73222 0.0
H1706 H 0.69581 0.8531 0.86109 0.0
H1707 H 0.65421 0.81052 0.77773 0.0
H1708 H 0.62009 0.83255 0.83397 0.0
H1709 H 0.64234 0.82941 0.78911 0.0
H1710 H 0.67337 0.83991 0.92004 0.0
H1711 H 0.6513 0.84373 0.96464 0.0
C1712 C 0.70401 0.84082 0.8081 0.0
C1713 C 0.69897 0.82807 0.77111 0.0
C1714 C 0.69131 0.84286 0.83363 0.0
C1715 C 0.67316 0.83207 0.8233 0.0
C1716 C 0.66809 0.81927 0.78626 0.0
C1717 C 0.68086 0.81736 0.76026 0.0
C1718 C 0.6317 0.83427 0.85324 0.0
C1719 C 0.63393 0.83842 0.90297 0.0
C1720 C 0.64442 0.83231 0.8275 0.0
C1721 C 0.65966 0.83429 0.85084 0.0
C1722 C 0.66194 0.83855 0.9006 0.0
C1723 C 0.64927 0.84069 0.9263 0.0
H1724 H 0.19429 0.80088 0.82797 0.0
H1725 H 0.15388 0.80023 0.92037 0.0
H1726 H 0.19622 0.82587 0.78325 0.0
H1727 H 0.15512 0.82464 0.87421 0.0
H1728 H 0.1736 0.87948 0.81731 0.0
H1729 H 0.17284 0.85502 0.86114 0.0
H1730 H 0.18185 0.83485 0.72732 0.0
H1731 H 0.18347 0.86005 0.6836 0.0
C1732 C 0.18569 0.80598 0.83846 0.0
C1733 C 0.174 0.79864 0.87792 0.0
C1734 C 0.1867 0.82026 0.81254 0.0
C1735 C 0.17586 0.82738 0.825 0.0
C1736 C 0.16398 0.81982 0.86412 0.0
C1737 C 0.16318 0.80573 0.89052 0.0
C1738 C 0.1755 0.86988 0.79715 0.0
C1739 C 0.17858 0.87169 0.74688 0.0
C1740 C 0.17491 0.85571 0.82233 0.0
C1741 C 0.17707 0.84276 0.79787 0.0
C1742 C 0.18034 0.84467 0.74755 0.0
C1743 C 0.18121 0.85907 0.72237 0.0
H1744 H 0.20068 0.38783 0.85697 0.0
H1745 H 0.20249 0.34955 0.95304 0.0
H1746 H 0.1766 0.36395 0.81191 0.0
H1747 H 0.17884 0.32553 0.90666 0.0
H1748 H 0.12465 0.28746 0.84384 0.0
H1749 H 0.14823 0.3115 0.8897 0.0
H1750 H 0.17017 0.34076 0.75684 0.0
H1751 H 0.14605 0.31693 0.71111 0.0
C1752 C 0.196 0.37429 0.86833 0.0
C1753 C 0.20351 0.3706 0.9087 0.0
C1754 C 0.18226 0.36055 0.84218 0.0
C1755 C 0.17577 0.34275 0.85535 0.0
C1756 C 0.18328 0.33908 0.89584 0.0
C1757 C 0.19691 0.35285 0.92237 0.0
C1758 C 0.1345 0.29902 0.82433 0.0
C1759 C 0.13346 0.30027 0.77374 0.0
C1760 C 0.14813 0.31279 0.85068 0.0
C1761 C 0.16121 0.32811 0.82711 0.0
C1762 C 0.16019 0.32932 0.7764 0.0
C1763 C 0.14641 0.3156 0.75007 0.0
H1764 H 0.81442 0.67876 0.80147 0.0
H1765 H 0.85249 0.71766 0.70246 0.0
H1766 H 0.8134 0.65506 0.75204 0.0
H1767 H 0.85209 0.69412 0.65431 0.0
H1768 H 0.83421 0.64781 0.5505 0.0
H1769 H 0.83451 0.67123 0.59963 0.0
H1770 H 0.82964 0.64125 0.72944 0.0
H1771 H 0.82856 0.61761 0.68026 0.0
C1772 C 0.82274 0.68226 0.7695 0.0
C1773 C 0.83349 0.70009 0.75587 0.0
C1774 C 0.82222 0.66867 0.7412 0.0
C1775 C 0.83263 0.67262 0.69895 0.0
C1776 C 0.8436 0.69051 0.68591 0.0
C1777 C 0.84394 0.70404 0.71381 0.0
C1778 C 0.83318 0.64625 0.58952 0.0
C1779 C 0.83131 0.63083 0.6114 0.0
C1780 C 0.83346 0.65972 0.6178 0.0
C1781 C 0.83211 0.65819 0.66867 0.0
C1782 C 0.83036 0.64279 0.69042 0.0
C1783 C 0.82985 0.62925 0.66215 0.0
H1784 H 0.2815 0.12277 0.67533 0.0
H1785 H 0.31416 0.146 0.80223 0.0
H1786 H 0.30493 0.14471 0.62445 0.0
H1787 H 0.33742 0.1686 0.75142 0.0
H1788 H 0.38271 0.19447 0.64334 0.0
H1789 H 0.35908 0.17261 0.69424 0.0
H1790 H 0.3201 0.17453 0.601 0.0
H1791 H 0.34381 0.1958 0.5488 0.0
C1792 C 0.29362 0.13273 0.69251 0.0
C1793 C 0.29597 0.13259 0.74292 0.0
C1794 C 0.30706 0.14543 0.66325 0.0
C1795 C 0.32315 0.15851 0.68362 0.0
C1796 C 0.32537 0.15855 0.73423 0.0
C1797 C 0.31198 0.14566 0.7635 0.0
C1798 C 0.36908 0.19017 0.6336 0.0
C1799 C 0.36513 0.19683 0.59191 0.0
C1800 C 0.35551 0.17773 0.66309 0.0
C1801 C 0.33761 0.1718 0.65207 0.0
C1802 C 0.33369 0.17852 0.61031 0.0
C1803 C 0.34728 0.19078 0.58039 0.0
H1804 H 0.86861 0.18927 0.78403 0.0
H1805 H 0.86931 0.15019 0.68887 0.0
H1806 H 0.84559 0.18948 0.73426 0.0
H1807 H 0.84588 0.14991 0.64019 0.0
H1808 H 0.81702 0.16734 0.53463 0.0
H1809 H 0.84021 0.16713 0.58385 0.0
H1810 H 0.81523 0.17227 0.71348 0.0
H1811 H 0.79254 0.17313 0.66436 0.0
C1812 C 0.86372 0.18058 0.75282 0.0
C1813 C 0.87084 0.16974 0.74049 0.0
C1814 C 0.85045 0.18063 0.72433 0.0
C1815 C 0.84383 0.1697 0.68308 0.0
C1816 C 0.85084 0.15872 0.67112 0.0
C1817 C 0.86421 0.1588 0.69933 0.0
C1818 C 0.81649 0.1684 0.57363 0.0
C1819 C 0.80296 0.17034 0.59546 0.0
C1820 C 0.82974 0.16819 0.60194 0.0
C1821 C 0.82967 0.16975 0.65276 0.0
C1822 C 0.81597 0.17142 0.67448 0.0
C1823 C 0.80285 0.1718 0.64622 0.0
H1824 H 0.05077 0.52035 0.47686 0.0
H1825 H 0.01375 0.48175 0.3754 0.0
H1826 H 0.02637 0.52039 0.51945 0.0
H1827 H 0.98917 0.48119 0.41933 0.0
H1828 H 0.95066 0.49726 0.4794 0.0
H1829 H 0.97519 0.49785 0.43575 0.0
H1830 H 0.00231 0.5032 0.57145 0.0
H1831 H 0.97803 0.50338 0.61497 0.0
C1832 C 0.03738 0.51176 0.46381 0.0
C1833 C 0.0342 0.50104 0.42267 0.0
C1834 C 0.02334 0.51168 0.48852 0.0
C1835 C 0.00573 0.50072 0.47313 0.0
C1836 C 0.00256 0.49001 0.43186 0.0
C1837 C 0.01665 0.49026 0.40674 0.0
C1838 C 0.96187 0.49857 0.49997 0.0
C1839 C 0.9624 0.50029 0.55071 0.0
C1840 C 0.97591 0.49879 0.4749 0.0
C1841 C 0.99077 0.50052 0.49995 0.0
C1842 C 0.99124 0.50215 0.5508 0.0
C1843 C 0.97728 0.50216 0.57585 0.0
H1844 H 0.49053 0.51746 0.35469 0.0
H1845 H 0.48468 0.53913 0.48985 0.0
H1846 H 0.48909 0.49242 0.3987 0.0
H1847 H 0.48385 0.51459 0.53366 0.0
H1848 H 0.50626 0.46172 0.49786 0.0
H1849 H 0.50618 0.48562 0.45285 0.0
H1850 H 0.46609 0.48369 0.54927 0.0
H1851 H 0.4666 0.46006 0.59555 0.0
C1852 C 0.48903 0.51694 0.39371 0.0
C1853 C 0.4877 0.5303 0.41862 0.0
C1854 C 0.48828 0.50263 0.41903 0.0
C1855 C 0.48633 0.50145 0.46983 0.0
C1856 C 0.48501 0.51484 0.49456 0.0
C1857 C 0.48562 0.52902 0.46932 0.0
C1858 C 0.4974 0.46637 0.50961 0.0
C1859 C 0.48646 0.45898 0.55053 0.0
C1860 C 0.49727 0.48002 0.48343 0.0
C1861 C 0.4861 0.48659 0.4972 0.0
C1862 C 0.47506 0.47914 0.53799 0.0
C1863 C 0.47529 0.46554 0.56448 0.0
H1864 H 0.53642 0.04969 0.51437 0.0
H1865 H 0.53645 0.0094 0.6058 0.0
H1866 H 0.51132 0.02717 0.46974 0.0
H1867 H 0.51159 0.98655 0.55942 0.0
H1868 H 0.45552 0.95213 0.50064 0.0
H1869 H 0.48088 0.97453 0.54543 0.0
H1870 H 0.50256 0.00419 0.41297 0.0
H1871 H 0.47671 0.98204 0.36844 0.0
C1872 C 0.53117 0.03597 0.52474 0.0
C1873 C 0.53847 0.03139 0.56386 0.0
C1874 C 0.5168 0.02298 0.49873 0.0
C1875 C 0.50939 0.00496 0.51065 0.0
C1876 C 0.51676 0.00032 0.5496 0.0
C1877 C 0.53109 0.0134 0.57608 0.0
C1878 C 0.46568 0.96345 0.481 0.0
C1879 C 0.46405 0.96532 0.4309 0.0
C1880 C 0.48034 0.97625 0.50672 0.0
C1881 C 0.49388 0.99119 0.48296 0.0
C1882 C 0.49227 0.99302 0.43273 0.0
C1883 C 0.47748 0.98029 0.40706 0.0
H1884 H 0.4792 0.00804 0.1351 0.0
H1885 H 0.48624 0.03675 0.00154 0.0
H1886 H 0.481 0.98477 0.09009 0.0
H1887 H 0.48722 0.01338 0.95658 0.0
H1888 H 0.50881 0.98011 0.89509 0.0
H1889 H 0.5064 0.00237 0.94233 0.0
H1890 H 0.46695 0.96115 0.03387 0.0
H1891 H 0.47001 0.93896 0.98784 0.0
C1892 C 0.48083 0.00922 0.09611 0.0
C1893 C 0.48273 0.02428 0.07198 0.0
C1894 C 0.48182 0.99589 0.07022 0.0
C1895 C 0.48449 0.99726 0.01963 0.0
C1896 C 0.48568 0.01205 0.99556 0.0
C1897 C 0.48495 0.02542 0.02139 0.0
C1898 C 0.49962 0.9758 0.92526 0.0
C1899 C 0.48958 0.95777 0.93757 0.0
C1900 C 0.49813 0.98856 0.95228 0.0
C1901 C 0.48635 0.9836 0.99184 0.0
C1902 C 0.47632 0.96553 0.00414 0.0
C1903 C 0.478 0.95278 0.97749 0.0
H1904 H 0.9768 0.47746 0.11971 0.0
H1905 H 0.95026 0.45605 0.98327 0.0
H1906 H 0.00147 0.50177 0.07659 0.0
H1907 H 0.9751 0.4798 0.94018 0.0
H1908 H 0.01349 0.53415 0.87931 0.0
H1909 H 0.98885 0.51041 0.92369 0.0
H1910 H 0.02586 0.50876 0.02525 0.0
H1911 H 0.05036 0.53295 0.98209 0.0
C1912 C 0.97632 0.47784 0.08052 0.0
C1913 C 0.96154 0.46487 0.05499 0.0
C1914 C 0.9905 0.49173 0.05571 0.0
C1915 C 0.9903 0.49283 0.00479 0.0
C1916 C 0.97559 0.47965 0.97938 0.0
C1917 C 0.96137 0.46593 0.00415 0.0
C1918 C 0.01635 0.5287 0.91109 0.0
C1919 C 0.03389 0.53546 0.92712 0.0
C1920 C 0.00223 0.51501 0.93647 0.0
C1921 C 0.00532 0.50759 0.97814 0.0
C1922 C 0.02291 0.51432 0.9939 0.0
C1923 C 0.03699 0.52814 0.96887 0.0
H1924 H 0.53706 0.52077 0.11553 0.0
H1925 H 0.53168 0.47888 0.02086 0.0
H1926 H 0.51332 0.52197 0.07116 0.0
H1927 H 0.5078 0.47961 0.97782 0.0
H1928 H 0.47949 0.49775 0.87625 0.0
H1929 H 0.50323 0.49753 0.92226 0.0
H1930 H 0.48217 0.50645 0.05446 0.0
H1931 H 0.45879 0.50731 0.00812 0.0
C1932 C 0.53069 0.5117 0.08564 0.0
C1933 C 0.53639 0.49987 0.07137 0.0
C1934 C 0.51705 0.51233 0.06027 0.0
C1935 C 0.50875 0.50102 0.02046 0.0
C1936 C 0.51417 0.48886 0.00735 0.0
C1937 C 0.52784 0.48836 0.03228 0.0
C1938 C 0.47991 0.49966 0.91512 0.0
C1939 C 0.4672 0.50249 0.93844 0.0
C1940 C 0.49349 0.49945 0.94163 0.0
C1941 C 0.49458 0.50186 0.99225 0.0
C1942 C 0.4819 0.50478 0.01553 0.0
C1943 C 0.46841 0.50516 0.98893 0.0
loop_
_geom_bond_atom_site_label_1
_geom_bond_atom_site_label_2
_geom_bond_distance
_geom_bond_site_symmetry_2
_ccdc_geom_bond_type
Mg0 O1 2.028 . S
Mg0 O7 1.986 . S
Mg0 O9 2.114 . S
Mg0 O10 2.251 . S
Mg0 O13 2.010 . S
O1 Mg0 2.028 . S
O1 C4 1.250 . S
O2 Mg3 2.028 . S
O2 C4 1.248 . S
Mg3 O2 2.028 . S
Mg3 O8 2.032 . S
Mg3 O10 2.079 . S
C4 O1 1.250 . S
C4 O2 1.248 . S
C5 O6 1.264 . S
C5 O13 1.249 . S
O6 C5 1.264 . S
O7 Mg0 1.986 . S
O7 C11 1.246 . S
O8 Mg3 2.032 . S
O8 C11 1.259 . S
O9 Mg0 2.114 . S
O9 C12 1.252 . S
O10 Mg0 2.251 . S
O10 Mg3 2.079 . S
O10 C12 1.273 . S
C11 O7 1.246 . S
C11 O8 1.259 . S
C12 O9 1.252 . S
C12 O10 1.273 . S
O13 Mg0 2.010 . S
O13 C5 1.249 . S
Mg14 O15 2.028 . S
Mg14 O21 1.986 . S
Mg14 O23 2.114 . S
Mg14 O24 2.251 . S
Mg14 O27 2.010 . S
O15 Mg14 2.028 . S
O15 C18 1.250 . S
O16 Mg17 2.028 . S
O16 C18 1.248 . S
Mg17 O16 2.028 . S
Mg17 O22 2.032 . S
Mg17 O24 2.079 . S
C18 O15 1.250 . S
C18 O16 1.248 . S
C19 O20 1.264 . S
C19 O27 1.249 . S
O20 C19 1.264 . S
O21 Mg14 1.986 . S
O21 C25 1.246 . S
O22 Mg17 2.032 . S
O22 C25 1.259 . S
O23 Mg14 2.114 . S
O23 C26 1.252 . S
O24 Mg14 2.251 . S
O24 Mg17 2.079 . S
O24 C26 1.273 . S
C25 O21 1.246 . S
C25 O22 1.259 . S
C26 O23 1.252 . S
C26 O24 1.273 . S
O27 Mg14 2.010 . S
O27 C19 1.249 . S
Mg28 O29 2.028 . S
Mg28 O35 1.986 . S
Mg28 O37 2.114 . S
Mg28 O38 2.251 . S
Mg28 O41 2.010 . S
O29 Mg28 2.028 . S
O29 C32 1.250 . S
O30 Mg31 2.028 . S
O30 C32 1.248 . S
Mg31 O30 2.028 . S
Mg31 O36 2.032 . S
Mg31 O38 2.079 . S
C32 O29 1.250 . S
C32 O30 1.248 . S
C33 O34 1.264 . S
C33 O41 1.249 . S
O34 C33 1.264 . S
O35 Mg28 1.986 . S
O35 C39 1.246 . S
O36 Mg31 2.032 . S
O36 C39 1.259 . S
O37 Mg28 2.114 . S
O37 C40 1.252 . S
O38 Mg28 2.251 . S
O38 Mg31 2.079 . S
O38 C40 1.273 . S
C39 O35 1.246 . S
C39 O36 1.259 . S
C40 O37 1.252 . S
C40 O38 1.273 . S
O41 Mg28 2.010 . S
O41 C33 1.249 . S
Mg42 O43 2.028 . S
Mg42 O49 1.986 . S
Mg42 O51 2.114 . S
Mg42 O52 2.251 . S
Mg42 O55 2.010 . S
O43 Mg42 2.028 . S
O43 C46 1.250 . S
O44 Mg45 2.028 . S
O44 C46 1.248 . S
Mg45 O44 2.028 . S
Mg45 O50 2.032 . S
Mg45 O52 2.079 . S
C46 O43 1.250 . S
C46 O44 1.248 . S
C47 O48 1.264 . S
C47 O55 1.249 . S
O48 C47 1.264 . S
O49 Mg42 1.986 . S
O49 C53 1.246 . S
O50 Mg45 2.032 . S
O50 C53 1.259 . S
O51 Mg42 2.114 . S
O51 C54 1.252 . S
O52 Mg42 2.251 . S
O52 Mg45 2.079 . S
O52 C54 1.273 . S
C53 O49 1.246 . S
C53 O50 1.259 . S
C54 O51 1.252 . S
C54 O52 1.273 . S
O55 Mg42 2.010 . S
O55 C47 1.249 . S
Mg56 O57 2.028 . S
Mg56 O63 1.986 . S
Mg56 O65 2.114 . S
Mg56 O66 2.251 . S
Mg56 O69 2.010 . S
O57 Mg56 2.028 . S
O57 C60 1.250 . S
O58 Mg59 2.028 . S
O58 C60 1.248 . S
Mg59 O58 2.028 . S
Mg59 O64 2.032 . S
Mg59 O66 2.079 . S
C60 O57 1.250 . S
C60 O58 1.248 . S
C61 O62 1.264 . S
C61 O69 1.249 . S
O62 C61 1.264 . S
O63 Mg56 1.986 . S
O63 C67 1.246 . S
O64 Mg59 2.032 . S
O64 C67 1.259 . S
O65 Mg56 2.114 . S
O65 C68 1.252 . S
O66 Mg56 2.251 . S
O66 Mg59 2.079 . S
O66 C68 1.273 . S
C67 O63 1.246 . S
C67 O64 1.259 . S
C68 O65 1.252 . S
C68 O66 1.273 . S
O69 Mg56 2.010 . S
O69 C61 1.249 . S
Mg70 O71 2.028 . S
Mg70 O77 1.986 . S
Mg70 O79 2.114 . S
Mg70 O80 2.251 . S
Mg70 O83 2.010 . S
O71 Mg70 2.028 . S
O71 C74 1.250 . S
O72 Mg73 2.028 . S
O72 C74 1.248 . S
Mg73 O72 2.028 . S
Mg73 O78 2.032 . S
Mg73 O80 2.079 . S
C74 O71 1.250 . S
C74 O72 1.248 . S
C75 O76 1.264 . S
C75 O83 1.249 . S
O76 C75 1.264 . S
O77 Mg70 1.986 . S
O77 C81 1.246 . S
O78 Mg73 2.032 . S
O78 C81 1.259 . S
O79 Mg70 2.114 . S
O79 C82 1.252 . S
O80 Mg70 2.251 . S
O80 Mg73 2.079 . S
O80 C82 1.273 . S
C81 O77 1.246 . S
C81 O78 1.259 . S
C82 O79 1.252 . S
C82 O80 1.273 . S
O83 Mg70 2.010 . S
O83 C75 1.249 . S
Mg84 O85 2.028 . S
Mg84 O91 1.986 . S
Mg84 O93 2.114 . S
Mg84 O94 2.251 . S
Mg84 O97 2.010 . S
O85 Mg84 2.028 . S
O85 C88 1.250 . S
O86 Mg87 2.028 . S
O86 C88 1.248 . S
Mg87 O86 2.028 . S
Mg87 O92 2.032 . S
Mg87 O94 2.079 . S
C88 O85 1.250 . S
C88 O86 1.248 . S
C89 O90 1.264 . S
C89 O97 1.249 . S
O90 C89 1.264 . S
O91 Mg84 1.986 . S
O91 C95 1.246 . S
O92 Mg87 2.032 . S
O92 C95 1.259 . S
O93 Mg84 2.114 . S
O93 C96 1.252 . S
O94 Mg84 2.251 . S
O94 Mg87 2.079 . S
O94 C96 1.273 . S
C95 O91 1.246 . S
C95 O92 1.259 . S
C96 O93 1.252 . S
C96 O94 1.273 . S
O97 Mg84 2.010 . S
O97 C89 1.249 . S
Mg98 O99 2.028 . S
Mg98 O105 1.986 . S
Mg98 O107 2.114 . S
Mg98 O108 2.251 . S
Mg98 O111 2.010 . S
O99 Mg98 2.028 . S
O99 C102 1.250 . S
O100 Mg101 2.028 . S
O100 C102 1.248 . S
Mg101 O100 2.028 . S
Mg101 O106 2.032 . S
Mg101 O108 2.079 . S
C102 O99 1.250 . S
C102 O100 1.248 . S
C103 O104 1.264 . S
C103 O111 1.249 . S
O104 C103 1.264 . S
O105 Mg98 1.986 . S
O105 C109 1.246 . S
O106 Mg101 2.032 . S
O106 C109 1.259 . S
O107 Mg98 2.114 . S
O107 C110 1.252 . S
O108 Mg98 2.251 . S
O108 Mg101 2.079 . S
O108 C110 1.273 . S
C109 O105 1.246 . S
C109 O106 1.259 . S
C110 O107 1.252 . S
C110 O108 1.273 . S
O111 Mg98 2.010 . S
O111 C103 1.249 . S
Mg112 O113 2.028 . S
Mg112 O119 1.986 . S
Mg112 O121 2.114 . S
Mg112 O122 2.251 . S
Mg112 O125 2.010 . S
O113 Mg112 2.028 . S
O113 C116 1.250 . S
O114 Mg115 2.028 . S
O114 C116 1.248 . S
Mg115 O114 2.028 . S
Mg115 O120 2.032 . S
Mg115 O122 2.079 . S
C116 O113 1.250 . S
C116 O114 1.248 . S
C117 O118 1.264 . S
C117 O125 1.249 . S
O118 C117 1.264 . S
O119 Mg112 1.986 . S
O119 C123 1.246 . S
O120 Mg115 2.032 . S
O120 C123 1.259 . S
O121 Mg112 2.114 . S
O121 C124 1.252 . S
O122 Mg112 2.251 . S
O122 Mg115 2.079 . S
O122 C124 1.273 . S
C123 O119 1.246 . S
C123 O120 1.259 . S
C124 O121 1.252 . S
C124 O122 1.273 . S
O125 Mg112 2.010 . S
O125 C117 1.249 . S
Mg126 O127 2.028 . S
Mg126 O133 1.986 . S
Mg126 O135 2.114 . S
Mg126 O136 2.251 . S
Mg126 O139 2.010 . S
O127 Mg126 2.028 . S
O127 C130 1.250 . S
O128 Mg129 2.028 . S
O128 C130 1.248 . S
Mg129 O128 2.028 . S
Mg129 O134 2.032 . S
Mg129 O136 2.079 . S
C130 O127 1.250 . S
C130 O128 1.248 . S
C131 O132 1.264 . S
C131 O139 1.249 . S
O132 C131 1.264 . S
O133 Mg126 1.986 . S
O133 C137 1.246 . S
O134 Mg129 2.032 . S
O134 C137 1.259 . S
O135 Mg126 2.114 . S
O135 C138 1.252 . S
O136 Mg126 2.251 . S
O136 Mg129 2.079 . S
O136 C138 1.273 . S
C137 O133 1.246 . S
C137 O134 1.259 . S
C138 O135 1.252 . S
C138 O136 1.273 . S
O139 Mg126 2.010 . S
O139 C131 1.249 . S
Mg140 O141 2.028 . S
Mg140 O147 1.986 . S
Mg140 O149 2.114 . S
Mg140 O150 2.251 . S
Mg140 O153 2.010 . S
O141 Mg140 2.028 . S
O141 C144 1.250 . S
O142 Mg143 2.028 . S
O142 C144 1.248 . S
Mg143 O142 2.028 . S
Mg143 O148 2.032 . S
Mg143 O150 2.079 . S
C144 O141 1.250 . S
C144 O142 1.248 . S
C145 O146 1.264 . S
C145 O153 1.249 . S
O146 C145 1.264 . S
O147 Mg140 1.986 . S
O147 C151 1.246 . S
O148 Mg143 2.032 . S
O148 C151 1.259 . S
O149 Mg140 2.114 . S
O149 C152 1.252 . S
O150 Mg140 2.251 . S
O150 Mg143 2.079 . S
O150 C152 1.273 . S
C151 O147 1.246 . S
C151 O148 1.259 . S
C152 O149 1.252 . S
C152 O150 1.273 . S
O153 Mg140 2.010 . S
O153 C145 1.249 . S
Mg154 O155 2.028 . S
Mg154 O161 1.986 . S
Mg154 O163 2.114 . S
Mg154 O164 2.251 . S
Mg154 O167 2.010 . S
O155 Mg154 2.028 . S
O155 C158 1.250 . S
O156 Mg157 2.028 . S
O156 C158 1.248 . S
Mg157 O156 2.028 . S
Mg157 O162 2.032 . S
Mg157 O164 2.079 . S
C158 O155 1.250 . S
C158 O156 1.248 . S
C159 O160 1.264 . S
C159 O167 1.249 . S
O160 C159 1.264 . S
O161 Mg154 1.986 . S
O161 C165 1.246 . S
O162 Mg157 2.032 . S
O162 C165 1.259 . S
O163 Mg154 2.114 . S
O163 C166 1.252 . S
O164 Mg154 2.251 . S
O164 Mg157 2.079 . S
O164 C166 1.273 . S
C165 O161 1.246 . S
C165 O162 1.259 . S
C166 O163 1.252 . S
C166 O164 1.273 . S
O167 Mg154 2.010 . S
O167 C159 1.249 . S
Mg168 O169 2.028 . S
Mg168 O175 1.986 . S
Mg168 O177 2.114 . S
Mg168 O178 2.251 . S
Mg168 O181 2.010 . S
O169 Mg168 2.028 . S
O169 C172 1.250 . S
O170 Mg171 2.028 . S
O170 C172 1.248 . S
Mg171 O170 2.028 . S
Mg171 O176 2.032 . S
Mg171 O178 2.079 . S
C172 O169 1.250 . S
C172 O170 1.248 . S
C173 O174 1.264 . S
C173 O181 1.249 . S
O174 C173 1.264 . S
O175 Mg168 1.986 . S
O175 C179 1.246 . S
O176 Mg171 2.032 . S
O176 C179 1.259 . S
O177 Mg168 2.114 . S
O177 C180 1.252 . S
O178 Mg168 2.251 . S
O178 Mg171 2.079 . S
O178 C180 1.273 . S
C179 O175 1.246 . S
C179 O176 1.259 . S
C180 O177 1.252 . S
C180 O178 1.273 . S
O181 Mg168 2.010 . S
O181 C173 1.249 . S
Mg182 O183 2.028 . S
Mg182 O189 1.986 . S
Mg182 O191 2.114 . S
Mg182 O192 2.251 . S
Mg182 O195 2.010 . S
O183 Mg182 2.028 . S
O183 C186 1.250 . S
O184 Mg185 2.028 . S
O184 C186 1.248 . S
Mg185 O184 2.028 . S
Mg185 O190 2.032 . S
Mg185 O192 2.079 . S
C186 O183 1.250 . S
C186 O184 1.248 . S
C187 O188 1.264 . S
C187 O195 1.249 . S
O188 C187 1.264 . S
O189 Mg182 1.986 . S
O189 C193 1.246 . S
O190 Mg185 2.032 . S
O190 C193 1.259 . S
O191 Mg182 2.114 . S
O191 C194 1.252 . S
O192 Mg182 2.251 . S
O192 Mg185 2.079 . S
O192 C194 1.273 . S
C193 O189 1.246 . S
C193 O190 1.259 . S
C194 O191 1.252 . S
C194 O192 1.273 . S
O195 Mg182 2.010 . S
O195 C187 1.249 . S
Mg196 O197 2.028 . S
Mg196 O203 1.986 . S
Mg196 O205 2.114 . S
Mg196 O206 2.251 . S
Mg196 O209 2.010 . S
O197 Mg196 2.028 . S
O197 C200 1.250 . S
O198 Mg199 2.028 . S
O198 C200 1.248 . S
Mg199 O198 2.028 . S
Mg199 O204 2.032 . S
Mg199 O206 2.079 . S
C200 O197 1.250 . S
C200 O198 1.248 . S
C201 O202 1.264 . S
C201 O209 1.249 . S
O202 C201 1.264 . S
O203 Mg196 1.986 . S
O203 C207 1.246 . S
O204 Mg199 2.032 . S
O204 C207 1.259 . S
O205 Mg196 2.114 . S
O205 C208 1.252 . S
O206 Mg196 2.251 . S
O206 Mg199 2.079 . S
O206 C208 1.273 . S
C207 O203 1.246 . S
C207 O204 1.259 . S
C208 O205 1.252 . S
C208 O206 1.273 . S
O209 Mg196 2.010 . S
O209 C201 1.249 . S
Mg210 O211 2.028 . S
Mg210 O217 1.986 . S
Mg210 O219 2.114 . S
Mg210 O220 2.251 . S
Mg210 O223 2.010 . S
O211 Mg210 2.028 . S
O211 C214 1.250 . S
O212 Mg213 2.028 . S
O212 C214 1.248 . S
Mg213 O212 2.028 . S
Mg213 O218 2.032 . S
Mg213 O220 2.079 . S
C214 O211 1.250 . S
C214 O212 1.248 . S
C215 O216 1.264 . S
C215 O223 1.249 . S
O216 C215 1.264 . S
O217 Mg210 1.986 . S
O217 C221 1.246 . S
O218 Mg213 2.032 . S
O218 C221 1.259 . S
O219 Mg210 2.114 . S
O219 C222 1.252 . S
O220 Mg210 2.251 . S
O220 Mg213 2.079 . S
O220 C222 1.273 . S
C221 O217 1.246 . S
C221 O218 1.259 . S
C222 O219 1.252 . S
C222 O220 1.273 . S
O223 Mg210 2.010 . S
O223 C215 1.249 . S
Mg224 O225 2.028 . S
Mg224 O231 1.986 . S
Mg224 O233 2.114 . S
Mg224 O234 2.251 . S
Mg224 O237 2.010 . S
O225 Mg224 2.028 . S
O225 C228 1.250 . S
O226 Mg227 2.028 . S
O226 C228 1.248 . S
Mg227 O226 2.028 . S
Mg227 O232 2.032 . S
Mg227 O234 2.079 . S
C228 O225 1.250 . S
C228 O226 1.248 . S
C229 O230 1.264 . S
C229 O237 1.249 . S
O230 C229 1.264 . S
O231 Mg224 1.986 . S
O231 C235 1.246 . S
O232 Mg227 2.032 . S
O232 C235 1.259 . S
O233 Mg224 2.114 . S
O233 C236 1.252 . S
O234 Mg224 2.251 . S
O234 Mg227 2.079 . S
O234 C236 1.273 . S
C235 O231 1.246 . S
C235 O232 1.259 . S
C236 O233 1.252 . S
C236 O234 1.273 . S
O237 Mg224 2.010 . S
O237 C229 1.249 . S
Mg238 O239 2.028 . S
Mg238 O245 1.986 . S
Mg238 O247 2.114 . S
Mg238 O248 2.251 . S
Mg238 O251 2.010 . S
O239 Mg238 2.028 . S
O239 C242 1.250 . S
O240 Mg241 2.028 . S
O240 C242 1.248 . S
Mg241 O240 2.028 . S
Mg241 O246 2.032 . S
Mg241 O248 2.079 . S
C242 O239 1.250 . S
C242 O240 1.248 . S
C243 O244 1.264 . S
C243 O251 1.249 . S
O244 C243 1.264 . S
O245 Mg238 1.986 . S
O245 C249 1.246 . S
O246 Mg241 2.032 . S
O246 C249 1.259 . S
O247 Mg238 2.114 . S
O247 C250 1.252 . S
O248 Mg238 2.251 . S
O248 Mg241 2.079 . S
O248 C250 1.273 . S
C249 O245 1.246 . S
C249 O246 1.259 . S
C250 O247 1.252 . S
C250 O248 1.273 . S
O251 Mg238 2.010 . S
O251 C243 1.249 . S
Mg252 O253 2.028 . S
Mg252 O259 1.986 . S
Mg252 O261 2.114 . S
Mg252 O262 2.251 . S
Mg252 O265 2.010 . S
O253 Mg252 2.028 . S
O253 C256 1.250 . S
O254 Mg255 2.028 . S
O254 C256 1.248 . S
Mg255 O254 2.028 . S
Mg255 O260 2.032 . S
Mg255 O262 2.079 . S
C256 O253 1.250 . S
C256 O254 1.248 . S
C257 O258 1.264 . S
C257 O265 1.249 . S
O258 C257 1.264 . S
O259 Mg252 1.986 . S
O259 C263 1.246 . S
O260 Mg255 2.032 . S
O260 C263 1.259 . S
O261 Mg252 2.114 . S
O261 C264 1.252 . S
O262 Mg252 2.251 . S
O262 Mg255 2.079 . S
O262 C264 1.273 . S
C263 O259 1.246 . S
C263 O260 1.259 . S
C264 O261 1.252 . S
C264 O262 1.273 . S
O265 Mg252 2.010 . S
O265 C257 1.249 . S
Mg266 O267 2.028 . S
Mg266 O273 1.986 . S
Mg266 O275 2.114 . S
Mg266 O276 2.251 . S
Mg266 O279 2.010 . S
O267 Mg266 2.028 . S
O267 C270 1.250 . S
O268 Mg269 2.028 . S
O268 C270 1.248 . S
Mg269 O268 2.028 . S
Mg269 O274 2.032 . S
Mg269 O276 2.079 . S
C270 O267 1.250 . S
C270 O268 1.248 . S
C271 O272 1.264 . S
C271 O279 1.249 . S
O272 C271 1.264 . S
O273 Mg266 1.986 . S
O273 C277 1.246 . S
O274 Mg269 2.032 . S
O274 C277 1.259 . S
O275 Mg266 2.114 . S
O275 C278 1.252 . S
O276 Mg266 2.251 . S
O276 Mg269 2.079 . S
O276 C278 1.273 . S
C277 O273 1.246 . S
C277 O274 1.259 . S
C278 O275 1.252 . S
C278 O276 1.273 . S
O279 Mg266 2.010 . S
O279 C271 1.249 . S
Mg280 O281 2.028 . S
Mg280 O287 1.986 . S
Mg280 O289 2.114 . S
Mg280 O290 2.251 . S
Mg280 O293 2.010 . S
O281 Mg280 2.028 . S
O281 C284 1.250 . S
O282 Mg283 2.028 . S
O282 C284 1.248 . S
Mg283 O282 2.028 . S
Mg283 O288 2.032 . S
Mg283 O290 2.079 . S
C284 O281 1.250 . S
C284 O282 1.248 . S
C285 O286 1.264 . S
C285 O293 1.249 . S
O286 C285 1.264 . S
O287 Mg280 1.986 . S
O287 C291 1.246 . S
O288 Mg283 2.032 . S
O288 C291 1.259 . S
O289 Mg280 2.114 . S
O289 C292 1.252 . S
O290 Mg280 2.251 . S
O290 Mg283 2.079 . S
O290 C292 1.273 . S
C291 O287 1.246 . S
C291 O288 1.259 . S
C292 O289 1.252 . S
C292 O290 1.273 . S
O293 Mg280 2.010 . S
O293 C285 1.249 . S
Mg294 O295 2.028 . S
Mg294 O301 1.986 . S
Mg294 O303 2.114 . S
Mg294 O304 2.251 . S
Mg294 O307 2.010 1_554 S
O295 Mg294 2.028 . S
O295 C298 1.250 . S
O296 Mg297 2.028 . S
O296 C298 1.248 . S
Mg297 O296 2.028 . S
Mg297 O302 2.032 . S
Mg297 O304 2.079 . S
C298 O295 1.250 . S
C298 O296 1.248 . S
C299 O300 1.264 . S
C299 O307 1.249 . S
O300 C299 1.264 . S
O301 Mg294 1.986 . S
O301 C305 1.246 . S
O302 Mg297 2.032 . S
O302 C305 1.259 . S
O303 Mg294 2.114 . S
O303 C306 1.252 . S
O304 Mg294 2.251 . S
O304 Mg297 2.079 . S
O304 C306 1.273 . S
C305 O301 1.246 . S
C305 O302 1.259 . S
C306 O303 1.252 . S
C306 O304 1.273 . S
O307 Mg294 2.010 1_556 S
O307 C299 1.249 . S
Mg308 O309 2.028 . S
Mg308 O315 1.986 . S
Mg308 O317 2.114 . S
Mg308 O318 2.251 . S
Mg308 O321 2.010 1_554 S
O309 Mg308 2.028 . S
O309 C312 1.250 . S
O310 Mg311 2.028 . S
O310 C312 1.248 . S
Mg311 O310 2.028 . S
Mg311 O316 2.032 . S
Mg311 O318 2.079 . S
C312 O309 1.250 . S
C312 O310 1.248 . S
C313 O314 1.264 . S
C313 O321 1.249 . S
O314 C313 1.264 . S
O315 Mg308 1.986 . S
O315 C319 1.246 . S
O316 Mg311 2.032 . S
O316 C319 1.259 . S
O317 Mg308 2.114 . S
O317 C320 1.252 . S
O318 Mg308 2.251 . S
O318 Mg311 2.079 . S
O318 C320 1.273 . S
C319 O315 1.246 . S
C319 O316 1.259 . S
C320 O317 1.252 . S
C320 O318 1.273 . S
O321 Mg308 2.010 1_556 S
O321 C313 1.249 . S
Mg322 O323 2.028 . S
Mg322 O329 1.986 . S
Mg322 O331 2.114 . S
Mg322 O332 2.251 . S
Mg322 O335 2.010 1_554 S
O323 Mg322 2.028 . S
O323 C326 1.250 . S
O324 Mg325 2.028 . S
O324 C326 1.248 . S
Mg325 O324 2.028 . S
Mg325 O330 2.032 . S
Mg325 O332 2.079 . S
C326 O323 1.250 . S
C326 O324 1.248 . S
C327 O328 1.264 . S
C327 O335 1.249 . S
O328 C327 1.264 . S
O329 Mg322 1.986 . S
O329 C333 1.246 . S
O330 Mg325 2.032 . S
O330 C333 1.259 . S
O331 Mg322 2.114 . S
O331 C334 1.252 . S
O332 Mg322 2.251 . S
O332 Mg325 2.079 . S
O332 C334 1.273 . S
C333 O329 1.246 . S
C333 O330 1.259 . S
C334 O331 1.252 . S
C334 O332 1.273 . S
O335 Mg322 2.010 1_556 S
O335 C327 1.249 . S
Mg336 O337 2.028 . S
Mg336 O343 1.986 . S
Mg336 O345 2.114 . S
Mg336 O346 2.251 . S
Mg336 O349 2.010 . S
O337 Mg336 2.028 . S
O337 C340 1.250 . S
O338 Mg339 2.028 . S
O338 C340 1.248 . S
Mg339 O338 2.028 . S
Mg339 O344 2.032 . S
Mg339 O346 2.079 . S
C340 O337 1.250 . S
C340 O338 1.248 . S
C341 O342 1.264 . S
C341 O349 1.249 . S
O342 C341 1.264 . S
O343 Mg336 1.986 . S
O343 C347 1.246 . S
O344 Mg339 2.032 . S
O344 C347 1.259 . S
O345 Mg336 2.114 . S
O345 C348 1.252 . S
O346 Mg336 2.251 . S
O346 Mg339 2.079 . S
O346 C348 1.273 . S
C347 O343 1.246 . S
C347 O344 1.259 . S
C348 O345 1.252 . S
C348 O346 1.273 . S
O349 Mg336 2.010 . S
O349 C341 1.249 . S
Mg350 O351 2.028 . S
Mg350 O357 1.986 . S
Mg350 O359 2.114 . S
Mg350 O360 2.251 . S
Mg350 O363 2.010 . S
O351 Mg350 2.028 . S
O351 C354 1.250 . S
O352 Mg353 2.028 . S
O352 C354 1.248 . S
Mg353 O352 2.028 . S
Mg353 O358 2.032 . S
Mg353 O360 2.079 . S
C354 O351 1.250 . S
C354 O352 1.248 . S
C355 O356 1.264 . S
C355 O363 1.249 . S
O356 C355 1.264 . S
O357 Mg350 1.986 . S
O357 C361 1.246 . S
O358 Mg353 2.032 . S
O358 C361 1.259 . S
O359 Mg350 2.114 . S
O359 C362 1.252 . S
O360 Mg350 2.251 . S
O360 Mg353 2.079 . S
O360 C362 1.273 . S
C361 O357 1.246 . S
C361 O358 1.259 . S
C362 O359 1.252 . S
C362 O360 1.273 . S
O363 Mg350 2.010 . S
O363 C355 1.249 . S
Mg364 O365 2.028 . S
Mg364 O371 1.986 . S
Mg364 O373 2.114 . S
Mg364 O374 2.251 . S
Mg364 O377 2.010 . S
O365 Mg364 2.028 . S
O365 C368 1.250 . S
O366 Mg367 2.028 . S
O366 C368 1.248 . S
Mg367 O366 2.028 . S
Mg367 O372 2.032 . S
Mg367 O374 2.079 . S
C368 O365 1.250 . S
C368 O366 1.248 . S
C369 O370 1.264 . S
C369 O377 1.249 . S
O370 C369 1.264 . S
O371 Mg364 1.986 . S
O371 C375 1.246 . S
O372 Mg367 2.032 . S
O372 C375 1.259 . S
O373 Mg364 2.114 . S
O373 C376 1.252 . S
O374 Mg364 2.251 . S
O374 Mg367 2.079 . S
O374 C376 1.273 . S
C375 O371 1.246 . S
C375 O372 1.259 . S
C376 O373 1.252 . S
C376 O374 1.273 . S
O377 Mg364 2.010 . S
O377 C369 1.249 . S
Mg378 O379 2.028 . S
Mg378 O385 1.986 . S
Mg378 O387 2.114 . S
Mg378 O388 2.251 . S
Mg378 O391 2.010 1_556 S
O379 Mg378 2.028 . S
O379 C382 1.250 . S
O380 Mg381 2.028 . S
O380 C382 1.248 . S
Mg381 O380 2.028 . S
Mg381 O386 2.032 . S
Mg381 O388 2.079 . S
C382 O379 1.250 . S
C382 O380 1.248 . S
C383 O384 1.264 . S
C383 O391 1.249 . S
O384 C383 1.264 . S
O385 Mg378 1.986 . S
O385 C389 1.246 . S
O386 Mg381 2.032 . S
O386 C389 1.259 . S
O387 Mg378 2.114 . S
O387 C390 1.252 . S
O388 Mg378 2.251 . S
O388 Mg381 2.079 . S
O388 C390 1.273 . S
C389 O385 1.246 . S
C389 O386 1.259 . S
C390 O387 1.252 . S
C390 O388 1.273 . S
O391 Mg378 2.010 1_554 S
O391 C383 1.249 . S
Mg392 O393 2.028 . S
Mg392 O399 1.986 . S
Mg392 O401 2.114 . S
Mg392 O402 2.251 . S
Mg392 O405 2.010 1_556 S
O393 Mg392 2.028 . S
O393 C396 1.250 . S
O394 Mg395 2.028 . S
O394 C396 1.248 . S
Mg395 O394 2.028 . S
Mg395 O400 2.032 . S
Mg395 O402 2.079 . S
C396 O393 1.250 . S
C396 O394 1.248 . S
C397 O398 1.264 . S
C397 O405 1.249 . S
O398 C397 1.264 . S
O399 Mg392 1.986 . S
O399 C403 1.246 . S
O400 Mg395 2.032 . S
O400 C403 1.259 . S
O401 Mg392 2.114 . S
O401 C404 1.252 . S
O402 Mg392 2.251 . S
O402 Mg395 2.079 . S
O402 C404 1.273 . S
C403 O399 1.246 . S
C403 O400 1.259 . S
C404 O401 1.252 . S
C404 O402 1.273 . S
O405 Mg392 2.010 1_554 S
O405 C397 1.249 . S
Mg406 O407 2.028 . S
Mg406 O413 1.986 . S
Mg406 O415 2.114 . S
Mg406 O416 2.251 . S
Mg406 O419 2.010 1_556 S
O407 Mg406 2.028 . S
O407 C410 1.250 . S
O408 Mg409 2.028 . S
O408 C410 1.248 . S
Mg409 O408 2.028 . S
Mg409 O414 2.032 . S
Mg409 O416 2.079 . S
C410 O407 1.250 . S
C410 O408 1.248 . S
C411 O412 1.264 . S
C411 O419 1.249 . S
O412 C411 1.264 . S
O413 Mg406 1.986 . S
O413 C417 1.246 . S
O414 Mg409 2.032 . S
O414 C417 1.259 . S
O415 Mg406 2.114 . S
O415 C418 1.252 . S
O416 Mg406 2.251 . S
O416 Mg409 2.079 . S
O416 C418 1.273 . S
C417 O413 1.246 . S
C417 O414 1.259 . S
C418 O415 1.252 . S
C418 O416 1.273 . S
O419 Mg406 2.010 1_554 S
O419 C411 1.249 . S
Mg420 O421 2.028 . S
Mg420 O427 1.986 . S
Mg420 O429 2.114 . S
Mg420 O430 2.251 . S
Mg420 O433 2.010 . S
O421 Mg420 2.028 . S
O421 C424 1.250 . S
O422 Mg423 2.028 . S
O422 C424 1.248 . S
Mg423 O422 2.028 . S
Mg423 O428 2.032 . S
Mg423 O430 2.079 . S
C424 O421 1.250 . S
C424 O422 1.248 . S
C425 O426 1.264 . S
C425 O433 1.249 . S
O426 C425 1.264 . S
O427 Mg420 1.986 . S
O427 C431 1.246 . S
O428 Mg423 2.032 . S
O428 C431 1.259 . S
O429 Mg420 2.114 . S
O429 C432 1.252 . S
O430 Mg420 2.251 . S
O430 Mg423 2.079 . S
O430 C432 1.273 . S
C431 O427 1.246 . S
C431 O428 1.259 . S
C432 O429 1.252 . S
C432 O430 1.273 . S
O433 Mg420 2.010 . S
O433 C425 1.249 . S
Mg434 O435 2.028 . S
Mg434 O441 1.986 . S
Mg434 O443 2.114 . S
Mg434 O444 2.251 . S
Mg434 O447 2.010 . S
O435 Mg434 2.028 . S
O435 C438 1.250 . S
O436 Mg437 2.028 . S
O436 C438 1.248 . S
Mg437 O436 2.028 . S
Mg437 O442 2.032 . S
Mg437 O444 2.079 . S
C438 O435 1.250 . S
C438 O436 1.248 . S
C439 O440 1.264 . S
C439 O447 1.249 . S
O440 C439 1.264 . S
O441 Mg434 1.986 . S
O441 C445 1.246 . S
O442 Mg437 2.032 . S
O442 C445 1.259 . S
O443 Mg434 2.114 . S
O443 C446 1.252 . S
O444 Mg434 2.251 . S
O444 Mg437 2.079 . S
O444 C446 1.273 . S
C445 O441 1.246 . S
C445 O442 1.259 . S
C446 O443 1.252 . S
C446 O444 1.273 . S
O447 Mg434 2.010 . S
O447 C439 1.249 . S
Mg448 O449 2.028 . S
Mg448 O455 1.986 . S
Mg448 O457 2.114 . S
Mg448 O458 2.251 . S
Mg448 O461 2.010 . S
O449 Mg448 2.028 . S
O449 C452 1.250 . S
O450 Mg451 2.028 . S
O450 C452 1.248 . S
Mg451 O450 2.028 . S
Mg451 O456 2.032 . S
Mg451 O458 2.079 . S
C452 O449 1.250 . S
C452 O450 1.248 . S
C453 O454 1.264 . S
C453 O461 1.249 . S
O454 C453 1.264 . S
O455 Mg448 1.986 . S
O455 C459 1.246 . S
O456 Mg451 2.032 . S
O456 C459 1.259 . S
O457 Mg448 2.114 . S
O457 C460 1.252 . S
O458 Mg448 2.251 . S
O458 Mg451 2.079 . S
O458 C460 1.273 . S
C459 O455 1.246 . S
C459 O456 1.259 . S
C460 O457 1.252 . S
C460 O458 1.273 . S
O461 Mg448 2.010 . S
O461 C453 1.249 . S
Mg462 O463 2.028 . S
Mg462 O469 1.986 . S
Mg462 O471 2.114 . S
Mg462 O472 2.251 . S
Mg462 O475 2.010 . S
O463 Mg462 2.028 . S
O463 C466 1.250 . S
O464 Mg465 2.028 . S
O464 C466 1.248 . S
Mg465 O464 2.028 . S
Mg465 O470 2.032 . S
Mg465 O472 2.079 . S
C466 O463 1.250 . S
C466 O464 1.248 . S
C467 O468 1.264 . S
C467 O475 1.249 . S
O468 C467 1.264 . S
O469 Mg462 1.986 . S
O469 C473 1.246 . S
O470 Mg465 2.032 . S
O470 C473 1.259 . S
O471 Mg462 2.114 . S
O471 C474 1.252 . S
O472 Mg462 2.251 . S
O472 Mg465 2.079 . S
O472 C474 1.273 . S
C473 O469 1.246 . S
C473 O470 1.259 . S
C474 O471 1.252 . S
C474 O472 1.273 . S
O475 Mg462 2.010 . S
O475 C467 1.249 . S
Mg476 O477 2.028 . S
Mg476 O483 1.986 . S
Mg476 O485 2.114 . S
Mg476 O486 2.251 . S
Mg476 O489 2.010 . S
O477 Mg476 2.028 . S
O477 C480 1.250 . S
O478 Mg479 2.028 . S
O478 C480 1.248 . S
Mg479 O478 2.028 . S
Mg479 O484 2.032 . S
Mg479 O486 2.079 . S
C480 O477 1.250 . S
C480 O478 1.248 . S
C481 O482 1.264 . S
C481 O489 1.249 . S
O482 C481 1.264 . S
O483 Mg476 1.986 . S
O483 C487 1.246 . S
O484 Mg479 2.032 . S
O484 C487 1.259 . S
O485 Mg476 2.114 . S
O485 C488 1.252 . S
O486 Mg476 2.251 . S
O486 Mg479 2.079 . S
O486 C488 1.273 . S
C487 O483 1.246 . S
C487 O484 1.259 . S
C488 O485 1.252 . S
C488 O486 1.273 . S
O489 Mg476 2.010 . S
O489 C481 1.249 . S
Mg490 O491 2.028 . S
Mg490 O497 1.986 . S
Mg490 O499 2.114 . S
Mg490 O500 2.251 . S
Mg490 O503 2.010 . S
O491 Mg490 2.028 . S
O491 C494 1.250 . S
O492 Mg493 2.028 . S
O492 C494 1.248 . S
Mg493 O492 2.028 . S
Mg493 O498 2.032 . S
Mg493 O500 2.079 . S
C494 O491 1.250 . S
C494 O492 1.248 . S
C495 O496 1.264 . S
C495 O503 1.249 . S
O496 C495 1.264 . S
O497 Mg490 1.986 . S
O497 C501 1.246 . S
O498 Mg493 2.032 . S
O498 C501 1.259 . S
O499 Mg490 2.114 . S
O499 C502 1.252 . S
O500 Mg490 2.251 . S
O500 Mg493 2.079 . S
O500 C502 1.273 . S
C501 O497 1.246 . S
C501 O498 1.259 . S
C502 O499 1.252 . S
C502 O500 1.273 . S
O503 Mg490 2.010 . S
O503 C495 1.249 . S
H504 C512 0.950 . S
H505 C517 0.950 . S
H506 C514 0.950 . S
H507 C516 0.950 . S
H508 C518 0.950 . S
H509 C520 0.950 . S
H510 C522 0.950 . S
H511 C523 0.950 . S
C512 H504 0.950 . S
C512 C513 1.386 . S
C512 C514 1.391 . S
C513 C512 1.386 . S
C513 C517 1.393 . S
C514 H506 0.950 . S
C514 C512 1.391 . S
C514 C515 1.400 . S
C515 C514 1.400 . S
C515 C516 1.398 . S
C515 C521 1.491 . S
C516 H507 0.950 . S
C516 C515 1.398 . S
C516 C517 1.391 . S
C517 H505 0.950 . S
C517 C513 1.393 . S
C517 C516 1.391 . S
C518 H508 0.950 . S
C518 C519 1.386 . S
C518 C520 1.391 1_554 S
C519 C518 1.386 . S
C519 C523 1.393 . S
C520 H509 0.950 . S
C520 C518 1.391 1_556 S
C520 C521 1.400 . S
C521 C515 1.491 . S
C521 C520 1.400 . S
C521 C522 1.398 . S
C522 H510 0.950 . S
C522 C521 1.398 . S
C522 C523 1.391 1_556 S
C523 H511 0.950 . S
C523 C519 1.393 . S
C523 C522 1.391 1_554 S
H524 C532 0.950 . S
H525 C537 0.950 . S
H526 C534 0.950 . S
H527 C536 0.950 . S
H528 C538 0.950 . S
H529 C540 0.950 . S
H530 C542 0.950 . S
H531 C543 0.950 . S
C532 H524 0.950 . S
C532 C533 1.386 . S
C532 C534 1.391 . S
C533 C532 1.386 . S
C533 C537 1.393 . S
C534 H526 0.950 . S
C534 C532 1.391 . S
C534 C535 1.400 . S
C535 C534 1.400 . S
C535 C536 1.398 . S
C535 C541 1.491 . S
C536 H527 0.950 . S
C536 C535 1.398 . S
C536 C537 1.391 . S
C537 H525 0.950 . S
C537 C533 1.393 . S
C537 C536 1.391 . S
C538 H528 0.950 . S
C538 C539 1.386 . S
C538 C540 1.391 1_554 S
C539 C538 1.386 . S
C539 C543 1.393 . S
C540 H529 0.950 . S
C540 C538 1.391 1_556 S
C540 C541 1.400 . S
C541 C535 1.491 . S
C541 C540 1.400 . S
C541 C542 1.398 . S
C542 H530 0.950 . S
C542 C541 1.398 . S
C542 C543 1.391 1_556 S
C543 H531 0.950 . S
C543 C539 1.393 . S
C543 C542 1.391 1_554 S
H544 C552 0.950 . S
H545 C557 0.950 . S
H546 C554 0.950 . S
H547 C556 0.950 . S
H548 C558 0.950 . S
H549 C560 0.950 . S
H550 C562 0.950 . S
H551 C563 0.950 . S
C552 H544 0.950 . S
C552 C553 1.386 . S
C552 C554 1.391 1_554 S
C553 C552 1.386 . S
C553 C557 1.393 . S
C554 H546 0.950 . S
C554 C552 1.391 1_556 S
C554 C555 1.400 . S
C555 C554 1.400 . S
C555 C556 1.398 . S
C555 C561 1.491 . S
C556 H547 0.950 . S
C556 C555 1.398 . S
C556 C557 1.391 1_556 S
C557 H545 0.950 . S
C557 C553 1.393 . S
C557 C556 1.391 1_554 S
C558 H548 0.950 . S
C558 C559 1.386 . S
C558 C560 1.391 . S
C559 C558 1.386 . S
C559 C563 1.393 . S
C560 H549 0.950 . S
C560 C558 1.391 . S
C560 C561 1.400 . S
C561 C555 1.491 . S
C561 C560 1.400 . S
C561 C562 1.398 . S
C562 H550 0.950 . S
C562 C561 1.398 . S
C562 C563 1.391 . S
C563 H551 0.950 . S
C563 C559 1.393 . S
C563 C562 1.391 . S
H564 C572 0.950 . S
H565 C577 0.950 . S
H566 C574 0.950 . S
H567 C576 0.950 . S
H568 C578 0.950 . S
H569 C580 0.950 . S
H570 C582 0.950 . S
H571 C583 0.950 . S
C572 H564 0.950 . S
C572 C573 1.386 . S
C572 C574 1.391 . S
C573 C572 1.386 . S
C573 C577 1.393 . S
C574 H566 0.950 . S
C574 C572 1.391 . S
C574 C575 1.400 . S
C575 C574 1.400 . S
C575 C576 1.398 . S
C575 C581 1.491 . S
C576 H567 0.950 . S
C576 C575 1.398 . S
C576 C577 1.391 . S
C577 H565 0.950 . S
C577 C573 1.393 . S
C577 C576 1.391 . S
C578 H568 0.950 . S
C578 C579 1.386 . S
C578 C580 1.391 . S
C579 C578 1.386 . S
C579 C583 1.393 . S
C580 H569 0.950 . S
C580 C578 1.391 . S
C580 C581 1.400 . S
C581 C575 1.491 . S
C581 C580 1.400 . S
C581 C582 1.398 . S
C582 H570 0.950 . S
C582 C581 1.398 . S
C582 C583 1.391 . S
C583 H571 0.950 . S
C583 C579 1.393 . S
C583 C582 1.391 . S
H584 C592 0.950 . S
H585 C597 0.950 . S
H586 C594 0.950 . S
H587 C596 0.950 . S
H588 C598 0.950 . S
H589 C600 0.950 . S
H590 C602 0.950 . S
H591 C603 0.950 . S
C592 H584 0.950 . S
C592 C593 1.386 . S
C592 C594 1.391 . S
C593 C592 1.386 . S
C593 C597 1.393 . S
C594 H586 0.950 . S
C594 C592 1.391 . S
C594 C595 1.400 . S
C595 C594 1.400 . S
C595 C596 1.398 . S
C595 C601 1.491 . S
C596 H587 0.950 . S
C596 C595 1.398 . S
C596 C597 1.391 . S
C597 H585 0.950 . S
C597 C593 1.393 . S
C597 C596 1.391 . S
C598 H588 0.950 . S
C598 C599 1.386 . S
C598 C600 1.391 . S
C599 C598 1.386 . S
C599 C603 1.393 . S
C600 H589 0.950 . S
C600 C598 1.391 . S
C600 C601 1.400 . S
C601 C595 1.491 . S
C601 C600 1.400 . S
C601 C602 1.398 . S
C602 H590 0.950 . S
C602 C601 1.398 . S
C602 C603 1.391 . S
C603 H591 0.950 . S
C603 C599 1.393 . S
C603 C602 1.391 . S
H604 C612 0.950 . S
H605 C617 0.950 . S
H606 C614 0.950 . S
H607 C616 0.950 . S
H608 C618 0.950 . S
H609 C620 0.950 . S
H610 C622 0.950 . S
H611 C623 0.950 . S
C612 H604 0.950 . S
C612 C613 1.386 . S
C612 C614 1.391 . S
C613 C612 1.386 . S
C613 C617 1.393 . S
C614 H606 0.950 . S
C614 C612 1.391 . S
C614 C615 1.400 . S
C615 C614 1.400 . S
C615 C616 1.398 . S
C615 C621 1.491 . S
C616 H607 0.950 . S
C616 C615 1.398 . S
C616 C617 1.391 . S
C617 H605 0.950 . S
C617 C613 1.393 . S
C617 C616 1.391 . S
C618 H608 0.950 . S
C618 C619 1.386 . S
C618 C620 1.391 . S
C619 C618 1.386 . S
C619 C623 1.393 . S
C620 H609 0.950 . S
C620 C618 1.391 . S
C620 C621 1.400 . S
C621 C615 1.491 . S
C621 C620 1.400 . S
C621 C622 1.398 . S
C622 H610 0.950 . S
C622 C621 1.398 . S
C622 C623 1.391 . S
C623 H611 0.950 . S
C623 C619 1.393 . S
C623 C622 1.391 . S
H624 C632 0.950 . S
H625 C637 0.950 . S
H626 C634 0.950 . S
H627 C636 0.950 . S
H628 C638 0.950 . S
H629 C640 0.950 . S
H630 C642 0.950 . S
H631 C643 0.950 . S
C632 H624 0.950 . S
C632 C633 1.386 . S
C632 C634 1.391 . S
C633 C632 1.386 . S
C633 C637 1.393 . S
C634 H626 0.950 . S
C634 C632 1.391 . S
C634 C635 1.400 . S
C635 C634 1.400 . S
C635 C636 1.398 . S
C635 C641 1.491 . S
C636 H627 0.950 . S
C636 C635 1.398 . S
C636 C637 1.391 . S
C637 H625 0.950 . S
C637 C633 1.393 . S
C637 C636 1.391 . S
C638 H628 0.950 . S
C638 C639 1.386 . S
C638 C640 1.391 1_556 S
C639 C638 1.386 . S
C639 C643 1.393 . S
C640 H629 0.950 . S
C640 C638 1.391 1_554 S
C640 C641 1.400 . S
C641 C635 1.491 . S
C641 C640 1.400 . S
C641 C642 1.398 . S
C642 H630 0.950 . S
C642 C641 1.398 . S
C642 C643 1.391 1_554 S
C643 H631 0.950 . S
C643 C639 1.393 . S
C643 C642 1.391 1_556 S
H644 C652 0.950 . S
H645 C657 0.950 . S
H646 C654 0.950 . S
H647 C656 0.950 . S
H648 C658 0.950 . S
H649 C660 0.950 . S
H650 C662 0.950 . S
H651 C663 0.950 . S
C652 H644 0.950 . S
C652 C653 1.386 . S
C652 C654 1.391 . S
C653 C652 1.386 . S
C653 C657 1.393 . S
C654 H646 0.950 . S
C654 C652 1.391 . S
C654 C655 1.400 . S
C655 C654 1.400 . S
C655 C656 1.398 . S
C655 C661 1.491 . S
C656 H647 0.950 . S
C656 C655 1.398 . S
C656 C657 1.391 . S
C657 H645 0.950 . S
C657 C653 1.393 . S
C657 C656 1.391 . S
C658 H648 0.950 . S
C658 C659 1.386 . S
C658 C660 1.391 1_556 S
C659 C658 1.386 . S
C659 C663 1.393 . S
C660 H649 0.950 . S
C660 C658 1.391 1_554 S
C660 C661 1.400 . S
C661 C655 1.491 . S
C661 C660 1.400 . S
C661 C662 1.398 . S
C662 H650 0.950 . S
C662 C661 1.398 . S
C662 C663 1.391 1_554 S
C663 H651 0.950 . S
C663 C659 1.393 . S
C663 C662 1.391 1_556 S
H664 C672 0.950 . S
H665 C677 0.950 . S
H666 C674 0.950 . S
H667 C676 0.950 . S
H668 C678 0.950 . S
H669 C680 0.950 . S
H670 C682 0.950 . S
H671 C683 0.950 . S
C672 H664 0.950 . S
C672 C673 1.386 . S
C672 C674 1.391 1_556 S
C673 C672 1.386 . S
C673 C677 1.393 . S
C674 H666 0.950 . S
C674 C672 1.391 1_554 S
C674 C675 1.400 . S
C675 C674 1.400 . S
C675 C676 1.398 . S
C675 C681 1.491 . S
C676 H667 0.950 . S
C676 C675 1.398 . S
C676 C677 1.391 1_554 S
C677 H665 0.950 . S
C677 C673 1.393 . S
C677 C676 1.391 1_556 S
C678 H668 0.950 . S
C678 C679 1.386 . S
C678 C680 1.391 . S
C679 C678 1.386 . S
C679 C683 1.393 . S
C680 H669 0.950 . S
C680 C678 1.391 . S
C680 C681 1.400 . S
C681 C675 1.491 . S
C681 C680 1.400 . S
C681 C682 1.398 . S
C682 H670 0.950 . S
C682 C681 1.398 . S
C682 C683 1.391 . S
C683 H671 0.950 . S
C683 C679 1.393 . S
C683 C682 1.391 . S
H684 C692 0.950 . S
H685 C697 0.950 . S
H686 C694 0.950 . S
H687 C696 0.950 . S
H688 C698 0.950 . S
H689 C700 0.950 . S
H690 C702 0.950 . S
H691 C703 0.950 . S
C692 H684 0.950 . S
C692 C693 1.386 . S
C692 C694 1.391 . S
C693 C692 1.386 . S
C693 C697 1.393 . S
C694 H686 0.950 . S
C694 C692 1.391 . S
C694 C695 1.400 . S
C695 C694 1.400 . S
C695 C696 1.398 . S
C695 C701 1.491 . S
C696 H687 0.950 . S
C696 C695 1.398 . S
C696 C697 1.391 . S
C697 H685 0.950 . S
C697 C693 1.393 . S
C697 C696 1.391 . S
C698 H688 0.950 . S
C698 C699 1.386 . S
C698 C700 1.391 . S
C699 C698 1.386 . S
C699 C703 1.393 . S
C700 H689 0.950 . S
C700 C698 1.391 . S
C700 C701 1.400 . S
C701 C695 1.491 . S
C701 C700 1.400 . S
C701 C702 1.398 . S
C702 H690 0.950 . S
C702 C701 1.398 . S
C702 C703 1.391 . S
C703 H691 0.950 . S
C703 C699 1.393 . S
C703 C702 1.391 . S
H704 C712 0.950 . S
H705 C717 0.950 . S
H706 C714 0.950 . S
H707 C716 0.950 . S
H708 C718 0.950 . S
H709 C720 0.950 . S
H710 C722 0.950 . S
H711 C723 0.950 . S
C712 H704 0.950 . S
C712 C713 1.386 . S
C712 C714 1.391 . S
C713 C712 1.386 . S
C713 C717 1.393 . S
C714 H706 0.950 . S
C714 C712 1.391 . S
C714 C715 1.400 . S
C715 C714 1.400 . S
C715 C716 1.398 . S
C715 C721 1.491 . S
C716 H707 0.950 . S
C716 C715 1.398 . S
C716 C717 1.391 . S
C717 H705 0.950 . S
C717 C713 1.393 . S
C717 C716 1.391 . S
C718 H708 0.950 . S
C718 C719 1.386 . S
C718 C720 1.391 . S
C719 C718 1.386 . S
C719 C723 1.393 . S
C720 H709 0.950 . S
C720 C718 1.391 . S
C720 C721 1.400 . S
C721 C715 1.491 . S
C721 C720 1.400 . S
C721 C722 1.398 . S
C722 H710 0.950 . S
C722 C721 1.398 . S
C722 C723 1.391 . S
C723 H711 0.950 . S
C723 C719 1.393 . S
C723 C722 1.391 . S
H724 C732 0.950 . S
H725 C737 0.950 . S
H726 C734 0.950 . S
H727 C736 0.950 . S
H728 C738 0.950 . S
H729 C740 0.950 . S
H730 C742 0.950 . S
H731 C743 0.950 . S
C732 H724 0.950 . S
C732 C733 1.386 . S
C732 C734 1.391 . S
C733 C732 1.386 . S
C733 C737 1.393 . S
C734 H726 0.950 . S
C734 C732 1.391 . S
C734 C735 1.400 . S
C735 C734 1.400 . S
C735 C736 1.398 . S
C735 C741 1.491 . S
C736 H727 0.950 . S
C736 C735 1.398 . S
C736 C737 1.391 . S
C737 H725 0.950 . S
C737 C733 1.393 . S
C737 C736 1.391 . S
C738 H728 0.950 . S
C738 C739 1.386 . S
C738 C740 1.391 . S
C739 C738 1.386 . S
C739 C743 1.393 . S
C740 H729 0.950 . S
C740 C738 1.391 . S
C740 C741 1.400 . S
C741 C735 1.491 . S
C741 C740 1.400 . S
C741 C742 1.398 . S
C742 H730 0.950 . S
C742 C741 1.398 . S
C742 C743 1.391 . S
C743 H731 0.950 . S
C743 C739 1.393 . S
C743 C742 1.391 . S
H744 C752 0.950 . S
H745 C757 0.950 . S
H746 C754 0.950 . S
H747 C756 0.950 . S
H748 C758 0.950 . S
H749 C760 0.950 . S
H750 C762 0.950 . S
H751 C763 0.950 . S
C752 H744 0.950 . S
C752 C753 1.386 . S
C752 C754 1.391 . S
C753 C752 1.386 . S
C753 C757 1.393 . S
C754 H746 0.950 . S
C754 C752 1.391 . S
C754 C755 1.400 . S
C755 C754 1.400 . S
C755 C756 1.398 . S
C755 C761 1.491 . S
C756 H747 0.950 . S
C756 C755 1.398 . S
C756 C757 1.391 . S
C757 H745 0.950 . S
C757 C753 1.393 . S
C757 C756 1.391 . S
C758 H748 0.950 . S
C758 C759 1.386 . S
C758 C760 1.391 . S
C759 C758 1.386 . S
C759 C763 1.393 . S
C760 H749 0.950 . S
C760 C758 1.391 . S
C760 C761 1.400 . S
C761 C755 1.491 . S
C761 C760 1.400 . S
C761 C762 1.398 . S
C762 H750 0.950 . S
C762 C761 1.398 . S
C762 C763 1.391 . S
C763 H751 0.950 . S
C763 C759 1.393 . S
C763 C762 1.391 . S
H764 C772 0.950 . S
H765 C777 0.950 . S
H766 C774 0.950 . S
H767 C776 0.950 . S
H768 C778 0.950 . S
H769 C780 0.950 . S
H770 C782 0.950 . S
H771 C783 0.950 . S
C772 H764 0.950 . S
C772 C773 1.386 . S
C772 C774 1.391 . S
C773 C772 1.386 . S
C773 C777 1.393 . S
C774 H766 0.950 . S
C774 C772 1.391 . S
C774 C775 1.400 . S
C775 C774 1.400 . S
C775 C776 1.398 . S
C775 C781 1.491 . S
C776 H767 0.950 . S
C776 C775 1.398 . S
C776 C777 1.391 . S
C777 H765 0.950 . S
C777 C773 1.393 . S
C777 C776 1.391 . S
C778 H768 0.950 . S
C778 C779 1.386 . S
C778 C780 1.391 . S
C779 C778 1.386 . S
C779 C783 1.393 . S
C780 H769 0.950 . S
C780 C778 1.391 . S
C780 C781 1.400 . S
C781 C775 1.491 . S
C781 C780 1.400 . S
C781 C782 1.398 . S
C782 H770 0.950 . S
C782 C781 1.398 . S
C782 C783 1.391 . S
C783 H771 0.950 . S
C783 C779 1.393 . S
C783 C782 1.391 . S
H784 C792 0.950 . S
H785 C797 0.950 . S
H786 C794 0.950 . S
H787 C796 0.950 . S
H788 C798 0.950 . S
H789 C800 0.950 . S
H790 C802 0.950 . S
H791 C803 0.950 . S
C792 H784 0.950 . S
C792 C793 1.386 . S
C792 C794 1.391 . S
C793 C792 1.386 . S
C793 C797 1.393 . S
C794 H786 0.950 . S
C794 C792 1.391 . S
C794 C795 1.400 . S
C795 C794 1.400 . S
C795 C796 1.398 . S
C795 C801 1.491 . S
C796 H787 0.950 . S
C796 C795 1.398 . S
C796 C797 1.391 . S
C797 H785 0.950 . S
C797 C793 1.393 . S
C797 C796 1.391 . S
C798 H788 0.950 . S
C798 C799 1.386 . S
C798 C800 1.391 . S
C799 C798 1.386 . S
C799 C803 1.393 . S
C800 H789 0.950 . S
C800 C798 1.391 . S
C800 C801 1.400 . S
C801 C795 1.491 . S
C801 C800 1.400 . S
C801 C802 1.398 . S
C802 H790 0.950 . S
C802 C801 1.398 . S
C802 C803 1.391 . S
C803 H791 0.950 . S
C803 C799 1.393 . S
C803 C802 1.391 . S
H804 C812 0.950 . S
H805 C817 0.950 . S
H806 C814 0.950 . S
H807 C816 0.950 . S
H808 C818 0.950 . S
H809 C820 0.950 . S
H810 C822 0.950 . S
H811 C823 0.950 1_554 S
C812 H804 0.950 . S
C812 C813 1.386 . S
C812 C814 1.391 . S
C813 C812 1.386 . S
C813 C817 1.393 . S
C814 H806 0.950 . S
C814 C812 1.391 . S
C814 C815 1.400 . S
C815 C814 1.400 . S
C815 C816 1.398 . S
C815 C821 1.491 . S
C816 H807 0.950 . S
C816 C815 1.398 . S
C816 C817 1.391 . S
C817 H805 0.950 . S
C817 C813 1.393 . S
C817 C816 1.391 . S
C818 H808 0.950 . S
C818 C819 1.386 . S
C818 C820 1.391 1_554 S
C819 C818 1.386 . S
C819 C823 1.393 1_554 S
C820 H809 0.950 . S
C820 C818 1.391 1_556 S
C820 C821 1.400 . S
C821 C815 1.491 . S
C821 C820 1.400 . S
C821 C822 1.398 . S
C822 H810 0.950 . S
C822 C821 1.398 . S
C822 C823 1.391 . S
C823 H811 0.950 1_556 S
C823 C819 1.393 1_556 S
C823 C822 1.391 . S
H824 C832 0.950 . S
H825 C837 0.950 . S
H826 C834 0.950 . S
H827 C836 0.950 . S
H828 C838 0.950 1_554 S
H829 C840 0.950 . S
H830 C842 0.950 . S
H831 C843 0.950 . S
C832 H824 0.950 . S
C832 C833 1.386 . S
C832 C834 1.391 . S
C833 C832 1.386 . S
C833 C837 1.393 . S
C834 H826 0.950 . S
C834 C832 1.391 . S
C834 C835 1.400 . S
C835 C834 1.400 . S
C835 C836 1.398 . S
C835 C841 1.491 . S
C836 H827 0.950 . S
C836 C835 1.398 . S
C836 C837 1.391 . S
C837 H825 0.950 . S
C837 C833 1.393 . S
C837 C836 1.391 . S
C838 H828 0.950 1_556 S
C838 C839 1.386 1_556 S
C838 C840 1.391 . S
C839 C838 1.386 1_554 S
C839 C843 1.393 . S
C840 H829 0.950 . S
C840 C838 1.391 . S
C840 C841 1.400 . S
C841 C835 1.491 . S
C841 C840 1.400 . S
C841 C842 1.398 . S
C842 H830 0.950 . S
C842 C841 1.398 . S
C842 C843 1.391 1_556 S
C843 H831 0.950 . S
C843 C839 1.393 . S
C843 C842 1.391 1_554 S
H844 C852 0.950 . S
H845 C857 0.950 . S
H846 C854 0.950 . S
H847 C856 0.950 . S
H848 C858 0.947 1_554 S
H849 C860 0.950 . S
H850 C862 0.950 . S
H851 C863 0.950 1_554 S
C852 H844 0.950 . S
C852 C853 1.386 . S
C852 C854 1.391 . S
C853 C852 1.386 . S
C853 C857 1.393 . S
C854 H846 0.950 . S
C854 C852 1.391 . S
C854 C855 1.400 . S
C855 C854 1.400 . S
C855 C856 1.398 . S
C855 C861 1.491 . S
C856 H847 0.950 . S
C856 C855 1.398 . S
C856 C857 1.391 . S
C857 H845 0.950 . S
C857 C853 1.393 . S
C857 C856 1.391 . S
C858 H848 0.947 1_556 S
C858 C859 1.383 1_556 S
C858 C860 1.396 . S
C859 C858 1.383 1_554 S
C859 C863 1.393 1_554 S
C860 H849 0.950 . S
C860 C858 1.396 . S
C860 C861 1.400 . S
C861 C855 1.491 . S
C861 C860 1.400 . S
C861 C862 1.398 . S
C862 H850 0.950 . S
C862 C861 1.398 . S
C862 C863 1.391 . S
C863 H851 0.950 1_556 S
C863 C859 1.393 1_556 S
C863 C862 1.391 . S
H864 C872 0.950 . S
H865 C877 0.950 . S
H866 C874 0.950 . S
H867 C876 0.950 . S
H868 C878 0.950 . S
H869 C880 0.950 . S
H870 C882 0.950 . S
H871 C883 0.950 . S
C872 H864 0.950 . S
C872 C873 1.386 . S
C872 C874 1.391 . S
C873 C872 1.386 . S
C873 C877 1.393 . S
C874 H866 0.950 . S
C874 C872 1.391 . S
C874 C875 1.400 . S
C875 C874 1.400 . S
C875 C876 1.398 . S
C875 C881 1.491 . S
C876 H867 0.950 . S
C876 C875 1.398 . S
C876 C877 1.391 . S
C877 H865 0.950 . S
C877 C873 1.393 . S
C877 C876 1.391 . S
C878 H868 0.950 . S
C878 C879 1.386 . S
C878 C880 1.391 . S
C879 C878 1.386 . S
C879 C883 1.393 . S
C880 H869 0.950 . S
C880 C878 1.391 . S
C880 C881 1.400 . S
C881 C875 1.491 . S
C881 C880 1.400 . S
C881 C882 1.398 . S
C882 H870 0.950 . S
C882 C881 1.398 . S
C882 C883 1.391 . S
C883 H871 0.950 . S
C883 C879 1.393 . S
C883 C882 1.391 . S
H884 C892 0.950 . S
H885 C897 0.950 . S
H886 C894 0.950 . S
H887 C896 0.950 . S
H888 C898 0.950 . S
H889 C900 0.950 . S
H890 C902 0.950 . S
H891 C903 0.950 . S
C892 H884 0.950 . S
C892 C893 1.386 . S
C892 C894 1.391 . S
C893 C892 1.386 . S
C893 C897 1.393 . S
C894 H886 0.950 . S
C894 C892 1.391 . S
C894 C895 1.400 . S
C895 C894 1.400 . S
C895 C896 1.398 . S
C895 C901 1.491 . S
C896 H887 0.950 . S
C896 C895 1.398 . S
C896 C897 1.391 . S
C897 H885 0.950 . S
C897 C893 1.393 . S
C897 C896 1.391 . S
C898 H888 0.950 . S
C898 C899 1.386 . S
C898 C900 1.391 . S
C899 C898 1.386 . S
C899 C903 1.393 . S
C900 H889 0.950 . S
C900 C898 1.391 . S
C900 C901 1.400 . S
C901 C895 1.491 . S
C901 C900 1.400 . S
C901 C902 1.398 . S
C902 H890 0.950 . S
C902 C901 1.398 . S
C902 C903 1.391 . S
C903 H891 0.950 . S
C903 C899 1.393 . S
C903 C902 1.391 . S
H904 C912 0.950 . S
H905 C917 0.950 . S
H906 C914 0.950 . S
H907 C916 0.950 . S
H908 C918 0.950 . S
H909 C920 0.950 . S
H910 C922 0.950 . S
H911 C923 0.950 . S
C912 H904 0.950 . S
C912 C913 1.386 . S
C912 C914 1.391 . S
C913 C912 1.386 . S
C913 C917 1.393 . S
C914 H906 0.950 . S
C914 C912 1.391 . S
C914 C915 1.400 . S
C915 C914 1.400 . S
C915 C916 1.398 . S
C915 C921 1.491 . S
C916 H907 0.950 . S
C916 C915 1.398 . S
C916 C917 1.391 . S
C917 H905 0.950 . S
C917 C913 1.393 . S
C917 C916 1.391 . S
C918 H908 0.950 . S
C918 C919 1.386 . S
C918 C920 1.391 . S
C919 C918 1.386 . S
C919 C923 1.393 . S
C920 H909 0.950 . S
C920 C918 1.391 . S
C920 C921 1.400 . S
C921 C915 1.491 . S
C921 C920 1.400 . S
C921 C922 1.398 . S
C922 H910 0.950 . S
C922 C921 1.398 . S
C922 C923 1.391 . S
C923 H911 0.950 . S
C923 C919 1.393 . S
C923 C922 1.391 . S
H924 C932 0.950 . S
H925 C937 0.950 . S
H926 C934 0.950 . S
H927 C936 0.950 . S
H928 C938 0.950 . S
H929 C940 0.950 . S
H930 C942 0.950 . S
H931 C943 0.950 . S
C932 H924 0.950 . S
C932 C933 1.386 . S
C932 C934 1.391 . S
C933 C932 1.386 . S
C933 C937 1.393 . S
C934 H926 0.950 . S
C934 C932 1.391 . S
C934 C935 1.400 . S
C935 C934 1.400 . S
C935 C936 1.398 . S
C935 C941 1.491 . S
C936 H927 0.950 . S
C936 C935 1.398 . S
C936 C937 1.391 . S
C937 H925 0.950 . S
C937 C933 1.393 . S
C937 C936 1.391 . S
C938 H928 0.950 . S
C938 C939 1.386 . S
C938 C940 1.391 . S
C939 C938 1.386 . S
C939 C943 1.393 . S
C940 H929 0.950 . S
C940 C938 1.391 . S
C940 C941 1.400 . S
C941 C935 1.491 . S
C941 C940 1.400 . S
C941 C942 1.398 . S
C942 H930 0.950 . S
C942 C941 1.398 . S
C942 C943 1.391 . S
C943 H931 0.950 . S
C943 C939 1.393 . S
C943 C942 1.391 . S
H944 C952 0.950 . S
H945 C957 0.950 . S
H946 C954 0.950 . S
H947 C956 0.950 . S
H948 C958 0.950 . S
H949 C960 0.950 . S
H950 C962 0.950 . S
H951 C963 0.950 . S
C952 H944 0.950 . S
C952 C953 1.386 . S
C952 C954 1.391 . S
C953 C952 1.386 . S
C953 C957 1.393 . S
C954 H946 0.950 . S
C954 C952 1.391 . S
C954 C955 1.400 . S
C955 C954 1.400 . S
C955 C956 1.398 . S
C955 C961 1.491 . S
C956 H947 0.950 . S
C956 C955 1.398 . S
C956 C957 1.391 . S
C957 H945 0.950 . S
C957 C953 1.393 . S
C957 C956 1.391 . S
C958 H948 0.950 . S
C958 C959 1.386 . S
C958 C960 1.391 . S
C959 C958 1.386 . S
C959 C963 1.393 . S
C960 H949 0.950 . S
C960 C958 1.391 . S
C960 C961 1.400 . S
C961 C955 1.491 . S
C961 C960 1.400 . S
C961 C962 1.398 . S
C962 H950 0.950 . S
C962 C961 1.398 . S
C962 C963 1.391 . S
C963 H951 0.950 . S
C963 C959 1.393 . S
C963 C962 1.391 . S
H964 C972 0.950 . S
H965 C977 0.950 . S
H966 C974 0.950 . S
H967 C976 0.950 . S
H968 C978 0.950 . S
H969 C980 0.950 . S
H970 C982 0.950 . S
H971 C983 0.950 . S
C972 H964 0.950 . S
C972 C973 1.386 . S
C972 C974 1.391 . S
C973 C972 1.386 . S
C973 C977 1.393 . S
C974 H966 0.950 . S
C974 C972 1.391 . S
C974 C975 1.400 . S
C975 C974 1.400 . S
C975 C976 1.398 . S
C975 C981 1.491 . S
C976 H967 0.950 . S
C976 C975 1.398 . S
C976 C977 1.391 . S
C977 H965 0.950 . S
C977 C973 1.393 . S
C977 C976 1.391 . S
C978 H968 0.950 . S
C978 C979 1.386 . S
C978 C980 1.391 . S
C979 C978 1.386 . S
C979 C983 1.393 . S
C980 H969 0.950 . S
C980 C978 1.391 . S
C980 C981 1.400 . S
C981 C975 1.491 . S
C981 C980 1.400 . S
C981 C982 1.398 . S
C982 H970 0.950 . S
C982 C981 1.398 . S
C982 C983 1.391 . S
C983 H971 0.950 . S
C983 C979 1.393 . S
C983 C982 1.391 . S
H984 C992 0.950 . S
H985 C997 0.950 . S
H986 C994 0.950 . S
H987 C996 0.950 . S
H988 C998 0.950 . S
H989 C1000 0.950 . S
H990 C1002 0.950 . S
H991 C1003 0.950 . S
C992 H984 0.950 . S
C992 C993 1.386 . S
C992 C994 1.391 . S
C993 C992 1.386 . S
C993 C997 1.393 . S
C994 H986 0.950 . S
C994 C992 1.391 . S
C994 C995 1.400 . S
C995 C994 1.400 . S
C995 C996 1.398 . S
C995 C1001 1.491 . S
C996 H987 0.950 . S
C996 C995 1.398 . S
C996 C997 1.391 . S
C997 H985 0.950 . S
C997 C993 1.393 . S
C997 C996 1.391 . S
C998 H988 0.950 . S
C998 C999 1.386 . S
C998 C1000 1.391 . S
C999 C998 1.386 . S
C999 C1003 1.393 . S
C1000 H989 0.950 . S
C1000 C998 1.391 . S
C1000 C1001 1.400 . S
C1001 C995 1.491 . S
C1001 C1000 1.400 . S
C1001 C1002 1.398 . S
C1002 H990 0.950 . S
C1002 C1001 1.398 . S
C1002 C1003 1.391 . S
C1003 H991 0.950 . S
C1003 C999 1.393 . S
C1003 C1002 1.391 . S
H1004 C1012 0.950 . S
H1005 C1017 0.950 . S
H1006 C1014 0.950 . S
H1007 C1016 0.950 . S
H1008 C1018 0.950 . S
H1009 C1020 0.950 . S
H1010 C1022 0.950 . S
H1011 C1023 0.950 . S
C1012 H1004 0.950 . S
C1012 C1013 1.386 . S
C1012 C1014 1.391 . S
C1013 C1012 1.386 . S
C1013 C1017 1.393 . S
C1014 H1006 0.950 . S
C1014 C1012 1.391 . S
C1014 C1015 1.400 . S
C1015 C1014 1.400 . S
C1015 C1016 1.398 . S
C1015 C1021 1.491 . S
C1016 H1007 0.950 . S
C1016 C1015 1.398 . S
C1016 C1017 1.391 . S
C1017 H1005 0.950 . S
C1017 C1013 1.393 . S
C1017 C1016 1.391 . S
C1018 H1008 0.950 . S
C1018 C1019 1.386 . S
C1018 C1020 1.391 . S
C1019 C1018 1.386 . S
C1019 C1023 1.393 . S
C1020 H1009 0.950 . S
C1020 C1018 1.391 . S
C1020 C1021 1.400 . S
C1021 C1015 1.491 . S
C1021 C1020 1.400 . S
C1021 C1022 1.398 . S
C1022 H1010 0.950 . S
C1022 C1021 1.398 . S
C1022 C1023 1.391 . S
C1023 H1011 0.950 . S
C1023 C1019 1.393 . S
C1023 C1022 1.391 . S
H1024 C1032 0.950 . S
H1025 C1037 0.950 . S
H1026 C1034 0.950 . S
H1027 C1036 0.950 . S
H1028 C1038 0.950 . S
H1029 C1040 0.950 . S
H1030 C1042 0.950 . S
H1031 C1043 0.950 . S
C1032 H1024 0.950 . S
C1032 C1033 1.386 . S
C1032 C1034 1.391 . S
C1033 C1032 1.386 . S
C1033 C1037 1.393 . S
C1034 H1026 0.950 . S
C1034 C1032 1.391 . S
C1034 C1035 1.400 . S
C1035 C1034 1.400 . S
C1035 C1036 1.398 . S
C1035 C1041 1.491 . S
C1036 H1027 0.950 . S
C1036 C1035 1.398 . S
C1036 C1037 1.391 . S
C1037 H1025 0.950 . S
C1037 C1033 1.393 . S
C1037 C1036 1.391 . S
C1038 H1028 0.950 . S
C1038 C1039 1.386 . S
C1038 C1040 1.391 . S
C1039 C1038 1.386 . S
C1039 C1043 1.393 . S
C1040 H1029 0.950 . S
C1040 C1038 1.391 . S
C1040 C1041 1.400 . S
C1041 C1035 1.491 . S
C1041 C1040 1.400 . S
C1041 C1042 1.398 . S
C1042 H1030 0.950 . S
C1042 C1041 1.398 . S
C1042 C1043 1.391 . S
C1043 H1031 0.950 . S
C1043 C1039 1.393 . S
C1043 C1042 1.391 . S
H1044 C1052 0.950 . S
H1045 C1057 0.950 . S
H1046 C1054 0.950 . S
H1047 C1056 0.950 . S
H1048 C1058 0.950 . S
H1049 C1060 0.950 . S
H1050 C1062 0.950 . S
H1051 C1063 0.950 . S
C1052 H1044 0.950 . S
C1052 C1053 1.386 . S
C1052 C1054 1.391 . S
C1053 C1052 1.386 . S
C1053 C1057 1.393 . S
C1054 H1046 0.950 . S
C1054 C1052 1.391 . S
C1054 C1055 1.400 . S
C1055 C1054 1.400 . S
C1055 C1056 1.398 . S
C1055 C1061 1.491 . S
C1056 H1047 0.950 . S
C1056 C1055 1.398 . S
C1056 C1057 1.391 . S
C1057 H1045 0.950 . S
C1057 C1053 1.393 . S
C1057 C1056 1.391 . S
C1058 H1048 0.950 . S
C1058 C1059 1.386 . S
C1058 C1060 1.391 . S
C1059 C1058 1.386 . S
C1059 C1063 1.393 . S
C1060 H1049 0.950 . S
C1060 C1058 1.391 . S
C1060 C1061 1.400 . S
C1061 C1055 1.491 . S
C1061 C1060 1.400 . S
C1061 C1062 1.398 . S
C1062 H1050 0.950 . S
C1062 C1061 1.398 . S
C1062 C1063 1.391 . S
C1063 H1051 0.950 . S
C1063 C1059 1.393 . S
C1063 C1062 1.391 . S
H1064 C1072 0.950 . S
H1065 C1077 0.950 . S
H1066 C1074 0.950 . S
H1067 C1076 0.950 . S
H1068 C1078 0.950 . S
H1069 C1080 0.950 . S
H1070 C1082 0.950 . S
H1071 C1083 0.950 . S
C1072 H1064 0.950 . S
C1072 C1073 1.386 . S
C1072 C1074 1.391 . S
C1073 C1072 1.386 . S
C1073 C1077 1.393 . S
C1074 H1066 0.950 . S
C1074 C1072 1.391 . S
C1074 C1075 1.400 . S
C1075 C1074 1.400 . S
C1075 C1076 1.398 . S
C1075 C1081 1.491 . S
C1076 H1067 0.950 . S
C1076 C1075 1.398 . S
C1076 C1077 1.391 . S
C1077 H1065 0.950 . S
C1077 C1073 1.393 . S
C1077 C1076 1.391 . S
C1078 H1068 0.950 . S
C1078 C1079 1.386 . S
C1078 C1080 1.391 . S
C1079 C1078 1.386 . S
C1079 C1083 1.393 . S
C1080 H1069 0.950 . S
C1080 C1078 1.391 . S
C1080 C1081 1.400 . S
C1081 C1075 1.491 . S
C1081 C1080 1.400 . S
C1081 C1082 1.398 . S
C1082 H1070 0.950 . S
C1082 C1081 1.398 . S
C1082 C1083 1.391 . S
C1083 H1071 0.950 . S
C1083 C1079 1.393 . S
C1083 C1082 1.391 . S
H1084 C1092 0.950 . S
H1085 C1097 0.950 . S
H1086 C1094 0.950 . S
H1087 C1096 0.950 . S
H1088 C1098 0.950 . S
H1089 C1100 0.950 . S
H1090 C1102 0.950 . S
H1091 C1103 0.950 . S
C1092 H1084 0.950 . S
C1092 C1093 1.386 . S
C1092 C1094 1.391 . S
C1093 C1092 1.386 . S
C1093 C1097 1.393 . S
C1094 H1086 0.950 . S
C1094 C1092 1.391 . S
C1094 C1095 1.400 . S
C1095 C1094 1.400 . S
C1095 C1096 1.398 . S
C1095 C1101 1.491 . S
C1096 H1087 0.950 . S
C1096 C1095 1.398 . S
C1096 C1097 1.391 . S
C1097 H1085 0.950 . S
C1097 C1093 1.393 . S
C1097 C1096 1.391 . S
C1098 H1088 0.950 . S
C1098 C1099 1.386 . S
C1098 C1100 1.391 . S
C1099 C1098 1.386 . S
C1099 C1103 1.393 . S
C1100 H1089 0.950 . S
C1100 C1098 1.391 . S
C1100 C1101 1.400 . S
C1101 C1095 1.491 . S
C1101 C1100 1.400 . S
C1101 C1102 1.398 . S
C1102 H1090 0.950 . S
C1102 C1101 1.398 . S
C1102 C1103 1.391 . S
C1103 H1091 0.950 . S
C1103 C1099 1.393 . S
C1103 C1102 1.391 . S
H1104 C1112 0.950 . S
H1105 C1117 0.950 . S
H1106 C1114 0.950 . S
H1107 C1116 0.950 . S
H1108 C1118 0.950 . S
H1109 C1120 0.950 . S
H1110 C1122 0.950 . S
H1111 C1123 0.950 . S
C1112 H1104 0.950 . S
C1112 C1113 1.386 . S
C1112 C1114 1.391 . S
C1113 C1112 1.386 . S
C1113 C1117 1.393 . S
C1114 H1106 0.950 . S
C1114 C1112 1.391 . S
C1114 C1115 1.400 . S
C1115 C1114 1.400 . S
C1115 C1116 1.398 . S
C1115 C1121 1.491 . S
C1116 H1107 0.950 . S
C1116 C1115 1.398 . S
C1116 C1117 1.391 . S
C1117 H1105 0.950 . S
C1117 C1113 1.393 . S
C1117 C1116 1.391 . S
C1118 H1108 0.950 . S
C1118 C1119 1.386 . S
C1118 C1120 1.391 . S
C1119 C1118 1.386 . S
C1119 C1123 1.393 . S
C1120 H1109 0.950 . S
C1120 C1118 1.391 . S
C1120 C1121 1.400 . S
C1121 C1115 1.491 . S
C1121 C1120 1.400 . S
C1121 C1122 1.398 . S
C1122 H1110 0.950 . S
C1122 C1121 1.398 . S
C1122 C1123 1.391 . S
C1123 H1111 0.950 . S
C1123 C1119 1.393 . S
C1123 C1122 1.391 . S
H1124 C1132 0.950 . S
H1125 C1137 0.950 . S
H1126 C1134 0.950 . S
H1127 C1136 0.950 . S
H1128 C1138 0.950 . S
H1129 C1140 0.950 . S
H1130 C1142 0.950 . S
H1131 C1143 0.950 . S
C1132 H1124 0.950 . S
C1132 C1133 1.386 . S
C1132 C1134 1.391 . S
C1133 C1132 1.386 . S
C1133 C1137 1.393 . S
C1134 H1126 0.950 . S
C1134 C1132 1.391 . S
C1134 C1135 1.400 . S
C1135 C1134 1.400 . S
C1135 C1136 1.398 . S
C1135 C1141 1.491 . S
C1136 H1127 0.950 . S
C1136 C1135 1.398 . S
C1136 C1137 1.391 . S
C1137 H1125 0.950 . S
C1137 C1133 1.393 . S
C1137 C1136 1.391 . S
C1138 H1128 0.950 . S
C1138 C1139 1.386 . S
C1138 C1140 1.391 . S
C1139 C1138 1.386 . S
C1139 C1143 1.393 . S
C1140 H1129 0.950 . S
C1140 C1138 1.391 . S
C1140 C1141 1.400 . S
C1141 C1135 1.491 . S
C1141 C1140 1.400 . S
C1141 C1142 1.398 . S
C1142 H1130 0.950 . S
C1142 C1141 1.398 . S
C1142 C1143 1.391 . S
C1143 H1131 0.950 . S
C1143 C1139 1.393 . S
C1143 C1142 1.391 . S
H1144 C1152 0.950 . S
H1145 C1157 0.950 . S
H1146 C1154 0.950 . S
H1147 C1156 0.950 . S
H1148 C1158 0.950 . S
H1149 C1160 0.950 . S
H1150 C1162 0.950 . S
H1151 C1163 0.950 . S
C1152 H1144 0.950 . S
C1152 C1153 1.386 . S
C1152 C1154 1.391 . S
C1153 C1152 1.386 . S
C1153 C1157 1.393 . S
C1154 H1146 0.950 . S
C1154 C1152 1.391 . S
C1154 C1155 1.400 . S
C1155 C1154 1.400 . S
C1155 C1156 1.398 . S
C1155 C1161 1.491 . S
C1156 H1147 0.950 . S
C1156 C1155 1.398 . S
C1156 C1157 1.391 . S
C1157 H1145 0.950 . S
C1157 C1153 1.393 . S
C1157 C1156 1.391 . S
C1158 H1148 0.950 . S
C1158 C1159 1.386 . S
C1158 C1160 1.391 . S
C1159 C1158 1.386 . S
C1159 C1163 1.393 . S
C1160 H1149 0.950 . S
C1160 C1158 1.391 . S
C1160 C1161 1.400 . S
C1161 C1155 1.491 . S
C1161 C1160 1.400 . S
C1161 C1162 1.398 . S
C1162 H1150 0.950 . S
C1162 C1161 1.398 . S
C1162 C1163 1.391 . S
C1163 H1151 0.950 . S
C1163 C1159 1.393 . S
C1163 C1162 1.391 . S
H1164 C1172 0.950 . S
H1165 C1177 0.950 . S
H1166 C1174 0.950 . S
H1167 C1176 0.950 . S
H1168 C1178 0.950 1_556 S
H1169 C1180 0.950 . S
H1170 C1182 0.950 . S
H1171 C1183 0.950 . S
C1172 H1164 0.950 . S
C1172 C1173 1.386 . S
C1172 C1174 1.391 . S
C1173 C1172 1.386 . S
C1173 C1177 1.393 . S
C1174 H1166 0.950 . S
C1174 C1172 1.391 . S
C1174 C1175 1.400 . S
C1175 C1174 1.400 . S
C1175 C1176 1.398 . S
C1175 C1181 1.491 . S
C1176 H1167 0.950 . S
C1176 C1175 1.398 . S
C1176 C1177 1.391 . S
C1177 H1165 0.950 . S
C1177 C1173 1.393 . S
C1177 C1176 1.391 . S
C1178 H1168 0.950 1_554 S
C1178 C1179 1.386 1_554 S
C1178 C1180 1.391 . S
C1179 C1178 1.386 1_556 S
C1179 C1183 1.393 . S
C1180 H1169 0.950 . S
C1180 C1178 1.391 . S
C1180 C1181 1.400 . S
C1181 C1175 1.491 . S
C1181 C1180 1.400 . S
C1181 C1182 1.398 . S
C1182 H1170 0.950 . S
C1182 C1181 1.398 . S
C1182 C1183 1.391 1_554 S
C1183 H1171 0.950 . S
C1183 C1179 1.393 . S
C1183 C1182 1.391 1_556 S
H1184 C1192 0.950 . S
H1185 C1197 0.950 1_556 S
H1186 C1194 0.950 . S
H1187 C1196 0.950 . S
H1188 C1198 0.950 . S
H1189 C1200 0.950 . S
H1190 C1202 0.950 . S
H1191 C1203 0.950 . S
C1192 H1184 0.950 . S
C1192 C1193 1.386 . S
C1192 C1194 1.391 1_556 S
C1193 C1192 1.386 . S
C1193 C1197 1.393 1_556 S
C1194 H1186 0.950 . S
C1194 C1192 1.391 1_554 S
C1194 C1195 1.400 . S
C1195 C1194 1.400 . S
C1195 C1196 1.398 . S
C1195 C1201 1.491 . S
C1196 H1187 0.950 . S
C1196 C1195 1.398 . S
C1196 C1197 1.391 . S
C1197 H1185 0.950 1_554 S
C1197 C1193 1.393 1_554 S
C1197 C1196 1.391 . S
C1198 H1188 0.950 . S
C1198 C1199 1.386 . S
C1198 C1200 1.391 . S
C1199 C1198 1.386 . S
C1199 C1203 1.393 . S
C1200 H1189 0.950 . S
C1200 C1198 1.391 . S
C1200 C1201 1.400 . S
C1201 C1195 1.491 . S
C1201 C1200 1.400 . S
C1201 C1202 1.398 . S
C1202 H1190 0.950 . S
C1202 C1201 1.398 . S
C1202 C1203 1.391 . S
C1203 H1191 0.950 . S
C1203 C1199 1.393 . S
C1203 C1202 1.391 . S
H1204 C1212 0.950 . S
H1205 C1217 0.950 . S
H1206 C1214 0.950 . S
H1207 C1216 0.950 . S
H1208 C1218 0.950 1_556 S
H1209 C1220 0.950 . S
H1210 C1222 0.950 . S
H1211 C1223 0.950 1_556 S
C1212 H1204 0.950 . S
C1212 C1213 1.386 . S
C1212 C1214 1.391 . S
C1213 C1212 1.386 . S
C1213 C1217 1.393 . S
C1214 H1206 0.950 . S
C1214 C1212 1.391 . S
C1214 C1215 1.400 . S
C1215 C1214 1.400 . S
C1215 C1216 1.398 . S
C1215 C1221 1.491 . S
C1216 H1207 0.950 . S
C1216 C1215 1.398 . S
C1216 C1217 1.391 . S
C1217 H1205 0.950 . S
C1217 C1213 1.393 . S
C1217 C1216 1.391 . S
C1218 H1208 0.950 1_554 S
C1218 C1219 1.386 1_554 S
C1218 C1220 1.391 . S
C1219 C1218 1.386 1_556 S
C1219 C1223 1.393 1_556 S
C1220 H1209 0.950 . S
C1220 C1218 1.391 . S
C1220 C1221 1.400 . S
C1221 C1215 1.491 . S
C1221 C1220 1.400 . S
C1221 C1222 1.398 . S
C1222 H1210 0.950 . S
C1222 C1221 1.398 . S
C1222 C1223 1.391 . S
C1223 H1211 0.950 1_554 S
C1223 C1219 1.393 1_554 S
C1223 C1222 1.391 . S
H1224 C1232 0.950 . S
H1225 C1237 0.950 . S
H1226 C1234 0.950 . S
H1227 C1236 0.950 . S
H1228 C1238 0.950 . S
H1229 C1240 0.950 . S
H1230 C1242 0.950 . S
H1231 C1243 0.950 . S
C1232 H1224 0.950 . S
C1232 C1233 1.386 . S
C1232 C1234 1.391 . S
C1233 C1232 1.386 . S
C1233 C1237 1.393 . S
C1234 H1226 0.950 . S
C1234 C1232 1.391 . S
C1234 C1235 1.400 . S
C1235 C1234 1.400 . S
C1235 C1236 1.398 . S
C1235 C1241 1.491 . S
C1236 H1227 0.950 . S
C1236 C1235 1.398 . S
C1236 C1237 1.391 . S
C1237 H1225 0.950 . S
C1237 C1233 1.393 . S
C1237 C1236 1.391 . S
C1238 H1228 0.950 . S
C1238 C1239 1.386 . S
C1238 C1240 1.391 . S
C1239 C1238 1.386 . S
C1239 C1243 1.393 . S
C1240 H1229 0.950 . S
C1240 C1238 1.391 . S
C1240 C1241 1.400 . S
C1241 C1235 1.491 . S
C1241 C1240 1.400 . S
C1241 C1242 1.398 . S
C1242 H1230 0.950 . S
C1242 C1241 1.398 . S
C1242 C1243 1.391 . S
C1243 H1231 0.950 . S
C1243 C1239 1.393 . S
C1243 C1242 1.391 . S
H1244 C1252 0.950 . S
H1245 C1257 0.950 . S
H1246 C1254 0.950 . S
H1247 C1256 0.950 . S
H1248 C1258 0.950 . S
H1249 C1260 0.950 . S
H1250 C1262 0.950 . S
H1251 C1263 0.950 . S
C1252 H1244 0.950 . S
C1252 C1253 1.386 . S
C1252 C1254 1.391 . S
C1253 C1252 1.386 . S
C1253 C1257 1.393 . S
C1254 H1246 0.950 . S
C1254 C1252 1.391 . S
C1254 C1255 1.400 . S
C1255 C1254 1.400 . S
C1255 C1256 1.398 . S
C1255 C1261 1.491 1_565 S
C1256 H1247 0.950 . S
C1256 C1255 1.398 . S
C1256 C1257 1.391 . S
C1257 H1245 0.950 . S
C1257 C1253 1.393 . S
C1257 C1256 1.391 . S
C1258 H1248 0.950 . S
C1258 C1259 1.386 . S
C1258 C1260 1.391 . S
C1259 C1258 1.386 . S
C1259 C1263 1.393 . S
C1260 H1249 0.950 . S
C1260 C1258 1.391 . S
C1260 C1261 1.400 . S
C1261 C1255 1.491 1_545 S
C1261 C1260 1.400 . S
C1261 C1262 1.398 . S
C1262 H1250 0.950 . S
C1262 C1261 1.398 . S
C1262 C1263 1.391 . S
C1263 H1251 0.950 . S
C1263 C1259 1.393 . S
C1263 C1262 1.391 . S
H1264 C1272 0.950 . S
H1265 C1277 0.950 . S
H1266 C1274 0.950 . S
H1267 C1276 0.950 . S
H1268 C1278 0.950 . S
H1269 C1280 0.950 . S
H1270 C1282 0.950 . S
H1271 C1283 0.950 . S
C1272 H1264 0.950 . S
C1272 C1273 1.386 . S
C1272 C1274 1.391 . S
C1273 C1272 1.386 . S
C1273 C1277 1.393 . S
C1274 H1266 0.950 . S
C1274 C1272 1.391 . S
C1274 C1275 1.400 . S
C1275 C1274 1.400 . S
C1275 C1276 1.398 . S
C1275 C1281 1.491 1_655 S
C1276 H1267 0.950 . S
C1276 C1275 1.398 . S
C1276 C1277 1.391 . S
C1277 H1265 0.950 . S
C1277 C1273 1.393 . S
C1277 C1276 1.391 . S
C1278 H1268 0.950 . S
C1278 C1279 1.386 . S
C1278 C1280 1.391 . S
C1279 C1278 1.386 . S
C1279 C1283 1.393 . S
C1280 H1269 0.950 . S
C1280 C1278 1.391 . S
C1280 C1281 1.400 . S
C1281 C1275 1.491 1_455 S
C1281 C1280 1.400 . S
C1281 C1282 1.398 . S
C1282 H1270 0.950 . S
C1282 C1281 1.398 . S
C1282 C1283 1.391 . S
C1283 H1271 0.950 . S
C1283 C1279 1.393 . S
C1283 C1282 1.391 . S
H1284 C1292 0.950 . S
H1285 C1297 0.950 . S
H1286 C1294 0.950 . S
H1287 C1296 0.950 . S
H1288 C1298 0.950 . S
H1289 C1300 0.950 . S
H1290 C1302 0.950 . S
H1291 C1303 0.950 . S
C1292 H1284 0.950 . S
C1292 C1293 1.386 . S
C1292 C1294 1.391 . S
C1293 C1292 1.386 . S
C1293 C1297 1.393 . S
C1294 H1286 0.950 . S
C1294 C1292 1.391 . S
C1294 C1295 1.400 . S
C1295 C1294 1.400 . S
C1295 C1296 1.398 . S
C1295 C1301 1.491 . S
C1296 H1287 0.950 . S
C1296 C1295 1.398 . S
C1296 C1297 1.391 . S
C1297 H1285 0.950 . S
C1297 C1293 1.393 . S
C1297 C1296 1.391 . S
C1298 H1288 0.950 . S
C1298 C1299 1.386 . S
C1298 C1300 1.391 . S
C1299 C1298 1.386 . S
C1299 C1303 1.393 . S
C1300 H1289 0.950 . S
C1300 C1298 1.391 . S
C1300 C1301 1.400 . S
C1301 C1295 1.491 . S
C1301 C1300 1.400 . S
C1301 C1302 1.398 . S
C1302 H1290 0.950 . S
C1302 C1301 1.398 . S
C1302 C1303 1.391 . S
C1303 H1291 0.950 . S
C1303 C1299 1.393 . S
C1303 C1302 1.391 . S
H1304 C1312 0.950 . S
H1305 C1317 0.950 . S
H1306 C1314 0.950 . S
H1307 C1316 0.950 . S
H1308 C1318 0.950 . S
H1309 C1320 0.950 . S
H1310 C1322 0.950 . S
H1311 C1323 0.950 . S
C1312 H1304 0.950 . S
C1312 C1313 1.386 . S
C1312 C1314 1.391 . S
C1313 C1312 1.386 . S
C1313 C1317 1.393 . S
C1314 H1306 0.950 . S
C1314 C1312 1.391 . S
C1314 C1315 1.400 . S
C1315 C1314 1.400 . S
C1315 C1316 1.398 . S
C1315 C1321 1.491 1_545 S
C1316 H1307 0.950 . S
C1316 C1315 1.398 . S
C1316 C1317 1.391 . S
C1317 H1305 0.950 . S
C1317 C1313 1.393 . S
C1317 C1316 1.391 . S
C1318 H1308 0.950 . S
C1318 C1319 1.386 . S
C1318 C1320 1.391 . S
C1319 C1318 1.386 . S
C1319 C1323 1.393 . S
C1320 H1309 0.950 . S
C1320 C1318 1.391 . S
C1320 C1321 1.400 . S
C1321 C1315 1.491 1_565 S
C1321 C1320 1.400 . S
C1321 C1322 1.398 . S
C1322 H1310 0.950 . S
C1322 C1321 1.398 . S
C1322 C1323 1.391 . S
C1323 H1311 0.950 . S
C1323 C1319 1.393 . S
C1323 C1322 1.391 . S
H1324 C1332 0.950 . S
H1325 C1337 0.950 . S
H1326 C1334 0.950 . S
H1327 C1336 0.950 . S
H1328 C1338 0.950 . S
H1329 C1340 0.950 . S
H1330 C1342 0.950 . S
H1331 C1343 0.950 . S
C1332 H1324 0.950 . S
C1332 C1333 1.386 . S
C1332 C1334 1.391 . S
C1333 C1332 1.386 . S
C1333 C1337 1.393 . S
C1334 H1326 0.950 . S
C1334 C1332 1.391 . S
C1334 C1335 1.400 . S
C1335 C1334 1.400 . S
C1335 C1336 1.398 . S
C1335 C1341 1.491 1_655 S
C1336 H1327 0.950 . S
C1336 C1335 1.398 . S
C1336 C1337 1.391 . S
C1337 H1325 0.950 . S
C1337 C1333 1.393 . S
C1337 C1336 1.391 . S
C1338 H1328 0.950 . S
C1338 C1339 1.386 . S
C1338 C1340 1.391 . S
C1339 C1338 1.386 . S
C1339 C1343 1.393 . S
C1340 H1329 0.950 . S
C1340 C1338 1.391 . S
C1340 C1341 1.400 . S
C1341 C1335 1.491 1_455 S
C1341 C1340 1.400 . S
C1341 C1342 1.398 . S
C1342 H1330 0.950 . S
C1342 C1341 1.398 . S
C1342 C1343 1.391 . S
C1343 H1331 0.950 . S
C1343 C1339 1.393 . S
C1343 C1342 1.391 . S
H1344 C1352 0.950 . S
H1345 C1357 0.950 . S
H1346 C1354 0.950 . S
H1347 C1356 0.950 . S
H1348 C1358 0.950 . S
H1349 C1360 0.950 . S
H1350 C1362 0.950 . S
H1351 C1363 0.950 . S
C1352 H1344 0.950 . S
C1352 C1353 1.386 . S
C1352 C1354 1.391 . S
C1353 C1352 1.386 . S
C1353 C1357 1.393 . S
C1354 H1346 0.950 . S
C1354 C1352 1.391 . S
C1354 C1355 1.400 . S
C1355 C1354 1.400 . S
C1355 C1356 1.398 . S
C1355 C1361 1.491 . S
C1356 H1347 0.950 . S
C1356 C1355 1.398 . S
C1356 C1357 1.391 . S
C1357 H1345 0.950 . S
C1357 C1353 1.393 . S
C1357 C1356 1.391 . S
C1358 H1348 0.950 . S
C1358 C1359 1.386 . S
C1358 C1360 1.391 . S
C1359 C1358 1.386 . S
C1359 C1363 1.393 . S
C1360 H1349 0.950 . S
C1360 C1358 1.391 . S
C1360 C1361 1.400 . S
C1361 C1355 1.491 . S
C1361 C1360 1.400 . S
C1361 C1362 1.398 . S
C1362 H1350 0.950 . S
C1362 C1361 1.398 . S
C1362 C1363 1.391 . S
C1363 H1351 0.950 . S
C1363 C1359 1.393 . S
C1363 C1362 1.391 . S
H1364 C1372 0.950 . S
H1365 C1377 0.950 . S
H1366 C1374 0.950 . S
H1367 C1376 0.950 . S
H1368 C1378 0.950 . S
H1369 C1380 0.950 . S
H1370 C1382 0.950 . S
H1371 C1383 0.950 . S
C1372 H1364 0.950 . S
C1372 C1373 1.386 . S
C1372 C1374 1.391 . S
C1373 C1372 1.386 . S
C1373 C1377 1.393 . S
C1374 H1366 0.950 . S
C1374 C1372 1.391 . S
C1374 C1375 1.400 . S
C1375 C1374 1.400 . S
C1375 C1376 1.398 . S
C1375 C1381 1.491 . S
C1376 H1367 0.950 . S
C1376 C1375 1.398 . S
C1376 C1377 1.391 . S
C1377 H1365 0.950 . S
C1377 C1373 1.393 . S
C1377 C1376 1.391 . S
C1378 H1368 0.950 . S
C1378 C1379 1.386 . S
C1378 C1380 1.391 . S
C1379 C1378 1.386 . S
C1379 C1383 1.393 . S
C1380 H1369 0.950 . S
C1380 C1378 1.391 . S
C1380 C1381 1.400 . S
C1381 C1375 1.491 . S
C1381 C1380 1.400 . S
C1381 C1382 1.398 . S
C1382 H1370 0.950 . S
C1382 C1381 1.398 . S
C1382 C1383 1.391 . S
C1383 H1371 0.950 . S
C1383 C1379 1.393 . S
C1383 C1382 1.391 . S
H1384 C1392 0.950 . S
H1385 C1397 0.950 . S
H1386 C1394 0.950 . S
H1387 C1396 0.950 . S
H1388 C1398 0.950 . S
H1389 C1400 0.950 . S
H1390 C1402 0.950 . S
H1391 C1403 0.950 . S
C1392 H1384 0.950 . S
C1392 C1393 1.386 . S
C1392 C1394 1.391 . S
C1393 C1392 1.386 . S
C1393 C1397 1.393 . S
C1394 H1386 0.950 . S
C1394 C1392 1.391 . S
C1394 C1395 1.400 . S
C1395 C1394 1.400 . S
C1395 C1396 1.398 . S
C1395 C1401 1.491 . S
C1396 H1387 0.950 . S
C1396 C1395 1.398 . S
C1396 C1397 1.391 . S
C1397 H1385 0.950 . S
C1397 C1393 1.393 . S
C1397 C1396 1.391 . S
C1398 H1388 0.950 . S
C1398 C1399 1.386 . S
C1398 C1400 1.391 . S
C1399 C1398 1.386 . S
C1399 C1403 1.393 . S
C1400 H1389 0.950 . S
C1400 C1398 1.391 . S
C1400 C1401 1.400 . S
C1401 C1395 1.491 . S
C1401 C1400 1.400 . S
C1401 C1402 1.398 . S
C1402 H1390 0.950 . S
C1402 C1401 1.398 . S
C1402 C1403 1.391 . S
C1403 H1391 0.950 . S
C1403 C1399 1.393 . S
C1403 C1402 1.391 . S
H1404 C1412 0.950 . S
H1405 C1417 0.950 . S
H1406 C1414 0.950 . S
H1407 C1416 0.950 . S
H1408 C1418 0.950 . S
H1409 C1420 0.950 . S
H1410 C1422 0.950 . S
H1411 C1423 0.950 1_556 S
C1412 H1404 0.950 . S
C1412 C1413 1.386 . S
C1412 C1414 1.391 . S
C1413 C1412 1.386 . S
C1413 C1417 1.393 . S
C1414 H1406 0.950 . S
C1414 C1412 1.391 . S
C1414 C1415 1.400 . S
C1415 C1414 1.400 . S
C1415 C1416 1.398 . S
C1415 C1421 1.491 . S
C1416 H1407 0.950 . S
C1416 C1415 1.398 . S
C1416 C1417 1.391 . S
C1417 H1405 0.950 . S
C1417 C1413 1.393 . S
C1417 C1416 1.391 . S
C1418 H1408 0.950 . S
C1418 C1419 1.386 . S
C1418 C1420 1.391 . S
C1419 C1418 1.386 . S
C1419 C1423 1.393 . S
C1420 H1409 0.950 . S
C1420 C1418 1.391 . S
C1420 C1421 1.400 . S
C1421 C1415 1.491 . S
C1421 C1420 1.400 . S
C1421 C1422 1.398 . S
C1422 H1410 0.950 . S
C1422 C1421 1.398 . S
C1422 C1423 1.391 . S
C1423 H1411 0.950 1_554 S
C1423 C1419 1.393 . S
C1423 C1422 1.391 . S
H1424 C1432 0.950 1_556 S
H1425 C1437 0.950 . S
H1426 C1434 0.950 . S
H1427 C1436 0.950 . S
H1428 C1438 0.950 . S
H1429 C1440 0.950 . S
H1430 C1442 0.950 . S
H1431 C1443 0.950 . S
C1432 H1424 0.950 1_554 S
C1432 C1433 1.386 . S
C1432 C1434 1.391 . S
C1433 C1432 1.386 . S
C1433 C1437 1.393 . S
C1434 H1426 0.950 . S
C1434 C1432 1.391 . S
C1434 C1435 1.400 . S
C1435 C1434 1.400 . S
C1435 C1436 1.398 . S
C1435 C1441 1.491 . S
C1436 H1427 0.950 . S
C1436 C1435 1.398 . S
C1436 C1437 1.391 . S
C1437 H1425 0.950 . S
C1437 C1433 1.393 . S
C1437 C1436 1.391 . S
C1438 H1428 0.950 . S
C1438 C1439 1.386 . S
C1438 C1440 1.391 . S
C1439 C1438 1.386 . S
C1439 C1443 1.393 . S
C1440 H1429 0.950 . S
C1440 C1438 1.391 . S
C1440 C1441 1.400 . S
C1441 C1435 1.491 . S
C1441 C1440 1.400 . S
C1441 C1442 1.398 . S
C1442 H1430 0.950 . S
C1442 C1441 1.398 . S
C1442 C1443 1.391 . S
C1443 H1431 0.950 . S
C1443 C1439 1.393 . S
C1443 C1442 1.391 . S
H1444 C1452 0.950 . S
H1445 C1457 0.950 . S
H1446 C1454 0.950 . S
H1447 C1456 0.950 . S
H1448 C1458 0.950 . S
H1449 C1460 0.950 . S
H1450 C1462 0.950 . S
H1451 C1463 0.950 1_556 S
C1452 H1444 0.950 . S
C1452 C1453 1.386 . S
C1452 C1454 1.391 . S
C1453 C1452 1.386 . S
C1453 C1457 1.393 . S
C1454 H1446 0.950 . S
C1454 C1452 1.391 . S
C1454 C1455 1.400 . S
C1455 C1454 1.400 . S
C1455 C1456 1.398 . S
C1455 C1461 1.491 . S
C1456 H1447 0.950 . S
C1456 C1455 1.398 . S
C1456 C1457 1.391 . S
C1457 H1445 0.950 . S
C1457 C1453 1.393 . S
C1457 C1456 1.391 . S
C1458 H1448 0.950 . S
C1458 C1459 1.386 . S
C1458 C1460 1.391 . S
C1459 C1458 1.386 . S
C1459 C1463 1.393 . S
C1460 H1449 0.950 . S
C1460 C1458 1.391 . S
C1460 C1461 1.400 . S
C1461 C1455 1.491 . S
C1461 C1460 1.400 . S
C1461 C1462 1.398 . S
C1462 H1450 0.950 . S
C1462 C1461 1.398 . S
C1462 C1463 1.391 . S
C1463 H1451 0.950 1_554 S
C1463 C1459 1.393 . S
C1463 C1462 1.391 . S
H1464 C1472 0.950 . S
H1465 C1477 0.950 . S
H1466 C1474 0.950 . S
H1467 C1476 0.950 . S
H1468 C1478 0.950 . S
H1469 C1480 0.950 . S
H1470 C1482 0.950 . S
H1471 C1483 0.950 . S
C1472 H1464 0.950 . S
C1472 C1473 1.386 . S
C1472 C1474 1.391 . S
C1473 C1472 1.386 . S
C1473 C1477 1.393 . S
C1474 H1466 0.950 . S
C1474 C1472 1.391 . S
C1474 C1475 1.400 . S
C1475 C1474 1.400 . S
C1475 C1476 1.398 . S
C1475 C1481 1.491 . S
C1476 H1467 0.950 . S
C1476 C1475 1.398 . S
C1476 C1477 1.391 . S
C1477 H1465 0.950 . S
C1477 C1473 1.393 . S
C1477 C1476 1.391 . S
C1478 H1468 0.950 . S
C1478 C1479 1.386 . S
C1478 C1480 1.391 . S
C1479 C1478 1.386 . S
C1479 C1483 1.393 . S
C1480 H1469 0.950 . S
C1480 C1478 1.391 . S
C1480 C1481 1.400 . S
C1481 C1475 1.491 . S
C1481 C1480 1.400 . S
C1481 C1482 1.398 . S
C1482 H1470 0.950 . S
C1482 C1481 1.398 . S
C1482 C1483 1.391 . S
C1483 H1471 0.950 . S
C1483 C1479 1.393 . S
C1483 C1482 1.391 . S
H1484 C1492 0.950 . S
H1485 C1497 0.950 . S
H1486 C1494 0.950 . S
H1487 C1496 0.950 . S
H1488 C1498 0.950 . S
H1489 C1500 0.950 . S
H1490 C1502 0.950 . S
H1491 C1503 0.950 . S
C1492 H1484 0.950 . S
C1492 C1493 1.386 . S
C1492 C1494 1.391 . S
C1493 C1492 1.386 . S
C1493 C1497 1.393 . S
C1494 H1486 0.950 . S
C1494 C1492 1.391 . S
C1494 C1495 1.400 . S
C1495 C1494 1.400 . S
C1495 C1496 1.398 . S
C1495 C1501 1.491 . S
C1496 H1487 0.950 . S
C1496 C1495 1.398 . S
C1496 C1497 1.391 . S
C1497 H1485 0.950 . S
C1497 C1493 1.393 . S
C1497 C1496 1.391 . S
C1498 H1488 0.950 . S
C1498 C1499 1.386 . S
C1498 C1500 1.391 . S
C1499 C1498 1.386 . S
C1499 C1503 1.393 . S
C1500 H1489 0.950 . S
C1500 C1498 1.391 . S
C1500 C1501 1.400 . S
C1501 C1495 1.491 . S
C1501 C1500 1.400 . S
C1501 C1502 1.398 . S
C1502 H1490 0.950 . S
C1502 C1501 1.398 . S
C1502 C1503 1.391 . S
C1503 H1491 0.950 . S
C1503 C1499 1.393 . S
C1503 C1502 1.391 . S
H1504 C1512 0.950 . S
H1505 C1517 0.950 . S
H1506 C1514 0.950 . S
H1507 C1516 0.950 . S
H1508 C1518 0.950 . S
H1509 C1520 0.950 . S
H1510 C1522 0.950 . S
H1511 C1523 0.950 1_554 S
C1512 H1504 0.950 . S
C1512 C1513 1.386 . S
C1512 C1514 1.391 . S
C1513 C1512 1.386 . S
C1513 C1517 1.393 . S
C1514 H1506 0.950 . S
C1514 C1512 1.391 . S
C1514 C1515 1.400 . S
C1515 C1514 1.400 . S
C1515 C1516 1.398 . S
C1515 C1521 1.491 . S
C1516 H1507 0.950 . S
C1516 C1515 1.398 . S
C1516 C1517 1.391 . S
C1517 H1505 0.950 . S
C1517 C1513 1.393 . S
C1517 C1516 1.391 . S
C1518 H1508 0.950 . S
C1518 C1519 1.386 . S
C1518 C1520 1.391 . S
C1519 C1518 1.386 . S
C1519 C1523 1.393 . S
C1520 H1509 0.950 . S
C1520 C1518 1.391 . S
C1520 C1521 1.400 . S
C1521 C1515 1.491 . S
C1521 C1520 1.400 . S
C1521 C1522 1.398 . S
C1522 H1510 0.950 . S
C1522 C1521 1.398 . S
C1522 C1523 1.391 . S
C1523 H1511 0.950 1_556 S
C1523 C1519 1.393 . S
C1523 C1522 1.391 . S
H1524 C1532 0.950 . S
H1525 C1537 0.950 . S
H1526 C1534 0.950 . S
H1527 C1536 0.950 . S
H1528 C1538 0.950 . S
H1529 C1540 0.950 . S
H1530 C1542 0.950 . S
H1531 C1543 0.950 . S
C1532 H1524 0.950 . S
C1532 C1533 1.386 . S
C1532 C1534 1.391 . S
C1533 C1532 1.386 . S
C1533 C1537 1.393 . S
C1534 H1526 0.950 . S
C1534 C1532 1.391 . S
C1534 C1535 1.400 . S
C1535 C1534 1.400 . S
C1535 C1536 1.398 . S
C1535 C1541 1.491 . S
C1536 H1527 0.950 . S
C1536 C1535 1.398 . S
C1536 C1537 1.391 . S
C1537 H1525 0.950 . S
C1537 C1533 1.393 . S
C1537 C1536 1.391 . S
C1538 H1528 0.950 . S
C1538 C1539 1.386 . S
C1538 C1540 1.391 . S
C1539 C1538 1.386 . S
C1539 C1543 1.393 . S
C1540 H1529 0.950 . S
C1540 C1538 1.391 . S
C1540 C1541 1.400 . S
C1541 C1535 1.491 . S
C1541 C1540 1.400 . S
C1541 C1542 1.398 . S
C1542 H1530 0.950 . S
C1542 C1541 1.398 . S
C1542 C1543 1.391 . S
C1543 H1531 0.950 . S
C1543 C1539 1.393 . S
C1543 C1542 1.391 . S
H1544 C1552 0.950 . S
H1545 C1557 0.950 . S
H1546 C1554 0.950 . S
H1547 C1556 0.950 . S
H1548 C1558 0.950 . S
H1549 C1560 0.950 . S
H1550 C1562 0.950 . S
H1551 C1563 0.950 . S
C1552 H1544 0.950 . S
C1552 C1553 1.386 . S
C1552 C1554 1.391 . S
C1553 C1552 1.386 . S
C1553 C1557 1.393 . S
C1554 H1546 0.950 . S
C1554 C1552 1.391 . S
C1554 C1555 1.400 . S
C1555 C1554 1.400 . S
C1555 C1556 1.398 . S
C1555 C1561 1.491 . S
C1556 H1547 0.950 . S
C1556 C1555 1.398 . S
C1556 C1557 1.391 . S
C1557 H1545 0.950 . S
C1557 C1553 1.393 . S
C1557 C1556 1.391 . S
C1558 H1548 0.950 . S
C1558 C1559 1.386 . S
C1558 C1560 1.391 . S
C1559 C1558 1.386 . S
C1559 C1563 1.393 . S
C1560 H1549 0.950 . S
C1560 C1558 1.391 . S
C1560 C1561 1.400 . S
C1561 C1555 1.491 . S
C1561 C1560 1.400 . S
C1561 C1562 1.398 . S
C1562 H1550 0.950 . S
C1562 C1561 1.398 . S
C1562 C1563 1.391 . S
C1563 H1551 0.950 . S
C1563 C1559 1.393 . S
C1563 C1562 1.391 . S
H1564 C1572 0.950 . S
H1565 C1577 0.950 . S
H1566 C1574 0.950 . S
H1567 C1576 0.950 . S
H1568 C1578 0.950 . S
H1569 C1580 0.950 . S
H1570 C1582 0.950 . S
H1571 C1583 0.950 . S
C1572 H1564 0.950 . S
C1572 C1573 1.386 . S
C1572 C1574 1.391 . S
C1573 C1572 1.386 . S
C1573 C1577 1.393 . S
C1574 H1566 0.950 . S
C1574 C1572 1.391 . S
C1574 C1575 1.400 . S
C1575 C1574 1.400 . S
C1575 C1576 1.398 . S
C1575 C1581 1.491 . S
C1576 H1567 0.950 . S
C1576 C1575 1.398 . S
C1576 C1577 1.391 . S
C1577 H1565 0.950 . S
C1577 C1573 1.393 . S
C1577 C1576 1.391 . S
C1578 H1568 0.950 . S
C1578 C1579 1.386 . S
C1578 C1580 1.391 . S
C1579 C1578 1.386 . S
C1579 C1583 1.393 . S
C1580 H1569 0.950 . S
C1580 C1578 1.391 . S
C1580 C1581 1.400 . S
C1581 C1575 1.491 . S
C1581 C1580 1.400 . S
C1581 C1582 1.398 . S
C1582 H1570 0.950 . S
C1582 C1581 1.398 . S
C1582 C1583 1.391 . S
C1583 H1571 0.950 . S
C1583 C1579 1.393 . S
C1583 C1582 1.391 . S
H1584 C1592 0.950 . S
H1585 C1597 0.950 . S
H1586 C1594 0.950 . S
H1587 C1596 0.950 . S
H1588 C1598 0.950 . S
H1589 C1600 0.950 . S
H1590 C1602 0.950 . S
H1591 C1603 0.950 . S
C1592 H1584 0.950 . S
C1592 C1593 1.386 . S
C1592 C1594 1.391 . S
C1593 C1592 1.386 . S
C1593 C1597 1.393 . S
C1594 H1586 0.950 . S
C1594 C1592 1.391 . S
C1594 C1595 1.400 . S
C1595 C1594 1.400 . S
C1595 C1596 1.398 . S
C1595 C1601 1.491 . S
C1596 H1587 0.950 . S
C1596 C1595 1.398 . S
C1596 C1597 1.391 . S
C1597 H1585 0.950 . S
C1597 C1593 1.393 . S
C1597 C1596 1.391 . S
C1598 H1588 0.950 . S
C1598 C1599 1.386 . S
C1598 C1600 1.391 . S
C1599 C1598 1.386 . S
C1599 C1603 1.393 . S
C1600 H1589 0.950 . S
C1600 C1598 1.391 . S
C1600 C1601 1.400 . S
C1601 C1595 1.491 . S
C1601 C1600 1.400 . S
C1601 C1602 1.398 . S
C1602 H1590 0.950 . S
C1602 C1601 1.398 . S
C1602 C1603 1.391 . S
C1603 H1591 0.950 . S
C1603 C1599 1.393 . S
C1603 C1602 1.391 . S
H1604 C1612 0.950 . S
H1605 C1617 0.950 . S
H1606 C1614 0.950 . S
H1607 C1616 0.950 . S
H1608 C1618 0.950 . S
H1609 C1620 0.950 . S
H1610 C1622 0.950 . S
H1611 C1623 0.950 . S
C1612 H1604 0.950 . S
C1612 C1613 1.386 . S
C1612 C1614 1.391 . S
C1613 C1612 1.386 . S
C1613 C1617 1.393 . S
C1614 H1606 0.950 . S
C1614 C1612 1.391 . S
C1614 C1615 1.400 . S
C1615 C1614 1.400 . S
C1615 C1616 1.398 . S
C1615 C1621 1.491 . S
C1616 H1607 0.950 . S
C1616 C1615 1.398 . S
C1616 C1617 1.391 . S
C1617 H1605 0.950 . S
C1617 C1613 1.393 . S
C1617 C1616 1.391 . S
C1618 H1608 0.950 . S
C1618 C1619 1.386 . S
C1618 C1620 1.391 . S
C1619 C1618 1.386 . S
C1619 C1623 1.393 . S
C1620 H1609 0.950 . S
C1620 C1618 1.391 . S
C1620 C1621 1.400 . S
C1621 C1615 1.491 . S
C1621 C1620 1.400 . S
C1621 C1622 1.398 . S
C1622 H1610 0.950 . S
C1622 C1621 1.398 . S
C1622 C1623 1.391 . S
C1623 H1611 0.950 . S
C1623 C1619 1.393 . S
C1623 C1622 1.391 . S
H1624 C1632 0.950 . S
H1625 C1637 0.950 . S
H1626 C1634 0.950 . S
H1627 C1636 0.950 . S
H1628 C1638 0.950 . S
H1629 C1640 0.950 . S
H1630 C1642 0.950 . S
H1631 C1643 0.950 . S
C1632 H1624 0.950 . S
C1632 C1633 1.386 . S
C1632 C1634 1.391 . S
C1633 C1632 1.386 . S
C1633 C1637 1.393 . S
C1634 H1626 0.950 . S
C1634 C1632 1.391 . S
C1634 C1635 1.400 . S
C1635 C1634 1.400 . S
C1635 C1636 1.398 . S
C1635 C1641 1.491 . S
C1636 H1627 0.950 . S
C1636 C1635 1.398 . S
C1636 C1637 1.391 . S
C1637 H1625 0.950 . S
C1637 C1633 1.393 . S
C1637 C1636 1.391 . S
C1638 H1628 0.950 . S
C1638 C1639 1.386 . S
C1638 C1640 1.391 . S
C1639 C1638 1.386 . S
C1639 C1643 1.393 . S
C1640 H1629 0.950 . S
C1640 C1638 1.391 . S
C1640 C1641 1.400 . S
C1641 C1635 1.491 . S
C1641 C1640 1.400 . S
C1641 C1642 1.398 . S
C1642 H1630 0.950 . S
C1642 C1641 1.398 . S
C1642 C1643 1.391 . S
C1643 H1631 0.950 . S
C1643 C1639 1.393 . S
C1643 C1642 1.391 . S
H1644 C1652 0.950 . S
H1645 C1657 0.950 . S
H1646 C1654 0.950 . S
H1647 C1656 0.950 . S
H1648 C1658 0.950 . S
H1649 C1660 0.950 . S
H1650 C1662 0.950 . S
H1651 C1663 0.950 . S
C1652 H1644 0.950 . S
C1652 C1653 1.386 . S
C1652 C1654 1.391 . S
C1653 C1652 1.386 . S
C1653 C1657 1.393 . S
C1654 H1646 0.950 . S
C1654 C1652 1.391 . S
C1654 C1655 1.400 . S
C1655 C1654 1.400 . S
C1655 C1656 1.398 . S
C1655 C1661 1.491 . S
C1656 H1647 0.950 . S
C1656 C1655 1.398 . S
C1656 C1657 1.391 . S
C1657 H1645 0.950 . S
C1657 C1653 1.393 . S
C1657 C1656 1.391 . S
C1658 H1648 0.950 . S
C1658 C1659 1.386 . S
C1658 C1660 1.391 . S
C1659 C1658 1.386 . S
C1659 C1663 1.393 . S
C1660 H1649 0.950 . S
C1660 C1658 1.391 . S
C1660 C1661 1.400 . S
C1661 C1655 1.491 . S
C1661 C1660 1.400 . S
C1661 C1662 1.398 . S
C1662 H1650 0.950 . S
C1662 C1661 1.398 . S
C1662 C1663 1.391 . S
C1663 H1651 0.950 . S
C1663 C1659 1.393 . S
C1663 C1662 1.391 . S
H1664 C1672 0.950 . S
H1665 C1677 0.950 . S
H1666 C1674 0.950 . S
H1667 C1676 0.950 . S
H1668 C1678 0.950 . S
H1669 C1680 0.950 . S
H1670 C1682 0.950 . S
H1671 C1683 0.950 . S
C1672 H1664 0.950 . S
C1672 C1673 1.386 . S
C1672 C1674 1.391 . S
C1673 C1672 1.386 . S
C1673 C1677 1.393 . S
C1674 H1666 0.950 . S
C1674 C1672 1.391 . S
C1674 C1675 1.400 . S
C1675 C1674 1.400 . S
C1675 C1676 1.398 . S
C1675 C1681 1.491 . S
C1676 H1667 0.950 . S
C1676 C1675 1.398 . S
C1676 C1677 1.391 . S
C1677 H1665 0.950 . S
C1677 C1673 1.393 . S
C1677 C1676 1.391 . S
C1678 H1668 0.950 . S
C1678 C1679 1.386 . S
C1678 C1680 1.391 . S
C1679 C1678 1.386 . S
C1679 C1683 1.393 . S
C1680 H1669 0.950 . S
C1680 C1678 1.391 . S
C1680 C1681 1.400 . S
C1681 C1675 1.491 . S
C1681 C1680 1.400 . S
C1681 C1682 1.398 . S
C1682 H1670 0.950 . S
C1682 C1681 1.398 . S
C1682 C1683 1.391 . S
C1683 H1671 0.950 . S
C1683 C1679 1.393 . S
C1683 C1682 1.391 . S
H1684 C1692 0.950 . S
H1685 C1697 0.950 . S
H1686 C1694 0.950 . S
H1687 C1696 0.950 . S
H1688 C1698 0.950 . S
H1689 C1700 0.950 . S
H1690 C1702 0.950 . S
H1691 C1703 0.950 . S
C1692 H1684 0.950 . S
C1692 C1693 1.386 . S
C1692 C1694 1.391 . S
C1693 C1692 1.386 . S
C1693 C1697 1.393 . S
C1694 H1686 0.950 . S
C1694 C1692 1.391 . S
C1694 C1695 1.400 . S
C1695 C1694 1.400 . S
C1695 C1696 1.398 . S
C1695 C1701 1.491 . S
C1696 H1687 0.950 . S
C1696 C1695 1.398 . S
C1696 C1697 1.391 . S
C1697 H1685 0.950 . S
C1697 C1693 1.393 . S
C1697 C1696 1.391 . S
C1698 H1688 0.950 . S
C1698 C1699 1.386 . S
C1698 C1700 1.391 . S
C1699 C1698 1.386 . S
C1699 C1703 1.393 . S
C1700 H1689 0.950 . S
C1700 C1698 1.391 . S
C1700 C1701 1.400 . S
C1701 C1695 1.491 . S
C1701 C1700 1.400 . S
C1701 C1702 1.398 . S
C1702 H1690 0.950 . S
C1702 C1701 1.398 . S
C1702 C1703 1.391 . S
C1703 H1691 0.950 . S
C1703 C1699 1.393 . S
C1703 C1702 1.391 . S
H1704 C1712 0.950 . S
H1705 C1717 0.950 . S
H1706 C1714 0.950 . S
H1707 C1716 0.950 . S
H1708 C1718 0.950 . S
H1709 C1720 0.950 . S
H1710 C1722 0.950 . S
H1711 C1723 0.950 . S
C1712 H1704 0.950 . S
C1712 C1713 1.386 . S
C1712 C1714 1.391 . S
C1713 C1712 1.386 . S
C1713 C1717 1.393 . S
C1714 H1706 0.950 . S
C1714 C1712 1.391 . S
C1714 C1715 1.400 . S
C1715 C1714 1.400 . S
C1715 C1716 1.398 . S
C1715 C1721 1.491 . S
C1716 H1707 0.950 . S
C1716 C1715 1.398 . S
C1716 C1717 1.391 . S
C1717 H1705 0.950 . S
C1717 C1713 1.393 . S
C1717 C1716 1.391 . S
C1718 H1708 0.950 . S
C1718 C1719 1.386 . S
C1718 C1720 1.391 . S
C1719 C1718 1.386 . S
C1719 C1723 1.393 . S
C1720 H1709 0.950 . S
C1720 C1718 1.391 . S
C1720 C1721 1.400 . S
C1721 C1715 1.491 . S
C1721 C1720 1.400 . S
C1721 C1722 1.398 . S
C1722 H1710 0.950 . S
C1722 C1721 1.398 . S
C1722 C1723 1.391 . S
C1723 H1711 0.950 . S
C1723 C1719 1.393 . S
C1723 C1722 1.391 . S
H1724 C1732 0.950 . S
H1725 C1737 0.950 . S
H1726 C1734 0.950 . S
H1727 C1736 0.950 . S
H1728 C1738 0.950 . S
H1729 C1740 0.950 . S
H1730 C1742 0.950 . S
H1731 C1743 0.950 . S
C1732 H1724 0.950 . S
C1732 C1733 1.386 . S
C1732 C1734 1.391 . S
C1733 C1732 1.386 . S
C1733 C1737 1.393 . S
C1734 H1726 0.950 . S
C1734 C1732 1.391 . S
C1734 C1735 1.400 . S
C1735 C1734 1.400 . S
C1735 C1736 1.398 . S
C1735 C1741 1.491 . S
C1736 H1727 0.950 . S
C1736 C1735 1.398 . S
C1736 C1737 1.391 . S
C1737 H1725 0.950 . S
C1737 C1733 1.393 . S
C1737 C1736 1.391 . S
C1738 H1728 0.950 . S
C1738 C1739 1.386 . S
C1738 C1740 1.391 . S
C1739 C1738 1.386 . S
C1739 C1743 1.393 . S
C1740 H1729 0.950 . S
C1740 C1738 1.391 . S
C1740 C1741 1.400 . S
C1741 C1735 1.491 . S
C1741 C1740 1.400 . S
C1741 C1742 1.398 . S
C1742 H1730 0.950 . S
C1742 C1741 1.398 . S
C1742 C1743 1.391 . S
C1743 H1731 0.950 . S
C1743 C1739 1.393 . S
C1743 C1742 1.391 . S
H1744 C1752 0.950 . S
H1745 C1757 0.950 . S
H1746 C1754 0.950 . S
H1747 C1756 0.950 . S
H1748 C1758 0.950 . S
H1749 C1760 0.950 . S
H1750 C1762 0.950 . S
H1751 C1763 0.950 . S
C1752 H1744 0.950 . S
C1752 C1753 1.386 . S
C1752 C1754 1.391 . S
C1753 C1752 1.386 . S
C1753 C1757 1.393 . S
C1754 H1746 0.950 . S
C1754 C1752 1.391 . S
C1754 C1755 1.400 . S
C1755 C1754 1.400 . S
C1755 C1756 1.398 . S
C1755 C1761 1.491 . S
C1756 H1747 0.950 . S
C1756 C1755 1.398 . S
C1756 C1757 1.391 . S
C1757 H1745 0.950 . S
C1757 C1753 1.393 . S
C1757 C1756 1.391 . S
C1758 H1748 0.950 . S
C1758 C1759 1.386 . S
C1758 C1760 1.391 . S
C1759 C1758 1.386 . S
C1759 C1763 1.393 . S
C1760 H1749 0.950 . S
C1760 C1758 1.391 . S
C1760 C1761 1.400 . S
C1761 C1755 1.491 . S
C1761 C1760 1.400 . S
C1761 C1762 1.398 . S
C1762 H1750 0.950 . S
C1762 C1761 1.398 . S
C1762 C1763 1.391 . S
C1763 H1751 0.950 . S
C1763 C1759 1.393 . S
C1763 C1762 1.391 . S
H1764 C1772 0.950 . S
H1765 C1777 0.950 . S
H1766 C1774 0.950 . S
H1767 C1776 0.950 . S
H1768 C1778 0.950 . S
H1769 C1780 0.950 . S
H1770 C1782 0.950 . S
H1771 C1783 0.950 . S
C1772 H1764 0.950 . S
C1772 C1773 1.386 . S
C1772 C1774 1.391 . S
C1773 C1772 1.386 . S
C1773 C1777 1.393 . S
C1774 H1766 0.950 . S
C1774 C1772 1.391 . S
C1774 C1775 1.400 . S
C1775 C1774 1.400 . S
C1775 C1776 1.398 . S
C1775 C1781 1.491 . S
C1776 H1767 0.950 . S
C1776 C1775 1.398 . S
C1776 C1777 1.391 . S
C1777 H1765 0.950 . S
C1777 C1773 1.393 . S
C1777 C1776 1.391 . S
C1778 H1768 0.950 . S
C1778 C1779 1.386 . S
C1778 C1780 1.391 . S
C1779 C1778 1.386 . S
C1779 C1783 1.393 . S
C1780 H1769 0.950 . S
C1780 C1778 1.391 . S
C1780 C1781 1.400 . S
C1781 C1775 1.491 . S
C1781 C1780 1.400 . S
C1781 C1782 1.398 . S
C1782 H1770 0.950 . S
C1782 C1781 1.398 . S
C1782 C1783 1.391 . S
C1783 H1771 0.950 . S
C1783 C1779 1.393 . S
C1783 C1782 1.391 . S
H1784 C1792 0.950 . S
H1785 C1797 0.950 . S
H1786 C1794 0.950 . S
H1787 C1796 0.950 . S
H1788 C1798 0.950 . S
H1789 C1800 0.950 . S
H1790 C1802 0.950 . S
H1791 C1803 0.950 . S
C1792 H1784 0.950 . S
C1792 C1793 1.386 . S
C1792 C1794 1.391 . S
C1793 C1792 1.386 . S
C1793 C1797 1.393 . S
C1794 H1786 0.950 . S
C1794 C1792 1.391 . S
C1794 C1795 1.400 . S
C1795 C1794 1.400 . S
C1795 C1796 1.398 . S
C1795 C1801 1.491 . S
C1796 H1787 0.950 . S
C1796 C1795 1.398 . S
C1796 C1797 1.391 . S
C1797 H1785 0.950 . S
C1797 C1793 1.393 . S
C1797 C1796 1.391 . S
C1798 H1788 0.950 . S
C1798 C1799 1.386 . S
C1798 C1800 1.391 . S
C1799 C1798 1.386 . S
C1799 C1803 1.393 . S
C1800 H1789 0.950 . S
C1800 C1798 1.391 . S
C1800 C1801 1.400 . S
C1801 C1795 1.491 . S
C1801 C1800 1.400 . S
C1801 C1802 1.398 . S
C1802 H1790 0.950 . S
C1802 C1801 1.398 . S
C1802 C1803 1.391 . S
C1803 H1791 0.950 . S
C1803 C1799 1.393 . S
C1803 C1802 1.391 . S
H1804 C1812 0.950 . S
H1805 C1817 0.950 . S
H1806 C1814 0.950 . S
H1807 C1816 0.950 . S
H1808 C1818 0.950 . S
H1809 C1820 0.950 . S
H1810 C1822 0.950 . S
H1811 C1823 0.950 . S
C1812 H1804 0.950 . S
C1812 C1813 1.386 . S
C1812 C1814 1.391 . S
C1813 C1812 1.386 . S
C1813 C1817 1.393 . S
C1814 H1806 0.950 . S
C1814 C1812 1.391 . S
C1814 C1815 1.400 . S
C1815 C1814 1.400 . S
C1815 C1816 1.398 . S
C1815 C1821 1.491 . S
C1816 H1807 0.950 . S
C1816 C1815 1.398 . S
C1816 C1817 1.391 . S
C1817 H1805 0.950 . S
C1817 C1813 1.393 . S
C1817 C1816 1.391 . S
C1818 H1808 0.950 . S
C1818 C1819 1.386 . S
C1818 C1820 1.391 . S
C1819 C1818 1.386 . S
C1819 C1823 1.393 . S
C1820 H1809 0.950 . S
C1820 C1818 1.391 . S
C1820 C1821 1.400 . S
C1821 C1815 1.491 . S
C1821 C1820 1.400 . S
C1821 C1822 1.398 . S
C1822 H1810 0.950 . S
C1822 C1821 1.398 . S
C1822 C1823 1.391 . S
C1823 H1811 0.950 . S
C1823 C1819 1.393 . S
C1823 C1822 1.391 . S
H1824 C1832 0.950 . S
H1825 C1837 0.950 . S
H1826 C1834 0.950 . S
H1827 C1836 0.930 1_655 S
H1828 C1838 0.950 . S
H1829 C1840 0.950 . S
H1830 C1842 0.930 1_455 S
H1831 C1843 0.950 . S
C1832 H1824 0.950 . S
C1832 C1833 1.386 . S
C1832 C1834 1.391 . S
C1833 C1832 1.386 . S
C1833 C1837 1.393 . S
C1834 H1826 0.950 . S
C1834 C1832 1.391 . S
C1834 C1835 1.400 . S
C1835 C1834 1.400 . S
C1835 C1836 1.398 . S
C1835 C1841 1.491 1_455 S
C1836 H1827 0.930 1_455 S
C1836 C1835 1.398 . S
C1836 C1837 1.391 . S
C1837 H1825 0.950 . S
C1837 C1833 1.393 . S
C1837 C1836 1.391 . S
C1838 H1828 0.950 . S
C1838 C1839 1.386 . S
C1838 C1840 1.391 . S
C1839 C1838 1.386 . S
C1839 C1843 1.393 . S
C1840 H1829 0.950 . S
C1840 C1838 1.391 . S
C1840 C1841 1.400 . S
C1841 C1835 1.491 1_655 S
C1841 C1840 1.400 . S
C1841 C1842 1.398 . S
C1842 H1830 0.930 1_655 S
C1842 C1841 1.398 . S
C1842 C1843 1.391 . S
C1843 H1831 0.950 . S
C1843 C1839 1.393 . S
C1843 C1842 1.391 . S
H1844 C1852 0.950 . S
H1845 C1857 0.950 . S
H1846 C1854 0.950 . S
H1847 C1856 0.950 . S
H1848 C1858 0.950 . S
H1849 C1860 0.950 . S
H1850 C1862 0.950 . S
H1851 C1863 0.950 . S
C1852 H1844 0.950 . S
C1852 C1853 1.386 . S
C1852 C1854 1.391 . S
C1853 C1852 1.386 . S
C1853 C1857 1.393 . S
C1854 H1846 0.950 . S
C1854 C1852 1.391 . S
C1854 C1855 1.400 . S
C1855 C1854 1.400 . S
C1855 C1856 1.398 . S
C1855 C1861 1.491 . S
C1856 H1847 0.950 . S
C1856 C1855 1.398 . S
C1856 C1857 1.391 . S
C1857 H1845 0.950 . S
C1857 C1853 1.393 . S
C1857 C1856 1.391 . S
C1858 H1848 0.950 . S
C1858 C1859 1.386 . S
C1858 C1860 1.391 . S
C1859 C1858 1.386 . S
C1859 C1863 1.393 . S
C1860 H1849 0.950 . S
C1860 C1858 1.391 . S
C1860 C1861 1.400 . S
C1861 C1855 1.491 . S
C1861 C1860 1.400 . S
C1861 C1862 1.398 . S
C1862 H1850 0.950 . S
C1862 C1861 1.398 . S
C1862 C1863 1.391 . S
C1863 H1851 0.950 . S
C1863 C1859 1.393 . S
C1863 C1862 1.391 . S
H1864 C1872 0.950 . S
H1865 C1877 0.950 . S
H1866 C1874 0.950 . S
H1867 C1876 0.908 1_565 S
H1868 C1878 0.950 . S
H1869 C1880 0.950 . S
H1870 C1882 0.908 1_545 S
H1871 C1883 0.950 . S
C1872 H1864 0.950 . S
C1872 C1873 1.386 . S
C1872 C1874 1.391 . S
C1873 C1872 1.386 . S
C1873 C1877 1.393 . S
C1874 H1866 0.950 . S
C1874 C1872 1.391 . S
C1874 C1875 1.400 . S
C1875 C1874 1.400 . S
C1875 C1876 1.398 . S
C1875 C1881 1.491 1_545 S
C1876 H1867 0.908 1_545 S
C1876 C1875 1.398 . S
C1876 C1877 1.391 . S
C1877 H1865 0.950 . S
C1877 C1873 1.393 . S
C1877 C1876 1.391 . S
C1878 H1868 0.950 . S
C1878 C1879 1.386 . S
C1878 C1880 1.391 . S
C1879 C1878 1.386 . S
C1879 C1883 1.393 . S
C1880 H1869 0.950 . S
C1880 C1878 1.391 . S
C1880 C1881 1.400 . S
C1881 C1875 1.491 1_565 S
C1881 C1880 1.400 . S
C1881 C1882 1.398 . S
C1882 H1870 0.908 1_565 S
C1882 C1881 1.398 . S
C1882 C1883 1.391 . S
C1883 H1871 0.950 . S
C1883 C1879 1.393 . S
C1883 C1882 1.391 . S
H1884 C1892 0.950 . S
H1885 C1897 0.950 . S
H1886 C1894 0.950 1_565 S
H1887 C1896 0.950 . S
H1888 C1898 0.950 . S
H1889 C1900 0.950 1_545 S
H1890 C1902 0.950 . S
H1891 C1903 0.950 . S
C1892 H1884 0.950 . S
C1892 C1893 1.386 . S
C1892 C1894 1.391 . S
C1893 C1892 1.386 . S
C1893 C1897 1.393 1_554 S
C1894 H1886 0.950 1_545 S
C1894 C1892 1.391 . S
C1894 C1895 1.400 . S
C1895 C1894 1.400 . S
C1895 C1896 1.398 1_554 S
C1895 C1901 1.491 1_544 S
C1896 H1887 0.950 . S
C1896 C1895 1.398 1_556 S
C1896 C1897 1.391 . S
C1897 H1885 0.950 . S
C1897 C1893 1.393 1_556 S
C1897 C1896 1.391 . S
C1898 H1888 0.950 . S
C1898 C1899 1.386 . S
C1898 C1900 1.391 . S
C1899 C1898 1.386 . S
C1899 C1903 1.393 1_556 S
C1900 H1889 0.950 1_565 S
C1900 C1898 1.391 . S
C1900 C1901 1.400 . S
C1901 C1895 1.491 1_566 S
C1901 C1900 1.400 . S
C1901 C1902 1.398 1_556 S
C1902 H1890 0.950 . S
C1902 C1901 1.398 1_554 S
C1902 C1903 1.391 . S
C1903 H1891 0.950 . S
C1903 C1899 1.393 1_554 S
C1903 C1902 1.391 . S
H1904 C1912 0.950 . S
H1905 C1917 0.950 . S
H1906 C1914 0.950 1_455 S
H1907 C1916 0.950 1_556 S
H1908 C1918 0.950 . S
H1909 C1920 0.950 1_655 S
H1910 C1922 0.950 1_554 S
H1911 C1923 0.950 . S
C1912 H1904 0.950 . S
C1912 C1913 1.386 . S
C1912 C1914 1.391 . S
C1913 C1912 1.386 . S
C1913 C1917 1.393 . S
C1914 H1906 0.950 1_655 S
C1914 C1912 1.391 . S
C1914 C1915 1.400 . S
C1915 C1914 1.400 . S
C1915 C1916 1.398 . S
C1915 C1921 1.491 1_654 S
C1916 H1907 0.950 1_554 S
C1916 C1915 1.398 . S
C1916 C1917 1.391 . S
C1917 H1905 0.950 . S
C1917 C1913 1.393 . S
C1917 C1916 1.391 . S
C1918 H1908 0.950 . S
C1918 C1919 1.386 . S
C1918 C1920 1.391 . S
C1919 C1918 1.386 . S
C1919 C1923 1.393 . S
C1920 H1909 0.950 1_455 S
C1920 C1918 1.391 . S
C1920 C1921 1.400 . S
C1921 C1915 1.491 1_456 S
C1921 C1920 1.400 . S
C1921 C1922 1.398 . S
C1922 H1910 0.950 1_556 S
C1922 C1921 1.398 . S
C1922 C1923 1.391 . S
C1923 H1911 0.950 . S
C1923 C1919 1.393 . S
C1923 C1922 1.391 . S
H1924 C1932 0.950 . S
H1925 C1937 0.950 . S
H1926 C1934 0.950 . S
H1927 C1936 0.950 . S
H1928 C1938 0.950 . S
H1929 C1940 0.950 . S
H1930 C1942 0.950 . S
H1931 C1943 0.950 . S
C1932 H1924 0.950 . S
C1932 C1933 1.386 . S
C1932 C1934 1.391 . S
C1933 C1932 1.386 . S
C1933 C1937 1.393 1_554 S
C1934 H1926 0.950 . S
C1934 C1932 1.391 . S
C1934 C1935 1.400 . S
C1935 C1934 1.400 . S
C1935 C1936 1.398 1_554 S
C1935 C1941 1.491 1_554 S
C1936 H1927 0.950 . S
C1936 C1935 1.398 1_556 S
C1936 C1937 1.391 . S
C1937 H1925 0.950 . S
C1937 C1933 1.393 1_556 S
C1937 C1936 1.391 . S
C1938 H1928 0.950 . S
C1938 C1939 1.386 . S
C1938 C1940 1.391 . S
C1939 C1938 1.386 . S
C1939 C1943 1.393 1_556 S
C1940 H1929 0.950 . S
C1940 C1938 1.391 . S
C1940 C1941 1.400 . S
C1941 C1935 1.491 1_556 S
C1941 C1940 1.400 . S
C1941 C1942 1.398 1_556 S
C1942 H1930 0.950 . S
C1942 C1941 1.398 1_554 S
C1942 C1943 1.391 . S
C1943 H1931 0.950 . S
C1943 C1939 1.393 1_554 S
C1943 C1942 1.391 . S
C513 C152 1.069 . S
C519 C5 1.015 . S
C533 C166 1.058 . S
C539 C19 0.986 . S
C553 C33 1.004 . S
C559 C138 1.043 . S
C573 C47 0.980 . S
C579 C124 1.050 . S
C593 C61 1.030 . S
C599 C96 1.066 . S
C613 C110 1.047 . S
C619 C75 0.979 . S
C633 C68 1.064 . S
C639 C89 1.031 . S
C653 C82 1.061 . S
C659 C103 1.031 . S
C673 C117 0.986 . S
C679 C54 1.041 . S
C693 C40 1.044 . S
C699 C131 0.979 . S
C713 C145 0.979 . S
C719 C12 1.046 . S
C733 C159 1.011 . S
C739 C26 1.045 . S
C753 C320 1.069 . S
C759 C173 1.012 . S
C773 C334 1.067 . S
C779 C187 1.028 . S
C793 C201 1.029 . S
C799 C306 1.057 . S
C813 C215 1.006 . S
C819 C292 1.068 . S
C833 C229 1.027 . S
C839 C264 1.068 . S
C853 C243 1.013 . S
C859 C278 1.069 . S
C873 C236 1.067 . S
C879 C257 1.004 . S
C893 C250 1.046 . S
C899 C271 1.014 . S
C913 C222 1.047 . S
C919 C285 0.979 . S
C933 C208 1.045 . S
C939 C299 0.979 . S
C953 C180 1.043 . S
C959 C313 1.005 . S
C973 C194 1.061 . S
C979 C327 1.031 . S
C993 C341 0.980 . S
C999 C488 1.051 . S
C1013 C502 1.067 . S
C1019 C355 1.029 . S
C1033 C474 1.049 . S
C1039 C369 1.018 . S
C1053 C383 1.030 . S
C1059 C460 1.066 . S
C1073 C397 0.988 . S
C1079 C432 1.041 . S
C1093 C411 0.980 . S
C1099 C446 1.052 . S
C1113 C404 1.056 . S
C1119 C425 1.027 . S
C1133 C418 1.041 . S
C1139 C439 0.998 . S
C1153 C390 1.056 . S
C1159 C453 1.028 . S
C1173 C467 1.008 . S
C1179 C376 1.068 . S
C1193 C348 1.046 . S
C1199 C481 0.979 . S
C1213 C495 0.990 . S
C1219 C362 1.041 . S
C1233 C53 1.237 . S
C1239 C11 1.238 . S
C1253 C67 1.239 . S
C1259 C25 1.238 . S
C1273 C39 1.257 . S
C1279 C81 1.257 . S
C1293 C137 1.260 . S
C1299 C95 1.259 . S
C1313 C151 1.259 . S
C1319 C109 1.258 . S
C1333 C165 1.245 . S
C1339 C123 1.246 . S
C1353 C221 1.246 . S
C1359 C179 1.247 . S
C1373 C235 1.235 . S
C1379 C193 1.235 . S
C1393 C207 1.245 . S
C1399 C249 1.246 . S
C1413 C263 1.246 . S
C1419 C305 1.247 . S
C1433 C319 1.240 . S
C1439 C277 1.239 . S
C1453 C291 1.239 . S
C1459 C333 1.240 . S
C1473 C389 1.258 . S
C1479 C347 1.259 . S
C1493 C403 1.259 . S
C1499 C361 1.259 . S
C1513 C375 1.256 . S
C1519 C417 1.255 . S
C1533 C431 1.252 . S
C1539 C473 1.253 . S
C1553 C445 1.247 . S
C1559 C487 1.246 . S
C1573 C459 1.260 . S
C1579 C501 1.261 . S
C1593 C4 1.287 . S
C1599 C256 1.287 . S
C1613 C270 1.309 . S
C1619 C18 1.309 . S
C1633 C284 1.296 . S
C1639 C32 1.296 . S
C1653 C466 1.295 . S
C1659 C46 1.295 . S
C1673 C480 1.296 . S
C1679 C60 1.296 . S
C1693 C494 1.309 . S
C1699 C74 1.309 . S
C1713 C88 1.291 . S
C1719 C340 1.291 . S
C1733 C354 1.301 . S
C1739 C102 1.301 . S
C1753 C368 1.298 . S
C1759 C116 1.298 . S
C1773 C130 1.309 . S
C1779 C214 1.309 . S
C1793 C144 1.296 . S
C1799 C228 1.296 . S
C1813 C158 1.307 . S
C1819 C242 1.307 . S
C1833 C424 1.285 . S
C1839 C172 1.285 . S
C1853 C438 1.295 . S
C1859 C186 1.295 . S
C1873 C200 1.309 . S
C1879 C452 1.309 . S
C1893 C298 1.309 . S
C1899 C382 1.309 . S
C1913 C312 1.306 . S
C1919 C396 1.306 . S
C1933 C326 1.302 . S
C1939 C410 1.302 . S
