# Generated by pormake.
# Topology smm, (6)-cn, num edge types: 1
# Building blocks:
#     Node 0, Type 0, BuildingBlock: PAMTOO_clean_sbu_0, # of connection points: 6
#     Node 1, Type 0, BuildingBlock: PAMTOO_clean_sbu_0, # of connection points: 6
#     Node 2, Type 0, BuildingBlock: PAMTOO_clean_sbu_0, # of connection points: 6
#     Node 3, Type 0, BuildingBlock: PAMTOO_clean_sbu_0, # of connection points: 6
#     Node 4, Type 0, BuildingBlock: PAMTOO_clean_sbu_0, # of connection points: 6
#     Node 5, Type 0, BuildingBlock: PAMTOO_clean_sbu_0, # of connection points: 6
#     Node 6, Type 0, BuildingBlock: PAMTOO_clean_sbu_0, # of connection points: 6
#     Node 7, Type 0, BuildingBlock: PAMTOO_clean_sbu_0, # of connection points: 6
#     Node 8, Type 0, BuildingBlock: PAMTOO_clean_sbu_0, # of connection points: 6
#     Edge 9, Type (0, 0), BuildingBlock: XUDNAN_clean_linker_2, # of connection points: 2
#     Edge 10, Type (0, 0), BuildingBlock: XUDNAN_clean_linker_2, # of connection points: 2
#     Edge 11, Type (0, 0), BuildingBlock: XUDNAN_clean_linker_2, # of connection points: 2
#     Edge 12, Type (0, 0), BuildingBlock: XUDNAN_clean_linker_2, # of connection points: 2
#     Edge 13, Type (0, 0), BuildingBlock: XUDNAN_clean_linker_2, # of connection points: 2
#     Edge 14, Type (0, 0), BuildingBlock: XUDNAN_clean_linker_2, # of connection points: 2
#     Edge 15, Type (0, 0), BuildingBlock: XUDNAN_clean_linker_2, # of connection points: 2
#     Edge 16, Type (0, 0), BuildingBlock: XUDNAN_clean_linker_2, # of connection points: 2
#     Edge 17, Type (0, 0), BuildingBlock: XUDNAN_clean_linker_2, # of connection points: 2
#     Edge 18, Type (0, 0), BuildingBlock: XUDNAN_clean_linker_2, # of connection points: 2
#     Edge 19, Type (0, 0), BuildingBlock: XUDNAN_clean_linker_2, # of connection points: 2
#     Edge 20, Type (0, 0), BuildingBlock: XUDNAN_clean_linker_2, # of connection points: 2
#     Edge 21, Type (0, 0), BuildingBlock: XUDNAN_clean_linker_2, # of connection points: 2
#     Edge 22, Type (0, 0), BuildingBlock: XUDNAN_clean_linker_2, # of connection points: 2
#     Edge 23, Type (0, 0), BuildingBlock: XUDNAN_clean_linker_2, # of connection points: 2
#     Edge 24, Type (0, 0), BuildingBlock: XUDNAN_clean_linker_2, # of connection points: 2
#     Edge 25, Type (0, 0), BuildingBlock: XUDNAN_clean_linker_2, # of connection points: 2
#     Edge 26, Type (0, 0), BuildingBlock: XUDNAN_clean_linker_2, # of connection points: 2
#     Edge 27, Type (0, 0), BuildingBlock: XUDNAN_clean_linker_2, # of connection points: 2
#     Edge 28, Type (0, 0), BuildingBlock: XUDNAN_clean_linker_2, # of connection points: 2
#     Edge 29, Type (0, 0), BuildingBlock: XUDNAN_clean_linker_2, # of connection points: 2
#     Edge 30, Type (0, 0), BuildingBlock: XUDNAN_clean_linker_2, # of connection points: 2
#     Edge 31, Type (0, 0), BuildingBlock: XUDNAN_clean_linker_2, # of connection points: 2
#     Edge 32, Type (0, 0), BuildingBlock: XUDNAN_clean_linker_2, # of connection points: 2
#     Edge 33, Type (0, 0), BuildingBlock: XUDNAN_clean_linker_2, # of connection points: 2
#     Edge 34, Type (0, 0), BuildingBlock: XUDNAN_clean_linker_2, # of connection points: 2
#     Edge 35, Type (0, 0), BuildingBlock: XUDNAN_clean_linker_2, # of connection points: 2
# Relax obj value: 0.051
# Max RMSD: 0.133
# Mean RMSD: 0.132
data_MOF--net-smm--node1-PAMTOO_clean_sbu_0--edge1-XUDNAN_clean_linker_2
_symmetry_space_group_name_H-M    P1
_symmetry_Int_Tables_number       1
_symmetry_cell_setting            triclinic
loop_
_symmetry_equiv_pos_as_xyz
'x, y, z'
_cell_length_a     70.29619
_cell_length_b     70.373433
_cell_length_c     14.558503
_cell_angle_alpha  90.059669
_cell_angle_beta   89.95429
_cell_angle_gamma 119.75612
loop_
_atom_site_label
_atom_site_type_symbol
_atom_site_fract_x
_atom_site_fract_y
_atom_site_fract_z
_atom_type_partial_charge
Dy0 Dy 1.02669 0.17254 0.01044 0.0
Dy1 Dy 0.06737 0.22546 0.01653 0.0
C2 C 0.05512 0.19201 0.18713 0.0
O3 O 1.01548 0.19239 0.09021 0.0
O4 O 0.03553 0.22551 0.01869 0.0
O5 O 0.99777 0.14587 0.07227 0.0
O6 O 1.00759 0.14248 0.93416 0.0
O7 O 0.05907 0.21551 0.87142 0.0
O8 O 1.02303 0.19069 0.8944 0.0
O9 O 0.0839 0.20527 0.0184 0.0
O10 O 0.05675 0.1722 0.96021 0.0
O11 O 0.0987 0.25144 0.96865 0.0
O12 O 0.08086 0.25812 0.07325 0.0
C13 C 1.01878 0.21199 0.06956 0.0
O14 O 0.04621 0.17497 0.1326 0.0
O15 O 0.06126 0.21202 0.15888 0.0
C16 C 0.98365 0.10932 0.0163 0.0
C17 C 0.95901 0.06305 0.02499 0.0
C18 C 0.95256 0.07599 0.07509 0.0
C19 C 0.96472 0.0988 0.07078 0.0
C20 C 0.99078 0.09649 0.96929 0.0
C21 C 0.97863 0.07353 0.97417 0.0
C22 C 0.99349 0.13317 0.00081 0.0
C23 C 0.0393 0.20285 0.83975 0.0
C24 C 0.07738 0.18582 -0.01809 0.0
C25 C 0.10566 0.2883 -0.0219 0.0
C26 C 0.12563 0.33268 0.921 0.0
C27 C 0.134 0.31915 0.89255 0.0
C28 C 0.1242 0.29732 0.9209 0.0
C29 C 0.09659 0.30148 0.00319 0.0
C30 C 0.10641 0.32341 0.97447 0.0
C31 C 0.09798 0.26634 0.01949 0.0
H32 H 0.93771 0.06843 0.11588 0.0
H33 H 0.95876 0.10825 0.10719 0.0
H34 H 1.00524 0.10413 0.92621 0.0
H35 H 0.98398 0.06399 0.93465 0.0
H36 H 0.14859 0.32564 0.85029 0.0
H37 H 0.1317 0.28771 0.90084 0.0
H38 H 0.08241 0.29515 0.04782 0.0
H39 H 0.09961 0.3334 -0.002 0.0
Dy40 Dy 0.89516 0.86328 0.07723 0.0
Dy41 Dy 0.84259 0.85063 0.03615 0.0
C42 C 0.86412 0.86434 0.23166 0.0
O43 O 0.87497 0.82693 0.06656 0.0
O44 O 0.84013 0.82038 0.09882 0.0
O45 O 0.92561 0.87946 0.15315 0.0
O46 O 0.92135 0.85696 0.04228 0.0
O47 O 0.85723 0.84264 0.91778 0.0
O48 O 0.89193 0.8709 0.93319 0.0
O49 O 0.86302 0.88717 0.01723 0.0
O50 O 0.89742 0.89596 0.07227 0.0
O51 O 0.82011 0.85278 0.94175 0.0
O52 O 0.8081 0.83545 0.07095 0.0
C53 C 0.85477 0.81394 0.09446 0.0
O54 O 0.87761 0.85723 0.20987 0.0
O55 O 0.85166 0.86687 0.17198 0.0
C56 C 0.95757 0.88558 0.06978 0.0
C57 C 1.00141 0.91184 0.0104 0.0
C58 C 0.99089 0.8889 0.00402 0.0
C59 C 0.96928 0.87596 0.03355 0.0
C60 C 0.96799 0.90853 0.07666 0.0
C61 C 0.98977 0.92155 0.04753 0.0
C62 C 0.93488 0.87108 0.10187 0.0
C63 C 0.87535 0.85804 0.88124 0.0
C64 C 0.88334 0.90158 0.04098 0.0
C65 C 0.78217 0.8251 0.94704 0.0
C66 C 0.74027 0.80104 0.86411 0.0
C67 C 0.75902 0.8139 0.81052 0.0
C68 C 0.7797 0.8258 0.8514 0.0
C69 C 0.76361 0.81137 -0.0 0.0
C70 C 0.74292 0.79937 0.95897 0.0
C71 C 0.80297 0.84098 -0.00695 0.0
H72 H 0.99948 0.88087 -0.02269 0.0
H73 H 0.96172 0.85832 0.02847 0.0
H74 H 0.95936 0.91642 0.10446 0.0
H75 H 0.99741 0.93918 0.05292 0.0
H76 H 0.75761 0.81532 0.73707 0.0
H77 H 0.79357 0.83627 0.80833 0.0
H78 H 0.76487 0.81069 0.07394 0.0
H79 H 0.72882 0.78978 0.00239 0.0
Dy80 Dy 0.20484 0.04496 -0.01016 0.0
Dy81 Dy 0.20737 0.99961 0.93609 0.0
C82 C 0.19991 1.01019 0.13655 0.0
O83 O 0.24079 0.05574 -0.01853 0.0
O84 O 0.24018 0.02269 -0.00572 0.0
O85 O 0.19416 0.06224 0.08022 0.0
O86 O 0.21376 0.07844 0.95956 0.0
O87 O 0.22122 0.02484 0.82689 0.0
O88 O 0.19695 0.03687 0.84247 0.0
O89 O 0.1731 0.99181 0.90437 0.0
O90 O 0.16998 0.01754 -0.00784 0.0
O91 O 0.20328 0.97584 0.83239 0.0
O92 O 0.21396 0.97352 0.96956 0.0
C93 C 0.25067 0.04423 -0.00403 0.0
O94 O 0.21106 0.03099 0.11516 0.0
O95 O 0.19209 0.99476 0.07418 0.0
C96 C 0.19068 0.09151 0.01703 0.0
C97 C 0.16867 0.11561 -0.0085 0.0
C98 C 0.1873 0.12362 0.04814 0.0
C99 C 0.19815 0.11173 0.06056 0.0
C100 C 0.17182 0.08306 0.96183 0.0
C101 C 0.16084 0.09501 0.94938 0.0
C102 C 0.2032 0.08 0.03042 0.0
C103 C 0.2086 0.03148 0.78996 0.0
C104 C 0.16124 0.99931 0.94365 0.0
C105 C 0.2263 0.96034 0.84672 0.0
C106 C 0.25656 0.94912 0.77131 0.0
C107 C 0.2631 0.97102 0.79382 0.0
C108 C 0.24811 0.97658 0.83119 0.0
C109 C 0.21969 0.93855 0.82451 0.0
C110 C 0.23463 0.93297 0.78724 0.0
C111 C 0.21018 0.96568 0.88611 0.0
H112 H 0.19355 0.13917 0.08321 0.0
H113 H 0.21257 0.11845 0.10398 0.0
H114 H 0.16576 0.0674 0.92782 0.0
H115 H 0.14658 0.08839 0.90518 0.0
H116 H 0.27989 0.98386 0.78362 0.0
H117 H 0.25353 0.9935 0.84817 0.0
H118 H 0.2029 0.9258 0.83577 0.0
H119 H 0.22889 0.91603 0.76962 0.0
Dy120 Dy 0.68187 0.50783 0.31558 0.0
Dy121 Dy 0.73116 0.55355 0.29549 0.0
C122 C 0.70993 0.53225 0.48476 0.0
O123 O 0.67608 0.53516 0.35979 0.0
O124 O 0.70692 0.56545 0.30133 0.0
O125 O 0.65367 0.4848 0.3945 0.0
O126 O 0.65597 0.47935 0.24899 0.0
O127 O 0.7177 0.53812 0.16074 0.0
O128 O 0.6817 0.52544 0.19122 0.0
O129 O 0.73823 0.52622 0.31878 0.0
O130 O 0.70571 0.49767 0.26584 0.0
O131 O 0.75377 0.57839 0.20297 0.0
O132 O 0.76286 0.57866 0.3454 0.0
C133 C 0.68719 0.55619 0.33867 0.0
O134 O 0.70094 0.51333 0.44278 0.0
O135 O 0.72028 0.55076 0.43987 0.0
C136 C 0.63499 0.44806 0.34066 0.0
C137 C 0.61483 0.40229 0.36643 0.0
C138 C 0.63785 0.41531 0.36449 0.0
C139 C 0.64787 0.43807 0.35182 0.0
C140 C 0.61214 0.43513 0.34164 0.0
C141 C 0.60216 0.41253 0.35418 0.0
C142 C 0.64469 0.47172 0.3245 0.0
C143 C 0.69811 0.53354 0.13418 0.0
C144 C 0.72633 0.50584 0.29063 0.0
C145 C 0.7785 0.61273 0.26625 0.0
C146 C 0.7985 0.6588 0.25274 0.0
C147 C 0.77637 0.64615 0.27925 0.0
C148 C 0.76643 0.62326 0.28593 0.0
C149 C 0.80045 0.62525 0.2398 0.0
C150 C 0.81033 0.64797 0.23285 0.0
C151 C 0.7684 0.58872 0.26636 0.0
H152 H 0.64808 0.40797 0.37407 0.0
H153 H 0.66559 0.44783 0.35063 0.0
H154 H 0.60194 0.44252 0.33199 0.0
H155 H 0.58444 0.40303 0.35323 0.0
H156 H 0.7668 0.65392 0.29551 0.0
H157 H 0.74935 0.61379 0.30563 0.0
H158 H 0.80992 0.61739 0.22295 0.0
H159 H 0.82721 0.65702 0.21014 0.0
Dy160 Dy 0.55868 0.20219 0.3145 0.0
Dy161 Dy 0.50766 0.19509 0.29162 0.0
C162 C 0.52547 0.18831 0.48009 0.0
O163 O 0.53563 0.1658 0.32706 0.0
O164 O 0.50415 0.16235 0.25973 0.0
O165 O 0.58472 0.20095 0.39026 0.0
O166 O 0.58961 0.21203 0.24854 0.0
O167 O 0.52824 0.20947 0.16859 0.0
O168 O 0.54624 0.19038 0.17522 0.0
O169 O 0.5281 0.22778 0.35647 0.0
O170 O 0.56216 0.23568 0.30399 0.0
O171 O 0.48374 0.19472 0.1976 0.0
O172 O 0.47681 0.1907 0.3432 0.0
C173 C 0.51564 0.15374 0.29327 0.0
O174 O 0.5456 0.20198 0.45333 0.0
O175 O 0.50866 0.18058 0.42434 0.0
C176 C 0.62186 0.22463 0.34043 0.0
C177 C 0.66822 0.24853 0.35263 0.0
C178 C 0.65574 0.23113 0.41324 0.0
C179 C 0.63288 0.21931 0.40699 0.0
C180 C 0.63418 0.24299 0.28393 0.0
C181 C 0.65713 0.25487 0.29025 0.0
C182 C 0.59843 0.20887 0.32155 0.0
C183 C 0.53653 0.19875 0.12777 0.0
C184 C 0.54879 0.24186 0.33912 0.0
C185 C 0.44673 0.17302 0.23988 0.0
C186 C 0.40424 0.13989 0.18804 0.0
C187 C 0.41804 0.13481 0.24018 0.0
C188 C 0.43912 0.1512 0.26548 0.0
C189 C 0.433 0.17821 0.18906 0.0
C190 C 0.41201 0.16186 0.1633 0.0
C191 C 0.46918 0.1905 0.2613 0.0
H192 H 0.66374 0.22605 0.46317 0.0
H193 H 0.62388 0.20522 0.45114 0.0
H194 H 0.62623 0.24752 0.23158 0.0
H195 H 0.66622 0.26813 0.24241 0.0
H196 H 0.41257 0.11815 0.2616 0.0
H197 H 0.44952 0.14681 0.30426 0.0
H198 H 0.43867 0.19494 0.16789 0.0
H199 H 0.40211 0.16642 0.12192 0.0
Dy200 Dy 0.87005 0.38333 0.33873 0.0
Dy201 Dy 0.87931 0.33673 0.29758 0.0
C202 C 0.87764 0.35054 0.4764 0.0
O203 O 0.90632 0.39656 0.35937 0.0
O204 O 0.91192 0.36735 0.31723 0.0
O205 O 0.85393 0.39129 0.44631 0.0
O206 O 0.87467 0.4159 0.34545 0.0
O207 O 0.87172 0.34998 0.17014 0.0
O208 O 0.87222 0.38341 0.1882 0.0
O209 O 0.84309 0.32466 0.3096 0.0
O210 O 0.83685 0.35453 0.30844 0.0
O211 O 0.8949 0.32591 0.19968 0.0
O212 O 0.87257 0.3031 0.30091 0.0
C213 C 0.91904 0.38788 0.34308 0.0
O214 O 0.87481 0.35906 0.40359 0.0
O215 O 0.8812 0.33495 0.45274 0.0
C216 C 0.84363 0.41711 0.39855 0.0
C217 C 0.81252 0.43075 0.366 0.0
C218 C 0.82738 0.43945 0.43979 0.0
C219 C 0.84279 0.4327 0.45575 0.0
C220 C 0.82873 0.40816 0.32557 0.0
C221 C 0.81336 0.41492 0.30936 0.0
C222 C 0.86061 0.41092 0.41294 0.0
C223 C 0.87129 0.3674 0.1377 0.0
C224 C 0.82999 0.33324 0.308 0.0
C225 C 0.9003 0.29621 0.2418 0.0
C226 C 0.92598 0.27545 0.2364 0.0
C227 C 0.93599 0.29842 0.23333 0.0
C228 C 0.92328 0.30872 0.23615 0.0
C229 C 0.89036 0.27336 0.24644 0.0
C230 C 0.90301 0.26309 0.2439 0.0
C231 C 0.88619 0.30622 0.23396 0.0
H232 H 0.82703 0.45138 0.48573 0.0
H233 H 0.85416 0.43979 0.51246 0.0
H234 H 0.8292 0.39616 0.28033 0.0
H235 H 0.80243 0.40804 0.25121 0.0
H236 H 0.95364 0.30844 0.22854 0.0
H237 H 0.93142 0.32641 0.23219 0.0
H238 H 0.87267 0.26335 0.24956 0.0
H239 H 0.89469 0.24537 0.24498 0.0
Dy240 Dy 0.35605 0.84476 0.61912 0.0
Dy241 Dy 0.40025 0.89571 0.59544 0.0
C242 C 0.37576 0.87791 0.7844 0.0
O243 O 0.34319 0.86837 0.62932 0.0
O244 O 0.37129 0.89961 0.56189 0.0
O245 O 0.32769 0.8199 0.69258 0.0
O246 O 0.33576 0.81317 0.5568 0.0
O247 O 0.39389 0.87482 0.47323 0.0
O248 O 0.35688 0.85702 0.47926 0.0
O249 O 0.41231 0.87497 0.66041 0.0
O250 O 0.3859 0.84083 0.61065 0.0
O251 O 0.42458 0.91898 0.50265 0.0
O252 O 0.42608 0.92691 0.64677 0.0
C253 C 0.3512 0.88832 0.59509 0.0
O254 O 0.3691 0.85772 0.75767 0.0
O255 O 0.3848 0.89468 0.72855 0.0
C256 C 0.31409 0.78203 0.65271 0.0
C257 C 0.29002 0.73612 0.68315 0.0
C258 C 0.28922 0.75081 0.74671 0.0
C259 C 0.30101 0.77344 0.73148 0.0
C260 C 0.31586 0.76744 0.59164 0.0
C261 C 0.30405 0.74478 0.60689 0.0
C262 C 0.32267 0.80538 0.62746 0.0
C263 C 0.37497 0.86673 0.4322 0.0
C264 C 0.40553 0.85416 0.64436 0.0
C265 C 0.44017 0.95637 0.53984 0.0
C266 C 0.45223 0.99882 0.4749 0.0
C267 C 0.42998 0.98283 0.4861 0.0
C268 C 0.42401 0.96179 0.51803 0.0
C269 C 0.46231 0.97234 0.53106 0.0
C270 C 0.4683 0.99333 0.49901 0.0
C271 C 0.43444 0.93387 0.56548 0.0
H272 H 0.2789 0.74478 0.80709 0.0
H273 H 0.29909 0.78414 0.77947 0.0
H274 H 0.32556 0.77341 0.52959 0.0
H275 H 0.30498 0.73401 0.55615 0.0
H276 H 0.41713 0.98651 0.46966 0.0
H277 H 0.40681 0.94966 0.52416 0.0
H278 H 0.47502 0.96841 0.54686 0.0
H279 H 0.48554 1.00501 0.49026 0.0
Dy280 Dy 0.22495 0.54029 0.75985 0.0
Dy281 Dy 0.17115 0.52497 0.7361 0.0
C282 C 0.19534 0.53554 0.92632 0.0
O283 O 0.20479 0.50613 0.81462 0.0
O284 O 0.17211 0.49359 0.73644 0.0
O285 O 0.25697 0.565 0.80701 0.0
O286 O 0.25166 0.53329 0.76353 0.0
O287 O 0.18193 0.52065 0.5982 0.0
O288 O 0.21729 0.52679 0.61984 0.0
O289 O 0.19195 0.56153 0.75091 0.0
O290 O 0.22344 0.56676 0.68206 0.0
O291 O 0.14738 0.5314 0.66928 0.0
O292 O 0.13717 0.5073 0.77802 0.0
C293 C 0.18605 0.49 0.78347 0.0
O294 O 0.21256 0.5497 0.88096 0.0
O295 O 0.17703 0.52254 0.88398 0.0
C296 C 0.28825 0.56336 0.75126 0.0
C297 C 0.33283 0.58326 0.69679 0.0
C298 C 0.32263 0.59595 0.70996 0.0
C299 C 0.30059 0.58612 0.73696 0.0
C300 C 0.29834 0.55069 0.7365 0.0
C301 C 0.32029 0.56047 0.7094 0.0
C302 C 0.26591 0.55289 0.79161 0.0
C303 C 0.1997 0.52065 0.56963 0.0
C304 C 0.21065 0.57436 0.7089 0.0
C305 C 0.1105 0.50243 0.66579 0.0
C306 C 0.07046 0.47588 0.57255 0.0
C307 C 0.07594 0.49691 0.60378 0.0
C308 C 0.09572 0.51001 0.64983 0.0
C309 C 0.10525 0.48151 0.63461 0.0
C310 C 0.08542 0.46835 0.58858 0.0
C311 C 0.13095 0.51656 0.71656 0.0
H312 H 0.33171 0.61351 0.69999 0.0
H313 H 0.29341 0.59643 0.74854 0.0
H314 H 0.28942 0.53319 0.74866 0.0
H315 H 0.32763 0.5502 0.7015 0.0
H316 H 0.06508 0.50343 0.59158 0.0
H317 H 0.09948 0.52613 0.67319 0.0
H318 H 0.11639 0.4753 0.64629 0.0
H319 H 0.08169 0.45216 0.56664 0.0
Dy320 Dy 0.53538 0.714 0.70027 0.0
Dy321 Dy 0.54333 0.67132 0.65679 0.0
C322 C 0.53287 0.68152 0.85126 0.0
O323 O 0.57128 0.7278 0.67355 0.0
O324 O 0.57524 0.69818 0.71141 0.0
O325 O 0.52514 0.73085 0.79525 0.0
O326 O 0.53921 0.74544 0.66302 0.0
O327 O 0.55215 0.69364 0.53733 0.0
O328 O 0.52619 0.70363 0.55633 0.0
O329 O 0.50751 0.65872 0.6309 0.0
O330 O 0.50157 0.68483 0.70192 0.0
O331 O 0.54176 0.64716 0.56009 0.0
O332 O 0.55382 0.64857 0.69862 0.0
C333 C 0.58358 0.7193 0.69721 0.0
O334 O 0.54341 0.70214 0.82723 0.0
O335 O 0.52698 0.66574 0.79165 0.0
C336 C 0.51497 0.75592 0.73386 0.0
C337 C 0.49082 0.77826 0.72683 0.0
C338 C 0.49977 0.77618 0.81004 0.0
C339 C 0.51169 0.76517 0.81341 0.0
C340 C 0.50523 0.75704 0.65112 0.0
C341 C 0.49316 0.76805 0.64778 0.0
C342 C 0.53017 0.74709 0.73888 0.0
C343 C 0.53788 0.69847 0.50281 0.0
C344 C 0.49431 0.66555 0.66252 0.0
C345 C 0.56733 0.63481 0.58189 0.0
C346 C 0.59898 0.62407 0.51937 0.0
C347 C 0.60545 0.64464 0.55956 0.0
C348 C 0.58977 0.64996 0.59055 0.0
C349 C 0.56083 0.61447 0.54087 0.0
C350 C 0.57645 0.60914 0.5099 0.0
C351 C 0.55036 0.63936 0.61782 0.0
H352 H 0.49798 0.78354 0.87246 0.0
H353 H 0.519 0.76451 0.87799 0.0
H354 H 0.50749 0.75002 0.58865 0.0
H355 H 0.48652 0.76943 0.58262 0.0
H356 H 0.62264 0.65648 0.56873 0.0
H357 H 0.59515 0.66577 0.62218 0.0
H358 H 0.54359 0.60257 0.53338 0.0
H359 H 0.57082 0.59334 0.47789 0.0
H360 H 0.11 0.36006 0.86293 0.0
H361 H 0.16966 0.35978 0.93715 0.0
H362 H 0.19111 0.3994 0.90779 0.0
H363 H 0.13397 0.3999 0.67878 0.0
H364 H 0.11823 0.41314 0.70399 0.0
H365 H 0.10723 0.38456 0.73046 0.0
H366 H 0.10176 0.39205 0.8999 0.0
H367 H 0.11272 0.42063 0.87385 0.0
H368 H 0.12476 0.41253 0.96408 0.0
H369 H 0.20619 0.43894 0.87559 0.0
H370 H 0.21436 0.47627 0.83715 0.0
H371 H 0.14549 0.45198 0.77889 0.0
C372 C 0.12757 0.36837 0.87304 0.0
C373 C 0.13814 0.35668 0.90166 0.0
C374 C 0.1612 0.36821 0.91377 0.0
C375 C 0.17354 0.39078 0.89779 0.0
C376 C 0.16269 0.40176 0.86929 0.0
C377 C 0.14026 0.39102 0.85651 0.0
C378 C 0.13288 0.40694 0.82483 0.0
C379 C 0.12246 0.40076 0.7288 0.0
C380 C 0.1171 0.4081 0.89486 0.0
C381 C 0.15465 0.42825 0.82241 0.0
C382 C 0.17156 0.42479 0.84882 0.0
C383 C 0.19311 0.44185 0.8544 0.0
C384 C 0.19757 0.46306 0.83257 0.0
C385 C 0.18062 0.46716 0.80468 0.0
C386 C 0.15886 0.4494 0.79917 0.0
H387 H 0.70447 0.75982 0.89331 0.0
H388 H 0.72531 0.82026 0.74327 0.0
H389 H 0.68802 0.80545 0.68093 0.0
H390 H 0.66708 0.72337 0.71636 0.0
H391 H 0.64717 0.70511 0.79829 0.0
H392 H 0.67578 0.72006 0.82876 0.0
H393 H 0.66648 0.73616 0.97073 0.0
H394 H 0.63787 0.72131 0.9406 0.0
H395 H 0.65151 0.75058 0.95533 0.0
H396 H 0.64803 0.78532 0.64306 0.0
H397 H 0.60834 0.76021 0.62459 0.0
H398 H 0.61309 0.71203 0.79423 0.0
C399 C 0.7012 0.76987 0.84691 0.0
C400 C 0.71794 0.79119 0.82274 0.0
C401 C 0.71294 0.80377 0.76162 0.0
C402 C 0.69174 0.79555 0.72625 0.0
C403 C 0.67562 0.7746 0.75188 0.0
C404 C 0.68009 0.7618 0.81005 0.0
C405 C 0.65964 0.73986 0.827 0.0
C406 C 0.6626 0.72098 0.79041 0.0
C407 C 0.65352 0.73681 0.9295 0.0
C408 C 0.64296 0.7425 0.77047 0.0
C409 C 0.65255 0.76271 0.72801 0.0
C410 C 0.64038 0.76936 0.67521 0.0
C411 C 0.6178 0.75499 0.6654 0.0
C412 C 0.60757 0.73409 0.70745 0.0
C413 C 0.62044 0.72778 0.76025 0.0
H414 H 0.26055 0.91275 0.80783 0.0
H415 H 0.28849 0.97181 0.64231 0.0
H416 H 0.31468 0.96196 0.57491 0.0
H417 H 0.31078 0.9135 0.85524 0.0
H418 H 0.29897 0.88422 0.84826 0.0
H419 H 0.28225 0.89579 0.8825 0.0
H420 H 0.25484 0.87451 0.75174 0.0
H421 H 0.27154 0.86293 0.71689 0.0
H422 H 0.2646 0.87773 0.63509 0.0
H423 H 0.33845 0.94605 0.52769 0.0
H424 H 0.35837 0.92571 0.50671 0.0
H425 H 0.31429 0.87643 0.69964 0.0
C426 C 0.27199 0.92352 0.75665 0.0
C427 C 0.2724 0.94311 0.73061 0.0
C428 C 0.28798 0.95688 0.66452 0.0
C429 C 0.30284 0.95133 0.62522 0.0
C430 C 0.30193 0.93191 0.65234 0.0
C431 C 0.28692 0.91822 0.71661 0.0
C432 C 0.28967 0.8985 0.73522 0.0
C433 C 0.29579 0.89799 0.83629 0.0
C434 C 0.26893 0.87716 0.7081 0.0
C435 C 0.30863 0.90327 0.67161 0.0
C436 C 0.31544 0.92262 0.62434 0.0
C437 C 0.33315 0.93081 0.56391 0.0
C438 C 0.34437 0.9191 0.55241 0.0
C439 C 0.33784 0.89933 0.60084 0.0
C440 C 0.31952 0.89127 0.66037 0.0
H441 H 0.36597 0.14179 0.17316 0.0
H442 H 0.39239 0.09823 0.13095 0.0
H443 H 0.35623 0.06942 0.07706 0.0
H444 H 0.31252 0.10102 0.25087 0.0
H445 H 0.29841 0.11296 0.1922 0.0
H446 H 0.32629 0.13008 0.22962 0.0
H447 H 0.33767 0.14443 0.06342 0.0
H448 H 0.30983 0.1273 0.02546 0.0
H449 H 0.33176 0.1252 0.97111 0.0
H450 H 0.31729 0.04525 0.02771 0.0
H451 H 0.27818 0.02731 -0.01349 0.0
H452 H 0.27707 0.08687 0.05431 0.0
C453 C 0.36426 0.12627 0.15202 0.0
C454 C 0.38216 0.12235 0.15702 0.0
C455 C 0.37896 0.10161 0.12968 0.0
C456 C 0.35848 0.08515 0.09814 0.0
C457 C 0.3413 0.08964 0.09372 0.0
C458 C 0.34394 0.10967 0.11981 0.0
C459 C 0.32279 0.11026 0.10787 0.0
C460 C 0.31452 0.11379 0.20067 0.0
C461 C 0.32569 0.12784 0.03778 0.0
C462 C 0.30784 0.08741 0.07092 0.0
C463 C 0.31887 0.0758 0.0636 0.0
C464 C 0.3085 0.05421 0.03294 0.0
C465 C 0.28623 0.04415 0.00979 0.0
C466 C 0.27449 0.05567 0.01684 0.0
C467 C 0.28559 0.07768 0.04723 0.0
H468 H 0.96135 0.28553 0.12341 0.0
H469 H 0.92036 0.23973 0.33373 0.0
H470 H 0.9401 0.21921 0.31517 0.0
H471 H 0.96436 0.24682 -0.02249 0.0
H472 H 0.99261 0.26426 0.9454 0.0
H473 H 0.97603 0.27614 -0.02245 0.0
H474 H 1.00422 0.29929 0.10296 0.0
H475 H 1.02098 0.28758 0.07077 0.0
H476 H 1.01202 0.28584 0.18806 0.0
H477 H 0.96271 0.20251 0.26896 0.0
H478 H 0.9879 0.19139 0.20268 0.0
H479 H 1.01538 0.2484 0.02451 0.0
C480 C 0.95679 0.27142 0.16676 0.0
C481 C 0.93918 0.26421 0.22981 0.0
C482 C 0.93353 0.24542 0.28406 0.0
C483 C 0.94474 0.23371 0.27439 0.0
C484 C 0.9617 0.24102 0.21058 0.0
C485 C 0.96787 0.25953 0.15815 0.0
C486 C 0.98641 0.26351 0.09318 0.0
C487 C 0.97943 0.26262 -0.00755 0.0
C488 C 1.00714 0.28535 0.11508 0.0
C489 C 0.98949 0.24419 0.11663 0.0
C490 C 0.97503 0.23147 0.18457 0.0
C491 C 0.97421 0.21242 0.21619 0.0
C492 C 0.98857 0.2062 0.17767 0.0
C493 C 1.00368 0.219 0.10825 0.0
C494 C 1.00413 0.23831 0.07773 0.0
H495 H 0.81454 0.77549 0.09289 0.0
H496 H 0.88273 0.8026 0.17147 0.0
H497 H 0.87485 0.76659 0.22926 0.0
H498 H 0.79062 0.73684 0.28333 0.0
H499 H 0.76988 0.71541 0.21354 0.0
H500 H 0.78022 0.74368 0.18302 0.0
H501 H 0.79059 0.73635 0.02133 0.0
H502 H 0.78017 0.70805 0.05116 0.0
H503 H 0.80797 0.72435 0.01105 0.0
H504 H 0.86025 0.72827 0.27849 0.0
H505 H 0.84035 0.68851 0.30388 0.0
H506 H 0.78176 0.68444 0.1851 0.0
C507 C 0.82771 0.7738 0.12288 0.0
C508 C 0.84926 0.79189 0.12774 0.0
C509 C 0.86614 0.78899 0.16636 0.0
C510 C 0.86181 0.76862 0.20005 0.0
C511 C 0.84053 0.75112 0.19397 0.0
C512 C 0.82375 0.75332 0.15553 0.0
C513 C 0.80268 0.73135 0.15267 0.0
C514 C 0.78479 0.73186 0.21166 0.0
C515 C 0.7949 0.72463 0.05313 0.0
C516 C 0.81036 0.71656 0.19494 0.0
C517 C 0.83219 0.72848 0.2193 0.0
C518 C 0.84318 0.7187 0.25909 0.0
C519 C 0.83174 0.69603 0.27265 0.0
C520 C 0.80953 0.68316 0.24533 0.0
C521 C 0.79865 0.69374 0.20733 0.0
H522 H 0.02958 0.47122 0.60686 0.0
H523 H 0.06354 0.44908 0.42423 0.0
H524 H 0.02891 0.42576 0.34236 0.0
H525 H 0.97982 0.4203 0.62389 0.0
H526 H 0.96227 0.4322 0.6241 0.0
H527 H 0.98983 0.44762 0.66751 0.0
H528 H 0.99776 0.47904 0.55409 0.0
H529 H 0.97022 0.46368 0.51015 0.0
H530 H 0.99322 0.47323 0.43293 0.0
H531 H 0.99062 0.40381 0.28376 0.0
H532 H 0.95096 0.38436 0.25242 0.0
H533 H 0.9414 0.42144 0.46808 0.0
C534 C 0.02984 0.4617 0.54892 0.0
C535 C 0.04943 0.462 0.5225 0.0
C536 C 0.04881 0.44893 0.44709 0.0
C537 C 0.02922 0.43575 0.3995 0.0
C538 C 1.01029 0.43583 0.42748 0.0
C539 C 1.0104 0.44847 0.50028 0.0
C540 C 0.98759 0.44512 0.51739 0.0
C541 C 0.9794 0.43575 0.61395 0.0
C542 C 0.98718 0.46655 0.50275 0.0
C543 C 0.97462 0.42846 0.44334 0.0
C544 C 0.98812 0.4234 0.39232 0.0
C545 C 0.97993 0.40778 0.32272 0.0
C546 C 0.95734 0.39679 0.30554 0.0
C547 C 0.94306 0.40148 0.35723 0.0
C548 C 0.95193 0.4178 0.42623 0.0
H549 H 0.59752 0.58431 0.53488 0.0
H550 H 0.63797 0.6503 0.43069 0.0
H551 H 0.66507 0.6403 0.37539 0.0
H552 H 0.64179 0.57596 0.60955 0.0
H553 H 0.62821 0.54759 0.57561 0.0
H554 H 0.61228 0.5601 0.60919 0.0
H555 H 0.59157 0.54867 0.45391 0.0
H556 H 0.60744 0.53613 0.41986 0.0
H557 H 0.60693 0.55674 0.34811 0.0
H558 H 0.68752 0.62286 0.32876 0.0
H559 H 0.70369 0.59952 0.29531 0.0
H560 H 0.64823 0.54463 0.4274 0.0
C561 C 0.612 0.59666 0.49994 0.0
C562 C 0.61556 0.61815 0.48729 0.0
C563 C 0.63495 0.63384 0.44243 0.0
C564 C 0.6504 0.62827 0.41024 0.0
C565 C 0.64629 0.60694 0.42343 0.0
C566 C 0.62758 0.59139 0.46736 0.0
C567 C 0.62701 0.56957 0.47229 0.0
C568 C 0.62735 0.56292 0.57263 0.0
C569 C 0.60705 0.55173 0.42044 0.0
C570 C 0.64822 0.57522 0.42349 0.0
C571 C 0.65914 0.59687 0.39614 0.0
C572 C 0.6791 0.60589 0.3499 0.0
C573 C 0.68816 0.59244 0.33116 0.0
C574 C 0.67725 0.57014 0.35833 0.0
C575 C 0.65699 0.56153 0.40519 0.0
H576 H 0.52567 0.12904 0.4093 0.0
H577 H 0.48021 0.1236 0.19553 0.0
H578 H 0.45953 0.08355 0.21712 0.0
H579 H 0.52566 0.07811 0.35803 0.0
H580 H 0.52664 0.07185 0.47737 0.0
H581 H 0.53873 0.09993 0.44076 0.0
H582 H 0.51496 0.10632 0.55921 0.0
H583 H 0.50267 0.07823 0.59572 0.0
H584 H 0.48559 0.08904 0.55678 0.0
H585 H 0.44294 0.04417 0.26553 0.0
H586 H 0.43202 1.00827 0.3351 0.0
H587 H 0.48733 0.03924 0.52201 0.0
C588 C 0.51163 0.11938 0.36569 0.0
C589 C 0.50472 0.1295 0.29996 0.0
C590 C 0.48592 0.11627 0.24598 0.0
C591 C 0.47404 0.09348 0.25779 0.0
C592 C 0.48104 0.08408 0.32427 0.0
C593 C 0.49943 0.09658 0.37722 0.0
C594 C 0.50287 0.08247 0.44661 0.0
C595 C 0.52478 0.08313 0.42964 0.0
C596 C 0.50143 0.08944 0.54542 0.0
C597 C 0.48356 0.0601 0.42433 0.0
C598 C 0.4712 0.06141 0.35347 0.0
C599 C 0.45248 0.04297 0.32118 0.0
C600 C 0.44628 0.02263 0.36186 0.0
C601 C 0.45868 0.02077 0.4346 0.0
C602 C 0.47757 0.03992 0.46602 0.0
H603 H 0.12437 0.10258 -0.01275 0.0
H604 H 0.1891 0.15963 0.95999 0.0
H605 H 0.17253 0.18318 0.9464 0.0
H606 H 0.09674 0.12146 0.8248 0.0
H607 H 0.07197 0.11023 0.89207 0.0
H608 H 0.08872 0.09744 0.89414 0.0
H609 H 0.09133 0.10107 0.07134 0.0
H610 H 0.07467 0.11392 0.06974 0.0
H611 H 0.1013 0.12762 0.12321 0.0
H612 H 0.14962 0.20104 0.9483 0.0
H613 H 0.1214 0.21202 0.95936 0.0
H614 H 0.07092 0.14374 -0.02097 0.0
C615 C 0.13501 0.11996 0.97671 0.0
C616 C 0.15811 0.12924 0.97554 0.0
C617 C 0.17143 0.15214 0.96276 0.0
C618 C 0.16216 0.16567 0.9543 0.0
C619 C 0.13946 0.15613 0.9578 0.0
C620 C 0.12599 0.1338 0.96786 0.0
C621 C 0.10208 0.12797 0.97258 0.0
C622 C 0.08911 0.11341 0.89102 0.0
C623 C 0.09174 0.117 0.0647 0.0
C624 C 0.10433 0.15054 0.96534 0.0
C625 C 0.12607 0.1665 0.9567 0.0
C626 C 0.13251 0.18868 0.95385 0.0
C627 C 0.11635 0.19477 0.96052 0.0
C628 C 0.09394 0.17877 0.96934 0.0
C629 C 0.08788 0.15633 0.97072 0.0
H630 H 0.92541 0.93636 0.05684 0.0
H631 H 0.85833 0.92072 0.00467 0.0
H632 H 0.87063 0.96012 -0.0074 0.0
H633 H 0.94089 0.98396 0.19456 0.0
H634 H 0.96827 0.99901 0.14865 0.0
H635 H 0.95431 0.96956 0.15192 0.0
H636 H 0.96028 0.96849 -0.02307 0.0
H637 H 0.97427 0.99796 0.97294 0.0
H638 H 0.95096 0.98218 0.89968 0.0
H639 H 0.88989 1.00113 -0.00892 0.0
H640 H 0.91495 0.04104 -0.00463 0.0
H641 H 0.96984 0.03045 0.04509 0.0
C642 C 0.91326 0.94117 0.04279 0.0
C643 C 0.89082 0.92532 0.03195 0.0
C644 C 0.87557 0.93244 0.01313 0.0
C645 C 0.88241 0.95482 0.00624 0.0
C646 C 0.90459 0.96995 0.01764 0.0
C647 C 0.91982 0.96345 0.035 0.0
C648 C 0.94269 0.98308 0.04432 0.0
C649 C 0.95208 0.98395 0.1406 0.0
C650 C 0.95795 0.98291 0.96896 0.0
C651 C 0.93791 1.00166 0.03025 0.0
C652 C 0.9158 0.99367 0.01521 0.0
C653 C 0.90723 1.00757 0.00257 0.0
C654 C 0.92159 0.03022 0.00563 0.0
C655 C 0.94434 0.03888 0.02094 0.0
C656 C 0.95257 0.02433 0.03262 0.0
H657 H 0.03577 0.9472 0.09638 0.0
H658 H 1.01922 0.90658 0.8523 0.0
H659 H 0.05797 0.92625 0.80452 0.0
H660 H 0.07877 0.99817 -0.01254 0.0
H661 H 0.09592 1.00634 0.08823 0.0
H662 H 0.06656 0.99033 0.09989 0.0
H663 H 0.07073 0.9612 0.19255 0.0
H664 H 0.10005 0.97703 0.18075 0.0
H665 H 0.0856 0.94894 0.14297 0.0
H666 H 0.09855 0.94778 0.7895 0.0
H667 H 0.13859 0.97084 0.80557 0.0
H668 H 0.12943 0.99855 0.05702 0.0
C669 C 0.04025 0.9428 0.03189 0.0
C670 C 1.02445 0.92529 -0.02181 0.0
C671 C 0.03105 0.91976 0.89507 0.0
C672 C 0.05301 0.93092 0.86705 0.0
C673 C 0.06823 0.94772 0.92246 0.0
C674 C 0.06219 0.95381 0.00277 0.0
C675 C 0.08208 0.97179 0.05168 0.0
C676 C 0.08075 0.99291 0.05711 0.0
C677 C 0.08476 0.96428 0.14765 0.0
C678 C 0.10024 0.97447 -0.01271 0.0
C679 C 0.09182 0.96046 0.91303 0.0
C680 C 0.10533 0.959 0.84673 0.0
C681 C 0.12807 0.9721 0.85673 0.0
C682 C 0.13714 0.98655 0.9323 0.0
C683 C 0.12297 0.9879 -0.00221 0.0
H684 H 0.76847 0.51618 0.33726 0.0
H685 H 0.70614 0.46226 0.24548 0.0
H686 H 0.72145 0.43747 0.25334 0.0
H687 H 0.80301 0.49983 0.21349 0.0
H688 H 0.82299 0.50827 0.30435 0.0
H689 H 0.80732 0.52195 0.28892 0.0
H690 H 0.79425 0.51352 0.45798 0.0
H691 H 0.80976 0.49969 0.47376 0.0
H692 H 0.78079 0.4856 0.49791 0.0
H693 H 0.74309 0.41811 0.27642 0.0
H694 H 0.76976 0.40588 0.30902 0.0
H695 H 0.81833 0.47246 0.38234 0.0
C696 C 0.75805 0.4992 0.31804 0.0
C697 C 0.73606 0.49126 0.29045 0.0
C698 C 0.72304 0.46886 0.26645 0.0
C699 C 0.73158 0.45459 0.27084 0.0
C700 C 0.75321 0.46291 0.29914 0.0
C701 C 0.76632 0.48471 0.32188 0.0
C702 C 0.78896 0.48941 0.35117 0.0
C703 C 0.80661 0.50584 0.28555 0.0
C704 C 0.79371 0.49753 0.45114 0.0
C705 C 0.78648 0.46681 0.34194 0.0
C706 C 0.76573 0.45177 0.31182 0.0
C707 C 0.75945 0.42979 0.29927 0.0
C708 C 0.7748 0.42302 0.31752 0.0
C709 C 0.79628 0.43816 0.34787 0.0
C710 C 0.80204 0.46036 0.36019 0.0
H711 H 0.62537 0.37222 0.29385 0.0
H712 H 0.57904 0.37768 0.47406 0.0
H713 H 0.55837 0.33761 0.49061 0.0
H714 H 0.58713 0.32458 0.17645 0.0
H715 H 0.60431 0.3123 0.1698 0.0
H716 H 0.61654 0.34161 0.17585 0.0
H717 H 0.63875 0.34245 0.31913 0.0
H718 H 0.62666 0.31312 0.31324 0.0
H719 H 0.62458 0.32585 0.41738 0.0
H720 H 0.54117 0.29729 0.47984 0.0
H721 H 0.52906 0.25864 0.44742 0.0
H722 H 0.58677 0.27826 0.27808 0.0
C723 C 0.61112 0.36501 0.33816 0.0
C724 C 0.60375 0.37818 0.38199 0.0
C725 C 0.58483 0.368 0.43844 0.0
C726 C 0.57303 0.34523 0.44885 0.0
C727 C 0.58042 0.33273 0.40324 0.0
C728 C 0.59912 0.34217 0.34971 0.0
C729 C 0.603 0.32472 0.3063 0.0
C730 C 0.60272 0.32588 0.20085 0.0
C731 C 0.62453 0.32665 0.34111 0.0
C732 C 0.58327 0.30406 0.3422 0.0
C733 C 0.57058 0.30916 0.39828 0.0
C734 C 0.55108 0.29306 0.43683 0.0
C735 C 0.5443 0.27111 0.41759 0.0
C736 C 0.55695 0.26531 0.36033 0.0
C737 C 0.57683 0.2821 0.32282 0.0
H738 H 0.70059 0.29225 0.33596 0.0
H739 H 0.69078 0.22641 0.35564 0.0
H740 H 0.73053 0.24108 0.34322 0.0
H741 H 0.7451 0.31263 0.17119 0.0
H742 H 0.76022 0.33941 0.22246 0.0
H743 H 0.73081 0.32401 0.23276 0.0
H744 H 0.73413 0.32745 0.40987 0.0
H745 H 0.76354 0.34294 0.39993 0.0
H746 H 0.7508 0.31854 0.46943 0.0
H747 H 0.77072 0.26208 0.32611 0.0
H748 H 0.80991 0.28858 0.31387 0.0
H749 H 0.79529 0.34183 0.30744 0.0
C750 C 0.70686 0.28097 0.33761 0.0
C751 C 0.69249 0.25814 0.34775 0.0
C752 C 0.70138 0.24395 0.34981 0.0
C753 C 0.72397 0.25211 0.342 0.0
C754 C 0.73763 0.27458 0.33227 0.0
C755 C 0.72955 0.28891 0.33062 0.0
C756 C 0.74816 0.31241 0.32101 0.0
C757 C 0.74593 0.32272 0.23151 0.0
C758 C 0.74922 0.32614 0.40508 0.0
C759 C 0.76785 0.30893 0.31749 0.0
C760 C 0.76124 0.28692 0.32351 0.0
C761 C 0.77614 0.27938 0.32157 0.0
C762 C 0.79848 0.29468 0.31441 0.0
C763 C 0.80595 0.31747 0.30974 0.0
C764 C 0.79026 0.3246 0.31073 0.0
H765 H 0.45215 0.77014 0.6418 0.0
H766 H 0.50695 0.81888 0.80078 0.0
H767 H 0.49087 0.84299 0.79716 0.0
H768 H 0.44574 0.80834 0.49601 0.0
H769 H 0.41623 0.79266 0.49474 0.0
H770 H 0.43197 0.77901 0.5089 0.0
H771 H 0.41111 0.76141 0.65977 0.0
H772 H 0.39534 0.77505 0.64616 0.0
H773 H 0.41067 0.7787 0.75022 0.0
H774 H 0.46957 0.86206 0.77616 0.0
H775 H 0.44379 0.87507 0.74075 0.0
H776 H 0.40182 0.81424 0.59663 0.0
C777 C 0.46076 0.78593 0.67541 0.0
C778 C 0.48076 0.79254 0.72225 0.0
C779 C 0.49147 0.81329 0.76581 0.0
C780 C 0.48253 0.82717 0.76373 0.0
C781 C 0.46277 0.82013 0.71795 0.0
C782 C 0.45193 0.80002 0.67465 0.0
C783 C 0.43076 0.79652 0.63127 0.0
C784 C 0.43121 0.79399 0.5265 0.0
C785 C 0.41079 0.77674 0.67446 0.0
C786 C 0.43152 0.81784 0.6568 0.0
C787 C 0.4502 0.83118 0.70657 0.0
C788 C 0.45485 0.85177 0.73733 0.0
C789 C 0.44006 0.85903 0.71661 0.0
C790 C 0.42069 0.84574 0.66581 0.0
C791 C 0.41639 0.82479 0.6359 0.0
H792 H 0.25176 0.60777 0.65873 0.0
H793 H 0.1875 0.5952 0.74711 0.0
H794 H 0.20087 0.63486 0.74904 0.0
H795 H 0.28273 0.65522 0.79696 0.0
H796 H 0.30374 0.66971 0.71219 0.0
H797 H 0.28903 0.64023 0.71333 0.0
H798 H 0.27778 0.63965 0.54361 0.0
H799 H 0.29256 0.66914 0.5417 0.0
H800 H 0.26397 0.6544 0.51085 0.0
H801 H 0.22125 0.67575 0.74703 0.0
H802 H 0.24698 0.71534 0.73539 0.0
H803 H 0.29848 0.70214 0.64958 0.0
C804 C 0.2404 0.61333 0.67736 0.0
C805 C 0.2185 0.59824 0.70262 0.0
C806 C 0.20431 0.60631 0.72748 0.0
C807 C 0.21176 0.62886 0.72886 0.0
C808 C 0.23348 0.64326 0.70511 0.0
C809 C 0.24759 0.63587 0.67928 0.0
C810 C 0.27027 0.65495 0.6586 0.0
C811 C 0.28746 0.65503 0.72419 0.0
C812 C 0.27651 0.65451 0.55768 0.0
C813 C 0.26669 0.67419 0.6773 0.0
C814 C 0.24533 0.66701 0.70415 0.0
C815 C 0.23803 0.68158 0.72616 0.0
C816 C 0.25287 0.70409 0.72012 0.0
C817 C 0.27489 0.71201 0.69236 0.0
C818 C 0.28178 0.69671 0.67059 0.0
H819 H 0.46109 0.66945 0.74525 0.0
H820 H 0.47296 0.62852 0.5571 0.0
H821 H 0.43311 0.6041 0.54038 0.0
H822 H 0.41547 0.62566 0.8603 0.0
H823 H 0.40069 0.64034 0.87368 0.0
H824 H 0.43016 0.65512 0.86795 0.0
H825 H 0.42852 0.67799 0.73201 0.0
H826 H 0.39902 0.66321 0.73705 0.0
H827 H 0.41281 0.66419 0.63123 0.0
H828 H 0.39193 0.58376 0.54546 0.0
H829 H 0.35245 0.56821 0.57639 0.0
H830 H 0.36716 0.62172 0.7643 0.0
C831 C 0.45534 0.65544 0.7 0.0
C832 C 0.47026 0.65098 0.65232 0.0
C833 C 0.46195 0.63231 0.5946 0.0
C834 C 0.4393 0.61836 0.58433 0.0
C835 C 0.42508 0.62321 0.63238 0.0
C836 C 0.43275 0.64124 0.68935 0.0
C837 C 0.41395 0.64232 0.73557 0.0
C838 C 0.41514 0.64076 0.84059 0.0
C839 C 0.41356 0.66317 0.70724 0.0
C840 C 0.39452 0.62201 0.69605 0.0
C841 C 0.40132 0.6113 0.63626 0.0
C842 C 0.38642 0.59199 0.59228 0.0
C843 C 0.364 0.58321 0.61071 0.0
C844 C 0.35659 0.59364 0.67305 0.0
C845 C 0.37218 0.61346 0.71536 0.0
H846 H 0.06413 0.2297 0.70198 0.0
H847 H 1.00916 0.16499 0.75808 0.0
H848 H 1.01018 0.15406 0.5982 0.0
H849 H 0.0467 0.23367 0.4703 0.0
H850 H 0.07446 0.24851 0.42839 0.0
H851 H 0.06871 0.251 0.54686 0.0
H852 H 0.09697 0.23936 0.59547 0.0
H853 H 0.10218 0.23604 0.47705 0.0
H854 H 0.09356 0.21355 0.55615 0.0
H855 H 1.01895 0.14929 0.43832 0.0
H856 H 0.02884 0.15348 0.27466 0.0
H857 H 0.0773 0.22172 0.32167 0.0
C858 C 0.05206 0.21338 0.67994 0.0
C859 C 0.03666 0.19815 0.74167 0.0
C860 C 1.02101 0.17695 0.71113 0.0
C861 C 1.02165 0.17048 0.62107 0.0
C862 C 0.03781 0.18555 0.56311 0.0
C863 C 0.05227 0.20675 0.59021 0.0
C864 C 0.06739 0.22001 0.51315 0.0
C865 C 0.0641 0.23943 0.48818 0.0
C866 C 0.09145 0.22768 0.53693 0.0
C867 C 0.05912 0.20288 0.43849 0.0
C868 C 0.0424 0.18301 0.46942 0.0
C869 C 0.03193 0.16477 0.4128 0.0
C870 C 0.03784 0.16728 0.32024 0.0
C871 C 0.05373 0.188 0.28592 0.0
C872 C 0.0651 0.20573 0.34642 0.0
H873 H 0.84522 0.83427 0.74958 0.0
H874 H 0.90538 0.89565 0.79707 0.0
H875 H 0.90426 0.90696 0.63845 0.0
H876 H 0.85881 0.82512 0.53296 0.0
H877 H 0.83152 0.81325 0.48632 0.0
H878 H 0.83529 0.81158 0.60741 0.0
H879 H 0.81185 0.82999 0.64015 0.0
H880 H 0.80835 0.83205 0.51855 0.0
H881 H 0.81956 0.8562 0.58961 0.0
H882 H 0.8994 0.90999 0.47422 0.0
H883 H 0.89325 0.90251 0.30782 0.0
H884 H 0.83641 0.83952 0.36502 0.0
C885 C 0.85802 0.85018 0.72676 0.0
C886 C 0.87535 0.86408 0.78519 0.0
C887 C 0.89198 0.88467 0.75301 0.0
C888 C 0.89132 0.8914 0.66357 0.0
C889 C 0.87391 0.87739 0.60779 0.0
C890 C 0.85767 0.85711 0.6376 0.0
C891 C 0.84231 0.84408 0.56066 0.0
C892 C 0.84199 0.82224 0.54597 0.0
C893 C 0.81915 0.84037 0.57832 0.0
C894 C 0.85323 0.85974 0.48183 0.0
C895 C 0.87103 0.87915 0.51122 0.0
C896 C 0.88522 0.89517 0.45025 0.0
C897 C 0.88165 0.89085 0.35642 0.0
C898 C 0.86415 0.87073 0.32589 0.0
C899 C 0.84939 0.85528 0.38837 0.0
H900 H 0.23512 0.03253 0.65238 0.0
H901 H 0.16887 0.01848 0.71135 0.0
H902 H 0.15797 1.00563 0.5519 0.0
H903 H 0.23784 0.05429 0.43047 0.0
H904 H 0.25419 0.04344 0.38303 0.0
H905 H 0.25584 0.04966 0.50353 0.0
H906 H 0.24616 1.00977 0.54084 0.0
H907 H 0.24393 1.00333 0.42009 0.0
H908 H 0.22125 0.98727 0.49593 0.0
H909 H 0.1545 0.99494 0.38652 0.0
H910 H 0.16047 0.99381 0.21923 0.0
H911 H 0.22921 1.0166 0.26817 0.0
C912 C 0.21835 0.02678 0.63137 0.0
C913 C 0.20283 0.02649 0.69317 0.0
C914 C 0.18105 0.01905 0.66403 0.0
C915 C 0.17463 1.0114 0.57432 0.0
C916 C 0.19026 1.01149 0.51527 0.0
C917 C 0.21177 0.01943 0.542 0.0
C918 C 0.22587 0.01973 0.46322 0.0
C919 C 0.24452 0.04317 0.44391 0.0
C920 C 0.23482 1.00409 0.48113 0.0
C921 C 0.20904 1.01128 0.38729 0.0
C922 C 0.18844 1.00595 0.4192 0.0
C923 C 0.17047 0.9988 0.36072 0.0
C924 C 0.17391 0.99803 0.26639 0.0
C925 C 0.19516 1.00475 0.2329 0.0
C926 C 0.21276 1.01089 0.29365 0.0
H927 H 0.7355 0.55821 0.62244 0.0
H928 H 0.66941 0.5077 0.55501 0.0
H929 H 0.65744 0.50897 0.71274 0.0
H930 H 0.73731 0.53626 0.82735 0.0
H931 H 0.75337 0.56174 0.88774 0.0
H932 H 0.75555 0.56083 0.76519 0.0
H933 H 0.74559 0.59158 0.74885 0.0
H934 H 0.74319 0.59241 0.87195 0.0
H935 H 0.72061 0.58803 0.79934 0.0
H936 H 0.65361 0.51184 0.87718 0.0
H937 H 0.65912 0.51232 0.04427 0.0
H938 H 0.72817 0.55941 0.0084 0.0
C939 C 0.71847 0.54778 0.64119 0.0
C940 C 0.70332 0.53282 0.5784 0.0
C941 C 0.68122 0.51905 0.60375 0.0
C942 C 0.67421 0.51996 0.69227 0.0
C943 C 0.68959 0.53467 0.7538 0.0
C944 C 0.71133 0.54817 0.72993 0.0
C945 C 0.72527 0.55955 0.81268 0.0
C946 C 0.74395 0.55425 0.82388 0.0
C947 C 0.73418 0.58437 0.80789 0.0
C948 C 0.70821 0.54916 0.88712 0.0
C949 C 0.68758 0.53563 0.85131 0.0
C950 C 0.66955 0.52267 0.90645 0.0
C951 C 0.67286 0.52298 0.00095 0.0
C952 C 0.69411 0.53575 0.03792 0.0
C953 C 0.71179 0.54951 -0.01901 0.0
H954 H 0.55559 0.19197 0.60544 0.0
H955 H 0.48635 0.16979 0.56988 0.0
H956 H 0.48058 0.16311 0.73591 0.0
H957 H 0.54847 0.15454 0.81055 0.0
H958 H 0.57322 0.17589 0.86196 0.0
H959 H 0.57089 0.17321 0.73867 0.0
H960 H 0.58031 0.21369 0.72642 0.0
H961 H 0.58226 0.21644 0.84902 0.0
H962 H 0.56371 0.22253 0.78731 0.0
H963 H 0.48388 0.16819 0.90089 0.0
H964 H 0.49556 0.18115 0.05892 0.0
H965 H 0.56227 0.19862 -0.00924 0.0
C966 C 0.53913 0.18512 0.63249 0.0
C967 C 0.52147 0.18162 0.57596 0.0
C968 C 0.5001 0.17262 0.61272 0.0
C969 C 0.49663 0.1686 0.70664 0.0
C970 C 0.51461 0.17323 0.76153 0.0
C971 C 0.53538 0.18085 0.72581 0.0
C972 C 0.55239 0.18741 0.8005 0.0
C973 C 0.56179 0.17182 0.80308 0.0
C974 C 0.57071 0.21143 0.79015 0.0
C975 C 0.53823 0.18427 0.88319 0.0
C976 C 0.51641 0.17561 0.85931 0.0
C977 C 0.50073 0.17429 0.92125 0.0
C978 C 0.50756 0.18208 0.01 0.0
C979 C 0.52976 0.19099 0.03502 0.0
C980 C 0.54517 0.19161 0.97214 0.0
H981 H 0.86959 0.32629 0.63019 0.0
H982 H 0.88549 0.39072 0.53363 0.0
H983 H 0.88304 0.40177 0.69288 0.0
H984 H 0.83093 0.32115 0.80456 0.0
H985 H 0.83959 0.30732 0.88403 0.0
H986 H 0.84196 0.30452 0.7622 0.0
H987 H 0.88349 0.31815 0.78065 0.0
H988 H 0.88119 0.32079 0.90252 0.0
H989 H 0.90075 0.34399 0.83661 0.0
H990 H 0.87962 0.40566 0.86433 0.0
H991 H 0.8774 0.40274 0.03381 0.0
H992 H 0.86357 0.33544 0.01335 0.0
C993 C 0.87255 0.34271 0.64281 0.0
C994 C 0.87727 0.35759 0.57046 0.0
C995 C 0.88119 0.37897 0.58866 0.0
C996 C 0.87997 0.38539 0.67865 0.0
C997 C 0.87483 0.37014 0.74878 0.0
C998 C 0.87129 0.34929 0.73175 0.0
C999 C 0.86659 0.33613 0.81883 0.0
C1000 C 0.84339 0.3161 0.81727 0.0
C1001 C 0.88405 0.32938 0.83562 0.0
C1002 C 0.86834 0.35292 0.88782 0.0
C1003 C 0.87295 0.3724 0.8465 0.0
C1004 C 0.87591 0.39045 0.89751 0.0
C1005 C 0.87455 0.38861 -0.00641 0.0
C1006 C 0.87038 0.36889 0.03696 0.0
C1007 C 0.86684 0.35079 -0.01724 0.0
H1008 H 0.3487 0.84156 0.29549 0.0
H1009 H 0.39912 0.90754 0.36344 0.0
H1010 H 0.39825 0.91944 0.20543 0.0
H1011 H 0.37073 0.83906 0.09507 0.0
H1012 H 0.34554 0.82324 0.03239 0.0
H1013 H 0.34566 0.82119 0.15514 0.0
H1014 H 0.3153 0.83186 0.16651 0.0
H1015 H 0.31516 0.834 0.04309 0.0
H1016 H 0.31951 0.85684 0.11388 0.0
H1017 H 0.39669 0.92284 0.04041 0.0
H1018 H 0.39736 0.91689 0.87432 0.0
H1019 H 0.349 0.84825 0.91011 0.0
C1020 C 0.35911 0.85858 0.27685 0.0
C1021 C 0.37412 0.87368 0.33962 0.0
C1022 C 0.38785 0.89576 0.31461 0.0
C1023 C 0.38712 0.90273 0.22588 0.0
C1024 C 0.37255 0.88733 0.164 0.0
C1025 C 0.35885 0.86566 0.18801 0.0
C1026 C 0.34776 0.85163 0.10512 0.0
C1027 C 0.35275 0.83269 0.09645 0.0
C1028 C 0.32296 0.84309 0.10731 0.0
C1029 C 0.35875 0.86848 0.03052 0.0
C1030 C 0.37221 0.88913 0.06616 0.0
C1031 C 0.38585 0.9069 0.01121 0.0
C1032 C 0.38623 0.90332 0.91725 0.0
C1033 C 0.37338 0.88206 0.88049 0.0
C1034 C 0.359 0.86464 0.93713 0.0
H1035 H 0.16488 0.51769 0.06194 0.0
H1036 H 0.2331 0.54037 -0.00303 0.0
H1037 H 0.23858 0.52935 0.15016 0.0
H1038 H 0.17431 0.53962 0.27481 0.0
H1039 H 0.1502 0.51792 0.32872 0.0
H1040 H 0.15023 0.52248 0.20756 0.0
H1041 H 0.13968 0.48205 0.17734 0.0
H1042 H 0.14 0.47755 0.29914 0.0
H1043 H 0.15662 0.47169 0.22264 0.0
H1044 H 0.23861 0.5216 0.31168 0.0
H1045 H 0.23483 0.52306 0.47853 0.0
H1046 H 0.16681 0.50612 0.44353 0.0
C1047 C 0.18081 0.51994 0.08002 0.0
C1048 C 0.19856 0.52992 0.01891 0.0
C1049 C 0.21935 0.533 0.04401 0.0
C1050 C 0.22251 0.52637 0.12994 0.0
C1051 C 0.20474 0.51671 0.18947 0.0
C1052 C 0.18433 0.51371 0.16624 0.0
C1053 C 0.16916 0.50666 0.24803 0.0
C1054 C 0.1605 0.52263 0.26583 0.0
C1055 C 0.15025 0.48308 0.23604 0.0
C1056 C 0.18483 0.50798 0.32198 0.0
C1057 C 0.20492 0.51277 0.28591 0.0
C1058 C 0.22286 0.51741 0.34105 0.0
C1059 C 0.22057 0.51834 0.43577 0.0
C1060 C 0.2006 0.51503 0.47352 0.0
C1061 C 0.18226 0.50871 0.41634 0.0
H1062 H 0.55913 0.68838 0.37229 0.0
H1063 H 0.50351 0.69836 0.41496 0.0
H1064 H 0.49238 0.68815 0.25388 0.0
H1065 H 0.57298 0.71191 0.1562 0.0
H1066 H 0.58107 0.69307 0.11153 0.0
H1067 H 0.58289 0.6986 0.23262 0.0
H1068 H 0.55858 0.657 0.26443 0.0
H1069 H 0.55637 0.65142 0.14283 0.0
H1070 H 0.53197 0.64204 0.2114 0.0
H1071 H 0.48923 0.68038 0.08808 0.0
H1072 H 0.4968 0.6796 0.92258 0.0
H1073 H 0.55404 0.67434 -0.0115 0.0
C1074 C 0.54452 0.68828 0.34799 0.0
C1075 C 0.53216 0.6941 0.40567 0.0
C1076 C 0.51327 0.69401 0.37143 0.0
C1077 C 0.50664 0.68795 0.28061 0.0
C1078 C 0.51903 0.68195 0.22586 0.0
C1079 C 0.53769 0.68228 0.25789 0.0
C1080 C 0.54937 0.6773 0.18282 0.0
C1081 C 0.57295 0.69636 0.17003 0.0
C1082 C 0.54904 0.65565 0.20151 0.0
C1083 C 0.53492 0.67519 0.10245 0.0
C1084 C 0.51716 0.67732 0.12925 0.0
C1085 C 0.50272 0.67816 0.06621 0.0
C1086 C 0.50707 0.67768 0.97296 0.0
C1087 C 0.52564 0.67644 0.9452 0.0
C1088 C 0.53937 0.67455 0.00977 0.0
loop_
_geom_bond_atom_site_label_1
_geom_bond_atom_site_label_2
_geom_bond_distance
_geom_bond_site_symmetry_2
_ccdc_geom_bond_type
Dy0 O3 2.307 . S
Dy0 O5 2.395 1_556 S
Dy0 O6 2.379 . S
Dy0 O8 2.339 . S
Dy0 O10 2.298 1_655 S
Dy0 O14 2.275 1_656 S
Dy0 C22 2.738 1_556 S
Dy1 O4 2.298 . S
Dy1 O7 2.275 1_554 S
Dy1 O9 2.307 . S
Dy1 O11 2.395 1_554 S
Dy1 O12 2.379 . S
Dy1 O15 2.339 . S
Dy1 C31 2.738 1_554 S
C2 O14 1.254 . S
C2 O15 1.257 . S
O3 Dy0 2.307 . S
O3 C13 1.266 1_556 S
O4 Dy1 2.298 . S
O4 C13 1.236 1_455 S
O5 Dy0 2.395 1_554 S
O5 C22 1.255 . S
O6 Dy0 2.379 . S
O6 C22 1.249 1_556 S
O7 Dy1 2.275 1_556 S
O7 C23 1.254 . S
O8 Dy0 2.339 . S
O8 C23 1.257 1_655 S
O9 Dy1 2.307 . S
O9 C24 1.266 . S
O10 Dy0 2.298 1_455 S
O10 C24 1.236 1_556 S
O11 Dy1 2.395 1_556 S
O11 C31 1.255 . S
O12 Dy1 2.379 . S
O12 C31 1.249 1_554 S
C13 O3 1.266 1_554 S
C13 O4 1.236 1_655 S
O14 Dy0 2.275 1_454 S
O14 C2 1.254 . S
O15 Dy1 2.339 . S
O15 C2 1.257 . S
C16 C19 1.344 . S
C16 C20 1.328 1_554 S
C16 C22 1.516 . S
C17 C18 1.304 . S
C17 C21 1.323 1_554 S
C18 C17 1.304 . S
C18 C19 1.371 . S
C18 H32 0.930 . S
C19 C16 1.344 . S
C19 C18 1.371 . S
C19 H33 0.931 . S
C20 C16 1.328 1_556 S
C20 C21 1.433 . S
C20 H34 0.931 . S
C21 C17 1.323 1_556 S
C21 C20 1.433 . S
C21 H35 0.933 . S
C22 Dy0 2.738 1_554 S
C22 O5 1.255 . S
C22 O6 1.249 1_554 S
C22 C16 1.516 . S
C23 O7 1.254 . S
C23 O8 1.257 1_455 S
C24 O9 1.266 . S
C24 O10 1.236 1_554 S
C25 C28 1.344 . S
C25 C29 1.328 1_556 S
C25 C31 1.516 . S
C26 C27 1.304 . S
C26 C30 1.323 1_556 S
C27 C26 1.304 . S
C27 C28 1.371 . S
C27 H36 0.930 . S
C28 C25 1.344 . S
C28 C27 1.371 . S
C28 H37 0.931 . S
C29 C25 1.328 1_554 S
C29 C30 1.433 . S
C29 H38 0.931 . S
C30 C26 1.323 1_554 S
C30 C29 1.433 . S
C30 H39 0.933 . S
C31 Dy1 2.738 1_556 S
C31 O11 1.255 . S
C31 O12 1.249 1_556 S
C31 C25 1.516 . S
H32 C18 0.930 . S
H33 C19 0.931 . S
H34 C20 0.931 . S
H35 C21 0.933 . S
H36 C27 0.930 . S
H37 C28 0.931 . S
H38 C29 0.931 . S
H39 C30 0.933 . S
Dy40 O43 2.307 . S
Dy40 O45 2.395 1_556 S
Dy40 O46 2.379 . S
Dy40 O48 2.339 . S
Dy40 O50 2.298 . S
Dy40 O54 2.275 1_556 S
Dy40 C62 2.738 1_556 S
Dy41 O44 2.298 . S
Dy41 O47 2.275 1_554 S
Dy41 O49 2.307 . S
Dy41 O51 2.395 1_554 S
Dy41 O52 2.379 . S
Dy41 O55 2.339 . S
Dy41 C71 2.738 1_554 S
C42 O54 1.254 . S
C42 O55 1.257 . S
O43 Dy40 2.307 . S
O43 C53 1.266 1_556 S
O44 Dy41 2.298 . S
O44 C53 1.236 . S
O45 Dy40 2.395 1_554 S
O45 C62 1.255 . S
O46 Dy40 2.379 . S
O46 C62 1.249 1_556 S
O47 Dy41 2.275 1_556 S
O47 C63 1.254 . S
O48 Dy40 2.339 . S
O48 C63 1.257 . S
O49 Dy41 2.307 . S
O49 C64 1.266 . S
O50 Dy40 2.298 . S
O50 C64 1.236 1_556 S
O51 Dy41 2.395 1_556 S
O51 C71 1.255 . S
O52 Dy41 2.379 . S
O52 C71 1.249 1_554 S
C53 O43 1.266 1_554 S
C53 O44 1.236 . S
O54 Dy40 2.275 1_554 S
O54 C42 1.254 . S
O55 Dy41 2.339 . S
O55 C42 1.257 . S
C56 C59 1.344 . S
C56 C60 1.328 1_554 S
C56 C62 1.516 . S
C57 C58 1.304 . S
C57 C61 1.323 1_554 S
C58 C57 1.304 . S
C58 C59 1.371 . S
C58 H72 0.930 . S
C59 C56 1.344 . S
C59 C58 1.371 . S
C59 H73 0.931 . S
C60 C56 1.328 1_556 S
C60 C61 1.433 . S
C60 H74 0.931 . S
C61 C57 1.323 1_556 S
C61 C60 1.433 . S
C61 H75 0.933 . S
C62 Dy40 2.738 1_554 S
C62 O45 1.255 . S
C62 O46 1.249 1_554 S
C62 C56 1.516 . S
C63 O47 1.254 . S
C63 O48 1.257 . S
C64 O49 1.266 . S
C64 O50 1.236 1_554 S
C65 C68 1.344 . S
C65 C69 1.328 1_556 S
C65 C71 1.516 . S
C66 C67 1.304 . S
C66 C70 1.323 1_556 S
C67 C66 1.304 . S
C67 C68 1.371 . S
C67 H76 0.930 . S
C68 C65 1.344 . S
C68 C67 1.371 . S
C68 H77 0.931 . S
C69 C65 1.328 1_554 S
C69 C70 1.433 . S
C69 H78 0.931 . S
C70 C66 1.323 1_554 S
C70 C69 1.433 . S
C70 H79 0.933 . S
C71 Dy41 2.738 1_556 S
C71 O51 1.255 . S
C71 O52 1.249 1_556 S
C71 C65 1.516 . S
H72 C58 0.930 . S
H73 C59 0.931 . S
H74 C60 0.931 . S
H75 C61 0.933 . S
H76 C67 0.930 . S
H77 C68 0.931 . S
H78 C69 0.931 . S
H79 C70 0.933 . S
Dy80 O83 2.307 . S
Dy80 O85 2.395 1_556 S
Dy80 O86 2.379 . S
Dy80 O88 2.339 . S
Dy80 O90 2.298 . S
Dy80 O94 2.275 1_556 S
Dy80 C102 2.738 1_556 S
Dy81 O84 2.298 1_565 S
Dy81 O87 2.275 1_564 S
Dy81 O89 2.307 . S
Dy81 O91 2.395 1_554 S
Dy81 O92 2.379 . S
Dy81 O95 2.339 . S
Dy81 C111 2.738 1_554 S
C82 O94 1.254 . S
C82 O95 1.257 1_545 S
O83 Dy80 2.307 . S
O83 C93 1.266 1_556 S
O84 Dy81 2.298 1_545 S
O84 C93 1.236 . S
O85 Dy80 2.395 1_554 S
O85 C102 1.255 . S
O86 Dy80 2.379 . S
O86 C102 1.249 1_556 S
O87 Dy81 2.275 1_546 S
O87 C103 1.254 . S
O88 Dy80 2.339 . S
O88 C103 1.257 . S
O89 Dy81 2.307 . S
O89 C104 1.266 . S
O90 Dy80 2.298 . S
O90 C104 1.236 1_546 S
O91 Dy81 2.395 1_556 S
O91 C111 1.255 . S
O92 Dy81 2.379 . S
O92 C111 1.249 1_554 S
C93 O83 1.266 1_554 S
C93 O84 1.236 . S
O94 Dy80 2.275 1_554 S
O94 C82 1.254 . S
O95 Dy81 2.339 . S
O95 C82 1.257 1_565 S
C96 C99 1.344 . S
C96 C100 1.328 1_554 S
C96 C102 1.516 . S
C97 C98 1.304 . S
C97 C101 1.323 1_554 S
C98 C97 1.304 . S
C98 C99 1.371 . S
C98 H112 0.930 . S
C99 C96 1.344 . S
C99 C98 1.371 . S
C99 H113 0.931 . S
C100 C96 1.328 1_556 S
C100 C101 1.433 . S
C100 H114 0.931 . S
C101 C97 1.323 1_556 S
C101 C100 1.433 . S
C101 H115 0.933 . S
C102 Dy80 2.738 1_554 S
C102 O85 1.255 . S
C102 O86 1.249 1_554 S
C102 C96 1.516 . S
C103 O87 1.254 . S
C103 O88 1.257 . S
C104 O89 1.266 . S
C104 O90 1.236 1_564 S
C105 C108 1.344 . S
C105 C109 1.328 1_556 S
C105 C111 1.516 . S
C106 C107 1.304 . S
C106 C110 1.323 1_556 S
C107 C106 1.304 . S
C107 C108 1.371 . S
C107 H116 0.930 . S
C108 C105 1.344 . S
C108 C107 1.371 . S
C108 H117 0.931 . S
C109 C105 1.328 1_554 S
C109 C110 1.433 . S
C109 H118 0.931 . S
C110 C106 1.323 1_554 S
C110 C109 1.433 . S
C110 H119 0.933 . S
C111 Dy81 2.738 1_556 S
C111 O91 1.255 . S
C111 O92 1.249 1_556 S
C111 C105 1.516 . S
H112 C98 0.930 . S
H113 C99 0.931 . S
H114 C100 0.931 . S
H115 C101 0.933 . S
H116 C107 0.930 . S
H117 C108 0.931 . S
H118 C109 0.931 . S
H119 C110 0.933 . S
Dy120 O123 2.307 . S
Dy120 O125 2.395 . S
Dy120 O126 2.379 . S
Dy120 O128 2.339 . S
Dy120 O130 2.298 . S
Dy120 O134 2.275 . S
Dy120 C142 2.738 . S
Dy121 O124 2.298 . S
Dy121 O127 2.275 . S
Dy121 O129 2.307 . S
Dy121 O131 2.395 . S
Dy121 O132 2.379 . S
Dy121 O135 2.339 . S
Dy121 C151 2.738 . S
C122 O134 1.254 . S
C122 O135 1.257 . S
O123 Dy120 2.307 . S
O123 C133 1.266 . S
O124 Dy121 2.298 . S
O124 C133 1.236 . S
O125 Dy120 2.395 . S
O125 C142 1.255 . S
O126 Dy120 2.379 . S
O126 C142 1.249 . S
O127 Dy121 2.275 . S
O127 C143 1.254 . S
O128 Dy120 2.339 . S
O128 C143 1.257 . S
O129 Dy121 2.307 . S
O129 C144 1.266 . S
O130 Dy120 2.298 . S
O130 C144 1.236 . S
O131 Dy121 2.395 . S
O131 C151 1.255 . S
O132 Dy121 2.379 . S
O132 C151 1.249 . S
C133 O123 1.266 . S
C133 O124 1.236 . S
O134 Dy120 2.275 . S
O134 C122 1.254 . S
O135 Dy121 2.339 . S
O135 C122 1.257 . S
C136 C139 1.344 . S
C136 C140 1.328 . S
C136 C142 1.516 . S
C137 C138 1.304 . S
C137 C141 1.323 . S
C138 C137 1.304 . S
C138 C139 1.371 . S
C138 H152 0.930 . S
C139 C136 1.344 . S
C139 C138 1.371 . S
C139 H153 0.931 . S
C140 C136 1.328 . S
C140 C141 1.433 . S
C140 H154 0.931 . S
C141 C137 1.323 . S
C141 C140 1.433 . S
C141 H155 0.933 . S
C142 Dy120 2.738 . S
C142 O125 1.255 . S
C142 O126 1.249 . S
C142 C136 1.516 . S
C143 O127 1.254 . S
C143 O128 1.257 . S
C144 O129 1.266 . S
C144 O130 1.236 . S
C145 C148 1.344 . S
C145 C149 1.328 . S
C145 C151 1.516 . S
C146 C147 1.304 . S
C146 C150 1.323 . S
C147 C146 1.304 . S
C147 C148 1.371 . S
C147 H156 0.930 . S
C148 C145 1.344 . S
C148 C147 1.371 . S
C148 H157 0.931 . S
C149 C145 1.328 . S
C149 C150 1.433 . S
C149 H158 0.931 . S
C150 C146 1.323 . S
C150 C149 1.433 . S
C150 H159 0.933 . S
C151 Dy121 2.738 . S
C151 O131 1.255 . S
C151 O132 1.249 . S
C151 C145 1.516 . S
H152 C138 0.930 . S
H153 C139 0.931 . S
H154 C140 0.931 . S
H155 C141 0.933 . S
H156 C147 0.930 . S
H157 C148 0.931 . S
H158 C149 0.931 . S
H159 C150 0.933 . S
Dy160 O163 2.307 . S
Dy160 O165 2.395 . S
Dy160 O166 2.379 . S
Dy160 O168 2.339 . S
Dy160 O170 2.298 . S
Dy160 O174 2.275 . S
Dy160 C182 2.738 . S
Dy161 O164 2.298 . S
Dy161 O167 2.275 . S
Dy161 O169 2.307 . S
Dy161 O171 2.395 . S
Dy161 O172 2.379 . S
Dy161 O175 2.339 . S
Dy161 C191 2.738 . S
C162 O174 1.254 . S
C162 O175 1.257 . S
O163 Dy160 2.307 . S
O163 C173 1.266 . S
O164 Dy161 2.298 . S
O164 C173 1.236 . S
O165 Dy160 2.395 . S
O165 C182 1.255 . S
O166 Dy160 2.379 . S
O166 C182 1.249 . S
O167 Dy161 2.275 . S
O167 C183 1.254 . S
O168 Dy160 2.339 . S
O168 C183 1.257 . S
O169 Dy161 2.307 . S
O169 C184 1.266 . S
O170 Dy160 2.298 . S
O170 C184 1.236 . S
O171 Dy161 2.395 . S
O171 C191 1.255 . S
O172 Dy161 2.379 . S
O172 C191 1.249 . S
C173 O163 1.266 . S
C173 O164 1.236 . S
O174 Dy160 2.275 . S
O174 C162 1.254 . S
O175 Dy161 2.339 . S
O175 C162 1.257 . S
C176 C179 1.344 . S
C176 C180 1.328 . S
C176 C182 1.516 . S
C177 C178 1.304 . S
C177 C181 1.323 . S
C178 C177 1.304 . S
C178 C179 1.371 . S
C178 H192 0.930 . S
C179 C176 1.344 . S
C179 C178 1.371 . S
C179 H193 0.931 . S
C180 C176 1.328 . S
C180 C181 1.433 . S
C180 H194 0.931 . S
C181 C177 1.323 . S
C181 C180 1.433 . S
C181 H195 0.933 . S
C182 Dy160 2.738 . S
C182 O165 1.255 . S
C182 O166 1.249 . S
C182 C176 1.516 . S
C183 O167 1.254 . S
C183 O168 1.257 . S
C184 O169 1.266 . S
C184 O170 1.236 . S
C185 C188 1.344 . S
C185 C189 1.328 . S
C185 C191 1.516 . S
C186 C187 1.304 . S
C186 C190 1.323 . S
C187 C186 1.304 . S
C187 C188 1.371 . S
C187 H196 0.930 . S
C188 C185 1.344 . S
C188 C187 1.371 . S
C188 H197 0.931 . S
C189 C185 1.328 . S
C189 C190 1.433 . S
C189 H198 0.931 . S
C190 C186 1.323 . S
C190 C189 1.433 . S
C190 H199 0.933 . S
C191 Dy161 2.738 . S
C191 O171 1.255 . S
C191 O172 1.249 . S
C191 C185 1.516 . S
H192 C178 0.930 . S
H193 C179 0.931 . S
H194 C180 0.931 . S
H195 C181 0.933 . S
H196 C187 0.930 . S
H197 C188 0.931 . S
H198 C189 0.931 . S
H199 C190 0.933 . S
Dy200 O203 2.307 . S
Dy200 O205 2.395 . S
Dy200 O206 2.379 . S
Dy200 O208 2.339 . S
Dy200 O210 2.298 . S
Dy200 O214 2.275 . S
Dy200 C222 2.738 . S
Dy201 O204 2.298 . S
Dy201 O207 2.275 . S
Dy201 O209 2.307 . S
Dy201 O211 2.395 . S
Dy201 O212 2.379 . S
Dy201 O215 2.339 . S
Dy201 C231 2.738 . S
C202 O214 1.254 . S
C202 O215 1.257 . S
O203 Dy200 2.307 . S
O203 C213 1.266 . S
O204 Dy201 2.298 . S
O204 C213 1.236 . S
O205 Dy200 2.395 . S
O205 C222 1.255 . S
O206 Dy200 2.379 . S
O206 C222 1.249 . S
O207 Dy201 2.275 . S
O207 C223 1.254 . S
O208 Dy200 2.339 . S
O208 C223 1.257 . S
O209 Dy201 2.307 . S
O209 C224 1.266 . S
O210 Dy200 2.298 . S
O210 C224 1.236 . S
O211 Dy201 2.395 . S
O211 C231 1.255 . S
O212 Dy201 2.379 . S
O212 C231 1.249 . S
C213 O203 1.266 . S
C213 O204 1.236 . S
O214 Dy200 2.275 . S
O214 C202 1.254 . S
O215 Dy201 2.339 . S
O215 C202 1.257 . S
C216 C219 1.344 . S
C216 C220 1.328 . S
C216 C222 1.516 . S
C217 C218 1.304 . S
C217 C221 1.323 . S
C218 C217 1.304 . S
C218 C219 1.371 . S
C218 H232 0.930 . S
C219 C216 1.344 . S
C219 C218 1.371 . S
C219 H233 0.931 . S
C220 C216 1.328 . S
C220 C221 1.433 . S
C220 H234 0.931 . S
C221 C217 1.323 . S
C221 C220 1.433 . S
C221 H235 0.933 . S
C222 Dy200 2.738 . S
C222 O205 1.255 . S
C222 O206 1.249 . S
C222 C216 1.516 . S
C223 O207 1.254 . S
C223 O208 1.257 . S
C224 O209 1.266 . S
C224 O210 1.236 . S
C225 C228 1.344 . S
C225 C229 1.328 . S
C225 C231 1.516 . S
C226 C227 1.304 . S
C226 C230 1.323 . S
C227 C226 1.304 . S
C227 C228 1.371 . S
C227 H236 0.930 . S
C228 C225 1.344 . S
C228 C227 1.371 . S
C228 H237 0.931 . S
C229 C225 1.328 . S
C229 C230 1.433 . S
C229 H238 0.931 . S
C230 C226 1.323 . S
C230 C229 1.433 . S
C230 H239 0.933 . S
C231 Dy201 2.738 . S
C231 O211 1.255 . S
C231 O212 1.249 . S
C231 C225 1.516 . S
H232 C218 0.930 . S
H233 C219 0.931 . S
H234 C220 0.931 . S
H235 C221 0.933 . S
H236 C227 0.930 . S
H237 C228 0.931 . S
H238 C229 0.931 . S
H239 C230 0.933 . S
Dy240 O243 2.307 . S
Dy240 O245 2.395 . S
Dy240 O246 2.379 . S
Dy240 O248 2.339 . S
Dy240 O250 2.298 . S
Dy240 O254 2.275 . S
Dy240 C262 2.738 . S
Dy241 O244 2.298 . S
Dy241 O247 2.275 . S
Dy241 O249 2.307 . S
Dy241 O251 2.395 . S
Dy241 O252 2.379 . S
Dy241 O255 2.339 . S
Dy241 C271 2.738 . S
C242 O254 1.254 . S
C242 O255 1.257 . S
O243 Dy240 2.307 . S
O243 C253 1.266 . S
O244 Dy241 2.298 . S
O244 C253 1.236 . S
O245 Dy240 2.395 . S
O245 C262 1.255 . S
O246 Dy240 2.379 . S
O246 C262 1.249 . S
O247 Dy241 2.275 . S
O247 C263 1.254 . S
O248 Dy240 2.339 . S
O248 C263 1.257 . S
O249 Dy241 2.307 . S
O249 C264 1.266 . S
O250 Dy240 2.298 . S
O250 C264 1.236 . S
O251 Dy241 2.395 . S
O251 C271 1.255 . S
O252 Dy241 2.379 . S
O252 C271 1.249 . S
C253 O243 1.266 . S
C253 O244 1.236 . S
O254 Dy240 2.275 . S
O254 C242 1.254 . S
O255 Dy241 2.339 . S
O255 C242 1.257 . S
C256 C259 1.344 . S
C256 C260 1.328 . S
C256 C262 1.516 . S
C257 C258 1.304 . S
C257 C261 1.323 . S
C258 C257 1.304 . S
C258 C259 1.371 . S
C258 H272 0.930 . S
C259 C256 1.344 . S
C259 C258 1.371 . S
C259 H273 0.931 . S
C260 C256 1.328 . S
C260 C261 1.433 . S
C260 H274 0.931 . S
C261 C257 1.323 . S
C261 C260 1.433 . S
C261 H275 0.933 . S
C262 Dy240 2.738 . S
C262 O245 1.255 . S
C262 O246 1.249 . S
C262 C256 1.516 . S
C263 O247 1.254 . S
C263 O248 1.257 . S
C264 O249 1.266 . S
C264 O250 1.236 . S
C265 C268 1.344 . S
C265 C269 1.328 . S
C265 C271 1.516 . S
C266 C267 1.304 . S
C266 C270 1.323 . S
C267 C266 1.304 . S
C267 C268 1.371 . S
C267 H276 0.930 . S
C268 C265 1.344 . S
C268 C267 1.371 . S
C268 H277 0.931 . S
C269 C265 1.328 . S
C269 C270 1.433 . S
C269 H278 0.931 . S
C270 C266 1.323 . S
C270 C269 1.433 . S
C270 H279 0.933 . S
C271 Dy241 2.738 . S
C271 O251 1.255 . S
C271 O252 1.249 . S
C271 C265 1.516 . S
H272 C258 0.930 . S
H273 C259 0.931 . S
H274 C260 0.931 . S
H275 C261 0.933 . S
H276 C267 0.930 . S
H277 C268 0.931 . S
H278 C269 0.931 . S
H279 C270 0.933 . S
Dy280 O283 2.307 . S
Dy280 O285 2.395 . S
Dy280 O286 2.379 . S
Dy280 O288 2.339 . S
Dy280 O290 2.298 . S
Dy280 O294 2.275 . S
Dy280 C302 2.738 . S
Dy281 O284 2.298 . S
Dy281 O287 2.275 . S
Dy281 O289 2.307 . S
Dy281 O291 2.395 . S
Dy281 O292 2.379 . S
Dy281 O295 2.339 . S
Dy281 C311 2.738 . S
C282 O294 1.254 . S
C282 O295 1.257 . S
O283 Dy280 2.307 . S
O283 C293 1.266 . S
O284 Dy281 2.298 . S
O284 C293 1.236 . S
O285 Dy280 2.395 . S
O285 C302 1.255 . S
O286 Dy280 2.379 . S
O286 C302 1.249 . S
O287 Dy281 2.275 . S
O287 C303 1.254 . S
O288 Dy280 2.339 . S
O288 C303 1.257 . S
O289 Dy281 2.307 . S
O289 C304 1.266 . S
O290 Dy280 2.298 . S
O290 C304 1.236 . S
O291 Dy281 2.395 . S
O291 C311 1.255 . S
O292 Dy281 2.379 . S
O292 C311 1.249 . S
C293 O283 1.266 . S
C293 O284 1.236 . S
O294 Dy280 2.275 . S
O294 C282 1.254 . S
O295 Dy281 2.339 . S
O295 C282 1.257 . S
C296 C299 1.344 . S
C296 C300 1.328 . S
C296 C302 1.516 . S
C297 C298 1.304 . S
C297 C301 1.323 . S
C298 C297 1.304 . S
C298 C299 1.371 . S
C298 H312 0.930 . S
C299 C296 1.344 . S
C299 C298 1.371 . S
C299 H313 0.931 . S
C300 C296 1.328 . S
C300 C301 1.433 . S
C300 H314 0.931 . S
C301 C297 1.323 . S
C301 C300 1.433 . S
C301 H315 0.933 . S
C302 Dy280 2.738 . S
C302 O285 1.255 . S
C302 O286 1.249 . S
C302 C296 1.516 . S
C303 O287 1.254 . S
C303 O288 1.257 . S
C304 O289 1.266 . S
C304 O290 1.236 . S
C305 C308 1.344 . S
C305 C309 1.328 . S
C305 C311 1.516 . S
C306 C307 1.304 . S
C306 C310 1.323 . S
C307 C306 1.304 . S
C307 C308 1.371 . S
C307 H316 0.930 . S
C308 C305 1.344 . S
C308 C307 1.371 . S
C308 H317 0.931 . S
C309 C305 1.328 . S
C309 C310 1.433 . S
C309 H318 0.931 . S
C310 C306 1.323 . S
C310 C309 1.433 . S
C310 H319 0.933 . S
C311 Dy281 2.738 . S
C311 O291 1.255 . S
C311 O292 1.249 . S
C311 C305 1.516 . S
H312 C298 0.930 . S
H313 C299 0.931 . S
H314 C300 0.931 . S
H315 C301 0.933 . S
H316 C307 0.930 . S
H317 C308 0.931 . S
H318 C309 0.931 . S
H319 C310 0.933 . S
Dy320 O323 2.307 . S
Dy320 O325 2.395 . S
Dy320 O326 2.379 . S
Dy320 O328 2.339 . S
Dy320 O330 2.298 . S
Dy320 O334 2.275 . S
Dy320 C342 2.738 . S
Dy321 O324 2.298 . S
Dy321 O327 2.275 . S
Dy321 O329 2.307 . S
Dy321 O331 2.395 . S
Dy321 O332 2.379 . S
Dy321 O335 2.339 . S
Dy321 C351 2.738 . S
C322 O334 1.254 . S
C322 O335 1.257 . S
O323 Dy320 2.307 . S
O323 C333 1.266 . S
O324 Dy321 2.298 . S
O324 C333 1.236 . S
O325 Dy320 2.395 . S
O325 C342 1.255 . S
O326 Dy320 2.379 . S
O326 C342 1.249 . S
O327 Dy321 2.275 . S
O327 C343 1.254 . S
O328 Dy320 2.339 . S
O328 C343 1.257 . S
O329 Dy321 2.307 . S
O329 C344 1.266 . S
O330 Dy320 2.298 . S
O330 C344 1.236 . S
O331 Dy321 2.395 . S
O331 C351 1.255 . S
O332 Dy321 2.379 . S
O332 C351 1.249 . S
C333 O323 1.266 . S
C333 O324 1.236 . S
O334 Dy320 2.275 . S
O334 C322 1.254 . S
O335 Dy321 2.339 . S
O335 C322 1.257 . S
C336 C339 1.344 . S
C336 C340 1.328 . S
C336 C342 1.516 . S
C337 C338 1.304 . S
C337 C341 1.323 . S
C338 C337 1.304 . S
C338 C339 1.371 . S
C338 H352 0.930 . S
C339 C336 1.344 . S
C339 C338 1.371 . S
C339 H353 0.931 . S
C340 C336 1.328 . S
C340 C341 1.433 . S
C340 H354 0.931 . S
C341 C337 1.323 . S
C341 C340 1.433 . S
C341 H355 0.933 . S
C342 Dy320 2.738 . S
C342 O325 1.255 . S
C342 O326 1.249 . S
C342 C336 1.516 . S
C343 O327 1.254 . S
C343 O328 1.257 . S
C344 O329 1.266 . S
C344 O330 1.236 . S
C345 C348 1.344 . S
C345 C349 1.328 . S
C345 C351 1.516 . S
C346 C347 1.304 . S
C346 C350 1.323 . S
C347 C346 1.304 . S
C347 C348 1.371 . S
C347 H356 0.930 . S
C348 C345 1.344 . S
C348 C347 1.371 . S
C348 H357 0.931 . S
C349 C345 1.328 . S
C349 C350 1.433 . S
C349 H358 0.931 . S
C350 C346 1.323 . S
C350 C349 1.433 . S
C350 H359 0.933 . S
C351 Dy321 2.738 . S
C351 O331 1.255 . S
C351 O332 1.249 . S
C351 C345 1.516 . S
H352 C338 0.930 . S
H353 C339 0.931 . S
H354 C340 0.931 . S
H355 C341 0.933 . S
H356 C347 0.930 . S
H357 C348 0.931 . S
H358 C349 0.931 . S
H359 C350 0.933 . S
H360 C372 0.930 1_554 S
H361 C374 0.930 . S
H362 C375 0.930 . S
H363 C379 0.959 . S
H364 C379 0.959 . S
H365 C379 0.961 1_554 S
H366 C380 0.960 1_554 S
H367 C380 0.961 . S
H368 C380 0.959 . S
H369 C383 0.929 . S
H370 C384 0.931 . S
H371 C386 0.930 . S
C372 H360 0.930 1_556 S
C372 C373 1.399 . S
C372 C377 1.399 . S
C373 C372 1.399 . S
C373 C374 1.376 . S
C374 H361 0.930 . S
C374 C373 1.376 . S
C374 C375 1.388 . S
C375 H362 0.930 . S
C375 C374 1.388 . S
C375 C376 1.390 . S
C376 C375 1.390 . S
C376 C377 1.394 . S
C376 C382 1.465 . S
C377 C372 1.399 . S
C377 C376 1.394 . S
C377 C378 1.516 . S
C378 C377 1.516 . S
C378 C379 1.502 . S
C378 C380 1.561 . S
C378 C381 1.526 . S
C379 H363 0.959 . S
C379 H364 0.959 . S
C379 H365 0.961 1_556 S
C379 C378 1.502 . S
C380 H366 0.960 1_556 S
C380 H367 0.961 . S
C380 H368 0.959 . S
C380 C378 1.561 . S
C381 C378 1.526 . S
C381 C382 1.396 . S
C381 C386 1.390 . S
C382 C376 1.465 . S
C382 C381 1.396 . S
C382 C383 1.399 . S
C383 H369 0.929 . S
C383 C382 1.399 . S
C383 C384 1.385 . S
C384 H370 0.931 . S
C384 C383 1.385 . S
C384 C385 1.389 . S
C385 C384 1.389 . S
C385 C386 1.387 . S
C386 H371 0.930 . S
C386 C381 1.390 . S
C386 C385 1.387 . S
H387 C399 0.930 . S
H388 C401 0.930 . S
H389 C402 0.930 . S
H390 C406 0.959 . S
H391 C406 0.959 . S
H392 C406 0.961 . S
H393 C407 0.960 1_554 S
H394 C407 0.961 . S
H395 C407 0.959 . S
H396 C410 0.929 . S
H397 C411 0.931 . S
H398 C413 0.930 . S
C399 H387 0.930 . S
C399 C400 1.399 . S
C399 C404 1.399 . S
C400 C399 1.399 . S
C400 C401 1.376 . S
C401 H388 0.930 . S
C401 C400 1.376 . S
C401 C402 1.388 . S
C402 H389 0.930 . S
C402 C401 1.388 . S
C402 C403 1.390 . S
C403 C402 1.390 . S
C403 C404 1.394 . S
C403 C409 1.465 . S
C404 C399 1.399 . S
C404 C403 1.394 . S
C404 C405 1.516 . S
C405 C404 1.516 . S
C405 C406 1.502 . S
C405 C407 1.561 . S
C405 C408 1.526 . S
C406 H390 0.959 . S
C406 H391 0.959 . S
C406 H392 0.961 . S
C406 C405 1.502 . S
C407 H393 0.960 1_556 S
C407 H394 0.961 . S
C407 H395 0.959 . S
C407 C405 1.561 . S
C408 C405 1.526 . S
C408 C409 1.396 . S
C408 C413 1.390 . S
C409 C403 1.465 . S
C409 C408 1.396 . S
C409 C410 1.399 . S
C410 H396 0.929 . S
C410 C409 1.399 . S
C410 C411 1.385 . S
C411 H397 0.931 . S
C411 C410 1.385 . S
C411 C412 1.389 . S
C412 C411 1.389 . S
C412 C413 1.387 . S
C413 H398 0.930 . S
C413 C408 1.390 . S
C413 C412 1.387 . S
H414 C426 0.930 1_554 S
H415 C428 0.930 . S
H416 C429 0.930 . S
H417 C433 0.959 . S
H418 C433 0.959 . S
H419 C433 0.961 1_554 S
H420 C434 0.960 . S
H421 C434 0.961 . S
H422 C434 0.959 . S
H423 C437 0.929 . S
H424 C438 0.931 . S
H425 C440 0.930 . S
C426 H414 0.930 1_556 S
C426 C427 1.399 . S
C426 C431 1.399 . S
C427 C426 1.399 . S
C427 C428 1.376 . S
C428 H415 0.930 . S
C428 C427 1.376 . S
C428 C429 1.388 . S
C429 H416 0.930 . S
C429 C428 1.388 . S
C429 C430 1.390 . S
C430 C429 1.390 . S
C430 C431 1.394 . S
C430 C436 1.465 . S
C431 C426 1.399 . S
C431 C430 1.394 . S
C431 C432 1.516 . S
C432 C431 1.516 . S
C432 C433 1.502 . S
C432 C434 1.561 . S
C432 C435 1.526 . S
C433 H417 0.959 . S
C433 H418 0.959 . S
C433 H419 0.961 1_556 S
C433 C432 1.502 . S
C434 H420 0.960 . S
C434 H421 0.961 . S
C434 H422 0.959 . S
C434 C432 1.561 . S
C435 C432 1.526 . S
C435 C436 1.396 . S
C435 C440 1.390 . S
C436 C430 1.465 . S
C436 C435 1.396 . S
C436 C437 1.399 . S
C437 H423 0.929 . S
C437 C436 1.399 . S
C437 C438 1.385 . S
C438 H424 0.931 . S
C438 C437 1.385 . S
C438 C439 1.389 . S
C439 C438 1.389 . S
C439 C440 1.387 . S
C440 H425 0.930 . S
C440 C435 1.390 . S
C440 C439 1.387 . S
H441 C453 0.930 . S
H442 C455 0.930 . S
H443 C456 0.930 . S
H444 C460 0.959 . S
H445 C460 0.959 . S
H446 C460 0.961 . S
H447 C461 0.960 . S
H448 C461 0.961 . S
H449 C461 0.959 . S
H450 C464 0.929 . S
H451 C465 0.931 . S
H452 C467 0.930 . S
C453 H441 0.930 . S
C453 C454 1.399 . S
C453 C458 1.399 . S
C454 C453 1.399 . S
C454 C455 1.376 . S
C455 H442 0.930 . S
C455 C454 1.376 . S
C455 C456 1.388 . S
C456 H443 0.930 . S
C456 C455 1.388 . S
C456 C457 1.390 . S
C457 C456 1.390 . S
C457 C458 1.394 . S
C457 C463 1.465 . S
C458 C453 1.399 . S
C458 C457 1.394 . S
C458 C459 1.516 . S
C459 C458 1.516 . S
C459 C460 1.502 . S
C459 C461 1.561 . S
C459 C462 1.526 . S
C460 H444 0.959 . S
C460 H445 0.959 . S
C460 H446 0.961 . S
C460 C459 1.502 . S
C461 H447 0.960 . S
C461 H448 0.961 . S
C461 H449 0.959 . S
C461 C459 1.561 . S
C462 C459 1.526 . S
C462 C463 1.396 . S
C462 C467 1.390 . S
C463 C457 1.465 . S
C463 C462 1.396 . S
C463 C464 1.399 1_554 S
C464 H450 0.929 . S
C464 C463 1.399 1_556 S
C464 C465 1.385 . S
C465 H451 0.931 . S
C465 C464 1.385 . S
C465 C466 1.389 1_556 S
C466 C465 1.389 1_554 S
C466 C467 1.387 . S
C467 H452 0.930 . S
C467 C462 1.390 . S
C467 C466 1.387 . S
H468 C480 0.930 . S
H469 C482 0.930 . S
H470 C483 0.930 . S
H471 C487 0.960 1_554 S
H472 C487 0.959 . S
H473 C487 0.961 . S
H474 C488 0.960 . S
H475 C488 0.961 . S
H476 C488 0.959 1_554 S
H477 C491 0.929 . S
H478 C492 0.931 . S
H479 C494 0.932 . S
C480 H468 0.930 . S
C480 C481 1.399 . S
C480 C485 1.399 . S
C481 C480 1.399 . S
C481 C482 1.376 . S
C482 H469 0.930 . S
C482 C481 1.376 . S
C482 C483 1.388 . S
C483 H470 0.930 . S
C483 C482 1.388 . S
C483 C484 1.390 . S
C484 C483 1.390 . S
C484 C485 1.394 . S
C484 C490 1.465 . S
C485 C480 1.399 . S
C485 C484 1.394 . S
C485 C486 1.516 . S
C486 C485 1.516 . S
C486 C487 1.502 1_554 S
C486 C488 1.561 1_554 S
C486 C489 1.526 . S
C487 H471 0.960 1_556 S
C487 H472 0.959 . S
C487 H473 0.961 . S
C487 C486 1.502 1_556 S
C488 H474 0.960 . S
C488 H475 0.961 . S
C488 H476 0.959 1_556 S
C488 C486 1.561 1_556 S
C489 C486 1.526 . S
C489 C490 1.396 . S
C489 C494 1.389 1_554 S
C490 C484 1.465 . S
C490 C489 1.396 . S
C490 C491 1.399 . S
C491 H477 0.929 . S
C491 C490 1.399 . S
C491 C492 1.385 . S
C492 H478 0.931 . S
C492 C491 1.385 . S
C492 C493 1.389 . S
C493 C492 1.389 . S
C493 C494 1.386 1_554 S
C494 H479 0.932 . S
C494 C489 1.389 1_556 S
C494 C493 1.386 1_556 S
H495 C507 0.936 . S
H496 C509 0.930 . S
H497 C510 0.930 . S
H498 C514 0.959 1_554 S
H499 C514 0.959 . S
H500 C514 0.961 . S
H501 C515 0.960 . S
H502 C515 0.961 . S
H503 C515 0.959 . S
H504 C518 0.929 . S
H505 C519 0.931 . S
H506 C521 0.930 . S
C507 H495 0.936 . S
C507 C508 1.396 1_556 S
C507 C512 1.395 1_556 S
C508 C507 1.396 1_554 S
C508 C509 1.376 . S
C509 H496 0.930 . S
C509 C508 1.376 . S
C509 C510 1.388 . S
C510 H497 0.930 . S
C510 C509 1.388 . S
C510 C511 1.390 . S
C511 C510 1.390 . S
C511 C512 1.394 . S
C511 C517 1.465 . S
C512 C507 1.395 1_554 S
C512 C511 1.394 . S
C512 C513 1.516 . S
C513 C512 1.516 . S
C513 C514 1.502 1_554 S
C513 C515 1.561 1_554 S
C513 C516 1.526 . S
C514 H498 0.959 1_556 S
C514 H499 0.959 . S
C514 H500 0.961 . S
C514 C513 1.502 1_556 S
C515 H501 0.960 . S
C515 H502 0.961 . S
C515 H503 0.959 . S
C515 C513 1.561 1_556 S
C516 C513 1.526 . S
C516 C517 1.396 . S
C516 C521 1.390 . S
C517 C511 1.465 . S
C517 C516 1.396 . S
C517 C518 1.399 . S
C518 H504 0.929 . S
C518 C517 1.399 . S
C518 C519 1.385 . S
C519 H505 0.931 . S
C519 C518 1.385 . S
C519 C520 1.389 . S
C520 C519 1.389 . S
C520 C521 1.387 . S
C521 H506 0.930 . S
C521 C516 1.390 . S
C521 C520 1.387 . S
H522 C534 0.930 . S
H523 C536 0.930 . S
H524 C537 0.930 . S
H525 C541 0.959 . S
H526 C541 0.959 . S
H527 C541 0.961 . S
H528 C542 0.960 . S
H529 C542 0.961 . S
H530 C542 0.959 . S
H531 C545 0.929 . S
H532 C546 0.931 . S
H533 C548 0.930 . S
C534 H522 0.930 . S
C534 C535 1.399 . S
C534 C539 1.399 1_455 S
C535 C534 1.399 . S
C535 C536 1.376 . S
C536 H523 0.930 . S
C536 C535 1.376 . S
C536 C537 1.388 1_455 S
C537 H524 0.930 . S
C537 C536 1.388 1_655 S
C537 C538 1.390 . S
C538 C537 1.390 . S
C538 C539 1.394 . S
C538 C544 1.465 . S
C539 C534 1.399 1_655 S
C539 C538 1.394 . S
C539 C540 1.516 . S
C540 C539 1.516 . S
C540 C541 1.502 . S
C540 C542 1.561 . S
C540 C543 1.526 . S
C541 H525 0.959 . S
C541 H526 0.959 . S
C541 H527 0.961 . S
C541 C540 1.502 . S
C542 H528 0.960 . S
C542 H529 0.961 . S
C542 H530 0.959 . S
C542 C540 1.561 . S
C543 C540 1.526 . S
C543 C544 1.396 . S
C543 C548 1.390 . S
C544 C538 1.465 . S
C544 C543 1.396 . S
C544 C545 1.399 . S
C545 H531 0.929 . S
C545 C544 1.399 . S
C545 C546 1.385 . S
C546 H532 0.931 . S
C546 C545 1.385 . S
C546 C547 1.389 . S
C547 C546 1.389 . S
C547 C548 1.387 . S
C548 H533 0.930 . S
C548 C543 1.390 . S
C548 C547 1.387 . S
H549 C561 0.930 . S
H550 C563 0.930 . S
H551 C564 0.930 . S
H552 C568 0.959 . S
H553 C568 0.959 . S
H554 C568 0.961 . S
H555 C569 0.960 . S
H556 C569 0.961 . S
H557 C569 0.959 . S
H558 C572 0.929 . S
H559 C573 0.931 . S
H560 C575 0.930 . S
C561 H549 0.930 . S
C561 C562 1.399 . S
C561 C566 1.399 . S
C562 C561 1.399 . S
C562 C563 1.376 . S
C563 H550 0.930 . S
C563 C562 1.376 . S
C563 C564 1.388 . S
C564 H551 0.930 . S
C564 C563 1.388 . S
C564 C565 1.390 . S
C565 C564 1.390 . S
C565 C566 1.394 . S
C565 C571 1.465 . S
C566 C561 1.399 . S
C566 C565 1.394 . S
C566 C567 1.516 . S
C567 C566 1.516 . S
C567 C568 1.502 . S
C567 C569 1.561 . S
C567 C570 1.526 . S
C568 H552 0.959 . S
C568 H553 0.959 . S
C568 H554 0.961 . S
C568 C567 1.502 . S
C569 H555 0.960 . S
C569 H556 0.961 . S
C569 H557 0.959 . S
C569 C567 1.561 . S
C570 C567 1.526 . S
C570 C571 1.396 . S
C570 C575 1.390 . S
C571 C565 1.465 . S
C571 C570 1.396 . S
C571 C572 1.399 . S
C572 H558 0.929 . S
C572 C571 1.399 . S
C572 C573 1.385 . S
C573 H559 0.931 . S
C573 C572 1.385 . S
C573 C574 1.389 . S
C574 C573 1.389 . S
C574 C575 1.387 . S
C575 H560 0.930 . S
C575 C570 1.390 . S
C575 C574 1.387 . S
H576 C588 0.930 . S
H577 C590 0.930 . S
H578 C591 0.930 . S
H579 C595 0.959 . S
H580 C595 0.959 . S
H581 C595 0.961 . S
H582 C596 0.960 . S
H583 C596 0.961 . S
H584 C596 0.959 . S
H585 C599 0.929 . S
H586 C600 0.931 1_565 S
H587 C602 0.930 . S
C588 H576 0.930 . S
C588 C589 1.399 . S
C588 C593 1.399 . S
C589 C588 1.399 . S
C589 C590 1.376 . S
C590 H577 0.930 . S
C590 C589 1.376 . S
C590 C591 1.388 . S
C591 H578 0.930 . S
C591 C590 1.388 . S
C591 C592 1.390 . S
C592 C591 1.390 . S
C592 C593 1.394 . S
C592 C598 1.465 . S
C593 C588 1.399 . S
C593 C592 1.394 . S
C593 C594 1.516 . S
C594 C593 1.516 . S
C594 C595 1.502 . S
C594 C596 1.561 . S
C594 C597 1.526 . S
C595 H579 0.959 . S
C595 H580 0.959 . S
C595 H581 0.961 . S
C595 C594 1.502 . S
C596 H582 0.960 . S
C596 H583 0.961 . S
C596 H584 0.959 . S
C596 C594 1.561 . S
C597 C594 1.526 . S
C597 C598 1.396 . S
C597 C602 1.390 . S
C598 C592 1.465 . S
C598 C597 1.396 . S
C598 C599 1.399 . S
C599 H585 0.929 . S
C599 C598 1.399 . S
C599 C600 1.385 . S
C600 H586 0.931 1_545 S
C600 C599 1.385 . S
C600 C601 1.389 . S
C601 C600 1.389 . S
C601 C602 1.387 . S
C602 H587 0.930 . S
C602 C597 1.390 . S
C602 C601 1.387 . S
H603 C615 0.926 1_556 S
H604 C617 0.930 . S
H605 C618 0.930 . S
H606 C622 0.959 . S
H607 C622 0.959 . S
H608 C622 0.961 . S
H609 C623 0.960 . S
H610 C623 0.961 . S
H611 C623 0.959 . S
H612 C626 0.929 . S
H613 C627 0.931 . S
H614 C629 0.930 . S
C615 H603 0.926 1_554 S
C615 C616 1.403 . S
C615 C620 1.399 . S
C616 C615 1.403 . S
C616 C617 1.376 . S
C617 H604 0.930 . S
C617 C616 1.376 . S
C617 C618 1.388 . S
C618 H605 0.930 . S
C618 C617 1.388 . S
C618 C619 1.390 . S
C619 C618 1.390 . S
C619 C620 1.394 . S
C619 C625 1.465 . S
C620 C615 1.399 . S
C620 C619 1.394 . S
C620 C621 1.516 1_554 S
C621 C620 1.516 1_556 S
C621 C622 1.502 . S
C621 C623 1.561 . S
C621 C624 1.526 . S
C622 H606 0.959 . S
C622 H607 0.959 . S
C622 H608 0.961 . S
C622 C621 1.502 . S
C623 H609 0.960 . S
C623 H610 0.961 . S
C623 H611 0.959 . S
C623 C621 1.561 . S
C624 C621 1.526 . S
C624 C625 1.396 1_556 S
C624 C629 1.390 . S
C625 C619 1.465 . S
C625 C624 1.396 1_554 S
C625 C626 1.399 . S
C626 H612 0.929 . S
C626 C625 1.399 . S
C626 C627 1.385 . S
C627 H613 0.931 . S
C627 C626 1.385 . S
C627 C628 1.389 . S
C628 C627 1.389 . S
C628 C629 1.387 1_554 S
C629 H614 0.930 . S
C629 C624 1.390 . S
C629 C628 1.387 1_556 S
H630 C642 0.930 . S
H631 C644 0.930 . S
H632 C645 0.930 . S
H633 C649 0.959 . S
H634 C649 0.959 . S
H635 C649 0.961 . S
H636 C650 0.960 . S
H637 C650 0.961 . S
H638 C650 0.959 . S
H639 C653 0.929 . S
H640 C654 0.931 . S
H641 C656 0.938 . S
C642 H630 0.930 . S
C642 C643 1.399 1_556 S
C642 C647 1.399 . S
C643 C642 1.399 1_554 S
C643 C644 1.376 . S
C644 H631 0.930 . S
C644 C643 1.376 . S
C644 C645 1.388 . S
C645 H632 0.930 . S
C645 C644 1.388 . S
C645 C646 1.390 . S
C646 C645 1.390 . S
C646 C647 1.394 1_554 S
C646 C652 1.465 . S
C647 C642 1.399 . S
C647 C646 1.394 1_556 S
C647 C648 1.516 . S
C648 C647 1.516 . S
C648 C649 1.502 . S
C648 C650 1.561 . S
C648 C651 1.526 1_556 S
C649 H633 0.959 . S
C649 H634 0.959 . S
C649 H635 0.961 . S
C649 C648 1.502 . S
C650 H636 0.960 . S
C650 H637 0.961 . S
C650 H638 0.959 . S
C650 C648 1.561 . S
C651 C648 1.526 1_554 S
C651 C652 1.396 . S
C651 C656 1.389 1_564 S
C652 C646 1.465 . S
C652 C651 1.396 . S
C652 C653 1.399 . S
C653 H639 0.929 . S
C653 C652 1.399 . S
C653 C654 1.385 1_565 S
C654 H640 0.931 . S
C654 C653 1.385 1_545 S
C654 C655 1.389 . S
C655 C654 1.389 . S
C655 C656 1.379 1_554 S
C656 H641 0.938 . S
C656 C651 1.389 1_546 S
C656 C655 1.379 1_556 S
H657 C669 0.930 . S
H658 C671 0.930 . S
H659 C672 0.930 . S
H660 C676 0.959 . S
H661 C676 0.959 . S
H662 C676 0.961 . S
H663 C677 0.960 . S
H664 C677 0.961 . S
H665 C677 0.959 . S
H666 C680 0.929 . S
H667 C681 0.931 . S
H668 C683 0.930 . S
C669 H657 0.930 . S
C669 C670 1.399 1_556 S
C669 C674 1.399 1_556 S
C670 C669 1.399 1_554 S
C670 C671 1.376 . S
C671 H658 0.930 . S
C671 C670 1.376 . S
C671 C672 1.388 . S
C672 H659 0.930 . S
C672 C671 1.388 . S
C672 C673 1.390 . S
C673 C672 1.390 . S
C673 C674 1.394 . S
C673 C679 1.465 . S
C674 C669 1.399 1_554 S
C674 C673 1.394 . S
C674 C675 1.516 1_554 S
C675 C674 1.516 1_556 S
C675 C676 1.502 . S
C675 C677 1.561 . S
C675 C678 1.526 . S
C676 H660 0.959 . S
C676 H661 0.959 . S
C676 H662 0.961 . S
C676 C675 1.502 . S
C677 H663 0.960 . S
C677 H664 0.961 . S
C677 H665 0.959 . S
C677 C675 1.561 . S
C678 C675 1.526 . S
C678 C679 1.396 1_556 S
C678 C683 1.390 . S
C679 C673 1.465 . S
C679 C678 1.396 1_554 S
C679 C680 1.399 . S
C680 H666 0.929 . S
C680 C679 1.399 . S
C680 C681 1.385 . S
C681 H667 0.931 . S
C681 C680 1.385 . S
C681 C682 1.389 . S
C682 C681 1.389 . S
C682 C683 1.387 1_554 S
C683 H668 0.930 . S
C683 C678 1.390 . S
C683 C682 1.387 1_556 S
H684 C696 0.930 . S
H685 C698 0.930 . S
H686 C699 0.930 . S
H687 C703 0.959 . S
H688 C703 0.959 . S
H689 C703 0.961 . S
H690 C704 0.960 . S
H691 C704 0.961 . S
H692 C704 0.959 . S
H693 C707 0.929 . S
H694 C708 0.931 . S
H695 C710 0.930 . S
C696 H684 0.930 . S
C696 C697 1.399 . S
C696 C701 1.399 . S
C697 C696 1.399 . S
C697 C698 1.376 . S
C698 H685 0.930 . S
C698 C697 1.376 . S
C698 C699 1.388 . S
C699 H686 0.930 . S
C699 C698 1.388 . S
C699 C700 1.390 . S
C700 C699 1.390 . S
C700 C701 1.394 . S
C700 C706 1.465 . S
C701 C696 1.399 . S
C701 C700 1.394 . S
C701 C702 1.516 . S
C702 C701 1.516 . S
C702 C703 1.502 . S
C702 C704 1.561 . S
C702 C705 1.526 . S
C703 H687 0.959 . S
C703 H688 0.959 . S
C703 H689 0.961 . S
C703 C702 1.502 . S
C704 H690 0.960 . S
C704 H691 0.961 . S
C704 H692 0.959 . S
C704 C702 1.561 . S
C705 C702 1.526 . S
C705 C706 1.396 . S
C705 C710 1.390 . S
C706 C700 1.465 . S
C706 C705 1.396 . S
C706 C707 1.399 . S
C707 H693 0.929 . S
C707 C706 1.399 . S
C707 C708 1.385 . S
C708 H694 0.931 . S
C708 C707 1.385 . S
C708 C709 1.389 . S
C709 C708 1.389 . S
C709 C710 1.387 . S
C710 H695 0.930 . S
C710 C705 1.390 . S
C710 C709 1.387 . S
H711 C723 0.930 . S
H712 C725 0.930 . S
H713 C726 0.930 . S
H714 C730 0.959 . S
H715 C730 0.959 . S
H716 C730 0.961 . S
H717 C731 0.960 . S
H718 C731 0.961 . S
H719 C731 0.959 . S
H720 C734 0.929 . S
H721 C735 0.931 . S
H722 C737 0.930 . S
C723 H711 0.930 . S
C723 C724 1.399 . S
C723 C728 1.399 . S
C724 C723 1.399 . S
C724 C725 1.376 . S
C725 H712 0.930 . S
C725 C724 1.376 . S
C725 C726 1.388 . S
C726 H713 0.930 . S
C726 C725 1.388 . S
C726 C727 1.390 . S
C727 C726 1.390 . S
C727 C728 1.394 . S
C727 C733 1.465 . S
C728 C723 1.399 . S
C728 C727 1.394 . S
C728 C729 1.516 . S
C729 C728 1.516 . S
C729 C730 1.502 . S
C729 C731 1.561 . S
C729 C732 1.526 . S
C730 H714 0.959 . S
C730 H715 0.959 . S
C730 H716 0.961 . S
C730 C729 1.502 . S
C731 H717 0.960 . S
C731 H718 0.961 . S
C731 H719 0.959 . S
C731 C729 1.561 . S
C732 C729 1.526 . S
C732 C733 1.396 . S
C732 C737 1.390 . S
C733 C727 1.465 . S
C733 C732 1.396 . S
C733 C734 1.399 . S
C734 H720 0.929 . S
C734 C733 1.399 . S
C734 C735 1.385 . S
C735 H721 0.931 . S
C735 C734 1.385 . S
C735 C736 1.389 . S
C736 C735 1.389 . S
C736 C737 1.387 . S
C737 H722 0.930 . S
C737 C732 1.390 . S
C737 C736 1.387 . S
H738 C750 0.930 . S
H739 C752 0.930 . S
H740 C753 0.930 . S
H741 C757 0.959 . S
H742 C757 0.959 . S
H743 C757 0.961 . S
H744 C758 0.960 . S
H745 C758 0.961 . S
H746 C758 0.959 . S
H747 C761 0.929 . S
H748 C762 0.931 . S
H749 C764 0.930 . S
C750 H738 0.930 . S
C750 C751 1.399 . S
C750 C755 1.399 . S
C751 C750 1.399 . S
C751 C752 1.376 . S
C752 H739 0.930 . S
C752 C751 1.376 . S
C752 C753 1.388 . S
C753 H740 0.930 . S
C753 C752 1.388 . S
C753 C754 1.390 . S
C754 C753 1.390 . S
C754 C755 1.394 . S
C754 C760 1.465 . S
C755 C750 1.399 . S
C755 C754 1.394 . S
C755 C756 1.516 . S
C756 C755 1.516 . S
C756 C757 1.502 . S
C756 C758 1.561 . S
C756 C759 1.526 . S
C757 H741 0.959 . S
C757 H742 0.959 . S
C757 H743 0.961 . S
C757 C756 1.502 . S
C758 H744 0.960 . S
C758 H745 0.961 . S
C758 H746 0.959 . S
C758 C756 1.561 . S
C759 C756 1.526 . S
C759 C760 1.396 . S
C759 C764 1.390 . S
C760 C754 1.465 . S
C760 C759 1.396 . S
C760 C761 1.399 . S
C761 H747 0.929 . S
C761 C760 1.399 . S
C761 C762 1.385 . S
C762 H748 0.931 . S
C762 C761 1.385 . S
C762 C763 1.389 . S
C763 C762 1.389 . S
C763 C764 1.387 . S
C764 H749 0.930 . S
C764 C759 1.390 . S
C764 C763 1.387 . S
H765 C777 0.930 . S
H766 C779 0.930 . S
H767 C780 0.930 . S
H768 C784 0.959 . S
H769 C784 0.959 . S
H770 C784 0.961 . S
H771 C785 0.960 . S
H772 C785 0.961 . S
H773 C785 0.959 . S
H774 C788 0.929 . S
H775 C789 0.931 . S
H776 C791 0.930 . S
C777 H765 0.930 . S
C777 C778 1.399 . S
C777 C782 1.399 . S
C778 C777 1.399 . S
C778 C779 1.376 . S
C779 H766 0.930 . S
C779 C778 1.376 . S
C779 C780 1.388 . S
C780 H767 0.930 . S
C780 C779 1.388 . S
C780 C781 1.390 . S
C781 C780 1.390 . S
C781 C782 1.394 . S
C781 C787 1.465 . S
C782 C777 1.399 . S
C782 C781 1.394 . S
C782 C783 1.516 . S
C783 C782 1.516 . S
C783 C784 1.502 . S
C783 C785 1.561 . S
C783 C786 1.526 . S
C784 H768 0.959 . S
C784 H769 0.959 . S
C784 H770 0.961 . S
C784 C783 1.502 . S
C785 H771 0.960 . S
C785 H772 0.961 . S
C785 H773 0.959 . S
C785 C783 1.561 . S
C786 C783 1.526 . S
C786 C787 1.396 . S
C786 C791 1.390 . S
C787 C781 1.465 . S
C787 C786 1.396 . S
C787 C788 1.399 . S
C788 H774 0.929 . S
C788 C787 1.399 . S
C788 C789 1.385 . S
C789 H775 0.931 . S
C789 C788 1.385 . S
C789 C790 1.389 . S
C790 C789 1.389 . S
C790 C791 1.387 . S
C791 H776 0.930 . S
C791 C786 1.390 . S
C791 C790 1.387 . S
H792 C804 0.930 . S
H793 C806 0.930 . S
H794 C807 0.930 . S
H795 C811 0.959 . S
H796 C811 0.959 . S
H797 C811 0.961 . S
H798 C812 0.960 . S
H799 C812 0.961 . S
H800 C812 0.959 . S
H801 C815 0.929 . S
H802 C816 0.931 . S
H803 C818 0.930 . S
C804 H792 0.930 . S
C804 C805 1.399 . S
C804 C809 1.399 . S
C805 C804 1.399 . S
C805 C806 1.376 . S
C806 H793 0.930 . S
C806 C805 1.376 . S
C806 C807 1.388 . S
C807 H794 0.930 . S
C807 C806 1.388 . S
C807 C808 1.390 . S
C808 C807 1.390 . S
C808 C809 1.394 . S
C808 C814 1.465 . S
C809 C804 1.399 . S
C809 C808 1.394 . S
C809 C810 1.516 . S
C810 C809 1.516 . S
C810 C811 1.502 . S
C810 C812 1.561 . S
C810 C813 1.526 . S
C811 H795 0.959 . S
C811 H796 0.959 . S
C811 H797 0.961 . S
C811 C810 1.502 . S
C812 H798 0.960 . S
C812 H799 0.961 . S
C812 H800 0.959 . S
C812 C810 1.561 . S
C813 C810 1.526 . S
C813 C814 1.396 . S
C813 C818 1.390 . S
C814 C808 1.465 . S
C814 C813 1.396 . S
C814 C815 1.399 . S
C815 H801 0.929 . S
C815 C814 1.399 . S
C815 C816 1.385 . S
C816 H802 0.931 . S
C816 C815 1.385 . S
C816 C817 1.389 . S
C817 C816 1.389 . S
C817 C818 1.387 . S
C818 H803 0.930 . S
C818 C813 1.390 . S
C818 C817 1.387 . S
H819 C831 0.930 . S
H820 C833 0.930 . S
H821 C834 0.930 . S
H822 C838 0.959 . S
H823 C838 0.959 . S
H824 C838 0.961 . S
H825 C839 0.960 . S
H826 C839 0.961 . S
H827 C839 0.959 . S
H828 C842 0.929 . S
H829 C843 0.931 . S
H830 C845 0.930 . S
C831 H819 0.930 . S
C831 C832 1.399 . S
C831 C836 1.399 . S
C832 C831 1.399 . S
C832 C833 1.376 . S
C833 H820 0.930 . S
C833 C832 1.376 . S
C833 C834 1.388 . S
C834 H821 0.930 . S
C834 C833 1.388 . S
C834 C835 1.390 . S
C835 C834 1.390 . S
C835 C836 1.394 . S
C835 C841 1.465 . S
C836 C831 1.399 . S
C836 C835 1.394 . S
C836 C837 1.516 . S
C837 C836 1.516 . S
C837 C838 1.502 . S
C837 C839 1.561 . S
C837 C840 1.526 . S
C838 H822 0.959 . S
C838 H823 0.959 . S
C838 H824 0.961 . S
C838 C837 1.502 . S
C839 H825 0.960 . S
C839 H826 0.961 . S
C839 H827 0.959 . S
C839 C837 1.561 . S
C840 C837 1.526 . S
C840 C841 1.396 . S
C840 C845 1.390 . S
C841 C835 1.465 . S
C841 C840 1.396 . S
C841 C842 1.399 . S
C842 H828 0.929 . S
C842 C841 1.399 . S
C842 C843 1.385 . S
C843 H829 0.931 . S
C843 C842 1.385 . S
C843 C844 1.389 . S
C844 C843 1.389 . S
C844 C845 1.387 . S
C845 H830 0.930 . S
C845 C840 1.390 . S
C845 C844 1.387 . S
H846 C858 0.930 . S
H847 C860 0.930 . S
H848 C861 0.930 . S
H849 C865 0.959 1_655 S
H850 C865 0.959 . S
H851 C865 0.961 . S
H852 C866 0.960 . S
H853 C866 0.961 . S
H854 C866 0.959 . S
H855 C869 0.929 . S
H856 C870 0.931 . S
H857 C872 0.930 . S
C858 H846 0.930 . S
C858 C859 1.399 . S
C858 C863 1.399 . S
C859 C858 1.399 . S
C859 C860 1.376 . S
C860 H847 0.930 . S
C860 C859 1.376 . S
C860 C861 1.388 . S
C861 H848 0.930 . S
C861 C860 1.388 . S
C861 C862 1.390 . S
C862 C861 1.390 . S
C862 C863 1.394 . S
C862 C868 1.465 . S
C863 C858 1.399 . S
C863 C862 1.394 . S
C863 C864 1.516 . S
C864 C863 1.516 . S
C864 C865 1.502 . S
C864 C866 1.561 . S
C864 C867 1.526 . S
C865 H849 0.959 1_455 S
C865 H850 0.959 . S
C865 H851 0.961 . S
C865 C864 1.502 . S
C866 H852 0.960 . S
C866 H853 0.961 . S
C866 H854 0.959 . S
C866 C864 1.561 . S
C867 C864 1.526 . S
C867 C868 1.396 . S
C867 C872 1.390 . S
C868 C862 1.465 . S
C868 C867 1.396 . S
C868 C869 1.399 . S
C869 H855 0.929 . S
C869 C868 1.399 . S
C869 C870 1.385 . S
C870 H856 0.931 . S
C870 C869 1.385 . S
C870 C871 1.389 . S
C871 C870 1.389 . S
C871 C872 1.387 . S
C872 H857 0.930 . S
C872 C867 1.390 . S
C872 C871 1.387 . S
H873 C885 0.930 . S
H874 C887 0.930 . S
H875 C888 0.930 . S
H876 C892 0.959 . S
H877 C892 0.959 . S
H878 C892 0.961 . S
H879 C893 0.960 . S
H880 C893 0.961 . S
H881 C893 0.959 . S
H882 C896 0.929 . S
H883 C897 0.931 . S
H884 C899 0.930 . S
C885 H873 0.930 . S
C885 C886 1.399 . S
C885 C890 1.399 . S
C886 C885 1.399 . S
C886 C887 1.376 . S
C887 H874 0.930 . S
C887 C886 1.376 . S
C887 C888 1.388 . S
C888 H875 0.930 . S
C888 C887 1.388 . S
C888 C889 1.390 . S
C889 C888 1.390 . S
C889 C890 1.394 . S
C889 C895 1.465 . S
C890 C885 1.399 . S
C890 C889 1.394 . S
C890 C891 1.516 . S
C891 C890 1.516 . S
C891 C892 1.502 . S
C891 C893 1.561 . S
C891 C894 1.526 . S
C892 H876 0.959 . S
C892 H877 0.959 . S
C892 H878 0.961 . S
C892 C891 1.502 . S
C893 H879 0.960 . S
C893 H880 0.961 . S
C893 H881 0.959 . S
C893 C891 1.561 . S
C894 C891 1.526 . S
C894 C895 1.396 . S
C894 C899 1.390 . S
C895 C889 1.465 . S
C895 C894 1.396 . S
C895 C896 1.399 . S
C896 H882 0.929 . S
C896 C895 1.399 . S
C896 C897 1.385 . S
C897 H883 0.931 . S
C897 C896 1.385 . S
C897 C898 1.389 . S
C898 C897 1.389 . S
C898 C899 1.387 . S
C899 H884 0.930 . S
C899 C894 1.390 . S
C899 C898 1.387 . S
H900 C912 0.951 . S
H901 C914 0.930 . S
H902 C915 0.930 . S
H903 C919 0.959 . S
H904 C919 0.959 . S
H905 C919 0.961 . S
H906 C920 0.960 . S
H907 C920 0.961 . S
H908 C920 0.959 . S
H909 C923 0.929 . S
H910 C924 0.931 . S
H911 C926 0.930 . S
C912 H900 0.951 . S
C912 C913 1.382 1_565 S
C912 C917 1.394 1_565 S
C913 C912 1.382 1_545 S
C913 C914 1.376 . S
C914 H901 0.930 . S
C914 C913 1.376 . S
C914 C915 1.388 . S
C915 H902 0.930 . S
C915 C914 1.388 . S
C915 C916 1.390 . S
C916 C915 1.390 . S
C916 C917 1.394 . S
C916 C922 1.465 . S
C917 C912 1.394 1_545 S
C917 C916 1.394 . S
C917 C918 1.516 1_545 S
C918 C917 1.516 1_565 S
C918 C919 1.502 . S
C918 C920 1.561 . S
C918 C921 1.507 1_565 S
C919 H903 0.959 . S
C919 H904 0.959 . S
C919 H905 0.961 . S
C919 C918 1.502 . S
C920 H906 0.960 . S
C920 H907 0.961 . S
C920 H908 0.959 . S
C920 C918 1.561 . S
C921 C918 1.507 1_545 S
C921 C922 1.425 . S
C921 C926 1.384 1_545 S
C922 C916 1.465 . S
C922 C921 1.425 . S
C922 C923 1.399 . S
C923 H909 0.929 . S
C923 C922 1.399 . S
C923 C924 1.385 . S
C924 H910 0.931 . S
C924 C923 1.385 . S
C924 C925 1.389 . S
C925 C924 1.389 . S
C925 C926 1.387 1_545 S
C926 H911 0.930 . S
C926 C921 1.384 1_565 S
C926 C925 1.387 1_565 S
H927 C939 0.930 . S
H928 C941 0.930 . S
H929 C942 0.930 . S
H930 C946 0.959 . S
H931 C946 0.959 . S
H932 C946 0.961 . S
H933 C947 0.960 . S
H934 C947 0.961 . S
H935 C947 0.959 . S
H936 C950 0.929 . S
H937 C951 0.931 . S
H938 C953 0.930 . S
C939 H927 0.930 . S
C939 C940 1.399 . S
C939 C944 1.399 . S
C940 C939 1.399 . S
C940 C941 1.376 . S
C941 H928 0.930 . S
C941 C940 1.376 . S
C941 C942 1.388 . S
C942 H929 0.930 . S
C942 C941 1.388 . S
C942 C943 1.390 . S
C943 C942 1.390 . S
C943 C944 1.394 . S
C943 C949 1.465 . S
C944 C939 1.399 . S
C944 C943 1.394 . S
C944 C945 1.516 . S
C945 C944 1.516 . S
C945 C946 1.502 . S
C945 C947 1.561 . S
C945 C948 1.526 . S
C946 H930 0.959 . S
C946 H931 0.959 . S
C946 H932 0.961 . S
C946 C945 1.502 . S
C947 H933 0.960 . S
C947 H934 0.961 . S
C947 H935 0.959 . S
C947 C945 1.561 . S
C948 C945 1.526 . S
C948 C949 1.396 . S
C948 C953 1.390 1_556 S
C949 C943 1.465 . S
C949 C948 1.396 . S
C949 C950 1.399 . S
C950 H936 0.929 . S
C950 C949 1.399 . S
C950 C951 1.385 1_556 S
C951 H937 0.931 . S
C951 C950 1.385 1_554 S
C951 C952 1.389 . S
C952 C951 1.389 . S
C952 C953 1.387 . S
C953 H938 0.930 . S
C953 C948 1.390 1_554 S
C953 C952 1.387 . S
H954 C966 0.930 . S
H955 C968 0.930 . S
H956 C969 0.930 . S
H957 C973 0.959 . S
H958 C973 0.959 . S
H959 C973 0.961 . S
H960 C974 0.960 . S
H961 C974 0.961 . S
H962 C974 0.959 . S
H963 C977 0.929 . S
H964 C978 0.931 . S
H965 C980 0.930 . S
C966 H954 0.930 . S
C966 C967 1.399 . S
C966 C971 1.399 . S
C967 C966 1.399 . S
C967 C968 1.376 . S
C968 H955 0.930 . S
C968 C967 1.376 . S
C968 C969 1.388 . S
C969 H956 0.930 . S
C969 C968 1.388 . S
C969 C970 1.390 . S
C970 C969 1.390 . S
C970 C971 1.394 . S
C970 C976 1.465 . S
C971 C966 1.399 . S
C971 C970 1.394 . S
C971 C972 1.516 . S
C972 C971 1.516 . S
C972 C973 1.502 . S
C972 C974 1.561 . S
C972 C975 1.526 . S
C973 H957 0.959 . S
C973 H958 0.959 . S
C973 H959 0.961 . S
C973 C972 1.502 . S
C974 H960 0.960 . S
C974 H961 0.961 . S
C974 H962 0.959 . S
C974 C972 1.561 . S
C975 C972 1.526 . S
C975 C976 1.396 . S
C975 C980 1.390 1_556 S
C976 C970 1.465 . S
C976 C975 1.396 . S
C976 C977 1.399 . S
C977 H963 0.929 . S
C977 C976 1.399 . S
C977 C978 1.385 1_556 S
C978 H964 0.931 . S
C978 C977 1.385 1_554 S
C978 C979 1.389 . S
C979 C978 1.389 . S
C979 C980 1.387 . S
C980 H965 0.930 . S
C980 C975 1.390 1_554 S
C980 C979 1.387 . S
H981 C993 0.930 . S
H982 C995 0.930 . S
H983 C996 0.930 . S
H984 C1000 0.959 . S
H985 C1000 0.959 . S
H986 C1000 0.961 . S
H987 C1001 0.960 . S
H988 C1001 0.961 . S
H989 C1001 0.959 . S
H990 C1004 0.929 . S
H991 C1005 0.931 . S
H992 C1007 0.930 . S
C993 H981 0.930 . S
C993 C994 1.399 . S
C993 C998 1.399 . S
C994 C993 1.399 . S
C994 C995 1.376 . S
C995 H982 0.930 . S
C995 C994 1.376 . S
C995 C996 1.388 . S
C996 H983 0.930 . S
C996 C995 1.388 . S
C996 C997 1.390 . S
C997 C996 1.390 . S
C997 C998 1.394 . S
C997 C1003 1.465 . S
C998 C993 1.399 . S
C998 C997 1.394 . S
C998 C999 1.516 . S
C999 C998 1.516 . S
C999 C1000 1.502 . S
C999 C1001 1.561 . S
C999 C1002 1.526 . S
C1000 H984 0.959 . S
C1000 H985 0.959 . S
C1000 H986 0.961 . S
C1000 C999 1.502 . S
C1001 H987 0.960 . S
C1001 H988 0.961 . S
C1001 H989 0.959 . S
C1001 C999 1.561 . S
C1002 C999 1.526 . S
C1002 C1003 1.396 . S
C1002 C1007 1.390 1_556 S
C1003 C997 1.465 . S
C1003 C1002 1.396 . S
C1003 C1004 1.399 . S
C1004 H990 0.929 . S
C1004 C1003 1.399 . S
C1004 C1005 1.385 1_556 S
C1005 H991 0.931 . S
C1005 C1004 1.385 1_554 S
C1005 C1006 1.389 . S
C1006 C1005 1.389 . S
C1006 C1007 1.387 . S
C1007 H992 0.930 . S
C1007 C1002 1.390 1_554 S
C1007 C1006 1.387 . S
H1008 C1020 0.930 . S
H1009 C1022 0.930 . S
H1010 C1023 0.930 . S
H1011 C1027 0.959 . S
H1012 C1027 0.959 . S
H1013 C1027 0.961 . S
H1014 C1028 0.960 . S
H1015 C1028 0.961 . S
H1016 C1028 0.959 . S
H1017 C1031 0.929 . S
H1018 C1032 0.931 . S
H1019 C1034 0.930 . S
C1020 H1008 0.930 . S
C1020 C1021 1.399 . S
C1020 C1025 1.399 . S
C1021 C1020 1.399 . S
C1021 C1022 1.376 . S
C1022 H1009 0.930 . S
C1022 C1021 1.376 . S
C1022 C1023 1.388 . S
C1023 H1010 0.930 . S
C1023 C1022 1.388 . S
C1023 C1024 1.390 . S
C1024 C1023 1.390 . S
C1024 C1025 1.394 . S
C1024 C1030 1.465 . S
C1025 C1020 1.399 . S
C1025 C1024 1.394 . S
C1025 C1026 1.516 . S
C1026 C1025 1.516 . S
C1026 C1027 1.502 . S
C1026 C1028 1.561 . S
C1026 C1029 1.526 . S
C1027 H1011 0.959 . S
C1027 H1012 0.959 . S
C1027 H1013 0.961 . S
C1027 C1026 1.502 . S
C1028 H1014 0.960 . S
C1028 H1015 0.961 . S
C1028 H1016 0.959 . S
C1028 C1026 1.561 . S
C1029 C1026 1.526 . S
C1029 C1030 1.396 . S
C1029 C1034 1.390 1_554 S
C1030 C1024 1.465 . S
C1030 C1029 1.396 . S
C1030 C1031 1.399 . S
C1031 H1017 0.929 . S
C1031 C1030 1.399 . S
C1031 C1032 1.385 1_554 S
C1032 H1018 0.931 . S
C1032 C1031 1.385 1_556 S
C1032 C1033 1.389 . S
C1033 C1032 1.389 . S
C1033 C1034 1.387 . S
C1034 H1019 0.930 . S
C1034 C1029 1.390 1_556 S
C1034 C1033 1.387 . S
H1035 C1047 0.930 . S
H1036 C1049 0.930 . S
H1037 C1050 0.930 . S
H1038 C1054 0.959 . S
H1039 C1054 0.959 . S
H1040 C1054 0.961 . S
H1041 C1055 0.960 . S
H1042 C1055 0.961 . S
H1043 C1055 0.959 . S
H1044 C1058 0.929 . S
H1045 C1059 0.931 . S
H1046 C1061 0.930 . S
C1047 H1035 0.930 . S
C1047 C1048 1.399 . S
C1047 C1052 1.399 1_556 S
C1048 C1047 1.399 . S
C1048 C1049 1.376 . S
C1049 H1036 0.930 . S
C1049 C1048 1.376 . S
C1049 C1050 1.388 1_556 S
C1050 H1037 0.930 . S
C1050 C1049 1.388 1_554 S
C1050 C1051 1.390 . S
C1051 C1050 1.390 . S
C1051 C1052 1.394 . S
C1051 C1057 1.465 . S
C1052 C1047 1.399 1_554 S
C1052 C1051 1.394 . S
C1052 C1053 1.516 . S
C1053 C1052 1.516 . S
C1053 C1054 1.502 . S
C1053 C1055 1.561 . S
C1053 C1056 1.526 . S
C1054 H1038 0.959 . S
C1054 H1039 0.959 . S
C1054 H1040 0.961 . S
C1054 C1053 1.502 . S
C1055 H1041 0.960 . S
C1055 H1042 0.961 . S
C1055 H1043 0.959 . S
C1055 C1053 1.561 . S
C1056 C1053 1.526 . S
C1056 C1057 1.396 . S
C1056 C1061 1.390 . S
C1057 C1051 1.465 . S
C1057 C1056 1.396 . S
C1057 C1058 1.399 . S
C1058 H1044 0.929 . S
C1058 C1057 1.399 . S
C1058 C1059 1.385 . S
C1059 H1045 0.931 . S
C1059 C1058 1.385 . S
C1059 C1060 1.389 . S
C1060 C1059 1.389 . S
C1060 C1061 1.387 . S
C1061 H1046 0.930 . S
C1061 C1056 1.390 . S
C1061 C1060 1.387 . S
H1062 C1074 0.930 . S
H1063 C1076 0.930 . S
H1064 C1077 0.930 . S
H1065 C1081 0.959 . S
H1066 C1081 0.959 . S
H1067 C1081 0.961 . S
H1068 C1082 0.960 . S
H1069 C1082 0.961 . S
H1070 C1082 0.959 . S
H1071 C1085 0.929 . S
H1072 C1086 0.931 . S
H1073 C1088 0.930 . S
C1074 H1062 0.930 . S
C1074 C1075 1.399 . S
C1074 C1079 1.399 . S
C1075 C1074 1.399 . S
C1075 C1076 1.376 . S
C1076 H1063 0.930 . S
C1076 C1075 1.376 . S
C1076 C1077 1.388 . S
C1077 H1064 0.930 . S
C1077 C1076 1.388 . S
C1077 C1078 1.390 . S
C1078 C1077 1.390 . S
C1078 C1079 1.394 . S
C1078 C1084 1.465 . S
C1079 C1074 1.399 . S
C1079 C1078 1.394 . S
C1079 C1080 1.516 . S
C1080 C1079 1.516 . S
C1080 C1081 1.502 . S
C1080 C1082 1.561 . S
C1080 C1083 1.526 . S
C1081 H1065 0.959 . S
C1081 H1066 0.959 . S
C1081 H1067 0.961 . S
C1081 C1080 1.502 . S
C1082 H1068 0.960 . S
C1082 H1069 0.961 . S
C1082 H1070 0.959 . S
C1082 C1080 1.561 . S
C1083 C1080 1.526 . S
C1083 C1084 1.396 . S
C1083 C1088 1.390 1_554 S
C1084 C1078 1.465 . S
C1084 C1083 1.396 . S
C1084 C1085 1.399 . S
C1085 H1071 0.929 . S
C1085 C1084 1.399 . S
C1085 C1086 1.385 1_554 S
C1086 H1072 0.931 . S
C1086 C1085 1.385 1_556 S
C1086 C1087 1.389 . S
C1087 C1086 1.389 . S
C1087 C1088 1.387 . S
C1088 H1073 0.930 . S
C1088 C1083 1.390 1_556 S
C1088 C1087 1.387 . S
C373 C26 1.704 . S
C385 C293 1.724 . S
C400 C66 1.709 . S
C412 C333 1.720 . S
C427 C106 1.699 . S
C439 C253 1.725 . S
C454 C186 1.701 . S
C466 C93 1.726 . S
C481 C226 1.741 . S
C493 C13 1.660 . S
C508 C53 1.665 . S
C520 C146 1.747 . S
C535 C306 1.718 . S
C547 C213 1.683 . S
C562 C346 1.700 . S
C574 C133 1.725 . S
C589 C173 1.722 . S
C601 C266 1.698 1_545 S
C616 C97 1.556 . S
C628 C24 1.558 . S
C643 C64 1.558 . S
C655 C17 1.563 . S
C670 C57 1.560 1_455 S
C682 C104 1.558 . S
C697 C144 1.557 . S
C709 C217 1.543 . S
C724 C137 1.551 . S
C736 C184 1.557 . S
C751 C177 1.558 . S
C763 C224 1.558 . S
C778 C337 1.558 . S
C790 C264 1.559 . S
C805 C304 1.557 . S
C817 C257 1.563 . S
C832 C344 1.557 . S
C844 C297 1.543 . S
C859 C23 0.980 . S
C871 C2 1.074 . S
C886 C63 1.014 . S
C898 C42 1.020 . S
C913 C103 0.976 . S
C925 C82 1.063 . S
C940 C122 1.052 . S
C952 C143 0.986 . S
C967 C162 0.971 . S
C979 C183 1.073 . S
C994 C202 1.017 . S
C1006 C223 1.017 . S
C1021 C263 1.071 . S
C1033 C242 0.973 . S
C1048 C282 1.077 . S
C1060 C303 0.976 . S
C1075 C343 0.981 . S
C1087 C322 1.056 . S
