# Generated by pormake.
# Topology sml, (6)-cn, num edge types: 1
# Building blocks:
#     Node 0, Type 0, BuildingBlock: HISSIN_clean_sbu_0, # of connection points: 6
#     Node 1, Type 0, BuildingBlock: HISSIN_clean_sbu_0, # of connection points: 6
#     Node 2, Type 0, BuildingBlock: HISSIN_clean_sbu_0, # of connection points: 6
#     Node 3, Type 0, BuildingBlock: HISSIN_clean_sbu_0, # of connection points: 6
#     Node 4, Type 0, BuildingBlock: HISSIN_clean_sbu_0, # of connection points: 6
#     Node 5, Type 0, BuildingBlock: HISSIN_clean_sbu_0, # of connection points: 6
#     Edge 6, Type (0, 0), BuildingBlock: EZIPEK_clean_linker_0, # of connection points: 2
#     Edge 7, Type (0, 0), BuildingBlock: EZIPEK_clean_linker_0, # of connection points: 2
#     Edge 8, Type (0, 0), BuildingBlock: EZIPEK_clean_linker_0, # of connection points: 2
#     Edge 9, Type (0, 0), BuildingBlock: EZIPEK_clean_linker_0, # of connection points: 2
#     Edge 10, Type (0, 0), BuildingBlock: EZIPEK_clean_linker_0, # of connection points: 2
#     Edge 11, Type (0, 0), BuildingBlock: EZIPEK_clean_linker_0, # of connection points: 2
#     Edge 12, Type (0, 0), BuildingBlock: EZIPEK_clean_linker_0, # of connection points: 2
#     Edge 13, Type (0, 0), BuildingBlock: EZIPEK_clean_linker_0, # of connection points: 2
#     Edge 14, Type (0, 0), BuildingBlock: EZIPEK_clean_linker_0, # of connection points: 2
#     Edge 15, Type (0, 0), BuildingBlock: EZIPEK_clean_linker_0, # of connection points: 2
#     Edge 16, Type (0, 0), BuildingBlock: EZIPEK_clean_linker_0, # of connection points: 2
#     Edge 17, Type (0, 0), BuildingBlock: EZIPEK_clean_linker_0, # of connection points: 2
#     Edge 18, Type (0, 0), BuildingBlock: EZIPEK_clean_linker_0, # of connection points: 2
#     Edge 19, Type (0, 0), BuildingBlock: EZIPEK_clean_linker_0, # of connection points: 2
#     Edge 20, Type (0, 0), BuildingBlock: EZIPEK_clean_linker_0, # of connection points: 2
#     Edge 21, Type (0, 0), BuildingBlock: EZIPEK_clean_linker_0, # of connection points: 2
#     Edge 22, Type (0, 0), BuildingBlock: EZIPEK_clean_linker_0, # of connection points: 2
#     Edge 23, Type (0, 0), BuildingBlock: EZIPEK_clean_linker_0, # of connection points: 2
# Relax obj value: 0.242
# Max RMSD: 0.270
# Mean RMSD: 0.270
data_MOF--net-sml--node1-HISSIN_clean_sbu_0--edge1-EZIPEK_clean_linker_0
_symmetry_space_group_name_H-M    P1
_symmetry_Int_Tables_number       1
_symmetry_cell_setting            triclinic
loop_
_symmetry_equiv_pos_as_xyz
'x, y, z'
_cell_length_a     22.839435
_cell_length_b     22.544956
_cell_length_c     19.932039
_cell_angle_alpha  89.328406
_cell_angle_beta   90.451651
_cell_angle_gamma 120.03612
loop_
_atom_site_label
_atom_site_type_symbol
_atom_site_fract_x
_atom_site_fract_y
_atom_site_fract_z
_atom_type_partial_charge
Eu0 Eu 0.18339 0.37566 0.23681 0.0
Eu1 Eu 0.08646 0.38269 0.11454 0.0
C2 C 0.14441 0.49146 0.23351 0.0
C3 C 0.2184 0.36759 0.41383 0.0
C4 C 0.15476 0.3622 0.42034 0.0
C5 C 0.23084 0.37477 0.53534 0.0
C6 C 0.12929 0.36292 0.48322 0.0
C7 C 0.25656 0.3739 0.47168 0.0
C8 C 0.1669 0.36928 0.54116 0.0
C9 C 0.24368 0.36929 0.34569 0.0
O10 O 0.1866 0.4115 0.06885 0.0
O11 O 0.25499 0.45393 0.16164 0.0
C12 C 0.24553 0.45182 0.09628 0.0
O13 O 0.18224 0.30692 0.15686 0.0
O14 O 0.07427 0.44511 1.03751 0.0
O15 O -0.00132 0.33763 0.04768 0.0
O16 O 0.08083 0.27993 0.10744 0.0
C17 C 0.12995 0.26681 0.11921 0.0
O18 O 0.07431 0.29954 0.25693 0.0
O19 O 0.02075 0.35059 0.20678 0.0
O20 O 0.13536 0.48449 0.16836 0.0
O21 O 0.20511 0.31569 0.30931 0.0
O22 O 0.26234 0.42631 0.31267 0.0
O23 O 0.14524 0.44391 0.27069 0.0
C24 C 0.03112 0.38424 0.93726 0.0
C25 C 0.0265 0.3241 0.91287 0.0
C26 C 0.06387 0.43443 0.82564 0.0
C27 C 0.03942 0.31881 0.84548 0.0
C28 C 0.05128 0.43983 0.89323 0.0
C29 C 0.05344 0.37194 0.79846 0.0
C30 C 0.02316 0.39248 1.00958 0.0
C31 C 0.02558 0.31423 0.25617 0.0
H32 H 0.12476 0.35793 0.37649 0.0
H33 H 0.26047 0.37961 0.57978 0.0
H34 H 0.08015 0.35889 0.48681 0.0
H35 H 0.30594 0.37852 0.4676 0.0
H36 H 0.01501 0.28165 0.94635 0.0
H37 H 0.08453 0.48115 0.7966 0.0
H38 H 0.04078 0.2733 0.8322 0.0
H39 H 0.05915 0.48839 0.91151 0.0
Eu40 Eu 0.7301 0.13523 0.52382 0.0
Eu41 Eu 0.81494 0.24949 0.64273 0.0
C42 C 0.76265 0.28718 0.5079 0.0
C43 C 0.69712 0.08024 0.34875 0.0
C44 C 0.76464 0.13009 0.33496 0.0
C45 C 0.66894 0.08483 0.23156 0.0
C46 C 0.78406 0.15717 0.27033 0.0
C47 C 0.64941 0.0577 0.29654 0.0
C48 C 0.73632 0.1352 0.2183 0.0
C49 C 0.6758 0.05952 0.4189 0.0
O50 O 0.71345 0.17266 0.68204 0.0
O51 O 0.65272 0.14581 0.58497 0.0
C52 C 0.65752 0.1565 0.64994 0.0
O53 O 0.73252 0.07619 0.61334 0.0
O54 O 0.81509 0.32228 0.71409 0.0
O55 O 0.89668 0.29994 0.71587 0.0
O56 O 0.8326 0.16022 0.65721 0.0
C57 C 0.78567 0.09562 0.65222 0.0
O58 O 0.842 0.17916 0.50847 0.0
O59 O 0.8862 0.28489 0.55551 0.0
O60 O 0.76678 0.29366 0.57353 0.0
O61 O 0.71898 0.05351 0.45776 0.0
O62 O 0.65042 0.09323 0.44774 0.0
O63 O 0.76621 0.2379 0.47828 0.0
C64 C 0.84915 0.30295 0.81899 0.0
C65 C 0.80273 0.23377 0.83268 0.0
C66 C 0.86109 0.325 0.93878 0.0
C67 C 0.78598 0.21017 0.89855 0.0
C68 C 0.87754 0.34881 0.87235 0.0
C69 C 0.81546 0.25537 0.95215 0.0
C70 C 0.86535 0.32561 0.74864 0.0
C71 C 0.8889 0.24427 0.51061 0.0
H72 H 0.8021 0.14964 0.37464 0.0
H73 H 0.63137 0.06764 0.19197 0.0
H74 H 0.83607 0.19631 0.2611 0.0
H75 H 0.59687 0.02051 0.30638 0.0
H76 H 0.77949 0.19774 0.79225 0.0
H77 H 0.88391 0.36062 0.97971 0.0
H78 H 0.75038 0.15642 0.90779 0.0
H79 H 0.91228 0.40264 0.86269 0.0
Eu80 Eu 0.548 0.8097 0.91237 0.0
Eu81 Eu 0.54817 0.70678 0.79358 0.0
C82 C 0.44509 0.64962 0.91625 0.0
C83 C 0.53099 0.85675 0.08649 0.0
C84 C 0.48769 0.78788 0.10505 0.0
C85 C 0.56502 0.88296 0.2034 0.0
C86 C 0.48349 0.76669 0.17176 0.0
C87 C 0.56897 0.90436 0.13638 0.0
C88 C 0.52292 0.81378 0.2212 0.0
C89 C 0.54122 0.87685 1.01477 0.0
O90 O 0.52891 0.78529 0.74565 0.0
O91 O 0.47385 0.80151 0.8321 0.0
C92 C 0.48639 0.80293 0.76782 0.0
O93 O 0.62317 0.87864 0.8356 0.0
O94 O 0.48545 0.62734 0.72207 0.0
O95 O 0.59408 0.67219 0.71871 0.0
O96 O 0.65166 0.80104 0.79558 0.0
C97 C 0.66318 0.86394 0.80134 0.0
O98 O 0.62571 0.78067 0.94081 0.0
O99 O 0.59023 0.67959 0.88334 0.0
O100 O 0.44974 0.64837 0.85082 0.0
O101 O 0.59843 0.88834 0.98906 0.0
O102 O 0.49006 0.84039 0.97508 0.0
O103 O 0.48856 0.70232 0.95099 0.0
C104 C 0.53508 0.65551 0.6146 0.0
C105 C 0.59402 0.70487 0.58169 0.0
C106 C 0.46903 0.65379 0.51689 0.0
C107 C 0.5903 0.72984 0.51816 0.0
C108 C 0.47265 0.62929 0.58081 0.0
C109 C 0.52772 0.70522 0.48561 0.0
C110 C 0.53704 0.63706 0.68617 0.0
C111 C 0.62456 0.72246 0.93184 0.0
H112 H 0.45877 0.74976 0.06769 0.0
H113 H 0.5966 0.91962 0.24089 0.0
H114 H 0.45135 0.71299 0.18446 0.0
H115 H 0.60338 0.95744 0.12314 0.0
H116 H 0.64305 0.72551 0.60557 0.0
H117 H 0.42034 0.63349 0.49228 0.0
H118 H 0.63633 0.76879 0.49445 0.0
H119 H 0.42626 0.59113 0.60461 0.0
Eu120 Eu 0.78954 0.54806 0.17176 0.0
Eu121 Eu 0.69858 0.56924 0.29004 0.0
C122 C 0.62873 0.48873 0.15432 0.0
C123 C 0.82957 0.52645 0.99615 0.0
C124 C 0.81734 0.5773 0.96933 0.0
C125 C 0.80034 0.4696 0.88779 0.0
C126 C 0.79633 0.574 0.90285 0.0
C127 C 0.82134 0.47284 0.95466 0.0
C128 C 0.78685 0.5198 0.8619 0.0
C129 C 0.84531 0.52653 0.06836 0.0
O130 O 0.69044 0.46706 0.302 0.0
O131 O 0.79473 0.49351 0.26579 0.0
C132 C 0.74345 0.46012 0.30658 0.0
O133 O 0.8703 0.63545 0.22981 0.0
O134 O 0.61125 0.52176 0.35695 0.0
O135 O 0.6902 0.62658 0.37344 0.0
O136 O 0.80746 0.62428 0.32386 0.0
C137 C 0.86518 0.65065 0.29182 0.0
O138 O 0.75922 0.62191 0.13055 0.0
O139 O 0.72049 0.65614 0.22044 0.0
O140 O 0.62789 0.52941 0.20069 0.0
O141 O 0.8709 0.58553 0.09839 0.0
O142 O 0.79868 0.47689 0.1045 0.0
O143 O 0.67894 0.47636 0.14925 0.0
C144 C 0.64836 0.55529 0.46911 0.0
C145 C 0.65079 0.49528 0.48391 0.0
C146 C 0.68143 0.59223 0.58433 0.0
C147 C 0.66914 0.48434 0.54808 0.0
C148 C 0.66315 0.60319 0.52012 0.0
C149 C 0.68557 0.53326 0.59837 0.0
C150 C 0.63874 0.57226 0.39938 0.0
C151 C 0.73619 0.65935 0.15692 0.0
H152 H 0.82224 0.61881 1.00016 0.0
H153 H 0.79328 0.42739 0.85672 0.0
H154 H 0.78606 0.61307 0.88369 0.0
H155 H 0.82969 0.4328 0.9745 0.0
H156 H 0.64091 0.4579 0.44537 0.0
H157 H 0.69429 0.63067 0.62252 0.0
H158 H 0.67258 0.43881 0.55792 0.0
H159 H 0.66314 0.65034 0.50943 0.0
Eu160 Eu 0.17296 0.7517 0.56085 0.0
Eu161 Eu 0.26296 0.86788 0.4439 0.0
C162 C 0.33035 0.81017 0.54602 0.0
C163 C 0.1377 0.69502 0.73932 0.0
C164 C 0.2062 0.73797 0.7564 0.0
C165 C 0.10697 0.70016 0.85502 0.0
C166 C 0.22481 0.76198 0.82201 0.0
C167 C 0.08836 0.67569 0.7894 0.0
C168 C 0.17526 0.74417 0.87157 0.0
C169 C 0.11736 0.67769 0.66829 0.0
O170 O 0.2427 0.76569 0.40719 0.0
O171 O 0.14607 0.69017 0.46493 0.0
C172 C 0.18791 0.70563 0.41393 0.0
O173 O 0.10796 0.79216 0.5193 0.0
O174 O 0.34317 0.90718 0.36827 0.0
O175 O 0.27635 0.9491 0.3745 0.0
O176 O 0.15307 0.81387 0.41483 0.0
C177 C 0.10155 0.79627 0.45458 0.0
O178 O 0.24078 0.85086 0.61122 0.0
O179 O 0.2527 0.92811 0.52889 0.0
O180 O 0.33773 0.86708 0.51906 0.0
O181 O 0.09537 0.71472 0.63886 0.0
O182 O 0.15879 0.66944 0.62999 0.0
O183 O 0.27091 0.75472 0.54387 0.0
C184 C 0.29746 0.92076 0.26655 0.0
C185 C 0.22864 0.87706 0.2512 0.0
C186 C 0.32536 0.9115 0.15071 0.0
C187 C 0.20851 0.8503 0.18675 0.0
C188 C 0.34563 0.93808 0.21557 0.0
C189 C 0.25669 0.86663 0.13616 0.0
C190 C 0.3187 0.94131 0.33701 0.0
C191 C 0.2518 0.91136 0.59255 0.0
H192 H 0.24524 0.75477 0.71853 0.0
H193 H 0.06803 0.68606 0.89254 0.0
H194 H 0.27768 0.79616 0.83366 0.0
H195 H 0.03529 0.64348 0.77724 0.0
H196 H 0.19032 0.86199 0.2895 0.0
H197 H 0.3633 0.92473 0.11228 0.0
H198 H 0.15538 0.81572 0.17662 0.0
H199 H 0.39894 0.9709 0.2263 0.0
Eu200 Eu 0.36246 0.23614 0.83145 0.0
Eu201 Eu 0.38778 0.15344 0.95541 0.0
C202 C 0.4747 0.19111 0.82189 0.0
C203 C 0.33962 0.26447 0.65425 0.0
C204 C 0.31558 0.19414 0.64606 0.0
C205 C 0.36575 0.28225 0.53498 0.0
C206 C 0.31701 0.16819 0.58344 0.0
C207 C 0.36422 0.30841 0.59816 0.0
C208 C 0.34294 0.21205 0.52773 0.0
C209 C 0.34675 0.29148 0.72267 0.0
O210 O 0.40795 0.25461 0.99591 0.0
O211 O 0.44109 0.31717 0.89919 0.0
C212 C 0.43799 0.31409 0.965 0.0
O213 O 0.29598 0.23299 0.91567 0.0
O214 O 0.45368 0.15553 1.03652 0.0
O215 O 0.35628 0.06444 1.021 0.0
O216 O 0.28133 0.13383 0.96464 0.0
C217 C 0.26405 0.18095 0.95734 0.0
O218 O 0.28872 0.12369 0.81786 0.0
O219 O 0.34743 0.07929 0.87002 0.0
O220 O 0.47898 0.19254 0.88765 0.0
O221 O 0.29708 0.25405 0.76378 0.0
O222 O 0.40574 0.31175 0.75028 0.0
O223 O 0.42578 0.19445 0.79082 0.0
C224 C 0.39225 0.09756 0.13356 0.0
C225 C 0.32697 0.07927 0.15446 0.0
C226 C 0.43138 0.13113 0.24805 0.0
C227 C 0.31399 0.0869 0.22116 0.0
C228 C 0.44451 0.1242 0.18096 0.0
C229 C 0.36479 0.10859 0.27125 0.0
C230 C 0.40764 0.09694 0.06165 0.0
C231 C 0.30131 0.07331 0.82661 0.0
H232 H 0.29761 0.15939 0.68862 0.0
H233 H 0.38601 0.31673 0.49229 0.0
H234 H 0.29943 0.11397 0.57871 0.0
H235 H 0.38396 0.36293 0.6036 0.0
H236 H 0.28604 0.06226 0.11856 0.0
H237 H 0.47491 0.15701 0.2805 0.0
H238 H 0.26428 0.07885 0.23048 0.0
H239 H 0.49616 0.14196 0.16569 0.0
C240 C 0.21871 0.17834 0.07236 0.0
C241 C 0.21129 0.1788 1.00135 0.0
C242 C 0.11555 0.19815 1.01517 0.0
C243 C 0.13295 0.21086 0.08378 0.0
N244 N 0.17027 0.17582 0.1809 0.0
N245 N 0.14622 0.17743 0.90484 0.0
C246 C 0.17361 0.18717 0.11326 0.0
C247 C 0.15681 0.184 0.97261 0.0
N248 N 0.27301 0.17784 0.10092 0.0
N249 N 0.05806 0.19588 0.99223 0.0
H250 H 0.1724 0.16194 0.8735 0.0
H251 H 0.11276 0.18835 0.87934 0.0
H252 H 0.02356 0.19779 1.02476 0.0
H253 H 0.04021 0.18384 0.94327 0.0
H254 H 0.28497 0.1872 0.15166 0.0
H255 H 0.31021 0.17513 0.07381 0.0
H256 H 0.19479 0.15319 0.20533 0.0
H257 H 0.13672 0.18256 0.21084 0.0
C258 C -0.02227 0.34811 0.35366 0.0
C259 C -0.01673 0.29669 0.31782 0.0
C260 C 0.9512 0.22546 0.4195 0.0
C261 C 0.93666 0.27177 0.45266 0.0
N262 N 0.94084 0.38147 0.45178 0.0
N263 N 0.9587 0.17974 0.31304 0.0
C264 C 0.95176 0.33448 0.42019 0.0
C265 C -0.03504 0.23336 0.34986 0.0
N266 N 0.00053 0.41173 0.3263 0.0
N267 N 0.9537 0.1748 0.45538 0.0
H268 H -0.03494 0.18286 0.26105 0.0
H269 H 0.93969 0.1305 0.33282 0.0
H270 H 0.94782 0.17056 0.50744 0.0
H271 H -0.03051 0.14283 0.43486 0.0
H272 H 0.01064 0.45456 0.35434 0.0
H273 H 0.01059 0.42293 0.27583 0.0
H274 H 0.93452 0.4184 0.42605 0.0
H275 H 0.94193 0.38646 0.50355 0.0
C276 C 0.79531 0.04376 0.76171 0.0
C277 C 0.78984 0.04143 0.69072 0.0
C278 C 0.72212 0.91751 0.69282 0.0
C279 C 0.71924 0.91988 0.76389 0.0
N280 N 0.77198 -0.02138 0.86602 0.0
N281 N 0.7802 -0.02168 0.59149 0.0
C282 C 0.76287 -0.01893 0.79842 0.0
C283 C 0.76532 -0.02145 0.65763 0.0
N284 N 0.82803 0.10506 0.79385 0.0
N285 N 0.67897 0.85989 0.65817 0.0
H286 H 0.81153 0.02384 0.56546 0.0
H287 H 0.76751 0.93365 0.56538 0.0
H288 H 0.64441 0.81389 0.68085 0.0
H289 H 0.67388 0.85939 0.60615 0.0
H290 H 0.82649 0.11033 0.8455 0.0
H291 H 0.85714 0.15121 0.76861 0.0
H292 H 0.80652 0.02044 0.89401 0.0
H293 H 0.74895 0.9325 0.89302 0.0
C294 C 0.61389 0.65698 1.0352 0.0
C295 C 0.65646 0.70285 0.98515 0.0
C296 C 0.75521 0.73302 0.05625 0.0
C297 C 0.71129 0.69129 0.1082 0.0
N298 N 0.59752 0.6343 0.15354 0.0
N299 N 0.76706 0.79128 0.9497 0.0
C300 C 0.64026 0.66014 0.09996 0.0
C301 C 0.72715 0.74325 0.99628 0.0
N302 N 0.54834 0.60957 1.02099 0.0
N303 N 0.82351 0.76161 0.06413 0.0
H304 H 0.74844 0.79664 0.90339 0.0
H305 H 0.81762 0.82749 0.95808 0.0
H306 H 0.84519 0.75878 0.10951 0.0
H307 H 0.85809 0.78577 1.02543 0.0
H308 H 0.5172 0.57069 0.0544 0.0
H309 H 0.52797 0.60366 0.97316 0.0
H310 H 0.54578 0.61635 0.14976 0.0
H311 H 0.614 0.63889 0.2029 0.0
C312 C -0.00461 0.68984 0.42544 0.0
C313 C 0.03364 0.76243 0.42351 0.0
C314 C 0.95791 0.76321 0.3358 0.0
C315 C 0.92726 0.69101 0.33154 0.0
N316 N 0.93303 0.5895 0.3578 0.0
N317 N 0.05494 0.86928 0.37358 0.0
C318 C 0.95043 0.65533 0.37232 0.0
C319 C 0.01585 0.79959 0.37768 0.0
N320 N 0.00218 0.65322 0.47692 0.0
N321 N 0.93159 0.79665 0.3003 0.0
H322 H 0.09521 0.89739 0.40632 0.0
H323 H 0.04929 0.89863 0.33611 0.0
H324 H 0.8908 0.77142 0.26741 0.0
H325 H 0.94762 0.84839 0.30641 0.0
H326 H -0.02885 0.60035 0.48192 0.0
H327 H 0.03272 0.67555 0.51856 0.0
H328 H 0.95384 0.56328 0.38245 0.0
H329 H 0.90484 0.56464 0.31554 0.0
C330 C 0.31515 -0.01215 0.75941 0.0
C331 C 0.27584 0.01841 0.7746 0.0
C332 C 0.21697 -0.02214 0.66614 0.0
C333 C 0.26631 0.96053 0.64721 0.0
N334 N 0.37101 0.9632 0.67135 0.0
N335 N 0.17787 0.02851 0.749 0.0
C336 C 0.31833 0.97051 0.69246 0.0
C337 C 0.22318 0.00935 0.72964 0.0
N338 N 0.34503 0.97004 0.80908 0.0
N339 N 0.16295 0.96141 0.62487 0.0
H340 H 0.17368 0.03952 0.79887 0.0
H341 H 0.14416 0.03265 0.71655 0.0
H342 H 0.15829 0.94039 0.57747 0.0
H343 H 0.12153 0.9662 0.63793 0.0
H344 H 0.37028 0.94318 0.79975 0.0
H345 H 0.33522 0.9719 0.85975 0.0
H346 H 0.41288 0.97483 0.70154 0.0
H347 H 0.37589 0.95339 0.62135 0.0
C348 C 0.08827 0.42101 0.6786 0.0
C349 C 0.06598 0.36518 0.72434 0.0
C350 C 0.10029 0.30696 0.64351 0.0
C351 C 0.13691 0.36928 0.60703 0.0
N352 N 0.16704 0.4876 0.59091 0.0
N353 N 0.00516 0.24217 0.7167 0.0
C354 C 0.13133 0.42697 0.62494 0.0
C355 C 0.059 0.3036 0.69803 0.0
N356 N 0.05847 0.46044 0.67853 0.0
N357 N 0.1043 0.25069 0.62608 0.0
H358 H -0.03268 0.23947 0.74766 0.0
H359 H -0.00688 0.19585 0.69433 0.0
H360 H 0.1322 0.25022 0.58512 0.0
H361 H 0.08394 0.2063 0.65553 0.0
H362 H 0.06849 0.49809 0.64233 0.0
H363 H 0.01647 0.44791 0.70853 0.0
H364 H 0.16868 0.5325 0.60623 0.0
H365 H 0.19941 0.49417 0.55128 0.0
C366 C 0.79658 0.14948 0.10909 0.0
C367 C 0.7571 0.16681 0.15034 0.0
C368 C 0.75514 0.24215 0.0614 0.0
C369 C 0.7985 0.22843 1.02207 0.0
N370 N 0.87052 0.17915 1.01269 0.0
N371 N 0.70919 0.23885 0.17152 0.0
C372 C 0.82222 0.18504 0.04725 0.0
C373 C 0.73937 0.21587 0.12813 0.0
N374 N 0.80763 0.0974 0.12803 0.0
N375 N 0.7269 0.27799 1.03413 0.0
H376 H 0.69663 0.22055 0.22062 0.0
H377 H 0.70178 0.27995 0.16083 0.0
H378 H 0.73731 0.29826 0.98555 0.0
H379 H 0.68909 0.28308 0.05759 0.0
H380 H 0.82966 0.07727 0.09691 0.0
H381 H 0.78964 0.07017 0.17297 0.0
H382 H 0.89513 0.15421 1.03172 0.0
H383 H 0.89042 0.20435 0.9672 0.0
C384 C 0.49242 0.77212 0.40866 0.0
C385 C 0.52448 0.73238 0.41785 0.0
C386 C 0.56277 0.75497 0.30105 0.0
C387 C 0.5251 0.78854 0.2899 0.0
N388 N 0.44593 0.82103 0.33001 0.0
N389 N 0.57604 0.67273 0.36829 0.0
C390 C 0.48744 0.7948 0.34286 0.0
C391 C 0.55583 0.72022 0.36277 0.0
N392 N 0.46912 0.79045 0.46298 0.0
N393 N 0.60674 0.75774 0.25334 0.0
H394 H 0.56965 0.64441 0.4121 0.0
H395 H 0.59212 0.65635 0.32733 0.0
H396 H 0.61282 0.78184 0.20683 0.0
H397 H 0.64192 0.74206 0.26273 0.0
H398 H 0.45138 0.82486 0.46009 0.0
H399 H 0.47283 0.77583 0.51194 0.0
H400 H 0.41136 0.81969 0.36463 0.0
H401 H 0.44243 0.83955 0.28281 0.0
C402 C 0.80737 0.55341 0.74001 0.0
C403 C 0.76126 0.51588 0.79225 0.0
C404 C 0.66523 0.48827 0.71718 0.0
C405 C 0.71132 0.52497 0.66463 0.0
N406 N 0.82521 0.58386 0.62167 0.0
N407 N 0.64753 0.43809 0.82903 0.0
C408 C 0.78217 0.55482 0.67478 0.0
C409 C 0.69045 0.48017 0.7802 0.0
N410 N 0.87522 0.58951 0.75355 0.0
N411 N 0.59753 0.46324 0.70737 0.0
H412 H 0.66419 0.43202 0.87612 0.0
H413 H 0.59596 0.40552 0.82184 0.0
H414 H 0.57725 0.46668 0.66138 0.0
H415 H 0.56165 0.44267 0.74542 0.0
H416 H 0.91125 0.62456 0.72044 0.0
H417 H 0.89562 0.58703 0.79982 0.0
H418 H 0.87644 0.59935 0.62334 0.0
H419 H 0.8089 0.58878 0.57401 0.0
C420 C 0.2033 0.73711 0.99319 0.0
C421 C 0.19474 0.77464 0.93995 0.0
C422 C 0.2207 0.86942 1.01678 0.0
C423 C 0.23493 0.83465 0.06853 0.0
N424 N 0.24011 0.73609 0.10818 0.0
N425 N 0.1988 0.87759 0.89856 0.0
C426 C 0.22612 0.76846 0.05732 0.0
C427 C 0.20449 0.84116 0.95111 0.0
N428 N 0.18923 0.67145 0.98209 0.0
N429 N 0.21987 0.92809 1.03142 0.0
H430 H 0.18414 0.85771 0.85044 0.0
H431 H 0.21235 0.92896 0.90121 0.0
H432 H 0.23083 0.94957 0.07907 0.0
H433 H 0.20333 0.95276 0.99843 0.0
H434 H 0.1888 0.63835 1.01906 0.0
H435 H 0.17488 0.64817 0.93528 0.0
H436 H 0.23717 0.68886 0.10397 0.0
H437 H 0.25675 0.75749 0.15549 0.0
C438 C 0.40401 0.17424 0.45058 0.0
C439 C 0.3477 0.18301 0.46291 0.0
C440 C 0.28962 0.11097 0.36643 0.0
C441 C 0.35142 0.11659 0.3448 0.0
N442 N 0.44316 0.10673 0.39335 0.0
N443 N 0.23645 0.16092 0.43104 0.0
C444 C 0.40253 0.13505 0.39454 0.0
C445 C 0.29048 0.15198 0.42021 0.0
N446 N 0.45936 0.2041 0.4917 0.0
N447 N 0.22933 0.05761 0.34565 0.0
H448 H 0.23466 0.18995 0.47055 0.0
H449 H 0.19624 0.14406 0.39724 0.0
H450 H 0.22672 0.01713 0.3184 0.0
H451 H 0.18286 0.04784 0.36457 0.0
H452 H 0.50453 0.20535 0.48078 0.0
H453 H 0.46193 0.23231 0.53387 0.0
H454 H 0.47694 0.11272 0.43167 0.0
H455 H 0.43634 0.06992 0.35811 0.0
C456 C 0.21959 0.58597 0.30862 0.0
C457 C 0.16101 0.55586 0.26755 0.0
C458 C 0.12661 0.63379 0.31387 0.0
C459 C 0.17751 0.65342 0.36385 0.0
N460 N 0.27329 0.64845 0.40932 0.0
N461 N 0.05844 0.55147 0.22898 0.0
C462 C 0.22459 0.62997 0.36101 0.0
C463 C 0.11474 0.58042 0.26881 0.0
N464 N 0.27142 0.57383 0.29605 0.0
N465 N 0.09203 0.66841 0.30729 0.0
H466 H 0.04961 0.5147 0.19304 0.0
H467 H 0.01856 0.56101 0.23428 0.0
H468 H 0.10094 0.70891 0.33825 0.0
H469 H 0.05951 0.66154 0.26745 0.0
H470 H 0.31844 0.59978 0.31955 0.0
H471 H 0.26992 0.54294 0.25685 0.0
H472 H 0.30352 0.6262 0.41485 0.0
H473 H 0.28053 0.68302 0.44692 0.0
C474 C 0.57846 0.11729 0.74796 0.0
C475 C 0.60302 0.15785 0.68863 0.0
C476 C 0.55288 0.22645 0.72401 0.0
C477 C 0.52322 0.18222 0.7801 0.0
N478 N 0.49795 0.07764 0.83908 0.0
N479 N 0.60336 0.24393 0.61437 0.0
C480 C 0.53342 0.12553 0.79058 0.0
C481 C 0.5865 0.20974 0.67453 0.0
N482 N 0.5989 0.07131 0.76416 0.0
N483 N 0.55216 0.28671 0.71984 0.0
H484 H 0.63003 0.23583 0.57713 0.0
H485 H 0.58555 0.27631 0.59875 0.0
H486 H 0.53023 0.30216 0.75631 0.0
H487 H 0.57949 0.32481 0.68432 0.0
H488 H 0.59044 0.04722 0.81087 0.0
H489 H 0.62777 0.05993 0.73217 0.0
H490 H 0.4972 0.03119 0.84341 0.0
H491 H 0.46453 0.08111 0.87176 0.0
C492 C 0.31475 0.5706 0.05118 0.0
C493 C 0.29949 0.50141 0.05135 0.0
C494 C 0.37565 0.52611 0.95545 0.0
C495 C 0.38751 0.59432 0.95366 0.0
N496 N 0.35171 0.67389 0.98542 0.0
N497 N 0.30783 0.40997 0.9991 0.0
C498 C 0.35207 0.6142 0.99735 0.0
C499 C 0.32738 0.478 1.00172 0.0
N500 N 0.29424 0.59536 0.10256 0.0
N501 N 0.41229 0.50809 0.91523 0.0
H502 H 0.2762 0.37435 1.03487 0.0
H503 H 0.32015 0.38807 0.95993 0.0
H504 H 0.44686 0.54129 0.87985 0.0
H505 H 0.41158 0.4617 0.91959 0.0
H506 H 0.31333 0.64759 0.10964 0.0
H507 H 0.26361 0.56495 0.14154 0.0
H508 H 0.32208 0.68843 1.01232 0.0
H509 H 0.37575 0.70544 0.94404 0.0
C510 C 0.70068 0.30349 0.41308 0.0
C511 C 0.75051 0.33317 0.46437 0.0
C512 C 0.78274 0.44634 0.42037 0.0
C513 C 0.74516 0.41618 0.36105 0.0
N514 N 0.66667 0.31503 0.30045 0.0
N515 N 0.84344 0.43439 0.51409 0.0
C516 C 0.70332 0.34429 0.35727 0.0
C517 C 0.79268 0.40508 0.46768 0.0
N518 N 0.64954 0.23709 0.41919 0.0
N519 N 0.8048 0.51327 0.43408 0.0
H520 H 0.85311 0.40668 0.55021 0.0
H521 H 0.87983 0.48625 0.513 0.0
H522 H 0.79121 0.54248 0.40446 0.0
H523 H 0.82824 0.53651 0.47896 0.0
H524 H 0.60855 0.21431 0.38639 0.0
H525 H 0.64407 0.20728 0.46163 0.0
H526 H 0.63938 0.26233 0.29295 0.0
H527 H 0.66723 0.34364 0.25867 0.0
C528 C 0.36143 0.74842 0.63126 0.0
C529 C 0.38147 0.80933 0.5934 0.0
C530 C 0.47618 0.8698 0.67222 0.0
C531 C 0.44519 0.81226 0.71638 0.0
N532 N 0.35143 0.69974 0.74149 0.0
N533 N 0.46918 0.92584 0.57018 0.0
C534 C 0.38495 0.75304 0.69743 0.0
C535 C 0.44231 0.86979 0.6116 0.0
N536 N 0.32497 0.68575 0.60212 0.0
N537 N 0.53918 0.92286 0.68708 0.0
H538 H 0.4546 0.92333 0.52017 0.0
H539 H 0.50685 0.97436 0.58489 0.0
H540 H 0.56336 0.92566 0.73256 0.0
H541 H 0.56867 0.96228 0.65359 0.0
H542 H 0.31327 0.64007 0.62676 0.0
H543 H 0.31632 0.68065 0.55063 0.0
H544 H 0.30421 0.65761 0.73053 0.0
H545 H 0.36734 0.70095 0.79088 0.0
C546 C 0.58695 0.47086 1.03439 0.0
C547 C 0.57273 0.45661 0.10433 0.0
C548 C 0.45569 0.37193 0.07603 0.0
C549 C 0.47471 0.37639 1.0079 0.0
N550 N 0.54166 0.45653 0.92148 0.0
N551 N 0.49177 0.39442 0.1921 0.0
C552 C 0.53529 0.43405 0.98636 0.0
C553 C 0.50596 0.40878 0.12542 0.0
N554 N 0.65043 0.51759 1.01334 0.0
N555 N 0.38881 0.33458 0.09232 0.0
H556 H 0.52717 0.41959 0.22994 0.0
H557 H 0.44617 0.35426 0.20988 0.0
H558 H 0.35165 0.3118 0.05532 0.0
H559 H 0.36994 0.33313 0.14006 0.0
H560 H 0.66562 0.52352 0.96345 0.0
H561 H 0.68921 0.54783 0.04605 0.0
H562 H 0.58233 0.50236 0.90423 0.0
H563 H 0.50174 0.4351 0.88737 0.0
loop_
_geom_bond_atom_site_label_1
_geom_bond_atom_site_label_2
_geom_bond_distance
_geom_bond_site_symmetry_2
_ccdc_geom_bond_type
Eu0 C9 2.828 . S
Eu0 O11 2.392 . S
Eu0 O13 2.418 . S
Eu0 O18 2.373 . S
Eu0 O21 2.488 . S
Eu0 O22 2.471 . S
Eu0 O23 2.349 . S
Eu1 O10 2.373 . S
Eu1 O14 2.488 1_554 S
Eu1 O15 2.471 1_554 S
Eu1 O16 2.349 . S
Eu1 O19 2.392 . S
Eu1 O20 2.418 . S
Eu1 C30 2.828 1_554 S
C2 O20 1.244 . S
C2 O23 1.265 . S
C3 C4 1.379 . S
C3 C7 1.373 . S
C3 C9 1.505 . S
C4 C3 1.379 . S
C4 C6 1.369 . S
C4 H32 0.930 . S
C5 C7 1.383 . S
C5 C8 1.382 . S
C5 H33 0.930 . S
C6 C4 1.369 . S
C6 C8 1.392 . S
C6 H34 0.930 . S
C7 C3 1.373 . S
C7 C5 1.383 . S
C7 H35 0.931 . S
C8 C5 1.382 . S
C8 C6 1.392 . S
C9 Eu0 2.828 . S
C9 C3 1.505 . S
C9 O21 1.249 . S
C9 O22 1.244 . S
O10 Eu1 2.373 . S
O10 C12 1.258 . S
O11 Eu0 2.392 . S
O11 C12 1.242 . S
C12 O10 1.258 . S
C12 O11 1.242 . S
O13 Eu0 2.418 . S
O13 C17 1.244 . S
O14 Eu1 2.488 1_556 S
O14 C30 1.249 . S
O15 Eu1 2.471 1_556 S
O15 C30 1.244 . S
O16 Eu1 2.349 . S
O16 C17 1.265 . S
C17 O13 1.244 . S
C17 O16 1.265 . S
O18 Eu0 2.373 . S
O18 C31 1.258 . S
O19 Eu1 2.392 . S
O19 C31 1.242 . S
O20 Eu1 2.418 . S
O20 C2 1.244 . S
O21 Eu0 2.488 . S
O21 C9 1.249 . S
O22 Eu0 2.471 . S
O22 C9 1.244 . S
O23 Eu0 2.349 . S
O23 C2 1.265 . S
C24 C25 1.379 . S
C24 C28 1.373 . S
C24 C30 1.505 . S
C25 C24 1.379 . S
C25 C27 1.369 . S
C25 H36 0.930 . S
C26 C28 1.383 . S
C26 C29 1.382 . S
C26 H37 0.930 . S
C27 C25 1.369 . S
C27 C29 1.392 . S
C27 H38 0.930 . S
C28 C24 1.373 . S
C28 C26 1.383 . S
C28 H39 0.931 . S
C29 C26 1.382 . S
C29 C27 1.392 . S
C30 Eu1 2.828 1_556 S
C30 O14 1.249 . S
C30 O15 1.244 . S
C30 C24 1.505 . S
C31 O18 1.258 . S
C31 O19 1.242 . S
H32 C4 0.930 . S
H33 C5 0.930 . S
H34 C6 0.930 . S
H35 C7 0.931 . S
H36 C25 0.930 . S
H37 C26 0.930 . S
H38 C27 0.930 . S
H39 C28 0.931 . S
Eu40 C49 2.828 . S
Eu40 O51 2.392 . S
Eu40 O53 2.418 . S
Eu40 O58 2.373 . S
Eu40 O61 2.488 . S
Eu40 O62 2.471 . S
Eu40 O63 2.349 . S
Eu41 O50 2.373 . S
Eu41 O54 2.488 . S
Eu41 O55 2.471 . S
Eu41 O56 2.349 . S
Eu41 O59 2.392 . S
Eu41 O60 2.418 . S
Eu41 C70 2.828 . S
C42 O60 1.244 . S
C42 O63 1.265 . S
C43 C44 1.379 . S
C43 C47 1.373 . S
C43 C49 1.505 . S
C44 C43 1.379 . S
C44 C46 1.369 . S
C44 H72 0.930 . S
C45 C47 1.383 . S
C45 C48 1.382 . S
C45 H73 0.930 . S
C46 C44 1.369 . S
C46 C48 1.392 . S
C46 H74 0.930 . S
C47 C43 1.373 . S
C47 C45 1.383 . S
C47 H75 0.931 . S
C48 C45 1.382 . S
C48 C46 1.392 . S
C49 Eu40 2.828 . S
C49 C43 1.505 . S
C49 O61 1.249 . S
C49 O62 1.244 . S
O50 Eu41 2.373 . S
O50 C52 1.258 . S
O51 Eu40 2.392 . S
O51 C52 1.242 . S
C52 O50 1.258 . S
C52 O51 1.242 . S
O53 Eu40 2.418 . S
O53 C57 1.244 . S
O54 Eu41 2.488 . S
O54 C70 1.249 . S
O55 Eu41 2.471 . S
O55 C70 1.244 . S
O56 Eu41 2.349 . S
O56 C57 1.265 . S
C57 O53 1.244 . S
C57 O56 1.265 . S
O58 Eu40 2.373 . S
O58 C71 1.258 . S
O59 Eu41 2.392 . S
O59 C71 1.242 . S
O60 Eu41 2.418 . S
O60 C42 1.244 . S
O61 Eu40 2.488 . S
O61 C49 1.249 . S
O62 Eu40 2.471 . S
O62 C49 1.244 . S
O63 Eu40 2.349 . S
O63 C42 1.265 . S
C64 C65 1.379 . S
C64 C68 1.373 . S
C64 C70 1.505 . S
C65 C64 1.379 . S
C65 C67 1.369 . S
C65 H76 0.930 . S
C66 C68 1.383 . S
C66 C69 1.382 . S
C66 H77 0.930 . S
C67 C65 1.369 . S
C67 C69 1.392 . S
C67 H78 0.930 . S
C68 C64 1.373 . S
C68 C66 1.383 . S
C68 H79 0.931 . S
C69 C66 1.382 . S
C69 C67 1.392 . S
C70 Eu41 2.828 . S
C70 O54 1.249 . S
C70 O55 1.244 . S
C70 C64 1.505 . S
C71 O58 1.258 . S
C71 O59 1.242 . S
H72 C44 0.930 . S
H73 C45 0.930 . S
H74 C46 0.930 . S
H75 C47 0.931 . S
H76 C65 0.930 . S
H77 C66 0.930 . S
H78 C67 0.930 . S
H79 C68 0.931 . S
Eu80 C89 2.828 . S
Eu80 O91 2.392 . S
Eu80 O93 2.418 . S
Eu80 O98 2.373 . S
Eu80 O101 2.488 . S
Eu80 O102 2.471 . S
Eu80 O103 2.349 . S
Eu81 O90 2.373 . S
Eu81 O94 2.488 . S
Eu81 O95 2.471 . S
Eu81 O96 2.349 . S
Eu81 O99 2.392 . S
Eu81 O100 2.418 . S
Eu81 C110 2.828 . S
C82 O100 1.244 . S
C82 O103 1.265 . S
C83 C84 1.379 . S
C83 C87 1.373 . S
C83 C89 1.505 1_554 S
C84 C83 1.379 . S
C84 C86 1.369 . S
C84 H112 0.930 . S
C85 C87 1.383 . S
C85 C88 1.382 . S
C85 H113 0.930 . S
C86 C84 1.369 . S
C86 C88 1.392 . S
C86 H114 0.930 . S
C87 C83 1.373 . S
C87 C85 1.383 . S
C87 H115 0.931 . S
C88 C85 1.382 . S
C88 C86 1.392 . S
C89 Eu80 2.828 . S
C89 C83 1.505 1_556 S
C89 O101 1.249 . S
C89 O102 1.244 . S
O90 Eu81 2.373 . S
O90 C92 1.258 . S
O91 Eu80 2.392 . S
O91 C92 1.242 . S
C92 O90 1.258 . S
C92 O91 1.242 . S
O93 Eu80 2.418 . S
O93 C97 1.244 . S
O94 Eu81 2.488 . S
O94 C110 1.249 . S
O95 Eu81 2.471 . S
O95 C110 1.244 . S
O96 Eu81 2.349 . S
O96 C97 1.265 . S
C97 O93 1.244 . S
C97 O96 1.265 . S
O98 Eu80 2.373 . S
O98 C111 1.258 . S
O99 Eu81 2.392 . S
O99 C111 1.242 . S
O100 Eu81 2.418 . S
O100 C82 1.244 . S
O101 Eu80 2.488 . S
O101 C89 1.249 . S
O102 Eu80 2.471 . S
O102 C89 1.244 . S
O103 Eu80 2.349 . S
O103 C82 1.265 . S
C104 C105 1.379 . S
C104 C108 1.373 . S
C104 C110 1.505 . S
C105 C104 1.379 . S
C105 C107 1.369 . S
C105 H116 0.930 . S
C106 C108 1.383 . S
C106 C109 1.382 . S
C106 H117 0.930 . S
C107 C105 1.369 . S
C107 C109 1.392 . S
C107 H118 0.930 . S
C108 C104 1.373 . S
C108 C106 1.383 . S
C108 H119 0.931 . S
C109 C106 1.382 . S
C109 C107 1.392 . S
C110 Eu81 2.828 . S
C110 O94 1.249 . S
C110 O95 1.244 . S
C110 C104 1.505 . S
C111 O98 1.258 . S
C111 O99 1.242 . S
H112 C84 0.930 . S
H113 C85 0.930 . S
H114 C86 0.930 . S
H115 C87 0.931 . S
H116 C105 0.930 . S
H117 C106 0.930 . S
H118 C107 0.930 . S
H119 C108 0.931 . S
Eu120 C129 2.828 . S
Eu120 O131 2.392 . S
Eu120 O133 2.418 . S
Eu120 O138 2.373 . S
Eu120 O141 2.488 . S
Eu120 O142 2.471 . S
Eu120 O143 2.349 . S
Eu121 O130 2.373 . S
Eu121 O134 2.488 . S
Eu121 O135 2.471 . S
Eu121 O136 2.349 . S
Eu121 O139 2.392 . S
Eu121 O140 2.418 . S
Eu121 C150 2.828 . S
C122 O140 1.244 . S
C122 O143 1.265 . S
C123 C124 1.379 . S
C123 C127 1.373 . S
C123 C129 1.505 1_556 S
C124 C123 1.379 . S
C124 C126 1.369 . S
C124 H152 0.930 . S
C125 C127 1.383 . S
C125 C128 1.382 . S
C125 H153 0.930 . S
C126 C124 1.369 . S
C126 C128 1.392 . S
C126 H154 0.930 . S
C127 C123 1.373 . S
C127 C125 1.383 . S
C127 H155 0.931 . S
C128 C125 1.382 . S
C128 C126 1.392 . S
C129 Eu120 2.828 . S
C129 C123 1.505 1_554 S
C129 O141 1.249 . S
C129 O142 1.244 . S
O130 Eu121 2.373 . S
O130 C132 1.258 . S
O131 Eu120 2.392 . S
O131 C132 1.242 . S
C132 O130 1.258 . S
C132 O131 1.242 . S
O133 Eu120 2.418 . S
O133 C137 1.244 . S
O134 Eu121 2.488 . S
O134 C150 1.249 . S
O135 Eu121 2.471 . S
O135 C150 1.244 . S
O136 Eu121 2.349 . S
O136 C137 1.265 . S
C137 O133 1.244 . S
C137 O136 1.265 . S
O138 Eu120 2.373 . S
O138 C151 1.258 . S
O139 Eu121 2.392 . S
O139 C151 1.242 . S
O140 Eu121 2.418 . S
O140 C122 1.244 . S
O141 Eu120 2.488 . S
O141 C129 1.249 . S
O142 Eu120 2.471 . S
O142 C129 1.244 . S
O143 Eu120 2.349 . S
O143 C122 1.265 . S
C144 C145 1.379 . S
C144 C148 1.373 . S
C144 C150 1.505 . S
C145 C144 1.379 . S
C145 C147 1.369 . S
C145 H156 0.930 . S
C146 C148 1.383 . S
C146 C149 1.382 . S
C146 H157 0.930 . S
C147 C145 1.369 . S
C147 C149 1.392 . S
C147 H158 0.930 . S
C148 C144 1.373 . S
C148 C146 1.383 . S
C148 H159 0.931 . S
C149 C146 1.382 . S
C149 C147 1.392 . S
C150 Eu121 2.828 . S
C150 O134 1.249 . S
C150 O135 1.244 . S
C150 C144 1.505 . S
C151 O138 1.258 . S
C151 O139 1.242 . S
H152 C124 0.930 . S
H153 C125 0.930 . S
H154 C126 0.930 . S
H155 C127 0.931 . S
H156 C145 0.930 . S
H157 C146 0.930 . S
H158 C147 0.930 . S
H159 C148 0.931 . S
Eu160 C169 2.828 . S
Eu160 O171 2.392 . S
Eu160 O173 2.418 . S
Eu160 O178 2.373 . S
Eu160 O181 2.488 . S
Eu160 O182 2.471 . S
Eu160 O183 2.349 . S
Eu161 O170 2.373 . S
Eu161 O174 2.488 . S
Eu161 O175 2.471 . S
Eu161 O176 2.349 . S
Eu161 O179 2.392 . S
Eu161 O180 2.418 . S
Eu161 C190 2.828 . S
C162 O180 1.244 . S
C162 O183 1.265 . S
C163 C164 1.379 . S
C163 C167 1.373 . S
C163 C169 1.505 . S
C164 C163 1.379 . S
C164 C166 1.369 . S
C164 H192 0.930 . S
C165 C167 1.383 . S
C165 C168 1.382 . S
C165 H193 0.930 . S
C166 C164 1.369 . S
C166 C168 1.392 . S
C166 H194 0.930 . S
C167 C163 1.373 . S
C167 C165 1.383 . S
C167 H195 0.931 . S
C168 C165 1.382 . S
C168 C166 1.392 . S
C169 Eu160 2.828 . S
C169 C163 1.505 . S
C169 O181 1.249 . S
C169 O182 1.244 . S
O170 Eu161 2.373 . S
O170 C172 1.258 . S
O171 Eu160 2.392 . S
O171 C172 1.242 . S
C172 O170 1.258 . S
C172 O171 1.242 . S
O173 Eu160 2.418 . S
O173 C177 1.244 . S
O174 Eu161 2.488 . S
O174 C190 1.249 . S
O175 Eu161 2.471 . S
O175 C190 1.244 . S
O176 Eu161 2.349 . S
O176 C177 1.265 . S
C177 O173 1.244 . S
C177 O176 1.265 . S
O178 Eu160 2.373 . S
O178 C191 1.258 . S
O179 Eu161 2.392 . S
O179 C191 1.242 . S
O180 Eu161 2.418 . S
O180 C162 1.244 . S
O181 Eu160 2.488 . S
O181 C169 1.249 . S
O182 Eu160 2.471 . S
O182 C169 1.244 . S
O183 Eu160 2.349 . S
O183 C162 1.265 . S
C184 C185 1.379 . S
C184 C188 1.373 . S
C184 C190 1.505 . S
C185 C184 1.379 . S
C185 C187 1.369 . S
C185 H196 0.930 . S
C186 C188 1.383 . S
C186 C189 1.382 . S
C186 H197 0.930 . S
C187 C185 1.369 . S
C187 C189 1.392 . S
C187 H198 0.930 . S
C188 C184 1.373 . S
C188 C186 1.383 . S
C188 H199 0.931 . S
C189 C186 1.382 . S
C189 C187 1.392 . S
C190 Eu161 2.828 . S
C190 O174 1.249 . S
C190 O175 1.244 . S
C190 C184 1.505 . S
C191 O178 1.258 . S
C191 O179 1.242 . S
H192 C164 0.930 . S
H193 C165 0.930 . S
H194 C166 0.930 . S
H195 C167 0.931 . S
H196 C185 0.930 . S
H197 C186 0.930 . S
H198 C187 0.930 . S
H199 C188 0.931 . S
Eu200 C209 2.828 . S
Eu200 O211 2.392 . S
Eu200 O213 2.418 . S
Eu200 O218 2.373 . S
Eu200 O221 2.488 . S
Eu200 O222 2.471 . S
Eu200 O223 2.349 . S
Eu201 O210 2.373 . S
Eu201 O214 2.488 1_556 S
Eu201 O215 2.471 1_556 S
Eu201 O216 2.349 . S
Eu201 O219 2.392 . S
Eu201 O220 2.418 . S
Eu201 C230 2.828 1_556 S
C202 O220 1.244 . S
C202 O223 1.265 . S
C203 C204 1.379 . S
C203 C207 1.373 . S
C203 C209 1.505 . S
C204 C203 1.379 . S
C204 C206 1.369 . S
C204 H232 0.930 . S
C205 C207 1.383 . S
C205 C208 1.382 . S
C205 H233 0.930 . S
C206 C204 1.369 . S
C206 C208 1.392 . S
C206 H234 0.930 . S
C207 C203 1.373 . S
C207 C205 1.383 . S
C207 H235 0.931 . S
C208 C205 1.382 . S
C208 C206 1.392 . S
C209 Eu200 2.828 . S
C209 C203 1.505 . S
C209 O221 1.249 . S
C209 O222 1.244 . S
O210 Eu201 2.373 . S
O210 C212 1.258 . S
O211 Eu200 2.392 . S
O211 C212 1.242 . S
C212 O210 1.258 . S
C212 O211 1.242 . S
O213 Eu200 2.418 . S
O213 C217 1.244 . S
O214 Eu201 2.488 1_554 S
O214 C230 1.249 . S
O215 Eu201 2.471 1_554 S
O215 C230 1.244 . S
O216 Eu201 2.349 . S
O216 C217 1.265 . S
C217 O213 1.244 . S
C217 O216 1.265 . S
O218 Eu200 2.373 . S
O218 C231 1.258 . S
O219 Eu201 2.392 . S
O219 C231 1.242 . S
O220 Eu201 2.418 . S
O220 C202 1.244 . S
O221 Eu200 2.488 . S
O221 C209 1.249 . S
O222 Eu200 2.471 . S
O222 C209 1.244 . S
O223 Eu200 2.349 . S
O223 C202 1.265 . S
C224 C225 1.379 . S
C224 C228 1.373 . S
C224 C230 1.505 . S
C225 C224 1.379 . S
C225 C227 1.369 . S
C225 H236 0.930 . S
C226 C228 1.383 . S
C226 C229 1.382 . S
C226 H237 0.930 . S
C227 C225 1.369 . S
C227 C229 1.392 . S
C227 H238 0.930 . S
C228 C224 1.373 . S
C228 C226 1.383 . S
C228 H239 0.931 . S
C229 C226 1.382 . S
C229 C227 1.392 . S
C230 Eu201 2.828 1_554 S
C230 O214 1.249 . S
C230 O215 1.244 . S
C230 C224 1.505 . S
C231 O218 1.258 . S
C231 O219 1.242 . S
H232 C204 0.930 . S
H233 C205 0.930 . S
H234 C206 0.930 . S
H235 C207 0.931 . S
H236 C225 0.930 . S
H237 C226 0.930 . S
H238 C227 0.930 . S
H239 C228 0.931 . S
C240 C241 1.363 1_554 S
C240 C246 1.379 . S
C240 N248 1.356 . S
C241 C240 1.363 1_556 S
C241 C247 1.363 . S
C242 C243 1.363 1_556 S
C242 C247 1.379 . S
C242 N249 1.356 . S
C243 C242 1.363 1_554 S
C243 C246 1.363 . S
N244 C246 1.356 . S
N244 H256 0.984 . S
N244 H257 0.985 . S
N245 C247 1.356 . S
N245 H250 0.984 . S
N245 H251 0.985 . S
C246 C240 1.379 . S
C246 C243 1.363 . S
C246 N244 1.356 . S
C247 C241 1.363 . S
C247 C242 1.379 . S
C247 N245 1.356 . S
N248 C240 1.356 . S
N248 H254 0.984 . S
N248 H255 0.984 1_554 S
N249 C242 1.356 . S
N249 H252 0.984 1_556 S
N249 H253 0.985 . S
H250 N245 0.984 . S
H251 N245 0.985 . S
H252 N249 0.984 1_554 S
H253 N249 0.985 . S
H254 N248 0.984 . S
H255 N248 0.984 1_556 S
H256 N244 0.984 . S
H257 N244 0.985 . S
C258 C259 1.363 . S
C258 C264 1.379 . S
C258 N266 1.356 . S
C259 C258 1.363 . S
C259 C265 1.363 1_455 S
C260 C261 1.363 . S
C260 C265 1.379 . S
C260 N267 1.356 . S
C261 C260 1.363 . S
C261 C264 1.363 1_655 S
N262 C264 1.356 . S
N262 H274 0.984 . S
N262 H275 0.985 . S
N263 C265 1.356 . S
N263 H268 0.984 . S
N263 H269 0.985 . S
C264 C258 1.379 . S
C264 C261 1.363 1_455 S
C264 N262 1.356 . S
C265 C259 1.363 1_655 S
C265 C260 1.379 . S
C265 N263 1.356 . S
N266 C258 1.356 . S
N266 H272 0.984 . S
N266 H273 0.984 . S
N267 C260 1.356 . S
N267 H270 0.984 . S
N267 H271 0.985 . S
H268 N263 0.984 . S
H269 N263 0.985 . S
H270 N267 0.984 . S
H271 N267 0.985 . S
H272 N266 0.984 . S
H273 N266 0.984 . S
H274 N262 0.984 . S
H275 N262 0.985 . S
C276 C277 1.363 . S
C276 C282 1.387 . S
C276 N284 1.356 . S
C277 C276 1.363 . S
C277 C283 1.357 1_545 S
C278 C279 1.363 . S
C278 C283 1.387 . S
C278 N285 1.356 . S
C279 C278 1.363 . S
C279 C282 1.357 1_565 S
N280 C282 1.351 1_565 S
N280 H292 0.984 1_565 S
N280 H293 0.985 . S
N281 C283 1.351 1_545 S
N281 H286 0.984 . S
N281 H287 0.985 1_545 S
C282 C276 1.387 . S
C282 C279 1.357 1_545 S
C282 N280 1.351 1_545 S
C283 C277 1.357 1_565 S
C283 C278 1.387 . S
C283 N281 1.351 1_565 S
N284 C276 1.356 . S
N284 H290 0.984 . S
N284 H291 0.984 . S
N285 C278 1.356 . S
N285 H288 0.984 . S
N285 H289 0.985 . S
H286 N281 0.984 . S
H287 N281 0.985 1_565 S
H288 N285 0.984 . S
H289 N285 0.985 . S
H290 N284 0.984 . S
H291 N284 0.984 . S
H292 N280 0.984 1_545 S
H293 N280 0.985 . S
C294 C295 1.363 . S
C294 C300 1.379 1_556 S
C294 N302 1.356 . S
C295 C294 1.363 . S
C295 C301 1.363 . S
C296 C297 1.363 . S
C296 C301 1.379 1_554 S
C296 N303 1.356 . S
C297 C296 1.363 . S
C297 C300 1.363 . S
N298 C300 1.356 . S
N298 H310 0.984 . S
N298 H311 0.985 . S
N299 C301 1.356 . S
N299 H304 0.984 . S
N299 H305 0.985 . S
C300 C294 1.379 1_554 S
C300 C297 1.363 . S
C300 N298 1.356 . S
C301 C295 1.363 . S
C301 C296 1.379 1_556 S
C301 N299 1.356 . S
N302 C294 1.356 . S
N302 H308 0.984 . S
N302 H309 0.984 . S
N303 C296 1.356 . S
N303 H306 0.984 . S
N303 H307 0.985 . S
H304 N299 0.984 . S
H305 N299 0.985 . S
H306 N303 0.984 . S
H307 N303 0.985 . S
H308 N302 0.984 . S
H309 N302 0.984 . S
H310 N298 0.984 . S
H311 N298 0.985 . S
C312 C313 1.363 . S
C312 C318 1.379 1_455 S
C312 N320 1.356 . S
C313 C312 1.363 . S
C313 C319 1.363 . S
C314 C315 1.363 . S
C314 C319 1.379 1_655 S
C314 N321 1.356 . S
C315 C314 1.363 . S
C315 C318 1.363 . S
N316 C318 1.356 . S
N316 H328 0.984 . S
N316 H329 0.985 . S
N317 C319 1.356 . S
N317 H322 0.984 . S
N317 H323 0.985 . S
C318 C312 1.379 1_655 S
C318 C315 1.363 . S
C318 N316 1.356 . S
C319 C313 1.363 . S
C319 C314 1.379 1_455 S
C319 N317 1.356 . S
N320 C312 1.356 . S
N320 H326 0.984 . S
N320 H327 0.984 . S
N321 C314 1.356 . S
N321 H324 0.984 . S
N321 H325 0.985 . S
H322 N317 0.984 . S
H323 N317 0.985 . S
H324 N321 0.984 . S
H325 N321 0.985 . S
H326 N320 0.984 . S
H327 N320 0.984 . S
H328 N316 0.984 . S
H329 N316 0.985 . S
C330 C331 1.363 1_565 S
C330 C336 1.379 . S
C330 N338 1.356 . S
C331 C330 1.363 1_545 S
C331 C337 1.363 . S
C332 C333 1.363 1_545 S
C332 C337 1.379 . S
C332 N339 1.356 . S
C333 C332 1.363 1_565 S
C333 C336 1.363 . S
N334 C336 1.356 . S
N334 H346 0.984 . S
N334 H347 0.985 . S
N335 C337 1.356 . S
N335 H340 0.984 . S
N335 H341 0.985 . S
C336 C330 1.379 . S
C336 C333 1.363 . S
C336 N334 1.356 . S
C337 C331 1.363 . S
C337 C332 1.379 . S
C337 N335 1.356 . S
N338 C330 1.356 . S
N338 H344 0.984 . S
N338 H345 0.984 . S
N339 C332 1.356 . S
N339 H342 0.984 . S
N339 H343 0.985 . S
H340 N335 0.984 . S
H341 N335 0.985 . S
H342 N339 0.984 . S
H343 N339 0.985 . S
H344 N338 0.984 . S
H345 N338 0.984 . S
H346 N334 0.984 . S
H347 N334 0.985 . S
C348 C349 1.363 . S
C348 C354 1.379 . S
C348 N356 1.356 . S
C349 C348 1.363 . S
C349 C355 1.363 . S
C350 C351 1.363 . S
C350 C355 1.379 . S
C350 N357 1.356 . S
C351 C350 1.363 . S
C351 C354 1.363 . S
N352 C354 1.356 . S
N352 H364 0.984 . S
N352 H365 0.985 . S
N353 C355 1.356 . S
N353 H358 0.984 . S
N353 H359 0.985 . S
C354 C348 1.379 . S
C354 C351 1.363 . S
C354 N352 1.356 . S
C355 C349 1.363 . S
C355 C350 1.379 . S
C355 N353 1.356 . S
N356 C348 1.356 . S
N356 H362 0.984 . S
N356 H363 0.984 . S
N357 C350 1.356 . S
N357 H360 0.984 . S
N357 H361 0.985 . S
H358 N353 0.984 . S
H359 N353 0.985 . S
H360 N357 0.984 . S
H361 N357 0.985 . S
H362 N356 0.984 . S
H363 N356 0.984 . S
H364 N352 0.984 . S
H365 N352 0.985 . S
C366 C367 1.363 . S
C366 C372 1.379 . S
C366 N374 1.356 . S
C367 C366 1.363 . S
C367 C373 1.363 . S
C368 C369 1.363 . S
C368 C373 1.379 . S
C368 N375 1.356 . S
C369 C368 1.363 . S
C369 C372 1.363 . S
N370 C372 1.356 1_556 S
N370 H382 0.984 . S
N370 H383 0.985 . S
N371 C373 1.356 . S
N371 H376 0.984 . S
N371 H377 0.985 . S
C372 C366 1.379 . S
C372 C369 1.363 . S
C372 N370 1.356 1_554 S
C373 C367 1.363 . S
C373 C368 1.379 . S
C373 N371 1.356 . S
N374 C366 1.356 . S
N374 H380 0.984 . S
N374 H381 0.984 . S
N375 C368 1.356 . S
N375 H378 0.984 . S
N375 H379 0.985 . S
H376 N371 0.984 . S
H377 N371 0.985 . S
H378 N375 0.984 . S
H379 N375 0.985 . S
H380 N374 0.984 . S
H381 N374 0.984 . S
H382 N370 0.984 . S
H383 N370 0.985 . S
C384 C385 1.363 . S
C384 C390 1.379 . S
C384 N392 1.356 . S
C385 C384 1.363 . S
C385 C391 1.363 . S
C386 C387 1.363 . S
C386 C391 1.379 . S
C386 N393 1.356 . S
C387 C386 1.363 . S
C387 C390 1.363 . S
N388 C390 1.356 . S
N388 H400 0.984 . S
N388 H401 0.985 . S
N389 C391 1.356 . S
N389 H394 0.984 . S
N389 H395 0.985 . S
C390 C384 1.379 . S
C390 C387 1.363 . S
C390 N388 1.356 . S
C391 C385 1.363 . S
C391 C386 1.379 . S
C391 N389 1.356 . S
N392 C384 1.356 . S
N392 H398 0.984 . S
N392 H399 0.984 . S
N393 C386 1.356 . S
N393 H396 0.984 . S
N393 H397 0.985 . S
H394 N389 0.984 . S
H395 N389 0.985 . S
H396 N393 0.984 . S
H397 N393 0.985 . S
H398 N392 0.984 . S
H399 N392 0.984 . S
H400 N388 0.984 . S
H401 N388 0.985 . S
C402 C403 1.363 . S
C402 C408 1.379 . S
C402 N410 1.356 . S
C403 C402 1.363 . S
C403 C409 1.363 . S
C404 C405 1.363 . S
C404 C409 1.379 . S
C404 N411 1.356 . S
C405 C404 1.363 . S
C405 C408 1.363 . S
N406 C408 1.356 . S
N406 H418 0.984 . S
N406 H419 0.985 . S
N407 C409 1.356 . S
N407 H412 0.984 . S
N407 H413 0.985 . S
C408 C402 1.379 . S
C408 C405 1.363 . S
C408 N406 1.356 . S
C409 C403 1.363 . S
C409 C404 1.379 . S
C409 N407 1.356 . S
N410 C402 1.356 . S
N410 H416 0.984 . S
N410 H417 0.984 . S
N411 C404 1.356 . S
N411 H414 0.984 . S
N411 H415 0.985 . S
H412 N407 0.984 . S
H413 N407 0.985 . S
H414 N411 0.984 . S
H415 N411 0.985 . S
H416 N410 0.984 . S
H417 N410 0.984 . S
H418 N406 0.984 . S
H419 N406 0.985 . S
C420 C421 1.363 . S
C420 C426 1.379 . S
C420 N428 1.356 . S
C421 C420 1.363 . S
C421 C427 1.363 . S
C422 C423 1.363 . S
C422 C427 1.379 . S
C422 N429 1.356 . S
C423 C422 1.363 . S
C423 C426 1.363 . S
N424 C426 1.356 1_554 S
N424 H436 0.984 . S
N424 H437 0.985 . S
N425 C427 1.356 . S
N425 H430 0.984 . S
N425 H431 0.985 . S
C426 C420 1.379 . S
C426 C423 1.363 . S
C426 N424 1.356 1_556 S
C427 C421 1.363 . S
C427 C422 1.379 . S
C427 N425 1.356 . S
N428 C420 1.356 . S
N428 H434 0.984 . S
N428 H435 0.984 . S
N429 C422 1.356 . S
N429 H432 0.984 1_565 S
N429 H433 0.985 1_565 S
H430 N425 0.984 . S
H431 N425 0.985 . S
H432 N429 0.984 1_545 S
H433 N429 0.985 1_545 S
H434 N428 0.984 . S
H435 N428 0.984 . S
H436 N424 0.984 . S
H437 N424 0.985 . S
C438 C439 1.363 . S
C438 C444 1.379 . S
C438 N446 1.356 . S
C439 C438 1.363 . S
C439 C445 1.363 . S
C440 C441 1.363 . S
C440 C445 1.379 . S
C440 N447 1.356 . S
C441 C440 1.363 . S
C441 C444 1.363 . S
N442 C444 1.356 . S
N442 H454 0.984 . S
N442 H455 0.985 . S
N443 C445 1.356 . S
N443 H448 0.984 . S
N443 H449 0.985 . S
C444 C438 1.379 . S
C444 C441 1.363 . S
C444 N442 1.356 . S
C445 C439 1.363 . S
C445 C440 1.379 . S
C445 N443 1.356 . S
N446 C438 1.356 . S
N446 H452 0.984 . S
N446 H453 0.984 . S
N447 C440 1.356 . S
N447 H450 0.984 . S
N447 H451 0.985 . S
H448 N443 0.984 . S
H449 N443 0.985 . S
H450 N447 0.984 . S
H451 N447 0.985 . S
H452 N446 0.984 . S
H453 N446 0.984 . S
H454 N442 0.984 . S
H455 N442 0.985 . S
C456 C457 1.363 . S
C456 C462 1.379 . S
C456 N464 1.356 . S
C457 C456 1.363 . S
C457 C463 1.363 . S
C458 C459 1.363 . S
C458 C463 1.379 . S
C458 N465 1.356 . S
C459 C458 1.363 . S
C459 C462 1.363 . S
N460 C462 1.356 . S
N460 H472 0.984 . S
N460 H473 0.985 . S
N461 C463 1.356 . S
N461 H466 0.984 . S
N461 H467 0.985 . S
C462 C456 1.379 . S
C462 C459 1.363 . S
C462 N460 1.356 . S
C463 C457 1.363 . S
C463 C458 1.379 . S
C463 N461 1.356 . S
N464 C456 1.356 . S
N464 H470 0.984 . S
N464 H471 0.984 . S
N465 C458 1.356 . S
N465 H468 0.984 . S
N465 H469 0.985 . S
H466 N461 0.984 . S
H467 N461 0.985 . S
H468 N465 0.984 . S
H469 N465 0.985 . S
H470 N464 0.984 . S
H471 N464 0.984 . S
H472 N460 0.984 . S
H473 N460 0.985 . S
C474 C475 1.363 . S
C474 C480 1.379 . S
C474 N482 1.356 . S
C475 C474 1.363 . S
C475 C481 1.363 . S
C476 C477 1.363 . S
C476 C481 1.379 . S
C476 N483 1.356 . S
C477 C476 1.363 . S
C477 C480 1.363 . S
N478 C480 1.356 . S
N478 H490 0.990 . S
N478 H491 0.985 . S
N479 C481 1.356 . S
N479 H484 0.984 . S
N479 H485 0.985 . S
C480 C474 1.379 . S
C480 C477 1.363 . S
C480 N478 1.356 . S
C481 C475 1.363 . S
C481 C476 1.379 . S
C481 N479 1.356 . S
N482 C474 1.356 . S
N482 H488 0.984 . S
N482 H489 0.984 . S
N483 C476 1.356 . S
N483 H486 0.984 . S
N483 H487 0.985 . S
H484 N479 0.984 . S
H485 N479 0.985 . S
H486 N483 0.984 . S
H487 N483 0.985 . S
H488 N482 0.984 . S
H489 N482 0.984 . S
H490 N478 0.990 . S
H491 N478 0.985 . S
C492 C493 1.363 . S
C492 C498 1.379 . S
C492 N500 1.356 . S
C493 C492 1.363 . S
C493 C499 1.363 . S
C494 C495 1.363 . S
C494 C499 1.379 . S
C494 N501 1.356 . S
C495 C494 1.363 . S
C495 C498 1.363 . S
N496 C498 1.356 . S
N496 H508 0.984 . S
N496 H509 0.985 . S
N497 C499 1.356 . S
N497 H502 0.984 1_556 S
N497 H503 0.985 . S
C498 C492 1.379 . S
C498 C495 1.363 . S
C498 N496 1.356 . S
C499 C493 1.363 . S
C499 C494 1.379 . S
C499 N497 1.356 . S
N500 C492 1.356 . S
N500 H506 0.984 . S
N500 H507 0.984 . S
N501 C494 1.356 . S
N501 H504 0.984 . S
N501 H505 0.985 . S
H502 N497 0.984 1_554 S
H503 N497 0.985 . S
H504 N501 0.984 . S
H505 N501 0.985 . S
H506 N500 0.984 . S
H507 N500 0.984 . S
H508 N496 0.984 . S
H509 N496 0.985 . S
C510 C511 1.363 . S
C510 C516 1.379 . S
C510 N518 1.356 . S
C511 C510 1.363 . S
C511 C517 1.363 . S
C512 C513 1.363 . S
C512 C517 1.379 . S
C512 N519 1.356 . S
C513 C512 1.363 . S
C513 C516 1.363 . S
N514 C516 1.356 . S
N514 H526 0.984 . S
N514 H527 0.985 . S
N515 C517 1.356 . S
N515 H520 0.984 . S
N515 H521 0.985 . S
C516 C510 1.379 . S
C516 C513 1.363 . S
C516 N514 1.356 . S
C517 C511 1.363 . S
C517 C512 1.379 . S
C517 N515 1.356 . S
N518 C510 1.356 . S
N518 H524 0.984 . S
N518 H525 0.984 . S
N519 C512 1.356 . S
N519 H522 0.984 . S
N519 H523 0.985 . S
H520 N515 0.984 . S
H521 N515 0.985 . S
H522 N519 0.984 . S
H523 N519 0.985 . S
H524 N518 0.984 . S
H525 N518 0.984 . S
H526 N514 0.984 . S
H527 N514 0.985 . S
C528 C529 1.363 . S
C528 C534 1.379 . S
C528 N536 1.356 . S
C529 C528 1.363 . S
C529 C535 1.363 . S
C530 C531 1.363 . S
C530 C535 1.379 . S
C530 N537 1.356 . S
C531 C530 1.363 . S
C531 C534 1.363 . S
N532 C534 1.356 . S
N532 H544 0.984 . S
N532 H545 0.985 . S
N533 C535 1.356 . S
N533 H538 0.984 . S
N533 H539 0.985 . S
C534 C528 1.379 . S
C534 C531 1.363 . S
C534 N532 1.356 . S
C535 C529 1.363 . S
C535 C530 1.379 . S
C535 N533 1.356 . S
N536 C528 1.356 . S
N536 H542 0.984 . S
N536 H543 0.984 . S
N537 C530 1.356 . S
N537 H540 0.984 . S
N537 H541 0.985 . S
H538 N533 0.984 . S
H539 N533 0.985 . S
H540 N537 0.984 . S
H541 N537 0.985 . S
H542 N536 0.984 . S
H543 N536 0.984 . S
H544 N532 0.984 . S
H545 N532 0.985 . S
C546 C547 1.363 . S
C546 C552 1.379 . S
C546 N554 1.356 . S
C547 C546 1.363 . S
C547 C553 1.363 . S
C548 C549 1.363 . S
C548 C553 1.379 . S
C548 N555 1.356 . S
C549 C548 1.363 . S
C549 C552 1.363 . S
N550 C552 1.356 1_556 S
N550 H562 0.984 . S
N550 H563 0.985 . S
N551 C553 1.356 . S
N551 H556 0.984 . S
N551 H557 0.985 . S
C552 C546 1.379 . S
C552 C549 1.363 . S
C552 N550 1.356 1_554 S
C553 C547 1.363 . S
C553 C548 1.379 . S
C553 N551 1.356 . S
N554 C546 1.356 . S
N554 H560 0.984 . S
N554 H561 0.984 . S
N555 C548 1.356 . S
N555 H558 0.984 . S
N555 H559 0.985 . S
H556 N551 0.984 . S
H557 N551 0.985 . S
H558 N555 0.984 . S
H559 N555 0.985 . S
H560 N554 0.984 . S
H561 N554 0.984 . S
H562 N550 0.984 . S
H563 N550 0.985 . S
C241 C217 1.451 . S
C243 C17 1.450 . S
C259 C31 1.914 . S
C261 C71 1.914 . S
C277 C57 1.451 . S
C279 C97 1.451 . S
C295 C111 1.914 . S
C297 C151 1.914 . S
C313 C177 1.452 . S
C315 C137 1.452 . S
C331 C231 1.914 . S
C333 C191 1.914 . S
C349 C29 1.729 . S
C351 C8 1.729 . S
C367 C48 1.729 . S
C369 C69 1.729 1_554 S
C385 C109 1.729 . S
C387 C88 1.729 . S
C403 C128 1.729 . S
C405 C149 1.729 . S
C421 C168 1.729 . S
C423 C189 1.729 1_556 S
C439 C208 1.729 . S
C441 C229 1.729 . S
C457 C2 1.952 . S
C459 C172 1.954 . S
C475 C52 1.954 . S
C477 C202 1.952 . S
C493 C12 1.953 1_556 S
C495 C82 1.952 . S
C511 C42 1.952 . S
C513 C132 1.954 . S
C529 C162 1.952 . S
C531 C92 1.954 . S
C547 C122 1.952 . S
C549 C212 1.953 1_554 S
