# Generated by pormake.
# Topology snp, (6)-cn, num edge types: 1
# Building blocks:
#     Node 0, Type 0, BuildingBlock: HISSIN_clean_sbu_0, # of connection points: 6
#     Node 1, Type 0, BuildingBlock: HISSIN_clean_sbu_0, # of connection points: 6
#     Node 2, Type 0, BuildingBlock: HISSIN_clean_sbu_0, # of connection points: 6
#     Node 3, Type 0, BuildingBlock: HISSIN_clean_sbu_0, # of connection points: 6
#     Edge 4, Type (0, 0), BuildingBlock: FUNLAD_clean_linker_1, # of connection points: 2
#     Edge 5, Type (0, 0), BuildingBlock: FUNLAD_clean_linker_1, # of connection points: 2
#     Edge 6, Type (0, 0), BuildingBlock: FUNLAD_clean_linker_1, # of connection points: 2
#     Edge 7, Type (0, 0), BuildingBlock: FUNLAD_clean_linker_1, # of connection points: 2
#     Edge 8, Type (0, 0), BuildingBlock: FUNLAD_clean_linker_1, # of connection points: 2
#     Edge 9, Type (0, 0), BuildingBlock: FUNLAD_clean_linker_1, # of connection points: 2
#     Edge 10, Type (0, 0), BuildingBlock: FUNLAD_clean_linker_1, # of connection points: 2
#     Edge 11, Type (0, 0), BuildingBlock: FUNLAD_clean_linker_1, # of connection points: 2
#     Edge 12, Type (0, 0), BuildingBlock: FUNLAD_clean_linker_1, # of connection points: 2
#     Edge 13, Type (0, 0), BuildingBlock: FUNLAD_clean_linker_1, # of connection points: 2
#     Edge 14, Type (0, 0), BuildingBlock: FUNLAD_clean_linker_1, # of connection points: 2
#     Edge 15, Type (0, 0), BuildingBlock: FUNLAD_clean_linker_1, # of connection points: 2
# Relax obj value: 0.682
# Max RMSD: 0.184
# Mean RMSD: 0.184
data_MOF--net-snp--node1-HISSIN_clean_sbu_0--edge1-FUNLAD_clean_linker_1
_symmetry_space_group_name_H-M    P1
_symmetry_Int_Tables_number       1
_symmetry_cell_setting            triclinic
loop_
_symmetry_equiv_pos_as_xyz
'x, y, z'
_cell_length_a     24.909969
_cell_length_b     25.078482
_cell_length_c     29.561972
_cell_angle_alpha  90.033947
_cell_angle_beta   90.835231
_cell_angle_gamma 119.56434
loop_
_atom_site_label
_atom_site_type_symbol
_atom_site_fract_x
_atom_site_fract_y
_atom_site_fract_z
_atom_type_partial_charge
Eu0 Eu 0.27618 0.08207 0.19915 0.0
Eu1 Eu 0.39262 0.21623 0.20191 0.0
C2 C 0.41254 0.1085 0.22687 0.0
C3 C 0.2057 0.91536 0.18374 0.0
C4 C 0.25575 0.927 1.15609 0.0
C5 C 0.20967 0.82851 0.21567 0.0
C6 C 0.28586 0.89289 1.16132 0.0
C7 C 0.1796 0.86275 0.2105 0.0
C8 C 0.26675 0.8478 0.19491 0.0
C9 C 0.1944 0.96601 0.19501 0.0
O10 O 0.38926 0.17529 1.12999 0.0
O11 O 0.28724 0.103 1.12491 0.0
C12 C 0.34022 0.13619 1.10536 0.0
O13 O 0.23816 0.14674 0.18777 0.0
O14 O 0.49198 0.27162 0.19267 0.0
O15 O 0.44082 0.31365 0.21862 0.0
O16 O 0.32447 0.23313 1.16411 0.0
C17 C 0.26476 0.20141 1.169 0.0
O18 O 0.26242 0.1145 0.26858 0.0
O19 O 0.33953 0.21504 0.26538 0.0
O20 O 0.41634 0.15735 0.24526 0.0
O21 O 0.2212 -0.00544 0.23266 0.0
O22 O 0.20217 0.00415 1.16252 0.0
O23 O 0.36598 0.07658 0.19893 0.0
C24 C 0.52351 0.37366 1.17048 0.0
C25 C 0.51174 0.42302 0.17152 0.0
C26 C 0.57636 0.41094 1.0996 0.0
C27 C 0.52857 0.46359 1.13532 0.0
C28 C 0.55953 0.37045 1.13567 0.0
C29 C 0.55719 0.45499 1.09754 0.0
C30 C 0.4934 0.323 0.20292 0.0
C31 C 0.29129 0.17056 0.28586 0.0
H32 H 0.27642 0.96707 1.13469 0.0
H33 H 0.19336 0.79324 0.24125 0.0
H34 H 0.32863 0.90738 1.14369 0.0
H35 H 0.14079 0.85278 0.23175 0.0
H36 H 0.4861 0.42802 0.19891 0.0
H37 H 0.59973 0.40414 1.07139 0.0
H38 H 0.51571 0.49893 1.136 0.0
H39 H 0.5712 0.33419 1.13463 0.0
Eu40 Eu 0.9601 0.19721 0.66382 0.0
Eu41 Eu 0.09845 0.22991 0.69839 0.0
C42 C 0.0674 0.34026 0.67896 0.0
C43 C 0.83587 0.21836 0.60635 0.0
C44 C 0.86648 0.28266 0.6101 0.0
C45 C 0.78288 0.22411 0.53872 0.0
C46 C 0.85702 0.31747 0.57742 0.0
C47 C 0.79212 0.1893 0.57156 0.0
C48 C 0.81771 0.28847 0.53997 0.0
C49 C 0.85363 0.18194 0.63561 0.0
O50 O 0.0528 0.23666 0.76262 0.0
O51 O 0.95156 0.17732 0.74028 0.0
C52 C 0.99429 0.20096 0.77263 0.0
O53 O 0.94228 0.10376 0.68418 0.0
O54 O 0.19672 0.27331 0.68412 0.0
O55 O 0.16241 0.22483 0.74685 0.0
O56 O 0.03702 0.13042 0.71658 0.0
C57 C 0.97862 0.09018 0.708 0.0
O58 O 0.0126 0.20182 0.5981 0.0
O59 O 0.09689 0.1982 0.62611 0.0
O60 O 0.10875 0.3236 0.68758 0.0
O61 O 0.88223 0.15674 0.61576 0.0
O62 O 0.87901 0.2067 0.67453 0.0
O63 O 1.00914 0.30032 0.67121 0.0
C64 C 0.26001 0.31313 0.74842 0.0
C65 C 0.32123 0.326 0.7452 0.0
C66 C 0.29216 0.39792 0.80103 0.0
C67 C 0.36763 0.37358 0.77088 0.0
C68 C 0.24593 0.35052 0.77525 0.0
C69 C 0.35296 0.40842 0.80046 0.0
C70 C 0.21103 0.26092 0.72371 0.0
C71 C 0.06312 0.19777 0.59149 0.0
H72 H 0.90004 0.30628 0.63696 0.0
H73 H 0.75213 0.20055 0.51033 0.0
H74 H 0.88329 0.36695 0.58021 0.0
H75 H 0.76773 0.13978 0.56829 0.0
H76 H 0.333 0.29856 0.72355 0.0
H77 H 0.2797 0.42433 0.82325 0.0
H78 H 0.41438 0.38179 0.76832 0.0
H79 H 0.1989 0.3419 0.77727 0.0
Eu80 Eu 0.91768 0.03838 0.19568 0.0
Eu81 Eu 0.80811 0.90018 0.18073 0.0
C82 C 0.77395 -0.00094 0.21296 0.0
C83 C 0.99887 0.21042 0.21626 0.0
C84 C 0.94609 0.21481 0.20566 0.0
C85 C 0.0414 0.30604 0.25823 0.0
C86 C 0.94006 0.26348 0.22272 0.0
C87 C 0.04754 0.25755 0.24093 0.0
C88 C 0.98623 0.30759 0.25143 0.0
C89 C 1.00057 0.15404 0.20647 0.0
O90 O 0.81993 0.95256 1.11295 0.0
O91 O 0.92165 0.02358 1.12165 0.0
C92 C 0.87301 -0.00561 1.09558 0.0
O93 O 0.96529 -0.01713 0.17902 0.0
O94 O 0.73016 0.83318 1.13974 0.0
O95 O 0.74745 0.80809 0.20596 0.0
O96 O 0.8854 0.89103 1.15272 0.0
C97 C 0.94419 0.92817 1.15998 0.0
O98 O 0.9217 -0.00423 0.26255 0.0
O99 O 0.8645 0.8946 0.24152 0.0
O100 O 0.76666 0.94511 0.22214 0.0
O101 O 0.98215 0.11419 0.23903 0.0
O102 O 0.97846 0.12836 1.16724 0.0
O103 O 0.82602 0.04075 0.19509 0.0
C104 C 0.71427 0.7337 1.14795 0.0
C105 C 0.76718 0.72726 1.14819 0.0
C106 C 0.66416 0.64803 1.09552 0.0
C107 C 0.76937 0.6831 1.12076 0.0
C108 C 0.66179 0.69202 1.12315 0.0
C109 C 0.71928 0.64586 1.09209 0.0
C110 C 0.71685 0.78854 1.16787 0.0
C111 C 0.90364 0.93763 0.26988 0.0
H112 H 0.90817 0.17897 0.18629 0.0
H113 H 0.07774 0.33949 0.28012 0.0
H114 H 0.89774 0.26432 0.21563 0.0
H115 H 0.0887 0.25489 0.24914 0.0
H116 H 0.80826 0.75901 1.16715 0.0
H117 H 0.62447 0.61861 1.07462 0.0
H118 H 0.81232 0.68219 1.11871 0.0
H119 H 0.62044 0.69605 1.12285 0.0
Eu120 Eu 0.23754 0.92481 0.64996 0.0
Eu121 Eu 0.11031 0.90446 0.69361 0.0
C122 C 0.13216 0.78941 0.67846 0.0
C123 C 0.37467 0.94577 0.57872 0.0
C124 C 0.39984 0.90853 0.56702 0.0
C125 C 0.40617 -0.00313 0.50645 0.0
C126 C 0.4262 0.914 0.52467 0.0
C127 C 0.37916 -0.00909 0.54853 0.0
C128 C 0.4279 0.9571 0.49352 0.0
C129 C 0.34123 0.93452 0.62136 0.0
O130 O 0.17197 0.94704 0.75436 0.0
O131 O 0.25395 0.93833 0.72852 0.0
C132 C 0.22655 0.95255 0.76117 0.0
O133 O 0.2524 0.01983 0.64644 0.0
O134 O 0.01441 0.87803 0.67821 0.0
O135 O 0.04889 0.90043 0.7469 0.0
O136 O 0.17566 0.00649 0.69477 0.0
C137 C 0.22665 0.04204 0.6729 0.0
O138 O 0.18516 0.92723 0.58457 0.0
O139 O 0.09689 0.91339 0.61857 0.0
O140 O 0.10869 0.81453 0.70456 0.0
O141 O 0.33659 -0.02025 0.6387 0.0
O142 O 0.28977 0.88285 0.62378 0.0
O143 O 0.17424 0.82208 0.64893 0.0
C144 C 0.94737 0.82182 0.73613 0.0
C145 C 0.95068 0.76772 0.73921 0.0
C146 C 0.84884 0.77203 0.77322 0.0
C147 C 0.90439 0.7167 0.76086 0.0
C148 C 0.89511 0.82296 0.75141 0.0
C149 C 0.85465 0.71966 0.78015 0.0
C150 C 1.00039 0.87807 0.7204 0.0
C151 C 0.12918 0.92136 0.58195 0.0
H152 H 0.39723 0.87379 0.59009 0.0
H153 H 0.40667 0.03022 0.48289 0.0
H154 H 0.44353 0.8834 0.51589 0.0
H155 H 0.36 0.02016 0.55675 0.0
H156 H 0.99031 0.76584 0.72666 0.0
H157 H 0.81064 0.77521 0.78742 0.0
H158 H 0.90917 0.67627 0.76424 0.0
H159 H 0.89128 0.86397 0.74835 0.0
H160 H 0.96479 0.85455 1.14375 0.0
C161 C 0.98588 0.90383 1.14854 0.0
H162 H 0.07184 0.91423 1.13166 0.0
H163 H 0.16031 0.18401 1.05942 0.0
H164 H 0.14638 0.12899 0.98854 0.0
H165 H 0.10029 0.01641 0.9873 0.0
H166 H 0.06855 0.95821 1.05696 0.0
C167 C 0.04679 0.93746 1.14167 0.0
C168 C 0.08013 0.0052 1.14247 0.0
C169 C 0.09628 0.03784 1.10133 0.0
C170 C 0.12237 0.10251 1.10203 0.0
C171 C 0.14022 0.1347 1.06071 0.0
C172 C 0.13229 0.10368 1.01983 0.0
C173 C 0.10623 0.04027 1.01912 0.0
C174 C 0.08809 0.00743 1.05929 0.0
H175 H 0.25303 0.28072 1.15197 0.0
C176 C 0.22829 0.23119 1.15544 0.0
H177 H 0.14559 0.22747 1.13454 0.0
H178 H 0.07238 0.9584 0.22718 0.0
H179 H 0.09161 0.01445 0.29819 0.0
H180 H 0.11444 0.12171 0.29899 0.0
H181 H 0.13274 0.17841 0.2287 0.0
C182 C 0.1675 0.20135 1.14546 0.0
C183 C 0.13075 0.13362 1.14381 0.0
C184 C 0.11308 0.10049 0.18471 0.0
C185 C 0.09267 0.03692 0.18423 0.0
C186 C 0.08515 0.00635 0.22582 0.0
C187 C 0.09529 0.03767 0.26669 0.0
C188 C 0.10972 0.09866 0.26713 0.0
C189 C 0.11942 0.13033 0.2267 0.0
H190 H 0.30837 0.13483 0.67141 0.0
C191 C 0.26108 0.10894 0.68279 0.0
H192 H 0.26952 0.18597 0.71736 0.0
H193 H 0.97871 0.96779 0.66951 0.0
H194 H 1.0054 -0.0027 0.59168 0.0
H195 H 0.10602 0.08754 0.57379 0.0
H196 H 0.18448 0.1399 0.6324 0.0
C197 C 0.239 0.13841 0.70805 0.0
C198 C 0.1733 0.1087 0.72151 0.0
C199 C 0.12718 0.08382 0.6872 0.0
C200 C 0.06689 0.03853 0.69804 0.0
C201 C 0.02436 0.00547 0.66275 0.0
C202 C 0.03917 0.02205 0.61808 0.0
C203 C 0.09612 0.07184 0.60792 0.0
C204 C 0.1404 0.10183 0.64178 0.0
H205 H 0.90001 0.00694 0.7363 0.0
C206 C 0.94973 0.0306 0.73228 0.0
H207 H 0.95815 0.96594 0.77283 0.0
H208 H 0.24979 0.15013 0.79596 0.0
H209 H 0.21835 0.12998 0.87466 0.0
H210 H 0.10863 0.06541 0.89388 0.0
H211 H 0.02951 0.01941 0.83448 0.0
C212 C 0.982 0.00649 0.75226 0.0
C213 C 0.04851 0.03088 0.74349 0.0
C214 C 0.09343 0.05796 0.77858 0.0
C215 C 0.1566 0.09595 0.76748 0.0
C216 C 0.20124 0.12111 0.80278 0.0
C217 C 0.18374 0.11011 0.84793 0.0
C218 C 0.12185 0.07381 0.85877 0.0
C219 C 0.07692 0.04799 0.82455 0.0
H220 H 0.67857 0.96884 0.23389 0.0
C221 C 0.71904 0.00763 0.21976 0.0
H222 H 0.75278 0.09469 0.19071 0.0
H223 H 0.50323 0.07668 1.1247 0.0
H224 H 0.55623 0.08675 1.05474 0.0
H225 H 0.65258 0.0818 1.05365 0.0
H226 H 0.69704 0.06748 1.12266 0.0
C227 C 0.71381 0.05661 0.2068 0.0
C228 C 0.65277 0.05672 0.2082 0.0
C229 C 0.62583 0.06367 1.16743 0.0
C230 C 0.56873 0.0646 1.16789 0.0
C231 C 0.54509 0.07379 1.12652 0.0
C232 C 0.57526 0.07998 1.08596 0.0
C233 C 0.62959 0.07736 1.08536 0.0
C234 C 0.65474 0.06932 1.1254 0.0
H235 H 0.50404 0.13041 0.2546 0.0
C236 C 0.467 0.09868 0.23218 0.0
H237 H 0.44039 0.02812 0.18412 0.0
H238 H 0.69293 0.05058 0.29357 0.0
H239 H 0.63746 0.0353 0.36325 0.0
H240 H 0.53468 0.02687 0.36306 0.0
H241 H 0.48645 0.03356 0.29333 0.0
C242 C 0.47589 0.05768 0.20836 0.0
C243 C 0.5368 0.05724 0.20903 0.0
C244 C 0.5631 0.04905 0.24977 0.0
C245 C 0.62151 0.05056 0.24952 0.0
C246 C 0.64781 0.04672 0.2913 0.0
C247 C 0.6167 0.03854 0.33169 0.0
C248 C 0.55892 0.03407 0.33161 0.0
C249 C 0.53204 0.03873 0.29128 0.0
H250 H 0.13718 0.43891 0.68358 0.0
C251 C 0.08828 0.40707 0.67818 0.0
H252 H 1.00088 0.39839 0.66458 0.0
H253 H 0.16559 0.68633 0.74329 0.0
H254 H 0.17265 0.641 0.81384 0.0
H255 H 0.13137 0.52945 0.81967 0.0
H256 H 0.08394 0.46268 0.75471 0.0
C257 C 0.04957 0.42964 0.67132 0.0
C258 C 0.07171 0.49726 0.66908 0.0
C259 C 0.09701 0.53566 0.70791 0.0
C260 C 0.11807 0.5999 0.70513 0.0
C261 C 0.14642 0.63717 0.74383 0.0
C262 C 0.15118 0.61177 0.78455 0.0
C263 C 0.12815 0.54899 0.78779 0.0
C264 C 0.10135 0.51119 0.75009 0.0
H265 H 0.0727 0.69664 0.70615 0.0
C266 C 0.10997 0.72257 0.68288 0.0
H267 H 0.17083 0.7186 0.63587 0.0
H268 H 0.02555 0.43779 0.58821 0.0
H269 H 0.01539 0.48265 0.51825 0.0
H270 H 0.04697 0.59239 0.51443 0.0
H271 H 0.09025 0.65853 0.58029 0.0
C272 C 0.13462 0.69336 0.66003 0.0
C273 C 0.11132 0.62562 0.66402 0.0
C274 C 0.08497 0.58693 0.62548 0.0
C275 C 0.06541 0.52305 0.62796 0.0
C276 C 0.04038 0.48626 0.58853 0.0
C277 C 0.0342 0.51137 0.5481 0.0
C278 C 0.05223 0.57325 0.5459 0.0
C279 C 0.07724 0.61075 0.58397 0.0
H280 H 0.04518 0.17401 0.51754 0.0
C281 C 0.08106 0.18991 0.54357 0.0
H282 H 0.17367 0.21791 0.55855 0.0
H283 H 0.25335 0.09216 0.40955 0.0
H284 H 0.27593 0.05745 0.47987 0.0
H285 H 0.25165 0.08696 0.55305 0.0
H286 H 0.20402 0.15013 0.55613 0.0
C287 C 0.13885 0.20069 0.53176 0.0
C288 C 0.15908 0.18804 0.48534 0.0
C289 C 0.19304 0.15557 0.48318 0.0
C290 C 0.21087 0.14146 0.44059 0.0
C291 C 0.23993 0.10508 0.44052 0.0
C292 C 0.25348 0.08501 0.48068 0.0
C293 C 0.23959 0.10139 0.52183 0.0
C294 C 0.21072 0.13678 0.52314 0.0
H295 H 0.29714 0.23355 0.34149 0.0
C296 C 0.26993 0.18658 0.32938 0.0
H297 H 0.19349 0.10014 0.34345 0.0
H298 H 0.11008 0.26358 0.47407 0.0
H299 H 0.09679 0.30568 0.40404 0.0
H300 H 0.13007 0.28378 0.33175 0.0
H301 H 0.17875 0.22075 0.32897 0.0
C302 C 0.2199 0.14777 0.35421 0.0
C303 C 0.2016 0.16486 0.39923 0.0
C304 C 0.17199 0.20109 0.40131 0.0
C305 C 0.15063 0.21229 0.44371 0.0
C306 C 0.1241 0.2508 0.44342 0.0
C307 C 0.11676 0.27592 0.40337 0.0
C308 C 0.13577 0.2638 0.36262 0.0
C309 C 0.16336 0.22723 0.36146 0.0
H310 H 0.01377 0.20864 0.84691 0.0
C311 C 0.97836 0.18282 0.82146 0.0
H312 H 0.89201 0.10454 0.80899 0.0
H313 H 0.87266 0.13637 1.03282 0.0
H314 H 0.89123 0.2388 1.01733 0.0
H315 H 0.91727 0.2818 0.94069 0.0
H316 H 0.92605 0.22322 0.8791 0.0
C317 C 0.92548 0.13265 0.83492 0.0
C318 C 0.9125 0.10839 0.88334 0.0
C319 C 0.90587 0.14237 0.91933 0.0
C320 C 0.88808 0.11625 0.96362 0.0
C321 C 0.88405 0.15273 0.99854 0.0
C322 C 0.89485 0.21181 0.99017 0.0
C323 C 0.90972 0.23611 0.94704 0.0
C324 C 0.91504 0.20202 0.91195 0.0
H325 H 0.92547 0.01129 1.03282 0.0
C326 C 0.88311 0.00736 1.04588 0.0
H327 H 0.81303 0.0292 1.03318 0.0
H328 H 0.92302 0.03026 0.82511 0.0
H329 H 0.89791 0.92511 0.83921 0.0
H330 H 0.86027 0.87805 0.91337 0.0
H331 H 0.84738 0.9352 0.97402 0.0
C332 C 0.85181 0.02686 1.019 0.0
C333 C 0.87451 0.05496 0.97246 0.0
C334 C 0.88036 0.02069 0.93636 0.0
C335 C 0.90014 0.04752 0.89253 0.0
C336 C 0.90678 0.01193 0.85824 0.0
C337 C 0.89285 0.95168 0.86596 0.0
C338 C 0.87175 0.92515 0.9078 0.0
C339 C 0.86516 0.95884 0.94255 0.0
H340 H 0.04682 0.90539 0.54217 0.0
C341 C 0.09561 0.92078 0.53811 0.0
H342 H 0.16619 0.95442 0.49 0.0
H343 H 0.01995 0.89149 0.30324 0.0
H344 H 0.07906 0.83896 0.29749 0.0
H345 H 0.13704 0.83173 0.36318 0.0
H346 H 0.13615 0.87668 0.4355 0.0
C347 C 0.11805 0.94007 0.4958 0.0
C348 C 0.07817 0.94148 0.45548 0.0
C349 C 0.07647 0.91306 0.41315 0.0
C350 C 0.04153 0.91623 0.37474 0.0
C351 C 0.04403 0.88949 0.33331 0.0
C352 C 0.07816 0.85945 0.32946 0.0
C353 C 0.11077 0.85532 0.36652 0.0
C354 C 0.10998 0.88153 0.40788 0.0
H355 H 0.91033 0.87118 0.31718 0.0
C356 C 0.92982 0.91966 0.31006 0.0
H357 H 0.99565 0.00929 0.32945 0.0
H358 H 0.07782 0.01199 0.52476 0.0
H359 H 0.01697 0.06359 0.53051 0.0
H360 H 0.95101 0.06115 0.46759 0.0
H361 H 0.94386 0.00685 0.3983 0.0
C362 C 0.97785 0.96097 0.33645 0.0
C363 C 1.00657 0.9471 0.3779 0.0
C364 C 1.00803 -0.02477 0.41995 0.0
C365 C 0.04451 -0.02601 0.45775 0.0
C366 C 0.04821 0.00804 0.49672 0.0
C367 C 0.01456 0.03873 0.50008 0.0
C368 C 0.97721 0.03744 0.46454 0.0
C369 C 0.97387 0.00628 0.42488 0.0
H370 H 0.30204 -0.02168 0.81353 0.0
C371 C 0.25799 -0.02385 0.80709 0.0
H372 H 0.18883 -0.00806 0.83365 0.0
H373 H 0.22293 -0.02006 1.04248 0.0
H374 H 0.14288 0.8756 1.02774 0.0
H375 H 0.11616 0.83491 0.9498 0.0
H376 H 0.16998 0.89839 0.88587 0.0
C377 C 0.23347 -0.00455 0.84029 0.0
C378 C 0.26006 0.01785 0.88802 0.0
C379 C 0.22955 -0.01921 0.92588 0.0
C380 C 0.24445 0.005 0.97129 0.0
C381 C 0.21268 0.96527 1.00747 0.0
C382 C 0.16681 0.90488 0.99955 0.0
C383 C 0.15182 0.88196 0.95567 0.0
C384 C 0.18288 0.91904 0.91925 0.0
H385 H 0.38994 0.13649 1.04246 0.0
C386 C 0.34479 0.12397 1.05555 0.0
H387 H 0.24951 0.08235 1.04261 0.0
H388 H 0.32907 0.10231 0.82561 0.0
H389 H 0.40479 0.20915 0.83927 0.0
H390 H 0.42782 0.25226 0.91658 0.0
H391 H 0.3751 0.18949 0.9809 0.0
C392 C 0.29365 0.09392 1.0279 0.0
C393 C 0.28931 0.06763 0.98011 0.0
C394 C 0.32073 0.10464 0.94218 0.0
C395 C 0.30665 0.07967 0.8967 0.0
C396 C 0.33792 0.11864 0.86027 0.0
C397 C 0.38139 0.18004 0.86766 0.0
C398 C 0.39439 0.20431 0.91125 0.0
C399 C 0.36418 0.1675 0.94806 0.0
H400 H 0.76323 0.59941 1.05733 0.0
C401 C 0.73051 0.61594 1.05307 0.0
H402 H 0.68832 0.64777 1.00619 0.0
H403 H 0.92872 0.72691 0.88645 0.0
H404 H 0.98168 0.8028 0.94546 0.0
H405 H 0.9294 0.79935 1.01649 0.0
H406 H 0.82457 0.71992 1.02897 0.0
C407 C 0.71687 0.62664 1.01108 0.0
C408 C 0.75076 0.62447 0.97088 0.0
C409 C 0.81265 0.67156 0.96446 0.0
C410 C 0.84225 0.67457 0.92311 0.0
C411 C 0.90374 0.72249 0.9171 0.0
C412 C 0.9348 0.76652 0.95071 0.0
C413 C 0.90544 0.76449 0.9907 0.0
C414 C 0.8451 0.718 0.99758 0.0
H415 H 0.77163 0.67475 0.82173 0.0
C416 C 0.81366 0.67404 0.8132 0.0
H417 H 0.87809 0.64776 0.83621 0.0
H418 H 0.63348 0.52937 0.97232 0.0
H419 H 0.57979 0.45301 0.91307 0.0
H420 H 0.63139 0.45857 0.84112 0.0
H421 H 0.73698 0.53969 0.8288 0.0
C422 C 0.83424 0.64596 0.8416 0.0
C423 C 0.8091 0.63213 0.88779 0.0
C424 C 0.74856 0.58376 0.89483 0.0
C425 C 0.71915 0.58023 0.93631 0.0
C426 C 0.65783 0.53285 0.94185 0.0
C427 C 0.62668 0.48928 0.90793 0.0
C428 C 0.65571 0.49244 0.86745 0.0
C429 C 0.71602 0.53919 0.86074 0.0
H430 H 0.29312 0.79681 0.24202 0.0
C431 C 0.3122 0.83605 0.21952 0.0
H432 H 0.38777 0.9248 0.21026 0.0
H433 H 0.32867 0.91724 0.42221 0.0
H434 H 0.25679 0.94736 0.39236 0.0
H435 H 0.24865 0.96017 0.31038 0.0
H436 H 0.3112 0.94075 0.25782 0.0
C437 C 0.36805 0.88383 0.23069 0.0
C438 C 0.38771 0.89415 0.27904 0.0
C439 C 0.35669 0.91336 0.30927 0.0
C440 C 0.36606 0.91223 0.35652 0.0
C441 C 0.32745 0.92241 0.386 0.0
C442 C 0.28528 0.93902 0.36929 0.0
C443 C 0.28042 0.94584 0.32312 0.0
C444 C 0.31575 0.93344 0.29332 0.0
H445 H 0.45761 -0.00166 0.42636 0.0
C446 C 0.4441 0.95676 0.44561 0.0
H447 H 0.40875 0.86078 0.44039 0.0
H448 H 0.46272 0.86748 0.22926 0.0
H449 H 0.54618 0.8523 0.25839 0.0
H450 H 0.56895 0.85861 0.34039 0.0
H451 H 0.5085 0.88005 0.39391 0.0
C452 C 0.42547 0.90392 0.42275 0.0
C453 C 0.41303 0.90064 0.37325 0.0
C454 C 0.44797 0.88685 0.34274 0.0
C455 C 0.4349 0.88317 0.29545 0.0
C456 C 0.47066 0.87008 0.2655 0.0
C457 C 0.51867 0.86156 0.28177 0.0
C458 C 0.53153 0.86517 0.32798 0.0
C459 C 0.49654 0.87741 0.35832 0.0
H460 H 0.38507 0.4809 0.85282 0.0
C461 C 0.39711 0.45021 0.83521 0.0
H462 H 0.45112 0.40654 0.83935 0.0
H463 H 0.57501 0.61009 1.00646 0.0
H464 H 0.62549 0.68634 0.94783 0.0
H465 H 0.60057 0.65819 0.86713 0.0
H466 H 0.52448 0.55408 0.84468 0.0
C467 C 0.44106 0.44046 0.85359 0.0
C468 C 0.45969 0.45794 0.90139 0.0
C469 C 0.50414 0.51871 0.91359 0.0
C470 C 0.52012 0.53445 0.9599 0.0
C471 C 0.56328 0.59567 0.97159 0.0
C472 C 0.592 0.63973 0.93831 0.0
C473 C 0.57786 0.62391 0.89287 0.0
C474 C 0.53414 0.56417 0.88044 0.0
H475 H 0.57916 0.46946 1.02603 0.0
C476 C 0.55755 0.48145 1.05273 0.0
H477 H 0.49098 0.5089 1.06532 0.0
H478 H 0.36873 0.3379 0.88931 0.0
H479 H 0.31882 0.26285 0.94805 0.0
H480 H 0.34849 0.28973 1.0283 0.0
H481 H 0.42714 0.39247 1.05024 0.0
C482 C 0.51776 0.50073 1.0405 0.0
C483 C 0.49345 0.48878 0.99335 0.0
C484 C 0.44696 0.42857 0.98126 0.0
C485 C 0.4302 0.41303 0.93515 0.0
C486 C 0.38361 0.35243 0.92389 0.0
C487 C 0.35451 0.30874 0.95729 0.0
C488 C 0.37117 0.32388 1.00244 0.0
C489 C 0.41671 0.38299 1.01451 0.0
H490 H 0.01369 0.38495 0.29899 0.0
C491 C 0.97415 0.34763 0.28162 0.0
H492 H 0.87751 0.28832 0.28478 0.0
H493 H 0.93445 0.31126 0.49843 0.0
H494 H 0.97025 0.23971 0.48138 0.0
H495 H 0.97655 0.21184 0.4024 0.0
H496 H 0.9499 0.25735 0.34031 0.0
C497 C 0.91794 0.32775 0.29914 0.0
C498 C 0.91215 0.34368 0.34641 0.0
C499 C 0.92657 0.31504 0.38236 0.0
C500 C 0.91952 0.32829 0.42777 0.0
C501 C 0.93682 0.30126 0.46317 0.0
C502 C 0.95768 0.26019 0.45392 0.0
C503 C 0.96153 0.24476 0.40949 0.0
C504 C 0.94645 0.27177 0.37405 0.0
H505 H 0.78546 0.29673 0.47219 0.0
C506 C 0.82084 0.32208 0.49791 0.0
H507 H 0.91256 0.39326 0.50808 0.0
H508 H 0.88163 0.40653 0.28544 0.0
H509 H 0.84025 0.47405 0.30283 0.0
H510 H 0.8227 0.49248 0.3819 0.0
H511 H 0.84685 0.44383 0.44422 0.0
C512 C 0.87489 0.36868 0.48405 0.0
C513 C 0.89337 0.3661 0.43706 0.0
C514 C 0.87916 0.39478 0.40135 0.0
C515 C 0.88911 0.38397 0.35582 0.0
C516 C 0.87472 0.4132 0.3206 0.0
C517 C 0.85101 0.45196 0.33015 0.0
C518 C 0.84109 0.46233 0.3747 0.0
C519 C 0.85491 0.43412 0.41008 0.0
loop_
_geom_bond_atom_site_label_1
_geom_bond_atom_site_label_2
_geom_bond_distance
_geom_bond_site_symmetry_2
_ccdc_geom_bond_type
Eu0 C9 2.828 . S
Eu0 O11 2.392 1_554 S
Eu0 O13 2.418 . S
Eu0 O18 2.373 . S
Eu0 O21 2.488 . S
Eu0 O22 2.471 . S
Eu0 O23 2.349 . S
Eu1 O10 2.373 . S
Eu1 O14 2.488 . S
Eu1 O15 2.471 . S
Eu1 O16 2.349 . S
Eu1 O19 2.392 1_556 S
Eu1 O20 2.418 . S
Eu1 C30 2.828 . S
C2 O20 1.244 1_554 S
C2 O23 1.265 . S
C3 C4 1.379 . S
C3 C7 1.373 1_545 S
C3 C9 1.505 . S
C4 C3 1.379 . S
C4 C6 1.369 . S
C4 H32 0.930 . S
C5 C7 1.383 . S
C5 C8 1.382 . S
C5 H33 0.930 . S
C6 C4 1.369 . S
C6 C8 1.392 1_545 S
C6 H34 0.930 . S
C7 C3 1.373 1_565 S
C7 C5 1.383 . S
C7 H35 0.931 . S
C8 C5 1.382 . S
C8 C6 1.392 1_565 S
C9 Eu0 2.828 . S
C9 C3 1.505 . S
C9 O21 1.249 . S
C9 O22 1.244 . S
O10 Eu1 2.373 . S
O10 C12 1.258 . S
O11 Eu0 2.392 1_556 S
O11 C12 1.242 . S
C12 O10 1.258 . S
C12 O11 1.242 . S
O13 Eu0 2.418 . S
O13 C17 1.244 . S
O14 Eu1 2.488 . S
O14 C30 1.249 . S
O15 Eu1 2.471 . S
O15 C30 1.244 . S
O16 Eu1 2.349 . S
O16 C17 1.265 1_556 S
C17 O13 1.244 . S
C17 O16 1.265 1_554 S
O18 Eu0 2.373 . S
O18 C31 1.258 . S
O19 Eu1 2.392 1_554 S
O19 C31 1.242 . S
O20 Eu1 2.418 . S
O20 C2 1.244 1_556 S
O21 Eu0 2.488 . S
O21 C9 1.249 . S
O22 Eu0 2.471 . S
O22 C9 1.244 . S
O23 Eu0 2.349 . S
O23 C2 1.265 . S
C24 C25 1.379 . S
C24 C28 1.373 . S
C24 C30 1.505 . S
C25 C24 1.379 . S
C25 C27 1.369 . S
C25 H36 0.930 . S
C26 C28 1.383 . S
C26 C29 1.382 . S
C26 H37 0.930 . S
C27 C25 1.369 . S
C27 C29 1.392 . S
C27 H38 0.930 . S
C28 C24 1.373 . S
C28 C26 1.383 . S
C28 H39 0.931 . S
C29 C26 1.382 . S
C29 C27 1.392 . S
C30 Eu1 2.828 . S
C30 O14 1.249 . S
C30 O15 1.244 . S
C30 C24 1.505 . S
C31 O18 1.258 . S
C31 O19 1.242 . S
H32 C4 0.930 . S
H33 C5 0.930 . S
H34 C6 0.930 . S
H35 C7 0.931 . S
H36 C25 0.930 . S
H37 C26 0.930 . S
H38 C27 0.930 . S
H39 C28 0.931 . S
Eu40 C49 2.828 . S
Eu40 O51 2.392 . S
Eu40 O53 2.418 . S
Eu40 O58 2.373 . S
Eu40 O61 2.488 . S
Eu40 O62 2.471 . S
Eu40 O63 2.349 . S
Eu41 O50 2.373 . S
Eu41 O54 2.488 . S
Eu41 O55 2.471 . S
Eu41 O56 2.349 . S
Eu41 O59 2.392 . S
Eu41 O60 2.418 . S
Eu41 C70 2.828 . S
C42 O60 1.244 . S
C42 O63 1.265 . S
C43 C44 1.379 . S
C43 C47 1.373 1_455 S
C43 C49 1.505 . S
C44 C43 1.379 . S
C44 C46 1.369 . S
C44 H72 0.930 . S
C45 C47 1.383 . S
C45 C48 1.382 . S
C45 H73 0.930 . S
C46 C44 1.369 . S
C46 C48 1.392 1_455 S
C46 H74 0.930 . S
C47 C43 1.373 1_655 S
C47 C45 1.383 . S
C47 H75 0.931 . S
C48 C45 1.382 . S
C48 C46 1.392 1_655 S
C49 Eu40 2.828 . S
C49 C43 1.505 . S
C49 O61 1.249 . S
C49 O62 1.244 . S
O50 Eu41 2.373 . S
O50 C52 1.258 . S
O51 Eu40 2.392 . S
O51 C52 1.242 . S
C52 O50 1.258 . S
C52 O51 1.242 . S
O53 Eu40 2.418 . S
O53 C57 1.244 . S
O54 Eu41 2.488 . S
O54 C70 1.249 . S
O55 Eu41 2.471 . S
O55 C70 1.244 . S
O56 Eu41 2.349 . S
O56 C57 1.265 . S
C57 O53 1.244 . S
C57 O56 1.265 . S
O58 Eu40 2.373 . S
O58 C71 1.258 . S
O59 Eu41 2.392 . S
O59 C71 1.242 . S
O60 Eu41 2.418 . S
O60 C42 1.244 . S
O61 Eu40 2.488 . S
O61 C49 1.249 . S
O62 Eu40 2.471 . S
O62 C49 1.244 . S
O63 Eu40 2.349 . S
O63 C42 1.265 . S
C64 C65 1.379 . S
C64 C68 1.373 . S
C64 C70 1.505 . S
C65 C64 1.379 . S
C65 C67 1.369 . S
C65 H76 0.930 . S
C66 C68 1.383 . S
C66 C69 1.382 . S
C66 H77 0.930 . S
C67 C65 1.369 . S
C67 C69 1.392 . S
C67 H78 0.930 . S
C68 C64 1.373 . S
C68 C66 1.383 . S
C68 H79 0.931 . S
C69 C66 1.382 . S
C69 C67 1.392 . S
C70 Eu41 2.828 . S
C70 O54 1.249 . S
C70 O55 1.244 . S
C70 C64 1.505 . S
C71 O58 1.258 . S
C71 O59 1.242 . S
H72 C44 0.930 . S
H73 C45 0.930 . S
H74 C46 0.930 . S
H75 C47 0.931 . S
H76 C65 0.930 . S
H77 C66 0.930 . S
H78 C67 0.930 . S
H79 C68 0.931 . S
Eu80 C89 2.828 . S
Eu80 O91 2.392 1_554 S
Eu80 O93 2.418 . S
Eu80 O98 2.373 . S
Eu80 O101 2.488 . S
Eu80 O102 2.471 . S
Eu80 O103 2.349 . S
Eu81 O90 2.373 1_565 S
Eu81 O94 2.488 . S
Eu81 O95 2.471 . S
Eu81 O96 2.349 . S
Eu81 O99 2.392 1_556 S
Eu81 O100 2.418 . S
Eu81 C110 2.828 . S
C82 O100 1.244 1_554 S
C82 O103 1.265 1_565 S
C83 C84 1.379 . S
C83 C87 1.373 . S
C83 C89 1.505 . S
C84 C83 1.379 . S
C84 C86 1.369 . S
C84 H112 0.930 . S
C85 C87 1.383 . S
C85 C88 1.382 . S
C85 H113 0.930 . S
C86 C84 1.369 . S
C86 C88 1.392 . S
C86 H114 0.930 . S
C87 C83 1.373 . S
C87 C85 1.383 . S
C87 H115 0.931 . S
C88 C85 1.382 . S
C88 C86 1.392 . S
C89 Eu80 2.828 . S
C89 C83 1.505 . S
C89 O101 1.249 . S
C89 O102 1.244 . S
O90 Eu81 2.373 1_545 S
O90 C92 1.258 . S
O91 Eu80 2.392 1_556 S
O91 C92 1.242 . S
C92 O90 1.258 . S
C92 O91 1.242 . S
O93 Eu80 2.418 . S
O93 C97 1.244 . S
O94 Eu81 2.488 . S
O94 C110 1.249 . S
O95 Eu81 2.471 . S
O95 C110 1.244 . S
O96 Eu81 2.349 . S
O96 C97 1.265 1_566 S
C97 O93 1.244 . S
C97 O96 1.265 1_544 S
O98 Eu80 2.373 . S
O98 C111 1.258 1_545 S
O99 Eu81 2.392 1_554 S
O99 C111 1.242 . S
O100 Eu81 2.418 . S
O100 C82 1.244 1_556 S
O101 Eu80 2.488 . S
O101 C89 1.249 . S
O102 Eu80 2.471 . S
O102 C89 1.244 . S
O103 Eu80 2.349 . S
O103 C82 1.265 1_545 S
C104 C105 1.379 . S
C104 C108 1.373 . S
C104 C110 1.505 . S
C105 C104 1.379 . S
C105 C107 1.369 . S
C105 H116 0.930 . S
C106 C108 1.383 . S
C106 C109 1.382 . S
C106 H117 0.930 . S
C107 C105 1.369 . S
C107 C109 1.392 . S
C107 H118 0.930 . S
C108 C104 1.373 . S
C108 C106 1.383 . S
C108 H119 0.931 . S
C109 C106 1.382 . S
C109 C107 1.392 . S
C110 Eu81 2.828 . S
C110 O94 1.249 . S
C110 O95 1.244 . S
C110 C104 1.505 . S
C111 O98 1.258 1_565 S
C111 O99 1.242 . S
H112 C84 0.930 . S
H113 C85 0.930 . S
H114 C86 0.930 . S
H115 C87 0.931 . S
H116 C105 0.930 . S
H117 C106 0.930 . S
H118 C107 0.930 . S
H119 C108 0.931 . S
Eu120 C129 2.828 . S
Eu120 O131 2.392 . S
Eu120 O133 2.418 . S
Eu120 O138 2.373 . S
Eu120 O141 2.488 . S
Eu120 O142 2.471 . S
Eu120 O143 2.349 . S
Eu121 O130 2.373 1_655 S
Eu121 O134 2.488 . S
Eu121 O135 2.471 . S
Eu121 O136 2.349 . S
Eu121 O139 2.392 . S
Eu121 O140 2.418 . S
Eu121 C150 2.828 . S
C122 O140 1.244 . S
C122 O143 1.265 1_655 S
C123 C124 1.379 . S
C123 C127 1.373 . S
C123 C129 1.505 . S
C124 C123 1.379 . S
C124 C126 1.369 . S
C124 H152 0.930 . S
C125 C127 1.383 . S
C125 C128 1.382 . S
C125 H153 0.930 . S
C126 C124 1.369 . S
C126 C128 1.392 . S
C126 H154 0.930 . S
C127 C123 1.373 . S
C127 C125 1.383 . S
C127 H155 0.931 . S
C128 C125 1.382 . S
C128 C126 1.392 . S
C129 Eu120 2.828 . S
C129 C123 1.505 . S
C129 O141 1.249 . S
C129 O142 1.244 . S
O130 Eu121 2.373 1_455 S
O130 C132 1.258 . S
O131 Eu120 2.392 . S
O131 C132 1.242 . S
C132 O130 1.258 . S
C132 O131 1.242 . S
O133 Eu120 2.418 . S
O133 C137 1.244 . S
O134 Eu121 2.488 . S
O134 C150 1.249 . S
O135 Eu121 2.471 . S
O135 C150 1.244 . S
O136 Eu121 2.349 . S
O136 C137 1.265 1_655 S
C137 O133 1.244 . S
C137 O136 1.265 1_455 S
O138 Eu120 2.373 . S
O138 C151 1.258 1_455 S
O139 Eu121 2.392 . S
O139 C151 1.242 . S
O140 Eu121 2.418 . S
O140 C122 1.244 . S
O141 Eu120 2.488 . S
O141 C129 1.249 . S
O142 Eu120 2.471 . S
O142 C129 1.244 . S
O143 Eu120 2.349 . S
O143 C122 1.265 1_455 S
C144 C145 1.379 . S
C144 C148 1.373 . S
C144 C150 1.505 . S
C145 C144 1.379 . S
C145 C147 1.369 . S
C145 H156 0.930 . S
C146 C148 1.383 . S
C146 C149 1.382 . S
C146 H157 0.930 . S
C147 C145 1.369 . S
C147 C149 1.392 . S
C147 H158 0.930 . S
C148 C144 1.373 . S
C148 C146 1.383 . S
C148 H159 0.931 . S
C149 C146 1.382 . S
C149 C147 1.392 . S
C150 Eu121 2.828 . S
C150 O134 1.249 . S
C150 O135 1.244 . S
C150 C144 1.505 . S
C151 O138 1.258 1_655 S
C151 O139 1.242 . S
H152 C124 0.930 . S
H153 C125 0.930 . S
H154 C126 0.930 . S
H155 C127 0.931 . S
H156 C145 0.930 . S
H157 C146 0.930 . S
H158 C147 0.930 . S
H159 C148 0.931 . S
H160 C161 0.948 1_554 S
C161 H160 0.948 1_556 S
C161 C167 1.268 . S
H162 C167 0.950 1_565 S
H163 C171 0.949 . S
H164 C172 0.950 . S
H165 C173 0.951 . S
H166 C174 0.951 1_665 S
C167 C161 1.268 . S
C167 H162 0.950 1_545 S
C167 C168 1.478 1_655 S
C168 C167 1.478 1_455 S
C168 C169 1.397 . S
C168 C185 1.394 1_556 S
C169 C168 1.397 . S
C169 C170 1.438 . S
C169 C174 1.429 . S
C170 C169 1.438 . S
C170 C171 1.428 . S
C170 C183 1.396 1_556 S
C171 H163 0.949 . S
C171 C170 1.428 . S
C171 C172 1.345 . S
C172 H164 0.950 . S
C172 C171 1.345 . S
C172 C173 1.424 . S
C173 H165 0.951 . S
C173 C172 1.424 . S
C173 C174 1.347 . S
C174 H166 0.951 1_445 S
C174 C169 1.429 . S
C174 C173 1.347 . S
H175 C176 0.951 . S
C176 H175 0.951 . S
C176 C182 1.265 1_556 S
H177 C182 0.950 . S
H178 C186 0.949 1_655 S
H179 C187 0.950 . S
H180 C188 0.951 . S
H181 C189 0.951 . S
C182 C176 1.265 1_554 S
C182 H177 0.950 . S
C182 C183 1.478 . S
C183 C170 1.396 1_554 S
C183 C182 1.478 . S
C183 C184 1.394 . S
C184 C183 1.394 . S
C184 C185 1.438 . S
C184 C189 1.429 . S
C185 C168 1.394 1_554 S
C185 C184 1.438 . S
C185 C186 1.428 . S
C186 H178 0.949 1_455 S
C186 C185 1.428 . S
C186 C187 1.345 . S
C187 H179 0.950 . S
C187 C186 1.345 . S
C187 C188 1.424 . S
C188 H180 0.951 . S
C188 C187 1.424 . S
C188 C189 1.347 . S
C189 H181 0.951 . S
C189 C184 1.429 . S
C189 C188 1.347 . S
H190 C191 0.951 . S
C191 H190 0.951 . S
C191 C197 1.265 1_655 S
H192 C197 0.950 . S
H193 C201 0.949 . S
H194 C202 0.950 . S
H195 C203 0.951 . S
H196 C204 0.951 . S
C197 C191 1.265 1_455 S
C197 H192 0.950 . S
C197 C198 1.478 1_565 S
C198 C197 1.478 1_545 S
C198 C199 1.397 . S
C198 C215 1.394 . S
C199 C198 1.397 . S
C199 C200 1.438 . S
C199 C204 1.429 . S
C200 C199 1.438 . S
C200 C201 1.428 . S
C200 C213 1.394 . S
C201 H193 0.949 . S
C201 C200 1.428 . S
C201 C202 1.345 . S
C202 H194 0.950 . S
C202 C201 1.345 . S
C202 C203 1.424 . S
C203 H195 0.951 . S
C203 C202 1.424 . S
C203 C204 1.347 . S
C204 H196 0.951 . S
C204 C199 1.429 . S
C204 C203 1.347 . S
H205 C206 0.951 . S
C206 H205 0.951 . S
C206 C212 1.265 . S
H207 C212 0.950 . S
H208 C216 0.949 1_565 S
H209 C217 0.950 1_655 S
H210 C218 0.951 . S
H211 C219 0.951 . S
C212 C206 1.265 . S
C212 H207 0.950 . S
C212 C213 1.478 . S
C213 C200 1.394 . S
C213 C212 1.478 . S
C213 C214 1.397 . S
C214 C213 1.397 . S
C214 C215 1.438 . S
C214 C219 1.429 . S
C215 C198 1.394 . S
C215 C214 1.438 . S
C215 C216 1.428 . S
C216 H208 0.949 1_545 S
C216 C215 1.428 . S
C216 C217 1.345 . S
C217 H209 0.950 1_455 S
C217 C216 1.345 . S
C217 C218 1.424 . S
C218 H210 0.951 . S
C218 C217 1.424 . S
C218 C219 1.347 . S
C219 H211 0.951 . S
C219 C214 1.429 . S
C219 C218 1.347 . S
H220 C221 0.951 . S
C221 H220 0.951 . S
C221 C227 1.265 1_565 S
H222 C227 0.950 . S
H223 C231 0.949 . S
H224 C232 0.950 . S
H225 C233 0.951 . S
H226 C234 0.951 . S
C227 C221 1.265 1_545 S
C227 H222 0.950 . S
C227 C228 1.478 . S
C228 C227 1.478 . S
C228 C229 1.397 1_554 S
C228 C245 1.394 . S
C229 C228 1.397 1_556 S
C229 C230 1.438 . S
C229 C234 1.429 . S
C230 C229 1.438 . S
C230 C231 1.428 . S
C230 C243 1.394 1_556 S
C231 H223 0.949 . S
C231 C230 1.428 . S
C231 C232 1.345 . S
C232 H224 0.950 . S
C232 C231 1.345 . S
C232 C233 1.424 . S
C233 H225 0.951 . S
C233 C232 1.424 . S
C233 C234 1.347 . S
C234 H226 0.951 . S
C234 C229 1.429 . S
C234 C233 1.347 . S
H235 C236 0.951 . S
C236 H235 0.951 . S
C236 C242 1.265 . S
H237 C242 0.950 . S
H238 C246 0.949 . S
H239 C247 0.950 1_565 S
H240 C248 0.951 . S
H241 C249 0.951 . S
C242 C236 1.265 . S
C242 H237 0.950 . S
C242 C243 1.478 . S
C243 C230 1.394 1_554 S
C243 C242 1.478 . S
C243 C244 1.397 . S
C244 C243 1.397 . S
C244 C245 1.438 . S
C244 C249 1.429 . S
C245 C228 1.394 . S
C245 C244 1.438 . S
C245 C246 1.428 . S
C246 H238 0.949 . S
C246 C245 1.428 . S
C246 C247 1.345 . S
C247 H239 0.950 1_545 S
C247 C246 1.345 . S
C247 C248 1.424 . S
C248 H240 0.951 . S
C248 C247 1.424 . S
C248 C249 1.347 . S
C249 H241 0.951 . S
C249 C244 1.429 . S
C249 C248 1.347 . S
H250 C251 0.951 . S
C251 H250 0.951 . S
C251 C257 1.265 . S
H252 C257 0.950 . S
H253 C261 0.949 . S
H254 C262 0.950 . S
H255 C263 0.951 . S
H256 C264 0.951 . S
C257 C251 1.265 . S
C257 H252 0.950 . S
C257 C258 1.478 . S
C258 C257 1.478 . S
C258 C259 1.397 . S
C258 C275 1.394 . S
C259 C258 1.397 . S
C259 C260 1.438 . S
C259 C264 1.429 . S
C260 C259 1.438 . S
C260 C261 1.428 . S
C260 C273 1.394 . S
C261 H253 0.949 . S
C261 C260 1.428 . S
C261 C262 1.345 . S
C262 H254 0.950 . S
C262 C261 1.345 . S
C262 C263 1.424 . S
C263 H255 0.951 . S
C263 C262 1.424 . S
C263 C264 1.347 . S
C264 H256 0.951 . S
C264 C259 1.429 . S
C264 C263 1.347 . S
H265 C266 0.951 . S
C266 H265 0.951 . S
C266 C272 1.265 1_655 S
H267 C272 0.950 . S
H268 C276 0.949 . S
H269 C277 0.950 . S
H270 C278 0.951 . S
H271 C279 0.951 . S
C272 C266 1.265 1_455 S
C272 H267 0.950 . S
C272 C273 1.478 . S
C273 C260 1.394 . S
C273 C272 1.478 . S
C273 C274 1.397 . S
C274 C273 1.397 . S
C274 C275 1.438 . S
C274 C279 1.429 . S
C275 C258 1.394 . S
C275 C274 1.438 . S
C275 C276 1.428 . S
C276 H268 0.949 . S
C276 C275 1.428 . S
C276 C277 1.345 . S
C277 H269 0.950 . S
C277 C276 1.345 . S
C277 C278 1.424 . S
C278 H270 0.951 . S
C278 C277 1.424 . S
C278 C279 1.347 . S
C279 H271 0.951 . S
C279 C274 1.429 . S
C279 C278 1.347 . S
H280 C281 0.951 . S
C281 H280 0.951 . S
C281 C287 1.265 . S
H282 C287 0.950 . S
H283 C291 0.949 . S
H284 C292 0.950 . S
H285 C293 0.951 . S
H286 C294 0.951 . S
C287 C281 1.265 . S
C287 H282 0.950 . S
C287 C288 1.478 . S
C288 C287 1.478 . S
C288 C289 1.397 . S
C288 C305 1.394 . S
C289 C288 1.397 . S
C289 C290 1.438 . S
C289 C294 1.429 . S
C290 C289 1.438 . S
C290 C291 1.428 . S
C290 C303 1.394 . S
C291 H283 0.949 . S
C291 C290 1.428 . S
C291 C292 1.345 . S
C292 H284 0.950 . S
C292 C291 1.345 . S
C292 C293 1.424 . S
C293 H285 0.951 . S
C293 C292 1.424 . S
C293 C294 1.347 . S
C294 H286 0.951 . S
C294 C289 1.429 . S
C294 C293 1.347 . S
H295 C296 0.951 . S
C296 H295 0.951 . S
C296 C302 1.265 . S
H297 C302 0.950 . S
H298 C306 0.949 . S
H299 C307 0.950 . S
H300 C308 0.951 . S
H301 C309 0.951 . S
C302 C296 1.265 . S
C302 H297 0.950 . S
C302 C303 1.478 . S
C303 C290 1.394 . S
C303 C302 1.478 . S
C303 C304 1.397 . S
C304 C303 1.397 . S
C304 C305 1.438 . S
C304 C309 1.429 . S
C305 C288 1.394 . S
C305 C304 1.438 . S
C305 C306 1.428 . S
C306 H298 0.949 . S
C306 C305 1.428 . S
C306 C307 1.345 . S
C307 H299 0.950 . S
C307 C306 1.345 . S
C307 C308 1.424 . S
C308 H300 0.951 . S
C308 C307 1.424 . S
C308 C309 1.347 . S
C309 H301 0.951 . S
C309 C304 1.429 . S
C309 C308 1.347 . S
H310 C311 0.951 . S
C311 H310 0.951 . S
C311 C317 1.265 . S
H312 C317 0.950 . S
H313 C321 0.949 . S
H314 C322 0.950 . S
H315 C323 0.951 . S
H316 C324 0.951 . S
C317 C311 1.265 . S
C317 H312 0.950 . S
C317 C318 1.478 . S
C318 C317 1.478 . S
C318 C319 1.397 1_455 S
C318 C335 1.394 . S
C319 C318 1.397 1_655 S
C319 C320 1.438 . S
C319 C324 1.429 . S
C320 C319 1.438 . S
C320 C321 1.428 . S
C320 C333 1.394 . S
C321 H313 0.949 . S
C321 C320 1.428 . S
C321 C322 1.345 . S
C322 H314 0.950 . S
C322 C321 1.345 . S
C322 C323 1.424 . S
C323 H315 0.951 . S
C323 C322 1.424 . S
C323 C324 1.347 . S
C324 H316 0.951 . S
C324 C319 1.429 . S
C324 C323 1.347 . S
H325 C326 0.951 . S
C326 H325 0.951 . S
C326 C332 1.265 . S
H327 C332 0.950 . S
H328 C336 0.949 . S
H329 C337 0.950 . S
H330 C338 0.951 . S
H331 C339 0.951 . S
C332 C326 1.265 . S
C332 H327 0.950 . S
C332 C333 1.478 . S
C333 C320 1.394 . S
C333 C332 1.478 . S
C333 C334 1.397 . S
C334 C333 1.397 . S
C334 C335 1.438 1_655 S
C334 C339 1.429 . S
C335 C318 1.394 . S
C335 C334 1.438 1_455 S
C335 C336 1.428 . S
C336 H328 0.949 . S
C336 C335 1.428 . S
C336 C337 1.345 . S
C337 H329 0.950 . S
C337 C336 1.345 . S
C337 C338 1.424 . S
C338 H330 0.951 . S
C338 C337 1.424 . S
C338 C339 1.347 1_455 S
C339 H331 0.951 . S
C339 C334 1.429 . S
C339 C338 1.347 1_655 S
H340 C341 0.951 . S
C341 H340 0.951 . S
C341 C347 1.265 . S
H342 C347 0.950 . S
H343 C351 0.949 . S
H344 C352 0.950 . S
H345 C353 0.951 . S
H346 C354 0.951 . S
C347 C341 1.265 . S
C347 H342 0.950 . S
C347 C348 1.478 . S
C348 C347 1.478 . S
C348 C349 1.397 . S
C348 C365 1.394 . S
C349 C348 1.397 . S
C349 C350 1.438 . S
C349 C354 1.429 . S
C350 C349 1.438 . S
C350 C351 1.428 . S
C350 C363 1.394 . S
C351 H343 0.949 . S
C351 C350 1.428 . S
C351 C352 1.345 . S
C352 H344 0.950 . S
C352 C351 1.345 . S
C352 C353 1.424 . S
C353 H345 0.951 . S
C353 C352 1.424 . S
C353 C354 1.347 . S
C354 H346 0.951 . S
C354 C349 1.429 . S
C354 C353 1.347 . S
H355 C356 0.951 . S
C356 H355 0.951 . S
C356 C362 1.265 . S
H357 C362 0.950 . S
H358 C366 0.949 . S
H359 C367 0.950 . S
H360 C368 0.951 . S
H361 C369 0.951 . S
C362 C356 1.265 . S
C362 H357 0.950 . S
C362 C363 1.478 . S
C363 C350 1.394 . S
C363 C362 1.478 . S
C363 C364 1.397 . S
C364 C363 1.397 . S
C364 C365 1.438 . S
C364 C369 1.429 . S
C365 C348 1.394 . S
C365 C364 1.438 . S
C365 C366 1.428 . S
C366 H358 0.949 . S
C366 C365 1.428 . S
C366 C367 1.345 . S
C367 H359 0.950 . S
C367 C366 1.345 . S
C367 C368 1.424 . S
C368 H360 0.951 . S
C368 C367 1.424 . S
C368 C369 1.347 . S
C369 H361 0.951 . S
C369 C364 1.429 . S
C369 C368 1.347 . S
H370 C371 0.951 . S
C371 H370 0.951 . S
C371 C377 1.265 . S
H372 C377 0.950 . S
H373 C381 0.949 . S
H374 C382 0.950 . S
H375 C383 0.951 . S
H376 C384 0.951 . S
C377 C371 1.265 . S
C377 H372 0.950 . S
C377 C378 1.478 . S
C378 C377 1.478 . S
C378 C379 1.397 . S
C378 C395 1.394 1_565 S
C379 C378 1.397 . S
C379 C380 1.438 . S
C379 C384 1.429 . S
C380 C379 1.438 . S
C380 C381 1.428 . S
C380 C393 1.394 1_565 S
C381 H373 0.949 . S
C381 C380 1.428 . S
C381 C382 1.345 . S
C382 H374 0.950 . S
C382 C381 1.345 . S
C382 C383 1.424 . S
C383 H375 0.951 . S
C383 C382 1.424 . S
C383 C384 1.347 . S
C384 H376 0.951 . S
C384 C379 1.429 . S
C384 C383 1.347 . S
H385 C386 0.951 . S
C386 H385 0.951 . S
C386 C392 1.265 . S
H387 C392 0.950 . S
H388 C396 0.949 . S
H389 C397 0.950 . S
H390 C398 0.951 . S
H391 C399 0.951 . S
C392 C386 1.265 . S
C392 H387 0.950 . S
C392 C393 1.478 . S
C393 C380 1.394 1_545 S
C393 C392 1.478 . S
C393 C394 1.397 . S
C394 C393 1.397 . S
C394 C395 1.438 . S
C394 C399 1.429 . S
C395 C378 1.394 1_545 S
C395 C394 1.438 . S
C395 C396 1.428 . S
C396 H388 0.949 . S
C396 C395 1.428 . S
C396 C397 1.345 . S
C397 H389 0.950 . S
C397 C396 1.345 . S
C397 C398 1.424 . S
C398 H390 0.951 . S
C398 C397 1.424 . S
C398 C399 1.347 . S
C399 H391 0.951 . S
C399 C394 1.429 . S
C399 C398 1.347 . S
H400 C401 0.951 . S
C401 H400 0.951 . S
C401 C407 1.265 . S
H402 C407 0.950 . S
H403 C411 0.949 . S
H404 C412 0.950 . S
H405 C413 0.951 . S
H406 C414 0.951 . S
C407 C401 1.265 . S
C407 H402 0.950 . S
C407 C408 1.478 . S
C408 C407 1.478 . S
C408 C409 1.397 . S
C408 C425 1.394 . S
C409 C408 1.397 . S
C409 C410 1.438 . S
C409 C414 1.429 . S
C410 C409 1.438 . S
C410 C411 1.428 . S
C410 C423 1.394 . S
C411 H403 0.949 . S
C411 C410 1.428 . S
C411 C412 1.345 . S
C412 H404 0.950 . S
C412 C411 1.345 . S
C412 C413 1.424 . S
C413 H405 0.951 . S
C413 C412 1.424 . S
C413 C414 1.347 . S
C414 H406 0.951 . S
C414 C409 1.429 . S
C414 C413 1.347 . S
H415 C416 0.951 . S
C416 H415 0.951 . S
C416 C422 1.265 . S
H417 C422 0.950 . S
H418 C426 0.949 . S
H419 C427 0.950 . S
H420 C428 0.951 . S
H421 C429 0.951 . S
C422 C416 1.265 . S
C422 H417 0.950 . S
C422 C423 1.478 . S
C423 C410 1.394 . S
C423 C422 1.478 . S
C423 C424 1.397 . S
C424 C423 1.397 . S
C424 C425 1.438 . S
C424 C429 1.429 . S
C425 C408 1.394 . S
C425 C424 1.438 . S
C425 C426 1.428 . S
C426 H418 0.949 . S
C426 C425 1.428 . S
C426 C427 1.345 . S
C427 H419 0.950 . S
C427 C426 1.345 . S
C427 C428 1.424 . S
C428 H420 0.951 . S
C428 C427 1.424 . S
C428 C429 1.347 . S
C429 H421 0.951 . S
C429 C424 1.429 . S
C429 C428 1.347 . S
H430 C431 0.951 1_565 S
C431 H430 0.951 1_545 S
C431 C437 1.265 . S
H432 C437 0.950 . S
H433 C441 0.949 . S
H434 C442 0.950 . S
H435 C443 0.951 . S
H436 C444 0.951 . S
C437 C431 1.265 . S
C437 H432 0.950 . S
C437 C438 1.478 1_545 S
C438 C437 1.478 1_565 S
C438 C439 1.397 . S
C438 C455 1.394 . S
C439 C438 1.397 . S
C439 C440 1.438 . S
C439 C444 1.429 . S
C440 C439 1.438 . S
C440 C441 1.428 . S
C440 C453 1.394 . S
C441 H433 0.949 . S
C441 C440 1.428 . S
C441 C442 1.345 . S
C442 H434 0.950 . S
C442 C441 1.345 . S
C442 C443 1.424 . S
C443 H435 0.951 . S
C443 C442 1.424 . S
C443 C444 1.347 . S
C444 H436 0.951 . S
C444 C439 1.429 . S
C444 C443 1.347 . S
H445 C446 0.951 . S
C446 H445 0.951 . S
C446 C452 1.265 . S
H447 C452 0.950 . S
H448 C456 0.949 . S
H449 C457 0.950 . S
H450 C458 0.951 . S
H451 C459 0.951 . S
C452 C446 1.265 . S
C452 H447 0.950 . S
C452 C453 1.478 . S
C453 C440 1.394 . S
C453 C452 1.478 . S
C453 C454 1.397 . S
C454 C453 1.397 . S
C454 C455 1.438 . S
C454 C459 1.429 . S
C455 C438 1.394 . S
C455 C454 1.438 . S
C455 C456 1.428 1_565 S
C456 H448 0.949 . S
C456 C455 1.428 1_545 S
C456 C457 1.345 . S
C457 H449 0.950 . S
C457 C456 1.345 . S
C457 C458 1.424 1_545 S
C458 H450 0.951 . S
C458 C457 1.424 1_565 S
C458 C459 1.347 . S
C459 H451 0.951 . S
C459 C454 1.429 . S
C459 C458 1.347 . S
H460 C461 0.951 . S
C461 H460 0.951 . S
C461 C467 1.265 . S
H462 C467 0.950 . S
H463 C471 0.949 . S
H464 C472 0.950 . S
H465 C473 0.951 . S
H466 C474 0.951 . S
C467 C461 1.265 . S
C467 H462 0.950 . S
C467 C468 1.478 . S
C468 C467 1.478 . S
C468 C469 1.397 . S
C468 C485 1.394 . S
C469 C468 1.397 . S
C469 C470 1.438 . S
C469 C474 1.429 . S
C470 C469 1.438 . S
C470 C471 1.428 . S
C470 C483 1.394 . S
C471 H463 0.949 . S
C471 C470 1.428 . S
C471 C472 1.345 . S
C472 H464 0.950 . S
C472 C471 1.345 . S
C472 C473 1.424 . S
C473 H465 0.951 . S
C473 C472 1.424 . S
C473 C474 1.347 . S
C474 H466 0.951 . S
C474 C469 1.429 . S
C474 C473 1.347 . S
H475 C476 0.951 . S
C476 H475 0.951 . S
C476 C482 1.265 . S
H477 C482 0.950 . S
H478 C486 0.949 . S
H479 C487 0.950 . S
H480 C488 0.951 . S
H481 C489 0.951 . S
C482 C476 1.265 . S
C482 H477 0.950 . S
C482 C483 1.478 . S
C483 C470 1.394 . S
C483 C482 1.478 . S
C483 C484 1.397 . S
C484 C483 1.397 . S
C484 C485 1.438 . S
C484 C489 1.429 . S
C485 C468 1.394 . S
C485 C484 1.438 . S
C485 C486 1.428 . S
C486 H478 0.949 . S
C486 C485 1.428 . S
C486 C487 1.345 . S
C487 H479 0.950 . S
C487 C486 1.345 . S
C487 C488 1.424 . S
C488 H480 0.951 . S
C488 C487 1.424 . S
C488 C489 1.347 . S
C489 H481 0.951 . S
C489 C484 1.429 . S
C489 C488 1.347 . S
H490 C491 0.951 . S
C491 H490 0.951 . S
C491 C497 1.265 . S
H492 C497 0.950 . S
H493 C501 0.949 . S
H494 C502 0.950 . S
H495 C503 0.951 . S
H496 C504 0.951 1_655 S
C497 C491 1.265 . S
C497 H492 0.950 . S
C497 C498 1.478 . S
C498 C497 1.478 . S
C498 C499 1.397 . S
C498 C515 1.394 . S
C499 C498 1.397 . S
C499 C500 1.438 1_655 S
C499 C504 1.429 1_655 S
C500 C499 1.438 1_455 S
C500 C501 1.428 . S
C500 C513 1.394 1_455 S
C501 H493 0.949 . S
C501 C500 1.428 . S
C501 C502 1.345 . S
C502 H494 0.950 . S
C502 C501 1.345 . S
C502 C503 1.424 . S
C503 H495 0.951 . S
C503 C502 1.424 . S
C503 C504 1.347 . S
C504 H496 0.951 1_455 S
C504 C499 1.429 1_455 S
C504 C503 1.347 . S
H505 C506 0.951 . S
C506 H505 0.951 . S
C506 C512 1.275 . S
H507 C512 0.940 1_655 S
H508 C516 0.949 . S
H509 C517 0.950 . S
H510 C518 0.951 . S
H511 C519 0.951 . S
C512 C506 1.275 . S
C512 H507 0.940 1_455 S
C512 C513 1.477 1_455 S
C513 C500 1.394 1_655 S
C513 C512 1.477 1_655 S
C513 C514 1.397 . S
C514 C513 1.397 . S
C514 C515 1.438 . S
C514 C519 1.429 . S
C515 C498 1.394 . S
C515 C514 1.438 . S
C515 C516 1.428 . S
C516 H508 0.949 . S
C516 C515 1.428 . S
C516 C517 1.345 . S
C517 H509 0.950 . S
C517 C516 1.345 . S
C517 C518 1.424 . S
C518 H510 0.951 . S
C518 C517 1.424 . S
C518 C519 1.347 . S
C519 H511 0.951 . S
C519 C514 1.429 . S
C519 C518 1.347 . S
C161 C97 0.395 1_556 S
C176 C17 0.417 1_556 S
C191 C137 0.738 1_655 S
C206 C57 0.744 . S
C221 C82 1.226 . S
C236 C2 1.226 . S
C251 C42 1.230 . S
C266 C122 1.221 . S
C281 C71 4.663 . S
C296 C31 4.677 . S
C311 C52 4.435 . S
C326 C92 4.439 . S
C341 C151 4.671 . S
C356 C111 4.655 . S
C371 C132 4.442 . S
C386 C12 4.431 . S
C401 C109 0.801 . S
C416 C149 0.805 . S
C431 C8 1.200 1_545 S
C446 C128 1.142 . S
C461 C69 0.917 . S
C476 C29 0.951 . S
C491 C88 1.202 . S
C506 C48 1.144 1_455 S
