# Generated by pormake.
# Topology unn, (4)-cn, num edge types: 1
# Building blocks:
#     Node 0, Type 0, BuildingBlock: CEKHIL_clean_sbu_0, # of connection points: 4
#     Node 1, Type 0, BuildingBlock: CEKHIL_clean_sbu_0, # of connection points: 4
#     Node 2, Type 0, BuildingBlock: CEKHIL_clean_sbu_0, # of connection points: 4
#     Node 3, Type 0, BuildingBlock: CEKHIL_clean_sbu_0, # of connection points: 4
#     Node 4, Type 0, BuildingBlock: CEKHIL_clean_sbu_0, # of connection points: 4
#     Node 5, Type 0, BuildingBlock: CEKHIL_clean_sbu_0, # of connection points: 4
#     Node 6, Type 0, BuildingBlock: CEKHIL_clean_sbu_0, # of connection points: 4
#     Node 7, Type 0, BuildingBlock: CEKHIL_clean_sbu_0, # of connection points: 4
#     Node 8, Type 0, BuildingBlock: CEKHIL_clean_sbu_0, # of connection points: 4
#     Node 9, Type 0, BuildingBlock: CEKHIL_clean_sbu_0, # of connection points: 4
#     Node 10, Type 0, BuildingBlock: CEKHIL_clean_sbu_0, # of connection points: 4
#     Node 11, Type 0, BuildingBlock: CEKHIL_clean_sbu_0, # of connection points: 4
#     Node 12, Type 0, BuildingBlock: CEKHIL_clean_sbu_0, # of connection points: 4
#     Node 13, Type 0, BuildingBlock: CEKHIL_clean_sbu_0, # of connection points: 4
#     Node 14, Type 0, BuildingBlock: CEKHIL_clean_sbu_0, # of connection points: 4
#     Node 15, Type 0, BuildingBlock: CEKHIL_clean_sbu_0, # of connection points: 4
#     Node 16, Type 0, BuildingBlock: CEKHIL_clean_sbu_0, # of connection points: 4
#     Node 17, Type 0, BuildingBlock: CEKHIL_clean_sbu_0, # of connection points: 4
#     Edge 18, Type (0, 0), BuildingBlock: XIVTED_clean_linker_0, # of connection points: 2
#     Edge 19, Type (0, 0), BuildingBlock: XIVTED_clean_linker_0, # of connection points: 2
#     Edge 20, Type (0, 0), BuildingBlock: XIVTED_clean_linker_0, # of connection points: 2
#     Edge 21, Type (0, 0), BuildingBlock: XIVTED_clean_linker_0, # of connection points: 2
#     Edge 22, Type (0, 0), BuildingBlock: XIVTED_clean_linker_0, # of connection points: 2
#     Edge 23, Type (0, 0), BuildingBlock: XIVTED_clean_linker_0, # of connection points: 2
#     Edge 24, Type (0, 0), BuildingBlock: XIVTED_clean_linker_0, # of connection points: 2
#     Edge 25, Type (0, 0), BuildingBlock: XIVTED_clean_linker_0, # of connection points: 2
#     Edge 26, Type (0, 0), BuildingBlock: XIVTED_clean_linker_0, # of connection points: 2
#     Edge 27, Type (0, 0), BuildingBlock: XIVTED_clean_linker_0, # of connection points: 2
#     Edge 28, Type (0, 0), BuildingBlock: XIVTED_clean_linker_0, # of connection points: 2
#     Edge 29, Type (0, 0), BuildingBlock: XIVTED_clean_linker_0, # of connection points: 2
#     Edge 30, Type (0, 0), BuildingBlock: XIVTED_clean_linker_0, # of connection points: 2
#     Edge 31, Type (0, 0), BuildingBlock: XIVTED_clean_linker_0, # of connection points: 2
#     Edge 32, Type (0, 0), BuildingBlock: XIVTED_clean_linker_0, # of connection points: 2
#     Edge 33, Type (0, 0), BuildingBlock: XIVTED_clean_linker_0, # of connection points: 2
#     Edge 34, Type (0, 0), BuildingBlock: XIVTED_clean_linker_0, # of connection points: 2
#     Edge 35, Type (0, 0), BuildingBlock: XIVTED_clean_linker_0, # of connection points: 2
#     Edge 36, Type (0, 0), BuildingBlock: XIVTED_clean_linker_0, # of connection points: 2
#     Edge 37, Type (0, 0), BuildingBlock: XIVTED_clean_linker_0, # of connection points: 2
#     Edge 38, Type (0, 0), BuildingBlock: XIVTED_clean_linker_0, # of connection points: 2
#     Edge 39, Type (0, 0), BuildingBlock: XIVTED_clean_linker_0, # of connection points: 2
#     Edge 40, Type (0, 0), BuildingBlock: XIVTED_clean_linker_0, # of connection points: 2
#     Edge 41, Type (0, 0), BuildingBlock: XIVTED_clean_linker_0, # of connection points: 2
#     Edge 42, Type (0, 0), BuildingBlock: XIVTED_clean_linker_0, # of connection points: 2
#     Edge 43, Type (0, 0), BuildingBlock: XIVTED_clean_linker_0, # of connection points: 2
#     Edge 44, Type (0, 0), BuildingBlock: XIVTED_clean_linker_0, # of connection points: 2
#     Edge 45, Type (0, 0), BuildingBlock: XIVTED_clean_linker_0, # of connection points: 2
#     Edge 46, Type (0, 0), BuildingBlock: XIVTED_clean_linker_0, # of connection points: 2
#     Edge 47, Type (0, 0), BuildingBlock: XIVTED_clean_linker_0, # of connection points: 2
#     Edge 48, Type (0, 0), BuildingBlock: XIVTED_clean_linker_0, # of connection points: 2
#     Edge 49, Type (0, 0), BuildingBlock: XIVTED_clean_linker_0, # of connection points: 2
#     Edge 50, Type (0, 0), BuildingBlock: XIVTED_clean_linker_0, # of connection points: 2
#     Edge 51, Type (0, 0), BuildingBlock: XIVTED_clean_linker_0, # of connection points: 2
#     Edge 52, Type (0, 0), BuildingBlock: XIVTED_clean_linker_0, # of connection points: 2
#     Edge 53, Type (0, 0), BuildingBlock: XIVTED_clean_linker_0, # of connection points: 2
# Relax obj value: 0.130
# Max RMSD: 0.232
# Mean RMSD: 0.225
data_MOF--net-unn--node1-CEKHIL_clean_sbu_0--edge1-XIVTED_clean_linker_0
_symmetry_space_group_name_H-M    P1
_symmetry_Int_Tables_number       1
_symmetry_cell_setting            triclinic
loop_
_symmetry_equiv_pos_as_xyz
'x, y, z'
_cell_length_a     46.542829
_cell_length_b     46.350564
_cell_length_c     37.472887
_cell_angle_alpha  90.220057
_cell_angle_beta   89.917787
_cell_angle_gamma 120.37797
loop_
_atom_site_label
_atom_site_type_symbol
_atom_site_fract_x
_atom_site_fract_y
_atom_site_fract_z
_atom_type_partial_charge
Co0 Co 0.11089 0.79294 0.25007 0.0
O1 O 0.06447 0.76583 0.23824 0.0
O2 O 0.09656 0.81607 0.21635 0.0
C3 C 0.10452 0.78373 0.30915 0.0
O4 O 0.16094 0.82687 0.25966 0.0
Co5 Co 0.14149 0.7519 0.27722 0.0
O6 O 0.18154 0.79665 0.28455 0.0
C7 C 0.11757 0.74352 0.20467 0.0
C8 C 0.06725 0.7889 0.21701 0.0
C9 C 0.18489 0.82451 0.27464 0.0
O10 O 0.12158 0.7728 0.20847 0.0
O11 O 0.12132 0.72799 0.23073 0.0
O12 O 0.10059 0.80699 0.2948 0.0
O13 O 0.10804 0.76439 0.28677 0.0
Co14 Co 0.27182 0.3457 0.22778 0.0
O15 O 0.25955 0.37709 0.24539 0.0
O16 O 0.22336 0.32398 0.23527 0.0
C17 C 0.30602 0.37923 0.18478 0.0
O18 O 0.27805 0.30732 0.20707 0.0
Co19 Co 0.3471 0.36735 0.23528 0.0
O20 O 0.33374 0.33 0.20114 0.0
C21 C 0.30406 0.34741 0.29859 0.0
C22 C 0.22884 0.3533 0.24555 0.0
C23 C 0.30397 0.30663 0.195 0.0
O24 O 0.27809 0.33506 0.27847 0.0
O25 O 0.3338 0.36428 0.28652 0.0
O26 O 0.27411 0.36201 0.17916 0.0
O27 O 0.31527 0.37836 0.21691 0.0
Co28 Co 0.67371 0.91483 0.22251 0.0
O29 O 0.64313 0.87135 0.24161 0.0
O30 O 0.69703 0.89111 0.2367 0.0
C31 C 0.64351 0.91172 0.17441 0.0
O32 O 0.71153 0.95985 0.20155 0.0
Co33 Co 0.64779 0.96509 0.22086 0.0
O34 O 0.68622 0.9892 0.18833 0.0
C35 C 0.67305 0.9543 0.28817 0.0
C36 C 0.66786 0.86654 0.24627 0.0
C37 C 0.71125 0.98502 0.1865 0.0
O38 O 0.68141 0.93528 0.27167 0.0
O39 O 0.65709 0.96677 0.27322 0.0
O40 O 0.66165 0.89773 0.17399 0.0
O41 O 0.64022 0.92208 0.20532 0.0
Co42 Co 0.12953 0.3717 0.73879 0.0
O43 O 0.17228 0.40395 0.75836 0.0
O44 O 0.15718 0.35143 0.74801 0.0
C45 C 0.12965 0.4047 0.69469 0.0
O46 O 0.08618 0.33259 0.71622 0.0
Co47 Co 0.07427 0.39117 0.74281 0.0
O48 O 0.05203 0.35356 0.70863 0.0
C49 C 0.09357 0.36967 0.80763 0.0
C50 C 0.18019 0.38098 0.759 0.0
C51 C 0.05946 0.33094 0.7031 0.0
O52 O 0.11011 0.3598 0.78866 0.0
O53 O 0.08043 0.38583 0.79465 0.0
O54 O 0.14551 0.38853 0.69073 0.0
O55 O 0.11816 0.40355 0.72628 0.0
Co56 Co 0.70547 0.75519 0.74772 0.0
O57 O 0.72822 0.73075 0.73973 0.0
O58 O 0.73509 0.77219 0.70558 0.0
C59 C 0.7138 0.76137 0.80695 0.0
O60 O 0.68454 0.7856 0.75145 0.0
Co61 Co 0.6409 0.7163 0.79305 0.0
O62 O 0.64295 0.76001 0.7918 0.0
C63 C 0.64268 0.6938 0.72123 0.0
C64 C 0.74175 0.7484 0.71156 0.0
C65 C 0.66132 0.78478 0.77166 0.0
O66 O 0.66889 0.72228 0.71591 0.0
O67 O 0.62818 0.68458 0.75148 0.0
O68 O 0.73683 0.78205 0.78527 0.0
O69 O 0.68892 0.73588 0.7919 0.0
Co70 Co 0.26469 0.94483 0.75206 0.0
O71 O 0.28953 0.9921 0.74318 0.0
O72 O 0.24374 0.95748 0.71412 0.0
C73 C 0.26556 0.94791 0.81186 0.0
O74 O 0.23358 0.89356 0.75766 0.0
Co75 Co 0.30761 0.91897 0.78688 0.0
O76 O 0.26356 0.87731 0.79064 0.0
C77 C 0.32251 0.94625 0.71553 0.0
C78 C 0.26884 0.98793 0.71807 0.0
C79 C 0.23635 0.87113 0.77568 0.0
O80 O 0.29198 0.93876 0.71467 0.0
O81 O 0.33579 0.94268 0.74377 0.0
O82 O 0.24343 0.95104 0.79385 0.0
O83 O 0.28872 0.94776 0.79287 0.0
Co84 Co 0.78149 0.108 0.56623 0.0
O85 O 0.7349 0.08207 0.55516 0.0
O86 O 0.76729 0.13266 0.53442 0.0
C87 C 0.77433 0.09726 0.62488 0.0
O88 O 0.83187 0.14085 0.57571 0.0
Co89 Co 0.81054 0.06557 0.59128 0.0
O90 O 0.85004 0.10955 0.60264 0.0
C91 C 0.78532 0.05812 0.51942 0.0
C92 C 0.73763 0.10596 0.53546 0.0
C93 C 0.85467 0.13785 0.59255 0.0
O94 O 0.7907 0.08788 0.5236 0.0
O95 O 0.78919 0.04221 0.54496 0.0
O96 O 0.77246 0.12196 0.61127 0.0
O97 O 0.77708 0.07776 0.60203 0.0
Co98 Co 0.92408 0.64382 0.5644 0.0
O99 O 0.9492 0.62223 0.55398 0.0
O100 O 0.90593 0.61402 0.52236 0.0
C101 C 0.92025 0.63429 0.62344 0.0
O102 O 0.89265 0.66328 0.57075 0.0
Co103 Co 0.96219 0.70816 0.60999 0.0
O104 O 0.9192 0.70718 0.60874 0.0
C105 C 0.98389 0.70689 0.53762 0.0
C106 C 0.93024 0.60797 0.52679 0.0
C107 C 0.89391 0.68733 0.59003 0.0
O108 O 0.95499 0.68124 0.53228 0.0
O109 O 0.99353 0.72073 0.56826 0.0
O110 O 0.8993 0.61158 0.60156 0.0
O111 O 0.94477 0.66018 0.60852 0.0
Co112 Co 0.37345 0.27815 0.58015 0.0
O113 O 0.39695 0.32556 0.57178 0.0
O114 O 0.40739 0.29077 0.54234 0.0
C115 C 0.37598 0.28153 0.64002 0.0
O116 O 0.35263 0.22675 0.58493 0.0
Co117 Co 0.30481 0.25129 0.61565 0.0
O118 O 0.30526 0.20886 0.61674 0.0
C119 C 0.31444 0.27584 0.54328 0.0
C120 C 0.41351 0.32137 0.5467 0.0
C121 C 0.32662 0.20351 0.60141 0.0
O122 O 0.34059 0.27327 0.54272 0.0
O123 O 0.29682 0.27063 0.5713 0.0
O124 O 0.40063 0.28351 0.62167 0.0
O125 O 0.35259 0.28156 0.62136 0.0
Co126 Co 0.77453 0.6855 0.08604 0.0
O127 O 0.72728 0.66184 0.07753 0.0
O128 O 0.76201 0.65254 0.04679 0.0
C129 C 0.77115 0.68146 0.14586 0.0
O130 O 0.82591 0.70684 0.0908 0.0
Co131 Co 0.8008 0.75346 0.12473 0.0
O132 O 0.84323 0.75327 0.12474 0.0
C133 C 0.7758 0.7453 0.05249 0.0
C134 C 0.73149 0.64611 0.05146 0.0
C135 C 0.84891 0.73259 0.10815 0.0
O136 O 0.779 0.71947 0.05023 0.0
O137 O 0.7808 0.76199 0.08133 0.0
O138 O 0.76929 0.65715 0.12664 0.0
O139 O 0.77115 0.7053 0.12803 0.0
Co140 Co 0.37358 0.08891 0.07689 0.0
O141 O 0.39652 0.06496 0.06725 0.0
O142 O 0.39911 0.1039 0.03185 0.0
C143 C 0.38824 0.09936 0.13455 0.0
O144 O 0.35196 0.11857 0.0822 0.0
Co145 Co 0.31427 0.05193 0.129 0.0
O146 O 0.31408 0.09448 0.12646 0.0
C147 C 0.30951 0.02528 0.05784 0.0
C148 C 0.40738 0.08127 0.03783 0.0
C149 C 0.33016 0.11819 0.10433 0.0
O150 O 0.33462 0.05365 0.04951 0.0
O151 O 0.29818 0.01758 0.08959 0.0
O152 O 0.40817 0.11868 0.10978 0.0
O153 O 0.3622 0.07239 0.12328 0.0
Co154 Co 0.93408 0.27744 0.08262 0.0
O155 O 0.95892 0.32525 0.07727 0.0
O156 O 0.91347 0.29257 0.04676 0.0
C157 C 0.93409 0.2768 0.14245 0.0
O158 O 0.90275 0.22581 0.08471 0.0
Co159 Co 0.97582 0.24886 0.11424 0.0
O160 O 0.9315 0.20766 0.11696 0.0
C161 C 0.99098 0.27727 0.04331 0.0
C162 C 0.93837 0.32276 0.05277 0.0
C163 C 0.90478 0.20242 0.10164 0.0
O164 O 0.96199 0.27416 0.04376 0.0
O165 O 1.00338 0.27077 0.0704 0.0
O166 O 0.91214 0.2808 0.12523 0.0
O167 O 0.9577 0.27798 0.12304 0.0
Co168 Co 0.44547 0.45254 0.90629 0.0
O169 O 0.39837 0.42649 0.89771 0.0
O170 O 0.43171 0.47165 0.86722 0.0
C171 C 0.44082 0.45339 0.96589 0.0
O172 O 0.49652 0.48506 0.91163 0.0
Co173 Co 0.47344 0.41365 0.94485 0.0
O174 O 0.51538 0.45735 0.94485 0.0
C175 C 0.44635 0.394 0.87371 0.0
C176 C 0.4016 0.4464 0.87217 0.0
C177 C 0.52004 0.48358 0.9288 0.0
O178 O 0.45159 0.4238 0.87072 0.0
O179 O 0.45115 0.38293 0.90294 0.0
O180 O 0.43885 0.47522 0.94601 0.0
O181 O 0.44217 0.4298 0.94869 0.0
Co182 Co 0.59943 0.0143 0.88119 0.0
O183 O 0.58563 0.04482 0.89769 0.0
O184 O 0.55178 0.99044 0.8941 0.0
C185 C 0.62799 0.04397 0.83339 0.0
O186 O 0.60766 0.97651 0.86279 0.0
Co187 Co 0.67635 0.04242 0.88119 0.0
O188 O 0.66275 1.00276 0.85034 0.0
C189 C 0.63916 0.01983 0.94846 0.0
C190 C 0.55596 0.01978 0.90219 0.0
C191 C 0.63357 0.9771 0.84866 0.0
O192 O 0.61152 1.00885 0.93146 0.0
O193 O 0.66772 0.03658 0.9336 0.0
O194 O 0.59584 0.02473 0.83139 0.0
O195 O 0.64038 0.04807 0.86492 0.0
Co196 Co 1.00458 0.59003 0.9087 0.0
O197 O 0.97365 0.54815 0.931 0.0
O198 O 0.02619 0.56417 0.92104 0.0
C199 C 0.97052 0.58559 0.86359 0.0
O200 O 0.0425 0.63265 0.88401 0.0
Co201 Co 0.98305 0.644 0.90671 0.0
O202 O 0.01987 0.66471 0.87179 0.0
C203 C 1.01062 0.63379 0.97303 0.0
C204 C 0.99718 0.54121 0.93303 0.0
C205 C 0.04331 0.65821 0.86861 0.0
O206 O 0.01707 0.61317 0.9568 0.0
O207 O 0.99476 0.64655 0.95843 0.0
O208 O 0.9875 0.57043 0.86171 0.0
O209 O 0.97165 0.5992 0.89403 0.0
Co210 Co 0.46526 0.04962 0.41756 0.0
O211 O 0.50963 0.08014 0.43448 0.0
O212 O 0.4898 0.02618 0.42803 0.0
C213 C 0.46694 0.08102 0.37097 0.0
O214 O 0.41902 0.01205 0.39858 0.0
Co215 Co 0.41708 0.07821 0.42225 0.0
O216 O 0.38788 0.03685 0.39512 0.0
C217 C 0.43313 0.05413 0.48724 0.0
C218 C 0.5149 0.05545 0.4368 0.0
C219 C 0.3918 0.01184 0.38979 0.0
O220 O 0.44779 0.04218 0.46822 0.0
O221 O 0.42229 0.07235 0.47425 0.0
O222 O 0.47998 0.06211 0.3683 0.0
O223 O 0.45764 0.08353 0.40267 0.0
Co224 Co 0.0381 0.42105 0.4042 0.0
O225 O 0.06182 0.3975 0.39738 0.0
O226 O 0.06471 0.43524 0.35985 0.0
C227 C 0.05149 0.43298 0.46207 0.0
O228 O 0.01589 0.45029 0.40608 0.0
Co229 Co 0.97765 0.38556 0.45467 0.0
O230 O 0.97515 0.42651 0.44762 0.0
C231 C 0.97529 0.35629 0.38563 0.0
C232 C 0.07323 0.41312 0.36767 0.0
C233 C 0.9924 0.44975 0.42545 0.0
O234 O 1.00013 0.38465 0.37679 0.0
O235 O 0.96317 0.34965 0.41713 0.0
O236 O 0.07159 0.45198 0.43722 0.0
O237 O 0.02577 0.40561 0.45096 0.0
Co238 Co 0.60692 0.61312 0.41587 0.0
O239 O 0.63107 0.66081 0.40923 0.0
O240 O 0.58725 0.62637 0.37727 0.0
C241 C 0.60458 0.61384 0.47561 0.0
O242 O 0.57613 0.56153 0.41853 0.0
Co243 Co 0.64717 0.58531 0.45347 0.0
O244 O 0.60387 0.54289 0.452 0.0
C245 C 0.66622 0.61341 0.38251 0.0
C246 C 0.61138 0.65698 0.38311 0.0
C247 C 0.57792 0.53792 0.4352 0.0
O248 O 0.63714 0.60991 0.37992 0.0
O249 O 0.67698 0.60736 0.41123 0.0
O250 O 0.58296 0.61691 0.45656 0.0
O251 O 0.62892 0.61478 0.45793 0.0
H252 H 0.10336 0.76872 0.14627 0.0
H253 H 0.04458 0.61297 0.01663 0.0
H254 H 0.10378 0.68056 0.18268 0.0
H255 H 1.00923 0.68299 0.01181 0.0
H256 H 0.07248 0.63864 0.07343 0.0
H257 H 0.07715 0.73998 0.09129 0.0
C258 C 0.09834 0.74338 0.14264 0.0
C259 C 0.10573 0.72702 0.16945 0.0
C260 C 0.05834 0.64803 0.05989 0.0
C261 C 0.07515 0.69371 0.106 0.0
C262 C 0.0424 0.63345 0.02755 0.0
C263 C 0.02464 0.64594 0.00917 0.0
C264 C 0.05689 0.67554 0.07345 0.0
C265 C 0.02265 0.67248 0.02471 0.0
C266 C 0.08305 0.72688 0.1112 0.0
C267 C 0.09847 0.69411 0.1628 0.0
N268 N 0.03882 0.68652 0.05563 0.0
N269 N 0.08347 0.67841 0.13165 0.0
H270 H 0.44166 0.41073 0.016 0.0
H271 H 0.29533 0.39996 0.12101 0.0
H272 H 0.41547 0.48694 0.00089 0.0
H273 H 0.37121 0.39526 0.18248 0.0
H274 H 0.33482 0.42419 0.07141 0.0
H275 H 0.41303 0.39738 0.07408 0.0
C276 C 0.43053 0.42505 0.0252 0.0
C277 C 0.43053 0.44964 0.00352 0.0
C278 C 0.34273 0.41798 0.09595 0.0
C279 C 0.39739 0.43399 0.06864 0.0
C280 C 0.32028 0.40407 0.12405 0.0
C281 C 0.33003 0.39544 0.15566 0.0
C282 C 0.37467 0.42227 0.09924 0.0
C283 C 0.36269 0.4014 0.15842 0.0
C284 C 0.41429 0.41745 0.05816 0.0
C285 C 0.41582 0.46758 0.01662 0.0
N286 N 0.3838 0.41392 0.13021 0.0
N287 N 0.39907 0.45881 0.04798 0.0
H288 H 0.60032 0.93487 0.16398 0.0
H289 H 0.69181 0.02959 0.98936 0.0
H290 H 0.67316 0.91882 0.11015 0.0
H291 H 0.58472 0.98476 -0.00751 0.0
H292 H 0.68955 1.0026 0.04564 0.0
H293 H 0.59705 0.96395 0.11044 0.0
C294 C 0.61516 0.93702 0.14077 0.0
C295 C 0.63692 0.92435 0.14131 0.0
C296 C 0.66663 0.99903 0.03408 0.0
C297 C 0.63423 0.95829 0.08144 0.0
C298 C 0.66783 0.01457 0.00207 0.0
C299 C 0.6383 1.00897 0.98572 0.0
C300 C 0.63584 0.97815 0.05026 0.0
C301 C 0.60804 0.98941 0.00391 0.0
C302 C 0.61336 0.95362 0.11051 0.0
C303 C 0.65588 0.92796 0.11079 0.0
N304 N 0.60751 0.97443 0.03529 0.0
N305 N 0.65448 0.94509 0.0823 0.0
H306 H 0.77237 0.99606 0.49553 0.0
H307 H 0.66825 1.00066 0.32908 0.0
H308 H 0.76461 0.08165 0.46482 0.0
H309 H 0.70684 0.93323 0.33119 0.0
H310 H 0.69556 0.02409 0.38581 0.0
H311 H 0.74259 0.96745 0.44046 0.0
C312 C 0.76479 1.00895 0.47716 0.0
C313 C 0.77114 0.04137 0.48485 0.0
C314 C 0.69795 1.00405 0.37393 0.0
C315 C 0.7365 1.00859 0.42275 0.0
C316 C 0.68212 0.99045 0.3416 0.0
C317 C 0.68551 0.96514 0.325 0.0
C318 C 0.71719 0.99223 0.39009 0.0
C319 C 0.70378 0.95292 0.34284 0.0
C320 C 0.74772 0.99259 0.4459 0.0
C321 C 0.76053 0.05678 0.46015 0.0
N322 N 0.71912 0.96671 0.37441 0.0
N323 N 0.74356 0.04018 0.4305 0.0
H324 H 0.98509 0.67072 0.48133 0.0
H325 H 0.10471 0.82395 0.36243 0.0
H326 H 0.03548 0.7709 0.5246 0.0
H327 H 0.08611 0.72427 0.34199 0.0
H328 H 0.08098 0.80643 0.42218 0.0
H329 H 0.02188 0.69055 0.42978 0.0
C330 C 1.00391 0.69699 0.47991 0.0
C331 C 1.00696 0.71935 0.50702 0.0
C332 C 0.08271 0.78859 0.40489 0.0
C333 C 0.04926 0.7422 0.44794 0.0
C334 C 0.0962 0.79853 0.37081 0.0
C335 C 0.09693 0.77536 0.34717 0.0
C336 C 0.0693 0.7551 0.415 0.0
C337 C 0.08583 0.74285 0.35935 0.0
C338 C 0.02514 0.70821 0.45063 0.0
C339 C 0.03221 0.75294 0.50413 0.0
N340 N 0.07185 0.73349 0.39222 0.0
N341 N 0.05214 0.76352 0.47474 0.0
H342 H 0.25423 0.25494 0.5091 0.0
H343 H 0.34768 0.38462 0.35068 0.0
H344 H 0.35937 0.32672 0.50379 0.0
H345 H 0.25164 0.29591 0.33491 0.0
H346 H 0.34552 0.37062 0.41333 0.0
H347 H 0.24688 0.27573 0.45103 0.0
C348 C 0.27556 0.27528 0.49595 0.0
C349 C 0.30751 0.28891 0.51075 0.0
C350 C 0.32475 0.35423 0.39632 0.0
C351 C 0.29936 0.3129 0.44558 0.0
C352 C 0.32599 0.36221 0.36048 0.0
C353 C 0.30015 0.34099 0.33738 0.0
C354 C 0.29767 0.32454 0.40934 0.0
C355 C 0.27227 0.31273 0.35182 0.0
C356 C 0.27141 0.28702 0.46296 0.0
C357 C 0.33442 0.3152 0.49294 0.0
N358 N 0.27196 0.30496 0.38692 0.0
N359 N 0.32974 0.32625 0.46138 0.0
H360 H 0.07492 0.39857 0.85882 0.0
H361 H 0.04115 0.26831 0.01497 0.0
H362 H 0.09725 0.31957 0.84353 0.0
H363 H 0.98683 0.31984 -0.00227 0.0
H364 H 0.0728 0.29373 0.95953 0.0
H365 H 0.05552 0.37825 0.91872 0.0
C366 C 0.07601 0.37705 0.86815 0.0
C367 C 0.08706 0.36031 0.84578 0.0
C368 C 0.05394 0.29934 0.96818 0.0
C369 C 0.06453 0.3367 0.91463 0.0
C370 C 0.03598 0.28494 -0.00034 0.0
C371 C 1.01104 0.29163 0.01066 0.0
C372 C 0.04737 0.32114 0.94851 0.0
C373 C 1.00538 0.31347 0.99004 0.0
C374 C 0.06486 0.36543 0.9024 0.0
C375 C 0.08859 0.333 0.8598 0.0
N376 N 0.02342 0.32744 0.9602 0.0
N377 N 0.07695 0.32167 0.89331 0.0
H378 H 0.7992 0.80613 0.01919 0.0
H379 H 0.67107 0.71943 0.8575 0.0
H380 H 0.72272 0.70215 0.01396 0.0
H381 H 0.76556 0.81063 0.84521 0.0
H382 H 0.68189 0.72049 0.92135 0.0
H383 H 0.77964 0.81515 0.96131 0.0
C384 C 0.77798 0.78547 0.00614 0.0
C385 C 0.76273 0.75331 0.02078 0.0
C386 C 0.70009 0.74051 0.90474 0.0
C387 C 0.74018 0.76331 0.95571 0.0
C388 C 0.69391 0.73992 0.86833 0.0
C389 C 0.71778 0.76459 0.84601 0.0
C390 C 0.73037 0.76591 0.91891 0.0
C391 C 0.74675 0.79084 0.8615 0.0
C392 C 0.76693 0.79053 0.97325 0.0
C393 C 0.73538 0.72721 0.00311 0.0
N394 N 0.75248 0.7906 0.89704 0.0
N395 N 0.72506 0.73274 0.97148 0.0
H396 H 0.34034 0.9976 0.02371 0.0
H397 H 0.21981 0.9489 0.85663 0.0
H398 H 0.24858 0.99911 0.02544 0.0
H399 H 0.31192 0.94772 0.85663 0.0
H400 H 0.22426 0.95689 0.92127 0.0
H401 H 0.32439 0.9683 0.9665 0.0
C402 C 0.3163 0.99078 0.01234 0.0
C403 C 0.29558 1.00047 0.02907 0.0
C404 C 0.24328 0.95444 0.90724 0.0
C405 C 0.27767 0.96819 0.96308 0.0
C406 C 0.2408 0.94993 0.87031 0.0
C407 C 0.26589 0.94827 0.85121 0.0
C408 C 0.27114 0.95748 0.92516 0.0
C409 C 0.29227 0.94933 0.87029 0.0
C410 C 0.30729 0.97428 0.9796 0.0
C411 C 0.26498 0.99166 0.01332 0.0
N412 N 0.29442 0.95431 0.90618 0.0
N413 N 0.25713 0.97644 0.98076 0.0
H414 H 0.38311 0.95304 0.69533 0.0
H415 H 0.40319 0.07456 0.53576 0.0
H416 H 0.30845 0.97669 0.66256 0.0
H417 H 0.44401 1.00942 0.5251 0.0
H418 H 0.38084 0.05012 0.59373 0.0
H419 H 0.41624 0.98286 0.64211 0.0
C420 C 0.37367 0.96434 0.67705 0.0
C421 C 0.34283 0.96212 0.6833 0.0
C422 C 0.395 0.04143 0.57883 0.0
C423 C 0.38078 0.99684 0.62376 0.0
C424 C 0.40789 0.05543 0.54571 0.0
C425 C 0.42495 0.04357 0.52501 0.0
C426 C 0.39925 0.01546 0.59169 0.0
C427 C 0.43063 0.01903 0.5399 0.0
C428 C 0.39255 0.98131 0.64688 0.0
C429 C 0.33185 0.97739 0.65886 0.0
N430 N 0.41746 1.00545 0.57229 0.0
N431 N 0.35088 0.99424 0.63049 0.0
H432 H 0.07857 0.41784 0.68945 0.0
H433 H 0.11368 0.47503 0.48758 0.0
H434 H 0.15963 0.42136 0.62969 0.0
H435 H 0.01448 0.40159 0.52157 0.0
H436 H 0.13423 0.47528 0.54759 0.0
H437 H 0.05869 0.43098 0.6347 0.0
C438 C 0.09244 0.4218 0.665 0.0
C439 C 0.12038 0.4178 0.66381 0.0
C440 C 0.10788 0.45967 0.54196 0.0
C441 C 0.09857 0.43405 0.60204 0.0
C442 C 0.09605 0.45954 0.50787 0.0
C443 C 0.06238 0.43784 0.49956 0.0
C444 C 0.08577 0.43857 0.56803 0.0
C445 C 0.04068 0.41836 0.5269 0.0
C446 C 0.08106 0.4293 0.63394 0.0
C447 C 0.13773 0.42379 0.63157 0.0
N448 N 0.05281 0.41902 0.56008 0.0
N449 N 0.12654 0.43166 0.60186 0.0
H450 H 0.55765 0.61478 0.5187 0.0
H451 H 0.67903 0.67396 0.68433 0.0
H452 H 0.64957 0.61329 0.52187 0.0
H453 H 0.581 0.66176 0.68936 0.0
H454 H 0.66464 0.64373 0.62784 0.0
H455 H 0.56135 0.62395 0.58324 0.0
C456 C 0.57837 0.61589 0.53308 0.0
C457 C 0.60373 0.61397 0.5149 0.0
C458 C 0.64594 0.64704 0.6414 0.0
C459 C 0.60817 0.62458 0.58855 0.0
C460 C 0.65418 0.66429 0.67363 0.0
C461 C 0.63117 0.67041 0.69107 0.0
C462 C 0.61469 0.63659 0.62599 0.0
C463 C 0.59931 0.65741 0.67647 0.0
C464 C 0.58041 0.62106 0.56993 0.0
C465 C 0.62975 0.61515 0.53479 0.0
N466 N 0.59215 0.64159 0.64424 0.0
N467 N 0.63155 0.62088 0.57049 0.0
H468 H 0.40579 0.39635 0.82386 0.0
H469 H 0.41942 0.27728 0.68548 0.0
H470 H 0.45343 0.34058 0.85303 0.0
H471 H 0.34011 0.29977 0.68271 0.0
H472 H 0.43211 0.29841 0.74685 0.0
H473 H 0.38218 0.36096 0.77161 0.0
C474 C 0.41135 0.37662 0.81919 0.0
C475 C 0.43199 0.37167 0.84254 0.0
C476 C 0.4115 0.29805 0.73305 0.0
C477 C 0.40497 0.33094 0.78244 0.0
C478 C 0.40425 0.28606 0.69806 0.0
C479 C 0.37902 0.28732 0.67887 0.0
C480 C 0.39374 0.3119 0.74858 0.0
C481 C 0.35996 0.29864 0.69644 0.0
C482 C 0.39755 0.35618 0.78949 0.0
C483 C 0.43783 0.34532 0.83549 0.0
N484 N 0.36815 0.31112 0.7301 0.0
N485 N 0.4248 0.32619 0.8056 0.0
H486 H 0.73431 0.03313 0.64778 0.0
H487 H 0.61295 0.01167 0.76905 0.0
H488 H 0.78207 0.13603 0.68233 0.0
H489 H 0.69264 0.09288 0.82782 0.0
H490 H 0.65228 0.0202 0.72113 0.0
H491 H 0.69838 0.01695 0.70061 0.0
C492 C 0.73789 0.05214 0.66707 0.0
C493 C 0.7608 0.08598 0.66074 0.0
C494 C 0.66121 0.0359 0.74468 0.0
C495 C 0.71927 0.06799 0.71992 0.0
C496 C 0.63864 0.03157 0.77157 0.0
C497 C 0.64965 0.05185 0.80212 0.0
C498 C 0.69482 0.06087 0.74841 0.0
C499 C 0.68325 0.07688 0.8045 0.0
C500 C 0.71693 0.04301 0.69672 0.0
C501 C 0.7644 0.10971 0.6863 0.0
N502 N 0.70465 0.0809 0.77781 0.0
N503 N 0.74358 0.1003 0.71472 0.0
H504 H 0.95559 0.63498 0.8516 0.0
H505 H 0.88592 0.57389 0.65603 0.0
H506 H 0.95157 0.54855 0.80272 0.0
H507 H 0.95429 0.67839 0.67773 0.0
H508 H 0.89215 0.56081 0.71766 0.0
H509 H 0.938 0.64739 0.79473 0.0
C510 C 0.95063 0.61841 0.82911 0.0
C511 C 0.9556 0.59103 0.83156 0.0
C512 C 0.90531 0.58663 0.70897 0.0
C513 C 0.93452 0.60443 0.76742 0.0
C514 C 0.90173 0.59418 0.67395 0.0
C515 C 0.91999 0.62726 0.66175 0.0
C516 C 0.92669 0.61239 0.73209 0.0
C517 C 0.9401 0.65255 0.68611 0.0
C518 C 0.94065 0.62555 0.79681 0.0
C519 C 0.9484 0.57013 0.80176 0.0
N520 N 0.94304 0.64458 0.72029 0.0
N521 N 0.93814 0.57723 0.77086 0.0
H522 H 0.71494 0.60045 0.35952 0.0
H523 H 0.75885 0.72067 0.19051 0.0
H524 H 0.66787 0.65777 0.33483 0.0
H525 H 0.77147 0.6346 0.18965 0.0
H526 H 0.73996 0.70834 0.25242 0.0
H527 H 0.74891 0.62242 0.30501 0.0
C528 C 0.71198 0.61779 0.34281 0.0
C529 C 0.68822 0.62687 0.35119 0.0
C530 C 0.74734 0.69245 0.23879 0.0
C531 C 0.72721 0.65253 0.28999 0.0
C532 C 0.75825 0.69955 0.20356 0.0
C533 C 0.7661 0.67823 0.1848 0.0
C534 C 0.74448 0.66399 0.25538 0.0
C535 C 0.76513 0.65136 0.20308 0.0
C536 C 0.73128 0.63028 0.31188 0.0
C537 C 0.68543 0.64959 0.32891 0.0
N538 N 0.7541 0.64473 0.23734 0.0
N539 N 0.70466 0.66162 0.29938 0.0
H540 H 0.3503 0.06861 0.19374 0.0
H541 H 0.49826 0.0953 0.30705 0.0
H542 H 0.4499 0.14184 0.16078 0.0
H543 H 0.41647 0.0947 0.36208 0.0
H544 H 0.47934 0.10759 0.25132 0.0
H545 H 0.37106 0.0725 0.25499 0.0
C546 C 0.37634 0.08582 0.19952 0.0
C547 C 0.39853 0.10464 0.17224 0.0
C548 C 0.46584 0.10519 0.27575 0.0
C549 C 0.42221 0.10869 0.24133 0.0
C550 C 0.47653 0.09812 0.30743 0.0
C551 C 0.45861 0.09356 0.33899 0.0
C552 C 0.43647 0.10662 0.27551 0.0
C553 C 0.4307 0.09762 0.33818 0.0
C554 C 0.38807 0.08814 0.23433 0.0
C555 C 0.432 0.12671 0.18101 0.0
N556 N 0.41989 0.10311 0.30663 0.0
N557 N 0.44301 0.12758 0.21468 0.0
H558 H 1.00922 0.3316 0.35222 0.0
H559 H 0.88599 0.27206 0.1876 0.0
H560 H 0.91326 0.3243 0.35499 0.0
H561 H 0.98194 0.27888 0.18669 0.0
H562 H 0.89002 0.27937 0.25228 0.0
H563 H 0.99403 0.30019 0.29632 0.0
C564 C 0.98453 0.32247 0.34136 0.0
C565 C 0.9624 0.33042 0.35788 0.0
C566 C 0.90997 0.27875 0.23806 0.0
C567 C 0.9452 0.29559 0.29339 0.0
C568 C 0.90774 0.27464 0.20111 0.0
C569 C 0.93405 0.27561 0.18174 0.0
C570 C 0.93885 0.28413 0.25572 0.0
C571 C 0.96134 0.27847 0.20058 0.0
C572 C 0.9759 0.30471 0.30939 0.0
C573 C 0.93083 0.3184 0.34293 0.0
N574 N 0.96327 0.28317 0.23651 0.0
N575 N 0.92334 0.30205 0.31101 0.0
H576 H 0.3279 0.99842 0.39001 0.0
H577 H 0.246 0.82971 0.27644 0.0
H578 H 0.38726 0.95768 0.35046 0.0
H579 H 0.19844 0.88751 0.29565 0.0
H580 H 0.29741 0.87453 0.30305 0.0
H581 H 0.28026 0.95585 0.35778 0.0
C582 C 0.3311 0.98044 0.37456 0.0
C583 C 0.36226 0.98222 0.37293 0.0
C584 C 0.27596 0.87768 0.30102 0.0
C585 C 0.30639 0.93235 0.33532 0.0
C586 C 0.24652 0.85215 0.28566 0.0
C587 C 0.21764 0.85474 0.28365 0.0
C588 C 0.27665 0.90606 0.31519 0.0
C589 C 0.21998 0.88441 0.2962 0.0
C590 C 0.30357 0.95603 0.35592 0.0
C591 C 0.36397 0.95747 0.35274 0.0
N592 N 0.24873 0.9086 0.3118 0.0
N593 N 0.33644 0.93358 0.3347 0.0
H594 H 0.23243 0.41372 0.24685 0.0
H595 H 0.07131 0.35375 0.3667 0.0
H596 H 0.16553 0.30997 0.27194 0.0
H597 H 0.12021 0.45005 0.3153 0.0
H598 H 0.10565 0.33771 0.33262 0.0
H599 H 0.19239 0.42772 0.27158 0.0
C600 C 0.20914 0.39375 0.25734 0.0
C601 C 0.20248 0.36054 0.25742 0.0
C602 C 0.1088 0.36225 0.32845 0.0
C603 C 0.15641 0.3767 0.28637 0.0
C604 C 0.08923 0.37159 0.34804 0.0
C605 C 0.09294 0.40349 0.34411 0.0
C606 C 0.13301 0.38511 0.30495 0.0
C607 C 0.11646 0.42525 0.31924 0.0
C608 C 0.18622 0.40184 0.27139 0.0
C609 C 0.17175 0.33585 0.27122 0.0
N610 N 0.13592 0.41583 0.30098 0.0
N611 N 0.15009 0.34448 0.28555 0.0
H612 H 0.71234 0.85219 0.27976 0.0
H613 H 0.57237 0.66329 0.33095 0.0
H614 H 0.60899 0.80775 0.25008 0.0
H615 H 0.66822 0.71778 0.38254 0.0
H616 H 0.58722 0.71322 0.29468 0.0
H617 H 0.69881 0.80004 0.31082 0.0
C618 C 0.68696 0.83142 0.27939 0.0
C619 C 0.6618 0.83453 0.26243 0.0
C620 C 0.60496 0.71414 0.31397 0.0
C621 C 0.64602 0.77471 0.29787 0.0
C622 C 0.59645 0.68562 0.33467 0.0
C623 C 0.61883 0.6863 0.36019 0.0
C624 C 0.63629 0.74339 0.31841 0.0
C625 C 0.64988 0.71603 0.36358 0.0
C626 C 0.67915 0.80169 0.29729 0.0
C627 C 0.62922 0.80669 0.26302 0.0
N628 N 0.65764 0.74317 0.34303 0.0
N629 N 0.62231 0.77813 0.28038 0.0
H630 H 0.77875 1.00591 0.19323 0.0
H631 H 0.83716 0.17834 0.08936 0.0
H632 H 0.71108 0.0269 0.13585 0.0
H633 H 0.90519 0.14691 0.12518 0.0
H634 H 0.79042 0.12268 0.10523 0.0
H635 H 0.82569 0.05691 0.16751 0.0
C636 C 0.77371 0.0208 0.17487 0.0
C637 C 0.74078 0.01211 0.1672 0.0
C638 C 0.81567 0.12799 0.10929 0.0
C639 C 0.79435 0.07098 0.13813 0.0
C640 C 0.84238 0.15979 0.10003 0.0
C641 C 0.87538 0.16779 0.10609 0.0
C642 C 0.82193 0.10402 0.12496 0.0
C643 C 0.88034 0.14241 0.1203 0.0
C644 C 0.80051 0.0501 0.16033 0.0
C645 C 0.73596 0.03273 0.14321 0.0
N646 N 0.85413 0.1121 0.12949 0.0
N647 N 0.76222 0.06117 0.12999 0.0
H648 H 0.87076 0.68777 0.11944 0.0
H649 H 0.0549 0.83313 0.17864 0.0
H650 H 0.90619 0.79296 0.10769 0.0
H651 H 1.01299 0.72844 0.20247 0.0
H652 H 1.00404 0.81889 0.14447 0.0
H653 H 0.92647 0.70188 0.14058 0.0
C654 C 0.89046 0.71373 0.12022 0.0
C655 C 0.88369 0.73915 0.11172 0.0
C656 C 1.00616 0.79905 0.15704 0.0
C657 C 0.94743 0.7557 0.13679 0.0
C658 C 0.03524 0.80724 0.17653 0.0
C659 C 0.0382 0.78211 0.19397 0.0
C660 C 0.98001 0.76546 0.15464 0.0
C661 C 1.0118 0.74887 0.19006 0.0
C662 C 0.92221 0.72188 0.13277 0.0
C663 C 0.91021 0.77249 0.11404 0.0
N664 N 0.98403 0.74161 0.17107 0.0
N665 N 0.94063 0.77978 0.12657 0.0
H666 H 0.25523 0.23889 0.19616 0.0
H667 H 0.3709 0.18566 0.08793 0.0
H668 H 0.34752 0.3092 0.14506 0.0
H669 H 0.27326 0.11496 0.12804 0.0
H670 H 0.36075 0.23133 0.10409 0.0
H671 H 0.25885 0.19293 0.16725 0.0
C672 C 0.27584 0.24473 0.17842 0.0
C673 C 0.30123 0.27803 0.17349 0.0
C674 C 0.34138 0.20574 0.10892 0.0
C675 C 0.30594 0.2256 0.14065 0.0
C676 C 0.34713 0.17965 0.09937 0.0
C677 C 0.32311 0.14631 0.10682 0.0
C678 C 0.31143 0.19851 0.12615 0.0
C679 C 0.29281 0.14023 0.12213 0.0
C680 C 0.2781 0.21849 0.16206 0.0
C681 C 0.32754 0.28394 0.15024 0.0
N682 N 0.28803 0.16589 0.13158 0.0
N683 N 0.32937 0.25818 0.13514 0.0
H684 H 0.87696 0.20598 0.58617 0.0
H685 H 0.04244 0.26378 0.70361 0.0
H686 H 0.90808 0.13789 0.62319 0.0
H687 H 0.01894 0.33235 0.652 0.0
H688 H 0.99454 0.21717 0.67274 0.0
H689 H 0.92965 0.25282 0.60887 0.0
C690 C 0.89482 0.20079 0.59866 0.0
C691 C 0.8876 0.16768 0.60274 0.0
C692 C 1.00013 0.24251 0.66797 0.0
C693 C 0.9481 0.22131 0.62931 0.0
C694 C 0.02769 0.26914 0.68542 0.0
C695 C 0.0347 0.30212 0.68083 0.0
C696 C 0.97942 0.24892 0.64584 0.0
C697 C 0.01434 0.30737 0.65696 0.0
C698 C 0.92496 0.22757 0.61176 0.0
C699 C 0.91204 0.16278 0.61946 0.0
N700 N 0.98767 0.28124 0.6408 0.0
N701 N 0.9408 0.18907 0.63224 0.0
H702 H 0.89347 0.74497 0.57878 0.0
H703 H 0.7397 0.6889 0.70941 0.0
H704 H 0.83039 0.64338 0.61337 0.0
H705 H 0.78713 0.78488 0.65735 0.0
H706 H 0.77125 0.67179 0.67209 0.0
H707 H 0.85335 0.75942 0.60291 0.0
C708 C 0.8705 0.72537 0.59031 0.0
C709 C 0.86506 0.69272 0.59345 0.0
C710 C 0.77477 0.69654 0.66851 0.0
C711 C 0.81953 0.70955 0.62283 0.0
C712 C 0.75684 0.70655 0.69008 0.0
C713 C 0.7609 0.73868 0.68698 0.0
C714 C 0.79769 0.71885 0.64361 0.0
C715 C 0.78323 0.75999 0.66091 0.0
C716 C 0.84775 0.73377 0.60446 0.0
C717 C 0.8353 0.66863 0.60959 0.0
N718 N 0.80108 0.74987 0.64057 0.0
N719 N 0.814 0.67764 0.62414 0.0
H720 H 0.22747 0.99681 0.67106 0.0
H721 H 0.37168 0.18355 0.61833 0.0
H722 H 0.32855 0.04474 0.70984 0.0
H723 H 0.26751 0.14506 0.59725 0.0
H724 H 0.35778 0.12831 0.64135 0.0
H725 H 0.24278 0.04688 0.63466 0.0
C726 C 0.25281 0.01766 0.67181 0.0
C727 C 0.27652 0.01666 0.69407 0.0
C728 C 0.33801 0.13178 0.63104 0.0
C729 C 0.29444 0.07378 0.65212 0.0
C730 C 0.34607 0.16323 0.61741 0.0
C731 C 0.32078 0.16898 0.60577 0.0
C732 C 0.30443 0.10584 0.63294 0.0
C733 C 0.28783 0.14176 0.60601 0.0
C734 C 0.26159 0.04625 0.65104 0.0
C735 C 0.30915 0.04446 0.69368 0.0
N736 N 0.28059 0.11161 0.61963 0.0
N737 N 0.31704 0.07168 0.67326 0.0
H738 H 0.16885 0.84564 0.76162 0.0
H739 H 0.1105 0.6781 0.87515 0.0
H740 H 0.23714 0.81748 0.80475 0.0
H741 H 0.04302 0.69714 0.81474 0.0
H742 H 0.15755 0.72779 0.84759 0.0
H743 H 0.12232 0.79051 0.77913 0.0
C744 C 0.17418 0.8279 0.7743 0.0
C745 C 0.20718 0.83667 0.78181 0.0
C746 C 0.1324 0.72079 0.84006 0.0
C747 C 0.15392 0.77346 0.80246 0.0
C748 C 0.10554 0.69219 0.8556 0.0
C749 C 0.07265 0.68343 0.8476 0.0
C750 C 0.12632 0.74085 0.8165 0.0
C751 C 0.06789 0.70306 0.82221 0.0
C752 C 0.14758 0.79639 0.78444 0.0
C753 C 0.21228 0.81235 0.79857 0.0
N754 N 0.09421 0.73085 0.80802 0.0
N755 N 0.18613 0.78226 0.80853 0.0
H756 H 0.20368 0.33858 0.77731 0.0
H757 H 0.38752 0.48811 0.83149 0.0
H758 H 0.23435 0.44306 0.76911 0.0
H759 H 0.34742 0.38513 0.86194 0.0
H760 H 0.33465 0.47183 0.80037 0.0
H761 H 0.2593 0.35481 0.80063 0.0
C762 C 0.22208 0.36486 0.78016 0.0
C763 C 0.21408 0.38939 0.77146 0.0
C764 C 0.33761 0.45282 0.81372 0.0
C765 C 0.27801 0.4083 0.79793 0.0
C766 C 0.36786 0.46213 0.83131 0.0
C767 C 0.37188 0.43809 0.84971 0.0
C768 C 0.31144 0.41917 0.81413 0.0
C769 C 0.34539 0.4047 0.84858 0.0
C770 C 0.25386 0.37418 0.79355 0.0
C771 C 0.23915 0.42317 0.77574 0.0
N772 N 0.31652 0.39631 0.83128 0.0
N773 N 0.26978 0.43157 0.78862 0.0
H774 H 0.70264 0.85209 0.75411 0.0
H775 H 0.58733 0.90914 0.85674 0.0
H776 H 0.60508 0.7829 0.79572 0.0
H777 H 0.67628 0.97723 0.79885 0.0
H778 H 0.59193 0.86217 0.83237 0.0
H779 H 0.69258 0.8983 0.76784 0.0
C780 C 0.67899 0.84648 0.76553 0.0
C781 C 0.65493 0.8134 0.77399 0.0
C782 C 0.61026 0.88744 0.82477 0.0
C783 C 0.64333 0.86625 0.79041 0.0
C784 C 0.60745 0.91425 0.83855 0.0
C785 C 0.63161 0.94734 0.83035 0.0
C786 C 0.63748 0.89373 0.80271 0.0
C787 C 0.6573 0.95226 0.8066 0.0
C788 C 0.67327 0.8729 0.77361 0.0
C789 C 0.62473 0.80791 0.78909 0.0
N790 N 0.65973 0.92598 0.79406 0.0
N791 N 0.62 0.83387 0.79707 0.0
H792 H 0.46389 0.32966 0.49989 0.0
H793 H 0.51242 0.51826 0.44961 0.0
H794 H 0.41328 0.37951 0.53993 0.0
H795 H 0.57774 0.4792 0.43104 0.0
H796 H 0.46965 0.46291 0.47136 0.0
H797 H 0.50055 0.3801 0.46461 0.0
C798 C 0.46033 0.35099 0.50113 0.0
C799 C 0.4357 0.35036 0.52337 0.0
C800 C 0.49312 0.46627 0.46184 0.0
C801 C 0.47707 0.40791 0.48266 0.0
C802 C 0.51734 0.49779 0.44891 0.0
C803 C 0.54868 0.50341 0.43835 0.0
C804 C 0.5002 0.4401 0.46409 0.0
C805 C 0.55391 0.47599 0.43891 0.0
C806 C 0.48122 0.37979 0.481 0.0
C807 C 0.43218 0.37884 0.52368 0.0
N808 N 0.53015 0.44575 0.4518 0.0
N809 N 0.4525 0.40622 0.50383 0.0
H810 H 0.72208 0.15264 0.50876 0.0
H811 H 0.53632 0.01025 0.44977 0.0
H812 H 0.68425 0.04661 0.51664 0.0
H813 H 0.57034 0.1158 0.45035 0.0
H814 H 0.59197 0.02335 0.46993 0.0
H815 H 0.66847 0.14023 0.48213 0.0
C816 C 0.70278 0.12687 0.50451 0.0
C817 C 0.70767 0.10072 0.51531 0.0
C818 C 0.58724 0.04365 0.46554 0.0
C819 C 0.64623 0.08619 0.48508 0.0
C820 C 0.5554 0.0361 0.45403 0.0
C821 C 0.54838 0.06184 0.44847 0.0
C822 C 0.61238 0.0772 0.47143 0.0
C823 C 0.57434 0.09499 0.45441 0.0
C824 C 0.67207 0.11972 0.48953 0.0
C825 C 0.68158 0.06769 0.50923 0.0
N826 N 0.60495 0.10165 0.46553 0.0
N827 N 0.65218 0.06144 0.49476 0.0
H828 H 0.03569 0.51768 0.43123 0.0
H829 H 0.88851 0.55404 0.48302 0.0
H830 H 0.93147 0.44412 0.42181 0.0
H831 H 0.9912 0.61608 0.51435 0.0
H832 H 0.90424 0.51852 0.44863 0.0
H833 H 0.02042 0.55945 0.44864 0.0
C834 C 1.00967 0.51064 0.43148 0.0
C835 C 0.98487 0.4774 0.42483 0.0
C836 C 0.92335 0.54017 0.46274 0.0
C837 C 0.96702 0.52478 0.44572 0.0
C838 C 0.91434 0.56048 0.48225 0.0
C839 C 0.93844 0.58784 0.50201 0.0
C840 C 0.95676 0.54762 0.46256 0.0
C841 C 0.97162 0.59495 0.50002 0.0
C842 C 1.00087 0.53433 0.44196 0.0
C843 C 0.95142 0.46951 0.42658 0.0
N844 N 0.97971 0.57504 0.48092 0.0
N845 N 0.94349 0.49281 0.43712 0.0
H846 H 0.5794 0.48626 0.92052 0.0
H847 H 0.67275 0.64507 0.04773 0.0
H848 H 0.53786 0.5472 0.95131 0.0
H849 H 0.72387 0.59874 -3e-05 0.0
H850 H 0.62445 0.61059 0.01063 0.0
H851 H 0.63324 0.52836 0.94535 0.0
C852 C 0.58192 0.50909 0.93149 0.0
C853 C 0.55403 0.51331 0.93339 0.0
C854 C 0.64616 0.60792 0.00797 0.0
C855 C 0.61564 0.56126 0.96339 0.0
C856 C 0.6739 0.62753 0.02944 0.0
C857 C 0.70262 0.62472 0.02744 0.0
C858 C 0.64642 0.58457 0.98427 0.0
C859 C 0.70237 0.60174 0.00267 0.0
C860 C 0.61266 0.533 0.94599 0.0
C861 C 0.55869 0.5431 0.94859 0.0
N862 N 0.6746 0.5823 0.98237 0.0
N863 N 0.58866 0.56559 0.96348 0.0
H864 H 0.49672 0.97577 0.93635 0.0
H865 H 0.44998 0.11773 0.98205 0.0
H866 H 0.55536 0.07816 0.90175 0.0
H867 H 0.40792 0.02302 0.03628 0.0
H868 H 0.48314 0.10109 0.94494 0.0
H869 H 0.45788 0.98986 0.96557 0.0
C870 C 0.50118 1.00102 0.93445 0.0
C871 C 0.52951 0.0258 0.91674 0.0
C872 C 0.46647 0.08393 0.96488 0.0
C873 C 0.48522 0.04224 0.95012 0.0
C874 C 0.44749 0.09343 0.98597 0.0
C875 C 0.42639 0.072 0.01267 0.0
C876 C 0.46394 0.05258 0.97016 0.0
C877 C 0.42417 0.04067 0.01643 0.0
C878 C 0.47914 1.00917 0.9513 0.0
C879 C 0.53405 0.05824 0.91535 0.0
N880 N 0.4426 0.032 -0.00439 0.0
N881 N 0.51233 0.06549 0.9318 0.0
H882 H 0.041 0.52105 0.95615 0.0
H883 H 0.8967 0.33441 0.0092 0.0
H884 H 0.93627 0.48578 0.94349 0.0
H885 H 0.99759 0.38083 0.04829 0.0
H886 H 0.91147 0.38678 0.97758 0.0
H887 H 0.02646 0.46678 0.9827 0.0
C888 C 0.01503 0.50192 0.95872 0.0
C889 C 0.9899 0.50822 0.94775 0.0
C890 C 0.93034 0.38537 -0.00692 0.0
C891 C 0.97296 0.44583 0.97785 0.0
C892 C 0.92188 0.35543 0.01105 0.0
C893 C 0.94574 0.35319 0.03184 0.0
C894 C 0.96303 0.41305 -0.00461 0.0
C895 C 0.97813 0.38137 0.03305 0.0
C896 C 1.00668 0.47094 0.97397 0.0
C897 C 0.95657 0.48229 0.9518 0.0
N898 N 0.98576 0.40988 0.01518 0.0
N899 N 0.94913 0.45242 0.96639 0.0
loop_
_geom_bond_atom_site_label_1
_geom_bond_atom_site_label_2
_geom_bond_distance
_geom_bond_site_symmetry_2
_ccdc_geom_bond_type
Co0 O1 2.216 1_455 S
Co0 O2 2.091 1_455 S
Co0 O4 2.004 . S
Co0 O10 2.021 . S
Co0 O12 2.137 1_455 S
Co0 O13 2.244 . S
O1 Co0 2.216 1_655 S
O1 C8 1.247 . S
O2 Co0 2.091 1_655 S
O2 C8 1.261 . S
C3 O12 1.247 . S
C3 O13 1.272 1_655 S
O4 Co0 2.004 . S
O4 C9 1.259 . S
Co5 O6 2.061 . S
Co5 O11 2.052 . S
Co5 O13 2.135 . S
O6 Co5 2.061 . S
O6 C9 1.235 . S
C7 O10 1.238 . S
C7 O11 1.241 . S
C8 O1 1.247 . S
C8 O2 1.261 . S
C9 O4 1.259 . S
C9 O6 1.235 . S
O10 Co0 2.021 . S
O10 C7 1.238 . S
O11 Co5 2.052 . S
O11 C7 1.241 . S
O12 Co0 2.137 1_655 S
O12 C3 1.247 . S
O13 Co0 2.244 . S
O13 C3 1.272 1_455 S
O13 Co5 2.135 . S
Co14 O15 2.216 . S
Co14 O16 2.091 . S
Co14 O18 2.004 . S
Co14 O24 2.021 . S
Co14 O26 2.137 . S
Co14 O27 2.244 . S
O15 Co14 2.216 . S
O15 C22 1.247 . S
O16 Co14 2.091 . S
O16 C22 1.261 . S
C17 O26 1.247 . S
C17 O27 1.272 . S
O18 Co14 2.004 . S
O18 C23 1.259 . S
Co19 O20 2.061 . S
Co19 O25 2.052 . S
Co19 O27 2.135 . S
O20 Co19 2.061 . S
O20 C23 1.235 . S
C21 O24 1.238 . S
C21 O25 1.241 . S
C22 O15 1.247 . S
C22 O16 1.261 . S
C23 O18 1.259 . S
C23 O20 1.235 . S
O24 Co14 2.021 . S
O24 C21 1.238 . S
O25 Co19 2.052 . S
O25 C21 1.241 . S
O26 Co14 2.137 . S
O26 C17 1.247 . S
O27 Co14 2.244 . S
O27 C17 1.272 . S
O27 Co19 2.135 . S
Co28 O29 2.216 1_545 S
Co28 O30 2.091 1_545 S
Co28 O32 2.004 . S
Co28 O38 2.021 . S
Co28 O40 2.137 1_545 S
Co28 O41 2.244 . S
O29 Co28 2.216 1_565 S
O29 C36 1.247 . S
O30 Co28 2.091 1_565 S
O30 C36 1.261 . S
C31 O40 1.247 . S
C31 O41 1.272 1_565 S
O32 Co28 2.004 . S
O32 C37 1.259 . S
Co33 O34 2.061 . S
Co33 O39 2.052 . S
Co33 O41 2.135 . S
O34 Co33 2.061 . S
O34 C37 1.235 . S
C35 O38 1.238 . S
C35 O39 1.241 . S
C36 O29 1.247 . S
C36 O30 1.261 . S
C37 O32 1.259 . S
C37 O34 1.235 . S
O38 Co28 2.021 . S
O38 C35 1.238 . S
O39 Co33 2.052 . S
O39 C35 1.241 . S
O40 Co28 2.137 1_565 S
O40 C31 1.247 . S
O41 Co28 2.244 . S
O41 C31 1.272 1_545 S
O41 Co33 2.135 . S
Co42 O43 2.216 . S
Co42 O44 2.091 . S
Co42 O46 2.004 1_455 S
Co42 O52 2.021 1_455 S
Co42 O54 2.137 . S
Co42 O55 2.244 . S
O43 Co42 2.216 . S
O43 C50 1.247 . S
O44 Co42 2.091 . S
O44 C50 1.261 . S
C45 O54 1.247 . S
C45 O55 1.272 . S
O46 Co42 2.004 1_655 S
O46 C51 1.259 . S
Co47 O48 2.061 . S
Co47 O53 2.052 . S
Co47 O55 2.135 1_655 S
O48 Co47 2.061 . S
O48 C51 1.235 . S
C49 O52 1.238 . S
C49 O53 1.241 . S
C50 O43 1.247 . S
C50 O44 1.261 . S
C51 O46 1.259 . S
C51 O48 1.235 . S
O52 Co42 2.021 1_655 S
O52 C49 1.238 . S
O53 Co47 2.052 . S
O53 C49 1.241 . S
O54 Co42 2.137 . S
O54 C45 1.247 . S
O55 Co42 2.244 . S
O55 C45 1.272 . S
O55 Co47 2.135 1_455 S
Co56 O57 2.216 . S
Co56 O58 2.091 . S
Co56 O60 2.004 . S
Co56 O66 2.021 . S
Co56 O68 2.137 . S
Co56 O69 2.244 . S
O57 Co56 2.216 . S
O57 C64 1.247 . S
O58 Co56 2.091 . S
O58 C64 1.261 . S
C59 O68 1.247 . S
C59 O69 1.272 . S
O60 Co56 2.004 . S
O60 C65 1.259 . S
Co61 O62 2.061 . S
Co61 O67 2.052 . S
Co61 O69 2.135 . S
O62 Co61 2.061 . S
O62 C65 1.235 . S
C63 O66 1.238 . S
C63 O67 1.241 . S
C64 O57 1.247 . S
C64 O58 1.261 . S
C65 O60 1.259 . S
C65 O62 1.235 . S
O66 Co56 2.021 . S
O66 C63 1.238 . S
O67 Co61 2.052 . S
O67 C63 1.241 . S
O68 Co56 2.137 . S
O68 C59 1.247 . S
O69 Co56 2.244 . S
O69 C59 1.272 . S
O69 Co61 2.135 . S
Co70 O71 2.216 . S
Co70 O72 2.091 . S
Co70 O74 2.004 1_545 S
Co70 O80 2.021 1_545 S
Co70 O82 2.137 . S
Co70 O83 2.244 . S
O71 Co70 2.216 . S
O71 C78 1.247 . S
O72 Co70 2.091 . S
O72 C78 1.261 . S
C73 O82 1.247 . S
C73 O83 1.272 . S
O74 Co70 2.004 1_565 S
O74 C79 1.259 . S
Co75 O76 2.061 . S
Co75 O81 2.052 . S
Co75 O83 2.135 1_565 S
O76 Co75 2.061 . S
O76 C79 1.235 . S
C77 O80 1.238 . S
C77 O81 1.241 . S
C78 O71 1.247 . S
C78 O72 1.261 . S
C79 O74 1.259 . S
C79 O76 1.235 . S
O80 Co70 2.021 1_565 S
O80 C77 1.238 . S
O81 Co75 2.052 . S
O81 C77 1.241 . S
O82 Co70 2.137 . S
O82 C73 1.247 . S
O83 Co70 2.244 . S
O83 C73 1.272 . S
O83 Co75 2.135 1_545 S
Co84 O85 2.216 . S
Co84 O86 2.091 . S
Co84 O88 2.004 . S
Co84 O94 2.021 . S
Co84 O96 2.137 . S
Co84 O97 2.244 . S
O85 Co84 2.216 . S
O85 C92 1.247 . S
O86 Co84 2.091 . S
O86 C92 1.261 . S
C87 O96 1.247 . S
C87 O97 1.272 . S
O88 Co84 2.004 . S
O88 C93 1.259 . S
Co89 O90 2.061 . S
Co89 O95 2.052 . S
Co89 O97 2.135 . S
O90 Co89 2.061 . S
O90 C93 1.235 . S
C91 O94 1.238 . S
C91 O95 1.241 . S
C92 O85 1.247 . S
C92 O86 1.261 . S
C93 O88 1.259 . S
C93 O90 1.235 . S
O94 Co84 2.021 . S
O94 C91 1.238 . S
O95 Co89 2.052 . S
O95 C91 1.241 . S
O96 Co84 2.137 . S
O96 C87 1.247 . S
O97 Co84 2.244 . S
O97 C87 1.272 . S
O97 Co89 2.135 . S
Co98 O99 2.216 . S
Co98 O100 2.091 . S
Co98 O102 2.004 . S
Co98 O108 2.021 . S
Co98 O110 2.137 . S
Co98 O111 2.244 . S
O99 Co98 2.216 . S
O99 C106 1.247 . S
O100 Co98 2.091 . S
O100 C106 1.261 . S
C101 O110 1.247 . S
C101 O111 1.272 . S
O102 Co98 2.004 . S
O102 C107 1.259 . S
Co103 O104 2.061 . S
Co103 O109 2.052 . S
Co103 O111 2.135 . S
O104 Co103 2.061 . S
O104 C107 1.235 . S
C105 O108 1.238 . S
C105 O109 1.241 . S
C106 O99 1.247 . S
C106 O100 1.261 . S
C107 O102 1.259 . S
C107 O104 1.235 . S
O108 Co98 2.021 . S
O108 C105 1.238 . S
O109 Co103 2.052 . S
O109 C105 1.241 . S
O110 Co98 2.137 . S
O110 C101 1.247 . S
O111 Co98 2.244 . S
O111 C101 1.272 . S
O111 Co103 2.135 . S
Co112 O113 2.216 . S
Co112 O114 2.091 . S
Co112 O116 2.004 . S
Co112 O122 2.021 . S
Co112 O124 2.137 . S
Co112 O125 2.244 . S
O113 Co112 2.216 . S
O113 C120 1.247 . S
O114 Co112 2.091 . S
O114 C120 1.261 . S
C115 O124 1.247 . S
C115 O125 1.272 . S
O116 Co112 2.004 . S
O116 C121 1.259 . S
Co117 O118 2.061 . S
Co117 O123 2.052 . S
Co117 O125 2.135 . S
O118 Co117 2.061 . S
O118 C121 1.235 . S
C119 O122 1.238 . S
C119 O123 1.241 . S
C120 O113 1.247 . S
C120 O114 1.261 . S
C121 O116 1.259 . S
C121 O118 1.235 . S
O122 Co112 2.021 . S
O122 C119 1.238 . S
O123 Co117 2.052 . S
O123 C119 1.241 . S
O124 Co112 2.137 . S
O124 C115 1.247 . S
O125 Co112 2.244 . S
O125 C115 1.272 . S
O125 Co117 2.135 . S
Co126 O127 2.216 . S
Co126 O128 2.091 . S
Co126 O130 2.004 . S
Co126 O136 2.021 . S
Co126 O138 2.137 . S
Co126 O139 2.244 . S
O127 Co126 2.216 . S
O127 C134 1.247 . S
O128 Co126 2.091 . S
O128 C134 1.261 . S
C129 O138 1.247 . S
C129 O139 1.272 . S
O130 Co126 2.004 . S
O130 C135 1.259 . S
Co131 O132 2.061 . S
Co131 O137 2.052 . S
Co131 O139 2.135 . S
O132 Co131 2.061 . S
O132 C135 1.235 . S
C133 O136 1.238 . S
C133 O137 1.241 . S
C134 O127 1.247 . S
C134 O128 1.261 . S
C135 O130 1.259 . S
C135 O132 1.235 . S
O136 Co126 2.021 . S
O136 C133 1.238 . S
O137 Co131 2.052 . S
O137 C133 1.241 . S
O138 Co126 2.137 . S
O138 C129 1.247 . S
O139 Co126 2.244 . S
O139 C129 1.272 . S
O139 Co131 2.135 . S
Co140 O141 2.216 . S
Co140 O142 2.091 . S
Co140 O144 2.004 . S
Co140 O150 2.021 . S
Co140 O152 2.137 . S
Co140 O153 2.244 . S
O141 Co140 2.216 . S
O141 C148 1.247 . S
O142 Co140 2.091 . S
O142 C148 1.261 . S
C143 O152 1.247 . S
C143 O153 1.272 . S
O144 Co140 2.004 . S
O144 C149 1.259 . S
Co145 O146 2.061 . S
Co145 O151 2.052 . S
Co145 O153 2.135 . S
O146 Co145 2.061 . S
O146 C149 1.235 . S
C147 O150 1.238 . S
C147 O151 1.241 . S
C148 O141 1.247 . S
C148 O142 1.261 . S
C149 O144 1.259 . S
C149 O146 1.235 . S
O150 Co140 2.021 . S
O150 C147 1.238 . S
O151 Co145 2.052 . S
O151 C147 1.241 . S
O152 Co140 2.137 . S
O152 C143 1.247 . S
O153 Co140 2.244 . S
O153 C143 1.272 . S
O153 Co145 2.135 . S
Co154 O155 2.216 . S
Co154 O156 2.091 . S
Co154 O158 2.004 . S
Co154 O164 2.021 . S
Co154 O166 2.137 . S
Co154 O167 2.244 . S
O155 Co154 2.216 . S
O155 C162 1.247 . S
O156 Co154 2.091 . S
O156 C162 1.261 . S
C157 O166 1.247 . S
C157 O167 1.272 . S
O158 Co154 2.004 . S
O158 C163 1.259 . S
Co159 O160 2.061 . S
Co159 O165 2.052 . S
Co159 O167 2.135 . S
O160 Co159 2.061 . S
O160 C163 1.235 . S
C161 O164 1.238 . S
C161 O165 1.241 . S
C162 O155 1.247 . S
C162 O156 1.261 . S
C163 O158 1.259 . S
C163 O160 1.235 . S
O164 Co154 2.021 . S
O164 C161 1.238 . S
O165 Co159 2.052 . S
O165 C161 1.241 . S
O166 Co154 2.137 . S
O166 C157 1.247 . S
O167 Co154 2.244 . S
O167 C157 1.272 . S
O167 Co159 2.135 . S
Co168 O169 2.216 . S
Co168 O170 2.091 . S
Co168 O172 2.004 . S
Co168 O178 2.021 . S
Co168 O180 2.137 . S
Co168 O181 2.244 . S
O169 Co168 2.216 . S
O169 C176 1.247 . S
O170 Co168 2.091 . S
O170 C176 1.261 . S
C171 O180 1.247 . S
C171 O181 1.272 . S
O172 Co168 2.004 . S
O172 C177 1.259 . S
Co173 O174 2.061 . S
Co173 O179 2.052 . S
Co173 O181 2.135 . S
O174 Co173 2.061 . S
O174 C177 1.235 . S
C175 O178 1.238 . S
C175 O179 1.241 . S
C176 O169 1.247 . S
C176 O170 1.261 . S
C177 O172 1.259 . S
C177 O174 1.235 . S
O178 Co168 2.021 . S
O178 C175 1.238 . S
O179 Co173 2.052 . S
O179 C175 1.241 . S
O180 Co168 2.137 . S
O180 C171 1.247 . S
O181 Co168 2.244 . S
O181 C171 1.272 . S
O181 Co173 2.135 . S
Co182 O183 2.216 . S
Co182 O184 2.091 . S
Co182 O186 2.004 . S
Co182 O192 2.021 . S
Co182 O194 2.137 . S
Co182 O195 2.244 . S
O183 Co182 2.216 . S
O183 C190 1.247 . S
O184 Co182 2.091 . S
O184 C190 1.261 . S
C185 O194 1.247 . S
C185 O195 1.272 . S
O186 Co182 2.004 . S
O186 C191 1.259 . S
Co187 O188 2.061 . S
Co187 O193 2.052 . S
Co187 O195 2.135 . S
O188 Co187 2.061 . S
O188 C191 1.235 . S
C189 O192 1.238 . S
C189 O193 1.241 . S
C190 O183 1.247 . S
C190 O184 1.261 . S
C191 O186 1.259 . S
C191 O188 1.235 . S
O192 Co182 2.021 . S
O192 C189 1.238 . S
O193 Co187 2.052 . S
O193 C189 1.241 . S
O194 Co182 2.137 . S
O194 C185 1.247 . S
O195 Co182 2.244 . S
O195 C185 1.272 . S
O195 Co187 2.135 . S
Co196 O197 2.216 . S
Co196 O198 2.091 . S
Co196 O200 2.004 . S
Co196 O206 2.021 . S
Co196 O208 2.137 . S
Co196 O209 2.244 . S
O197 Co196 2.216 . S
O197 C204 1.247 . S
O198 Co196 2.091 . S
O198 C204 1.261 . S
C199 O208 1.247 . S
C199 O209 1.272 . S
O200 Co196 2.004 . S
O200 C205 1.259 . S
Co201 O202 2.061 . S
Co201 O207 2.052 . S
Co201 O209 2.135 . S
O202 Co201 2.061 . S
O202 C205 1.235 . S
C203 O206 1.238 . S
C203 O207 1.241 . S
C204 O197 1.247 . S
C204 O198 1.261 . S
C205 O200 1.259 . S
C205 O202 1.235 . S
O206 Co196 2.021 . S
O206 C203 1.238 . S
O207 Co201 2.052 . S
O207 C203 1.241 . S
O208 Co196 2.137 . S
O208 C199 1.247 . S
O209 Co196 2.244 . S
O209 C199 1.272 . S
O209 Co201 2.135 . S
Co210 O211 2.216 . S
Co210 O212 2.091 . S
Co210 O214 2.004 . S
Co210 O220 2.021 . S
Co210 O222 2.137 . S
Co210 O223 2.244 . S
O211 Co210 2.216 . S
O211 C218 1.247 . S
O212 Co210 2.091 . S
O212 C218 1.261 . S
C213 O222 1.247 . S
C213 O223 1.272 . S
O214 Co210 2.004 . S
O214 C219 1.259 . S
Co215 O216 2.061 . S
Co215 O221 2.052 . S
Co215 O223 2.135 . S
O216 Co215 2.061 . S
O216 C219 1.235 . S
C217 O220 1.238 . S
C217 O221 1.241 . S
C218 O211 1.247 . S
C218 O212 1.261 . S
C219 O214 1.259 . S
C219 O216 1.235 . S
O220 Co210 2.021 . S
O220 C217 1.238 . S
O221 Co215 2.052 . S
O221 C217 1.241 . S
O222 Co210 2.137 . S
O222 C213 1.247 . S
O223 Co210 2.244 . S
O223 C213 1.272 . S
O223 Co215 2.135 . S
Co224 O225 2.216 . S
Co224 O226 2.091 . S
Co224 O228 2.004 . S
Co224 O234 2.021 . S
Co224 O236 2.137 . S
Co224 O237 2.244 . S
O225 Co224 2.216 . S
O225 C232 1.247 . S
O226 Co224 2.091 . S
O226 C232 1.261 . S
C227 O236 1.247 . S
C227 O237 1.272 . S
O228 Co224 2.004 . S
O228 C233 1.259 . S
Co229 O230 2.061 . S
Co229 O235 2.052 . S
Co229 O237 2.135 . S
O230 Co229 2.061 . S
O230 C233 1.235 . S
C231 O234 1.238 . S
C231 O235 1.241 . S
C232 O225 1.247 . S
C232 O226 1.261 . S
C233 O228 1.259 . S
C233 O230 1.235 . S
O234 Co224 2.021 . S
O234 C231 1.238 . S
O235 Co229 2.052 . S
O235 C231 1.241 . S
O236 Co224 2.137 . S
O236 C227 1.247 . S
O237 Co224 2.244 . S
O237 C227 1.272 . S
O237 Co229 2.135 . S
Co238 O239 2.216 . S
Co238 O240 2.091 . S
Co238 O242 2.004 . S
Co238 O248 2.021 . S
Co238 O250 2.137 . S
Co238 O251 2.244 . S
O239 Co238 2.216 . S
O239 C246 1.247 . S
O240 Co238 2.091 . S
O240 C246 1.261 . S
C241 O250 1.247 . S
C241 O251 1.272 . S
O242 Co238 2.004 . S
O242 C247 1.259 . S
Co243 O244 2.061 . S
Co243 O249 2.052 . S
Co243 O251 2.135 . S
O244 Co243 2.061 . S
O244 C247 1.235 . S
C245 O248 1.238 . S
C245 O249 1.241 . S
C246 O239 1.247 . S
C246 O240 1.261 . S
C247 O242 1.259 . S
C247 O244 1.235 . S
O248 Co238 2.021 . S
O248 C245 1.238 . S
O249 Co243 2.052 . S
O249 C245 1.241 . S
O250 Co238 2.137 . S
O250 C241 1.247 . S
O251 Co238 2.244 . S
O251 C241 1.272 . S
O251 Co243 2.135 . S
H252 C258 0.930 . S
H253 C262 0.930 . S
H254 C267 0.929 . S
H255 C265 0.929 1_556 S
H256 C260 0.929 . S
H257 C266 0.929 . S
C258 H252 0.930 . S
C258 C259 1.367 . S
C258 C266 1.378 . S
C259 C258 1.367 . S
C259 C267 1.433 . S
C260 H256 0.929 . S
C260 C262 1.378 . S
C260 C264 1.350 . S
C261 C264 1.463 . S
C261 C266 1.350 . S
C261 N269 1.427 . S
C262 H253 0.930 . S
C262 C260 1.378 . S
C262 C263 1.367 . S
C263 C262 1.367 . S
C263 C265 1.433 . S
C264 C260 1.350 . S
C264 C261 1.463 . S
C264 N268 1.427 . S
C265 H255 0.929 1_554 S
C265 C263 1.433 . S
C265 N268 1.384 . S
C266 H257 0.929 . S
C266 C258 1.378 . S
C266 C261 1.350 . S
C267 H254 0.929 . S
C267 C259 1.433 . S
C267 N269 1.384 . S
N268 C264 1.427 . S
N268 C265 1.384 . S
N269 C261 1.427 . S
N269 C267 1.384 . S
H270 C276 0.930 1_556 S
H271 C280 0.930 . S
H272 C285 0.929 . S
H273 C283 0.929 . S
H274 C278 0.929 . S
H275 C284 0.929 . S
C276 H270 0.930 1_554 S
C276 C277 1.367 . S
C276 C284 1.378 . S
C277 C276 1.367 . S
C277 C285 1.433 . S
C278 H274 0.929 . S
C278 C280 1.378 . S
C278 C282 1.350 . S
C279 C282 1.463 . S
C279 C284 1.350 . S
C279 N287 1.427 . S
C280 H271 0.930 . S
C280 C278 1.378 . S
C280 C281 1.367 . S
C281 C280 1.367 . S
C281 C283 1.433 . S
C282 C278 1.350 . S
C282 C279 1.463 . S
C282 N286 1.427 . S
C283 H273 0.929 . S
C283 C281 1.433 . S
C283 N286 1.384 . S
C284 H275 0.929 . S
C284 C276 1.378 . S
C284 C279 1.350 . S
C285 H272 0.929 . S
C285 C277 1.433 . S
C285 N287 1.384 . S
N286 C282 1.427 . S
N286 C283 1.384 . S
N287 C279 1.427 . S
N287 C285 1.384 . S
H288 C294 0.930 . S
H289 C298 0.930 1_556 S
H290 C303 0.929 . S
H291 C301 0.929 . S
H292 C296 0.929 . S
H293 C302 0.929 . S
C294 H288 0.930 . S
C294 C295 1.367 . S
C294 C302 1.378 . S
C295 C294 1.367 . S
C295 C303 1.433 . S
C296 H292 0.929 . S
C296 C298 1.378 . S
C296 C300 1.350 . S
C297 C300 1.463 . S
C297 C302 1.350 . S
C297 N305 1.427 . S
C298 H289 0.930 1_554 S
C298 C296 1.378 . S
C298 C299 1.367 1_554 S
C299 C298 1.367 1_556 S
C299 C301 1.433 1_556 S
C300 C296 1.350 . S
C300 C297 1.463 . S
C300 N304 1.427 . S
C301 H291 0.929 . S
C301 C299 1.433 1_554 S
C301 N304 1.384 . S
C302 H293 0.929 . S
C302 C294 1.378 . S
C302 C297 1.350 . S
C303 H290 0.929 . S
C303 C295 1.433 . S
C303 N305 1.384 . S
N304 C300 1.427 . S
N304 C301 1.384 . S
N305 C297 1.427 . S
N305 C303 1.384 . S
H306 C312 0.930 . S
H307 C316 0.930 . S
H308 C321 0.929 . S
H309 C319 0.929 1_565 S
H310 C314 0.929 . S
H311 C320 0.929 . S
C312 H306 0.930 . S
C312 C313 1.367 . S
C312 C320 1.378 . S
C313 C312 1.367 . S
C313 C321 1.433 . S
C314 H310 0.929 . S
C314 C316 1.378 . S
C314 C318 1.350 . S
C315 C318 1.463 . S
C315 C320 1.350 . S
C315 N323 1.427 . S
C316 H307 0.930 . S
C316 C314 1.378 . S
C316 C317 1.367 . S
C317 C316 1.367 . S
C317 C319 1.433 . S
C318 C314 1.350 . S
C318 C315 1.463 . S
C318 N322 1.427 . S
C319 H309 0.929 1_545 S
C319 C317 1.433 . S
C319 N322 1.384 . S
C320 H311 0.929 . S
C320 C312 1.378 . S
C320 C315 1.350 . S
C321 H308 0.929 . S
C321 C313 1.433 . S
C321 N323 1.384 . S
N322 C318 1.427 . S
N322 C319 1.384 . S
N323 C315 1.427 . S
N323 C321 1.384 . S
H324 C330 0.930 . S
H325 C334 0.930 . S
H326 C339 0.950 . S
H327 C337 0.929 . S
H328 C332 0.929 . S
H329 C338 0.929 . S
C330 H324 0.930 . S
C330 C331 1.367 . S
C330 C338 1.378 . S
C331 C330 1.367 . S
C331 C339 1.433 . S
C332 H328 0.929 . S
C332 C334 1.378 . S
C332 C336 1.350 1_455 S
C333 C336 1.463 . S
C333 C338 1.350 . S
C333 N341 1.427 . S
C334 H325 0.930 . S
C334 C332 1.378 . S
C334 C335 1.367 1_455 S
C335 C334 1.367 1_655 S
C335 C337 1.433 . S
C336 C332 1.350 1_655 S
C336 C333 1.463 . S
C336 N340 1.427 . S
C337 H327 0.929 . S
C337 C335 1.433 . S
C337 N340 1.384 . S
C338 H329 0.929 . S
C338 C330 1.378 . S
C338 C333 1.350 . S
C339 H326 0.950 . S
C339 C331 1.433 . S
C339 N341 1.384 . S
N340 C336 1.427 . S
N340 C337 1.384 . S
N341 C333 1.427 . S
N341 C339 1.384 . S
H342 C348 0.930 . S
H343 C352 0.930 . S
H344 C357 0.929 . S
H345 C355 0.929 . S
H346 C350 0.929 . S
H347 C356 0.929 . S
C348 H342 0.930 . S
C348 C349 1.367 . S
C348 C356 1.378 . S
C349 C348 1.367 . S
C349 C357 1.433 . S
C350 H346 0.929 . S
C350 C352 1.378 . S
C350 C354 1.350 . S
C351 C354 1.463 . S
C351 C356 1.350 . S
C351 N359 1.427 . S
C352 H343 0.930 . S
C352 C350 1.378 . S
C352 C353 1.367 . S
C353 C352 1.367 . S
C353 C355 1.433 . S
C354 C350 1.350 . S
C354 C351 1.463 . S
C354 N358 1.427 . S
C355 H345 0.929 . S
C355 C353 1.433 . S
C355 N358 1.384 . S
C356 H347 0.929 . S
C356 C348 1.378 . S
C356 C351 1.350 . S
C357 H344 0.929 . S
C357 C349 1.433 . S
C357 N359 1.384 . S
N358 C354 1.427 . S
N358 C355 1.384 . S
N359 C351 1.427 . S
N359 C357 1.384 . S
H360 C366 0.930 . S
H361 C370 0.930 1_554 S
H362 C375 0.929 . S
H363 C373 0.929 . S
H364 C368 0.929 . S
H365 C374 0.929 . S
C366 H360 0.930 . S
C366 C367 1.367 . S
C366 C374 1.378 . S
C367 C366 1.367 . S
C367 C375 1.433 . S
C368 H364 0.929 . S
C368 C370 1.378 . S
C368 C372 1.350 . S
C369 C372 1.463 . S
C369 C374 1.350 . S
C369 N377 1.427 . S
C370 H361 0.930 1_556 S
C370 C368 1.378 . S
C370 C371 1.368 . S
C371 C370 1.368 . S
C371 C373 1.450 . S
C372 C368 1.350 . S
C372 C369 1.463 . S
C372 N376 1.427 . S
C373 H363 0.929 . S
C373 C371 1.450 . S
C373 N376 1.384 . S
C374 H365 0.929 . S
C374 C366 1.378 . S
C374 C369 1.350 . S
C375 H362 0.929 . S
C375 C367 1.433 . S
C375 N377 1.384 . S
N376 C372 1.427 . S
N376 C373 1.384 . S
N377 C369 1.427 . S
N377 C375 1.384 . S
H378 C384 0.930 1_554 S
H379 C388 0.930 . S
H380 C393 0.929 . S
H381 C391 0.929 . S
H382 C386 0.929 . S
H383 C392 0.929 . S
C384 H378 0.930 1_556 S
C384 C385 1.364 1_556 S
C384 C392 1.378 . S
C385 C384 1.364 1_554 S
C385 C393 1.409 1_554 S
C386 H382 0.929 . S
C386 C388 1.378 . S
C386 C390 1.350 . S
C387 C390 1.463 . S
C387 C392 1.350 . S
C387 N395 1.427 . S
C388 H379 0.930 . S
C388 C386 1.378 . S
C388 C389 1.367 . S
C389 C388 1.367 . S
C389 C391 1.433 . S
C390 C386 1.350 . S
C390 C387 1.463 . S
C390 N394 1.427 . S
C391 H381 0.929 . S
C391 C389 1.433 . S
C391 N394 1.384 . S
C392 H383 0.929 . S
C392 C384 1.378 . S
C392 C387 1.350 . S
C393 H380 0.929 . S
C393 C385 1.409 1_556 S
C393 N395 1.384 . S
N394 C390 1.427 . S
N394 C391 1.384 . S
N395 C387 1.427 . S
N395 C393 1.384 . S
H396 C402 0.930 1_554 S
H397 C406 0.930 . S
H398 C411 0.929 . S
H399 C409 0.929 1_565 S
H400 C404 0.929 . S
H401 C410 0.929 . S
C402 H396 0.930 1_556 S
C402 C403 1.369 . S
C402 C410 1.378 . S
C403 C402 1.369 . S
C403 C411 1.437 . S
C404 H400 0.929 . S
C404 C406 1.378 . S
C404 C408 1.350 . S
C405 C408 1.463 . S
C405 C410 1.350 . S
C405 N413 1.427 . S
C406 H397 0.930 . S
C406 C404 1.378 . S
C406 C407 1.367 . S
C407 C406 1.367 . S
C407 C409 1.433 . S
C408 C404 1.350 . S
C408 C405 1.463 . S
C408 N412 1.427 . S
C409 H399 0.929 1_545 S
C409 C407 1.433 . S
C409 N412 1.384 . S
C410 H401 0.929 . S
C410 C402 1.378 . S
C410 C405 1.350 . S
C411 H398 0.929 . S
C411 C403 1.437 . S
C411 N413 1.384 . S
N412 C408 1.427 . S
N412 C409 1.384 . S
N413 C405 1.427 . S
N413 C411 1.384 . S
H414 C420 0.930 1_545 S
H415 C424 0.930 . S
H416 C429 0.929 . S
H417 C427 0.929 . S
H418 C422 0.929 . S
H419 C428 0.929 . S
C420 H414 0.930 1_565 S
C420 C421 1.367 . S
C420 C428 1.378 . S
C421 C420 1.367 . S
C421 C429 1.433 . S
C422 H418 0.929 . S
C422 C424 1.378 . S
C422 C426 1.350 . S
C423 C426 1.463 . S
C423 C428 1.350 . S
C423 N431 1.427 . S
C424 H415 0.930 . S
C424 C422 1.378 . S
C424 C425 1.367 . S
C425 C424 1.367 . S
C425 C427 1.433 . S
C426 C422 1.350 . S
C426 C423 1.463 . S
C426 N430 1.427 . S
C427 H417 0.929 . S
C427 C425 1.433 . S
C427 N430 1.384 . S
C428 H419 0.929 . S
C428 C420 1.378 . S
C428 C423 1.350 . S
C429 H416 0.929 . S
C429 C421 1.433 . S
C429 N431 1.384 . S
N430 C426 1.427 . S
N430 C427 1.384 . S
N431 C423 1.427 . S
N431 C429 1.384 . S
H432 C438 0.930 . S
H433 C442 0.930 . S
H434 C447 0.929 . S
H435 C445 0.929 . S
H436 C440 0.929 . S
H437 C446 0.929 . S
C438 H432 0.930 . S
C438 C439 1.367 . S
C438 C446 1.378 . S
C439 C438 1.367 . S
C439 C447 1.433 . S
C440 H436 0.929 . S
C440 C442 1.378 . S
C440 C444 1.350 . S
C441 C444 1.463 . S
C441 C446 1.350 . S
C441 N449 1.427 . S
C442 H433 0.930 . S
C442 C440 1.378 . S
C442 C443 1.367 . S
C443 C442 1.367 . S
C443 C445 1.433 . S
C444 C440 1.350 . S
C444 C441 1.463 . S
C444 N448 1.427 . S
C445 H435 0.929 . S
C445 C443 1.433 . S
C445 N448 1.384 . S
C446 H437 0.929 . S
C446 C438 1.378 . S
C446 C441 1.350 . S
C447 H434 0.929 . S
C447 C439 1.433 . S
C447 N449 1.384 . S
N448 C444 1.427 . S
N448 C445 1.384 . S
N449 C441 1.427 . S
N449 C447 1.384 . S
H450 C456 0.930 . S
H451 C460 0.930 . S
H452 C465 0.929 . S
H453 C463 0.929 . S
H454 C458 0.929 . S
H455 C464 0.929 . S
C456 H450 0.930 . S
C456 C457 1.367 . S
C456 C464 1.378 . S
C457 C456 1.367 . S
C457 C465 1.433 . S
C458 H454 0.929 . S
C458 C460 1.378 . S
C458 C462 1.350 . S
C459 C462 1.463 . S
C459 C464 1.350 . S
C459 N467 1.427 . S
C460 H451 0.930 . S
C460 C458 1.378 . S
C460 C461 1.367 . S
C461 C460 1.367 . S
C461 C463 1.433 . S
C462 C458 1.350 . S
C462 C459 1.463 . S
C462 N466 1.427 . S
C463 H453 0.929 . S
C463 C461 1.433 . S
C463 N466 1.384 . S
C464 H455 0.929 . S
C464 C456 1.378 . S
C464 C459 1.350 . S
C465 H452 0.929 . S
C465 C457 1.433 . S
C465 N467 1.384 . S
N466 C462 1.427 . S
N466 C463 1.384 . S
N467 C459 1.427 . S
N467 C465 1.384 . S
H468 C474 0.930 . S
H469 C478 0.930 . S
H470 C483 0.929 . S
H471 C481 0.929 . S
H472 C476 0.929 . S
H473 C482 0.929 . S
C474 H468 0.930 . S
C474 C475 1.367 . S
C474 C482 1.378 . S
C475 C474 1.367 . S
C475 C483 1.433 . S
C476 H472 0.929 . S
C476 C478 1.378 . S
C476 C480 1.350 . S
C477 C480 1.463 . S
C477 C482 1.350 . S
C477 N485 1.427 . S
C478 H469 0.930 . S
C478 C476 1.378 . S
C478 C479 1.367 . S
C479 C478 1.367 . S
C479 C481 1.433 . S
C480 C476 1.350 . S
C480 C477 1.463 . S
C480 N484 1.427 . S
C481 H471 0.929 . S
C481 C479 1.433 . S
C481 N484 1.384 . S
C482 H473 0.929 . S
C482 C474 1.378 . S
C482 C477 1.350 . S
C483 H470 0.929 . S
C483 C475 1.433 . S
C483 N485 1.384 . S
N484 C480 1.427 . S
N484 C481 1.384 . S
N485 C477 1.427 . S
N485 C483 1.384 . S
H486 C492 0.930 . S
H487 C496 0.930 . S
H488 C501 0.929 . S
H489 C499 0.929 1_545 S
H490 C494 0.929 . S
H491 C500 0.929 . S
C492 H486 0.930 . S
C492 C493 1.367 . S
C492 C500 1.378 . S
C493 C492 1.367 . S
C493 C501 1.433 . S
C494 H490 0.929 . S
C494 C496 1.378 . S
C494 C498 1.337 1_565 S
C495 C498 1.468 . S
C495 C500 1.350 . S
C495 N503 1.427 . S
C496 H487 0.930 . S
C496 C494 1.378 . S
C496 C497 1.367 . S
C497 C496 1.367 . S
C497 C499 1.433 . S
C498 C494 1.337 1_545 S
C498 C495 1.468 . S
C498 N502 1.435 . S
C499 H489 0.929 1_565 S
C499 C497 1.433 . S
C499 N502 1.384 1_565 S
C500 H491 0.929 . S
C500 C492 1.378 . S
C500 C495 1.350 . S
C501 H488 0.929 . S
C501 C493 1.433 . S
C501 N503 1.384 . S
N502 C498 1.435 . S
N502 C499 1.384 1_545 S
N503 C495 1.427 . S
N503 C501 1.384 . S
H504 C510 0.930 . S
H505 C514 0.930 . S
H506 C519 0.929 . S
H507 C517 0.929 . S
H508 C512 0.929 . S
H509 C518 0.929 1_655 S
C510 H504 0.930 . S
C510 C511 1.367 . S
C510 C518 1.378 . S
C511 C510 1.367 . S
C511 C519 1.433 . S
C512 H508 0.929 . S
C512 C514 1.378 . S
C512 C516 1.350 . S
C513 C516 1.463 . S
C513 C518 1.350 . S
C513 N521 1.427 . S
C514 H505 0.930 . S
C514 C512 1.378 . S
C514 C515 1.367 1_455 S
C515 C514 1.367 1_655 S
C515 C517 1.433 . S
C516 C512 1.350 . S
C516 C513 1.463 . S
C516 N520 1.427 1_455 S
C517 H507 0.929 . S
C517 C515 1.433 . S
C517 N520 1.384 . S
C518 H509 0.929 1_455 S
C518 C510 1.378 . S
C518 C513 1.350 . S
C519 H506 0.929 . S
C519 C511 1.433 . S
C519 N521 1.384 . S
N520 C516 1.427 1_655 S
N520 C517 1.384 . S
N521 C513 1.427 . S
N521 C519 1.384 . S
H522 C528 0.930 . S
H523 C532 0.930 . S
H524 C537 0.929 . S
H525 C535 0.929 . S
H526 C530 0.929 . S
H527 C536 0.929 . S
C528 H522 0.930 . S
C528 C529 1.367 . S
C528 C536 1.378 . S
C529 C528 1.367 . S
C529 C537 1.433 . S
C530 H526 0.929 . S
C530 C532 1.378 . S
C530 C534 1.350 . S
C531 C534 1.463 . S
C531 C536 1.350 . S
C531 N539 1.427 . S
C532 H523 0.930 . S
C532 C530 1.378 . S
C532 C533 1.367 . S
C533 C532 1.367 . S
C533 C535 1.433 . S
C534 C530 1.350 . S
C534 C531 1.463 . S
C534 N538 1.427 . S
C535 H525 0.929 . S
C535 C533 1.433 . S
C535 N538 1.384 . S
C536 H527 0.929 . S
C536 C528 1.378 . S
C536 C531 1.350 . S
C537 H524 0.929 . S
C537 C529 1.433 . S
C537 N539 1.384 . S
N538 C534 1.427 . S
N538 C535 1.384 . S
N539 C531 1.427 . S
N539 C537 1.384 . S
H540 C546 0.930 . S
H541 C550 0.930 . S
H542 C555 0.929 . S
H543 C553 0.929 1_545 S
H544 C548 0.929 . S
H545 C554 0.929 . S
C546 H540 0.930 . S
C546 C547 1.367 . S
C546 C554 1.378 . S
C547 C546 1.367 . S
C547 C555 1.433 . S
C548 H544 0.929 . S
C548 C550 1.378 . S
C548 C552 1.350 . S
C549 C552 1.463 1_545 S
C549 C554 1.350 . S
C549 N557 1.427 1_545 S
C550 H541 0.930 . S
C550 C548 1.378 . S
C550 C551 1.367 . S
C551 C550 1.367 . S
C551 C553 1.433 . S
C552 C548 1.350 . S
C552 C549 1.463 1_565 S
C552 N556 1.427 1_565 S
C553 H543 0.929 1_565 S
C553 C551 1.433 . S
C553 N556 1.384 1_565 S
C554 H545 0.929 . S
C554 C546 1.378 . S
C554 C549 1.350 . S
C555 H542 0.929 . S
C555 C547 1.433 . S
C555 N557 1.384 1_545 S
N556 C552 1.427 1_545 S
N556 C553 1.384 1_545 S
N557 C549 1.427 1_565 S
N557 C555 1.384 1_565 S
H558 C564 0.930 . S
H559 C568 0.930 . S
H560 C573 0.929 . S
H561 C571 0.916 1_455 S
H562 C566 0.929 . S
H563 C572 0.929 . S
C564 H558 0.930 . S
C564 C565 1.367 . S
C564 C572 1.378 . S
C565 C564 1.367 . S
C565 C573 1.433 . S
C566 H562 0.929 . S
C566 C568 1.378 . S
C566 C570 1.392 . S
C567 C570 1.443 1_455 S
C567 C572 1.350 . S
C567 N575 1.427 . S
C568 H559 0.930 . S
C568 C566 1.378 . S
C568 C569 1.367 . S
C569 C568 1.367 . S
C569 C571 1.457 . S
C570 C566 1.392 . S
C570 C567 1.443 1_655 S
C570 N574 1.402 1_655 S
C571 H561 0.916 1_655 S
C571 C569 1.457 . S
C571 N574 1.374 1_655 S
C572 H563 0.929 . S
C572 C564 1.378 . S
C572 C567 1.350 . S
C573 H560 0.929 . S
C573 C565 1.433 . S
C573 N575 1.384 . S
N574 C570 1.402 1_455 S
N574 C571 1.374 1_455 S
N575 C567 1.427 . S
N575 C573 1.384 . S
H576 C582 0.930 . S
H577 C586 0.930 . S
H578 C591 0.929 . S
H579 C589 0.929 . S
H580 C584 0.929 . S
H581 C590 0.929 . S
C582 H576 0.930 . S
C582 C583 1.367 . S
C582 C590 1.378 . S
C583 C582 1.367 . S
C583 C591 1.433 . S
C584 H580 0.929 . S
C584 C586 1.378 . S
C584 C588 1.350 . S
C585 C588 1.463 . S
C585 C590 1.350 . S
C585 N593 1.427 . S
C586 H577 0.930 . S
C586 C584 1.378 . S
C586 C587 1.367 . S
C587 C586 1.367 . S
C587 C589 1.433 . S
C588 C584 1.350 . S
C588 C585 1.463 . S
C588 N592 1.427 . S
C589 H579 0.929 . S
C589 C587 1.433 . S
C589 N592 1.384 . S
C590 H581 0.929 . S
C590 C582 1.378 . S
C590 C585 1.350 . S
C591 H578 0.929 . S
C591 C583 1.433 . S
C591 N593 1.384 . S
N592 C588 1.427 . S
N592 C589 1.384 . S
N593 C585 1.427 . S
N593 C591 1.384 . S
H594 C600 0.930 . S
H595 C604 0.930 . S
H596 C609 0.929 . S
H597 C607 0.929 . S
H598 C602 0.929 . S
H599 C608 0.929 . S
C600 H594 0.930 . S
C600 C601 1.367 . S
C600 C608 1.378 . S
C601 C600 1.367 . S
C601 C609 1.433 . S
C602 H598 0.929 . S
C602 C604 1.378 . S
C602 C606 1.350 . S
C603 C606 1.463 . S
C603 C608 1.350 . S
C603 N611 1.427 . S
C604 H595 0.930 . S
C604 C602 1.378 . S
C604 C605 1.367 . S
C605 C604 1.367 . S
C605 C607 1.433 . S
C606 C602 1.350 . S
C606 C603 1.463 . S
C606 N610 1.427 . S
C607 H597 0.929 . S
C607 C605 1.433 . S
C607 N610 1.384 . S
C608 H599 0.929 . S
C608 C600 1.378 . S
C608 C603 1.350 . S
C609 H596 0.929 . S
C609 C601 1.433 . S
C609 N611 1.384 . S
N610 C606 1.427 . S
N610 C607 1.384 . S
N611 C603 1.427 . S
N611 C609 1.384 . S
H612 C618 0.930 . S
H613 C622 0.930 . S
H614 C627 0.929 . S
H615 C625 0.929 . S
H616 C620 0.929 . S
H617 C626 0.929 . S
C618 H612 0.930 . S
C618 C619 1.367 . S
C618 C626 1.378 . S
C619 C618 1.367 . S
C619 C627 1.433 . S
C620 H616 0.929 . S
C620 C622 1.378 . S
C620 C624 1.350 . S
C621 C624 1.463 . S
C621 C626 1.350 . S
C621 N629 1.427 . S
C622 H613 0.930 . S
C622 C620 1.378 . S
C622 C623 1.367 . S
C623 C622 1.367 . S
C623 C625 1.433 . S
C624 C620 1.350 . S
C624 C621 1.463 . S
C624 N628 1.427 . S
C625 H615 0.929 . S
C625 C623 1.433 . S
C625 N628 1.384 . S
C626 H617 0.929 . S
C626 C618 1.378 . S
C626 C621 1.350 . S
C627 H614 0.929 . S
C627 C619 1.433 . S
C627 N629 1.384 . S
N628 C624 1.427 . S
N628 C625 1.384 . S
N629 C621 1.427 . S
N629 C627 1.384 . S
H630 C636 0.930 . S
H631 C640 0.930 . S
H632 C645 0.929 . S
H633 C643 0.929 . S
H634 C638 0.929 . S
H635 C644 0.929 . S
C636 H630 0.930 . S
C636 C637 1.367 . S
C636 C644 1.378 . S
C637 C636 1.367 . S
C637 C645 1.433 . S
C638 H634 0.929 . S
C638 C640 1.378 . S
C638 C642 1.350 . S
C639 C642 1.463 . S
C639 C644 1.350 . S
C639 N647 1.427 . S
C640 H631 0.930 . S
C640 C638 1.378 . S
C640 C641 1.367 . S
C641 C640 1.367 . S
C641 C643 1.433 . S
C642 C638 1.350 . S
C642 C639 1.463 . S
C642 N646 1.427 . S
C643 H633 0.929 . S
C643 C641 1.433 . S
C643 N646 1.384 . S
C644 H635 0.929 . S
C644 C636 1.378 . S
C644 C639 1.350 . S
C645 H632 0.929 . S
C645 C637 1.433 . S
C645 N647 1.384 . S
N646 C642 1.427 . S
N646 C643 1.384 . S
N647 C639 1.427 . S
N647 C645 1.384 . S
H648 C654 0.930 . S
H649 C658 0.930 . S
H650 C663 0.929 . S
H651 C661 0.929 . S
H652 C656 0.929 . S
H653 C662 0.929 . S
C654 H648 0.930 . S
C654 C655 1.367 . S
C654 C662 1.378 . S
C655 C654 1.367 . S
C655 C663 1.433 . S
C656 H652 0.929 . S
C656 C658 1.378 . S
C656 C660 1.350 . S
C657 C660 1.463 . S
C657 C662 1.350 . S
C657 N665 1.427 . S
C658 H649 0.930 . S
C658 C656 1.378 . S
C658 C659 1.367 . S
C659 C658 1.367 . S
C659 C661 1.433 . S
C660 C656 1.350 . S
C660 C657 1.463 . S
C660 N664 1.427 . S
C661 H651 0.929 . S
C661 C659 1.433 . S
C661 N664 1.384 . S
C662 H653 0.929 . S
C662 C654 1.378 . S
C662 C657 1.350 . S
C663 H650 0.929 . S
C663 C655 1.433 . S
C663 N665 1.384 . S
N664 C660 1.427 . S
N664 C661 1.384 . S
N665 C657 1.427 . S
N665 C663 1.384 . S
H666 C672 0.930 . S
H667 C676 0.930 . S
H668 C681 0.929 . S
H669 C679 0.929 . S
H670 C674 0.929 . S
H671 C680 0.929 . S
C672 H666 0.930 . S
C672 C673 1.367 . S
C672 C680 1.378 . S
C673 C672 1.367 . S
C673 C681 1.433 . S
C674 H670 0.929 . S
C674 C676 1.378 . S
C674 C678 1.350 . S
C675 C678 1.463 . S
C675 C680 1.350 . S
C675 N683 1.427 . S
C676 H667 0.930 . S
C676 C674 1.378 . S
C676 C677 1.367 . S
C677 C676 1.367 . S
C677 C679 1.433 . S
C678 C674 1.350 . S
C678 C675 1.463 . S
C678 N682 1.427 . S
C679 H669 0.929 . S
C679 C677 1.433 . S
C679 N682 1.384 . S
C680 H671 0.929 . S
C680 C672 1.378 . S
C680 C675 1.350 . S
C681 H668 0.929 . S
C681 C673 1.433 . S
C681 N683 1.384 . S
N682 C678 1.427 . S
N682 C679 1.384 . S
N683 C675 1.427 . S
N683 C681 1.384 . S
H684 C690 0.930 . S
H685 C694 0.930 . S
H686 C699 0.929 . S
H687 C697 0.929 . S
H688 C692 0.929 . S
H689 C698 0.929 . S
C690 H684 0.930 . S
C690 C691 1.367 . S
C690 C698 1.378 . S
C691 C690 1.367 . S
C691 C699 1.433 . S
C692 H688 0.929 . S
C692 C694 1.378 . S
C692 C696 1.350 . S
C693 C696 1.463 . S
C693 C698 1.350 . S
C693 N701 1.427 . S
C694 H685 0.930 . S
C694 C692 1.378 . S
C694 C695 1.367 . S
C695 C694 1.367 . S
C695 C697 1.433 . S
C696 C692 1.350 . S
C696 C693 1.463 . S
C696 N700 1.427 . S
C697 H687 0.929 . S
C697 C695 1.433 . S
C697 N700 1.384 . S
C698 H689 0.929 . S
C698 C690 1.378 . S
C698 C693 1.350 . S
C699 H686 0.929 . S
C699 C691 1.433 . S
C699 N701 1.384 . S
N700 C696 1.427 . S
N700 C697 1.384 . S
N701 C693 1.427 . S
N701 C699 1.384 . S
H702 C708 0.930 . S
H703 C712 0.930 . S
H704 C717 0.929 . S
H705 C715 0.929 . S
H706 C710 0.929 . S
H707 C716 0.929 . S
C708 H702 0.930 . S
C708 C709 1.367 . S
C708 C716 1.378 . S
C709 C708 1.367 . S
C709 C717 1.433 . S
C710 H706 0.929 . S
C710 C712 1.378 . S
C710 C714 1.350 . S
C711 C714 1.463 . S
C711 C716 1.350 . S
C711 N719 1.427 . S
C712 H703 0.930 . S
C712 C710 1.378 . S
C712 C713 1.367 . S
C713 C712 1.367 . S
C713 C715 1.433 . S
C714 C710 1.350 . S
C714 C711 1.463 . S
C714 N718 1.427 . S
C715 H705 0.929 . S
C715 C713 1.433 . S
C715 N718 1.384 . S
C716 H707 0.929 . S
C716 C708 1.378 . S
C716 C711 1.350 . S
C717 H704 0.929 . S
C717 C709 1.433 . S
C717 N719 1.384 . S
N718 C714 1.427 . S
N718 C715 1.384 . S
N719 C711 1.427 . S
N719 C717 1.384 . S
H720 C726 0.930 . S
H721 C730 0.930 . S
H722 C735 0.929 . S
H723 C733 0.929 . S
H724 C728 0.929 . S
H725 C734 0.929 . S
C726 H720 0.930 . S
C726 C727 1.367 . S
C726 C734 1.378 . S
C727 C726 1.367 . S
C727 C735 1.433 . S
C728 H724 0.929 . S
C728 C730 1.378 . S
C728 C732 1.350 . S
C729 C732 1.463 . S
C729 C734 1.350 . S
C729 N737 1.427 . S
C730 H721 0.930 . S
C730 C728 1.378 . S
C730 C731 1.367 . S
C731 C730 1.367 . S
C731 C733 1.433 . S
C732 C728 1.350 . S
C732 C729 1.463 . S
C732 N736 1.427 . S
C733 H723 0.929 . S
C733 C731 1.433 . S
C733 N736 1.384 . S
C734 H725 0.929 . S
C734 C726 1.378 . S
C734 C729 1.350 . S
C735 H722 0.929 . S
C735 C727 1.433 . S
C735 N737 1.384 . S
N736 C732 1.427 . S
N736 C733 1.384 . S
N737 C729 1.427 . S
N737 C735 1.384 . S
H738 C744 0.930 . S
H739 C748 0.930 . S
H740 C753 0.929 . S
H741 C751 0.929 . S
H742 C746 0.929 . S
H743 C752 0.929 . S
C744 H738 0.930 . S
C744 C745 1.367 . S
C744 C752 1.378 . S
C745 C744 1.367 . S
C745 C753 1.433 . S
C746 H742 0.929 . S
C746 C748 1.378 . S
C746 C750 1.350 . S
C747 C750 1.463 . S
C747 C752 1.350 . S
C747 N755 1.427 . S
C748 H739 0.930 . S
C748 C746 1.378 . S
C748 C749 1.367 . S
C749 C748 1.367 . S
C749 C751 1.433 . S
C750 C746 1.350 . S
C750 C747 1.463 . S
C750 N754 1.427 . S
C751 H741 0.929 . S
C751 C749 1.433 . S
C751 N754 1.384 . S
C752 H743 0.929 . S
C752 C744 1.378 . S
C752 C747 1.350 . S
C753 H740 0.929 . S
C753 C745 1.433 . S
C753 N755 1.384 . S
N754 C750 1.427 . S
N754 C751 1.384 . S
N755 C747 1.427 . S
N755 C753 1.384 . S
H756 C762 0.930 . S
H757 C766 0.930 . S
H758 C771 0.929 . S
H759 C769 0.929 . S
H760 C764 0.929 . S
H761 C770 0.929 . S
C762 H756 0.930 . S
C762 C763 1.367 . S
C762 C770 1.378 . S
C763 C762 1.367 . S
C763 C771 1.433 . S
C764 H760 0.929 . S
C764 C766 1.378 . S
C764 C768 1.350 . S
C765 C768 1.463 . S
C765 C770 1.350 . S
C765 N773 1.427 . S
C766 H757 0.930 . S
C766 C764 1.378 . S
C766 C767 1.367 . S
C767 C766 1.367 . S
C767 C769 1.433 . S
C768 C764 1.350 . S
C768 C765 1.463 . S
C768 N772 1.427 . S
C769 H759 0.929 . S
C769 C767 1.433 . S
C769 N772 1.384 . S
C770 H761 0.929 . S
C770 C762 1.378 . S
C770 C765 1.350 . S
C771 H758 0.929 . S
C771 C763 1.433 . S
C771 N773 1.384 . S
N772 C768 1.427 . S
N772 C769 1.384 . S
N773 C765 1.427 . S
N773 C771 1.384 . S
H774 C780 0.930 . S
H775 C784 0.930 . S
H776 C789 0.929 . S
H777 C787 0.929 . S
H778 C782 0.929 . S
H779 C788 0.929 . S
C780 H774 0.930 . S
C780 C781 1.367 . S
C780 C788 1.378 . S
C781 C780 1.367 . S
C781 C789 1.433 . S
C782 H778 0.929 . S
C782 C784 1.378 . S
C782 C786 1.350 . S
C783 C786 1.463 . S
C783 C788 1.350 . S
C783 N791 1.427 . S
C784 H775 0.930 . S
C784 C782 1.378 . S
C784 C785 1.367 . S
C785 C784 1.367 . S
C785 C787 1.433 . S
C786 C782 1.350 . S
C786 C783 1.463 . S
C786 N790 1.427 . S
C787 H777 0.929 . S
C787 C785 1.433 . S
C787 N790 1.384 . S
C788 H779 0.929 . S
C788 C780 1.378 . S
C788 C783 1.350 . S
C789 H776 0.929 . S
C789 C781 1.433 . S
C789 N791 1.384 . S
N790 C786 1.427 . S
N790 C787 1.384 . S
N791 C783 1.427 . S
N791 C789 1.384 . S
H792 C798 0.930 . S
H793 C802 0.930 . S
H794 C807 0.929 . S
H795 C805 0.929 . S
H796 C800 0.929 . S
H797 C806 0.929 . S
C798 H792 0.930 . S
C798 C799 1.367 . S
C798 C806 1.378 . S
C799 C798 1.367 . S
C799 C807 1.433 . S
C800 H796 0.929 . S
C800 C802 1.378 . S
C800 C804 1.350 . S
C801 C804 1.463 . S
C801 C806 1.350 . S
C801 N809 1.427 . S
C802 H793 0.930 . S
C802 C800 1.378 . S
C802 C803 1.367 . S
C803 C802 1.367 . S
C803 C805 1.433 . S
C804 C800 1.350 . S
C804 C801 1.463 . S
C804 N808 1.427 . S
C805 H795 0.929 . S
C805 C803 1.433 . S
C805 N808 1.384 . S
C806 H797 0.929 . S
C806 C798 1.378 . S
C806 C801 1.350 . S
C807 H794 0.929 . S
C807 C799 1.433 . S
C807 N809 1.384 . S
N808 C804 1.427 . S
N808 C805 1.384 . S
N809 C801 1.427 . S
N809 C807 1.384 . S
H810 C816 0.930 . S
H811 C820 0.930 . S
H812 C825 0.929 . S
H813 C823 0.929 . S
H814 C818 0.929 1_545 S
H815 C824 0.929 . S
C816 H810 0.930 . S
C816 C817 1.367 . S
C816 C824 1.378 . S
C817 C816 1.367 . S
C817 C825 1.433 . S
C818 H814 0.929 1_565 S
C818 C820 1.378 . S
C818 C822 1.350 . S
C819 C822 1.463 1_545 S
C819 C824 1.350 . S
C819 N827 1.427 . S
C820 H811 0.930 . S
C820 C818 1.378 . S
C820 C821 1.367 . S
C821 C820 1.367 . S
C821 C823 1.433 . S
C822 C818 1.350 . S
C822 C819 1.463 1_565 S
C822 N826 1.427 . S
C823 H813 0.929 . S
C823 C821 1.433 . S
C823 N826 1.384 . S
C824 H815 0.929 . S
C824 C816 1.378 . S
C824 C819 1.350 . S
C825 H812 0.929 . S
C825 C817 1.433 . S
C825 N827 1.384 . S
N826 C822 1.427 . S
N826 C823 1.384 . S
N827 C819 1.427 . S
N827 C825 1.384 . S
H828 C834 0.930 . S
H829 C838 0.930 . S
H830 C843 0.929 . S
H831 C841 0.929 . S
H832 C836 0.929 . S
H833 C842 0.929 . S
C834 H828 0.930 . S
C834 C835 1.367 . S
C834 C842 1.378 . S
C835 C834 1.367 . S
C835 C843 1.433 . S
C836 H832 0.929 . S
C836 C838 1.378 . S
C836 C840 1.329 1_655 S
C837 C840 1.487 . S
C837 C842 1.350 . S
C837 N845 1.427 . S
C838 H829 0.930 . S
C838 C836 1.378 . S
C838 C839 1.367 . S
C839 C838 1.367 . S
C839 C841 1.433 . S
C840 C836 1.329 1_455 S
C840 C837 1.487 . S
C840 N844 1.426 1_455 S
C841 H831 0.929 . S
C841 C839 1.433 . S
C841 N844 1.413 . S
C842 H833 0.929 . S
C842 C834 1.378 . S
C842 C837 1.350 . S
C843 H830 0.929 . S
C843 C835 1.433 . S
C843 N845 1.384 . S
N844 C840 1.426 1_655 S
N844 C841 1.413 . S
N845 C837 1.427 . S
N845 C843 1.384 . S
H846 C852 0.930 . S
H847 C856 0.930 . S
H848 C861 0.929 . S
H849 C859 0.929 . S
H850 C854 0.929 . S
H851 C860 0.929 . S
C852 H846 0.930 . S
C852 C853 1.367 . S
C852 C860 1.378 . S
C853 C852 1.367 . S
C853 C861 1.433 . S
C854 H850 0.929 . S
C854 C856 1.378 . S
C854 C858 1.350 . S
C855 C858 1.463 1_556 S
C855 C860 1.350 . S
C855 N863 1.427 1_556 S
C856 H847 0.930 . S
C856 C854 1.378 . S
C856 C857 1.367 . S
C857 C856 1.367 . S
C857 C859 1.433 . S
C858 C854 1.350 . S
C858 C855 1.463 1_554 S
C858 N862 1.427 1_554 S
C859 H849 0.929 . S
C859 C857 1.433 . S
C859 N862 1.384 1_554 S
C860 H851 0.929 . S
C860 C852 1.378 . S
C860 C855 1.350 . S
C861 H848 0.929 . S
C861 C853 1.433 . S
C861 N863 1.384 1_556 S
N862 C858 1.427 1_556 S
N862 C859 1.384 1_556 S
N863 C855 1.427 1_554 S
N863 C861 1.384 1_554 S
H864 C870 0.930 . S
H865 C874 0.930 . S
H866 C879 0.929 . S
H867 C877 0.929 . S
H868 C872 0.929 . S
H869 C878 0.929 1_545 S
C870 H864 0.930 . S
C870 C871 1.367 . S
C870 C878 1.378 1_556 S
C871 C870 1.367 . S
C871 C879 1.433 . S
C872 H868 0.929 . S
C872 C874 1.378 1_556 S
C872 C876 1.350 1_556 S
C873 C876 1.463 1_566 S
C873 C878 1.350 1_556 S
C873 N881 1.427 . S
C874 H865 0.930 . S
C874 C872 1.378 1_554 S
C874 C875 1.367 . S
C875 C874 1.367 . S
C875 C877 1.433 . S
C876 C872 1.350 1_554 S
C876 C873 1.463 1_544 S
C876 N880 1.427 . S
C877 H867 0.929 . S
C877 C875 1.433 . S
C877 N880 1.384 . S
C878 H869 0.929 1_565 S
C878 C870 1.378 1_554 S
C878 C873 1.350 1_554 S
C879 H866 0.929 . S
C879 C871 1.433 . S
C879 N881 1.384 . S
N880 C876 1.427 . S
N880 C877 1.384 . S
N881 C873 1.427 . S
N881 C879 1.384 . S
H882 C888 0.930 . S
H883 C892 0.930 . S
H884 C897 0.929 . S
H885 C895 0.929 . S
H886 C890 0.929 . S
H887 C896 0.929 . S
C888 H882 0.930 . S
C888 C889 1.367 . S
C888 C896 1.378 . S
C889 C888 1.367 . S
C889 C897 1.433 . S
C890 H886 0.929 . S
C890 C892 1.378 . S
C890 C894 1.350 . S
C891 C894 1.463 1_456 S
C891 C896 1.350 . S
C891 N899 1.427 . S
C892 H883 0.930 . S
C892 C890 1.378 . S
C892 C893 1.367 . S
C893 C892 1.367 . S
C893 C895 1.433 . S
C894 C890 1.350 . S
C894 C891 1.463 1_654 S
C894 N898 1.427 1_655 S
C895 H885 0.929 . S
C895 C893 1.433 . S
C895 N898 1.384 1_655 S
C896 H887 0.929 . S
C896 C888 1.378 . S
C896 C891 1.350 . S
C897 H884 0.929 . S
C897 C889 1.433 . S
C897 N899 1.384 . S
N898 C894 1.427 1_455 S
N898 C895 1.384 1_455 S
N899 C891 1.427 . S
N899 C897 1.384 . S
C259 C7 1.160 . S
C263 C203 1.162 1_554 S
C277 C171 1.125 1_554 S
C281 C17 1.124 . S
C295 C31 1.147 . S
C299 C189 1.131 . S
C313 C91 1.150 . S
C317 C35 1.149 . S
C331 C105 1.142 . S
C335 C3 1.148 . S
C349 C119 1.150 . S
C353 C21 1.150 . S
C367 C49 1.153 . S
C371 C161 1.131 1_556 S
C385 C133 1.170 . S
C389 C59 1.158 . S
C403 C147 1.133 1_556 S
C407 C73 1.150 . S
C421 C77 1.156 . S
C425 C217 1.154 . S
C439 C45 1.120 . S
C443 C227 1.119 . S
C457 C241 1.142 . S
C461 C63 1.141 . S
C475 C175 1.137 . S
C479 C115 1.139 . S
C493 C87 1.127 . S
C497 C185 1.128 . S
C511 C199 1.127 . S
C515 C101 1.125 . S
C529 C245 1.127 . S
C533 C129 1.137 . S
C547 C143 1.121 . S
C551 C213 1.120 . S
C565 C231 1.135 . S
C569 C157 1.137 . S
C583 C219 1.605 . S
C587 C9 1.601 . S
C601 C22 1.676 . S
C605 C232 1.678 . S
C619 C36 1.713 . S
C623 C246 1.715 . S
C637 C37 1.597 . S
C641 C163 1.594 . S
C655 C135 1.600 . S
C659 C8 1.728 . S
C673 C23 1.541 . S
C677 C149 1.543 . S
C691 C93 1.548 . S
C695 C51 1.552 . S
C709 C107 1.576 . S
C713 C64 1.692 . S
C727 C78 1.754 . S
C731 C121 1.620 . S
C745 C79 1.615 . S
C749 C205 1.619 . S
C763 C50 1.704 . S
C767 C176 1.706 . S
C781 C65 1.573 . S
C785 C191 1.576 . S
C799 C120 1.732 . S
C803 C247 1.603 . S
C817 C92 1.733 . S
C821 C218 1.730 . S
C835 C233 1.554 . S
C839 C106 1.675 . S
C853 C177 1.574 . S
C857 C134 1.691 . S
C871 C190 1.681 . S
C875 C148 1.683 . S
C889 C204 1.757 . S
C893 C162 1.756 . S
