# Generated by pormake.
# Topology uoe, (4)-cn, num edge types: 1
# Building blocks:
#     Node 0, Type 0, BuildingBlock: NAWXER_clean_sbu_0, # of connection points: 4
#     Node 1, Type 0, BuildingBlock: NAWXER_clean_sbu_0, # of connection points: 4
#     Node 2, Type 0, BuildingBlock: NAWXER_clean_sbu_0, # of connection points: 4
#     Node 3, Type 0, BuildingBlock: NAWXER_clean_sbu_0, # of connection points: 4
#     Node 4, Type 0, BuildingBlock: NAWXER_clean_sbu_0, # of connection points: 4
#     Node 5, Type 0, BuildingBlock: NAWXER_clean_sbu_0, # of connection points: 4
#     Node 6, Type 0, BuildingBlock: NAWXER_clean_sbu_0, # of connection points: 4
#     Node 7, Type 0, BuildingBlock: NAWXER_clean_sbu_0, # of connection points: 4
#     Node 8, Type 0, BuildingBlock: NAWXER_clean_sbu_0, # of connection points: 4
#     Node 9, Type 0, BuildingBlock: NAWXER_clean_sbu_0, # of connection points: 4
#     Node 10, Type 0, BuildingBlock: NAWXER_clean_sbu_0, # of connection points: 4
#     Node 11, Type 0, BuildingBlock: NAWXER_clean_sbu_0, # of connection points: 4
#     Node 12, Type 0, BuildingBlock: NAWXER_clean_sbu_0, # of connection points: 4
#     Node 13, Type 0, BuildingBlock: NAWXER_clean_sbu_0, # of connection points: 4
#     Node 14, Type 0, BuildingBlock: NAWXER_clean_sbu_0, # of connection points: 4
#     Node 15, Type 0, BuildingBlock: NAWXER_clean_sbu_0, # of connection points: 4
#     Node 16, Type 0, BuildingBlock: NAWXER_clean_sbu_0, # of connection points: 4
#     Node 17, Type 0, BuildingBlock: NAWXER_clean_sbu_0, # of connection points: 4
#     Node 18, Type 0, BuildingBlock: NAWXER_clean_sbu_0, # of connection points: 4
#     Node 19, Type 0, BuildingBlock: NAWXER_clean_sbu_0, # of connection points: 4
#     Node 20, Type 0, BuildingBlock: NAWXER_clean_sbu_0, # of connection points: 4
#     Node 21, Type 0, BuildingBlock: NAWXER_clean_sbu_0, # of connection points: 4
#     Node 22, Type 0, BuildingBlock: NAWXER_clean_sbu_0, # of connection points: 4
#     Node 23, Type 0, BuildingBlock: NAWXER_clean_sbu_0, # of connection points: 4
#     Node 24, Type 0, BuildingBlock: NAWXER_clean_sbu_0, # of connection points: 4
#     Node 25, Type 0, BuildingBlock: NAWXER_clean_sbu_0, # of connection points: 4
#     Node 26, Type 0, BuildingBlock: NAWXER_clean_sbu_0, # of connection points: 4
#     Node 27, Type 0, BuildingBlock: NAWXER_clean_sbu_0, # of connection points: 4
#     Node 28, Type 0, BuildingBlock: NAWXER_clean_sbu_0, # of connection points: 4
#     Node 29, Type 0, BuildingBlock: NAWXER_clean_sbu_0, # of connection points: 4
#     Node 30, Type 0, BuildingBlock: NAWXER_clean_sbu_0, # of connection points: 4
#     Node 31, Type 0, BuildingBlock: NAWXER_clean_sbu_0, # of connection points: 4
#     Edge 32, Type (0, 0), BuildingBlock: EZIPEK_clean_linker_0, # of connection points: 2
#     Edge 33, Type (0, 0), BuildingBlock: EZIPEK_clean_linker_0, # of connection points: 2
#     Edge 34, Type (0, 0), BuildingBlock: EZIPEK_clean_linker_0, # of connection points: 2
#     Edge 35, Type (0, 0), BuildingBlock: EZIPEK_clean_linker_0, # of connection points: 2
#     Edge 36, Type (0, 0), BuildingBlock: EZIPEK_clean_linker_0, # of connection points: 2
#     Edge 37, Type (0, 0), BuildingBlock: EZIPEK_clean_linker_0, # of connection points: 2
#     Edge 38, Type (0, 0), BuildingBlock: EZIPEK_clean_linker_0, # of connection points: 2
#     Edge 39, Type (0, 0), BuildingBlock: EZIPEK_clean_linker_0, # of connection points: 2
#     Edge 40, Type (0, 0), BuildingBlock: EZIPEK_clean_linker_0, # of connection points: 2
#     Edge 41, Type (0, 0), BuildingBlock: EZIPEK_clean_linker_0, # of connection points: 2
#     Edge 42, Type (0, 0), BuildingBlock: EZIPEK_clean_linker_0, # of connection points: 2
#     Edge 43, Type (0, 0), BuildingBlock: EZIPEK_clean_linker_0, # of connection points: 2
#     Edge 44, Type (0, 0), BuildingBlock: EZIPEK_clean_linker_0, # of connection points: 2
#     Edge 45, Type (0, 0), BuildingBlock: EZIPEK_clean_linker_0, # of connection points: 2
#     Edge 46, Type (0, 0), BuildingBlock: EZIPEK_clean_linker_0, # of connection points: 2
#     Edge 47, Type (0, 0), BuildingBlock: EZIPEK_clean_linker_0, # of connection points: 2
#     Edge 48, Type (0, 0), BuildingBlock: EZIPEK_clean_linker_0, # of connection points: 2
#     Edge 49, Type (0, 0), BuildingBlock: EZIPEK_clean_linker_0, # of connection points: 2
#     Edge 50, Type (0, 0), BuildingBlock: EZIPEK_clean_linker_0, # of connection points: 2
#     Edge 51, Type (0, 0), BuildingBlock: EZIPEK_clean_linker_0, # of connection points: 2
#     Edge 52, Type (0, 0), BuildingBlock: EZIPEK_clean_linker_0, # of connection points: 2
#     Edge 53, Type (0, 0), BuildingBlock: EZIPEK_clean_linker_0, # of connection points: 2
#     Edge 54, Type (0, 0), BuildingBlock: EZIPEK_clean_linker_0, # of connection points: 2
#     Edge 55, Type (0, 0), BuildingBlock: EZIPEK_clean_linker_0, # of connection points: 2
#     Edge 56, Type (0, 0), BuildingBlock: EZIPEK_clean_linker_0, # of connection points: 2
#     Edge 57, Type (0, 0), BuildingBlock: EZIPEK_clean_linker_0, # of connection points: 2
#     Edge 58, Type (0, 0), BuildingBlock: EZIPEK_clean_linker_0, # of connection points: 2
#     Edge 59, Type (0, 0), BuildingBlock: EZIPEK_clean_linker_0, # of connection points: 2
#     Edge 60, Type (0, 0), BuildingBlock: EZIPEK_clean_linker_0, # of connection points: 2
#     Edge 61, Type (0, 0), BuildingBlock: EZIPEK_clean_linker_0, # of connection points: 2
#     Edge 62, Type (0, 0), BuildingBlock: EZIPEK_clean_linker_0, # of connection points: 2
#     Edge 63, Type (0, 0), BuildingBlock: EZIPEK_clean_linker_0, # of connection points: 2
#     Edge 64, Type (0, 0), BuildingBlock: EZIPEK_clean_linker_0, # of connection points: 2
#     Edge 65, Type (0, 0), BuildingBlock: EZIPEK_clean_linker_0, # of connection points: 2
#     Edge 66, Type (0, 0), BuildingBlock: EZIPEK_clean_linker_0, # of connection points: 2
#     Edge 67, Type (0, 0), BuildingBlock: EZIPEK_clean_linker_0, # of connection points: 2
#     Edge 68, Type (0, 0), BuildingBlock: EZIPEK_clean_linker_0, # of connection points: 2
#     Edge 69, Type (0, 0), BuildingBlock: EZIPEK_clean_linker_0, # of connection points: 2
#     Edge 70, Type (0, 0), BuildingBlock: EZIPEK_clean_linker_0, # of connection points: 2
#     Edge 71, Type (0, 0), BuildingBlock: EZIPEK_clean_linker_0, # of connection points: 2
#     Edge 72, Type (0, 0), BuildingBlock: EZIPEK_clean_linker_0, # of connection points: 2
#     Edge 73, Type (0, 0), BuildingBlock: EZIPEK_clean_linker_0, # of connection points: 2
#     Edge 74, Type (0, 0), BuildingBlock: EZIPEK_clean_linker_0, # of connection points: 2
#     Edge 75, Type (0, 0), BuildingBlock: EZIPEK_clean_linker_0, # of connection points: 2
#     Edge 76, Type (0, 0), BuildingBlock: EZIPEK_clean_linker_0, # of connection points: 2
#     Edge 77, Type (0, 0), BuildingBlock: EZIPEK_clean_linker_0, # of connection points: 2
#     Edge 78, Type (0, 0), BuildingBlock: EZIPEK_clean_linker_0, # of connection points: 2
#     Edge 79, Type (0, 0), BuildingBlock: EZIPEK_clean_linker_0, # of connection points: 2
#     Edge 80, Type (0, 0), BuildingBlock: EZIPEK_clean_linker_0, # of connection points: 2
#     Edge 81, Type (0, 0), BuildingBlock: EZIPEK_clean_linker_0, # of connection points: 2
#     Edge 82, Type (0, 0), BuildingBlock: EZIPEK_clean_linker_0, # of connection points: 2
#     Edge 83, Type (0, 0), BuildingBlock: EZIPEK_clean_linker_0, # of connection points: 2
#     Edge 84, Type (0, 0), BuildingBlock: EZIPEK_clean_linker_0, # of connection points: 2
#     Edge 85, Type (0, 0), BuildingBlock: EZIPEK_clean_linker_0, # of connection points: 2
#     Edge 86, Type (0, 0), BuildingBlock: EZIPEK_clean_linker_0, # of connection points: 2
#     Edge 87, Type (0, 0), BuildingBlock: EZIPEK_clean_linker_0, # of connection points: 2
#     Edge 88, Type (0, 0), BuildingBlock: EZIPEK_clean_linker_0, # of connection points: 2
#     Edge 89, Type (0, 0), BuildingBlock: EZIPEK_clean_linker_0, # of connection points: 2
#     Edge 90, Type (0, 0), BuildingBlock: EZIPEK_clean_linker_0, # of connection points: 2
#     Edge 91, Type (0, 0), BuildingBlock: EZIPEK_clean_linker_0, # of connection points: 2
#     Edge 92, Type (0, 0), BuildingBlock: EZIPEK_clean_linker_0, # of connection points: 2
#     Edge 93, Type (0, 0), BuildingBlock: EZIPEK_clean_linker_0, # of connection points: 2
#     Edge 94, Type (0, 0), BuildingBlock: EZIPEK_clean_linker_0, # of connection points: 2
#     Edge 95, Type (0, 0), BuildingBlock: EZIPEK_clean_linker_0, # of connection points: 2
# Relax obj value: 0.105
# Max RMSD: 0.239
# Mean RMSD: 0.239
data_MOF--net-uoe--node1-NAWXER_clean_sbu_0--edge1-EZIPEK_clean_linker_0
_symmetry_space_group_name_H-M    P1
_symmetry_Int_Tables_number       1
_symmetry_cell_setting            triclinic
loop_
_symmetry_equiv_pos_as_xyz
'x, y, z'
_cell_length_a     53.60355
_cell_length_b     53.823527
_cell_length_c     21.03929
_cell_angle_alpha  90.036679
_cell_angle_beta   89.879293
_cell_angle_gamma 90.029596
loop_
_atom_site_label
_atom_site_type_symbol
_atom_site_fract_x
_atom_site_fract_y
_atom_site_fract_z
_atom_type_partial_charge
C0 C 0.1391 0.44481 0.0863 0.0
C1 C 0.05979 0.48621 0.05068 0.0
O2 O 0.14173 0.4684 0.08204 0.0
Zn3 Zn 0.11863 0.49972 0.05607 0.0
O4 O 0.11827 0.43561 0.07005 0.0
Zn5 Zn 0.09972 0.46591 0.05502 0.0
O6 O 0.10787 0.48012 0.96105 0.0
O7 O 0.13102 0.51323 0.97714 0.0
O8 O 0.06418 0.463 0.05165 0.0
O9 O 0.07793 0.50184 0.05056 0.0
O10 O 0.12345 0.51975 0.13021 0.0
O11 O 0.10339 0.48425 0.14661 0.0
C12 C 0.12006 0.49874 0.93881 0.0
C13 C 0.11298 0.50445 0.16785 0.0
C14 C 0.77388 0.79588 0.30009 0.0
C15 C 0.81917 0.87098 0.35021 0.0
O16 O 0.75902 0.81469 0.30085 0.0
Zn17 Zn 0.76347 0.85544 0.30807 0.0
O18 O 0.79728 0.79921 0.30279 0.0
Zn19 Zn 0.79609 0.8347 0.3092 0.0
O20 O 0.77546 0.83888 0.39889 0.0
O21 O 0.74208 0.86203 0.37913 0.0
O22 O 0.82762 0.85036 0.3306 0.0
O23 O 0.79594 0.87591 0.34289 0.0
O24 O 0.75223 0.8695 0.22839 0.0
O25 O 0.78501 0.84563 0.21423 0.0
C26 C 0.7558 0.85028 0.4181 0.0
C27 C 0.76752 0.85916 0.191 0.0
C28 C 0.40433 0.5311 0.69808 0.0
C29 C 0.39085 0.52418 0.44764 0.0
O30 O 0.40336 0.51718 0.65145 0.0
Zn31 Zn 0.41331 0.54724 0.57843 0.0
O32 O 0.40315 0.51473 0.65288 0.0
Zn33 Zn 0.39478 0.51818 0.55658 0.0
O34 O 0.43419 0.51309 0.53902 0.0
O35 O 0.44932 0.54772 0.57887 0.0
O36 O 0.38305 0.50554 0.47969 0.0
O37 O 0.40169 0.54257 0.47633 0.0
O38 O 0.39738 0.57645 0.61203 0.0
O39 O 0.3699 0.54939 0.57708 0.0
C40 C 0.45298 0.52624 0.55599 0.0
C41 C 0.37481 0.57001 0.60543 0.0
C42 C 0.75384 0.1599 0.90671 0.0
C43 C 0.739 0.14481 0.67946 0.0
O44 O 0.73224 0.16743 0.88839 0.0
Zn45 Zn 0.71022 0.16746 0.79955 0.0
O46 O 0.76758 0.14833 0.86713 0.0
Zn47 Zn 0.74506 0.15077 0.79702 0.0
O48 O 0.74556 0.19109 0.78932 0.0
O49 O 0.7062 0.20287 0.7874 0.0
O50 O 0.75668 0.13803 0.71531 0.0
O51 O 0.71987 0.15517 0.70485 0.0
O52 O 0.68112 0.14897 0.82798 0.0
O53 O 0.71587 0.12751 0.83798 0.0
C54 C 0.72923 0.2085 0.7874 0.0
C55 C 0.69245 0.13001 0.8493 0.0
C56 C 0.10802 0.51293 0.43944 0.0
C57 C 0.11596 0.52074 0.66745 0.0
O58 O 0.09491 0.53098 0.46117 0.0
Zn59 Zn 0.08906 0.54909 0.55283 0.0
O60 O 0.12124 0.49972 0.47651 0.0
Zn61 Zn 0.11324 0.51887 0.55017 0.0
O62 O 0.07335 0.5099 0.55768 0.0
O63 O 0.05358 0.54603 0.55878 0.0
O64 O 0.12873 0.50823 0.62819 0.0
O65 O 0.10045 0.53688 0.64626 0.0
O66 O 0.1022 0.58229 0.53517 0.0
O67 O 0.13042 0.55329 0.51927 0.0
C68 C 0.05292 0.52243 0.55935 0.0
C69 C 0.12357 0.57601 0.51472 0.0
C70 C 0.74681 0.85982 0.91956 0.0
C71 C 0.75034 0.85091 0.69017 0.0
O72 O 0.72734 0.8484 0.89919 0.0
Zn73 Zn 0.71244 0.83873 0.80633 0.0
O74 O 0.76254 0.86811 0.87998 0.0
Zn75 Zn 0.74736 0.85573 0.80282 0.0
O76 O 0.71646 0.88024 0.77929 0.0
O77 O 0.68263 0.85817 0.79192 0.0
O78 O 0.76676 0.86 0.72698 0.0
O79 O 0.73001 0.84192 0.713 0.0
O80 O 0.70791 0.80325 0.81274 0.0
O81 O 0.74744 0.81506 0.81025 0.0
C82 C 0.69263 0.87862 0.77589 0.0
C83 C 0.73093 0.79774 0.81306 0.0
C84 C 0.36875 0.4437 0.0369 0.0
C85 C 0.44872 0.48282 0.08184 0.0
O86 O 0.36697 0.46737 0.03932 0.0
Zn87 Zn 0.3904 0.49782 0.06761 0.0
O88 O 0.38875 0.43396 0.05726 0.0
Zn89 Zn 0.40824 0.46371 0.07412 0.0
O90 O 0.39818 0.47988 0.16522 0.0
O91 O 0.37639 0.51327 0.14084 0.0
O92 O 0.44367 0.45973 0.08232 0.0
O93 O 0.43109 0.49894 0.07865 0.0
O94 O 0.38774 0.51711 0.99356 0.0
O95 O 0.4082 0.48153 0.98152 0.0
C96 C 0.38573 0.49915 0.18235 0.0
C97 C 0.39951 0.50182 0.95864 0.0
C98 C 0.77983 0.19976 0.30417 0.0
C99 C 0.81814 0.11832 0.27054 0.0
O100 O 0.76339 0.18252 0.29861 0.0
Zn101 Zn 0.76335 0.14206 0.29002 0.0
O102 O 0.80284 0.19418 0.3073 0.0
Zn103 Zn 0.79847 0.15878 0.29945 0.0
O104 O 0.78305 0.15738 0.2043 0.0
O105 O 0.74601 0.13917 0.20971 0.0
O106 O 0.82809 0.13856 0.28838 0.0
O107 O 0.79424 0.11724 0.27003 0.0
O108 O 0.74651 0.13039 0.36688 0.0
O109 O 0.78146 0.14981 0.38993 0.0
C110 C 0.76313 0.14959 0.17717 0.0
C111 C 0.76144 0.13886 0.40825 0.0
C112 C 0.90679 0.50882 0.94903 0.0
C113 C 0.89611 0.51859 0.17814 0.0
O114 O 0.89551 0.49403 0.98672 0.0
Zn115 Zn 0.90064 0.51439 0.06014 0.0
O116 O 0.91697 0.5288 0.96987 0.0
Zn117 Zn 0.91993 0.54812 0.06125 0.0
O118 O 0.95581 0.54877 0.07054 0.0
O119 O 0.94061 0.51071 0.06557 0.0
O120 O 0.90731 0.5375 0.15442 0.0
O121 O 0.8881 0.50197 0.14074 0.0
O122 O 0.87927 0.54598 0.02574 0.0
O123 O 0.90317 0.5789 0.03861 0.0
C124 C 0.95936 0.52542 0.06876 0.0
C125 C 0.88338 0.56919 0.01643 0.0
C126 C 0.23924 0.14481 0.94021 0.0
C127 C 0.25194 0.15156 0.71343 0.0
O128 O 0.25415 0.13358 0.90354 0.0
Zn129 Zn 0.24383 0.14752 0.82331 0.0
O130 O 0.22247 0.15903 0.91627 0.0
Zn131 Zn 0.21211 0.1696 0.82041 0.0
O132 O 0.18008 0.15506 0.79864 0.0
O133 O 0.21078 0.12816 0.78912 0.0
O134 O 0.23264 0.16375 0.73148 0.0
O135 O 0.26501 0.13943 0.75311 0.0
O136 O 0.25019 0.18806 0.82722 0.0
O137 O 0.21268 0.20519 0.82351 0.0
C138 C 0.18785 0.13397 0.78047 0.0
C139 C 0.23622 0.2075 0.8256 0.0
C140 C 0.61344 0.48562 0.67834 0.0
C141 C 0.60394 0.49594 0.4513 0.0
O142 O 0.626 0.4987 0.63985 0.0
Zn143 Zn 0.61095 0.48826 0.56058 0.0
O144 O 0.59874 0.46894 0.65602 0.0
Zn145 Zn 0.58854 0.45676 0.56163 0.0
O146 O 0.60378 0.42473 0.5407 0.0
O147 O 0.6299 0.45554 0.52404 0.0
O148 O 0.59231 0.4767 0.47178 0.0
O149 O 0.61689 0.50928 0.48884 0.0
O150 O 0.57051 0.49461 0.56961 0.0
O151 O 0.55299 0.45728 0.56768 0.0
C152 C 0.62434 0.4325 0.51831 0.0
C153 C 0.55091 0.4808 0.56978 0.0
C154 C 0.26225 0.85818 0.19143 0.0
C155 C 0.26859 0.86683 0.42067 0.0
O156 O 0.24674 0.86785 0.22987 0.0
Zn157 Zn 0.26737 0.8637 0.30316 0.0
O158 O 0.28322 0.84976 0.2116 0.0
Zn159 Zn 0.30221 0.84717 0.30384 0.0
O160 O 0.30775 0.81197 0.30903 0.0
O161 O 0.26794 0.8228 0.30861 0.0
O162 O 0.28822 0.8561 0.3986 0.0
O163 O 0.25251 0.87502 0.38209 0.0
O164 O 0.29791 0.88892 0.27767 0.0
O165 O 0.33171 0.86672 0.28856 0.0
C166 C 0.2849 0.80588 0.30991 0.0
C167 C 0.32177 0.88728 0.2738 0.0
C168 C 0.90317 0.49985 0.67716 0.0
C169 C 0.89224 0.49577 0.44886 0.0
O170 O 0.89342 0.51592 0.6406 0.0
Zn171 Zn 0.8963 0.49612 0.56553 0.0
O172 O 0.91134 0.47921 0.6547 0.0
Zn173 Zn 0.91307 0.46128 0.56184 0.0
O174 O 0.94857 0.45641 0.55513 0.0
O175 O 0.93697 0.49588 0.55573 0.0
O176 O 0.9037 0.47632 0.46875 0.0
O177 O 0.88372 0.51119 0.48878 0.0
O178 O 0.87152 0.46589 0.59195 0.0
O179 O 0.89304 0.43193 0.57764 0.0
C180 C 0.95424 0.47933 0.55388 0.0
C181 C 0.87282 0.44214 0.59514 0.0
C182 C 0.2594 0.15271 0.44147 0.0
C183 C 0.2612 0.14211 0.211 0.0
O184 O 0.2425 0.14291 0.40699 0.0
Zn185 Zn 0.26101 0.14555 0.3285 0.0
O186 O 0.27929 0.16119 0.41581 0.0
Zn187 Zn 0.29542 0.16421 0.32239 0.0
O188 O 0.29677 0.2 0.31834 0.0
O189 O 0.25838 0.18527 0.3173 0.0
O190 O 0.28032 0.15413 0.23104 0.0
O191 O 0.24638 0.1324 0.251 0.0
O192 O 0.29278 0.12315 0.35638 0.0
O193 O 0.32616 0.14579 0.33653 0.0
C194 C 0.27334 0.20384 0.31698 0.0
C195 C 0.31646 0.12626 0.36001 0.0
C196 C 0.61181 0.50758 0.9505 0.0
C197 C 0.60176 0.50301 0.17962 0.0
O198 O 0.6221 0.49334 0.99046 0.0
Zn199 Zn 0.60824 0.50677 0.06826 0.0
O200 O 0.59906 0.52613 0.97099 0.0
Zn201 Zn 0.58945 0.54063 0.06371 0.0
O202 O 0.60784 0.57123 0.08047 0.0
O203 O 0.63045 0.5379 0.099 0.0
O204 O 0.59208 0.52288 0.15682 0.0
O205 O 0.61254 0.48734 0.14339 0.0
O206 O 0.56769 0.50442 0.06146 0.0
O207 O 0.55388 0.5432 0.05814 0.0
C208 C 0.62733 0.56141 0.10372 0.0
C209 C 0.54953 0.51998 0.05965 0.0
C210 C 0.22855 0.80459 0.79769 0.0
C211 C 0.19375 0.88434 0.85214 0.0
O212 O 0.20576 0.81101 0.79874 0.0
Zn213 Zn 0.21169 0.84606 0.80593 0.0
O214 O 0.24577 0.82125 0.79923 0.0
Zn215 Zn 0.24683 0.86194 0.80913 0.0
O216 O 0.26789 0.864 0.88227 0.0
O217 O 0.23093 0.84642 0.8984 0.0
O218 O 0.21749 0.88604 0.84593 0.0
O219 O 0.1825 0.86623 0.8262 0.0
O220 O 0.226 0.85549 0.71219 0.0
O221 O 0.26088 0.87555 0.73135 0.0
C222 C 0.25189 0.85439 0.91975 0.0
C223 C 0.2453 0.86717 0.69171 0.0
C224 C 0.55845 0.98756 0.55977 0.0
C225 C 0.63207 0.9372 0.60344 0.0
O226 O 0.57839 1.00072 0.56228 0.0
Zn227 Zn 0.618 0.99409 0.57377 0.0
O228 O 0.56012 0.96399 0.56079 0.0
Zn229 Zn 0.59602 0.96185 0.56699 0.0
O230 O 0.60081 0.97704 0.66119 0.0
O231 O 0.62345 0.01131 0.65274 0.0
O232 O 0.61143 0.9294 0.58129 0.0
O233 O 0.63736 0.96036 0.59931 0.0
O234 O 0.63327 0.00748 0.49757 0.0
O235 O 0.60832 0.97606 0.47599 0.0
C236 C 0.61197 0.99547 0.68705 0.0
C237 C 0.62257 0.99375 0.45695 0.0
C238 C 0.27906 0.30563 0.79819 0.0
C239 C 0.31916 0.38347 0.84733 0.0
O240 O 0.26333 0.32366 0.7969 0.0
Zn241 Zn 0.26541 0.36432 0.80157 0.0
O242 O 0.3023 0.31012 0.80025 0.0
Zn243 Zn 0.29948 0.34576 0.80383 0.0
O244 O 0.27877 0.3491 0.89331 0.0
O245 O 0.24373 0.36963 0.87261 0.0
O246 O 0.32965 0.36396 0.82636 0.0
O247 O 0.29585 0.38674 0.83704 0.0
O248 O 0.25373 0.3774 0.72155 0.0
O249 O 0.28794 0.35543 0.70844 0.0
C250 C 0.25824 0.35897 0.91187 0.0
C251 C 0.26975 0.36786 0.68474 0.0
C252 C 0.89331 0.00728 0.94156 0.0
C253 C 0.90143 1.00102 0.17083 0.0
O254 O 0.90619 0.02553 0.96317 0.0
Zn255 Zn 0.91619 0.03882 0.05662 0.0
O256 O 0.88324 0.99233 0.98025 0.0
Zn257 Zn 0.89648 0.00535 0.05922 0.0
O258 O 0.87483 0.03736 0.08944 0.0
O259 O 0.89882 0.06996 0.07388 0.0
O260 O 0.89048 0.98573 0.13405 0.0
O261 O 0.91179 0.0207 0.14876 0.0
O262 O 0.95217 0.04009 0.053 0.0
O263 O 0.93725 1.00177 0.05465 0.0
C264 C 0.87879 0.06071 0.09599 0.0
C265 C 0.95592 0.0168 0.05378 0.0
C266 C 0.24441 0.64309 0.20873 0.0
C267 C 0.2504 0.65636 0.43756 0.0
O268 O 0.228 0.65871 0.2282 0.0
Zn269 Zn 0.21503 0.67183 0.31945 0.0
O270 O 0.25723 0.63119 0.24904 0.0
Zn271 Zn 0.24538 0.64747 0.32582 0.0
O272 O 0.21045 0.63092 0.35499 0.0
O273 O 0.18162 0.65915 0.33664 0.0
O274 O 0.26332 0.64173 0.40317 0.0
O275 O 0.232 0.66767 0.41192 0.0
O276 O 0.21912 0.70723 0.31076 0.0
O277 O 0.25482 0.68667 0.31379 0.0
C278 C 0.18765 0.63795 0.35806 0.0
C279 C 0.24285 0.70729 0.31051 0.0
C280 C 0.56537 0.0178 0.06658 0.0
C281 C 0.64128 0.06635 0.03009 0.0
O282 O 0.58509 0.00431 0.06797 0.0
Zn283 Zn 0.62515 0.01038 0.06849 0.0
O284 O 0.56755 0.04134 0.06573 0.0
Zn285 Zn 0.60361 0.04275 0.06288 0.0
O286 O 0.61016 0.02261 0.97502 0.0
O287 O 0.6334 0.9896 -0.00277 0.0
O288 O 0.61931 0.0741 0.04125 0.0
O289 O 0.64597 0.04334 0.04051 0.0
O290 O 0.63592 0.99933 0.15159 0.0
O291 O 0.61358 0.03341 0.15907 0.0
C292 C 0.62181 1.003 0.95715 0.0
C293 C 0.6254 0.01558 0.186 0.0
C294 C 0.25131 0.35687 0.1839 0.0
C295 C 0.24812 0.3684 0.41384 0.0
O296 O 0.23153 0.34798 0.20918 0.0
Zn297 Zn 0.21496 0.345 0.30197 0.0
O298 O 0.26783 0.36718 0.2186 0.0
Zn299 Zn 0.24907 0.36431 0.29668 0.0
O300 O 0.25241 0.3247 0.30893 0.0
O301 O 0.21432 0.30923 0.30713 0.0
O302 O 0.26302 0.37812 0.37407 0.0
O303 O 0.22934 0.35589 0.39358 0.0
O304 O 0.18395 0.36276 0.28554 0.0
O305 O 0.21707 0.38606 0.26789 0.0
C306 C 0.2378 0.30585 0.30926 0.0
C307 C 0.1935 0.3825 0.2629 0.0
C308 C 0.89301 0.98529 0.6703 0.0
C309 C 0.90606 0.99484 0.44192 0.0
O310 O 0.90654 0.96763 0.64792 0.0
Zn311 Zn 0.91787 0.95559 0.55429 0.0
O312 O 0.88223 0.99997 0.63211 0.0
Zn313 Zn 0.89664 0.98816 0.55287 0.0
O314 O 0.87656 0.95582 0.51879 0.0
O315 O 0.90203 0.92421 0.53292 0.0
O316 O 0.89268 0.00834 0.47816 0.0
O317 O 0.91544 0.9749 0.46464 0.0
O318 O 0.95357 0.9559 0.5607 0.0
O319 O 0.93672 0.99335 0.56475 0.0
C320 C 0.88146 0.93264 0.51246 0.0
C321 C 0.95612 0.97937 0.56409 0.0
C322 C 0.31565 0.63114 0.77524 0.0
C323 C 0.26656 0.70457 0.82199 0.0
O324 O 0.29283 0.62544 0.78679 0.0
Zn325 Zn 0.25969 0.64511 0.81944 0.0
O326 O 0.3239 0.65227 0.79223 0.0
Zn327 Zn 0.29225 0.6669 0.81651 0.0
O328 O 0.28329 0.65498 0.911 0.0
O329 O 0.24895 0.63302 0.90194 0.0
O330 O 0.2902 0.7027 0.82157 0.0
O331 O 0.25312 0.68486 0.82207 0.0
O332 O 0.23927 0.63746 0.74651 0.0
O333 O 0.27253 0.66116 0.72818 0.0
C334 C 0.26542 0.64282 0.9371 0.0
C335 C 0.25325 0.6495 0.70831 0.0
C336 C 0.37569 0.0644 0.52645 0.0
C337 C 0.45705 0.02495 0.55495 0.0
O338 O 0.39637 0.07398 0.54268 0.0
Zn339 Zn 0.41616 0.04419 0.55181 0.0
O340 O 0.37425 0.04062 0.52522 0.0
Zn341 Zn 0.39887 0.00941 0.54229 0.0
O342 O 0.38718 0.99261 0.61887 0.0
O343 O 0.40692 0.02733 0.64189 0.0
O344 O 0.4395 0.00883 0.54952 0.0
O345 O 0.45175 0.04793 0.55879 0.0
O346 O 0.41386 0.02925 0.45649 0.0
O347 O 0.39517 0.99255 0.4616 0.0
C348 C 0.39573 0.0075 0.66015 0.0
C349 C 0.40557 0.00964 0.42915 0.0
C350 C 0.74274 0.63691 0.42652 0.0
C351 C 0.74721 0.64161 0.19588 0.0
O352 O 0.75895 0.62815 0.3888 0.0
Zn353 Zn 0.74464 0.63919 0.30999 0.0
O354 O 0.7234 0.64789 0.40392 0.0
Zn355 Zn 0.71002 0.65725 0.30971 0.0
O356 O 0.68009 0.63823 0.29091 0.0
O357 O 0.71366 0.61497 0.2872 0.0
O358 O 0.72783 0.65221 0.21875 0.0
O359 O 0.76363 0.63351 0.23421 0.0
O360 O 0.74642 0.67931 0.31247 0.0
O361 O 0.70757 0.69312 0.3114 0.0
C362 C 0.69033 0.61767 0.27637 0.0
C363 C 0.73088 0.69743 0.31188 0.0
C364 C 0.13904 0.94252 0.03765 0.0
C365 C 0.05754 0.98046 0.07292 0.0
O366 O 0.11833 0.93275 0.05291 0.0
Zn367 Zn 0.09883 0.96229 0.0693 0.0
O368 O 0.14091 0.96621 0.04255 0.0
Zn369 Zn 0.11614 0.99667 0.06956 0.0
O370 O 0.12789 0.01071 0.14843 0.0
O371 O 0.10731 0.97591 0.16437 0.0
O372 O 0.0749 0.99701 0.07304 0.0
O373 O 0.06323 0.95758 0.07234 0.0
O374 O 0.10253 0.98141 0.97792 0.0
O375 O 0.12138 0.01737 -0.00265 0.0
C376 C 0.11883 0.99496 0.18658 0.0
C377 C 0.11181 1.00205 0.95843 0.0
C378 C 0.7667 0.36873 0.93968 0.0
C379 C 0.75385 0.36273 0.71108 0.0
O380 O 0.75071 0.37933 0.90473 0.0
Zn381 Zn 0.76138 0.36761 0.82156 0.0
O382 O 0.78454 0.35666 0.91328 0.0
Zn383 Zn 0.79401 0.34628 0.81795 0.0
O384 O 0.82545 0.36195 0.79448 0.0
O385 O 0.7937 0.3877 0.7863 0.0
O386 O 0.77356 0.35141 0.72956 0.0
O387 O 0.74026 0.37476 0.75027 0.0
O388 O 0.75537 0.32774 0.82273 0.0
O389 O 0.79266 0.31041 0.82201 0.0
C390 C 0.81667 0.38255 0.77522 0.0
C391 C 0.76901 0.30817 0.82201 0.0
C392 C 0.41548 1.00267 0.15846 0.0
C393 C 0.40107 0.98697 0.93159 0.0
O394 O 0.40413 0.01637 0.11859 0.0
Zn395 Zn 0.40681 0.99374 0.04868 0.0
O396 O 0.42317 0.98116 0.14033 0.0
Zn397 Zn 0.42362 0.95897 0.0523 0.0
O398 O 0.45929 0.95511 0.0404 0.0
O399 O 0.4473 0.99426 0.04098 0.0
O400 O 0.41135 0.96805 0.9577 0.0
O401 O 0.39431 0.0049 0.96665 0.0
O402 O 0.38317 0.96481 0.08918 0.0
O403 O 0.40482 0.93019 0.08087 0.0
C404 C 0.46485 0.97807 0.03931 0.0
C405 C 0.38554 0.94152 0.10084 0.0
C406 C 0.76411 0.64547 0.92552 0.0
C407 C 0.76592 0.63813 0.69615 0.0
O408 O 0.7488 0.63415 0.88956 0.0
Zn409 Zn 0.76614 0.64084 0.81261 0.0
O410 O 0.78294 0.65688 0.90187 0.0
Zn411 Zn 0.7991 0.66177 0.80832 0.0
O412 O 0.79874 0.69768 0.80429 0.0
O413 O 0.76108 0.6808 0.80787 0.0
O414 O 0.78431 0.65132 0.71609 0.0
O415 O 0.75158 0.62773 0.73591 0.0
O416 O 0.79914 0.61967 0.83243 0.0
O417 O 0.83085 0.64467 0.82092 0.0
C418 C 0.77514 0.70009 0.80583 0.0
C419 C 0.82271 0.6232 0.83529 0.0
C420 C 0.10953 0.00972 0.68666 0.0
C421 C 0.11884 0.0179 0.45738 0.0
O422 O 0.12201 0.99545 0.65017 0.0
Zn423 Zn 0.11614 0.01517 0.57486 0.0
O424 O 0.098 0.02845 0.66383 0.0
Zn425 Zn 0.09294 0.04655 0.574 0.0
O426 O 0.05738 0.04375 0.5708 0.0
O427 O 0.0766 0.00768 0.56297 0.0
O428 O 0.10453 0.0349 0.47999 0.0
O429 O 0.13071 0.00399 0.49543 0.0
O430 O 0.13439 0.04914 0.60688 0.0
O431 O 0.1068 0.07903 0.59359 0.0
C432 C 0.0563 0.02025 0.56496 0.0
C433 C 0.128 0.07197 0.61336 0.0
C434 C 0.68748 0.37098 0.35703 0.0
C435 C 0.74132 0.30018 0.31254 0.0
O436 O 0.68099 0.34972 0.3366 0.0
Zn437 Zn 0.7142 0.33644 0.3214 0.0
O438 O 0.71043 0.37757 0.35355 0.0
Zn439 Zn 0.7454 0.35979 0.32741 0.0
O440 O 0.75795 0.37567 0.25118 0.0
O441 O 0.72746 0.3495 0.23003 0.0
O442 O 0.75381 0.32053 0.31503 0.0
O443 O 0.71764 0.30095 0.31447 0.0
O444 O 0.72964 0.34203 0.41491 0.0
O445 O 0.76299 0.36596 0.40544 0.0
C446 C 0.74449 0.36453 0.21075 0.0
C447 C 0.74771 0.35396 0.44027 0.0
C448 C 1.00029 0.52153 0.01093 0.0
C449 C 0.98499 0.51508 0.06386 0.0
C450 C 0.01881 0.48962 0.10775 0.0
C451 C 0.03377 0.49539 0.05395 0.0
N452 N 0.0378 0.51312 0.94939 0.0
N453 N 0.97784 0.48925 0.15613 0.0
C454 C 0.02431 0.51047 0.0043 0.0
C455 C 0.99366 0.49792 0.11014 0.0
N456 N 0.99169 0.53786 0.96625 0.0
N457 N 0.029 0.47723 0.15822 0.0
H458 H 0.95962 0.49549 0.16181 0.0
H459 H 0.98208 0.4744 0.1859 0.0
H460 H 0.04731 0.47076 0.15887 0.0
H461 H 0.02012 0.47527 0.20198 0.0
H462 H 1.00294 0.54597 0.93165 0.0
H463 H 0.97333 0.54417 0.96471 0.0
H464 H 0.03106 0.52161 0.90849 0.0
H465 H 0.05526 0.50497 0.94254 0.0
C466 C 0.76236 0.75565 0.24633 0.0
C467 C 0.7637 0.77027 0.30232 0.0
C468 C 0.74131 0.73824 0.36235 0.0
C469 C 0.74052 0.72316 0.30725 0.0
N470 N 0.75133 0.71617 0.19735 0.0
N471 N 0.76213 0.77195 0.41654 0.0
C472 C 0.75138 0.73151 0.24925 0.0
C473 C 0.75526 0.76062 0.36118 0.0
N474 N 0.77179 0.76486 0.19072 0.0
N475 N 0.72844 0.73139 0.41567 0.0
H476 H 0.77303 0.788 0.41766 0.0
H477 H 0.75923 0.76402 0.46113 0.0
H478 H 0.71797 0.71508 0.41835 0.0
H479 H 0.72637 0.74293 0.45511 0.0
H480 H 0.7692 0.7567 0.14642 0.0
H481 H 0.78205 0.7813 0.18874 0.0
H482 H 0.76099 0.71972 0.15542 0.0
H483 H 0.74202 0.69917 0.19662 0.0
C484 C 0.48894 0.50372 0.50388 0.0
C485 C 0.47828 0.51489 0.55869 0.0
C486 C 0.51618 0.50524 0.61959 0.0
C487 C 0.52591 0.49239 0.5663 0.0
N488 N 0.5205 0.47645 0.4598 0.0
N489 N 0.47922 0.52041 0.67289 0.0
C490 C 0.51192 0.49066 0.50914 0.0
C491 C 0.49126 0.51421 0.61771 0.0
N492 N 0.47763 0.50647 0.4462 0.0
N493 N 0.53062 0.5087 0.67237 0.0
H494 H 0.4605 0.52558 0.67476 0.0
H495 H 0.4869 0.5178 0.71782 0.0
H496 H 0.54845 0.50118 0.67718 0.0
H497 H 0.52561 0.5205 0.70952 0.0
H498 H 0.48585 0.50144 0.4032 0.0
H499 H 0.46075 0.51571 0.44073 0.0
H500 H 0.50977 0.47194 0.42024 0.0
H501 H 0.53794 0.46789 0.45965 0.0
C502 C 0.75593 0.24438 0.75034 0.0
C503 C 0.73743 0.23495 0.79256 0.0
C504 C 0.73787 0.27461 0.85163 0.0
C505 C 0.7573 0.28338 0.81137 0.0
N506 N 0.77838 0.28015 0.71023 0.0
N507 N 0.71301 0.23998 0.88877 0.0
C508 C 0.76466 0.26919 0.75752 0.0
C509 C 0.72864 0.24994 0.84392 0.0
N510 N 0.76567 0.22946 0.70391 0.0
N511 N 0.72771 0.29 0.89649 0.0
H512 H 0.70572 0.2221 0.88663 0.0
H513 H 0.70888 0.2485 0.93193 0.0
H514 H 0.73453 0.30761 0.90672 0.0
H515 H 0.71116 0.28624 0.92058 0.0
H516 H 0.7817 0.23383 0.67819 0.0
H517 H 0.75876 0.2119 0.69339 0.0
H518 H 0.78175 0.27193 0.66624 0.0
H519 H 0.78409 0.29865 0.7115 0.0
C520 C 0.01348 0.51187 0.50119 0.0
C521 C 0.02852 0.50942 0.55646 0.0
C522 C 0.99573 0.48463 0.60804 0.0
C523 C 0.98074 0.48725 0.55279 0.0
N524 N 0.97757 0.49721 0.44182 0.0
N525 N 0.03611 0.49046 0.65844 0.0
C526 C 0.99027 0.49914 0.49791 0.0
C527 C 0.02037 0.49467 0.60848 0.0
N528 N 0.02129 0.52652 0.45189 0.0
N529 N 0.986 0.47346 0.66096 0.0
H530 H 0.05363 0.49873 0.66236 0.0
H531 H 0.03256 0.47768 0.69443 0.0
H532 H 0.96832 0.46537 0.66197 0.0
H533 H 0.99466 0.47339 0.70515 0.0
H534 H 0.00989 0.5316 0.41408 0.0
H535 H 0.03889 0.53473 0.44998 0.0
H536 H 0.98453 0.50327 0.3983 0.0
H537 H 0.96091 0.48729 0.43772 0.0
C538 C 0.75811 0.73774 0.75162 0.0
C539 C 0.76356 0.72504 0.80878 0.0
C540 C 0.74417 0.75882 0.87038 0.0
C541 C 0.73893 0.77134 0.81271 0.0
N542 N 0.73157 0.76795 0.70047 0.0
N543 N 0.75913 0.72129 0.92249 0.0
C544 C 0.74313 0.75941 0.75383 0.0
C545 C 0.7557 0.73491 0.86833 0.0
N546 N 0.76783 0.7296 0.69529 0.0
N547 N 0.73779 0.76976 0.9267 0.0
H548 H 0.7685 0.70432 0.92285 0.0
H549 H 0.75195 0.72608 0.96678 0.0
H550 H 0.7274 0.78613 0.92879 0.0
H551 H 0.74288 0.76304 0.97114 0.0
H552 H 0.76631 0.7396 0.65306 0.0
H553 H 0.77932 0.71401 0.69197 0.0
H554 H 0.7316 0.75821 0.65762 0.0
H555 H 0.71984 0.78342 0.70098 0.0
C556 C 0.51304 0.49702 0.0139 0.0
C557 C 0.52359 0.51076 0.06473 0.0
C558 C 0.4862 0.50323 0.1297 0.0
C559 C 0.47491 0.49128 0.07716 0.0
N560 N 0.47575 0.47964 0.96635 0.0
N561 N 0.51957 0.52946 0.16877 0.0
C562 C 0.48787 0.48882 0.01849 0.0
C563 C 0.50992 0.51471 0.12191 0.0
N564 N 0.52711 0.49175 0.96127 0.0
N565 N 0.47464 0.50267 0.1877 0.0
H566 H 0.53746 0.53702 0.16698 0.0
H567 H 0.50937 0.53544 0.20805 0.0
H568 H 0.45743 0.49405 0.19498 0.0
H569 H 0.4829 0.50875 0.22965 0.0
H570 H 0.52163 0.47926 0.92616 0.0
H571 H 0.54506 0.49874 0.95427 0.0
H572 H 0.48306 0.48024 0.92049 0.0
H573 H 0.45751 0.47295 0.96786 0.0
C574 C 0.74883 0.26025 0.25324 0.0
C575 C 0.75425 0.27579 0.30607 0.0
C576 C 0.77665 0.24147 0.35746 0.0
C577 C 0.77189 0.22619 0.304 0.0
N578 N 0.75911 0.22281 0.19456 0.0
N579 N 0.77988 0.28324 0.39879 0.0
C580 C 0.75954 0.23607 0.24999 0.0
C581 C 0.77029 0.26711 0.35506 0.0
N582 N 0.73364 0.26866 0.20578 0.0
N583 N 0.78612 0.2313 0.41183 0.0
H584 H 0.77645 0.30224 0.39812 0.0
H585 H 0.79348 0.27821 0.43166 0.0
H586 H 0.79075 0.21255 0.41584 0.0
H587 H 0.7872 0.24092 0.45472 0.0
H588 H 0.72631 0.25722 0.17052 0.0
H589 H 0.7275 0.28701 0.20295 0.0
H590 H 0.75264 0.22989 0.15162 0.0
H591 H 0.7675 0.20544 0.18988 0.0
C592 C 0.26431 0.27055 0.86684 0.0
C593 C 0.26984 0.2798 0.80518 0.0
C594 C 0.25339 0.24166 0.7572 0.0
C595 C 0.24754 0.23252 0.81888 0.0
N596 N 0.24236 0.24003 0.93088 0.0
N597 N 0.27495 0.27255 0.69318 0.0
C598 C 0.25173 0.2474 0.87342 0.0
C599 C 0.26583 0.26491 0.75068 0.0
N600 N 0.27212 0.28345 0.91918 0.0
N601 N 0.24569 0.22877 0.70477 0.0
H602 H 0.28465 0.28921 0.68747 0.0
H603 H 0.27498 0.26158 0.65245 0.0
H604 H 0.23629 0.21185 0.7076 0.0
H605 H 0.24679 0.23559 0.65858 0.0
H606 H 0.27117 0.27656 0.96533 0.0
H607 H 0.28154 0.30035 0.91618 0.0
H608 H 0.24241 0.25112 0.97143 0.0
H609 H 0.23235 0.22358 0.93675 0.0
C610 C 0.27865 0.76472 0.36452 0.0
C611 C 0.27774 0.77927 0.30852 0.0
C612 C 0.25654 0.74559 0.25188 0.0
C613 C 0.25669 0.73118 0.30825 0.0
N614 N 0.27399 0.72408 0.41269 0.0
N615 N 0.2754 0.77978 0.19452 0.0
C616 C 0.26971 0.7398 0.36293 0.0
C617 C 0.26948 0.76862 0.25078 0.0
N618 N 0.28781 0.77484 0.4193 0.0
N619 N 0.24394 0.73745 0.19946 0.0
H620 H 0.28553 0.79633 0.19222 0.0
H621 H 0.27253 0.77139 0.15049 0.0
H622 H 0.23525 0.72013 0.19721 0.0
H623 H 0.24092 0.74852 0.15958 0.0
H624 H 0.28603 0.76655 0.46377 0.0
H625 H 0.29638 0.79223 0.42065 0.0
H626 H 0.28529 0.72845 0.45126 0.0
H627 H 0.26811 0.70567 0.413 0.0
C628 C 0.245 0.23812 0.35801 0.0
C629 C 0.26345 0.22969 0.31399 0.0
C630 C 0.26674 0.27182 0.2696 0.0
C631 C 0.24814 0.28019 0.3132 0.0
N632 N 0.22513 0.27312 0.40997 0.0
N633 N 0.28647 0.23687 0.21723 0.0
C634 C 0.23863 0.26377 0.36007 0.0
C635 C 0.27302 0.24616 0.26728 0.0
N636 N 0.23282 0.2217 0.39677 0.0
N637 N 0.27917 0.28829 0.2315 0.0
H638 H 0.29058 0.21806 0.21182 0.0
H639 H 0.29117 0.24721 0.17714 0.0
H640 H 0.27521 0.30713 0.22888 0.0
H641 H 0.29517 0.28371 0.20593 0.0
H642 H 0.21687 0.22624 0.42259 0.0
H643 H 0.23702 0.20293 0.39998 0.0
H644 H 0.22041 0.26287 0.45017 0.0
H645 H 0.221 0.29195 0.41507 0.0
C646 C 0.25812 0.74257 0.7561 0.0
C647 C 0.25454 0.72925 0.81382 0.0
C648 C 0.23148 0.76455 0.85864 0.0
C649 C 0.23535 0.77791 0.80126 0.0
N650 N 0.24494 0.77706 0.68982 0.0
N651 N 0.23163 0.72468 0.91205 0.0
C652 C 0.24661 0.76619 0.74831 0.0
C653 C 0.23922 0.73931 0.8626 0.0
N654 N 0.27225 0.73255 0.70837 0.0
N655 N 0.22111 0.7762 0.91009 0.0
H656 H 0.2365 0.70605 0.91608 0.0
H657 H 0.21848 0.7302 0.94569 0.0
H658 H 0.21456 0.79443 0.90883 0.0
H659 H 0.22061 0.76847 0.95543 0.0
H660 H 0.27809 0.74256 0.6687 0.0
H661 H 0.27912 0.71443 0.70947 0.0
H662 H 0.25072 0.76857 0.64783 0.0
H663 H 0.2352 0.79359 0.68256 0.0
C664 C 0.49893 0.02149 0.60748 0.0
C665 C 0.4835 0.01676 0.55432 0.0
C666 C 0.51773 0.99409 0.50245 0.0
C667 C 0.53351 0.99969 0.55476 0.0
N668 N 0.54094 0.02563 0.64705 0.0
N669 N 0.47995 0.0042 0.44475 0.0
C670 C 0.52474 0.0156 0.6041 0.0
C671 C 0.49336 0.00457 0.49993 0.0
N672 N 0.48878 0.03062 0.66241 0.0
N673 N 0.52615 0.97906 0.45459 0.0
H674 H 0.46247 0.0125 0.4406 0.0
H675 H 0.48705 0.9979 0.40156 0.0
H676 H 0.54462 0.97314 0.45105 0.0
H677 H 0.51457 0.97165 0.41969 0.0
H678 H 0.49861 0.03168 0.70502 0.0
H679 H 0.46989 0.03488 0.66718 0.0
H680 H 0.53573 0.03914 0.67998 0.0
H681 H 0.5601 0.02274 0.64562 0.0
C682 C 0.99682 0.00481 0.00369 0.0
C683 C 0.98178 0.00697 0.0589 0.0
C684 C 0.01625 0.99072 0.12418 0.0
C685 C 0.03092 0.98803 0.06844 0.0
N686 N 0.03266 0.9853 0.95432 0.0
N687 N 0.9758 0.99993 0.17113 0.0
C688 C 0.02048 0.993 0.00791 0.0
C689 C 0.9911 0.99924 0.11906 0.0
N690 N 0.98882 0.01463 0.94743 0.0
N691 N 0.02648 0.98519 0.18191 0.0
H692 H 0.95787 0.00736 0.16991 0.0
H693 H 0.98023 0.99222 0.21499 0.0
H694 H 0.04399 0.97694 0.18645 0.0
H695 H 0.01818 0.98934 0.22536 0.0
H696 H 1.00008 0.01593 0.90716 0.0
H697 H 0.97161 0.02346 0.94251 0.0
H698 H 0.02472 0.98581 0.90919 0.0
H699 H 0.04988 0.97628 0.95561 0.0
C700 C 0.52566 0.01308 0.00455 0.0
C701 C 0.54039 0.00602 0.05764 0.0
C702 C 0.50685 0.97802 0.09377 0.0
C703 C 0.49144 0.98638 0.04287 0.0
N704 N 0.48531 0.01391 0.95347 0.0
N705 N 0.5475 0.97728 0.14396 0.0
C706 C 0.50064 0.00444 -0.0007 0.0
C707 C 0.53177 0.98709 0.09944 0.0
N708 N 0.53628 0.02646 0.95618 0.0
N709 N 0.49709 0.96301 0.14012 0.0
H710 H 0.5653 0.98405 0.15287 0.0
H711 H 0.54379 0.96106 0.16915 0.0
H712 H 0.47903 0.95594 0.13947 0.0
H713 H 0.50596 0.95924 0.18297 0.0
H714 H 0.52767 0.0296 0.91263 0.0
H715 H 0.55488 0.0321 0.95614 0.0
H716 H 0.48955 0.02965 0.92681 0.0
H717 H 0.46753 0.00709 0.94438 0.0
C718 C 0.02488 0.98788 0.60101 0.0
C719 C 0.03154 0.00777 0.55958 0.0
C720 C 0.98866 0.00836 0.51794 0.0
C721 C 0.98154 0.99051 0.56463 0.0
N722 N 0.9917 0.9677 0.65956 0.0
N723 N 0.02019 0.03621 0.47588 0.0
C724 C 0.99935 0.98145 0.60843 0.0
C725 C 0.01348 0.01781 0.51742 0.0
N726 N 0.04268 0.97455 0.63249 0.0
N727 N 0.97214 0.01554 0.47208 0.0
H728 H 0.03871 0.04085 0.46634 0.0
H729 H 0.00747 0.0473 0.45167 0.0
H730 H 0.95346 0.01054 0.47203 0.0
H731 H 0.97709 0.02541 0.43147 0.0
H732 H 0.03873 0.9582 0.65704 0.0
H733 H 0.0617 0.97796 0.62959 0.0
H734 H 1.0034 0.96313 0.69729 0.0
H735 H 0.97307 0.96319 0.66803 0.0
C736 C 0.12279 0.48519 0.82387 0.0
C737 C 0.11972 0.50445 0.86928 0.0
C738 C 0.11808 0.53482 0.78213 0.0
C739 C 0.11758 0.51524 0.73696 0.0
N740 N 0.11215 0.47111 0.71846 0.0
N741 N 0.1071 0.54702 0.88896 0.0
C742 C 0.11792 0.49019 0.75872 0.0
C743 C 0.11535 0.52916 0.8478 0.0
N744 N 0.13109 0.4623 0.84219 0.0
N745 N 0.12193 0.55876 0.76301 0.0
H746 H 0.10278 0.54345 0.93639 0.0
H747 H 0.10158 0.56464 0.87398 0.0
H748 H 0.12521 0.56363 0.71576 0.0
H749 H 0.12466 0.57331 0.79499 0.0
H750 H 0.1357 0.4484 0.8097 0.0
H751 H 0.13606 0.45815 0.88887 0.0
H752 H 0.11002 0.45283 0.73395 0.0
H753 H 0.1064 0.47382 0.67169 0.0
C754 C 0.75381 0.88311 0.02283 0.0
C755 C 0.75268 0.86036 0.98871 0.0
C756 C 0.75919 0.8374 0.08754 0.0
C757 C 0.76298 0.85995 0.12105 0.0
N758 N 0.7675 0.90451 0.1185 0.0
N759 N 0.7623 0.81662 0.98641 0.0
C760 C 0.76127 0.88295 0.0881 0.0
C761 C 0.75773 0.83774 0.0204 0.0
N762 N 0.74718 0.90473 0.99342 0.0
N763 N 0.75531 0.81573 0.11972 0.0
H764 H 0.76242 0.81625 0.93685 0.0
H765 H 0.76874 0.80033 0.00754 0.0
H766 H 0.75431 0.8149 0.16914 0.0
H767 H 0.75006 0.7993 0.09709 0.0
H768 H 0.74513 0.92156 0.01731 0.0
H769 H 0.74184 0.90544 0.94579 0.0
H770 H 0.76898 0.92157 0.09552 0.0
H771 H 0.77331 0.90496 0.16578 0.0
C772 C 0.40609 0.52285 0.26985 0.0
C773 C 0.38609 0.50767 0.24901 0.0
C774 C 0.36574 0.51271 0.3522 0.0
C775 C 0.38796 0.52337 0.37713 0.0
N776 N 0.43013 0.53838 0.35786 0.0
N777 N 0.3469 0.48739 0.2698 0.0
C778 C 0.40826 0.52878 0.33541 0.0
C779 C 0.36583 0.50246 0.28995 0.0
N780 N 0.42274 0.5322 0.22669 0.0
N781 N 0.34432 0.51322 0.38751 0.0
H782 H 0.3462 0.48002 0.22394 0.0
H783 H 0.33295 0.48075 0.29985 0.0
H784 H 0.34336 0.52194 0.43179 0.0
H785 H 0.32703 0.50763 0.37012 0.0
H786 H 0.43591 0.54576 0.23782 0.0
H787 H 0.42204 0.52813 0.17829 0.0
H788 H 0.44655 0.53864 0.33128 0.0
H789 H 0.43266 0.54504 0.40364 0.0
C790 C 0.73875 0.16366 0.56838 0.0
C791 C 0.74167 0.14247 0.60846 0.0
C792 C 0.75781 0.11867 0.51665 0.0
C793 C 0.75398 0.13953 0.4767 0.0
N794 N 0.73592 0.18005 0.46121 0.0
N795 N 0.74848 0.09833 0.61701 0.0
C796 C 0.74293 0.16143 0.50164 0.0
C797 C 0.74966 0.11953 0.58141 0.0
N798 N 0.73334 0.18638 0.59397 0.0
N799 N 0.76979 0.09824 0.49309 0.0
H800 H 0.74172 0.09811 0.66355 0.0
H801 H 0.75175 0.08066 0.59868 0.0
H802 H 0.7754 0.09681 0.44569 0.0
H803 H 0.77574 0.0835 0.52127 0.0
H804 H 0.73468 0.20294 0.56861 0.0
H805 H 0.72926 0.18925 0.64166 0.0
H806 H 0.72507 0.19515 0.47515 0.0
H807 H 0.73903 0.1794 0.4123 0.0
C808 C 0.87211 0.50482 0.27598 0.0
C809 C 0.89429 0.51492 0.24881 0.0
C810 C 0.91292 0.51616 0.35565 0.0
C811 C 0.89251 0.50245 0.38024 0.0
N812 N 0.85335 0.4817 0.36306 0.0
N813 N 0.93797 0.52575 0.26382 0.0
C814 C 0.8723 0.49614 0.34011 0.0
C815 C 0.91525 0.51958 0.28891 0.0
N816 N 0.8505 0.50468 0.24165 0.0
N817 N 0.92999 0.52642 0.39611 0.0
H818 H 0.94141 0.52799 0.2156 0.0
H819 H 0.95426 0.52621 0.29076 0.0
H820 H 0.9292 0.52419 0.44531 0.0
H821 H 0.94361 0.53899 0.38127 0.0
H822 H 0.83329 0.49962 0.26074 0.0
H823 H 0.84919 0.51231 0.19623 0.0
H824 H 0.83943 0.47423 0.33434 0.0
H825 H 0.85266 0.47563 0.41014 0.0
C826 C 0.25078 0.16586 0.04254 0.0
C827 C 0.24354 0.14392 0.01011 0.0
C828 C 0.25012 0.11995 0.10829 0.0
C829 C 0.25478 0.14239 0.14195 0.0
N830 N 0.25259 0.18728 0.14312 0.0
N831 N 0.2327 0.10051 0.01396 0.0
C832 C 0.25311 0.16552 0.10966 0.0
C833 C 0.24215 0.12104 0.04357 0.0
N834 N 0.25679 0.18678 0.00914 0.0
N835 N 0.25432 0.09761 0.13715 0.0
H836 H 0.22666 0.10074 0.96685 0.0
H837 H 0.22884 0.08393 0.03752 0.0
H838 H 0.26057 0.0961 0.18389 0.0
H839 H 0.25374 0.08069 0.11317 0.0
H840 H 0.26466 0.20247 0.03019 0.0
H841 H 0.25655 0.18752 0.95965 0.0
H842 H 0.24901 0.20444 0.12209 0.0
H843 H 0.25282 0.18796 0.19256 0.0
C844 C 0.61012 0.47704 0.85856 0.0
C845 C 0.61318 0.50186 0.88086 0.0
C846 C 0.61321 0.51618 0.77018 0.0
C847 C 0.61404 0.49115 0.74811 0.0
N848 N 0.6194 0.4478 0.77441 0.0
N849 N 0.62409 0.54429 0.85539 0.0
C850 C 0.61436 0.47157 0.79323 0.0
C851 C 0.61669 0.52122 0.83594 0.0
N852 N 0.60167 0.45883 0.8984 0.0
N853 N 0.60757 0.53515 0.72957 0.0
H854 H 0.62816 0.54849 0.90263 0.0
H855 H 0.62898 0.55833 0.82357 0.0
H856 H 0.6027 0.53239 0.68217 0.0
H857 H 0.60463 0.55332 0.74508 0.0
H858 H 0.5971 0.44105 0.88253 0.0
H859 H 0.59624 0.46216 0.94521 0.0
H860 H 0.62202 0.43332 0.80659 0.0
H861 H 0.62379 0.44314 0.72759 0.0
C862 C 0.2491 0.88984 0.58651 0.0
C863 C 0.25146 0.86767 0.6225 0.0
C864 C 0.26318 0.845 0.52586 0.0
C865 C 0.26331 0.86747 0.49059 0.0
N866 N 0.26022 0.91218 0.49011 0.0
N867 N 0.26783 0.82604 0.62912 0.0
C868 C 0.25727 0.8902 0.52168 0.0
C869 C 0.26061 0.84582 0.59298 0.0
N870 N 0.23868 0.91039 0.6139 0.0
N871 N 0.26388 0.82264 0.4952 0.0
H872 H 0.26696 0.82616 0.67865 0.0
H873 H 0.27703 0.81066 0.61017 0.0
H874 H 0.26392 0.82111 0.44584 0.0
H875 H 0.26137 0.80575 0.5186 0.0
H876 H 0.23401 0.92633 0.58857 0.0
H877 H 0.23296 0.91077 0.66134 0.0
H878 H 0.25847 0.92948 0.51185 0.0
H879 H 0.26667 0.91317 0.44337 0.0
C880 C 0.6019 0.0124 0.29043 0.0
C881 C 0.62499 0.01247 0.25671 0.0
C882 C 0.64655 0.999 0.3542 0.0
C883 C 0.62372 1.00033 0.38824 0.0
N884 N 0.58101 0.01441 0.39235 0.0
N885 N 0.66994 0.01134 0.26046 0.0
C886 C 0.6018 0.00881 0.35738 0.0
C887 C 0.64753 0.00733 0.28981 0.0
N888 N 0.57978 0.01452 0.25867 0.0
N889 N 0.66713 0.98904 0.38271 0.0
H890 H 0.67138 0.01829 0.21432 0.0
H891 H 0.68702 0.01026 0.28381 0.0
H892 H 0.66708 0.98287 0.42971 0.0
H893 H 0.68358 0.98502 0.3584 0.0
H894 H 0.56253 0.01104 0.27979 0.0
H895 H 0.5784 0.01772 0.21014 0.0
H896 H 0.56546 0.02336 0.37355 0.0
H897 H 0.58017 0.01245 0.44154 0.0
C898 C 0.25728 0.39148 0.51625 0.0
C899 C 0.25418 0.36869 0.48304 0.0
C900 C 0.25977 0.34578 0.58283 0.0
C901 C 0.26535 0.36829 0.6149 0.0
N902 N 0.27287 0.41237 0.61068 0.0
N903 N 0.25895 0.32401 0.48257 0.0
C904 C 0.26509 0.39113 0.58114 0.0
C905 C 0.25725 0.34579 0.51572 0.0
N906 N 0.25181 0.4134 0.48665 0.0
N907 N 0.2556 0.3245 0.61664 0.0
H908 H 0.25838 0.32316 0.43317 0.0
H909 H 0.26369 0.30715 0.50363 0.0
H910 H 0.25636 0.32379 0.66608 0.0
H911 H 0.24882 0.30822 0.5961 0.0
H912 H 0.2512 0.43043 0.51011 0.0
H913 H 0.24576 0.41432 0.43962 0.0
H914 H 0.27557 0.42915 0.58703 0.0
H915 H 0.27869 0.41271 0.65798 0.0
C916 C 0.91551 0.99653 0.84 0.0
C917 C 0.89282 1.00177 0.87211 0.0
C918 C 0.86974 0.99288 0.77359 0.0
C919 C 0.89268 0.99053 0.74006 0.0
N920 N 0.93744 0.99644 0.73979 0.0
N921 N 0.84837 0.0082 0.86779 0.0
C922 C 0.91559 0.99408 0.77283 0.0
C923 C 0.86989 1.00082 0.83843 0.0
N924 N 0.93692 0.99274 0.87378 0.0
N925 N 0.84789 0.98666 0.74426 0.0
H926 H 0.84785 0.01417 0.91497 0.0
H927 H 0.8315 0.01041 0.84402 0.0
H928 H 0.84713 0.98039 0.69738 0.0
H929 H 0.83085 0.98555 0.76795 0.0
H930 H 0.95339 0.98631 0.85315 0.0
H931 H 0.93754 0.99339 0.92326 0.0
H932 H 0.95422 1.00154 0.76108 0.0
H933 H 0.93838 0.99609 0.69039 0.0
C934 C 0.25576 0.61967 0.039 0.0
C935 C 0.26251 0.64221 0.00794 0.0
C936 C 0.2618 0.66352 0.11134 0.0
C937 C 0.25124 0.64215 0.14011 0.0
N938 N 0.23606 0.60022 0.13048 0.0
N939 N 0.26782 0.68699 0.01527 0.0
C940 C 0.24771 0.62024 0.10375 0.0
C941 C 0.26457 0.66449 0.04429 0.0
N942 N 0.25802 0.59758 0.00747 0.0
N943 N 0.27015 0.68269 0.14828 0.0
H944 H 0.26998 0.68931 0.9666 0.0
H945 H 0.26605 0.70385 0.03926 0.0
H946 H 0.2692 0.68246 0.1977 0.0
H947 H 0.28048 0.69754 0.13039 0.0
H948 H 0.2556 0.58038 0.02926 0.0
H949 H 0.26496 0.59631 0.96122 0.0
H950 H 0.23048 0.5847 0.10454 0.0
H951 H 0.23019 0.59997 0.17779 0.0
C952 C 0.42013 0.98564 0.82073 0.0
C953 C 0.39883 0.98906 0.86062 0.0
C954 C 0.37516 0.00455 0.76822 0.0
C955 C 0.39614 1.0003 0.72856 0.0
N956 N 0.43668 0.98187 0.71373 0.0
N957 N 0.35453 0.99613 0.86885 0.0
C958 C 0.418 0.9893 0.75388 0.0
C959 C 0.37588 0.99692 0.83325 0.0
N960 N 0.44288 0.98027 0.84655 0.0
N961 N 0.35475 0.01646 0.74411 0.0
H962 H 0.35421 0.98974 0.91565 0.0
H963 H 0.33683 0.99935 0.85034 0.0
H964 H 0.35342 0.02168 0.69648 0.0
H965 H 0.33996 0.02269 0.77201 0.0
H966 H 0.45954 0.98128 0.82112 0.0
H967 H 0.44571 0.97655 0.89441 0.0
H968 H 0.45174 0.97105 0.7281 0.0
H969 H 0.43609 0.9846 0.66469 0.0
C970 C 0.74915 0.65969 0.52958 0.0
C971 C 0.74769 0.63681 0.49615 0.0
C972 C 0.76054 0.61468 0.59303 0.0
C973 C 0.75965 0.63738 0.62736 0.0
N974 N 0.74637 0.68016 0.63149 0.0
N975 N 0.74797 0.59202 0.49848 0.0
C976 C 0.752 0.65951 0.59657 0.0
C977 C 0.75229 0.61411 0.52858 0.0
N978 N 0.74923 0.68169 0.49723 0.0
N979 N 0.76991 0.59386 0.62142 0.0
H980 H 0.74154 0.59094 0.45179 0.0
H981 H 0.74858 0.57489 0.5214 0.0
H982 H 0.77601 0.59365 0.66848 0.0
H983 H 0.77351 0.57741 0.59701 0.0
H984 H 0.75281 0.69873 0.51899 0.0
H985 H 0.74851 0.68273 0.44783 0.0
H986 H 0.73821 0.69596 0.61187 0.0
H987 H 0.74736 0.68055 0.68096 0.0
C988 C 0.09627 0.00874 0.35478 0.0
C989 C 0.11915 0.01245 0.38764 0.0
C990 C 0.142 1.00146 0.28984 0.0
C991 C 0.11912 1.00035 0.25606 0.0
N992 N 0.07517 0.00982 0.25348 0.0
N993 N 0.16395 0.01653 0.38309 0.0
C994 C 0.09645 0.00596 0.28769 0.0
C995 C 0.14211 0.00991 0.35425 0.0
N996 N 0.07435 0.00649 0.38758 0.0
N997 N 0.16354 0.99391 0.26086 0.0
H998 H 0.16468 0.02345 0.42937 0.0
H999 H 0.18098 0.01744 0.3593 0.0
H1000 H 0.16408 0.98771 0.21387 0.0
H1001 H 0.18038 0.99182 0.28483 0.0
H1002 H 0.05762 1.00135 0.36609 0.0
H1003 H 0.07329 0.00689 0.43694 0.0
H1004 H 0.05874 0.01653 0.27373 0.0
H1005 H 0.0747 0.00892 0.204 0.0
C1006 C 0.74906 0.38887 0.10851 0.0
C1007 C 0.75089 0.36605 0.1419 0.0
C1008 C 0.76322 0.3449 0.04329 0.0
C1009 C 0.76307 0.36804 0.01029 0.0
N1010 N 0.76117 0.41277 0.01561 0.0
N1011 N 0.76607 0.32386 0.14448 0.0
C1012 C 0.75747 0.39026 0.04414 0.0
C1013 C 0.75981 0.34453 0.11027 0.0
N1014 N 0.73859 0.40903 0.13764 0.0
N1015 N 0.76532 0.32297 0.01089 0.0
H1016 H 0.76441 0.32285 0.19372 0.0
H1017 H 0.77535 0.30865 0.12489 0.0
H1018 H 0.76809 0.32173 0.96215 0.0
H1019 H 0.76207 0.30572 0.03179 0.0
H1020 H 0.73424 0.42542 0.11382 0.0
H1021 H 0.7323 0.40866 0.1846 0.0
H1022 H 0.75975 0.42964 0.03959 0.0
H1023 H 0.76819 0.41453 0.96955 0.0
C1024 C 0.08775 0.50592 0.33475 0.0
C1025 C 0.10979 0.50992 0.37019 0.0
C1026 C 0.13438 0.51138 0.27223 0.0
C1027 C 0.11202 0.50917 0.23673 0.0
N1028 N 0.06714 0.51117 0.23356 0.0
N1029 N 0.15304 0.52282 0.37246 0.0
C1030 C 0.08857 0.50844 0.26784 0.0
C1031 C 0.13287 0.51444 0.339 0.0
N1032 N 0.06622 0.49899 0.36486 0.0
N1033 N 0.15707 0.50964 0.24286 0.0
H1034 H 0.15282 0.52567 0.42145 0.0
H1035 H 0.16931 0.52922 0.35073 0.0
H1036 H 0.15918 0.50781 0.19387 0.0
H1037 H 0.17379 0.50807 0.2677 0.0
H1038 H 0.05016 0.49361 0.34069 0.0
H1039 H 0.06518 0.49631 0.41391 0.0
H1040 H 0.04961 0.51317 0.25445 0.0
H1041 H 0.06722 0.51414 0.18455 0.0
C1042 C 0.75044 0.82911 0.58625 0.0
C1043 C 0.75362 0.85146 0.6205 0.0
C1044 C 0.75775 0.87411 0.52011 0.0
C1045 C 0.75142 0.85202 0.48692 0.0
N1046 N 0.73493 0.81053 0.48981 0.0
N1047 N 0.75693 0.8963 0.62015 0.0
C1048 C 0.74566 0.83012 0.52046 0.0
C1049 C 0.7564 0.87434 0.58758 0.0
N1050 N 0.75357 0.80683 0.61584 0.0
N1051 N 0.76587 0.89455 0.48756 0.0
H1052 H 0.75637 0.89737 0.66954 0.0
H1053 H 0.75606 0.91357 0.59797 0.0
H1054 H 0.76637 0.89543 0.43809 0.0
H1055 H 0.77379 0.90997 0.5097 0.0
H1056 H 0.75382 0.79003 0.59114 0.0
H1057 H 0.75909 0.80564 0.66328 0.0
H1058 H 0.72834 0.79488 0.51379 0.0
H1059 H 0.73039 0.8112 0.4416 0.0
C1060 C 0.38806 0.50241 0.78335 0.0
C1061 C 0.40347 0.52261 0.76422 0.0
C1062 C 0.41709 0.52874 0.87391 0.0
C1063 C 0.4031 0.50748 0.89143 0.0
N1064 N 0.38054 0.47043 0.86093 0.0
N1065 N 0.43489 0.55335 0.78875 0.0
C1066 C 0.39048 0.49303 0.84549 0.0
C1067 C 0.41858 0.53539 0.80887 0.0
N1068 N 0.36966 0.49341 0.74468 0.0
N1069 N 0.42893 0.5425 0.9195 0.0
H1070 H 0.43611 0.55928 0.74164 0.0
H1071 H 0.44846 0.56128 0.81766 0.0
H1072 H 0.43016 0.53692 0.96687 0.0
H1073 H 0.43668 0.55993 0.91115 0.0
H1074 H 0.3563 0.48066 0.75994 0.0
H1075 H 0.36552 0.50058 0.70014 0.0
H1076 H 0.37407 0.45793 0.82688 0.0
H1077 H 0.38089 0.46304 0.90654 0.0
C1078 C 0.74389 0.17018 0.08235 0.0
C1079 C 0.76095 0.1527 0.10757 0.0
C1080 C 0.78004 0.14752 0.00221 0.0
C1081 C 0.76069 0.1621 0.97563 0.0
N1082 N 0.73429 0.1974 0.9943 0.0
N1083 N 0.79378 0.12278 0.0913 0.0
C1084 C 0.74531 0.17633 0.01683 0.0
C1085 C 0.77875 0.14097 0.06746 0.0
N1086 N 0.72625 0.1808 0.12067 0.0
N1087 N 0.80077 0.14198 0.96709 0.0
H1088 H 0.79288 0.11711 0.13853 0.0
H1089 H 0.80527 0.11172 0.06313 0.0
H1090 H 0.80427 0.15006 0.923 0.0
H1091 H 0.81631 0.1329 0.98544 0.0
H1092 H 0.71153 0.19144 0.10334 0.0
H1093 H 0.72528 0.17765 0.1695 0.0
H1094 H 0.72433 0.20984 0.0225 0.0
H1095 H 0.73852 0.20426 0.94923 0.0
C1096 C 0.92733 0.50387 0.77772 0.0
C1097 C 0.90397 0.50394 0.74636 0.0
C1098 C 0.88243 0.50847 0.84832 0.0
C1099 C 0.90558 0.50524 0.87989 0.0
N1100 N 0.94981 0.4973 0.87617 0.0
N1101 N 0.85892 0.50361 0.75129 0.0
C1102 C 0.928 0.50222 0.84499 0.0
C1103 C 0.8814 0.5056 0.78144 0.0
N1104 N 0.94879 0.50652 0.74321 0.0
N1105 N 0.86165 0.51546 0.88171 0.0
H1106 H 0.85717 0.50225 0.70213 0.0
H1107 H 0.84204 0.50155 0.77532 0.0
H1108 H 0.86134 0.51748 0.93096 0.0
H1109 H 0.84519 0.52129 0.86016 0.0
H1110 H 0.96628 0.50907 0.76365 0.0
H1111 H 0.94878 0.50868 0.69392 0.0
H1112 H 0.96633 0.49254 0.85308 0.0
H1113 H 0.95089 0.49589 0.92556 0.0
C1114 C 0.24868 0.12948 0.60978 0.0
C1115 C 0.25722 0.15016 0.64522 0.0
C1116 C 0.26545 0.17318 0.54781 0.0
C1117 C 0.25803 0.15202 0.51166 0.0
N1118 N 0.25075 0.10756 0.50993 0.0
N1119 N 0.27983 0.18865 0.64955 0.0
C1120 C 0.25188 0.12942 0.54298 0.0
C1121 C 0.26754 0.17107 0.61466 0.0
N1122 N 0.23711 0.11008 0.63962 0.0
N1123 N 0.26958 0.19557 0.51903 0.0
H1124 H 0.28178 0.18737 0.6988 0.0
H1125 H 0.29 0.20312 0.62927 0.0
H1126 H 0.26849 0.19828 0.47024 0.0
H1127 H 0.27204 0.21206 0.54418 0.0
H1128 H 0.22765 0.09614 0.6151 0.0
H1129 H 0.23546 0.10882 0.68889 0.0
H1130 H 0.24868 0.09034 0.53191 0.0
H1131 H 0.25484 0.1061 0.46165 0.0
C1132 C 0.58002 0.50036 0.28397 0.0
C1133 C 0.60262 0.50027 0.24901 0.0
C1134 C 0.62654 0.49795 0.34748 0.0
C1135 C 0.60402 0.50047 0.38247 0.0
N1136 N 0.55999 0.50934 0.3846 0.0
N1137 N 0.64752 0.50503 0.24752 0.0
C1138 C 0.58091 0.50327 0.35082 0.0
C1139 C 0.62596 0.50079 0.28065 0.0
N1140 N 0.55782 0.49678 0.2535 0.0
N1141 N 0.64825 0.49155 0.37729 0.0
H1142 H 0.64809 0.50752 0.19842 0.0
H1143 H 0.66458 0.50838 0.26961 0.0
H1144 H 0.64966 0.48896 0.42623 0.0
H1145 H 0.66437 0.48656 0.35265 0.0
H1146 H 0.54092 0.4944 0.27728 0.0
H1147 H 0.55667 0.49374 0.2046 0.0
H1148 H 0.54303 0.51382 0.36341 0.0
H1149 H 0.56028 0.5123 0.43364 0.0
C1150 C 0.2541 0.83349 0.02532 0.0
C1151 C 0.25539 0.85561 0.98912 0.0
C1152 C 0.25945 0.88008 0.08677 0.0
C1153 C 0.25707 0.85794 0.12265 0.0
N1154 N 0.24356 0.81542 0.12705 0.0
N1155 N 0.25302 0.9005 0.98571 0.0
C1156 C 0.25189 0.83513 0.09225 0.0
C1157 C 0.25637 0.87913 0.01982 0.0
N1158 N 0.25587 0.81092 -0.00399 0.0
N1159 N 0.26489 0.90196 0.11654 0.0
H1160 H 0.2505 0.90079 0.93664 0.0
H1161 H 0.25055 0.91787 0.00662 0.0
H1162 H 0.26561 0.90365 0.16584 0.0
H1163 H 0.26986 0.9181 0.09235 0.0
H1164 H 0.25726 0.79425 0.02093 0.0
H1165 H 0.25849 0.80913 0.94705 0.0
H1166 H 0.23698 0.79908 0.10644 0.0
H1167 H 0.24081 0.81653 0.17612 0.0
C1168 C 0.59334 0.99363 0.7966 0.0
C1169 C 0.61474 0.99551 0.75688 0.0
C1170 C 0.64181 0.99754 0.85043 0.0
C1171 C 0.62039 0.99607 0.88967 0.0
N1172 N 0.57712 0.98529 0.90208 0.0
N1173 N 0.65943 0.9905 0.74614 0.0
C1174 C 0.59654 0.99181 0.86324 0.0
C1175 C 0.63906 0.99493 0.78375 0.0
N1176 N 0.56994 0.99429 0.77104 0.0
N1177 N 0.66465 1.0022 0.87649 0.0
H1178 H 0.65828 0.98742 0.69734 0.0
H1179 H 0.6772 0.98721 0.76419 0.0
H1180 H 0.66764 1.00286 0.92537 0.0
H1181 H 0.68033 0.00675 0.84958 0.0
H1182 H 0.55377 0.99641 0.79804 0.0
H1183 H 0.56662 0.99423 0.72243 0.0
H1184 H 0.55973 0.97964 0.88551 0.0
H1185 H 0.57922 0.98307 0.95103 0.0
C1186 C 0.24657 0.33612 0.07755 0.0
C1187 C 0.25277 0.35764 0.11378 0.0
C1188 C 0.26054 0.38085 0.01585 0.0
C1189 C 0.25318 0.35976 0.98024 0.0
N1190 N 0.23355 0.31968 0.97553 0.0
N1191 N 0.25754 0.40243 0.11601 0.0
C1192 C 0.24441 0.33811 0.01065 0.0
C1193 C 0.25757 0.38059 0.08268 0.0
N1194 N 0.24362 0.31358 0.10648 0.0
N1195 N 0.27075 0.40101 0.98608 0.0
H1196 H 0.25364 0.40356 0.16445 0.0
H1197 H 0.25851 0.41979 0.09425 0.0
H1198 H 0.27178 0.40266 0.9368 0.0
H1199 H 0.27956 0.41539 0.01054 0.0
H1200 H 0.24214 0.29692 0.08155 0.0
H1201 H 0.24463 0.31107 0.15536 0.0
H1202 H 0.22446 0.30446 -0.00446 0.0
H1203 H 0.23166 0.32079 0.92624 0.0
C1204 C 0.89331 0.01769 0.3422 0.0
C1205 C 0.90878 0.99989 0.37226 0.0
C1206 C 0.91903 0.98173 0.26809 0.0
C1207 C 0.90134 0.99767 0.24001 0.0
N1208 N 0.86781 0.02708 0.25088 0.0
N1209 N 0.94497 0.97333 0.35911 0.0
C1210 C 0.8874 0.0146 0.27725 0.0
C1211 C 0.9241 0.98408 0.33399 0.0
N1212 N 0.88629 0.0388 0.37353 0.0
N1213 N 0.93067 0.96407 0.23189 0.0
H1214 H 0.95136 0.97712 0.40472 0.0
H1215 H 0.958 0.96346 0.33246 0.0
H1216 H 0.92771 0.9623 0.18311 0.0
H1217 H 0.94154 0.94987 0.25078 0.0
H1218 H 0.87652 0.05321 0.35184 0.0
H1219 H 0.89379 0.04383 0.41733 0.0
H1220 H 0.85548 0.03797 0.27726 0.0
H1221 H 0.86222 0.02416 0.20403 0.0
C1222 C 0.23663 0.67007 0.61232 0.0
C1223 C 0.24905 0.64954 0.63962 0.0
C1224 C 0.2698 0.64077 0.53894 0.0
C1225 C 0.25409 0.65817 0.50809 0.0
N1226 N 0.22695 0.69409 0.51872 0.0
N1227 N 0.27486 0.6132 0.62854 0.0
C1228 C 0.23871 0.67424 0.54577 0.0
C1229 C 0.26461 0.63408 0.6025 0.0
N1230 N 0.22396 0.68625 0.6509 0.0
N1231 N 0.29105 0.63245 0.51001 0.0
H1232 H 0.27125 0.60775 0.67526 0.0
H1233 H 0.28482 0.60018 0.60201 0.0
H1234 H 0.29787 0.6403 0.46817 0.0
H1235 H 0.30397 0.62099 0.53247 0.0
H1236 H 0.21702 0.70335 0.6363 0.0
H1237 H 0.22109 0.68288 0.69922 0.0
H1238 H 0.21207 0.70347 0.53962 0.0
H1239 H 0.23267 0.70189 0.47586 0.0
C1240 C 0.40136 0.0273 0.25536 0.0
C1241 C 0.41733 0.00933 0.22749 0.0
C1242 C 0.42636 0.99197 0.33276 0.0
C1243 C 0.40807 0.00782 0.35941 0.0
N1244 N 0.3761 0.03878 0.34621 0.0
N1245 N 0.4542 0.98487 0.24406 0.0
C1246 C 0.39511 0.02512 0.32076 0.0
C1247 C 0.43249 0.99447 0.2675 0.0
N1248 N 0.39412 0.04767 0.22138 0.0
N1249 N 0.43765 0.97431 0.3694 0.0
H1250 H 0.46071 0.98966 0.19895 0.0
H1251 H 0.46726 0.97548 0.27164 0.0
H1252 H 0.43413 0.97232 0.41789 0.0
H1253 H 0.4491 0.96046 0.35074 0.0
H1254 H 0.38387 0.06228 0.24062 0.0
H1255 H 0.40178 0.05207 0.17729 0.0
H1256 H 0.36418 0.04977 0.31924 0.0
H1257 H 0.37071 0.03714 0.39359 0.0
C1258 C 0.77155 0.62787 0.09855 0.0
C1259 C 0.74992 0.63897 0.12527 0.0
C1260 C 0.73761 0.65398 0.01989 0.0
C1261 C 0.76033 0.64501 0.99481 0.0
N1262 N 0.80112 0.62705 0.01218 0.0
N1263 N 0.70678 0.64947 0.10196 0.0
C1264 C 0.77801 0.63315 0.03468 0.0
C1265 C 0.73125 0.6485 0.0836 0.0
N1266 N 0.78406 0.60974 0.13091 0.0
N1267 N 0.72247 0.66862 0.98349 0.0
H1268 H 0.7001 0.64116 0.14323 0.0
H1269 H 0.69237 0.65447 0.07141 0.0
H1270 H 0.72675 0.67347 0.9367 0.0
H1271 H 0.70712 0.67813 0.00185 0.0
H1272 H 0.79894 0.59977 0.11179 0.0
H1273 H 0.777 0.60148 0.17193 0.0
H1274 H 0.81571 0.62162 0.04172 0.0
H1275 H 0.80656 0.62953 0.96523 0.0
C1276 C 0.1346 0.00516 0.85502 0.0
C1277 C 0.11209 0.00719 0.88996 0.0
C1278 C 0.08801 0.00901 0.79216 0.0
C1279 C 0.11052 0.00739 0.75646 0.0
N1280 N 0.15546 0.01212 0.75463 0.0
N1281 N 0.06909 0.01952 0.89315 0.0
C1282 C 0.13397 0.0077 0.78795 0.0
C1283 C 0.08927 0.01163 0.85893 0.0
N1284 N 0.15652 1.00055 0.88579 0.0
N1285 N 0.06539 0.00747 0.76267 0.0
H1286 H 0.0698 0.0223 0.94223 0.0
H1287 H 0.05261 0.02568 0.87227 0.0
H1288 H 0.06347 0.00592 0.71368 0.0
H1289 H 0.04859 0.0057 0.78727 0.0
H1290 H 0.17306 0.99619 0.8623 0.0
H1291 H 0.15791 0.99992 0.93515 0.0
H1292 H 0.17263 0.01527 0.77623 0.0
H1293 H 0.1559 0.01529 0.70581 0.0
C1294 C 0.75191 0.38284 0.60455 0.0
C1295 C 0.74792 0.36172 0.64321 0.0
C1296 C 0.74521 0.33516 0.54942 0.0
C1297 C 0.74809 0.3565 0.51022 0.0
N1298 N 0.7455 0.40134 0.50154 0.0
N1299 N 0.73489 0.31915 0.65387 0.0
C1300 C 0.74895 0.3806 0.53796 0.0
C1301 C 0.74266 0.33829 0.61596 0.0
N1302 N 0.75949 0.40479 0.6309 0.0
N1303 N 0.74587 0.31186 0.52367 0.0
H1304 H 0.73252 0.3211 0.70287 0.0
H1305 H 0.72848 0.30222 0.63631 0.0
H1306 H 0.74733 0.30854 0.47516 0.0
H1307 H 0.74697 0.29571 0.55079 0.0
H1308 H 0.76562 0.41982 0.60381 0.0
H1309 H 0.76145 0.40739 0.67976 0.0
H1310 H 0.7436 0.41908 0.52087 0.0
H1311 H 0.7416 0.4007 0.45307 0.0
C1312 C 0.1576 0.40267 0.11392 0.0
C1313 C 0.15795 0.42895 0.12098 0.0
C1314 C 0.18015 0.42435 0.22242 0.0
C1315 C 0.17943 0.39816 0.21657 0.0
N1316 N 0.17432 0.36282 0.14623 0.0
N1317 N 0.18192 0.46301 0.16494 0.0
C1318 C 0.16998 0.38735 0.15945 0.0
C1319 C 0.17285 0.4394 0.17015 0.0
N1320 N 0.14618 0.39232 0.06232 0.0
N1321 N 0.18763 0.43501 0.27814 0.0
H1322 H 0.18078 0.47324 0.12309 0.0
H1323 H 0.19426 0.47068 0.19778 0.0
H1324 H 0.19289 0.42457 0.31769 0.0
H1325 H 0.18618 0.45403 0.28679 0.0
H1326 H 0.14153 0.37357 0.05925 0.0
H1327 H 0.14129 0.40271 0.02239 0.0
H1328 H 0.17065 0.35468 0.10235 0.0
H1329 H 0.18367 0.35082 0.17672 0.0
C1330 C 0.84621 0.90224 0.4981 0.0
C1331 C 0.86537 0.91692 0.47118 0.0
C1332 C 0.85248 0.90363 0.36397 0.0
C1333 C 0.83498 0.8871 0.39137 0.0
N1334 N 0.81971 0.86629 0.48547 0.0
N1335 N 0.88999 0.928 0.3791 0.0
C1336 C 0.833 0.88524 0.45876 0.0
C1337 C 0.86941 0.91665 0.40418 0.0
N1338 N 0.84053 0.90456 0.56117 0.0
N1339 N 0.85276 0.9071 0.29964 0.0
H1340 H 0.90332 0.93678 0.40706 0.0
H1341 H 0.89521 0.92656 0.33153 0.0
H1342 H 0.84094 0.89745 0.26894 0.0
H1343 H 0.86321 0.9209 0.27731 0.0
H1344 H 0.82488 0.8964 0.58189 0.0
H1345 H 0.85033 0.91636 0.59162 0.0
H1346 H 0.81932 0.86272 0.53412 0.0
H1347 H 0.81138 0.85241 0.45851 0.0
C1348 C 0.34376 0.57392 0.6952 0.0
C1349 C 0.3553 0.58449 0.64045 0.0
C1350 C 0.33785 0.62512 0.67015 0.0
C1351 C 0.33021 0.61531 0.73011 0.0
N1352 N 0.32846 0.58074 0.80244 0.0
N1353 N 0.36405 0.62056 0.57668 0.0
C1354 C 0.33376 0.58976 0.7432 0.0
C1355 C 0.35254 0.61025 0.62831 0.0
N1356 N 0.34196 0.54875 0.70124 0.0
N1357 N 0.32995 0.64812 0.65134 0.0
H1358 H 0.37315 0.60993 0.54222 0.0
H1359 H 0.36552 0.63967 0.56967 0.0
H1360 H 0.31864 0.65952 0.67912 0.0
H1361 H 0.33253 0.65496 0.60549 0.0
H1362 H 0.33193 0.54006 0.73737 0.0
H1363 H 0.34784 0.53651 0.66612 0.0
H1364 H 0.33331 0.56293 0.81726 0.0
H1365 H 0.3214 0.59185 0.83893 0.0
C1366 C 0.6703 0.12457 0.95489 0.0
C1367 C 0.68039 0.11382 0.89839 0.0
C1368 C 0.67535 0.07269 0.94685 0.0
C1369 C 0.65955 0.08281 0.99487 0.0
N1370 N 0.6452 0.1194 0.05006 0.0
N1371 N 0.69029 0.07683 0.8388 0.0
C1372 C 0.65792 0.10911 0.00028 0.0
C1373 C 0.68228 0.08764 0.89392 0.0
N1374 N 0.67406 0.14923 0.96764 0.0
N1375 N 0.68543 0.04957 0.95344 0.0
H1376 H 0.69517 0.08711 0.7986 0.0
H1377 H 0.68966 0.05769 0.83129 0.0
H1378 H 0.68433 0.03944 0.99543 0.0
H1379 H 0.6985 0.0424 0.92159 0.0
H1380 H 0.66955 0.15749 0.01092 0.0
H1381 H 0.68408 0.16106 0.9379 0.0
H1382 H 0.63999 0.13803 0.0517 0.0
H1383 H 0.63967 0.10908 0.08962 0.0
C1384 C 0.16816 0.62792 0.46391 0.0
C1385 C 0.16972 0.62338 0.39727 0.0
C1386 C 0.13761 0.59127 0.40749 0.0
C1387 C 0.13853 0.59345 0.47492 0.0
N1388 N 0.15641 0.61219 0.56809 0.0
N1389 N 0.15834 0.59861 0.30658 0.0
C1390 C 0.15427 0.61137 0.5034 0.0
C1391 C 0.15518 0.60438 0.36934 0.0
N1392 N 0.17948 0.6484 0.48927 0.0
N1393 N 0.11913 0.57764 0.37966 0.0
H1394 H 0.17044 0.60843 0.27683 0.0
H1395 H 0.15043 0.583 0.28536 0.0
H1396 H 0.1048 0.56953 0.40581 0.0
H1397 H 0.11628 0.57684 0.33076 0.0
H1398 H 0.17727 0.65398 0.53634 0.0
H1399 H 0.18922 0.66123 0.46174 0.0
H1400 H 0.16971 0.62286 0.59168 0.0
H1401 H 0.14597 0.60079 0.59818 0.0
C1402 C 0.63597 0.91223 0.70506 0.0
C1403 C 0.64712 0.92174 0.64831 0.0
C1404 C 0.68827 0.91319 0.69407 0.0
C1405 C 0.67729 0.89822 0.74234 0.0
N1406 N 0.64006 0.88723 0.80037 0.0
N1407 N 0.68442 0.92887 0.58685 0.0
C1408 C 0.65089 0.89876 0.74951 0.0
C1409 C 0.67344 0.92141 0.64227 0.0
N1410 N 0.61164 0.91761 0.71924 0.0
N1411 N 0.7122 0.9215 0.69989 0.0
H1412 H 0.67415 0.93472 0.54753 0.0
H1413 H 0.70347 0.92679 0.57816 0.0
H1414 H 0.7224 0.91961 0.74166 0.0
H1415 H 0.72024 0.93394 0.66787 0.0
H1416 H 0.60343 0.91381 0.76305 0.0
H1417 H 0.60001 0.92797 0.68994 0.0
H1418 H 0.62107 0.88327 0.8031 0.0
H1419 H 0.65026 0.88161 0.84001 0.0
C1420 C 0.33025 0.42502 0.89454 0.0
C1421 C 0.33127 0.39876 0.89797 0.0
C1422 C 0.35033 0.40203 0.00442 0.0
C1423 C 0.35033 0.42835 -0.00083 0.0
N1424 N 0.32756 0.46309 0.95489 0.0
N1425 N 0.33434 0.36265 0.96638 0.0
C1426 C 0.3364 0.43942 0.94907 0.0
C1427 C 0.33915 0.38728 0.95575 0.0
N1428 N 0.32367 0.43634 0.83895 0.0
N1429 N 0.3603 0.39109 0.05713 0.0
H1430 H 0.32554 0.35109 0.93375 0.0
H1431 H 0.33692 0.35399 0.01009 0.0
H1432 H 0.36407 0.40105 0.09859 0.0
H1433 H 0.36479 0.3723 0.05969 0.0
H1434 H 0.32481 0.45549 0.83221 0.0
H1435 H 0.31943 0.42641 0.79774 0.0
H1436 H 0.31612 0.4714 0.92104 0.0
H1437 H 0.32797 0.47279 -0.00228 0.0
C1438 C 0.82277 0.08173 0.19448 0.0
C1439 C 0.8338 0.09838 0.23881 0.0
C1440 C 0.87502 0.08538 0.19831 0.0
C1441 C 0.86341 0.07475 0.14354 0.0
N1442 N 0.8254 0.06381 0.08914 0.0
N1443 N 0.87137 0.11117 0.29244 0.0
C1444 C 0.83702 0.07317 0.14167 0.0
C1445 C 0.86027 0.09882 0.24336 0.0
N1446 N 0.79929 0.07273 0.20468 0.0
N1447 N 0.89967 0.08086 0.21053 0.0
H1448 H 0.86157 0.11648 0.33313 0.0
H1449 H 0.89021 0.11591 0.29292 0.0
H1450 H 0.91101 0.06989 0.18177 0.0
H1451 H 0.90842 0.08567 0.25291 0.0
H1452 H 0.79107 0.05936 0.17562 0.0
H1453 H 0.78979 0.0755 0.24735 0.0
H1454 H 0.8061 0.06421 0.08335 0.0
H1455 H 0.83513 0.05796 0.04883 0.0
C1456 C 0.84202 0.57945 0.96583 0.0
C1457 C 0.86828 0.58243 0.96704 0.0
C1458 C 0.86566 0.60704 0.86812 0.0
C1459 C 0.83926 0.60449 0.86855 0.0
N1460 N 0.80608 0.57608 0.89765 0.0
N1461 N 0.90529 0.59069 0.90385 0.0
C1462 C 0.82849 0.5869 0.91105 0.0
C1463 C 0.88028 0.59397 0.91394 0.0
N1464 N 0.82976 0.56989 0.01725 0.0
N1465 N 0.87695 0.62102 0.82222 0.0
H1466 H 0.91655 0.57959 0.93234 0.0
H1467 H 0.91447 0.59655 0.86284 0.0
H1468 H 0.86773 0.62658 0.78103 0.0
H1469 H 0.89543 0.62694 0.82515 0.0
H1470 H 0.81034 0.56929 0.02026 0.0
H1471 H 0.83882 0.56514 0.05936 0.0
H1472 H 0.79829 0.56215 0.92581 0.0
H1473 H 0.79754 0.57782 0.85344 0.0
C1474 C 0.16063 0.10514 0.6298 0.0
C1475 C 0.1429 0.0885 0.65559 0.0
C1476 C 0.15607 0.10009 0.76378 0.0
C1477 C 0.17206 0.11841 0.73805 0.0
N1478 N 0.18526 0.14223 0.64659 0.0
N1479 N 0.11942 0.07475 0.74727 0.0
C1480 C 0.17316 0.12203 0.67098 0.0
C1481 C 0.13942 0.08721 0.72271 0.0
N1482 N 0.16571 0.10468 0.56615 0.0
N1483 N 0.15683 0.09492 0.82731 0.0
H1484 H 0.10563 0.06706 0.71871 0.0
H1485 H 0.11485 0.0747 0.79541 0.0
H1486 H 0.16833 0.10454 0.85886 0.0
H1487 H 0.14762 0.07983 0.84764 0.0
H1488 H 0.1805 0.11439 0.54567 0.0
H1489 H 0.15634 0.093 0.53458 0.0
H1490 H 0.18492 0.14699 0.59863 0.0
H1491 H 0.19343 0.15574 0.67515 0.0
C1492 C 0.66728 0.37993 0.46278 0.0
C1493 C 0.67009 0.38586 0.39709 0.0
C1494 C 0.64029 0.41992 0.40997 0.0
C1495 C 0.63989 0.41604 0.47698 0.0
N1496 N 0.65555 0.39423 0.56831 0.0
N1497 N 0.66221 0.41381 0.31019 0.0
C1498 C 0.6541 0.39652 0.50373 0.0
C1499 C 0.65758 0.40665 0.37139 0.0
N1500 N 0.67673 0.35817 0.4859 0.0
N1501 N 0.62305 0.43511 0.38247 0.0
H1502 H 0.67403 0.40393 0.27987 0.0
H1503 H 0.65583 0.43052 0.29124 0.0
H1504 H 0.60873 0.44329 0.40834 0.0
H1505 H 0.62104 0.43711 0.3335 0.0
H1506 H 0.67337 0.35174 0.53179 0.0
H1507 H 0.68595 0.34527 0.45746 0.0
H1508 H 0.66788 0.38223 0.59102 0.0
H1509 H 0.64583 0.40583 0.59946 0.0
C1510 C 0.34262 0.93093 0.14363 0.0
C1511 C 0.36894 0.92965 0.14945 0.0
C1512 C 0.36388 0.90725 0.25098 0.0
C1513 C 0.33755 0.90716 0.24249 0.0
N1514 N 0.30365 0.93184 0.2013 0.0
N1515 N 0.40391 0.92479 0.22098 0.0
C1516 C 0.32729 0.92286 0.195 0.0
C1517 C 0.37945 0.92011 0.2067 0.0
N1518 N 0.33209 0.93932 0.08866 0.0
N1519 N 0.37397 0.89567 0.30263 0.0
H1520 H 0.41573 0.93513 0.19186 0.0
H1521 H 0.41198 0.92066 0.26467 0.0
H1522 H 0.36319 0.89022 0.34155 0.0
H1523 H 0.39286 0.89148 0.30677 0.0
H1524 H 0.31296 0.93841 0.08014 0.0
H1525 H 0.34263 0.94502 0.04955 0.0
H1526 H 0.29614 0.94494 0.17031 0.0
H1527 H 0.29315 0.92934 0.24252 0.0
C1528 C 0.83064 0.42391 0.73132 0.0
C1529 C 0.83041 0.39765 0.72669 0.0
C1530 C 0.85244 0.40077 0.62372 0.0
C1531 C 0.85322 0.42709 0.62992 0.0
N1532 N 0.82982 0.46198 0.6712 0.0
N1533 N 0.83306 0.36211 0.65611 0.0
C1534 C 0.83841 0.4383 0.67819 0.0
C1535 C 0.83914 0.38625 0.66946 0.0
N1536 N 0.82372 0.43529 0.78662 0.0
N1537 N 0.86353 0.38965 0.57263 0.0
H1538 H 0.82213 0.35105 0.68567 0.0
H1539 H 0.83656 0.35368 0.61245 0.0
H1540 H 0.86897 0.39957 0.53233 0.0
H1541 H 0.86728 0.37068 0.57037 0.0
H1542 H 0.82573 0.45436 0.79383 0.0
H1543 H 0.8184 0.42541 0.82709 0.0
H1544 H 0.81741 0.47013 0.70325 0.0
H1545 H 0.83157 0.4718 0.62879 0.0
C1546 C 0.35645 0.10672 0.50273 0.0
C1547 C 0.35544 0.08039 0.49751 0.0
C1548 C 0.32855 0.0843 0.40363 0.0
C1549 C 0.33077 0.11054 0.40587 0.0
N1550 N 0.33902 0.14648 0.47216 0.0
N1551 N 0.32853 0.04657 0.46574 0.0
C1552 C 0.3426 0.12179 0.45946 0.0
C1553 C 0.33781 0.0698 0.45496 0.0
N1554 N 0.3698 0.11739 0.55074 0.0
N1555 N 0.31793 0.07307 0.35212 0.0
H1556 H 0.33188 0.03695 0.50784 0.0
H1557 H 0.31447 0.03868 0.43818 0.0
H1558 H 0.3115 0.08299 0.31284 0.0
H1559 H 0.31776 0.05386 0.34588 0.0
H1560 H 0.37501 0.13603 0.55116 0.0
H1561 H 0.37546 0.10742 0.59069 0.0
H1562 H 0.34483 0.15509 0.51389 0.0
H1563 H 0.32802 0.15812 0.44447 0.0
C1564 C 0.66984 0.5768 0.13547 0.0
C1565 C 0.64388 0.57558 0.14776 0.0
C1566 C 0.65069 0.59446 0.25333 0.0
C1567 C 0.67604 0.59885 0.23773 0.0
N1568 N 0.71062 0.59185 0.16462 0.0
N1569 N 0.60919 0.58258 0.21941 0.0
C1570 C 0.68597 0.58899 0.17955 0.0
C1571 C 0.6342 0.58426 0.20696 0.0
N1572 N 0.67922 0.56579 0.08182 0.0
N1573 N 0.64281 0.59874 0.31425 0.0
H1574 H 0.59661 0.57321 0.19038 0.0
H1575 H 0.6005 0.59156 0.25726 0.0
H1576 H 0.65486 0.6049 0.34985 0.0
H1577 H 0.62532 0.59376 0.33156 0.0
H1578 H 0.69811 0.56251 0.07401 0.0
H1579 H 0.66796 0.55868 0.04575 0.0
H1580 H 0.71765 0.59033 0.11862 0.0
H1581 H 0.72447 0.59544 0.19761 0.0
C1582 C 0.18391 0.92535 0.90561 0.0
C1583 C 0.18114 0.89917 0.90331 0.0
C1584 C 0.15728 0.90078 0.00388 0.0
C1585 C 0.15858 0.92718 0.00318 0.0
N1586 N 0.1856 0.96128 0.97439 0.0
N1587 N 0.17312 0.86163 0.96355 0.0
C1588 C 0.17561 0.93863 0.96034 0.0
C1589 C 0.17 0.8867 0.95617 0.0
N1590 N 0.19411 0.93771 0.85521 0.0
N1591 N 0.14465 0.88906 0.05167 0.0
H1592 H 0.18321 0.85058 0.93208 0.0
H1593 H 0.16787 0.85192 0.00419 0.0
H1594 H 0.1398 0.89808 0.09383 0.0
H1595 H 0.13916 0.87051 0.0497 0.0
H1596 H 0.19465 0.95702 0.85236 0.0
H1597 H 0.2 0.92871 0.81388 0.0
H1598 H 0.19955 0.96953 0.94701 0.0
H1599 H 0.18291 0.96988 0.01826 0.0
loop_
_geom_bond_atom_site_label_1
_geom_bond_atom_site_label_2
_geom_bond_distance
_geom_bond_site_symmetry_2
_ccdc_geom_bond_type
C0 O2 1.247 . S
C0 O4 1.258 . S
C1 O8 1.247 . S
C1 O9 1.258 . S
O2 C0 1.247 . S
O2 Zn3 2.028 . S
Zn3 O2 2.028 . S
Zn3 O7 2.035 1_554 S
Zn3 O9 2.035 . S
Zn3 O10 2.028 . S
O4 C0 1.258 . S
O4 Zn5 2.035 . S
Zn5 O4 2.035 . S
Zn5 O6 2.028 1_554 S
Zn5 O8 2.028 . S
Zn5 O11 2.035 . S
O6 Zn5 2.028 1_556 S
O6 C12 1.247 . S
O7 Zn3 2.035 1_556 S
O7 C12 1.258 . S
O8 C1 1.247 . S
O8 Zn5 2.028 . S
O9 C1 1.258 . S
O9 Zn3 2.035 . S
O10 Zn3 2.028 . S
O10 C13 1.247 . S
O11 Zn5 2.035 . S
O11 C13 1.258 . S
C12 O6 1.247 . S
C12 O7 1.258 . S
C13 O10 1.247 . S
C13 O11 1.258 . S
C14 O16 1.247 . S
C14 O18 1.258 . S
C15 O22 1.247 . S
C15 O23 1.258 . S
O16 C14 1.247 . S
O16 Zn17 2.028 . S
Zn17 O16 2.028 . S
Zn17 O21 2.035 . S
Zn17 O23 2.035 . S
Zn17 O24 2.028 . S
O18 C14 1.258 . S
O18 Zn19 2.035 . S
Zn19 O18 2.035 . S
Zn19 O20 2.028 . S
Zn19 O22 2.028 . S
Zn19 O25 2.035 . S
O20 Zn19 2.028 . S
O20 C26 1.247 . S
O21 Zn17 2.035 . S
O21 C26 1.258 . S
O22 C15 1.247 . S
O22 Zn19 2.028 . S
O23 C15 1.258 . S
O23 Zn17 2.035 . S
O24 Zn17 2.028 . S
O24 C27 1.247 . S
O25 Zn19 2.035 . S
O25 C27 1.258 . S
C26 O20 1.247 . S
C26 O21 1.258 . S
C27 O24 1.247 . S
C27 O25 1.258 . S
C28 O30 1.247 . S
C28 O32 1.258 . S
C29 O36 1.247 . S
C29 O37 1.258 . S
O30 C28 1.247 . S
O30 Zn31 2.028 . S
Zn31 O30 2.028 . S
Zn31 O35 2.035 . S
Zn31 O37 2.035 . S
Zn31 O38 2.028 . S
O32 C28 1.258 . S
O32 Zn33 2.035 . S
Zn33 O32 2.035 . S
Zn33 O34 2.028 . S
Zn33 O36 2.028 . S
Zn33 O39 2.035 . S
O34 Zn33 2.028 . S
O34 C40 1.247 . S
O35 Zn31 2.035 . S
O35 C40 1.258 . S
O36 C29 1.247 . S
O36 Zn33 2.028 . S
O37 C29 1.258 . S
O37 Zn31 2.035 . S
O38 Zn31 2.028 . S
O38 C41 1.247 . S
O39 Zn33 2.035 . S
O39 C41 1.258 . S
C40 O34 1.247 . S
C40 O35 1.258 . S
C41 O38 1.247 . S
C41 O39 1.258 . S
C42 O44 1.247 . S
C42 O46 1.258 . S
C43 O50 1.247 . S
C43 O51 1.258 . S
O44 C42 1.247 . S
O44 Zn45 2.028 . S
Zn45 O44 2.028 . S
Zn45 O49 2.035 . S
Zn45 O51 2.035 . S
Zn45 O52 2.028 . S
O46 C42 1.258 . S
O46 Zn47 2.035 . S
Zn47 O46 2.035 . S
Zn47 O48 2.028 . S
Zn47 O50 2.028 . S
Zn47 O53 2.035 . S
O48 Zn47 2.028 . S
O48 C54 1.247 . S
O49 Zn45 2.035 . S
O49 C54 1.258 . S
O50 C43 1.247 . S
O50 Zn47 2.028 . S
O51 C43 1.258 . S
O51 Zn45 2.035 . S
O52 Zn45 2.028 . S
O52 C55 1.247 . S
O53 Zn47 2.035 . S
O53 C55 1.258 . S
C54 O48 1.247 . S
C54 O49 1.258 . S
C55 O52 1.247 . S
C55 O53 1.258 . S
C56 O58 1.247 . S
C56 O60 1.258 . S
C57 O64 1.247 . S
C57 O65 1.258 . S
O58 C56 1.247 . S
O58 Zn59 2.028 . S
Zn59 O58 2.028 . S
Zn59 O63 2.035 . S
Zn59 O65 2.035 . S
Zn59 O66 2.028 . S
O60 C56 1.258 . S
O60 Zn61 2.035 . S
Zn61 O60 2.035 . S
Zn61 O62 2.028 . S
Zn61 O64 2.028 . S
Zn61 O67 2.035 . S
O62 Zn61 2.028 . S
O62 C68 1.247 . S
O63 Zn59 2.035 . S
O63 C68 1.258 . S
O64 C57 1.247 . S
O64 Zn61 2.028 . S
O65 C57 1.258 . S
O65 Zn59 2.035 . S
O66 Zn59 2.028 . S
O66 C69 1.247 . S
O67 Zn61 2.035 . S
O67 C69 1.258 . S
C68 O62 1.247 . S
C68 O63 1.258 . S
C69 O66 1.247 . S
C69 O67 1.258 . S
C70 O72 1.247 . S
C70 O74 1.258 . S
C71 O78 1.247 . S
C71 O79 1.258 . S
O72 C70 1.247 . S
O72 Zn73 2.028 . S
Zn73 O72 2.028 . S
Zn73 O77 2.035 . S
Zn73 O79 2.035 . S
Zn73 O80 2.028 . S
O74 C70 1.258 . S
O74 Zn75 2.035 . S
Zn75 O74 2.035 . S
Zn75 O76 2.028 . S
Zn75 O78 2.028 . S
Zn75 O81 2.035 . S
O76 Zn75 2.028 . S
O76 C82 1.247 . S
O77 Zn73 2.035 . S
O77 C82 1.258 . S
O78 C71 1.247 . S
O78 Zn75 2.028 . S
O79 C71 1.258 . S
O79 Zn73 2.035 . S
O80 Zn73 2.028 . S
O80 C83 1.247 . S
O81 Zn75 2.035 . S
O81 C83 1.258 . S
C82 O76 1.247 . S
C82 O77 1.258 . S
C83 O80 1.247 . S
C83 O81 1.258 . S
C84 O86 1.247 . S
C84 O88 1.258 . S
C85 O92 1.247 . S
C85 O93 1.258 . S
O86 C84 1.247 . S
O86 Zn87 2.028 . S
Zn87 O86 2.028 . S
Zn87 O91 2.035 . S
Zn87 O93 2.035 . S
Zn87 O94 2.028 1_554 S
O88 C84 1.258 . S
O88 Zn89 2.035 . S
Zn89 O88 2.035 . S
Zn89 O90 2.028 . S
Zn89 O92 2.028 . S
Zn89 O95 2.035 1_554 S
O90 Zn89 2.028 . S
O90 C96 1.247 . S
O91 Zn87 2.035 . S
O91 C96 1.258 . S
O92 C85 1.247 . S
O92 Zn89 2.028 . S
O93 C85 1.258 . S
O93 Zn87 2.035 . S
O94 Zn87 2.028 1_556 S
O94 C97 1.247 . S
O95 Zn89 2.035 1_556 S
O95 C97 1.258 . S
C96 O90 1.247 . S
C96 O91 1.258 . S
C97 O94 1.247 . S
C97 O95 1.258 . S
C98 O100 1.247 . S
C98 O102 1.258 . S
C99 O106 1.247 . S
C99 O107 1.258 . S
O100 C98 1.247 . S
O100 Zn101 2.028 . S
Zn101 O100 2.028 . S
Zn101 O105 2.035 . S
Zn101 O107 2.035 . S
Zn101 O108 2.028 . S
O102 C98 1.258 . S
O102 Zn103 2.035 . S
Zn103 O102 2.035 . S
Zn103 O104 2.028 . S
Zn103 O106 2.028 . S
Zn103 O109 2.035 . S
O104 Zn103 2.028 . S
O104 C110 1.247 . S
O105 Zn101 2.035 . S
O105 C110 1.258 . S
O106 C99 1.247 . S
O106 Zn103 2.028 . S
O107 C99 1.258 . S
O107 Zn101 2.035 . S
O108 Zn101 2.028 . S
O108 C111 1.247 . S
O109 Zn103 2.035 . S
O109 C111 1.258 . S
C110 O104 1.247 . S
C110 O105 1.258 . S
C111 O108 1.247 . S
C111 O109 1.258 . S
C112 O114 1.247 . S
C112 O116 1.258 . S
C113 O120 1.247 . S
C113 O121 1.258 . S
O114 C112 1.247 . S
O114 Zn115 2.028 1_556 S
Zn115 O114 2.028 1_554 S
Zn115 O119 2.035 . S
Zn115 O121 2.035 . S
Zn115 O122 2.028 . S
O116 C112 1.258 . S
O116 Zn117 2.035 1_556 S
Zn117 O116 2.035 1_554 S
Zn117 O118 2.028 . S
Zn117 O120 2.028 . S
Zn117 O123 2.035 . S
O118 Zn117 2.028 . S
O118 C124 1.247 . S
O119 Zn115 2.035 . S
O119 C124 1.258 . S
O120 C113 1.247 . S
O120 Zn117 2.028 . S
O121 C113 1.258 . S
O121 Zn115 2.035 . S
O122 Zn115 2.028 . S
O122 C125 1.247 . S
O123 Zn117 2.035 . S
O123 C125 1.258 . S
C124 O118 1.247 . S
C124 O119 1.258 . S
C125 O122 1.247 . S
C125 O123 1.258 . S
C126 O128 1.247 . S
C126 O130 1.258 . S
C127 O134 1.247 . S
C127 O135 1.258 . S
O128 C126 1.247 . S
O128 Zn129 2.028 . S
Zn129 O128 2.028 . S
Zn129 O133 2.035 . S
Zn129 O135 2.035 . S
Zn129 O136 2.028 . S
O130 C126 1.258 . S
O130 Zn131 2.035 . S
Zn131 O130 2.035 . S
Zn131 O132 2.028 . S
Zn131 O134 2.028 . S
Zn131 O137 2.035 . S
O132 Zn131 2.028 . S
O132 C138 1.247 . S
O133 Zn129 2.035 . S
O133 C138 1.258 . S
O134 C127 1.247 . S
O134 Zn131 2.028 . S
O135 C127 1.258 . S
O135 Zn129 2.035 . S
O136 Zn129 2.028 . S
O136 C139 1.247 . S
O137 Zn131 2.035 . S
O137 C139 1.258 . S
C138 O132 1.247 . S
C138 O133 1.258 . S
C139 O136 1.247 . S
C139 O137 1.258 . S
C140 O142 1.247 . S
C140 O144 1.258 . S
C141 O148 1.247 . S
C141 O149 1.258 . S
O142 C140 1.247 . S
O142 Zn143 2.028 . S
Zn143 O142 2.028 . S
Zn143 O147 2.035 . S
Zn143 O149 2.035 . S
Zn143 O150 2.028 . S
O144 C140 1.258 . S
O144 Zn145 2.035 . S
Zn145 O144 2.035 . S
Zn145 O146 2.028 . S
Zn145 O148 2.028 . S
Zn145 O151 2.035 . S
O146 Zn145 2.028 . S
O146 C152 1.247 . S
O147 Zn143 2.035 . S
O147 C152 1.258 . S
O148 C141 1.247 . S
O148 Zn145 2.028 . S
O149 C141 1.258 . S
O149 Zn143 2.035 . S
O150 Zn143 2.028 . S
O150 C153 1.247 . S
O151 Zn145 2.035 . S
O151 C153 1.258 . S
C152 O146 1.247 . S
C152 O147 1.258 . S
C153 O150 1.247 . S
C153 O151 1.258 . S
C154 O156 1.247 . S
C154 O158 1.258 . S
C155 O162 1.247 . S
C155 O163 1.258 . S
O156 C154 1.247 . S
O156 Zn157 2.028 . S
Zn157 O156 2.028 . S
Zn157 O161 2.035 . S
Zn157 O163 2.035 . S
Zn157 O164 2.028 . S
O158 C154 1.258 . S
O158 Zn159 2.035 . S
Zn159 O158 2.035 . S
Zn159 O160 2.028 . S
Zn159 O162 2.028 . S
Zn159 O165 2.035 . S
O160 Zn159 2.028 . S
O160 C166 1.247 . S
O161 Zn157 2.035 . S
O161 C166 1.258 . S
O162 C155 1.247 . S
O162 Zn159 2.028 . S
O163 C155 1.258 . S
O163 Zn157 2.035 . S
O164 Zn157 2.028 . S
O164 C167 1.247 . S
O165 Zn159 2.035 . S
O165 C167 1.258 . S
C166 O160 1.247 . S
C166 O161 1.258 . S
C167 O164 1.247 . S
C167 O165 1.258 . S
C168 O170 1.247 . S
C168 O172 1.258 . S
C169 O176 1.247 . S
C169 O177 1.258 . S
O170 C168 1.247 . S
O170 Zn171 2.028 . S
Zn171 O170 2.028 . S
Zn171 O175 2.035 . S
Zn171 O177 2.035 . S
Zn171 O178 2.028 . S
O172 C168 1.258 . S
O172 Zn173 2.035 . S
Zn173 O172 2.035 . S
Zn173 O174 2.028 . S
Zn173 O176 2.028 . S
Zn173 O179 2.035 . S
O174 Zn173 2.028 . S
O174 C180 1.247 . S
O175 Zn171 2.035 . S
O175 C180 1.258 . S
O176 C169 1.247 . S
O176 Zn173 2.028 . S
O177 C169 1.258 . S
O177 Zn171 2.035 . S
O178 Zn171 2.028 . S
O178 C181 1.247 . S
O179 Zn173 2.035 . S
O179 C181 1.258 . S
C180 O174 1.247 . S
C180 O175 1.258 . S
C181 O178 1.247 . S
C181 O179 1.258 . S
C182 O184 1.247 . S
C182 O186 1.258 . S
C183 O190 1.247 . S
C183 O191 1.258 . S
O184 C182 1.247 . S
O184 Zn185 2.028 . S
Zn185 O184 2.028 . S
Zn185 O189 2.035 . S
Zn185 O191 2.035 . S
Zn185 O192 2.028 . S
O186 C182 1.258 . S
O186 Zn187 2.035 . S
Zn187 O186 2.035 . S
Zn187 O188 2.028 . S
Zn187 O190 2.028 . S
Zn187 O193 2.035 . S
O188 Zn187 2.028 . S
O188 C194 1.247 . S
O189 Zn185 2.035 . S
O189 C194 1.258 . S
O190 C183 1.247 . S
O190 Zn187 2.028 . S
O191 C183 1.258 . S
O191 Zn185 2.035 . S
O192 Zn185 2.028 . S
O192 C195 1.247 . S
O193 Zn187 2.035 . S
O193 C195 1.258 . S
C194 O188 1.247 . S
C194 O189 1.258 . S
C195 O192 1.247 . S
C195 O193 1.258 . S
C196 O198 1.247 . S
C196 O200 1.258 . S
C197 O204 1.247 . S
C197 O205 1.258 . S
O198 C196 1.247 . S
O198 Zn199 2.028 1_556 S
Zn199 O198 2.028 1_554 S
Zn199 O203 2.035 . S
Zn199 O205 2.035 . S
Zn199 O206 2.028 . S
O200 C196 1.258 . S
O200 Zn201 2.035 1_556 S
Zn201 O200 2.035 1_554 S
Zn201 O202 2.028 . S
Zn201 O204 2.028 . S
Zn201 O207 2.035 . S
O202 Zn201 2.028 . S
O202 C208 1.247 . S
O203 Zn199 2.035 . S
O203 C208 1.258 . S
O204 C197 1.247 . S
O204 Zn201 2.028 . S
O205 C197 1.258 . S
O205 Zn199 2.035 . S
O206 Zn199 2.028 . S
O206 C209 1.247 . S
O207 Zn201 2.035 . S
O207 C209 1.258 . S
C208 O202 1.247 . S
C208 O203 1.258 . S
C209 O206 1.247 . S
C209 O207 1.258 . S
C210 O212 1.247 . S
C210 O214 1.258 . S
C211 O218 1.247 . S
C211 O219 1.258 . S
O212 C210 1.247 . S
O212 Zn213 2.028 . S
Zn213 O212 2.028 . S
Zn213 O217 2.035 . S
Zn213 O219 2.035 . S
Zn213 O220 2.028 . S
O214 C210 1.258 . S
O214 Zn215 2.035 . S
Zn215 O214 2.035 . S
Zn215 O216 2.028 . S
Zn215 O218 2.028 . S
Zn215 O221 2.035 . S
O216 Zn215 2.028 . S
O216 C222 1.247 . S
O217 Zn213 2.035 . S
O217 C222 1.258 . S
O218 C211 1.247 . S
O218 Zn215 2.028 . S
O219 C211 1.258 . S
O219 Zn213 2.035 . S
O220 Zn213 2.028 . S
O220 C223 1.247 . S
O221 Zn215 2.035 . S
O221 C223 1.258 . S
C222 O216 1.247 . S
C222 O217 1.258 . S
C223 O220 1.247 . S
C223 O221 1.258 . S
C224 O226 1.247 . S
C224 O228 1.258 1_545 S
C225 O232 1.247 . S
C225 O233 1.258 . S
O226 C224 1.247 . S
O226 Zn227 2.028 . S
Zn227 O226 2.028 . S
Zn227 O231 2.035 . S
Zn227 O233 2.035 1_545 S
Zn227 O234 2.028 . S
O228 C224 1.258 1_565 S
O228 Zn229 2.035 . S
Zn229 O228 2.035 . S
Zn229 O230 2.028 . S
Zn229 O232 2.028 . S
Zn229 O235 2.035 . S
O230 Zn229 2.028 . S
O230 C236 1.247 . S
O231 Zn227 2.035 . S
O231 C236 1.258 1_545 S
O232 C225 1.247 . S
O232 Zn229 2.028 . S
O233 C225 1.258 . S
O233 Zn227 2.035 1_565 S
O234 Zn227 2.028 . S
O234 C237 1.247 1_545 S
O235 Zn229 2.035 . S
O235 C237 1.258 . S
C236 O230 1.247 . S
C236 O231 1.258 1_565 S
C237 O234 1.247 1_565 S
C237 O235 1.258 . S
C238 O240 1.247 . S
C238 O242 1.258 . S
C239 O246 1.247 . S
C239 O247 1.258 . S
O240 C238 1.247 . S
O240 Zn241 2.028 . S
Zn241 O240 2.028 . S
Zn241 O245 2.035 . S
Zn241 O247 2.035 . S
Zn241 O248 2.028 . S
O242 C238 1.258 . S
O242 Zn243 2.035 . S
Zn243 O242 2.035 . S
Zn243 O244 2.028 . S
Zn243 O246 2.028 . S
Zn243 O249 2.035 . S
O244 Zn243 2.028 . S
O244 C250 1.247 . S
O245 Zn241 2.035 . S
O245 C250 1.258 . S
O246 C239 1.247 . S
O246 Zn243 2.028 . S
O247 C239 1.258 . S
O247 Zn241 2.035 . S
O248 Zn241 2.028 . S
O248 C251 1.247 . S
O249 Zn243 2.035 . S
O249 C251 1.258 . S
C250 O244 1.247 . S
C250 O245 1.258 . S
C251 O248 1.247 . S
C251 O249 1.258 . S
C252 O254 1.247 . S
C252 O256 1.258 1_545 S
C253 O260 1.247 1_545 S
C253 O261 1.258 . S
O254 C252 1.247 . S
O254 Zn255 2.028 1_556 S
Zn255 O254 2.028 1_554 S
Zn255 O259 2.035 . S
Zn255 O261 2.035 . S
Zn255 O262 2.028 . S
O256 C252 1.258 1_565 S
O256 Zn257 2.035 1_556 S
Zn257 O256 2.035 1_554 S
Zn257 O258 2.028 1_565 S
Zn257 O260 2.028 . S
Zn257 O263 2.035 . S
O258 Zn257 2.028 1_545 S
O258 C264 1.247 . S
O259 Zn255 2.035 . S
O259 C264 1.258 . S
O260 C253 1.247 1_565 S
O260 Zn257 2.028 . S
O261 C253 1.258 . S
O261 Zn255 2.035 . S
O262 Zn255 2.028 . S
O262 C265 1.247 1_545 S
O263 Zn257 2.035 . S
O263 C265 1.258 . S
C264 O258 1.247 . S
C264 O259 1.258 . S
C265 O262 1.247 1_565 S
C265 O263 1.258 . S
C266 O268 1.247 . S
C266 O270 1.258 . S
C267 O274 1.247 . S
C267 O275 1.258 . S
O268 C266 1.247 . S
O268 Zn269 2.028 . S
Zn269 O268 2.028 . S
Zn269 O273 2.035 . S
Zn269 O275 2.035 . S
Zn269 O276 2.028 . S
O270 C266 1.258 . S
O270 Zn271 2.035 . S
Zn271 O270 2.035 . S
Zn271 O272 2.028 . S
Zn271 O274 2.028 . S
Zn271 O277 2.035 . S
O272 Zn271 2.028 . S
O272 C278 1.247 . S
O273 Zn269 2.035 . S
O273 C278 1.258 . S
O274 C267 1.247 . S
O274 Zn271 2.028 . S
O275 C267 1.258 . S
O275 Zn269 2.035 . S
O276 Zn269 2.028 . S
O276 C279 1.247 . S
O277 Zn271 2.035 . S
O277 C279 1.258 . S
C278 O272 1.247 . S
C278 O273 1.258 . S
C279 O276 1.247 . S
C279 O277 1.258 . S
C280 O282 1.247 . S
C280 O284 1.258 1_565 S
C281 O288 1.247 . S
C281 O289 1.258 . S
O282 C280 1.247 . S
O282 Zn283 2.028 . S
Zn283 O282 2.028 . S
Zn283 O287 2.035 1_554 S
Zn283 O289 2.035 1_565 S
Zn283 O290 2.028 . S
O284 C280 1.258 1_545 S
O284 Zn285 2.035 . S
Zn285 O284 2.035 . S
Zn285 O286 2.028 1_554 S
Zn285 O288 2.028 . S
Zn285 O291 2.035 . S
O286 Zn285 2.028 1_556 S
O286 C292 1.247 . S
O287 Zn283 2.035 1_556 S
O287 C292 1.258 1_565 S
O288 C281 1.247 . S
O288 Zn285 2.028 . S
O289 C281 1.258 . S
O289 Zn283 2.035 1_545 S
O290 Zn283 2.028 . S
O290 C293 1.247 1_565 S
O291 Zn285 2.035 . S
O291 C293 1.258 . S
C292 O286 1.247 . S
C292 O287 1.258 1_545 S
C293 O290 1.247 1_545 S
C293 O291 1.258 . S
C294 O296 1.247 . S
C294 O298 1.258 . S
C295 O302 1.247 . S
C295 O303 1.258 . S
O296 C294 1.247 . S
O296 Zn297 2.028 . S
Zn297 O296 2.028 . S
Zn297 O301 2.035 . S
Zn297 O303 2.035 . S
Zn297 O304 2.028 . S
O298 C294 1.258 . S
O298 Zn299 2.035 . S
Zn299 O298 2.035 . S
Zn299 O300 2.028 . S
Zn299 O302 2.028 . S
Zn299 O305 2.035 . S
O300 Zn299 2.028 . S
O300 C306 1.247 . S
O301 Zn297 2.035 . S
O301 C306 1.258 . S
O302 C295 1.247 . S
O302 Zn299 2.028 . S
O303 C295 1.258 . S
O303 Zn297 2.035 . S
O304 Zn297 2.028 . S
O304 C307 1.247 . S
O305 Zn299 2.035 . S
O305 C307 1.258 . S
C306 O300 1.247 . S
C306 O301 1.258 . S
C307 O304 1.247 . S
C307 O305 1.258 . S
C308 O310 1.247 . S
C308 O312 1.258 1_565 S
C309 O316 1.247 1_565 S
C309 O317 1.258 . S
O310 C308 1.247 . S
O310 Zn311 2.028 . S
Zn311 O310 2.028 . S
Zn311 O315 2.035 . S
Zn311 O317 2.035 . S
Zn311 O318 2.028 . S
O312 C308 1.258 1_545 S
O312 Zn313 2.035 . S
Zn313 O312 2.035 . S
Zn313 O314 2.028 1_545 S
Zn313 O316 2.028 . S
Zn313 O319 2.035 . S
O314 Zn313 2.028 1_565 S
O314 C320 1.247 . S
O315 Zn311 2.035 . S
O315 C320 1.258 . S
O316 C309 1.247 1_545 S
O316 Zn313 2.028 . S
O317 C309 1.258 . S
O317 Zn311 2.035 . S
O318 Zn311 2.028 . S
O318 C321 1.247 1_565 S
O319 Zn313 2.035 . S
O319 C321 1.258 . S
C320 O314 1.247 . S
C320 O315 1.258 . S
C321 O318 1.247 1_545 S
C321 O319 1.258 . S
C322 O324 1.247 . S
C322 O326 1.258 . S
C323 O330 1.247 . S
C323 O331 1.258 . S
O324 C322 1.247 . S
O324 Zn325 2.028 . S
Zn325 O324 2.028 . S
Zn325 O329 2.035 . S
Zn325 O331 2.035 . S
Zn325 O332 2.028 . S
O326 C322 1.258 . S
O326 Zn327 2.035 . S
Zn327 O326 2.035 . S
Zn327 O328 2.028 . S
Zn327 O330 2.028 . S
Zn327 O333 2.035 . S
O328 Zn327 2.028 . S
O328 C334 1.247 . S
O329 Zn325 2.035 . S
O329 C334 1.258 . S
O330 C323 1.247 . S
O330 Zn327 2.028 . S
O331 C323 1.258 . S
O331 Zn325 2.035 . S
O332 Zn325 2.028 . S
O332 C335 1.247 . S
O333 Zn327 2.035 . S
O333 C335 1.258 . S
C334 O328 1.247 . S
C334 O329 1.258 . S
C335 O332 1.247 . S
C335 O333 1.258 . S
C336 O338 1.247 . S
C336 O340 1.258 . S
C337 O344 1.247 . S
C337 O345 1.258 1_565 S
O338 C336 1.247 . S
O338 Zn339 2.028 . S
Zn339 O338 2.028 . S
Zn339 O343 2.035 . S
Zn339 O345 2.035 . S
Zn339 O346 2.028 . S
O340 C336 1.258 . S
O340 Zn341 2.035 1_545 S
Zn341 O340 2.035 1_565 S
Zn341 O342 2.028 . S
Zn341 O344 2.028 . S
Zn341 O347 2.035 . S
O342 Zn341 2.028 . S
O342 C348 1.247 1_565 S
O343 Zn339 2.035 . S
O343 C348 1.258 . S
O344 C337 1.247 . S
O344 Zn341 2.028 . S
O345 C337 1.258 1_545 S
O345 Zn339 2.035 . S
O346 Zn339 2.028 . S
O346 C349 1.247 . S
O347 Zn341 2.035 . S
O347 C349 1.258 1_565 S
C348 O342 1.247 1_545 S
C348 O343 1.258 . S
C349 O346 1.247 . S
C349 O347 1.258 1_545 S
C350 O352 1.247 . S
C350 O354 1.258 . S
C351 O358 1.247 . S
C351 O359 1.258 . S
O352 C350 1.247 . S
O352 Zn353 2.028 . S
Zn353 O352 2.028 . S
Zn353 O357 2.035 . S
Zn353 O359 2.035 . S
Zn353 O360 2.028 . S
O354 C350 1.258 . S
O354 Zn355 2.035 . S
Zn355 O354 2.035 . S
Zn355 O356 2.028 . S
Zn355 O358 2.028 . S
Zn355 O361 2.035 . S
O356 Zn355 2.028 . S
O356 C362 1.247 . S
O357 Zn353 2.035 . S
O357 C362 1.258 . S
O358 C351 1.247 . S
O358 Zn355 2.028 . S
O359 C351 1.258 . S
O359 Zn353 2.035 . S
O360 Zn353 2.028 . S
O360 C363 1.247 . S
O361 Zn355 2.035 . S
O361 C363 1.258 . S
C362 O356 1.247 . S
C362 O357 1.258 . S
C363 O360 1.247 . S
C363 O361 1.258 . S
C364 O366 1.247 . S
C364 O368 1.258 . S
C365 O372 1.247 . S
C365 O373 1.258 1_545 S
O366 C364 1.247 . S
O366 Zn367 2.028 . S
Zn367 O366 2.028 . S
Zn367 O371 2.035 . S
Zn367 O373 2.035 . S
Zn367 O374 2.028 1_554 S
O368 C364 1.258 . S
O368 Zn369 2.035 1_565 S
Zn369 O368 2.035 1_545 S
Zn369 O370 2.028 . S
Zn369 O372 2.028 . S
Zn369 O375 2.035 1_554 S
O370 Zn369 2.028 . S
O370 C376 1.247 1_545 S
O371 Zn367 2.035 . S
O371 C376 1.258 . S
O372 C365 1.247 . S
O372 Zn369 2.028 . S
O373 C365 1.258 1_565 S
O373 Zn367 2.035 . S
O374 Zn367 2.028 1_556 S
O374 C377 1.247 . S
O375 Zn369 2.035 1_556 S
O375 C377 1.258 1_545 S
C376 O370 1.247 1_565 S
C376 O371 1.258 . S
C377 O374 1.247 . S
C377 O375 1.258 1_565 S
C378 O380 1.247 . S
C378 O382 1.258 . S
C379 O386 1.247 . S
C379 O387 1.258 . S
O380 C378 1.247 . S
O380 Zn381 2.028 . S
Zn381 O380 2.028 . S
Zn381 O385 2.035 . S
Zn381 O387 2.035 . S
Zn381 O388 2.028 . S
O382 C378 1.258 . S
O382 Zn383 2.035 . S
Zn383 O382 2.035 . S
Zn383 O384 2.028 . S
Zn383 O386 2.028 . S
Zn383 O389 2.035 . S
O384 Zn383 2.028 . S
O384 C390 1.247 . S
O385 Zn381 2.035 . S
O385 C390 1.258 . S
O386 C379 1.247 . S
O386 Zn383 2.028 . S
O387 C379 1.258 . S
O387 Zn381 2.035 . S
O388 Zn381 2.028 . S
O388 C391 1.247 . S
O389 Zn383 2.035 . S
O389 C391 1.258 . S
C390 O384 1.247 . S
C390 O385 1.258 . S
C391 O388 1.247 . S
C391 O389 1.258 . S
C392 O394 1.247 1_565 S
C392 O396 1.258 . S
C393 O400 1.247 . S
C393 O401 1.258 1_565 S
O394 C392 1.247 1_545 S
O394 Zn395 2.028 . S
Zn395 O394 2.028 . S
Zn395 O399 2.035 . S
Zn395 O401 2.035 1_554 S
Zn395 O402 2.028 1_545 S
O396 C392 1.258 . S
O396 Zn397 2.035 . S
Zn397 O396 2.035 . S
Zn397 O398 2.028 . S
Zn397 O400 2.028 1_554 S
Zn397 O403 2.035 . S
O398 Zn397 2.028 . S
O398 C404 1.247 1_565 S
O399 Zn395 2.035 . S
O399 C404 1.258 . S
O400 C393 1.247 . S
O400 Zn397 2.028 1_556 S
O401 C393 1.258 1_545 S
O401 Zn395 2.035 1_556 S
O402 Zn395 2.028 1_565 S
O402 C405 1.247 . S
O403 Zn397 2.035 . S
O403 C405 1.258 . S
C404 O398 1.247 1_545 S
C404 O399 1.258 . S
C405 O402 1.247 . S
C405 O403 1.258 . S
C406 O408 1.247 . S
C406 O410 1.258 . S
C407 O414 1.247 . S
C407 O415 1.258 . S
O408 C406 1.247 . S
O408 Zn409 2.028 . S
Zn409 O408 2.028 . S
Zn409 O413 2.035 . S
Zn409 O415 2.035 . S
Zn409 O416 2.028 . S
O410 C406 1.258 . S
O410 Zn411 2.035 . S
Zn411 O410 2.035 . S
Zn411 O412 2.028 . S
Zn411 O414 2.028 . S
Zn411 O417 2.035 . S
O412 Zn411 2.028 . S
O412 C418 1.247 . S
O413 Zn409 2.035 . S
O413 C418 1.258 . S
O414 C407 1.247 . S
O414 Zn411 2.028 . S
O415 C407 1.258 . S
O415 Zn409 2.035 . S
O416 Zn409 2.028 . S
O416 C419 1.247 . S
O417 Zn411 2.035 . S
O417 C419 1.258 . S
C418 O412 1.247 . S
C418 O413 1.258 . S
C419 O416 1.247 . S
C419 O417 1.258 . S
C420 O422 1.247 1_545 S
C420 O424 1.258 . S
C421 O428 1.247 . S
C421 O429 1.258 1_545 S
O422 C420 1.247 1_565 S
O422 Zn423 2.028 . S
Zn423 O422 2.028 . S
Zn423 O427 2.035 . S
Zn423 O429 2.035 . S
Zn423 O430 2.028 1_565 S
O424 C420 1.258 . S
O424 Zn425 2.035 . S
Zn425 O424 2.035 . S
Zn425 O426 2.028 . S
Zn425 O428 2.028 . S
Zn425 O431 2.035 . S
O426 Zn425 2.028 . S
O426 C432 1.247 1_545 S
O427 Zn423 2.035 . S
O427 C432 1.258 . S
O428 C421 1.247 . S
O428 Zn425 2.028 . S
O429 C421 1.258 1_565 S
O429 Zn423 2.035 . S
O430 Zn423 2.028 1_545 S
O430 C433 1.247 . S
O431 Zn425 2.035 . S
O431 C433 1.258 . S
C432 O426 1.247 1_565 S
C432 O427 1.258 . S
C433 O430 1.247 . S
C433 O431 1.258 . S
C434 O436 1.247 . S
C434 O438 1.258 . S
C435 O442 1.247 . S
C435 O443 1.258 . S
O436 C434 1.247 . S
O436 Zn437 2.028 . S
Zn437 O436 2.028 . S
Zn437 O441 2.035 . S
Zn437 O443 2.035 . S
Zn437 O444 2.028 . S
O438 C434 1.258 . S
O438 Zn439 2.035 . S
Zn439 O438 2.035 . S
Zn439 O440 2.028 . S
Zn439 O442 2.028 . S
Zn439 O445 2.035 . S
O440 Zn439 2.028 . S
O440 C446 1.247 . S
O441 Zn437 2.035 . S
O441 C446 1.258 . S
O442 C435 1.247 . S
O442 Zn439 2.028 . S
O443 C435 1.258 . S
O443 Zn437 2.035 . S
O444 Zn437 2.028 . S
O444 C447 1.247 . S
O445 Zn439 2.035 . S
O445 C447 1.258 . S
C446 O440 1.247 . S
C446 O441 1.258 . S
C447 O444 1.247 . S
C447 O445 1.258 . S
C448 C449 1.363 . S
C448 C454 1.379 1_655 S
C448 N456 1.356 . S
C449 C448 1.363 . S
C449 C455 1.363 . S
C450 C451 1.363 . S
C450 C455 1.379 1_455 S
C450 N457 1.356 . S
C451 C450 1.363 . S
C451 C454 1.363 . S
N452 C454 1.356 . S
N452 H464 0.984 1_554 S
N452 H465 0.985 . S
N453 C455 1.356 . S
N453 H458 0.984 . S
N453 H459 0.985 . S
C454 C448 1.379 1_455 S
C454 C451 1.363 . S
C454 N452 1.356 . S
C455 C449 1.363 . S
C455 C450 1.379 1_655 S
C455 N453 1.356 . S
N456 C448 1.356 . S
N456 H462 0.984 1_554 S
N456 H463 0.984 . S
N457 C450 1.356 . S
N457 H460 0.984 . S
N457 H461 0.985 . S
H458 N453 0.984 . S
H459 N453 0.985 . S
H460 N457 0.984 . S
H461 N457 0.985 . S
H462 N456 0.984 1_556 S
H463 N456 0.984 . S
H464 N452 0.984 1_556 S
H465 N452 0.985 . S
C466 C467 1.363 . S
C466 C472 1.379 . S
C466 N474 1.356 . S
C467 C466 1.363 . S
C467 C473 1.363 . S
C468 C469 1.363 . S
C468 C473 1.379 . S
C468 N475 1.356 . S
C469 C468 1.363 . S
C469 C472 1.363 . S
N470 C472 1.356 . S
N470 H482 0.984 . S
N470 H483 0.985 . S
N471 C473 1.356 . S
N471 H476 0.984 . S
N471 H477 0.985 . S
C472 C466 1.379 . S
C472 C469 1.363 . S
C472 N470 1.356 . S
C473 C467 1.363 . S
C473 C468 1.379 . S
C473 N471 1.356 . S
N474 C466 1.356 . S
N474 H480 0.984 . S
N474 H481 0.984 . S
N475 C468 1.356 . S
N475 H478 0.984 . S
N475 H479 0.985 . S
H476 N471 0.984 . S
H477 N471 0.985 . S
H478 N475 0.984 . S
H479 N475 0.985 . S
H480 N474 0.984 . S
H481 N474 0.984 . S
H482 N470 0.984 . S
H483 N470 0.985 . S
C484 C485 1.363 . S
C484 C490 1.379 . S
C484 N492 1.356 . S
C485 C484 1.363 . S
C485 C491 1.363 . S
C486 C487 1.363 . S
C486 C491 1.379 . S
C486 N493 1.356 . S
C487 C486 1.363 . S
C487 C490 1.363 . S
N488 C490 1.356 . S
N488 H500 0.984 . S
N488 H501 0.985 . S
N489 C491 1.356 . S
N489 H494 0.984 . S
N489 H495 0.985 . S
C490 C484 1.379 . S
C490 C487 1.363 . S
C490 N488 1.356 . S
C491 C485 1.363 . S
C491 C486 1.379 . S
C491 N489 1.356 . S
N492 C484 1.356 . S
N492 H498 0.984 . S
N492 H499 0.984 . S
N493 C486 1.356 . S
N493 H496 0.984 . S
N493 H497 0.985 . S
H494 N489 0.984 . S
H495 N489 0.985 . S
H496 N493 0.984 . S
H497 N493 0.985 . S
H498 N492 0.984 . S
H499 N492 0.984 . S
H500 N488 0.984 . S
H501 N488 0.985 . S
C502 C503 1.363 . S
C502 C508 1.379 . S
C502 N510 1.356 . S
C503 C502 1.363 . S
C503 C509 1.363 . S
C504 C505 1.363 . S
C504 C509 1.379 . S
C504 N511 1.356 . S
C505 C504 1.363 . S
C505 C508 1.363 . S
N506 C508 1.356 . S
N506 H518 0.984 . S
N506 H519 0.985 . S
N507 C509 1.356 . S
N507 H512 0.984 . S
N507 H513 0.985 . S
C508 C502 1.379 . S
C508 C505 1.363 . S
C508 N506 1.356 . S
C509 C503 1.363 . S
C509 C504 1.379 . S
C509 N507 1.356 . S
N510 C502 1.356 . S
N510 H516 0.984 . S
N510 H517 0.984 . S
N511 C504 1.356 . S
N511 H514 0.984 . S
N511 H515 0.985 . S
H512 N507 0.984 . S
H513 N507 0.985 . S
H514 N511 0.984 . S
H515 N511 0.985 . S
H516 N510 0.984 . S
H517 N510 0.984 . S
H518 N506 0.984 . S
H519 N506 0.985 . S
C520 C521 1.363 . S
C520 C526 1.379 1_455 S
C520 N528 1.356 . S
C521 C520 1.363 . S
C521 C527 1.363 . S
C522 C523 1.363 . S
C522 C527 1.379 1_655 S
C522 N529 1.356 . S
C523 C522 1.363 . S
C523 C526 1.363 . S
N524 C526 1.356 . S
N524 H536 0.984 . S
N524 H537 0.985 . S
N525 C527 1.356 . S
N525 H530 0.984 . S
N525 H531 0.985 . S
C526 C520 1.379 1_655 S
C526 C523 1.363 . S
C526 N524 1.356 . S
C527 C521 1.363 . S
C527 C522 1.379 1_455 S
C527 N525 1.356 . S
N528 C520 1.356 . S
N528 H534 0.984 . S
N528 H535 0.984 . S
N529 C522 1.356 . S
N529 H532 0.984 . S
N529 H533 0.985 . S
H530 N525 0.984 . S
H531 N525 0.985 . S
H532 N529 0.984 . S
H533 N529 0.985 . S
H534 N528 0.984 . S
H535 N528 0.984 . S
H536 N524 0.984 . S
H537 N524 0.985 . S
C538 C539 1.363 . S
C538 C544 1.379 . S
C538 N546 1.356 . S
C539 C538 1.363 . S
C539 C545 1.363 . S
C540 C541 1.363 . S
C540 C545 1.379 . S
C540 N547 1.356 . S
C541 C540 1.363 . S
C541 C544 1.363 . S
N542 C544 1.356 . S
N542 H554 0.984 . S
N542 H555 0.985 . S
N543 C545 1.356 . S
N543 H548 0.984 . S
N543 H549 0.985 . S
C544 C538 1.379 . S
C544 C541 1.363 . S
C544 N542 1.356 . S
C545 C539 1.363 . S
C545 C540 1.379 . S
C545 N543 1.356 . S
N546 C538 1.356 . S
N546 H552 0.984 . S
N546 H553 0.984 . S
N547 C540 1.356 . S
N547 H550 0.984 . S
N547 H551 0.985 . S
H548 N543 0.984 . S
H549 N543 0.985 . S
H550 N547 0.984 . S
H551 N547 0.985 . S
H552 N546 0.984 . S
H553 N546 0.984 . S
H554 N542 0.984 . S
H555 N542 0.985 . S
C556 C557 1.363 . S
C556 C562 1.379 . S
C556 N564 1.356 1_554 S
C557 C556 1.363 . S
C557 C563 1.363 . S
C558 C559 1.363 . S
C558 C563 1.379 . S
C558 N565 1.356 . S
C559 C558 1.363 . S
C559 C562 1.363 . S
N560 C562 1.356 . S
N560 H572 0.985 1_554 S
N560 H573 0.984 . S
N561 C563 1.356 . S
N561 H566 0.984 . S
N561 H567 0.985 . S
C562 C556 1.379 . S
C562 C559 1.363 . S
C562 N560 1.356 . S
C563 C557 1.363 . S
C563 C558 1.379 . S
C563 N561 1.356 . S
N564 C556 1.356 1_556 S
N564 H570 0.984 . S
N564 H571 0.984 . S
N565 C558 1.356 . S
N565 H568 0.984 . S
N565 H569 0.985 . S
H566 N561 0.984 . S
H567 N561 0.985 . S
H568 N565 0.984 . S
H569 N565 0.985 . S
H570 N564 0.984 . S
H571 N564 0.984 . S
H572 N560 0.985 1_556 S
H573 N560 0.984 . S
C574 C575 1.363 . S
C574 C580 1.379 . S
C574 N582 1.356 . S
C575 C574 1.363 . S
C575 C581 1.363 . S
C576 C577 1.363 . S
C576 C581 1.379 . S
C576 N583 1.356 . S
C577 C576 1.363 . S
C577 C580 1.363 . S
N578 C580 1.356 . S
N578 H590 0.984 . S
N578 H591 0.985 . S
N579 C581 1.356 . S
N579 H584 0.984 . S
N579 H585 0.985 . S
C580 C574 1.379 . S
C580 C577 1.363 . S
C580 N578 1.356 . S
C581 C575 1.363 . S
C581 C576 1.379 . S
C581 N579 1.356 . S
N582 C574 1.356 . S
N582 H588 0.984 . S
N582 H589 0.984 . S
N583 C576 1.356 . S
N583 H586 0.984 . S
N583 H587 0.985 . S
H584 N579 0.984 . S
H585 N579 0.985 . S
H586 N583 0.984 . S
H587 N583 0.985 . S
H588 N582 0.984 . S
H589 N582 0.984 . S
H590 N578 0.984 . S
H591 N578 0.985 . S
C592 C593 1.363 . S
C592 C598 1.379 . S
C592 N600 1.356 . S
C593 C592 1.363 . S
C593 C599 1.363 . S
C594 C595 1.363 . S
C594 C599 1.379 . S
C594 N601 1.356 . S
C595 C594 1.363 . S
C595 C598 1.363 . S
N596 C598 1.356 . S
N596 H608 0.984 . S
N596 H609 0.985 . S
N597 C599 1.356 . S
N597 H602 0.984 . S
N597 H603 0.985 . S
C598 C592 1.379 . S
C598 C595 1.363 . S
C598 N596 1.356 . S
C599 C593 1.363 . S
C599 C594 1.379 . S
C599 N597 1.356 . S
N600 C592 1.356 . S
N600 H606 0.984 . S
N600 H607 0.984 . S
N601 C594 1.356 . S
N601 H604 0.984 . S
N601 H605 0.985 . S
H602 N597 0.984 . S
H603 N597 0.985 . S
H604 N601 0.984 . S
H605 N601 0.985 . S
H606 N600 0.984 . S
H607 N600 0.984 . S
H608 N596 0.984 . S
H609 N596 0.985 . S
C610 C611 1.363 . S
C610 C616 1.379 . S
C610 N618 1.356 . S
C611 C610 1.363 . S
C611 C617 1.363 . S
C612 C613 1.363 . S
C612 C617 1.379 . S
C612 N619 1.356 . S
C613 C612 1.363 . S
C613 C616 1.363 . S
N614 C616 1.356 . S
N614 H626 0.984 . S
N614 H627 0.985 . S
N615 C617 1.356 . S
N615 H620 0.984 . S
N615 H621 0.985 . S
C616 C610 1.379 . S
C616 C613 1.363 . S
C616 N614 1.356 . S
C617 C611 1.363 . S
C617 C612 1.379 . S
C617 N615 1.356 . S
N618 C610 1.356 . S
N618 H624 0.984 . S
N618 H625 0.984 . S
N619 C612 1.356 . S
N619 H622 0.984 . S
N619 H623 0.985 . S
H620 N615 0.984 . S
H621 N615 0.985 . S
H622 N619 0.984 . S
H623 N619 0.985 . S
H624 N618 0.984 . S
H625 N618 0.984 . S
H626 N614 0.984 . S
H627 N614 0.985 . S
C628 C629 1.363 . S
C628 C634 1.379 . S
C628 N636 1.356 . S
C629 C628 1.363 . S
C629 C635 1.363 . S
C630 C631 1.363 . S
C630 C635 1.379 . S
C630 N637 1.356 . S
C631 C630 1.363 . S
C631 C634 1.363 . S
N632 C634 1.356 . S
N632 H644 0.984 . S
N632 H645 0.985 . S
N633 C635 1.356 . S
N633 H638 0.984 . S
N633 H639 0.985 . S
C634 C628 1.379 . S
C634 C631 1.363 . S
C634 N632 1.356 . S
C635 C629 1.363 . S
C635 C630 1.379 . S
C635 N633 1.356 . S
N636 C628 1.356 . S
N636 H642 0.984 . S
N636 H643 0.984 . S
N637 C630 1.356 . S
N637 H640 0.984 . S
N637 H641 0.985 . S
H638 N633 0.984 . S
H639 N633 0.985 . S
H640 N637 0.984 . S
H641 N637 0.985 . S
H642 N636 0.984 . S
H643 N636 0.984 . S
H644 N632 0.984 . S
H645 N632 0.985 . S
C646 C647 1.363 . S
C646 C652 1.379 . S
C646 N654 1.356 . S
C647 C646 1.363 . S
C647 C653 1.363 . S
C648 C649 1.363 . S
C648 C653 1.379 . S
C648 N655 1.356 . S
C649 C648 1.363 . S
C649 C652 1.363 . S
N650 C652 1.356 . S
N650 H662 0.984 . S
N650 H663 0.985 . S
N651 C653 1.356 . S
N651 H656 0.984 . S
N651 H657 0.985 . S
C652 C646 1.379 . S
C652 C649 1.363 . S
C652 N650 1.356 . S
C653 C647 1.363 . S
C653 C648 1.379 . S
C653 N651 1.356 . S
N654 C646 1.356 . S
N654 H660 0.984 . S
N654 H661 0.984 . S
N655 C648 1.356 . S
N655 H658 0.984 . S
N655 H659 0.985 . S
H656 N651 0.984 . S
H657 N651 0.985 . S
H658 N655 0.984 . S
H659 N655 0.985 . S
H660 N654 0.984 . S
H661 N654 0.984 . S
H662 N650 0.984 . S
H663 N650 0.985 . S
C664 C665 1.363 1_545 S
C664 C670 1.379 . S
C664 N672 1.356 . S
C665 C664 1.363 1_565 S
C665 C671 1.363 . S
C666 C667 1.363 1_565 S
C666 C671 1.379 . S
C666 N673 1.356 . S
C667 C666 1.363 1_545 S
C667 C670 1.363 . S
N668 C670 1.356 . S
N668 H680 0.984 . S
N668 H681 0.985 . S
N669 C671 1.356 . S
N669 H674 0.984 . S
N669 H675 0.985 . S
C670 C664 1.379 . S
C670 C667 1.363 . S
C670 N668 1.356 . S
C671 C665 1.363 . S
C671 C666 1.379 . S
C671 N669 1.356 . S
N672 C664 1.356 . S
N672 H678 0.984 . S
N672 H679 0.984 . S
N673 C666 1.356 . S
N673 H676 0.984 . S
N673 H677 0.985 . S
H674 N669 0.984 . S
H675 N669 0.985 . S
H676 N673 0.984 . S
H677 N673 0.985 . S
H678 N672 0.984 . S
H679 N672 0.984 . S
H680 N668 0.984 . S
H681 N668 0.985 . S
C682 C683 1.363 . S
C682 C688 1.379 1_655 S
C682 N690 1.356 1_554 S
C683 C682 1.363 . S
C683 C689 1.363 1_565 S
C684 C685 1.363 . S
C684 C689 1.379 1_455 S
C684 N691 1.356 . S
C685 C684 1.363 . S
C685 C688 1.363 1_545 S
N686 C688 1.356 1_556 S
N686 H698 0.984 . S
N686 H699 0.985 1_556 S
N687 C689 1.356 . S
N687 H692 0.984 . S
N687 H693 0.985 . S
C688 C682 1.379 1_455 S
C688 C685 1.363 1_565 S
C688 N686 1.356 1_554 S
C689 C683 1.363 1_545 S
C689 C684 1.379 1_655 S
C689 N687 1.356 . S
N690 C682 1.356 1_556 S
N690 H696 0.984 . S
N690 H697 0.984 . S
N691 C684 1.356 . S
N691 H694 0.984 . S
N691 H695 0.985 . S
H692 N687 0.984 . S
H693 N687 0.985 . S
H694 N691 0.984 . S
H695 N691 0.985 . S
H696 N690 0.984 . S
H697 N690 0.984 . S
H698 N686 0.984 . S
H699 N686 0.985 1_554 S
C700 C701 1.363 1_545 S
C700 C706 1.379 . S
C700 N708 1.356 1_554 S
C701 C700 1.363 1_565 S
C701 C707 1.363 . S
C702 C703 1.363 1_565 S
C702 C707 1.379 . S
C702 N709 1.356 . S
C703 C702 1.363 1_545 S
C703 C706 1.363 . S
N704 C706 1.356 1_556 S
N704 H716 0.984 . S
N704 H717 0.985 . S
N705 C707 1.356 . S
N705 H710 0.984 . S
N705 H711 0.985 . S
C706 C700 1.379 . S
C706 C703 1.363 . S
C706 N704 1.356 1_554 S
C707 C701 1.363 . S
C707 C702 1.379 . S
C707 N705 1.356 . S
N708 C700 1.356 1_556 S
N708 H714 0.984 . S
N708 H715 0.984 1_545 S
N709 C702 1.356 . S
N709 H712 0.984 1_565 S
N709 H713 0.985 . S
H710 N705 0.984 . S
H711 N705 0.985 . S
H712 N709 0.984 1_545 S
H713 N709 0.985 . S
H714 N708 0.984 . S
H715 N708 0.984 1_565 S
H716 N704 0.984 . S
H717 N704 0.985 . S
C718 C719 1.363 . S
C718 C724 1.379 1_455 S
C718 N726 1.356 . S
C719 C718 1.363 . S
C719 C725 1.363 1_565 S
C720 C721 1.363 . S
C720 C725 1.379 1_655 S
C720 N727 1.356 . S
C721 C720 1.363 . S
C721 C724 1.363 1_545 S
N722 C724 1.356 . S
N722 H734 0.984 . S
N722 H735 0.985 . S
N723 C725 1.356 . S
N723 H728 0.984 . S
N723 H729 0.985 . S
C724 C718 1.379 1_655 S
C724 C721 1.363 1_565 S
C724 N722 1.356 . S
C725 C719 1.363 1_545 S
C725 C720 1.379 1_455 S
C725 N723 1.356 . S
N726 C718 1.356 . S
N726 H732 0.984 . S
N726 H733 0.984 . S
N727 C720 1.356 . S
N727 H730 0.984 . S
N727 H731 0.985 . S
H728 N723 0.984 . S
H729 N723 0.985 . S
H730 N727 0.984 . S
H731 N727 0.985 . S
H732 N726 0.984 . S
H733 N726 0.984 . S
H734 N722 0.984 . S
H735 N722 0.985 . S
C736 C737 1.363 . S
C736 C742 1.379 . S
C736 N744 1.356 . S
C737 C736 1.363 . S
C737 C743 1.363 . S
C738 C739 1.363 . S
C738 C743 1.379 . S
C738 N745 1.356 . S
C739 C738 1.363 . S
C739 C742 1.363 . S
N740 C742 1.356 . S
N740 H752 0.984 . S
N740 H753 0.985 . S
N741 C743 1.356 . S
N741 H746 0.984 . S
N741 H747 0.985 . S
C742 C736 1.379 . S
C742 C739 1.363 . S
C742 N740 1.356 . S
C743 C737 1.363 . S
C743 C738 1.379 . S
C743 N741 1.356 . S
N744 C736 1.356 . S
N744 H750 0.984 . S
N744 H751 0.984 . S
N745 C738 1.356 . S
N745 H748 0.984 . S
N745 H749 0.985 . S
H746 N741 0.984 . S
H747 N741 0.985 . S
H748 N745 0.984 . S
H749 N745 0.985 . S
H750 N744 0.984 . S
H751 N744 0.984 . S
H752 N740 0.984 . S
H753 N740 0.985 . S
C754 C755 1.363 . S
C754 C760 1.379 . S
C754 N762 1.356 1_554 S
C755 C754 1.363 . S
C755 C761 1.363 . S
C756 C757 1.363 . S
C756 C761 1.379 . S
C756 N763 1.356 . S
C757 C756 1.363 . S
C757 C760 1.363 . S
N758 C760 1.356 . S
N758 H770 0.984 . S
N758 H771 0.985 . S
N759 C761 1.356 . S
N759 H764 0.984 1_554 S
N759 H765 0.985 . S
C760 C754 1.379 . S
C760 C757 1.363 . S
C760 N758 1.356 . S
C761 C755 1.363 . S
C761 C756 1.379 . S
C761 N759 1.356 . S
N762 C754 1.356 1_556 S
N762 H768 0.984 . S
N762 H769 0.984 . S
N763 C756 1.356 . S
N763 H766 0.984 . S
N763 H767 0.985 . S
H764 N759 0.984 1_556 S
H765 N759 0.985 . S
H766 N763 0.984 . S
H767 N763 0.985 . S
H768 N762 0.984 . S
H769 N762 0.984 . S
H770 N758 0.984 . S
H771 N758 0.985 . S
C772 C773 1.363 . S
C772 C778 1.379 . S
C772 N780 1.356 . S
C773 C772 1.363 . S
C773 C779 1.363 . S
C774 C775 1.363 . S
C774 C779 1.379 . S
C774 N781 1.356 . S
C775 C774 1.363 . S
C775 C778 1.363 . S
N776 C778 1.356 . S
N776 H788 0.984 . S
N776 H789 0.985 . S
N777 C779 1.356 . S
N777 H782 0.984 . S
N777 H783 0.985 . S
C778 C772 1.379 . S
C778 C775 1.363 . S
C778 N776 1.356 . S
C779 C773 1.363 . S
C779 C774 1.379 . S
C779 N777 1.356 . S
N780 C772 1.356 . S
N780 H786 0.984 . S
N780 H787 0.984 . S
N781 C774 1.356 . S
N781 H784 0.984 . S
N781 H785 0.985 . S
H782 N777 0.984 . S
H783 N777 0.985 . S
H784 N781 0.984 . S
H785 N781 0.985 . S
H786 N780 0.984 . S
H787 N780 0.984 . S
H788 N776 0.984 . S
H789 N776 0.985 . S
C790 C791 1.363 . S
C790 C796 1.379 . S
C790 N798 1.356 . S
C791 C790 1.363 . S
C791 C797 1.363 . S
C792 C793 1.363 . S
C792 C797 1.379 . S
C792 N799 1.356 . S
C793 C792 1.363 . S
C793 C796 1.363 . S
N794 C796 1.356 . S
N794 H806 0.984 . S
N794 H807 0.985 . S
N795 C797 1.356 . S
N795 H800 0.984 . S
N795 H801 0.985 . S
C796 C790 1.379 . S
C796 C793 1.363 . S
C796 N794 1.356 . S
C797 C791 1.363 . S
C797 C792 1.379 . S
C797 N795 1.356 . S
N798 C790 1.356 . S
N798 H804 0.984 . S
N798 H805 0.984 . S
N799 C792 1.356 . S
N799 H802 0.984 . S
N799 H803 0.985 . S
H800 N795 0.984 . S
H801 N795 0.985 . S
H802 N799 0.984 . S
H803 N799 0.985 . S
H804 N798 0.984 . S
H805 N798 0.984 . S
H806 N794 0.984 . S
H807 N794 0.985 . S
C808 C809 1.363 . S
C808 C814 1.379 . S
C808 N816 1.356 . S
C809 C808 1.363 . S
C809 C815 1.363 . S
C810 C811 1.363 . S
C810 C815 1.379 . S
C810 N817 1.356 . S
C811 C810 1.363 . S
C811 C814 1.363 . S
N812 C814 1.356 . S
N812 H824 0.984 . S
N812 H825 0.985 . S
N813 C815 1.356 . S
N813 H818 0.984 . S
N813 H819 0.985 . S
C814 C808 1.379 . S
C814 C811 1.363 . S
C814 N812 1.356 . S
C815 C809 1.363 . S
C815 C810 1.379 . S
C815 N813 1.356 . S
N816 C808 1.356 . S
N816 H822 0.984 . S
N816 H823 0.984 . S
N817 C810 1.356 . S
N817 H820 0.984 . S
N817 H821 0.985 . S
H818 N813 0.984 . S
H819 N813 0.985 . S
H820 N817 0.984 . S
H821 N817 0.985 . S
H822 N816 0.984 . S
H823 N816 0.984 . S
H824 N812 0.984 . S
H825 N812 0.985 . S
C826 C827 1.363 . S
C826 C832 1.379 . S
C826 N834 1.356 1_554 S
C827 C826 1.363 . S
C827 C833 1.363 . S
C828 C829 1.363 . S
C828 C833 1.379 . S
C828 N835 1.356 . S
C829 C828 1.363 . S
C829 C832 1.363 . S
N830 C832 1.356 . S
N830 H842 0.984 . S
N830 H843 0.985 . S
N831 C833 1.356 . S
N831 H836 0.984 1_554 S
N831 H837 0.985 . S
C832 C826 1.379 . S
C832 C829 1.363 . S
C832 N830 1.356 . S
C833 C827 1.363 . S
C833 C828 1.379 . S
C833 N831 1.356 . S
N834 C826 1.356 1_556 S
N834 H840 0.984 . S
N834 H841 0.984 . S
N835 C828 1.356 . S
N835 H838 0.984 . S
N835 H839 0.985 . S
H836 N831 0.984 1_556 S
H837 N831 0.985 . S
H838 N835 0.984 . S
H839 N835 0.985 . S
H840 N834 0.984 . S
H841 N834 0.984 . S
H842 N830 0.984 . S
H843 N830 0.985 . S
C844 C845 1.363 . S
C844 C850 1.379 . S
C844 N852 1.356 . S
C845 C844 1.363 . S
C845 C851 1.363 . S
C846 C847 1.363 . S
C846 C851 1.379 . S
C846 N853 1.356 . S
C847 C846 1.363 . S
C847 C850 1.363 . S
N848 C850 1.356 . S
N848 H860 0.984 . S
N848 H861 0.985 . S
N849 C851 1.356 . S
N849 H854 0.984 . S
N849 H855 0.985 . S
C850 C844 1.379 . S
C850 C847 1.363 . S
C850 N848 1.356 . S
C851 C845 1.363 . S
C851 C846 1.379 . S
C851 N849 1.356 . S
N852 C844 1.356 . S
N852 H858 0.984 . S
N852 H859 0.984 . S
N853 C846 1.356 . S
N853 H856 0.984 . S
N853 H857 0.985 . S
H854 N849 0.984 . S
H855 N849 0.985 . S
H856 N853 0.984 . S
H857 N853 0.985 . S
H858 N852 0.984 . S
H859 N852 0.984 . S
H860 N848 0.984 . S
H861 N848 0.985 . S
C862 C863 1.363 . S
C862 C868 1.379 . S
C862 N870 1.356 . S
C863 C862 1.363 . S
C863 C869 1.363 . S
C864 C865 1.363 . S
C864 C869 1.379 . S
C864 N871 1.356 . S
C865 C864 1.363 . S
C865 C868 1.363 . S
N866 C868 1.356 . S
N866 H878 0.984 . S
N866 H879 0.985 . S
N867 C869 1.356 . S
N867 H872 0.984 . S
N867 H873 0.985 . S
C868 C862 1.379 . S
C868 C865 1.363 . S
C868 N866 1.356 . S
C869 C863 1.363 . S
C869 C864 1.379 . S
C869 N867 1.356 . S
N870 C862 1.356 . S
N870 H876 0.984 . S
N870 H877 0.984 . S
N871 C864 1.356 . S
N871 H874 0.984 . S
N871 H875 0.985 . S
H872 N867 0.984 . S
H873 N867 0.985 . S
H874 N871 0.984 . S
H875 N871 0.985 . S
H876 N870 0.984 . S
H877 N870 0.984 . S
H878 N866 0.984 . S
H879 N866 0.985 . S
C880 C881 1.363 . S
C880 C886 1.379 . S
C880 N888 1.356 . S
C881 C880 1.363 . S
C881 C887 1.363 1_545 S
C882 C883 1.363 . S
C882 C887 1.379 . S
C882 N889 1.356 . S
C883 C882 1.363 . S
C883 C886 1.363 1_565 S
N884 C886 1.356 . S
N884 H896 0.984 . S
N884 H897 0.985 . S
N885 C887 1.356 . S
N885 H890 0.984 . S
N885 H891 0.985 . S
C886 C880 1.379 . S
C886 C883 1.363 1_545 S
C886 N884 1.356 . S
C887 C881 1.363 1_565 S
C887 C882 1.379 . S
C887 N885 1.356 . S
N888 C880 1.356 . S
N888 H894 0.984 . S
N888 H895 0.984 . S
N889 C882 1.356 . S
N889 H892 0.984 . S
N889 H893 0.985 . S
H890 N885 0.984 . S
H891 N885 0.985 . S
H892 N889 0.984 . S
H893 N889 0.985 . S
H894 N888 0.984 . S
H895 N888 0.984 . S
H896 N884 0.984 . S
H897 N884 0.985 . S
C898 C899 1.363 . S
C898 C904 1.379 . S
C898 N906 1.356 . S
C899 C898 1.363 . S
C899 C905 1.363 . S
C900 C901 1.363 . S
C900 C905 1.379 . S
C900 N907 1.356 . S
C901 C900 1.363 . S
C901 C904 1.363 . S
N902 C904 1.356 . S
N902 H914 0.984 . S
N902 H915 0.985 . S
N903 C905 1.356 . S
N903 H908 0.984 . S
N903 H909 0.985 . S
C904 C898 1.379 . S
C904 C901 1.363 . S
C904 N902 1.356 . S
C905 C899 1.363 . S
C905 C900 1.379 . S
C905 N903 1.356 . S
N906 C898 1.356 . S
N906 H912 0.984 . S
N906 H913 0.984 . S
N907 C900 1.356 . S
N907 H910 0.984 . S
N907 H911 0.985 . S
H908 N903 0.984 . S
H909 N903 0.985 . S
H910 N907 0.984 . S
H911 N907 0.985 . S
H912 N906 0.984 . S
H913 N906 0.984 . S
H914 N902 0.984 . S
H915 N902 0.985 . S
C916 C917 1.363 1_565 S
C916 C922 1.379 . S
C916 N924 1.356 . S
C917 C916 1.363 1_545 S
C917 C923 1.363 . S
C918 C919 1.363 1_545 S
C918 C923 1.379 . S
C918 N925 1.356 . S
C919 C918 1.363 1_565 S
C919 C922 1.363 . S
N920 C922 1.356 . S
N920 H932 0.984 . S
N920 H933 0.985 . S
N921 C923 1.356 . S
N921 H926 0.984 . S
N921 H927 0.985 . S
C922 C916 1.379 . S
C922 C919 1.363 . S
C922 N920 1.356 . S
C923 C917 1.363 . S
C923 C918 1.379 . S
C923 N921 1.356 . S
N924 C916 1.356 . S
N924 H930 0.984 . S
N924 H931 0.984 . S
N925 C918 1.356 . S
N925 H928 0.984 . S
N925 H929 0.985 . S
H926 N921 0.984 . S
H927 N921 0.985 . S
H928 N925 0.984 . S
H929 N925 0.985 . S
H930 N924 0.984 . S
H931 N924 0.984 . S
H932 N920 0.984 . S
H933 N920 0.985 . S
C934 C935 1.363 . S
C934 C940 1.379 . S
C934 N942 1.356 1_554 S
C935 C934 1.363 . S
C935 C941 1.363 . S
C936 C937 1.363 . S
C936 C941 1.379 . S
C936 N943 1.356 . S
C937 C936 1.363 . S
C937 C940 1.363 . S
N938 C940 1.356 . S
N938 H950 0.984 . S
N938 H951 0.985 . S
N939 C941 1.356 . S
N939 H944 0.984 1_554 S
N939 H945 0.985 . S
C940 C934 1.379 . S
C940 C937 1.363 . S
C940 N938 1.356 . S
C941 C935 1.363 . S
C941 C936 1.379 . S
C941 N939 1.356 . S
N942 C934 1.356 1_556 S
N942 H948 0.984 . S
N942 H949 0.984 . S
N943 C936 1.356 . S
N943 H946 0.984 . S
N943 H947 0.985 . S
H944 N939 0.984 1_556 S
H945 N939 0.985 . S
H946 N943 0.984 . S
H947 N943 0.985 . S
H948 N942 0.984 . S
H949 N942 0.984 . S
H950 N938 0.984 . S
H951 N938 0.985 . S
C952 C953 1.363 . S
C952 C958 1.379 . S
C952 N960 1.356 . S
C953 C952 1.363 . S
C953 C959 1.363 1_565 S
C954 C955 1.363 . S
C954 C959 1.379 . S
C954 N961 1.356 . S
C955 C954 1.363 . S
C955 C958 1.363 1_545 S
N956 C958 1.356 . S
N956 H968 0.984 . S
N956 H969 0.985 . S
N957 C959 1.356 . S
N957 H962 0.984 . S
N957 H963 0.985 . S
C958 C952 1.379 . S
C958 C955 1.363 1_565 S
C958 N956 1.356 . S
C959 C953 1.363 1_545 S
C959 C954 1.379 . S
C959 N957 1.356 . S
N960 C952 1.356 . S
N960 H966 0.984 . S
N960 H967 0.984 . S
N961 C954 1.356 . S
N961 H964 0.984 . S
N961 H965 0.985 . S
H962 N957 0.984 . S
H963 N957 0.985 . S
H964 N961 0.984 . S
H965 N961 0.985 . S
H966 N960 0.984 . S
H967 N960 0.984 . S
H968 N956 0.984 . S
H969 N956 0.985 . S
C970 C971 1.363 . S
C970 C976 1.379 . S
C970 N978 1.356 . S
C971 C970 1.363 . S
C971 C977 1.363 . S
C972 C973 1.363 . S
C972 C977 1.379 . S
C972 N979 1.356 . S
C973 C972 1.363 . S
C973 C976 1.363 . S
N974 C976 1.356 . S
N974 H986 0.984 . S
N974 H987 0.985 . S
N975 C977 1.356 . S
N975 H980 0.984 . S
N975 H981 0.985 . S
C976 C970 1.379 . S
C976 C973 1.363 . S
C976 N974 1.356 . S
C977 C971 1.363 . S
C977 C972 1.379 . S
C977 N975 1.356 . S
N978 C970 1.356 . S
N978 H984 0.984 . S
N978 H985 0.984 . S
N979 C972 1.356 . S
N979 H982 0.984 . S
N979 H983 0.985 . S
H980 N975 0.984 . S
H981 N975 0.985 . S
H982 N979 0.984 . S
H983 N979 0.985 . S
H984 N978 0.984 . S
H985 N978 0.984 . S
H986 N974 0.984 . S
H987 N974 0.985 . S
C988 C989 1.363 . S
C988 C994 1.379 . S
C988 N996 1.356 . S
C989 C988 1.363 . S
C989 C995 1.363 1_545 S
C990 C991 1.363 . S
C990 C995 1.379 . S
C990 N997 1.356 . S
C991 C990 1.363 . S
C991 C994 1.363 1_565 S
N992 C994 1.356 . S
N992 H1004 0.984 . S
N992 H1005 0.985 . S
N993 C995 1.356 . S
N993 H998 0.984 . S
N993 H999 0.985 . S
C994 C988 1.379 . S
C994 C991 1.363 1_545 S
C994 N992 1.356 . S
C995 C989 1.363 1_565 S
C995 C990 1.379 . S
C995 N993 1.356 . S
N996 C988 1.356 . S
N996 H1002 0.984 . S
N996 H1003 0.984 . S
N997 C990 1.356 . S
N997 H1000 0.984 . S
N997 H1001 0.985 . S
H998 N993 0.984 . S
H999 N993 0.985 . S
H1000 N997 0.984 . S
H1001 N997 0.985 . S
H1002 N996 0.984 . S
H1003 N996 0.984 . S
H1004 N992 0.984 . S
H1005 N992 0.985 . S
C1006 C1007 1.363 . S
C1006 C1012 1.379 . S
C1006 N1014 1.356 . S
C1007 C1006 1.363 . S
C1007 C1013 1.363 . S
C1008 C1009 1.363 . S
C1008 C1013 1.379 . S
C1008 N1015 1.356 . S
C1009 C1008 1.363 . S
C1009 C1012 1.363 . S
N1010 C1012 1.356 1_556 S
N1010 H1022 0.984 . S
N1010 H1023 0.985 . S
N1011 C1013 1.356 . S
N1011 H1016 0.984 . S
N1011 H1017 0.985 . S
C1012 C1006 1.379 . S
C1012 C1009 1.363 . S
C1012 N1010 1.356 1_554 S
C1013 C1007 1.363 . S
C1013 C1008 1.379 . S
C1013 N1011 1.356 . S
N1014 C1006 1.356 . S
N1014 H1020 0.984 . S
N1014 H1021 0.984 . S
N1015 C1008 1.356 . S
N1015 H1018 0.984 1_554 S
N1015 H1019 0.985 . S
H1016 N1011 0.984 . S
H1017 N1011 0.985 . S
H1018 N1015 0.984 1_556 S
H1019 N1015 0.985 . S
H1020 N1014 0.984 . S
H1021 N1014 0.984 . S
H1022 N1010 0.984 . S
H1023 N1010 0.985 . S
C1024 C1025 1.363 . S
C1024 C1030 1.379 . S
C1024 N1032 1.356 . S
C1025 C1024 1.363 . S
C1025 C1031 1.363 . S
C1026 C1027 1.363 . S
C1026 C1031 1.379 . S
C1026 N1033 1.356 . S
C1027 C1026 1.363 . S
C1027 C1030 1.363 . S
N1028 C1030 1.356 . S
N1028 H1040 0.984 . S
N1028 H1041 0.985 . S
N1029 C1031 1.356 . S
N1029 H1034 0.984 . S
N1029 H1035 0.985 . S
C1030 C1024 1.379 . S
C1030 C1027 1.363 . S
C1030 N1028 1.356 . S
C1031 C1025 1.363 . S
C1031 C1026 1.379 . S
C1031 N1029 1.356 . S
N1032 C1024 1.356 . S
N1032 H1038 0.984 . S
N1032 H1039 0.984 . S
N1033 C1026 1.356 . S
N1033 H1036 0.984 . S
N1033 H1037 0.985 . S
H1034 N1029 0.984 . S
H1035 N1029 0.985 . S
H1036 N1033 0.984 . S
H1037 N1033 0.985 . S
H1038 N1032 0.984 . S
H1039 N1032 0.984 . S
H1040 N1028 0.984 . S
H1041 N1028 0.985 . S
C1042 C1043 1.363 . S
C1042 C1048 1.379 . S
C1042 N1050 1.356 . S
C1043 C1042 1.363 . S
C1043 C1049 1.363 . S
C1044 C1045 1.363 . S
C1044 C1049 1.379 . S
C1044 N1051 1.356 . S
C1045 C1044 1.363 . S
C1045 C1048 1.363 . S
N1046 C1048 1.356 . S
N1046 H1058 0.984 . S
N1046 H1059 0.985 . S
N1047 C1049 1.356 . S
N1047 H1052 0.984 . S
N1047 H1053 0.985 . S
C1048 C1042 1.379 . S
C1048 C1045 1.363 . S
C1048 N1046 1.356 . S
C1049 C1043 1.363 . S
C1049 C1044 1.379 . S
C1049 N1047 1.356 . S
N1050 C1042 1.356 . S
N1050 H1056 0.984 . S
N1050 H1057 0.984 . S
N1051 C1044 1.356 . S
N1051 H1054 0.984 . S
N1051 H1055 0.985 . S
H1052 N1047 0.984 . S
H1053 N1047 0.985 . S
H1054 N1051 0.984 . S
H1055 N1051 0.985 . S
H1056 N1050 0.984 . S
H1057 N1050 0.984 . S
H1058 N1046 0.984 . S
H1059 N1046 0.985 . S
C1060 C1061 1.363 . S
C1060 C1066 1.379 . S
C1060 N1068 1.356 . S
C1061 C1060 1.363 . S
C1061 C1067 1.363 . S
C1062 C1063 1.363 . S
C1062 C1067 1.379 . S
C1062 N1069 1.356 . S
C1063 C1062 1.363 . S
C1063 C1066 1.363 . S
N1064 C1066 1.356 . S
N1064 H1076 0.984 . S
N1064 H1077 0.985 . S
N1065 C1067 1.356 . S
N1065 H1070 0.984 . S
N1065 H1071 0.985 . S
C1066 C1060 1.379 . S
C1066 C1063 1.363 . S
C1066 N1064 1.356 . S
C1067 C1061 1.363 . S
C1067 C1062 1.379 . S
C1067 N1065 1.356 . S
N1068 C1060 1.356 . S
N1068 H1074 0.984 . S
N1068 H1075 0.984 . S
N1069 C1062 1.356 . S
N1069 H1072 0.984 . S
N1069 H1073 0.985 . S
H1070 N1065 0.984 . S
H1071 N1065 0.985 . S
H1072 N1069 0.984 . S
H1073 N1069 0.985 . S
H1074 N1068 0.984 . S
H1075 N1068 0.984 . S
H1076 N1064 0.984 . S
H1077 N1064 0.985 . S
C1078 C1079 1.363 . S
C1078 C1084 1.379 . S
C1078 N1086 1.356 . S
C1079 C1078 1.363 . S
C1079 C1085 1.363 . S
C1080 C1081 1.367 . S
C1080 C1085 1.379 . S
C1080 N1087 1.356 1_554 S
C1081 C1080 1.367 . S
C1081 C1084 1.369 . S
N1082 C1084 1.364 . S
N1082 H1094 0.989 . S
N1082 H1095 0.973 1_554 S
N1083 C1085 1.356 . S
N1083 H1088 0.984 . S
N1083 H1089 0.985 . S
C1084 C1078 1.379 . S
C1084 C1081 1.369 . S
C1084 N1082 1.364 . S
C1085 C1079 1.363 . S
C1085 C1080 1.379 . S
C1085 N1083 1.356 . S
N1086 C1078 1.356 . S
N1086 H1092 0.984 . S
N1086 H1093 0.984 . S
N1087 C1080 1.356 1_556 S
N1087 H1090 0.984 . S
N1087 H1091 0.985 . S
H1088 N1083 0.984 . S
H1089 N1083 0.985 . S
H1090 N1087 0.984 . S
H1091 N1087 0.985 . S
H1092 N1086 0.984 . S
H1093 N1086 0.984 . S
H1094 N1082 0.989 . S
H1095 N1082 0.973 1_556 S
C1096 C1097 1.363 . S
C1096 C1102 1.379 . S
C1096 N1104 1.356 . S
C1097 C1096 1.363 . S
C1097 C1103 1.363 . S
C1098 C1099 1.363 . S
C1098 C1103 1.379 . S
C1098 N1105 1.356 . S
C1099 C1098 1.363 . S
C1099 C1102 1.363 . S
N1100 C1102 1.356 . S
N1100 H1112 0.984 . S
N1100 H1113 0.985 . S
N1101 C1103 1.356 . S
N1101 H1106 0.984 . S
N1101 H1107 0.985 . S
C1102 C1096 1.379 . S
C1102 C1099 1.363 . S
C1102 N1100 1.356 . S
C1103 C1097 1.363 . S
C1103 C1098 1.379 . S
C1103 N1101 1.356 . S
N1104 C1096 1.356 . S
N1104 H1110 0.984 . S
N1104 H1111 0.984 . S
N1105 C1098 1.356 . S
N1105 H1108 0.984 . S
N1105 H1109 0.985 . S
H1106 N1101 0.984 . S
H1107 N1101 0.985 . S
H1108 N1105 0.984 . S
H1109 N1105 0.985 . S
H1110 N1104 0.984 . S
H1111 N1104 0.984 . S
H1112 N1100 0.984 . S
H1113 N1100 0.985 . S
C1114 C1115 1.363 . S
C1114 C1120 1.379 . S
C1114 N1122 1.356 . S
C1115 C1114 1.363 . S
C1115 C1121 1.363 . S
C1116 C1117 1.363 . S
C1116 C1121 1.379 . S
C1116 N1123 1.356 . S
C1117 C1116 1.363 . S
C1117 C1120 1.363 . S
N1118 C1120 1.356 . S
N1118 H1130 0.984 . S
N1118 H1131 0.985 . S
N1119 C1121 1.356 . S
N1119 H1124 0.984 . S
N1119 H1125 0.985 . S
C1120 C1114 1.379 . S
C1120 C1117 1.363 . S
C1120 N1118 1.356 . S
C1121 C1115 1.363 . S
C1121 C1116 1.379 . S
C1121 N1119 1.356 . S
N1122 C1114 1.356 . S
N1122 H1128 0.984 . S
N1122 H1129 0.984 . S
N1123 C1116 1.356 . S
N1123 H1126 0.984 . S
N1123 H1127 0.985 . S
H1124 N1119 0.984 . S
H1125 N1119 0.985 . S
H1126 N1123 0.984 . S
H1127 N1123 0.985 . S
H1128 N1122 0.984 . S
H1129 N1122 0.984 . S
H1130 N1118 0.984 . S
H1131 N1118 0.985 . S
C1132 C1133 1.363 . S
C1132 C1138 1.379 . S
C1132 N1140 1.356 . S
C1133 C1132 1.363 . S
C1133 C1139 1.363 . S
C1134 C1135 1.363 . S
C1134 C1139 1.379 . S
C1134 N1141 1.356 . S
C1135 C1134 1.363 . S
C1135 C1138 1.363 . S
N1136 C1138 1.356 . S
N1136 H1148 0.984 . S
N1136 H1149 0.985 . S
N1137 C1139 1.356 . S
N1137 H1142 0.984 . S
N1137 H1143 0.985 . S
C1138 C1132 1.379 . S
C1138 C1135 1.363 . S
C1138 N1136 1.356 . S
C1139 C1133 1.363 . S
C1139 C1134 1.379 . S
C1139 N1137 1.356 . S
N1140 C1132 1.356 . S
N1140 H1146 0.984 . S
N1140 H1147 0.984 . S
N1141 C1134 1.356 . S
N1141 H1144 0.984 . S
N1141 H1145 0.985 . S
H1142 N1137 0.984 . S
H1143 N1137 0.985 . S
H1144 N1141 0.984 . S
H1145 N1141 0.985 . S
H1146 N1140 0.984 . S
H1147 N1140 0.984 . S
H1148 N1136 0.984 . S
H1149 N1136 0.985 . S
C1150 C1151 1.369 . S
C1150 C1156 1.379 . S
C1150 N1158 1.364 . S
C1151 C1150 1.369 . S
C1151 C1157 1.367 . S
C1152 C1153 1.363 . S
C1152 C1157 1.379 . S
C1152 N1159 1.356 . S
C1153 C1152 1.363 . S
C1153 C1156 1.363 . S
N1154 C1156 1.356 . S
N1154 H1166 0.984 . S
N1154 H1167 0.985 . S
N1155 C1157 1.356 1_556 S
N1155 H1160 0.984 . S
N1155 H1161 0.985 . S
C1156 C1150 1.379 . S
C1156 C1153 1.363 . S
C1156 N1154 1.356 . S
C1157 C1151 1.367 . S
C1157 C1152 1.379 . S
C1157 N1155 1.356 1_554 S
N1158 C1150 1.364 . S
N1158 H1164 0.989 . S
N1158 H1165 0.973 1_554 S
N1159 C1152 1.356 . S
N1159 H1162 0.984 . S
N1159 H1163 0.985 . S
H1160 N1155 0.984 . S
H1161 N1155 0.985 . S
H1162 N1159 0.984 . S
H1163 N1159 0.985 . S
H1164 N1158 0.989 . S
H1165 N1158 0.973 1_556 S
H1166 N1154 0.984 . S
H1167 N1154 0.985 . S
C1168 C1169 1.363 . S
C1168 C1174 1.379 . S
C1168 N1176 1.356 . S
C1169 C1168 1.363 . S
C1169 C1175 1.363 1_565 S
C1170 C1171 1.363 . S
C1170 C1175 1.379 . S
C1170 N1177 1.356 . S
C1171 C1170 1.363 . S
C1171 C1174 1.363 1_545 S
N1172 C1174 1.356 . S
N1172 H1184 0.984 . S
N1172 H1185 0.985 . S
N1173 C1175 1.356 . S
N1173 H1178 0.984 . S
N1173 H1179 0.985 . S
C1174 C1168 1.379 . S
C1174 C1171 1.363 1_565 S
C1174 N1172 1.356 . S
C1175 C1169 1.363 1_545 S
C1175 C1170 1.379 . S
C1175 N1173 1.356 . S
N1176 C1168 1.356 . S
N1176 H1182 0.984 . S
N1176 H1183 0.984 . S
N1177 C1170 1.356 . S
N1177 H1180 0.984 . S
N1177 H1181 0.985 . S
H1178 N1173 0.984 . S
H1179 N1173 0.985 . S
H1180 N1177 0.984 . S
H1181 N1177 0.985 . S
H1182 N1176 0.984 . S
H1183 N1176 0.984 . S
H1184 N1172 0.984 . S
H1185 N1172 0.985 . S
C1186 C1187 1.363 . S
C1186 C1192 1.379 . S
C1186 N1194 1.356 . S
C1187 C1186 1.363 . S
C1187 C1193 1.363 . S
C1188 C1189 1.367 . S
C1188 C1193 1.379 . S
C1188 N1195 1.356 1_554 S
C1189 C1188 1.367 . S
C1189 C1192 1.369 . S
N1190 C1192 1.364 . S
N1190 H1202 0.989 . S
N1190 H1203 0.973 1_554 S
N1191 C1193 1.356 . S
N1191 H1196 0.984 . S
N1191 H1197 0.985 . S
C1192 C1186 1.379 . S
C1192 C1189 1.369 . S
C1192 N1190 1.364 . S
C1193 C1187 1.363 . S
C1193 C1188 1.379 . S
C1193 N1191 1.356 . S
N1194 C1186 1.356 . S
N1194 H1200 0.984 . S
N1194 H1201 0.984 . S
N1195 C1188 1.356 1_556 S
N1195 H1198 0.984 . S
N1195 H1199 0.985 . S
H1196 N1191 0.984 . S
H1197 N1191 0.985 . S
H1198 N1195 0.984 . S
H1199 N1195 0.985 . S
H1200 N1194 0.984 . S
H1201 N1194 0.984 . S
H1202 N1190 0.989 . S
H1203 N1190 0.973 1_556 S
C1204 C1205 1.363 1_545 S
C1204 C1210 1.379 . S
C1204 N1212 1.356 . S
C1205 C1204 1.363 1_565 S
C1205 C1211 1.363 . S
C1206 C1207 1.363 1_565 S
C1206 C1211 1.379 . S
C1206 N1213 1.356 . S
C1207 C1206 1.363 1_545 S
C1207 C1210 1.363 . S
N1208 C1210 1.356 . S
N1208 H1220 0.984 . S
N1208 H1221 0.985 . S
N1209 C1211 1.356 . S
N1209 H1214 0.984 . S
N1209 H1215 0.985 . S
C1210 C1204 1.379 . S
C1210 C1207 1.363 . S
C1210 N1208 1.356 . S
C1211 C1205 1.363 . S
C1211 C1206 1.379 . S
C1211 N1209 1.356 . S
N1212 C1204 1.356 . S
N1212 H1218 0.984 . S
N1212 H1219 0.984 . S
N1213 C1206 1.356 . S
N1213 H1216 0.984 . S
N1213 H1217 0.985 . S
H1214 N1209 0.984 . S
H1215 N1209 0.985 . S
H1216 N1213 0.984 . S
H1217 N1213 0.985 . S
H1218 N1212 0.984 . S
H1219 N1212 0.984 . S
H1220 N1208 0.984 . S
H1221 N1208 0.985 . S
C1222 C1223 1.363 . S
C1222 C1228 1.379 . S
C1222 N1230 1.356 . S
C1223 C1222 1.363 . S
C1223 C1229 1.363 . S
C1224 C1225 1.363 . S
C1224 C1229 1.379 . S
C1224 N1231 1.356 . S
C1225 C1224 1.363 . S
C1225 C1228 1.363 . S
N1226 C1228 1.356 . S
N1226 H1238 0.984 . S
N1226 H1239 0.985 . S
N1227 C1229 1.356 . S
N1227 H1232 0.984 . S
N1227 H1233 0.985 . S
C1228 C1222 1.379 . S
C1228 C1225 1.363 . S
C1228 N1226 1.356 . S
C1229 C1223 1.363 . S
C1229 C1224 1.379 . S
C1229 N1227 1.356 . S
N1230 C1222 1.356 . S
N1230 H1236 0.984 . S
N1230 H1237 0.984 . S
N1231 C1224 1.356 . S
N1231 H1234 0.984 . S
N1231 H1235 0.985 . S
H1232 N1227 0.984 . S
H1233 N1227 0.985 . S
H1234 N1231 0.984 . S
H1235 N1231 0.985 . S
H1236 N1230 0.984 . S
H1237 N1230 0.984 . S
H1238 N1226 0.984 . S
H1239 N1226 0.985 . S
C1240 C1241 1.363 1_545 S
C1240 C1246 1.379 . S
C1240 N1248 1.356 . S
C1241 C1240 1.363 1_565 S
C1241 C1247 1.363 . S
C1242 C1243 1.363 1_565 S
C1242 C1247 1.379 . S
C1242 N1249 1.356 . S
C1243 C1242 1.363 1_545 S
C1243 C1246 1.363 . S
N1244 C1246 1.356 . S
N1244 H1256 0.984 . S
N1244 H1257 0.985 . S
N1245 C1247 1.356 . S
N1245 H1250 0.984 . S
N1245 H1251 0.985 . S
C1246 C1240 1.379 . S
C1246 C1243 1.363 . S
C1246 N1244 1.356 . S
C1247 C1241 1.363 . S
C1247 C1242 1.379 . S
C1247 N1245 1.356 . S
N1248 C1240 1.356 . S
N1248 H1254 0.984 . S
N1248 H1255 0.984 . S
N1249 C1242 1.356 . S
N1249 H1252 0.984 . S
N1249 H1253 0.985 . S
H1250 N1245 0.984 . S
H1251 N1245 0.985 . S
H1252 N1249 0.984 . S
H1253 N1249 0.985 . S
H1254 N1248 0.984 . S
H1255 N1248 0.984 . S
H1256 N1244 0.984 . S
H1257 N1244 0.985 . S
C1258 C1259 1.363 . S
C1258 C1264 1.379 . S
C1258 N1266 1.356 . S
C1259 C1258 1.363 . S
C1259 C1265 1.363 . S
C1260 C1261 1.367 . S
C1260 C1265 1.379 . S
C1260 N1267 1.356 1_554 S
C1261 C1260 1.367 . S
C1261 C1264 1.369 . S
N1262 C1264 1.364 . S
N1262 H1274 0.989 . S
N1262 H1275 0.973 1_554 S
N1263 C1265 1.356 . S
N1263 H1268 0.984 . S
N1263 H1269 0.985 . S
C1264 C1258 1.379 . S
C1264 C1261 1.369 . S
C1264 N1262 1.364 . S
C1265 C1259 1.363 . S
C1265 C1260 1.379 . S
C1265 N1263 1.356 . S
N1266 C1258 1.356 . S
N1266 H1272 0.984 . S
N1266 H1273 0.984 . S
N1267 C1260 1.356 1_556 S
N1267 H1270 0.984 . S
N1267 H1271 0.985 . S
H1268 N1263 0.984 . S
H1269 N1263 0.985 . S
H1270 N1267 0.984 . S
H1271 N1267 0.985 . S
H1272 N1266 0.984 . S
H1273 N1266 0.984 . S
H1274 N1262 0.989 . S
H1275 N1262 0.973 1_556 S
C1276 C1277 1.363 . S
C1276 C1282 1.379 . S
C1276 N1284 1.356 . S
C1277 C1276 1.363 . S
C1277 C1283 1.363 1_565 S
C1278 C1279 1.363 . S
C1278 C1283 1.379 . S
C1278 N1285 1.356 . S
C1279 C1278 1.363 . S
C1279 C1282 1.363 1_545 S
N1280 C1282 1.356 . S
N1280 H1292 0.984 . S
N1280 H1293 0.985 . S
N1281 C1283 1.356 . S
N1281 H1286 0.984 . S
N1281 H1287 0.985 . S
C1282 C1276 1.379 . S
C1282 C1279 1.363 1_565 S
C1282 N1280 1.356 . S
C1283 C1277 1.363 1_545 S
C1283 C1278 1.379 . S
C1283 N1281 1.356 . S
N1284 C1276 1.356 . S
N1284 H1290 0.984 . S
N1284 H1291 0.984 . S
N1285 C1278 1.356 . S
N1285 H1288 0.984 . S
N1285 H1289 0.985 . S
H1286 N1281 0.984 . S
H1287 N1281 0.985 . S
H1288 N1285 0.984 . S
H1289 N1285 0.985 . S
H1290 N1284 0.984 . S
H1291 N1284 0.984 . S
H1292 N1280 0.984 . S
H1293 N1280 0.985 . S
C1294 C1295 1.363 . S
C1294 C1300 1.379 . S
C1294 N1302 1.356 . S
C1295 C1294 1.363 . S
C1295 C1301 1.363 . S
C1296 C1297 1.363 . S
C1296 C1301 1.379 . S
C1296 N1303 1.356 . S
C1297 C1296 1.363 . S
C1297 C1300 1.363 . S
N1298 C1300 1.356 . S
N1298 H1310 0.984 . S
N1298 H1311 0.985 . S
N1299 C1301 1.356 . S
N1299 H1304 0.984 . S
N1299 H1305 0.985 . S
C1300 C1294 1.379 . S
C1300 C1297 1.363 . S
C1300 N1298 1.356 . S
C1301 C1295 1.363 . S
C1301 C1296 1.379 . S
C1301 N1299 1.356 . S
N1302 C1294 1.356 . S
N1302 H1308 0.984 . S
N1302 H1309 0.984 . S
N1303 C1296 1.356 . S
N1303 H1306 0.984 . S
N1303 H1307 0.985 . S
H1304 N1299 0.984 . S
H1305 N1299 0.985 . S
H1306 N1303 0.984 . S
H1307 N1303 0.985 . S
H1308 N1302 0.984 . S
H1309 N1302 0.984 . S
H1310 N1298 0.984 . S
H1311 N1298 0.985 . S
C1312 C1313 1.363 . S
C1312 C1318 1.379 . S
C1312 N1320 1.356 . S
C1313 C1312 1.363 . S
C1313 C1319 1.363 . S
C1314 C1315 1.363 . S
C1314 C1319 1.379 . S
C1314 N1321 1.356 . S
C1315 C1314 1.363 . S
C1315 C1318 1.363 . S
N1316 C1318 1.356 . S
N1316 H1328 0.984 . S
N1316 H1329 0.985 . S
N1317 C1319 1.356 . S
N1317 H1322 0.984 . S
N1317 H1323 0.985 . S
C1318 C1312 1.379 . S
C1318 C1315 1.363 . S
C1318 N1316 1.356 . S
C1319 C1313 1.363 . S
C1319 C1314 1.379 . S
C1319 N1317 1.356 . S
N1320 C1312 1.356 . S
N1320 H1326 0.984 . S
N1320 H1327 0.984 . S
N1321 C1314 1.356 . S
N1321 H1324 0.984 . S
N1321 H1325 0.985 . S
H1322 N1317 0.984 . S
H1323 N1317 0.985 . S
H1324 N1321 0.984 . S
H1325 N1321 0.985 . S
H1326 N1320 0.984 . S
H1327 N1320 0.984 . S
H1328 N1316 0.984 . S
H1329 N1316 0.985 . S
C1330 C1331 1.363 . S
C1330 C1336 1.379 . S
C1330 N1338 1.356 . S
C1331 C1330 1.363 . S
C1331 C1337 1.363 . S
C1332 C1333 1.363 . S
C1332 C1337 1.379 . S
C1332 N1339 1.356 . S
C1333 C1332 1.363 . S
C1333 C1336 1.363 . S
N1334 C1336 1.356 . S
N1334 H1346 0.984 . S
N1334 H1347 0.985 . S
N1335 C1337 1.356 . S
N1335 H1340 0.984 . S
N1335 H1341 0.985 . S
C1336 C1330 1.379 . S
C1336 C1333 1.363 . S
C1336 N1334 1.356 . S
C1337 C1331 1.363 . S
C1337 C1332 1.379 . S
C1337 N1335 1.356 . S
N1338 C1330 1.356 . S
N1338 H1344 0.984 . S
N1338 H1345 0.984 . S
N1339 C1332 1.356 . S
N1339 H1342 0.984 . S
N1339 H1343 0.985 . S
H1340 N1335 0.984 . S
H1341 N1335 0.985 . S
H1342 N1339 0.984 . S
H1343 N1339 0.985 . S
H1344 N1338 0.984 . S
H1345 N1338 0.984 . S
H1346 N1334 0.984 . S
H1347 N1334 0.985 . S
C1348 C1349 1.363 . S
C1348 C1354 1.379 . S
C1348 N1356 1.356 . S
C1349 C1348 1.363 . S
C1349 C1355 1.363 . S
C1350 C1351 1.363 . S
C1350 C1355 1.379 . S
C1350 N1357 1.356 . S
C1351 C1350 1.363 . S
C1351 C1354 1.363 . S
N1352 C1354 1.356 . S
N1352 H1364 0.984 . S
N1352 H1365 0.985 . S
N1353 C1355 1.356 . S
N1353 H1358 0.984 . S
N1353 H1359 0.985 . S
C1354 C1348 1.379 . S
C1354 C1351 1.363 . S
C1354 N1352 1.356 . S
C1355 C1349 1.363 . S
C1355 C1350 1.379 . S
C1355 N1353 1.356 . S
N1356 C1348 1.356 . S
N1356 H1362 0.984 . S
N1356 H1363 0.984 . S
N1357 C1350 1.356 . S
N1357 H1360 0.984 . S
N1357 H1361 0.985 . S
H1358 N1353 0.984 . S
H1359 N1353 0.985 . S
H1360 N1357 0.984 . S
H1361 N1357 0.985 . S
H1362 N1356 0.984 . S
H1363 N1356 0.984 . S
H1364 N1352 0.984 . S
H1365 N1352 0.985 . S
C1366 C1367 1.363 . S
C1366 C1372 1.379 1_556 S
C1366 N1374 1.356 . S
C1367 C1366 1.363 . S
C1367 C1373 1.363 . S
C1368 C1369 1.363 . S
C1368 C1373 1.379 . S
C1368 N1375 1.356 . S
C1369 C1368 1.363 . S
C1369 C1372 1.363 1_556 S
N1370 C1372 1.356 . S
N1370 H1382 0.984 . S
N1370 H1383 0.985 . S
N1371 C1373 1.356 . S
N1371 H1376 0.984 . S
N1371 H1377 0.985 . S
C1372 C1366 1.379 1_554 S
C1372 C1369 1.363 1_554 S
C1372 N1370 1.356 . S
C1373 C1367 1.363 . S
C1373 C1368 1.379 . S
C1373 N1371 1.356 . S
N1374 C1366 1.356 . S
N1374 H1380 0.984 1_556 S
N1374 H1381 0.984 . S
N1375 C1368 1.356 . S
N1375 H1378 0.984 . S
N1375 H1379 0.985 . S
H1376 N1371 0.984 . S
H1377 N1371 0.985 . S
H1378 N1375 0.984 . S
H1379 N1375 0.985 . S
H1380 N1374 0.984 1_554 S
H1381 N1374 0.984 . S
H1382 N1370 0.984 . S
H1383 N1370 0.985 . S
C1384 C1385 1.363 . S
C1384 C1390 1.379 . S
C1384 N1392 1.356 . S
C1385 C1384 1.363 . S
C1385 C1391 1.363 . S
C1386 C1387 1.363 . S
C1386 C1391 1.379 . S
C1386 N1393 1.356 . S
C1387 C1386 1.363 . S
C1387 C1390 1.363 . S
N1388 C1390 1.356 . S
N1388 H1400 0.984 . S
N1388 H1401 0.985 . S
N1389 C1391 1.356 . S
N1389 H1394 0.984 . S
N1389 H1395 0.985 . S
C1390 C1384 1.379 . S
C1390 C1387 1.363 . S
C1390 N1388 1.356 . S
C1391 C1385 1.363 . S
C1391 C1386 1.379 . S
C1391 N1389 1.356 . S
N1392 C1384 1.356 . S
N1392 H1398 0.984 . S
N1392 H1399 0.984 . S
N1393 C1386 1.356 . S
N1393 H1396 0.984 . S
N1393 H1397 0.985 . S
H1394 N1389 0.984 . S
H1395 N1389 0.985 . S
H1396 N1393 0.984 . S
H1397 N1393 0.985 . S
H1398 N1392 0.984 . S
H1399 N1392 0.984 . S
H1400 N1388 0.984 . S
H1401 N1388 0.985 . S
C1402 C1403 1.363 . S
C1402 C1408 1.379 . S
C1402 N1410 1.356 . S
C1403 C1402 1.363 . S
C1403 C1409 1.363 . S
C1404 C1405 1.363 . S
C1404 C1409 1.379 . S
C1404 N1411 1.356 . S
C1405 C1404 1.363 . S
C1405 C1408 1.363 . S
N1406 C1408 1.356 . S
N1406 H1418 0.984 . S
N1406 H1419 0.985 . S
N1407 C1409 1.356 . S
N1407 H1412 0.984 . S
N1407 H1413 0.985 . S
C1408 C1402 1.379 . S
C1408 C1405 1.363 . S
C1408 N1406 1.356 . S
C1409 C1403 1.363 . S
C1409 C1404 1.379 . S
C1409 N1407 1.356 . S
N1410 C1402 1.356 . S
N1410 H1416 0.984 . S
N1410 H1417 0.984 . S
N1411 C1404 1.356 . S
N1411 H1414 0.984 . S
N1411 H1415 0.985 . S
H1412 N1407 0.984 . S
H1413 N1407 0.985 . S
H1414 N1411 0.984 . S
H1415 N1411 0.985 . S
H1416 N1410 0.984 . S
H1417 N1410 0.984 . S
H1418 N1406 0.984 . S
H1419 N1406 0.985 . S
C1420 C1421 1.363 . S
C1420 C1426 1.379 . S
C1420 N1428 1.356 . S
C1421 C1420 1.363 . S
C1421 C1427 1.363 . S
C1422 C1423 1.363 1_554 S
C1422 C1427 1.379 1_554 S
C1422 N1429 1.356 . S
C1423 C1422 1.363 1_556 S
C1423 C1426 1.363 . S
N1424 C1426 1.356 . S
N1424 H1436 0.984 . S
N1424 H1437 0.985 . S
N1425 C1427 1.356 . S
N1425 H1430 0.984 . S
N1425 H1431 0.985 1_556 S
C1426 C1420 1.379 . S
C1426 C1423 1.363 . S
C1426 N1424 1.356 . S
C1427 C1421 1.363 . S
C1427 C1422 1.379 1_556 S
C1427 N1425 1.356 . S
N1428 C1420 1.356 . S
N1428 H1434 0.984 . S
N1428 H1435 0.984 . S
N1429 C1422 1.356 . S
N1429 H1432 0.984 . S
N1429 H1433 0.985 . S
H1430 N1425 0.984 . S
H1431 N1425 0.985 1_554 S
H1432 N1429 0.984 . S
H1433 N1429 0.985 . S
H1434 N1428 0.984 . S
H1435 N1428 0.984 . S
H1436 N1424 0.984 . S
H1437 N1424 0.985 . S
C1438 C1439 1.363 . S
C1438 C1444 1.379 . S
C1438 N1446 1.356 . S
C1439 C1438 1.363 . S
C1439 C1445 1.363 . S
C1440 C1441 1.363 . S
C1440 C1445 1.379 . S
C1440 N1447 1.356 . S
C1441 C1440 1.363 . S
C1441 C1444 1.363 . S
N1442 C1444 1.356 . S
N1442 H1454 0.984 . S
N1442 H1455 0.985 . S
N1443 C1445 1.356 . S
N1443 H1448 0.984 . S
N1443 H1449 0.985 . S
C1444 C1438 1.379 . S
C1444 C1441 1.363 . S
C1444 N1442 1.356 . S
C1445 C1439 1.363 . S
C1445 C1440 1.379 . S
C1445 N1443 1.356 . S
N1446 C1438 1.356 . S
N1446 H1452 0.984 . S
N1446 H1453 0.984 . S
N1447 C1440 1.356 . S
N1447 H1450 0.984 . S
N1447 H1451 0.985 . S
H1448 N1443 0.984 . S
H1449 N1443 0.985 . S
H1450 N1447 0.984 . S
H1451 N1447 0.985 . S
H1452 N1446 0.984 . S
H1453 N1446 0.984 . S
H1454 N1442 0.984 . S
H1455 N1442 0.985 . S
C1456 C1457 1.363 1_554 S
C1456 C1462 1.379 1_554 S
C1456 N1464 1.356 . S
C1457 C1456 1.363 1_556 S
C1457 C1463 1.363 . S
C1458 C1459 1.363 . S
C1458 C1463 1.379 . S
C1458 N1465 1.356 . S
C1459 C1458 1.363 . S
C1459 C1462 1.363 . S
N1460 C1462 1.356 . S
N1460 H1472 0.984 1_556 S
N1460 H1473 0.985 . S
N1461 C1463 1.356 . S
N1461 H1466 0.984 . S
N1461 H1467 0.985 . S
C1462 C1456 1.379 1_556 S
C1462 C1459 1.363 . S
C1462 N1460 1.356 . S
C1463 C1457 1.363 . S
C1463 C1458 1.379 . S
C1463 N1461 1.356 . S
N1464 C1456 1.356 . S
N1464 H1470 0.984 . S
N1464 H1471 0.984 . S
N1465 C1458 1.356 . S
N1465 H1468 0.984 . S
N1465 H1469 0.985 . S
H1466 N1461 0.984 . S
H1467 N1461 0.985 . S
H1468 N1465 0.984 . S
H1469 N1465 0.985 . S
H1470 N1464 0.984 . S
H1471 N1464 0.984 . S
H1472 N1460 0.984 1_554 S
H1473 N1460 0.985 . S
C1474 C1475 1.363 . S
C1474 C1480 1.379 . S
C1474 N1482 1.356 . S
C1475 C1474 1.363 . S
C1475 C1481 1.363 . S
C1476 C1477 1.363 . S
C1476 C1481 1.379 . S
C1476 N1483 1.356 . S
C1477 C1476 1.363 . S
C1477 C1480 1.363 . S
N1478 C1480 1.356 . S
N1478 H1490 0.984 . S
N1478 H1491 0.985 . S
N1479 C1481 1.356 . S
N1479 H1484 0.984 . S
N1479 H1485 0.985 . S
C1480 C1474 1.379 . S
C1480 C1477 1.363 . S
C1480 N1478 1.356 . S
C1481 C1475 1.363 . S
C1481 C1476 1.379 . S
C1481 N1479 1.356 . S
N1482 C1474 1.356 . S
N1482 H1488 0.984 . S
N1482 H1489 0.984 . S
N1483 C1476 1.356 . S
N1483 H1486 0.984 . S
N1483 H1487 0.985 . S
H1484 N1479 0.984 . S
H1485 N1479 0.985 . S
H1486 N1483 0.984 . S
H1487 N1483 0.985 . S
H1488 N1482 0.984 . S
H1489 N1482 0.984 . S
H1490 N1478 0.984 . S
H1491 N1478 0.985 . S
C1492 C1493 1.363 . S
C1492 C1498 1.379 . S
C1492 N1500 1.356 . S
C1493 C1492 1.363 . S
C1493 C1499 1.363 . S
C1494 C1495 1.363 . S
C1494 C1499 1.379 . S
C1494 N1501 1.356 . S
C1495 C1494 1.363 . S
C1495 C1498 1.363 . S
N1496 C1498 1.356 . S
N1496 H1508 0.984 . S
N1496 H1509 0.985 . S
N1497 C1499 1.356 . S
N1497 H1502 0.984 . S
N1497 H1503 0.985 . S
C1498 C1492 1.379 . S
C1498 C1495 1.363 . S
C1498 N1496 1.356 . S
C1499 C1493 1.363 . S
C1499 C1494 1.379 . S
C1499 N1497 1.356 . S
N1500 C1492 1.356 . S
N1500 H1506 0.984 . S
N1500 H1507 0.984 . S
N1501 C1494 1.356 . S
N1501 H1504 0.984 . S
N1501 H1505 0.985 . S
H1502 N1497 0.984 . S
H1503 N1497 0.985 . S
H1504 N1501 0.984 . S
H1505 N1501 0.985 . S
H1506 N1500 0.984 . S
H1507 N1500 0.984 . S
H1508 N1496 0.984 . S
H1509 N1496 0.985 . S
C1510 C1511 1.363 . S
C1510 C1516 1.379 . S
C1510 N1518 1.356 . S
C1511 C1510 1.363 . S
C1511 C1517 1.363 . S
C1512 C1513 1.363 . S
C1512 C1517 1.379 . S
C1512 N1519 1.356 . S
C1513 C1512 1.363 . S
C1513 C1516 1.363 . S
N1514 C1516 1.356 . S
N1514 H1526 0.984 . S
N1514 H1527 0.985 . S
N1515 C1517 1.356 . S
N1515 H1520 0.984 . S
N1515 H1521 0.985 . S
C1516 C1510 1.379 . S
C1516 C1513 1.363 . S
C1516 N1514 1.356 . S
C1517 C1511 1.363 . S
C1517 C1512 1.379 . S
C1517 N1515 1.356 . S
N1518 C1510 1.356 . S
N1518 H1524 0.984 . S
N1518 H1525 0.984 . S
N1519 C1512 1.356 . S
N1519 H1522 0.984 . S
N1519 H1523 0.985 . S
H1520 N1515 0.984 . S
H1521 N1515 0.985 . S
H1522 N1519 0.984 . S
H1523 N1519 0.985 . S
H1524 N1518 0.984 . S
H1525 N1518 0.984 . S
H1526 N1514 0.984 . S
H1527 N1514 0.985 . S
C1528 C1529 1.363 . S
C1528 C1534 1.379 . S
C1528 N1536 1.356 . S
C1529 C1528 1.363 . S
C1529 C1535 1.363 . S
C1530 C1531 1.363 . S
C1530 C1535 1.379 . S
C1530 N1537 1.356 . S
C1531 C1530 1.363 . S
C1531 C1534 1.363 . S
N1532 C1534 1.356 . S
N1532 H1544 0.984 . S
N1532 H1545 0.985 . S
N1533 C1535 1.356 . S
N1533 H1538 0.984 . S
N1533 H1539 0.985 . S
C1534 C1528 1.379 . S
C1534 C1531 1.363 . S
C1534 N1532 1.356 . S
C1535 C1529 1.363 . S
C1535 C1530 1.379 . S
C1535 N1533 1.356 . S
N1536 C1528 1.356 . S
N1536 H1542 0.984 . S
N1536 H1543 0.984 . S
N1537 C1530 1.356 . S
N1537 H1540 0.984 . S
N1537 H1541 0.985 . S
H1538 N1533 0.984 . S
H1539 N1533 0.985 . S
H1540 N1537 0.984 . S
H1541 N1537 0.985 . S
H1542 N1536 0.984 . S
H1543 N1536 0.984 . S
H1544 N1532 0.984 . S
H1545 N1532 0.985 . S
C1546 C1547 1.363 . S
C1546 C1552 1.379 . S
C1546 N1554 1.356 . S
C1547 C1546 1.363 . S
C1547 C1553 1.363 . S
C1548 C1549 1.363 . S
C1548 C1553 1.379 . S
C1548 N1555 1.356 . S
C1549 C1548 1.363 . S
C1549 C1552 1.363 . S
N1550 C1552 1.356 . S
N1550 H1562 0.984 . S
N1550 H1563 0.985 . S
N1551 C1553 1.356 . S
N1551 H1556 0.984 . S
N1551 H1557 0.985 . S
C1552 C1546 1.379 . S
C1552 C1549 1.363 . S
C1552 N1550 1.356 . S
C1553 C1547 1.363 . S
C1553 C1548 1.379 . S
C1553 N1551 1.356 . S
N1554 C1546 1.356 . S
N1554 H1560 0.984 . S
N1554 H1561 0.984 . S
N1555 C1548 1.356 . S
N1555 H1558 0.984 . S
N1555 H1559 0.985 . S
H1556 N1551 0.984 . S
H1557 N1551 0.985 . S
H1558 N1555 0.984 . S
H1559 N1555 0.985 . S
H1560 N1554 0.984 . S
H1561 N1554 0.984 . S
H1562 N1550 0.984 . S
H1563 N1550 0.985 . S
C1564 C1565 1.363 . S
C1564 C1570 1.379 . S
C1564 N1572 1.356 . S
C1565 C1564 1.363 . S
C1565 C1571 1.363 . S
C1566 C1567 1.363 . S
C1566 C1571 1.379 . S
C1566 N1573 1.356 . S
C1567 C1566 1.363 . S
C1567 C1570 1.363 . S
N1568 C1570 1.356 . S
N1568 H1580 0.984 . S
N1568 H1581 0.985 . S
N1569 C1571 1.356 . S
N1569 H1574 0.984 . S
N1569 H1575 0.985 . S
C1570 C1564 1.379 . S
C1570 C1567 1.363 . S
C1570 N1568 1.356 . S
C1571 C1565 1.363 . S
C1571 C1566 1.379 . S
C1571 N1569 1.356 . S
N1572 C1564 1.356 . S
N1572 H1578 0.984 . S
N1572 H1579 0.984 . S
N1573 C1566 1.356 . S
N1573 H1576 0.984 . S
N1573 H1577 0.985 . S
H1574 N1569 0.984 . S
H1575 N1569 0.985 . S
H1576 N1573 0.984 . S
H1577 N1573 0.985 . S
H1578 N1572 0.984 . S
H1579 N1572 0.984 . S
H1580 N1568 0.984 . S
H1581 N1568 0.985 . S
C1582 C1583 1.363 . S
C1582 C1588 1.379 . S
C1582 N1590 1.356 . S
C1583 C1582 1.363 . S
C1583 C1589 1.363 . S
C1584 C1585 1.363 . S
C1584 C1589 1.379 . S
C1584 N1591 1.356 1_556 S
C1585 C1584 1.363 . S
C1585 C1588 1.363 . S
N1586 C1588 1.356 . S
N1586 H1598 0.984 . S
N1586 H1599 0.985 . S
N1587 C1589 1.356 . S
N1587 H1592 0.984 . S
N1587 H1593 0.985 . S
C1588 C1582 1.379 . S
C1588 C1585 1.363 . S
C1588 N1586 1.356 . S
C1589 C1583 1.363 . S
C1589 C1584 1.379 . S
C1589 N1587 1.356 . S
N1590 C1582 1.356 . S
N1590 H1596 0.984 . S
N1590 H1597 0.984 . S
N1591 C1584 1.356 1_554 S
N1591 H1594 0.984 . S
N1591 H1595 0.985 . S
H1592 N1587 0.984 . S
H1593 N1587 0.985 . S
H1594 N1591 0.984 . S
H1595 N1591 0.985 . S
H1596 N1590 0.984 . S
H1597 N1590 0.984 . S
H1598 N1586 0.984 . S
H1599 N1586 0.985 . S
C449 C124 1.964 . S
C451 C1 1.964 . S
C467 C14 1.968 . S
C469 C363 1.968 . S
C485 C40 1.968 . S
C487 C153 1.968 . S
C503 C54 1.969 . S
C505 C391 1.969 . S
C521 C68 1.969 . S
C523 C180 1.964 . S
C539 C418 1.964 . S
C541 C83 1.964 . S
C557 C209 1.969 . S
C559 C85 1.964 . S
C575 C435 1.968 . S
C577 C98 1.968 . S
C593 C238 1.969 . S
C595 C139 1.969 . S
C611 C166 1.964 . S
C613 C279 1.964 . S
C629 C194 1.964 . S
C631 C306 1.968 . S
C647 C323 1.964 . S
C649 C210 1.964 . S
C665 C337 1.968 . S
C667 C224 1.968 . S
C683 C265 1.964 . S
C685 C365 1.969 . S
C701 C280 1.969 . S
C703 C404 1.964 . S
C719 C432 1.964 . S
C721 C321 1.964 . S
C737 C12 1.786 . S
C739 C57 1.785 . S
C755 C70 1.786 1_554 S
C757 C27 1.785 . S
C773 C96 1.786 . S
C775 C29 1.785 . S
C791 C43 1.785 . S
C793 C111 1.785 . S
C809 C113 1.786 . S
C811 C169 1.786 . S
C827 C126 1.785 1_554 S
C829 C183 1.786 . S
C845 C196 1.785 . S
C847 C140 1.785 . S
C863 C223 1.786 . S
C865 C155 1.786 . S
C881 C293 1.785 . S
C883 C237 1.785 . S
C899 C295 1.785 . S
C901 C251 1.785 . S
C917 C252 1.786 . S
C919 C308 1.786 . S
C935 C334 1.786 1_554 S
C937 C266 1.786 . S
C953 C393 1.786 . S
C955 C348 1.784 . S
C971 C350 1.785 . S
C973 C407 1.786 . S
C989 C421 1.786 . S
C991 C376 1.785 . S
C1007 C446 1.785 . S
C1009 C378 1.785 1_554 S
C1025 C56 0.826 . S
C1027 C13 0.826 . S
C1043 C71 0.826 . S
C1045 C26 0.827 . S
C1061 C28 0.826 . S
C1063 C97 0.826 . S
C1079 C110 0.827 . S
C1081 C42 0.817 1_554 S
C1097 C168 0.826 . S
C1099 C112 0.826 . S
C1115 C127 0.827 . S
C1117 C182 0.826 . S
C1133 C197 0.826 . S
C1135 C141 0.826 . S
C1151 C222 0.817 1_554 S
C1153 C154 0.826 . S
C1169 C236 0.827 . S
C1171 C292 0.827 . S
C1187 C294 0.826 . S
C1189 C250 0.816 1_554 S
C1205 C309 0.826 . S
C1207 C253 0.826 . S
C1223 C335 0.826 . S
C1225 C267 0.826 . S
C1241 C392 0.826 . S
C1243 C349 0.827 . S
C1259 C351 0.826 . S
C1261 C406 0.816 1_554 S
C1277 C377 0.827 . S
C1279 C420 0.826 . S
C1295 C379 0.826 . S
C1297 C447 0.826 . S
C1313 C0 1.985 . S
C1315 C307 1.984 . S
C1331 C320 1.985 . S
C1333 C15 1.984 . S
C1349 C41 1.983 . S
C1351 C322 1.985 . S
C1367 C55 1.983 . S
C1369 C281 1.983 1_556 S
C1385 C278 1.986 . S
C1387 C69 1.984 . S
C1403 C225 1.983 . S
C1405 C82 1.985 . S
C1421 C239 1.983 . S
C1423 C84 1.985 1_556 S
C1439 C99 1.984 . S
C1441 C264 1.986 . S
C1457 C125 1.985 1_556 S
C1459 C419 1.985 . S
C1475 C433 1.985 . S
C1477 C138 1.983 . S
C1493 C434 1.984 . S
C1495 C152 1.984 . S
C1511 C405 1.985 . S
C1513 C167 1.985 . S
C1529 C390 1.983 . S
C1531 C181 1.985 . S
C1547 C336 1.984 . S
C1549 C195 1.986 . S
C1565 C208 1.984 . S
C1567 C362 1.984 . S
C1583 C211 1.986 . S
C1585 C364 1.984 1_556 S
