# Generated by pormake.
# Topology smw, (6)-cn, num edge types: 1
# Building blocks:
#     Node 0, Type 0, BuildingBlock: IZENUY_clean_sbu_0, # of connection points: 6
#     Node 1, Type 0, BuildingBlock: IZENUY_clean_sbu_0, # of connection points: 6
#     Node 2, Type 0, BuildingBlock: IZENUY_clean_sbu_0, # of connection points: 6
#     Node 3, Type 0, BuildingBlock: IZENUY_clean_sbu_0, # of connection points: 6
#     Node 4, Type 0, BuildingBlock: IZENUY_clean_sbu_0, # of connection points: 6
#     Node 5, Type 0, BuildingBlock: IZENUY_clean_sbu_0, # of connection points: 6
#     Node 6, Type 0, BuildingBlock: IZENUY_clean_sbu_0, # of connection points: 6
#     Node 7, Type 0, BuildingBlock: IZENUY_clean_sbu_0, # of connection points: 6
#     Node 8, Type 0, BuildingBlock: IZENUY_clean_sbu_0, # of connection points: 6
#     Node 9, Type 0, BuildingBlock: IZENUY_clean_sbu_0, # of connection points: 6
#     Node 10, Type 0, BuildingBlock: IZENUY_clean_sbu_0, # of connection points: 6
#     Node 11, Type 0, BuildingBlock: IZENUY_clean_sbu_0, # of connection points: 6
#     Edge 12, Type (0, 0), BuildingBlock: EZIPEK_clean_linker_0, # of connection points: 2
#     Edge 13, Type (0, 0), BuildingBlock: EZIPEK_clean_linker_0, # of connection points: 2
#     Edge 14, Type (0, 0), BuildingBlock: EZIPEK_clean_linker_0, # of connection points: 2
#     Edge 15, Type (0, 0), BuildingBlock: EZIPEK_clean_linker_0, # of connection points: 2
#     Edge 16, Type (0, 0), BuildingBlock: EZIPEK_clean_linker_0, # of connection points: 2
#     Edge 17, Type (0, 0), BuildingBlock: EZIPEK_clean_linker_0, # of connection points: 2
#     Edge 18, Type (0, 0), BuildingBlock: EZIPEK_clean_linker_0, # of connection points: 2
#     Edge 19, Type (0, 0), BuildingBlock: EZIPEK_clean_linker_0, # of connection points: 2
#     Edge 20, Type (0, 0), BuildingBlock: EZIPEK_clean_linker_0, # of connection points: 2
#     Edge 21, Type (0, 0), BuildingBlock: EZIPEK_clean_linker_0, # of connection points: 2
#     Edge 22, Type (0, 0), BuildingBlock: EZIPEK_clean_linker_0, # of connection points: 2
#     Edge 23, Type (0, 0), BuildingBlock: EZIPEK_clean_linker_0, # of connection points: 2
#     Edge 24, Type (0, 0), BuildingBlock: EZIPEK_clean_linker_0, # of connection points: 2
#     Edge 25, Type (0, 0), BuildingBlock: EZIPEK_clean_linker_0, # of connection points: 2
#     Edge 26, Type (0, 0), BuildingBlock: EZIPEK_clean_linker_0, # of connection points: 2
#     Edge 27, Type (0, 0), BuildingBlock: EZIPEK_clean_linker_0, # of connection points: 2
#     Edge 28, Type (0, 0), BuildingBlock: EZIPEK_clean_linker_0, # of connection points: 2
#     Edge 29, Type (0, 0), BuildingBlock: EZIPEK_clean_linker_0, # of connection points: 2
#     Edge 30, Type (0, 0), BuildingBlock: EZIPEK_clean_linker_0, # of connection points: 2
#     Edge 31, Type (0, 0), BuildingBlock: EZIPEK_clean_linker_0, # of connection points: 2
#     Edge 32, Type (0, 0), BuildingBlock: EZIPEK_clean_linker_0, # of connection points: 2
#     Edge 33, Type (0, 0), BuildingBlock: EZIPEK_clean_linker_0, # of connection points: 2
#     Edge 34, Type (0, 0), BuildingBlock: EZIPEK_clean_linker_0, # of connection points: 2
#     Edge 35, Type (0, 0), BuildingBlock: EZIPEK_clean_linker_0, # of connection points: 2
#     Edge 36, Type (0, 0), BuildingBlock: EZIPEK_clean_linker_0, # of connection points: 2
#     Edge 37, Type (0, 0), BuildingBlock: EZIPEK_clean_linker_0, # of connection points: 2
#     Edge 38, Type (0, 0), BuildingBlock: EZIPEK_clean_linker_0, # of connection points: 2
#     Edge 39, Type (0, 0), BuildingBlock: EZIPEK_clean_linker_0, # of connection points: 2
#     Edge 40, Type (0, 0), BuildingBlock: EZIPEK_clean_linker_0, # of connection points: 2
#     Edge 41, Type (0, 0), BuildingBlock: EZIPEK_clean_linker_0, # of connection points: 2
#     Edge 42, Type (0, 0), BuildingBlock: EZIPEK_clean_linker_0, # of connection points: 2
#     Edge 43, Type (0, 0), BuildingBlock: EZIPEK_clean_linker_0, # of connection points: 2
#     Edge 44, Type (0, 0), BuildingBlock: EZIPEK_clean_linker_0, # of connection points: 2
#     Edge 45, Type (0, 0), BuildingBlock: EZIPEK_clean_linker_0, # of connection points: 2
#     Edge 46, Type (0, 0), BuildingBlock: EZIPEK_clean_linker_0, # of connection points: 2
#     Edge 47, Type (0, 0), BuildingBlock: EZIPEK_clean_linker_0, # of connection points: 2
# Relax obj value: 0.143
# Max RMSD: 0.113
# Mean RMSD: 0.113
data_MOF--net-smw--node1-IZENUY_clean_sbu_0--edge1-EZIPEK_clean_linker_0
_symmetry_space_group_name_H-M    P1
_symmetry_Int_Tables_number       1
_symmetry_cell_setting            triclinic
loop_
_symmetry_equiv_pos_as_xyz
'x, y, z'
_cell_length_a     42.165354
_cell_length_b     42.209328
_cell_length_c     14.920618
_cell_angle_alpha  89.693083
_cell_angle_beta   90.197943
_cell_angle_gamma 119.94821
loop_
_atom_site_label
_atom_site_type_symbol
_atom_site_fract_x
_atom_site_fract_y
_atom_site_fract_z
_atom_type_partial_charge
Fe0 Fe 0.50869 0.17797 1.00251 0.0
Fe1 Fe 0.48154 0.09565 0.0111 0.0
O2 O 0.47213 0.13207 0.00713 0.0
Fe3 Fe 0.42593 0.12255 0.00741 0.0
O4 O 0.43508 0.16329 0.94027 0.0
O5 O 0.49205 0.186 0.89681 0.0
O6 O 0.53963 0.16802 0.93655 0.0
C7 C 0.53328 0.14025 0.89092 0.0
C8 C 0.45778 0.18047 0.12238 0.0
O9 O 0.50621 0.10937 0.90703 0.0
C10 C 0.42387 0.06811 0.1254 0.0
O11 O 0.52803 0.17354 0.10762 0.0
O12 O 0.5237 0.12043 0.07835 0.0
O13 O 0.43313 0.14754 0.1115 0.0
O14 O 0.48456 0.19601 0.06873 0.0
C15 C 0.42112 0.07031 0.89099 0.0
O16 O 0.45732 0.07882 0.11575 0.0
O17 O 0.40794 0.08002 0.0746 0.0
C18 C 0.5365 0.14942 0.12435 0.0
O19 O 0.44137 0.06459 0.94366 0.0
O20 O 0.41572 0.09686 0.90326 0.0
C21 C 0.46111 0.18351 0.88771 0.0
Fe22 Fe 0.34672 0.50225 0.01708 0.0
Fe23 Fe 0.39683 0.46864 0.00668 0.0
O24 O 0.35215 0.46317 0.00849 0.0
Fe25 Fe 0.31291 0.41865 1.00114 0.0
O26 O 0.29699 0.43073 0.89936 0.0
O27 O 0.30529 0.48333 0.94765 0.0
O28 O 0.37301 0.52253 0.91564 0.0
C29 C 0.40466 0.52788 0.89985 0.0
C30 C 0.29076 0.4548 0.12705 0.0
O31 O 0.41814 0.51236 0.94628 0.0
C32 C 0.35701 0.40563 0.11426 0.0
O33 O 0.38722 0.52857 0.08772 0.0
O34 O 0.40841 0.49124 0.11505 0.0
O35 O 0.28356 0.42897 0.073 0.0
O36 O 0.31987 0.48523 0.11926 0.0
C37 C 0.3629 0.41503 0.8793 0.0
O38 O 0.38416 0.42603 0.06576 0.0
O39 O 0.3262 0.40331 0.10207 0.0
C40 C 0.40711 0.51976 0.13281 0.0
O41 O 0.38886 0.44648 0.89876 0.0
O42 O 0.33442 0.39982 0.92741 0.0
C43 C 0.2915 0.45747 0.89195 0.0
Fe44 Fe 0.90575 0.30564 0.00648 0.0
Fe45 Fe 0.85568 0.33942 0.01891 0.0
O46 O 0.90023 0.34487 0.01149 0.0
Fe47 Fe 0.93941 0.3894 0.00858 0.0
O48 O 0.95363 0.38054 0.90282 0.0
O49 O 0.94736 0.32707 0.9363 0.0
O50 O 0.87893 0.29008 0.90301 0.0
C51 C 0.84659 0.28442 0.89416 0.0
C52 C 0.96099 0.3499 0.12271 0.0
O53 O 0.83378 0.29801 0.94908 0.0
C54 C 0.89865 0.40075 0.13229 0.0
O55 O 0.86523 0.27602 0.07505 0.0
O56 O 0.84545 0.31245 0.12137 0.0
O57 O 0.96876 0.37659 0.07104 0.0
O58 O 0.93274 0.319 0.11013 0.0
C59 C 0.88816 0.3974 0.90047 0.0
O60 O 0.86962 0.37996 0.0894 0.0
O61 O 0.92842 0.40205 0.11458 0.0
C62 C 0.84645 0.28317 0.12847 0.0
O63 O 0.86194 0.36585 0.91719 0.0
O64 O 0.91748 0.41073 0.94531 0.0
C65 C 0.96108 0.35562 0.8882 0.0
Fe66 Fe 0.55877 0.92928 0.01116 0.0
Fe67 Fe 0.61329 0.90079 1.00433 0.0
O68 O 0.56734 0.89211 0.00721 0.0
Fe69 Fe 0.52982 0.84651 1.005 0.0
O70 O 0.49965 0.85774 0.93892 0.0
O71 O 0.53407 0.91617 0.90613 0.0
O72 O 0.59922 0.96119 0.94714 0.0
C73 C 0.61916 0.95594 0.89349 0.0
C74 C 0.50373 0.87658 0.1259 0.0
O75 O 0.6235 0.92854 0.9024 0.0
C76 C 0.58191 0.8413 0.11815 0.0
O77 O 0.58308 0.94506 0.11536 0.0
O78 O 0.63147 0.9414 0.07743 0.0
O79 O 0.5115 0.85191 0.11043 0.0
O80 O 0.51647 0.90489 0.07712 0.0
C81 C 0.5756 0.84031 0.88526 0.0
O82 O 0.6071 0.87386 0.10513 0.0
O83 O 0.55316 0.82706 0.07064 0.0
C84 C 0.61577 0.95305 0.12922 0.0
O85 O 0.60315 0.86134 0.93258 0.0
O86 O 0.54472 0.83712 0.89972 0.0
C87 C 0.5062 0.8855 0.89201 0.0
Fe88 Fe 0.63926 0.55014 1.00228 0.0
Fe89 Fe 0.72327 0.60276 0.0098 0.0
O90 O 0.6849 0.55742 0.99982 0.0
Fe91 Fe 0.69113 0.51878 0.98702 0.0
O92 O 0.66557 0.50544 0.88265 0.0
O93 O 0.61897 0.50977 0.92985 0.0
O94 O 0.64734 0.57784 0.90373 0.0
C95 C 0.67328 0.60994 0.89134 0.0
C96 C 0.63095 0.49366 0.10877 0.0
O97 O 0.70234 0.62365 0.93858 0.0
C98 C 0.74469 0.55907 0.1145 0.0
O99 O 0.64895 0.58876 0.07455 0.0
O100 O 0.70638 0.61189 0.11284 0.0
O101 O 0.65074 0.48771 0.05529 0.0
O102 O 0.6281 0.52191 0.10175 0.0
C103 C 0.75078 0.57337 0.88519 0.0
O104 O 0.7496 0.58904 0.08222 0.0
O105 O 0.71853 0.529 0.08777 0.0
C106 C 0.67555 0.60892 0.12427 0.0
O107 O 0.74607 0.5994 0.90926 0.0
O108 O 0.73193 0.54187 0.91832 0.0
C109 C 0.63294 0.49796 0.87405 0.0
Fe110 Fe 0.10013 0.63493 1.00434 0.0
Fe111 Fe 0.13204 0.71871 1.00369 0.0
O112 O 0.13873 0.68007 1.00545 0.0
Fe113 Fe 0.18389 0.68629 0.0077 0.0
O114 O 0.17656 0.661 0.90408 0.0
O115 O 0.12204 0.61499 0.93692 0.0
O116 O 0.08324 0.64288 0.90041 0.0
C117 C 0.07578 0.66784 0.8869 0.0
C118 C 0.14383 0.62525 0.1237 0.0
O119 O 0.09068 0.69698 0.93259 0.0
C120 C 0.19276 0.74109 0.12329 0.0
O121 O 0.07082 0.64615 0.07149 0.0
O122 O 0.10448 0.70431 0.10534 0.0
O123 O 0.1717 0.64554 0.07674 0.0
O124 O 0.11337 0.62278 0.10827 0.0
C125 C 0.19196 0.74344 0.89154 0.0
O126 O 0.17137 0.74709 0.07587 0.0
O127 O 0.19559 0.71295 0.11032 0.0
C128 C 0.07693 0.67323 0.11913 0.0
O129 O 0.15953 0.7372 0.90201 0.0
O130 O 0.20464 0.72767 0.93954 0.0
C131 C 0.15055 0.6292 0.88903 0.0
Fe132 Fe 0.90984 0.60696 0.50074 0.0
Fe133 Fe 0.85782 0.52307 0.51167 0.0
O134 O 0.90288 0.5615 0.50868 0.0
Fe135 Fe 0.94123 0.55466 0.51333 0.0
O136 O 0.9577 0.58195 0.61498 0.0
O137 O 0.95181 0.62828 0.5682 0.0
O138 O 0.88475 0.60156 0.60383 0.0
C139 C 0.85288 0.57586 0.62109 0.0
C140 C 0.96419 0.61323 0.38787 0.0
O141 O 0.83863 0.54599 0.57847 0.0
C142 C 0.89596 0.49996 0.39634 0.0
O143 O 0.86876 0.59451 0.43283 0.0
O144 O 0.84564 0.53599 0.40656 0.0
O145 O 0.97054 0.59394 0.44212 0.0
O146 O 0.93608 0.61643 0.39697 0.0
C147 C 0.89113 0.49898 0.63155 0.0
O148 O 0.869 0.49368 0.44505 0.0
O149 O 0.92725 0.5271 0.41224 0.0
C150 C 0.84812 0.56627 0.38789 0.0
O151 O 0.86561 0.50573 0.61688 0.0
O152 O 0.91978 0.51352 0.5844 0.0
C153 C 0.96474 0.61471 0.62275 0.0
Fe154 Fe 0.31783 0.9018 0.50853 0.0
Fe155 Fe 0.34718 0.84784 0.50936 0.0
O156 O 0.35543 0.89359 0.50748 0.0
Fe157 Fe 0.40127 0.93058 0.50412 0.0
O158 O 0.39568 0.95061 0.60564 0.0
O159 O 0.34132 0.94387 0.57658 0.0
O160 O 0.30007 0.87653 0.6127 0.0
C161 C 0.29151 0.8436 0.62358 0.0
C162 C 0.36354 0.95436 0.38875 0.0
O163 O 0.30452 0.82882 0.57388 0.0
C164 C 0.40808 0.88305 0.39265 0.0
O165 O 0.28786 0.86113 0.44004 0.0
O166 O 0.32253 0.83763 0.40397 0.0
O167 O 0.39121 0.95993 0.43373 0.0
O168 O 0.33213 0.92785 0.40495 0.0
C169 C 0.40386 0.88059 0.62761 0.0
O170 O 0.38816 0.85717 0.44522 0.0
O171 O 0.41111 0.91409 0.40133 0.0
C172 C 0.2946 0.8407 0.39072 0.0
O173 O 0.37133 0.85537 0.61498 0.0
O174 O 0.41943 0.90773 0.57504 0.0
C175 C 0.37093 0.95828 0.6211 0.0
Fe176 Fe 0.50643 0.33685 0.50271 0.0
Fe177 Fe 0.47569 0.38879 0.48741 0.0
O178 O 0.46807 0.34352 0.49647 0.0
Fe179 Fe 0.42254 0.30556 0.50178 0.0
O180 O 0.43081 0.28991 0.60868 0.0
O181 O 0.4847 0.29662 0.5767 0.0
O182 O 0.52315 0.36454 0.60367 0.0
C183 C 0.53122 0.39753 0.60844 0.0
C184 C 0.46122 0.28077 0.39111 0.0
O185 O 0.5188 0.41056 0.5508 0.0
C186 C 0.4127 0.34815 0.37796 0.0
O187 O 0.53559 0.37574 0.42803 0.0
O188 O 0.49996 0.39687 0.38273 0.0
O189 O 0.43351 0.27481 0.43757 0.0
O190 O 0.49225 0.30852 0.40381 0.0
C191 C 0.4197 0.36023 0.60876 0.0
O192 O 0.43428 0.3762 0.42209 0.0
O193 O 0.40955 0.31745 0.39559 0.0
C194 C 0.52832 0.3944 0.37317 0.0
O195 O 0.4522 0.38409 0.59157 0.0
O196 O 0.40396 0.33014 0.56636 0.0
C197 C 0.45626 0.28322 0.62482 0.0
Fe198 Fe 0.12955 0.4209 0.50741 0.0
Fe199 Fe 0.18327 0.50438 0.50603 0.0
O200 O 0.1381 0.46662 0.50464 0.0
Fe201 Fe 0.10052 0.47424 0.50264 0.0
O202 O 0.06972 0.43233 0.56181 0.0
O203 O 0.10392 0.41174 0.61329 0.0
O204 O 0.17012 0.43088 0.57533 0.0
C205 C 0.19109 0.45815 0.62309 0.0
C206 C 0.07499 0.4178 0.38605 0.0
O207 O 0.19419 0.48903 0.60901 0.0
C208 C 0.15067 0.53008 0.39091 0.0
O209 O 0.1551 0.42749 0.40358 0.0
O210 O 0.20216 0.48175 0.43667 0.0
O211 O 0.0853 0.4513 0.39545 0.0
O212 O 0.08711 0.40224 0.43824 0.0
C213 C 0.1444 0.52604 0.62429 0.0
O214 O 0.17609 0.52308 0.40299 0.0
O215 O 0.12348 0.51733 0.44211 0.0
C216 C 0.18762 0.45297 0.38938 0.0
O217 O 0.17197 0.53348 0.57574 0.0
O218 O 0.1138 0.49778 0.60991 0.0
C219 C 0.07606 0.41529 0.62158 0.0
Fe220 Fe 0.69204 0.17688 0.51148 0.0
Fe221 Fe 0.63859 0.09445 0.50224 0.0
O222 O 0.68401 0.13148 0.50711 0.0
Fe223 Fe 0.72119 0.12264 0.50805 0.0
O224 O 0.75182 0.16277 0.57741 0.0
O225 O 0.71705 0.18556 0.61574 0.0
O226 O 0.65115 0.16523 0.57968 0.0
C227 C 0.63041 0.13693 0.62542 0.0
C228 C 0.74718 0.18132 0.39323 0.0
O229 O 0.62722 0.10641 0.6081 0.0
C230 C 0.66972 0.06899 0.38715 0.0
O231 O 0.66762 0.17239 0.40744 0.0
O232 O 0.61996 0.11904 0.43849 0.0
O233 O 0.73989 0.14869 0.40533 0.0
O234 O 0.73407 0.19601 0.44378 0.0
C235 C 0.67363 0.06849 0.62051 0.0
O236 O 0.64718 0.08002 0.39577 0.0
O237 O 0.69735 0.08068 0.43876 0.0
C238 C 0.63507 0.14805 0.39188 0.0
O239 O 0.64824 0.06284 0.56634 0.0
O240 O 0.70515 0.09605 0.61141 0.0
C241 C 0.74522 0.18293 0.62774 0.0
Fe242 Fe 0.61201 0.71436 0.50329 0.0
Fe243 Fe 0.52794 0.6836 0.50704 0.0
O244 O 0.56627 0.67649 0.5078 0.0
Fe245 Fe 0.55863 0.63103 0.51231 0.0
O246 O 0.59967 0.64256 0.57764 0.0
O247 O 0.62523 0.70108 0.60705 0.0
O248 O 0.60229 0.74443 0.57218 0.0
C249 C 0.57518 0.73946 0.61901 0.0
C250 C 0.61463 0.66072 0.39117 0.0
O251 O 0.54379 0.71183 0.60679 0.0
C252 C 0.50272 0.62437 0.39541 0.0
O253 O 0.60322 0.73193 0.39953 0.0
O254 O 0.54897 0.72385 0.43433 0.0
O255 O 0.58207 0.6367 0.40748 0.0
O256 O 0.63018 0.69049 0.43471 0.0
C257 C 0.50688 0.62484 0.63187 0.0
O258 O 0.50932 0.65669 0.40572 0.0
O259 O 0.5161 0.61047 0.44758 0.0
C260 C 0.57753 0.73875 0.38681 0.0
O261 O 0.49924 0.64416 0.58053 0.0
O262 O 0.53445 0.62148 0.61764 0.0
C263 C 0.62104 0.66995 0.62386 0.0
C264 C 0.45438 0.23584 0.16562 0.0
C265 C 0.45365 0.20318 0.19219 0.0
C266 C 0.45328 0.2192 0.35034 0.0
C267 C 0.45795 0.25361 0.32307 0.0
N268 N 0.47065 0.29752 0.20475 0.0
N269 N 0.45603 0.16496 0.30968 0.0
C270 C 0.46073 0.26273 0.23068 0.0
C271 C 0.45354 0.19486 0.28465 0.0
N272 N 0.4477 0.24063 0.07831 0.0
N273 N 0.44977 0.21028 0.43928 0.0
H274 H 0.45611 0.14652 0.26377 0.0
H275 H 0.4604 0.15954 0.37527 0.0
H276 H 0.45371 0.22895 0.48944 0.0
H277 H 0.44159 0.18412 0.46331 0.0
H278 H 0.44443 0.26231 0.05649 0.0
H279 H 0.44134 0.22078 0.02946 0.0
H280 H 0.4772 0.30687 0.13891 0.0
H281 H 0.47546 0.31798 0.25036 0.0
C282 C 0.22223 0.42371 0.32314 0.0
C283 C 0.21028 0.44976 0.31659 0.0
C284 C 0.24669 0.47479 0.17896 0.0
C285 C 0.26179 0.45156 0.19051 0.0
N286 N 0.26434 0.40374 0.27328 0.0
N287 N 0.2119 0.5008 0.23952 0.0
C288 C 0.24927 0.4256 0.26193 0.0
C289 C 0.22279 0.4754 0.24479 0.0
N290 N 0.20793 0.39733 0.38828 0.0
N291 N 0.25346 0.49496 0.10215 0.0
H292 H 0.19062 0.49885 0.27787 0.0
H293 H 0.22456 0.5242 0.1996 0.0
H294 H 0.27069 0.49561 0.05198 0.0
H295 H 0.23949 0.50852 0.08377 0.0
H296 H 0.21215 0.37509 0.39155 0.0
H297 H 0.18988 0.39635 0.43718 0.0
H298 H 0.26028 0.38743 0.3294 0.0
H299 H 0.28261 0.4031 0.22769 0.0
C300 C 0.78866 0.22452 0.16759 0.0
C301 C 0.82248 0.25495 0.19506 0.0
C302 C 0.80858 0.23473 0.35177 0.0
C303 C 0.7746 0.20451 0.32447 0.0
N304 N 0.73577 0.16599 0.20578 0.0
N305 N 0.86873 0.28376 0.30846 0.0
C306 C 0.76582 0.19787 0.23206 0.0
C307 C 0.83358 0.2586 0.28595 0.0
N308 N 0.77769 0.22177 0.08032 0.0
N309 N 0.81709 0.24044 0.44085 0.0
H310 H 0.88799 0.30018 0.26079 0.0
H311 H 0.87993 0.28599 0.37195 0.0
H312 H 0.8017 0.22139 0.49009 0.0
H313 H 0.83864 0.26452 0.46643 0.0
H314 H 0.7515 0.20314 0.05789 0.0
H315 H 0.79417 0.23967 0.0305 0.0
H316 H 0.73019 0.1574 0.13946 0.0
H317 H 0.71745 0.14661 0.25088 0.0
C318 C 0.58504 0.76018 0.22526 0.0
C319 C 0.58119 0.76619 0.31748 0.0
C320 C 0.58565 0.82509 0.27881 0.0
C321 C 0.58649 0.8179 0.18664 0.0
N322 N 0.59425 0.78284 0.07124 0.0
N323 N 0.56922 0.80081 0.42839 0.0
C324 C 0.58816 0.7865 0.15958 0.0
C325 C 0.57917 0.79764 0.34326 0.0
N326 N 0.58317 0.72814 0.20024 0.0
N327 N 0.59227 0.85875 0.30556 0.0
H328 H 0.56445 0.7822 0.47954 0.0
H329 H 0.56241 0.82045 0.4468 0.0
H330 H 0.59822 0.87988 0.26068 0.0
H331 H 0.59611 0.8671 0.37221 0.0
H332 H 0.58295 0.72021 0.13433 0.0
H333 H 0.57947 0.70779 0.24586 0.0
H334 H 0.59813 0.76217 0.0457 0.0
H335 H 0.59815 0.80244 0.02307 0.0
C336 C 0.76045 0.5341 0.25527 0.0
C337 C 0.77177 0.55983 0.18262 0.0
C338 C 0.83449 0.59172 0.24731 0.0
C339 C 0.82211 0.56688 0.32058 0.0
N340 N 0.7708 0.52404 0.40925 0.0
N341 N 0.82322 0.6075 0.09935 0.0
C342 C 0.78445 0.54089 0.32863 0.0
C343 C 0.80972 0.58749 0.17655 0.0
N344 N 0.72796 0.50178 0.25403 0.0
N345 N 0.86977 0.62014 0.24611 0.0
H346 H 0.80769 0.60508 0.04299 0.0
H347 H 0.85096 0.62403 0.08574 0.0
H348 H 0.88945 0.62323 0.29273 0.0
H349 H 0.87915 0.64257 0.20327 0.0
H350 H 0.72147 0.4811 0.30113 0.0
H351 H 0.7091 0.49244 0.20233 0.0
H352 H 0.74285 0.50837 0.42248 0.0
H353 H 0.78692 0.52955 0.46642 0.0
C354 C 0.25682 0.83043 0.25069 0.0
C355 C 0.26652 0.81584 0.32497 0.0
C356 C 0.22076 0.75388 0.2777 0.0
C357 C 0.21545 0.76778 0.19549 0.0
N358 N 0.22949 0.82125 0.10394 0.0
N359 N 0.2584 0.76286 0.40788 0.0
C360 C 0.23328 0.80659 0.18249 0.0
C361 C 0.24883 0.77736 0.33774 0.0
N362 N 0.27008 0.86727 0.24491 0.0
N363 N 0.19704 0.71852 0.30175 0.0
H364 H 0.27604 0.77845 0.45897 0.0
H365 H 0.2503 0.73521 0.41272 0.0
H366 H 0.17453 0.70146 0.2627 0.0
H367 H 0.19676 0.70761 0.36472 0.0
H368 H 0.2599 0.87922 0.20073 0.0
H369 H 0.28962 0.88599 0.28853 0.0
H370 H 0.24653 0.84844 0.08546 0.0
H371 H 0.21134 0.80659 0.05301 0.0
C372 C 0.60111 0.80514 0.67692 0.0
C373 C 0.58 0.76644 0.69072 0.0
C374 C 0.55704 0.77663 0.83272 0.0
C375 C 0.57831 0.81512 0.8198 0.0
N376 N 0.62677 0.86597 0.7396 0.0
N377 N 0.5495 0.71748 0.79794 0.0
C378 C 0.60242 0.8293 0.74535 0.0
C379 C 0.56126 0.75285 0.77326 0.0
N380 N 0.6187 0.81932 0.59744 0.0
N381 N 0.53282 0.76234 0.90224 0.0
H382 H 0.55437 0.69998 0.75911 0.0
H383 H 0.53923 0.70692 0.8613 0.0
H384 H 0.53081 0.77799 0.95303 0.0
H385 H 0.51309 0.73474 0.90682 0.0
H386 H 0.62911 0.84654 0.5788 0.0
H387 H 0.62111 0.8041 0.54631 0.0
H388 H 0.6484 0.87739 0.69424 0.0
H389 H 0.6273 0.88497 0.7845 0.0
C390 C 0.80284 0.56313 0.84203 0.0
C391 C 0.78092 0.57937 0.82166 0.0
C392 C 0.81348 0.60092 0.67725 0.0
C393 C 0.83107 0.58025 0.69312 0.0
N394 N 0.84189 0.54052 0.78849 0.0
N395 N 0.76422 0.61217 0.71545 0.0
C396 C 0.82563 0.56119 0.77505 0.0
C397 C 0.78634 0.59839 0.73864 0.0
N398 N 0.80313 0.55067 0.92671 0.0
N399 N 0.82264 0.62296 0.60317 0.0
H400 H 0.74497 0.6123 0.75827 0.0
H401 H 0.76322 0.62152 0.65139 0.0
H402 H 0.84125 0.62441 0.55524 0.0
H403 H 0.81415 0.642 0.59265 0.0
H404 H 0.8221 0.54335 0.94843 0.0
H405 H 0.78686 0.55064 0.97875 0.0
H406 H 0.83472 0.52135 0.83988 0.0
H407 H 0.86145 0.54125 0.74506 0.0
C408 C 0.27736 0.82241 0.78287 0.0
C409 C 0.26496 0.82092 0.69393 0.0
C410 C 0.2059 0.76716 0.73243 0.0
C411 C 0.21684 0.77062 0.82367 0.0
N412 N 0.26273 0.80395 0.93745 0.0
N413 N 0.21585 0.79586 0.58612 0.0
C414 C 0.2525 0.79896 0.84935 0.0
C415 C 0.22865 0.79459 0.66953 0.0
N416 N 0.31351 0.84509 0.80295 0.0
N417 N 0.17526 0.73622 0.70428 0.0
H418 H 0.23185 0.81541 0.53831 0.0
H419 H 0.18854 0.77975 0.5673 0.0
H420 H 0.15933 0.71434 0.74696 0.0
H421 H 0.16785 0.73041 0.63717 0.0
H422 H 0.32561 0.84409 0.86303 0.0
H423 H 0.33226 0.86335 0.75673 0.0
H424 H 0.2859 0.82709 0.96136 0.0
H425 H 0.24711 0.78626 0.98844 0.0
C426 C 0.42784 0.21987 0.69327 0.0
C427 C 0.45279 0.25801 0.6995 0.0
C428 C 0.48124 0.24775 0.83225 0.0
C429 C 0.45704 0.20924 0.825 0.0
N430 N 0.40258 0.15936 0.75914 0.0
N431 N 0.49549 0.30898 0.78795 0.0
C432 C 0.42872 0.19557 0.7591 0.0
C433 C 0.47733 0.27212 0.77273 0.0
N434 N 0.40424 0.20665 0.62223 0.0
N435 N 0.50795 0.26132 0.89648 0.0
H436 H 0.4917 0.32717 0.74803 0.0
H437 H 0.51115 0.32125 0.84478 0.0
H438 H 0.50935 0.2457 0.94878 0.0
H439 H 0.52973 0.28808 0.89649 0.0
H440 H 0.38893 0.17908 0.60592 0.0
H441 H 0.40136 0.22351 0.5756 0.0
H442 H 0.37881 0.14846 0.72079 0.0
H443 H 0.40318 0.14012 0.80176 0.0
C444 C 0.20302 0.42885 0.75891 0.0
C445 C 0.21631 0.4555 0.68924 0.0
C446 C 0.27651 0.48613 0.76078 0.0
C447 C 0.26514 0.45692 0.82355 0.0
N448 N 0.21679 0.39886 0.87951 0.0
N449 N 0.26891 0.50257 0.61075 0.0
C450 C 0.22826 0.42749 0.8209 0.0
C451 C 0.25399 0.48199 0.68624 0.0
N452 N 0.1662 0.4064 0.76971 0.0
N453 N 0.308 0.51865 0.77288 0.0
H454 H 0.25391 0.49914 0.5524 0.0
H455 H 0.29703 0.51975 0.60262 0.0
H456 H 0.325 0.52442 0.82793 0.0
H457 H 0.31506 0.54154 0.73282 0.0
H458 H 0.15456 0.38925 0.82487 0.0
H459 H 0.14694 0.40733 0.72773 0.0
H460 H 0.19195 0.3746 0.87283 0.0
H461 H 0.23262 0.39854 0.93285 0.0
C462 C 0.80406 0.26949 0.76074 0.0
C463 C 0.82139 0.25805 0.82494 0.0
C464 C 0.78735 0.19567 0.76197 0.0
C465 C 0.77345 0.20858 0.69257 0.0
N466 N 0.7776 0.26064 0.61339 0.0
N467 N 0.83065 0.20974 0.88375 0.0
C468 C 0.7845 0.24629 0.68834 0.0
C469 C 0.8137 0.22106 0.82393 0.0
N470 N 0.80488 0.30205 0.76941 0.0
N471 N 0.77384 0.15894 0.77219 0.0
H472 H 0.84665 0.22573 0.93678 0.0
H473 H 0.8301 0.18488 0.87861 0.0
H474 H 0.75479 0.1396 0.72855 0.0
H475 H 0.77923 0.14729 0.82764 0.0
H476 H 0.78899 0.30937 0.73031 0.0
H477 H 0.81818 0.3202 0.82097 0.0
H478 H 0.78905 0.28867 0.60263 0.0
H479 H 0.76405 0.24517 0.55744 0.0
C480 C 0.37069 0.0134 0.33063 0.0
C481 C 0.36933 0.97972 0.31407 0.0
C482 C 0.4001 1.00241 0.17054 0.0
C483 C 0.40216 0.03669 0.18667 0.0
N484 N 0.38289 0.07235 0.27301 0.0
N485 N 0.37199 0.93814 0.2096 0.0
C486 C 0.38503 0.04128 0.26356 0.0
C487 C 0.38045 0.97296 0.23087 0.0
N488 N 0.35942 0.01903 0.41176 0.0
N489 N 0.41799 0.99813 0.09956 0.0
H490 H 0.35733 0.91611 0.25293 0.0
H491 H 0.37596 0.93046 0.14627 0.0
H492 H 0.43153 0.01801 0.05094 0.0
H493 H 0.42146 0.97554 0.0917 0.0
H494 H 0.3639 0.04434 0.43341 0.0
H495 H 0.34679 0.9983 0.45958 0.0
H496 H 0.3679 0.07597 0.32311 0.0
H497 H 0.39404 0.09376 0.22687 0.0
C498 C 0.36825 0.36874 0.33852 0.0
C499 C 0.38856 0.35201 0.3109 0.0
C500 C 0.37532 0.35919 0.15445 0.0
C501 C 0.36212 0.3827 0.18233 0.0
N502 N 0.3504 0.41354 0.30257 0.0
N503 N 0.41037 0.32964 0.19167 0.0
C504 C 0.35908 0.38799 0.27491 0.0
C505 C 0.39119 0.34609 0.21851 0.0
N506 N 0.35752 0.36588 0.42574 0.0
N507 N 0.37259 0.34944 0.06649 0.0
H508 H 0.42016 0.31767 0.23669 0.0
H509 H 0.41781 0.32912 0.12545 0.0
H510 H 0.3613 0.35889 0.01856 0.0
H511 H 0.37841 0.32977 0.0426 0.0
H512 H 0.34018 0.37505 0.44859 0.0
H513 H 0.36277 0.35064 0.47262 0.0
H514 H 0.35162 0.42111 0.36941 0.0
H515 H 0.34539 0.42969 0.25816 0.0
C516 C 1.00969 0.39584 0.33665 0.0
C517 C 0.04304 0.39513 0.32602 0.0
C518 C 1.01582 0.35313 0.19831 0.0
C519 C 0.98479 0.35756 0.20278 0.0
N520 N 0.9474 0.37495 0.28588 0.0
N521 N 0.07875 0.3749 0.2432 0.0
C522 C 0.98036 0.3765 0.27516 0.0
C523 C 0.0461 0.37365 0.25688 0.0
N524 N 1.00633 0.41579 0.4041 0.0
N525 N 1.01574 0.32855 0.13906 0.0
H526 H 0.10171 0.39003 0.28325 0.0
H527 H 0.08414 0.36322 0.18833 0.0
H528 H 0.99299 0.31227 0.09918 0.0
H529 H 0.03606 0.32147 0.13596 0.0
H530 H 0.98526 0.42171 0.40922 0.0
H531 H 0.02521 0.42767 0.45543 0.0
H532 H 0.94025 0.38535 0.34024 0.0
H533 H 0.92556 0.3605 0.24225 0.0
C534 C 0.61445 0.97419 0.28376 0.0
C535 C 0.63529 0.97814 0.20595 0.0
C536 C 0.68284 0.03883 0.25785 0.0
C537 C 0.65944 0.03671 0.32887 0.0
N538 N 0.60172 1.00204 0.40799 0.0
N539 N 0.69594 1.00768 0.14022 0.0
C540 C 0.62517 1.00414 0.34213 0.0
C541 C 0.67157 1.00842 0.19909 0.0
N542 N 0.58501 0.94082 0.30409 0.0
N543 N 0.71471 0.07086 0.24256 0.0
H544 H 0.69019 0.98544 0.10007 0.0
H545 H 0.72359 0.02735 0.13848 0.0
H546 H 0.72442 0.09338 0.28478 0.0
H547 H 0.73029 0.07627 0.18462 0.0
H548 H 0.57145 0.93442 0.36543 0.0
H549 H 0.57652 0.91814 0.26314 0.0
H550 H 0.57423 0.98187 0.41055 0.0
H551 H 0.60859 0.02137 0.45778 0.0
C552 C 0.67505 0.66219 0.19757 0.0
C553 C 0.66834 0.62587 0.20276 0.0
C554 C 0.63542 0.61689 0.3439 0.0
C555 C 0.63615 0.6507 0.33008 0.0
N556 N 0.65507 0.70486 0.2395 0.0
N557 N 0.64381 0.56882 0.2818 0.0
C558 C 0.65607 0.67354 0.25652 0.0
C559 C 0.64923 0.60345 0.27669 0.0
N560 N 0.69984 0.68586 0.13695 0.0
N561 N 0.62278 0.5981 0.42273 0.0
H562 H 0.65747 0.56006 0.23972 0.0
H563 H 0.62517 0.54873 0.32501 0.0
H564 H 0.61265 0.60671 0.47464 0.0
H565 H 0.62559 0.57577 0.4408 0.0
H566 H 0.70846 0.71367 0.13481 0.0
H567 H 0.71437 0.67816 0.09431 0.0
H568 H 0.66543 0.72026 0.18115 0.0
H569 H 0.64133 0.71403 0.28023 0.0
C570 C 0.03051 0.65575 0.34676 0.0
C571 C 0.99303 0.63545 0.31958 0.0
C572 C 1.01252 0.65376 0.16358 0.0
C573 C 0.0495 0.66762 0.1893 0.0
N574 N 0.09466 0.68463 0.30572 0.0
N575 N 0.94862 0.61379 0.19915 0.0
C576 C 0.05881 0.67003 0.28117 0.0
C577 C 0.98401 0.63464 0.22728 0.0
N578 N 0.03912 0.66203 0.43561 0.0
N579 N 1.00487 0.65974 0.07823 0.0
H580 H 0.92682 0.59899 0.24258 0.0
H581 H 0.94114 0.60865 0.13192 0.0
H582 H 0.02548 0.67477 0.03164 0.0
H583 H 0.97883 0.65337 0.05669 0.0
H584 H 0.06518 0.68008 0.45981 0.0
H585 H 0.01953 0.65146 0.48578 0.0
H586 H 0.10321 0.68245 0.36984 0.0
H587 H 0.1162 0.69771 0.26058 0.0
C588 C 0.66994 0.04961 0.78283 0.0
C589 C 0.66614 0.0403 0.69066 0.0
C590 C 0.63358 0.97499 0.73081 0.0
C591 C 0.6391 0.98428 0.82307 0.0
N592 N 0.67073 0.03042 0.93565 0.0
N593 N 0.65346 0.99462 0.57823 0.0
C594 C 0.66002 0.02164 0.84854 0.0
C595 C 0.65091 1.00309 0.66515 0.0
N596 N 0.6807 0.08464 0.80812 0.0
N597 N 0.60987 0.93982 0.70538 0.0
H598 H 0.66706 0.01458 0.52923 0.0
H599 H 0.64567 0.96822 0.55716 0.0
H600 H 0.59551 0.91862 0.75101 0.0
H601 H 0.60182 0.93236 0.63914 0.0
H602 H 0.67992 0.09203 0.87424 0.0
H603 H 0.68733 0.10583 0.7625 0.0
H604 H 0.68893 0.05694 0.95676 0.0
H605 H 0.66433 1.01063 0.98509 0.0
C606 C 0.65474 0.6564 0.85061 0.0
C607 C 0.66749 0.63243 0.82351 0.0
C608 C 0.6627 0.64659 0.66671 0.0
C609 C 0.64366 0.66476 0.69283 0.0
N610 N 0.62162 0.6878 0.81028 0.0
N611 N 0.67793 0.60011 0.70468 0.0
C612 C 0.64037 0.67065 0.78509 0.0
C613 C 0.67024 0.62648 0.7312 0.0
N614 N 0.65535 0.6646 0.9392 0.0
N615 N 0.67395 0.64901 0.58002 0.0
H616 H 0.68255 0.58391 0.74987 0.0
H617 H 0.67641 0.5921 0.63812 0.0
H618 H 0.66998 0.66491 0.53238 0.0
H619 H 0.69052 0.63873 0.55839 0.0
H620 H 0.6502 0.68474 0.96292 0.0
H621 H 0.66335 0.65268 0.98893 0.0
H622 H 0.61395 0.68871 0.87602 0.0
H623 H 0.61203 0.69978 0.76455 0.0
C624 C 0.02223 0.67048 0.68264 0.0
C625 C 0.98904 0.63728 0.69707 0.0
C626 C 1.00916 0.63098 0.84522 0.0
C627 C 0.04502 0.66023 0.82548 0.0
N628 N 0.08532 0.71007 0.72832 0.0
N629 N 0.94483 0.60329 0.80947 0.0
C630 C 0.05127 0.68125 0.74584 0.0
C631 C 0.98058 0.62267 0.78389 0.0
N632 N 0.02492 0.69296 0.61347 0.0
N633 N 1.00233 0.60984 0.92008 0.0
H634 H 0.92367 0.59889 0.76555 0.0
H635 H 0.9367 0.59548 0.87564 0.0
H636 H 0.0219 0.61468 0.96846 0.0
H637 H 0.97753 0.58587 0.93103 0.0
H638 H 0.04727 0.719 0.60358 0.0
H639 H 1.00302 0.68728 0.57129 0.0
H640 H 0.09307 0.72326 0.66645 0.0
H641 H 0.10656 0.71982 0.77478 0.0
C642 C 0.36458 0.978 0.77597 0.0
C643 C 0.37857 0.98752 0.6875 0.0
C644 C 0.41023 0.05267 0.72823 0.0
C645 C 0.40114 0.04282 0.81938 0.0
N646 N 0.36729 0.9968 0.93092 0.0
N647 N 0.4168 0.03379 0.57994 0.0
C648 C 0.37735 1.00561 0.84331 0.0
C649 C 0.40164 0.02486 0.66355 0.0
N650 N 0.33907 0.94255 0.7953 0.0
N651 N 0.42693 0.08859 0.70312 0.0
H652 H 0.41046 0.01456 0.52971 0.0
H653 H 0.43754 0.05985 0.56202 0.0
H654 H 0.43449 0.10978 0.74859 0.0
H655 H 0.43046 0.09727 0.63659 0.0
H656 H 0.32525 0.93389 0.85602 0.0
H657 H 0.32984 0.92176 0.74796 0.0
H658 H 0.35415 0.97026 0.95622 0.0
H659 H 0.37296 0.01657 0.97958 0.0
C660 C 0.3839 0.41715 0.7211 0.0
C661 C 0.36731 0.39609 0.79927 0.0
C662 C 0.38023 0.34872 0.74613 0.0
C663 C 0.39861 0.37062 0.67033 0.0
N664 N 0.40942 0.42129 0.57372 0.0
N665 N 0.33476 0.3347 0.8608 0.0
C666 C 0.39789 0.40357 0.65421 0.0
C667 C 0.36066 0.35959 0.80417 0.0
N668 N 0.38584 0.45022 0.71072 0.0
N669 N 0.38304 0.3186 0.7661 0.0
H670 H 0.31751 0.34019 0.89895 0.0
H671 H 0.32703 0.30708 0.86098 0.0
H672 H 0.39748 0.30987 0.72649 0.0
H673 H 0.37389 0.30428 0.82637 0.0
H674 H 0.40255 0.47001 0.66431 0.0
H675 H 0.37053 0.45779 0.7506 0.0
H676 H 0.40597 0.44303 0.55374 0.0
H677 H 0.41969 0.41243 0.52259 0.0
C678 C 0.98607 0.38184 0.74041 0.0
C679 C 0.98739 0.3619 0.81442 0.0
C680 C 0.04446 0.3687 0.75202 0.0
C681 C 0.04722 0.39686 0.69299 0.0
N682 N 0.02359 0.43887 0.66897 0.0
N683 N 0.0225 0.34011 0.89699 0.0
C684 C 0.01884 0.40598 0.6975 0.0
C685 C 1.01783 0.35611 0.82239 0.0
N686 N 0.95392 0.37919 0.71379 0.0
N687 N 0.06545 0.35275 0.74073 0.0
H688 H 1.00396 0.33035 0.94964 0.0
H689 H 0.04641 0.33921 0.90905 0.0
H690 H 0.0829 0.35799 0.68685 0.0
H691 H 0.06183 0.33052 0.77936 0.0
H692 H 0.95209 0.39298 0.65743 0.0
H693 H 0.92911 0.35968 0.74186 0.0
H694 H 1.00307 0.4457 0.67511 0.0
H695 H 0.04913 0.4612 0.65469 0.0
C696 C 0.55053 0.14167 0.28424 0.0
C697 C 0.56308 0.15545 0.19705 0.0
C698 C 0.62479 0.16867 0.23834 0.0
C699 C 0.61228 0.15509 0.32627 0.0
N700 N 0.56825 0.14666 0.43962 0.0
N701 N 0.61479 0.19616 0.10621 0.0
C702 C 0.5765 0.14677 0.35144 0.0
C703 C 0.60111 0.1735 0.17866 0.0
N704 N 0.51402 0.12376 0.30337 0.0
N705 N 0.6583 0.17541 0.20977 0.0
H706 H 0.59817 0.2013 0.06361 0.0
H707 H 0.64277 0.21239 0.09404 0.0
H708 H 0.67624 0.17156 0.25022 0.0
H709 H 0.66684 0.18183 0.14335 0.0
H710 H 0.50351 0.11031 0.36416 0.0
H711 H 0.49426 0.12036 0.25629 0.0
H712 H 0.54339 0.14358 0.46145 0.0
H713 H 0.58832 0.15497 0.48914 0.0
C714 C 0.47053 0.56492 0.18786 0.0
C715 C 0.43195 0.5459 0.20142 0.0
C716 C 0.43964 0.58345 0.33404 0.0
C717 C 0.47809 0.60115 0.32282 0.0
N718 N 0.52996 0.61594 0.2294 0.0
N719 N 0.38025 0.53216 0.29535 0.0
C720 C 0.49353 0.59371 0.2472 0.0
C721 C 0.41659 0.55409 0.27628 0.0
N722 N 0.48525 0.55513 0.11919 0.0
N723 N 0.42519 0.59555 0.3982 0.0
H724 H 0.363 0.50937 0.25703 0.0
H725 H 0.36788 0.53413 0.35366 0.0
H726 H 0.44138 0.61715 0.44101 0.0
H727 H 0.39736 0.58646 0.4043 0.0
H728 H 0.5131 0.56469 0.1117 0.0
H729 H 0.46961 0.53568 0.07129 0.0
H730 H 0.54298 0.6146 0.17169 0.0
H731 H 0.54678 0.63855 0.26879 0.0
C732 C 0.9143 0.48855 0.2446 0.0
C733 C 0.8918 0.47416 0.32192 0.0
C734 C 0.87427 0.4119 0.27391 0.0
C735 C 0.89799 0.42629 0.19935 0.0
N736 N 0.9433 0.4787 0.11622 0.0
N737 N 0.83709 0.42098 0.38062 0.0
C738 C 0.91882 0.46474 0.18537 0.0
C739 C 0.86787 0.43554 0.32868 0.0
N740 N 0.9282 0.52462 0.22296 0.0
N741 N 0.859 0.37565 0.29528 0.0
H742 H 0.82737 0.43622 0.41245 0.0
H743 H 0.81763 0.39323 0.38093 0.0
H744 H 0.86367 0.35752 0.25818 0.0
H745 H 0.8452 0.36452 0.35526 0.0
H746 H 0.94196 0.53666 0.16365 0.0
H747 H 0.92181 0.54168 0.25933 0.0
H748 H 0.96292 0.50623 0.10997 0.0
H749 H 0.94572 0.46267 0.06703 0.0
C750 C 0.46289 0.87724 0.35171 0.0
C751 C 0.43066 0.87753 0.32495 0.0
C752 C 0.44311 0.87059 0.16785 0.0
C753 C 0.4757 0.87091 0.19461 0.0
N754 N 0.50984 0.86252 0.31319 0.0
N755 N 0.38527 0.86548 0.21173 0.0
C756 C 0.4834 0.87031 0.287 0.0
C757 C 0.41935 0.87158 0.23406 0.0
N758 N 0.47486 0.88515 0.43829 0.0
N759 N 0.43473 0.86892 0.07887 0.0
H760 H 0.36705 0.86533 0.25899 0.0
H761 H 0.37373 0.85761 0.14827 0.0
H762 H 0.4488 0.86341 0.0298 0.0
H763 H 0.41452 0.87377 0.05338 0.0
H764 H 0.50031 0.8896 0.45959 0.0
H765 H 0.46061 0.89021 0.48769 0.0
H766 H 0.51422 0.85808 0.37968 0.0
H767 H 0.52517 0.85698 0.26795 0.0
C768 C 0.61747 0.46861 0.26593 0.0
C769 C 0.60706 0.46509 0.1745 0.0
C770 C 0.54545 0.41543 0.21256 0.0
C771 C 0.5559 0.418 0.30439 0.0
N772 N 0.60301 0.44577 0.41825 0.0
N773 N 0.56476 0.42988 0.05761 0.0
C774 C 0.59241 0.44393 0.33078 0.0
C775 C 0.57217 0.43681 0.14693 0.0
N776 N 0.65103 0.49654 0.29107 0.0
N777 N 0.50974 0.39338 0.18779 0.0
H778 H 0.58367 0.44484 0.00776 0.0
H779 H 0.54143 0.40711 0.03294 0.0
H780 H 0.48919 0.37642 0.23206 0.0
H781 H 0.4997 0.39393 0.1243 0.0
H782 H 0.6592 0.504 0.35712 0.0
H783 H 0.67047 0.51395 0.24481 0.0
H784 H 0.63014 0.45978 0.43946 0.0
H785 H 0.58495 0.43246 0.47065 0.0
C786 C 0.15454 0.58867 0.34703 0.0
C787 C 0.15307 0.55578 0.32077 0.0
C788 C 0.14724 0.56912 0.16393 0.0
C789 C 0.14579 0.60055 0.19132 0.0
N790 N 0.13525 0.63223 0.31118 0.0
N791 N 0.13709 0.50951 0.20777 0.0
C792 C 0.14577 0.60811 0.2836 0.0
C793 C 0.14674 0.54458 0.22999 0.0
N794 N 0.16431 0.60136 0.43252 0.0
N795 N 0.1476 0.56187 0.07508 0.0
H796 H 0.13387 0.48992 0.25528 0.0
H797 H 0.12858 0.49875 0.14383 0.0
H798 H 0.14396 0.57694 0.02488 0.0
H799 H 0.1532 0.54198 0.05152 0.0
H800 H 0.16879 0.62688 0.45275 0.0
H801 H 0.17144 0.58798 0.48059 0.0
H802 H 0.13159 0.63628 0.37833 0.0
H803 H 0.12601 0.64483 0.26644 0.0
C804 C 0.45995 0.9029 0.8407 0.0
C805 C 0.47842 0.88282 0.82646 0.0
C806 C 0.44285 0.85634 0.68906 0.0
C807 C 0.42588 0.87773 0.70101 0.0
N808 N 0.4125 0.91613 0.79313 0.0
N809 N 0.49246 0.84579 0.73006 0.0
C810 C 0.43291 0.89965 0.77823 0.0
C811 C 0.47087 0.86057 0.74932 0.0
N812 N 0.46902 0.92585 0.91257 0.0
N813 N 0.43178 0.83163 0.62062 0.0
H814 H 0.51429 0.84967 0.77035 0.0
H815 H 0.49123 0.8327 0.67019 0.0
H816 H 0.41174 0.82826 0.57442 0.0
H817 H 0.44009 0.81235 0.61358 0.0
H818 H 0.46004 0.94449 0.92181 0.0
H819 H 0.48701 0.92764 0.96273 0.0
H820 H 0.4133 0.92985 0.85148 0.0
H821 H 0.39228 0.91381 0.74897 0.0
C822 C 0.58424 0.48063 0.75737 0.0
C823 C 0.60933 0.47292 0.80183 0.0
C824 C 0.58776 0.41855 0.7075 0.0
C825 C 0.55789 0.42261 0.67699 0.0
N826 N 0.52319 0.45371 0.7002 0.0
N827 N 0.6281 0.42817 0.83246 0.0
C828 C 0.55477 0.45255 0.70971 0.0
C829 C 0.60924 0.44003 0.78092 0.0
N830 N 0.58893 0.51502 0.75772 0.0
N831 N 0.59723 0.39602 0.66441 0.0
H832 H 0.64232 0.44152 0.89023 0.0
H833 H 0.62595 0.40269 0.82324 0.0
H834 H 0.58509 0.38264 0.60488 0.0
H835 H 0.62055 0.39469 0.68137 0.0
H836 H 0.57249 0.52219 0.7203 0.0
H837 H 0.61212 0.53713 0.78459 0.0
H838 H 0.51946 0.47406 0.72914 0.0
H839 H 0.49927 0.43195 0.67556 0.0
C840 C 0.12633 0.57143 0.67893 0.0
C841 C 0.14718 0.55358 0.69121 0.0
C842 C 0.175 0.58999 0.82767 0.0
C843 C 0.15338 0.60688 0.81597 0.0
N844 N 0.1164 0.6214 0.72054 0.0
N845 N 0.19249 0.54651 0.77406 0.0
C846 C 0.13121 0.59967 0.73883 0.0
C847 C 0.17215 0.56337 0.76435 0.0
N848 N 0.10162 0.56132 0.61026 0.0
N849 N 0.19754 0.5989 0.9007 0.0
H850 H 0.18832 0.52439 0.73514 0.0
H851 H 0.21372 0.55416 0.81972 0.0
H852 H 0.2015 0.61945 0.94542 0.0
H853 H 0.21196 0.58588 0.91921 0.0
H854 H 0.08209 0.56944 0.60506 0.0
H855 H 0.09904 0.54317 0.56015 0.0
H856 H 0.10292 0.62043 0.6612 0.0
H857 H 0.12092 0.6433 0.76115 0.0
C858 C 0.62012 0.15348 0.77925 0.0
C859 C 0.60608 0.13847 0.69378 0.0
C860 C 0.54676 0.13101 0.73428 0.0
C861 C 0.55951 0.14248 0.82242 0.0
N862 N 0.60471 0.15271 0.9351 0.0
N863 N 0.55235 0.10121 0.60327 0.0
C864 C 0.59539 0.15085 0.84693 0.0
C865 C 0.56828 0.12364 0.67499 0.0
N866 N 0.65663 0.16885 0.79716 0.0
N867 N 0.51444 0.12785 0.70649 0.0
H868 H 0.56677 0.09425 0.55856 0.0
H869 H 0.52412 0.08704 0.59285 0.0
H870 H 0.4989 0.13477 0.74764 0.0
H871 H 0.50547 0.12242 0.64019 0.0
H872 H 0.66859 0.18345 0.8556 0.0
H873 H 0.67522 0.16887 0.75136 0.0
H874 H 0.62949 0.15555 0.95703 0.0
H875 H 0.5857 0.14655 0.986 0.0
C876 C 0.44457 0.57291 0.67408 0.0
C877 C 0.47994 0.60098 0.70098 0.0
C878 C 0.46318 0.58441 0.85871 0.0
C879 C 0.42847 0.55545 0.83184 0.0
N880 N 0.38329 0.52609 0.7156 0.0
N881 N 0.52562 0.62776 0.81749 0.0
C882 C 0.41823 0.55108 0.74004 0.0
C883 C 0.49001 0.6052 0.79294 0.0
N884 N 0.43745 0.56458 0.58522 0.0
N885 N 0.46968 0.59346 0.94737 0.0
H886 H 0.54632 0.643 0.77167 0.0
H887 H 0.53543 0.62878 0.88217 0.0
H888 H 0.44979 0.5802 0.99657 0.0
H889 H 0.49298 0.61654 0.971 0.0
H890 H 0.41399 0.54196 0.56071 0.0
H891 H 0.45677 0.57817 0.53544 0.0
H892 H 0.37239 0.52509 0.65231 0.0
H893 H 0.36412 0.50743 0.76019 0.0
C894 C 0.89419 0.48185 0.79243 0.0
C895 C 0.88683 0.47149 0.70122 0.0
C896 C 0.87829 0.41093 0.74034 0.0
C897 C 0.88382 0.42096 0.83226 0.0
N898 N 0.88656 0.46208 0.94731 0.0
N899 N 0.86645 0.42429 0.58964 0.0
C900 C 0.88858 0.45528 0.85872 0.0
C901 C 0.87708 0.43534 0.67572 0.0
N902 N 0.90849 0.51761 0.81532 0.0
N903 N 0.87594 0.37889 0.71406 0.0
H904 H 0.86656 0.44189 0.54057 0.0
H905 H 0.85504 0.39731 0.56845 0.0
H906 H 0.87616 0.36014 0.75926 0.0
H907 H 0.87633 0.37189 0.64745 0.0
H908 H 0.91799 0.52759 0.87938 0.0
H909 H 0.91415 0.53766 0.76733 0.0
H910 H 0.88653 0.48536 0.9701 0.0
H911 H 0.88076 0.44254 0.99716 0.0
loop_
_geom_bond_atom_site_label_1
_geom_bond_atom_site_label_2
_geom_bond_distance
_geom_bond_site_symmetry_2
_ccdc_geom_bond_type
Fe0 O2 1.918 . S
Fe0 O5 1.997 1_554 S
Fe0 O6 2.002 1_554 S
Fe0 O11 1.976 . S
Fe0 O14 1.996 . S
Fe1 O2 1.918 . S
Fe1 O9 1.997 1_554 S
Fe1 O12 1.996 . S
Fe1 O16 1.976 . S
Fe1 O19 2.002 1_554 S
O2 Fe0 1.918 . S
O2 Fe1 1.918 . S
O2 Fe3 1.918 . S
Fe3 O2 1.918 . S
Fe3 O4 2.002 1_554 S
Fe3 O13 1.976 . S
Fe3 O17 1.996 . S
Fe3 O20 1.997 1_554 S
O4 Fe3 2.002 1_556 S
O4 C21 1.295 . S
O5 Fe0 1.997 1_556 S
O5 C21 1.235 . S
O6 Fe0 2.002 1_556 S
O6 C7 1.295 . S
C7 O6 1.295 . S
C7 O9 1.235 . S
C8 O13 1.287 . S
C8 O14 1.255 . S
O9 Fe1 1.997 1_556 S
O9 C7 1.235 . S
C10 O16 1.287 . S
C10 O17 1.255 . S
O11 Fe0 1.976 . S
O11 C18 1.287 . S
O12 Fe1 1.996 . S
O12 C18 1.255 . S
O13 Fe3 1.976 . S
O13 C8 1.287 . S
O14 Fe0 1.996 . S
O14 C8 1.255 . S
C15 O19 1.295 . S
C15 O20 1.235 . S
O16 Fe1 1.976 . S
O16 C10 1.287 . S
O17 Fe3 1.996 . S
O17 C10 1.255 . S
C18 O11 1.287 . S
C18 O12 1.255 . S
O19 Fe1 2.002 1_556 S
O19 C15 1.295 . S
O20 Fe3 1.997 1_556 S
O20 C15 1.235 . S
C21 O4 1.295 . S
C21 O5 1.235 . S
Fe22 O24 1.918 . S
Fe22 O27 1.997 1_554 S
Fe22 O28 2.002 1_554 S
Fe22 O33 1.976 . S
Fe22 O36 1.996 . S
Fe23 O24 1.918 . S
Fe23 O31 1.997 1_554 S
Fe23 O34 1.996 . S
Fe23 O38 1.976 . S
Fe23 O41 2.002 1_554 S
O24 Fe22 1.918 . S
O24 Fe23 1.918 . S
O24 Fe25 1.918 . S
Fe25 O24 1.918 . S
Fe25 O26 2.002 1_554 S
Fe25 O35 1.976 . S
Fe25 O39 1.996 . S
Fe25 O42 1.997 1_554 S
O26 Fe25 2.002 1_556 S
O26 C43 1.295 . S
O27 Fe22 1.997 1_556 S
O27 C43 1.235 . S
O28 Fe22 2.002 1_556 S
O28 C29 1.295 . S
C29 O28 1.295 . S
C29 O31 1.235 . S
C30 O35 1.287 . S
C30 O36 1.255 . S
O31 Fe23 1.997 1_556 S
O31 C29 1.235 . S
C32 O38 1.287 . S
C32 O39 1.255 . S
O33 Fe22 1.976 . S
O33 C40 1.287 . S
O34 Fe23 1.996 . S
O34 C40 1.255 . S
O35 Fe25 1.976 . S
O35 C30 1.287 . S
O36 Fe22 1.996 . S
O36 C30 1.255 . S
C37 O41 1.295 . S
C37 O42 1.235 . S
O38 Fe23 1.976 . S
O38 C32 1.287 . S
O39 Fe25 1.996 . S
O39 C32 1.255 . S
C40 O33 1.287 . S
C40 O34 1.255 . S
O41 Fe23 2.002 1_556 S
O41 C37 1.295 . S
O42 Fe25 1.997 1_556 S
O42 C37 1.235 . S
C43 O26 1.295 . S
C43 O27 1.235 . S
Fe44 O46 1.918 . S
Fe44 O49 1.997 1_554 S
Fe44 O50 2.002 1_554 S
Fe44 O55 1.976 . S
Fe44 O58 1.996 . S
Fe45 O46 1.918 . S
Fe45 O53 1.997 1_554 S
Fe45 O56 1.996 . S
Fe45 O60 1.976 . S
Fe45 O63 2.002 1_554 S
O46 Fe44 1.918 . S
O46 Fe45 1.918 . S
O46 Fe47 1.918 . S
Fe47 O46 1.918 . S
Fe47 O48 2.002 1_554 S
Fe47 O57 1.976 . S
Fe47 O61 1.996 . S
Fe47 O64 1.997 1_554 S
O48 Fe47 2.002 1_556 S
O48 C65 1.295 . S
O49 Fe44 1.997 1_556 S
O49 C65 1.235 . S
O50 Fe44 2.002 1_556 S
O50 C51 1.295 . S
C51 O50 1.295 . S
C51 O53 1.235 . S
C52 O57 1.287 . S
C52 O58 1.255 . S
O53 Fe45 1.997 1_556 S
O53 C51 1.235 . S
C54 O60 1.287 . S
C54 O61 1.255 . S
O55 Fe44 1.976 . S
O55 C62 1.287 . S
O56 Fe45 1.996 . S
O56 C62 1.255 . S
O57 Fe47 1.976 . S
O57 C52 1.287 . S
O58 Fe44 1.996 . S
O58 C52 1.255 . S
C59 O63 1.295 . S
C59 O64 1.235 . S
O60 Fe45 1.976 . S
O60 C54 1.287 . S
O61 Fe47 1.996 . S
O61 C54 1.255 . S
C62 O55 1.287 . S
C62 O56 1.255 . S
O63 Fe45 2.002 1_556 S
O63 C59 1.295 . S
O64 Fe47 1.997 1_556 S
O64 C59 1.235 . S
C65 O48 1.295 . S
C65 O49 1.235 . S
Fe66 O68 1.918 . S
Fe66 O71 1.997 1_554 S
Fe66 O72 2.002 1_554 S
Fe66 O77 1.976 . S
Fe66 O80 1.996 . S
Fe67 O68 1.918 . S
Fe67 O75 1.997 1_554 S
Fe67 O78 1.996 . S
Fe67 O82 1.976 . S
Fe67 O85 2.002 1_554 S
O68 Fe66 1.918 . S
O68 Fe67 1.918 . S
O68 Fe69 1.918 . S
Fe69 O68 1.918 . S
Fe69 O70 2.002 1_554 S
Fe69 O79 1.976 . S
Fe69 O83 1.996 . S
Fe69 O86 1.997 1_554 S
O70 Fe69 2.002 1_556 S
O70 C87 1.295 . S
O71 Fe66 1.997 1_556 S
O71 C87 1.235 . S
O72 Fe66 2.002 1_556 S
O72 C73 1.295 . S
C73 O72 1.295 . S
C73 O75 1.235 . S
C74 O79 1.287 . S
C74 O80 1.255 . S
O75 Fe67 1.997 1_556 S
O75 C73 1.235 . S
C76 O82 1.287 . S
C76 O83 1.255 . S
O77 Fe66 1.976 . S
O77 C84 1.287 . S
O78 Fe67 1.996 . S
O78 C84 1.255 . S
O79 Fe69 1.976 . S
O79 C74 1.287 . S
O80 Fe66 1.996 . S
O80 C74 1.255 . S
C81 O85 1.295 . S
C81 O86 1.235 . S
O82 Fe67 1.976 . S
O82 C76 1.287 . S
O83 Fe69 1.996 . S
O83 C76 1.255 . S
C84 O77 1.287 . S
C84 O78 1.255 . S
O85 Fe67 2.002 1_556 S
O85 C81 1.295 . S
O86 Fe69 1.997 1_556 S
O86 C81 1.235 . S
C87 O70 1.295 . S
C87 O71 1.235 . S
Fe88 O90 1.918 . S
Fe88 O93 1.997 1_554 S
Fe88 O94 2.002 1_554 S
Fe88 O99 1.976 . S
Fe88 O102 1.996 . S
Fe89 O90 1.918 . S
Fe89 O97 1.997 1_554 S
Fe89 O100 1.996 . S
Fe89 O104 1.976 . S
Fe89 O107 2.002 1_554 S
O90 Fe88 1.918 . S
O90 Fe89 1.918 . S
O90 Fe91 1.918 . S
Fe91 O90 1.918 . S
Fe91 O92 2.002 1_554 S
Fe91 O101 1.976 . S
Fe91 O105 1.996 . S
Fe91 O108 1.997 1_554 S
O92 Fe91 2.002 1_556 S
O92 C109 1.295 . S
O93 Fe88 1.997 1_556 S
O93 C109 1.235 . S
O94 Fe88 2.002 1_556 S
O94 C95 1.295 . S
C95 O94 1.295 . S
C95 O97 1.235 . S
C96 O101 1.287 . S
C96 O102 1.255 . S
O97 Fe89 1.997 1_556 S
O97 C95 1.235 . S
C98 O104 1.287 . S
C98 O105 1.255 . S
O99 Fe88 1.976 . S
O99 C106 1.287 . S
O100 Fe89 1.996 . S
O100 C106 1.255 . S
O101 Fe91 1.976 . S
O101 C96 1.287 . S
O102 Fe88 1.996 . S
O102 C96 1.255 . S
C103 O107 1.295 . S
C103 O108 1.235 . S
O104 Fe89 1.976 . S
O104 C98 1.287 . S
O105 Fe91 1.996 . S
O105 C98 1.255 . S
C106 O99 1.287 . S
C106 O100 1.255 . S
O107 Fe89 2.002 1_556 S
O107 C103 1.295 . S
O108 Fe91 1.997 1_556 S
O108 C103 1.235 . S
C109 O92 1.295 . S
C109 O93 1.235 . S
Fe110 O112 1.918 . S
Fe110 O115 1.997 1_554 S
Fe110 O116 2.002 1_554 S
Fe110 O121 1.976 . S
Fe110 O124 1.996 . S
Fe111 O112 1.918 . S
Fe111 O119 1.997 1_554 S
Fe111 O122 1.996 . S
Fe111 O126 1.976 . S
Fe111 O129 2.002 1_554 S
O112 Fe110 1.918 . S
O112 Fe111 1.918 . S
O112 Fe113 1.918 . S
Fe113 O112 1.918 . S
Fe113 O114 2.002 1_554 S
Fe113 O123 1.976 . S
Fe113 O127 1.996 . S
Fe113 O130 1.997 1_554 S
O114 Fe113 2.002 1_556 S
O114 C131 1.295 . S
O115 Fe110 1.997 1_556 S
O115 C131 1.235 . S
O116 Fe110 2.002 1_556 S
O116 C117 1.295 . S
C117 O116 1.295 . S
C117 O119 1.235 . S
C118 O123 1.287 . S
C118 O124 1.255 . S
O119 Fe111 1.997 1_556 S
O119 C117 1.235 . S
C120 O126 1.287 . S
C120 O127 1.255 . S
O121 Fe110 1.976 . S
O121 C128 1.287 . S
O122 Fe111 1.996 . S
O122 C128 1.255 . S
O123 Fe113 1.976 . S
O123 C118 1.287 . S
O124 Fe110 1.996 . S
O124 C118 1.255 . S
C125 O129 1.295 . S
C125 O130 1.235 . S
O126 Fe111 1.976 . S
O126 C120 1.287 . S
O127 Fe113 1.996 . S
O127 C120 1.255 . S
C128 O121 1.287 . S
C128 O122 1.255 . S
O129 Fe111 2.002 1_556 S
O129 C125 1.295 . S
O130 Fe113 1.997 1_556 S
O130 C125 1.235 . S
C131 O114 1.295 . S
C131 O115 1.235 . S
Fe132 O134 1.918 . S
Fe132 O137 1.997 . S
Fe132 O138 2.002 . S
Fe132 O143 1.976 . S
Fe132 O146 1.996 . S
Fe133 O134 1.918 . S
Fe133 O141 1.997 . S
Fe133 O144 1.996 . S
Fe133 O148 1.976 . S
Fe133 O151 2.002 . S
O134 Fe132 1.918 . S
O134 Fe133 1.918 . S
O134 Fe135 1.918 . S
Fe135 O134 1.918 . S
Fe135 O136 2.002 . S
Fe135 O145 1.976 . S
Fe135 O149 1.996 . S
Fe135 O152 1.997 . S
O136 Fe135 2.002 . S
O136 C153 1.295 . S
O137 Fe132 1.997 . S
O137 C153 1.235 . S
O138 Fe132 2.002 . S
O138 C139 1.295 . S
C139 O138 1.295 . S
C139 O141 1.235 . S
C140 O145 1.287 . S
C140 O146 1.255 . S
O141 Fe133 1.997 . S
O141 C139 1.235 . S
C142 O148 1.287 . S
C142 O149 1.255 . S
O143 Fe132 1.976 . S
O143 C150 1.287 . S
O144 Fe133 1.996 . S
O144 C150 1.255 . S
O145 Fe135 1.976 . S
O145 C140 1.287 . S
O146 Fe132 1.996 . S
O146 C140 1.255 . S
C147 O151 1.295 . S
C147 O152 1.235 . S
O148 Fe133 1.976 . S
O148 C142 1.287 . S
O149 Fe135 1.996 . S
O149 C142 1.255 . S
C150 O143 1.287 . S
C150 O144 1.255 . S
O151 Fe133 2.002 . S
O151 C147 1.295 . S
O152 Fe135 1.997 . S
O152 C147 1.235 . S
C153 O136 1.295 . S
C153 O137 1.235 . S
Fe154 O156 1.918 . S
Fe154 O159 1.997 . S
Fe154 O160 2.002 . S
Fe154 O165 1.976 . S
Fe154 O168 1.996 . S
Fe155 O156 1.918 . S
Fe155 O163 1.997 . S
Fe155 O166 1.996 . S
Fe155 O170 1.976 . S
Fe155 O173 2.002 . S
O156 Fe154 1.918 . S
O156 Fe155 1.918 . S
O156 Fe157 1.918 . S
Fe157 O156 1.918 . S
Fe157 O158 2.002 . S
Fe157 O167 1.976 . S
Fe157 O171 1.996 . S
Fe157 O174 1.997 . S
O158 Fe157 2.002 . S
O158 C175 1.295 . S
O159 Fe154 1.997 . S
O159 C175 1.235 . S
O160 Fe154 2.002 . S
O160 C161 1.295 . S
C161 O160 1.295 . S
C161 O163 1.235 . S
C162 O167 1.287 . S
C162 O168 1.255 . S
O163 Fe155 1.997 . S
O163 C161 1.235 . S
C164 O170 1.287 . S
C164 O171 1.255 . S
O165 Fe154 1.976 . S
O165 C172 1.287 . S
O166 Fe155 1.996 . S
O166 C172 1.255 . S
O167 Fe157 1.976 . S
O167 C162 1.287 . S
O168 Fe154 1.996 . S
O168 C162 1.255 . S
C169 O173 1.295 . S
C169 O174 1.235 . S
O170 Fe155 1.976 . S
O170 C164 1.287 . S
O171 Fe157 1.996 . S
O171 C164 1.255 . S
C172 O165 1.287 . S
C172 O166 1.255 . S
O173 Fe155 2.002 . S
O173 C169 1.295 . S
O174 Fe157 1.997 . S
O174 C169 1.235 . S
C175 O158 1.295 . S
C175 O159 1.235 . S
Fe176 O178 1.918 . S
Fe176 O181 1.997 . S
Fe176 O182 2.002 . S
Fe176 O187 1.976 . S
Fe176 O190 1.996 . S
Fe177 O178 1.918 . S
Fe177 O185 1.997 . S
Fe177 O188 1.996 . S
Fe177 O192 1.976 . S
Fe177 O195 2.002 . S
O178 Fe176 1.918 . S
O178 Fe177 1.918 . S
O178 Fe179 1.918 . S
Fe179 O178 1.918 . S
Fe179 O180 2.002 . S
Fe179 O189 1.976 . S
Fe179 O193 1.996 . S
Fe179 O196 1.997 . S
O180 Fe179 2.002 . S
O180 C197 1.295 . S
O181 Fe176 1.997 . S
O181 C197 1.235 . S
O182 Fe176 2.002 . S
O182 C183 1.295 . S
C183 O182 1.295 . S
C183 O185 1.235 . S
C184 O189 1.287 . S
C184 O190 1.255 . S
O185 Fe177 1.997 . S
O185 C183 1.235 . S
C186 O192 1.287 . S
C186 O193 1.255 . S
O187 Fe176 1.976 . S
O187 C194 1.287 . S
O188 Fe177 1.996 . S
O188 C194 1.255 . S
O189 Fe179 1.976 . S
O189 C184 1.287 . S
O190 Fe176 1.996 . S
O190 C184 1.255 . S
C191 O195 1.295 . S
C191 O196 1.235 . S
O192 Fe177 1.976 . S
O192 C186 1.287 . S
O193 Fe179 1.996 . S
O193 C186 1.255 . S
C194 O187 1.287 . S
C194 O188 1.255 . S
O195 Fe177 2.002 . S
O195 C191 1.295 . S
O196 Fe179 1.997 . S
O196 C191 1.235 . S
C197 O180 1.295 . S
C197 O181 1.235 . S
Fe198 O200 1.918 . S
Fe198 O203 1.997 . S
Fe198 O204 2.002 . S
Fe198 O209 1.976 . S
Fe198 O212 1.996 . S
Fe199 O200 1.918 . S
Fe199 O207 1.997 . S
Fe199 O210 1.996 . S
Fe199 O214 1.976 . S
Fe199 O217 2.002 . S
O200 Fe198 1.918 . S
O200 Fe199 1.918 . S
O200 Fe201 1.918 . S
Fe201 O200 1.918 . S
Fe201 O202 2.002 . S
Fe201 O211 1.976 . S
Fe201 O215 1.996 . S
Fe201 O218 1.997 . S
O202 Fe201 2.002 . S
O202 C219 1.295 . S
O203 Fe198 1.997 . S
O203 C219 1.235 . S
O204 Fe198 2.002 . S
O204 C205 1.295 . S
C205 O204 1.295 . S
C205 O207 1.235 . S
C206 O211 1.287 . S
C206 O212 1.255 . S
O207 Fe199 1.997 . S
O207 C205 1.235 . S
C208 O214 1.287 . S
C208 O215 1.255 . S
O209 Fe198 1.976 . S
O209 C216 1.287 . S
O210 Fe199 1.996 . S
O210 C216 1.255 . S
O211 Fe201 1.976 . S
O211 C206 1.287 . S
O212 Fe198 1.996 . S
O212 C206 1.255 . S
C213 O217 1.295 . S
C213 O218 1.235 . S
O214 Fe199 1.976 . S
O214 C208 1.287 . S
O215 Fe201 1.996 . S
O215 C208 1.255 . S
C216 O209 1.287 . S
C216 O210 1.255 . S
O217 Fe199 2.002 . S
O217 C213 1.295 . S
O218 Fe201 1.997 . S
O218 C213 1.235 . S
C219 O202 1.295 . S
C219 O203 1.235 . S
Fe220 O222 1.918 . S
Fe220 O225 1.997 . S
Fe220 O226 2.002 . S
Fe220 O231 1.976 . S
Fe220 O234 1.996 . S
Fe221 O222 1.918 . S
Fe221 O229 1.997 . S
Fe221 O232 1.996 . S
Fe221 O236 1.976 . S
Fe221 O239 2.002 . S
O222 Fe220 1.918 . S
O222 Fe221 1.918 . S
O222 Fe223 1.918 . S
Fe223 O222 1.918 . S
Fe223 O224 2.002 . S
Fe223 O233 1.976 . S
Fe223 O237 1.996 . S
Fe223 O240 1.997 . S
O224 Fe223 2.002 . S
O224 C241 1.295 . S
O225 Fe220 1.997 . S
O225 C241 1.235 . S
O226 Fe220 2.002 . S
O226 C227 1.295 . S
C227 O226 1.295 . S
C227 O229 1.235 . S
C228 O233 1.287 . S
C228 O234 1.255 . S
O229 Fe221 1.997 . S
O229 C227 1.235 . S
C230 O236 1.287 . S
C230 O237 1.255 . S
O231 Fe220 1.976 . S
O231 C238 1.287 . S
O232 Fe221 1.996 . S
O232 C238 1.255 . S
O233 Fe223 1.976 . S
O233 C228 1.287 . S
O234 Fe220 1.996 . S
O234 C228 1.255 . S
C235 O239 1.295 . S
C235 O240 1.235 . S
O236 Fe221 1.976 . S
O236 C230 1.287 . S
O237 Fe223 1.996 . S
O237 C230 1.255 . S
C238 O231 1.287 . S
C238 O232 1.255 . S
O239 Fe221 2.002 . S
O239 C235 1.295 . S
O240 Fe223 1.997 . S
O240 C235 1.235 . S
C241 O224 1.295 . S
C241 O225 1.235 . S
Fe242 O244 1.918 . S
Fe242 O247 1.997 . S
Fe242 O248 2.002 . S
Fe242 O253 1.976 . S
Fe242 O256 1.996 . S
Fe243 O244 1.918 . S
Fe243 O251 1.997 . S
Fe243 O254 1.996 . S
Fe243 O258 1.976 . S
Fe243 O261 2.002 . S
O244 Fe242 1.918 . S
O244 Fe243 1.918 . S
O244 Fe245 1.918 . S
Fe245 O244 1.918 . S
Fe245 O246 2.002 . S
Fe245 O255 1.976 . S
Fe245 O259 1.996 . S
Fe245 O262 1.997 . S
O246 Fe245 2.002 . S
O246 C263 1.295 . S
O247 Fe242 1.997 . S
O247 C263 1.235 . S
O248 Fe242 2.002 . S
O248 C249 1.295 . S
C249 O248 1.295 . S
C249 O251 1.235 . S
C250 O255 1.287 . S
C250 O256 1.255 . S
O251 Fe243 1.997 . S
O251 C249 1.235 . S
C252 O258 1.287 . S
C252 O259 1.255 . S
O253 Fe242 1.976 . S
O253 C260 1.287 . S
O254 Fe243 1.996 . S
O254 C260 1.255 . S
O255 Fe245 1.976 . S
O255 C250 1.287 . S
O256 Fe242 1.996 . S
O256 C250 1.255 . S
C257 O261 1.295 . S
C257 O262 1.235 . S
O258 Fe243 1.976 . S
O258 C252 1.287 . S
O259 Fe245 1.996 . S
O259 C252 1.255 . S
C260 O253 1.287 . S
C260 O254 1.255 . S
O261 Fe243 2.002 . S
O261 C257 1.295 . S
O262 Fe245 1.997 . S
O262 C257 1.235 . S
C263 O246 1.295 . S
C263 O247 1.235 . S
C264 C265 1.363 . S
C264 C270 1.379 . S
C264 N272 1.356 . S
C265 C264 1.363 . S
C265 C271 1.363 . S
C266 C267 1.363 . S
C266 C271 1.379 . S
C266 N273 1.356 . S
C267 C266 1.363 . S
C267 C270 1.363 . S
N268 C270 1.356 . S
N268 H280 0.984 . S
N268 H281 0.985 . S
N269 C271 1.356 . S
N269 H274 0.984 . S
N269 H275 0.985 . S
C270 C264 1.379 . S
C270 C267 1.363 . S
C270 N268 1.356 . S
C271 C265 1.363 . S
C271 C266 1.379 . S
C271 N269 1.356 . S
N272 C264 1.356 . S
N272 H278 0.984 . S
N272 H279 0.984 . S
N273 C266 1.356 . S
N273 H276 0.984 . S
N273 H277 0.985 . S
H274 N269 0.984 . S
H275 N269 0.985 . S
H276 N273 0.984 . S
H277 N273 0.985 . S
H278 N272 0.984 . S
H279 N272 0.984 . S
H280 N268 0.984 . S
H281 N268 0.985 . S
C282 C283 1.363 . S
C282 C288 1.379 . S
C282 N290 1.356 . S
C283 C282 1.363 . S
C283 C289 1.363 . S
C284 C285 1.363 . S
C284 C289 1.379 . S
C284 N291 1.356 . S
C285 C284 1.363 . S
C285 C288 1.363 . S
N286 C288 1.356 . S
N286 H298 0.984 . S
N286 H299 0.985 . S
N287 C289 1.356 . S
N287 H292 0.984 . S
N287 H293 0.985 . S
C288 C282 1.379 . S
C288 C285 1.363 . S
C288 N286 1.356 . S
C289 C283 1.363 . S
C289 C284 1.379 . S
C289 N287 1.356 . S
N290 C282 1.356 . S
N290 H296 0.984 . S
N290 H297 0.984 . S
N291 C284 1.356 . S
N291 H294 0.984 . S
N291 H295 0.985 . S
H292 N287 0.984 . S
H293 N287 0.985 . S
H294 N291 0.984 . S
H295 N291 0.985 . S
H296 N290 0.984 . S
H297 N290 0.984 . S
H298 N286 0.984 . S
H299 N286 0.985 . S
C300 C301 1.363 . S
C300 C306 1.379 . S
C300 N308 1.356 . S
C301 C300 1.363 . S
C301 C307 1.363 . S
C302 C303 1.363 . S
C302 C307 1.379 . S
C302 N309 1.356 . S
C303 C302 1.363 . S
C303 C306 1.363 . S
N304 C306 1.356 . S
N304 H316 0.984 . S
N304 H317 0.985 . S
N305 C307 1.356 . S
N305 H310 0.984 . S
N305 H311 0.985 . S
C306 C300 1.379 . S
C306 C303 1.363 . S
C306 N304 1.356 . S
C307 C301 1.363 . S
C307 C302 1.379 . S
C307 N305 1.356 . S
N308 C300 1.356 . S
N308 H314 0.984 . S
N308 H315 0.984 . S
N309 C302 1.356 . S
N309 H312 0.984 . S
N309 H313 0.985 . S
H310 N305 0.984 . S
H311 N305 0.985 . S
H312 N309 0.984 . S
H313 N309 0.985 . S
H314 N308 0.984 . S
H315 N308 0.984 . S
H316 N304 0.984 . S
H317 N304 0.985 . S
C318 C319 1.363 . S
C318 C324 1.379 . S
C318 N326 1.356 . S
C319 C318 1.363 . S
C319 C325 1.363 . S
C320 C321 1.363 . S
C320 C325 1.379 . S
C320 N327 1.356 . S
C321 C320 1.363 . S
C321 C324 1.363 . S
N322 C324 1.356 . S
N322 H334 0.984 . S
N322 H335 0.985 . S
N323 C325 1.356 . S
N323 H328 0.984 . S
N323 H329 0.985 . S
C324 C318 1.379 . S
C324 C321 1.363 . S
C324 N322 1.356 . S
C325 C319 1.363 . S
C325 C320 1.379 . S
C325 N323 1.356 . S
N326 C318 1.356 . S
N326 H332 0.984 . S
N326 H333 0.984 . S
N327 C320 1.356 . S
N327 H330 0.984 . S
N327 H331 0.985 . S
H328 N323 0.984 . S
H329 N323 0.985 . S
H330 N327 0.984 . S
H331 N327 0.985 . S
H332 N326 0.984 . S
H333 N326 0.984 . S
H334 N322 0.984 . S
H335 N322 0.985 . S
C336 C337 1.363 . S
C336 C342 1.379 . S
C336 N344 1.356 . S
C337 C336 1.363 . S
C337 C343 1.363 . S
C338 C339 1.363 . S
C338 C343 1.379 . S
C338 N345 1.356 . S
C339 C338 1.363 . S
C339 C342 1.363 . S
N340 C342 1.356 . S
N340 H352 0.984 . S
N340 H353 0.985 . S
N341 C343 1.356 . S
N341 H346 0.984 . S
N341 H347 0.985 . S
C342 C336 1.379 . S
C342 C339 1.363 . S
C342 N340 1.356 . S
C343 C337 1.363 . S
C343 C338 1.379 . S
C343 N341 1.356 . S
N344 C336 1.356 . S
N344 H350 0.984 . S
N344 H351 0.984 . S
N345 C338 1.356 . S
N345 H348 0.984 . S
N345 H349 0.985 . S
H346 N341 0.984 . S
H347 N341 0.985 . S
H348 N345 0.984 . S
H349 N345 0.985 . S
H350 N344 0.984 . S
H351 N344 0.984 . S
H352 N340 0.984 . S
H353 N340 0.985 . S
C354 C355 1.363 . S
C354 C360 1.379 . S
C354 N362 1.356 . S
C355 C354 1.363 . S
C355 C361 1.363 . S
C356 C357 1.363 . S
C356 C361 1.379 . S
C356 N363 1.356 . S
C357 C356 1.363 . S
C357 C360 1.363 . S
N358 C360 1.356 . S
N358 H370 0.984 . S
N358 H371 0.985 . S
N359 C361 1.356 . S
N359 H364 0.984 . S
N359 H365 0.985 . S
C360 C354 1.379 . S
C360 C357 1.363 . S
C360 N358 1.356 . S
C361 C355 1.363 . S
C361 C356 1.379 . S
C361 N359 1.356 . S
N362 C354 1.356 . S
N362 H368 0.984 . S
N362 H369 0.984 . S
N363 C356 1.356 . S
N363 H366 0.984 . S
N363 H367 0.985 . S
H364 N359 0.984 . S
H365 N359 0.985 . S
H366 N363 0.984 . S
H367 N363 0.985 . S
H368 N362 0.984 . S
H369 N362 0.984 . S
H370 N358 0.984 . S
H371 N358 0.985 . S
C372 C373 1.363 . S
C372 C378 1.379 . S
C372 N380 1.356 . S
C373 C372 1.363 . S
C373 C379 1.363 . S
C374 C375 1.363 . S
C374 C379 1.379 . S
C374 N381 1.356 . S
C375 C374 1.363 . S
C375 C378 1.363 . S
N376 C378 1.356 . S
N376 H388 0.984 . S
N376 H389 0.985 . S
N377 C379 1.356 . S
N377 H382 0.984 . S
N377 H383 0.985 . S
C378 C372 1.379 . S
C378 C375 1.363 . S
C378 N376 1.356 . S
C379 C373 1.363 . S
C379 C374 1.379 . S
C379 N377 1.356 . S
N380 C372 1.356 . S
N380 H386 0.984 . S
N380 H387 0.984 . S
N381 C374 1.356 . S
N381 H384 0.984 . S
N381 H385 0.985 . S
H382 N377 0.984 . S
H383 N377 0.985 . S
H384 N381 0.984 . S
H385 N381 0.985 . S
H386 N380 0.984 . S
H387 N380 0.984 . S
H388 N376 0.984 . S
H389 N376 0.985 . S
C390 C391 1.363 . S
C390 C396 1.379 . S
C390 N398 1.356 . S
C391 C390 1.363 . S
C391 C397 1.363 . S
C392 C393 1.363 . S
C392 C397 1.379 . S
C392 N399 1.356 . S
C393 C392 1.363 . S
C393 C396 1.363 . S
N394 C396 1.356 . S
N394 H406 0.984 . S
N394 H407 0.985 . S
N395 C397 1.356 . S
N395 H400 0.984 . S
N395 H401 0.985 . S
C396 C390 1.379 . S
C396 C393 1.363 . S
C396 N394 1.356 . S
C397 C391 1.363 . S
C397 C392 1.379 . S
C397 N395 1.356 . S
N398 C390 1.356 . S
N398 H404 0.984 . S
N398 H405 0.984 . S
N399 C392 1.356 . S
N399 H402 0.984 . S
N399 H403 0.985 . S
H400 N395 0.984 . S
H401 N395 0.985 . S
H402 N399 0.984 . S
H403 N399 0.985 . S
H404 N398 0.984 . S
H405 N398 0.984 . S
H406 N394 0.984 . S
H407 N394 0.985 . S
C408 C409 1.363 . S
C408 C414 1.379 . S
C408 N416 1.356 . S
C409 C408 1.363 . S
C409 C415 1.363 . S
C410 C411 1.363 . S
C410 C415 1.379 . S
C410 N417 1.356 . S
C411 C410 1.363 . S
C411 C414 1.363 . S
N412 C414 1.356 . S
N412 H424 0.984 . S
N412 H425 0.985 . S
N413 C415 1.356 . S
N413 H418 0.984 . S
N413 H419 0.985 . S
C414 C408 1.379 . S
C414 C411 1.363 . S
C414 N412 1.356 . S
C415 C409 1.363 . S
C415 C410 1.379 . S
C415 N413 1.356 . S
N416 C408 1.356 . S
N416 H422 0.984 . S
N416 H423 0.984 . S
N417 C410 1.356 . S
N417 H420 0.984 . S
N417 H421 0.985 . S
H418 N413 0.984 . S
H419 N413 0.985 . S
H420 N417 0.984 . S
H421 N417 0.985 . S
H422 N416 0.984 . S
H423 N416 0.984 . S
H424 N412 0.984 . S
H425 N412 0.985 . S
C426 C427 1.363 . S
C426 C432 1.379 . S
C426 N434 1.356 . S
C427 C426 1.363 . S
C427 C433 1.363 . S
C428 C429 1.363 . S
C428 C433 1.379 . S
C428 N435 1.356 . S
C429 C428 1.363 . S
C429 C432 1.363 . S
N430 C432 1.356 . S
N430 H442 0.984 . S
N430 H443 0.985 . S
N431 C433 1.356 . S
N431 H436 0.984 . S
N431 H437 0.985 . S
C432 C426 1.379 . S
C432 C429 1.363 . S
C432 N430 1.356 . S
C433 C427 1.363 . S
C433 C428 1.379 . S
C433 N431 1.356 . S
N434 C426 1.356 . S
N434 H440 0.984 . S
N434 H441 0.984 . S
N435 C428 1.356 . S
N435 H438 0.984 . S
N435 H439 0.985 . S
H436 N431 0.984 . S
H437 N431 0.985 . S
H438 N435 0.984 . S
H439 N435 0.985 . S
H440 N434 0.984 . S
H441 N434 0.984 . S
H442 N430 0.984 . S
H443 N430 0.985 . S
C444 C445 1.363 . S
C444 C450 1.379 . S
C444 N452 1.356 . S
C445 C444 1.363 . S
C445 C451 1.363 . S
C446 C447 1.363 . S
C446 C451 1.379 . S
C446 N453 1.356 . S
C447 C446 1.363 . S
C447 C450 1.363 . S
N448 C450 1.356 . S
N448 H460 0.984 . S
N448 H461 0.985 . S
N449 C451 1.356 . S
N449 H454 0.984 . S
N449 H455 0.985 . S
C450 C444 1.379 . S
C450 C447 1.363 . S
C450 N448 1.356 . S
C451 C445 1.363 . S
C451 C446 1.379 . S
C451 N449 1.356 . S
N452 C444 1.356 . S
N452 H458 0.984 . S
N452 H459 0.984 . S
N453 C446 1.356 . S
N453 H456 0.984 . S
N453 H457 0.985 . S
H454 N449 0.984 . S
H455 N449 0.985 . S
H456 N453 0.984 . S
H457 N453 0.985 . S
H458 N452 0.984 . S
H459 N452 0.984 . S
H460 N448 0.984 . S
H461 N448 0.985 . S
C462 C463 1.363 . S
C462 C468 1.379 . S
C462 N470 1.356 . S
C463 C462 1.363 . S
C463 C469 1.363 . S
C464 C465 1.363 . S
C464 C469 1.379 . S
C464 N471 1.356 . S
C465 C464 1.363 . S
C465 C468 1.363 . S
N466 C468 1.356 . S
N466 H478 0.984 . S
N466 H479 0.985 . S
N467 C469 1.356 . S
N467 H472 0.984 . S
N467 H473 0.985 . S
C468 C462 1.379 . S
C468 C465 1.363 . S
C468 N466 1.356 . S
C469 C463 1.363 . S
C469 C464 1.379 . S
C469 N467 1.356 . S
N470 C462 1.356 . S
N470 H476 0.984 . S
N470 H477 0.984 . S
N471 C464 1.356 . S
N471 H474 0.984 . S
N471 H475 0.985 . S
H472 N467 0.984 . S
H473 N467 0.985 . S
H474 N471 0.984 . S
H475 N471 0.985 . S
H476 N470 0.984 . S
H477 N470 0.984 . S
H478 N466 0.984 . S
H479 N466 0.985 . S
C480 C481 1.363 1_545 S
C480 C486 1.379 . S
C480 N488 1.356 1_545 S
C481 C480 1.363 1_565 S
C481 C487 1.363 . S
C482 C483 1.363 1_565 S
C482 C487 1.379 . S
C482 N489 1.356 1_565 S
C483 C482 1.363 1_545 S
C483 C486 1.363 . S
N484 C486 1.356 . S
N484 H496 0.984 . S
N484 H497 0.985 . S
N485 C487 1.356 . S
N485 H490 0.984 . S
N485 H491 0.985 . S
C486 C480 1.379 . S
C486 C483 1.363 . S
C486 N484 1.356 . S
C487 C481 1.363 . S
C487 C482 1.379 . S
C487 N485 1.356 . S
N488 C480 1.356 1_565 S
N488 H494 0.984 1_565 S
N488 H495 0.984 . S
N489 C482 1.356 1_545 S
N489 H492 0.984 . S
N489 H493 0.985 1_545 S
H490 N485 0.984 . S
H491 N485 0.985 . S
H492 N489 0.984 . S
H493 N489 0.985 1_565 S
H494 N488 0.984 1_545 S
H495 N488 0.984 . S
H496 N484 0.984 . S
H497 N484 0.985 . S
C498 C499 1.363 . S
C498 C504 1.379 . S
C498 N506 1.356 . S
C499 C498 1.363 . S
C499 C505 1.363 . S
C500 C501 1.363 . S
C500 C505 1.379 . S
C500 N507 1.356 . S
C501 C500 1.363 . S
C501 C504 1.363 . S
N502 C504 1.356 . S
N502 H514 0.984 . S
N502 H515 0.985 . S
N503 C505 1.356 . S
N503 H508 0.984 . S
N503 H509 0.985 . S
C504 C498 1.379 . S
C504 C501 1.363 . S
C504 N502 1.356 . S
C505 C499 1.363 . S
C505 C500 1.379 . S
C505 N503 1.356 . S
N506 C498 1.356 . S
N506 H512 0.984 . S
N506 H513 0.984 . S
N507 C500 1.356 . S
N507 H510 0.984 . S
N507 H511 0.985 . S
H508 N503 0.984 . S
H509 N503 0.985 . S
H510 N507 0.984 . S
H511 N507 0.985 . S
H512 N506 0.984 . S
H513 N506 0.984 . S
H514 N502 0.984 . S
H515 N502 0.985 . S
C516 C517 1.363 . S
C516 C522 1.379 1_455 S
C516 N524 1.356 . S
C517 C516 1.363 . S
C517 C523 1.363 . S
C518 C519 1.363 . S
C518 C523 1.379 1_655 S
C518 N525 1.356 . S
C519 C518 1.363 . S
C519 C522 1.363 . S
N520 C522 1.356 . S
N520 H532 0.984 . S
N520 H533 0.985 . S
N521 C523 1.356 . S
N521 H526 0.984 . S
N521 H527 0.985 . S
C522 C516 1.379 1_655 S
C522 C519 1.363 . S
C522 N520 1.356 . S
C523 C517 1.363 . S
C523 C518 1.379 1_455 S
C523 N521 1.356 . S
N524 C516 1.356 . S
N524 H530 0.984 . S
N524 H531 0.984 . S
N525 C518 1.356 . S
N525 H528 0.984 . S
N525 H529 0.985 . S
H526 N521 0.984 . S
H527 N521 0.985 . S
H528 N525 0.984 . S
H529 N525 0.985 . S
H530 N524 0.984 . S
H531 N524 0.984 . S
H532 N520 0.984 . S
H533 N520 0.985 . S
C534 C535 1.363 . S
C534 C540 1.379 . S
C534 N542 1.356 . S
C535 C534 1.363 . S
C535 C541 1.363 1_565 S
C536 C537 1.363 . S
C536 C541 1.379 . S
C536 N543 1.356 . S
C537 C536 1.363 . S
C537 C540 1.363 1_545 S
N538 C540 1.356 . S
N538 H550 0.984 . S
N538 H551 0.985 1_565 S
N539 C541 1.356 . S
N539 H544 0.984 1_545 S
N539 H545 0.985 . S
C540 C534 1.379 . S
C540 C537 1.363 1_565 S
C540 N538 1.356 . S
C541 C535 1.363 1_545 S
C541 C536 1.379 . S
C541 N539 1.356 . S
N542 C534 1.356 . S
N542 H548 0.984 . S
N542 H549 0.984 . S
N543 C536 1.356 . S
N543 H546 0.984 . S
N543 H547 0.985 . S
H544 N539 0.984 1_565 S
H545 N539 0.985 . S
H546 N543 0.984 . S
H547 N543 0.985 . S
H548 N542 0.984 . S
H549 N542 0.984 . S
H550 N538 0.984 . S
H551 N538 0.985 1_545 S
C552 C553 1.363 . S
C552 C558 1.379 . S
C552 N560 1.356 . S
C553 C552 1.363 . S
C553 C559 1.363 . S
C554 C555 1.363 . S
C554 C559 1.379 . S
C554 N561 1.356 . S
C555 C554 1.363 . S
C555 C558 1.363 . S
N556 C558 1.356 . S
N556 H568 0.984 . S
N556 H569 0.985 . S
N557 C559 1.356 . S
N557 H562 0.984 . S
N557 H563 0.985 . S
C558 C552 1.379 . S
C558 C555 1.363 . S
C558 N556 1.356 . S
C559 C553 1.363 . S
C559 C554 1.379 . S
C559 N557 1.356 . S
N560 C552 1.356 . S
N560 H566 0.984 . S
N560 H567 0.984 . S
N561 C554 1.356 . S
N561 H564 0.984 . S
N561 H565 0.985 . S
H562 N557 0.984 . S
H563 N557 0.985 . S
H564 N561 0.984 . S
H565 N561 0.985 . S
H566 N560 0.984 . S
H567 N560 0.984 . S
H568 N556 0.984 . S
H569 N556 0.985 . S
C570 C571 1.363 1_455 S
C570 C576 1.379 . S
C570 N578 1.365 . S
C571 C570 1.363 1_655 S
C571 C577 1.363 . S
C572 C573 1.363 1_655 S
C572 C577 1.379 . S
C572 N579 1.365 . S
C573 C572 1.363 1_455 S
C573 C576 1.363 . S
N574 C576 1.356 . S
N574 H586 0.984 . S
N574 H587 0.985 . S
N575 C577 1.356 . S
N575 H580 0.984 . S
N575 H581 0.985 . S
C576 C570 1.379 . S
C576 C573 1.363 . S
C576 N574 1.356 . S
C577 C571 1.363 . S
C577 C572 1.379 . S
C577 N575 1.356 . S
N578 C570 1.365 . S
N578 H584 1.000 . S
N578 H585 0.962 1_455 S
N579 C572 1.365 . S
N579 H582 0.962 1_655 S
N579 H583 1.000 . S
H580 N575 0.984 . S
H581 N575 0.985 . S
H582 N579 0.962 1_455 S
H583 N579 1.000 . S
H584 N578 1.000 . S
H585 N578 0.962 1_655 S
H586 N574 0.984 . S
H587 N574 0.985 . S
C588 C589 1.363 . S
C588 C594 1.379 . S
C588 N596 1.356 . S
C589 C588 1.363 . S
C589 C595 1.363 1_545 S
C590 C591 1.363 . S
C590 C595 1.379 . S
C590 N597 1.356 . S
C591 C590 1.363 . S
C591 C594 1.363 1_565 S
N592 C594 1.362 . S
N592 H604 1.006 . S
N592 H605 0.958 1_545 S
N593 C595 1.362 . S
N593 H598 0.958 1_565 S
N593 H599 1.006 . S
C594 C588 1.379 . S
C594 C591 1.363 1_545 S
C594 N592 1.362 . S
C595 C589 1.363 1_565 S
C595 C590 1.379 . S
C595 N593 1.362 . S
N596 C588 1.356 . S
N596 H602 0.984 . S
N596 H603 0.984 . S
N597 C590 1.356 . S
N597 H600 0.984 . S
N597 H601 0.985 . S
H598 N593 0.958 1_545 S
H599 N593 1.006 . S
H600 N597 0.984 . S
H601 N597 0.985 . S
H602 N596 0.984 . S
H603 N596 0.984 . S
H604 N592 1.006 . S
H605 N592 0.958 1_565 S
C606 C607 1.363 . S
C606 C612 1.379 . S
C606 N614 1.356 . S
C607 C606 1.363 . S
C607 C613 1.363 . S
C608 C609 1.363 . S
C608 C613 1.379 . S
C608 N615 1.356 . S
C609 C608 1.363 . S
C609 C612 1.363 . S
N610 C612 1.356 . S
N610 H622 0.984 . S
N610 H623 0.985 . S
N611 C613 1.356 . S
N611 H616 0.984 . S
N611 H617 0.985 . S
C612 C606 1.379 . S
C612 C609 1.363 . S
C612 N610 1.356 . S
C613 C607 1.363 . S
C613 C608 1.379 . S
C613 N611 1.356 . S
N614 C606 1.356 . S
N614 H620 0.984 . S
N614 H621 0.984 . S
N615 C608 1.356 . S
N615 H618 0.984 . S
N615 H619 0.985 . S
H616 N611 0.984 . S
H617 N611 0.985 . S
H618 N615 0.984 . S
H619 N615 0.985 . S
H620 N614 0.984 . S
H621 N614 0.984 . S
H622 N610 0.984 . S
H623 N610 0.985 . S
C624 C625 1.363 1_455 S
C624 C630 1.379 . S
C624 N632 1.356 1_455 S
C625 C624 1.363 1_655 S
C625 C631 1.363 . S
C626 C627 1.363 1_655 S
C626 C631 1.379 . S
C626 N633 1.356 1_655 S
C627 C626 1.363 1_455 S
C627 C630 1.363 . S
N628 C630 1.356 . S
N628 H640 0.984 . S
N628 H641 0.985 . S
N629 C631 1.356 . S
N629 H634 0.984 . S
N629 H635 0.985 . S
C630 C624 1.379 . S
C630 C627 1.363 . S
C630 N628 1.356 . S
C631 C625 1.363 . S
C631 C626 1.379 . S
C631 N629 1.356 . S
N632 C624 1.356 1_655 S
N632 H638 0.984 1_655 S
N632 H639 0.984 . S
N633 C626 1.356 1_455 S
N633 H636 0.984 . S
N633 H637 0.985 1_455 S
H634 N629 0.984 . S
H635 N629 0.985 . S
H636 N633 0.984 . S
H637 N633 0.985 1_655 S
H638 N632 0.984 1_455 S
H639 N632 0.984 . S
H640 N628 0.984 . S
H641 N628 0.985 . S
C642 C643 1.363 . S
C642 C648 1.379 1_565 S
C642 N650 1.356 . S
C643 C642 1.363 . S
C643 C649 1.363 . S
C644 C645 1.363 . S
C644 C649 1.379 1_545 S
C644 N651 1.356 . S
C645 C644 1.363 . S
C645 C648 1.363 . S
N646 C648 1.356 . S
N646 H658 0.984 . S
N646 H659 0.985 . S
N647 C649 1.356 . S
N647 H652 0.984 . S
N647 H653 0.985 . S
C648 C642 1.379 1_545 S
C648 C645 1.363 . S
C648 N646 1.356 . S
C649 C643 1.363 . S
C649 C644 1.379 1_565 S
C649 N647 1.356 . S
N650 C642 1.356 . S
N650 H656 0.984 . S
N650 H657 0.984 . S
N651 C644 1.356 . S
N651 H654 0.984 . S
N651 H655 0.985 . S
H652 N647 0.984 . S
H653 N647 0.985 . S
H654 N651 0.984 . S
H655 N651 0.985 . S
H656 N650 0.984 . S
H657 N650 0.984 . S
H658 N646 0.984 . S
H659 N646 0.985 . S
C660 C661 1.363 . S
C660 C666 1.379 . S
C660 N668 1.356 . S
C661 C660 1.363 . S
C661 C667 1.363 . S
C662 C663 1.363 . S
C662 C667 1.379 . S
C662 N669 1.356 . S
C663 C662 1.363 . S
C663 C666 1.363 . S
N664 C666 1.356 . S
N664 H676 0.984 . S
N664 H677 0.985 . S
N665 C667 1.356 . S
N665 H670 0.984 . S
N665 H671 0.985 . S
C666 C660 1.379 . S
C666 C663 1.363 . S
C666 N664 1.356 . S
C667 C661 1.363 . S
C667 C662 1.379 . S
C667 N665 1.356 . S
N668 C660 1.356 . S
N668 H674 0.984 . S
N668 H675 0.984 . S
N669 C662 1.356 . S
N669 H672 0.984 . S
N669 H673 0.985 . S
H670 N665 0.984 . S
H671 N665 0.985 . S
H672 N669 0.984 . S
H673 N669 0.985 . S
H674 N668 0.984 . S
H675 N668 0.984 . S
H676 N664 0.984 . S
H677 N664 0.985 . S
C678 C679 1.363 . S
C678 C684 1.379 1_655 S
C678 N686 1.356 . S
C679 C678 1.363 . S
C679 C685 1.363 . S
C680 C681 1.363 . S
C680 C685 1.379 1_455 S
C680 N687 1.356 . S
C681 C680 1.363 . S
C681 C684 1.363 . S
N682 C684 1.356 . S
N682 H694 0.984 . S
N682 H695 0.985 . S
N683 C685 1.356 . S
N683 H688 0.984 . S
N683 H689 0.985 . S
C684 C678 1.379 1_455 S
C684 C681 1.363 . S
C684 N682 1.356 . S
C685 C679 1.363 . S
C685 C680 1.379 1_655 S
C685 N683 1.356 . S
N686 C678 1.356 . S
N686 H692 0.984 . S
N686 H693 0.984 . S
N687 C680 1.356 . S
N687 H690 0.984 . S
N687 H691 0.985 . S
H688 N683 0.984 . S
H689 N683 0.985 . S
H690 N687 0.984 . S
H691 N687 0.985 . S
H692 N686 0.984 . S
H693 N686 0.984 . S
H694 N682 0.984 . S
H695 N682 0.985 . S
C696 C697 1.363 . S
C696 C702 1.379 . S
C696 N704 1.356 . S
C697 C696 1.363 . S
C697 C703 1.363 . S
C698 C699 1.363 . S
C698 C703 1.379 . S
C698 N705 1.356 . S
C699 C698 1.363 . S
C699 C702 1.363 . S
N700 C702 1.356 . S
N700 H712 0.984 . S
N700 H713 0.985 . S
N701 C703 1.356 . S
N701 H706 0.984 . S
N701 H707 0.985 . S
C702 C696 1.379 . S
C702 C699 1.363 . S
C702 N700 1.356 . S
C703 C697 1.363 . S
C703 C698 1.379 . S
C703 N701 1.356 . S
N704 C696 1.356 . S
N704 H710 0.984 . S
N704 H711 0.984 . S
N705 C698 1.356 . S
N705 H708 0.984 . S
N705 H709 0.985 . S
H706 N701 0.984 . S
H707 N701 0.985 . S
H708 N705 0.984 . S
H709 N705 0.985 . S
H710 N704 0.984 . S
H711 N704 0.984 . S
H712 N700 0.984 . S
H713 N700 0.985 . S
C714 C715 1.363 . S
C714 C720 1.379 . S
C714 N722 1.356 . S
C715 C714 1.363 . S
C715 C721 1.363 . S
C716 C717 1.363 . S
C716 C721 1.379 . S
C716 N723 1.356 . S
C717 C716 1.363 . S
C717 C720 1.363 . S
N718 C720 1.356 . S
N718 H730 0.984 . S
N718 H731 0.985 . S
N719 C721 1.356 . S
N719 H724 0.984 . S
N719 H725 0.985 . S
C720 C714 1.379 . S
C720 C717 1.363 . S
C720 N718 1.356 . S
C721 C715 1.363 . S
C721 C716 1.379 . S
C721 N719 1.356 . S
N722 C714 1.356 . S
N722 H728 0.984 . S
N722 H729 0.984 . S
N723 C716 1.356 . S
N723 H726 0.984 . S
N723 H727 0.985 . S
H724 N719 0.984 . S
H725 N719 0.985 . S
H726 N723 0.984 . S
H727 N723 0.985 . S
H728 N722 0.984 . S
H729 N722 0.984 . S
H730 N718 0.984 . S
H731 N718 0.985 . S
C732 C733 1.363 . S
C732 C738 1.379 . S
C732 N740 1.356 . S
C733 C732 1.363 . S
C733 C739 1.363 . S
C734 C735 1.363 . S
C734 C739 1.379 . S
C734 N741 1.356 . S
C735 C734 1.363 . S
C735 C738 1.363 . S
N736 C738 1.356 . S
N736 H748 0.984 . S
N736 H749 0.985 . S
N737 C739 1.356 . S
N737 H742 0.984 . S
N737 H743 0.985 . S
C738 C732 1.379 . S
C738 C735 1.363 . S
C738 N736 1.356 . S
C739 C733 1.363 . S
C739 C734 1.379 . S
C739 N737 1.356 . S
N740 C732 1.356 . S
N740 H746 0.984 . S
N740 H747 0.984 . S
N741 C734 1.356 . S
N741 H744 0.984 . S
N741 H745 0.985 . S
H742 N737 0.984 . S
H743 N737 0.985 . S
H744 N741 0.984 . S
H745 N741 0.985 . S
H746 N740 0.984 . S
H747 N740 0.984 . S
H748 N736 0.984 . S
H749 N736 0.985 . S
C750 C751 1.363 . S
C750 C756 1.379 . S
C750 N758 1.356 . S
C751 C750 1.363 . S
C751 C757 1.363 . S
C752 C753 1.363 . S
C752 C757 1.379 . S
C752 N759 1.356 . S
C753 C752 1.363 . S
C753 C756 1.363 . S
N754 C756 1.356 . S
N754 H766 0.984 . S
N754 H767 0.985 . S
N755 C757 1.356 . S
N755 H760 0.984 . S
N755 H761 0.985 . S
C756 C750 1.379 . S
C756 C753 1.363 . S
C756 N754 1.356 . S
C757 C751 1.363 . S
C757 C752 1.379 . S
C757 N755 1.356 . S
N758 C750 1.356 . S
N758 H764 0.984 . S
N758 H765 0.984 . S
N759 C752 1.356 . S
N759 H762 0.984 . S
N759 H763 0.985 . S
H760 N755 0.984 . S
H761 N755 0.985 . S
H762 N759 0.984 . S
H763 N759 0.985 . S
H764 N758 0.984 . S
H765 N758 0.984 . S
H766 N754 0.984 . S
H767 N754 0.985 . S
C768 C769 1.363 . S
C768 C774 1.379 . S
C768 N776 1.356 . S
C769 C768 1.363 . S
C769 C775 1.363 . S
C770 C771 1.363 . S
C770 C775 1.379 . S
C770 N777 1.356 . S
C771 C770 1.363 . S
C771 C774 1.363 . S
N772 C774 1.356 . S
N772 H784 0.984 . S
N772 H785 0.985 . S
N773 C775 1.356 . S
N773 H778 0.984 . S
N773 H779 0.985 . S
C774 C768 1.379 . S
C774 C771 1.363 . S
C774 N772 1.356 . S
C775 C769 1.363 . S
C775 C770 1.379 . S
C775 N773 1.356 . S
N776 C768 1.356 . S
N776 H782 0.984 . S
N776 H783 0.984 . S
N777 C770 1.356 . S
N777 H780 0.984 . S
N777 H781 0.985 . S
H778 N773 0.984 . S
H779 N773 0.985 . S
H780 N777 0.984 . S
H781 N777 0.985 . S
H782 N776 0.984 . S
H783 N776 0.984 . S
H784 N772 0.984 . S
H785 N772 0.985 . S
C786 C787 1.363 . S
C786 C792 1.379 . S
C786 N794 1.356 . S
C787 C786 1.363 . S
C787 C793 1.363 . S
C788 C789 1.363 . S
C788 C793 1.379 . S
C788 N795 1.356 . S
C789 C788 1.363 . S
C789 C792 1.363 . S
N790 C792 1.356 . S
N790 H802 0.984 . S
N790 H803 0.985 . S
N791 C793 1.356 . S
N791 H796 0.984 . S
N791 H797 0.985 . S
C792 C786 1.379 . S
C792 C789 1.363 . S
C792 N790 1.356 . S
C793 C787 1.363 . S
C793 C788 1.379 . S
C793 N791 1.356 . S
N794 C786 1.356 . S
N794 H800 0.984 . S
N794 H801 0.984 . S
N795 C788 1.356 . S
N795 H798 0.984 . S
N795 H799 0.985 . S
H796 N791 0.984 . S
H797 N791 0.985 . S
H798 N795 0.984 . S
H799 N795 0.985 . S
H800 N794 0.984 . S
H801 N794 0.984 . S
H802 N790 0.984 . S
H803 N790 0.985 . S
C804 C805 1.363 . S
C804 C810 1.379 . S
C804 N812 1.356 . S
C805 C804 1.363 . S
C805 C811 1.363 . S
C806 C807 1.363 . S
C806 C811 1.379 . S
C806 N813 1.356 . S
C807 C806 1.363 . S
C807 C810 1.363 . S
N808 C810 1.356 . S
N808 H820 0.984 . S
N808 H821 0.985 . S
N809 C811 1.356 . S
N809 H814 0.984 . S
N809 H815 0.985 . S
C810 C804 1.379 . S
C810 C807 1.363 . S
C810 N808 1.356 . S
C811 C805 1.363 . S
C811 C806 1.379 . S
C811 N809 1.356 . S
N812 C804 1.356 . S
N812 H818 0.984 . S
N812 H819 0.984 . S
N813 C806 1.356 . S
N813 H816 0.984 . S
N813 H817 0.985 . S
H814 N809 0.984 . S
H815 N809 0.985 . S
H816 N813 0.984 . S
H817 N813 0.985 . S
H818 N812 0.984 . S
H819 N812 0.984 . S
H820 N808 0.984 . S
H821 N808 0.985 . S
C822 C823 1.363 . S
C822 C828 1.379 . S
C822 N830 1.356 . S
C823 C822 1.363 . S
C823 C829 1.363 . S
C824 C825 1.363 . S
C824 C829 1.379 . S
C824 N831 1.356 . S
C825 C824 1.363 . S
C825 C828 1.363 . S
N826 C828 1.356 . S
N826 H838 0.984 . S
N826 H839 0.985 . S
N827 C829 1.356 . S
N827 H832 0.984 . S
N827 H833 0.985 . S
C828 C822 1.379 . S
C828 C825 1.363 . S
C828 N826 1.356 . S
C829 C823 1.363 . S
C829 C824 1.379 . S
C829 N827 1.356 . S
N830 C822 1.356 . S
N830 H836 0.984 . S
N830 H837 0.984 . S
N831 C824 1.356 . S
N831 H834 0.984 . S
N831 H835 0.985 . S
H832 N827 0.984 . S
H833 N827 0.985 . S
H834 N831 0.984 . S
H835 N831 0.985 . S
H836 N830 0.984 . S
H837 N830 0.984 . S
H838 N826 0.984 . S
H839 N826 0.985 . S
C840 C841 1.363 . S
C840 C846 1.379 . S
C840 N848 1.356 . S
C841 C840 1.363 . S
C841 C847 1.363 . S
C842 C843 1.363 . S
C842 C847 1.379 . S
C842 N849 1.356 . S
C843 C842 1.363 . S
C843 C846 1.363 . S
N844 C846 1.356 . S
N844 H856 0.984 . S
N844 H857 0.985 . S
N845 C847 1.356 . S
N845 H850 0.984 . S
N845 H851 0.985 . S
C846 C840 1.379 . S
C846 C843 1.363 . S
C846 N844 1.356 . S
C847 C841 1.363 . S
C847 C842 1.379 . S
C847 N845 1.356 . S
N848 C840 1.356 . S
N848 H854 0.984 . S
N848 H855 0.984 . S
N849 C842 1.356 . S
N849 H852 0.984 . S
N849 H853 0.985 . S
H850 N845 0.984 . S
H851 N845 0.985 . S
H852 N849 0.984 . S
H853 N849 0.985 . S
H854 N848 0.984 . S
H855 N848 0.984 . S
H856 N844 0.984 . S
H857 N844 0.985 . S
C858 C859 1.363 . S
C858 C864 1.379 . S
C858 N866 1.356 . S
C859 C858 1.363 . S
C859 C865 1.363 . S
C860 C861 1.363 . S
C860 C865 1.379 . S
C860 N867 1.356 . S
C861 C860 1.363 . S
C861 C864 1.363 . S
N862 C864 1.356 . S
N862 H874 0.984 . S
N862 H875 0.985 . S
N863 C865 1.356 . S
N863 H868 0.984 . S
N863 H869 0.985 . S
C864 C858 1.379 . S
C864 C861 1.363 . S
C864 N862 1.356 . S
C865 C859 1.363 . S
C865 C860 1.379 . S
C865 N863 1.356 . S
N866 C858 1.356 . S
N866 H872 0.984 . S
N866 H873 0.984 . S
N867 C860 1.356 . S
N867 H870 0.984 . S
N867 H871 0.985 . S
H868 N863 0.984 . S
H869 N863 0.985 . S
H870 N867 0.984 . S
H871 N867 0.985 . S
H872 N866 0.984 . S
H873 N866 0.984 . S
H874 N862 0.984 . S
H875 N862 0.985 . S
C876 C877 1.363 . S
C876 C882 1.379 . S
C876 N884 1.356 . S
C877 C876 1.363 . S
C877 C883 1.363 . S
C878 C879 1.363 . S
C878 C883 1.379 . S
C878 N885 1.356 . S
C879 C878 1.363 . S
C879 C882 1.363 . S
N880 C882 1.356 . S
N880 H892 0.984 . S
N880 H893 0.985 . S
N881 C883 1.356 . S
N881 H886 0.984 . S
N881 H887 0.985 . S
C882 C876 1.379 . S
C882 C879 1.363 . S
C882 N880 1.356 . S
C883 C877 1.363 . S
C883 C878 1.379 . S
C883 N881 1.356 . S
N884 C876 1.356 . S
N884 H890 0.984 . S
N884 H891 0.984 . S
N885 C878 1.356 . S
N885 H888 0.984 . S
N885 H889 0.985 . S
H886 N881 0.984 . S
H887 N881 0.985 . S
H888 N885 0.984 . S
H889 N885 0.985 . S
H890 N884 0.984 . S
H891 N884 0.984 . S
H892 N880 0.984 . S
H893 N880 0.985 . S
C894 C895 1.363 . S
C894 C900 1.379 . S
C894 N902 1.356 . S
C895 C894 1.363 . S
C895 C901 1.363 . S
C896 C897 1.363 . S
C896 C901 1.379 . S
C896 N903 1.356 . S
C897 C896 1.363 . S
C897 C900 1.363 . S
N898 C900 1.356 . S
N898 H910 0.984 . S
N898 H911 0.985 . S
N899 C901 1.356 . S
N899 H904 0.984 . S
N899 H905 0.985 . S
C900 C894 1.379 . S
C900 C897 1.363 . S
C900 N898 1.356 . S
C901 C895 1.363 . S
C901 C896 1.379 . S
C901 N899 1.356 . S
N902 C894 1.356 . S
N902 H908 0.984 . S
N902 H909 0.984 . S
N903 C896 1.356 . S
N903 H906 0.984 . S
N903 H907 0.985 . S
H904 N899 0.984 . S
H905 N899 0.985 . S
H906 N903 0.984 . S
H907 N903 0.985 . S
H908 N902 0.984 . S
H909 N902 0.984 . S
H910 N898 0.984 . S
H911 N898 0.985 . S
C265 C8 1.258 . S
C267 C184 1.258 . S
C283 C216 1.258 . S
C285 C30 1.258 . S
C301 C62 1.258 . S
C303 C228 1.258 . S
C319 C260 1.258 . S
C321 C76 1.258 . S
C337 C98 1.258 . S
C339 C150 1.258 . S
C355 C172 1.258 . S
C357 C120 1.258 . S
C373 C249 1.349 . S
C375 C81 1.349 . S
C391 C103 1.349 . S
C393 C139 1.349 . S
C409 C161 1.349 . S
C411 C125 1.349 . S
C427 C197 1.349 . S
C429 C21 1.349 . S
C445 C205 1.349 . S
C447 C43 1.349 . S
C463 C51 1.349 . S
C465 C241 1.349 . S
C481 C162 1.344 . S
C483 C10 1.344 . S
C499 C186 1.344 . S
C501 C32 1.344 . S
C517 C206 1.344 . S
C519 C52 1.344 . S
C535 C84 1.344 . S
C537 C230 1.344 . S
C553 C106 1.344 . S
C555 C250 1.344 . S
C571 C140 1.344 . S
C573 C128 1.344 . S
C589 C235 1.413 . S
C591 C73 1.413 . S
C607 C95 1.414 . S
C609 C263 1.414 . S
C625 C153 1.413 . S
C627 C117 1.413 . S
C643 C175 1.413 . S
C645 C15 1.413 . S
C661 C37 1.413 . S
C663 C191 1.413 . S
C679 C65 1.413 . S
C681 C219 1.413 . S
C697 C18 1.512 . S
C699 C238 1.512 . S
C715 C40 1.512 . S
C717 C252 1.512 . S
C733 C142 1.512 . S
C735 C54 1.512 . S
C751 C164 1.512 . S
C753 C74 1.512 . S
C769 C96 1.512 . S
C771 C194 1.512 . S
C787 C208 1.512 . S
C789 C118 1.512 . S
C805 C87 1.608 . S
C807 C169 1.608 . S
C823 C109 1.608 . S
C825 C183 1.608 . S
C841 C213 1.608 . S
C843 C131 1.608 . S
C859 C227 1.608 . S
C861 C7 1.608 . S
C877 C257 1.608 . S
C879 C29 1.608 . S
C895 C147 1.608 . S
C897 C59 1.608 . S
