# Generated by pormake.
# Topology ana, (4)-cn, num edge types: 1
# Building blocks:
#     Node 0, Type 0, BuildingBlock: CEKHIL_clean_sbu_0, # of connection points: 4
#     Node 1, Type 0, BuildingBlock: CEKHIL_clean_sbu_0, # of connection points: 4
#     Node 2, Type 0, BuildingBlock: CEKHIL_clean_sbu_0, # of connection points: 4
#     Node 3, Type 0, BuildingBlock: CEKHIL_clean_sbu_0, # of connection points: 4
#     Node 4, Type 0, BuildingBlock: CEKHIL_clean_sbu_0, # of connection points: 4
#     Node 5, Type 0, BuildingBlock: CEKHIL_clean_sbu_0, # of connection points: 4
#     Node 6, Type 0, BuildingBlock: CEKHIL_clean_sbu_0, # of connection points: 4
#     Node 7, Type 0, BuildingBlock: CEKHIL_clean_sbu_0, # of connection points: 4
#     Node 8, Type 0, BuildingBlock: CEKHIL_clean_sbu_0, # of connection points: 4
#     Node 9, Type 0, BuildingBlock: CEKHIL_clean_sbu_0, # of connection points: 4
#     Node 10, Type 0, BuildingBlock: CEKHIL_clean_sbu_0, # of connection points: 4
#     Node 11, Type 0, BuildingBlock: CEKHIL_clean_sbu_0, # of connection points: 4
#     Node 12, Type 0, BuildingBlock: CEKHIL_clean_sbu_0, # of connection points: 4
#     Node 13, Type 0, BuildingBlock: CEKHIL_clean_sbu_0, # of connection points: 4
#     Node 14, Type 0, BuildingBlock: CEKHIL_clean_sbu_0, # of connection points: 4
#     Node 15, Type 0, BuildingBlock: CEKHIL_clean_sbu_0, # of connection points: 4
#     Node 16, Type 0, BuildingBlock: CEKHIL_clean_sbu_0, # of connection points: 4
#     Node 17, Type 0, BuildingBlock: CEKHIL_clean_sbu_0, # of connection points: 4
#     Node 18, Type 0, BuildingBlock: CEKHIL_clean_sbu_0, # of connection points: 4
#     Node 19, Type 0, BuildingBlock: CEKHIL_clean_sbu_0, # of connection points: 4
#     Node 20, Type 0, BuildingBlock: CEKHIL_clean_sbu_0, # of connection points: 4
#     Node 21, Type 0, BuildingBlock: CEKHIL_clean_sbu_0, # of connection points: 4
#     Node 22, Type 0, BuildingBlock: CEKHIL_clean_sbu_0, # of connection points: 4
#     Node 23, Type 0, BuildingBlock: CEKHIL_clean_sbu_0, # of connection points: 4
#     Node 24, Type 0, BuildingBlock: CEKHIL_clean_sbu_0, # of connection points: 4
#     Node 25, Type 0, BuildingBlock: CEKHIL_clean_sbu_0, # of connection points: 4
#     Node 26, Type 0, BuildingBlock: CEKHIL_clean_sbu_0, # of connection points: 4
#     Node 27, Type 0, BuildingBlock: CEKHIL_clean_sbu_0, # of connection points: 4
#     Node 28, Type 0, BuildingBlock: CEKHIL_clean_sbu_0, # of connection points: 4
#     Node 29, Type 0, BuildingBlock: CEKHIL_clean_sbu_0, # of connection points: 4
#     Node 30, Type 0, BuildingBlock: CEKHIL_clean_sbu_0, # of connection points: 4
#     Node 31, Type 0, BuildingBlock: CEKHIL_clean_sbu_0, # of connection points: 4
#     Node 32, Type 0, BuildingBlock: CEKHIL_clean_sbu_0, # of connection points: 4
#     Node 33, Type 0, BuildingBlock: CEKHIL_clean_sbu_0, # of connection points: 4
#     Node 34, Type 0, BuildingBlock: CEKHIL_clean_sbu_0, # of connection points: 4
#     Node 35, Type 0, BuildingBlock: CEKHIL_clean_sbu_0, # of connection points: 4
#     Node 36, Type 0, BuildingBlock: CEKHIL_clean_sbu_0, # of connection points: 4
#     Node 37, Type 0, BuildingBlock: CEKHIL_clean_sbu_0, # of connection points: 4
#     Node 38, Type 0, BuildingBlock: CEKHIL_clean_sbu_0, # of connection points: 4
#     Node 39, Type 0, BuildingBlock: CEKHIL_clean_sbu_0, # of connection points: 4
#     Node 40, Type 0, BuildingBlock: CEKHIL_clean_sbu_0, # of connection points: 4
#     Node 41, Type 0, BuildingBlock: CEKHIL_clean_sbu_0, # of connection points: 4
#     Node 42, Type 0, BuildingBlock: CEKHIL_clean_sbu_0, # of connection points: 4
#     Node 43, Type 0, BuildingBlock: CEKHIL_clean_sbu_0, # of connection points: 4
#     Node 44, Type 0, BuildingBlock: CEKHIL_clean_sbu_0, # of connection points: 4
#     Node 45, Type 0, BuildingBlock: CEKHIL_clean_sbu_0, # of connection points: 4
#     Node 46, Type 0, BuildingBlock: CEKHIL_clean_sbu_0, # of connection points: 4
#     Node 47, Type 0, BuildingBlock: CEKHIL_clean_sbu_0, # of connection points: 4
#     Edge 48, Type (0, 0), BuildingBlock: OJICUG_clean_linker_0, # of connection points: 2
#     Edge 49, Type (0, 0), BuildingBlock: OJICUG_clean_linker_0, # of connection points: 2
#     Edge 50, Type (0, 0), BuildingBlock: OJICUG_clean_linker_0, # of connection points: 2
#     Edge 51, Type (0, 0), BuildingBlock: OJICUG_clean_linker_0, # of connection points: 2
#     Edge 52, Type (0, 0), BuildingBlock: OJICUG_clean_linker_0, # of connection points: 2
#     Edge 53, Type (0, 0), BuildingBlock: OJICUG_clean_linker_0, # of connection points: 2
#     Edge 54, Type (0, 0), BuildingBlock: OJICUG_clean_linker_0, # of connection points: 2
#     Edge 55, Type (0, 0), BuildingBlock: OJICUG_clean_linker_0, # of connection points: 2
#     Edge 56, Type (0, 0), BuildingBlock: OJICUG_clean_linker_0, # of connection points: 2
#     Edge 57, Type (0, 0), BuildingBlock: OJICUG_clean_linker_0, # of connection points: 2
#     Edge 58, Type (0, 0), BuildingBlock: OJICUG_clean_linker_0, # of connection points: 2
#     Edge 59, Type (0, 0), BuildingBlock: OJICUG_clean_linker_0, # of connection points: 2
#     Edge 60, Type (0, 0), BuildingBlock: OJICUG_clean_linker_0, # of connection points: 2
#     Edge 61, Type (0, 0), BuildingBlock: OJICUG_clean_linker_0, # of connection points: 2
#     Edge 62, Type (0, 0), BuildingBlock: OJICUG_clean_linker_0, # of connection points: 2
#     Edge 63, Type (0, 0), BuildingBlock: OJICUG_clean_linker_0, # of connection points: 2
#     Edge 64, Type (0, 0), BuildingBlock: OJICUG_clean_linker_0, # of connection points: 2
#     Edge 65, Type (0, 0), BuildingBlock: OJICUG_clean_linker_0, # of connection points: 2
#     Edge 66, Type (0, 0), BuildingBlock: OJICUG_clean_linker_0, # of connection points: 2
#     Edge 67, Type (0, 0), BuildingBlock: OJICUG_clean_linker_0, # of connection points: 2
#     Edge 68, Type (0, 0), BuildingBlock: OJICUG_clean_linker_0, # of connection points: 2
#     Edge 69, Type (0, 0), BuildingBlock: OJICUG_clean_linker_0, # of connection points: 2
#     Edge 70, Type (0, 0), BuildingBlock: OJICUG_clean_linker_0, # of connection points: 2
#     Edge 71, Type (0, 0), BuildingBlock: OJICUG_clean_linker_0, # of connection points: 2
#     Edge 72, Type (0, 0), BuildingBlock: OJICUG_clean_linker_0, # of connection points: 2
#     Edge 73, Type (0, 0), BuildingBlock: OJICUG_clean_linker_0, # of connection points: 2
#     Edge 74, Type (0, 0), BuildingBlock: OJICUG_clean_linker_0, # of connection points: 2
#     Edge 75, Type (0, 0), BuildingBlock: OJICUG_clean_linker_0, # of connection points: 2
#     Edge 76, Type (0, 0), BuildingBlock: OJICUG_clean_linker_0, # of connection points: 2
#     Edge 77, Type (0, 0), BuildingBlock: OJICUG_clean_linker_0, # of connection points: 2
#     Edge 78, Type (0, 0), BuildingBlock: OJICUG_clean_linker_0, # of connection points: 2
#     Edge 79, Type (0, 0), BuildingBlock: OJICUG_clean_linker_0, # of connection points: 2
#     Edge 80, Type (0, 0), BuildingBlock: OJICUG_clean_linker_0, # of connection points: 2
#     Edge 81, Type (0, 0), BuildingBlock: OJICUG_clean_linker_0, # of connection points: 2
#     Edge 82, Type (0, 0), BuildingBlock: OJICUG_clean_linker_0, # of connection points: 2
#     Edge 83, Type (0, 0), BuildingBlock: OJICUG_clean_linker_0, # of connection points: 2
#     Edge 84, Type (0, 0), BuildingBlock: OJICUG_clean_linker_0, # of connection points: 2
#     Edge 85, Type (0, 0), BuildingBlock: OJICUG_clean_linker_0, # of connection points: 2
#     Edge 86, Type (0, 0), BuildingBlock: OJICUG_clean_linker_0, # of connection points: 2
#     Edge 87, Type (0, 0), BuildingBlock: OJICUG_clean_linker_0, # of connection points: 2
#     Edge 88, Type (0, 0), BuildingBlock: OJICUG_clean_linker_0, # of connection points: 2
#     Edge 89, Type (0, 0), BuildingBlock: OJICUG_clean_linker_0, # of connection points: 2
#     Edge 90, Type (0, 0), BuildingBlock: OJICUG_clean_linker_0, # of connection points: 2
#     Edge 91, Type (0, 0), BuildingBlock: OJICUG_clean_linker_0, # of connection points: 2
#     Edge 92, Type (0, 0), BuildingBlock: OJICUG_clean_linker_0, # of connection points: 2
#     Edge 93, Type (0, 0), BuildingBlock: OJICUG_clean_linker_0, # of connection points: 2
#     Edge 94, Type (0, 0), BuildingBlock: OJICUG_clean_linker_0, # of connection points: 2
#     Edge 95, Type (0, 0), BuildingBlock: OJICUG_clean_linker_0, # of connection points: 2
#     Edge 96, Type (0, 0), BuildingBlock: OJICUG_clean_linker_0, # of connection points: 2
#     Edge 97, Type (0, 0), BuildingBlock: OJICUG_clean_linker_0, # of connection points: 2
#     Edge 98, Type (0, 0), BuildingBlock: OJICUG_clean_linker_0, # of connection points: 2
#     Edge 99, Type (0, 0), BuildingBlock: OJICUG_clean_linker_0, # of connection points: 2
#     Edge 100, Type (0, 0), BuildingBlock: OJICUG_clean_linker_0, # of connection points: 2
#     Edge 101, Type (0, 0), BuildingBlock: OJICUG_clean_linker_0, # of connection points: 2
#     Edge 102, Type (0, 0), BuildingBlock: OJICUG_clean_linker_0, # of connection points: 2
#     Edge 103, Type (0, 0), BuildingBlock: OJICUG_clean_linker_0, # of connection points: 2
#     Edge 104, Type (0, 0), BuildingBlock: OJICUG_clean_linker_0, # of connection points: 2
#     Edge 105, Type (0, 0), BuildingBlock: OJICUG_clean_linker_0, # of connection points: 2
#     Edge 106, Type (0, 0), BuildingBlock: OJICUG_clean_linker_0, # of connection points: 2
#     Edge 107, Type (0, 0), BuildingBlock: OJICUG_clean_linker_0, # of connection points: 2
#     Edge 108, Type (0, 0), BuildingBlock: OJICUG_clean_linker_0, # of connection points: 2
#     Edge 109, Type (0, 0), BuildingBlock: OJICUG_clean_linker_0, # of connection points: 2
#     Edge 110, Type (0, 0), BuildingBlock: OJICUG_clean_linker_0, # of connection points: 2
#     Edge 111, Type (0, 0), BuildingBlock: OJICUG_clean_linker_0, # of connection points: 2
#     Edge 112, Type (0, 0), BuildingBlock: OJICUG_clean_linker_0, # of connection points: 2
#     Edge 113, Type (0, 0), BuildingBlock: OJICUG_clean_linker_0, # of connection points: 2
#     Edge 114, Type (0, 0), BuildingBlock: OJICUG_clean_linker_0, # of connection points: 2
#     Edge 115, Type (0, 0), BuildingBlock: OJICUG_clean_linker_0, # of connection points: 2
#     Edge 116, Type (0, 0), BuildingBlock: OJICUG_clean_linker_0, # of connection points: 2
#     Edge 117, Type (0, 0), BuildingBlock: OJICUG_clean_linker_0, # of connection points: 2
#     Edge 118, Type (0, 0), BuildingBlock: OJICUG_clean_linker_0, # of connection points: 2
#     Edge 119, Type (0, 0), BuildingBlock: OJICUG_clean_linker_0, # of connection points: 2
#     Edge 120, Type (0, 0), BuildingBlock: OJICUG_clean_linker_0, # of connection points: 2
#     Edge 121, Type (0, 0), BuildingBlock: OJICUG_clean_linker_0, # of connection points: 2
#     Edge 122, Type (0, 0), BuildingBlock: OJICUG_clean_linker_0, # of connection points: 2
#     Edge 123, Type (0, 0), BuildingBlock: OJICUG_clean_linker_0, # of connection points: 2
#     Edge 124, Type (0, 0), BuildingBlock: OJICUG_clean_linker_0, # of connection points: 2
#     Edge 125, Type (0, 0), BuildingBlock: OJICUG_clean_linker_0, # of connection points: 2
#     Edge 126, Type (0, 0), BuildingBlock: OJICUG_clean_linker_0, # of connection points: 2
#     Edge 127, Type (0, 0), BuildingBlock: OJICUG_clean_linker_0, # of connection points: 2
#     Edge 128, Type (0, 0), BuildingBlock: OJICUG_clean_linker_0, # of connection points: 2
#     Edge 129, Type (0, 0), BuildingBlock: OJICUG_clean_linker_0, # of connection points: 2
#     Edge 130, Type (0, 0), BuildingBlock: OJICUG_clean_linker_0, # of connection points: 2
#     Edge 131, Type (0, 0), BuildingBlock: OJICUG_clean_linker_0, # of connection points: 2
#     Edge 132, Type (0, 0), BuildingBlock: OJICUG_clean_linker_0, # of connection points: 2
#     Edge 133, Type (0, 0), BuildingBlock: OJICUG_clean_linker_0, # of connection points: 2
#     Edge 134, Type (0, 0), BuildingBlock: OJICUG_clean_linker_0, # of connection points: 2
#     Edge 135, Type (0, 0), BuildingBlock: OJICUG_clean_linker_0, # of connection points: 2
#     Edge 136, Type (0, 0), BuildingBlock: OJICUG_clean_linker_0, # of connection points: 2
#     Edge 137, Type (0, 0), BuildingBlock: OJICUG_clean_linker_0, # of connection points: 2
#     Edge 138, Type (0, 0), BuildingBlock: OJICUG_clean_linker_0, # of connection points: 2
#     Edge 139, Type (0, 0), BuildingBlock: OJICUG_clean_linker_0, # of connection points: 2
#     Edge 140, Type (0, 0), BuildingBlock: OJICUG_clean_linker_0, # of connection points: 2
#     Edge 141, Type (0, 0), BuildingBlock: OJICUG_clean_linker_0, # of connection points: 2
#     Edge 142, Type (0, 0), BuildingBlock: OJICUG_clean_linker_0, # of connection points: 2
#     Edge 143, Type (0, 0), BuildingBlock: OJICUG_clean_linker_0, # of connection points: 2
# Relax obj value: 0.099
# Max RMSD: 0.123
# Mean RMSD: 0.112
data_MOF--net-ana--node1-CEKHIL_clean_sbu_0--edge1-OJICUG_clean_linker_0
_symmetry_space_group_name_H-M    P1
_symmetry_Int_Tables_number       1
_symmetry_cell_setting            triclinic
loop_
_symmetry_equiv_pos_as_xyz
'x, y, z'
_cell_length_a     47.640945
_cell_length_b     46.716223
_cell_length_c     46.774688
_cell_angle_alpha  89.996004
_cell_angle_beta   90.051276
_cell_angle_gamma 90.218917
loop_
_atom_site_label
_atom_site_type_symbol
_atom_site_fract_x
_atom_site_fract_y
_atom_site_fract_z
_atom_type_partial_charge
Co0 Co 0.13483 0.17172 0.41639 0.0
O1 O 0.17474 0.17489 0.42161 0.0
O2 O 0.15314 0.13661 0.40437 0.0
C3 C 0.12995 0.21509 0.39594 0.0
O4 O 0.09419 0.16112 0.40644 0.0
Co5 Co 0.093 0.21413 0.44453 0.0
O6 O 0.06789 0.20032 0.41355 0.0
C7 C 0.11905 0.16803 0.47916 0.0
C8 C 0.17663 0.1493 0.41102 0.0
C9 C 0.07149 0.17559 0.40276 0.0
O10 O 0.13044 0.15701 0.45674 0.0
O11 O 0.10485 0.19127 0.47873 0.0
O12 O 0.13756 0.19324 0.38061 0.0
O13 O 0.12729 0.21043 0.42294 0.0
Co14 Co 0.0859 0.86917 0.67207 0.0
O15 O 0.11726 0.87162 0.69807 0.0
O16 O 0.07307 0.88128 0.70922 0.0
C17 C 0.09662 0.82599 0.65376 0.0
O18 O 0.04801 0.86836 0.65187 0.0
Co19 Co 0.09451 0.86743 0.60659 0.0
O20 O 0.0539 0.85764 0.60543 0.0
C21 C 0.10302 0.92157 0.63771 0.0
C22 C 0.0991 0.87924 0.71728 0.0
C23 C 0.03818 0.86201 0.62701 0.0
O24 O 0.09238 0.90999 0.66017 0.0
O25 O 0.108 0.90758 0.61472 0.0
O26 O 0.08349 0.82804 0.67799 0.0
O27 O 0.10503 0.84989 0.64263 0.0
Co28 Co 0.3624 0.82095 0.91108 0.0
O29 O 0.32326 0.81313 0.91519 0.0
O30 O 0.34051 0.85383 0.89847 0.0
C31 C 0.37307 0.77882 0.89081 0.0
O32 O 0.40215 0.83549 0.90309 0.0
Co33 Co 0.40493 0.7828 0.94411 0.0
O34 O 0.43206 0.80104 0.91755 0.0
C35 C 0.37281 0.82669 0.97511 0.0
C36 C 0.31857 0.83849 0.90516 0.0
C37 C 0.4268 0.82426 0.90434 0.0
O38 O 0.36359 0.83645 0.95118 0.0
O39 O 0.38788 0.80412 0.97707 0.0
O40 O 0.36341 0.79963 0.87524 0.0
O41 O 0.37348 0.78331 0.91801 0.0
Co42 Co 0.41275 0.12449 0.16572 0.0
O43 O 0.37909 0.12424 0.18831 0.0
O44 O 0.42083 0.1102 0.20372 0.0
C45 C 0.40715 0.16904 0.14819 0.0
O46 O 0.45216 0.12271 0.14849 0.0
Co47 Co 0.40791 0.1287 0.0998 0.0
O48 O 0.44898 0.13594 0.1023 0.0
C49 C 0.3913 0.07573 0.12914 0.0
C50 C 0.39432 0.11437 0.20903 0.0
C51 C 0.46342 0.12978 0.12443 0.0
O52 O 0.40369 0.08472 0.15186 0.0
O53 O 0.38801 0.09119 0.10679 0.0
O54 O 0.41814 0.16513 0.1733 0.0
O55 O 0.39764 0.14627 0.13575 0.0
Co56 Co 0.11596 0.82818 0.07846 0.0
O57 O 0.07601 0.82454 0.0741 0.0
O58 O 0.09719 0.83879 0.11375 0.0
C59 C 0.12249 0.85113 0.03665 0.0
O60 O 0.1567 0.8359 0.09024 0.0
Co61 Co 0.15716 0.8008 0.03475 0.0
O62 O 0.18404 0.82848 0.05174 0.0
C63 C 0.13019 0.76479 0.07934 0.0
C64 C 0.07383 0.83381 0.10012 0.0
C65 C 0.1802 0.83827 0.07682 0.0
O66 O 0.1188 0.78688 0.09101 0.0
O67 O 0.14461 0.76596 0.05626 0.0
O68 O 0.11498 0.86538 0.05922 0.0
O69 O 0.12399 0.82377 0.03964 0.0
Co70 Co 0.42342 0.88273 0.3427 0.0
O71 O 0.44861 0.88112 0.37475 0.0
O72 O 0.45855 0.86571 0.33107 0.0
C73 C 0.40976 0.92824 0.34849 0.0
O74 O 0.40328 0.88183 0.30422 0.0
Co75 Co 0.35968 0.89141 0.35112 0.0
O76 O 0.36043 0.90093 0.30985 0.0
C77 C 0.38387 0.83428 0.36038 0.0
C78 C 0.46657 0.86965 0.35737 0.0
C79 C 0.38028 0.89204 0.29399 0.0
O80 O 0.40805 0.84404 0.35315 0.0
O81 O 0.36173 0.84967 0.36169 0.0
O82 O 0.43327 0.92224 0.33586 0.0
O83 O 0.39664 0.90681 0.36004 0.0
Co84 Co 0.3836 0.15959 0.57658 0.0
O85 O 0.42332 0.16588 0.57337 0.0
O86 O 0.40264 0.14486 0.61021 0.0
C87 C 0.37873 0.14338 0.53154 0.0
O88 O 0.34329 0.14823 0.58675 0.0
Co89 Co 0.34057 0.19044 0.5375 0.0
O90 O 0.31567 0.15844 0.54916 0.0
C91 C 0.36652 0.22107 0.58662 0.0
C92 C 0.42575 0.15334 0.59796 0.0
C93 C 0.32002 0.14585 0.57286 0.0
O94 O 0.37908 0.19825 0.59507 0.0
O95 O 0.3516 0.22239 0.56385 0.0
O96 O 0.38644 0.12594 0.55172 0.0
O97 O 0.37551 0.16972 0.53886 0.0
Co98 Co 0.08382 0.12075 0.8424 0.0
O99 O 0.05826 0.12603 0.87359 0.0
O100 O 0.04785 0.13423 0.82818 0.0
C101 C 0.0994 0.07731 0.85498 0.0
O102 O 0.10531 0.11648 0.80488 0.0
Co103 Co 0.14758 0.11745 0.85631 0.0
O104 O 0.14943 0.10347 0.8163 0.0
C105 C 0.11937 0.17312 0.8577 0.0
C106 C 0.03986 0.13394 0.85481 0.0
C107 C 0.12994 0.10735 0.798 0.0
O108 O 0.09742 0.16127 0.8469 0.0
O109 O 0.14105 0.15899 0.8655 0.0
O110 O 0.07572 0.08011 0.84153 0.0
O111 O 0.11095 0.1009 0.86362 0.0
Co112 Co 0.17506 0.39884 0.12985 0.0
O113 O 0.2008 0.36753 0.12642 0.0
O114 O 0.21105 0.41248 0.11551 0.0
C115 C 0.1594 0.38836 0.17394 0.0
O116 O 0.15342 0.43667 0.13192 0.0
Co117 Co 0.11108 0.38551 0.13493 0.0
O118 O 0.11002 0.42578 0.14773 0.0
C119 C 0.13827 0.38285 0.07858 0.0
C120 C 0.21913 0.38594 0.11729 0.0
C121 C 0.12917 0.44396 0.14183 0.0
O122 O 0.16151 0.39149 0.08965 0.0
O123 O 0.11597 0.37803 0.09305 0.0
O124 O 0.18297 0.40199 0.17052 0.0
O125 O 0.14795 0.3786 0.15082 0.0
Co126 Co 0.67412 0.08782 0.86418 0.0
O127 O 0.7009 0.11834 0.86034 0.0
O128 O 0.7101 0.07588 0.87929 0.0
C129 C 0.65706 0.09076 0.81946 0.0
O130 O 0.65216 0.05077 0.8699 0.0
Co131 Co 0.61094 0.10047 0.86071 0.0
O132 O 0.60812 0.05849 0.85457 0.0
C133 C 0.6406 0.112 0.91452 0.0
C134 C 0.71908 0.10104 0.87149 0.0
C135 C 0.62764 0.0417 0.86253 0.0
O136 O 0.66287 0.10161 0.90318 0.0
O137 O 0.61767 0.11536 0.90064 0.0
O138 O 0.68011 0.07709 0.82488 0.0
O139 O 0.64647 0.10498 0.84069 0.0
Co140 Co 0.83991 0.92458 0.38307 0.0
O141 O 0.87177 0.94967 0.38584 0.0
O142 O 0.83052 0.96166 0.36742 0.0
C143 C 0.8427 0.90727 0.42785 0.0
O144 O 0.80196 0.90499 0.3781 0.0
Co145 Co 0.84781 0.85941 0.38665 0.0
O146 O 0.80656 0.85954 0.393 0.0
C147 C 0.86202 0.88878 0.33326 0.0
C148 C 0.85607 0.96901 0.3741 0.0
C149 C 0.79145 0.88067 0.38541 0.0
O150 O 0.85218 0.91181 0.34421 0.0
O151 O 0.8642 0.86536 0.34731 0.0
O152 O 0.83071 0.93166 0.42269 0.0
O153 O 0.85517 0.89542 0.40627 0.0
Co154 Co 0.84319 0.07776 0.11519 0.0
O155 O 0.87629 0.05463 0.11903 0.0
O156 O 0.83335 0.04057 0.13068 0.0
C157 C 0.85236 0.09332 0.07066 0.0
O158 O 0.80386 0.09583 0.11296 0.0
Co159 Co 0.84949 0.14353 0.10857 0.0
O160 O 0.81002 0.14041 0.09581 0.0
C161 C 0.85887 0.11711 0.16474 0.0
C162 C 0.86002 0.03473 0.12901 0.0
C163 C 0.7942 0.11931 0.10222 0.0
O164 O 0.85001 0.09304 0.15487 0.0
O165 O 0.86159 0.13969 0.1495 0.0
O166 O 0.84071 0.06846 0.07467 0.0
O167 O 0.86043 0.10659 0.0935 0.0
Co168 Co 0.34456 0.57999 0.6136 0.0
O169 O 0.37709 0.55612 0.61638 0.0
O170 O 0.33402 0.54266 0.62836 0.0
C171 C 0.35339 0.59617 0.5692 0.0
O172 O 0.30599 0.59943 0.61227 0.0
Co173 Co 0.35459 0.64545 0.60896 0.0
O174 O 0.31397 0.64521 0.59935 0.0
C175 C 0.36724 0.61542 0.66234 0.0
C176 C 0.36054 0.53632 0.62602 0.0
C177 C 0.2973 0.62427 0.60409 0.0
O178 O 0.35217 0.59433 0.65351 0.0
O179 O 0.37344 0.63693 0.64656 0.0
O180 O 0.34114 0.57157 0.57291 0.0
O181 O 0.36238 0.6085 0.5922 0.0
Co182 Co 0.17287 0.59194 0.36628 0.0
O183 O 0.19838 0.62368 0.36297 0.0
O184 O 0.20879 0.58198 0.38288 0.0
C185 C 0.15763 0.59375 0.3208 0.0
O186 O 0.15265 0.5536 0.37158 0.0
Co187 Co 0.10928 0.59976 0.35964 0.0
O188 O 0.1101 0.55818 0.35152 0.0
C189 C 0.13551 0.61316 0.415 0.0
C190 C 0.21697 0.60736 0.3749 0.0
C191 C 0.12984 0.54276 0.36136 0.0
O192 O 0.15943 0.60616 0.40452 0.0
O193 O 0.11267 0.61261 0.40059 0.0
O194 O 0.18094 0.5811 0.32739 0.0
O195 O 0.1453 0.60735 0.34145 0.0
Co196 Co 0.33092 0.41078 0.86513 0.0
O197 O 0.30325 0.38103 0.86232 0.0
O198 O 0.29558 0.42421 0.8804 0.0
C199 C 0.34714 0.40635 0.82037 0.0
O200 O 0.35391 0.44728 0.86954 0.0
Co201 Co 0.39378 0.39673 0.86089 0.0
O202 O 0.39712 0.43836 0.85265 0.0
C203 C 0.36453 0.38611 0.91513 0.0
C204 C 0.28574 0.39922 0.87313 0.0
C205 C 0.37814 0.45573 0.86067 0.0
O206 O 0.34244 0.39738 0.90421 0.0
O207 O 0.38707 0.38193 0.90084 0.0
O208 O 0.32456 0.4208 0.82574 0.0
O209 O 0.35773 0.39236 0.84176 0.0
Co210 Co 0.86763 0.82463 0.59012 0.0
O211 O 0.87242 0.79876 0.6215 0.0
O212 O 0.88166 0.78814 0.57632 0.0
C213 C 0.8245 0.84023 0.602 0.0
O214 O 0.86413 0.84618 0.55231 0.0
Co215 Co 0.86373 0.88954 0.60375 0.0
O216 O 0.85111 0.89116 0.56331 0.0
C217 C 0.9181 0.86073 0.60828 0.0
C218 C 0.88117 0.78017 0.603 0.0
C219 C 0.85524 0.87122 0.54516 0.0
O220 O 0.90725 0.83883 0.59575 0.0
O221 O 0.90366 0.88247 0.61598 0.0
O222 O 0.82764 0.81616 0.5885 0.0
O223 O 0.84747 0.85216 0.61085 0.0
Co224 Co 0.91252 0.13569 0.32548 0.0
O225 O 0.87986 0.13507 0.30132 0.0
O226 O 0.92256 0.12188 0.2879 0.0
C227 C 0.90454 0.17947 0.34338 0.0
O228 O 0.95166 0.13562 0.34377 0.0
Co229 Co 0.90687 0.13939 0.39155 0.0
O230 O 0.94799 0.1448 0.39094 0.0
C231 C 0.895 0.08494 0.36239 0.0
C232 C 0.89636 0.12601 0.28126 0.0
C233 C 0.96254 0.14071 0.36852 0.0
O234 O 0.90397 0.09536 0.33861 0.0
O235 O 0.89293 0.09945 0.38546 0.0
O236 O 0.91657 0.17667 0.31862 0.0
O237 O 0.89586 0.15611 0.35528 0.0
Co238 Co 0.63356 0.16838 0.08819 0.0
O239 O 0.63308 0.19222 0.1217 0.0
O240 O 0.61881 0.20565 0.07862 0.0
C241 C 0.67762 0.15143 0.09316 0.0
O242 O 0.63172 0.15059 0.04854 0.0
Co243 Co 0.63715 0.10308 0.09375 0.0
O244 O 0.64558 0.10485 0.0521 0.0
C245 C 0.58367 0.13105 0.10648 0.0
C246 C 0.62264 0.21202 0.1054 0.0
C247 C 0.63925 0.12676 0.03722 0.0
O248 O 0.59456 0.1545 0.0973 0.0
O249 O 0.59778 0.10792 0.10909 0.0
O250 O 0.67292 0.1764 0.08198 0.0
O251 O 0.65586 0.13875 0.10416 0.0
Co252 Co 0.58576 0.86811 0.83291 0.0
O253 O 0.61864 0.87191 0.80984 0.0
O254 O 0.57524 0.88007 0.79473 0.0
C255 C 0.59712 0.82524 0.85127 0.0
O256 O 0.54686 0.86514 0.85092 0.0
Co257 Co 0.59301 0.86741 0.89853 0.0
O258 O 0.55186 0.861 0.89866 0.0
C259 C 0.60208 0.92073 0.8672 0.0
C260 C 0.602 0.87904 0.78914 0.0
C261 C 0.53666 0.86191 0.87623 0.0
O262 O 0.59017 0.90918 0.84537 0.0
O263 O 0.60809 0.9067 0.88987 0.0
O264 O 0.58516 0.82704 0.8264 0.0
O265 O 0.60413 0.84934 0.86296 0.0
Co266 Co 0.88348 0.15556 0.91414 0.0
O267 O 0.88448 0.1222 0.93831 0.0
O268 O 0.86865 0.16485 0.9513 0.0
C269 C 0.92748 0.15157 0.89683 0.0
O270 O 0.87988 0.19521 0.89632 0.0
Co271 Co 0.88837 0.15148 0.84844 0.0
O272 O 0.89451 0.19339 0.85076 0.0
C273 C 0.83512 0.13561 0.87634 0.0
C274 C 0.87362 0.13835 0.958 0.0
C275 C 0.88696 0.20745 0.87276 0.0
O276 O 0.84501 0.14399 0.90049 0.0
O277 O 0.84935 0.13565 0.85314 0.0
O278 O 0.92294 0.16318 0.92164 0.0
O279 O 0.90572 0.14051 0.88437 0.0
Co280 Co 0.5783 0.10921 0.65498 0.0
O281 O 0.55262 0.1126 0.62355 0.0
O282 O 0.54436 0.12842 0.66739 0.0
C283 C 0.589 0.06276 0.64824 0.0
O284 O 0.59961 0.10824 0.69292 0.0
Co285 Co 0.64109 0.09558 0.64282 0.0
O286 O 0.64097 0.08681 0.68424 0.0
C287 C 0.61908 0.15326 0.6308 0.0
C288 C 0.53566 0.1251 0.64121 0.0
C289 C 0.62246 0.09626 0.70147 0.0
O290 O 0.59611 0.14691 0.64385 0.0
O291 O 0.63859 0.13505 0.62622 0.0
O292 O 0.56628 0.06992 0.66175 0.0
O293 O 0.60271 0.08365 0.63667 0.0
Co294 Co 0.62109 0.84061 0.41779 0.0
O295 O 0.61965 0.87185 0.44449 0.0
O296 O 0.63496 0.82812 0.45442 0.0
C297 C 0.57774 0.84691 0.39993 0.0
O298 O 0.62421 0.8027 0.39696 0.0
Co299 Co 0.6187 0.8504 0.35276 0.0
O300 O 0.61135 0.8085 0.35116 0.0
C301 C 0.67151 0.86168 0.38329 0.0
C302 C 0.62943 0.85389 0.46317 0.0
C303 C 0.61768 0.79257 0.37229 0.0
O304 O 0.66021 0.85151 0.40606 0.0
O305 O 0.65793 0.86523 0.35992 0.0
O306 O 0.58149 0.83333 0.42383 0.0
O307 O 0.59994 0.85853 0.38879 0.0
Co308 Co 0.92221 0.87852 0.16079 0.0
O309 O 0.94612 0.87535 0.12773 0.0
O310 O 0.95796 0.86216 0.17157 0.0
C311 C 0.90745 0.92367 0.15223 0.0
O312 O 0.90416 0.87916 0.20031 0.0
Co313 Co 0.85767 0.8883 0.15563 0.0
O314 O 0.86067 0.89742 0.19683 0.0
C315 C 0.88221 0.8318 0.14175 0.0
C316 C 0.96487 0.86462 0.14481 0.0
C317 C 0.88156 0.88906 0.2116 0.0
O318 O 0.90606 0.83937 0.15238 0.0
O319 O 0.86143 0.84894 0.13923 0.0
O320 O 0.93159 0.91931 0.16446 0.0
O321 O 0.89443 0.90102 0.14368 0.0
Co322 Co 0.83049 0.59174 0.86604 0.0
O323 O 0.80608 0.62407 0.87028 0.0
O324 O 0.79462 0.5795 0.88158 0.0
C325 C 0.84573 0.60194 0.8214 0.0
O326 O 0.85017 0.55313 0.86378 0.0
Co327 Co 0.89492 0.60286 0.85879 0.0
O328 O 0.89453 0.56155 0.84921 0.0
C329 C 0.86808 0.6112 0.91467 0.0
C330 C 0.78749 0.60634 0.88026 0.0
C331 C 0.87434 0.54451 0.85505 0.0
O332 O 0.84572 0.59847 0.90579 0.0
O333 O 0.88873 0.61775 0.89843 0.0
O334 O 0.8217 0.58919 0.82512 0.0
O335 O 0.85781 0.61076 0.84445 0.0
Co336 Co 0.33789 0.91346 0.1185 0.0
O337 O 0.36962 0.93903 0.11977 0.0
O338 O 0.32536 0.95189 0.12669 0.0
C339 C 0.3495 0.891 0.07777 0.0
O340 O 0.2997 0.8935 0.11748 0.0
Co341 Co 0.34663 0.84788 0.12334 0.0
O342 O 0.30565 0.84571 0.11607 0.0
C343 C 0.35606 0.88454 0.1733 0.0
C344 C 0.35168 0.9592 0.12492 0.0
C345 C 0.29002 0.86779 0.1155 0.0
O346 O 0.34317 0.90504 0.16048 0.0
O347 O 0.36226 0.86094 0.16098 0.0
O348 O 0.33686 0.91558 0.07697 0.0
O349 O 0.35717 0.88236 0.10282 0.0
Co350 Co 0.17353 0.08914 0.63335 0.0
O351 O 0.20148 0.11905 0.63257 0.0
O352 O 0.20638 0.07615 0.61294 0.0
C353 C 0.1626 0.09384 0.67995 0.0
O354 O 0.1505 0.05237 0.63115 0.0
Co355 Co 0.11105 0.1014 0.64752 0.0
O356 O 0.10894 0.0593 0.65272 0.0
C357 C 0.13375 0.11681 0.59076 0.0
C358 C 0.21701 0.10124 0.61838 0.0
C359 C 0.12729 0.04291 0.64166 0.0
O360 O 0.15674 0.10366 0.59655 0.0
O361 O 0.11396 0.12009 0.60899 0.0
O362 O 0.18455 0.07926 0.6723 0.0
O363 O 0.14957 0.10691 0.65962 0.0
Co364 Co 0.15806 0.92017 0.88443 0.0
O365 O 0.12719 0.94591 0.88204 0.0
O366 O 0.17106 0.95715 0.87067 0.0
C367 C 0.14765 0.90356 0.92832 0.0
O368 O 0.19517 0.89833 0.88552 0.0
Co369 Co 0.14382 0.85513 0.88821 0.0
O370 O 0.18453 0.85263 0.89666 0.0
C371 C 0.13426 0.88642 0.83482 0.0
C372 C 0.14493 0.96494 0.87308 0.0
C373 C 0.20237 0.87264 0.89244 0.0
O374 O 0.14992 0.90693 0.8441 0.0
O375 O 0.12663 0.86522 0.85034 0.0
O376 O 0.16149 0.9274 0.92552 0.0
O377 O 0.13841 0.89246 0.90487 0.0
Co378 Co 0.66121 0.41947 0.38522 0.0
O379 O 0.62862 0.44296 0.38157 0.0
O380 O 0.67212 0.45725 0.37218 0.0
C381 C 0.6501 0.40206 0.42851 0.0
O382 O 0.70018 0.40109 0.38802 0.0
Co383 Co 0.65448 0.35353 0.38891 0.0
O384 O 0.69325 0.35617 0.40384 0.0
C385 C 0.64636 0.38245 0.33368 0.0
C386 C 0.64548 0.46325 0.37356 0.0
C387 C 0.70932 0.37743 0.39875 0.0
O388 O 0.65537 0.40606 0.34457 0.0
O389 O 0.64315 0.35936 0.34804 0.0
O390 O 0.66237 0.42682 0.42622 0.0
O391 O 0.64292 0.38993 0.40475 0.0
Co392 Co 0.8261 0.4045 0.6353 0.0
O393 O 0.79884 0.3739 0.63534 0.0
O394 O 0.79262 0.41624 0.61501 0.0
C395 C 0.83757 0.40084 0.68191 0.0
O396 O 0.84849 0.44174 0.63215 0.0
Co397 Co 0.88897 0.39337 0.64947 0.0
O398 O 0.89054 0.43562 0.65315 0.0
C399 C 0.86628 0.37725 0.59287 0.0
C400 C 0.78264 0.39099 0.62105 0.0
C401 C 0.87192 0.45159 0.64191 0.0
O402 O 0.84295 0.38978 0.59862 0.0
O403 O 0.8862 0.37448 0.61107 0.0
O404 O 0.81526 0.41484 0.67422 0.0
O405 O 0.85061 0.38772 0.66167 0.0
Co406 Co 0.67697 0.58829 0.13413 0.0
O407 O 0.70421 0.61888 0.1336 0.0
O408 O 0.71016 0.57614 0.11388 0.0
C409 C 0.66549 0.59256 0.18062 0.0
O410 O 0.65494 0.55095 0.13159 0.0
Co411 Co 0.61404 0.5987 0.14792 0.0
O412 O 0.61321 0.55656 0.15318 0.0
C413 C 0.63697 0.61559 0.09169 0.0
C414 C 0.72015 0.60149 0.11936 0.0
C415 C 0.63205 0.54077 0.14211 0.0
O416 O 0.66008 0.60261 0.09732 0.0
O417 O 0.61704 0.61827 0.10985 0.0
O418 O 0.68789 0.57857 0.17319 0.0
O419 O 0.65234 0.6053 0.16017 0.0
Co420 Co 0.63749 0.67375 0.91847 0.0
O421 O 0.67747 0.67722 0.92288 0.0
O422 O 0.65572 0.63881 0.90606 0.0
C423 C 0.63169 0.71702 0.8982 0.0
O424 O 0.59683 0.66283 0.90934 0.0
Co425 Co 0.59581 0.71576 0.94754 0.0
O426 O 0.57015 0.70163 0.91716 0.0
C427 C 0.62254 0.66949 0.9814 0.0
C428 C 0.67925 0.65164 0.91226 0.0
C429 C 0.57388 0.67698 0.90624 0.0
O430 O 0.6339 0.65886 0.9588 0.0
O431 O 0.60811 0.69259 0.98136 0.0
O432 O 0.63933 0.69531 0.88267 0.0
O433 O 0.62969 0.71232 0.92525 0.0
Co434 Co 0.59218 0.36661 0.17247 0.0
O435 O 0.62442 0.36557 0.19717 0.0
O436 O 0.582 0.37973 0.21037 0.0
C437 C 0.59892 0.32294 0.1534 0.0
O438 O 0.55377 0.36905 0.15315 0.0
Co439 Co 0.60002 0.36554 0.10685 0.0
O440 O 0.55923 0.35668 0.10701 0.0
C441 C 0.61086 0.41893 0.1382 0.0
C442 C 0.60803 0.37481 0.21723 0.0
C443 C 0.54371 0.3623 0.12846 0.0
O444 O 0.60127 0.40701 0.16095 0.0
O445 O 0.61428 0.40544 0.11463 0.0
O446 O 0.58661 0.32573 0.178 0.0
O447 O 0.60897 0.34623 0.1424 0.0
Co448 Co 0.86929 0.32925 0.41701 0.0
O449 O 0.8302 0.32287 0.42378 0.0
O450 O 0.8479 0.36337 0.40701 0.0
C451 C 0.87646 0.28735 0.39464 0.0
O452 O 0.90901 0.34258 0.40654 0.0
Co453 Co 0.91351 0.28794 0.44356 0.0
O454 O 0.93751 0.30477 0.41325 0.0
C455 C 0.88497 0.33077 0.47992 0.0
C456 C 0.82587 0.34869 0.41476 0.0
C457 C 0.93251 0.32944 0.40289 0.0
O458 O 0.87383 0.34261 0.45779 0.0
O459 O 0.89983 0.30801 0.47872 0.0
O460 O 0.86684 0.3091 0.38037 0.0
O461 O 0.87933 0.2911 0.42175 0.0
Co462 Co 0.91576 0.62508 0.66689 0.0
O463 O 0.8819 0.62452 0.68925 0.0
O464 O 0.92399 0.61303 0.70567 0.0
C465 C 0.90877 0.66844 0.64704 0.0
O466 O 0.95542 0.62411 0.65015 0.0
Co467 Co 0.91155 0.62481 0.60119 0.0
O468 O 0.95199 0.63515 0.60347 0.0
C469 C 0.89909 0.57208 0.63277 0.0
C470 C 0.89727 0.61617 0.71053 0.0
C471 C 0.96654 0.63077 0.62592 0.0
O472 O 0.90869 0.58426 0.65538 0.0
O473 O 0.89603 0.5853 0.60899 0.0
O474 O 0.91961 0.666 0.6724 0.0
O475 O 0.89995 0.64481 0.63558 0.0
Co476 Co 0.61684 0.32903 0.57927 0.0
O477 O 0.57714 0.32324 0.5749 0.0
O478 O 0.59733 0.34 0.61409 0.0
C479 C 0.62257 0.35078 0.53678 0.0
O480 O 0.65719 0.33936 0.59076 0.0
Co481 Co 0.65961 0.30206 0.53706 0.0
O482 O 0.68416 0.33311 0.55181 0.0
C483 C 0.6333 0.26629 0.58219 0.0
C484 C 0.57432 0.33334 0.60053 0.0
C485 C 0.68011 0.34348 0.57662 0.0
O486 O 0.62134 0.28838 0.59323 0.0
O487 O 0.64795 0.26728 0.55924 0.0
O488 O 0.61419 0.36539 0.55879 0.0
O489 O 0.62532 0.32362 0.54067 0.0
Co490 Co 0.92161 0.38139 0.84259 0.0
O491 O 0.9481 0.37783 0.87313 0.0
O492 O 0.95624 0.36504 0.82823 0.0
C493 C 0.90828 0.42647 0.85096 0.0
O494 O 0.89862 0.38319 0.80579 0.0
Co495 Co 0.85923 0.38716 0.85925 0.0
O496 O 0.85547 0.39812 0.81841 0.0
C497 C 0.88528 0.33085 0.86264 0.0
C498 C 0.96523 0.36725 0.85446 0.0
C499 C 0.87388 0.39241 0.79948 0.0
O500 O 0.90707 0.34201 0.851 0.0
O501 O 0.86396 0.34563 0.8702 0.0
O502 O 0.93132 0.42101 0.83728 0.0
O503 O 0.89623 0.40459 0.86301 0.0
Co504 Co 0.88614 0.66035 0.07727 0.0
O505 O 0.92594 0.666 0.07419 0.0
O506 O 0.90477 0.6456 0.1111 0.0
C507 C 0.88124 0.64374 0.03239 0.0
O508 O 0.8457 0.64962 0.08735 0.0
Co509 Co 0.84369 0.69138 0.03765 0.0
O510 O 0.81831 0.65987 0.0496 0.0
C511 C 0.86966 0.72214 0.08669 0.0
C512 C 0.92807 0.6535 0.09884 0.0
C513 C 0.82246 0.64742 0.07342 0.0
O514 O 0.88194 0.69924 0.09539 0.0
O515 O 0.85494 0.72343 0.06379 0.0
O516 O 0.88864 0.62642 0.05277 0.0
O517 O 0.87835 0.67022 0.03941 0.0
Co518 Co 0.58251 0.61784 0.34107 0.0
O519 O 0.55636 0.6235 0.37158 0.0
O520 O 0.54695 0.63153 0.3259 0.0
C521 C 0.59757 0.57446 0.3545 0.0
O522 O 0.60494 0.61325 0.30417 0.0
Co523 Co 0.64596 0.61408 0.35673 0.0
O524 O 0.64885 0.60042 0.31669 0.0
C525 C 0.61777 0.66981 0.35776 0.0
C526 C 0.53847 0.63161 0.35237 0.0
C527 C 0.62979 0.60426 0.29792 0.0
O528 O 0.59625 0.65832 0.34574 0.0
O529 O 0.63896 0.65539 0.3664 0.0
O530 O 0.57425 0.57711 0.34037 0.0
O531 O 0.60896 0.59812 0.36308 0.0
Co532 Co 0.66952 0.89864 0.63432 0.0
O533 O 0.69497 0.867 0.6329 0.0
O534 O 0.70592 0.91138 0.62035 0.0
C535 C 0.65271 0.89009 0.67829 0.0
O536 O 0.64816 0.93668 0.63425 0.0
Co537 Co 0.60535 0.88588 0.63817 0.0
O538 O 0.60429 0.92666 0.64926 0.0
C539 C 0.63414 0.88026 0.58291 0.0
C540 C 0.71366 0.88484 0.62342 0.0
C541 C 0.62372 0.94449 0.64323 0.0
O542 O 0.657 0.88965 0.59416 0.0
O543 O 0.61146 0.87606 0.59694 0.0
O544 O 0.67643 0.90347 0.67496 0.0
O545 O 0.64176 0.87945 0.65531 0.0
Co546 Co 0.37415 0.32583 0.08746 0.0
O547 O 0.37596 0.30143 0.12054 0.0
O548 O 0.38799 0.28855 0.07662 0.0
C549 C 0.33071 0.3432 0.09534 0.0
O550 O 0.37435 0.34437 0.04811 0.0
Co551 Co 0.37104 0.3914 0.09428 0.0
O552 O 0.36172 0.39043 0.05281 0.0
C553 C 0.42432 0.36224 0.10575 0.0
C554 C 0.38534 0.28177 0.10344 0.0
C555 C 0.36709 0.3686 0.03742 0.0
O556 O 0.41358 0.3393 0.09516 0.0
O557 O 0.41012 0.38511 0.10977 0.0
O558 O 0.33423 0.31839 0.08337 0.0
O559 O 0.35334 0.35539 0.10486 0.0
Co560 Co 0.41965 0.629 0.82383 0.0
O561 O 0.38825 0.62427 0.79835 0.0
O562 O 0.43276 0.61732 0.78649 0.0
C563 C 0.40663 0.67164 0.84137 0.0
O564 O 0.4575 0.63327 0.84403 0.0
Co565 Co 0.40965 0.63109 0.88941 0.0
O566 O 0.4505 0.63883 0.8914 0.0
C567 C 0.40274 0.57694 0.85849 0.0
C568 C 0.40651 0.61801 0.7788 0.0
C569 C 0.46652 0.63766 0.86964 0.0
O570 O 0.41531 0.58793 0.83671 0.0
O571 O 0.39576 0.59155 0.88048 0.0
O572 O 0.41963 0.67008 0.81705 0.0
O573 O 0.39954 0.64747 0.85278 0.0
Co574 Co 0.13608 0.67268 0.58797 0.0
O575 O 0.13542 0.6964 0.6216 0.0
O576 O 0.12096 0.70987 0.57862 0.0
C577 C 0.18036 0.65613 0.59272 0.0
O578 O 0.13445 0.65507 0.54821 0.0
Co579 Co 0.1396 0.60752 0.59375 0.0
O580 O 0.14005 0.60737 0.55125 0.0
C581 C 0.08663 0.63533 0.60753 0.0
C582 C 0.12473 0.71616 0.60543 0.0
C583 C 0.13672 0.63018 0.53676 0.0
O584 O 0.09709 0.65848 0.59714 0.0
O585 O 0.10108 0.61255 0.61086 0.0
O586 O 0.1753 0.68109 0.58169 0.0
O587 O 0.15878 0.64316 0.60379 0.0
Co588 Co 0.09199 0.36798 0.32908 0.0
O589 O 0.12524 0.37036 0.30623 0.0
O590 O 0.0823 0.37994 0.29068 0.0
C591 C 0.10145 0.32481 0.34798 0.0
O592 O 0.05276 0.36654 0.34658 0.0
Co593 Co 0.09816 0.36775 0.39473 0.0
O594 O 0.05674 0.3635 0.39449 0.0
C595 C 0.10878 0.42074 0.36343 0.0
C596 C 0.10902 0.37783 0.28529 0.0
C597 C 0.04201 0.36444 0.37176 0.0
O598 O 0.09761 0.40904 0.34125 0.0
O599 O 0.11377 0.4069 0.38646 0.0
O600 O 0.08997 0.32693 0.3229 0.0
O601 O 0.10929 0.34871 0.35961 0.0
Co602 Co 0.38377 0.65953 0.413 0.0
O603 O 0.38435 0.62577 0.43666 0.0
O604 O 0.37057 0.66881 0.45078 0.0
C605 C 0.42697 0.65444 0.39406 0.0
O606 O 0.3812 0.69955 0.39606 0.0
Co607 Co 0.38554 0.65629 0.34725 0.0
O608 O 0.38633 0.69863 0.34828 0.0
C609 C 0.33326 0.64145 0.3771 0.0
C610 C 0.37473 0.64204 0.45693 0.0
C611 C 0.38309 0.71208 0.37168 0.0
O612 O 0.34435 0.64963 0.40076 0.0
O613 O 0.34661 0.64091 0.35338 0.0
O614 O 0.42351 0.66568 0.41922 0.0
O615 O 0.40454 0.64416 0.38211 0.0
Co616 Co 0.08032 0.60751 0.15547 0.0
O617 O 0.0543 0.60994 0.12427 0.0
O618 O 0.0461 0.62605 0.16802 0.0
C619 C 0.09227 0.56134 0.14906 0.0
O620 O 0.10196 0.60755 0.19321 0.0
Co621 Co 0.14337 0.59559 0.14294 0.0
O622 O 0.14418 0.58793 0.18458 0.0
C623 C 0.11935 0.65216 0.12983 0.0
C624 C 0.0373 0.62242 0.14191 0.0
C625 C 0.12539 0.59684 0.20179 0.0
O626 O 0.09698 0.64553 0.14375 0.0
O627 O 0.13922 0.63438 0.12512 0.0
O628 O 0.06946 0.56793 0.16274 0.0
O629 O 0.10527 0.58252 0.1372 0.0
Co630 Co 0.12109 0.34538 0.91316 0.0
O631 O 0.11798 0.37636 0.9402 0.0
O632 O 0.13677 0.33391 0.94929 0.0
C633 C 0.07707 0.34852 0.8961 0.0
O634 O 0.12651 0.30755 0.89241 0.0
Co635 Co 0.11561 0.35321 0.84786 0.0
O636 O 0.10912 0.31125 0.84801 0.0
C637 C 0.16872 0.36878 0.87655 0.0
C638 C 0.12973 0.35913 0.95841 0.0
C639 C 0.11813 0.29629 0.86881 0.0
O640 O 0.15889 0.35978 0.90049 0.0
O641 O 0.15461 0.3689 0.85324 0.0
O642 O 0.0821 0.33519 0.91994 0.0
O643 O 0.09825 0.36145 0.88451 0.0
Co644 Co 0.42104 0.37938 0.65507 0.0
O645 O 0.44601 0.37372 0.62327 0.0
O646 O 0.456 0.36272 0.66818 0.0
C647 C 0.40792 0.4244 0.64388 0.0
O648 O 0.40122 0.3832 0.69359 0.0
Co649 Co 0.35707 0.39032 0.64524 0.0
O650 O 0.35902 0.40312 0.68546 0.0
C651 C 0.38045 0.33234 0.63723 0.0
C652 C 0.4639 0.36359 0.64159 0.0
C653 C 0.37861 0.39544 0.70233 0.0
O654 O 0.40411 0.34017 0.64818 0.0
O655 O 0.36025 0.3497 0.63248 0.0
O656 O 0.43152 0.41995 0.6571 0.0
O657 O 0.3948 0.40173 0.63552 0.0
Co658 Co 0.32871 0.09148 0.36487 0.0
O659 O 0.30347 0.12307 0.36935 0.0
O660 O 0.29323 0.07824 0.38077 0.0
C661 C 0.34323 0.1019 0.32012 0.0
O662 O 0.34977 0.0536 0.36225 0.0
Co663 Co 0.39266 0.10516 0.35728 0.0
O664 O 0.39378 0.06389 0.34763 0.0
C665 C 0.366 0.11209 0.41338 0.0
C666 C 0.28542 0.1049 0.37951 0.0
C667 C 0.37426 0.04601 0.35338 0.0
O668 O 0.34406 0.09862 0.40452 0.0
O669 O 0.3863 0.11956 0.39708 0.0
O670 O 0.31956 0.08856 0.3241 0.0
O671 O 0.35521 0.11131 0.343 0.0
C672 C 0.10841 0.27214 0.34309 0.0
C673 C 0.10809 0.2967 0.36049 0.0
H674 H 0.11613 0.22701 0.34057 0.0
C675 C 0.11493 0.29418 0.38953 0.0
H676 H 0.10333 0.27351 0.32055 0.0
C677 C 0.12186 0.26752 0.401 0.0
C678 C 0.12263 0.24305 0.38351 0.0
H679 H 0.1148 0.31276 0.40338 0.0
H680 H 0.12695 0.26612 0.42354 0.0
C681 C 0.1159 0.24557 0.35444 0.0
C682 C 0.99561 0.84442 0.60087 0.0
C683 C 0.00739 0.86099 0.62292 0.0
H684 H 0.95819 0.83107 0.57923 0.0
C685 C 0.98953 0.8773 0.64038 0.0
H686 H 0.00883 0.83157 0.58713 0.0
C687 C 0.96054 0.87747 0.6355 0.0
C688 C 0.94877 0.86083 0.61347 0.0
H689 H 0.99802 0.89042 0.65744 0.0
H690 H 0.94733 0.89045 0.64912 0.0
C691 C 0.9666 0.84409 0.59641 0.0
C692 C 0.3845 0.72705 0.89545 0.0
C693 C 0.38282 0.75173 0.87839 0.0
H694 H 0.39306 0.6821 0.89692 0.0
C695 C 0.38996 0.75011 0.84935 0.0
H696 H 0.37909 0.72777 0.91793 0.0
C697 C 0.39845 0.72413 0.83749 0.0
C698 C 0.39933 0.69927 0.85436 0.0
H699 H 0.38899 0.7689 0.83582 0.0
H700 H 0.40367 0.72337 0.81497 0.0
C701 C 0.3924 0.70094 0.88345 0.0
C702 C 0.50677 0.15073 0.1032 0.0
C703 C 0.49437 0.1307 0.1217 0.0
H704 H 0.54445 0.16673 0.08431 0.0
C705 C 0.51166 0.11106 0.13609 0.0
H706 H 0.49401 0.16622 0.09192 0.0
C707 C 0.54077 0.11091 0.13125 0.0
C708 C 0.55309 0.13092 0.11253 0.0
H709 H 0.5026 0.09529 0.15038 0.0
H710 H 0.5536 0.09524 0.14215 0.0
C711 C 0.53574 0.15105 0.09892 0.0
C712 C 0.14366 0.68744 0.09823 0.0
C713 C 0.12222 0.68145 0.11796 0.0
H714 H 0.16287 0.71811 0.07074 0.0
C715 C 0.1035 0.70345 0.1255 0.0
H716 H 0.15845 0.6711 0.09184 0.0
C717 C 0.10617 0.73079 0.11339 0.0
C718 C 0.12736 0.73645 0.09324 0.0
H719 H 0.08675 0.69956 0.14068 0.0
H720 H 0.0914 0.74728 0.11942 0.0
C721 C 0.14611 0.71447 0.08597 0.0
C722 C 0.51807 0.86298 0.34875 0.0
C723 C 0.49491 0.86199 0.36732 0.0
H724 H 0.56287 0.85952 0.34471 0.0
C725 C 0.49913 0.85495 0.39615 0.0
H726 H 0.5153 0.8685 0.32644 0.0
C727 C 0.52603 0.84924 0.40637 0.0
C728 C 0.54936 0.8512 0.38814 0.0
H729 H 0.48161 0.85394 0.41087 0.0
H730 H 0.52863 0.8441 0.4288 0.0
C731 C 0.5452 0.85801 0.35919 0.0
C732 C 0.39457 0.25475 0.6174 0.0
C733 C 0.36938 0.2476 0.60341 0.0
H734 H 0.41814 0.28752 0.63903 0.0
C735 C 0.34726 0.26727 0.60333 0.0
H736 H 0.41196 0.23987 0.61772 0.0
C737 C 0.3506 0.29414 0.61562 0.0
C738 C 0.37634 0.30226 0.62803 0.0
H739 H 0.32747 0.26215 0.59306 0.0
H740 H 0.33316 0.30889 0.6144 0.0
C741 C 0.39811 0.28201 0.62949 0.0
C742 C 0.00656 0.15042 0.89218 0.0
C743 C 0.01111 0.14134 0.86395 0.0
H744 H 0.9767 0.16121 0.92444 0.0
C745 C 0.98791 0.13737 0.8458 0.0
H746 H 0.02407 0.1538 0.90662 0.0
C747 C 0.96055 0.14114 0.85622 0.0
C748 C 0.95609 0.14948 0.88476 0.0
H749 H 0.99085 0.13024 0.82397 0.0
H750 H 0.94293 0.13711 0.84212 0.0
C751 C 0.97941 0.15471 0.90239 0.0
C752 C 0.39816 0.11167 0.26231 0.0
C753 C 0.38185 0.10928 0.23743 0.0
H754 H 0.39855 0.11198 0.30807 0.0
C755 C 0.35294 0.10372 0.23991 0.0
H756 H 0.42044 0.11615 0.26097 0.0
C757 C 0.3405 0.10077 0.2668 0.0
C758 C 0.3566 0.10406 0.29172 0.0
H759 H 0.3399 0.10174 0.22102 0.0
H760 H 0.31815 0.09657 0.26808 0.0
C761 C 0.38557 0.10946 0.28924 0.0
C762 C 0.10409 0.16025 0.52966 0.0
C763 C 0.12244 0.15362 0.50712 0.0
H764 H 0.09316 0.15387 0.57339 0.0
C765 C 0.14432 0.13413 0.51205 0.0
H766 H 0.08688 0.17504 0.52658 0.0
C767 C 0.14811 0.12207 0.5392 0.0
C768 C 0.12984 0.129 0.56179 0.0
H769 H 0.15887 0.12867 0.49513 0.0
H770 H 0.16536 0.10738 0.54248 0.0
C771 C 0.10765 0.14802 0.55656 0.0
C772 C 0.09749 0.87786 0.79789 0.0
C773 C 0.12484 0.88682 0.80481 0.0
H774 H 0.06768 0.8693 0.76463 0.0
C775 C 0.14324 0.89492 0.78279 0.0
H776 H 0.08289 0.87166 0.81454 0.0
C777 C 0.13477 0.89282 0.7542 0.0
C778 C 0.1075 0.88353 0.74731 0.0
H779 H 0.16445 0.90183 0.78764 0.0
H780 H 0.14958 0.89828 0.73748 0.0
C781 C 0.08876 0.87666 0.7694 0.0
C782 C 0.37524 0.83269 0.02838 0.0
C783 C 0.36612 0.84268 0.00157 0.0
H784 H 0.37703 0.84011 0.07351 0.0
C785 C 0.35086 0.86837 0.00025 0.0
H786 H 0.38695 0.81296 0.03025 0.0
C787 C 0.34525 0.88391 0.02506 0.0
C788 C 0.3547 0.87408 0.05173 0.0
H789 H 0.34343 0.8767 0.98001 0.0
H790 H 0.33367 0.90375 0.02329 0.0
C791 C 0.36954 0.84823 0.05321 0.0
C792 C 0.35534 0.90957 0.25029 0.0
C793 C 0.37566 0.89171 0.26276 0.0
H794 H 0.33344 0.92159 0.21217 0.0
C795 C 0.39042 0.8725 0.24531 0.0
H796 H 0.34376 0.92474 0.26318 0.0
C797 C 0.38421 0.87042 0.2162 0.0
C798 C 0.36346 0.88784 0.20383 0.0
H799 H 0.40615 0.85843 0.25429 0.0
H800 H 0.39557 0.85499 0.20341 0.0
C801 C 0.34947 0.90783 0.22107 0.0
C802 C 0.36491 0.10735 0.49422 0.0
C803 C 0.37497 0.13465 0.5016 0.0
H804 H 0.35326 0.07897 0.45995 0.0
C805 C 0.3813 0.15442 0.47994 0.0
H806 H 0.35973 0.09188 0.51065 0.0
C807 C 0.3783 0.14691 0.45131 0.0
C808 C 0.36809 0.11978 0.44378 0.0
H809 H 0.38911 0.17561 0.48512 0.0
H810 H 0.38378 0.16243 0.43501 0.0
C811 C 0.36104 0.1001 0.46539 0.0
C812 C 0.16133 0.08693 0.76039 0.0
C813 C 0.13682 0.10207 0.76759 0.0
H814 H 0.18853 0.0723 0.72712 0.0
C815 C 0.12002 0.11309 0.74552 0.0
H816 H 0.17465 0.07788 0.77682 0.0
C817 C 0.12814 0.10996 0.71696 0.0
C818 C 0.15307 0.09554 0.70992 0.0
H819 H 0.10103 0.12483 0.75032 0.0
H820 H 0.1151 0.11925 0.70042 0.0
C821 C 0.16931 0.08364 0.73188 0.0
C822 C 0.12921 0.84851 0.98411 0.0
C823 C 0.12962 0.86487 0.00929 0.0
H824 H 0.13432 0.84807 0.93874 0.0
C825 C 0.13681 0.89399 0.00786 0.0
H826 H 0.12374 0.82598 0.98462 0.0
C827 C 0.14345 0.90654 0.98154 0.0
C828 C 0.14235 0.89024 0.9563 0.0
H829 H 0.13744 0.90698 0.02704 0.0
H830 H 0.14883 0.92908 0.98085 0.0
C831 C 0.13522 0.86114 0.95784 0.0
C832 C 0.2983 0.38414 0.10709 0.0
C833 C 0.30233 0.35533 0.09939 0.0
H834 H 0.26849 0.41682 0.11823 0.0
C835 C 0.27876 0.33749 0.09614 0.0
H836 H 0.31611 0.39841 0.1096 0.0
C837 C 0.25185 0.34782 0.10145 0.0
C838 C 0.24772 0.37641 0.1096 0.0
H839 H 0.28111 0.31522 0.09019 0.0
H840 H 0.23421 0.33325 0.09938 0.0
C841 C 0.27112 0.39471 0.11186 0.0
C842 C 0.76042 0.1263 0.85127 0.0
C843 C 0.74888 0.10927 0.87306 0.0
H844 H 0.79707 0.14734 0.83493 0.0
C845 C 0.76594 0.10054 0.89588 0.0
H846 H 0.74767 0.13315 0.83334 0.0
C847 C 0.79404 0.10939 0.8972 0.0
C848 C 0.80561 0.12618 0.87518 0.0
H849 H 0.75741 0.08743 0.91292 0.0
H850 H 0.80682 0.10283 0.9152 0.0
C851 C 0.78864 0.1343 0.85207 0.0
C852 C 0.13703 0.49646 0.13177 0.0
C853 C 0.12183 0.47455 0.14544 0.0
H854 H 0.13945 0.54132 0.12201 0.0
C855 C 0.09789 0.48184 0.16145 0.0
H856 H 0.15553 0.49157 0.11929 0.0
C857 C 0.0887 0.51005 0.16289 0.0
C858 C 0.10319 0.5318 0.14843 0.0
H859 H 0.08582 0.46561 0.17258 0.0
H860 H 0.06991 0.5147 0.17505 0.0
C861 C 0.12774 0.52489 0.13322 0.0
C862 C 0.71455 0.88728 0.36507 0.0
C863 C 0.70203 0.86766 0.384 0.0
H864 H 0.75281 0.90727 0.35102 0.0
C865 C 0.7191 0.85292 0.40357 0.0
H866 H 0.7019 0.89897 0.3498 0.0
C867 C 0.74807 0.85721 0.40387 0.0
C868 C 0.76065 0.87679 0.38503 0.0
H869 H 0.71016 0.83753 0.41834 0.0
H870 H 0.76063 0.84526 0.41902 0.0
C871 C 0.74361 0.89208 0.36584 0.0
C872 C 0.91194 0.97702 0.14942 0.0
C873 C 0.89503 0.95239 0.14869 0.0
H874 H 0.91406 0.02246 0.14345 0.0
C875 C 0.86614 0.95526 0.1431 0.0
H876 H 0.93424 0.97545 0.15364 0.0
C877 C 0.85449 0.98217 0.13779 0.0
C878 C 0.87161 0.00664 0.13733 0.0
H879 H 0.85253 0.93667 0.14249 0.0
H880 H 0.83227 0.98367 0.13308 0.0
C881 C 0.90039 0.00388 0.14349 0.0
C882 C 0.21724 0.62124 0.61055 0.0
C883 C 0.20958 0.64523 0.59411 0.0
H884 H 0.25121 0.59545 0.62669 0.0
C885 C 0.23068 0.66044 0.57961 0.0
H886 H 0.20142 0.60903 0.6219 0.0
C887 C 0.25877 0.65286 0.58239 0.0
C888 C 0.26683 0.62972 0.59971 0.0
H889 H 0.22562 0.67878 0.56643 0.0
H890 H 0.27429 0.66559 0.57116 0.0
C891 C 0.2457 0.61347 0.61327 0.0
C892 C 0.10199 0.46933 0.34216 0.0
C893 C 0.11513 0.4518 0.36252 0.0
H894 H 0.09624 0.5117 0.32603 0.0
C895 C 0.13399 0.46432 0.3821 0.0
H896 H 0.08736 0.46042 0.32679 0.0
C897 C 0.13942 0.49381 0.38139 0.0
C898 C 0.12565 0.51137 0.36147 0.0
H899 H 0.14459 0.45135 0.39794 0.0
H900 H 0.15386 0.50294 0.39682 0.0
C901 C 0.107 0.49877 0.34181 0.0
C902 C 0.41117 0.52696 0.841 0.0
C903 C 0.39627 0.54596 0.85857 0.0
H904 H 0.41736 0.48344 0.82819 0.0
C905 C 0.37521 0.53505 0.87665 0.0
H906 H 0.42753 0.53471 0.82689 0.0
C907 C 0.36915 0.50579 0.87714 0.0
C908 C 0.38436 0.48674 0.85995 0.0
H909 H 0.36323 0.54916 0.89033 0.0
H910 H 0.35279 0.49807 0.89128 0.0
C911 C 0.40544 0.4976 0.84188 0.0
C912 C 0.89494 0.70014 0.60573 0.0
C913 C 0.90375 0.69692 0.63426 0.0
H914 H 0.88131 0.72941 0.57302 0.0
C915 C 0.90665 0.72138 0.65146 0.0
H916 H 0.89265 0.68162 0.59197 0.0
C917 C 0.89979 0.74832 0.64087 0.0
C918 C 0.89036 0.75161 0.61264 0.0
H919 H 0.91344 0.7197 0.6735 0.0
H920 H 0.90163 0.76662 0.65499 0.0
C921 C 0.88856 0.7274 0.59488 0.0
C922 C 0.00803 0.12883 0.39184 0.0
C923 C 0.99309 0.14464 0.37134 0.0
H924 H 0.04557 0.12577 0.4171 0.0
C925 C 0.00609 0.16814 0.35813 0.0
H926 H 0.99816 0.11089 0.4026 0.0
C927 C 0.03273 0.17717 0.36706 0.0
C928 C 0.04706 0.16227 0.38867 0.0
H929 H 0.99471 0.18094 0.34269 0.0
H930 H 0.04154 0.19665 0.35818 0.0
C931 C 0.03507 0.13731 0.40011 0.0
C932 C 0.60933 0.24325 0.14629 0.0
C933 C 0.61535 0.24035 0.11707 0.0
H934 H 0.59879 0.27164 0.18047 0.0
C935 C 0.61491 0.26473 0.09948 0.0
H936 H 0.60935 0.22477 0.16029 0.0
C937 C 0.60942 0.29173 0.11118 0.0
C938 C 0.60356 0.29458 0.14046 0.0
H939 H 0.61952 0.26302 0.07687 0.0
H940 H 0.60977 0.31034 0.09736 0.0
C941 C 0.60315 0.27005 0.1578 0.0
C942 C 0.46342 0.83187 0.86719 0.0
C943 C 0.45114 0.83996 0.89322 0.0
H944 H 0.50035 0.83325 0.8409 0.0
C945 C 0.46575 0.85835 0.91166 0.0
H946 H 0.45263 0.81715 0.85301 0.0
C947 C 0.49308 0.86697 0.90514 0.0
C948 C 0.50616 0.85755 0.87993 0.0
H949 H 0.45678 0.86436 0.93207 0.0
H950 H 0.5045 0.87989 0.92052 0.0
C951 C 0.49068 0.84097 0.86037 0.0
C952 C 0.9027 0.25306 0.85024 0.0
C953 C 0.88621 0.23905 0.87079 0.0
H954 H 0.91537 0.29274 0.83178 0.0
C955 C 0.86905 0.25549 0.88892 0.0
H956 H 0.91624 0.24108 0.83603 0.0
C957 C 0.86821 0.2854 0.88621 0.0
C958 C 0.885 0.29931 0.86576 0.0
H959 H 0.85601 0.24522 0.9049 0.0
H960 H 0.85477 0.2976 0.9003 0.0
C961 C 0.90227 0.28276 0.8479 0.0
C962 C 0.47738 0.1485 0.59214 0.0
C963 C 0.45384 0.14775 0.61018 0.0
H964 H 0.52152 0.14174 0.58789 0.0
C965 C 0.45758 0.14097 0.63923 0.0
H966 H 0.47522 0.1536 0.56965 0.0
C967 C 0.48445 0.13474 0.64988 0.0
C968 C 0.50773 0.13453 0.63143 0.0
H969 H 0.43979 0.14034 0.65362 0.0
H970 H 0.48685 0.12914 0.67221 0.0
C971 C 0.50392 0.14166 0.60256 0.0
C972 C 0.63443 0.74383 0.3862 0.0
C973 C 0.61797 0.76121 0.36832 0.0
H974 H 0.6476 0.7013 0.39661 0.0
C975 C 0.60164 0.74833 0.34685 0.0
H976 H 0.64733 0.75318 0.40287 0.0
C977 C 0.60146 0.71862 0.34358 0.0
C978 C 0.61806 0.70123 0.36133 0.0
H979 H 0.58865 0.76118 0.33286 0.0
H980 H 0.5885 0.70929 0.32695 0.0
C981 C 0.63469 0.71415 0.38254 0.0
C982 C 0.04228 0.84537 0.14176 0.0
C983 C 0.04592 0.84031 0.11238 0.0
H984 H 0.01351 0.85662 0.17525 0.0
C985 C 0.02259 0.8426 0.0941 0.0
H986 H 0.05988 0.84377 0.15634 0.0
C987 C 0.99637 0.85042 0.10475 0.0
C988 C 0.99267 0.85563 0.13404 0.0
H989 H 0.02468 0.83898 0.07132 0.0
H990 H 0.97895 0.85237 0.08998 0.0
C991 C 0.01577 0.85267 0.15255 0.0
C992 C 0.65414 0.89527 0.73108 0.0
C993 C 0.6388 0.88864 0.70633 0.0
H994 H 0.65432 0.89747 0.77667 0.0
C995 C 0.61042 0.88066 0.70882 0.0
H996 H 0.67601 0.9016 0.7298 0.0
C997 C 0.59777 0.87885 0.73578 0.0
C998 C 0.61356 0.88444 0.76051 0.0
H999 H 0.59807 0.87564 0.69002 0.0
H1000 H 0.57606 0.87206 0.73732 0.0
C1001 C 0.64172 0.89295 0.7579 0.0
C1002 C 0.83365 0.90196 0.50767 0.0
C1003 C 0.85013 0.87807 0.51467 0.0
H1004 H 0.81819 0.92949 0.47497 0.0
C1005 C 0.86249 0.86222 0.49245 0.0
H1006 H 0.82344 0.91443 0.52416 0.0
C1007 C 0.85951 0.87104 0.46391 0.0
C1008 C 0.84397 0.89569 0.45723 0.0
H1009 H 0.87524 0.84366 0.49716 0.0
H1010 H 0.86996 0.85905 0.44722 0.0
C1011 C 0.83057 0.91059 0.47937 0.0
C1012 C 0.85803 0.1409 0.21236 0.0
C1013 C 0.86734 0.11848 0.19492 0.0
H1014 H 0.85943 0.16023 0.25387 0.0
C1015 C 0.8858 0.09797 0.20619 0.0
H1016 H 0.84381 0.15693 0.20403 0.0
C1017 C 0.89552 0.10041 0.23433 0.0
C1018 C 0.88602 0.12275 0.25181 0.0
H1019 H 0.89335 0.08059 0.19295 0.0
H1020 H 0.91024 0.08478 0.24248 0.0
C1021 C 0.86689 0.14271 0.24077 0.0
C1022 C 0.62201 0.13655 0.95855 0.0
C1023 C 0.64111 0.11766 0.94569 0.0
H1024 H 0.60682 0.15471 0.99775 0.0
C1025 C 0.66009 0.10265 0.96315 0.0
H1026 H 0.60715 0.14839 0.94566 0.0
C1027 C 0.65946 0.10574 0.99281 0.0
C1028 C 0.64028 0.12441 0.00572 0.0
H1029 H 0.67496 0.08776 0.95398 0.0
H1030 H 0.67404 0.09348 0.00566 0.0
C1031 C 0.62186 0.14019 0.98831 0.0
C1032 C 0.62398 0.10976 0.78179 0.0
C1033 C 0.64526 0.09076 0.79025 0.0
H1034 H 0.59981 0.12651 0.74672 0.0
C1035 C 0.65693 0.07228 0.76986 0.0
H1036 H 0.61455 0.12416 0.79714 0.0
C1037 C 0.64868 0.07365 0.7414 0.0
C1038 C 0.62845 0.0935 0.73242 0.0
H1039 H 0.67306 0.05708 0.7757 0.0
H1040 H 0.65867 0.05937 0.72628 0.0
C1041 C 0.61557 0.11108 0.753 0.0
C1042 C 0.65331 0.85043 0.51059 0.0
C1043 C 0.63189 0.86181 0.49345 0.0
H1044 H 0.67127 0.84823 0.55268 0.0
C1045 C 0.61177 0.87988 0.50573 0.0
H1046 H 0.66904 0.83645 0.50147 0.0
C1047 C 0.61246 0.88573 0.53497 0.0
C1048 C 0.63386 0.87441 0.55211 0.0
H1049 H 0.59495 0.88872 0.49291 0.0
H1050 H 0.59638 0.89921 0.54419 0.0
C1051 C 0.6546 0.85715 0.5397 0.0
C1052 C 0.88621 0.86846 0.28987 0.0
C1053 C 0.8691 0.88942 0.30246 0.0
H1054 H 0.90418 0.85226 0.251 0.0
C1055 C 0.85764 0.91099 0.28506 0.0
H1056 H 0.89541 0.85165 0.30274 0.0
C1057 C 0.86227 0.91106 0.25569 0.0
C1058 C 0.8789 0.88991 0.24299 0.0
H1059 H 0.84432 0.92748 0.29398 0.0
H1060 H 0.85257 0.9276 0.24283 0.0
C1061 C 0.89134 0.8689 0.26035 0.0
C1062 C 0.86313 0.09759 0.9908 0.0
C1063 C 0.86734 0.12706 0.98672 0.0
H1064 H 0.8545 0.06391 0.02061 0.0
C1065 C 0.86589 0.14554 0.01036 0.0
H1066 H 0.86398 0.08291 0.97289 0.0
C1067 C 0.86103 0.13461 0.03775 0.0
C1068 C 0.85685 0.10512 0.0418 0.0
H1069 H 0.8691 0.16837 0.00777 0.0
H1070 H 0.86046 0.14923 0.05571 0.0
C1071 C 0.85759 0.08676 0.01805 0.0
C1072 C 0.75688 0.6458 0.8973 0.0
C1073 C 0.75985 0.61684 0.88995 0.0
H1074 H 0.72936 0.6792 0.91054 0.0
C1075 C 0.73621 0.59878 0.89119 0.0
H1076 H 0.77474 0.66022 0.89675 0.0
C1077 C 0.70986 0.60983 0.89874 0.0
C1078 C 0.70695 0.63896 0.90575 0.0
H1079 H 0.73793 0.57636 0.8856 0.0
H1080 H 0.6918 0.59569 0.89891 0.0
C1081 C 0.73084 0.65666 0.90534 0.0
C1082 C 0.24491 0.88201 0.09215 0.0
C1083 C 0.25972 0.86335 0.11021 0.0
H1084 H 0.20763 0.88835 0.06706 0.0
C1085 C 0.24626 0.83852 0.12035 0.0
H1086 H 0.25489 0.90115 0.08383 0.0
C1087 C 0.21903 0.83169 0.11141 0.0
C1088 C 0.20509 0.84929 0.09177 0.0
H1089 H 0.25721 0.82379 0.13431 0.0
H1090 H 0.20963 0.81169 0.1183 0.0
C1091 C 0.21793 0.87477 0.08261 0.0
C1092 C 0.90175 0.50476 0.83417 0.0
C1093 C 0.87997 0.51356 0.85225 0.0
H1094 H 0.92736 0.47068 0.81958 0.0
C1095 C 0.86566 0.49289 0.86868 0.0
H1096 H 0.9129 0.52001 0.82086 0.0
C1097 C 0.87415 0.4641 0.86803 0.0
C1098 C 0.89692 0.45582 0.85089 0.0
H1099 H 0.84874 0.49912 0.88279 0.0
H1100 H 0.8635 0.4486 0.88146 0.0
C1101 C 0.91008 0.47635 0.83349 0.0
C1102 C 0.26188 0.12825 0.62455 0.0
C1103 C 0.24505 0.10976 0.60811 0.0
H1104 H 0.29969 0.15332 0.62651 0.0
C1105 C 0.25444 0.10105 0.58106 0.0
H1106 H 0.25506 0.13517 0.64552 0.0
C1107 C 0.2795 0.11205 0.56992 0.0
C1108 C 0.29601 0.13104 0.58611 0.0
H1109 H 0.24172 0.08693 0.56797 0.0
H1110 H 0.2857 0.10624 0.54841 0.0
C1111 C 0.28743 0.13843 0.61381 0.0
C1112 C 0.10686 0.99731 0.85798 0.0
C1113 C 0.13494 0.9939 0.86629 0.0
H1114 H 0.07386 0.02624 0.84785 0.0
C1115 C 0.15194 0.01823 0.87011 0.0
H1116 H 0.09332 0.97889 0.85477 0.0
C1117 C 0.14054 0.04568 0.86662 0.0
C1118 C 0.11222 0.04892 0.85876 0.0
H1119 H 0.17363 0.01607 0.87671 0.0
H1120 H 0.15377 0.06424 0.87014 0.0
C1121 C 0.0957 0.02446 0.85405 0.0
C1122 C 0.78922 0.38253 0.39506 0.0
C1123 C 0.79679 0.35963 0.41299 0.0
H1124 H 0.75524 0.4064 0.37628 0.0
C1125 C 0.77569 0.34505 0.42806 0.0
H1126 H 0.8051 0.39418 0.38322 0.0
C1127 C 0.74758 0.35191 0.42416 0.0
C1128 C 0.73961 0.37357 0.40499 0.0
H1129 H 0.78079 0.32763 0.44243 0.0
H1130 H 0.73198 0.3396 0.43574 0.0
C1131 C 0.76074 0.38949 0.39109 0.0
C1132 C 0.86568 0.49948 0.61817 0.0
C1133 C 0.87808 0.48257 0.63958 0.0
H1134 H 0.86299 0.54105 0.59878 0.0
C1135 C 0.89725 0.49536 0.65854 0.0
H1136 H 0.85093 0.49015 0.60316 0.0
C1137 C 0.90385 0.52437 0.65628 0.0
C1138 C 0.89184 0.54128 0.63466 0.0
H1139 H 0.90708 0.48295 0.67535 0.0
H1140 H 0.91869 0.53348 0.67134 0.0
C1141 C 0.87273 0.52853 0.61554 0.0
C1142 C 0.64045 0.49238 0.12053 0.0
C1143 C 0.62715 0.50953 0.14113 0.0
H1144 H 0.64545 0.45022 0.10313 0.0
C1145 C 0.60892 0.49659 0.16089 0.0
H1146 H 0.65457 0.5018 0.10498 0.0
C1147 C 0.60409 0.46714 0.16013 0.0
C1148 C 0.61697 0.44998 0.13926 0.0
H1149 H 0.59851 0.50921 0.17714 0.0
H1150 H 0.58985 0.45789 0.17567 0.0
C1151 C 0.63517 0.4629 0.1194 0.0
C1152 C 0.61524 0.74677 0.85709 0.0
C1153 C 0.62299 0.7446 0.88593 0.0
H1154 H 0.60034 0.77407 0.82366 0.0
C1155 C 0.62166 0.769 0.90347 0.0
H1156 H 0.61585 0.72822 0.84321 0.0
C1157 C 0.61312 0.79526 0.89227 0.0
C1158 C 0.60525 0.79743 0.86347 0.0
H1159 H 0.62749 0.76786 0.92583 0.0
H1160 H 0.61258 0.8138 0.90615 0.0
C1161 C 0.60618 0.77293 0.84602 0.0
C1162 C 0.49511 0.38026 0.13907 0.0
C1163 C 0.51296 0.36163 0.12411 0.0
H1164 H 0.45298 0.39557 0.14458 0.0
C1165 C 0.50135 0.34301 0.10368 0.0
H1166 H 0.50355 0.39496 0.15482 0.0
C1167 C 0.47257 0.34302 0.09818 0.0
C1168 C 0.45472 0.36211 0.11251 0.0
H1169 H 0.51456 0.32833 0.09189 0.0
H1170 H 0.46439 0.32841 0.0822 0.0
C1171 C 0.46625 0.38075 0.13306 0.0
C1172 C 0.89401 0.20942 0.38581 0.0
C1173 C 0.89925 0.20755 0.35639 0.0
H1174 H 0.88299 0.23632 0.42089 0.0
C1175 C 0.89772 0.23235 0.33947 0.0
H1176 H 0.89514 0.19063 0.39932 0.0
C1177 C 0.89015 0.25852 0.35174 0.0
C1178 C 0.88465 0.26023 0.38116 0.0
H1179 H 0.90155 0.23135 0.31666 0.0
H1180 H 0.88865 0.27733 0.3383 0.0
C1181 C 0.88707 0.23557 0.39812 0.0
C1182 C 0.01539 0.61449 0.63839 0.0
C1183 C 0.99745 0.63297 0.62332 0.0
H1184 H 0.0578 0.60025 0.64483 0.0
C1185 C 0.00917 0.6528 0.60415 0.0
H1186 H 0.00687 0.5989 0.65319 0.0
C1187 C 0.03813 0.65396 0.59979 0.0
C1188 C 0.05612 0.63485 0.61398 0.0
H1189 H 0.99587 0.66739 0.59233 0.0
H1190 H 0.04633 0.66936 0.58459 0.0
C1191 C 0.04447 0.61516 0.63347 0.0
C1192 C 0.60789 0.23237 0.61517 0.0
C1193 C 0.63014 0.23807 0.59625 0.0
H1194 H 0.58668 0.20097 0.64082 0.0
C1195 C 0.64913 0.21606 0.58982 0.0
H1196 H 0.59288 0.24888 0.62049 0.0
C1197 C 0.64575 0.18886 0.60152 0.0
C1198 C 0.62312 0.18278 0.61982 0.0
H1199 H 0.66665 0.21976 0.57553 0.0
H1200 H 0.6607 0.17246 0.59572 0.0
C1201 C 0.6043 0.2049 0.62671 0.0
C1202 C 0.04413 0.35887 0.85554 0.0
C1203 C 0.04853 0.35029 0.88402 0.0
H1204 H 0.01387 0.37028 0.8234 0.0
C1205 C 0.02527 0.34483 0.90157 0.0
H1206 H 0.06175 0.36305 0.84152 0.0
C1207 C 0.99815 0.34943 0.89141 0.0
C1208 C 0.99371 0.3589 0.86329 0.0
H1209 H 0.02801 0.33816 0.92358 0.0
H1210 H 0.98061 0.34613 0.90579 0.0
C1211 C 0.01682 0.36283 0.84512 0.0
C1212 C 0.85078 0.769 0.1022 0.0
C1213 C 0.87231 0.74867 0.10357 0.0
H1214 H 0.8368 0.81064 0.11341 0.0
C1215 C 0.8966 0.75488 0.11953 0.0
H1216 H 0.83166 0.76467 0.09037 0.0
C1217 C 0.89979 0.78168 0.13268 0.0
C1218 C 0.87853 0.80242 0.13038 0.0
H1219 H 0.91353 0.73952 0.12088 0.0
H1220 H 0.91909 0.78635 0.14405 0.0
C1221 C 0.85376 0.79541 0.11555 0.0
C1222 C 0.45936 0.64124 0.35355 0.0
C1223 C 0.45533 0.65103 0.3817 0.0
H1224 H 0.4892 0.62789 0.32172 0.0
C1225 C 0.47892 0.65638 0.39892 0.0
H1226 H 0.44153 0.63706 0.33976 0.0
C1227 C 0.50584 0.65081 0.38882 0.0
C1228 C 0.50995 0.64024 0.36107 0.0
H1229 H 0.47661 0.66402 0.42066 0.0
H1230 H 0.5235 0.65438 0.40301 0.0
C1231 C 0.48656 0.63614 0.34318 0.0
C1232 C 0.88812 0.61016 0.79074 0.0
C1233 C 0.85917 0.60457 0.79304 0.0
H1234 H 0.92308 0.61755 0.76273 0.0
C1235 C 0.84316 0.60179 0.768 0.0
H1236 H 0.90105 0.61231 0.80967 0.0
C1237 C 0.85568 0.60532 0.74121 0.0
C1238 C 0.88459 0.61105 0.7389 0.0
H1239 H 0.82083 0.59748 0.76912 0.0
H1240 H 0.8427 0.60359 0.72226 0.0
C1241 C 0.90079 0.61303 0.76389 0.0
C1242 C 0.65155 0.62219 0.04037 0.0
C1243 C 0.63316 0.62848 0.06303 0.0
H1244 H 0.66248 0.62997 0.99654 0.0
C1245 C 0.61101 0.64767 0.05825 0.0
H1246 H 0.66878 0.60742 0.04333 0.0
C1247 C 0.60757 0.66064 0.03169 0.0
C1248 C 0.62601 0.6546 0.00907 0.0
H1249 H 0.59645 0.65307 0.07517 0.0
H1250 H 0.59037 0.67549 0.02893 0.0
C1251 C 0.64789 0.63499 0.01355 0.0
C1252 C 0.63811 0.35812 0.25728 0.0
C1253 C 0.61851 0.37787 0.24671 0.0
H1254 H 0.6619 0.34386 0.2935 0.0
C1255 C 0.60912 0.40002 0.26453 0.0
H1256 H 0.64558 0.3408 0.24394 0.0
C1257 C 0.61929 0.40237 0.29255 0.0
C1258 C 0.63817 0.382 0.30335 0.0
H1259 H 0.59411 0.41555 0.25674 0.0
H1260 H 0.61166 0.41946 0.3061 0.0
C1261 C 0.64746 0.35986 0.28553 0.0
C1262 C 0.89327 0.34703 0.55859 0.0
C1263 C 0.87076 0.36567 0.56378 0.0
H1264 H 0.91538 0.32162 0.52825 0.0
C1265 C 0.85312 0.37331 0.54089 0.0
H1266 H 0.90728 0.34065 0.57567 0.0
C1267 C 0.85797 0.36251 0.51341 0.0
C1268 C 0.88033 0.3436 0.50843 0.0
H1269 H 0.83566 0.38774 0.54415 0.0
H1270 H 0.84395 0.36859 0.49622 0.0
C1271 C 0.89791 0.33605 0.53134 0.0
C1272 C 0.88198 0.38427 0.74702 0.0
C1273 C 0.86568 0.39593 0.76912 0.0
H1274 H 0.88576 0.37658 0.70207 0.0
C1275 C 0.8407 0.41034 0.76206 0.0
H1276 H 0.90131 0.37308 0.75168 0.0
C1277 C 0.83186 0.41245 0.73369 0.0
C1278 C 0.84772 0.40008 0.71173 0.0
H1279 H 0.82772 0.41983 0.77851 0.0
H1280 H 0.81235 0.42334 0.72903 0.0
C1281 C 0.87301 0.38624 0.7186 0.0
C1282 C 0.88108 0.6462 0.95215 0.0
C1283 C 0.87023 0.61923 0.94496 0.0
H1284 H 0.89251 0.67508 0.9856 0.0
C1285 C 0.86267 0.60002 0.96679 0.0
H1286 H 0.88697 0.66136 0.93565 0.0
C1287 C 0.86666 0.60756 0.99553 0.0
C1288 C 0.87735 0.63471 0.00257 0.0
H1289 H 0.85439 0.57902 0.96161 0.0
H1290 H 0.86106 0.59245 0.01216 0.0
C1291 C 0.8842 0.65402 0.98067 0.0
C1292 C 0.62099 0.61012 0.24528 0.0
C1293 C 0.63751 0.59929 0.26766 0.0
H1294 H 0.61701 0.61659 0.20016 0.0
C1295 C 0.66253 0.5848 0.26095 0.0
H1296 H 0.60163 0.62136 0.24969 0.0
C1297 C 0.67128 0.58199 0.23262 0.0
C1298 C 0.6553 0.59372 0.21038 0.0
H1299 H 0.67566 0.57593 0.27764 0.0
H1300 H 0.69088 0.57117 0.22823 0.0
C1301 C 0.62987 0.60745 0.21692 0.0
C1302 C 0.6313 0.34727 0.48454 0.0
C1303 C 0.63004 0.36414 0.50934 0.0
H1304 H 0.63837 0.34617 0.4394 0.0
C1305 C 0.63612 0.3935 0.50758 0.0
H1306 H 0.62672 0.32455 0.48534 0.0
C1307 C 0.64334 0.40577 0.48132 0.0
C1308 C 0.64399 0.38896 0.45642 0.0
H1309 H 0.63548 0.40689 0.52647 0.0
H1310 H 0.64786 0.4285 0.48042 0.0
C1311 C 0.63793 0.35962 0.45826 0.0
C1312 C 0.76575 0.89268 0.61826 0.0
C1313 C 0.74214 0.87464 0.61647 0.0
H1314 H 0.81075 0.89576 0.61568 0.0
C1315 C 0.74589 0.84573 0.60929 0.0
H1316 H 0.7634 0.91503 0.62389 0.0
C1317 C 0.77264 0.83491 0.60421 0.0
C1318 C 0.79638 0.85259 0.60676 0.0
H1319 H 0.72807 0.83135 0.60762 0.0
H1320 H 0.77473 0.81247 0.59881 0.0
C1321 C 0.79277 0.88163 0.61376 0.0
C1322 C 0.2642 0.60732 0.39865 0.0
C1323 C 0.24655 0.61647 0.37644 0.0
H1324 H 0.3057 0.60887 0.41667 0.0
C1325 C 0.25755 0.63397 0.35471 0.0
H1326 H 0.25615 0.5938 0.4156 0.0
C1327 C 0.28585 0.64173 0.3548 0.0
C1328 C 0.30348 0.63291 0.37711 0.0
H1329 H 0.2444 0.64111 0.33722 0.0
H1330 H 0.29389 0.65494 0.33759 0.0
C1331 C 0.2924 0.61595 0.39926 0.0
C1332 C 0.62399 0.02536 0.63343 0.0
C1333 C 0.59917 0.03293 0.6478 0.0
H1334 H 0.65156 0.99132 0.62077 0.0
C1335 C 0.5837 0.0116 0.66184 0.0
H1336 H 0.63644 0.04146 0.62256 0.0
C1337 C 0.59231 0.98318 0.6609 0.0
C1338 C 0.61666 0.97525 0.64587 0.0
H1339 H 0.56465 0.01674 0.67334 0.0
H1340 H 0.57955 0.96733 0.67177 0.0
C1341 C 0.63272 0.99671 0.63251 0.0
C1342 C 0.21033 0.39377 0.89797 0.0
C1343 C 0.19832 0.37782 0.87555 0.0
H1344 H 0.24768 0.41391 0.91443 0.0
C1345 C 0.21513 0.36945 0.85246 0.0
H1346 H 0.19768 0.40043 0.91601 0.0
C1347 C 0.24363 0.37625 0.85208 0.0
C1348 C 0.25565 0.39234 0.87432 0.0
H1349 H 0.20639 0.35695 0.83506 0.0
H1350 H 0.25625 0.36917 0.83418 0.0
C1351 C 0.23876 0.40148 0.89708 0.0
C1352 C 0.41201 0.47776 0.64425 0.0
C1353 C 0.39542 0.45313 0.64093 0.0
H1354 H 0.41384 0.5235 0.64194 0.0
C1355 C 0.36674 0.45615 0.63431 0.0
H1356 H 0.43412 0.47609 0.64938 0.0
C1357 C 0.35497 0.48329 0.63073 0.0
C1358 C 0.37183 0.50782 0.63299 0.0
H1359 H 0.35337 0.43756 0.63168 0.0
H1360 H 0.33296 0.485 0.62516 0.0
C1361 C 0.40039 0.50485 0.63999 0.0
C1362 C 0.75483 0.1441 0.07777 0.0
C1363 C 0.76358 0.12346 0.09771 0.0
H1364 H 0.72116 0.16863 0.06066 0.0
C1365 C 0.74307 0.10949 0.11438 0.0
H1366 H 0.76989 0.15494 0.06417 0.0
C1367 C 0.71462 0.11747 0.11228 0.0
C1368 C 0.70643 0.13949 0.09351 0.0
H1369 H 0.74914 0.09347 0.12991 0.0
H1370 H 0.69934 0.10736 0.12615 0.0
C1371 C 0.72677 0.152 0.07574 0.0
C1372 C 0.63635 0.9926 0.88223 0.0
C1373 C 0.6215 0.01069 0.86365 0.0
H1374 H 0.64153 0.94998 0.8983 0.0
C1375 C 0.60034 -0.00105 0.84622 0.0
H1376 H 0.6527 0.00108 0.89597 0.0
C1377 C 0.59424 0.96972 0.84723 0.0
C1378 C 0.60876 0.95166 0.86611 0.0
H1379 H 0.58865 0.01233 0.83156 0.0
H1380 H 0.57787 0.96133 0.83345 0.0
C1381 C 0.62984 0.96341 0.88367 0.0
C1382 C 0.86769 0.0432 0.3436 0.0
C1383 C 0.8866 0.05468 0.36362 0.0
H1384 H 0.84237 0.0069 0.33171 0.0
C1385 C 0.89592 0.03764 0.38637 0.0
H1386 H 0.86009 0.05616 0.32603 0.0
C1387 C 0.88644 0.00953 0.38919 0.0
C1388 C 0.86675 -0.00172 0.36984 0.0
H1389 H 0.91047 0.04615 0.40207 0.0
H1390 H 0.89388 0.99686 0.40704 0.0
C1391 C 0.85744 0.01526 0.34697 0.0
C1392 C 0.39851 0.24916 0.14338 0.0
C1393 C 0.39248 0.25304 0.11426 0.0
H1394 H 0.40848 0.21959 0.17675 0.0
C1395 C 0.39256 0.22918 0.09596 0.0
H1396 H 0.39877 0.26721 0.15793 0.0
C1397 C 0.39763 0.20176 0.10686 0.0
C1398 C 0.40334 0.19792 0.13608 0.0
H1399 H 0.38795 0.23161 0.07341 0.0
H1400 H 0.39694 0.18359 0.09249 0.0
C1401 C 0.4042 0.22192 0.15412 0.0
C1402 C 0.53782 0.63841 0.90446 0.0
C1403 C 0.54949 0.6633 0.89256 0.0
H1404 H 0.50171 0.61087 0.90654 0.0
C1405 C 0.53526 0.67739 0.87036 0.0
H1406 H 0.54831 0.6275 0.92187 0.0
C1407 C 0.5091 0.66738 0.86099 0.0
C1408 C 0.49648 0.64376 0.87439 0.0
H1409 H 0.54386 0.69679 0.86112 0.0
H1410 H 0.49787 0.67931 0.84477 0.0
C1411 C 0.51125 0.62898 0.89576 0.0
C1412 C 0.11089 0.74689 0.64657 0.0
C1413 C 0.11686 0.74427 0.6173 0.0
H1414 H 0.09924 0.77474 0.68083 0.0
C1415 C 0.1155 0.76867 0.5998 0.0
H1416 H 0.11161 0.72838 0.66051 0.0
C1417 C 0.10897 0.79541 0.61158 0.0
C1418 C 0.10298 0.79794 0.64087 0.0
H1419 H 0.12005 0.76721 0.57716 0.0
H1420 H 0.10847 0.81402 0.59778 0.0
C1421 C 0.10368 0.77338 0.65816 0.0
C1422 C 0.99735 0.37433 0.39762 0.0
C1423 C 0.0114 0.36084 0.37492 0.0
H1424 H 0.96021 0.37561 0.42351 0.0
C1425 C 0.99695 0.34062 0.35824 0.0
H1426 H 0.00814 0.38995 0.4108 0.0
C1427 C 0.9698 0.33201 0.36591 0.0
C1428 C 0.95647 0.34425 0.38971 0.0
H1429 H 0.00745 0.32974 0.34084 0.0
H1430 H 0.95991 0.31456 0.35439 0.0
C1431 C 0.96992 0.36633 0.40474 0.0
C1432 C 0.3618 0.78689 0.3508 0.0
C1433 C 0.38159 0.80338 0.36578 0.0
H1434 H 0.34735 0.74455 0.34041 0.0
C1435 C 0.401 0.78977 0.38379 0.0
H1436 H 0.34691 0.797 0.33651 0.0
C1437 C 0.4007 0.75998 0.38666 0.0
C1438 C 0.38171 0.74344 0.3707 0.0
H1439 H 0.41657 0.80216 0.39535 0.0
H1440 H 0.416 0.7498 0.40042 0.0
C1441 C 0.36217 0.75704 0.35286 0.0
C1442 C 0.00578 0.63911 0.10316 0.0
C1443 C 0.00948 0.63212 0.13208 0.0
H1444 H 0.97735 0.6518 0.0703 0.0
C1445 C 0.98631 0.63325 0.15063 0.0
H1446 H 0.0233 0.63856 0.08842 0.0
C1447 C 0.95962 0.64031 0.14005 0.0
C1448 C 0.95599 0.64705 0.11099 0.0
H1449 H 0.98866 0.62782 0.17301 0.0
H1450 H 0.94189 0.64041 0.15453 0.0
C1451 C 0.97944 0.6468 0.09281 0.0
C1452 C 0.13688 0.24823 0.88294 0.0
C1453 C 0.11904 0.26483 0.8657 0.0
H1454 H 0.1513 0.20616 0.89369 0.0
C1455 C 0.10159 0.25105 0.84574 0.0
H1456 H 0.15061 0.25828 0.89848 0.0
C1457 C 0.10167 0.22128 0.84334 0.0
C1458 C 0.11956 0.20464 0.86047 0.0
H1459 H 0.08749 0.26323 0.83228 0.0
H1460 H 0.08781 0.21132 0.82785 0.0
C1461 C 0.13735 0.21842 0.88014 0.0
C1462 C 0.54183 0.34618 0.64115 0.0
C1463 C 0.54599 0.33906 0.61225 0.0
H1464 H 0.51227 0.35907 0.67337 0.0
C1465 C 0.52274 0.33877 0.59372 0.0
H1466 H 0.55935 0.34657 0.65592 0.0
C1467 C 0.49615 0.34635 0.60351 0.0
C1468 C 0.49196 0.35391 0.63221 0.0
H1469 H 0.52517 0.33345 0.57132 0.0
H1470 H 0.47884 0.34648 0.58846 0.0
C1471 C 0.51493 0.35325 0.65113 0.0
C1472 C 0.10473 0.37779 0.23189 0.0
C1473 C 0.12088 0.38243 0.25659 0.0
H1474 H 0.10451 0.37529 0.18609 0.0
C1475 C 0.1494 0.38956 0.25384 0.0
H1476 H 0.08275 0.37204 0.23351 0.0
C1477 C 0.16169 0.39176 0.22691 0.0
C1478 C 0.14586 0.38633 0.20219 0.0
H1479 H 0.16231 0.39328 0.27257 0.0
H1480 H 0.18377 0.39722 0.22551 0.0
C1481 C 0.11723 0.37942 0.20484 0.0
C1482 C 0.38272 0.35993 0.95835 0.0
C1483 C 0.36428 0.37994 0.94618 0.0
H1484 H 0.39766 0.34017 0.99689 0.0
C1485 C 0.34615 0.39531 0.96421 0.0
H1486 H 0.39689 0.34775 0.945 0.0
C1487 C 0.347 0.39144 0.99378 0.0
C1488 C 0.36556 0.37164 0.006 0.0
H1489 H 0.33178 0.41102 0.95556 0.0
H1490 H 0.33313 0.40401 0.0071 0.0
C1491 C 0.38309 0.35554 0.988 0.0
C1492 C 0.36136 0.60313 0.71403 0.0
C1493 C 0.37782 0.6148 0.692 0.0
H1494 H 0.35755 0.59535 0.75905 0.0
C1495 C 0.4046 0.62572 0.6985 0.0
H1496 H 0.34068 0.59451 0.70955 0.0
C1497 C 0.41463 0.62527 0.72661 0.0
C1498 C 0.39769 0.61468 0.74878 0.0
H1499 H 0.41781 0.63456 0.68182 0.0
H1500 H 0.43514 0.63427 0.73117 0.0
C1501 C 0.37102 0.60353 0.74226 0.0
C1502 C 0.15573 0.64082 0.48827 0.0
C1503 C 0.13525 0.62778 0.50547 0.0
H1504 H 0.17213 0.64593 0.44581 0.0
C1505 C 0.11393 0.61144 0.49265 0.0
H1506 H 0.1724 0.65342 0.49785 0.0
C1507 C 0.11318 0.60798 0.46295 0.0
C1508 C 0.1343 0.62004 0.44576 0.0
H1509 H 0.09796 0.60121 0.50564 0.0
H1510 H 0.09679 0.59487 0.45356 0.0
C1511 C 0.15555 0.63655 0.45864 0.0
C1512 C 0.15402 0.57781 0.24202 0.0
C1513 C 0.1316 0.59495 0.23279 0.0
H1514 H 0.17938 0.56385 0.27677 0.0
C1515 C 0.1163 0.61053 0.25326 0.0
H1516 H 0.16603 0.56515 0.22701 0.0
C1517 C 0.1241 0.60978 0.28222 0.0
C1518 C 0.14721 0.59334 0.29104 0.0
H1519 H 0.09884 0.62385 0.24682 0.0
H1520 H 0.11252 0.6225 0.29751 0.0
C1521 C 0.16167 0.577 0.27069 0.0
C1522 C 0.15837 0.3629 0.03362 0.0
C1523 C 0.13712 0.37828 0.04752 0.0
H1524 H 0.17228 0.34417 0.99423 0.0
C1525 C 0.11428 0.38859 0.03166 0.0
H1526 H 0.17614 0.35474 0.04553 0.0
C1527 C 0.11259 0.38344 0.0023 0.0
C1528 C 0.1332 0.36704 0.98861 0.0
H1529 H 0.09776 0.40064 0.042 0.0
H1530 H 0.09461 0.39134 0.99053 0.0
C1531 C 0.15615 0.35685 0.00443 0.0
C1532 C 0.34706 0.42357 0.77035 0.0
C1533 C 0.35853 0.40533 0.79109 0.0
H1534 H 0.34474 0.43493 0.72633 0.0
C1535 C 0.37912 0.38547 0.78294 0.0
H1536 H 0.33149 0.43944 0.77598 0.0
C1537 C 0.38688 0.3829 0.7541 0.0
C1538 C 0.37399 0.40009 0.7332 0.0
H1539 H 0.3884 0.37126 0.79859 0.0
H1540 H 0.40194 0.36669 0.74804 0.0
C1541 C 0.35465 0.42097 0.74181 0.0
C1542 C 0.36827 0.64873 0.50954 0.0
C1543 C 0.36868 0.63056 0.48562 0.0
H1544 H 0.36352 0.65195 0.55503 0.0
C1545 C 0.36343 0.60121 0.48932 0.0
H1546 H 0.37229 0.67145 0.50723 0.0
C1547 C 0.35782 0.59021 0.51649 0.0
C1548 C 0.35804 0.60825 0.54051 0.0
H1549 H 0.36345 0.58677 0.4712 0.0
H1550 H 0.35388 0.56747 0.51875 0.0
C1551 C 0.36333 0.6376 0.53684 0.0
C1552 C 0.20751 0.10765 0.39726 0.0
C1553 C 0.20446 0.1366 0.40494 0.0
H1554 H 0.23584 0.07453 0.38363 0.0
C1555 C 0.22839 0.15425 0.4055 0.0
H1556 H 0.18943 0.09353 0.39667 0.0
C1557 C 0.25455 0.1436 0.39762 0.0
C1558 C 0.25765 0.11488 0.38947 0.0
H1559 H 0.22684 0.17665 0.41127 0.0
H1560 H 0.27241 0.15804 0.39775 0.0
C1561 C 0.23401 0.09677 0.38988 0.0
C1562 C 0.7393 0.36129 0.62732 0.0
C1563 C 0.75461 0.3815 0.61134 0.0
H1564 H 0.70286 0.3341 0.62921 0.0
C1565 C 0.74372 0.39112 0.58518 0.0
H1566 H 0.74724 0.35363 0.64763 0.0
C1567 C 0.71879 0.37943 0.57438 0.0
C1568 C 0.70386 0.35869 0.59003 0.0
H1569 H 0.75517 0.40659 0.57242 0.0
H1570 H 0.71147 0.3861 0.55349 0.0
C1571 C 0.71387 0.35029 0.61694 0.0
C1572 C 0.37429 0.96521 0.3634 0.0
C1573 C 0.39884 0.95775 0.34854 0.0
H1574 H 0.34693 -0.00077 0.37655 0.0
C1575 C 0.41375 0.97908 0.33383 0.0
H1576 H 0.36229 0.9491 0.37477 0.0
C1577 C 0.40505 0.00742 0.33475 0.0
C1578 C 0.38115 0.01529 0.35044 0.0
H1579 H 0.43256 0.97403 0.32187 0.0
H1580 H 0.41744 0.02327 0.32345 0.0
C1581 C 0.36546 0.99383 0.36431 0.0
C1582 C 0.78218 0.61338 0.07059 0.0
C1583 C 0.79841 0.63272 0.08663 0.0
H1584 H 0.74488 0.58753 0.06892 0.0
C1585 C 0.78973 0.64022 0.11428 0.0
H1586 H 0.78849 0.60746 0.04914 0.0
C1587 C 0.76438 0.62967 0.12515 0.0
C1588 C 0.74789 0.61071 0.1089 0.0
H1589 H 0.8018 0.65537 0.12686 0.0
H1590 H 0.75749 0.63659 0.1461 0.0
C1591 C 0.75735 0.60202 0.08187 0.0
C1592 C 0.59436 0.52146 0.35484 0.0
C1593 C 0.61057 0.54626 0.35884 0.0
H1594 H 0.59285 0.4758 0.35639 0.0
C1595 C 0.63898 0.54366 0.36653 0.0
H1596 H 0.57244 0.52281 0.34882 0.0
C1597 C 0.65088 0.51655 0.37033 0.0
C1598 C 0.63433 0.49183 0.36706 0.0
H1599 H 0.65197 0.56249 0.36955 0.0
H1600 H 0.67271 0.51496 0.3766 0.0
C1601 C 0.60605 0.49454 0.35916 0.0
C1602 C 0.23953 0.83806 0.90658 0.0
C1603 C 0.2325 0.86519 0.89579 0.0
H1604 H 0.27163 0.80873 0.91789 0.0
C1605 C 0.25436 0.88417 0.88829 0.0
H1606 H 0.22348 0.82282 0.91282 0.0
C1607 C 0.28259 0.87587 0.89126 0.0
C1608 C 0.28929 0.84854 0.90185 0.0
H1609 H 0.24968 0.90524 0.87993 0.0
H1610 H 0.29906 0.8907 0.88521 0.0
C1611 C 0.26738 0.82991 0.90955 0.0
C1612 C 0.38702 0.99568 0.1399 0.0
C1613 C 0.36095 0.98918 0.12745 0.0
H1614 H 0.41677 0.02849 0.1508 0.0
C1615 C 0.34463 0.01136 0.11599 0.0
H1616 H 0.39995 0.97888 0.14885 0.0
C1617 C 0.35467 0.03954 0.11621 0.0
C1618 C 0.38073 0.04605 0.12875 0.0
H1619 H 0.32455 0.00678 0.10608 0.0
H1620 H 0.34198 0.05629 0.10681 0.0
C1621 C 0.39661 0.02397 0.14101 0.0
C1622 C 0.09617 0.97026 0.65874 0.0
C1623 C 0.10937 0.9526 0.63852 0.0
H1624 H 0.09129 0.01258 0.67538 0.0
C1625 C 0.12867 0.96487 0.61934 0.0
H1626 H 0.08114 0.9615 0.67378 0.0
C1627 C 0.1348 0.99417 0.62053 0.0
C1628 C 0.12133 0.01183 0.64057 0.0
H1629 H 0.13928 0.9518 0.6036 0.0
H1630 H 0.14981 0.00303 0.60553 0.0
C1631 C 0.1019 -0.00043 0.65959 0.0
loop_
_geom_bond_atom_site_label_1
_geom_bond_atom_site_label_2
_geom_bond_distance
_geom_bond_site_symmetry_2
_ccdc_geom_bond_type
Co0 O1 2.216 . S
Co0 O2 2.091 . S
Co0 O4 2.004 . S
Co0 O10 2.021 . S
Co0 O12 2.137 . S
Co0 O13 2.244 . S
O1 Co0 2.216 . S
O1 C8 1.247 . S
O2 Co0 2.091 . S
O2 C8 1.261 . S
C3 O12 1.247 . S
C3 O13 1.272 . S
O4 Co0 2.004 . S
O4 C9 1.259 . S
Co5 O6 2.061 . S
Co5 O11 2.052 . S
Co5 O13 2.135 . S
O6 Co5 2.061 . S
O6 C9 1.235 . S
C7 O10 1.238 . S
C7 O11 1.241 . S
C8 O1 1.247 . S
C8 O2 1.261 . S
C9 O4 1.259 . S
C9 O6 1.235 . S
O10 Co0 2.021 . S
O10 C7 1.238 . S
O11 Co5 2.052 . S
O11 C7 1.241 . S
O12 Co0 2.137 . S
O12 C3 1.247 . S
O13 Co0 2.244 . S
O13 C3 1.272 . S
O13 Co5 2.135 . S
Co14 O15 2.216 . S
Co14 O16 2.091 . S
Co14 O18 2.004 . S
Co14 O24 2.021 . S
Co14 O26 2.137 . S
Co14 O27 2.244 . S
O15 Co14 2.216 . S
O15 C22 1.247 . S
O16 Co14 2.091 . S
O16 C22 1.261 . S
C17 O26 1.247 . S
C17 O27 1.272 . S
O18 Co14 2.004 . S
O18 C23 1.259 . S
Co19 O20 2.061 . S
Co19 O25 2.052 . S
Co19 O27 2.135 . S
O20 Co19 2.061 . S
O20 C23 1.235 . S
C21 O24 1.238 . S
C21 O25 1.241 . S
C22 O15 1.247 . S
C22 O16 1.261 . S
C23 O18 1.259 . S
C23 O20 1.235 . S
O24 Co14 2.021 . S
O24 C21 1.238 . S
O25 Co19 2.052 . S
O25 C21 1.241 . S
O26 Co14 2.137 . S
O26 C17 1.247 . S
O27 Co14 2.244 . S
O27 C17 1.272 . S
O27 Co19 2.135 . S
Co28 O29 2.216 . S
Co28 O30 2.091 . S
Co28 O32 2.004 . S
Co28 O38 2.021 . S
Co28 O40 2.137 . S
Co28 O41 2.244 . S
O29 Co28 2.216 . S
O29 C36 1.247 . S
O30 Co28 2.091 . S
O30 C36 1.261 . S
C31 O40 1.247 . S
C31 O41 1.272 . S
O32 Co28 2.004 . S
O32 C37 1.259 . S
Co33 O34 2.061 . S
Co33 O39 2.052 . S
Co33 O41 2.135 . S
O34 Co33 2.061 . S
O34 C37 1.235 . S
C35 O38 1.238 . S
C35 O39 1.241 . S
C36 O29 1.247 . S
C36 O30 1.261 . S
C37 O32 1.259 . S
C37 O34 1.235 . S
O38 Co28 2.021 . S
O38 C35 1.238 . S
O39 Co33 2.052 . S
O39 C35 1.241 . S
O40 Co28 2.137 . S
O40 C31 1.247 . S
O41 Co28 2.244 . S
O41 C31 1.272 . S
O41 Co33 2.135 . S
Co42 O43 2.216 . S
Co42 O44 2.091 . S
Co42 O46 2.004 . S
Co42 O52 2.021 . S
Co42 O54 2.137 . S
Co42 O55 2.244 . S
O43 Co42 2.216 . S
O43 C50 1.247 . S
O44 Co42 2.091 . S
O44 C50 1.261 . S
C45 O54 1.247 . S
C45 O55 1.272 . S
O46 Co42 2.004 . S
O46 C51 1.259 . S
Co47 O48 2.061 . S
Co47 O53 2.052 . S
Co47 O55 2.135 . S
O48 Co47 2.061 . S
O48 C51 1.235 . S
C49 O52 1.238 . S
C49 O53 1.241 . S
C50 O43 1.247 . S
C50 O44 1.261 . S
C51 O46 1.259 . S
C51 O48 1.235 . S
O52 Co42 2.021 . S
O52 C49 1.238 . S
O53 Co47 2.052 . S
O53 C49 1.241 . S
O54 Co42 2.137 . S
O54 C45 1.247 . S
O55 Co42 2.244 . S
O55 C45 1.272 . S
O55 Co47 2.135 . S
Co56 O57 2.216 . S
Co56 O58 2.091 . S
Co56 O60 2.004 . S
Co56 O66 2.021 . S
Co56 O68 2.137 . S
Co56 O69 2.244 . S
O57 Co56 2.216 . S
O57 C64 1.247 . S
O58 Co56 2.091 . S
O58 C64 1.261 . S
C59 O68 1.247 . S
C59 O69 1.272 . S
O60 Co56 2.004 . S
O60 C65 1.259 . S
Co61 O62 2.061 . S
Co61 O67 2.052 . S
Co61 O69 2.135 . S
O62 Co61 2.061 . S
O62 C65 1.235 . S
C63 O66 1.238 . S
C63 O67 1.241 . S
C64 O57 1.247 . S
C64 O58 1.261 . S
C65 O60 1.259 . S
C65 O62 1.235 . S
O66 Co56 2.021 . S
O66 C63 1.238 . S
O67 Co61 2.052 . S
O67 C63 1.241 . S
O68 Co56 2.137 . S
O68 C59 1.247 . S
O69 Co56 2.244 . S
O69 C59 1.272 . S
O69 Co61 2.135 . S
Co70 O71 2.216 . S
Co70 O72 2.091 . S
Co70 O74 2.004 . S
Co70 O80 2.021 . S
Co70 O82 2.137 . S
Co70 O83 2.244 . S
O71 Co70 2.216 . S
O71 C78 1.247 . S
O72 Co70 2.091 . S
O72 C78 1.261 . S
C73 O82 1.247 . S
C73 O83 1.272 . S
O74 Co70 2.004 . S
O74 C79 1.259 . S
Co75 O76 2.061 . S
Co75 O81 2.052 . S
Co75 O83 2.135 . S
O76 Co75 2.061 . S
O76 C79 1.235 . S
C77 O80 1.238 . S
C77 O81 1.241 . S
C78 O71 1.247 . S
C78 O72 1.261 . S
C79 O74 1.259 . S
C79 O76 1.235 . S
O80 Co70 2.021 . S
O80 C77 1.238 . S
O81 Co75 2.052 . S
O81 C77 1.241 . S
O82 Co70 2.137 . S
O82 C73 1.247 . S
O83 Co70 2.244 . S
O83 C73 1.272 . S
O83 Co75 2.135 . S
Co84 O85 2.216 . S
Co84 O86 2.091 . S
Co84 O88 2.004 . S
Co84 O94 2.021 . S
Co84 O96 2.137 . S
Co84 O97 2.244 . S
O85 Co84 2.216 . S
O85 C92 1.247 . S
O86 Co84 2.091 . S
O86 C92 1.261 . S
C87 O96 1.247 . S
C87 O97 1.272 . S
O88 Co84 2.004 . S
O88 C93 1.259 . S
Co89 O90 2.061 . S
Co89 O95 2.052 . S
Co89 O97 2.135 . S
O90 Co89 2.061 . S
O90 C93 1.235 . S
C91 O94 1.238 . S
C91 O95 1.241 . S
C92 O85 1.247 . S
C92 O86 1.261 . S
C93 O88 1.259 . S
C93 O90 1.235 . S
O94 Co84 2.021 . S
O94 C91 1.238 . S
O95 Co89 2.052 . S
O95 C91 1.241 . S
O96 Co84 2.137 . S
O96 C87 1.247 . S
O97 Co84 2.244 . S
O97 C87 1.272 . S
O97 Co89 2.135 . S
Co98 O99 2.216 . S
Co98 O100 2.091 . S
Co98 O102 2.004 . S
Co98 O108 2.021 . S
Co98 O110 2.137 . S
Co98 O111 2.244 . S
O99 Co98 2.216 . S
O99 C106 1.247 . S
O100 Co98 2.091 . S
O100 C106 1.261 . S
C101 O110 1.247 . S
C101 O111 1.272 . S
O102 Co98 2.004 . S
O102 C107 1.259 . S
Co103 O104 2.061 . S
Co103 O109 2.052 . S
Co103 O111 2.135 . S
O104 Co103 2.061 . S
O104 C107 1.235 . S
C105 O108 1.238 . S
C105 O109 1.241 . S
C106 O99 1.247 . S
C106 O100 1.261 . S
C107 O102 1.259 . S
C107 O104 1.235 . S
O108 Co98 2.021 . S
O108 C105 1.238 . S
O109 Co103 2.052 . S
O109 C105 1.241 . S
O110 Co98 2.137 . S
O110 C101 1.247 . S
O111 Co98 2.244 . S
O111 C101 1.272 . S
O111 Co103 2.135 . S
Co112 O113 2.216 . S
Co112 O114 2.091 . S
Co112 O116 2.004 . S
Co112 O122 2.021 . S
Co112 O124 2.137 . S
Co112 O125 2.244 . S
O113 Co112 2.216 . S
O113 C120 1.247 . S
O114 Co112 2.091 . S
O114 C120 1.261 . S
C115 O124 1.247 . S
C115 O125 1.272 . S
O116 Co112 2.004 . S
O116 C121 1.259 . S
Co117 O118 2.061 . S
Co117 O123 2.052 . S
Co117 O125 2.135 . S
O118 Co117 2.061 . S
O118 C121 1.235 . S
C119 O122 1.238 . S
C119 O123 1.241 . S
C120 O113 1.247 . S
C120 O114 1.261 . S
C121 O116 1.259 . S
C121 O118 1.235 . S
O122 Co112 2.021 . S
O122 C119 1.238 . S
O123 Co117 2.052 . S
O123 C119 1.241 . S
O124 Co112 2.137 . S
O124 C115 1.247 . S
O125 Co112 2.244 . S
O125 C115 1.272 . S
O125 Co117 2.135 . S
Co126 O127 2.216 . S
Co126 O128 2.091 . S
Co126 O130 2.004 . S
Co126 O136 2.021 . S
Co126 O138 2.137 . S
Co126 O139 2.244 . S
O127 Co126 2.216 . S
O127 C134 1.247 . S
O128 Co126 2.091 . S
O128 C134 1.261 . S
C129 O138 1.247 . S
C129 O139 1.272 . S
O130 Co126 2.004 . S
O130 C135 1.259 . S
Co131 O132 2.061 . S
Co131 O137 2.052 . S
Co131 O139 2.135 . S
O132 Co131 2.061 . S
O132 C135 1.235 . S
C133 O136 1.238 . S
C133 O137 1.241 . S
C134 O127 1.247 . S
C134 O128 1.261 . S
C135 O130 1.259 . S
C135 O132 1.235 . S
O136 Co126 2.021 . S
O136 C133 1.238 . S
O137 Co131 2.052 . S
O137 C133 1.241 . S
O138 Co126 2.137 . S
O138 C129 1.247 . S
O139 Co126 2.244 . S
O139 C129 1.272 . S
O139 Co131 2.135 . S
Co140 O141 2.216 . S
Co140 O142 2.091 . S
Co140 O144 2.004 . S
Co140 O150 2.021 . S
Co140 O152 2.137 . S
Co140 O153 2.244 . S
O141 Co140 2.216 . S
O141 C148 1.247 . S
O142 Co140 2.091 . S
O142 C148 1.261 . S
C143 O152 1.247 . S
C143 O153 1.272 . S
O144 Co140 2.004 . S
O144 C149 1.259 . S
Co145 O146 2.061 . S
Co145 O151 2.052 . S
Co145 O153 2.135 . S
O146 Co145 2.061 . S
O146 C149 1.235 . S
C147 O150 1.238 . S
C147 O151 1.241 . S
C148 O141 1.247 . S
C148 O142 1.261 . S
C149 O144 1.259 . S
C149 O146 1.235 . S
O150 Co140 2.021 . S
O150 C147 1.238 . S
O151 Co145 2.052 . S
O151 C147 1.241 . S
O152 Co140 2.137 . S
O152 C143 1.247 . S
O153 Co140 2.244 . S
O153 C143 1.272 . S
O153 Co145 2.135 . S
Co154 O155 2.216 . S
Co154 O156 2.091 . S
Co154 O158 2.004 . S
Co154 O164 2.021 . S
Co154 O166 2.137 . S
Co154 O167 2.244 . S
O155 Co154 2.216 . S
O155 C162 1.247 . S
O156 Co154 2.091 . S
O156 C162 1.261 . S
C157 O166 1.247 . S
C157 O167 1.272 . S
O158 Co154 2.004 . S
O158 C163 1.259 . S
Co159 O160 2.061 . S
Co159 O165 2.052 . S
Co159 O167 2.135 . S
O160 Co159 2.061 . S
O160 C163 1.235 . S
C161 O164 1.238 . S
C161 O165 1.241 . S
C162 O155 1.247 . S
C162 O156 1.261 . S
C163 O158 1.259 . S
C163 O160 1.235 . S
O164 Co154 2.021 . S
O164 C161 1.238 . S
O165 Co159 2.052 . S
O165 C161 1.241 . S
O166 Co154 2.137 . S
O166 C157 1.247 . S
O167 Co154 2.244 . S
O167 C157 1.272 . S
O167 Co159 2.135 . S
Co168 O169 2.216 . S
Co168 O170 2.091 . S
Co168 O172 2.004 . S
Co168 O178 2.021 . S
Co168 O180 2.137 . S
Co168 O181 2.244 . S
O169 Co168 2.216 . S
O169 C176 1.247 . S
O170 Co168 2.091 . S
O170 C176 1.261 . S
C171 O180 1.247 . S
C171 O181 1.272 . S
O172 Co168 2.004 . S
O172 C177 1.259 . S
Co173 O174 2.061 . S
Co173 O179 2.052 . S
Co173 O181 2.135 . S
O174 Co173 2.061 . S
O174 C177 1.235 . S
C175 O178 1.238 . S
C175 O179 1.241 . S
C176 O169 1.247 . S
C176 O170 1.261 . S
C177 O172 1.259 . S
C177 O174 1.235 . S
O178 Co168 2.021 . S
O178 C175 1.238 . S
O179 Co173 2.052 . S
O179 C175 1.241 . S
O180 Co168 2.137 . S
O180 C171 1.247 . S
O181 Co168 2.244 . S
O181 C171 1.272 . S
O181 Co173 2.135 . S
Co182 O183 2.216 . S
Co182 O184 2.091 . S
Co182 O186 2.004 . S
Co182 O192 2.021 . S
Co182 O194 2.137 . S
Co182 O195 2.244 . S
O183 Co182 2.216 . S
O183 C190 1.247 . S
O184 Co182 2.091 . S
O184 C190 1.261 . S
C185 O194 1.247 . S
C185 O195 1.272 . S
O186 Co182 2.004 . S
O186 C191 1.259 . S
Co187 O188 2.061 . S
Co187 O193 2.052 . S
Co187 O195 2.135 . S
O188 Co187 2.061 . S
O188 C191 1.235 . S
C189 O192 1.238 . S
C189 O193 1.241 . S
C190 O183 1.247 . S
C190 O184 1.261 . S
C191 O186 1.259 . S
C191 O188 1.235 . S
O192 Co182 2.021 . S
O192 C189 1.238 . S
O193 Co187 2.052 . S
O193 C189 1.241 . S
O194 Co182 2.137 . S
O194 C185 1.247 . S
O195 Co182 2.244 . S
O195 C185 1.272 . S
O195 Co187 2.135 . S
Co196 O197 2.216 . S
Co196 O198 2.091 . S
Co196 O200 2.004 . S
Co196 O206 2.021 . S
Co196 O208 2.137 . S
Co196 O209 2.244 . S
O197 Co196 2.216 . S
O197 C204 1.247 . S
O198 Co196 2.091 . S
O198 C204 1.261 . S
C199 O208 1.247 . S
C199 O209 1.272 . S
O200 Co196 2.004 . S
O200 C205 1.259 . S
Co201 O202 2.061 . S
Co201 O207 2.052 . S
Co201 O209 2.135 . S
O202 Co201 2.061 . S
O202 C205 1.235 . S
C203 O206 1.238 . S
C203 O207 1.241 . S
C204 O197 1.247 . S
C204 O198 1.261 . S
C205 O200 1.259 . S
C205 O202 1.235 . S
O206 Co196 2.021 . S
O206 C203 1.238 . S
O207 Co201 2.052 . S
O207 C203 1.241 . S
O208 Co196 2.137 . S
O208 C199 1.247 . S
O209 Co196 2.244 . S
O209 C199 1.272 . S
O209 Co201 2.135 . S
Co210 O211 2.216 . S
Co210 O212 2.091 . S
Co210 O214 2.004 . S
Co210 O220 2.021 . S
Co210 O222 2.137 . S
Co210 O223 2.244 . S
O211 Co210 2.216 . S
O211 C218 1.247 . S
O212 Co210 2.091 . S
O212 C218 1.261 . S
C213 O222 1.247 . S
C213 O223 1.272 . S
O214 Co210 2.004 . S
O214 C219 1.259 . S
Co215 O216 2.061 . S
Co215 O221 2.052 . S
Co215 O223 2.135 . S
O216 Co215 2.061 . S
O216 C219 1.235 . S
C217 O220 1.238 . S
C217 O221 1.241 . S
C218 O211 1.247 . S
C218 O212 1.261 . S
C219 O214 1.259 . S
C219 O216 1.235 . S
O220 Co210 2.021 . S
O220 C217 1.238 . S
O221 Co215 2.052 . S
O221 C217 1.241 . S
O222 Co210 2.137 . S
O222 C213 1.247 . S
O223 Co210 2.244 . S
O223 C213 1.272 . S
O223 Co215 2.135 . S
Co224 O225 2.216 . S
Co224 O226 2.091 . S
Co224 O228 2.004 . S
Co224 O234 2.021 . S
Co224 O236 2.137 . S
Co224 O237 2.244 . S
O225 Co224 2.216 . S
O225 C232 1.247 . S
O226 Co224 2.091 . S
O226 C232 1.261 . S
C227 O236 1.247 . S
C227 O237 1.272 . S
O228 Co224 2.004 . S
O228 C233 1.259 . S
Co229 O230 2.061 . S
Co229 O235 2.052 . S
Co229 O237 2.135 . S
O230 Co229 2.061 . S
O230 C233 1.235 . S
C231 O234 1.238 . S
C231 O235 1.241 . S
C232 O225 1.247 . S
C232 O226 1.261 . S
C233 O228 1.259 . S
C233 O230 1.235 . S
O234 Co224 2.021 . S
O234 C231 1.238 . S
O235 Co229 2.052 . S
O235 C231 1.241 . S
O236 Co224 2.137 . S
O236 C227 1.247 . S
O237 Co224 2.244 . S
O237 C227 1.272 . S
O237 Co229 2.135 . S
Co238 O239 2.216 . S
Co238 O240 2.091 . S
Co238 O242 2.004 . S
Co238 O248 2.021 . S
Co238 O250 2.137 . S
Co238 O251 2.244 . S
O239 Co238 2.216 . S
O239 C246 1.247 . S
O240 Co238 2.091 . S
O240 C246 1.261 . S
C241 O250 1.247 . S
C241 O251 1.272 . S
O242 Co238 2.004 . S
O242 C247 1.259 . S
Co243 O244 2.061 . S
Co243 O249 2.052 . S
Co243 O251 2.135 . S
O244 Co243 2.061 . S
O244 C247 1.235 . S
C245 O248 1.238 . S
C245 O249 1.241 . S
C246 O239 1.247 . S
C246 O240 1.261 . S
C247 O242 1.259 . S
C247 O244 1.235 . S
O248 Co238 2.021 . S
O248 C245 1.238 . S
O249 Co243 2.052 . S
O249 C245 1.241 . S
O250 Co238 2.137 . S
O250 C241 1.247 . S
O251 Co238 2.244 . S
O251 C241 1.272 . S
O251 Co243 2.135 . S
Co252 O253 2.216 . S
Co252 O254 2.091 . S
Co252 O256 2.004 . S
Co252 O262 2.021 . S
Co252 O264 2.137 . S
Co252 O265 2.244 . S
O253 Co252 2.216 . S
O253 C260 1.247 . S
O254 Co252 2.091 . S
O254 C260 1.261 . S
C255 O264 1.247 . S
C255 O265 1.272 . S
O256 Co252 2.004 . S
O256 C261 1.259 . S
Co257 O258 2.061 . S
Co257 O263 2.052 . S
Co257 O265 2.135 . S
O258 Co257 2.061 . S
O258 C261 1.235 . S
C259 O262 1.238 . S
C259 O263 1.241 . S
C260 O253 1.247 . S
C260 O254 1.261 . S
C261 O256 1.259 . S
C261 O258 1.235 . S
O262 Co252 2.021 . S
O262 C259 1.238 . S
O263 Co257 2.052 . S
O263 C259 1.241 . S
O264 Co252 2.137 . S
O264 C255 1.247 . S
O265 Co252 2.244 . S
O265 C255 1.272 . S
O265 Co257 2.135 . S
Co266 O267 2.216 . S
Co266 O268 2.091 . S
Co266 O270 2.004 . S
Co266 O276 2.021 . S
Co266 O278 2.137 . S
Co266 O279 2.244 . S
O267 Co266 2.216 . S
O267 C274 1.247 . S
O268 Co266 2.091 . S
O268 C274 1.261 . S
C269 O278 1.247 . S
C269 O279 1.272 . S
O270 Co266 2.004 . S
O270 C275 1.259 . S
Co271 O272 2.061 . S
Co271 O277 2.052 . S
Co271 O279 2.135 . S
O272 Co271 2.061 . S
O272 C275 1.235 . S
C273 O276 1.238 . S
C273 O277 1.241 . S
C274 O267 1.247 . S
C274 O268 1.261 . S
C275 O270 1.259 . S
C275 O272 1.235 . S
O276 Co266 2.021 . S
O276 C273 1.238 . S
O277 Co271 2.052 . S
O277 C273 1.241 . S
O278 Co266 2.137 . S
O278 C269 1.247 . S
O279 Co266 2.244 . S
O279 C269 1.272 . S
O279 Co271 2.135 . S
Co280 O281 2.216 . S
Co280 O282 2.091 . S
Co280 O284 2.004 . S
Co280 O290 2.021 . S
Co280 O292 2.137 . S
Co280 O293 2.244 . S
O281 Co280 2.216 . S
O281 C288 1.247 . S
O282 Co280 2.091 . S
O282 C288 1.261 . S
C283 O292 1.247 . S
C283 O293 1.272 . S
O284 Co280 2.004 . S
O284 C289 1.259 . S
Co285 O286 2.061 . S
Co285 O291 2.052 . S
Co285 O293 2.135 . S
O286 Co285 2.061 . S
O286 C289 1.235 . S
C287 O290 1.238 . S
C287 O291 1.241 . S
C288 O281 1.247 . S
C288 O282 1.261 . S
C289 O284 1.259 . S
C289 O286 1.235 . S
O290 Co280 2.021 . S
O290 C287 1.238 . S
O291 Co285 2.052 . S
O291 C287 1.241 . S
O292 Co280 2.137 . S
O292 C283 1.247 . S
O293 Co280 2.244 . S
O293 C283 1.272 . S
O293 Co285 2.135 . S
Co294 O295 2.216 . S
Co294 O296 2.091 . S
Co294 O298 2.004 . S
Co294 O304 2.021 . S
Co294 O306 2.137 . S
Co294 O307 2.244 . S
O295 Co294 2.216 . S
O295 C302 1.247 . S
O296 Co294 2.091 . S
O296 C302 1.261 . S
C297 O306 1.247 . S
C297 O307 1.272 . S
O298 Co294 2.004 . S
O298 C303 1.259 . S
Co299 O300 2.061 . S
Co299 O305 2.052 . S
Co299 O307 2.135 . S
O300 Co299 2.061 . S
O300 C303 1.235 . S
C301 O304 1.238 . S
C301 O305 1.241 . S
C302 O295 1.247 . S
C302 O296 1.261 . S
C303 O298 1.259 . S
C303 O300 1.235 . S
O304 Co294 2.021 . S
O304 C301 1.238 . S
O305 Co299 2.052 . S
O305 C301 1.241 . S
O306 Co294 2.137 . S
O306 C297 1.247 . S
O307 Co294 2.244 . S
O307 C297 1.272 . S
O307 Co299 2.135 . S
Co308 O309 2.216 . S
Co308 O310 2.091 . S
Co308 O312 2.004 . S
Co308 O318 2.021 . S
Co308 O320 2.137 . S
Co308 O321 2.244 . S
O309 Co308 2.216 . S
O309 C316 1.247 . S
O310 Co308 2.091 . S
O310 C316 1.261 . S
C311 O320 1.247 . S
C311 O321 1.272 . S
O312 Co308 2.004 . S
O312 C317 1.259 . S
Co313 O314 2.061 . S
Co313 O319 2.052 . S
Co313 O321 2.135 . S
O314 Co313 2.061 . S
O314 C317 1.235 . S
C315 O318 1.238 . S
C315 O319 1.241 . S
C316 O309 1.247 . S
C316 O310 1.261 . S
C317 O312 1.259 . S
C317 O314 1.235 . S
O318 Co308 2.021 . S
O318 C315 1.238 . S
O319 Co313 2.052 . S
O319 C315 1.241 . S
O320 Co308 2.137 . S
O320 C311 1.247 . S
O321 Co308 2.244 . S
O321 C311 1.272 . S
O321 Co313 2.135 . S
Co322 O323 2.216 . S
Co322 O324 2.091 . S
Co322 O326 2.004 . S
Co322 O332 2.021 . S
Co322 O334 2.137 . S
Co322 O335 2.244 . S
O323 Co322 2.216 . S
O323 C330 1.247 . S
O324 Co322 2.091 . S
O324 C330 1.261 . S
C325 O334 1.247 . S
C325 O335 1.272 . S
O326 Co322 2.004 . S
O326 C331 1.259 . S
Co327 O328 2.061 . S
Co327 O333 2.052 . S
Co327 O335 2.135 . S
O328 Co327 2.061 . S
O328 C331 1.235 . S
C329 O332 1.238 . S
C329 O333 1.241 . S
C330 O323 1.247 . S
C330 O324 1.261 . S
C331 O326 1.259 . S
C331 O328 1.235 . S
O332 Co322 2.021 . S
O332 C329 1.238 . S
O333 Co327 2.052 . S
O333 C329 1.241 . S
O334 Co322 2.137 . S
O334 C325 1.247 . S
O335 Co322 2.244 . S
O335 C325 1.272 . S
O335 Co327 2.135 . S
Co336 O337 2.216 . S
Co336 O338 2.091 . S
Co336 O340 2.004 . S
Co336 O346 2.021 . S
Co336 O348 2.137 . S
Co336 O349 2.244 . S
O337 Co336 2.216 . S
O337 C344 1.247 . S
O338 Co336 2.091 . S
O338 C344 1.261 . S
C339 O348 1.247 . S
C339 O349 1.272 . S
O340 Co336 2.004 . S
O340 C345 1.259 . S
Co341 O342 2.061 . S
Co341 O347 2.052 . S
Co341 O349 2.135 . S
O342 Co341 2.061 . S
O342 C345 1.235 . S
C343 O346 1.238 . S
C343 O347 1.241 . S
C344 O337 1.247 . S
C344 O338 1.261 . S
C345 O340 1.259 . S
C345 O342 1.235 . S
O346 Co336 2.021 . S
O346 C343 1.238 . S
O347 Co341 2.052 . S
O347 C343 1.241 . S
O348 Co336 2.137 . S
O348 C339 1.247 . S
O349 Co336 2.244 . S
O349 C339 1.272 . S
O349 Co341 2.135 . S
Co350 O351 2.216 . S
Co350 O352 2.091 . S
Co350 O354 2.004 . S
Co350 O360 2.021 . S
Co350 O362 2.137 . S
Co350 O363 2.244 . S
O351 Co350 2.216 . S
O351 C358 1.247 . S
O352 Co350 2.091 . S
O352 C358 1.261 . S
C353 O362 1.247 . S
C353 O363 1.272 . S
O354 Co350 2.004 . S
O354 C359 1.259 . S
Co355 O356 2.061 . S
Co355 O361 2.052 . S
Co355 O363 2.135 . S
O356 Co355 2.061 . S
O356 C359 1.235 . S
C357 O360 1.238 . S
C357 O361 1.241 . S
C358 O351 1.247 . S
C358 O352 1.261 . S
C359 O354 1.259 . S
C359 O356 1.235 . S
O360 Co350 2.021 . S
O360 C357 1.238 . S
O361 Co355 2.052 . S
O361 C357 1.241 . S
O362 Co350 2.137 . S
O362 C353 1.247 . S
O363 Co350 2.244 . S
O363 C353 1.272 . S
O363 Co355 2.135 . S
Co364 O365 2.216 . S
Co364 O366 2.091 . S
Co364 O368 2.004 . S
Co364 O374 2.021 . S
Co364 O376 2.137 . S
Co364 O377 2.244 . S
O365 Co364 2.216 . S
O365 C372 1.247 . S
O366 Co364 2.091 . S
O366 C372 1.261 . S
C367 O376 1.247 . S
C367 O377 1.272 . S
O368 Co364 2.004 . S
O368 C373 1.259 . S
Co369 O370 2.061 . S
Co369 O375 2.052 . S
Co369 O377 2.135 . S
O370 Co369 2.061 . S
O370 C373 1.235 . S
C371 O374 1.238 . S
C371 O375 1.241 . S
C372 O365 1.247 . S
C372 O366 1.261 . S
C373 O368 1.259 . S
C373 O370 1.235 . S
O374 Co364 2.021 . S
O374 C371 1.238 . S
O375 Co369 2.052 . S
O375 C371 1.241 . S
O376 Co364 2.137 . S
O376 C367 1.247 . S
O377 Co364 2.244 . S
O377 C367 1.272 . S
O377 Co369 2.135 . S
Co378 O379 2.216 . S
Co378 O380 2.091 . S
Co378 O382 2.004 . S
Co378 O388 2.021 . S
Co378 O390 2.137 . S
Co378 O391 2.244 . S
O379 Co378 2.216 . S
O379 C386 1.247 . S
O380 Co378 2.091 . S
O380 C386 1.261 . S
C381 O390 1.247 . S
C381 O391 1.272 . S
O382 Co378 2.004 . S
O382 C387 1.259 . S
Co383 O384 2.061 . S
Co383 O389 2.052 . S
Co383 O391 2.135 . S
O384 Co383 2.061 . S
O384 C387 1.235 . S
C385 O388 1.238 . S
C385 O389 1.241 . S
C386 O379 1.247 . S
C386 O380 1.261 . S
C387 O382 1.259 . S
C387 O384 1.235 . S
O388 Co378 2.021 . S
O388 C385 1.238 . S
O389 Co383 2.052 . S
O389 C385 1.241 . S
O390 Co378 2.137 . S
O390 C381 1.247 . S
O391 Co378 2.244 . S
O391 C381 1.272 . S
O391 Co383 2.135 . S
Co392 O393 2.216 . S
Co392 O394 2.091 . S
Co392 O396 2.004 . S
Co392 O402 2.021 . S
Co392 O404 2.137 . S
Co392 O405 2.244 . S
O393 Co392 2.216 . S
O393 C400 1.247 . S
O394 Co392 2.091 . S
O394 C400 1.261 . S
C395 O404 1.247 . S
C395 O405 1.272 . S
O396 Co392 2.004 . S
O396 C401 1.259 . S
Co397 O398 2.061 . S
Co397 O403 2.052 . S
Co397 O405 2.135 . S
O398 Co397 2.061 . S
O398 C401 1.235 . S
C399 O402 1.238 . S
C399 O403 1.241 . S
C400 O393 1.247 . S
C400 O394 1.261 . S
C401 O396 1.259 . S
C401 O398 1.235 . S
O402 Co392 2.021 . S
O402 C399 1.238 . S
O403 Co397 2.052 . S
O403 C399 1.241 . S
O404 Co392 2.137 . S
O404 C395 1.247 . S
O405 Co392 2.244 . S
O405 C395 1.272 . S
O405 Co397 2.135 . S
Co406 O407 2.216 . S
Co406 O408 2.091 . S
Co406 O410 2.004 . S
Co406 O416 2.021 . S
Co406 O418 2.137 . S
Co406 O419 2.244 . S
O407 Co406 2.216 . S
O407 C414 1.247 . S
O408 Co406 2.091 . S
O408 C414 1.261 . S
C409 O418 1.247 . S
C409 O419 1.272 . S
O410 Co406 2.004 . S
O410 C415 1.259 . S
Co411 O412 2.061 . S
Co411 O417 2.052 . S
Co411 O419 2.135 . S
O412 Co411 2.061 . S
O412 C415 1.235 . S
C413 O416 1.238 . S
C413 O417 1.241 . S
C414 O407 1.247 . S
C414 O408 1.261 . S
C415 O410 1.259 . S
C415 O412 1.235 . S
O416 Co406 2.021 . S
O416 C413 1.238 . S
O417 Co411 2.052 . S
O417 C413 1.241 . S
O418 Co406 2.137 . S
O418 C409 1.247 . S
O419 Co406 2.244 . S
O419 C409 1.272 . S
O419 Co411 2.135 . S
Co420 O421 2.216 . S
Co420 O422 2.091 . S
Co420 O424 2.004 . S
Co420 O430 2.021 . S
Co420 O432 2.137 . S
Co420 O433 2.244 . S
O421 Co420 2.216 . S
O421 C428 1.247 . S
O422 Co420 2.091 . S
O422 C428 1.261 . S
C423 O432 1.247 . S
C423 O433 1.272 . S
O424 Co420 2.004 . S
O424 C429 1.259 . S
Co425 O426 2.061 . S
Co425 O431 2.052 . S
Co425 O433 2.135 . S
O426 Co425 2.061 . S
O426 C429 1.235 . S
C427 O430 1.238 . S
C427 O431 1.241 . S
C428 O421 1.247 . S
C428 O422 1.261 . S
C429 O424 1.259 . S
C429 O426 1.235 . S
O430 Co420 2.021 . S
O430 C427 1.238 . S
O431 Co425 2.052 . S
O431 C427 1.241 . S
O432 Co420 2.137 . S
O432 C423 1.247 . S
O433 Co420 2.244 . S
O433 C423 1.272 . S
O433 Co425 2.135 . S
Co434 O435 2.216 . S
Co434 O436 2.091 . S
Co434 O438 2.004 . S
Co434 O444 2.021 . S
Co434 O446 2.137 . S
Co434 O447 2.244 . S
O435 Co434 2.216 . S
O435 C442 1.247 . S
O436 Co434 2.091 . S
O436 C442 1.261 . S
C437 O446 1.247 . S
C437 O447 1.272 . S
O438 Co434 2.004 . S
O438 C443 1.259 . S
Co439 O440 2.061 . S
Co439 O445 2.052 . S
Co439 O447 2.135 . S
O440 Co439 2.061 . S
O440 C443 1.235 . S
C441 O444 1.238 . S
C441 O445 1.241 . S
C442 O435 1.247 . S
C442 O436 1.261 . S
C443 O438 1.259 . S
C443 O440 1.235 . S
O444 Co434 2.021 . S
O444 C441 1.238 . S
O445 Co439 2.052 . S
O445 C441 1.241 . S
O446 Co434 2.137 . S
O446 C437 1.247 . S
O447 Co434 2.244 . S
O447 C437 1.272 . S
O447 Co439 2.135 . S
Co448 O449 2.216 . S
Co448 O450 2.091 . S
Co448 O452 2.004 . S
Co448 O458 2.021 . S
Co448 O460 2.137 . S
Co448 O461 2.244 . S
O449 Co448 2.216 . S
O449 C456 1.247 . S
O450 Co448 2.091 . S
O450 C456 1.261 . S
C451 O460 1.247 . S
C451 O461 1.272 . S
O452 Co448 2.004 . S
O452 C457 1.259 . S
Co453 O454 2.061 . S
Co453 O459 2.052 . S
Co453 O461 2.135 . S
O454 Co453 2.061 . S
O454 C457 1.235 . S
C455 O458 1.238 . S
C455 O459 1.241 . S
C456 O449 1.247 . S
C456 O450 1.261 . S
C457 O452 1.259 . S
C457 O454 1.235 . S
O458 Co448 2.021 . S
O458 C455 1.238 . S
O459 Co453 2.052 . S
O459 C455 1.241 . S
O460 Co448 2.137 . S
O460 C451 1.247 . S
O461 Co448 2.244 . S
O461 C451 1.272 . S
O461 Co453 2.135 . S
Co462 O463 2.216 . S
Co462 O464 2.091 . S
Co462 O466 2.004 . S
Co462 O472 2.021 . S
Co462 O474 2.137 . S
Co462 O475 2.244 . S
O463 Co462 2.216 . S
O463 C470 1.247 . S
O464 Co462 2.091 . S
O464 C470 1.261 . S
C465 O474 1.247 . S
C465 O475 1.272 . S
O466 Co462 2.004 . S
O466 C471 1.259 . S
Co467 O468 2.061 . S
Co467 O473 2.052 . S
Co467 O475 2.135 . S
O468 Co467 2.061 . S
O468 C471 1.235 . S
C469 O472 1.238 . S
C469 O473 1.241 . S
C470 O463 1.247 . S
C470 O464 1.261 . S
C471 O466 1.259 . S
C471 O468 1.235 . S
O472 Co462 2.021 . S
O472 C469 1.238 . S
O473 Co467 2.052 . S
O473 C469 1.241 . S
O474 Co462 2.137 . S
O474 C465 1.247 . S
O475 Co462 2.244 . S
O475 C465 1.272 . S
O475 Co467 2.135 . S
Co476 O477 2.216 . S
Co476 O478 2.091 . S
Co476 O480 2.004 . S
Co476 O486 2.021 . S
Co476 O488 2.137 . S
Co476 O489 2.244 . S
O477 Co476 2.216 . S
O477 C484 1.247 . S
O478 Co476 2.091 . S
O478 C484 1.261 . S
C479 O488 1.247 . S
C479 O489 1.272 . S
O480 Co476 2.004 . S
O480 C485 1.259 . S
Co481 O482 2.061 . S
Co481 O487 2.052 . S
Co481 O489 2.135 . S
O482 Co481 2.061 . S
O482 C485 1.235 . S
C483 O486 1.238 . S
C483 O487 1.241 . S
C484 O477 1.247 . S
C484 O478 1.261 . S
C485 O480 1.259 . S
C485 O482 1.235 . S
O486 Co476 2.021 . S
O486 C483 1.238 . S
O487 Co481 2.052 . S
O487 C483 1.241 . S
O488 Co476 2.137 . S
O488 C479 1.247 . S
O489 Co476 2.244 . S
O489 C479 1.272 . S
O489 Co481 2.135 . S
Co490 O491 2.216 . S
Co490 O492 2.091 . S
Co490 O494 2.004 . S
Co490 O500 2.021 . S
Co490 O502 2.137 . S
Co490 O503 2.244 . S
O491 Co490 2.216 . S
O491 C498 1.247 . S
O492 Co490 2.091 . S
O492 C498 1.261 . S
C493 O502 1.247 . S
C493 O503 1.272 . S
O494 Co490 2.004 . S
O494 C499 1.259 . S
Co495 O496 2.061 . S
Co495 O501 2.052 . S
Co495 O503 2.135 . S
O496 Co495 2.061 . S
O496 C499 1.235 . S
C497 O500 1.238 . S
C497 O501 1.241 . S
C498 O491 1.247 . S
C498 O492 1.261 . S
C499 O494 1.259 . S
C499 O496 1.235 . S
O500 Co490 2.021 . S
O500 C497 1.238 . S
O501 Co495 2.052 . S
O501 C497 1.241 . S
O502 Co490 2.137 . S
O502 C493 1.247 . S
O503 Co490 2.244 . S
O503 C493 1.272 . S
O503 Co495 2.135 . S
Co504 O505 2.216 . S
Co504 O506 2.091 . S
Co504 O508 2.004 . S
Co504 O514 2.021 . S
Co504 O516 2.137 . S
Co504 O517 2.244 . S
O505 Co504 2.216 . S
O505 C512 1.247 . S
O506 Co504 2.091 . S
O506 C512 1.261 . S
C507 O516 1.247 . S
C507 O517 1.272 . S
O508 Co504 2.004 . S
O508 C513 1.259 . S
Co509 O510 2.061 . S
Co509 O515 2.052 . S
Co509 O517 2.135 . S
O510 Co509 2.061 . S
O510 C513 1.235 . S
C511 O514 1.238 . S
C511 O515 1.241 . S
C512 O505 1.247 . S
C512 O506 1.261 . S
C513 O508 1.259 . S
C513 O510 1.235 . S
O514 Co504 2.021 . S
O514 C511 1.238 . S
O515 Co509 2.052 . S
O515 C511 1.241 . S
O516 Co504 2.137 . S
O516 C507 1.247 . S
O517 Co504 2.244 . S
O517 C507 1.272 . S
O517 Co509 2.135 . S
Co518 O519 2.216 . S
Co518 O520 2.091 . S
Co518 O522 2.004 . S
Co518 O528 2.021 . S
Co518 O530 2.137 . S
Co518 O531 2.244 . S
O519 Co518 2.216 . S
O519 C526 1.247 . S
O520 Co518 2.091 . S
O520 C526 1.261 . S
C521 O530 1.247 . S
C521 O531 1.272 . S
O522 Co518 2.004 . S
O522 C527 1.259 . S
Co523 O524 2.061 . S
Co523 O529 2.052 . S
Co523 O531 2.135 . S
O524 Co523 2.061 . S
O524 C527 1.235 . S
C525 O528 1.238 . S
C525 O529 1.241 . S
C526 O519 1.247 . S
C526 O520 1.261 . S
C527 O522 1.259 . S
C527 O524 1.235 . S
O528 Co518 2.021 . S
O528 C525 1.238 . S
O529 Co523 2.052 . S
O529 C525 1.241 . S
O530 Co518 2.137 . S
O530 C521 1.247 . S
O531 Co518 2.244 . S
O531 C521 1.272 . S
O531 Co523 2.135 . S
Co532 O533 2.216 . S
Co532 O534 2.091 . S
Co532 O536 2.004 . S
Co532 O542 2.021 . S
Co532 O544 2.137 . S
Co532 O545 2.244 . S
O533 Co532 2.216 . S
O533 C540 1.247 . S
O534 Co532 2.091 . S
O534 C540 1.261 . S
C535 O544 1.247 . S
C535 O545 1.272 . S
O536 Co532 2.004 . S
O536 C541 1.259 . S
Co537 O538 2.061 . S
Co537 O543 2.052 . S
Co537 O545 2.135 . S
O538 Co537 2.061 . S
O538 C541 1.235 . S
C539 O542 1.238 . S
C539 O543 1.241 . S
C540 O533 1.247 . S
C540 O534 1.261 . S
C541 O536 1.259 . S
C541 O538 1.235 . S
O542 Co532 2.021 . S
O542 C539 1.238 . S
O543 Co537 2.052 . S
O543 C539 1.241 . S
O544 Co532 2.137 . S
O544 C535 1.247 . S
O545 Co532 2.244 . S
O545 C535 1.272 . S
O545 Co537 2.135 . S
Co546 O547 2.216 . S
Co546 O548 2.091 . S
Co546 O550 2.004 . S
Co546 O556 2.021 . S
Co546 O558 2.137 . S
Co546 O559 2.244 . S
O547 Co546 2.216 . S
O547 C554 1.247 . S
O548 Co546 2.091 . S
O548 C554 1.261 . S
C549 O558 1.247 . S
C549 O559 1.272 . S
O550 Co546 2.004 . S
O550 C555 1.259 . S
Co551 O552 2.061 . S
Co551 O557 2.052 . S
Co551 O559 2.135 . S
O552 Co551 2.061 . S
O552 C555 1.235 . S
C553 O556 1.238 . S
C553 O557 1.241 . S
C554 O547 1.247 . S
C554 O548 1.261 . S
C555 O550 1.259 . S
C555 O552 1.235 . S
O556 Co546 2.021 . S
O556 C553 1.238 . S
O557 Co551 2.052 . S
O557 C553 1.241 . S
O558 Co546 2.137 . S
O558 C549 1.247 . S
O559 Co546 2.244 . S
O559 C549 1.272 . S
O559 Co551 2.135 . S
Co560 O561 2.216 . S
Co560 O562 2.091 . S
Co560 O564 2.004 . S
Co560 O570 2.021 . S
Co560 O572 2.137 . S
Co560 O573 2.244 . S
O561 Co560 2.216 . S
O561 C568 1.247 . S
O562 Co560 2.091 . S
O562 C568 1.261 . S
C563 O572 1.247 . S
C563 O573 1.272 . S
O564 Co560 2.004 . S
O564 C569 1.259 . S
Co565 O566 2.061 . S
Co565 O571 2.052 . S
Co565 O573 2.135 . S
O566 Co565 2.061 . S
O566 C569 1.235 . S
C567 O570 1.238 . S
C567 O571 1.241 . S
C568 O561 1.247 . S
C568 O562 1.261 . S
C569 O564 1.259 . S
C569 O566 1.235 . S
O570 Co560 2.021 . S
O570 C567 1.238 . S
O571 Co565 2.052 . S
O571 C567 1.241 . S
O572 Co560 2.137 . S
O572 C563 1.247 . S
O573 Co560 2.244 . S
O573 C563 1.272 . S
O573 Co565 2.135 . S
Co574 O575 2.216 . S
Co574 O576 2.091 . S
Co574 O578 2.004 . S
Co574 O584 2.021 . S
Co574 O586 2.137 . S
Co574 O587 2.244 . S
O575 Co574 2.216 . S
O575 C582 1.247 . S
O576 Co574 2.091 . S
O576 C582 1.261 . S
C577 O586 1.247 . S
C577 O587 1.272 . S
O578 Co574 2.004 . S
O578 C583 1.259 . S
Co579 O580 2.061 . S
Co579 O585 2.052 . S
Co579 O587 2.135 . S
O580 Co579 2.061 . S
O580 C583 1.235 . S
C581 O584 1.238 . S
C581 O585 1.241 . S
C582 O575 1.247 . S
C582 O576 1.261 . S
C583 O578 1.259 . S
C583 O580 1.235 . S
O584 Co574 2.021 . S
O584 C581 1.238 . S
O585 Co579 2.052 . S
O585 C581 1.241 . S
O586 Co574 2.137 . S
O586 C577 1.247 . S
O587 Co574 2.244 . S
O587 C577 1.272 . S
O587 Co579 2.135 . S
Co588 O589 2.216 . S
Co588 O590 2.091 . S
Co588 O592 2.004 . S
Co588 O598 2.021 . S
Co588 O600 2.137 . S
Co588 O601 2.244 . S
O589 Co588 2.216 . S
O589 C596 1.247 . S
O590 Co588 2.091 . S
O590 C596 1.261 . S
C591 O600 1.247 . S
C591 O601 1.272 . S
O592 Co588 2.004 . S
O592 C597 1.259 . S
Co593 O594 2.061 . S
Co593 O599 2.052 . S
Co593 O601 2.135 . S
O594 Co593 2.061 . S
O594 C597 1.235 . S
C595 O598 1.238 . S
C595 O599 1.241 . S
C596 O589 1.247 . S
C596 O590 1.261 . S
C597 O592 1.259 . S
C597 O594 1.235 . S
O598 Co588 2.021 . S
O598 C595 1.238 . S
O599 Co593 2.052 . S
O599 C595 1.241 . S
O600 Co588 2.137 . S
O600 C591 1.247 . S
O601 Co588 2.244 . S
O601 C591 1.272 . S
O601 Co593 2.135 . S
Co602 O603 2.216 . S
Co602 O604 2.091 . S
Co602 O606 2.004 . S
Co602 O612 2.021 . S
Co602 O614 2.137 . S
Co602 O615 2.244 . S
O603 Co602 2.216 . S
O603 C610 1.247 . S
O604 Co602 2.091 . S
O604 C610 1.261 . S
C605 O614 1.247 . S
C605 O615 1.272 . S
O606 Co602 2.004 . S
O606 C611 1.259 . S
Co607 O608 2.061 . S
Co607 O613 2.052 . S
Co607 O615 2.135 . S
O608 Co607 2.061 . S
O608 C611 1.235 . S
C609 O612 1.238 . S
C609 O613 1.241 . S
C610 O603 1.247 . S
C610 O604 1.261 . S
C611 O606 1.259 . S
C611 O608 1.235 . S
O612 Co602 2.021 . S
O612 C609 1.238 . S
O613 Co607 2.052 . S
O613 C609 1.241 . S
O614 Co602 2.137 . S
O614 C605 1.247 . S
O615 Co602 2.244 . S
O615 C605 1.272 . S
O615 Co607 2.135 . S
Co616 O617 2.216 . S
Co616 O618 2.091 . S
Co616 O620 2.004 . S
Co616 O626 2.021 . S
Co616 O628 2.137 . S
Co616 O629 2.244 . S
O617 Co616 2.216 . S
O617 C624 1.247 . S
O618 Co616 2.091 . S
O618 C624 1.261 . S
C619 O628 1.247 . S
C619 O629 1.272 . S
O620 Co616 2.004 . S
O620 C625 1.259 . S
Co621 O622 2.061 . S
Co621 O627 2.052 . S
Co621 O629 2.135 . S
O622 Co621 2.061 . S
O622 C625 1.235 . S
C623 O626 1.238 . S
C623 O627 1.241 . S
C624 O617 1.247 . S
C624 O618 1.261 . S
C625 O620 1.259 . S
C625 O622 1.235 . S
O626 Co616 2.021 . S
O626 C623 1.238 . S
O627 Co621 2.052 . S
O627 C623 1.241 . S
O628 Co616 2.137 . S
O628 C619 1.247 . S
O629 Co616 2.244 . S
O629 C619 1.272 . S
O629 Co621 2.135 . S
Co630 O631 2.216 . S
Co630 O632 2.091 . S
Co630 O634 2.004 . S
Co630 O640 2.021 . S
Co630 O642 2.137 . S
Co630 O643 2.244 . S
O631 Co630 2.216 . S
O631 C638 1.247 . S
O632 Co630 2.091 . S
O632 C638 1.261 . S
C633 O642 1.247 . S
C633 O643 1.272 . S
O634 Co630 2.004 . S
O634 C639 1.259 . S
Co635 O636 2.061 . S
Co635 O641 2.052 . S
Co635 O643 2.135 . S
O636 Co635 2.061 . S
O636 C639 1.235 . S
C637 O640 1.238 . S
C637 O641 1.241 . S
C638 O631 1.247 . S
C638 O632 1.261 . S
C639 O634 1.259 . S
C639 O636 1.235 . S
O640 Co630 2.021 . S
O640 C637 1.238 . S
O641 Co635 2.052 . S
O641 C637 1.241 . S
O642 Co630 2.137 . S
O642 C633 1.247 . S
O643 Co630 2.244 . S
O643 C633 1.272 . S
O643 Co635 2.135 . S
Co644 O645 2.216 . S
Co644 O646 2.091 . S
Co644 O648 2.004 . S
Co644 O654 2.021 . S
Co644 O656 2.137 . S
Co644 O657 2.244 . S
O645 Co644 2.216 . S
O645 C652 1.247 . S
O646 Co644 2.091 . S
O646 C652 1.261 . S
C647 O656 1.247 . S
C647 O657 1.272 . S
O648 Co644 2.004 . S
O648 C653 1.259 . S
Co649 O650 2.061 . S
Co649 O655 2.052 . S
Co649 O657 2.135 . S
O650 Co649 2.061 . S
O650 C653 1.235 . S
C651 O654 1.238 . S
C651 O655 1.241 . S
C652 O645 1.247 . S
C652 O646 1.261 . S
C653 O648 1.259 . S
C653 O650 1.235 . S
O654 Co644 2.021 . S
O654 C651 1.238 . S
O655 Co649 2.052 . S
O655 C651 1.241 . S
O656 Co644 2.137 . S
O656 C647 1.247 . S
O657 Co644 2.244 . S
O657 C647 1.272 . S
O657 Co649 2.135 . S
Co658 O659 2.216 . S
Co658 O660 2.091 . S
Co658 O662 2.004 . S
Co658 O668 2.021 . S
Co658 O670 2.137 . S
Co658 O671 2.244 . S
O659 Co658 2.216 . S
O659 C666 1.247 . S
O660 Co658 2.091 . S
O660 C666 1.261 . S
C661 O670 1.247 . S
C661 O671 1.272 . S
O662 Co658 2.004 . S
O662 C667 1.259 . S
Co663 O664 2.061 . S
Co663 O669 2.052 . S
Co663 O671 2.135 . S
O664 Co663 2.061 . S
O664 C667 1.235 . S
C665 O668 1.238 . S
C665 O669 1.241 . S
C666 O659 1.247 . S
C666 O660 1.261 . S
C667 O662 1.259 . S
C667 O664 1.235 . S
O668 Co658 2.021 . S
O668 C665 1.238 . S
O669 Co663 2.052 . S
O669 C665 1.241 . S
O670 Co658 2.137 . S
O670 C661 1.247 . S
O671 Co658 2.244 . S
O671 C661 1.272 . S
O671 Co663 2.135 . S
C672 C673 1.387 . S
C672 H676 0.950 . S
C672 C681 1.390 . S
C673 C672 1.387 . S
C673 C675 1.387 . S
H674 C681 0.950 . S
C675 C673 1.387 . S
C675 C677 1.390 . S
C675 H679 0.950 . S
H676 C672 0.950 . S
C677 C675 1.390 . S
C677 C678 1.387 . S
C677 H680 0.950 . S
C678 C677 1.387 . S
C678 C681 1.387 . S
H679 C675 0.950 . S
H680 C677 0.950 . S
C681 C672 1.390 . S
C681 H674 0.950 . S
C681 C678 1.387 . S
C682 C683 1.387 1_655 S
C682 H686 0.950 1_655 S
C682 C691 1.390 . S
C683 C682 1.387 1_455 S
C683 C685 1.387 1_455 S
H684 C691 0.950 . S
C685 C683 1.387 1_655 S
C685 C687 1.390 . S
C685 H689 0.950 1_655 S
H686 C682 0.950 1_455 S
C687 C685 1.390 . S
C687 C688 1.387 . S
C687 H690 0.950 . S
C688 C687 1.387 . S
C688 C691 1.387 . S
H689 C685 0.950 1_455 S
H690 C687 0.950 . S
C691 C682 1.390 . S
C691 H684 0.950 . S
C691 C688 1.387 . S
C692 C693 1.387 . S
C692 H696 0.950 . S
C692 C701 1.390 . S
C693 C692 1.387 . S
C693 C695 1.387 . S
H694 C701 0.950 . S
C695 C693 1.387 . S
C695 C697 1.390 . S
C695 H699 0.950 . S
H696 C692 0.950 . S
C697 C695 1.390 . S
C697 C698 1.387 . S
C697 H700 0.950 . S
C698 C697 1.387 . S
C698 C701 1.387 . S
H699 C695 0.950 . S
H700 C697 0.950 . S
C701 C692 1.390 . S
C701 H694 0.950 . S
C701 C698 1.387 . S
C702 C703 1.387 . S
C702 H706 0.950 . S
C702 C711 1.390 . S
C703 C702 1.387 . S
C703 C705 1.387 . S
H704 C711 0.950 . S
C705 C703 1.387 . S
C705 C707 1.390 . S
C705 H709 0.950 . S
H706 C702 0.950 . S
C707 C705 1.390 . S
C707 C708 1.387 . S
C707 H710 0.950 . S
C708 C707 1.387 . S
C708 C711 1.387 . S
H709 C705 0.950 . S
H710 C707 0.950 . S
C711 C702 1.390 . S
C711 H704 0.950 . S
C711 C708 1.387 . S
C712 C713 1.387 . S
C712 H716 0.950 . S
C712 C721 1.390 . S
C713 C712 1.387 . S
C713 C715 1.387 . S
H714 C721 0.950 . S
C715 C713 1.387 . S
C715 C717 1.390 . S
C715 H719 0.950 . S
H716 C712 0.950 . S
C717 C715 1.390 . S
C717 C718 1.387 . S
C717 H720 0.950 . S
C718 C717 1.387 . S
C718 C721 1.387 . S
H719 C715 0.950 . S
H720 C717 0.950 . S
C721 C712 1.390 . S
C721 H714 0.950 . S
C721 C718 1.387 . S
C722 C723 1.387 . S
C722 H726 0.950 . S
C722 C731 1.390 . S
C723 C722 1.387 . S
C723 C725 1.387 . S
H724 C731 0.950 . S
C725 C723 1.387 . S
C725 C727 1.390 . S
C725 H729 0.950 . S
H726 C722 0.950 . S
C727 C725 1.390 . S
C727 C728 1.387 . S
C727 H730 0.950 . S
C728 C727 1.387 . S
C728 C731 1.387 . S
H729 C725 0.950 . S
H730 C727 0.950 . S
C731 C722 1.390 . S
C731 H724 0.950 . S
C731 C728 1.387 . S
C732 C733 1.387 . S
C732 H736 0.950 . S
C732 C741 1.390 . S
C733 C732 1.387 . S
C733 C735 1.387 . S
H734 C741 0.950 . S
C735 C733 1.387 . S
C735 C737 1.390 . S
C735 H739 0.950 . S
H736 C732 0.950 . S
C737 C735 1.390 . S
C737 C738 1.387 . S
C737 H740 0.950 . S
C738 C737 1.387 . S
C738 C741 1.387 . S
H739 C735 0.950 . S
H740 C737 0.950 . S
C741 C732 1.390 . S
C741 H734 0.950 . S
C741 C738 1.387 . S
C742 C743 1.387 1_655 S
C742 H746 0.950 1_655 S
C742 C751 1.390 . S
C743 C742 1.387 1_455 S
C743 C745 1.387 1_455 S
H744 C751 0.950 . S
C745 C743 1.387 1_655 S
C745 C747 1.390 . S
C745 H749 0.950 . S
H746 C742 0.950 1_455 S
C747 C745 1.390 . S
C747 C748 1.387 . S
C747 H750 0.950 . S
C748 C747 1.387 . S
C748 C751 1.387 . S
H749 C745 0.950 . S
H750 C747 0.950 . S
C751 C742 1.390 . S
C751 H744 0.950 . S
C751 C748 1.387 . S
C752 C753 1.387 . S
C752 H756 0.950 . S
C752 C761 1.390 . S
C753 C752 1.387 . S
C753 C755 1.387 . S
H754 C761 0.950 . S
C755 C753 1.387 . S
C755 C757 1.390 . S
C755 H759 0.950 . S
H756 C752 0.950 . S
C757 C755 1.390 . S
C757 C758 1.387 . S
C757 H760 0.950 . S
C758 C757 1.387 . S
C758 C761 1.387 . S
H759 C755 0.950 . S
H760 C757 0.950 . S
C761 C752 1.390 . S
C761 H754 0.950 . S
C761 C758 1.387 . S
C762 C763 1.387 . S
C762 H766 0.950 . S
C762 C771 1.390 . S
C763 C762 1.387 . S
C763 C765 1.387 . S
H764 C771 0.950 . S
C765 C763 1.387 . S
C765 C767 1.390 . S
C765 H769 0.950 . S
H766 C762 0.950 . S
C767 C765 1.390 . S
C767 C768 1.387 . S
C767 H770 0.950 . S
C768 C767 1.387 . S
C768 C771 1.387 . S
H769 C765 0.950 . S
H770 C767 0.950 . S
C771 C762 1.390 . S
C771 H764 0.950 . S
C771 C768 1.387 . S
C772 C773 1.387 . S
C772 H776 0.950 . S
C772 C781 1.390 . S
C773 C772 1.387 . S
C773 C775 1.387 . S
H774 C781 0.950 . S
C775 C773 1.387 . S
C775 C777 1.390 . S
C775 H779 0.950 . S
H776 C772 0.950 . S
C777 C775 1.390 . S
C777 C778 1.387 . S
C777 H780 0.950 . S
C778 C777 1.387 . S
C778 C781 1.387 . S
H779 C775 0.950 . S
H780 C777 0.950 . S
C781 C772 1.390 . S
C781 H774 0.950 . S
C781 C778 1.387 . S
C782 C783 1.387 1_554 S
C782 H786 0.950 1_554 S
C782 C791 1.390 . S
C783 C782 1.387 1_556 S
C783 C785 1.387 1_556 S
H784 C791 0.950 . S
C785 C783 1.387 1_554 S
C785 C787 1.390 . S
C785 H789 0.950 1_554 S
H786 C782 0.950 1_556 S
C787 C785 1.390 . S
C787 C788 1.387 . S
C787 H790 0.950 . S
C788 C787 1.387 . S
C788 C791 1.387 . S
H789 C785 0.950 1_556 S
H790 C787 0.950 . S
C791 C782 1.390 . S
C791 H784 0.950 . S
C791 C788 1.387 . S
C792 C793 1.387 . S
C792 H796 0.950 . S
C792 C801 1.390 . S
C793 C792 1.387 . S
C793 C795 1.387 . S
H794 C801 0.950 . S
C795 C793 1.387 . S
C795 C797 1.390 . S
C795 H799 0.950 . S
H796 C792 0.950 . S
C797 C795 1.390 . S
C797 C798 1.387 . S
C797 H800 0.950 . S
C798 C797 1.387 . S
C798 C801 1.387 . S
H799 C795 0.950 . S
H800 C797 0.950 . S
C801 C792 1.390 . S
C801 H794 0.950 . S
C801 C798 1.387 . S
C802 C803 1.387 . S
C802 H806 0.950 . S
C802 C811 1.390 . S
C803 C802 1.387 . S
C803 C805 1.387 . S
H804 C811 0.950 . S
C805 C803 1.387 . S
C805 C807 1.390 . S
C805 H809 0.950 . S
H806 C802 0.950 . S
C807 C805 1.390 . S
C807 C808 1.387 . S
C807 H810 0.950 . S
C808 C807 1.387 . S
C808 C811 1.387 . S
H809 C805 0.950 . S
H810 C807 0.950 . S
C811 C802 1.390 . S
C811 H804 0.950 . S
C811 C808 1.387 . S
C812 C813 1.387 . S
C812 H816 0.950 . S
C812 C821 1.390 . S
C813 C812 1.387 . S
C813 C815 1.387 . S
H814 C821 0.950 . S
C815 C813 1.387 . S
C815 C817 1.390 . S
C815 H819 0.950 . S
H816 C812 0.950 . S
C817 C815 1.390 . S
C817 C818 1.387 . S
C817 H820 0.950 . S
C818 C817 1.387 . S
C818 C821 1.387 . S
H819 C815 0.950 . S
H820 C817 0.950 . S
C821 C812 1.390 . S
C821 H814 0.950 . S
C821 C818 1.387 . S
C822 C823 1.385 1_556 S
C822 H826 0.947 1_556 S
C822 C831 1.395 . S
C823 C822 1.385 1_554 S
C823 C825 1.389 . S
H824 C831 0.950 . S
C825 C823 1.389 . S
C825 C827 1.387 1_554 S
C825 H829 0.951 . S
H826 C822 0.947 1_554 S
C827 C825 1.387 1_556 S
C827 C828 1.387 . S
C827 H830 0.950 . S
C828 C827 1.387 . S
C828 C831 1.387 . S
H829 C825 0.951 . S
H830 C827 0.950 . S
C831 C822 1.395 . S
C831 H824 0.950 . S
C831 C828 1.387 . S
C832 C833 1.387 . S
C832 H836 0.950 . S
C832 C841 1.390 . S
C833 C832 1.387 . S
C833 C835 1.387 . S
H834 C841 0.950 . S
C835 C833 1.387 . S
C835 C837 1.390 . S
C835 H839 0.950 . S
H836 C832 0.950 . S
C837 C835 1.390 . S
C837 C838 1.387 . S
C837 H840 0.950 . S
C838 C837 1.387 . S
C838 C841 1.387 . S
H839 C835 0.950 . S
H840 C837 0.950 . S
C841 C832 1.390 . S
C841 H834 0.950 . S
C841 C838 1.387 . S
C842 C843 1.387 . S
C842 H846 0.950 . S
C842 C851 1.390 . S
C843 C842 1.387 . S
C843 C845 1.387 . S
H844 C851 0.950 . S
C845 C843 1.387 . S
C845 C847 1.390 . S
C845 H849 0.950 . S
H846 C842 0.950 . S
C847 C845 1.390 . S
C847 C848 1.387 . S
C847 H850 0.950 . S
C848 C847 1.387 . S
C848 C851 1.387 . S
H849 C845 0.950 . S
H850 C847 0.950 . S
C851 C842 1.390 . S
C851 H844 0.950 . S
C851 C848 1.387 . S
C852 C853 1.387 . S
C852 H856 0.950 . S
C852 C861 1.390 . S
C853 C852 1.387 . S
C853 C855 1.387 . S
H854 C861 0.950 . S
C855 C853 1.387 . S
C855 C857 1.390 . S
C855 H859 0.950 . S
H856 C852 0.950 . S
C857 C855 1.390 . S
C857 C858 1.387 . S
C857 H860 0.950 . S
C858 C857 1.387 . S
C858 C861 1.387 . S
H859 C855 0.950 . S
H860 C857 0.950 . S
C861 C852 1.390 . S
C861 H854 0.950 . S
C861 C858 1.387 . S
C862 C863 1.387 . S
C862 H866 0.950 . S
C862 C871 1.390 . S
C863 C862 1.387 . S
C863 C865 1.387 . S
H864 C871 0.950 . S
C865 C863 1.387 . S
C865 C867 1.390 . S
C865 H869 0.950 . S
H866 C862 0.950 . S
C867 C865 1.390 . S
C867 C868 1.387 . S
C867 H870 0.950 . S
C868 C867 1.387 . S
C868 C871 1.387 . S
H869 C865 0.950 . S
H870 C867 0.950 . S
C871 C862 1.390 . S
C871 H864 0.950 . S
C871 C868 1.387 . S
C872 C873 1.387 . S
C872 H876 0.950 . S
C872 C881 1.390 . S
C873 C872 1.387 . S
C873 C875 1.387 . S
H874 C881 0.950 1_545 S
C875 C873 1.387 . S
C875 C877 1.390 . S
C875 H879 0.950 . S
H876 C872 0.950 . S
C877 C875 1.390 . S
C877 C878 1.387 1_565 S
C877 H880 0.950 1_565 S
C878 C877 1.387 1_545 S
C878 C881 1.387 1_545 S
H879 C875 0.950 . S
H880 C877 0.950 1_545 S
C881 C872 1.390 . S
C881 H874 0.950 1_565 S
C881 C878 1.387 1_565 S
C882 C883 1.387 . S
C882 H886 0.950 . S
C882 C891 1.390 . S
C883 C882 1.387 . S
C883 C885 1.387 . S
H884 C891 0.950 . S
C885 C883 1.387 . S
C885 C887 1.390 . S
C885 H889 0.950 . S
H886 C882 0.950 . S
C887 C885 1.390 . S
C887 C888 1.387 . S
C887 H890 0.950 . S
C888 C887 1.387 . S
C888 C891 1.387 . S
H889 C885 0.950 . S
H890 C887 0.950 . S
C891 C882 1.390 . S
C891 H884 0.950 . S
C891 C888 1.387 . S
C892 C893 1.387 . S
C892 H896 0.950 . S
C892 C901 1.390 . S
C893 C892 1.387 . S
C893 C895 1.387 . S
H894 C901 0.950 . S
C895 C893 1.387 . S
C895 C897 1.390 . S
C895 H899 0.950 . S
H896 C892 0.950 . S
C897 C895 1.390 . S
C897 C898 1.387 . S
C897 H900 0.950 . S
C898 C897 1.387 . S
C898 C901 1.387 . S
H899 C895 0.950 . S
H900 C897 0.950 . S
C901 C892 1.390 . S
C901 H894 0.950 . S
C901 C898 1.387 . S
C902 C903 1.387 . S
C902 H906 0.950 . S
C902 C911 1.390 . S
C903 C902 1.387 . S
C903 C905 1.387 . S
H904 C911 0.950 . S
C905 C903 1.387 . S
C905 C907 1.390 . S
C905 H909 0.950 . S
H906 C902 0.950 . S
C907 C905 1.390 . S
C907 C908 1.387 . S
C907 H910 0.950 . S
C908 C907 1.387 . S
C908 C911 1.387 . S
H909 C905 0.950 . S
H910 C907 0.950 . S
C911 C902 1.390 . S
C911 H904 0.950 . S
C911 C908 1.387 . S
C912 C913 1.387 . S
C912 H916 0.950 . S
C912 C921 1.390 . S
C913 C912 1.387 . S
C913 C915 1.387 . S
H914 C921 0.950 . S
C915 C913 1.387 . S
C915 C917 1.390 . S
C915 H919 0.950 . S
H916 C912 0.950 . S
C917 C915 1.390 . S
C917 C918 1.387 . S
C917 H920 0.950 . S
C918 C917 1.387 . S
C918 C921 1.387 . S
H919 C915 0.950 . S
H920 C917 0.950 . S
C921 C912 1.390 . S
C921 H914 0.950 . S
C921 C918 1.387 . S
C922 C923 1.387 . S
C922 H926 0.950 . S
C922 C931 1.390 1_655 S
C923 C922 1.387 . S
C923 C925 1.387 . S
H924 C931 0.950 . S
C925 C923 1.387 . S
C925 C927 1.390 1_655 S
C925 H929 0.950 . S
H926 C922 0.950 . S
C927 C925 1.390 1_455 S
C927 C928 1.387 . S
C927 H930 0.950 . S
C928 C927 1.387 . S
C928 C931 1.387 . S
H929 C925 0.950 . S
H930 C927 0.950 . S
C931 C922 1.390 1_455 S
C931 H924 0.950 . S
C931 C928 1.387 . S
C932 C933 1.387 . S
C932 H936 0.950 . S
C932 C941 1.390 . S
C933 C932 1.387 . S
C933 C935 1.387 . S
H934 C941 0.950 . S
C935 C933 1.387 . S
C935 C937 1.390 . S
C935 H939 0.950 . S
H936 C932 0.950 . S
C937 C935 1.390 . S
C937 C938 1.387 . S
C937 H940 0.950 . S
C938 C937 1.387 . S
C938 C941 1.387 . S
H939 C935 0.950 . S
H940 C937 0.950 . S
C941 C932 1.390 . S
C941 H934 0.950 . S
C941 C938 1.387 . S
C942 C943 1.387 . S
C942 H946 0.950 . S
C942 C951 1.390 . S
C943 C942 1.387 . S
C943 C945 1.387 . S
H944 C951 0.950 . S
C945 C943 1.387 . S
C945 C947 1.390 . S
C945 H949 0.950 . S
H946 C942 0.950 . S
C947 C945 1.390 . S
C947 C948 1.387 . S
C947 H950 0.950 . S
C948 C947 1.387 . S
C948 C951 1.387 . S
H949 C945 0.950 . S
H950 C947 0.950 . S
C951 C942 1.390 . S
C951 H944 0.950 . S
C951 C948 1.387 . S
C952 C953 1.387 . S
C952 H956 0.950 . S
C952 C961 1.390 . S
C953 C952 1.387 . S
C953 C955 1.387 . S
H954 C961 0.950 . S
C955 C953 1.387 . S
C955 C957 1.390 . S
C955 H959 0.950 . S
H956 C952 0.950 . S
C957 C955 1.390 . S
C957 C958 1.387 . S
C957 H960 0.950 . S
C958 C957 1.387 . S
C958 C961 1.387 . S
H959 C955 0.950 . S
H960 C957 0.950 . S
C961 C952 1.390 . S
C961 H954 0.950 . S
C961 C958 1.387 . S
C962 C963 1.387 . S
C962 H966 0.950 . S
C962 C971 1.390 . S
C963 C962 1.387 . S
C963 C965 1.387 . S
H964 C971 0.950 . S
C965 C963 1.387 . S
C965 C967 1.390 . S
C965 H969 0.950 . S
H966 C962 0.950 . S
C967 C965 1.390 . S
C967 C968 1.387 . S
C967 H970 0.950 . S
C968 C967 1.387 . S
C968 C971 1.387 . S
H969 C965 0.950 . S
H970 C967 0.950 . S
C971 C962 1.390 . S
C971 H964 0.950 . S
C971 C968 1.387 . S
C972 C973 1.387 . S
C972 H976 0.950 . S
C972 C981 1.390 . S
C973 C972 1.387 . S
C973 C975 1.387 . S
H974 C981 0.950 . S
C975 C973 1.387 . S
C975 C977 1.390 . S
C975 H979 0.950 . S
H976 C972 0.950 . S
C977 C975 1.390 . S
C977 C978 1.387 . S
C977 H980 0.950 . S
C978 C977 1.387 . S
C978 C981 1.387 . S
H979 C975 0.950 . S
H980 C977 0.950 . S
C981 C972 1.390 . S
C981 H974 0.950 . S
C981 C978 1.387 . S
C982 C983 1.387 . S
C982 H986 0.950 . S
C982 C991 1.390 . S
C983 C982 1.387 . S
C983 C985 1.387 . S
H984 C991 0.950 1_655 S
C985 C983 1.387 . S
C985 C987 1.395 . S
C985 H989 0.950 . S
H986 C982 0.950 . S
C987 C985 1.395 . S
C987 C988 1.385 1_455 S
C987 H990 0.947 1_455 S
C988 C987 1.385 1_655 S
C988 C991 1.387 1_655 S
H989 C985 0.950 . S
H990 C987 0.947 1_655 S
C991 C982 1.390 . S
C991 H984 0.950 1_455 S
C991 C988 1.387 1_455 S
C992 C993 1.387 . S
C992 H996 0.950 . S
C992 C1001 1.390 . S
C993 C992 1.387 . S
C993 C995 1.387 . S
H994 C1001 0.950 . S
C995 C993 1.387 . S
C995 C997 1.390 . S
C995 H999 0.950 . S
H996 C992 0.950 . S
C997 C995 1.390 . S
C997 C998 1.387 . S
C997 H1000 0.950 . S
C998 C997 1.387 . S
C998 C1001 1.387 . S
H999 C995 0.950 . S
H1000 C997 0.950 . S
C1001 C992 1.390 . S
C1001 H994 0.950 . S
C1001 C998 1.387 . S
C1002 C1003 1.387 . S
C1002 H1006 0.950 . S
C1002 C1011 1.390 . S
C1003 C1002 1.387 . S
C1003 C1005 1.387 . S
H1004 C1011 0.950 . S
C1005 C1003 1.387 . S
C1005 C1007 1.390 . S
C1005 H1009 0.950 . S
H1006 C1002 0.950 . S
C1007 C1005 1.390 . S
C1007 C1008 1.387 . S
C1007 H1010 0.950 . S
C1008 C1007 1.387 . S
C1008 C1011 1.387 . S
H1009 C1005 0.950 . S
H1010 C1007 0.950 . S
C1011 C1002 1.390 . S
C1011 H1004 0.950 . S
C1011 C1008 1.387 . S
C1012 C1013 1.387 . S
C1012 H1016 0.950 . S
C1012 C1021 1.390 . S
C1013 C1012 1.387 . S
C1013 C1015 1.387 . S
H1014 C1021 0.950 . S
C1015 C1013 1.387 . S
C1015 C1017 1.390 . S
C1015 H1019 0.950 . S
H1016 C1012 0.950 . S
C1017 C1015 1.390 . S
C1017 C1018 1.387 . S
C1017 H1020 0.950 . S
C1018 C1017 1.387 . S
C1018 C1021 1.387 . S
H1019 C1015 0.950 . S
H1020 C1017 0.950 . S
C1021 C1012 1.390 . S
C1021 H1014 0.950 . S
C1021 C1018 1.387 . S
C1022 C1023 1.387 . S
C1022 H1026 0.950 . S
C1022 C1031 1.390 . S
C1023 C1022 1.387 . S
C1023 C1025 1.387 . S
H1024 C1031 0.950 1_554 S
C1025 C1023 1.387 . S
C1025 C1027 1.390 . S
C1025 H1029 0.950 . S
H1026 C1022 0.950 . S
C1027 C1025 1.390 . S
C1027 C1028 1.387 1_556 S
C1027 H1030 0.950 1_556 S
C1028 C1027 1.387 1_554 S
C1028 C1031 1.387 1_554 S
H1029 C1025 0.950 . S
H1030 C1027 0.950 1_554 S
C1031 C1022 1.390 . S
C1031 H1024 0.950 1_556 S
C1031 C1028 1.387 1_556 S
C1032 C1033 1.387 . S
C1032 H1036 0.950 . S
C1032 C1041 1.390 . S
C1033 C1032 1.387 . S
C1033 C1035 1.387 . S
H1034 C1041 0.950 . S
C1035 C1033 1.387 . S
C1035 C1037 1.390 . S
C1035 H1039 0.950 . S
H1036 C1032 0.950 . S
C1037 C1035 1.390 . S
C1037 C1038 1.387 . S
C1037 H1040 0.950 . S
C1038 C1037 1.387 . S
C1038 C1041 1.387 . S
H1039 C1035 0.950 . S
H1040 C1037 0.950 . S
C1041 C1032 1.390 . S
C1041 H1034 0.950 . S
C1041 C1038 1.387 . S
C1042 C1043 1.387 . S
C1042 H1046 0.950 . S
C1042 C1051 1.390 . S
C1043 C1042 1.387 . S
C1043 C1045 1.387 . S
H1044 C1051 0.950 . S
C1045 C1043 1.387 . S
C1045 C1047 1.390 . S
C1045 H1049 0.950 . S
H1046 C1042 0.950 . S
C1047 C1045 1.390 . S
C1047 C1048 1.387 . S
C1047 H1050 0.950 . S
C1048 C1047 1.387 . S
C1048 C1051 1.387 . S
H1049 C1045 0.950 . S
H1050 C1047 0.950 . S
C1051 C1042 1.390 . S
C1051 H1044 0.950 . S
C1051 C1048 1.387 . S
C1052 C1053 1.387 . S
C1052 H1056 0.950 . S
C1052 C1061 1.390 . S
C1053 C1052 1.387 . S
C1053 C1055 1.387 . S
H1054 C1061 0.950 . S
C1055 C1053 1.387 . S
C1055 C1057 1.390 . S
C1055 H1059 0.950 . S
H1056 C1052 0.950 . S
C1057 C1055 1.390 . S
C1057 C1058 1.387 . S
C1057 H1060 0.950 . S
C1058 C1057 1.387 . S
C1058 C1061 1.387 . S
H1059 C1055 0.950 . S
H1060 C1057 0.950 . S
C1061 C1052 1.390 . S
C1061 H1054 0.950 . S
C1061 C1058 1.387 . S
C1062 C1063 1.387 1_554 S
C1062 H1066 0.950 1_554 S
C1062 C1071 1.390 . S
C1063 C1062 1.387 1_556 S
C1063 C1065 1.387 1_556 S
H1064 C1071 0.950 . S
C1065 C1063 1.387 1_554 S
C1065 C1067 1.390 . S
C1065 H1069 0.950 1_554 S
H1066 C1062 0.950 1_556 S
C1067 C1065 1.390 . S
C1067 C1068 1.387 . S
C1067 H1070 0.950 . S
C1068 C1067 1.387 . S
C1068 C1071 1.387 . S
H1069 C1065 0.950 1_556 S
H1070 C1067 0.950 . S
C1071 C1062 1.390 . S
C1071 H1064 0.950 . S
C1071 C1068 1.387 . S
C1072 C1073 1.387 . S
C1072 H1076 0.950 . S
C1072 C1081 1.390 . S
C1073 C1072 1.387 . S
C1073 C1075 1.387 . S
H1074 C1081 0.950 . S
C1075 C1073 1.387 . S
C1075 C1077 1.390 . S
C1075 H1079 0.950 . S
H1076 C1072 0.950 . S
C1077 C1075 1.390 . S
C1077 C1078 1.387 . S
C1077 H1080 0.950 . S
C1078 C1077 1.387 . S
C1078 C1081 1.387 . S
H1079 C1075 0.950 . S
H1080 C1077 0.950 . S
C1081 C1072 1.390 . S
C1081 H1074 0.950 . S
C1081 C1078 1.387 . S
C1082 C1083 1.387 . S
C1082 H1086 0.950 . S
C1082 C1091 1.390 . S
C1083 C1082 1.387 . S
C1083 C1085 1.387 . S
H1084 C1091 0.950 . S
C1085 C1083 1.387 . S
C1085 C1087 1.390 . S
C1085 H1089 0.950 . S
H1086 C1082 0.950 . S
C1087 C1085 1.390 . S
C1087 C1088 1.387 . S
C1087 H1090 0.950 . S
C1088 C1087 1.387 . S
C1088 C1091 1.387 . S
H1089 C1085 0.950 . S
H1090 C1087 0.950 . S
C1091 C1082 1.390 . S
C1091 H1084 0.950 . S
C1091 C1088 1.387 . S
C1092 C1093 1.387 . S
C1092 H1096 0.950 . S
C1092 C1101 1.390 . S
C1093 C1092 1.387 . S
C1093 C1095 1.387 . S
H1094 C1101 0.950 . S
C1095 C1093 1.387 . S
C1095 C1097 1.390 . S
C1095 H1099 0.950 . S
H1096 C1092 0.950 . S
C1097 C1095 1.390 . S
C1097 C1098 1.387 . S
C1097 H1100 0.950 . S
C1098 C1097 1.387 . S
C1098 C1101 1.387 . S
H1099 C1095 0.950 . S
H1100 C1097 0.950 . S
C1101 C1092 1.390 . S
C1101 H1094 0.950 . S
C1101 C1098 1.387 . S
C1102 C1103 1.387 . S
C1102 H1106 0.950 . S
C1102 C1111 1.390 . S
C1103 C1102 1.387 . S
C1103 C1105 1.387 . S
H1104 C1111 0.950 . S
C1105 C1103 1.387 . S
C1105 C1107 1.390 . S
C1105 H1109 0.950 . S
H1106 C1102 0.950 . S
C1107 C1105 1.390 . S
C1107 C1108 1.387 . S
C1107 H1110 0.950 . S
C1108 C1107 1.387 . S
C1108 C1111 1.387 . S
H1109 C1105 0.950 . S
H1110 C1107 0.950 . S
C1111 C1102 1.390 . S
C1111 H1104 0.950 . S
C1111 C1108 1.387 . S
C1112 C1113 1.387 1_545 S
C1112 H1116 0.950 1_545 S
C1112 C1121 1.390 . S
C1113 C1112 1.387 1_565 S
C1113 C1115 1.387 1_565 S
H1114 C1121 0.950 . S
C1115 C1113 1.387 1_545 S
C1115 C1117 1.390 . S
C1115 H1119 0.957 . S
H1116 C1112 0.950 1_565 S
C1117 C1115 1.390 . S
C1117 C1118 1.387 . S
C1117 H1120 0.950 . S
C1118 C1117 1.387 . S
C1118 C1121 1.387 . S
H1119 C1115 0.957 . S
H1120 C1117 0.950 . S
C1121 C1112 1.390 . S
C1121 H1114 0.950 . S
C1121 C1118 1.387 . S
C1122 C1123 1.387 . S
C1122 H1126 0.950 . S
C1122 C1131 1.390 . S
C1123 C1122 1.387 . S
C1123 C1125 1.387 . S
H1124 C1131 0.950 . S
C1125 C1123 1.387 . S
C1125 C1127 1.390 . S
C1125 H1129 0.950 . S
H1126 C1122 0.950 . S
C1127 C1125 1.390 . S
C1127 C1128 1.387 . S
C1127 H1130 0.950 . S
C1128 C1127 1.387 . S
C1128 C1131 1.387 . S
H1129 C1125 0.950 . S
H1130 C1127 0.950 . S
C1131 C1122 1.390 . S
C1131 H1124 0.950 . S
C1131 C1128 1.387 . S
C1132 C1133 1.387 . S
C1132 H1136 0.950 . S
C1132 C1141 1.390 . S
C1133 C1132 1.387 . S
C1133 C1135 1.387 . S
H1134 C1141 0.950 . S
C1135 C1133 1.387 . S
C1135 C1137 1.390 . S
C1135 H1139 0.950 . S
H1136 C1132 0.950 . S
C1137 C1135 1.390 . S
C1137 C1138 1.387 . S
C1137 H1140 0.950 . S
C1138 C1137 1.387 . S
C1138 C1141 1.387 . S
H1139 C1135 0.950 . S
H1140 C1137 0.950 . S
C1141 C1132 1.390 . S
C1141 H1134 0.950 . S
C1141 C1138 1.387 . S
C1142 C1143 1.387 . S
C1142 H1146 0.950 . S
C1142 C1151 1.390 . S
C1143 C1142 1.387 . S
C1143 C1145 1.387 . S
H1144 C1151 0.950 . S
C1145 C1143 1.387 . S
C1145 C1147 1.390 . S
C1145 H1149 0.950 . S
H1146 C1142 0.950 . S
C1147 C1145 1.390 . S
C1147 C1148 1.387 . S
C1147 H1150 0.950 . S
C1148 C1147 1.387 . S
C1148 C1151 1.387 . S
H1149 C1145 0.950 . S
H1150 C1147 0.950 . S
C1151 C1142 1.390 . S
C1151 H1144 0.950 . S
C1151 C1148 1.387 . S
C1152 C1153 1.387 . S
C1152 H1156 0.950 . S
C1152 C1161 1.390 . S
C1153 C1152 1.387 . S
C1153 C1155 1.387 . S
H1154 C1161 0.950 . S
C1155 C1153 1.387 . S
C1155 C1157 1.390 . S
C1155 H1159 0.950 . S
H1156 C1152 0.950 . S
C1157 C1155 1.390 . S
C1157 C1158 1.387 . S
C1157 H1160 0.950 . S
C1158 C1157 1.387 . S
C1158 C1161 1.387 . S
H1159 C1155 0.950 . S
H1160 C1157 0.950 . S
C1161 C1152 1.390 . S
C1161 H1154 0.950 . S
C1161 C1158 1.387 . S
C1162 C1163 1.387 . S
C1162 H1166 0.950 . S
C1162 C1171 1.390 . S
C1163 C1162 1.387 . S
C1163 C1165 1.387 . S
H1164 C1171 0.950 . S
C1165 C1163 1.387 . S
C1165 C1167 1.390 . S
C1165 H1169 0.950 . S
H1166 C1162 0.950 . S
C1167 C1165 1.390 . S
C1167 C1168 1.387 . S
C1167 H1170 0.950 . S
C1168 C1167 1.387 . S
C1168 C1171 1.387 . S
H1169 C1165 0.950 . S
H1170 C1167 0.950 . S
C1171 C1162 1.390 . S
C1171 H1164 0.950 . S
C1171 C1168 1.387 . S
C1172 C1173 1.387 . S
C1172 H1176 0.950 . S
C1172 C1181 1.390 . S
C1173 C1172 1.387 . S
C1173 C1175 1.387 . S
H1174 C1181 0.950 . S
C1175 C1173 1.387 . S
C1175 C1177 1.390 . S
C1175 H1179 0.950 . S
H1176 C1172 0.950 . S
C1177 C1175 1.390 . S
C1177 C1178 1.387 . S
C1177 H1180 0.950 . S
C1178 C1177 1.387 . S
C1178 C1181 1.387 . S
H1179 C1175 0.950 . S
H1180 C1177 0.950 . S
C1181 C1172 1.390 . S
C1181 H1174 0.950 . S
C1181 C1178 1.387 . S
C1182 C1183 1.387 1_455 S
C1182 H1186 0.941 1_455 S
C1182 C1191 1.390 . S
C1183 C1182 1.387 1_655 S
C1183 C1185 1.387 1_655 S
H1184 C1191 0.950 . S
C1185 C1183 1.387 1_455 S
C1185 C1187 1.390 . S
C1185 H1189 0.950 1_455 S
H1186 C1182 0.941 1_655 S
C1187 C1185 1.390 . S
C1187 C1188 1.387 . S
C1187 H1190 0.950 . S
C1188 C1187 1.387 . S
C1188 C1191 1.387 . S
H1189 C1185 0.950 1_655 S
H1190 C1187 0.950 . S
C1191 C1182 1.390 . S
C1191 H1184 0.950 . S
C1191 C1188 1.387 . S
C1192 C1193 1.387 . S
C1192 H1196 0.950 . S
C1192 C1201 1.390 . S
C1193 C1192 1.387 . S
C1193 C1195 1.387 . S
H1194 C1201 0.950 . S
C1195 C1193 1.387 . S
C1195 C1197 1.390 . S
C1195 H1199 0.950 . S
H1196 C1192 0.950 . S
C1197 C1195 1.390 . S
C1197 C1198 1.387 . S
C1197 H1200 0.950 . S
C1198 C1197 1.387 . S
C1198 C1201 1.387 . S
H1199 C1195 0.950 . S
H1200 C1197 0.950 . S
C1201 C1192 1.390 . S
C1201 H1194 0.950 . S
C1201 C1198 1.387 . S
C1202 C1203 1.387 . S
C1202 H1206 0.950 . S
C1202 C1211 1.390 . S
C1203 C1202 1.387 . S
C1203 C1205 1.387 . S
H1204 C1211 0.950 1_655 S
C1205 C1203 1.387 . S
C1205 C1207 1.390 . S
C1205 H1209 0.950 . S
H1206 C1202 0.950 . S
C1207 C1205 1.390 . S
C1207 C1208 1.387 1_455 S
C1207 H1210 0.950 1_455 S
C1208 C1207 1.387 1_655 S
C1208 C1211 1.387 1_655 S
H1209 C1205 0.950 . S
H1210 C1207 0.950 1_655 S
C1211 C1202 1.390 . S
C1211 H1204 0.950 1_455 S
C1211 C1208 1.387 1_455 S
C1212 C1213 1.387 . S
C1212 H1216 0.950 . S
C1212 C1221 1.390 . S
C1213 C1212 1.387 . S
C1213 C1215 1.387 . S
H1214 C1221 0.950 . S
C1215 C1213 1.387 . S
C1215 C1217 1.390 . S
C1215 H1219 0.950 . S
H1216 C1212 0.950 . S
C1217 C1215 1.390 . S
C1217 C1218 1.387 . S
C1217 H1220 0.950 . S
C1218 C1217 1.387 . S
C1218 C1221 1.387 . S
H1219 C1215 0.950 . S
H1220 C1217 0.950 . S
C1221 C1212 1.390 . S
C1221 H1214 0.950 . S
C1221 C1218 1.387 . S
C1222 C1223 1.387 . S
C1222 H1226 0.950 . S
C1222 C1231 1.390 . S
C1223 C1222 1.387 . S
C1223 C1225 1.387 . S
H1224 C1231 0.950 . S
C1225 C1223 1.387 . S
C1225 C1227 1.390 . S
C1225 H1229 0.950 . S
H1226 C1222 0.950 . S
C1227 C1225 1.390 . S
C1227 C1228 1.387 . S
C1227 H1230 0.950 . S
C1228 C1227 1.387 . S
C1228 C1231 1.387 . S
H1229 C1225 0.950 . S
H1230 C1227 0.950 . S
C1231 C1222 1.390 . S
C1231 H1224 0.950 . S
C1231 C1228 1.387 . S
C1232 C1233 1.387 . S
C1232 H1236 0.950 . S
C1232 C1241 1.390 . S
C1233 C1232 1.387 . S
C1233 C1235 1.387 . S
H1234 C1241 0.950 . S
C1235 C1233 1.387 . S
C1235 C1237 1.390 . S
C1235 H1239 0.950 . S
H1236 C1232 0.950 . S
C1237 C1235 1.390 . S
C1237 C1238 1.387 . S
C1237 H1240 0.950 . S
C1238 C1237 1.387 . S
C1238 C1241 1.387 . S
H1239 C1235 0.950 . S
H1240 C1237 0.950 . S
C1241 C1232 1.390 . S
C1241 H1234 0.950 . S
C1241 C1238 1.387 . S
C1242 C1243 1.387 . S
C1242 H1246 0.950 . S
C1242 C1251 1.390 . S
C1243 C1242 1.387 . S
C1243 C1245 1.387 . S
H1244 C1251 0.950 1_556 S
C1245 C1243 1.387 . S
C1245 C1247 1.394 1_554 S
C1245 H1249 0.950 . S
H1246 C1242 0.950 . S
C1247 C1245 1.394 1_556 S
C1247 C1248 1.386 . S
C1247 H1250 0.948 . S
C1248 C1247 1.386 . S
C1248 C1251 1.387 1_556 S
H1249 C1245 0.950 . S
H1250 C1247 0.948 . S
C1251 C1242 1.390 . S
C1251 H1244 0.950 1_554 S
C1251 C1248 1.387 1_554 S
C1252 C1253 1.387 . S
C1252 H1256 0.950 . S
C1252 C1261 1.390 . S
C1253 C1252 1.387 . S
C1253 C1255 1.387 . S
H1254 C1261 0.950 . S
C1255 C1253 1.387 . S
C1255 C1257 1.390 . S
C1255 H1259 0.950 . S
H1256 C1252 0.950 . S
C1257 C1255 1.390 . S
C1257 C1258 1.387 . S
C1257 H1260 0.950 . S
C1258 C1257 1.387 . S
C1258 C1261 1.387 . S
H1259 C1255 0.950 . S
H1260 C1257 0.950 . S
C1261 C1252 1.390 . S
C1261 H1254 0.950 . S
C1261 C1258 1.387 . S
C1262 C1263 1.387 . S
C1262 H1266 0.950 . S
C1262 C1271 1.390 . S
C1263 C1262 1.387 . S
C1263 C1265 1.387 . S
H1264 C1271 0.950 . S
C1265 C1263 1.387 . S
C1265 C1267 1.390 . S
C1265 H1269 0.950 . S
H1266 C1262 0.950 . S
C1267 C1265 1.390 . S
C1267 C1268 1.387 . S
C1267 H1270 0.950 . S
C1268 C1267 1.387 . S
C1268 C1271 1.387 . S
H1269 C1265 0.950 . S
H1270 C1267 0.950 . S
C1271 C1262 1.390 . S
C1271 H1264 0.950 . S
C1271 C1268 1.387 . S
C1272 C1273 1.387 . S
C1272 H1276 0.950 . S
C1272 C1281 1.390 . S
C1273 C1272 1.387 . S
C1273 C1275 1.387 . S
H1274 C1281 0.950 . S
C1275 C1273 1.387 . S
C1275 C1277 1.390 . S
C1275 H1279 0.950 . S
H1276 C1272 0.950 . S
C1277 C1275 1.390 . S
C1277 C1278 1.387 . S
C1277 H1280 0.950 . S
C1278 C1277 1.387 . S
C1278 C1281 1.387 . S
H1279 C1275 0.950 . S
H1280 C1277 0.950 . S
C1281 C1272 1.390 . S
C1281 H1274 0.950 . S
C1281 C1278 1.387 . S
C1282 C1283 1.387 . S
C1282 H1286 0.950 . S
C1282 C1291 1.390 . S
C1283 C1282 1.387 . S
C1283 C1285 1.387 . S
H1284 C1291 0.950 1_554 S
C1285 C1283 1.387 . S
C1285 C1287 1.390 1_556 S
C1285 H1289 0.950 . S
H1286 C1282 0.950 . S
C1287 C1285 1.390 1_554 S
C1287 C1288 1.387 . S
C1287 H1290 0.950 . S
C1288 C1287 1.387 . S
C1288 C1291 1.387 1_554 S
H1289 C1285 0.950 . S
H1290 C1287 0.950 . S
C1291 C1282 1.390 . S
C1291 H1284 0.950 1_556 S
C1291 C1288 1.387 1_556 S
C1292 C1293 1.387 . S
C1292 H1296 0.950 . S
C1292 C1301 1.390 . S
C1293 C1292 1.387 . S
C1293 C1295 1.387 . S
H1294 C1301 0.950 . S
C1295 C1293 1.387 . S
C1295 C1297 1.390 . S
C1295 H1299 0.950 . S
H1296 C1292 0.950 . S
C1297 C1295 1.390 . S
C1297 C1298 1.387 . S
C1297 H1300 0.950 . S
C1298 C1297 1.387 . S
C1298 C1301 1.387 . S
H1299 C1295 0.950 . S
H1300 C1297 0.950 . S
C1301 C1292 1.390 . S
C1301 H1294 0.950 . S
C1301 C1298 1.387 . S
C1302 C1303 1.387 . S
C1302 H1306 0.950 . S
C1302 C1311 1.390 . S
C1303 C1302 1.387 . S
C1303 C1305 1.387 . S
H1304 C1311 0.950 . S
C1305 C1303 1.387 . S
C1305 C1307 1.390 . S
C1305 H1309 0.950 . S
H1306 C1302 0.950 . S
C1307 C1305 1.390 . S
C1307 C1308 1.387 . S
C1307 H1310 0.950 . S
C1308 C1307 1.387 . S
C1308 C1311 1.387 . S
H1309 C1305 0.950 . S
H1310 C1307 0.950 . S
C1311 C1302 1.390 . S
C1311 H1304 0.950 . S
C1311 C1308 1.387 . S
C1312 C1313 1.387 . S
C1312 H1316 0.950 . S
C1312 C1321 1.390 . S
C1313 C1312 1.387 . S
C1313 C1315 1.387 . S
H1314 C1321 0.950 . S
C1315 C1313 1.387 . S
C1315 C1317 1.390 . S
C1315 H1319 0.950 . S
H1316 C1312 0.950 . S
C1317 C1315 1.390 . S
C1317 C1318 1.387 . S
C1317 H1320 0.950 . S
C1318 C1317 1.387 . S
C1318 C1321 1.387 . S
H1319 C1315 0.950 . S
H1320 C1317 0.950 . S
C1321 C1312 1.390 . S
C1321 H1314 0.950 . S
C1321 C1318 1.387 . S
C1322 C1323 1.387 . S
C1322 H1326 0.950 . S
C1322 C1331 1.390 . S
C1323 C1322 1.387 . S
C1323 C1325 1.387 . S
H1324 C1331 0.950 . S
C1325 C1323 1.387 . S
C1325 C1327 1.390 . S
C1325 H1329 0.950 . S
H1326 C1322 0.950 . S
C1327 C1325 1.390 . S
C1327 C1328 1.387 . S
C1327 H1330 0.950 . S
C1328 C1327 1.387 . S
C1328 C1331 1.387 . S
H1329 C1325 0.950 . S
H1330 C1327 0.950 . S
C1331 C1322 1.390 . S
C1331 H1324 0.950 . S
C1331 C1328 1.387 . S
C1332 C1333 1.387 . S
C1332 H1336 0.950 . S
C1332 C1341 1.390 . S
C1333 C1332 1.387 . S
C1333 C1335 1.387 . S
H1334 C1341 0.950 1_565 S
C1335 C1333 1.387 . S
C1335 C1337 1.390 . S
C1335 H1339 0.950 . S
H1336 C1332 0.950 . S
C1337 C1335 1.390 . S
C1337 C1338 1.387 1_545 S
C1337 H1340 0.950 1_545 S
C1338 C1337 1.387 1_565 S
C1338 C1341 1.387 1_565 S
H1339 C1335 0.950 . S
H1340 C1337 0.950 1_565 S
C1341 C1332 1.390 . S
C1341 H1334 0.950 1_545 S
C1341 C1338 1.387 1_545 S
C1342 C1343 1.387 . S
C1342 H1346 0.950 . S
C1342 C1351 1.390 . S
C1343 C1342 1.387 . S
C1343 C1345 1.387 . S
H1344 C1351 0.950 . S
C1345 C1343 1.387 . S
C1345 C1347 1.390 . S
C1345 H1349 0.950 . S
H1346 C1342 0.950 . S
C1347 C1345 1.390 . S
C1347 C1348 1.387 . S
C1347 H1350 0.950 . S
C1348 C1347 1.387 . S
C1348 C1351 1.387 . S
H1349 C1345 0.950 . S
H1350 C1347 0.950 . S
C1351 C1342 1.390 . S
C1351 H1344 0.950 . S
C1351 C1348 1.387 . S
C1352 C1353 1.387 . S
C1352 H1356 0.950 . S
C1352 C1361 1.390 . S
C1353 C1352 1.387 . S
C1353 C1355 1.387 . S
H1354 C1361 0.950 . S
C1355 C1353 1.387 . S
C1355 C1357 1.390 . S
C1355 H1359 0.950 . S
H1356 C1352 0.950 . S
C1357 C1355 1.390 . S
C1357 C1358 1.387 . S
C1357 H1360 0.950 . S
C1358 C1357 1.387 . S
C1358 C1361 1.387 . S
H1359 C1355 0.950 . S
H1360 C1357 0.950 . S
C1361 C1352 1.390 . S
C1361 H1354 0.950 . S
C1361 C1358 1.387 . S
C1362 C1363 1.387 . S
C1362 H1366 0.950 . S
C1362 C1371 1.390 . S
C1363 C1362 1.387 . S
C1363 C1365 1.387 . S
H1364 C1371 0.950 . S
C1365 C1363 1.387 . S
C1365 C1367 1.390 . S
C1365 H1369 0.950 . S
H1366 C1362 0.950 . S
C1367 C1365 1.390 . S
C1367 C1368 1.387 . S
C1367 H1370 0.950 . S
C1368 C1367 1.387 . S
C1368 C1371 1.387 . S
H1369 C1365 0.950 . S
H1370 C1367 0.950 . S
C1371 C1362 1.390 . S
C1371 H1364 0.950 . S
C1371 C1368 1.387 . S
C1372 C1373 1.387 1_565 S
C1372 H1376 0.950 1_565 S
C1372 C1381 1.390 . S
C1373 C1372 1.387 1_545 S
C1373 C1375 1.387 1_545 S
H1374 C1381 0.950 . S
C1375 C1373 1.387 1_565 S
C1375 C1377 1.390 . S
C1375 H1379 0.950 1_565 S
H1376 C1372 0.950 1_545 S
C1377 C1375 1.390 . S
C1377 C1378 1.387 . S
C1377 H1380 0.950 . S
C1378 C1377 1.387 . S
C1378 C1381 1.387 . S
H1379 C1375 0.950 1_545 S
H1380 C1377 0.950 . S
C1381 C1372 1.390 . S
C1381 H1374 0.950 . S
C1381 C1378 1.387 . S
C1382 C1383 1.387 . S
C1382 H1386 0.950 . S
C1382 C1391 1.390 . S
C1383 C1382 1.387 . S
C1383 C1385 1.387 . S
H1384 C1391 0.950 1_565 S
C1385 C1383 1.387 . S
C1385 C1387 1.390 . S
C1385 H1389 0.950 . S
H1386 C1382 0.950 . S
C1387 C1385 1.390 . S
C1387 C1388 1.387 1_545 S
C1387 H1390 0.950 1_545 S
C1388 C1387 1.387 1_565 S
C1388 C1391 1.387 1_565 S
H1389 C1385 0.950 . S
H1390 C1387 0.950 1_565 S
C1391 C1382 1.390 . S
C1391 H1384 0.950 1_545 S
C1391 C1388 1.387 1_545 S
C1392 C1393 1.387 . S
C1392 H1396 0.950 . S
C1392 C1401 1.390 . S
C1393 C1392 1.387 . S
C1393 C1395 1.387 . S
H1394 C1401 0.950 . S
C1395 C1393 1.387 . S
C1395 C1397 1.390 . S
C1395 H1399 0.950 . S
H1396 C1392 0.950 . S
C1397 C1395 1.390 . S
C1397 C1398 1.387 . S
C1397 H1400 0.950 . S
C1398 C1397 1.387 . S
C1398 C1401 1.387 . S
H1399 C1395 0.950 . S
H1400 C1397 0.950 . S
C1401 C1392 1.390 . S
C1401 H1394 0.950 . S
C1401 C1398 1.387 . S
C1402 C1403 1.387 . S
C1402 H1406 0.950 . S
C1402 C1411 1.390 . S
C1403 C1402 1.387 . S
C1403 C1405 1.387 . S
H1404 C1411 0.950 . S
C1405 C1403 1.387 . S
C1405 C1407 1.390 . S
C1405 H1409 0.950 . S
H1406 C1402 0.950 . S
C1407 C1405 1.390 . S
C1407 C1408 1.387 . S
C1407 H1410 0.950 . S
C1408 C1407 1.387 . S
C1408 C1411 1.387 . S
H1409 C1405 0.950 . S
H1410 C1407 0.950 . S
C1411 C1402 1.390 . S
C1411 H1404 0.950 . S
C1411 C1408 1.387 . S
C1412 C1413 1.387 . S
C1412 H1416 0.950 . S
C1412 C1421 1.390 . S
C1413 C1412 1.387 . S
C1413 C1415 1.387 . S
H1414 C1421 0.950 . S
C1415 C1413 1.387 . S
C1415 C1417 1.390 . S
C1415 H1419 0.950 . S
H1416 C1412 0.950 . S
C1417 C1415 1.390 . S
C1417 C1418 1.387 . S
C1417 H1420 0.950 . S
C1418 C1417 1.387 . S
C1418 C1421 1.387 . S
H1419 C1415 0.950 . S
H1420 C1417 0.950 . S
C1421 C1412 1.390 . S
C1421 H1414 0.950 . S
C1421 C1418 1.387 . S
C1422 C1423 1.387 . S
C1422 H1426 0.950 . S
C1422 C1431 1.390 1_455 S
C1423 C1422 1.387 . S
C1423 C1425 1.387 1_455 S
H1424 C1431 0.950 . S
C1425 C1423 1.387 1_655 S
C1425 C1427 1.390 . S
C1425 H1429 0.950 1_655 S
H1426 C1422 0.950 . S
C1427 C1425 1.390 . S
C1427 C1428 1.387 . S
C1427 H1430 0.950 . S
C1428 C1427 1.387 . S
C1428 C1431 1.387 . S
H1429 C1425 0.950 1_455 S
H1430 C1427 0.950 . S
C1431 C1422 1.390 1_655 S
C1431 H1424 0.950 . S
C1431 C1428 1.387 . S
C1432 C1433 1.387 . S
C1432 H1436 0.950 . S
C1432 C1441 1.390 . S
C1433 C1432 1.387 . S
C1433 C1435 1.387 . S
H1434 C1441 0.950 . S
C1435 C1433 1.387 . S
C1435 C1437 1.390 . S
C1435 H1439 0.950 . S
H1436 C1432 0.950 . S
C1437 C1435 1.390 . S
C1437 C1438 1.387 . S
C1437 H1440 0.950 . S
C1438 C1437 1.387 . S
C1438 C1441 1.387 . S
H1439 C1435 0.950 . S
H1440 C1437 0.950 . S
C1441 C1432 1.390 . S
C1441 H1434 0.950 . S
C1441 C1438 1.387 . S
C1442 C1443 1.386 . S
C1442 H1446 0.949 . S
C1442 C1451 1.392 1_455 S
C1443 C1442 1.386 . S
C1443 C1445 1.387 . S
H1444 C1451 0.950 . S
C1445 C1443 1.387 . S
C1445 C1447 1.390 1_455 S
C1445 H1449 0.950 . S
H1446 C1442 0.949 . S
C1447 C1445 1.390 1_655 S
C1447 C1448 1.387 . S
C1447 H1450 0.950 . S
C1448 C1447 1.387 . S
C1448 C1451 1.387 . S
H1449 C1445 0.950 . S
H1450 C1447 0.950 . S
C1451 C1442 1.392 1_655 S
C1451 H1444 0.950 . S
C1451 C1448 1.387 . S
C1452 C1453 1.387 . S
C1452 H1456 0.950 . S
C1452 C1461 1.390 . S
C1453 C1452 1.387 . S
C1453 C1455 1.387 . S
H1454 C1461 0.950 . S
C1455 C1453 1.387 . S
C1455 C1457 1.390 . S
C1455 H1459 0.950 . S
H1456 C1452 0.950 . S
C1457 C1455 1.390 . S
C1457 C1458 1.387 . S
C1457 H1460 0.950 . S
C1458 C1457 1.387 . S
C1458 C1461 1.387 . S
H1459 C1455 0.950 . S
H1460 C1457 0.950 . S
C1461 C1452 1.390 . S
C1461 H1454 0.950 . S
C1461 C1458 1.387 . S
C1462 C1463 1.387 . S
C1462 H1466 0.950 . S
C1462 C1471 1.390 . S
C1463 C1462 1.387 . S
C1463 C1465 1.387 . S
H1464 C1471 0.950 . S
C1465 C1463 1.387 . S
C1465 C1467 1.390 . S
C1465 H1469 0.950 . S
H1466 C1462 0.950 . S
C1467 C1465 1.390 . S
C1467 C1468 1.387 . S
C1467 H1470 0.950 . S
C1468 C1467 1.387 . S
C1468 C1471 1.387 . S
H1469 C1465 0.950 . S
H1470 C1467 0.950 . S
C1471 C1462 1.390 . S
C1471 H1464 0.950 . S
C1471 C1468 1.387 . S
C1472 C1473 1.387 . S
C1472 H1476 0.950 . S
C1472 C1481 1.390 . S
C1473 C1472 1.387 . S
C1473 C1475 1.387 . S
H1474 C1481 0.950 . S
C1475 C1473 1.387 . S
C1475 C1477 1.390 . S
C1475 H1479 0.950 . S
H1476 C1472 0.950 . S
C1477 C1475 1.390 . S
C1477 C1478 1.387 . S
C1477 H1480 0.950 . S
C1478 C1477 1.387 . S
C1478 C1481 1.387 . S
H1479 C1475 0.950 . S
H1480 C1477 0.950 . S
C1481 C1472 1.390 . S
C1481 H1474 0.950 . S
C1481 C1478 1.387 . S
C1482 C1483 1.387 . S
C1482 H1486 0.950 . S
C1482 C1491 1.390 . S
C1483 C1482 1.387 . S
C1483 C1485 1.387 . S
H1484 C1491 0.950 . S
C1485 C1483 1.387 . S
C1485 C1487 1.383 1_556 S
C1485 H1489 0.950 . S
H1486 C1482 0.950 . S
C1487 C1485 1.383 1_554 S
C1487 C1488 1.390 . S
C1487 H1490 0.955 . S
C1488 C1487 1.390 . S
C1488 C1491 1.387 1_554 S
H1489 C1485 0.950 . S
H1490 C1487 0.955 . S
C1491 C1482 1.390 . S
C1491 H1484 0.950 . S
C1491 C1488 1.387 1_556 S
C1492 C1493 1.387 . S
C1492 H1496 0.950 . S
C1492 C1501 1.390 . S
C1493 C1492 1.387 . S
C1493 C1495 1.387 . S
H1494 C1501 0.950 . S
C1495 C1493 1.387 . S
C1495 C1497 1.390 . S
C1495 H1499 0.950 . S
H1496 C1492 0.950 . S
C1497 C1495 1.390 . S
C1497 C1498 1.387 . S
C1497 H1500 0.950 . S
C1498 C1497 1.387 . S
C1498 C1501 1.387 . S
H1499 C1495 0.950 . S
H1500 C1497 0.950 . S
C1501 C1492 1.390 . S
C1501 H1494 0.950 . S
C1501 C1498 1.387 . S
C1502 C1503 1.387 . S
C1502 H1506 0.950 . S
C1502 C1511 1.390 . S
C1503 C1502 1.387 . S
C1503 C1505 1.387 . S
H1504 C1511 0.950 . S
C1505 C1503 1.387 . S
C1505 C1507 1.390 . S
C1505 H1509 0.950 . S
H1506 C1502 0.950 . S
C1507 C1505 1.390 . S
C1507 C1508 1.387 . S
C1507 H1510 0.950 . S
C1508 C1507 1.387 . S
C1508 C1511 1.387 . S
H1509 C1505 0.950 . S
H1510 C1507 0.950 . S
C1511 C1502 1.390 . S
C1511 H1504 0.950 . S
C1511 C1508 1.387 . S
C1512 C1513 1.387 . S
C1512 H1516 0.950 . S
C1512 C1521 1.390 . S
C1513 C1512 1.387 . S
C1513 C1515 1.387 . S
H1514 C1521 0.950 . S
C1515 C1513 1.387 . S
C1515 C1517 1.390 . S
C1515 H1519 0.950 . S
H1516 C1512 0.950 . S
C1517 C1515 1.390 . S
C1517 C1518 1.387 . S
C1517 H1520 0.950 . S
C1518 C1517 1.387 . S
C1518 C1521 1.387 . S
H1519 C1515 0.950 . S
H1520 C1517 0.950 . S
C1521 C1512 1.390 . S
C1521 H1514 0.950 . S
C1521 C1518 1.387 . S
C1522 C1523 1.387 . S
C1522 H1526 0.950 . S
C1522 C1531 1.390 . S
C1523 C1522 1.387 . S
C1523 C1525 1.387 . S
H1524 C1531 0.950 1_556 S
C1525 C1523 1.387 . S
C1525 C1527 1.390 . S
C1525 H1529 0.950 . S
H1526 C1522 0.950 . S
C1527 C1525 1.390 . S
C1527 C1528 1.387 1_554 S
C1527 H1530 0.950 1_554 S
C1528 C1527 1.387 1_556 S
C1528 C1531 1.387 1_556 S
H1529 C1525 0.950 . S
H1530 C1527 0.950 1_556 S
C1531 C1522 1.390 . S
C1531 H1524 0.950 1_554 S
C1531 C1528 1.387 1_554 S
C1532 C1533 1.387 . S
C1532 H1536 0.950 . S
C1532 C1541 1.390 . S
C1533 C1532 1.387 . S
C1533 C1535 1.387 . S
H1534 C1541 0.950 . S
C1535 C1533 1.387 . S
C1535 C1537 1.390 . S
C1535 H1539 0.950 . S
H1536 C1532 0.950 . S
C1537 C1535 1.390 . S
C1537 C1538 1.387 . S
C1537 H1540 0.950 . S
C1538 C1537 1.387 . S
C1538 C1541 1.387 . S
H1539 C1535 0.950 . S
H1540 C1537 0.950 . S
C1541 C1532 1.390 . S
C1541 H1534 0.950 . S
C1541 C1538 1.387 . S
C1542 C1543 1.387 . S
C1542 H1546 0.950 . S
C1542 C1551 1.390 . S
C1543 C1542 1.387 . S
C1543 C1545 1.387 . S
H1544 C1551 0.950 . S
C1545 C1543 1.387 . S
C1545 C1547 1.390 . S
C1545 H1549 0.950 . S
H1546 C1542 0.950 . S
C1547 C1545 1.390 . S
C1547 C1548 1.387 . S
C1547 H1550 0.950 . S
C1548 C1547 1.387 . S
C1548 C1551 1.387 . S
H1549 C1545 0.950 . S
H1550 C1547 0.950 . S
C1551 C1542 1.390 . S
C1551 H1544 0.950 . S
C1551 C1548 1.387 . S
C1552 C1553 1.387 . S
C1552 H1556 0.950 . S
C1552 C1561 1.390 . S
C1553 C1552 1.387 . S
C1553 C1555 1.387 . S
H1554 C1561 0.950 . S
C1555 C1553 1.387 . S
C1555 C1557 1.390 . S
C1555 H1559 0.950 . S
H1556 C1552 0.950 . S
C1557 C1555 1.390 . S
C1557 C1558 1.387 . S
C1557 H1560 0.950 . S
C1558 C1557 1.387 . S
C1558 C1561 1.387 . S
H1559 C1555 0.950 . S
H1560 C1557 0.950 . S
C1561 C1552 1.390 . S
C1561 H1554 0.950 . S
C1561 C1558 1.387 . S
C1562 C1563 1.387 . S
C1562 H1566 0.950 . S
C1562 C1571 1.390 . S
C1563 C1562 1.387 . S
C1563 C1565 1.387 . S
H1564 C1571 0.950 . S
C1565 C1563 1.387 . S
C1565 C1567 1.390 . S
C1565 H1569 0.950 . S
H1566 C1562 0.950 . S
C1567 C1565 1.390 . S
C1567 C1568 1.387 . S
C1567 H1570 0.950 . S
C1568 C1567 1.387 . S
C1568 C1571 1.387 . S
H1569 C1565 0.950 . S
H1570 C1567 0.950 . S
C1571 C1562 1.390 . S
C1571 H1564 0.950 . S
C1571 C1568 1.387 . S
C1572 C1573 1.387 . S
C1572 H1576 0.950 . S
C1572 C1581 1.390 . S
C1573 C1572 1.387 . S
C1573 C1575 1.387 . S
H1574 C1581 0.950 1_545 S
C1575 C1573 1.387 . S
C1575 C1577 1.407 . S
C1575 H1579 0.950 . S
H1576 C1572 0.950 . S
C1577 C1575 1.407 . S
C1577 C1578 1.381 1_565 S
C1577 H1580 0.940 1_565 S
C1578 C1577 1.381 1_545 S
C1578 C1581 1.387 1_545 S
H1579 C1575 0.950 . S
H1580 C1577 0.940 1_545 S
C1581 C1572 1.390 . S
C1581 H1574 0.950 1_565 S
C1581 C1578 1.387 1_565 S
C1582 C1583 1.387 . S
C1582 H1586 0.950 . S
C1582 C1591 1.390 . S
C1583 C1582 1.387 . S
C1583 C1585 1.387 . S
H1584 C1591 0.950 . S
C1585 C1583 1.387 . S
C1585 C1587 1.390 . S
C1585 H1589 0.950 . S
H1586 C1582 0.950 . S
C1587 C1585 1.390 . S
C1587 C1588 1.387 . S
C1587 H1590 0.950 . S
C1588 C1587 1.387 . S
C1588 C1591 1.387 . S
H1589 C1585 0.950 . S
H1590 C1587 0.950 . S
C1591 C1582 1.390 . S
C1591 H1584 0.950 . S
C1591 C1588 1.387 . S
C1592 C1593 1.387 . S
C1592 H1596 0.950 . S
C1592 C1601 1.390 . S
C1593 C1592 1.387 . S
C1593 C1595 1.387 . S
H1594 C1601 0.950 . S
C1595 C1593 1.387 . S
C1595 C1597 1.390 . S
C1595 H1599 0.950 . S
H1596 C1592 0.950 . S
C1597 C1595 1.390 . S
C1597 C1598 1.387 . S
C1597 H1600 0.950 . S
C1598 C1597 1.387 . S
C1598 C1601 1.387 . S
H1599 C1595 0.950 . S
H1600 C1597 0.950 . S
C1601 C1592 1.390 . S
C1601 H1594 0.950 . S
C1601 C1598 1.387 . S
C1602 C1603 1.387 . S
C1602 H1606 0.950 . S
C1602 C1611 1.390 . S
C1603 C1602 1.387 . S
C1603 C1605 1.387 . S
H1604 C1611 0.950 . S
C1605 C1603 1.387 . S
C1605 C1607 1.390 . S
C1605 H1609 0.950 . S
H1606 C1602 0.950 . S
C1607 C1605 1.390 . S
C1607 C1608 1.387 . S
C1607 H1610 0.950 . S
C1608 C1607 1.387 . S
C1608 C1611 1.387 . S
H1609 C1605 0.950 . S
H1610 C1607 0.950 . S
C1611 C1602 1.390 . S
C1611 H1604 0.950 . S
C1611 C1608 1.387 . S
C1612 C1613 1.387 . S
C1612 H1616 0.950 . S
C1612 C1621 1.390 1_565 S
C1613 C1612 1.387 . S
C1613 C1615 1.387 1_565 S
H1614 C1621 0.950 . S
C1615 C1613 1.387 1_545 S
C1615 C1617 1.390 . S
C1615 H1619 0.956 . S
H1616 C1612 0.950 . S
C1617 C1615 1.390 . S
C1617 C1618 1.387 . S
C1617 H1620 0.950 . S
C1618 C1617 1.387 . S
C1618 C1621 1.387 . S
H1619 C1615 0.956 . S
H1620 C1617 0.950 . S
C1621 C1612 1.390 1_545 S
C1621 H1614 0.950 . S
C1621 C1618 1.387 . S
C1622 C1623 1.387 . S
C1622 H1626 0.950 . S
C1622 C1631 1.390 1_565 S
C1623 C1622 1.387 . S
C1623 C1625 1.387 . S
H1624 C1631 0.950 . S
C1625 C1623 1.387 . S
C1625 C1627 1.390 . S
C1625 H1629 0.950 . S
H1626 C1622 0.950 . S
C1627 C1625 1.390 . S
C1627 C1628 1.387 1_565 S
C1627 H1630 0.950 1_565 S
C1628 C1627 1.387 1_545 S
C1628 C1631 1.387 . S
H1629 C1625 0.950 . S
H1630 C1627 0.950 1_545 S
C1631 C1622 1.390 1_545 S
C1631 H1624 0.950 . S
C1631 C1628 1.387 . S
C673 C591 1.419 . S
C678 C3 1.447 . S
C683 C23 1.453 . S
C688 C217 1.449 . S
C693 C31 1.440 . S
C698 C563 1.413 . S
C703 C51 1.446 . S
C708 C245 1.442 . S
C713 C623 1.439 . S
C718 C63 1.408 . S
C723 C78 1.440 . S
C728 C297 1.425 . S
C733 C91 1.407 . S
C738 C651 1.438 . S
C743 C106 1.416 . S
C748 C269 1.401 . S
C753 C50 1.421 . S
C758 C661 1.403 . S
C763 C7 1.403 . S
C768 C357 1.435 . S
C773 C371 1.435 . S
C778 C22 1.430 . S
C783 C35 1.395 . S
C788 C339 1.407 . S
C793 C79 1.474 . S
C798 C343 1.468 . S
C803 C87 1.442 . S
C808 C665 1.438 . S
C813 C107 1.468 . S
C818 C353 1.438 . S
C823 C59 1.449 . S
C828 C367 1.420 . S
C833 C549 1.418 . S
C838 C120 1.431 . S
C843 C134 1.415 . S
C848 C273 1.421 . S
C853 C121 1.445 . S
C858 C619 1.415 . S
C863 C301 1.461 . S
C868 C149 1.468 . S
C873 C311 1.410 . S
C878 C162 1.427 . S
C883 C577 1.440 . S
C888 C177 1.462 . S
C893 C595 1.457 . S
C898 C191 1.463 . S
C903 C567 1.468 . S
C908 C205 1.475 . S
C913 C465 1.380 . S
C918 C218 1.393 . S
C923 C233 1.449 . S
C928 C9 1.398 . S
C933 C246 1.401 . S
C938 C437 1.389 . S
C943 C37 1.407 . S
C948 C261 1.460 . S
C953 C275 1.414 . S
C958 C497 1.407 . S
C963 C92 1.426 . S
C968 C288 1.420 . S
C973 C303 1.411 . S
C978 C525 1.405 . S
C983 C64 1.444 . S
C988 C316 1.439 . S
C993 C535 1.398 . S
C998 C260 1.409 . S
C1003 C219 1.425 . S
C1008 C143 1.406 . S
C1013 C161 1.410 . S
C1018 C232 1.408 . S
C1023 C133 1.425 . S
C1028 C247 1.432 . S
C1033 C129 1.428 . S
C1038 C289 1.452 . S
C1043 C302 1.384 . S
C1048 C539 1.387 . S
C1053 C147 1.448 . S
C1058 C317 1.454 . S
C1063 C274 1.374 . S
C1068 C157 1.364 . S
C1073 C330 1.421 . S
C1078 C428 1.426 . S
C1083 C345 1.475 . S
C1088 C65 1.418 . S
C1093 C331 1.435 . S
C1098 C493 1.416 . S
C1103 C358 1.444 . S
C1108 C93 1.403 . S
C1113 C372 1.408 . S
C1118 C101 1.399 . S
C1123 C456 1.441 . S
C1128 C387 1.448 . S
C1133 C401 1.435 . S
C1138 C469 1.429 . S
C1143 C415 1.448 . S
C1148 C441 1.441 . S
C1153 C423 1.449 . S
C1158 C255 1.420 . S
C1163 C443 1.447 . S
C1168 C553 1.442 . S
C1173 C227 1.410 . S
C1178 C451 1.437 . S
C1183 C471 1.452 . S
C1188 C581 1.447 . S
C1193 C483 1.410 . S
C1198 C287 1.440 . S
C1203 C633 1.404 . S
C1208 C498 1.418 . S
C1213 C511 1.399 . S
C1218 C315 1.432 . S
C1223 C605 1.404 . S
C1228 C526 1.419 . S
C1233 C325 1.404 . S
C1238 C470 1.423 . S
C1243 C413 1.432 . S
C1248 C427 1.402 . S
C1253 C442 1.429 . S
C1258 C385 1.435 . S
C1263 C399 1.432 . S
C1268 C455 1.397 . S
C1273 C499 1.469 . S
C1278 C395 1.433 . S
C1283 C329 1.438 . S
C1288 C507 1.444 . S
C1293 C527 1.465 . S
C1298 C409 1.434 . S
C1303 C479 1.443 . S
C1308 C381 1.418 . S
C1313 C540 1.425 . S
C1318 C213 1.412 . S
C1323 C190 1.412 . S
C1328 C609 1.418 . S
C1333 C283 1.418 . S
C1338 C541 1.448 . S
C1343 C637 1.431 . S
C1348 C204 1.425 . S
C1353 C647 1.399 . S
C1358 C176 1.417 . S
C1363 C163 1.462 . S
C1368 C241 1.440 . S
C1373 C135 1.471 . S
C1378 C259 1.465 . S
C1383 C231 1.446 . S
C1388 C148 1.440 . S
C1393 C554 1.391 . S
C1398 C45 1.379 . S
C1403 C429 1.404 . S
C1408 C569 1.454 . S
C1413 C582 1.402 . S
C1418 C17 1.390 . S
C1423 C597 1.453 . S
C1428 C457 1.402 . S
C1433 C77 1.400 . S
C1438 C611 1.406 . S
C1443 C624 1.423 . S
C1448 C512 1.429 . S
C1453 C639 1.411 . S
C1458 C105 1.405 . S
C1463 C484 1.425 . S
C1468 C652 1.419 . S
C1473 C596 1.410 . S
C1478 C115 1.400 . S
C1483 C203 1.423 . S
C1488 C555 1.429 . S
C1493 C175 1.412 . S
C1498 C568 1.409 . S
C1503 C583 1.430 . S
C1508 C189 1.422 . S
C1513 C625 1.449 . S
C1518 C185 1.423 . S
C1523 C119 1.381 . S
C1528 C638 1.379 . S
C1533 C199 1.427 . S
C1538 C653 1.449 . S
C1543 C610 1.375 . S
C1548 C171 1.363 . S
C1553 C8 1.425 . S
C1558 C666 1.420 . S
C1563 C400 1.432 . S
C1568 C485 1.392 . S
C1573 C73 1.430 . S
C1578 C667 1.447 . S
C1583 C513 1.398 . S
C1588 C414 1.439 . S
C1593 C521 1.396 . S
C1598 C386 1.405 . S
C1603 C373 1.440 . S
C1608 C36 1.435 . S
C1613 C344 1.403 . S
C1618 C49 1.407 . S
C1623 C21 1.449 . S
C1628 C359 1.457 . S
