# Generated by pormake.
# Topology rob, (6)-cn, num edge types: 1
# Building blocks:
#     Node 0, Type 0, BuildingBlock: FUNLAD_clean_sbu_0, # of connection points: 6
#     Node 1, Type 0, BuildingBlock: FUNLAD_clean_sbu_0, # of connection points: 6
#     Node 2, Type 0, BuildingBlock: FUNLAD_clean_sbu_0, # of connection points: 6
#     Node 3, Type 0, BuildingBlock: FUNLAD_clean_sbu_0, # of connection points: 6
#     Edge 4, Type (0, 0), BuildingBlock: MIFKUJ_clean_linker_0, # of connection points: 2
#     Edge 5, Type (0, 0), BuildingBlock: MIFKUJ_clean_linker_0, # of connection points: 2
#     Edge 6, Type (0, 0), BuildingBlock: MIFKUJ_clean_linker_0, # of connection points: 2
#     Edge 7, Type (0, 0), BuildingBlock: MIFKUJ_clean_linker_0, # of connection points: 2
#     Edge 8, Type (0, 0), BuildingBlock: MIFKUJ_clean_linker_0, # of connection points: 2
#     Edge 9, Type (0, 0), BuildingBlock: MIFKUJ_clean_linker_0, # of connection points: 2
#     Edge 10, Type (0, 0), BuildingBlock: MIFKUJ_clean_linker_0, # of connection points: 2
#     Edge 11, Type (0, 0), BuildingBlock: MIFKUJ_clean_linker_0, # of connection points: 2
#     Edge 12, Type (0, 0), BuildingBlock: MIFKUJ_clean_linker_0, # of connection points: 2
#     Edge 13, Type (0, 0), BuildingBlock: MIFKUJ_clean_linker_0, # of connection points: 2
#     Edge 14, Type (0, 0), BuildingBlock: MIFKUJ_clean_linker_0, # of connection points: 2
#     Edge 15, Type (0, 0), BuildingBlock: MIFKUJ_clean_linker_0, # of connection points: 2
# Relax obj value: 0.164
# Max RMSD: 0.167
# Mean RMSD: 0.167
data_MOF--net-rob--node1-FUNLAD_clean_sbu_0--edge1-MIFKUJ_clean_linker_0
_symmetry_space_group_name_H-M    P1
_symmetry_Int_Tables_number       1
_symmetry_cell_setting            triclinic
loop_
_symmetry_equiv_pos_as_xyz
'x, y, z'
_cell_length_a     20.479899
_cell_length_b     48.335994
_cell_length_c     30.491662
_cell_angle_alpha  91.669045
_cell_angle_beta   89.814236
_cell_angle_gamma 90.012125
loop_
_atom_site_label
_atom_site_type_symbol
_atom_site_fract_x
_atom_site_fract_y
_atom_site_fract_z
_atom_type_partial_charge
C0 C 0.28424 0.24896 0.90181 0.0
N1 N 0.30426 0.3224 0.97677 0.0
C2 C 0.36724 0.32491 0.96303 0.0
C3 C 0.39603 0.351 0.96042 0.0
C4 C 0.35931 0.37472 0.97134 0.0
C5 C 0.2941 0.37161 0.98459 0.0
C6 C 0.26755 0.3451 0.98744 0.0
Zn7 Zn 0.26525 0.2837 0.98295 0.0
C8 C 0.12846 0.28011 0.9541 0.0
N9 N 0.18781 0.2022 -0.00421 0.0
C10 C 0.22401 0.1795 0.98429 0.0
C11 C 0.12567 0.19968 0.01115 0.0
C12 C 0.09731 0.17358 0.01484 0.0
C13 C 0.13355 0.14984 0.00321 0.0
C14 C 0.19784 0.15298 -0.01194 0.0
Zn15 Zn 0.22669 0.24086 -0.01067 0.0
O16 O 0.29523 0.27275 0.91903 0.0
C17 C 0.36386 0.24441 0.01805 0.0
O18 O 0.25574 0.2307 0.92415 0.0
H19 H 0.09789 0.21796 0.02043 0.0
H20 H 0.39546 0.30665 0.95437 0.0
H21 H 0.27314 0.18195 0.9719 0.0
O22 O 0.35479 0.26942 0.00794 0.0
O23 O 0.31748 0.22713 0.01339 0.0
H24 H 0.21778 0.34266 -0.00138 0.0
O25 O 0.19813 0.25179 0.05419 0.0
O26 O 0.23417 0.29423 0.04688 0.0
O27 O 0.13672 0.25522 0.9652 0.0
O28 O 0.17533 0.29719 0.95806 0.0
C29 C 0.20701 0.2761 0.07008 0.0
H30 H 0.44633 0.35264 0.94972 0.0
H31 H 0.26448 0.38946 -0.00639 0.0
H32 H 0.04775 0.17196 0.02703 0.0
H33 H 0.2271 0.13514 0.9784 0.0
C34 C 0.87116 0.74289 0.95382 0.0
N35 N 0.80838 0.82223 -0.00504 0.0
C36 C 0.87109 0.82635 0.00818 0.0
C37 C 0.89697 0.85307 0.01138 0.0
C38 C 0.85767 0.87597 0.00169 0.0
C39 C 0.79273 0.87102 -0.01124 0.0
C40 C 0.76927 0.84393 0.98518 0.0
Zn41 Zn 0.77211 0.78279 -0.01088 0.0
C42 C 0.71421 0.77127 0.90226 0.0
N43 N 0.69664 0.70035 0.97765 0.0
C44 C 0.73465 0.67843 -0.01199 0.0
C45 C 0.63394 0.69665 0.96411 0.0
C46 C 0.6068 0.67017 0.96134 0.0
C47 C 0.64478 0.64705 0.97185 0.0
C48 C 0.70983 0.65152 0.98497 0.0
Zn49 Zn 0.73348 0.73968 0.98345 0.0
O50 O 0.86285 0.76824 0.9646 0.0
C51 C 0.7905 0.75181 0.07061 0.0
O52 O 0.82436 0.72596 0.95844 0.0
H53 H 0.60453 0.71432 0.95585 0.0
H54 H 0.90141 0.80887 0.01597 0.0
H55 H 0.78434 0.68179 -0.0012 0.0
O56 O 0.80061 0.775 0.05325 0.0
O57 O 0.764 0.7323 0.04821 0.0
H58 H 0.71962 0.84027 0.97455 0.0
O59 O 0.64348 0.75403 0.00864 0.0
O60 O 0.68081 0.79649 0.01378 0.0
O61 O 0.70316 0.74792 0.91897 0.0
O62 O 0.7427 0.79012 0.92487 0.0
C63 C 0.63468 0.77935 0.01918 0.0
H64 H 0.94761 0.85561 0.02071 0.0
H65 H 0.75992 0.88785 0.98172 0.0
H66 H 0.55616 0.668 0.9518 0.0
H67 H 0.7416 0.63445 -0.00735 0.0
C68 C 0.36728 0.78221 0.52091 0.0
N69 N 0.30921 0.7034 0.47484 0.0
C70 C 0.37232 0.70028 0.46143 0.0
C71 C 0.40065 0.674 0.45848 0.0
C72 C 0.36327 0.65072 0.46865 0.0
C73 C 0.29792 0.65441 0.48142 0.0
C74 C 0.2719 0.68109 0.4847 0.0
Zn75 Zn 0.27052 0.74231 0.48256 0.0
C76 C 0.21128 0.75117 0.57086 0.0
N77 N 0.19133 0.8238 0.50018 0.0
C78 C 0.22875 0.84613 0.49063 0.0
C79 C 0.12805 0.82687 0.51325 0.0
C80 C 0.09967 0.85313 0.51615 0.0
C81 C 0.13713 0.87645 0.50628 0.0
C82 C 0.20264 0.8728 0.49386 0.0
Zn83 Zn 0.23004 0.78489 0.4925 0.0
O84 O 0.36041 0.75722 0.50765 0.0
C85 C 0.29007 0.77616 0.40447 0.0
O86 O 0.3194 0.79877 0.51856 0.0
H87 H 0.09923 0.8089 0.52097 0.0
H88 H 0.40106 0.71823 0.45347 0.0
H89 H 0.27871 0.84325 0.47988 0.0
O90 O 0.29951 0.752 0.41855 0.0
O91 O 0.26226 0.79434 0.42895 0.0
H92 H 0.22208 0.684 0.49575 0.0
O93 O 0.14088 0.77027 0.46652 0.0
O94 O 0.17982 0.72821 0.45753 0.0
O95 O 0.199 0.77487 0.55588 0.0
O96 O 0.241 0.73326 0.5469 0.0
C97 C 0.13272 0.74514 0.4545 0.0
H98 H 0.45114 0.67188 0.44824 0.0
H99 H 0.26783 0.63691 0.4899 0.0
H100 H 0.04906 0.85521 0.52615 0.0
H101 H 0.23281 0.89032 0.48561 0.0
C102 C 0.78514 0.27492 0.57217 0.0
N103 N 0.80459 0.20252 0.49379 0.0
C104 C 0.86687 0.19947 0.50824 0.0
C105 C 0.89447 0.17317 0.51089 0.0
C106 C 0.85738 0.14959 0.4993 0.0
C107 C 0.7928 0.15342 0.48507 0.0
C108 C 0.76751 0.18014 0.48222 0.0
Zn109 Zn 0.76679 0.24152 0.4892 0.0
C110 C 0.6293 0.24484 0.51809 0.0
N111 N 0.69119 0.3237 0.48097 0.0
C112 C 0.72876 0.34596 0.49238 0.0
C113 C 0.62879 0.32695 0.46686 0.0
C114 C 0.60161 0.35335 0.46436 0.0
C115 C 0.63923 0.37681 0.4758 0.0
C116 C 0.70389 0.37276 0.4897 0.0
Zn117 Zn 0.72876 0.28462 0.48547 0.0
O118 O 0.79514 0.25109 0.55464 0.0
C119 C 0.86601 0.28102 0.45603 0.0
O120 O 0.75805 0.29355 0.55005 0.0
H121 H 0.59974 0.30902 0.45778 0.0
H122 H 0.89552 0.21749 0.51748 0.0
H123 H 0.77822 0.34297 0.5036 0.0
O124 O 0.85715 0.25588 0.46549 0.0
O125 O 0.81968 0.29822 0.46172 0.0
H126 H 0.71812 0.18299 0.47075 0.0
O127 O 0.70074 0.27531 0.42083 0.0
O128 O 0.73761 0.23271 0.42372 0.0
O129 O 0.63803 0.27011 0.50923 0.0
O130 O 0.67597 0.22781 0.51253 0.0
C131 C 0.71097 0.25183 0.40229 0.0
H132 H 0.94474 0.17147 0.52133 0.0
H133 H 0.7617 0.136 0.47652 0.0
H134 H 0.55127 0.35523 0.45417 0.0
H135 H 0.73538 0.39009 0.49812 0.0
H136 H 0.67109 0.6035 0.02521 0.0
H137 H 0.62437 0.55704 0.02161 0.0
H138 H 0.5047 0.57968 0.9124 0.0
H139 H 0.55367 0.62577 0.91382 0.0
H140 H 0.43847 0.5526 0.98735 0.0
H141 H 0.62008 0.54198 0.88652 0.0
H142 H 0.73587 0.54534 0.86494 0.0
H143 H 0.78941 0.49167 0.96867 0.0
H144 H 0.67395 0.48833 -0.00869 0.0
H145 H 0.31143 0.42025 0.93157 0.0
H146 H 0.36073 0.46631 0.92929 0.0
H147 H 0.5227 0.4381 0.00651 0.0
H148 H 0.47467 0.39175 0.00722 0.0
H149 H 0.56788 0.46887 0.94678 0.0
H150 H 0.39361 0.47915 0.05047 0.0
H151 H 0.28063 0.47617 0.07813 0.0
H152 H 0.21604 0.53059 0.97825 0.0
H153 H 0.32856 0.5336 0.94959 0.0
C154 C 0.63584 0.59859 -0.00022 0.0
C155 C 0.61645 0.61859 0.96974 0.0
C156 C 0.60879 0.57204 -0.00191 0.0
C157 C 0.5612 0.56504 0.96677 0.0
C158 C 0.54121 0.58483 0.93695 0.0
C159 C 0.56903 0.61124 0.93808 0.0
C160 C 0.53184 0.53709 0.9655 0.0
C161 C 0.46628 0.53426 0.97788 0.0
C162 C 0.56907 0.51326 0.95459 0.0
C163 C 0.63845 0.51515 0.94089 0.0
C164 C 0.65661 0.53111 0.905 0.0
C165 C 0.72217 0.53297 0.89251 0.0
C166 C 0.76999 0.51879 0.9155 0.0
C167 C 0.75232 0.50267 0.95094 0.0
C168 C 0.68682 0.50078 0.96359 0.0
C169 C 0.35752 0.42397 0.94805 0.0
C170 C 0.38922 0.40255 0.96969 0.0
C171 C 0.38556 0.4503 0.94692 0.0
C172 C 0.44496 0.4559 0.96842 0.0
C173 C 0.47691 0.43436 -0.01033 0.0
C174 C 0.44946 0.4079 -0.00989 0.0
C175 C 0.47394 0.48413 0.96868 0.0
C176 C 0.53963 0.48709 0.95619 0.0
C177 C 0.43711 0.50807 0.98041 0.0
C178 C 0.36941 0.50637 -0.00239 0.0
C179 C 0.35523 0.49032 0.0342 0.0
C180 C 0.29129 0.48865 0.05009 0.0
C181 C 0.24116 0.50312 0.02989 0.0
C182 C 0.25491 0.51935 -0.00618 0.0
C183 C 0.31876 0.52107 0.97776 0.0
H184 H 0.19169 0.5018 0.04224 0.0
H185 H 0.82072 0.52025 0.90577 0.0
H186 H 0.31665 0.6042 0.42684 0.0
H187 H 0.36432 0.55775 0.42567 0.0
H188 H 0.52227 0.58767 0.50769 0.0
H189 H 0.4761 0.63437 0.50711 0.0
H190 H 0.57012 0.55427 0.45008 0.0
H191 H 0.38761 0.54911 0.54749 0.0
H192 H 0.27282 0.55394 0.57114 0.0
H193 H 0.21361 0.49632 0.46903 0.0
H194 H 0.32801 0.49144 0.44437 0.0
H195 H 0.66348 0.422 0.53027 0.0
H196 H 0.61814 0.46853 0.52593 0.0
H197 H 0.50322 0.44257 0.414 0.0
H198 H 0.55076 0.3963 0.41634 0.0
H199 H 0.43391 0.47303 0.48596 0.0
H200 H 0.62377 0.4786 0.3918 0.0
H201 H 0.74096 0.47352 0.37461 0.0
H202 H 0.78843 0.53058 0.48031 0.0
H203 H 0.67149 0.53567 0.49855 0.0
C204 C 0.3616 0.60077 0.44451 0.0
C205 C 0.39269 0.62275 0.46716 0.0
C206 C 0.38866 0.57422 0.44406 0.0
C207 C 0.44632 0.56899 0.46733 0.0
C208 C 0.4778 0.59111 0.4895 0.0
C209 C 0.45143 0.61776 0.4892 0.0
C210 C 0.47391 0.54055 0.46859 0.0
C211 C 0.54033 0.53663 0.45847 0.0
C212 C 0.43515 0.51731 0.47902 0.0
C213 C 0.36631 0.52013 0.49381 0.0
C214 C 0.35005 0.53763 0.52988 0.0
C215 C 0.28507 0.54035 0.54349 0.0
C216 C 0.23593 0.5255 0.52152 0.0
C217 C 0.25171 0.50784 0.48596 0.0
C218 C 0.31662 0.50508 0.47218 0.0
C219 C 0.6295 0.42616 0.50417 0.0
C220 C 0.61113 0.40521 0.47356 0.0
C221 C 0.60324 0.45277 0.50203 0.0
C222 C 0.55748 0.45889 0.46964 0.0
C223 C 0.5383 0.43812 0.43937 0.0
C224 C 0.56531 0.41162 0.441 0.0
C225 C 0.52955 0.48703 0.46751 0.0
C226 C 0.46327 0.49081 0.47752 0.0
C227 C 0.56865 0.51019 0.45795 0.0
C228 C 0.63892 0.50729 0.44681 0.0
C229 C 0.65923 0.48987 0.41163 0.0
C230 C 0.7256 0.48703 0.40164 0.0
C231 C 0.77213 0.50166 0.42642 0.0
C232 C 0.75234 0.51923 0.46117 0.0
C233 C 0.68602 0.52211 0.47133 0.0
H234 H 0.82349 0.49944 0.41864 0.0
H235 H 0.18565 0.52764 0.53212 0.0
H236 H 0.01486 0.13267 0.9728 0.0
H237 H 0.96716 0.08642 0.97618 0.0
H238 H 0.1375 0.05809 0.04482 0.0
H239 H 0.18623 0.10418 0.04009 0.0
H240 H 0.10647 0.0213 0.98662 0.0
H241 H 0.98574 0.07081 0.09709 0.0
H242 H 0.91838 0.10849 0.12949 0.0
H243 H 0.76522 0.08935 0.0377 0.0
H244 H 0.832 0.05178 0.00433 0.0
H245 H 0.94906 0.89743 0.05945 0.0
H246 H 0.99554 0.94398 0.06179 0.0
H247 H 0.87129 0.96696 0.95512 0.0
H248 H 0.82726 0.92007 0.95036 0.0
H249 H 0.87886 1.00559 0.03639 0.0
H250 H 0.0087 0.95658 0.92516 0.0
H251 H 0.07788 0.91794 0.89812 0.0
H252 H 0.2167 0.93569 0.00037 0.0
H253 H 0.14773 0.9742 0.02844 0.0
C254 C 0.04182 0.11659 -0.01112 0.0
C255 C 0.1041 0.12197 0.0063 0.0
C256 C 0.01446 0.09019 -0.00903 0.0
C257 C 0.04818 0.0688 0.01144 0.0
C258 C 0.11046 0.07421 0.0289 0.0
C259 C 0.13828 0.10051 0.02619 0.0
C260 C 0.01943 0.0406 0.0133 0.0
C261 C 0.05704 0.01793 -0.00181 0.0
C262 C 0.9546 0.03606 0.02793 0.0
C263 C 0.91417 0.05863 0.04794 0.0
C264 C 0.9379 0.07476 0.08358 0.0
C265 C 0.89978 0.09608 0.10216 0.0
C266 C 0.83764 0.10135 0.08559 0.0
C267 C 0.81341 0.08526 0.05047 0.0
C268 C 0.85134 0.06393 0.03174 0.0
C269 C 0.93209 0.91214 0.03596 0.0
C270 C 0.88436 0.90471 0.00455 0.0
C271 C 0.95833 0.93884 0.03773 0.0
C272 C 0.93663 0.95879 0.00869 0.0
C273 C 0.88818 0.95181 0.97801 0.0
C274 C 0.86281 0.92498 0.97559 0.0
C275 C 0.96588 0.98675 0.00951 0.0
C276 C 0.92836 1.00921 0.02512 0.0
C277 C 0.03109 0.99108 -0.00382 0.0
C278 C 0.07268 0.96804 0.97921 0.0
C279 C 0.05363 0.95206 0.94215 0.0
C280 C 0.09288 0.93022 0.92657 0.0
C281 C 0.15155 0.9243 0.9476 0.0
C282 C 0.17118 0.94026 0.98417 0.0
C283 C 0.13205 0.9621 -9e-05 0.0
H284 H 0.18189 0.9074 0.93548 0.0
H285 H 0.80821 0.11786 0.10001 0.0
H286 H 0.83436 0.10428 0.44485 0.0
H287 H 0.88065 0.05792 0.44941 0.0
H288 H 0.99439 0.0844 0.56161 0.0
H289 H 0.9458 0.13047 0.55911 0.0
H290 H 0.06445 0.05406 0.48905 0.0
H291 H 0.87617 0.04812 0.58443 0.0
H292 H 0.75919 0.05297 0.60242 0.0
H293 H 0.71078 0.99574 0.49716 0.0
H294 H 0.82751 0.99087 0.47812 0.0
H295 H 0.1838 0.92305 0.5479 0.0
H296 H 0.13582 0.96944 0.54922 0.0
H297 H 0.97752 0.93934 0.46768 0.0
H298 H 0.02407 0.89271 0.46801 0.0
H299 H 0.92991 0.97252 0.52593 0.0
H300 H 0.11123 0.97809 0.42746 0.0
H301 H 0.22583 0.97357 0.40324 0.0
H302 H 0.2853 0.03136 0.50504 0.0
H303 H 0.17111 0.03594 0.53026 0.0
C304 C 0.86826 0.10026 0.47107 0.0
C305 C 0.886 0.1213 0.5017 0.0
C306 C 0.89508 0.07377 0.47332 0.0
C307 C 0.9408 0.06785 0.50583 0.0
C308 C 0.95935 0.0887 0.53614 0.0
C309 C 0.93174 0.11508 0.53442 0.0
C310 C 0.96927 0.03982 0.50808 0.0
C311 C 0.03548 0.03622 0.49772 0.0
C312 C 0.93065 0.0166 0.51798 0.0
C313 C 0.86052 0.01935 0.52958 0.0
C314 C 0.84054 0.03676 0.56487 0.0
C315 C 0.77429 0.03947 0.57531 0.0
C316 C 0.72756 0.02473 0.55087 0.0
C317 C 0.74702 1.00717 0.51602 0.0
C318 C 0.81322 1.00441 0.50542 0.0
C319 C 0.13874 0.92642 0.53034 0.0
C320 C 0.10764 0.90441 0.50776 0.0
C321 C 0.11149 0.95293 0.53089 0.0
C322 C 0.0536 0.95809 0.50784 0.0
C323 C 0.02216 0.93595 0.48571 0.0
C324 C 0.04875 0.90934 0.48587 0.0
C325 C 0.02566 0.98647 0.5068 0.0
C326 C 0.95934 0.99023 0.51733 0.0
C327 C 0.06398 1.00979 0.49615 0.0
C328 C 0.1327 1.00713 0.48103 0.0
C329 C 0.14881 0.98967 0.44489 0.0
C330 C 0.21368 0.98713 0.43095 0.0
C331 C 0.26284 1.00211 0.45266 0.0
C332 C 0.24719 0.01973 0.4883 0.0
C333 C 0.18239 0.02233 0.50241 0.0
H334 H 0.31303 1.00011 0.44182 0.0
H335 H 0.67629 0.02685 0.559 0.0
H336 H 0.70185 0.20263 0.35548 0.0
H337 H 0.66509 0.19598 0.27943 0.0
H338 H 0.64662 0.28448 0.26835 0.0
H339 H 0.68031 0.29112 0.34422 0.0
H340 H 0.54104 0.26156 0.24377 0.0
H341 H 0.76636 0.24537 0.21455 0.0
H342 H 0.87463 0.22381 0.22178 0.0
H343 H 0.79543 0.14516 0.17991 0.0
H344 H 0.68623 0.16613 0.17326 0.0
H345 H 0.47559 0.27477 0.02605 0.0
H346 H 0.56236 0.26791 0.07922 0.0
H347 H 0.47669 0.19014 0.11418 0.0
H348 H 0.38958 0.19665 0.06083 0.0
H349 H 0.64049 0.20495 0.12253 0.0
H350 H 0.40816 0.22623 0.17853 0.0
H351 H 0.30604 0.25175 0.16614 0.0
H352 H 0.41482 0.32681 0.1503 0.0
H353 H 0.51768 0.30158 0.16293 0.0
C354 C 0.69024 0.22061 0.33662 0.0
C355 C 0.69297 0.24735 0.35591 0.0
C356 C 0.66989 0.21681 0.2931 0.0
C357 C 0.65329 0.23975 0.26818 0.0
C358 C 0.65871 0.26646 0.28704 0.0
C359 C 0.67772 0.27022 0.33052 0.0
C360 C 0.62358 0.23618 0.22421 0.0
C361 C 0.5636 0.24932 0.21743 0.0
C362 C 0.65228 0.22002 0.18965 0.0
C363 C 0.71782 0.20728 0.19391 0.0
C364 C 0.77178 0.22341 0.20735 0.0
C365 C 0.8334 0.2113 0.21126 0.0
C366 C 0.84187 0.18311 0.20141 0.0
C367 C 0.78875 0.16698 0.18759 0.0
C368 C 0.72697 0.17897 0.18376 0.0
C369 C 0.4765 0.25567 0.04377 0.0
C370 C 0.42486 0.23658 0.04016 0.0
C371 C 0.52666 0.25163 0.07372 0.0
C372 C 0.52565 0.22856 0.10049 0.0
C373 C 0.47857 0.20789 0.09332 0.0
C374 C 0.42842 0.21183 0.06316 0.0
C375 C 0.55929 0.23045 0.14306 0.0
C376 C 0.61899 0.21701 0.14941 0.0
C377 C 0.53175 0.24683 0.17733 0.0
C378 C 0.47012 0.26211 0.17152 0.0
C379 C 0.41007 0.24818 0.17244 0.0
C380 C 0.35215 0.26258 0.16524 0.0
C381 C 0.35393 0.29088 0.15709 0.0
C382 C 0.41359 0.30488 0.15643 0.0
C383 C 0.47162 0.29058 0.16381 0.0
H384 H 0.30922 0.3021 0.15183 0.0
H385 H 0.88963 0.17378 0.20438 0.0
H386 H 0.60718 0.83016 0.05644 0.0
H387 H 0.52528 0.84001 0.11316 0.0
H388 H 0.44789 0.75746 0.09542 0.0
H389 H 0.52892 0.74749 0.03838 0.0
H390 H 0.35216 0.79506 0.12158 0.0
H391 H 0.56751 0.76585 0.16584 0.0
H392 H 0.6876 0.76804 0.16941 0.0
H393 H 0.67669 0.8507 0.22458 0.0
H394 H 0.55626 0.84898 0.2211 0.0
H395 H 0.30877 0.74048 0.33501 0.0
H396 H 0.34328 0.75178 0.26074 0.0
H397 H 0.35389 0.83821 0.29913 0.0
H398 H 0.31755 0.82722 0.37343 0.0
H399 H 0.4734 0.8086 0.26131 0.0
H400 H 0.25093 0.83153 0.22889 0.0
H401 H 0.1315 0.82506 0.22614 0.0
H402 H 0.15688 0.7489 0.15207 0.0
H403 H 0.27651 0.75503 0.15409 0.0
C404 C 0.57138 0.8144 0.06354 0.0
C405 C 0.57551 0.78781 0.0438 0.0
C406 C 0.52461 0.82008 0.09594 0.0
C407 C 0.48168 0.79924 0.10902 0.0
C408 C 0.48088 0.77376 0.08587 0.0
C409 C 0.52754 0.76806 0.05345 0.0
C410 C 0.44634 0.80201 0.1512 0.0
C411 C 0.37844 0.79819 0.15215 0.0
C412 C 0.48082 0.80619 0.19101 0.0
C413 C 0.55308 0.80745 0.19261 0.0
C414 C 0.59079 0.78459 0.17829 0.0
C415 C 0.6589 0.78573 0.18037 0.0
C416 C 0.68981 0.80957 0.19697 0.0
C417 C 0.65265 0.83228 0.21161 0.0
C418 C 0.58449 0.83123 0.20964 0.0
C419 C 0.31813 0.7619 0.32757 0.0
C420 C 0.31083 0.78298 0.35989 0.0
C421 C 0.33695 0.76834 0.2851 0.0
C422 C 0.34992 0.79583 0.27458 0.0
C423 C 0.3429 0.81695 0.3067 0.0
C424 C 0.3227 0.81061 0.34903 0.0
C425 C 0.37932 0.80163 0.23176 0.0
C426 C 0.44661 0.80656 0.23072 0.0
C427 C 0.34438 0.79791 0.19217 0.0
C428 C 0.27266 0.79368 0.19184 0.0
C429 C 0.23105 0.81333 0.21221 0.0
C430 C 0.16331 0.80984 0.21047 0.0
C431 C 0.13661 0.78662 0.18885 0.0
C432 C 0.17762 0.76691 0.16873 0.0
C433 C 0.24538 0.77045 0.16997 0.0
H434 H 0.08418 0.78383 0.18789 0.0
H435 H 0.74252 0.81045 0.19868 0.0
H436 H 0.74573 0.8156 0.8529 0.0
H437 H 0.70525 0.82587 0.77968 0.0
H438 H 0.59535 0.74973 0.77682 0.0
H439 H 0.63563 0.73915 0.84979 0.0
H440 H 0.70812 0.7938 0.69626 0.0
H441 H 0.44268 0.76798 0.7423 0.0
H442 H 0.37221 0.76722 0.80806 0.0
H443 H 0.48785 0.83146 0.86945 0.0
H444 H 0.55825 0.83294 0.80379 0.0
H445 H 0.47728 0.75165 0.53421 0.0
H446 H 0.56059 0.76128 0.58952 0.0
H447 H 0.47538 0.84156 0.61691 0.0
H448 H 0.39173 0.83215 0.56167 0.0
H449 H 0.46847 0.80685 0.68557 0.0
H450 H 0.63076 0.83831 0.58737 0.0
H451 H 0.70132 0.83768 0.52173 0.0
H452 H 0.79151 0.76258 0.56272 0.0
H453 H 0.72072 0.76244 0.62823 0.0
C454 C 0.71332 0.80094 0.83652 0.0
C455 C 0.69324 0.7767 0.85719 0.0
C456 C 0.69072 0.80677 0.79468 0.0
C457 C 0.6472 0.78862 0.7733 0.0
C458 C 0.62878 0.76399 0.79316 0.0
C459 C 0.65173 0.75802 0.83478 0.0
C460 C 0.61703 0.79615 0.73159 0.0
C461 C 0.65583 0.79687 0.69365 0.0
C462 C 0.54908 0.80063 0.72889 0.0
C463 C 0.50606 0.80041 0.76822 0.0
C464 C 0.45283 0.78206 0.76973 0.0
C465 C 0.41293 0.78148 0.807 0.0
C466 C 0.42567 0.79922 0.84295 0.0
C467 C 0.47816 0.81766 0.84163 0.0
C468 C 0.51812 0.81836 0.8044 0.0
C469 C 0.47753 0.77174 0.55091 0.0
C470 C 0.42695 0.79084 0.54451 0.0
C471 C 0.52558 0.7773 0.58226 0.0
C472 C 0.52367 0.80203 0.60745 0.0
C473 C 0.47745 0.82234 0.59775 0.0
C474 C 0.42955 0.81685 0.56631 0.0
C475 C 0.55907 0.80374 0.64948 0.0
C476 C 0.52104 0.80448 0.68785 0.0
C477 C 0.62752 0.80045 0.65228 0.0
C478 C 0.66998 0.80029 0.61267 0.0
C479 C 0.66515 0.82149 0.58221 0.0
C480 C 0.70531 0.8213 0.54504 0.0
C481 C 0.75077 0.80008 0.53801 0.0
C482 C 0.75623 0.779 0.56818 0.0
C483 C 0.71613 0.77907 0.60538 0.0
H484 H 0.78186 0.79999 0.50923 0.0
H485 H 0.39481 0.79871 0.8718 0.0
H486 H 0.52251 0.27653 0.53877 0.0
H487 H 0.43857 0.26583 0.5926 0.0
H488 H 0.51498 0.18308 0.60169 0.0
H489 H 0.59952 0.19359 0.54806 0.0
H490 H 0.34161 0.22584 0.6164 0.0
H491 H 0.5505 0.17673 0.70838 0.0
H492 H 0.67104 0.17466 0.70837 0.0
H493 H 0.68001 0.25682 0.6586 0.0
H494 H 0.55985 0.25937 0.65874 0.0
H495 H 0.25247 0.20392 0.84913 0.0
H496 H 0.28978 0.19418 0.77349 0.0
H497 H 0.39892 0.27051 0.77651 0.0
H498 H 0.36194 0.28052 0.85122 0.0
H499 H 0.47063 0.22044 0.75347 0.0
H500 H 0.27057 0.271 0.72149 0.0
H501 H 0.15115 0.27786 0.72273 0.0
H502 H 0.1243 0.19954 0.65512 0.0
H503 H 0.24355 0.1921 0.65389 0.0
C504 C 0.52019 0.25575 0.55107 0.0
C505 C 0.56881 0.23617 0.54026 0.0
C506 C 0.47171 0.24958 0.58152 0.0
C507 C 0.47143 0.22384 0.60153 0.0
C508 C 0.51481 0.20313 0.5867 0.0
C509 C 0.56335 0.20926 0.55627 0.0
C510 C 0.43761 0.2213 0.64403 0.0
C511 C 0.36946 0.2241 0.6464 0.0
C512 C 0.47419 0.21938 0.6831 0.0
C513 C 0.54643 0.21807 0.68304 0.0
C514 C 0.57837 0.19431 0.69745 0.0
C515 C 0.64658 0.19306 0.69743 0.0
C516 C 0.68323 0.21554 0.68333 0.0
C517 C 0.65174 0.23935 0.66932 0.0
C518 C 0.58358 0.2407 0.66932 0.0
C519 C 0.28421 0.21864 0.8335 0.0
C520 C 0.30472 0.24289 0.85616 0.0
C521 C 0.30502 0.21311 0.79036 0.0
C522 C 0.34685 0.23168 0.76974 0.0
C523 C 0.36651 0.25599 0.79208 0.0
C524 C 0.34539 0.26164 0.83476 0.0
C525 C 0.37473 0.22537 0.72605 0.0
C526 C 0.44219 0.22101 0.72352 0.0
C527 C 0.33743 0.22631 0.6872 0.0
C528 C 0.26587 0.2308 0.68819 0.0
C529 C 0.23916 0.25511 0.70734 0.0
C530 C 0.17153 0.25915 0.70791 0.0
C531 C 0.13019 0.23908 0.68922 0.0
C532 C 0.15639 0.21502 0.66971 0.0
C533 C 0.22396 0.21089 0.66903 0.0
H534 H 0.07789 0.24218 0.68976 0.0
H535 H 0.73599 0.2145 0.68345 0.0
H536 H 0.78758 0.70406 0.11706 0.0
H537 H 0.82194 0.69842 0.19323 0.0
H538 H 0.86408 0.78583 0.2047 0.0
H539 H 0.83178 0.79149 0.12891 0.0
H540 H 0.96374 0.75777 0.2284 0.0
H541 H 0.73639 0.75728 0.25956 0.0
H542 H 0.62148 0.74269 0.2525 0.0
H543 H 0.67251 0.66095 0.29192 0.0
H544 H 0.788 0.67495 0.2987 0.0
H545 H 0.01665 0.77281 0.45461 0.0
H546 H 0.92897 0.76617 0.40121 0.0
H547 H 0.02467 0.69289 0.34909 0.0
H548 H 0.11207 0.69902 0.40274 0.0
H549 H 0.84773 0.71258 0.35044 0.0
H550 H 0.08665 0.72585 0.26723 0.0
H551 H 0.19357 0.74917 0.27521 0.0
H552 H 0.10177 0.81781 0.34346 0.0
H553 H 0.99451 0.79489 0.33567 0.0
C554 C 0.80391 0.72206 0.13599 0.0
C555 C 0.80807 0.74812 0.11685 0.0
C556 C 0.82283 0.71885 0.17956 0.0
C557 C 0.84536 0.74173 0.20455 0.0
C558 C 0.84716 0.76788 0.18586 0.0
C559 C 0.829 0.77104 0.14243 0.0
C560 C 0.87405 0.73824 0.24841 0.0
C561 C 0.93784 0.74791 0.25486 0.0
C562 C 0.84037 0.72562 0.28325 0.0
C563 C 0.77103 0.71708 0.27916 0.0
C564 C 0.72326 0.73611 0.26631 0.0
C565 C 0.65798 0.72797 0.26243 0.0
C566 C 0.63975 0.70088 0.27158 0.0
C567 C 0.68674 0.68191 0.28476 0.0
C568 C 0.75212 0.68994 0.28868 0.0
C569 C 0.01763 0.75462 0.43301 0.0
C570 C 0.07194 0.73681 0.43201 0.0
C571 C 0.96701 0.75066 0.40295 0.0
C572 C 0.97066 0.72909 0.37138 0.0
C573 C 0.02082 0.70946 0.37368 0.0
C574 C 0.07108 0.71319 0.40407 0.0
C575 C 0.9365 0.73211 0.32946 0.0
C576 C 0.8727 0.72224 0.32346 0.0
C577 C 0.96861 0.74553 0.29512 0.0
C578 C 0.03315 0.75865 0.30119 0.0
C579 C 0.0896 0.74581 0.28421 0.0
C580 C 0.15014 0.75891 0.28881 0.0
C581 C 0.1543 0.7849 0.30997 0.0
C582 C 0.09834 0.79766 0.3272 0.0
C583 C 0.03779 0.78463 0.32275 0.0
H584 H 0.20052 0.7955 0.31217 0.0
H585 H 0.58918 0.69462 0.26858 0.0
H586 H 0.89679 0.33194 0.42514 0.0
H587 H 0.97946 0.34163 0.36978 0.0
H588 H 0.0513 0.258 0.3769 0.0
H589 H 0.96967 0.24823 0.4327 0.0
H590 H 0.14941 0.29399 0.35453 0.0
H591 H 0.9334 0.26794 0.30557 0.0
H592 H 0.81342 0.27079 0.30266 0.0
H593 H 0.82623 0.35535 0.26382 0.0
H594 H 0.94668 0.35287 0.26637 0.0
H595 H 0.18231 0.24054 0.13558 0.0
H596 H 0.14934 0.25221 0.211 0.0
H597 H 0.15072 0.33897 0.18196 0.0
H598 H 0.18568 0.32757 0.10652 0.0
H599 H 0.02736 0.31176 0.21774 0.0
H600 H 0.25399 0.32946 0.25176 0.0
H601 H 0.37193 0.31907 0.25047 0.0
H602 H 0.33578 0.24173 0.31191 0.0
H603 H 0.21766 0.25192 0.31432 0.0
C604 C 0.93154 0.31588 0.41602 0.0
C605 C 0.92566 0.2891 0.43238 0.0
C606 C 0.97879 0.32147 0.38442 0.0
C607 C 0.02036 0.30033 0.36866 0.0
C608 C 0.01944 0.27456 0.38856 0.0
C609 C 0.9724 0.26896 0.42026 0.0
C610 C 0.05554 0.30323 0.3267 0.0
C611 C 0.12298 0.29815 0.32467 0.0
C612 C 0.02092 0.30854 0.28773 0.0
C613 C 0.94875 0.31035 0.28675 0.0
C614 C 0.91053 0.2872 0.29677 0.0
C615 C 0.84247 0.28873 0.29508 0.0
C616 C 0.81211 0.31331 0.28334 0.0
C617 C 0.84982 0.33636 0.27305 0.0
C618 C 0.91798 0.33489 0.2745 0.0
C619 C 0.176 0.26211 0.14529 0.0
C620 C 0.18657 0.28316 0.11531 0.0
C621 C 0.15799 0.26873 0.18842 0.0
C622 C 0.14887 0.29642 0.2019 0.0
C623 C 0.15873 0.31752 0.17207 0.0
C624 C 0.17814 0.31096 0.12909 0.0
C625 C 0.12105 0.30264 0.24557 0.0
C626 C 0.05445 0.30891 0.24782 0.0
C627 C 0.15619 0.29766 0.2843 0.0
C628 C 0.22705 0.29142 0.28308 0.0
C629 C 0.27121 0.31022 0.26493 0.0
C630 C 0.3381 0.30443 0.26421 0.0
C631 C 0.36132 0.27971 0.28093 0.0
C632 C 0.31773 0.26087 0.29894 0.0
C633 C 0.25086 0.26674 0.3003 0.0
H634 H 0.41306 0.27515 0.27991 0.0
H635 H 0.7594 0.3145 0.28201 0.0
H636 H 0.79352 0.32548 0.61401 0.0
H637 H 0.82927 0.3354 0.68942 0.0
H638 H 0.85375 0.24808 0.70935 0.0
H639 H 0.82032 0.23795 0.63361 0.0
H640 H 0.78691 0.28355 0.78219 0.0
H641 H 0.98026 0.27431 0.68777 0.0
H642 H 0.04792 0.28608 0.62391 0.0
H643 H 0.04972 0.37143 0.6672 0.0
H644 H 0.9816 0.3601 0.73123 0.0
H645 H 0.02664 0.24668 0.93034 0.0
H646 H 0.94192 0.25682 0.87769 0.0
H647 H 0.00754 0.34161 0.8741 0.0
H648 H 0.09419 0.33134 0.92606 0.0
H649 H 0.01314 0.31927 0.79677 0.0
H650 H 0.84714 0.3249 0.90357 0.0
H651 H 0.78217 0.31269 0.96836 0.0
H652 H 0.72649 0.23588 0.90481 0.0
H653 H 0.79193 0.24738 0.83986 0.0
C654 C 0.80617 0.30838 0.63453 0.0
C655 C 0.80447 0.28093 0.61794 0.0
C656 C 0.82612 0.31409 0.67755 0.0
C657 C 0.84341 0.29242 0.70472 0.0
C658 C 0.83984 0.26499 0.68878 0.0
C659 C 0.82138 0.25929 0.64548 0.0
C660 C 0.87166 0.29833 0.74827 0.0
C661 C 0.83628 0.2914 0.7858 0.0
C662 C 0.93498 0.30954 0.7525 0.0
C663 C 0.97514 0.31644 0.71383 0.0
C664 C 0.99453 0.29562 0.68338 0.0
C665 C 0.03311 0.3022 0.64725 0.0
C666 C 0.05286 0.32952 0.64138 0.0
C667 C 0.03423 0.35029 0.67172 0.0
C668 C 0.99569 0.3438 0.70795 0.0
C669 C 0.02198 0.26771 0.91939 0.0
C670 C 0.06801 0.28806 0.93153 0.0
C671 C 0.9729 0.27358 0.88953 0.0
C672 C 0.96834 0.3 0.87183 0.0
C673 C 0.01034 0.32106 0.88724 0.0
C674 C 0.0599 0.31514 0.91686 0.0
C675 C 0.9294 0.30371 0.8316 0.0
C676 C 0.96286 0.31236 0.79412 0.0
C677 C 0.86421 0.29419 0.82772 0.0
C678 C 0.82479 0.287 0.8668 0.0
C679 C 0.82148 0.3053 0.90348 0.0
C680 C 0.78447 0.29852 0.94025 0.0
C681 C 0.75027 0.27352 0.94071 0.0
C682 C 0.75297 0.25526 0.90439 0.0
C683 C 0.78994 0.26193 0.86754 0.0
H684 H 0.72162 0.26831 0.96921 0.0
H685 H 0.08276 0.33457 0.6134 0.0
H686 H 0.24845 0.70687 0.61873 0.0
H687 H 0.21089 0.69528 0.69246 0.0
H688 H 0.09068 0.76854 0.69744 0.0
H689 H 0.12816 0.78047 0.62429 0.0
H690 H 0.21092 0.73021 0.77666 0.0
H691 H 0.94167 0.74472 0.73005 0.0
H692 H 0.87176 0.74058 0.66444 0.0
H693 H -0.00096 0.6781 0.60911 0.0
H694 H 0.06911 0.68156 0.67467 0.0
H695 H 0.97824 0.77422 0.93521 0.0
H696 H 0.06171 0.76314 0.88035 0.0
H697 H 0.98329 0.68066 0.86398 0.0
H698 H 0.89922 0.6916 0.91869 0.0
H699 H 0.97454 0.70971 0.79086 0.0
H700 H 0.14078 0.68936 0.8925 0.0
H701 H 0.21142 0.69555 0.9573 0.0
H702 H 0.29079 0.76984 0.90465 0.0
H703 H 0.21976 0.76446 0.83993 0.0
C704 C 0.21428 0.72058 0.63568 0.0
C705 C 0.19081 0.74448 0.61568 0.0
C706 C 0.19335 0.71401 0.67778 0.0
C707 C 0.14804 0.73104 0.69998 0.0
C708 C 0.12564 0.75517 0.68053 0.0
C709 C 0.147 0.76191 0.63878 0.0
C710 C 0.12051 0.7231 0.74245 0.0
C711 C 0.15945 0.72542 0.78011 0.0
C712 C 0.05375 0.71636 0.74624 0.0
C713 C 0.01084 0.71352 0.70719 0.0
C714 C 0.95448 0.72996 0.70402 0.0
C715 C 0.91487 0.72776 0.66681 0.0
C716 C 0.93103 0.70913 0.63259 0.0
C717 C 0.98668 0.69258 0.63559 0.0
C718 C 0.02639 0.69467 0.67275 0.0
C719 C 0.98 0.75342 0.92103 0.0
C720 C 0.93114 0.73401 0.9304 0.0
C721 C 0.0282 0.74703 0.88992 0.0
C722 C 0.02838 0.72113 0.86792 0.0
C723 C 0.98384 0.70078 0.8806 0.0
C724 C 0.93568 0.70713 0.91176 0.0
C725 C 0.06421 0.71776 0.82595 0.0
C726 C 0.02654 0.71362 0.78795 0.0
C727 C 0.13198 0.723 0.82215 0.0
C728 C 0.17446 0.72655 0.86134 0.0
C729 C 0.17276 0.70718 0.89489 0.0
C730 C 0.21301 0.71053 0.93162 0.0
C731 C 0.25548 0.7331 0.93513 0.0
C732 C 0.25784 0.75237 0.90191 0.0
C733 C 0.21761 0.74916 0.86515 0.0
H734 H 0.28665 0.73563 0.96357 0.0
H735 H 0.90038 0.7075 0.60378 0.0
loop_
_geom_bond_atom_site_label_1
_geom_bond_atom_site_label_2
_geom_bond_distance
_geom_bond_site_symmetry_2
_ccdc_geom_bond_type
C0 O16 1.251 . S
C0 O18 1.254 . S
N1 C2 1.333 1_554 S
N1 C6 1.307 . S
N1 Zn7 2.020 . S
C2 N1 1.333 1_556 S
C2 C3 1.379 . S
C2 H20 0.952 . S
C3 C2 1.379 . S
C3 C4 1.390 1_556 S
C3 H30 0.949 . S
C4 C3 1.390 1_554 S
C4 C5 1.357 . S
C5 C4 1.357 . S
C5 C6 1.370 . S
C5 H31 0.950 . S
C6 N1 1.307 . S
C6 C5 1.370 . S
C6 H24 0.948 . S
Zn7 N1 2.020 . S
Zn7 O16 2.021 1_554 S
Zn7 O22 2.051 . S
Zn7 O26 2.044 . S
Zn7 O28 2.006 1_554 S
C8 O27 1.246 . S
C8 O28 1.249 . S
N9 C10 1.307 . S
N9 C11 1.333 1_556 S
N9 Zn15 2.020 . S
C10 N9 1.307 . S
C10 C14 1.370 . S
C10 H21 0.948 . S
C11 N9 1.333 1_554 S
C11 C12 1.379 . S
C11 H19 0.952 . S
C12 C11 1.379 . S
C12 C13 1.390 1_554 S
C12 H32 0.949 . S
C13 C12 1.390 1_556 S
C13 C14 1.357 . S
C14 C10 1.370 . S
C14 C13 1.357 . S
C14 H33 0.950 . S
Zn15 N9 2.020 . S
Zn15 O18 2.040 . S
Zn15 O23 2.011 1_556 S
Zn15 O25 2.025 1_556 S
Zn15 O27 2.047 . S
O16 C0 1.251 . S
O16 Zn7 2.021 1_556 S
C17 O22 1.246 . S
C17 O23 1.249 . S
O18 C0 1.254 . S
O18 Zn15 2.040 . S
H19 C11 0.952 . S
H20 C2 0.952 . S
H21 C10 0.948 . S
O22 Zn7 2.051 . S
O22 C17 1.246 . S
O23 Zn15 2.011 1_554 S
O23 C17 1.249 . S
H24 C6 0.948 . S
O25 Zn15 2.025 1_554 S
O25 C29 1.251 . S
O26 Zn7 2.044 . S
O26 C29 1.254 . S
O27 C8 1.246 . S
O27 Zn15 2.047 . S
O28 Zn7 2.006 1_556 S
O28 C8 1.249 . S
C29 O25 1.251 . S
C29 O26 1.254 . S
H30 C3 0.949 . S
H31 C5 0.950 . S
H32 C12 0.949 . S
H33 C14 0.950 . S
C34 O50 1.251 . S
C34 O52 1.254 . S
N35 C36 1.333 1_554 S
N35 C40 1.307 . S
N35 Zn41 2.020 . S
C36 N35 1.333 1_556 S
C36 C37 1.379 . S
C36 H54 0.952 . S
C37 C36 1.379 . S
C37 C38 1.390 1_556 S
C37 H64 0.949 . S
C38 C37 1.390 1_554 S
C38 C39 1.357 . S
C39 C38 1.357 . S
C39 C40 1.370 . S
C39 H65 0.950 . S
C40 N35 1.307 . S
C40 C39 1.370 . S
C40 H58 0.948 . S
Zn41 N35 2.020 . S
Zn41 O50 2.021 1_554 S
Zn41 O56 2.051 . S
Zn41 O60 2.044 . S
Zn41 O62 2.006 1_554 S
C42 O61 1.246 . S
C42 O62 1.249 . S
N43 C44 1.307 . S
N43 C45 1.333 1_556 S
N43 Zn49 2.020 . S
C44 N43 1.307 . S
C44 C48 1.370 . S
C44 H55 0.948 . S
C45 N43 1.333 1_554 S
C45 C46 1.379 . S
C45 H53 0.952 . S
C46 C45 1.379 . S
C46 C47 1.390 1_554 S
C46 H66 0.949 . S
C47 C46 1.390 1_556 S
C47 C48 1.357 . S
C48 C44 1.370 . S
C48 C47 1.357 . S
C48 H67 0.950 . S
Zn49 N43 2.020 . S
Zn49 O52 2.040 . S
Zn49 O57 2.011 1_556 S
Zn49 O59 2.025 1_556 S
Zn49 O61 2.047 . S
O50 C34 1.251 . S
O50 Zn41 2.021 1_556 S
C51 O56 1.246 . S
C51 O57 1.249 . S
O52 C34 1.254 . S
O52 Zn49 2.040 . S
H53 C45 0.952 . S
H54 C36 0.952 . S
H55 C44 0.948 . S
O56 Zn41 2.051 . S
O56 C51 1.246 . S
O57 Zn49 2.011 1_554 S
O57 C51 1.249 . S
H58 C40 0.948 . S
O59 Zn49 2.025 1_554 S
O59 C63 1.251 . S
O60 Zn41 2.044 . S
O60 C63 1.254 . S
O61 C42 1.246 . S
O61 Zn49 2.047 . S
O62 Zn41 2.006 1_556 S
O62 C42 1.249 . S
C63 O59 1.251 . S
C63 O60 1.254 . S
H64 C37 0.949 . S
H65 C39 0.950 . S
H66 C46 0.949 . S
H67 C48 0.950 . S
C68 O84 1.251 . S
C68 O86 1.254 . S
N69 C70 1.333 . S
N69 C74 1.307 . S
N69 Zn75 2.020 . S
C70 N69 1.333 . S
C70 C71 1.379 . S
C70 H88 0.952 . S
C71 C70 1.379 . S
C71 C72 1.390 . S
C71 H98 0.949 . S
C72 C71 1.390 . S
C72 C73 1.357 . S
C73 C72 1.357 . S
C73 C74 1.370 . S
C73 H99 0.950 . S
C74 N69 1.307 . S
C74 C73 1.370 . S
C74 H92 0.948 . S
Zn75 N69 2.020 . S
Zn75 O84 2.039 . S
Zn75 O90 2.034 . S
Zn75 O94 2.025 . S
Zn75 O96 2.024 . S
C76 O95 1.246 . S
C76 O96 1.249 . S
N77 C78 1.307 . S
N77 C79 1.333 . S
N77 Zn83 2.020 . S
C78 N77 1.307 . S
C78 C82 1.370 . S
C78 H89 0.948 . S
C79 N77 1.333 . S
C79 C80 1.379 . S
C79 H87 0.952 . S
C80 C79 1.379 . S
C80 C81 1.390 . S
C80 H100 0.949 . S
C81 C80 1.390 . S
C81 C82 1.357 . S
C82 C78 1.370 . S
C82 C81 1.357 . S
C82 H101 0.950 . S
Zn83 N77 2.020 . S
Zn83 O86 2.025 . S
Zn83 O91 2.024 . S
Zn83 O93 2.039 . S
Zn83 O95 2.034 . S
O84 C68 1.251 . S
O84 Zn75 2.039 . S
C85 O90 1.246 . S
C85 O91 1.249 . S
O86 C68 1.254 . S
O86 Zn83 2.025 . S
H87 C79 0.952 . S
H88 C70 0.952 . S
H89 C78 0.948 . S
O90 Zn75 2.034 . S
O90 C85 1.246 . S
O91 Zn83 2.024 . S
O91 C85 1.249 . S
H92 C74 0.948 . S
O93 Zn83 2.039 . S
O93 C97 1.251 . S
O94 Zn75 2.025 . S
O94 C97 1.254 . S
O95 C76 1.246 . S
O95 Zn83 2.034 . S
O96 Zn75 2.024 . S
O96 C76 1.249 . S
C97 O93 1.251 . S
C97 O94 1.254 . S
H98 C71 0.949 . S
H99 C73 0.950 . S
H100 C80 0.949 . S
H101 C82 0.950 . S
C102 O118 1.251 . S
C102 O120 1.254 . S
N103 C104 1.333 . S
N103 C108 1.307 . S
N103 Zn109 2.020 . S
C104 N103 1.333 . S
C104 C105 1.379 . S
C104 H122 0.952 . S
C105 C104 1.379 . S
C105 C106 1.390 . S
C105 H132 0.949 . S
C106 C105 1.390 . S
C106 C107 1.357 . S
C107 C106 1.357 . S
C107 C108 1.370 . S
C107 H133 0.950 . S
C108 N103 1.307 . S
C108 C107 1.370 . S
C108 H126 0.948 . S
Zn109 N103 2.020 . S
Zn109 O118 2.039 . S
Zn109 O124 2.034 . S
Zn109 O128 2.025 . S
Zn109 O130 2.024 . S
C110 O129 1.246 . S
C110 O130 1.249 . S
N111 C112 1.307 . S
N111 C113 1.333 . S
N111 Zn117 2.020 . S
C112 N111 1.307 . S
C112 C116 1.370 . S
C112 H123 0.948 . S
C113 N111 1.333 . S
C113 C114 1.379 . S
C113 H121 0.952 . S
C114 C113 1.379 . S
C114 C115 1.390 . S
C114 H134 0.949 . S
C115 C114 1.390 . S
C115 C116 1.357 . S
C116 C112 1.370 . S
C116 C115 1.357 . S
C116 H135 0.950 . S
Zn117 N111 2.020 . S
Zn117 O120 2.025 . S
Zn117 O125 2.024 . S
Zn117 O127 2.039 . S
Zn117 O129 2.034 . S
O118 C102 1.251 . S
O118 Zn109 2.039 . S
C119 O124 1.246 . S
C119 O125 1.249 . S
O120 C102 1.254 . S
O120 Zn117 2.025 . S
H121 C113 0.952 . S
H122 C104 0.952 . S
H123 C112 0.948 . S
O124 Zn109 2.034 . S
O124 C119 1.246 . S
O125 Zn117 2.024 . S
O125 C119 1.249 . S
H126 C108 0.948 . S
O127 Zn117 2.039 . S
O127 C131 1.251 . S
O128 Zn109 2.025 . S
O128 C131 1.254 . S
O129 C110 1.246 . S
O129 Zn117 2.034 . S
O130 Zn109 2.024 . S
O130 C110 1.249 . S
C131 O127 1.251 . S
C131 O128 1.254 . S
H132 C105 0.949 . S
H133 C107 0.950 . S
H134 C114 0.949 . S
H135 C116 0.950 . S
H136 C154 0.951 . S
H137 C156 0.951 . S
H138 C158 0.950 . S
H139 C159 0.950 . S
H140 C161 0.950 . S
H141 C164 0.950 . S
H142 C165 0.950 . S
H143 C167 0.950 . S
H144 C168 0.950 . S
H145 C169 0.951 . S
H146 C171 0.951 . S
H147 C173 0.950 . S
H148 C174 0.950 . S
H149 C176 0.950 . S
H150 C179 0.950 . S
H151 C180 0.950 . S
H152 C182 0.950 . S
H153 C183 0.950 . S
C154 H136 0.951 . S
C154 C155 1.365 . S
C154 C156 1.388 . S
C155 C154 1.365 . S
C155 C159 1.385 1_554 S
C156 H137 0.951 . S
C156 C154 1.388 . S
C156 C157 1.366 1_554 S
C157 C156 1.366 1_556 S
C157 C158 1.414 . S
C157 C160 1.499 . S
C158 H138 0.950 . S
C158 C157 1.414 . S
C158 C159 1.374 . S
C159 H139 0.950 . S
C159 C155 1.385 1_556 S
C159 C158 1.374 . S
C160 C157 1.499 . S
C160 C161 1.373 1_556 S
C160 C162 1.389 . S
C161 H140 0.950 . S
C161 C160 1.373 1_554 S
C161 C177 1.377 . S
C162 C160 1.389 . S
C162 C163 1.524 . S
C162 C176 1.377 . S
C163 C162 1.524 . S
C163 C164 1.397 . S
C163 C168 1.363 . S
C164 H141 0.950 . S
C164 C163 1.397 . S
C164 C165 1.334 . S
C165 H142 0.950 . S
C165 C164 1.334 . S
C165 C166 1.287 . S
C166 C165 1.287 . S
C166 C167 1.524 . S
C166 H185 0.913 . S
C167 H143 0.950 . S
C167 C166 1.524 . S
C167 C168 1.415 . S
C168 H144 0.950 . S
C168 C163 1.363 . S
C168 C167 1.415 . S
C169 H145 0.951 . S
C169 C170 1.365 1_556 S
C169 C171 1.388 . S
C170 C169 1.365 1_554 S
C170 C174 1.385 . S
C171 H146 0.951 . S
C171 C169 1.388 . S
C171 C172 1.366 1_556 S
C172 C171 1.366 1_554 S
C172 C173 1.414 . S
C172 C175 1.499 . S
C173 H147 0.950 . S
C173 C172 1.414 . S
C173 C174 1.374 . S
C174 H148 0.950 . S
C174 C170 1.385 . S
C174 C173 1.374 . S
C175 C172 1.499 . S
C175 C176 1.373 1_554 S
C175 C177 1.389 . S
C176 H149 0.950 . S
C176 C162 1.377 . S
C176 C175 1.373 1_556 S
C177 C161 1.377 . S
C177 C175 1.389 . S
C177 C178 1.524 . S
C178 C177 1.524 . S
C178 C179 1.397 . S
C178 C183 1.363 . S
C179 H150 0.950 . S
C179 C178 1.397 . S
C179 C180 1.334 . S
C180 H151 0.950 . S
C180 C179 1.334 . S
C180 C181 1.287 . S
C181 C180 1.287 . S
C181 C182 1.524 . S
C181 H184 0.999 . S
C182 H152 0.950 . S
C182 C181 1.524 . S
C182 C183 1.415 . S
C183 H153 0.950 . S
C183 C178 1.363 . S
C183 C182 1.415 . S
H184 C181 0.999 . S
H185 C166 0.913 . S
H186 C204 0.951 . S
H187 C206 0.951 . S
H188 C208 0.950 . S
H189 C209 0.950 . S
H190 C211 0.950 . S
H191 C214 0.950 . S
H192 C215 0.950 . S
H193 C217 0.950 . S
H194 C218 0.950 . S
H195 C219 0.951 . S
H196 C221 0.951 . S
H197 C223 0.950 . S
H198 C224 0.950 . S
H199 C226 0.950 . S
H200 C229 0.950 . S
H201 C230 0.950 . S
H202 C232 0.950 . S
H203 C233 0.950 . S
C204 H186 0.951 . S
C204 C205 1.366 . S
C204 C206 1.388 . S
C205 C204 1.366 . S
C205 C209 1.385 . S
C206 H187 0.951 . S
C206 C204 1.388 . S
C206 C207 1.366 . S
C207 C206 1.366 . S
C207 C208 1.414 . S
C207 C210 1.499 . S
C208 H188 0.950 . S
C208 C207 1.414 . S
C208 C209 1.374 . S
C209 H189 0.950 . S
C209 C205 1.385 . S
C209 C208 1.374 . S
C210 C207 1.499 . S
C210 C211 1.373 . S
C210 C212 1.389 . S
C211 H190 0.950 . S
C211 C210 1.373 . S
C211 C227 1.377 . S
C212 C210 1.389 . S
C212 C213 1.524 . S
C212 C226 1.377 . S
C213 C212 1.524 . S
C213 C214 1.397 . S
C213 C218 1.363 . S
C214 H191 0.950 . S
C214 C213 1.397 . S
C214 C215 1.334 . S
C215 H192 0.950 . S
C215 C214 1.334 . S
C215 C216 1.287 . S
C216 C215 1.287 . S
C216 C217 1.524 . S
C216 H235 0.913 . S
C217 H193 0.950 . S
C217 C216 1.524 . S
C217 C218 1.415 . S
C218 H194 0.950 . S
C218 C213 1.363 . S
C218 C217 1.415 . S
C219 H195 0.951 . S
C219 C220 1.366 . S
C219 C221 1.388 . S
C220 C219 1.366 . S
C220 C224 1.385 . S
C221 H196 0.951 . S
C221 C219 1.388 . S
C221 C222 1.366 . S
C222 C221 1.366 . S
C222 C223 1.414 . S
C222 C225 1.499 . S
C223 H197 0.950 . S
C223 C222 1.414 . S
C223 C224 1.374 . S
C224 H198 0.950 . S
C224 C220 1.385 . S
C224 C223 1.374 . S
C225 C222 1.499 . S
C225 C226 1.373 . S
C225 C227 1.389 . S
C226 H199 0.950 . S
C226 C212 1.377 . S
C226 C225 1.373 . S
C227 C211 1.377 . S
C227 C225 1.389 . S
C227 C228 1.524 . S
C228 C227 1.524 . S
C228 C229 1.397 . S
C228 C233 1.363 . S
C229 H200 0.950 . S
C229 C228 1.397 . S
C229 C230 1.334 . S
C230 H201 0.950 . S
C230 C229 1.334 . S
C230 C231 1.287 . S
C231 C230 1.287 . S
C231 C232 1.524 . S
C231 H234 0.999 . S
C232 H202 0.950 . S
C232 C231 1.524 . S
C232 C233 1.415 . S
C233 H203 0.950 . S
C233 C228 1.363 . S
C233 C232 1.415 . S
H234 C231 0.999 . S
H235 C216 0.913 . S
H236 C254 0.951 . S
H237 C256 0.951 1_655 S
H238 C258 0.950 . S
H239 C259 0.950 . S
H240 C261 0.950 . S
H241 C264 0.950 . S
H242 C265 0.950 1_455 S
H243 C267 0.950 . S
H244 C268 0.950 . S
H245 C269 0.951 . S
H246 C271 0.951 1_455 S
H247 C273 0.950 . S
H248 C274 0.950 . S
H249 C276 0.950 . S
H250 C279 0.950 . S
H251 C280 0.950 1_655 S
H252 C282 0.950 . S
H253 C283 0.950 . S
C254 H236 0.951 . S
C254 C255 1.366 . S
C254 C256 1.388 . S
C255 C254 1.366 . S
C255 C259 1.385 1_556 S
C256 H237 0.951 1_455 S
C256 C254 1.388 . S
C256 C257 1.366 1_556 S
C257 C256 1.366 1_554 S
C257 C258 1.414 . S
C257 C260 1.499 . S
C258 H238 0.950 . S
C258 C257 1.414 . S
C258 C259 1.374 . S
C259 H239 0.950 . S
C259 C255 1.385 1_554 S
C259 C258 1.374 . S
C260 C257 1.499 . S
C260 C261 1.373 1_554 S
C260 C262 1.389 1_455 S
C261 H240 0.950 . S
C261 C260 1.373 1_556 S
C261 C277 1.377 1_545 S
C262 C260 1.389 1_655 S
C262 C263 1.524 . S
C262 C276 1.377 1_545 S
C263 C262 1.524 . S
C263 C264 1.397 1_655 S
C263 C268 1.363 . S
C264 H241 0.950 . S
C264 C263 1.397 1_455 S
C264 C265 1.334 1_455 S
C265 H242 0.950 1_655 S
C265 C264 1.334 1_655 S
C265 C266 1.287 . S
C266 C265 1.287 . S
C266 C267 1.524 . S
C266 H285 0.913 . S
C267 H243 0.950 . S
C267 C266 1.524 . S
C267 C268 1.415 . S
C268 H244 0.950 . S
C268 C263 1.363 . S
C268 C267 1.415 . S
C269 H245 0.951 . S
C269 C270 1.366 . S
C269 C271 1.388 . S
C270 C269 1.366 . S
C270 C274 1.384 1_554 S
C271 H246 0.951 1_655 S
C271 C269 1.388 . S
C271 C272 1.366 1_554 S
C272 C271 1.366 1_556 S
C272 C273 1.414 . S
C272 C275 1.499 . S
C273 H247 0.950 . S
C273 C272 1.414 . S
C273 C274 1.374 . S
C274 H248 0.950 . S
C274 C270 1.384 1_556 S
C274 C273 1.374 . S
C275 C272 1.499 . S
C275 C276 1.373 1_556 S
C275 C277 1.389 1_655 S
C276 H249 0.950 . S
C276 C262 1.377 1_565 S
C276 C275 1.373 1_554 S
C277 C261 1.377 1_565 S
C277 C275 1.389 1_455 S
C277 C278 1.524 . S
C278 C277 1.524 . S
C278 C279 1.397 1_455 S
C278 C283 1.363 . S
C279 H250 0.950 . S
C279 C278 1.397 1_655 S
C279 C280 1.334 1_655 S
C280 H251 0.950 1_455 S
C280 C279 1.334 1_455 S
C280 C281 1.287 . S
C281 C280 1.287 . S
C281 C282 1.524 . S
C281 H284 0.999 . S
C282 H252 0.950 . S
C282 C281 1.524 . S
C282 C283 1.415 . S
C283 H253 0.950 . S
C283 C278 1.363 . S
C283 C282 1.415 . S
H284 C281 0.999 . S
H285 C266 0.913 . S
H286 C304 0.951 . S
H287 C306 0.951 . S
H288 C308 0.950 . S
H289 C309 0.950 . S
H290 C311 0.950 . S
H291 C314 0.950 . S
H292 C315 0.950 . S
H293 C317 0.950 . S
H294 C318 0.950 . S
H295 C319 0.951 . S
H296 C321 0.951 . S
H297 C323 0.950 . S
H298 C324 0.950 . S
H299 C326 0.950 . S
H300 C329 0.950 . S
H301 C330 0.950 . S
H302 C332 0.950 . S
H303 C333 0.950 . S
C304 H286 0.951 . S
C304 C305 1.366 . S
C304 C306 1.388 . S
C305 C304 1.366 . S
C305 C309 1.385 . S
C306 H287 0.951 . S
C306 C304 1.388 . S
C306 C307 1.366 . S
C307 C306 1.366 . S
C307 C308 1.414 . S
C307 C310 1.499 . S
C308 H288 0.950 . S
C308 C307 1.414 . S
C308 C309 1.374 . S
C309 H289 0.950 . S
C309 C305 1.385 . S
C309 C308 1.374 . S
C310 C307 1.499 . S
C310 C311 1.373 1_655 S
C310 C312 1.389 1_545 S
C311 H290 0.950 . S
C311 C310 1.373 1_455 S
C311 C327 1.377 . S
C312 C310 1.389 1_565 S
C312 C313 1.524 . S
C312 C326 1.377 . S
C313 C312 1.524 . S
C313 C314 1.397 1_565 S
C313 C318 1.363 . S
C314 H291 0.950 . S
C314 C313 1.397 1_545 S
C314 C315 1.334 . S
C315 H292 0.950 . S
C315 C314 1.334 . S
C315 C316 1.287 1_545 S
C316 C315 1.287 1_565 S
C316 C317 1.524 . S
C316 H335 0.913 . S
C317 H293 0.950 . S
C317 C316 1.524 . S
C317 C318 1.415 . S
C318 H294 0.950 . S
C318 C313 1.363 . S
C318 C317 1.415 . S
C319 H295 0.951 . S
C319 C320 1.366 . S
C319 C321 1.388 . S
C320 C319 1.366 . S
C320 C324 1.385 . S
C321 H296 0.951 . S
C321 C319 1.388 . S
C321 C322 1.366 . S
C322 C321 1.366 . S
C322 C323 1.414 . S
C322 C325 1.499 . S
C323 H297 0.950 . S
C323 C322 1.414 . S
C323 C324 1.374 . S
C324 H298 0.950 . S
C324 C320 1.385 . S
C324 C323 1.374 . S
C325 C322 1.499 . S
C325 C326 1.373 1_455 S
C325 C327 1.389 1_565 S
C326 H299 0.950 . S
C326 C312 1.377 . S
C326 C325 1.373 1_655 S
C327 C311 1.377 . S
C327 C325 1.389 1_545 S
C327 C328 1.524 . S
C328 C327 1.524 . S
C328 C329 1.397 1_545 S
C328 C333 1.363 . S
C329 H300 0.950 . S
C329 C328 1.397 1_565 S
C329 C330 1.334 . S
C330 H301 0.950 . S
C330 C329 1.334 . S
C330 C331 1.287 1_565 S
C331 C330 1.287 1_545 S
C331 C332 1.524 . S
C331 H334 0.999 . S
C332 H302 0.950 . S
C332 C331 1.524 . S
C332 C333 1.415 . S
C333 H303 0.950 . S
C333 C328 1.363 . S
C333 C332 1.415 . S
H334 C331 0.999 . S
H335 C316 0.913 . S
H336 C354 0.951 . S
H337 C356 0.951 . S
H338 C358 0.950 . S
H339 C359 0.950 . S
H340 C361 0.950 . S
H341 C364 0.950 . S
H342 C365 0.950 . S
H343 C367 0.950 . S
H344 C368 0.950 . S
H345 C369 0.951 . S
H346 C371 0.951 . S
H347 C373 0.950 . S
H348 C374 0.950 . S
H349 C376 0.950 . S
H350 C379 0.950 . S
H351 C380 0.950 . S
H352 C382 0.950 . S
H353 C383 0.950 . S
C354 H336 0.951 . S
C354 C355 1.366 . S
C354 C356 1.388 . S
C355 C354 1.366 . S
C355 C359 1.385 . S
C356 H337 0.951 . S
C356 C354 1.388 . S
C356 C357 1.366 . S
C357 C356 1.366 . S
C357 C358 1.414 . S
C357 C360 1.499 . S
C358 H338 0.950 . S
C358 C357 1.414 . S
C358 C359 1.374 . S
C359 H339 0.950 . S
C359 C355 1.385 . S
C359 C358 1.374 . S
C360 C357 1.499 . S
C360 C361 1.373 . S
C360 C362 1.389 . S
C361 H340 0.950 . S
C361 C360 1.373 . S
C361 C377 1.377 . S
C362 C360 1.389 . S
C362 C363 1.524 . S
C362 C376 1.377 . S
C363 C362 1.524 . S
C363 C364 1.397 . S
C363 C368 1.363 . S
C364 H341 0.950 . S
C364 C363 1.397 . S
C364 C365 1.334 . S
C365 H342 0.950 . S
C365 C364 1.334 . S
C365 C366 1.287 . S
C366 C365 1.287 . S
C366 C367 1.524 . S
C366 H385 0.913 . S
C367 H343 0.950 . S
C367 C366 1.524 . S
C367 C368 1.415 . S
C368 H344 0.950 . S
C368 C363 1.363 . S
C368 C367 1.415 . S
C369 H345 0.951 . S
C369 C370 1.366 . S
C369 C371 1.388 . S
C370 C369 1.366 . S
C370 C374 1.385 . S
C371 H346 0.951 . S
C371 C369 1.388 . S
C371 C372 1.366 . S
C372 C371 1.366 . S
C372 C373 1.414 . S
C372 C375 1.499 . S
C373 H347 0.950 . S
C373 C372 1.414 . S
C373 C374 1.374 . S
C374 H348 0.950 . S
C374 C370 1.385 . S
C374 C373 1.374 . S
C375 C372 1.499 . S
C375 C376 1.373 . S
C375 C377 1.389 . S
C376 H349 0.950 . S
C376 C362 1.377 . S
C376 C375 1.373 . S
C377 C361 1.377 . S
C377 C375 1.389 . S
C377 C378 1.524 . S
C378 C377 1.524 . S
C378 C379 1.397 . S
C378 C383 1.363 . S
C379 H350 0.950 . S
C379 C378 1.397 . S
C379 C380 1.334 . S
C380 H351 0.950 . S
C380 C379 1.334 . S
C380 C381 1.287 . S
C381 C380 1.287 . S
C381 C382 1.524 . S
C381 H384 0.999 . S
C382 H352 0.950 . S
C382 C381 1.524 . S
C382 C383 1.415 . S
C383 H353 0.950 . S
C383 C378 1.363 . S
C383 C382 1.415 . S
H384 C381 0.999 . S
H385 C366 0.913 . S
H386 C404 0.951 . S
H387 C406 0.951 . S
H388 C408 0.950 . S
H389 C409 0.950 . S
H390 C411 0.950 . S
H391 C414 0.950 . S
H392 C415 0.950 . S
H393 C417 0.950 . S
H394 C418 0.950 . S
H395 C419 0.951 . S
H396 C421 0.951 . S
H397 C423 0.950 . S
H398 C424 0.950 . S
H399 C426 0.950 . S
H400 C429 0.950 . S
H401 C430 0.950 . S
H402 C432 0.950 . S
H403 C433 0.950 . S
C404 H386 0.951 . S
C404 C405 1.366 . S
C404 C406 1.388 . S
C405 C404 1.366 . S
C405 C409 1.385 . S
C406 H387 0.951 . S
C406 C404 1.388 . S
C406 C407 1.366 . S
C407 C406 1.366 . S
C407 C408 1.414 . S
C407 C410 1.499 . S
C408 H388 0.950 . S
C408 C407 1.414 . S
C408 C409 1.374 . S
C409 H389 0.950 . S
C409 C405 1.385 . S
C409 C408 1.374 . S
C410 C407 1.499 . S
C410 C411 1.373 . S
C410 C412 1.389 . S
C411 H390 0.950 . S
C411 C410 1.373 . S
C411 C427 1.377 . S
C412 C410 1.389 . S
C412 C413 1.524 . S
C412 C426 1.377 . S
C413 C412 1.524 . S
C413 C414 1.397 . S
C413 C418 1.363 . S
C414 H391 0.950 . S
C414 C413 1.397 . S
C414 C415 1.334 . S
C415 H392 0.950 . S
C415 C414 1.334 . S
C415 C416 1.287 . S
C416 C415 1.287 . S
C416 C417 1.524 . S
C416 H435 0.913 . S
C417 H393 0.950 . S
C417 C416 1.524 . S
C417 C418 1.415 . S
C418 H394 0.950 . S
C418 C413 1.363 . S
C418 C417 1.415 . S
C419 H395 0.951 . S
C419 C420 1.366 . S
C419 C421 1.388 . S
C420 C419 1.366 . S
C420 C424 1.385 . S
C421 H396 0.951 . S
C421 C419 1.388 . S
C421 C422 1.366 . S
C422 C421 1.366 . S
C422 C423 1.414 . S
C422 C425 1.499 . S
C423 H397 0.950 . S
C423 C422 1.414 . S
C423 C424 1.374 . S
C424 H398 0.950 . S
C424 C420 1.385 . S
C424 C423 1.374 . S
C425 C422 1.499 . S
C425 C426 1.373 . S
C425 C427 1.389 . S
C426 H399 0.950 . S
C426 C412 1.377 . S
C426 C425 1.373 . S
C427 C411 1.377 . S
C427 C425 1.389 . S
C427 C428 1.524 . S
C428 C427 1.524 . S
C428 C429 1.397 . S
C428 C433 1.363 . S
C429 H400 0.950 . S
C429 C428 1.397 . S
C429 C430 1.334 . S
C430 H401 0.950 . S
C430 C429 1.334 . S
C430 C431 1.287 . S
C431 C430 1.287 . S
C431 C432 1.524 . S
C431 H434 0.999 . S
C432 H402 0.950 . S
C432 C431 1.524 . S
C432 C433 1.415 . S
C433 H403 0.950 . S
C433 C428 1.363 . S
C433 C432 1.415 . S
H434 C431 0.999 . S
H435 C416 0.913 . S
H436 C454 0.951 . S
H437 C456 0.951 . S
H438 C458 0.950 . S
H439 C459 0.950 . S
H440 C461 0.950 . S
H441 C464 0.950 . S
H442 C465 0.950 . S
H443 C467 0.950 . S
H444 C468 0.950 . S
H445 C469 0.951 . S
H446 C471 0.951 . S
H447 C473 0.950 . S
H448 C474 0.950 . S
H449 C476 0.950 . S
H450 C479 0.950 . S
H451 C480 0.950 . S
H452 C482 0.950 . S
H453 C483 0.950 . S
C454 H436 0.951 . S
C454 C455 1.366 . S
C454 C456 1.388 . S
C455 C454 1.366 . S
C455 C459 1.385 . S
C456 H437 0.951 . S
C456 C454 1.388 . S
C456 C457 1.366 . S
C457 C456 1.366 . S
C457 C458 1.414 . S
C457 C460 1.499 . S
C458 H438 0.950 . S
C458 C457 1.414 . S
C458 C459 1.374 . S
C459 H439 0.950 . S
C459 C455 1.385 . S
C459 C458 1.374 . S
C460 C457 1.499 . S
C460 C461 1.373 . S
C460 C462 1.389 . S
C461 H440 0.950 . S
C461 C460 1.373 . S
C461 C477 1.377 . S
C462 C460 1.389 . S
C462 C463 1.524 . S
C462 C476 1.377 . S
C463 C462 1.524 . S
C463 C464 1.397 . S
C463 C468 1.363 . S
C464 H441 0.950 . S
C464 C463 1.397 . S
C464 C465 1.334 . S
C465 H442 0.950 . S
C465 C464 1.334 . S
C465 C466 1.287 . S
C466 C465 1.287 . S
C466 C467 1.524 . S
C466 H485 0.913 . S
C467 H443 0.950 . S
C467 C466 1.524 . S
C467 C468 1.415 . S
C468 H444 0.950 . S
C468 C463 1.363 . S
C468 C467 1.415 . S
C469 H445 0.951 . S
C469 C470 1.366 . S
C469 C471 1.388 . S
C470 C469 1.366 . S
C470 C474 1.385 . S
C471 H446 0.951 . S
C471 C469 1.388 . S
C471 C472 1.366 . S
C472 C471 1.366 . S
C472 C473 1.414 . S
C472 C475 1.499 . S
C473 H447 0.950 . S
C473 C472 1.414 . S
C473 C474 1.374 . S
C474 H448 0.950 . S
C474 C470 1.385 . S
C474 C473 1.374 . S
C475 C472 1.499 . S
C475 C476 1.373 . S
C475 C477 1.389 . S
C476 H449 0.950 . S
C476 C462 1.377 . S
C476 C475 1.373 . S
C477 C461 1.377 . S
C477 C475 1.389 . S
C477 C478 1.524 . S
C478 C477 1.524 . S
C478 C479 1.397 . S
C478 C483 1.363 . S
C479 H450 0.950 . S
C479 C478 1.397 . S
C479 C480 1.334 . S
C480 H451 0.950 . S
C480 C479 1.334 . S
C480 C481 1.287 . S
C481 C480 1.287 . S
C481 C482 1.524 . S
C481 H484 0.999 . S
C482 H452 0.950 . S
C482 C481 1.524 . S
C482 C483 1.415 . S
C483 H453 0.950 . S
C483 C478 1.363 . S
C483 C482 1.415 . S
H484 C481 0.999 . S
H485 C466 0.913 . S
H486 C504 0.951 . S
H487 C506 0.951 . S
H488 C508 0.950 . S
H489 C509 0.950 . S
H490 C511 0.950 . S
H491 C514 0.950 . S
H492 C515 0.950 . S
H493 C517 0.950 . S
H494 C518 0.950 . S
H495 C519 0.951 . S
H496 C521 0.951 . S
H497 C523 0.950 . S
H498 C524 0.950 . S
H499 C526 0.950 . S
H500 C529 0.950 . S
H501 C530 0.950 . S
H502 C532 0.950 . S
H503 C533 0.950 . S
C504 H486 0.951 . S
C504 C505 1.366 . S
C504 C506 1.388 . S
C505 C504 1.366 . S
C505 C509 1.385 . S
C506 H487 0.951 . S
C506 C504 1.388 . S
C506 C507 1.366 . S
C507 C506 1.366 . S
C507 C508 1.414 . S
C507 C510 1.499 . S
C508 H488 0.950 . S
C508 C507 1.414 . S
C508 C509 1.374 . S
C509 H489 0.950 . S
C509 C505 1.385 . S
C509 C508 1.374 . S
C510 C507 1.499 . S
C510 C511 1.373 . S
C510 C512 1.389 . S
C511 H490 0.950 . S
C511 C510 1.373 . S
C511 C527 1.377 . S
C512 C510 1.389 . S
C512 C513 1.524 . S
C512 C526 1.377 . S
C513 C512 1.524 . S
C513 C514 1.397 . S
C513 C518 1.363 . S
C514 H491 0.950 . S
C514 C513 1.397 . S
C514 C515 1.334 . S
C515 H492 0.950 . S
C515 C514 1.334 . S
C515 C516 1.287 . S
C516 C515 1.287 . S
C516 C517 1.524 . S
C516 H535 0.913 . S
C517 H493 0.950 . S
C517 C516 1.524 . S
C517 C518 1.415 . S
C518 H494 0.950 . S
C518 C513 1.363 . S
C518 C517 1.415 . S
C519 H495 0.951 . S
C519 C520 1.366 . S
C519 C521 1.388 . S
C520 C519 1.366 . S
C520 C524 1.385 . S
C521 H496 0.951 . S
C521 C519 1.388 . S
C521 C522 1.366 . S
C522 C521 1.366 . S
C522 C523 1.414 . S
C522 C525 1.499 . S
C523 H497 0.950 . S
C523 C522 1.414 . S
C523 C524 1.374 . S
C524 H498 0.950 . S
C524 C520 1.385 . S
C524 C523 1.374 . S
C525 C522 1.499 . S
C525 C526 1.373 . S
C525 C527 1.389 . S
C526 H499 0.950 . S
C526 C512 1.377 . S
C526 C525 1.373 . S
C527 C511 1.377 . S
C527 C525 1.389 . S
C527 C528 1.524 . S
C528 C527 1.524 . S
C528 C529 1.397 . S
C528 C533 1.363 . S
C529 H500 0.950 . S
C529 C528 1.397 . S
C529 C530 1.334 . S
C530 H501 0.950 . S
C530 C529 1.334 . S
C530 C531 1.287 . S
C531 C530 1.287 . S
C531 C532 1.524 . S
C531 H534 0.999 . S
C532 H502 0.950 . S
C532 C531 1.524 . S
C532 C533 1.415 . S
C533 H503 0.950 . S
C533 C528 1.363 . S
C533 C532 1.415 . S
H534 C531 0.999 . S
H535 C516 0.913 . S
H536 C554 0.951 . S
H537 C556 0.951 . S
H538 C558 0.950 . S
H539 C559 0.950 . S
H540 C561 0.950 . S
H541 C564 0.950 . S
H542 C565 0.950 . S
H543 C567 0.950 . S
H544 C568 0.950 . S
H545 C569 0.951 . S
H546 C571 0.951 . S
H547 C573 0.950 . S
H548 C574 0.950 . S
H549 C576 0.950 . S
H550 C579 0.950 . S
H551 C580 0.950 . S
H552 C582 0.950 . S
H553 C583 0.950 . S
C554 H536 0.951 . S
C554 C555 1.366 . S
C554 C556 1.388 . S
C555 C554 1.366 . S
C555 C559 1.385 . S
C556 H537 0.951 . S
C556 C554 1.388 . S
C556 C557 1.366 . S
C557 C556 1.366 . S
C557 C558 1.414 . S
C557 C560 1.499 . S
C558 H538 0.950 . S
C558 C557 1.414 . S
C558 C559 1.374 . S
C559 H539 0.950 . S
C559 C555 1.385 . S
C559 C558 1.374 . S
C560 C557 1.499 . S
C560 C561 1.373 1_655 S
C560 C562 1.389 . S
C561 H540 0.950 . S
C561 C560 1.373 1_455 S
C561 C577 1.377 . S
C562 C560 1.389 . S
C562 C563 1.524 . S
C562 C576 1.377 . S
C563 C562 1.524 . S
C563 C564 1.397 . S
C563 C568 1.363 . S
C564 H541 0.950 . S
C564 C563 1.397 . S
C564 C565 1.334 . S
C565 H542 0.950 . S
C565 C564 1.334 . S
C565 C566 1.287 . S
C566 C565 1.287 . S
C566 C567 1.524 . S
C566 H585 0.913 . S
C567 H543 0.950 . S
C567 C566 1.524 . S
C567 C568 1.415 . S
C568 H544 0.950 . S
C568 C563 1.363 . S
C568 C567 1.415 . S
C569 H545 0.951 . S
C569 C570 1.366 . S
C569 C571 1.388 . S
C570 C569 1.366 . S
C570 C574 1.385 . S
C571 H546 0.951 . S
C571 C569 1.388 . S
C571 C572 1.366 . S
C572 C571 1.366 . S
C572 C573 1.414 . S
C572 C575 1.499 . S
C573 H547 0.950 . S
C573 C572 1.414 . S
C573 C574 1.374 . S
C574 H548 0.950 . S
C574 C570 1.385 . S
C574 C573 1.374 . S
C575 C572 1.499 . S
C575 C576 1.373 1_455 S
C575 C577 1.389 . S
C576 H549 0.950 . S
C576 C562 1.377 . S
C576 C575 1.373 1_655 S
C577 C561 1.377 . S
C577 C575 1.389 . S
C577 C578 1.524 . S
C578 C577 1.524 . S
C578 C579 1.397 . S
C578 C583 1.363 . S
C579 H550 0.950 . S
C579 C578 1.397 . S
C579 C580 1.334 . S
C580 H551 0.950 . S
C580 C579 1.334 . S
C580 C581 1.287 . S
C581 C580 1.287 . S
C581 C582 1.524 . S
C581 H584 0.999 . S
C582 H552 0.950 . S
C582 C581 1.524 . S
C582 C583 1.415 . S
C583 H553 0.950 . S
C583 C578 1.363 . S
C583 C582 1.415 . S
H584 C581 0.999 . S
H585 C566 0.913 . S
H586 C604 0.951 . S
H587 C606 0.951 . S
H588 C608 0.950 1_455 S
H589 C609 0.950 . S
H590 C611 0.950 . S
H591 C614 0.950 . S
H592 C615 0.950 . S
H593 C617 0.950 . S
H594 C618 0.950 . S
H595 C619 0.951 . S
H596 C621 0.951 . S
H597 C623 0.950 1_655 S
H598 C624 0.950 . S
H599 C626 0.950 . S
H600 C629 0.950 . S
H601 C630 0.950 . S
H602 C632 0.950 . S
H603 C633 0.950 . S
C604 H586 0.951 . S
C604 C605 1.366 . S
C604 C606 1.388 . S
C605 C604 1.366 . S
C605 C609 1.385 . S
C606 H587 0.951 . S
C606 C604 1.388 . S
C606 C607 1.366 . S
C607 C606 1.366 . S
C607 C608 1.414 . S
C607 C610 1.499 . S
C608 H588 0.950 1_655 S
C608 C607 1.414 . S
C608 C609 1.374 . S
C609 H589 0.950 . S
C609 C605 1.385 . S
C609 C608 1.374 . S
C610 C607 1.499 . S
C610 C611 1.373 1_655 S
C610 C612 1.389 . S
C611 H590 0.950 . S
C611 C610 1.373 1_455 S
C611 C627 1.377 . S
C612 C610 1.389 . S
C612 C613 1.524 . S
C612 C626 1.377 . S
C613 C612 1.524 . S
C613 C614 1.397 . S
C613 C618 1.363 . S
C614 H591 0.950 . S
C614 C613 1.397 . S
C614 C615 1.334 . S
C615 H592 0.950 . S
C615 C614 1.334 . S
C615 C616 1.287 . S
C616 C615 1.287 . S
C616 C617 1.524 . S
C616 H635 0.913 . S
C617 H593 0.950 . S
C617 C616 1.524 . S
C617 C618 1.415 . S
C618 H594 0.950 . S
C618 C613 1.363 . S
C618 C617 1.415 . S
C619 H595 0.951 . S
C619 C620 1.366 . S
C619 C621 1.388 . S
C620 C619 1.366 . S
C620 C624 1.385 . S
C621 H596 0.951 . S
C621 C619 1.388 . S
C621 C622 1.366 . S
C622 C621 1.366 . S
C622 C623 1.414 . S
C622 C625 1.499 . S
C623 H597 0.950 1_455 S
C623 C622 1.414 . S
C623 C624 1.374 . S
C624 H598 0.950 . S
C624 C620 1.385 . S
C624 C623 1.374 . S
C625 C622 1.499 . S
C625 C626 1.373 1_455 S
C625 C627 1.389 . S
C626 H599 0.950 . S
C626 C612 1.377 . S
C626 C625 1.373 1_655 S
C627 C611 1.377 . S
C627 C625 1.389 . S
C627 C628 1.524 . S
C628 C627 1.524 . S
C628 C629 1.397 . S
C628 C633 1.363 . S
C629 H600 0.950 . S
C629 C628 1.397 . S
C629 C630 1.334 . S
C630 H601 0.950 . S
C630 C629 1.334 . S
C630 C631 1.287 . S
C631 C630 1.287 . S
C631 C632 1.524 . S
C631 H634 0.999 . S
C632 H602 0.950 . S
C632 C631 1.524 . S
C632 C633 1.415 . S
C633 H603 0.950 . S
C633 C628 1.363 . S
C633 C632 1.415 . S
H634 C631 0.999 . S
H635 C616 0.913 . S
H636 C654 0.951 . S
H637 C656 0.951 . S
H638 C658 0.950 . S
H639 C659 0.950 . S
H640 C661 0.950 . S
H641 C664 0.950 . S
H642 C665 0.950 . S
H643 C667 0.950 . S
H644 C668 0.950 . S
H645 C669 0.951 . S
H646 C671 0.951 . S
H647 C673 0.950 . S
H648 C674 0.950 . S
H649 C676 0.950 . S
H650 C679 0.950 . S
H651 C680 0.950 . S
H652 C682 0.950 . S
H653 C683 0.950 . S
C654 H636 0.951 . S
C654 C655 1.366 . S
C654 C656 1.388 . S
C655 C654 1.366 . S
C655 C659 1.385 . S
C656 H637 0.951 . S
C656 C654 1.388 . S
C656 C657 1.366 . S
C657 C656 1.366 . S
C657 C658 1.414 . S
C657 C660 1.499 . S
C658 H638 0.950 . S
C658 C657 1.414 . S
C658 C659 1.374 . S
C659 H639 0.950 . S
C659 C655 1.385 . S
C659 C658 1.374 . S
C660 C657 1.499 . S
C660 C661 1.373 . S
C660 C662 1.389 1_655 S
C661 H640 0.950 . S
C661 C660 1.373 . S
C661 C677 1.377 . S
C662 C660 1.389 1_455 S
C662 C663 1.524 . S
C662 C676 1.377 . S
C663 C662 1.524 . S
C663 C664 1.397 . S
C663 C668 1.363 . S
C664 H641 0.950 . S
C664 C663 1.397 . S
C664 C665 1.334 . S
C665 H642 0.950 . S
C665 C664 1.334 . S
C665 C666 1.287 . S
C666 C665 1.287 . S
C666 C667 1.524 . S
C666 H685 0.913 . S
C667 H643 0.950 . S
C667 C666 1.524 . S
C667 C668 1.415 . S
C668 H644 0.950 . S
C668 C663 1.363 . S
C668 C667 1.415 . S
C669 H645 0.951 . S
C669 C670 1.366 . S
C669 C671 1.388 . S
C670 C669 1.366 . S
C670 C674 1.385 . S
C671 H646 0.951 . S
C671 C669 1.388 . S
C671 C672 1.366 . S
C672 C671 1.366 . S
C672 C673 1.414 . S
C672 C675 1.499 . S
C673 H647 0.950 . S
C673 C672 1.414 . S
C673 C674 1.374 . S
C674 H648 0.950 . S
C674 C670 1.385 . S
C674 C673 1.374 . S
C675 C672 1.499 . S
C675 C676 1.373 . S
C675 C677 1.389 1_455 S
C676 H649 0.950 . S
C676 C662 1.377 . S
C676 C675 1.373 . S
C677 C661 1.377 . S
C677 C675 1.389 1_655 S
C677 C678 1.524 . S
C678 C677 1.524 . S
C678 C679 1.397 . S
C678 C683 1.363 . S
C679 H650 0.950 . S
C679 C678 1.397 . S
C679 C680 1.334 . S
C680 H651 0.950 . S
C680 C679 1.334 . S
C680 C681 1.287 . S
C681 C680 1.287 . S
C681 C682 1.524 . S
C681 H684 0.999 . S
C682 H652 0.950 . S
C682 C681 1.524 . S
C682 C683 1.415 . S
C683 H653 0.950 . S
C683 C678 1.363 . S
C683 C682 1.415 . S
H684 C681 0.999 . S
H685 C666 0.913 . S
H686 C704 0.951 . S
H687 C706 0.951 . S
H688 C708 0.950 . S
H689 C709 0.950 . S
H690 C711 0.950 . S
H691 C714 0.950 . S
H692 C715 0.950 . S
H693 C717 0.950 . S
H694 C718 0.950 . S
H695 C719 0.951 . S
H696 C721 0.951 . S
H697 C723 0.950 . S
H698 C724 0.950 . S
H699 C726 0.950 . S
H700 C729 0.950 . S
H701 C730 0.950 . S
H702 C732 0.950 . S
H703 C733 0.950 . S
C704 H686 0.951 . S
C704 C705 1.366 . S
C704 C706 1.388 . S
C705 C704 1.366 . S
C705 C709 1.385 . S
C706 H687 0.951 . S
C706 C704 1.388 . S
C706 C707 1.366 . S
C707 C706 1.366 . S
C707 C708 1.414 . S
C707 C710 1.499 . S
C708 H688 0.950 . S
C708 C707 1.414 . S
C708 C709 1.374 . S
C709 H689 0.950 . S
C709 C705 1.385 . S
C709 C708 1.374 . S
C710 C707 1.499 . S
C710 C711 1.373 . S
C710 C712 1.389 1_455 S
C711 H690 0.950 . S
C711 C710 1.373 . S
C711 C727 1.377 . S
C712 C710 1.389 1_655 S
C712 C713 1.524 . S
C712 C726 1.377 . S
C713 C712 1.524 . S
C713 C714 1.397 . S
C713 C718 1.363 . S
C714 H691 0.950 . S
C714 C713 1.397 . S
C714 C715 1.334 . S
C715 H692 0.950 . S
C715 C714 1.334 . S
C715 C716 1.287 . S
C716 C715 1.287 . S
C716 C717 1.524 . S
C716 H735 0.913 . S
C717 H693 0.950 . S
C717 C716 1.524 . S
C717 C718 1.415 . S
C718 H694 0.950 . S
C718 C713 1.363 . S
C718 C717 1.415 . S
C719 H695 0.951 . S
C719 C720 1.366 . S
C719 C721 1.388 . S
C720 C719 1.366 . S
C720 C724 1.385 . S
C721 H696 0.951 . S
C721 C719 1.388 . S
C721 C722 1.366 . S
C722 C721 1.366 . S
C722 C723 1.414 . S
C722 C725 1.499 . S
C723 H697 0.950 . S
C723 C722 1.414 . S
C723 C724 1.374 . S
C724 H698 0.950 . S
C724 C720 1.385 . S
C724 C723 1.374 . S
C725 C722 1.499 . S
C725 C726 1.373 . S
C725 C727 1.389 1_655 S
C726 H699 0.950 . S
C726 C712 1.377 . S
C726 C725 1.373 . S
C727 C711 1.377 . S
C727 C725 1.389 1_455 S
C727 C728 1.524 . S
C728 C727 1.524 . S
C728 C729 1.397 . S
C728 C733 1.363 . S
C729 H700 0.950 . S
C729 C728 1.397 . S
C729 C730 1.334 . S
C730 H701 0.950 . S
C730 C729 1.334 . S
C730 C731 1.287 . S
C731 C730 1.287 . S
C731 C732 1.524 . S
C731 H734 0.999 . S
C732 H702 0.950 . S
C732 C731 1.524 . S
C732 C733 1.415 . S
C733 H703 0.950 . S
C733 C728 1.363 . S
C733 C732 1.415 . S
H734 C731 0.999 . S
H735 C716 0.913 . S
C155 C47 1.631 1_554 S
C170 C4 1.631 . S
C205 C72 1.631 . S
C220 C115 1.631 . S
C255 C13 1.631 . S
C270 C38 1.632 . S
C305 C106 1.631 . S
C320 C81 1.631 . S
C355 C131 0.841 . S
C370 C17 0.841 . S
C405 C63 0.841 . S
C420 C85 0.841 . S
C455 C42 0.842 . S
C470 C68 0.842 . S
C505 C110 0.842 . S
C520 C0 0.843 . S
C555 C51 0.842 . S
C570 C97 0.840 . S
C605 C119 0.842 . S
C620 C29 0.839 . S
C655 C102 0.841 . S
C670 C8 0.843 . S
C705 C76 0.842 . S
C720 C34 0.842 . S
