# Generated by pormake.
# Topology ukk, (4)-cn, num edge types: 1
# Building blocks:
#     Node 0, Type 0, BuildingBlock: ESEHIV_clean_sbu_0, # of connection points: 4
#     Node 1, Type 0, BuildingBlock: ESEHIV_clean_sbu_0, # of connection points: 4
#     Node 2, Type 0, BuildingBlock: ESEHIV_clean_sbu_0, # of connection points: 4
#     Node 3, Type 0, BuildingBlock: ESEHIV_clean_sbu_0, # of connection points: 4
#     Node 4, Type 0, BuildingBlock: ESEHIV_clean_sbu_0, # of connection points: 4
#     Node 5, Type 0, BuildingBlock: ESEHIV_clean_sbu_0, # of connection points: 4
#     Node 6, Type 0, BuildingBlock: ESEHIV_clean_sbu_0, # of connection points: 4
#     Node 7, Type 0, BuildingBlock: ESEHIV_clean_sbu_0, # of connection points: 4
#     Node 8, Type 0, BuildingBlock: ESEHIV_clean_sbu_0, # of connection points: 4
#     Node 9, Type 0, BuildingBlock: ESEHIV_clean_sbu_0, # of connection points: 4
#     Node 10, Type 0, BuildingBlock: ESEHIV_clean_sbu_0, # of connection points: 4
#     Node 11, Type 0, BuildingBlock: ESEHIV_clean_sbu_0, # of connection points: 4
#     Node 12, Type 0, BuildingBlock: ESEHIV_clean_sbu_0, # of connection points: 4
#     Node 13, Type 0, BuildingBlock: ESEHIV_clean_sbu_0, # of connection points: 4
#     Node 14, Type 0, BuildingBlock: ESEHIV_clean_sbu_0, # of connection points: 4
#     Node 15, Type 0, BuildingBlock: ESEHIV_clean_sbu_0, # of connection points: 4
#     Edge 16, Type (0, 0), BuildingBlock: TEMPAE_clean_linker_10, # of connection points: 2
#     Edge 17, Type (0, 0), BuildingBlock: TEMPAE_clean_linker_10, # of connection points: 2
#     Edge 18, Type (0, 0), BuildingBlock: TEMPAE_clean_linker_10, # of connection points: 2
#     Edge 19, Type (0, 0), BuildingBlock: TEMPAE_clean_linker_10, # of connection points: 2
#     Edge 20, Type (0, 0), BuildingBlock: TEMPAE_clean_linker_10, # of connection points: 2
#     Edge 21, Type (0, 0), BuildingBlock: TEMPAE_clean_linker_10, # of connection points: 2
#     Edge 22, Type (0, 0), BuildingBlock: TEMPAE_clean_linker_10, # of connection points: 2
#     Edge 23, Type (0, 0), BuildingBlock: TEMPAE_clean_linker_10, # of connection points: 2
#     Edge 24, Type (0, 0), BuildingBlock: TEMPAE_clean_linker_10, # of connection points: 2
#     Edge 25, Type (0, 0), BuildingBlock: TEMPAE_clean_linker_10, # of connection points: 2
#     Edge 26, Type (0, 0), BuildingBlock: TEMPAE_clean_linker_10, # of connection points: 2
#     Edge 27, Type (0, 0), BuildingBlock: TEMPAE_clean_linker_10, # of connection points: 2
#     Edge 28, Type (0, 0), BuildingBlock: TEMPAE_clean_linker_10, # of connection points: 2
#     Edge 29, Type (0, 0), BuildingBlock: TEMPAE_clean_linker_10, # of connection points: 2
#     Edge 30, Type (0, 0), BuildingBlock: TEMPAE_clean_linker_10, # of connection points: 2
#     Edge 31, Type (0, 0), BuildingBlock: TEMPAE_clean_linker_10, # of connection points: 2
#     Edge 32, Type (0, 0), BuildingBlock: TEMPAE_clean_linker_10, # of connection points: 2
#     Edge 33, Type (0, 0), BuildingBlock: TEMPAE_clean_linker_10, # of connection points: 2
#     Edge 34, Type (0, 0), BuildingBlock: TEMPAE_clean_linker_10, # of connection points: 2
#     Edge 35, Type (0, 0), BuildingBlock: TEMPAE_clean_linker_10, # of connection points: 2
#     Edge 36, Type (0, 0), BuildingBlock: TEMPAE_clean_linker_10, # of connection points: 2
#     Edge 37, Type (0, 0), BuildingBlock: TEMPAE_clean_linker_10, # of connection points: 2
#     Edge 38, Type (0, 0), BuildingBlock: TEMPAE_clean_linker_10, # of connection points: 2
#     Edge 39, Type (0, 0), BuildingBlock: TEMPAE_clean_linker_10, # of connection points: 2
#     Edge 40, Type (0, 0), BuildingBlock: TEMPAE_clean_linker_10, # of connection points: 2
#     Edge 41, Type (0, 0), BuildingBlock: TEMPAE_clean_linker_10, # of connection points: 2
#     Edge 42, Type (0, 0), BuildingBlock: TEMPAE_clean_linker_10, # of connection points: 2
#     Edge 43, Type (0, 0), BuildingBlock: TEMPAE_clean_linker_10, # of connection points: 2
#     Edge 44, Type (0, 0), BuildingBlock: TEMPAE_clean_linker_10, # of connection points: 2
#     Edge 45, Type (0, 0), BuildingBlock: TEMPAE_clean_linker_10, # of connection points: 2
#     Edge 46, Type (0, 0), BuildingBlock: TEMPAE_clean_linker_10, # of connection points: 2
#     Edge 47, Type (0, 0), BuildingBlock: TEMPAE_clean_linker_10, # of connection points: 2
# Relax obj value: 0.042
# Max RMSD: 0.118
# Mean RMSD: 0.118
data_MOF--net-ukk--node1-ESEHIV_clean_sbu_0--edge1-TEMPAE_clean_linker_10
_symmetry_space_group_name_H-M    P1
_symmetry_Int_Tables_number       1
_symmetry_cell_setting            triclinic
loop_
_symmetry_equiv_pos_as_xyz
'x, y, z'
_cell_length_a     58.549973
_cell_length_b     58.526644
_cell_length_c     23.362602
_cell_angle_alpha  89.853195
_cell_angle_beta   89.911596
_cell_angle_gamma 90.014207
loop_
_atom_site_label
_atom_site_type_symbol
_atom_site_fract_x
_atom_site_fract_y
_atom_site_fract_z
_atom_type_partial_charge
Cu0 Cu 0.37697 0.13443 0.14972 0.0
N1 N 0.38894 0.13213 0.22485 0.0
N2 N 0.41744 0.13018 0.2898 0.0
C3 C 0.41172 0.1307 0.23362 0.0
C4 C 0.39714 0.1312 0.31755 0.0
C5 C 0.37966 0.13241 0.27756 0.0
O6 O 0.38761 0.10506 0.11736 0.0
C7 C 0.38149 0.18058 0.15762 0.0
O8 O 0.36744 0.17479 0.19909 0.0
H9 H 0.42384 0.1301 0.1987 0.0
H10 H 0.36161 0.13387 0.28652 0.0
N11 N 0.34465 0.1353 0.13811 0.0
N12 N 0.31114 0.13497 0.09008 0.0
C13 C 0.33416 0.13737 0.08648 0.0
C14 C 0.32753 0.13178 0.17567 0.0
C15 C 0.30701 0.13144 0.14632 0.0
C16 C 0.37655 0.0879 0.13763 0.0
O17 O 0.35937 0.09179 0.17236 0.0
H18 H 0.34335 0.13969 0.04665 0.0
H19 H 0.32981 0.12884 0.22099 0.0
O20 O 0.38855 0.16468 0.12423 0.0
H21 H 0.39496 0.13167 0.36352 0.0
H22 H 0.29031 0.12862 0.16498 0.0
Cu23 Cu 0.15864 0.65295 0.85148 0.0
N24 N 0.15533 0.62084 0.85738 0.0
N25 N 0.14995 0.58438 0.82964 0.0
C26 C 0.14487 0.60665 0.81992 0.0
C27 C 0.16383 0.58466 0.87581 0.0
C28 C 0.16716 0.60701 0.89252 0.0
O29 O 0.1339 0.66374 0.80199 0.0
C30 C 0.2007 0.64458 0.79206 0.0
O31 O 0.18926 0.62751 0.7697 0.0
H32 H 0.13456 0.61256 0.78464 0.0
H33 H 0.17866 0.61287 0.92556 0.0
N34 N 0.15471 0.66733 0.92368 0.0
N35 N 0.15033 0.69395 0.99267 0.0
C36 C 0.15519 0.68993 0.93664 0.0
C37 C 0.14947 0.65679 0.97322 0.0
C38 C 0.14681 0.673 0.01548 0.0
C39 C 0.13112 0.65782 0.75003 0.0
O40 O 0.14758 0.64676 0.72375 0.0
H41 H 0.15844 0.70318 0.90525 0.0
H42 H 0.14738 0.63854 0.97822 0.0
O43 O 0.19015 0.65862 0.82461 0.0
H44 H 0.17233 0.56993 0.89402 0.0
H45 H 0.14266 0.66951 0.05979 0.0
Cu46 Cu 0.64268 0.90139 0.10613 0.0
N47 N 0.6105 0.90219 0.10685 0.0
N48 N 0.57481 0.90349 0.14249 0.0
C49 C 0.59743 0.90485 0.15413 0.0
C50 C 0.57373 0.89988 0.08542 0.0
C51 C 0.59566 0.89905 0.06369 0.0
O52 O 0.65098 0.92772 0.15509 0.0
C53 C 0.64336 0.85408 0.10192 0.0
O54 O 0.63247 0.85958 0.05472 0.0
H55 H 0.60449 0.90698 0.19656 0.0
H56 H 0.60039 0.89584 0.0197 0.0
N57 N 0.65486 0.90563 0.03135 0.0
N58 N 0.67955 0.90814 0.95733 0.0
C59 C 0.6759 0.90009 0.0112 0.0
C60 C 0.64493 0.9174 0.9886 0.0
C61 C 0.65993 0.91889 0.94323 0.0
C62 C 0.66147 0.94536 0.13599 0.0
O63 O 0.67107 0.94441 0.08527 0.0
H64 H 0.68862 0.89125 0.03652 0.0
H65 H 0.6282 0.92517 0.99098 0.0
O66 O 0.65076 0.87036 0.1334 0.0
H67 H 0.55821 0.89783 0.06087 0.0
H68 H 0.65664 0.92754 0.90308 0.0
Cu69 Cu 0.90153 0.3923 0.93933 0.0
N70 N 0.90013 0.4246 0.9457 0.0
N71 N 0.89816 0.46169 0.91994 0.0
C72 C 0.90376 0.44017 0.90357 0.0
C73 C 0.89084 0.45948 0.97452 0.0
C74 C 0.89196 0.43676 0.99005 0.0
O75 O 0.92959 0.38534 0.89402 0.0
C76 C 0.85402 0.38815 0.93608 0.0
O77 O 0.85747 0.39469 0.98911 0.0
H78 H 0.90937 0.43563 0.86092 0.0
H79 H 0.88627 0.42955 0.03024 0.0
N80 N 0.90404 0.37777 0.01271 0.0
N81 N 0.90241 0.35261 0.0863 0.0
C82 C 0.89887 0.35604 0.02933 0.0
C83 C 0.91145 0.38803 0.06074 0.0
C84 C 0.91029 0.37279 0.10576 0.0
C85 C 0.94825 0.39448 0.91133 0.0
O86 O 0.94741 0.4072 0.95756 0.0
H87 H 0.89228 0.34316 1.00059 0.0
H88 H 0.91743 0.40547 0.06302 0.0
O89 O 0.87158 0.38444 0.90458 0.0
H90 H 0.88473 0.47326 1.00128 0.0
H91 H 0.91519 0.37623 0.14957 0.0
Cu92 Cu 0.38664 0.39891 0.12265 0.0
N93 N 0.39781 0.39951 0.04676 0.0
N94 N 0.42681 0.40213 0.9833 0.0
C95 C 0.42038 0.39657 0.03724 0.0
C96 C 0.40718 0.4086 0.9574 0.0
C97 C 0.38938 0.40718 0.99672 0.0
O98 O 0.3989 0.42858 0.1497 0.0
C99 C 0.38628 0.3527 0.12211 0.0
O100 O 0.37162 0.35907 0.08262 0.0
H101 H 0.43203 0.39131 0.07066 0.0
H102 H 0.37196 0.4127 0.99016 0.0
N103 N 0.35461 0.3992 0.13868 0.0
N104 N 0.32249 0.39884 0.19252 0.0
C105 C 0.34554 0.39652 0.1918 0.0
C106 C 0.33653 0.40303 0.1044 0.0
C107 C 0.31683 0.40299 0.1374 0.0
C108 C 0.38783 0.44565 0.12896 0.0
O109 O 0.36942 0.44153 0.09875 0.0
H110 H 0.3558 0.39355 0.22961 0.0
H111 H 0.3376 0.40611 0.05881 0.0
O112 O 0.39678 0.36844 0.14981 0.0
H113 H 0.40591 0.41514 0.91415 0.0
H114 H 0.29964 0.40577 0.12192 0.0
Cu115 Cu 0.41525 0.64783 0.85534 0.0
N116 N 0.41284 0.63495 0.92966 0.0
N117 N 0.41169 0.60655 0.99516 0.0
C118 C 0.41203 0.61213 0.93882 0.0
C119 C 0.41237 0.6269 0.0225 0.0
C120 C 0.41313 0.64431 0.98216 0.0
O121 O 0.4473 0.64126 0.83464 0.0
C122 C 0.37025 0.63915 0.83947 0.0
O123 O 0.37101 0.64904 0.8898 0.0
H124 H 0.41228 0.59987 0.90427 0.0
H125 H 0.41414 0.66244 0.99064 0.0
N126 N 0.41094 0.67967 0.84499 0.0
N127 N 0.40567 0.71209 0.79416 0.0
C128 C 0.41272 0.69004 0.79329 0.0
C129 C 0.40245 0.69575 0.88014 0.0
C130 C 0.39926 0.7157 0.84906 0.0
C131 C 0.46127 0.65364 0.8632 0.0
O132 O 0.45272 0.66923 0.89743 0.0
H133 H 0.41798 0.68109 0.755 0.0
H134 H 0.39802 0.69296 0.92455 0.0
O135 O 0.38905 0.6354 0.81289 0.0
H136 H 0.41223 0.62919 0.06844 0.0
H137 H 0.39236 0.73151 0.86562 0.0
Cu138 Cu 0.66686 0.63759 0.11639 0.0
N139 N 0.65455 0.63808 0.04178 0.0
N140 N 0.62591 0.63706 0.9775 0.0
C141 C 0.63182 0.63982 0.03305 0.0
C142 C 0.64595 0.63359 0.95 0.0
C143 C 0.66353 0.63405 0.98971 0.0
O144 O 0.6562 0.60745 0.14468 0.0
C145 C 0.66696 0.68381 0.1241 0.0
O146 O 0.6807 0.67893 0.08133 0.0
H147 H 0.61981 0.64266 0.06753 0.0
H148 H 0.68137 0.63078 0.98127 0.0
N149 N 0.69913 0.63783 0.1252 0.0
N150 N 0.73297 0.63925 0.17129 0.0
C151 C 0.70988 0.63873 0.17642 0.0
C152 C 0.71599 0.63783 0.08603 0.0
C153 C 0.73674 0.63863 0.11414 0.0
C154 C 0.66713 0.59077 0.1219 0.0
O155 O 0.68421 0.59551 0.08739 0.0
H156 H 0.70076 0.63936 0.21667 0.0
H157 H 0.71347 0.63733 0.04027 0.0
O158 O 0.65704 0.66712 0.14976 0.0
H159 H 0.64777 0.63005 0.90479 0.0
H160 H 0.75331 0.63848 0.09364 0.0
Cu161 Cu 0.63884 0.38492 0.88094 0.0
N162 N 0.6408 0.39758 0.95502 0.0
N163 N 0.64261 0.4268 0.01763 0.0
C164 C 0.63904 0.42037 0.96274 0.0
C165 C 0.64663 0.40695 0.04578 0.0
C166 C 0.64558 0.38899 0.00709 0.0
O167 O 0.60851 0.39608 0.85489 0.0
C168 C 0.68505 0.38116 0.86876 0.0
O169 O 0.67965 0.36593 0.90791 0.0
H170 H 0.63542 0.43202 0.92792 0.0
H171 H 0.64871 0.37113 0.01607 0.0
N172 N 0.63697 0.35278 0.87067 0.0
N173 N 0.63474 0.32003 0.82046 0.0
C174 C 0.63844 0.34284 0.81854 0.0
C175 C 0.63235 0.33555 0.9072 0.0
C176 C 0.63085 0.3154 0.87635 0.0
C177 C 0.5926 0.38723 0.88576 0.0
O178 O 0.59856 0.37332 0.92732 0.0
H179 H 0.64142 0.3524 0.7795 0.0
H180 H 0.6297 0.33754 0.95274 0.0
O181 O 0.66888 0.39316 0.84681 0.0
H182 H 0.65084 0.40547 0.09071 0.0
H183 H 0.62711 0.29865 0.89375 0.0
Cu184 Cu 0.90163 0.64166 0.60289 0.0
N185 N 0.93301 0.64381 0.58501 0.0
N186 N 0.97089 0.64885 0.59287 0.0
C187 C 0.95109 0.64458 0.62095 0.0
C188 C 0.96505 0.6508 0.53726 0.0
C189 C 0.94181 0.64772 0.53259 0.0
O190 O 0.89693 0.61527 0.65466 0.0
C191 C 0.89662 0.68905 0.60183 0.0
O192 O 0.90337 0.68533 0.549 0.0
H193 H 0.94972 0.64305 0.66691 0.0
H194 H 0.93189 0.64902 0.49373 0.0
N195 N 0.8855 0.63483 0.53459 0.0
N196 N 0.85974 0.63098 0.46352 0.0
C197 C 0.86524 0.64208 0.51281 0.0
C198 C 0.89286 0.6188 0.49783 0.0
C199 C 0.87731 0.61651 0.4543 0.0
C200 C 0.90506 0.61268 0.70494 0.0
O201 O 0.91623 0.62968 0.72853 0.0
H202 H 0.85452 0.65471 0.53335 0.0
H203 H 0.90851 0.60919 0.5028 0.0
O204 O 0.89321 0.67176 0.63427 0.0
H205 H 0.97673 0.65439 0.50242 0.0
H206 H 0.87895 0.60501 0.41834 0.0
Cu207 Cu 0.62689 0.14711 0.42025 0.0
N208 N 0.63043 0.13506 0.34619 0.0
N209 N 0.63571 0.10583 0.28516 0.0
C210 C 0.63794 0.11343 0.33941 0.0
C211 C 0.62638 0.12361 0.25636 0.0
C212 C 0.62308 0.1416 0.29413 0.0
O213 O 0.5961 0.13575 0.44217 0.0
C214 C 0.67253 0.1482 0.43091 0.0
O215 O 0.66753 0.16236 0.38905 0.0
H216 H 0.64356 0.10295 0.37492 0.0
H217 H 0.61489 0.15774 0.28485 0.0
N218 N 0.62654 0.17922 0.43223 0.0
N219 N 0.62745 0.21183 0.48328 0.0
C220 C 0.6289 0.18875 0.48461 0.0
C221 C 0.62373 0.19698 0.39613 0.0
C222 C 0.62411 0.21705 0.42752 0.0
C223 C 0.57993 0.14666 0.41699 0.0
O224 O 0.58534 0.16398 0.38387 0.0
H225 H 0.63122 0.17881 0.5233 0.0
H226 H 0.62134 0.19545 0.3504 0.0
O227 O 0.65603 0.1377 0.45596 0.0
H228 H 0.62169 0.1235 0.21159 0.0
H229 H 0.62227 0.23416 0.4105 0.0
Cu230 Cu 0.14952 0.3926 0.59826 0.0
N231 N 0.13649 0.38663 0.67104 0.0
N232 N 0.10692 0.38302 0.73274 0.0
C233 C 0.11378 0.38932 0.6796 0.0
C234 C 0.12637 0.37604 0.75878 0.0
C235 C 0.14453 0.37826 0.72074 0.0
O236 O 0.14015 0.4246 0.58621 0.0
C237 C 0.14805 0.34829 0.56949 0.0
O238 O 0.1637 0.34946 0.60954 0.0
H239 H 0.10239 0.39525 0.64631 0.0
H240 H 0.16217 0.37378 0.72858 0.0
N241 N 0.18175 0.39192 0.58493 0.0
N242 N 0.21432 0.39258 0.53283 0.0
C243 C 0.19119 0.39146 0.53184 0.0
C244 C 0.19966 0.39307 0.62093 0.0
C245 C 0.21965 0.39365 0.58902 0.0
C246 C 0.15081 0.43766 0.62111 0.0
O247 O 0.16595 0.42847 0.65552 0.0
H248 H 0.18116 0.39096 0.49298 0.0
H249 H 0.19831 0.39386 0.66706 0.0
O250 O 0.13801 0.3667 0.55361 0.0
H251 H 0.12753 0.36979 0.8023 0.0
H252 H 0.23682 0.39473 0.60596 0.0
Cu253 Cu 0.39161 0.88409 0.38766 0.0
N254 N 0.38877 0.89524 0.31226 0.0
N255 N 0.38902 0.92376 0.24705 0.0
C256 C 0.38685 0.91794 0.30292 0.0
C257 C 0.39246 0.90359 0.22003 0.0
C258 C 0.39245 0.88609 0.26032 0.0
O259 O 0.42219 0.89612 0.40552 0.0
C260 C 0.34585 0.88855 0.40158 0.0
O261 O 0.34775 0.87585 0.35559 0.0
H262 H 0.3853 0.93006 0.33757 0.0
H263 H 0.39595 0.86823 0.25252 0.0
N264 N 0.39097 0.85217 0.40216 0.0
N265 N 0.3916 0.81986 0.45507 0.0
C266 C 0.39428 0.84285 0.45464 0.0
C267 C 0.38584 0.83442 0.36801 0.0
C268 C 0.38622 0.81455 0.40041 0.0
C269 C 0.4394 0.88306 0.39704 0.0
O270 O 0.43597 0.86098 0.39275 0.0
H271 H 0.39813 0.85295 0.49216 0.0
H272 H 0.38178 0.83584 0.323 0.0
O273 O 0.36406 0.89548 0.42641 0.0
H274 H 0.39534 0.90154 0.17459 0.0
H275 H 0.38288 0.79749 0.38471 0.0
Cu276 Cu 0.88392 0.90284 0.65279 0.0
N277 N 0.89898 0.901 0.58153 0.0
N278 N 0.92964 0.89825 0.52355 0.0
C279 C 0.92111 0.89465 0.5767 0.0
C280 C 0.91199 0.90718 0.49364 0.0
C281 C 0.89318 0.90892 0.52945 0.0
O282 O 0.89349 0.93313 0.68198 0.0
C283 C 0.88273 0.85685 0.66422 0.0
O284 O 0.87015 0.86126 0.61903 0.0
H285 H 0.93113 0.88874 0.6127 0.0
H286 H 0.87684 0.91643 0.5189 0.0
N287 N 0.85145 0.90284 0.65353 0.0
N288 N 0.81589 0.90205 0.69075 0.0
C289 C 0.83858 0.90339 0.70172 0.0
C290 C 0.83636 0.90116 0.61034 0.0
C291 C 0.81453 0.90067 0.63307 0.0
C292 C 0.88296 0.94983 0.65804 0.0
O293 O 0.8669 0.9452 0.62068 0.0
H294 H 0.84587 0.90419 0.7442 0.0
H295 H 0.8409 0.90007 0.56555 0.0
O296 O 0.89213 0.87366 0.69027 0.0
H297 H 0.91268 0.91257 0.44933 0.0
H298 H 0.79886 0.89951 0.60874 0.0
Cu299 Cu 0.89039 0.15669 0.43312 0.0
N300 N 0.89538 0.14553 0.50793 0.0
N301 N 0.9007 0.11564 0.56751 0.0
C302 C 0.88958 0.12379 0.52104 0.0
C303 C 0.91393 0.13319 0.58503 0.0
C304 C 0.91088 0.15146 0.54781 0.0
O305 O 0.91549 0.14023 0.39614 0.0
C306 C 0.84414 0.15359 0.45444 0.0
O307 O 0.8516 0.16555 0.49811 0.0
H308 H 0.8787 0.11353 0.49388 0.0
H309 H 0.92099 0.16689 0.54669 0.0
N310 N 0.89384 0.18871 0.4196 0.0
N311 N 0.89715 0.22202 0.37091 0.0
C312 C 0.8897 0.20003 0.36973 0.0
C313 C 0.90391 0.20427 0.45356 0.0
C314 C 0.906 0.22463 0.42386 0.0
C315 C 0.93437 0.15048 0.38622 0.0
O316 O 0.93373 0.17183 0.36897 0.0
H317 H 0.88255 0.19192 0.33223 0.0
H318 H 0.91012 0.20087 0.49625 0.0
O319 O 0.85855 0.14776 0.41587 0.0
H320 H 0.92641 0.13225 0.61907 0.0
H321 H 0.91382 0.24011 0.43984 0.0
Cu322 Cu 0.14327 0.13794 0.65411 0.0
N323 N 0.11095 0.13779 0.6603 0.0
N324 N 0.07395 0.13714 0.63341 0.0
C325 C 0.09561 0.13053 0.6209 0.0
C326 C 0.07584 0.14859 0.68338 0.0
C327 C 0.09849 0.14914 0.69935 0.0
O328 O 0.15164 0.11111 0.6075 0.0
C329 C 0.13845 0.17842 0.58513 0.0
O330 O 0.12083 0.16757 0.56373 0.0
H331 H 0.10047 0.12212 0.58162 0.0
H332 H 0.10552 0.15838 0.73525 0.0
N333 N 0.15732 0.13533 0.72789 0.0
N334 N 0.18237 0.13587 0.80153 0.0
C335 C 0.17955 0.13784 0.74388 0.0
C336 C 0.14606 0.13126 0.7772 0.0
C337 C 0.16125 0.13178 0.82219 0.0
C338 C 0.14753 0.10924 0.55405 0.0
O339 O 0.13983 0.12711 0.52605 0.0
H340 H 0.19327 0.14155 0.71418 0.0
H341 H 0.12792 0.12814 0.78049 0.0
O342 O 0.15123 0.16813 0.62136 0.0
H343 H 0.06202 0.15684 0.70609 0.0
H344 H 0.15711 0.12916 0.86692 0.0
Cu345 Cu 0.13678 0.88794 0.34231 0.0
N346 N 0.14052 0.91953 0.32922 0.0
N347 N 0.14517 0.95683 0.34901 0.0
C348 C 0.13589 0.93672 0.36613 0.0
C349 C 0.15567 0.9521 0.2989 0.0
C350 C 0.15286 0.92919 0.28701 0.0
O351 O 0.1084 0.88444 0.38844 0.0
C352 C 0.17514 0.89026 0.41818 0.0
O353 O 0.1634 0.90659 0.44301 0.0
H354 H 0.12737 0.93414 0.40679 0.0
H355 H 0.16041 0.91995 0.2517 0.0
N356 N 0.13459 0.87195 0.27168 0.0
N357 N 0.13508 0.84444 0.20405 0.0
C358 C 0.13962 0.84983 0.2595 0.0
C359 C 0.12684 0.88078 0.22219 0.0
C360 C 0.1271 0.86403 0.18081 0.0
C361 C 0.08996 0.87627 0.36731 0.0
O362 O 0.09047 0.86779 0.31537 0.0
H363 H 0.146 0.83783 0.29097 0.0
H364 H 0.12115 0.89823 0.21671 0.0
O365 O 0.16557 0.87851 0.37892 0.0
H366 H 0.16537 0.96416 0.27344 0.0
H367 H 0.12192 0.86625 0.1367 0.0
C368 C 0.3987 0.9515 0.16891 0.0
C369 C 0.38921 0.94683 0.22314 0.0
C370 C 0.39918 0.97393 0.14616 0.0
C371 C 0.39012 0.99236 0.17831 0.0
C372 C 0.38066 0.98779 0.23305 0.0
C373 C 0.38016 0.96526 0.25439 0.0
C374 C 0.40923 0.97789 0.08748 0.0
C375 C 0.37078 1.00676 0.26917 0.0
C376 C 0.404 0.05568 0.15395 0.0
C377 C 0.38349 0.06367 0.1303 0.0
C378 C 0.40714 0.0322 0.16631 0.0
C379 C 0.3894 1.01632 0.15446 0.0
C380 C 0.36949 0.02419 0.12614 0.0
C381 C 0.3667 0.04769 0.1151 0.0
C382 C 0.42862 0.02477 0.19664 0.0
C383 C 0.35021 1.00808 0.11176 0.0
H384 H 0.40596 0.93768 0.14418 0.0
H385 H 0.37237 0.96216 0.29568 0.0
H386 H 0.39604 0.98514 0.05863 0.0
H387 H 0.42331 0.99054 0.08999 0.0
H388 H 0.41595 0.96192 0.06814 0.0
H389 H 0.36503 1.00064 0.31188 0.0
H390 H 0.38369 0.02041 0.27538 0.0
H391 H 0.35598 1.01456 0.24689 0.0
H392 H 0.41677 0.06797 0.16738 0.0
H393 H 0.35063 0.05381 0.09787 0.0
H394 H 0.43544 1.00882 0.17759 0.0
H395 H 0.42461 0.02111 0.24219 0.0
H396 H 0.44208 0.03813 0.195 0.0
H397 H 0.35688 0.99234 0.09138 0.0
H398 H 0.33753 1.01609 0.0826 0.0
H399 H 0.34129 1.00292 0.15169 0.0
C400 C 0.10223 0.64471 0.6781 0.0
C401 C 0.10798 0.65912 0.72384 0.0
C402 C 0.07975 0.6436 0.65713 0.0
C403 C 0.06256 0.65753 0.68168 0.0
C404 C 0.06839 0.67265 0.72667 0.0
C405 C 0.09095 0.6731 0.74754 0.0
C406 C 0.07427 0.62703 0.60965 0.0
C407 C 0.05072 0.68809 0.75338 0.0
C408 C 1.00899 0.66712 0.59209 0.0
C409 C 0.99347 0.65169 0.61686 0.0
C410 C 0.03129 0.66958 0.61356 0.0
C411 C 0.03846 0.65605 0.66054 0.0
C412 C 0.02279 0.6406 0.68615 0.0
C413 C 1.00045 0.63875 0.66433 0.0
C414 C 0.04723 0.68655 0.58559 0.0
C415 C 0.02979 0.62562 0.7358 0.0
H416 H 0.11514 0.63362 0.6599 0.0
H417 H 0.0952 0.68426 0.78292 0.0
H418 H 0.06119 0.61462 0.62449 0.0
H419 H 0.06698 0.63631 0.57249 0.0
H420 H 0.08955 0.61739 0.59509 0.0
H421 H 0.0582 0.69966 0.78598 0.0
H422 H 0.04235 0.6986 0.71985 0.0
H423 H 0.03721 0.67764 0.77409 0.0
H424 H 1.00361 0.67743 0.556 0.0
H425 H 0.9886 0.6267 0.68335 0.0
H426 H 0.06207 0.67747 0.5668 0.0
H427 H 0.05398 0.69859 0.61807 0.0
H428 H 0.03872 0.69655 0.55123 0.0
H429 H 0.0441 0.61435 0.72266 0.0
H430 H 1.01551 0.61477 0.75155 0.0
H431 H 0.03601 0.6363 0.77169 0.0
C432 C 0.64389 0.97197 0.20916 0.0
C433 C 0.65986 0.96802 0.16535 0.0
C434 C 0.6402 0.99416 0.23102 0.0
C435 C 0.65281 1.01294 0.20883 0.0
C436 C 0.66951 1.00887 0.16612 0.0
C437 C 0.67279 0.9866 0.145 0.0
C438 C 0.62229 0.99764 0.27667 0.0
C439 C 0.68352 0.0282 0.14137 0.0
C440 C 0.62827 0.07353 0.21851 0.0
C441 C 0.64033 0.0828 0.26494 0.0
C442 C 0.63198 0.05085 0.2003 0.0
C443 C 0.64822 0.03692 0.22891 0.0
C444 C 0.66055 0.04621 0.27552 0.0
C445 C 0.65649 0.06891 0.29283 0.0
C446 C 0.61844 0.04174 0.15039 0.0
C447 C 0.67816 0.03219 0.30705 0.0
H448 H 0.63366 0.95786 0.225 0.0
H449 H 0.68522 0.98385 0.11128 0.0
H450 H 0.62982 1.00652 0.31406 0.0
H451 H 0.60844 1.0087 0.25982 0.0
H452 H 0.61467 0.98125 0.29139 0.0
H453 H 0.69655 0.0221 0.11037 0.0
H454 H 0.67213 0.0405 0.11921 0.0
H455 H 0.69229 0.03763 0.1761 0.0
H456 H 0.61556 0.08385 0.19696 0.0
H457 H 0.66619 0.07587 0.32814 0.0
H458 H 0.60873 0.02633 0.16373 0.0
H459 H 0.63019 0.0365 0.11553 0.0
H460 H 0.60624 0.05455 0.1331 0.0
H461 H 0.67021 1.01637 0.32416 0.0
H462 H 0.686 0.04171 0.34311 0.0
H463 H 0.69189 0.0269 0.27713 0.0
C464 C 0.06692 0.39783 0.73195 0.0
C465 C 0.08369 0.38342 0.75574 0.0
C466 C 0.04441 0.39858 0.75387 0.0
C467 C 0.03816 0.38463 0.80113 0.0
C468 C 0.05488 0.36983 0.82491 0.0
C469 C 0.0773 0.36943 0.80215 0.0
C470 C 0.02743 0.41481 0.72719 0.0
C471 C 0.04918 0.35462 0.87518 0.0
C472 C 0.9896 0.40502 0.89855 0.0
C473 C 0.97085 0.39166 0.88122 0.0
C474 C 1.01129 0.40291 0.87285 0.0
C475 C 1.01479 0.38688 0.82839 0.0
C476 C 0.99598 0.37331 0.81034 0.0
C477 C 0.97426 0.3759 0.8367 0.0
C478 C 0.03053 0.41796 0.89353 0.0
C479 C 0.99883 0.35594 0.76332 0.0
H480 H 0.07145 0.40899 0.69674 0.0
H481 H 0.08979 0.35798 0.8207 0.0
H482 H 1.01168 0.40548 0.71503 0.0
H483 H 0.02245 0.42802 0.7588 0.0
H484 H 0.0344 0.42348 0.68859 0.0
H485 H 0.06355 0.34313 0.88683 0.0
H486 H 0.04485 0.36526 0.91291 0.0
H487 H 0.03397 0.34404 0.86532 0.0
H488 H 0.98739 0.41738 0.93256 0.0
H489 H 0.96005 0.36543 0.82284 0.0
H490 H 0.03733 0.4283 0.85747 0.0
H491 H 0.04476 0.40725 0.90974 0.0
H492 H 0.02506 0.42973 0.92817 0.0
H493 H 1.00475 0.3645 0.72355 0.0
H494 H 0.98271 0.34666 0.75407 0.0
H495 H 1.01212 0.34333 0.77552 0.0
C496 C 0.37958 0.48711 0.13724 0.0
C497 C 0.39591 0.46978 0.13008 0.0
C498 C 0.38406 0.50988 0.12127 0.0
C499 C 0.40541 0.51569 0.0966 0.0
C500 C 0.42257 0.49856 0.09276 0.0
C501 C 0.41764 0.4758 0.10959 0.0
C502 C 0.36522 0.52735 0.12691 0.0
C503 C 0.4456 0.50385 0.06695 0.0
C504 C 0.40312 0.56492 0.98836 0.0
C505 C 0.41094 0.5837 0.0203 0.0
C506 C 0.40195 0.54276 0.01212 0.0
C507 C 0.40865 0.53895 0.06969 0.0
C508 C 0.41686 0.55769 0.10206 0.0
C509 C 0.41791 0.57972 0.07714 0.0
C510 C 0.39298 0.52345 0.97576 0.0
C511 C 0.42419 0.55455 0.16346 0.0
H512 H 0.36264 0.48253 0.15227 0.0
H513 H 0.43016 0.46246 0.10248 0.0
H514 H 0.37176 0.54316 0.1472 0.0
H515 H 0.35886 0.53205 0.08374 0.0
H516 H 0.35061 0.52083 0.1526 0.0
H517 H 0.45806 0.48984 0.07434 0.0
H518 H 0.44371 0.5064 0.02011 0.0
H519 H 0.45259 0.51992 0.08495 0.0
H520 H 0.39737 0.56754 0.94486 0.0
H521 H 0.4243 0.59381 0.10236 0.0
H522 H 0.37683 0.51683 0.99439 0.0
H523 H 0.40538 0.50913 0.97528 0.0
H524 H 0.38965 0.52886 0.93092 0.0
H525 H 0.40935 0.54912 0.18977 0.0
H526 H 0.43136 0.57046 0.18204 0.0
H527 H 0.43721 0.54083 0.1665 0.0
C528 C 0.49659 0.62869 0.85401 0.0
C529 C 0.48653 0.65006 0.86424 0.0
C530 C 0.52001 0.62487 0.86586 0.0
C531 C 0.53365 0.64283 0.88839 0.0
C532 C 0.52375 0.6647 0.89561 0.0
C533 C 0.5005 0.66799 0.88348 0.0
C534 C 0.52986 0.60135 0.85697 0.0
C535 C 0.53742 0.68444 0.91918 0.0
C536 C 0.58399 0.63177 0.98846 0.0
C537 C 0.60295 0.63686 0.95369 0.0
C538 C 0.56153 0.63265 0.96703 0.0
C539 C 0.55764 0.63868 0.90905 0.0
C540 C 0.5767 0.643 0.87306 0.0
C541 C 0.59904 0.64207 0.89571 0.0
C542 C 0.54186 0.62786 0.00719 0.0
C543 C 0.57346 0.64944 0.81102 0.0
H544 H 0.48598 0.61468 0.83955 0.0
H545 H 0.493 0.68465 0.89113 0.0
H546 H 0.54641 0.60243 0.83389 0.0
H547 H 0.53324 0.59328 0.89915 0.0
H548 H 0.51811 0.59012 0.83252 0.0
H549 H 0.5277 0.70074 0.91843 0.0
H550 H 0.54237 0.68072 0.96407 0.0
H551 H 0.55339 0.68677 0.89424 0.0
H552 H 0.58662 0.62716 0.03283 0.0
H553 H 0.61341 0.64609 0.86828 0.0
H554 H 0.53038 0.61476 0.98862 0.0
H555 H 0.53163 0.64364 0.01314 0.0
H556 H 0.54769 0.62183 0.04986 0.0
H557 H 0.56169 0.63725 0.78986 0.0
H558 H 0.58987 0.64976 0.7871 0.0
H559 H 0.56554 0.66662 0.80818 0.0
C560 C 0.64721 0.46871 1.00293 0.0
C561 C 0.64343 0.45005 0.03987 0.0
C562 C 0.64869 0.49127 0.02353 0.0
C563 C 0.64649 0.49566 0.08293 0.0
C564 C 0.64225 0.47704 0.12052 0.0
C565 C 0.6408 0.45456 0.09867 0.0
C566 C 0.65333 0.5104 0.98158 0.0
C567 C 0.63974 0.48083 0.18407 0.0
C568 C 0.67783 0.54975 0.12786 0.0
C569 C 0.66045 0.56628 0.12739 0.0
C570 C 0.67325 0.52655 0.11741 0.0
C571 C 0.65063 0.51944 0.10536 0.0
C572 C 0.63272 0.5358 0.10861 0.0
C573 C 0.63782 0.55904 0.11971 0.0
C574 C 0.69297 0.50994 0.11509 0.0
C575 C 0.60835 0.52908 0.0963 0.0
H576 H 0.64966 0.46574 0.95767 0.0
H577 H 0.63759 0.44052 0.12783 0.0
H578 H 0.6404 0.5241 0.98653 0.0
H579 H 0.67029 0.51806 0.99057 0.0
H580 H 0.65315 0.50447 0.93646 0.0
H581 H 0.63481 0.46496 0.20717 0.0
H582 H 0.65613 0.4871 0.20191 0.0
H583 H 0.62669 0.49415 0.19246 0.0
H584 H 0.69539 0.55522 0.13348 0.0
H585 H 0.62433 0.57171 0.11821 0.0
H586 H 0.69588 0.5046 0.07013 0.0
H587 H 0.689 0.49434 0.14026 0.0
H588 H 0.70903 0.51752 0.13172 0.0
H589 H 0.6064 0.52584 0.04979 0.0
H590 H 0.5961 0.54267 0.10889 0.0
H591 H 0.60386 0.51306 0.11914 0.0
C592 C 0.45442 0.40139 0.90155 0.0
C593 C 0.45004 0.40286 0.96068 0.0
C594 C 0.477 0.40105 0.87979 0.0
C595 C 0.49585 0.40216 0.91784 0.0
C596 C 0.49151 0.40443 0.97728 0.0
C597 C 0.46885 0.40483 0.99776 0.0
C598 C 0.48068 0.39876 0.81616 0.0
C599 C 0.51087 0.4057 0.01978 0.0
C600 C 0.55271 0.37295 0.88718 0.0
C601 C 0.56763 0.39143 0.87832 0.0
C602 C 0.52919 0.37617 0.89638 0.0
C603 C 0.52001 0.39856 0.89705 0.0
C604 C 0.5347 0.41726 0.88408 0.0
C605 C 0.55837 0.4135 0.87493 0.0
C606 C 0.51451 0.35561 0.9097 0.0
C607 C 0.52572 0.4414 0.8836 0.0
H608 H 0.44019 0.39986 0.87225 0.0
H609 H 0.46596 0.40664 0.04326 0.0
H610 H 0.49316 0.41169 0.80089 0.0
H611 H 0.48794 0.38168 0.80661 0.0
H612 H 0.46455 0.40077 0.79171 0.0
H613 H 0.50477 0.40883 0.06412 0.0
H614 H 0.5206 0.38943 0.01933 0.0
H615 H 0.52289 0.41955 0.00764 0.0
H616 H 0.55972 0.35583 0.89005 0.0
H617 H 0.56977 0.42792 0.86906 0.0
H618 H 0.49878 0.35582 0.88332 0.0
H619 H 0.50916 0.35613 0.95528 0.0
H620 H 0.52365 0.33927 0.90202 0.0
H621 H 0.50932 0.44235 0.85999 0.0
H622 H 0.53806 0.4535 0.86381 0.0
H623 H 0.52237 0.44696 0.92819 0.0
C624 C 0.91456 0.48584 0.84214 0.0
C625 C 0.89847 0.48257 0.88605 0.0
C626 C 0.91554 0.50652 0.81084 0.0
C627 C 0.8999 0.52439 0.82312 0.0
C628 C 0.8833 0.52095 0.86649 0.0
C629 C 0.88284 0.50024 0.89736 0.0
C630 C 0.93365 0.50942 0.76537 0.0
C631 C 0.86608 0.53928 0.88078 0.0
C632 C 0.91539 0.58631 0.78641 0.0
C633 C 0.90327 0.59017 0.73539 0.0
C634 C 0.91466 0.56502 0.81476 0.0
C635 C 0.9013 0.54696 0.79215 0.0
C636 C 0.88891 0.55075 0.74084 0.0
C637 C 0.89012 0.57219 0.71303 0.0
C638 C 0.92825 0.56184 0.86906 0.0
C639 C 0.87427 0.53216 0.71538 0.0
H640 H 0.92679 0.47242 0.83321 0.0
H641 H 0.87004 0.49783 0.93031 0.0
H642 H 0.92562 0.51385 0.72383 0.0
H643 H 0.94514 0.52375 0.77698 0.0
H644 H 0.9441 0.49375 0.75967 0.0
H645 H 0.85372 0.53368 0.91409 0.0
H646 H 0.87503 0.55478 0.89632 0.0
H647 H 0.85646 0.54424 0.8418 0.0
H648 H 0.92574 0.59992 0.80412 0.0
H649 H 0.88069 0.57486 0.67369 0.0
H650 H 0.94022 0.54727 0.86422 0.0
H651 H 0.91661 0.55767 0.90511 0.0
H652 H 0.93823 0.57732 0.88044 0.0
H653 H 0.88486 0.5169 0.70605 0.0
H654 H 0.86572 0.53771 0.67526 0.0
H655 H 0.86099 0.52685 0.74663 0.0
C656 C 0.53904 0.15756 0.42415 0.0
C657 C 0.55535 0.1401 0.41904 0.0
C658 C 0.51598 0.15406 0.40968 0.0
C659 C 0.50883 0.13256 0.38842 0.0
C660 C 0.52493 0.11438 0.38655 0.0
C661 C 0.54799 0.11834 0.402 0.0
C662 C 0.49964 0.17396 0.41322 0.0
C663 C 0.51822 0.09119 0.36423 0.0
C664 C 0.4441 0.12352 0.37183 0.0
C665 C 0.44039 0.12973 0.31428 0.0
C666 C 0.46622 0.12369 0.39617 0.0
C667 C 0.48535 0.13015 0.36245 0.0
C668 C 0.48179 0.13598 0.30419 0.0
C669 C 0.45955 0.13578 0.28108 0.0
C670 C 0.46907 0.11737 0.45839 0.0
C671 C 0.50151 0.14304 0.26631 0.0
H672 H 0.54465 0.17451 0.43655 0.0
H673 H 0.56055 0.1049 0.39653 0.0
H674 H 0.49515 0.17974 0.36938 0.0
H675 H 0.48356 0.16874 0.43477 0.0
H676 H 0.50707 0.18866 0.43675 0.0
H677 H 0.53149 0.07809 0.37309 0.0
H678 H 0.50184 0.08554 0.38355 0.0
H679 H 0.51564 0.09223 0.31724 0.0
H680 H 0.42971 0.11851 0.39813 0.0
H681 H 0.45726 0.14094 0.237 0.0
H682 H 0.47531 0.1324 0.48264 0.0
H683 H 0.4821 0.10372 0.46296 0.0
H684 H 0.45285 0.1114 0.47808 0.0
H685 H 0.50905 0.15918 0.28244 0.0
H686 H 0.49623 0.1457 0.22112 0.0
H687 H 0.51511 0.12986 0.26745 0.0
C688 C 0.13963 0.56741 0.73526 0.0
C689 C 0.14479 0.56477 0.79376 0.0
C690 C 0.13702 0.54833 0.699 0.0
C691 C 0.1398 0.52596 0.72132 0.0
C692 C 0.14391 0.52317 0.78074 0.0
C693 C 0.14624 0.5425 0.81603 0.0
C694 C 0.13235 0.55219 0.63622 0.0
C695 C 0.14694 0.49973 0.80678 0.0
C696 C 0.12441 0.47006 0.64556 0.0
C697 C 0.14609 0.46236 0.62886 0.0
C698 C 0.12168 0.49158 0.67217 0.0
C699 C 0.14108 0.50557 0.68242 0.0
C700 C 0.16262 0.49853 0.66114 0.0
C701 C 0.16483 0.47707 0.63496 0.0
C702 C 0.09834 0.49847 0.69333 0.0
C703 C 0.18382 0.51275 0.67048 0.0
H704 H 0.13852 0.58439 0.71703 0.0
H705 H 0.14968 0.5401 0.86116 0.0
H706 H 0.14806 0.54857 0.61121 0.0
H707 H 0.11886 0.54039 0.62088 0.0
H708 H 0.12699 0.57005 0.62721 0.0
H709 H 0.14842 0.50032 0.85415 0.0
H710 H 0.13232 0.48858 0.79542 0.0
H711 H 0.16261 0.49168 0.78923 0.0
H712 H 0.10995 0.45856 0.64218 0.0
H713 H 0.18167 0.47104 0.62276 0.0
H714 H 0.0951 0.51682 0.68454 0.0
H715 H 0.09745 0.49596 0.74037 0.0
H716 H 0.08461 0.48814 0.67325 0.0
H717 H 0.18078 0.53073 0.65754 0.0
H718 H 0.19872 0.50612 0.64615 0.0
H719 H 0.1882 0.51274 0.71669 0.0
C720 C 0.46257 0.91205 0.34216 0.0
C721 C 0.46159 0.89204 0.37535 0.0
C722 C 0.4819 0.91702 0.30806 0.0
C723 C 0.50066 0.90165 0.30718 0.0
C724 C 0.50039 0.88244 0.34417 0.0
C725 C 0.48093 0.8779 0.37761 0.0
C726 C 0.48148 0.93781 0.26979 0.0
C727 C 0.51993 0.8656 0.34517 0.0
C728 C 0.53517 0.89321 0.17021 0.0
C729 C 0.5559 0.90419 0.18279 0.0
C730 C 0.51694 0.89293 0.20953 0.0
C731 C 0.51928 0.90391 0.26322 0.0
C732 C 0.53992 0.91551 0.27581 0.0
C733 C 0.55795 0.91547 0.23563 0.0
C734 C 0.49535 0.88022 0.19416 0.0
C735 C 0.54311 0.9276 0.33219 0.0
H736 H 0.44764 0.92295 0.33947 0.0
H737 H 0.48032 0.8624 0.40312 0.0
H738 H 0.49807 0.94695 0.27136 0.0
H739 H 0.47868 0.9324 0.22486 0.0
H740 H 0.46763 0.94986 0.28188 0.0
H741 H 0.51825 0.85299 0.38056 0.0
H742 H 0.52045 0.85617 0.30403 0.0
H743 H 0.53646 0.87464 0.34978 0.0
H744 H 0.53334 0.8842 0.13009 0.0
H745 H 0.57368 0.92432 0.24566 0.0
H746 H 0.48032 0.8916 0.19877 0.0
H747 H 0.49289 0.86563 0.22398 0.0
H748 H 0.49575 0.87354 0.1497 0.0
H749 H 0.52877 0.93961 0.33986 0.0
H750 H 0.55943 0.93727 0.33388 0.0
H751 H 0.54296 0.91495 0.36762 0.0
C752 C 0.87097 0.99024 0.66956 0.0
C753 C 0.88886 0.97433 0.66634 0.0
C754 C 0.87474 1.01374 0.66119 0.0
C755 C 0.89699 0.02177 0.64818 0.0
C756 C 0.91543 1.00596 0.6486 0.0
C757 C 0.91117 0.98242 0.65786 0.0
C758 C 0.85451 0.02975 0.66199 0.0
C759 C 0.93942 1.01363 0.63494 0.0
C760 C 0.8974 0.07397 0.54965 0.0
C761 C 0.90108 0.09213 0.58778 0.0
C762 C 0.89694 0.05111 0.56851 0.0
C763 C 0.90014 0.04595 0.62731 0.0
C764 C 0.90452 0.06412 0.6659 0.0
C765 C 0.90504 0.08693 0.64569 0.0
C766 C 0.89245 0.03244 0.52544 0.0
C767 C 0.90796 0.05954 0.72885 0.0
H768 H 0.85365 0.98408 0.6756 0.0
H769 H 0.92501 0.97022 0.6541 0.0
H770 H 0.85837 0.04513 0.68788 0.0
H771 H 0.85079 0.03558 0.61775 0.0
H772 H 0.83894 0.02144 0.6796 0.0
H773 H 0.95224 1.0003 0.64566 0.0
H774 H 0.94075 1.01753 0.58855 0.0
H775 H 0.94368 0.0295 0.65852 0.0
H776 H 0.89495 0.0776 0.50462 0.0
H777 H 0.90793 0.10076 0.67551 0.0
H778 H 0.87597 0.02394 0.53539 0.0
H779 H 0.90601 1.01923 0.52798 0.0
H780 H 0.89173 0.03906 0.48087 0.0
H781 H 0.89186 0.05293 0.74777 0.0
H782 H 0.91311 0.07515 0.75252 0.0
H783 H 0.9212 0.04621 0.73513 0.0
C784 C 0.95544 0.12626 0.45859 0.0
C785 C 0.95593 0.1422 0.41347 0.0
C786 C 0.97484 0.12241 0.49311 0.0
C787 C 0.99539 0.13451 0.48191 0.0
C788 C 0.99639 0.14933 0.43387 0.0
C789 C 0.97672 0.15303 0.40055 0.0
C790 C 0.97281 0.10652 0.54384 0.0
C791 C 1.01788 0.16247 0.41971 0.0
C792 C 0.03532 0.15057 0.60443 0.0
C793 C 0.05374 0.13539 0.59735 0.0
C794 C 1.01608 0.14992 0.5684 0.0
C795 C 1.015 0.13377 0.52342 0.0
C796 C 0.03324 0.11808 0.51649 0.0
C797 C 0.05232 0.11906 0.5534 0.0
C798 C 0.99713 0.16705 0.5776 0.0
C799 C 0.0328 0.10051 0.46935 0.0
H800 H 0.93952 0.1178 0.46923 0.0
H801 H 0.97737 0.16529 0.36571 0.0
H802 H 0.98778 0.09494 0.54612 0.0
H803 H 0.97253 0.1167 0.58383 0.0
H804 H 0.95698 0.09607 0.54222 0.0
H805 H 1.0167 0.17137 0.37775 0.0
H806 H 0.02105 0.17543 0.45337 0.0
H807 H 0.03284 0.15086 0.41888 0.0
H808 H 0.03607 0.16354 0.63726 0.0
H809 H 0.06615 0.10702 0.54762 0.0
H810 H 0.98048 0.15813 0.58185 0.0
H811 H 0.99591 0.17856 0.53992 0.0
H812 H 0.99988 0.17765 0.61636 0.0
H813 H 1.01685 0.09031 0.4719 0.0
H814 H 0.04765 0.08872 0.47138 0.0
H815 H 0.03289 0.10922 0.42711 0.0
C816 C 0.16489 0.99289 0.37474 0.0
C817 C 0.14606 0.97815 0.38049 0.0
C818 C 0.16602 1.01375 0.40451 0.0
C819 C 0.14778 0.02032 0.44086 0.0
C820 C 0.12881 1.00543 0.44735 0.0
C821 C 0.12825 0.98453 0.41743 0.0
C822 C 0.1867 0.02886 0.39668 0.0
C823 C 0.10889 1.0118 0.48513 0.0
C824 C 0.15758 0.0672 0.55248 0.0
C825 C 0.14874 0.08659 0.52473 0.0
C826 C 0.15752 0.04559 0.52574 0.0
C827 C 0.14818 0.04315 0.47007 0.0
C828 C 0.13933 0.06269 0.44185 0.0
C829 C 0.13983 0.08407 0.46926 0.0
C830 C 0.16737 0.02531 0.55718 0.0
C831 C 0.12908 0.06097 0.38274 0.0
H832 H 0.17898 0.98799 0.34732 0.0
H833 H 0.1136 0.97336 0.42197 0.0
H834 H 0.1815 0.04539 0.37737 0.0
H835 H 0.19449 0.03268 0.43883 0.0
H836 H 0.19985 0.02091 0.3688 0.0
H837 H 0.09573 0.99813 0.487 0.0
H838 H 0.11491 1.01532 0.52923 0.0
H839 H 0.10081 0.02768 0.46888 0.0
H840 H 0.16447 0.06887 0.5953 0.0
H841 H 0.1328 0.09881 0.44735 0.0
H842 H 0.18121 1.01747 0.53137 0.0
H843 H 0.15399 1.0121 0.56333 0.0
H844 H 0.17436 0.03004 0.59971 0.0
H845 H 0.142 0.0544 0.35215 0.0
H846 H 0.12272 0.07769 0.36676 0.0
H847 H 0.11467 0.04865 0.38315 0.0
C848 C 0.96719 0.87848 0.53053 0.0
C849 C 0.9531 0.89496 0.50455 0.0
C850 C 0.98998 0.8751 0.51258 0.0
C851 C 0.99918 0.88859 0.46758 0.0
C852 C 0.98515 0.90545 0.44168 0.0
C853 C 0.96239 0.90836 0.46024 0.0
C854 C 1.0041 0.85678 0.54115 0.0
C855 C 0.99414 0.92034 0.39384 0.0
C856 C 0.06408 0.89279 0.44408 0.0
C857 C 0.06742 0.87801 0.39753 0.0
C858 C 0.04212 0.89612 0.46807 0.0
C859 C 0.02298 0.8843 0.44537 0.0
C860 C 0.02646 0.86881 0.39966 0.0
C861 C 0.04846 0.86594 0.37637 0.0
C862 C 0.03928 0.91282 0.51664 0.0
C863 C 1.00677 0.85564 0.37422 0.0
H864 H 0.96025 0.86785 0.56436 0.0
H865 H 0.95193 0.92139 0.44035 0.0
H866 H 1.00889 0.84357 0.50934 0.0
H867 H 0.02019 0.8642 0.55788 0.0
H868 H 0.99485 0.84836 0.577 0.0
H869 H 0.98147 0.93329 0.37971 0.0
H870 H 1.00988 0.92928 0.40782 0.0
H871 H 0.99879 0.90958 0.35657 0.0
H872 H 0.07849 0.90232 0.46065 0.0
H873 H 0.05073 0.85438 0.34063 0.0
H874 H 0.03061 0.90442 0.55334 0.0
H875 H 0.02828 0.92723 0.50271 0.0
H876 H 0.05589 0.91982 0.53145 0.0
H877 H 0.99763 0.84601 0.40821 0.0
H878 H 1.01242 0.84341 0.34078 0.0
H879 H 0.99434 0.86768 0.35483 0.0
C880 C 0.40969 0.3177 0.1506 0.0
C881 C 0.38911 0.3276 0.13237 0.0
C882 C 0.41219 0.29359 0.15361 0.0
C883 C 0.3936 0.27909 0.13884 0.0
C884 C 0.37276 0.28918 0.12139 0.0
C885 C 0.37086 0.31307 0.11815 0.0
C886 C 0.43476 0.28362 0.17199 0.0
C887 C 0.35224 0.27472 0.10649 0.0
C888 C 0.39659 0.21513 0.10225 0.0
C889 C 0.38829 0.20522 0.15296 0.0
C890 C 0.39992 0.23909 0.09793 0.0
C891 C 0.39488 0.25348 0.14535 0.0
C892 C 0.38782 0.24329 0.19742 0.0
C893 C 0.38468 0.21951 0.20051 0.0
C894 C 0.40771 0.24913 0.04171 0.0
C895 C 0.38211 0.25763 0.24918 0.0
H896 H 0.42398 0.3287 0.16091 0.0
H897 H 0.35481 0.32045 0.10427 0.0
H898 H 0.43243 0.27306 0.21106 0.0
H899 H 0.44143 0.27217 0.13805 0.0
H900 H 0.4477 0.29702 0.1809 0.0
H901 H 0.33739 0.28516 0.09262 0.0
H902 H 0.35663 0.26266 0.07163 0.0
H903 H 0.34703 0.26437 0.14418 0.0
H904 H 0.39955 0.20435 0.06533 0.0
H905 H 0.37864 0.21215 0.24039 0.0
H906 H 0.4214 0.26192 0.04879 0.0
H907 H 0.39321 0.25811 0.021 0.0
H908 H 0.4141 0.23581 0.01193 0.0
H909 H 0.39599 0.27002 0.25799 0.0
H910 H 0.37928 0.24707 0.28813 0.0
H911 H 0.36635 0.26761 0.24067 0.0
C912 C 0.23732 0.62855 0.75264 0.0
C913 C 0.22612 0.64518 0.78581 0.0
C914 C 0.2613 0.6267 0.75199 0.0
C915 C 0.27464 0.64186 0.78518 0.0
C916 C 0.26353 0.65944 0.81643 0.0
C917 C 0.23947 0.66087 0.81645 0.0
C918 C 0.27228 0.60773 0.71801 0.0
C919 C 0.27702 0.67613 0.85206 0.0
C920 C 0.3314 0.62304 0.84915 0.0
C921 C 0.34733 0.63477 0.81521 0.0
C922 C 0.30786 0.62426 0.83788 0.0
C923 C 0.29985 0.63798 0.79205 0.0
C924 C 0.31597 0.64891 0.75564 0.0
C925 C 0.33956 0.64714 0.76761 0.0
C926 C 0.2915 0.61198 0.8774 0.0
C927 C 0.30827 0.66374 0.70644 0.0
H928 H 0.2273 0.61636 0.72849 0.0
H929 H 0.23111 0.67381 0.84212 0.0
H930 H 0.28646 0.61453 0.6914 0.0
H931 H 0.27971 0.59494 0.74777 0.0
H932 H 0.25988 0.59892 0.68969 0.0
H933 H 0.26616 0.69004 0.8695 0.0
H934 H 0.28512 0.66697 0.8884 0.0
H935 H 0.29093 0.68385 0.82615 0.0
H936 H 0.33734 0.61386 0.88667 0.0
H937 H 0.35176 0.65682 0.74235 0.0
H938 H 0.27915 0.60171 0.85231 0.0
H939 H 0.28154 0.62467 0.90232 0.0
H940 H 0.30046 0.60049 0.90789 0.0
H941 H 0.29511 0.65483 0.68066 0.0
H942 H 0.32269 0.66863 0.67798 0.0
H943 H 0.30036 0.67956 0.72346 0.0
C944 C 0.63853 0.81271 0.07743 0.0
C945 C 0.6462 0.82926 0.1165 0.0
C946 C 0.64094 0.78919 0.08811 0.0
C947 C 0.65124 0.78159 0.13956 0.0
C948 C 0.65848 0.79812 0.18017 0.0
C949 C 0.65598 0.82174 0.16811 0.0
C950 C 0.63316 0.77244 0.04304 0.0
C951 C 0.66933 0.79085 0.2358 0.0
C952 C 0.64391 0.71704 0.16468 0.0
C953 C 0.66378 0.70849 0.13878 0.0
C954 C 0.64014 0.74092 0.16898 0.0
C955 C 0.65656 0.75656 0.1468 0.0
C956 C 0.67721 0.74786 0.12409 0.0
C957 C 0.68053 0.72415 0.12056 0.0
C958 C 0.61803 0.74938 0.19437 0.0
C959 C 0.69527 0.76357 0.0997 0.0
H960 H 0.63084 0.8181 0.03746 0.0
H961 H 0.66179 0.83426 0.19891 0.0
H962 H 0.64812 0.76305 0.02583 0.0
H963 H 0.62142 0.75964 0.0621 0.0
H964 H 0.62429 0.78098 0.00683 0.0
H965 H 0.67162 0.80542 0.26561 0.0
H966 H 0.65874 0.77758 0.2571 0.0
H967 H 0.6863 0.78315 0.22718 0.0
H968 H 0.63088 0.70518 0.17901 0.0
H969 H 0.69615 0.71784 0.10128 0.0
H970 H 0.60675 0.75566 0.15961 0.0
H971 H 0.62121 0.76391 0.22373 0.0
H972 H 0.60887 0.73569 0.21815 0.0
H973 H 0.68866 0.77191 0.06035 0.0
H974 H 0.71124 0.75432 0.08864 0.0
H975 H 0.69947 0.77729 0.13059 0.0
C976 C 0.72078 0.40496 0.85355 0.0
C977 C 0.70983 0.38365 0.85466 0.0
C978 C 0.74493 0.40654 0.85667 0.0
C979 C 0.75842 0.38637 0.861 0.0
C980 C 0.74737 0.3649 0.85732 0.0
C981 C 0.72339 0.36384 0.85441 0.0
C982 C 0.75585 0.42983 0.8598 0.0
C983 C 0.76068 0.34287 0.86158 0.0
C984 C 0.82433 0.38661 0.85621 0.0
C985 C 0.82987 0.38675 0.91474 0.0
C986 C 0.80125 0.38703 0.8377 0.0
C987 C 0.78322 0.38741 0.87854 0.0
C988 C 0.78884 0.38736 0.93752 0.0
C989 C 0.81186 0.38709 0.95465 0.0
C990 C 0.79614 0.38719 0.77447 0.0
C991 C 0.77045 0.38739 0.98298 0.0
H992 H 0.71051 0.42036 0.85453 0.0
H993 H 0.71509 0.34727 0.8553 0.0
H994 H 0.76115 0.43327 0.90453 0.0
H995 H 0.7714 0.43054 0.83266 0.0
H996 H 0.74393 0.44355 0.84608 0.0
H997 H 0.75014 0.32778 0.8501 0.0
H998 H 0.77588 0.34335 0.83321 0.0
H999 H 0.76687 0.34059 0.90611 0.0
H1000 H 0.838 0.38659 0.82488 0.0
H1001 H 0.81574 0.38716 1.0 0.0
H1002 H 0.78565 0.40236 0.76352 0.0
H1003 H 0.78601 0.37185 0.76301 0.0
H1004 H 0.81193 0.38745 0.74803 0.0
H1005 H 0.75913 0.40241 0.97723 0.0
H1006 H 0.77759 0.38783 0.02699 0.0
H1007 H 0.7597 0.37187 0.9788 0.0
C1008 C 0.89657 0.7312 0.58305 0.0
C1009 C 0.89463 0.71315 0.62255 0.0
C1010 C 0.8957 0.75415 0.60038 0.0
C1011 C 0.89291 0.75956 0.65905 0.0
C1012 C 0.89113 0.74148 0.69948 0.0
C1013 C 0.89193 0.7185 0.68078 0.0
C1014 C 0.89742 0.77268 0.5554 0.0
C1015 C 0.88828 0.74644 0.7624 0.0
C1016 C 0.90685 0.82238 0.68824 0.0
C1017 C 0.88534 0.83244 0.68069 0.0
C1018 C 0.90946 0.79834 0.6862 0.0
C1019 C 0.89014 0.78416 0.6763 0.0
C1020 C 0.86822 0.79431 0.67377 0.0
C1021 C 0.86614 0.8182 0.67584 0.0
C1022 C 0.93313 0.78831 0.68988 0.0
C1023 C 0.84707 0.78016 0.66334 0.0
H1024 H 0.89869 0.72741 0.53797 0.0
H1025 H 0.89064 0.70477 0.7118 0.0
H1026 H 0.88147 0.78292 0.55492 0.0
H1027 H 0.91166 0.78447 0.56571 0.0
H1028 H 0.90028 0.76569 0.51181 0.0
H1029 H 0.88846 0.73063 0.78881 0.0
H1030 H 0.90214 0.75791 0.77722 0.0
H1031 H 0.87189 0.75547 0.76977 0.0
H1032 H 0.92179 0.83325 0.6912 0.0
H1033 H 0.84945 0.8259 0.66987 0.0
H1034 H 0.93899 0.7835 0.64637 0.0
H1035 H 0.9331 0.77259 0.71651 0.0
H1036 H 0.94556 0.80065 0.70805 0.0
H1037 H 0.84714 0.77396 0.61848 0.0
H1038 H 0.83115 0.79011 0.67039 0.0
H1039 H 0.84679 0.76494 0.69171 0.0
C1040 C 0.80807 0.14185 0.40177 0.0
C1041 C 0.8194 0.14725 0.45284 0.0
C1042 C 0.78411 0.13866 0.40081 0.0
C1043 C 0.77119 0.14069 0.45217 0.0
C1044 C 0.78284 0.14471 0.5042 0.0
C1045 C 0.80662 0.14803 0.50383 0.0
C1046 C 0.77246 0.13439 0.34432 0.0
C1047 C 0.77003 0.14687 0.56008 0.0
C1048 C 0.71111 0.1651 0.44041 0.0
C1049 C 0.69711 0.14573 0.44591 0.0
C1050 C 0.735 0.16358 0.44276 0.0
C1051 C 0.74554 0.14204 0.45066 0.0
C1052 C 0.73153 0.12239 0.45822 0.0
C1053 C 0.70742 0.12446 0.45584 0.0
C1054 C 0.74899 0.1851 0.43535 0.0
C1055 C 0.74202 0.09912 0.46693 0.0
H1056 H 0.81774 0.14112 0.36222 0.0
H1057 H 0.81517 0.15181 0.54382 0.0
H1058 H 0.7602 0.12001 0.34823 0.0
H1059 H 0.76257 0.14977 0.33174 0.0
H1060 H 0.78487 0.13046 0.3097 0.0
H1061 H 0.78168 0.14708 0.59755 0.0
H1062 H 0.76002 0.16297 0.56 0.0
H1063 H 0.75776 0.13257 0.56533 0.0
H1064 H 0.70328 0.18161 0.43263 0.0
H1065 H 0.69676 0.10936 0.45898 0.0
H1066 H 0.76024 0.18349 0.39732 0.0
H1067 H 0.76015 0.18765 0.47312 0.0
H1068 H 0.73817 0.20054 0.42991 0.0
H1069 H 0.7517 0.09419 0.42802 0.0
H1070 H 0.72895 0.08581 0.4758 0.0
H1071 H 0.75433 0.09953 0.50296 0.0
C1072 C 0.12395 0.3136 0.57682 0.0
C1073 C 0.14181 0.32524 0.54948 0.0
C1074 C 0.12288 0.28954 0.57642 0.0
C1075 C 0.14009 0.27683 0.54786 0.0
C1076 C 0.15719 0.28865 0.51663 0.0
C1077 C 0.158 0.31268 0.51846 0.0
C1078 C 0.10437 0.27774 0.61044 0.0
C1079 C 0.17565 0.27594 0.48473 0.0
C1080 C 0.15382 0.21759 0.60828 0.0
C1081 C 0.14122 0.20325 0.57214 0.0
C1082 C 0.15387 0.24149 0.60029 0.0
C1083 C 0.14124 0.25134 0.55462 0.0
C1084 C 0.12927 0.23685 0.51665 0.0
C1085 C 0.12929 0.21309 0.52605 0.0
C1086 C 0.16684 0.25626 0.64196 0.0
C1087 C 0.11596 0.2465 0.46686 0.0
H1088 H 0.1119 0.32322 0.60255 0.0
H1089 H 0.17223 0.32162 0.4988 0.0
H1090 H 0.09601 0.26436 0.58429 0.0
H1091 H 0.11206 0.26915 0.64818 0.0
H1092 H 0.09113 0.28988 0.6257 0.0
H1093 H 0.18567 0.28742 0.45627 0.0
H1094 H 0.18751 0.26793 0.51586 0.0
H1095 H 0.16816 0.26204 0.45858 0.0
H1096 H 0.16296 0.21023 0.64418 0.0
H1097 H 0.11956 0.20219 0.49763 0.0
H1098 H 0.15481 0.26782 0.66448 0.0
H1099 H 0.17927 0.26717 0.61864 0.0
H1100 H 0.17621 0.24601 0.67439 0.0
H1101 H 0.10165 0.25712 0.483 0.0
H1102 H 0.10884 0.2329 0.439 0.0
H1103 H 0.12706 0.25777 0.44055 0.0
C1104 C 0.21112 0.90382 0.46624 0.0
C1105 C 0.2003 0.8886 0.42845 0.0
C1106 C 0.2351 0.90486 0.47062 0.0
C1107 C 0.2488 0.89028 0.43656 0.0
C1108 C 0.23798 0.87414 0.40033 0.0
C1109 C 0.21395 0.87352 0.39664 0.0
C1110 C 0.24579 0.9223 0.50983 0.0
C1111 C 0.25184 0.85812 0.36356 0.0
C1112 C 0.30851 0.90757 0.38744 0.0
C1113 C 0.32251 0.89383 0.42182 0.0
C1114 C 0.28461 0.90752 0.39404 0.0
C1115 C 0.27432 0.89298 0.43533 0.0
C1116 C 0.28852 0.87993 0.47219 0.0
C1117 C 0.31246 0.88048 0.4649 0.0
C1118 C 0.27032 0.92196 0.35421 0.0
C1119 C 0.27839 0.86417 0.51668 0.0
H1120 H 0.20087 0.91558 0.49116 0.0
H1121 H 0.20589 0.86168 0.36733 0.0
H1122 H 0.25877 0.9141 0.53766 0.0
H1123 H 0.2547 0.93549 0.48391 0.0
H1124 H 0.23293 0.9309 0.53734 0.0
H1125 H 0.24099 0.84545 0.34101 0.0
H1126 H 0.26151 0.86808 0.33111 0.0
H1127 H 0.2645 0.84881 0.39012 0.0
H1128 H 0.31622 0.91741 0.35307 0.0
H1129 H 0.32319 0.86926 0.49026 0.0
H1130 H 0.25765 0.93203 0.37887 0.0
H1131 H 0.26068 0.91072 0.32466 0.0
H1132 H 0.28089 0.9339 0.32828 0.0
H1133 H 0.2651 0.87315 0.54194 0.0
H1134 H 0.29155 0.85739 0.54642 0.0
H1135 H 0.27001 0.84953 0.4951 0.0
C1136 C 0.2026 0.15078 0.88669 0.0
C1137 C 0.20295 0.13792 0.836 0.0
C1138 C 0.22138 0.15115 0.92452 0.0
C1139 C 0.24104 0.13777 0.91279 0.0
C1140 C 0.24167 0.12504 0.86099 0.0
C1141 C 0.22279 0.12549 0.82298 0.0
C1142 C 0.21991 0.16551 0.97798 0.0
C1143 C 0.26188 0.1101 0.8469 0.0
C1144 C 0.29621 0.15018 0.99747 0.0
C1145 C 0.2944 0.13499 0.04394 0.0
C1146 C 0.27924 0.15116 0.9543 0.0
C1147 C 0.26015 0.13616 0.95641 0.0
C1148 C 0.2587 0.12029 1.00234 0.0
C1149 C 0.27556 0.1201 0.04559 0.0
C1150 C 0.28139 0.16877 0.90734 0.0
C1151 C 0.23914 0.10355 0.00623 0.0
H1152 H 0.18737 0.16047 0.89698 0.0
H1153 H 0.22309 0.11528 0.78438 0.0
H1154 H 0.21942 0.15426 0.01624 0.0
H1155 H 0.23527 0.17651 0.98178 0.0
H1156 H 0.20448 0.17655 0.97842 0.0
H1157 H 0.26042 0.10222 0.80385 0.0
H1158 H 0.27791 0.12017 0.84869 0.0
H1159 H 0.26331 0.09627 0.87929 0.0
H1160 H 0.31056 0.16186 0.99592 0.0
H1161 H 0.2741 0.10809 0.08075 0.0
H1162 H 0.26679 0.18083 0.90964 0.0
H1163 H 0.28068 0.1604 0.86484 0.0
H1164 H 0.29753 0.17867 0.91037 0.0
H1165 H 0.22288 0.11292 0.01281 0.0
H1166 H 0.24131 0.09117 0.04192 0.0
H1167 H 0.23755 0.09393 0.96556 0.0
C1168 C 0.1237 0.81716 0.12775 0.0
C1169 C 0.13758 0.82258 0.17493 0.0
C1170 C 0.12615 0.79643 0.09772 0.0
C1171 C 0.14301 0.78042 0.11468 0.0
C1172 C 0.15707 0.78569 0.16238 0.0
C1173 C 0.15414 0.80657 0.19198 0.0
C1174 C 0.11051 0.7916 0.04787 0.0
C1175 C 0.17532 0.76927 0.18204 0.0
C1176 C 0.13434 0.71791 0.07094 0.0
C1177 C 0.1485 0.71573 0.02251 0.0
C1178 C 0.13259 0.73864 0.10131 0.0
C1179 C 0.14536 0.75797 0.08343 0.0
C1180 C 0.15972 0.75594 0.03462 0.0
C1181 C 0.16103 0.73497 1.0047 0.0
C1182 C 0.11682 0.73989 0.1524 0.0
C1183 C 0.17374 0.77596 0.01398 0.0
H1184 H 0.11057 0.82907 0.11454 0.0
H1185 H 0.16511 0.81053 0.22788 0.0
H1186 H 0.12072 0.78858 0.00857 0.0
H1187 H 0.10052 0.77584 0.05634 0.0
H1188 H 0.09841 0.80585 0.03954 0.0
H1189 H 0.18514 0.77595 0.21904 0.0
H1190 H 0.16745 0.75274 0.19446 0.0
H1191 H 0.18736 0.76576 0.1464 0.0
H1192 H 0.12425 0.70342 0.08482 0.0
H1193 H 0.17218 0.73356 0.96786 0.0
H1194 H 0.10347 0.753 0.14482 0.0
H1195 H 0.12651 0.74518 0.19092 0.0
H1196 H 0.10832 0.7233 0.16154 0.0
H1197 H 0.16232 0.79033 1.00211 0.0
H1198 H 0.1845 0.77158 0.97636 0.0
H1199 H 0.18499 0.78209 0.04891 0.0
C1200 C 0.71565 0.8887 0.92802 0.0
C1201 C 0.7002 0.90696 0.92264 0.0
C1202 C 0.73518 0.88707 0.89251 0.0
C1203 C 0.7396 0.90418 0.85068 0.0
C1204 C 0.72431 0.92285 0.84597 0.0
C1205 C 0.70494 0.92399 0.8817 0.0
C1206 C 0.7509 0.86682 0.89909 0.0
C1207 C 0.7283 0.94164 0.80266 0.0
C1208 C 0.79939 0.91209 0.78585 0.0
C1209 C 0.79712 0.90186 0.73175 0.0
C1210 C 0.78108 0.91255 0.82531 0.0
C1211 C 0.75983 0.90246 0.81083 0.0
C1212 C 0.75756 0.89173 0.75676 0.0
C1213 C 0.7761 0.8916 0.71807 0.0
C1214 C 0.78434 0.92432 0.88211 0.0
C1215 C 0.73538 0.88061 0.73935 0.0
H1216 H 0.71219 0.87539 0.95912 0.0
H1217 H 0.69352 0.93844 0.87771 0.0
H1218 H 0.75123 0.85686 0.85875 0.0
H1219 H 0.7686 0.87273 0.90727 0.0
H1220 H 0.74557 0.85533 0.93459 0.0
H1221 H 0.71518 0.95531 0.80522 0.0
H1222 H 0.74536 0.94942 0.80933 0.0
H1223 H 0.72812 0.93442 0.75879 0.0
H1224 H 0.81535 0.92027 0.79699 0.0
H1225 H 0.77412 0.8833 0.67703 0.0
H1226 H 0.77988 0.91253 0.91768 0.0
H1227 H 0.77269 0.93922 0.88509 0.0
H1228 H 0.80215 0.93036 0.88824 0.0
H1229 H 0.73017 0.86776 0.77183 0.0
H1230 H 0.73661 0.87208 0.69704 0.0
H1231 H 0.72166 0.89367 0.73727 0.0
C1232 C 0.87922 0.24067 0.28575 0.0
C1233 C 0.89737 0.23889 0.32483 0.0
C1234 C 0.87876 0.25802 0.24325 0.0
C1235 C 0.89714 0.27381 0.23847 0.0
C1236 C 0.91584 0.27152 0.27664 0.0
C1237 C 0.91561 0.25438 0.31935 0.0
C1238 C 0.85823 0.2599 0.20461 0.0
C1239 C 0.93608 0.28744 0.27296 0.0
C1240 C 0.90613 0.31059 0.10276 0.0
C1241 C 0.89881 0.33223 0.12108 0.0
C1242 C 0.90527 0.29134 0.13976 0.0
C1243 C 0.89639 0.29352 0.19622 0.0
C1244 C 0.88802 0.31517 0.21369 0.0
C1245 C 0.88959 0.33414 0.17645 0.0
C1246 C 0.9148 0.26886 0.11924 0.0
C1247 C 0.8779 0.31848 0.27255 0.0
H1248 H 0.86498 0.22893 0.28966 0.0
H1249 H 0.9299 0.25302 0.34854 0.0
H1250 H 0.84946 0.27642 0.21228 0.0
H1251 H 0.86365 0.25974 0.1591 0.0
H1252 H 0.84582 0.24582 0.21174 0.0
H1253 H 0.94999 0.28246 0.30275 0.0
H1254 H 0.94297 0.28769 0.22869 0.0
H1255 H 0.93063 0.30511 0.28335 0.0
H1256 H 0.9135 0.30896 0.0604 0.0
H1257 H 0.88373 0.35072 0.19087 0.0
H1258 H 0.90209 0.25502 0.1255 0.0
H1259 H 0.93008 0.26434 0.14495 0.0
H1260 H 0.91976 0.26945 0.07334 0.0
H1261 H 0.86449 0.30548 0.28081 0.0
H1262 H 0.87031 0.33574 0.27793 0.0
H1263 H 0.89135 0.31614 0.30544 0.0
C1264 C 0.2499 0.40658 0.4858 0.0
C1265 C 0.22995 0.39321 0.48423 0.0
C1266 C 0.26507 0.40766 0.43867 0.0
C1267 C 0.26068 0.39462 0.38869 0.0
C1268 C 0.24072 0.38081 0.38726 0.0
C1269 C 0.22553 0.38052 0.43448 0.0
C1270 C 0.28568 0.42307 0.44211 0.0
C1271 C 0.23546 0.36617 0.33589 0.0
C1272 C 0.28788 0.41205 0.24495 0.0
C1273 C 0.30718 0.39781 0.24171 0.0
C1274 C 0.27289 0.41138 0.29246 0.0
C1275 C 0.27676 0.39566 0.33782 0.0
C1276 C 0.2961 0.38105 0.33445 0.0
C1277 C 0.31115 0.3825 0.28707 0.0
C1278 C 0.25298 0.42773 0.29435 0.0
C1279 C 0.30077 0.36364 0.3807 0.0
H1280 H 0.25339 0.41664 0.52363 0.0
H1281 H 0.21035 0.36996 0.43294 0.0
H1282 H 0.30153 0.4129 0.43706 0.0
H1283 H 0.28527 0.4357 0.4066 0.0
H1284 H 0.28654 0.43244 0.48335 0.0
H1285 H 0.21981 0.35571 0.34209 0.0
H1286 H 0.23312 0.37711 0.29751 0.0
H1287 H 0.25003 0.35458 0.32699 0.0
H1288 H 0.28475 0.42412 0.21062 0.0
H1289 H 0.32582 0.37127 0.28486 0.0
H1290 H 0.25386 0.43822 0.33378 0.0
H1291 H 0.23669 0.41806 0.29595 0.0
H1292 H 0.25259 0.43933 0.25666 0.0
H1293 H 0.3034 0.37235 0.42227 0.0
H1294 H 0.31607 0.35307 0.37121 0.0
H1295 H 0.2858 0.35217 0.38578 0.0
C1296 C 0.40816 0.80968 0.54994 0.0
C1297 C 0.39373 0.80439 0.50375 0.0
C1298 C 0.41045 0.79483 0.59737 0.0
C1299 C 0.39786 0.77412 0.5995 0.0
C1300 C 0.3832 0.76872 0.55314 0.0
C1301 C 0.38141 0.78378 0.50597 0.0
C1302 C 0.42647 0.80129 0.64522 0.0
C1303 C 0.36924 0.74704 0.5535 0.0
C1304 C 0.41813 0.72542 0.69761 0.0
C1305 C 0.40391 0.7278 0.74583 0.0
C1306 C 0.41643 0.74033 0.65015 0.0
C1307 C 0.4 0.75816 0.65013 0.0
C1308 C 0.3856 0.76066 0.69862 0.0
C1309 C 0.38776 0.7456 0.74567 0.0
C1310 C 0.43232 0.73703 0.59991 0.0
C1311 C 0.3677 0.7792 0.70064 0.0
H1312 H 0.41802 0.82533 0.54864 0.0
H1313 H 0.37001 0.77955 0.47113 0.0
H1314 H 0.41689 0.80253 0.6861 0.0
H1315 H 0.43961 0.78781 0.65081 0.0
H1316 H 0.43521 0.81784 0.63712 0.0
H1317 H 0.35855 0.7453 0.5145 0.0
H1318 H 0.38067 0.73198 0.5566 0.0
H1319 H 0.35791 0.74673 0.59161 0.0
H1320 H 0.43085 0.712 0.69719 0.0
H1321 H 0.37644 0.74754 0.78199 0.0
H1322 H 0.4424 0.75281 0.59248 0.0
H1323 H 0.42227 0.7338 0.56053 0.0
H1324 H 0.4443 0.72255 0.6065 0.0
H1325 H 0.37589 0.79619 0.69586 0.0
H1326 H 0.35781 0.77896 0.74126 0.0
H1327 H 0.35566 0.77715 0.66439 0.0
C1328 C 0.74444 0.63395 0.27344 0.0
C1329 C 0.74999 0.64011 0.2168 0.0
C1330 C 0.76103 0.63392 0.31731 0.0
C1331 C 0.78394 0.64001 0.30471 0.0
C1332 C 0.78956 0.64673 0.24806 0.0
C1333 C 0.77263 0.64679 0.20517 0.0
C1334 C 0.75413 0.62672 0.37696 0.0
C1335 C 0.81371 0.6533 0.23228 0.0
C1336 C 0.82736 0.65373 0.42333 0.0
C1337 C 0.83955 0.63311 0.42757 0.0
C1338 C 0.8089 0.65615 0.38465 0.0
C1339 C 0.80241 0.63755 0.34919 0.0
C1340 C 0.81422 0.61656 0.35471 0.0
C1341 C 0.83241 0.61459 0.39372 0.0
C1342 C 0.79669 0.67878 0.38073 0.0
C1343 C 0.80801 0.59619 0.31832 0.0
H1344 H 0.72722 0.62859 0.28354 0.0
H1345 H 0.77728 0.65204 0.16229 0.0
H1346 H 0.76251 0.6103 0.38798 0.0
H1347 H 0.75993 0.63956 0.40864 0.0
H1348 H 0.73535 0.62454 0.38125 0.0
H1349 H 0.81515 0.65927 0.18726 0.0
H1350 H 0.81993 0.66703 0.26095 0.0
H1351 H 0.82517 0.63837 0.23816 0.0
H1352 H 0.83265 0.66817 0.449 0.0
H1353 H 0.84118 0.59838 0.3974 0.0
H1354 H 0.77801 0.67627 0.3858 0.0
H1355 H 0.79954 0.68643 0.3378 0.0
H1356 H 0.80265 0.69106 0.41367 0.0
H1357 H 0.78972 0.59183 0.32427 0.0
H1358 H 0.81844 0.58088 0.32871 0.0
H1359 H 0.81051 0.60042 0.27241 0.0
C1360 C 0.64296 0.22257 0.5785 0.0
C1361 C 0.62884 0.22745 0.53145 0.0
C1362 C 0.64446 0.23756 0.62563 0.0
C1363 C 0.63118 0.25784 0.62671 0.0
C1364 C 0.61678 0.26277 0.57944 0.0
C1365 C 0.61596 0.2477 0.53235 0.0
C1366 C 0.6604 0.23173 0.67422 0.0
C1367 C 0.602 0.28389 0.57886 0.0
C1368 C 0.61903 0.28558 0.77237 0.0
C1369 C 0.63409 0.30427 0.77247 0.0
C1370 C 0.61779 0.27052 0.72533 0.0
C1371 C 0.63228 0.27382 0.67725 0.0
C1372 C 0.64776 0.29248 0.67751 0.0
C1373 C 0.64831 0.30754 0.72464 0.0
C1374 C 0.60073 0.25119 0.72681 0.0
C1375 C 0.66387 0.29651 0.62801 0.0
H1376 H 0.65318 0.20715 0.578 0.0
H1377 H 0.60483 0.25153 0.49662 0.0
H1378 H 0.67281 0.24583 0.68061 0.0
H1379 H 0.65058 0.22985 0.7146 0.0
H1380 H 0.67 0.21567 0.66641 0.0
H1381 H 0.59148 0.28517 0.53945 0.0
H1382 H 0.59045 0.28379 0.61657 0.0
H1383 H 0.61281 0.29939 0.58206 0.0
H1384 H 0.60778 0.28303 0.80868 0.0
H1385 H 0.66018 0.32174 0.72448 0.0
H1386 H 0.6097 0.23457 0.72297 0.0
H1387 H 0.58896 0.25262 0.68979 0.0
H1388 H 0.59047 0.25106 0.76684 0.0
H1389 H 0.67455 0.28111 0.62092 0.0
H1390 H 0.6753 0.31138 0.63525 0.0
H1391 H 0.65401 0.29952 0.58821 0.0
loop_
_geom_bond_atom_site_label_1
_geom_bond_atom_site_label_2
_geom_bond_distance
_geom_bond_site_symmetry_2
_ccdc_geom_bond_type
Cu0 N1 1.999 . S
Cu0 O6 1.974 . S
Cu0 N11 1.985 . S
Cu0 O20 1.959 . S
N1 Cu0 1.999 . S
N1 C3 1.263 . S
N1 C5 1.389 . S
N2 C3 1.358 . S
N2 C4 1.400 . S
C3 N1 1.263 . S
C3 N2 1.358 . S
C3 H9 0.930 . S
C4 N2 1.400 . S
C4 C5 1.351 . S
C4 H21 0.930 . S
C5 N1 1.389 . S
C5 C4 1.351 . S
C5 H10 0.930 . S
O6 Cu0 1.974 . S
O6 C16 1.282 . S
C7 O8 1.261 . S
C7 O20 1.251 . S
O8 C7 1.261 . S
H9 C3 0.930 . S
H10 C5 0.930 . S
N11 Cu0 1.985 . S
N11 C13 1.335 . S
N11 C14 1.390 . S
N12 C13 1.345 . S
N12 C15 1.336 . S
C13 N11 1.335 . S
C13 N12 1.345 . S
C13 H18 0.930 . S
C14 N11 1.390 . S
C14 C15 1.346 . S
C14 H19 0.930 . S
C15 N12 1.336 . S
C15 C14 1.346 . S
C15 H22 0.929 . S
C16 O6 1.282 . S
C16 O17 1.216 . S
O17 C16 1.216 . S
H18 C13 0.930 . S
H19 C14 0.930 . S
O20 Cu0 1.959 . S
O20 C7 1.251 . S
H21 C4 0.930 . S
H22 C15 0.929 . S
Cu23 N24 1.999 . S
Cu23 O29 1.974 . S
Cu23 N34 1.985 . S
Cu23 O43 1.959 . S
N24 Cu23 1.999 . S
N24 C26 1.263 . S
N24 C28 1.389 . S
N25 C26 1.358 . S
N25 C27 1.400 . S
C26 N24 1.263 . S
C26 N25 1.358 . S
C26 H32 0.930 . S
C27 N25 1.400 . S
C27 C28 1.351 . S
C27 H44 0.930 . S
C28 N24 1.389 . S
C28 C27 1.351 . S
C28 H33 0.930 . S
O29 Cu23 1.974 . S
O29 C39 1.282 . S
C30 O31 1.261 . S
C30 O43 1.251 . S
O31 C30 1.261 . S
H32 C26 0.930 . S
H33 C28 0.930 . S
N34 Cu23 1.985 . S
N34 C36 1.335 . S
N34 C37 1.390 . S
N35 C36 1.345 . S
N35 C38 1.336 . S
C36 N34 1.335 . S
C36 N35 1.345 . S
C36 H41 0.930 . S
C37 N34 1.390 . S
C37 C38 1.346 . S
C37 H42 0.930 . S
C38 N35 1.336 . S
C38 C37 1.346 . S
C38 H45 0.929 . S
C39 O29 1.282 . S
C39 O40 1.216 . S
O40 C39 1.216 . S
H41 C36 0.930 . S
H42 C37 0.930 . S
O43 Cu23 1.959 . S
O43 C30 1.251 . S
H44 C27 0.930 . S
H45 C38 0.929 . S
Cu46 N47 1.999 . S
Cu46 O52 1.974 . S
Cu46 N57 1.985 . S
Cu46 O66 1.959 . S
N47 Cu46 1.999 . S
N47 C49 1.263 . S
N47 C51 1.389 . S
N48 C49 1.358 . S
N48 C50 1.400 . S
C49 N47 1.263 . S
C49 N48 1.358 . S
C49 H55 0.930 . S
C50 N48 1.400 . S
C50 C51 1.351 . S
C50 H67 0.930 . S
C51 N47 1.389 . S
C51 C50 1.351 . S
C51 H56 0.930 . S
O52 Cu46 1.974 . S
O52 C62 1.282 . S
C53 O54 1.261 . S
C53 O66 1.251 . S
O54 C53 1.261 . S
H55 C49 0.930 . S
H56 C51 0.930 . S
N57 Cu46 1.985 . S
N57 C59 1.335 . S
N57 C60 1.390 . S
N58 C59 1.345 . S
N58 C61 1.336 . S
C59 N57 1.335 . S
C59 N58 1.345 . S
C59 H64 0.930 . S
C60 N57 1.390 . S
C60 C61 1.346 . S
C60 H65 0.930 . S
C61 N58 1.336 . S
C61 C60 1.346 . S
C61 H68 0.929 . S
C62 O52 1.282 . S
C62 O63 1.216 . S
O63 C62 1.216 . S
H64 C59 0.930 . S
H65 C60 0.930 . S
O66 Cu46 1.959 . S
O66 C53 1.251 . S
H67 C50 0.930 . S
H68 C61 0.929 . S
Cu69 N70 1.999 . S
Cu69 O75 1.974 . S
Cu69 N80 1.985 . S
Cu69 O89 1.959 . S
N70 Cu69 1.999 . S
N70 C72 1.263 . S
N70 C74 1.389 . S
N71 C72 1.358 . S
N71 C73 1.400 . S
C72 N70 1.263 . S
C72 N71 1.358 . S
C72 H78 0.930 . S
C73 N71 1.400 . S
C73 C74 1.351 . S
C73 H90 0.930 . S
C74 N70 1.389 . S
C74 C73 1.351 . S
C74 H79 0.930 . S
O75 Cu69 1.974 . S
O75 C85 1.282 . S
C76 O77 1.261 . S
C76 O89 1.251 . S
O77 C76 1.261 . S
H78 C72 0.930 . S
H79 C74 0.930 . S
N80 Cu69 1.985 . S
N80 C82 1.335 . S
N80 C83 1.390 . S
N81 C82 1.345 . S
N81 C84 1.336 . S
C82 N80 1.335 . S
C82 N81 1.345 . S
C82 H87 0.930 . S
C83 N80 1.390 . S
C83 C84 1.346 . S
C83 H88 0.930 . S
C84 N81 1.336 . S
C84 C83 1.346 . S
C84 H91 0.929 . S
C85 O75 1.282 . S
C85 O86 1.216 . S
O86 C85 1.216 . S
H87 C82 0.930 . S
H88 C83 0.930 . S
O89 Cu69 1.959 . S
O89 C76 1.251 . S
H90 C73 0.930 . S
H91 C84 0.929 . S
Cu92 N93 1.999 . S
Cu92 O98 1.974 . S
Cu92 N103 1.985 . S
Cu92 O112 1.959 . S
N93 Cu92 1.999 . S
N93 C95 1.263 . S
N93 C97 1.389 . S
N94 C95 1.358 . S
N94 C96 1.400 . S
C95 N93 1.263 . S
C95 N94 1.358 . S
C95 H101 0.930 . S
C96 N94 1.400 . S
C96 C97 1.351 . S
C96 H113 0.930 . S
C97 N93 1.389 . S
C97 C96 1.351 . S
C97 H102 0.930 . S
O98 Cu92 1.974 . S
O98 C108 1.282 . S
C99 O100 1.261 . S
C99 O112 1.251 . S
O100 C99 1.261 . S
H101 C95 0.930 . S
H102 C97 0.930 . S
N103 Cu92 1.985 . S
N103 C105 1.335 . S
N103 C106 1.390 . S
N104 C105 1.345 . S
N104 C107 1.336 . S
C105 N103 1.335 . S
C105 N104 1.345 . S
C105 H110 0.930 . S
C106 N103 1.390 . S
C106 C107 1.346 . S
C106 H111 0.930 . S
C107 N104 1.336 . S
C107 C106 1.346 . S
C107 H114 0.929 . S
C108 O98 1.282 . S
C108 O109 1.216 . S
O109 C108 1.216 . S
H110 C105 0.930 . S
H111 C106 0.930 . S
O112 Cu92 1.959 . S
O112 C99 1.251 . S
H113 C96 0.930 . S
H114 C107 0.929 . S
Cu115 N116 1.999 . S
Cu115 O121 1.974 . S
Cu115 N126 1.985 . S
Cu115 O135 1.959 . S
N116 Cu115 1.999 . S
N116 C118 1.263 . S
N116 C120 1.389 . S
N117 C118 1.358 . S
N117 C119 1.400 . S
C118 N116 1.263 . S
C118 N117 1.358 . S
C118 H124 0.930 . S
C119 N117 1.400 . S
C119 C120 1.351 . S
C119 H136 0.930 . S
C120 N116 1.389 . S
C120 C119 1.351 . S
C120 H125 0.930 . S
O121 Cu115 1.974 . S
O121 C131 1.282 . S
C122 O123 1.261 . S
C122 O135 1.251 . S
O123 C122 1.261 . S
H124 C118 0.930 . S
H125 C120 0.930 . S
N126 Cu115 1.985 . S
N126 C128 1.335 . S
N126 C129 1.390 . S
N127 C128 1.345 . S
N127 C130 1.336 . S
C128 N126 1.335 . S
C128 N127 1.345 . S
C128 H133 0.930 . S
C129 N126 1.390 . S
C129 C130 1.346 . S
C129 H134 0.930 . S
C130 N127 1.336 . S
C130 C129 1.346 . S
C130 H137 0.929 . S
C131 O121 1.282 . S
C131 O132 1.216 . S
O132 C131 1.216 . S
H133 C128 0.930 . S
H134 C129 0.930 . S
O135 Cu115 1.959 . S
O135 C122 1.251 . S
H136 C119 0.930 . S
H137 C130 0.929 . S
Cu138 N139 1.999 . S
Cu138 O144 1.974 . S
Cu138 N149 1.985 . S
Cu138 O158 1.959 . S
N139 Cu138 1.999 . S
N139 C141 1.263 . S
N139 C143 1.389 . S
N140 C141 1.358 . S
N140 C142 1.400 . S
C141 N139 1.263 . S
C141 N140 1.358 . S
C141 H147 0.930 . S
C142 N140 1.400 . S
C142 C143 1.351 . S
C142 H159 0.930 . S
C143 N139 1.389 . S
C143 C142 1.351 . S
C143 H148 0.930 . S
O144 Cu138 1.974 . S
O144 C154 1.282 . S
C145 O146 1.261 . S
C145 O158 1.251 . S
O146 C145 1.261 . S
H147 C141 0.930 . S
H148 C143 0.930 . S
N149 Cu138 1.985 . S
N149 C151 1.335 . S
N149 C152 1.390 . S
N150 C151 1.345 . S
N150 C153 1.336 . S
C151 N149 1.335 . S
C151 N150 1.345 . S
C151 H156 0.930 . S
C152 N149 1.390 . S
C152 C153 1.346 . S
C152 H157 0.930 . S
C153 N150 1.336 . S
C153 C152 1.346 . S
C153 H160 0.929 . S
C154 O144 1.282 . S
C154 O155 1.216 . S
O155 C154 1.216 . S
H156 C151 0.930 . S
H157 C152 0.930 . S
O158 Cu138 1.959 . S
O158 C145 1.251 . S
H159 C142 0.930 . S
H160 C153 0.929 . S
Cu161 N162 1.999 . S
Cu161 O167 1.974 . S
Cu161 N172 1.985 . S
Cu161 O181 1.959 . S
N162 Cu161 1.999 . S
N162 C164 1.263 . S
N162 C166 1.389 . S
N163 C164 1.358 . S
N163 C165 1.400 . S
C164 N162 1.263 . S
C164 N163 1.358 . S
C164 H170 0.930 . S
C165 N163 1.400 . S
C165 C166 1.351 . S
C165 H182 0.930 . S
C166 N162 1.389 . S
C166 C165 1.351 . S
C166 H171 0.930 . S
O167 Cu161 1.974 . S
O167 C177 1.282 . S
C168 O169 1.261 . S
C168 O181 1.251 . S
O169 C168 1.261 . S
H170 C164 0.930 . S
H171 C166 0.930 . S
N172 Cu161 1.985 . S
N172 C174 1.335 . S
N172 C175 1.390 . S
N173 C174 1.345 . S
N173 C176 1.336 . S
C174 N172 1.335 . S
C174 N173 1.345 . S
C174 H179 0.930 . S
C175 N172 1.390 . S
C175 C176 1.346 . S
C175 H180 0.930 . S
C176 N173 1.336 . S
C176 C175 1.346 . S
C176 H183 0.929 . S
C177 O167 1.282 . S
C177 O178 1.216 . S
O178 C177 1.216 . S
H179 C174 0.930 . S
H180 C175 0.930 . S
O181 Cu161 1.959 . S
O181 C168 1.251 . S
H182 C165 0.930 . S
H183 C176 0.929 . S
Cu184 N185 1.999 . S
Cu184 O190 1.974 . S
Cu184 N195 1.985 . S
Cu184 O204 1.959 . S
N185 Cu184 1.999 . S
N185 C187 1.263 . S
N185 C189 1.389 . S
N186 C187 1.358 . S
N186 C188 1.400 . S
C187 N185 1.263 . S
C187 N186 1.358 . S
C187 H193 0.930 . S
C188 N186 1.400 . S
C188 C189 1.351 . S
C188 H205 0.930 . S
C189 N185 1.389 . S
C189 C188 1.351 . S
C189 H194 0.930 . S
O190 Cu184 1.974 . S
O190 C200 1.282 . S
C191 O192 1.261 . S
C191 O204 1.251 . S
O192 C191 1.261 . S
H193 C187 0.930 . S
H194 C189 0.930 . S
N195 Cu184 1.985 . S
N195 C197 1.335 . S
N195 C198 1.390 . S
N196 C197 1.345 . S
N196 C199 1.336 . S
C197 N195 1.335 . S
C197 N196 1.345 . S
C197 H202 0.930 . S
C198 N195 1.390 . S
C198 C199 1.346 . S
C198 H203 0.930 . S
C199 N196 1.336 . S
C199 C198 1.346 . S
C199 H206 0.929 . S
C200 O190 1.282 . S
C200 O201 1.216 . S
O201 C200 1.216 . S
H202 C197 0.930 . S
H203 C198 0.930 . S
O204 Cu184 1.959 . S
O204 C191 1.251 . S
H205 C188 0.930 . S
H206 C199 0.929 . S
Cu207 N208 1.999 . S
Cu207 O213 1.974 . S
Cu207 N218 1.985 . S
Cu207 O227 1.959 . S
N208 Cu207 1.999 . S
N208 C210 1.263 . S
N208 C212 1.389 . S
N209 C210 1.358 . S
N209 C211 1.400 . S
C210 N208 1.263 . S
C210 N209 1.358 . S
C210 H216 0.930 . S
C211 N209 1.400 . S
C211 C212 1.351 . S
C211 H228 0.930 . S
C212 N208 1.389 . S
C212 C211 1.351 . S
C212 H217 0.930 . S
O213 Cu207 1.974 . S
O213 C223 1.282 . S
C214 O215 1.261 . S
C214 O227 1.251 . S
O215 C214 1.261 . S
H216 C210 0.930 . S
H217 C212 0.930 . S
N218 Cu207 1.985 . S
N218 C220 1.335 . S
N218 C221 1.390 . S
N219 C220 1.345 . S
N219 C222 1.336 . S
C220 N218 1.335 . S
C220 N219 1.345 . S
C220 H225 0.930 . S
C221 N218 1.390 . S
C221 C222 1.346 . S
C221 H226 0.930 . S
C222 N219 1.336 . S
C222 C221 1.346 . S
C222 H229 0.929 . S
C223 O213 1.282 . S
C223 O224 1.216 . S
O224 C223 1.216 . S
H225 C220 0.930 . S
H226 C221 0.930 . S
O227 Cu207 1.959 . S
O227 C214 1.251 . S
H228 C211 0.930 . S
H229 C222 0.929 . S
Cu230 N231 1.999 . S
Cu230 O236 1.974 . S
Cu230 N241 1.985 . S
Cu230 O250 1.959 . S
N231 Cu230 1.999 . S
N231 C233 1.263 . S
N231 C235 1.389 . S
N232 C233 1.358 . S
N232 C234 1.400 . S
C233 N231 1.263 . S
C233 N232 1.358 . S
C233 H239 0.930 . S
C234 N232 1.400 . S
C234 C235 1.351 . S
C234 H251 0.930 . S
C235 N231 1.389 . S
C235 C234 1.351 . S
C235 H240 0.930 . S
O236 Cu230 1.974 . S
O236 C246 1.282 . S
C237 O238 1.261 . S
C237 O250 1.251 . S
O238 C237 1.261 . S
H239 C233 0.930 . S
H240 C235 0.930 . S
N241 Cu230 1.985 . S
N241 C243 1.335 . S
N241 C244 1.390 . S
N242 C243 1.345 . S
N242 C245 1.336 . S
C243 N241 1.335 . S
C243 N242 1.345 . S
C243 H248 0.930 . S
C244 N241 1.390 . S
C244 C245 1.346 . S
C244 H249 0.930 . S
C245 N242 1.336 . S
C245 C244 1.346 . S
C245 H252 0.929 . S
C246 O236 1.282 . S
C246 O247 1.216 . S
O247 C246 1.216 . S
H248 C243 0.930 . S
H249 C244 0.930 . S
O250 Cu230 1.959 . S
O250 C237 1.251 . S
H251 C234 0.930 . S
H252 C245 0.929 . S
Cu253 N254 1.999 . S
Cu253 O259 1.974 . S
Cu253 N264 1.985 . S
Cu253 O273 1.959 . S
N254 Cu253 1.999 . S
N254 C256 1.263 . S
N254 C258 1.389 . S
N255 C256 1.358 . S
N255 C257 1.400 . S
C256 N254 1.263 . S
C256 N255 1.358 . S
C256 H262 0.930 . S
C257 N255 1.400 . S
C257 C258 1.351 . S
C257 H274 0.930 . S
C258 N254 1.389 . S
C258 C257 1.351 . S
C258 H263 0.930 . S
O259 Cu253 1.974 . S
O259 C269 1.282 . S
C260 O261 1.261 . S
C260 O273 1.251 . S
O261 C260 1.261 . S
H262 C256 0.930 . S
H263 C258 0.930 . S
N264 Cu253 1.985 . S
N264 C266 1.335 . S
N264 C267 1.390 . S
N265 C266 1.345 . S
N265 C268 1.336 . S
C266 N264 1.335 . S
C266 N265 1.345 . S
C266 H271 0.930 . S
C267 N264 1.390 . S
C267 C268 1.346 . S
C267 H272 0.930 . S
C268 N265 1.336 . S
C268 C267 1.346 . S
C268 H275 0.929 . S
C269 O259 1.282 . S
C269 O270 1.216 . S
O270 C269 1.216 . S
H271 C266 0.930 . S
H272 C267 0.930 . S
O273 Cu253 1.959 . S
O273 C260 1.251 . S
H274 C257 0.930 . S
H275 C268 0.929 . S
Cu276 N277 1.999 . S
Cu276 O282 1.974 . S
Cu276 N287 1.985 . S
Cu276 O296 1.959 . S
N277 Cu276 1.999 . S
N277 C279 1.263 . S
N277 C281 1.389 . S
N278 C279 1.358 . S
N278 C280 1.400 . S
C279 N277 1.263 . S
C279 N278 1.358 . S
C279 H285 0.930 . S
C280 N278 1.400 . S
C280 C281 1.351 . S
C280 H297 0.930 . S
C281 N277 1.389 . S
C281 C280 1.351 . S
C281 H286 0.930 . S
O282 Cu276 1.974 . S
O282 C292 1.282 . S
C283 O284 1.261 . S
C283 O296 1.251 . S
O284 C283 1.261 . S
H285 C279 0.930 . S
H286 C281 0.930 . S
N287 Cu276 1.985 . S
N287 C289 1.335 . S
N287 C290 1.390 . S
N288 C289 1.345 . S
N288 C291 1.336 . S
C289 N287 1.335 . S
C289 N288 1.345 . S
C289 H294 0.930 . S
C290 N287 1.390 . S
C290 C291 1.346 . S
C290 H295 0.930 . S
C291 N288 1.336 . S
C291 C290 1.346 . S
C291 H298 0.929 . S
C292 O282 1.282 . S
C292 O293 1.216 . S
O293 C292 1.216 . S
H294 C289 0.930 . S
H295 C290 0.930 . S
O296 Cu276 1.959 . S
O296 C283 1.251 . S
H297 C280 0.930 . S
H298 C291 0.929 . S
Cu299 N300 1.999 . S
Cu299 O305 1.974 . S
Cu299 N310 1.985 . S
Cu299 O319 1.959 . S
N300 Cu299 1.999 . S
N300 C302 1.263 . S
N300 C304 1.389 . S
N301 C302 1.358 . S
N301 C303 1.400 . S
C302 N300 1.263 . S
C302 N301 1.358 . S
C302 H308 0.930 . S
C303 N301 1.400 . S
C303 C304 1.351 . S
C303 H320 0.930 . S
C304 N300 1.389 . S
C304 C303 1.351 . S
C304 H309 0.930 . S
O305 Cu299 1.974 . S
O305 C315 1.282 . S
C306 O307 1.261 . S
C306 O319 1.251 . S
O307 C306 1.261 . S
H308 C302 0.930 . S
H309 C304 0.930 . S
N310 Cu299 1.985 . S
N310 C312 1.335 . S
N310 C313 1.390 . S
N311 C312 1.345 . S
N311 C314 1.336 . S
C312 N310 1.335 . S
C312 N311 1.345 . S
C312 H317 0.930 . S
C313 N310 1.390 . S
C313 C314 1.346 . S
C313 H318 0.930 . S
C314 N311 1.336 . S
C314 C313 1.346 . S
C314 H321 0.929 . S
C315 O305 1.282 . S
C315 O316 1.216 . S
O316 C315 1.216 . S
H317 C312 0.930 . S
H318 C313 0.930 . S
O319 Cu299 1.959 . S
O319 C306 1.251 . S
H320 C303 0.930 . S
H321 C314 0.929 . S
Cu322 N323 1.999 . S
Cu322 O328 1.974 . S
Cu322 N333 1.985 . S
Cu322 O342 1.959 . S
N323 Cu322 1.999 . S
N323 C325 1.263 . S
N323 C327 1.389 . S
N324 C325 1.358 . S
N324 C326 1.400 . S
C325 N323 1.263 . S
C325 N324 1.358 . S
C325 H331 0.930 . S
C326 N324 1.400 . S
C326 C327 1.351 . S
C326 H343 0.930 . S
C327 N323 1.389 . S
C327 C326 1.351 . S
C327 H332 0.930 . S
O328 Cu322 1.974 . S
O328 C338 1.282 . S
C329 O330 1.261 . S
C329 O342 1.251 . S
O330 C329 1.261 . S
H331 C325 0.930 . S
H332 C327 0.930 . S
N333 Cu322 1.985 . S
N333 C335 1.335 . S
N333 C336 1.390 . S
N334 C335 1.345 . S
N334 C337 1.336 . S
C335 N333 1.335 . S
C335 N334 1.345 . S
C335 H340 0.930 . S
C336 N333 1.390 . S
C336 C337 1.346 . S
C336 H341 0.930 . S
C337 N334 1.336 . S
C337 C336 1.346 . S
C337 H344 0.929 . S
C338 O328 1.282 . S
C338 O339 1.216 . S
O339 C338 1.216 . S
H340 C335 0.930 . S
H341 C336 0.930 . S
O342 Cu322 1.959 . S
O342 C329 1.251 . S
H343 C326 0.930 . S
H344 C337 0.929 . S
Cu345 N346 1.999 . S
Cu345 O351 1.974 . S
Cu345 N356 1.985 . S
Cu345 O365 1.959 . S
N346 Cu345 1.999 . S
N346 C348 1.263 . S
N346 C350 1.389 . S
N347 C348 1.358 . S
N347 C349 1.400 . S
C348 N346 1.263 . S
C348 N347 1.358 . S
C348 H354 0.930 . S
C349 N347 1.400 . S
C349 C350 1.351 . S
C349 H366 0.930 . S
C350 N346 1.389 . S
C350 C349 1.351 . S
C350 H355 0.930 . S
O351 Cu345 1.974 . S
O351 C361 1.282 . S
C352 O353 1.261 . S
C352 O365 1.251 . S
O353 C352 1.261 . S
H354 C348 0.930 . S
H355 C350 0.930 . S
N356 Cu345 1.985 . S
N356 C358 1.335 . S
N356 C359 1.390 . S
N357 C358 1.345 . S
N357 C360 1.336 . S
C358 N356 1.335 . S
C358 N357 1.345 . S
C358 H363 0.930 . S
C359 N356 1.390 . S
C359 C360 1.346 . S
C359 H364 0.930 . S
C360 N357 1.336 . S
C360 C359 1.346 . S
C360 H367 0.929 . S
C361 O351 1.282 . S
C361 O362 1.216 . S
O362 C361 1.216 . S
H363 C358 0.930 . S
H364 C359 0.930 . S
O365 Cu345 1.959 . S
O365 C352 1.251 . S
H366 C349 0.930 . S
H367 C360 0.929 . S
C368 C369 1.391 . S
C368 C370 1.394 . S
C368 H384 0.931 . S
C369 C368 1.391 . S
C369 C373 1.376 . S
C370 C368 1.394 . S
C370 C371 1.369 . S
C370 C374 1.531 . S
C371 C370 1.369 . S
C371 C372 1.410 . S
C371 C379 1.503 1_565 S
C372 C371 1.410 . S
C372 C373 1.392 . S
C372 C375 1.511 . S
C373 C369 1.376 . S
C373 C372 1.392 . S
C373 H385 0.929 . S
C374 C370 1.531 . S
C374 H386 0.960 . S
C374 H387 0.962 . S
C374 H388 0.960 . S
C375 C372 1.511 . S
C375 H389 0.961 . S
C375 H390 0.961 1_565 S
C375 H391 0.962 . S
C376 C377 1.370 . S
C376 C378 1.363 . S
C376 H392 0.931 . S
C377 C376 1.370 . S
C377 C381 1.408 . S
C378 C376 1.363 . S
C378 C379 1.370 . S
C378 C382 1.524 . S
C379 C371 1.503 1_545 S
C379 C378 1.370 . S
C379 C380 1.403 . S
C380 C379 1.403 . S
C380 C381 1.404 . S
C380 C383 1.539 . S
C381 C377 1.408 . S
C381 C380 1.404 . S
C381 H393 0.930 . S
C382 C378 1.524 . S
C382 H394 0.956 . S
C382 H395 0.961 . S
C382 H396 0.961 . S
C383 C380 1.539 . S
C383 H397 0.958 . S
C383 H398 0.961 . S
C383 H399 0.960 1_545 S
H384 C368 0.931 . S
H385 C373 0.929 . S
H386 C374 0.960 . S
H387 C374 0.962 . S
H388 C374 0.960 . S
H389 C375 0.961 . S
H390 C375 0.961 1_545 S
H391 C375 0.962 . S
H392 C376 0.931 . S
H393 C381 0.930 . S
H394 C382 0.956 . S
H395 C382 0.961 . S
H396 C382 0.961 . S
H397 C383 0.958 . S
H398 C383 0.961 . S
H399 C383 0.960 1_565 S
C400 C401 1.391 . S
C400 C402 1.394 . S
C400 H416 0.931 . S
C401 C400 1.391 . S
C401 C405 1.376 . S
C402 C400 1.394 . S
C402 C403 1.369 . S
C402 C406 1.531 . S
C403 C402 1.369 . S
C403 C404 1.410 . S
C403 C411 1.503 1_455 S
C404 C403 1.410 . S
C404 C405 1.392 . S
C404 C407 1.511 . S
C405 C401 1.376 . S
C405 C404 1.392 . S
C405 H417 0.929 . S
C406 C402 1.531 . S
C406 H418 0.960 . S
C406 H419 0.962 . S
C406 H420 0.960 . S
C407 C404 1.511 . S
C407 H421 0.961 . S
C407 H422 0.961 1_455 S
C407 H423 0.961 . S
C408 C409 1.370 . S
C408 C410 1.363 . S
C408 H424 0.931 . S
C409 C408 1.370 . S
C409 C413 1.408 . S
C410 C408 1.363 . S
C410 C411 1.370 . S
C410 C414 1.524 . S
C411 C403 1.503 1_655 S
C411 C410 1.370 . S
C411 C412 1.403 . S
C412 C411 1.403 . S
C412 C413 1.404 . S
C412 C415 1.539 . S
C413 C409 1.408 . S
C413 C412 1.404 . S
C413 H425 0.930 . S
C414 C410 1.524 . S
C414 H426 0.956 1_655 S
C414 H427 0.961 1_655 S
C414 H428 0.961 . S
C415 C412 1.539 . S
C415 H429 0.958 . S
C415 H430 0.961 . S
C415 H431 0.960 1_655 S
H416 C400 0.931 . S
H417 C405 0.929 . S
H418 C406 0.960 . S
H419 C406 0.962 . S
H420 C406 0.960 . S
H421 C407 0.961 . S
H422 C407 0.961 1_655 S
H423 C407 0.961 . S
H424 C408 0.931 . S
H425 C413 0.930 . S
H426 C414 0.956 1_455 S
H427 C414 0.961 1_455 S
H428 C414 0.961 . S
H429 C415 0.958 . S
H430 C415 0.961 . S
H431 C415 0.960 1_455 S
C432 C433 1.391 . S
C432 C434 1.394 . S
C432 H448 0.931 . S
C433 C432 1.391 . S
C433 C437 1.376 . S
C434 C432 1.394 . S
C434 C435 1.369 . S
C434 C438 1.531 . S
C435 C434 1.369 . S
C435 C436 1.410 . S
C435 C443 1.503 1_565 S
C436 C435 1.410 . S
C436 C437 1.392 . S
C436 C439 1.511 . S
C437 C433 1.376 . S
C437 C436 1.392 . S
C437 H449 0.929 . S
C438 C434 1.531 . S
C438 H450 0.960 . S
C438 H451 0.962 . S
C438 H452 0.960 . S
C439 C436 1.511 . S
C439 H453 0.961 . S
C439 H454 0.961 1_565 S
C439 H455 0.961 . S
C440 C441 1.370 . S
C440 C442 1.363 . S
C440 H456 0.931 . S
C441 C440 1.370 . S
C441 C445 1.408 . S
C442 C440 1.363 . S
C442 C443 1.370 . S
C442 C446 1.524 . S
C443 C435 1.503 1_545 S
C443 C442 1.370 . S
C443 C444 1.403 . S
C444 C443 1.403 . S
C444 C445 1.404 . S
C444 C447 1.519 1_545 S
C445 C441 1.408 . S
C445 C444 1.404 . S
C445 H457 0.930 . S
C446 C442 1.524 . S
C446 H458 0.956 . S
C446 H459 0.961 . S
C446 H460 0.961 . S
C447 C444 1.519 1_565 S
C447 H461 0.968 . S
C447 H462 0.945 1_565 S
C447 H463 0.988 . S
H448 C432 0.931 . S
H449 C437 0.929 . S
H450 C438 0.960 . S
H451 C438 0.962 . S
H452 C438 0.960 . S
H453 C439 0.961 . S
H454 C439 0.961 1_545 S
H455 C439 0.961 . S
H456 C440 0.931 . S
H457 C445 0.930 . S
H458 C446 0.956 . S
H459 C446 0.961 . S
H460 C446 0.961 . S
H461 C447 0.968 . S
H462 C447 0.945 1_545 S
H463 C447 0.988 . S
C464 C465 1.391 . S
C464 C466 1.394 . S
C464 H480 0.931 . S
C465 C464 1.391 . S
C465 C469 1.376 . S
C466 C464 1.394 . S
C466 C467 1.369 . S
C466 C470 1.531 . S
C467 C466 1.369 . S
C467 C468 1.410 . S
C467 C475 1.503 1_455 S
C468 C467 1.410 . S
C468 C469 1.392 . S
C468 C471 1.511 . S
C469 C465 1.376 . S
C469 C468 1.392 . S
C469 H481 0.929 . S
C470 C466 1.531 . S
C470 H482 0.960 1_455 S
C470 H483 0.962 1_455 S
C470 H484 0.960 . S
C471 C468 1.511 . S
C471 H485 0.961 . S
C471 H486 0.961 1_455 S
C471 H487 0.961 . S
C472 C473 1.370 . S
C472 C474 1.363 . S
C472 H488 0.931 . S
C473 C472 1.370 . S
C473 C477 1.408 . S
C474 C472 1.363 . S
C474 C475 1.370 . S
C474 C478 1.524 . S
C475 C467 1.503 1_655 S
C475 C474 1.370 . S
C475 C476 1.403 . S
C476 C475 1.403 . S
C476 C477 1.404 . S
C476 C479 1.539 . S
C477 C473 1.408 . S
C477 C476 1.404 . S
C477 H489 0.930 . S
C478 C474 1.524 . S
C478 H490 0.956 . S
C478 H491 0.961 . S
C478 H492 0.961 . S
C479 C476 1.539 . S
C479 H493 0.958 . S
C479 H494 0.961 . S
C479 H495 0.960 1_655 S
H480 C464 0.931 . S
H481 C469 0.929 . S
H482 C470 0.960 1_655 S
H483 C470 0.962 1_655 S
H484 C470 0.960 . S
H485 C471 0.961 . S
H486 C471 0.961 1_655 S
H487 C471 0.961 . S
H488 C472 0.931 . S
H489 C477 0.930 . S
H490 C478 0.956 . S
H491 C478 0.961 . S
H492 C478 0.961 . S
H493 C479 0.958 . S
H494 C479 0.961 . S
H495 C479 0.960 1_455 S
C496 C497 1.391 . S
C496 C498 1.394 . S
C496 H512 0.931 . S
C497 C496 1.391 . S
C497 C501 1.376 . S
C498 C496 1.394 . S
C498 C499 1.369 . S
C498 C502 1.531 . S
C499 C498 1.369 . S
C499 C500 1.410 . S
C499 C507 1.503 . S
C500 C499 1.410 . S
C500 C501 1.392 . S
C500 C503 1.511 . S
C501 C497 1.376 . S
C501 C500 1.392 . S
C501 H513 0.929 . S
C502 C498 1.531 . S
C502 H514 0.960 . S
C502 H515 0.962 . S
C502 H516 0.960 . S
C503 C500 1.511 . S
C503 H517 0.961 . S
C503 H518 0.961 . S
C503 H519 0.961 . S
C504 C505 1.370 . S
C504 C506 1.363 . S
C504 H520 0.931 . S
C505 C504 1.370 . S
C505 C509 1.408 1_556 S
C506 C504 1.363 . S
C506 C507 1.370 1_556 S
C506 C510 1.524 . S
C507 C499 1.503 . S
C507 C506 1.370 1_554 S
C507 C508 1.403 . S
C508 C507 1.403 . S
C508 C509 1.404 . S
C508 C511 1.539 . S
C509 C505 1.408 1_554 S
C509 C508 1.404 . S
C509 H521 0.930 . S
C510 C506 1.524 . S
C510 H522 0.956 . S
C510 H523 0.961 . S
C510 H524 0.961 . S
C511 C508 1.539 . S
C511 H525 0.958 . S
C511 H526 0.961 . S
C511 H527 0.960 . S
H512 C496 0.931 . S
H513 C501 0.929 . S
H514 C502 0.960 . S
H515 C502 0.962 . S
H516 C502 0.960 . S
H517 C503 0.961 . S
H518 C503 0.961 . S
H519 C503 0.961 . S
H520 C504 0.931 . S
H521 C509 0.930 . S
H522 C510 0.956 . S
H523 C510 0.961 . S
H524 C510 0.961 . S
H525 C511 0.958 . S
H526 C511 0.961 . S
H527 C511 0.960 . S
C528 C529 1.391 . S
C528 C530 1.394 . S
C528 H544 0.931 . S
C529 C528 1.391 . S
C529 C533 1.376 . S
C530 C528 1.394 . S
C530 C531 1.369 . S
C530 C534 1.531 . S
C531 C530 1.369 . S
C531 C532 1.410 . S
C531 C539 1.503 . S
C532 C531 1.410 . S
C532 C533 1.392 . S
C532 C535 1.511 1_556 S
C533 C529 1.376 . S
C533 C532 1.392 . S
C533 H545 0.929 . S
C534 C530 1.531 . S
C534 H546 0.960 . S
C534 H547 0.962 . S
C534 H548 0.960 . S
C535 C532 1.511 1_554 S
C535 H549 0.961 . S
C535 H550 0.961 . S
C535 H551 0.961 1_554 S
C536 C537 1.370 . S
C536 C538 1.363 . S
C536 H552 0.931 . S
C537 C536 1.370 . S
C537 C541 1.408 1_554 S
C538 C536 1.363 . S
C538 C539 1.370 1_554 S
C538 C542 1.524 . S
C539 C531 1.503 . S
C539 C538 1.370 1_556 S
C539 C540 1.403 . S
C540 C539 1.403 . S
C540 C541 1.404 . S
C540 C543 1.539 . S
C541 C537 1.408 1_556 S
C541 C540 1.404 . S
C541 H553 0.930 . S
C542 C538 1.524 . S
C542 H554 0.956 . S
C542 H555 0.961 . S
C542 H556 0.961 . S
C543 C540 1.539 . S
C543 H557 0.958 . S
C543 H558 0.961 . S
C543 H559 0.960 . S
H544 C528 0.931 . S
H545 C533 0.929 . S
H546 C534 0.960 . S
H547 C534 0.962 . S
H548 C534 0.960 . S
H549 C535 0.961 . S
H550 C535 0.961 . S
H551 C535 0.961 1_556 S
H552 C536 0.931 . S
H553 C541 0.930 . S
H554 C542 0.956 . S
H555 C542 0.961 . S
H556 C542 0.961 . S
H557 C543 0.958 . S
H558 C543 0.961 . S
H559 C543 0.960 . S
C560 C561 1.391 . S
C560 C562 1.394 . S
C560 H576 0.931 . S
C561 C560 1.391 . S
C561 C565 1.376 1_556 S
C562 C560 1.394 . S
C562 C563 1.369 1_556 S
C562 C566 1.531 . S
C563 C562 1.369 1_554 S
C563 C564 1.410 . S
C563 C571 1.503 . S
C564 C563 1.410 . S
C564 C565 1.392 . S
C564 C567 1.511 . S
C565 C561 1.376 1_554 S
C565 C564 1.392 . S
C565 H577 0.929 . S
C566 C562 1.531 . S
C566 H578 0.960 . S
C566 H579 0.962 . S
C566 H580 0.960 . S
C567 C564 1.511 . S
C567 H581 0.961 . S
C567 H582 0.961 . S
C567 H583 0.961 . S
C568 C569 1.370 . S
C568 C570 1.363 . S
C568 H584 0.931 . S
C569 C568 1.370 . S
C569 C573 1.408 . S
C570 C568 1.363 . S
C570 C571 1.370 . S
C570 C574 1.524 . S
C571 C563 1.503 . S
C571 C570 1.370 . S
C571 C572 1.403 . S
C572 C571 1.403 . S
C572 C573 1.404 . S
C572 C575 1.539 . S
C573 C569 1.408 . S
C573 C572 1.404 . S
C573 H585 0.930 . S
C574 C570 1.524 . S
C574 H586 0.956 . S
C574 H587 0.961 . S
C574 H588 0.961 . S
C575 C572 1.539 . S
C575 H589 0.958 1_554 S
C575 H590 0.961 . S
C575 H591 0.960 . S
H576 C560 0.931 . S
H577 C565 0.929 . S
H578 C566 0.960 . S
H579 C566 0.962 . S
H580 C566 0.960 . S
H581 C567 0.961 . S
H582 C567 0.961 . S
H583 C567 0.961 . S
H584 C568 0.931 . S
H585 C573 0.930 . S
H586 C574 0.956 . S
H587 C574 0.961 . S
H588 C574 0.961 . S
H589 C575 0.958 1_556 S
H590 C575 0.961 . S
H591 C575 0.960 . S
C592 C593 1.391 1_556 S
C592 C594 1.394 . S
C592 H608 0.931 . S
C593 C592 1.391 1_554 S
C593 C597 1.376 . S
C594 C592 1.394 . S
C594 C595 1.369 . S
C594 C598 1.531 . S
C595 C594 1.369 . S
C595 C596 1.410 1_556 S
C595 C603 1.503 . S
C596 C595 1.410 1_554 S
C596 C597 1.392 . S
C596 C599 1.511 . S
C597 C593 1.376 . S
C597 C596 1.392 . S
C597 H609 0.929 . S
C598 C594 1.531 . S
C598 H610 0.960 . S
C598 H611 0.962 . S
C598 H612 0.960 . S
C599 C596 1.511 . S
C599 H613 0.961 . S
C599 H614 0.961 . S
C599 H615 0.961 1_554 S
C600 C601 1.370 . S
C600 C602 1.363 1_556 S
C600 H616 0.931 1_556 S
C601 C600 1.370 . S
C601 C605 1.408 . S
C602 C600 1.363 1_554 S
C602 C603 1.370 1_554 S
C602 C606 1.524 . S
C603 C595 1.503 . S
C603 C602 1.370 1_556 S
C603 C604 1.403 . S
C604 C603 1.403 . S
C604 C605 1.404 . S
C604 C607 1.539 . S
C605 C601 1.408 . S
C605 C604 1.404 . S
C605 H617 0.930 . S
C606 C602 1.524 . S
C606 H618 0.956 . S
C606 H619 0.961 . S
C606 H620 0.961 . S
C607 C604 1.539 . S
C607 H621 0.958 . S
C607 H622 0.961 . S
C607 H623 0.960 . S
H608 C592 0.931 . S
H609 C597 0.929 . S
H610 C598 0.960 . S
H611 C598 0.962 . S
H612 C598 0.960 . S
H613 C599 0.961 . S
H614 C599 0.961 . S
H615 C599 0.961 1_556 S
H616 C600 0.931 1_554 S
H617 C605 0.930 . S
H618 C606 0.956 . S
H619 C606 0.961 . S
H620 C606 0.961 . S
H621 C607 0.958 . S
H622 C607 0.961 . S
H623 C607 0.960 . S
C624 C625 1.391 . S
C624 C626 1.394 . S
C624 H640 0.931 . S
C625 C624 1.391 . S
C625 C629 1.376 . S
C626 C624 1.394 . S
C626 C627 1.369 . S
C626 C630 1.531 . S
C627 C626 1.369 . S
C627 C628 1.410 . S
C627 C635 1.503 . S
C628 C627 1.410 . S
C628 C629 1.392 . S
C628 C631 1.511 . S
C629 C625 1.376 . S
C629 C628 1.392 . S
C629 H641 0.929 . S
C630 C626 1.531 . S
C630 H642 0.960 . S
C630 H643 0.962 . S
C630 H644 0.960 . S
C631 C628 1.511 . S
C631 H645 0.961 . S
C631 H646 0.961 . S
C631 H647 0.961 . S
C632 C633 1.370 . S
C632 C634 1.363 . S
C632 H648 0.931 . S
C633 C632 1.370 . S
C633 C637 1.408 . S
C634 C632 1.363 . S
C634 C635 1.370 . S
C634 C638 1.524 . S
C635 C627 1.503 . S
C635 C634 1.370 . S
C635 C636 1.403 . S
C636 C635 1.403 . S
C636 C637 1.404 . S
C636 C639 1.539 . S
C637 C633 1.408 . S
C637 C636 1.404 . S
C637 H649 0.930 . S
C638 C634 1.524 . S
C638 H650 0.956 . S
C638 H651 0.961 . S
C638 H652 0.961 . S
C639 C636 1.539 . S
C639 H653 0.958 . S
C639 H654 0.961 . S
C639 H655 0.960 . S
H640 C624 0.931 . S
H641 C629 0.929 . S
H642 C630 0.960 . S
H643 C630 0.962 . S
H644 C630 0.960 . S
H645 C631 0.961 . S
H646 C631 0.961 . S
H647 C631 0.961 . S
H648 C632 0.931 . S
H649 C637 0.930 . S
H650 C638 0.956 . S
H651 C638 0.961 . S
H652 C638 0.961 . S
H653 C639 0.958 . S
H654 C639 0.961 . S
H655 C639 0.960 . S
C656 C657 1.391 . S
C656 C658 1.394 . S
C656 H672 0.931 . S
C657 C656 1.391 . S
C657 C661 1.376 . S
C658 C656 1.394 . S
C658 C659 1.369 . S
C658 C662 1.531 . S
C659 C658 1.369 . S
C659 C660 1.410 . S
C659 C667 1.503 . S
C660 C659 1.410 . S
C660 C661 1.392 . S
C660 C663 1.511 . S
C661 C657 1.376 . S
C661 C660 1.392 . S
C661 H673 0.929 . S
C662 C658 1.531 . S
C662 H674 0.960 . S
C662 H675 0.962 . S
C662 H676 0.960 . S
C663 C660 1.511 . S
C663 H677 0.961 . S
C663 H678 0.961 . S
C663 H679 0.961 . S
C664 C665 1.370 . S
C664 C666 1.363 . S
C664 H680 0.931 . S
C665 C664 1.370 . S
C665 C669 1.408 . S
C666 C664 1.363 . S
C666 C667 1.370 . S
C666 C670 1.524 . S
C667 C659 1.503 . S
C667 C666 1.370 . S
C667 C668 1.403 . S
C668 C667 1.403 . S
C668 C669 1.404 . S
C668 C671 1.539 . S
C669 C665 1.408 . S
C669 C668 1.404 . S
C669 H681 0.930 . S
C670 C666 1.524 . S
C670 H682 0.956 . S
C670 H683 0.961 . S
C670 H684 0.961 . S
C671 C668 1.539 . S
C671 H685 0.958 . S
C671 H686 0.961 . S
C671 H687 0.960 . S
H672 C656 0.931 . S
H673 C661 0.929 . S
H674 C662 0.960 . S
H675 C662 0.962 . S
H676 C662 0.960 . S
H677 C663 0.961 . S
H678 C663 0.961 . S
H679 C663 0.961 . S
H680 C664 0.931 . S
H681 C669 0.930 . S
H682 C670 0.956 . S
H683 C670 0.961 . S
H684 C670 0.961 . S
H685 C671 0.958 . S
H686 C671 0.961 . S
H687 C671 0.960 . S
C688 C689 1.391 . S
C688 C690 1.394 . S
C688 H704 0.931 . S
C689 C688 1.391 . S
C689 C693 1.376 . S
C690 C688 1.394 . S
C690 C691 1.369 . S
C690 C694 1.531 . S
C691 C690 1.369 . S
C691 C692 1.410 . S
C691 C699 1.503 . S
C692 C691 1.410 . S
C692 C693 1.392 . S
C692 C695 1.511 . S
C693 C689 1.376 . S
C693 C692 1.392 . S
C693 H705 0.929 . S
C694 C690 1.531 . S
C694 H706 0.960 . S
C694 H707 0.962 . S
C694 H708 0.960 . S
C695 C692 1.511 . S
C695 H709 0.961 . S
C695 H710 0.961 . S
C695 H711 0.961 . S
C696 C697 1.370 . S
C696 C698 1.363 . S
C696 H712 0.931 . S
C697 C696 1.370 . S
C697 C701 1.408 . S
C698 C696 1.363 . S
C698 C699 1.370 . S
C698 C702 1.524 . S
C699 C691 1.503 . S
C699 C698 1.370 . S
C699 C700 1.403 . S
C700 C699 1.403 . S
C700 C701 1.404 . S
C700 C703 1.539 . S
C701 C697 1.408 . S
C701 C700 1.404 . S
C701 H713 0.930 . S
C702 C698 1.524 . S
C702 H714 0.956 . S
C702 H715 0.961 . S
C702 H716 0.961 . S
C703 C700 1.539 . S
C703 H717 0.958 . S
C703 H718 0.961 . S
C703 H719 0.960 . S
H704 C688 0.931 . S
H705 C693 0.929 . S
H706 C694 0.960 . S
H707 C694 0.962 . S
H708 C694 0.960 . S
H709 C695 0.961 . S
H710 C695 0.961 . S
H711 C695 0.961 . S
H712 C696 0.931 . S
H713 C701 0.930 . S
H714 C702 0.956 . S
H715 C702 0.961 . S
H716 C702 0.961 . S
H717 C703 0.958 . S
H718 C703 0.961 . S
H719 C703 0.960 . S
C720 C721 1.391 . S
C720 C722 1.394 . S
C720 H736 0.931 . S
C721 C720 1.391 . S
C721 C725 1.376 . S
C722 C720 1.394 . S
C722 C723 1.369 . S
C722 C726 1.531 . S
C723 C722 1.369 . S
C723 C724 1.410 . S
C723 C731 1.503 . S
C724 C723 1.410 . S
C724 C725 1.392 . S
C724 C727 1.511 . S
C725 C721 1.376 . S
C725 C724 1.392 . S
C725 H737 0.929 . S
C726 C722 1.531 . S
C726 H738 0.960 . S
C726 H739 0.962 . S
C726 H740 0.960 . S
C727 C724 1.511 . S
C727 H741 0.961 . S
C727 H742 0.961 . S
C727 H743 0.961 . S
C728 C729 1.370 . S
C728 C730 1.363 . S
C728 H744 0.931 . S
C729 C728 1.370 . S
C729 C733 1.408 . S
C730 C728 1.363 . S
C730 C731 1.370 . S
C730 C734 1.524 . S
C731 C723 1.503 . S
C731 C730 1.370 . S
C731 C732 1.403 . S
C732 C731 1.403 . S
C732 C733 1.404 . S
C732 C735 1.539 . S
C733 C729 1.408 . S
C733 C732 1.404 . S
C733 H745 0.930 . S
C734 C730 1.524 . S
C734 H746 0.956 . S
C734 H747 0.961 . S
C734 H748 0.961 . S
C735 C732 1.539 . S
C735 H749 0.958 . S
C735 H750 0.961 . S
C735 H751 0.960 . S
H736 C720 0.931 . S
H737 C725 0.929 . S
H738 C726 0.960 . S
H739 C726 0.962 . S
H740 C726 0.960 . S
H741 C727 0.961 . S
H742 C727 0.961 . S
H743 C727 0.961 . S
H744 C728 0.931 . S
H745 C733 0.930 . S
H746 C734 0.956 . S
H747 C734 0.961 . S
H748 C734 0.961 . S
H749 C735 0.958 . S
H750 C735 0.961 . S
H751 C735 0.960 . S
C752 C753 1.391 . S
C752 C754 1.394 . S
C752 H768 0.931 . S
C753 C752 1.391 . S
C753 C757 1.376 . S
C754 C752 1.394 . S
C754 C755 1.369 . S
C754 C758 1.531 . S
C755 C754 1.369 . S
C755 C756 1.410 . S
C755 C763 1.503 1_565 S
C756 C755 1.410 . S
C756 C757 1.392 . S
C756 C759 1.511 . S
C757 C753 1.376 . S
C757 C756 1.392 . S
C757 H769 0.929 . S
C758 C754 1.531 . S
C758 H770 0.960 1_565 S
C758 H771 0.962 . S
C758 H772 0.960 . S
C759 C756 1.511 . S
C759 H773 0.961 . S
C759 H774 0.961 . S
C759 H775 0.961 . S
C760 C761 1.370 . S
C760 C762 1.363 . S
C760 H776 0.931 . S
C761 C760 1.370 . S
C761 C765 1.408 . S
C762 C760 1.363 . S
C762 C763 1.370 . S
C762 C766 1.524 1_545 S
C763 C755 1.503 1_545 S
C763 C762 1.370 . S
C763 C764 1.403 . S
C764 C763 1.403 . S
C764 C765 1.404 . S
C764 C767 1.539 . S
C765 C761 1.408 . S
C765 C764 1.404 . S
C765 H777 0.930 . S
C766 C762 1.524 1_565 S
C766 H778 0.956 . S
C766 H779 0.961 . S
C766 H780 0.961 1_565 S
C767 C764 1.539 . S
C767 H781 0.958 . S
C767 H782 0.961 . S
C767 H783 0.960 . S
H768 C752 0.931 . S
H769 C757 0.929 . S
H770 C758 0.960 1_545 S
H771 C758 0.962 . S
H772 C758 0.960 . S
H773 C759 0.961 . S
H774 C759 0.961 . S
H775 C759 0.961 . S
H776 C760 0.931 . S
H777 C765 0.930 . S
H778 C766 0.956 . S
H779 C766 0.961 . S
H780 C766 0.961 1_545 S
H781 C767 0.958 . S
H782 C767 0.961 . S
H783 C767 0.960 . S
C784 C785 1.391 . S
C784 C786 1.394 . S
C784 H800 0.931 . S
C785 C784 1.391 . S
C785 C789 1.376 . S
C786 C784 1.394 . S
C786 C787 1.369 . S
C786 C790 1.531 . S
C787 C786 1.369 . S
C787 C788 1.410 . S
C787 C795 1.503 1_655 S
C788 C787 1.410 . S
C788 C789 1.392 . S
C788 C791 1.511 . S
C789 C785 1.376 . S
C789 C788 1.392 . S
C789 H801 0.929 . S
C790 C786 1.531 . S
C790 H802 0.960 . S
C790 H803 0.962 . S
C790 H804 0.960 . S
C791 C788 1.511 . S
C791 H805 0.961 . S
C791 H806 0.961 1_655 S
C791 H807 0.961 . S
C792 C793 1.370 . S
C792 C794 1.363 . S
C792 H808 0.931 . S
C793 C792 1.370 . S
C793 C797 1.408 . S
C794 C792 1.363 . S
C794 C795 1.370 . S
C794 C798 1.524 . S
C795 C787 1.503 1_455 S
C795 C794 1.370 . S
C795 C796 1.403 . S
C796 C795 1.403 . S
C796 C797 1.404 . S
C796 C799 1.539 . S
C797 C793 1.408 . S
C797 C796 1.404 . S
C797 H809 0.930 . S
C798 C794 1.524 . S
C798 H810 0.956 1_455 S
C798 H811 0.959 1_455 S
C798 H812 0.961 . S
C799 C796 1.539 . S
C799 H813 0.964 . S
C799 H814 0.961 . S
C799 H815 0.960 1_455 S
H800 C784 0.931 . S
H801 C789 0.929 . S
H802 C790 0.960 . S
H803 C790 0.962 . S
H804 C790 0.960 . S
H805 C791 0.961 . S
H806 C791 0.961 1_455 S
H807 C791 0.961 . S
H808 C792 0.931 . S
H809 C797 0.930 . S
H810 C798 0.956 1_655 S
H811 C798 0.959 1_655 S
H812 C798 0.961 . S
H813 C799 0.964 . S
H814 C799 0.961 . S
H815 C799 0.960 1_655 S
C816 C817 1.391 . S
C816 C818 1.394 . S
C816 H832 0.931 . S
C817 C816 1.391 . S
C817 C821 1.376 . S
C818 C816 1.394 . S
C818 C819 1.369 . S
C818 C822 1.552 . S
C819 C818 1.369 . S
C819 C820 1.410 . S
C819 C827 1.503 1_565 S
C820 C819 1.410 . S
C820 C821 1.392 . S
C820 C823 1.511 . S
C821 C817 1.376 . S
C821 C820 1.392 . S
C821 H833 0.929 . S
C822 C818 1.552 . S
C822 H834 0.927 1_565 S
C822 H835 0.960 1_565 S
C822 H836 0.975 . S
C823 C820 1.511 . S
C823 H837 0.961 . S
C823 H838 0.961 1_565 S
C823 H839 0.961 . S
C824 C825 1.370 . S
C824 C826 1.363 . S
C824 H840 0.931 . S
C825 C824 1.370 . S
C825 C829 1.408 . S
C826 C824 1.363 . S
C826 C827 1.370 . S
C826 C830 1.524 . S
C827 C819 1.503 1_545 S
C827 C826 1.370 . S
C827 C828 1.403 . S
C828 C827 1.403 . S
C828 C829 1.404 . S
C828 C831 1.539 . S
C829 C825 1.408 . S
C829 C828 1.404 . S
C829 H841 0.930 . S
C830 C826 1.524 . S
C830 H842 0.937 1_545 S
C830 H843 0.961 1_545 S
C830 H844 0.961 . S
C831 C828 1.539 . S
C831 H845 0.958 . S
C831 H846 0.961 . S
C831 H847 0.960 . S
H832 C816 0.931 . S
H833 C821 0.929 . S
H834 C822 0.927 1_545 S
H835 C822 0.960 1_545 S
H836 C822 0.975 . S
H837 C823 0.961 . S
H838 C823 0.961 1_545 S
H839 C823 0.961 . S
H840 C824 0.931 . S
H841 C829 0.930 . S
H842 C830 0.937 1_565 S
H843 C830 0.961 1_565 S
H844 C830 0.961 . S
H845 C831 0.958 . S
H846 C831 0.961 . S
H847 C831 0.960 . S
C848 C849 1.391 . S
C848 C850 1.394 . S
C848 H864 0.931 . S
C849 C848 1.391 . S
C849 C853 1.376 . S
C850 C848 1.394 . S
C850 C851 1.369 . S
C850 C854 1.531 1_655 S
C851 C850 1.369 . S
C851 C852 1.410 . S
C851 C859 1.503 1_655 S
C852 C851 1.410 . S
C852 C853 1.392 . S
C852 C855 1.511 . S
C853 C849 1.376 . S
C853 C852 1.392 . S
C853 H865 0.929 . S
C854 C850 1.531 1_455 S
C854 H866 0.960 . S
C854 H867 0.962 . S
C854 H868 0.960 1_455 S
C855 C852 1.511 . S
C855 H869 0.961 . S
C855 H870 0.961 . S
C855 H871 0.961 . S
C856 C857 1.370 . S
C856 C858 1.363 . S
C856 H872 0.931 . S
C857 C856 1.370 . S
C857 C861 1.408 . S
C858 C856 1.363 . S
C858 C859 1.370 . S
C858 C862 1.524 . S
C859 C851 1.503 1_455 S
C859 C858 1.370 . S
C859 C860 1.403 . S
C860 C859 1.403 . S
C860 C861 1.404 . S
C860 C863 1.539 . S
C861 C857 1.408 . S
C861 C860 1.404 . S
C861 H873 0.930 . S
C862 C858 1.524 . S
C862 H874 0.956 . S
C862 H875 0.961 1_455 S
C862 H876 0.961 . S
C863 C860 1.539 . S
C863 H877 0.958 . S
C863 H878 0.961 . S
C863 H879 0.960 . S
H864 C848 0.931 . S
H865 C853 0.929 . S
H866 C854 0.960 . S
H867 C854 0.962 . S
H868 C854 0.960 1_655 S
H869 C855 0.961 . S
H870 C855 0.961 . S
H871 C855 0.961 . S
H872 C856 0.931 . S
H873 C861 0.930 . S
H874 C862 0.956 . S
H875 C862 0.961 1_655 S
H876 C862 0.961 . S
H877 C863 0.958 . S
H878 C863 0.961 . S
H879 C863 0.960 . S
C880 C881 1.391 . S
C880 C882 1.394 . S
C880 H896 0.931 . S
C881 C880 1.391 . S
C881 C885 1.376 . S
C882 C880 1.394 . S
C882 C883 1.369 . S
C882 C886 1.531 . S
C883 C882 1.369 . S
C883 C884 1.410 . S
C883 C891 1.503 . S
C884 C883 1.410 . S
C884 C885 1.392 . S
C884 C887 1.511 . S
C885 C881 1.376 . S
C885 C884 1.392 . S
C885 H897 0.929 . S
C886 C882 1.531 . S
C886 H898 0.960 . S
C886 H899 0.962 . S
C886 H900 0.960 . S
C887 C884 1.511 . S
C887 H901 0.961 . S
C887 H902 0.961 . S
C887 H903 0.961 . S
C888 C889 1.370 . S
C888 C890 1.363 . S
C888 H904 0.931 . S
C889 C888 1.370 . S
C889 C893 1.408 . S
C890 C888 1.363 . S
C890 C891 1.370 . S
C890 C894 1.524 . S
C891 C883 1.503 . S
C891 C890 1.370 . S
C891 C892 1.403 . S
C892 C891 1.403 . S
C892 C893 1.404 . S
C892 C895 1.539 . S
C893 C889 1.408 . S
C893 C892 1.404 . S
C893 H905 0.930 . S
C894 C890 1.524 . S
C894 H906 0.956 . S
C894 H907 0.961 . S
C894 H908 0.961 . S
C895 C892 1.539 . S
C895 H909 0.958 . S
C895 H910 0.961 . S
C895 H911 0.960 . S
H896 C880 0.931 . S
H897 C885 0.929 . S
H898 C886 0.960 . S
H899 C886 0.962 . S
H900 C886 0.960 . S
H901 C887 0.961 . S
H902 C887 0.961 . S
H903 C887 0.961 . S
H904 C888 0.931 . S
H905 C893 0.930 . S
H906 C894 0.956 . S
H907 C894 0.961 . S
H908 C894 0.961 . S
H909 C895 0.958 . S
H910 C895 0.961 . S
H911 C895 0.960 . S
C912 C913 1.391 . S
C912 C914 1.394 . S
C912 H928 0.931 . S
C913 C912 1.391 . S
C913 C917 1.376 . S
C914 C912 1.394 . S
C914 C915 1.369 . S
C914 C918 1.531 . S
C915 C914 1.369 . S
C915 C916 1.410 . S
C915 C923 1.503 . S
C916 C915 1.410 . S
C916 C917 1.392 . S
C916 C919 1.511 . S
C917 C913 1.376 . S
C917 C916 1.392 . S
C917 H929 0.929 . S
C918 C914 1.531 . S
C918 H930 0.960 . S
C918 H931 0.962 . S
C918 H932 0.960 . S
C919 C916 1.511 . S
C919 H933 0.961 1_556 S
C919 H934 0.961 . S
C919 H935 0.961 . S
C920 C921 1.370 . S
C920 C922 1.363 . S
C920 H936 0.931 . S
C921 C920 1.370 . S
C921 C925 1.408 . S
C922 C920 1.363 . S
C922 C923 1.370 . S
C922 C926 1.524 . S
C923 C915 1.503 . S
C923 C922 1.370 . S
C923 C924 1.403 . S
C924 C923 1.403 . S
C924 C925 1.404 . S
C924 C927 1.539 . S
C925 C921 1.408 . S
C925 C924 1.404 . S
C925 H937 0.930 . S
C926 C922 1.524 . S
C926 H938 0.956 . S
C926 H939 0.961 . S
C926 H940 0.961 . S
C927 C924 1.539 . S
C927 H941 0.958 . S
C927 H942 0.961 . S
C927 H943 0.960 . S
H928 C912 0.931 . S
H929 C917 0.929 . S
H930 C918 0.960 . S
H931 C918 0.962 . S
H932 C918 0.960 . S
H933 C919 0.961 1_554 S
H934 C919 0.961 . S
H935 C919 0.961 . S
H936 C920 0.931 . S
H937 C925 0.930 . S
H938 C926 0.956 . S
H939 C926 0.961 . S
H940 C926 0.961 . S
H941 C927 0.958 . S
H942 C927 0.961 . S
H943 C927 0.960 . S
C944 C945 1.391 . S
C944 C946 1.394 . S
C944 H960 0.931 . S
C945 C944 1.391 . S
C945 C949 1.376 . S
C946 C944 1.394 . S
C946 C947 1.369 . S
C946 C950 1.531 . S
C947 C946 1.369 . S
C947 C948 1.410 . S
C947 C955 1.503 . S
C948 C947 1.410 . S
C948 C949 1.392 . S
C948 C951 1.511 . S
C949 C945 1.376 . S
C949 C948 1.392 . S
C949 H961 0.929 . S
C950 C946 1.531 . S
C950 H962 0.960 . S
C950 H963 0.962 . S
C950 H964 0.960 . S
C951 C948 1.511 . S
C951 H965 0.961 . S
C951 H966 0.961 . S
C951 H967 0.961 . S
C952 C953 1.370 . S
C952 C954 1.363 . S
C952 H968 0.931 . S
C953 C952 1.370 . S
C953 C957 1.408 . S
C954 C952 1.363 . S
C954 C955 1.370 . S
C954 C958 1.524 . S
C955 C947 1.503 . S
C955 C954 1.370 . S
C955 C956 1.403 . S
C956 C955 1.403 . S
C956 C957 1.404 . S
C956 C959 1.539 . S
C957 C953 1.408 . S
C957 C956 1.404 . S
C957 H969 0.930 . S
C958 C954 1.524 . S
C958 H970 0.956 . S
C958 H971 0.961 . S
C958 H972 0.961 . S
C959 C956 1.539 . S
C959 H973 0.958 1_554 S
C959 H974 0.961 . S
C959 H975 0.960 . S
H960 C944 0.931 . S
H961 C949 0.929 . S
H962 C950 0.960 . S
H963 C950 0.962 . S
H964 C950 0.960 . S
H965 C951 0.961 . S
H966 C951 0.961 . S
H967 C951 0.961 . S
H968 C952 0.931 . S
H969 C957 0.930 . S
H970 C958 0.956 . S
H971 C958 0.961 . S
H972 C958 0.961 . S
H973 C959 0.958 1_556 S
H974 C959 0.961 . S
H975 C959 0.960 . S
C976 C977 1.391 . S
C976 C978 1.394 . S
C976 H992 0.931 . S
C977 C976 1.391 . S
C977 C981 1.376 . S
C978 C976 1.394 . S
C978 C979 1.369 . S
C978 C982 1.531 . S
C979 C978 1.369 . S
C979 C980 1.410 . S
C979 C987 1.503 . S
C980 C979 1.410 . S
C980 C981 1.392 . S
C980 C983 1.511 . S
C981 C977 1.376 . S
C981 C980 1.392 . S
C981 H993 0.929 . S
C982 C978 1.531 . S
C982 H994 0.960 . S
C982 H995 0.962 . S
C982 H996 0.960 . S
C983 C980 1.511 . S
C983 H997 0.961 . S
C983 H998 0.961 . S
C983 H999 0.961 . S
C984 C985 1.370 . S
C984 C986 1.363 . S
C984 H1000 0.931 . S
C985 C984 1.370 . S
C985 C989 1.408 . S
C986 C984 1.363 . S
C986 C987 1.370 . S
C986 C990 1.524 . S
C987 C979 1.503 . S
C987 C986 1.370 . S
C987 C988 1.403 . S
C988 C987 1.403 . S
C988 C989 1.404 . S
C988 C991 1.539 . S
C989 C985 1.408 . S
C989 C988 1.404 . S
C989 H1001 0.930 . S
C990 C986 1.524 . S
C990 H1002 0.956 . S
C990 H1003 0.961 . S
C990 H1004 0.961 . S
C991 C988 1.539 . S
C991 H1005 0.958 . S
C991 H1006 0.961 . S
C991 H1007 0.960 . S
H992 C976 0.931 . S
H993 C981 0.929 . S
H994 C982 0.960 . S
H995 C982 0.962 . S
H996 C982 0.960 . S
H997 C983 0.961 . S
H998 C983 0.961 . S
H999 C983 0.961 . S
H1000 C984 0.931 . S
H1001 C989 0.930 . S
H1002 C990 0.956 . S
H1003 C990 0.961 . S
H1004 C990 0.961 . S
H1005 C991 0.958 . S
H1006 C991 0.961 . S
H1007 C991 0.960 . S
C1008 C1009 1.391 . S
C1008 C1010 1.394 . S
C1008 H1024 0.931 . S
C1009 C1008 1.391 . S
C1009 C1013 1.376 . S
C1010 C1008 1.394 . S
C1010 C1011 1.369 . S
C1010 C1014 1.531 . S
C1011 C1010 1.369 . S
C1011 C1012 1.410 . S
C1011 C1019 1.503 . S
C1012 C1011 1.410 . S
C1012 C1013 1.392 . S
C1012 C1015 1.511 . S
C1013 C1009 1.376 . S
C1013 C1012 1.392 . S
C1013 H1025 0.929 . S
C1014 C1010 1.531 . S
C1014 H1026 0.960 . S
C1014 H1027 0.962 . S
C1014 H1028 0.960 . S
C1015 C1012 1.511 . S
C1015 H1029 0.961 . S
C1015 H1030 0.961 . S
C1015 H1031 0.961 . S
C1016 C1017 1.370 . S
C1016 C1018 1.363 . S
C1016 H1032 0.931 . S
C1017 C1016 1.370 . S
C1017 C1021 1.408 . S
C1018 C1016 1.363 . S
C1018 C1019 1.370 . S
C1018 C1022 1.524 . S
C1019 C1011 1.503 . S
C1019 C1018 1.370 . S
C1019 C1020 1.403 . S
C1020 C1019 1.403 . S
C1020 C1021 1.404 . S
C1020 C1023 1.539 . S
C1021 C1017 1.408 . S
C1021 C1020 1.404 . S
C1021 H1033 0.930 . S
C1022 C1018 1.524 . S
C1022 H1034 0.956 . S
C1022 H1035 0.961 . S
C1022 H1036 0.961 . S
C1023 C1020 1.539 . S
C1023 H1037 0.958 . S
C1023 H1038 0.961 . S
C1023 H1039 0.960 . S
H1024 C1008 0.931 . S
H1025 C1013 0.929 . S
H1026 C1014 0.960 . S
H1027 C1014 0.962 . S
H1028 C1014 0.960 . S
H1029 C1015 0.961 . S
H1030 C1015 0.961 . S
H1031 C1015 0.961 . S
H1032 C1016 0.931 . S
H1033 C1021 0.930 . S
H1034 C1022 0.956 . S
H1035 C1022 0.961 . S
H1036 C1022 0.961 . S
H1037 C1023 0.958 . S
H1038 C1023 0.961 . S
H1039 C1023 0.960 . S
C1040 C1041 1.391 . S
C1040 C1042 1.394 . S
C1040 H1056 0.931 . S
C1041 C1040 1.391 . S
C1041 C1045 1.376 . S
C1042 C1040 1.394 . S
C1042 C1043 1.369 . S
C1042 C1046 1.531 . S
C1043 C1042 1.369 . S
C1043 C1044 1.410 . S
C1043 C1051 1.503 . S
C1044 C1043 1.410 . S
C1044 C1045 1.392 . S
C1044 C1047 1.511 . S
C1045 C1041 1.376 . S
C1045 C1044 1.392 . S
C1045 H1057 0.929 . S
C1046 C1042 1.531 . S
C1046 H1058 0.960 . S
C1046 H1059 0.962 . S
C1046 H1060 0.960 . S
C1047 C1044 1.511 . S
C1047 H1061 0.961 . S
C1047 H1062 0.961 . S
C1047 H1063 0.961 . S
C1048 C1049 1.370 . S
C1048 C1050 1.363 . S
C1048 H1064 0.931 . S
C1049 C1048 1.370 . S
C1049 C1053 1.408 . S
C1050 C1048 1.363 . S
C1050 C1051 1.370 . S
C1050 C1054 1.524 . S
C1051 C1043 1.503 . S
C1051 C1050 1.370 . S
C1051 C1052 1.403 . S
C1052 C1051 1.403 . S
C1052 C1053 1.404 . S
C1052 C1055 1.539 . S
C1053 C1049 1.408 . S
C1053 C1052 1.404 . S
C1053 H1065 0.930 . S
C1054 C1050 1.524 . S
C1054 H1066 0.956 . S
C1054 H1067 0.961 . S
C1054 H1068 0.961 . S
C1055 C1052 1.539 . S
C1055 H1069 0.958 . S
C1055 H1070 0.961 . S
C1055 H1071 0.960 . S
H1056 C1040 0.931 . S
H1057 C1045 0.929 . S
H1058 C1046 0.960 . S
H1059 C1046 0.962 . S
H1060 C1046 0.960 . S
H1061 C1047 0.961 . S
H1062 C1047 0.961 . S
H1063 C1047 0.961 . S
H1064 C1048 0.931 . S
H1065 C1053 0.930 . S
H1066 C1054 0.956 . S
H1067 C1054 0.961 . S
H1068 C1054 0.961 . S
H1069 C1055 0.958 . S
H1070 C1055 0.961 . S
H1071 C1055 0.960 . S
C1072 C1073 1.391 . S
C1072 C1074 1.394 . S
C1072 H1088 0.931 . S
C1073 C1072 1.391 . S
C1073 C1077 1.376 . S
C1074 C1072 1.394 . S
C1074 C1075 1.369 . S
C1074 C1078 1.531 . S
C1075 C1074 1.369 . S
C1075 C1076 1.410 . S
C1075 C1083 1.503 . S
C1076 C1075 1.410 . S
C1076 C1077 1.392 . S
C1076 C1079 1.511 . S
C1077 C1073 1.376 . S
C1077 C1076 1.392 . S
C1077 H1089 0.929 . S
C1078 C1074 1.531 . S
C1078 H1090 0.960 . S
C1078 H1091 0.962 . S
C1078 H1092 0.960 . S
C1079 C1076 1.511 . S
C1079 H1093 0.961 . S
C1079 H1094 0.961 . S
C1079 H1095 0.961 . S
C1080 C1081 1.370 . S
C1080 C1082 1.363 . S
C1080 H1096 0.931 . S
C1081 C1080 1.370 . S
C1081 C1085 1.408 . S
C1082 C1080 1.363 . S
C1082 C1083 1.370 . S
C1082 C1086 1.524 . S
C1083 C1075 1.503 . S
C1083 C1082 1.370 . S
C1083 C1084 1.403 . S
C1084 C1083 1.403 . S
C1084 C1085 1.404 . S
C1084 C1087 1.539 . S
C1085 C1081 1.408 . S
C1085 C1084 1.404 . S
C1085 H1097 0.930 . S
C1086 C1082 1.524 . S
C1086 H1098 0.956 . S
C1086 H1099 0.961 . S
C1086 H1100 0.961 . S
C1087 C1084 1.539 . S
C1087 H1101 0.958 . S
C1087 H1102 0.961 . S
C1087 H1103 0.960 . S
H1088 C1072 0.931 . S
H1089 C1077 0.929 . S
H1090 C1078 0.960 . S
H1091 C1078 0.962 . S
H1092 C1078 0.960 . S
H1093 C1079 0.961 . S
H1094 C1079 0.961 . S
H1095 C1079 0.961 . S
H1096 C1080 0.931 . S
H1097 C1085 0.930 . S
H1098 C1086 0.956 . S
H1099 C1086 0.961 . S
H1100 C1086 0.961 . S
H1101 C1087 0.958 . S
H1102 C1087 0.961 . S
H1103 C1087 0.960 . S
C1104 C1105 1.391 . S
C1104 C1106 1.394 . S
C1104 H1120 0.931 . S
C1105 C1104 1.391 . S
C1105 C1109 1.376 . S
C1106 C1104 1.394 . S
C1106 C1107 1.369 . S
C1106 C1110 1.531 . S
C1107 C1106 1.369 . S
C1107 C1108 1.410 . S
C1107 C1115 1.503 . S
C1108 C1107 1.410 . S
C1108 C1109 1.392 . S
C1108 C1111 1.511 . S
C1109 C1105 1.376 . S
C1109 C1108 1.392 . S
C1109 H1121 0.929 . S
C1110 C1106 1.531 . S
C1110 H1122 0.960 . S
C1110 H1123 0.962 . S
C1110 H1124 0.960 . S
C1111 C1108 1.511 . S
C1111 H1125 0.961 . S
C1111 H1126 0.961 . S
C1111 H1127 0.961 . S
C1112 C1113 1.370 . S
C1112 C1114 1.363 . S
C1112 H1128 0.931 . S
C1113 C1112 1.370 . S
C1113 C1117 1.408 . S
C1114 C1112 1.363 . S
C1114 C1115 1.370 . S
C1114 C1118 1.524 . S
C1115 C1107 1.503 . S
C1115 C1114 1.370 . S
C1115 C1116 1.403 . S
C1116 C1115 1.403 . S
C1116 C1117 1.404 . S
C1116 C1119 1.539 . S
C1117 C1113 1.408 . S
C1117 C1116 1.404 . S
C1117 H1129 0.930 . S
C1118 C1114 1.524 . S
C1118 H1130 0.956 . S
C1118 H1131 0.961 . S
C1118 H1132 0.961 . S
C1119 C1116 1.539 . S
C1119 H1133 0.958 . S
C1119 H1134 0.961 . S
C1119 H1135 0.960 . S
H1120 C1104 0.931 . S
H1121 C1109 0.929 . S
H1122 C1110 0.960 . S
H1123 C1110 0.962 . S
H1124 C1110 0.960 . S
H1125 C1111 0.961 . S
H1126 C1111 0.961 . S
H1127 C1111 0.961 . S
H1128 C1112 0.931 . S
H1129 C1117 0.930 . S
H1130 C1118 0.956 . S
H1131 C1118 0.961 . S
H1132 C1118 0.961 . S
H1133 C1119 0.958 . S
H1134 C1119 0.961 . S
H1135 C1119 0.960 . S
C1136 C1137 1.391 . S
C1136 C1138 1.394 . S
C1136 H1152 0.931 . S
C1137 C1136 1.391 . S
C1137 C1141 1.376 . S
C1138 C1136 1.394 . S
C1138 C1139 1.369 . S
C1138 C1142 1.531 . S
C1139 C1138 1.369 . S
C1139 C1140 1.410 . S
C1139 C1147 1.503 . S
C1140 C1139 1.410 . S
C1140 C1141 1.392 . S
C1140 C1143 1.511 . S
C1141 C1137 1.376 . S
C1141 C1140 1.392 . S
C1141 H1153 0.929 . S
C1142 C1138 1.531 . S
C1142 H1154 0.960 . S
C1142 H1155 0.962 . S
C1142 H1156 0.960 . S
C1143 C1140 1.511 . S
C1143 H1157 0.961 . S
C1143 H1158 0.961 . S
C1143 H1159 0.961 . S
C1144 C1145 1.370 . S
C1144 C1146 1.363 . S
C1144 H1160 0.931 . S
C1145 C1144 1.370 . S
C1145 C1149 1.408 . S
C1146 C1144 1.363 . S
C1146 C1147 1.370 . S
C1146 C1150 1.524 . S
C1147 C1139 1.503 . S
C1147 C1146 1.370 . S
C1147 C1148 1.403 . S
C1148 C1147 1.403 . S
C1148 C1149 1.404 . S
C1148 C1151 1.539 . S
C1149 C1145 1.408 . S
C1149 C1148 1.404 . S
C1149 H1161 0.930 . S
C1150 C1146 1.524 . S
C1150 H1162 0.956 . S
C1150 H1163 0.961 . S
C1150 H1164 0.961 . S
C1151 C1148 1.539 . S
C1151 H1165 0.958 . S
C1151 H1166 0.961 . S
C1151 H1167 0.960 . S
H1152 C1136 0.931 . S
H1153 C1141 0.929 . S
H1154 C1142 0.960 . S
H1155 C1142 0.962 . S
H1156 C1142 0.960 . S
H1157 C1143 0.961 . S
H1158 C1143 0.961 . S
H1159 C1143 0.961 . S
H1160 C1144 0.931 . S
H1161 C1149 0.930 . S
H1162 C1150 0.956 . S
H1163 C1150 0.961 . S
H1164 C1150 0.961 . S
H1165 C1151 0.958 . S
H1166 C1151 0.961 . S
H1167 C1151 0.960 . S
C1168 C1169 1.391 . S
C1168 C1170 1.394 . S
C1168 H1184 0.931 . S
C1169 C1168 1.391 . S
C1169 C1173 1.376 . S
C1170 C1168 1.394 . S
C1170 C1171 1.369 . S
C1170 C1174 1.531 . S
C1171 C1170 1.369 . S
C1171 C1172 1.410 . S
C1171 C1179 1.503 . S
C1172 C1171 1.410 . S
C1172 C1173 1.392 . S
C1172 C1175 1.511 . S
C1173 C1169 1.376 . S
C1173 C1172 1.392 . S
C1173 H1185 0.929 . S
C1174 C1170 1.531 . S
C1174 H1186 0.960 . S
C1174 H1187 0.962 . S
C1174 H1188 0.960 . S
C1175 C1172 1.511 . S
C1175 H1189 0.961 . S
C1175 H1190 0.961 . S
C1175 H1191 0.961 . S
C1176 C1177 1.370 . S
C1176 C1178 1.363 . S
C1176 H1192 0.931 . S
C1177 C1176 1.370 . S
C1177 C1181 1.408 . S
C1178 C1176 1.363 . S
C1178 C1179 1.370 . S
C1178 C1182 1.524 . S
C1179 C1171 1.503 . S
C1179 C1178 1.370 . S
C1179 C1180 1.403 . S
C1180 C1179 1.403 . S
C1180 C1181 1.404 . S
C1180 C1183 1.539 . S
C1181 C1177 1.408 . S
C1181 C1180 1.404 . S
C1181 H1193 0.930 1_554 S
C1182 C1178 1.524 . S
C1182 H1194 0.956 . S
C1182 H1195 0.961 . S
C1182 H1196 0.961 . S
C1183 C1180 1.539 . S
C1183 H1197 0.958 . S
C1183 H1198 0.961 . S
C1183 H1199 0.960 . S
H1184 C1168 0.931 . S
H1185 C1173 0.929 . S
H1186 C1174 0.960 . S
H1187 C1174 0.962 . S
H1188 C1174 0.960 . S
H1189 C1175 0.961 . S
H1190 C1175 0.961 . S
H1191 C1175 0.961 . S
H1192 C1176 0.931 . S
H1193 C1181 0.930 1_556 S
H1194 C1182 0.956 . S
H1195 C1182 0.961 . S
H1196 C1182 0.961 . S
H1197 C1183 0.958 . S
H1198 C1183 0.961 . S
H1199 C1183 0.960 . S
C1200 C1201 1.391 . S
C1200 C1202 1.394 . S
C1200 H1216 0.931 . S
C1201 C1200 1.391 . S
C1201 C1205 1.376 . S
C1202 C1200 1.394 . S
C1202 C1203 1.369 . S
C1202 C1206 1.531 . S
C1203 C1202 1.369 . S
C1203 C1204 1.410 . S
C1203 C1211 1.503 . S
C1204 C1203 1.410 . S
C1204 C1205 1.392 . S
C1204 C1207 1.511 . S
C1205 C1201 1.376 . S
C1205 C1204 1.392 . S
C1205 H1217 0.929 . S
C1206 C1202 1.531 . S
C1206 H1218 0.960 . S
C1206 H1219 0.962 . S
C1206 H1220 0.960 . S
C1207 C1204 1.511 . S
C1207 H1221 0.961 . S
C1207 H1222 0.961 . S
C1207 H1223 0.961 . S
C1208 C1209 1.370 . S
C1208 C1210 1.363 . S
C1208 H1224 0.931 . S
C1209 C1208 1.370 . S
C1209 C1213 1.408 . S
C1210 C1208 1.363 . S
C1210 C1211 1.370 . S
C1210 C1214 1.524 . S
C1211 C1203 1.503 . S
C1211 C1210 1.370 . S
C1211 C1212 1.403 . S
C1212 C1211 1.403 . S
C1212 C1213 1.404 . S
C1212 C1215 1.539 . S
C1213 C1209 1.408 . S
C1213 C1212 1.404 . S
C1213 H1225 0.930 . S
C1214 C1210 1.524 . S
C1214 H1226 0.956 . S
C1214 H1227 0.961 . S
C1214 H1228 0.961 . S
C1215 C1212 1.539 . S
C1215 H1229 0.958 . S
C1215 H1230 0.961 . S
C1215 H1231 0.960 . S
H1216 C1200 0.931 . S
H1217 C1205 0.929 . S
H1218 C1206 0.960 . S
H1219 C1206 0.962 . S
H1220 C1206 0.960 . S
H1221 C1207 0.961 . S
H1222 C1207 0.961 . S
H1223 C1207 0.961 . S
H1224 C1208 0.931 . S
H1225 C1213 0.930 . S
H1226 C1214 0.956 . S
H1227 C1214 0.961 . S
H1228 C1214 0.961 . S
H1229 C1215 0.958 . S
H1230 C1215 0.961 . S
H1231 C1215 0.960 . S
C1232 C1233 1.391 . S
C1232 C1234 1.394 . S
C1232 H1248 0.931 . S
C1233 C1232 1.391 . S
C1233 C1237 1.376 . S
C1234 C1232 1.394 . S
C1234 C1235 1.369 . S
C1234 C1238 1.531 . S
C1235 C1234 1.369 . S
C1235 C1236 1.410 . S
C1235 C1243 1.503 . S
C1236 C1235 1.410 . S
C1236 C1237 1.392 . S
C1236 C1239 1.511 . S
C1237 C1233 1.376 . S
C1237 C1236 1.392 . S
C1237 H1249 0.929 . S
C1238 C1234 1.531 . S
C1238 H1250 0.960 . S
C1238 H1251 0.962 . S
C1238 H1252 0.960 . S
C1239 C1236 1.511 . S
C1239 H1253 0.961 . S
C1239 H1254 0.961 . S
C1239 H1255 0.961 . S
C1240 C1241 1.370 . S
C1240 C1242 1.363 . S
C1240 H1256 0.931 1_554 S
C1241 C1240 1.370 . S
C1241 C1245 1.408 . S
C1242 C1240 1.363 . S
C1242 C1243 1.370 . S
C1242 C1246 1.524 . S
C1243 C1235 1.503 . S
C1243 C1242 1.370 . S
C1243 C1244 1.403 . S
C1244 C1243 1.403 . S
C1244 C1245 1.404 . S
C1244 C1247 1.539 . S
C1245 C1241 1.408 . S
C1245 C1244 1.404 . S
C1245 H1257 0.930 . S
C1246 C1242 1.524 . S
C1246 H1258 0.956 . S
C1246 H1259 0.961 . S
C1246 H1260 0.961 . S
C1247 C1244 1.539 . S
C1247 H1261 0.958 . S
C1247 H1262 0.961 . S
C1247 H1263 0.960 . S
H1248 C1232 0.931 . S
H1249 C1237 0.929 . S
H1250 C1238 0.960 . S
H1251 C1238 0.962 . S
H1252 C1238 0.960 . S
H1253 C1239 0.961 . S
H1254 C1239 0.961 . S
H1255 C1239 0.961 . S
H1256 C1240 0.931 1_556 S
H1257 C1245 0.930 . S
H1258 C1246 0.956 . S
H1259 C1246 0.961 . S
H1260 C1246 0.961 . S
H1261 C1247 0.958 . S
H1262 C1247 0.961 . S
H1263 C1247 0.960 . S
C1264 C1265 1.391 . S
C1264 C1266 1.394 . S
C1264 H1280 0.931 . S
C1265 C1264 1.391 . S
C1265 C1269 1.376 . S
C1266 C1264 1.394 . S
C1266 C1267 1.369 . S
C1266 C1270 1.531 . S
C1267 C1266 1.369 . S
C1267 C1268 1.410 . S
C1267 C1275 1.503 . S
C1268 C1267 1.410 . S
C1268 C1269 1.392 . S
C1268 C1271 1.511 . S
C1269 C1265 1.376 . S
C1269 C1268 1.392 . S
C1269 H1281 0.929 . S
C1270 C1266 1.531 . S
C1270 H1282 0.960 . S
C1270 H1283 0.962 . S
C1270 H1284 0.960 . S
C1271 C1268 1.511 . S
C1271 H1285 0.961 . S
C1271 H1286 0.961 . S
C1271 H1287 0.961 . S
C1272 C1273 1.370 . S
C1272 C1274 1.363 . S
C1272 H1288 0.931 . S
C1273 C1272 1.370 . S
C1273 C1277 1.408 . S
C1274 C1272 1.363 . S
C1274 C1275 1.370 . S
C1274 C1278 1.524 . S
C1275 C1267 1.503 . S
C1275 C1274 1.370 . S
C1275 C1276 1.403 . S
C1276 C1275 1.403 . S
C1276 C1277 1.404 . S
C1276 C1279 1.539 . S
C1277 C1273 1.408 . S
C1277 C1276 1.404 . S
C1277 H1289 0.930 . S
C1278 C1274 1.524 . S
C1278 H1290 0.956 . S
C1278 H1291 0.961 . S
C1278 H1292 0.961 . S
C1279 C1276 1.539 . S
C1279 H1293 0.958 . S
C1279 H1294 0.961 . S
C1279 H1295 0.960 . S
H1280 C1264 0.931 . S
H1281 C1269 0.929 . S
H1282 C1270 0.960 . S
H1283 C1270 0.962 . S
H1284 C1270 0.960 . S
H1285 C1271 0.961 . S
H1286 C1271 0.961 . S
H1287 C1271 0.961 . S
H1288 C1272 0.931 . S
H1289 C1277 0.930 . S
H1290 C1278 0.956 . S
H1291 C1278 0.961 . S
H1292 C1278 0.961 . S
H1293 C1279 0.958 . S
H1294 C1279 0.961 . S
H1295 C1279 0.960 . S
C1296 C1297 1.391 . S
C1296 C1298 1.394 . S
C1296 H1312 0.931 . S
C1297 C1296 1.391 . S
C1297 C1301 1.376 . S
C1298 C1296 1.394 . S
C1298 C1299 1.369 . S
C1298 C1302 1.531 . S
C1299 C1298 1.369 . S
C1299 C1300 1.410 . S
C1299 C1307 1.503 . S
C1300 C1299 1.410 . S
C1300 C1301 1.392 . S
C1300 C1303 1.511 . S
C1301 C1297 1.376 . S
C1301 C1300 1.392 . S
C1301 H1313 0.929 . S
C1302 C1298 1.531 . S
C1302 H1314 0.960 . S
C1302 H1315 0.962 . S
C1302 H1316 0.960 . S
C1303 C1300 1.511 . S
C1303 H1317 0.961 . S
C1303 H1318 0.961 . S
C1303 H1319 0.961 . S
C1304 C1305 1.370 . S
C1304 C1306 1.363 . S
C1304 H1320 0.931 . S
C1305 C1304 1.370 . S
C1305 C1309 1.408 . S
C1306 C1304 1.363 . S
C1306 C1307 1.370 . S
C1306 C1310 1.524 . S
C1307 C1299 1.503 . S
C1307 C1306 1.370 . S
C1307 C1308 1.403 . S
C1308 C1307 1.403 . S
C1308 C1309 1.404 . S
C1308 C1311 1.539 . S
C1309 C1305 1.408 . S
C1309 C1308 1.404 . S
C1309 H1321 0.930 . S
C1310 C1306 1.524 . S
C1310 H1322 0.956 . S
C1310 H1323 0.961 . S
C1310 H1324 0.961 . S
C1311 C1308 1.539 . S
C1311 H1325 0.958 . S
C1311 H1326 0.961 . S
C1311 H1327 0.960 . S
H1312 C1296 0.931 . S
H1313 C1301 0.929 . S
H1314 C1302 0.960 . S
H1315 C1302 0.962 . S
H1316 C1302 0.960 . S
H1317 C1303 0.961 . S
H1318 C1303 0.961 . S
H1319 C1303 0.961 . S
H1320 C1304 0.931 . S
H1321 C1309 0.930 . S
H1322 C1310 0.956 . S
H1323 C1310 0.961 . S
H1324 C1310 0.961 . S
H1325 C1311 0.958 . S
H1326 C1311 0.961 . S
H1327 C1311 0.960 . S
C1328 C1329 1.391 . S
C1328 C1330 1.394 . S
C1328 H1344 0.931 . S
C1329 C1328 1.391 . S
C1329 C1333 1.376 . S
C1330 C1328 1.394 . S
C1330 C1331 1.369 . S
C1330 C1334 1.531 . S
C1331 C1330 1.369 . S
C1331 C1332 1.410 . S
C1331 C1339 1.503 . S
C1332 C1331 1.410 . S
C1332 C1333 1.392 . S
C1332 C1335 1.511 . S
C1333 C1329 1.376 . S
C1333 C1332 1.392 . S
C1333 H1345 0.929 . S
C1334 C1330 1.531 . S
C1334 H1346 0.960 . S
C1334 H1347 0.962 . S
C1334 H1348 0.960 . S
C1335 C1332 1.511 . S
C1335 H1349 0.961 . S
C1335 H1350 0.961 . S
C1335 H1351 0.961 . S
C1336 C1337 1.370 . S
C1336 C1338 1.363 . S
C1336 H1352 0.931 . S
C1337 C1336 1.370 . S
C1337 C1341 1.408 . S
C1338 C1336 1.363 . S
C1338 C1339 1.370 . S
C1338 C1342 1.524 . S
C1339 C1331 1.503 . S
C1339 C1338 1.370 . S
C1339 C1340 1.403 . S
C1340 C1339 1.403 . S
C1340 C1341 1.404 . S
C1340 C1343 1.539 . S
C1341 C1337 1.408 . S
C1341 C1340 1.404 . S
C1341 H1353 0.930 . S
C1342 C1338 1.524 . S
C1342 H1354 0.956 . S
C1342 H1355 0.961 . S
C1342 H1356 0.961 . S
C1343 C1340 1.539 . S
C1343 H1357 0.958 . S
C1343 H1358 0.961 . S
C1343 H1359 0.960 . S
H1344 C1328 0.931 . S
H1345 C1333 0.929 . S
H1346 C1334 0.960 . S
H1347 C1334 0.962 . S
H1348 C1334 0.960 . S
H1349 C1335 0.961 . S
H1350 C1335 0.961 . S
H1351 C1335 0.961 . S
H1352 C1336 0.931 . S
H1353 C1341 0.930 . S
H1354 C1342 0.956 . S
H1355 C1342 0.961 . S
H1356 C1342 0.961 . S
H1357 C1343 0.958 . S
H1358 C1343 0.961 . S
H1359 C1343 0.960 . S
C1360 C1361 1.391 . S
C1360 C1362 1.394 . S
C1360 H1376 0.931 . S
C1361 C1360 1.391 . S
C1361 C1365 1.376 . S
C1362 C1360 1.394 . S
C1362 C1363 1.369 . S
C1362 C1366 1.531 . S
C1363 C1362 1.369 . S
C1363 C1364 1.410 . S
C1363 C1371 1.503 . S
C1364 C1363 1.410 . S
C1364 C1365 1.392 . S
C1364 C1367 1.511 . S
C1365 C1361 1.376 . S
C1365 C1364 1.392 . S
C1365 H1377 0.929 . S
C1366 C1362 1.531 . S
C1366 H1378 0.960 . S
C1366 H1379 0.962 . S
C1366 H1380 0.960 . S
C1367 C1364 1.511 . S
C1367 H1381 0.961 . S
C1367 H1382 0.961 . S
C1367 H1383 0.961 . S
C1368 C1369 1.370 . S
C1368 C1370 1.363 . S
C1368 H1384 0.931 . S
C1369 C1368 1.370 . S
C1369 C1373 1.408 . S
C1370 C1368 1.363 . S
C1370 C1371 1.370 . S
C1370 C1374 1.524 . S
C1371 C1363 1.503 . S
C1371 C1370 1.370 . S
C1371 C1372 1.403 . S
C1372 C1371 1.403 . S
C1372 C1373 1.404 . S
C1372 C1375 1.539 . S
C1373 C1369 1.408 . S
C1373 C1372 1.404 . S
C1373 H1385 0.930 . S
C1374 C1370 1.524 . S
C1374 H1386 0.956 . S
C1374 H1387 0.961 . S
C1374 H1388 0.961 . S
C1375 C1372 1.539 . S
C1375 H1389 0.958 . S
C1375 H1390 0.961 . S
C1375 H1391 0.960 . S
H1376 C1360 0.931 . S
H1377 C1365 0.929 . S
H1378 C1366 0.960 . S
H1379 C1366 0.962 . S
H1380 C1366 0.960 . S
H1381 C1367 0.961 . S
H1382 C1367 0.961 . S
H1383 C1367 0.961 . S
H1384 C1368 0.931 . S
H1385 C1373 0.930 . S
H1386 C1374 0.956 . S
H1387 C1374 0.961 . S
H1388 C1374 0.961 . S
H1389 C1375 0.958 . S
H1390 C1375 0.961 . S
H1391 C1375 0.960 . S
C369 N255 1.491 . S
C377 C16 1.605 . S
C401 C39 1.617 . S
C409 N186 1.512 . S
C433 C62 1.599 . S
C441 N209 1.481 . S
C465 N232 1.499 . S
C473 C85 1.608 . S
C497 C108 1.612 . S
C505 N117 1.514 . S
C529 C131 1.606 . S
C537 N140 1.505 . S
C561 N163 1.509 . S
C569 C154 1.614 . S
C593 N94 1.536 . S
C601 C177 1.614 . S
C625 N71 1.523 . S
C633 C200 1.609 . S
C657 C223 1.594 . S
C665 N2 1.480 . S
C689 N25 1.517 . S
C697 C246 1.609 . S
C721 C269 1.616 . S
C729 N48 1.510 . S
C753 C292 1.616 . S
C761 N301 1.515 . S
C785 C315 1.616 . S
C793 N324 1.509 . S
C817 N347 1.486 . S
C825 C338 1.612 . S
C849 N278 1.457 . S
C857 C361 1.604 . S
C881 C99 1.365 . S
C889 C7 1.348 . S
C913 C30 1.356 . S
C921 C122 1.353 . S
C945 C53 1.365 . S
C953 C145 1.348 . S
C977 C168 1.328 . S
C985 C76 1.352 . S
C1009 C191 1.364 . S
C1017 C283 1.346 . S
C1041 C306 1.329 . S
C1049 C214 1.351 . S
C1073 C237 1.365 . S
C1081 C329 1.348 . S
C1105 C352 1.349 . S
C1113 C260 1.356 . S
C1137 N334 1.811 . S
C1145 N12 1.827 1_556 S
C1169 N357 1.849 . S
C1177 N35 1.845 1_554 S
C1201 N58 1.826 1_556 S
C1209 N288 1.837 . S
C1233 N311 1.848 . S
C1241 N81 1.838 1_554 S
C1265 N242 1.852 . S
C1273 N104 1.845 . S
C1297 N265 1.842 . S
C1305 N127 1.844 . S
C1329 N150 1.811 . S
C1337 N196 1.827 . S
C1361 N219 1.850 . S
C1369 N173 1.839 . S
