# Generated by pormake.
# Topology ilc, (8)-cn, num edge types: 1
# Building blocks:
#     Node 0, Type 0, BuildingBlock: XADDAJ01_clean_sbu_3, # of connection points: 8
#     Node 1, Type 0, BuildingBlock: XADDAJ01_clean_sbu_3, # of connection points: 8
#     Node 2, Type 0, BuildingBlock: XADDAJ01_clean_sbu_3, # of connection points: 8
#     Edge 3, Type (0, 0), BuildingBlock: EZIPEK_clean_linker_0, # of connection points: 2
#     Edge 4, Type (0, 0), BuildingBlock: EZIPEK_clean_linker_0, # of connection points: 2
#     Edge 5, Type (0, 0), BuildingBlock: EZIPEK_clean_linker_0, # of connection points: 2
#     Edge 6, Type (0, 0), BuildingBlock: EZIPEK_clean_linker_0, # of connection points: 2
#     Edge 7, Type (0, 0), BuildingBlock: EZIPEK_clean_linker_0, # of connection points: 2
#     Edge 8, Type (0, 0), BuildingBlock: EZIPEK_clean_linker_0, # of connection points: 2
#     Edge 9, Type (0, 0), BuildingBlock: EZIPEK_clean_linker_0, # of connection points: 2
#     Edge 10, Type (0, 0), BuildingBlock: EZIPEK_clean_linker_0, # of connection points: 2
#     Edge 11, Type (0, 0), BuildingBlock: EZIPEK_clean_linker_0, # of connection points: 2
#     Edge 12, Type (0, 0), BuildingBlock: EZIPEK_clean_linker_0, # of connection points: 2
#     Edge 13, Type (0, 0), BuildingBlock: EZIPEK_clean_linker_0, # of connection points: 2
#     Edge 14, Type (0, 0), BuildingBlock: EZIPEK_clean_linker_0, # of connection points: 2
# Relax obj value: 0.198
# Max RMSD: 0.207
# Mean RMSD: 0.207
data_MOF--net-ilc--node1-XADDAJ01_clean_sbu_3--edge1-EZIPEK_clean_linker_0
_symmetry_space_group_name_H-M    P1
_symmetry_Int_Tables_number       1
_symmetry_cell_setting            triclinic
loop_
_symmetry_equiv_pos_as_xyz
'x, y, z'
_cell_length_a     17.786993
_cell_length_b     24.224267
_cell_length_c     15.132502
_cell_angle_alpha  103.12812
_cell_angle_beta   71.895826
_cell_angle_gamma 141.46163
loop_
_atom_site_label
_atom_site_type_symbol
_atom_site_fract_x
_atom_site_fract_y
_atom_site_fract_z
_atom_type_partial_charge
C0 C 0.15195 0.98411 0.16018 0.0
C1 C 0.1633 0.02547 0.24461 0.0
C2 C 0.11762 0.98289 0.32656 0.0
C3 C 0.08063 0.90666 0.32388 0.0
C4 C 0.09198 0.8732 0.24009 0.0
C5 C 0.12104 0.90895 0.15623 0.0
O6 O 0.91683 0.006 0.16662 0.0
Tb7 Tb 0.10235 0.08552 0.08493 0.0
Tb8 Tb 0.8761 0.91149 0.96196 0.0
O9 O 0.16024 0.18265 0.19673 0.0
O10 O 0.81276 0.87025 0.1063 0.0
O11 O 0.2371 0.10187 0.08147 0.0
C12 C 0.79965 0.95718 0.9306 0.0
O13 O 0.05033 0.97091 0.07237 0.0
O14 O 0.0663 0.00147 0.88381 0.0
O15 O 0.15941 0.13371 0.94668 0.0
C16 C 0.15786 0.01596 0.08317 0.0
C17 C 0.87697 0.78457 0.86186 0.0
O18 O 0.92258 0.80589 0.93311 0.0
C19 C 0.82573 0.9193 0.17607 0.0
C20 C 0.15048 0.08773 0.87465 0.0
O21 O 0.83364 0.81095 0.86369 0.0
C22 C 0.82732 0.99131 0.84244 0.0
C23 C 0.89615 0.1002 0.75084 0.0
C24 C 0.83835 0.05499 0.83672 0.0
C25 C 0.85964 0.96717 0.76099 0.0
C26 C 0.93313 0.02122 0.68152 0.0
C27 C 0.95822 0.09194 0.67963 0.0
C28 C 0.12119 0.21423 0.21368 0.0
O29 O 0.07087 0.19959 0.15037 0.0
O30 O 0.73493 0.87428 0.92968 0.0
O31 O 0.8968 0.01012 0.96684 0.0
H32 H 0.19489 0.08623 0.24792 0.0
H33 H 0.0454 0.87418 0.38887 0.0
H34 H 0.11812 0.87882 0.09034 0.0
H35 H 0.80082 0.06758 0.89627 0.0
H36 H 0.83185 0.90833 0.76076 0.0
H37 H 0.01017 0.13163 0.61611 0.0
C38 C 0.78541 0.31215 0.54854 0.0
C39 C 0.73481 0.31822 0.63535 0.0
C40 C 0.72395 0.29162 0.71528 0.0
C41 C 0.75192 0.25138 0.71032 0.0
C42 C 0.80503 0.2459 0.62534 0.0
C43 C 0.82291 0.2767 0.54301 0.0
O44 O 0.56497 0.33086 0.50078 0.0
Tb45 Tb 0.7571 0.41517 0.43361 0.0
Tb46 Tb 0.54568 0.25796 0.29524 0.0
O47 O 0.80789 0.51774 0.53302 0.0
O48 O 0.46526 0.1986 0.43309 0.0
O49 O 0.87669 0.43777 0.48304 0.0
C50 C 0.51021 0.33808 0.28202 0.0
O51 O 0.72438 0.30982 0.42673 0.0
O52 O 0.73522 0.33735 0.22583 0.0
O53 O 0.84071 0.47034 0.28854 0.0
C54 C 0.81462 0.35571 0.46866 0.0
C55 C 0.51712 0.12082 0.17479 0.0
O56 O 0.52549 0.11083 0.25171 0.0
C57 C 0.47722 0.24422 0.5072 0.0
C58 C 0.82145 0.42305 0.213 0.0
O59 O 0.50664 0.16982 0.17851 0.0
C60 C 0.56388 0.39453 0.20374 0.0
C61 C 0.57161 0.46679 0.10462 0.0
C62 C 0.52489 0.4252 0.19091 0.0
C63 C 0.64428 0.40422 0.13082 0.0
C64 C 0.6784 0.43718 0.04534 0.0
C65 C 0.65408 0.47674 0.03477 0.0
C66 C 0.74561 0.50226 0.6201 0.0
O67 O 0.64988 0.4212 0.65538 0.0
O68 O 0.4348 0.25377 0.26228 0.0
O69 O 0.59304 0.3703 0.32371 0.0
H70 H 0.71397 0.35088 0.64173 0.0
H71 H 0.74382 0.23239 0.77431 0.0
H72 H 0.86779 0.27525 0.47695 0.0
H73 H 0.4568 0.4138 0.24389 0.0
H74 H 0.65988 0.3699 0.13467 0.0
H75 H 0.68275 0.50213 0.96625 0.0
C76 C 0.45551 0.64075 0.83674 0.0
C77 C 0.36108 0.61459 0.90914 0.0
C78 C 0.31997 0.56852 0.98581 0.0
C79 C 0.35954 0.53755 0.98702 0.0
C80 C 0.45942 0.56716 0.91957 0.0
C81 C 0.50789 0.61856 0.8423 0.0
O82 O 0.25364 0.67803 0.83194 0.0
Tb83 Tb 0.44308 0.7637 0.75424 0.0
Tb84 Tb 0.21834 0.58929 0.62264 0.0
O85 O 0.51505 0.87523 0.84822 0.0
O86 O 0.15921 0.54668 0.76948 0.0
O87 O 0.56286 0.77939 0.7927 0.0
C88 C 0.14319 0.63685 0.58968 0.0
O89 O 0.42042 0.66301 0.72004 0.0
O90 O 0.40901 0.67718 0.54776 0.0
O91 O 0.50649 0.81065 0.61248 0.0
C92 C 0.50334 0.69968 0.76497 0.0
C93 C 0.23581 0.47486 0.49632 0.0
O94 O 0.3034 0.50517 0.5539 0.0
C95 C 0.17288 0.59313 0.84422 0.0
C96 C 0.49411 0.7635 0.54005 0.0
O97 O 0.17831 0.49279 0.51598 0.0
C98 C 0.1435 0.65295 0.50039 0.0
C99 C 0.11068 0.69901 0.40223 0.0
C100 C 0.12192 0.69689 0.49056 0.0
C101 C 0.16019 0.61749 0.42181 0.0
C102 C 0.1451 0.61784 0.3376 0.0
C103 C 0.11516 0.6543 0.3293 0.0
C104 C 0.45141 0.88785 0.8859 0.0
O105 O 0.34255 0.83158 0.86712 0.0
O106 O 0.07465 0.55441 0.60106 0.0
O107 O 0.25087 0.69255 0.61083 0.0
H108 H 0.3343 0.64263 0.91313 0.0
H109 H 0.32677 0.50292 0.04928 0.0
H110 H 0.58634 0.64316 0.79046 0.0
H111 H 0.11547 0.72904 0.5493 0.0
H112 H 0.18641 0.59019 0.42576 0.0
H113 H 0.1113 0.65773 0.2611 0.0
C114 C 0.93901 0.99523 0.51435 0.0
C115 C 0.96811 -0.00203 0.59352 0.0
C116 C 0.11476 0.007 0.49471 0.0
C117 C 0.0893 0.00817 0.41617 0.0
N118 N 0.00244 0.02433 0.34854 0.0
N119 N 0.06748 0.98727 0.65604 0.0
C120 C 0.00931 0.00958 0.42568 0.0
C121 C 0.05025 -0.00192 0.58344 0.0
N122 N 0.84015 0.97497 0.52535 0.0
N123 N 0.20007 0.01291 0.48441 0.0
H124 H 0.02108 0.97613 0.72458 0.0
H125 H 0.02108 0.97613 0.72458 0.0
H126 H 0.25697 0.02648 0.42021 0.0
H127 H 0.21528 0.006 0.5401 0.0
H128 H 0.81419 0.97442 0.47221 0.0
H129 H 0.77639 0.9503 0.58854 0.0
H130 H 0.95615 0.03524 0.34885 0.0
H131 H 0.95615 0.03524 0.34885 0.0
C132 C 0.81958 0.41519 0.82402 0.0
C133 C 0.7137 0.32581 0.80402 0.0
C134 C 0.58663 0.30899 0.94441 0.0
C135 C 0.69241 0.3995 0.96337 0.0
N136 N 0.90774 0.54186 0.91727 0.0
N137 N 0.49794 0.18411 0.85283 0.0
C138 C 0.80819 0.45362 0.90193 0.0
C139 C 0.5988 0.27188 0.86628 0.0
N140 N 0.93394 0.46444 0.77126 0.0
N141 N 0.47062 0.25626 0.99746 0.0
H142 H 0.49962 0.1505 0.79706 0.0
H143 H 0.49962 0.1505 0.79706 0.0
H144 H 0.44755 0.27669 0.05564 0.0
H145 H 0.44755 0.27669 0.05564 0.0
H146 H 0.95207 0.43885 0.71679 0.0
H147 H 0.95207 0.43885 0.71679 0.0
H148 H -0.00673 0.58394 0.87032 0.0
H149 H 0.90394 0.57307 0.9753 0.0
C150 C 0.15137 0.50441 0.12406 0.0
C151 C 0.27258 0.57957 0.07532 0.0
C152 C 0.31292 0.67585 0.20321 0.0
C153 C 0.1909 0.60137 0.25183 0.0
N154 N -0.00622 0.44618 0.26376 0.0
N155 N 0.47937 0.73197 0.07471 0.0
C156 C 0.11028 0.51565 0.21399 0.0
C157 C 0.35633 0.66412 0.11623 0.0
N158 N 0.07641 0.42338 0.08332 0.0
N159 N 0.38601 0.75873 0.23887 0.0
H160 H 0.51708 0.72887 1.00903 0.0
H161 H 0.54696 0.7897 0.10823 0.0
H162 H 0.36387 0.76985 0.30716 0.0
H163 H 0.46513 0.81686 0.19906 0.0
H164 H 0.98501 0.36532 0.11297 0.0
H165 H 0.105 0.41368 1.01683 0.0
H166 H 0.93081 0.38004 0.24584 0.0
H167 H 0.959 0.45661 0.32368 0.0
C168 C -0.00589 0.71548 0.38187 0.0
C169 C 0.10932 0.75362 0.37328 0.0
C170 C 0.19196 0.83898 0.23626 0.0
C171 C 0.08059 0.80664 0.24975 0.0
N172 N 0.86342 0.69242 0.31434 0.0
N173 N 0.32628 0.86669 0.30307 0.0
C174 C 0.97682 0.73594 0.31474 0.0
C175 C 0.21093 0.82035 0.30365 0.0
N176 N 0.90619 0.66766 0.46021 0.0
N177 N 0.27544 0.88112 0.15464 0.0
H178 H 0.34218 0.85662 0.35499 0.0
H179 H 0.40594 0.92053 0.25794 0.0
H180 H 0.25849 0.88968 0.10218 0.0
H181 H 0.3483 0.89268 0.13496 0.0
H182 H 0.82135 0.64104 0.4744 0.0
H183 H 0.92915 0.66786 0.51577 0.0
H184 H 0.7811 0.636 0.35519 0.0
H185 H 0.85288 0.7095 0.26579 0.0
C186 C 0.12492 0.36663 0.36467 0.0
C187 C 0.21265 0.41173 0.41911 0.0
C188 C 0.22335 0.31332 0.35332 0.0
C189 C 0.13905 0.27103 0.29696 0.0
N190 N 0.96453 0.22907 0.293 0.0
N191 N 0.38216 0.44866 0.42816 0.0
C192 C 0.07679 0.28951 0.31533 0.0
C193 C 0.27152 0.39038 0.40395 0.0
N194 N 0.09579 0.40158 0.35108 0.0
N195 N 0.25157 0.27716 0.36488 0.0
H196 H 0.43481 0.51348 0.44663 0.0
H197 H 0.43221 0.43879 0.41387 0.0
H198 H 0.20871 0.21623 0.33852 0.0
H199 H 0.3029 0.30076 0.41255 0.0
H200 H 0.03954 0.37393 0.30598 0.0
H201 H 0.14378 0.46516 0.37049 0.0
H202 H 0.91027 0.23565 0.31171 0.0
H203 H 0.91709 0.16616 0.26966 0.0
C204 C 0.59048 0.85484 0.39837 0.0
C205 C 0.58327 0.8076 0.44897 0.0
C206 C 0.72928 0.82917 0.31881 0.0
C207 C 0.73794 0.8774 0.26829 0.0
N208 N 0.68525 0.9423 0.26046 0.0
N209 N 0.66309 0.76509 0.46693 0.0
C210 C 0.67153 0.89253 0.30867 0.0
C211 C 0.65623 0.79791 0.41126 0.0
N212 N 0.51628 0.86073 0.43487 0.0
N213 N 0.79399 0.81548 0.27946 0.0
H214 H 0.61547 0.74532 0.53622 0.0
H215 H 0.7245 0.76507 0.44842 0.0
H216 H 0.85959 0.84557 0.21695 0.0
H217 H 0.77964 0.77139 0.30658 0.0
H218 H 0.51021 0.88946 0.40069 0.0
H219 H 0.45544 0.83358 0.49962 0.0
H220 H 0.65337 0.96597 0.28884 0.0
H221 H 0.73164 0.96221 0.191 0.0
C222 C 0.95255 0.2708 0.67267 0.0
C223 C 0.84934 0.21479 0.63158 0.0
C224 C 0.77085 0.08486 0.68035 0.0
C225 C 0.87311 0.14029 0.72254 0.0
N226 N 0.07062 0.28599 0.748 0.0
N227 N 0.67739 0.0721 0.5769 0.0
C228 C 0.96748 0.23358 0.71474 0.0
C229 C 0.76412 0.12285 0.62925 0.0
N230 N 0.03275 0.35946 0.67483 0.0
N231 N 0.6786 0.9952 0.69015 0.0
H232 H 0.67201 0.09927 0.53839 0.0
H233 H 0.61912 0.00542 0.56435 0.0
H234 H 0.68525 0.96408 0.71832 0.0
H235 H 0.59241 0.95249 0.67648 0.0
H236 H 0.10795 0.40525 0.70605 0.0
H237 H 0.0227 0.38723 0.64435 0.0
H238 H 0.14952 0.35421 0.73649 0.0
H239 H 0.07894 0.26017 0.78527 0.0
C240 C 0.86947 0.62243 0.73599 0.0
C241 C 0.78385 0.57682 0.67968 0.0
C242 C 0.79509 0.68706 0.71817 0.0
C243 C 0.86342 0.72402 0.78726 0.0
N244 N 0.0041 0.74485 0.83259 0.0
N245 N 0.65402 0.56168 0.62614 0.0
C246 C 0.91103 0.69653 0.78816 0.0
C247 C 0.74226 0.60727 0.67479 0.0
N248 N 0.91535 0.59762 0.74054 0.0
N249 N 0.78921 0.73064 0.68389 0.0
H250 H 0.61207 0.50267 0.593 0.0
H251 H 0.62067 0.58204 0.62224 0.0
H252 H 0.83851 0.79503 0.70088 0.0
H253 H 0.83851 0.79503 0.70088 0.0
H254 H 0.89049 0.54434 0.70507 0.0
H255 H 0.89049 0.54434 0.70507 0.0
H256 H 0.03681 0.72444 0.83826 0.0
H257 H 0.05851 0.80959 0.85322 0.0
C258 C 0.37874 0.14968 0.64644 0.0
C259 C 0.38809 0.19944 0.59866 0.0
C260 C 0.25238 0.18432 0.73532 0.0
C261 C 0.24034 0.13247 0.78278 0.0
N262 N 0.27535 0.05302 0.77654 0.0
N263 N 0.31417 0.24817 0.58844 0.0
C264 C 0.29869 0.1115 0.73615 0.0
C265 C 0.32037 0.21312 0.64101 0.0
N266 N 0.44976 0.14124 0.60743 0.0
N267 N 0.19478 0.20321 0.77879 0.0
H268 H 0.35825 0.26629 0.51836 0.0
H269 H 0.25655 0.25173 0.61058 0.0
H270 H 0.13267 0.17565 0.84296 0.0
H271 H 0.21259 0.24969 0.75324 0.0
H272 H 0.45672 0.11313 0.64176 0.0
H273 H 0.50818 0.16685 0.54167 0.0
H274 H 0.29308 0.02111 0.73959 0.0
H275 H 0.23758 0.03562 0.84713 0.0
C276 C 0.45278 0.43358 1.00584 0.0
C277 C 0.52589 0.4889 0.07363 0.0
C278 C 0.58283 0.60818 0.02131 0.0
C279 C 0.51947 0.55553 0.94764 0.0
N280 N 0.41842 0.42556 0.85776 0.0
N281 N 0.67466 0.63376 0.13738 0.0
C282 C 0.46336 0.47078 0.93569 0.0
C283 C 0.59447 0.5775 0.07917 0.0
N284 N 0.3724 0.34505 1.0095 0.0
N285 N 0.62329 0.68479 0.04118 0.0
H286 H 0.67967 0.61206 0.18502 0.0
H287 H 0.7395 0.70206 0.13444 0.0
H288 H 0.63025 0.71522 0.99505 0.0
H289 H 0.63948 0.71226 0.10658 0.0
H290 H 0.31003 0.3002 0.96624 0.0
H291 H 0.35907 0.31629 0.0634 0.0
H292 H 0.38769 0.36709 0.84023 0.0
H293 H 0.42542 0.45246 0.80624 0.0
C294 C 0.47062 0.00454 0.93623 0.0
C295 C 0.49994 0.96609 0.94537 0.0
C296 C 0.59087 0.06407 0.07688 0.0
C297 C 0.52729 0.08053 0.08536 0.0
N298 N 0.40685 0.06524 1.01357 0.0
N299 N 0.58357 0.9577 0.03354 0.0
C300 C 0.46914 0.05201 1.01147 0.0
C301 C 0.56153 0.99676 1.01684 0.0
N302 N 0.44662 0.99723 0.85419 0.0
N303 N 0.68261 0.11464 0.12373 0.0
H304 H 0.55963 0.90593 0.9949 0.0
H305 H 0.61588 0.97182 0.09156 0.0
H306 H 0.71531 0.16995 0.16071 0.0
H307 H 0.73713 0.10917 0.11478 0.0
H308 H 0.43008 0.02692 0.84084 0.0
H309 H 0.45726 0.96976 0.79558 0.0
H310 H 0.34815 0.03365 0.96893 0.0
H311 H 0.40604 0.10252 0.06237 0.0
C312 C -0.0047 0.45709 0.9579 0.0
C313 C 0.09079 0.54998 0.94203 0.0
C314 C -0.00133 0.5579 0.09809 0.0
C315 C 0.90498 0.46552 0.11519 0.0
N316 N 0.78508 0.32691 0.03352 0.0
N317 N 0.20965 0.68847 0.0238 0.0
C318 C 0.89501 0.41464 0.03755 0.0
C319 C 0.10007 0.60055 1.01946 0.0
N320 N 0.00535 0.40953 0.90214 0.0
N321 N 0.98485 0.60438 0.15016 0.0
H322 H 0.29265 0.71958 0.9785 0.0
H323 H 0.22171 0.72572 0.08194 0.0
H324 H 0.90478 0.57422 0.19999 0.0
H325 H 0.04501 0.67006 0.13395 0.0
H326 H 0.94226 0.34243 0.91389 0.0
H327 H 0.08818 0.44052 0.85672 0.0
H328 H 0.77096 0.28903 0.97548 0.0
H329 H 0.70285 0.29696 0.07831 0.0
loop_
_geom_bond_atom_site_label_1
_geom_bond_atom_site_label_2
_geom_bond_distance
_geom_bond_site_symmetry_2
_ccdc_geom_bond_type
C0 C1 1.386 . S
C0 C5 1.384 1_545 S
C0 C16 1.497 . S
C1 C0 1.386 . S
C1 C2 1.393 1_545 S
C1 H32 0.932 . S
C2 C1 1.393 1_565 S
C2 C3 1.387 . S
C3 C2 1.387 . S
C3 C4 1.392 . S
C3 H33 0.930 . S
C4 C3 1.392 . S
C4 C5 1.402 . S
C5 C0 1.384 1_565 S
C5 C4 1.402 . S
C5 H34 0.930 . S
O6 Tb7 2.288 1_665 S
O6 C19 1.256 . S
Tb7 O6 2.288 1_445 S
Tb7 O9 2.303 . S
Tb7 O11 2.430 . S
Tb7 O13 2.459 . S
Tb7 O15 2.301 1_554 S
Tb7 C16 2.808 . S
Tb8 O10 2.301 1_556 S
Tb8 C12 2.808 . S
Tb8 O14 2.287 1_665 S
Tb8 O21 2.303 . S
Tb8 O30 2.430 . S
Tb8 O31 2.459 . S
O9 Tb7 2.303 . S
O9 C28 1.255 . S
O10 Tb8 2.301 1_554 S
O10 C19 1.237 . S
O11 Tb7 2.430 . S
O11 C16 1.248 . S
C12 Tb8 2.808 . S
C12 C22 1.497 . S
C12 O30 1.248 . S
C12 O31 1.260 . S
O13 Tb7 2.459 . S
O13 C16 1.260 . S
O14 Tb8 2.287 1_445 S
O14 C20 1.258 . S
O15 Tb7 2.301 1_556 S
O15 C20 1.237 . S
C16 C0 1.497 . S
C16 Tb7 2.808 . S
C16 O11 1.248 . S
C16 O13 1.260 . S
C17 O18 1.255 . S
C17 O21 1.255 . S
O18 C17 1.255 . S
C19 O6 1.256 . S
C19 O10 1.237 . S
C20 O14 1.258 . S
C20 O15 1.237 . S
O21 Tb8 2.303 . S
O21 C17 1.255 . S
C22 C12 1.497 . S
C22 C24 1.384 1_565 S
C22 C25 1.386 . S
C23 C24 1.402 . S
C23 C27 1.392 . S
C24 C22 1.384 1_545 S
C24 C23 1.402 . S
C24 H35 0.930 . S
C25 C22 1.386 . S
C25 C26 1.393 1_565 S
C25 H36 0.932 . S
C26 C25 1.393 1_545 S
C26 C27 1.387 . S
C27 C23 1.392 . S
C27 C26 1.387 . S
C27 H37 0.930 . S
C28 O9 1.255 . S
C28 O29 1.255 . S
O29 C28 1.255 . S
O30 Tb8 2.430 . S
O30 C12 1.248 . S
O31 Tb8 2.459 . S
O31 C12 1.260 . S
H32 C1 0.932 . S
H33 C3 0.930 . S
H34 C5 0.930 . S
H35 C24 0.930 . S
H36 C25 0.932 . S
H37 C27 0.930 . S
C38 C39 1.386 . S
C38 C43 1.384 . S
C38 C54 1.497 . S
C39 C38 1.386 . S
C39 C40 1.393 . S
C39 H70 0.932 . S
C40 C39 1.393 . S
C40 C41 1.387 . S
C41 C40 1.387 . S
C41 C42 1.392 . S
C41 H71 0.930 . S
C42 C41 1.392 . S
C42 C43 1.402 . S
C43 C38 1.384 . S
C43 C42 1.402 . S
C43 H72 0.930 . S
O44 Tb45 2.288 . S
O44 C57 1.257 . S
Tb45 O44 2.288 . S
Tb45 O47 2.303 . S
Tb45 O49 2.430 . S
Tb45 O51 2.459 . S
Tb45 O53 2.301 . S
Tb45 C54 2.808 . S
Tb46 O48 2.301 . S
Tb46 C50 2.808 . S
Tb46 O52 2.288 . S
Tb46 O59 2.303 . S
Tb46 O68 2.430 . S
Tb46 O69 2.459 . S
O47 Tb45 2.303 . S
O47 C66 1.255 . S
O48 Tb46 2.301 . S
O48 C57 1.237 . S
O49 Tb45 2.430 . S
O49 C54 1.248 . S
C50 Tb46 2.808 . S
C50 C60 1.497 . S
C50 O68 1.248 . S
C50 O69 1.260 . S
O51 Tb45 2.459 . S
O51 C54 1.260 . S
O52 Tb46 2.288 . S
O52 C58 1.257 . S
O53 Tb45 2.301 . S
O53 C58 1.237 . S
C54 C38 1.497 . S
C54 Tb45 2.808 . S
C54 O49 1.248 . S
C54 O51 1.260 . S
C55 O56 1.255 . S
C55 O59 1.255 . S
O56 C55 1.255 . S
C57 O44 1.257 . S
C57 O48 1.237 . S
C58 O52 1.257 . S
C58 O53 1.237 . S
O59 Tb46 2.303 . S
O59 C55 1.255 . S
C60 C50 1.497 . S
C60 C62 1.384 . S
C60 C63 1.386 . S
C61 C62 1.402 . S
C61 C65 1.392 . S
C62 C60 1.384 . S
C62 C61 1.402 . S
C62 H73 0.930 . S
C63 C60 1.386 . S
C63 C64 1.393 1_554 S
C63 H74 0.932 . S
C64 C63 1.393 1_556 S
C64 C65 1.387 1_556 S
C65 C61 1.392 . S
C65 C64 1.387 1_554 S
C65 H75 0.930 1_554 S
C66 O47 1.255 . S
C66 O67 1.255 . S
O67 C66 1.255 . S
O68 Tb46 2.430 . S
O68 C50 1.248 . S
O69 Tb46 2.459 . S
O69 C50 1.260 . S
H70 C39 0.932 . S
H71 C41 0.930 . S
H72 C43 0.930 . S
H73 C62 0.930 . S
H74 C63 0.932 . S
H75 C65 0.930 1_556 S
C76 C77 1.386 . S
C76 C81 1.384 . S
C76 C92 1.497 . S
C77 C76 1.386 . S
C77 C78 1.393 1_556 S
C77 H108 0.932 . S
C78 C77 1.393 1_554 S
C78 C79 1.387 1_554 S
C79 C78 1.387 1_556 S
C79 C80 1.392 . S
C79 H109 0.930 1_556 S
C80 C79 1.392 . S
C80 C81 1.402 . S
C81 C76 1.384 . S
C81 C80 1.402 . S
C81 H110 0.930 . S
O82 Tb83 2.288 . S
O82 C95 1.257 . S
Tb83 O82 2.288 . S
Tb83 O85 2.303 . S
Tb83 O87 2.430 . S
Tb83 O89 2.459 . S
Tb83 O91 2.301 . S
Tb83 C92 2.808 . S
Tb84 O86 2.301 . S
Tb84 C88 2.808 . S
Tb84 O90 2.288 . S
Tb84 O97 2.303 . S
Tb84 O106 2.430 . S
Tb84 O107 2.459 . S
O85 Tb83 2.303 . S
O85 C104 1.255 . S
O86 Tb84 2.301 . S
O86 C95 1.237 . S
O87 Tb83 2.430 . S
O87 C92 1.248 . S
C88 Tb84 2.808 . S
C88 C98 1.497 . S
C88 O106 1.248 . S
C88 O107 1.260 . S
O89 Tb83 2.459 . S
O89 C92 1.260 . S
O90 Tb84 2.288 . S
O90 C96 1.257 . S
O91 Tb83 2.301 . S
O91 C96 1.237 . S
C92 C76 1.497 . S
C92 Tb83 2.808 . S
C92 O87 1.248 . S
C92 O89 1.260 . S
C93 O94 1.255 . S
C93 O97 1.255 . S
O94 C93 1.255 . S
C95 O82 1.257 . S
C95 O86 1.237 . S
C96 O90 1.257 . S
C96 O91 1.237 . S
O97 Tb84 2.303 . S
O97 C93 1.255 . S
C98 C88 1.497 . S
C98 C100 1.384 . S
C98 C101 1.386 . S
C99 C100 1.402 . S
C99 C103 1.392 . S
C100 C98 1.384 . S
C100 C99 1.402 . S
C100 H111 0.930 . S
C101 C98 1.386 . S
C101 C102 1.393 . S
C101 H112 0.932 . S
C102 C101 1.393 . S
C102 C103 1.387 . S
C103 C99 1.392 . S
C103 C102 1.387 . S
C103 H113 0.930 . S
C104 O85 1.255 . S
C104 O105 1.255 . S
O105 C104 1.255 . S
O106 Tb84 2.430 . S
O106 C88 1.248 . S
O107 Tb84 2.459 . S
O107 C88 1.260 . S
H108 C77 0.932 . S
H109 C79 0.930 1_554 S
H110 C81 0.930 . S
H111 C100 0.930 . S
H112 C101 0.932 . S
H113 C103 0.930 . S
C114 C115 1.364 . S
C114 C120 1.379 1_655 S
C114 N122 1.356 . S
C115 C114 1.364 . S
C115 C121 1.359 1_545 S
C116 C117 1.363 . S
C116 C121 1.379 1_455 S
C116 N123 1.356 . S
C117 C116 1.363 . S
C117 C120 1.364 1_565 S
N118 C120 1.356 . S
N118 H130 0.984 . S
N118 H131 0.985 . S
N119 C121 1.356 . S
N119 H124 0.984 . S
N119 H125 0.985 . S
C120 C114 1.379 1_455 S
C120 C117 1.364 1_545 S
C120 N118 1.356 . S
C121 C115 1.359 1_565 S
C121 C116 1.379 1_655 S
C121 N119 1.356 . S
N122 C114 1.356 . S
N122 H128 0.984 . S
N122 H129 0.984 . S
N123 C116 1.356 . S
N123 H126 0.984 . S
N123 H127 0.985 . S
H124 N119 0.984 . S
H125 N119 0.985 . S
H126 N123 0.984 . S
H127 N123 0.985 . S
H128 N122 0.984 . S
H129 N122 0.984 . S
H130 N118 0.984 . S
H131 N118 0.985 . S
C132 C133 1.363 . S
C132 C138 1.379 . S
C132 N140 1.356 . S
C133 C132 1.363 . S
C133 C139 1.363 . S
C134 C135 1.363 . S
C134 C139 1.379 . S
C134 N141 1.356 . S
C135 C134 1.363 . S
C135 C138 1.363 . S
N136 C138 1.356 . S
N136 H148 0.984 . S
N136 H149 0.985 . S
N137 C139 1.356 . S
N137 H142 0.984 . S
N137 H143 0.985 . S
C138 C132 1.379 . S
C138 C135 1.363 . S
C138 N136 1.356 . S
C139 C133 1.363 . S
C139 C134 1.379 . S
C139 N137 1.356 . S
N140 C132 1.356 . S
N140 H146 0.984 . S
N140 H147 0.984 . S
N141 C134 1.356 . S
N141 H144 0.984 . S
N141 H145 0.985 . S
H142 N137 0.984 . S
H143 N137 0.985 . S
H144 N141 0.984 . S
H145 N141 0.985 . S
H146 N140 0.984 . S
H147 N140 0.984 . S
H148 N136 0.984 . S
H149 N136 0.985 . S
C150 C151 1.363 . S
C150 C156 1.379 . S
C150 N158 1.356 . S
C151 C150 1.363 . S
C151 C157 1.363 . S
C152 C153 1.363 . S
C152 C157 1.379 . S
C152 N159 1.356 . S
C153 C152 1.363 . S
C153 C156 1.363 . S
N154 C156 1.356 . S
N154 H166 0.984 1_455 S
N154 H167 0.985 . S
N155 C157 1.356 . S
N155 H160 0.984 . S
N155 H161 0.985 . S
C156 C150 1.379 . S
C156 C153 1.363 . S
C156 N154 1.356 . S
C157 C151 1.363 . S
C157 C152 1.379 . S
C157 N155 1.356 . S
N158 C150 1.356 . S
N158 H164 0.984 . S
N158 H165 0.984 . S
N159 C152 1.356 . S
N159 H162 0.984 . S
N159 H163 0.985 . S
H160 N155 0.984 . S
H161 N155 0.985 . S
H162 N159 0.984 . S
H163 N159 0.985 . S
H164 N158 0.984 . S
H165 N158 0.984 . S
H166 N154 0.984 1_655 S
H167 N154 0.985 . S
C168 C169 1.363 . S
C168 C174 1.379 . S
C168 N176 1.356 . S
C169 C168 1.363 . S
C169 C175 1.363 . S
C170 C171 1.363 . S
C170 C175 1.379 . S
C170 N177 1.356 . S
C171 C170 1.363 . S
C171 C174 1.363 . S
N172 C174 1.356 . S
N172 H184 0.984 . S
N172 H185 0.985 . S
N173 C175 1.356 . S
N173 H178 0.984 . S
N173 H179 0.985 . S
C174 C168 1.379 . S
C174 C171 1.363 . S
C174 N172 1.356 . S
C175 C169 1.363 . S
C175 C170 1.379 . S
C175 N173 1.356 . S
N176 C168 1.356 . S
N176 H182 0.984 . S
N176 H183 0.984 . S
N177 C170 1.356 . S
N177 H180 0.984 . S
N177 H181 0.985 . S
H178 N173 0.984 . S
H179 N173 0.985 . S
H180 N177 0.984 . S
H181 N177 0.985 . S
H182 N176 0.984 . S
H183 N176 0.984 . S
H184 N172 0.984 . S
H185 N172 0.985 . S
C186 C187 1.363 . S
C186 C192 1.379 . S
C186 N194 1.356 . S
C187 C186 1.363 . S
C187 C193 1.363 . S
C188 C189 1.363 . S
C188 C193 1.379 . S
C188 N195 1.356 . S
C189 C188 1.363 . S
C189 C192 1.363 . S
N190 C192 1.356 1_655 S
N190 H202 0.984 . S
N190 H203 0.985 . S
N191 C193 1.356 . S
N191 H196 0.984 . S
N191 H197 0.985 . S
C192 C186 1.379 . S
C192 C189 1.363 . S
C192 N190 1.356 1_455 S
C193 C187 1.363 . S
C193 C188 1.379 . S
C193 N191 1.356 . S
N194 C186 1.356 . S
N194 H200 0.984 . S
N194 H201 0.984 . S
N195 C188 1.356 . S
N195 H198 0.984 . S
N195 H199 0.985 . S
H196 N191 0.984 . S
H197 N191 0.985 . S
H198 N195 0.984 . S
H199 N195 0.985 . S
H200 N194 0.984 . S
H201 N194 0.984 . S
H202 N190 0.984 . S
H203 N190 0.985 . S
C204 C205 1.363 . S
C204 C210 1.379 . S
C204 N212 1.356 . S
C205 C204 1.363 . S
C205 C211 1.363 . S
C206 C207 1.363 . S
C206 C211 1.379 . S
C206 N213 1.356 . S
C207 C206 1.363 . S
C207 C210 1.363 . S
N208 C210 1.356 . S
N208 H220 0.984 . S
N208 H221 0.985 . S
N209 C211 1.356 . S
N209 H214 0.984 . S
N209 H215 0.985 . S
C210 C204 1.379 . S
C210 C207 1.363 . S
C210 N208 1.356 . S
C211 C205 1.363 . S
C211 C206 1.379 . S
C211 N209 1.356 . S
N212 C204 1.356 . S
N212 H218 0.984 . S
N212 H219 0.984 . S
N213 C206 1.356 . S
N213 H216 0.984 . S
N213 H217 0.985 . S
H214 N209 0.984 . S
H215 N209 0.985 . S
H216 N213 0.984 . S
H217 N213 0.985 . S
H218 N212 0.984 . S
H219 N212 0.984 . S
H220 N208 0.984 . S
H221 N208 0.985 . S
C222 C223 1.363 . S
C222 C228 1.379 . S
C222 N230 1.356 . S
C223 C222 1.363 . S
C223 C229 1.363 . S
C224 C225 1.363 . S
C224 C229 1.379 . S
C224 N231 1.356 . S
C225 C224 1.363 . S
C225 C228 1.363 . S
N226 C228 1.356 1_455 S
N226 H238 0.984 . S
N226 H239 0.985 . S
N227 C229 1.356 . S
N227 H232 0.984 . S
N227 H233 0.985 1_545 S
C228 C222 1.379 . S
C228 C225 1.363 . S
C228 N226 1.356 1_655 S
C229 C223 1.363 . S
C229 C224 1.379 . S
C229 N227 1.356 . S
N230 C222 1.356 . S
N230 H236 0.984 1_655 S
N230 H237 0.984 . S
N231 C224 1.356 . S
N231 H234 0.984 . S
N231 H235 0.985 1_545 S
H232 N227 0.984 . S
H233 N227 0.985 1_565 S
H234 N231 0.984 . S
H235 N231 0.985 1_565 S
H236 N230 0.984 1_455 S
H237 N230 0.984 . S
H238 N226 0.984 . S
H239 N226 0.985 . S
C240 C241 1.363 . S
C240 C246 1.379 . S
C240 N248 1.356 . S
C241 C240 1.363 . S
C241 C247 1.363 . S
C242 C243 1.363 . S
C242 C247 1.379 . S
C242 N249 1.356 . S
C243 C242 1.363 . S
C243 C246 1.363 . S
N244 C246 1.356 1_455 S
N244 H256 0.984 . S
N244 H257 0.985 . S
N245 C247 1.356 . S
N245 H250 0.984 . S
N245 H251 0.985 . S
C246 C240 1.379 . S
C246 C243 1.363 . S
C246 N244 1.356 1_655 S
C247 C241 1.363 . S
C247 C242 1.379 . S
C247 N245 1.356 . S
N248 C240 1.356 . S
N248 H254 0.984 1_655 S
N248 H255 0.984 . S
N249 C242 1.356 . S
N249 H252 0.984 . S
N249 H253 0.985 . S
H250 N245 0.984 . S
H251 N245 0.985 . S
H252 N249 0.984 . S
H253 N249 0.985 . S
H254 N248 0.984 1_455 S
H255 N248 0.984 . S
H256 N244 0.984 . S
H257 N244 0.985 . S
C258 C259 1.363 . S
C258 C264 1.379 . S
C258 N266 1.356 . S
C259 C258 1.363 . S
C259 C265 1.363 . S
C260 C261 1.363 . S
C260 C265 1.379 . S
C260 N267 1.356 . S
C261 C260 1.363 . S
C261 C264 1.363 . S
N262 C264 1.356 . S
N262 H274 0.984 . S
N262 H275 0.985 . S
N263 C265 1.356 . S
N263 H268 0.984 . S
N263 H269 0.985 . S
C264 C258 1.379 . S
C264 C261 1.363 . S
C264 N262 1.356 . S
C265 C259 1.363 . S
C265 C260 1.379 . S
C265 N263 1.356 . S
N266 C258 1.356 . S
N266 H272 0.984 . S
N266 H273 0.984 . S
N267 C260 1.356 . S
N267 H270 0.984 . S
N267 H271 0.985 1_445 S
H268 N263 0.984 . S
H269 N263 0.985 . S
H270 N267 0.984 . S
H271 N267 0.985 1_665 S
H272 N266 0.984 . S
H273 N266 0.984 . S
H274 N262 0.984 . S
H275 N262 0.985 . S
C276 C277 1.363 . S
C276 C282 1.379 . S
C276 N284 1.356 . S
C277 C276 1.363 . S
C277 C283 1.363 1_554 S
C278 C279 1.363 . S
C278 C283 1.379 . S
C278 N285 1.356 . S
C279 C278 1.363 . S
C279 C282 1.363 1_556 S
N280 C282 1.356 . S
N280 H292 0.984 . S
N280 H293 0.985 1_554 S
N281 C283 1.356 . S
N281 H286 0.984 1_556 S
N281 H287 0.985 . S
C282 C276 1.379 . S
C282 C279 1.363 1_554 S
C282 N280 1.356 . S
C283 C277 1.363 1_556 S
C283 C278 1.379 . S
C283 N281 1.356 . S
N284 C276 1.356 . S
N284 H290 0.984 . S
N284 H291 0.984 . S
N285 C278 1.356 . S
N285 H288 0.984 . S
N285 H289 0.985 . S
H286 N281 0.984 1_554 S
H287 N281 0.985 . S
H288 N285 0.984 . S
H289 N285 0.985 . S
H290 N284 0.984 . S
H291 N284 0.984 . S
H292 N280 0.984 . S
H293 N280 0.985 1_556 S
C294 C295 1.363 1_545 S
C294 C300 1.379 1_556 S
C294 N302 1.356 1_545 S
C295 C294 1.363 1_565 S
C295 C301 1.363 . S
C296 C297 1.363 1_565 S
C296 C301 1.379 1_554 S
C296 N303 1.356 1_565 S
C297 C296 1.363 1_545 S
C297 C300 1.363 . S
N298 C300 1.356 . S
N298 H310 0.984 . S
N298 H311 0.985 . S
N299 C301 1.356 . S
N299 H304 0.984 . S
N299 H305 0.985 . S
C300 C294 1.379 1_554 S
C300 C297 1.363 . S
C300 N298 1.356 . S
C301 C295 1.363 . S
C301 C296 1.379 1_556 S
C301 N299 1.356 . S
N302 C294 1.356 1_565 S
N302 H308 0.984 1_565 S
N302 H309 0.984 . S
N303 C296 1.356 1_545 S
N303 H306 0.984 . S
N303 H307 0.985 1_545 S
H304 N299 0.984 . S
H305 N299 0.985 . S
H306 N303 0.984 . S
H307 N303 0.985 1_565 S
H308 N302 0.984 1_545 S
H309 N302 0.984 . S
H310 N298 0.984 . S
H311 N298 0.985 . S
C312 C313 1.363 1_655 S
C312 C318 1.379 1_556 S
C312 N320 1.356 . S
C313 C312 1.363 1_455 S
C313 C319 1.363 . S
C314 C315 1.363 1_455 S
C314 C319 1.379 1_554 S
C314 N321 1.356 . S
C315 C314 1.363 1_655 S
C315 C318 1.363 . S
N316 C318 1.356 . S
N316 H328 0.984 . S
N316 H329 0.985 . S
N317 C319 1.356 . S
N317 H322 0.984 . S
N317 H323 0.985 . S
C318 C312 1.379 1_554 S
C318 C315 1.363 . S
C318 N316 1.356 . S
C319 C313 1.363 . S
C319 C314 1.379 1_556 S
C319 N317 1.356 . S
N320 C312 1.356 . S
N320 H326 0.984 . S
N320 H327 0.984 . S
N321 C314 1.356 . S
N321 H324 0.984 . S
N321 H325 0.985 . S
H322 N317 0.984 . S
H323 N317 0.985 . S
H324 N321 0.984 . S
H325 N321 0.985 . S
H326 N320 0.984 . S
H327 N320 0.984 . S
H328 N316 0.984 . S
H329 N316 0.985 . S
C115 C26 1.470 . S
C117 C2 1.467 . S
C133 C40 1.468 . S
C135 C64 1.468 . S
C151 C78 1.468 . S
C153 C102 1.468 . S
C169 C99 2.217 . S
C171 C4 2.217 . S
C187 C93 1.495 . S
C189 C28 1.493 . S
C205 C96 1.777 . S
C207 C19 1.776 . S
C223 C42 2.217 . S
C225 C23 2.217 . S
C241 C66 1.495 . S
C243 C17 1.497 . S
C259 C57 1.777 . S
C261 C20 1.778 . S
C277 C61 2.217 . S
C279 C80 2.217 . S
C295 C104 1.495 . S
C297 C55 1.495 . S
C313 C95 1.777 . S
C315 C58 1.777 . S
