# Generated by pormake.
# Topology ecs, (8)-cn, num edge types: 1
# Building blocks:
#     Node 0, Type 0, BuildingBlock: TAGTUT_clean_sbu_3, # of connection points: 8
#     Node 1, Type 0, BuildingBlock: TAGTUT_clean_sbu_3, # of connection points: 8
#     Node 2, Type 0, BuildingBlock: TAGTUT_clean_sbu_3, # of connection points: 8
#     Node 3, Type 0, BuildingBlock: TAGTUT_clean_sbu_3, # of connection points: 8
#     Node 4, Type 0, BuildingBlock: TAGTUT_clean_sbu_3, # of connection points: 8
#     Node 5, Type 0, BuildingBlock: TAGTUT_clean_sbu_3, # of connection points: 8
#     Node 6, Type 0, BuildingBlock: TAGTUT_clean_sbu_3, # of connection points: 8
#     Node 7, Type 0, BuildingBlock: TAGTUT_clean_sbu_3, # of connection points: 8
#     Node 8, Type 0, BuildingBlock: TAGTUT_clean_sbu_3, # of connection points: 8
#     Node 9, Type 0, BuildingBlock: TAGTUT_clean_sbu_3, # of connection points: 8
#     Node 10, Type 0, BuildingBlock: TAGTUT_clean_sbu_3, # of connection points: 8
#     Node 11, Type 0, BuildingBlock: TAGTUT_clean_sbu_3, # of connection points: 8
#     Edge 12, Type (0, 0), None
#     Edge 13, Type (0, 0), None
#     Edge 14, Type (0, 0), None
#     Edge 15, Type (0, 0), None
#     Edge 16, Type (0, 0), None
#     Edge 17, Type (0, 0), None
#     Edge 18, Type (0, 0), None
#     Edge 19, Type (0, 0), None
#     Edge 20, Type (0, 0), None
#     Edge 21, Type (0, 0), None
#     Edge 22, Type (0, 0), None
#     Edge 23, Type (0, 0), None
#     Edge 24, Type (0, 0), None
#     Edge 25, Type (0, 0), None
#     Edge 26, Type (0, 0), None
#     Edge 27, Type (0, 0), None
#     Edge 28, Type (0, 0), None
#     Edge 29, Type (0, 0), None
#     Edge 30, Type (0, 0), None
#     Edge 31, Type (0, 0), None
#     Edge 32, Type (0, 0), None
#     Edge 33, Type (0, 0), None
#     Edge 34, Type (0, 0), None
#     Edge 35, Type (0, 0), None
#     Edge 36, Type (0, 0), None
#     Edge 37, Type (0, 0), None
#     Edge 38, Type (0, 0), None
#     Edge 39, Type (0, 0), None
#     Edge 40, Type (0, 0), None
#     Edge 41, Type (0, 0), None
#     Edge 42, Type (0, 0), None
#     Edge 43, Type (0, 0), None
#     Edge 44, Type (0, 0), None
#     Edge 45, Type (0, 0), None
#     Edge 46, Type (0, 0), None
#     Edge 47, Type (0, 0), None
#     Edge 48, Type (0, 0), None
#     Edge 49, Type (0, 0), None
#     Edge 50, Type (0, 0), None
#     Edge 51, Type (0, 0), None
#     Edge 52, Type (0, 0), None
#     Edge 53, Type (0, 0), None
#     Edge 54, Type (0, 0), None
#     Edge 55, Type (0, 0), None
#     Edge 56, Type (0, 0), None
#     Edge 57, Type (0, 0), None
#     Edge 58, Type (0, 0), None
#     Edge 59, Type (0, 0), None
# Relax obj value: 0.353
# Max RMSD: 0.278
# Mean RMSD: 0.278
data_MOF--net-ecs--node1-TAGTUT_clean_sbu_3--edge1-none
_symmetry_space_group_name_H-M    P1
_symmetry_Int_Tables_number       1
_symmetry_cell_setting            triclinic
loop_
_symmetry_equiv_pos_as_xyz
'x, y, z'
_cell_length_a     26.752078
_cell_length_b     26.751488
_cell_length_c     15.903418
_cell_angle_alpha  89.992753
_cell_angle_beta   90.007174
_cell_angle_gamma 119.99768
loop_
_atom_site_label
_atom_site_type_symbol
_atom_site_fract_x
_atom_site_fract_y
_atom_site_fract_z
_atom_type_partial_charge
C0 C 0.40944 0.24052 0.00162 0.0
C1 C 0.51406 0.40631 0.85754 0.0
C2 C 0.4822 0.4908 -0.0068 0.0
Mg3 Mg 0.40336 0.22786 0.21618 0.0
Mg4 Mg 0.52559 0.30519 0.3142 0.0
O5 O 0.46152 0.30464 0.26132 0.0
Mg6 Mg 0.48032 0.34473 0.14861 0.0
O7 O 0.49159 0.37848 0.04015 0.0
Mg8 Mg 0.41099 0.35893 0.00249 0.0
Mg9 Mg 0.5512 0.45507 0.03127 0.0
C10 C 0.56741 0.435 0.28087 0.0
O11 O 0.58112 0.36933 0.14328 0.0
O12 O 0.39449 0.19577 0.36434 0.0
O13 O 0.61876 0.46125 0.09885 0.0
O14 O 0.47371 0.2028 0.18987 0.0
O15 O 0.48128 0.24887 0.42607 0.0
O16 O 0.56164 0.27 0.22978 0.0
O17 O 0.38978 0.34264 0.14563 0.0
O18 O 0.33554 0.26903 0.22669 0.0
C19 C 0.34252 0.31455 0.18662 0.0
C20 C 0.42825 0.2077 0.42966 0.0
O21 O 0.526 0.42588 0.23006 0.0
O22 O 0.45935 0.37642 0.87252 0.0
O23 O 0.58165 0.39671 0.2962 0.0
O24 O 0.439 0.45062 0.03003 0.0
O25 O 0.55278 0.43769 0.91051 0.0
O26 O 0.52786 0.51785 0.03607 0.0
O27 O 0.43737 0.25715 0.07239 0.0
O28 O 0.38229 0.2652 -0.02363 0.0
C29 C 0.52901 0.22664 0.18542 0.0
C30 C 0.62422 0.42193 0.1346 0.0
C31 C 0.73402 0.16381 0.00166 0.0
C32 C 0.56846 0.10288 0.85751 0.0
C33 C 0.48369 0.98657 -0.00732 0.0
Mg34 Mg 0.74666 0.17038 0.21619 0.0
Mg35 Mg 0.66938 0.21535 0.31414 0.0
O36 O 0.66987 0.15179 0.26132 0.0
Mg37 Mg 0.6298 0.13053 0.1486 0.0
O38 O 0.5961 0.10809 0.04013 0.0
Mg39 Mg 0.61559 0.04702 0.00244 0.0
Mg40 Mg 0.51957 0.09121 0.03117 0.0
C41 C 0.53956 0.1275 0.28077 0.0
O42 O 0.6053 0.20681 0.14318 0.0
O43 O 0.77872 0.19357 0.36437 0.0
O44 O 0.5134 0.15261 0.09862 0.0
O45 O 0.7718 0.26582 0.18984 0.0
O46 O 0.72565 0.22732 0.42605 0.0
O47 O 0.70462 0.28658 0.22971 0.0
O48 O 0.63177 0.04199 0.14567 0.0
O49 O 0.70544 0.06139 0.22666 0.0
C50 C 0.6599 0.02284 0.18665 0.0
C51 C 0.76679 0.21541 0.42966 0.0
O52 O 0.54863 0.09516 0.23003 0.0
O53 O 0.59824 0.07793 0.87244 0.0
O54 O 0.57789 0.18002 0.29603 0.0
O55 O 0.52382 0.9835 0.02964 0.0
O56 O 0.53712 0.11026 0.91048 0.0
O57 O 0.45659 0.00516 0.03548 0.0
O58 O 0.71739 0.17512 0.0724 0.0
O59 O 0.70938 0.11196 -0.02351 0.0
C60 C 0.74798 0.29729 0.18537 0.0
C61 C 0.55273 0.19736 0.13438 0.0
C62 C 0.95167 0.63199 0.18674 0.0
C63 C 0.75918 0.54627 0.42979 0.0
C64 C 0.67724 0.44562 0.18559 0.0
Mg65 Mg 0.92766 0.56357 0.00264 0.0
Mg66 Mg 0.88357 0.42337 0.03128 0.0
O67 O 0.86653 0.48295 0.0401 0.0
Mg68 Mg 0.84397 0.49419 0.14857 0.0
O69 O 0.82271 0.51294 0.26134 0.0
Mg70 Mg 0.8042 0.57123 0.21638 0.0
Mg71 Mg 0.75921 0.44891 0.31426 0.0
C72 C 0.77728 0.3503 0.13436 0.0
O73 O 0.87942 0.44843 0.23 0.0
O74 O 0.89686 0.5152 0.87259 0.0
O75 O 0.79457 0.39278 0.29601 0.0
O76 O -0.00863 0.53564 0.0305 0.0
O77 O 0.86477 0.42176 0.91043 0.0
O78 O 0.96971 0.44677 0.03647 0.0
O79 O 0.79928 0.53725 0.07251 0.0
O80 O 0.86258 0.59211 -0.02364 0.0
C81 C 0.81074 0.565 0.00155 0.0
C82 C 0.87211 0.4605 0.8575 0.0
O83 O 0.76778 0.3934 0.14311 0.0
O84 O 0.78103 0.58005 0.36452 0.0
O85 O 0.82209 0.35578 0.0987 0.0
O86 O 0.70874 0.50092 0.19004 0.0
O87 O 0.74726 0.49322 0.42617 0.0
O88 O 0.68795 0.41295 0.22991 0.0
O89 O 0.93227 0.58471 0.14572 0.0
O90 O 0.91324 0.63905 0.22695 0.0
C91 C -0.01161 0.49247 -0.00635 0.0
C92 C 0.84709 0.407 0.28075 0.0
C93 C 0.23541 0.41449 0.39339 0.0
C94 C 0.40095 0.51911 0.53742 0.0
C95 C 0.48576 0.48758 0.40227 0.0
Mg96 Mg 0.22274 0.40839 0.17882 0.0
Mg97 Mg 0.29999 0.5306 0.08074 0.0
O98 O 0.29951 0.46657 0.13364 0.0
Mg99 Mg 0.3396 0.48541 0.24636 0.0
O100 O 0.37333 0.49668 0.35481 0.0
Mg101 Mg 0.35383 0.41612 0.39258 0.0
Mg102 Mg 0.44986 0.55633 0.36374 0.0
C103 C 0.42982 0.57259 0.1141 0.0
O104 O 0.36417 0.58623 0.25168 0.0
O105 O 0.19065 0.39949 0.03059 0.0
O106 O 0.45607 0.6239 0.2962 0.0
O107 O 0.19763 0.47871 0.20513 0.0
O108 O 0.24368 0.48628 -0.03115 0.0
O109 O 0.26483 0.56664 0.1652 0.0
O110 O 0.33763 0.39489 0.24937 0.0
O111 O 0.26394 0.3406 0.16839 0.0
C112 C 0.3095 0.34762 0.20841 0.0
C113 C 0.20256 0.43323 -0.03474 0.0
O114 O 0.42075 0.53119 0.16486 0.0
O115 O 0.37121 0.46439 0.52254 0.0
O116 O 0.39147 0.58676 0.09878 0.0
O117 O 0.44562 0.44434 0.36541 0.0
O118 O 0.43227 0.55783 0.48441 0.0
O119 O 0.51282 0.53323 0.35938 0.0
O120 O 0.25202 0.44243 0.32262 0.0
O121 O 0.26005 0.38728 0.41856 0.0
C122 C 0.2215 0.53402 0.20961 0.0
C123 C 0.41676 0.62934 0.26039 0.0
C124 C 0.62695 0.95672 0.20829 0.0
C125 C 0.54129 0.76428 -0.03489 0.0
C126 C 0.44049 0.68234 0.20935 0.0
Mg127 Mg 0.55852 0.9327 0.39244 0.0
Mg128 Mg 0.41832 0.88859 0.36369 0.0
O129 O 0.47793 0.87159 0.35486 0.0
Mg130 Mg 0.48917 0.84907 0.24638 0.0
O131 O 0.50794 0.82782 0.13361 0.0
Mg132 Mg 0.56617 0.80925 0.1786 0.0
Mg133 Mg 0.44391 0.76434 0.08061 0.0
C134 C 0.34527 0.78243 0.2604 0.0
O135 O 0.44349 0.88458 0.16494 0.0
O136 O 0.51018 0.90189 0.52244 0.0
O137 O 0.38784 0.79979 0.09879 0.0
O138 O 0.5305 -0.00362 0.36486 0.0
O139 O 0.41674 0.86966 0.48448 0.0
O140 O 0.44161 0.97469 0.35889 0.0
O141 O 0.53219 0.80433 0.3225 0.0
O142 O 0.58711 0.86765 0.41858 0.0
C143 C 0.55995 0.81579 0.39346 0.0
C144 C 0.45547 0.87704 0.53744 0.0
O145 O 0.38836 0.7729 0.25172 0.0
O146 O 0.57504 0.78611 0.03042 0.0
O147 O 0.35074 0.8272 0.29614 0.0
O148 O 0.49579 0.71381 0.20491 0.0
O149 O 0.48824 0.75237 -0.03129 0.0
O150 O 0.40786 0.69308 0.16497 0.0
O151 O 0.57969 0.93736 0.24933 0.0
O152 O 0.63401 0.91828 0.16808 0.0
C153 C 0.48729 -0.00665 0.40172 0.0
C154 C 0.40209 0.85232 0.11412 0.0
C155 C 0.01783 0.66503 0.20817 0.0
C156 C 0.21034 0.77186 -0.03488 0.0
C157 C 0.29227 0.75312 0.20939 0.0
Mg158 Mg 0.04187 0.62067 0.39235 0.0
Mg159 Mg 0.08601 0.5246 0.36372 0.0
O160 O 0.10298 0.60118 0.35481 0.0
Mg161 Mg 0.12554 0.63494 0.24634 0.0
O162 O 0.1468 0.67497 0.13357 0.0
Mg163 Mg 0.16531 0.75177 0.17853 0.0
Mg164 Mg 0.21033 0.67448 0.08069 0.0
C165 C 0.19225 0.55776 0.26065 0.0
O166 O 0.09016 0.55375 0.1649 0.0
O167 O 0.07267 0.60319 0.5224 0.0
O168 O 0.17505 0.58302 0.09897 0.0
O169 O 0.97821 0.52895 0.36489 0.0
O170 O 0.10493 0.542 0.48447 0.0
O171 O -8e-05 0.46176 0.3589 0.0
O172 O 0.17023 0.7227 0.32239 0.0
O173 O 0.10693 0.71432 0.41845 0.0
C174 C 0.15879 0.73901 0.39332 0.0
C175 C 0.09756 0.57337 0.53741 0.0
O176 O 0.20175 0.61036 0.25186 0.0
O177 O 0.18847 0.78378 0.03038 0.0
O178 O 0.14745 0.51844 0.29635 0.0
O179 O 0.26078 0.77694 0.2049 0.0
O180 O 0.22228 0.73074 -0.03123 0.0
O181 O 0.28156 0.70975 0.16507 0.0
O182 O 0.03719 0.63712 0.24919 0.0
O183 O 0.05627 0.71056 0.16801 0.0
C184 C 0.98127 0.48879 0.40175 0.0
C185 C 0.12253 0.54469 0.1142 0.0
C186 C 0.56007 0.73911 0.89329 0.0
C187 C 0.45542 0.57353 0.0373 0.0
C188 C 0.487 0.48878 0.902 0.0
Mg189 Mg 0.5661 0.75174 0.67876 0.0
Mg190 Mg 0.44384 0.67446 0.58075 0.0
O191 O 0.5079 0.67497 0.6336 0.0
Mg192 Mg 0.48911 0.63491 0.7463 0.0
O193 O 0.47787 0.60119 0.85474 0.0
Mg194 Mg 0.55843 0.62068 0.89247 0.0
Mg195 Mg 0.41823 0.52465 0.86361 0.0
C196 C 0.4018 0.54465 0.61425 0.0
O197 O 0.38831 0.6104 0.7517 0.0
O198 O 0.57497 0.78381 0.5306 0.0
O199 O 0.35063 0.51849 0.79622 0.0
O200 O 0.49579 0.77687 0.70507 0.0
O201 O 0.48816 0.73074 0.46888 0.0
O202 O 0.40785 0.7097 0.66514 0.0
O203 O 0.57962 0.63688 0.74926 0.0
O204 O 0.6339 0.71055 0.66829 0.0
C205 C 0.6269 0.665 0.70831 0.0
C206 C 0.54121 0.77187 0.46529 0.0
O207 O 0.44331 0.55374 0.66484 0.0
O208 O 0.51015 0.6033 0.02246 0.0
O209 O 0.38764 0.58298 0.59877 0.0
O210 O 0.53023 0.52893 0.86513 0.0
O211 O 0.41673 0.54223 -0.01573 0.0
O212 O 0.44132 0.46168 0.85917 0.0
O213 O 0.5321 0.72249 0.82255 0.0
O214 O 0.58725 0.71446 0.91851 0.0
C215 C 0.44049 0.75306 0.70951 0.0
C216 C 0.34518 0.55782 0.76047 0.0
C217 C 0.30947 0.95673 0.70813 0.0
C218 C 0.20273 0.76423 0.46512 0.0
C219 C 0.22158 0.68233 0.70933 0.0
Mg220 Mg 0.35385 0.93271 0.8923 0.0
Mg221 Mg 0.44994 0.8886 0.86357 0.0
O222 O 0.37334 0.87159 0.85477 0.0
Mg223 Mg 0.33959 0.84906 0.7463 0.0
O224 O 0.29961 0.8278 0.63351 0.0
Mg225 Mg 0.22281 0.80925 0.67849 0.0
Mg226 Mg 0.30019 0.76431 0.58061 0.0
C227 C 0.41678 0.78235 0.7605 0.0
O228 O 0.42079 0.88457 0.66491 0.0
O229 O 0.3714 0.90191 0.02235 0.0
O230 O 0.39172 0.79974 0.59874 0.0
O231 O 0.44553 -0.00362 0.86462 0.0
O232 O 0.43261 0.86968 -0.01565 0.0
O233 O 0.51276 0.97471 0.85866 0.0
O234 O 0.25184 0.80432 0.82238 0.0
O235 O 0.26023 0.86765 0.91849 0.0
C236 C 0.23554 0.8158 0.8933 0.0
C237 C 0.40127 0.87706 0.03733 0.0
O238 O 0.3642 0.77287 0.75169 0.0
O239 O 0.1908 0.78608 0.53038 0.0
O240 O 0.45611 0.82715 0.79619 0.0
O241 O 0.19775 0.71381 0.70485 0.0
O242 O 0.24387 0.75232 0.46873 0.0
O243 O 0.26495 0.69306 0.665 0.0
O244 O 0.33735 0.93734 0.74919 0.0
O245 O 0.26399 0.91829 0.66791 0.0
C246 C 0.4857 -0.00666 0.90146 0.0
C247 C 0.42997 0.85225 0.61426 0.0
C248 C 0.15866 0.41443 0.89334 0.0
C249 C 0.09792 0.5191 0.03736 0.0
C250 C 0.98163 0.48775 0.90243 0.0
Mg251 Mg 0.16527 0.40844 0.67877 0.0
Mg252 Mg 0.21019 0.53068 0.58066 0.0
O253 O 0.14667 0.46662 0.63358 0.0
Mg254 Mg 0.12543 0.48541 0.74631 0.0
O255 O 0.10302 0.49667 0.85477 0.0
Mg256 Mg 0.04194 0.41614 0.89255 0.0
Mg257 Mg 0.0862 0.55636 0.86368 0.0
C258 C 0.12234 0.57264 0.61424 0.0
O259 O 0.20172 0.5862 0.75161 0.0
O260 O 0.18844 0.39954 0.53057 0.0
O261 O 0.14758 0.62395 0.79621 0.0
O262 O 0.26069 0.4788 0.70506 0.0
O263 O 0.22217 0.48633 0.46879 0.0
O264 O 0.28145 0.56672 0.66505 0.0
O265 O 0.03688 0.39492 0.74931 0.0
O266 O 0.05629 0.34065 0.66833 0.0
C267 C 0.01774 0.34765 0.70834 0.0
C268 C 0.21026 0.43328 0.46524 0.0
O269 O 0.09 0.53117 0.6649 0.0
O270 O 0.07287 0.46437 0.02254 0.0
O271 O 0.17483 0.58684 0.5987 0.0
O272 O 0.97852 0.44454 0.86544 0.0
O273 O 0.10536 0.55781 -0.01569 0.0
O274 O 0.00019 0.53346 0.8597 0.0
O275 O 0.17004 0.44241 0.8226 0.0
O276 O 0.1068 0.38718 0.91845 0.0
C277 C 0.29217 0.5341 0.70947 0.0
C278 C 0.19231 0.62935 0.76041 0.0
C279 C 0.66007 0.63203 0.68671 0.0
C280 C 0.76679 0.54628 0.92978 0.0
C281 C 0.74798 0.44554 0.68562 0.0
Mg282 Mg 0.61565 0.56362 0.50258 0.0
Mg283 Mg 0.51954 0.42342 0.53141 0.0
O284 O 0.59614 0.48301 0.54018 0.0
Mg285 Mg 0.62992 0.49423 0.64863 0.0
O286 O 0.66993 0.51297 0.76138 0.0
Mg287 Mg 0.74672 0.57121 0.71638 0.0
Mg288 Mg 0.66936 0.44891 0.81431 0.0
C289 C 0.55266 0.35031 0.63458 0.0
O290 O 0.54874 0.44856 0.73008 0.0
O291 O 0.59809 0.51529 0.37257 0.0
O292 O 0.57784 0.39282 0.79627 0.0
O293 O 0.52397 0.53568 0.53023 0.0
O294 O 0.53692 0.42186 0.41065 0.0
O295 O 0.45677 0.44677 0.53638 0.0
O296 O 0.71766 0.53722 0.57252 0.0
O297 O 0.70926 0.59214 0.47638 0.0
C298 C 0.73396 0.565 0.50158 0.0
C299 C 0.56825 0.46057 0.35765 0.0
O300 O 0.60526 0.3934 0.64329 0.0
O301 O 0.77873 0.58006 0.8645 0.0
O302 O 0.51335 0.3558 0.59885 0.0
O303 O 0.7718 0.50084 0.69007 0.0
O304 O 0.72565 0.49323 0.92618 0.0
O305 O 0.7046 0.4129 0.72995 0.0
O306 O 0.63218 0.58477 0.64567 0.0
O307 O 0.70556 0.63909 0.72691 0.0
C308 C 0.48378 0.49242 0.49349 0.0
C309 C 0.53958 0.40706 0.78073 0.0
C310 C 0.34258 0.02289 0.68668 0.0
C311 C 0.42821 0.21533 0.92983 0.0
C312 C 0.52894 0.2973 0.68558 0.0
Mg313 Mg 0.41103 0.04698 0.50251 0.0
Mg314 Mg 0.55125 0.09125 0.53131 0.0
O315 O 0.49159 0.10813 0.54016 0.0
Mg316 Mg 0.48036 0.13063 0.64862 0.0
O317 O 0.46159 0.15184 0.76139 0.0
Mg318 Mg 0.40332 0.17036 0.71637 0.0
Mg319 Mg 0.52561 0.21536 0.81433 0.0
C320 C 0.6243 0.19743 0.63449 0.0
O321 O 0.52615 0.09521 0.73005 0.0
O322 O 0.45927 0.07783 0.37248 0.0
O323 O 0.58182 0.18008 0.79617 0.0
O324 O 0.4393 0.98347 0.52986 0.0
O325 O 0.55272 0.11029 0.41063 0.0
O326 O 0.52823 0.0052 0.53574 0.0
O327 O 0.43729 0.17532 0.57248 0.0
O328 O 0.38229 0.11194 0.47647 0.0
C329 C 0.4095 0.16381 0.50155 0.0
C330 C 0.514 0.10285 0.35761 0.0
O331 O 0.58118 0.20689 0.64325 0.0
O332 O 0.39444 0.19348 0.86454 0.0
O333 O 0.61886 0.15268 0.5987 0.0
O334 O 0.47364 0.26583 0.69004 0.0
O335 O 0.48128 0.2273 0.92623 0.0
O336 O 0.56159 0.28659 0.72996 0.0
O337 O 0.38987 0.04224 0.64569 0.0
O338 O 0.33549 0.06133 0.72682 0.0
C339 C 0.48253 0.98658 0.49296 0.0
C340 C 0.56765 0.12759 0.78067 0.0
C341 C 0.95162 0.31449 0.68667 0.0
C342 C 0.7592 0.20775 0.92983 0.0
C343 C 0.6773 0.22669 0.68555 0.0
Mg344 Mg 0.92756 0.35888 0.50247 0.0
Mg345 Mg 0.88337 0.4549 0.5313 0.0
O346 O 0.86645 0.37834 0.54013 0.0
Mg347 Mg 0.84396 0.34461 0.64861 0.0
O348 O 0.82275 0.30463 0.76139 0.0
Mg349 Mg 0.80416 0.22783 0.71638 0.0
Mg350 Mg 0.75928 0.30523 0.81435 0.0
C351 C 0.77724 0.42181 0.63457 0.0
O352 O 0.87954 0.42582 0.72999 0.0
O353 O 0.89673 0.37635 0.37246 0.0
O354 O 0.79476 0.39678 0.79629 0.0
O355 O -0.00885 0.45062 0.52985 0.0
O356 O 0.86433 0.43739 0.41059 0.0
O357 O 0.96944 0.51784 0.5358 0.0
O358 O 0.7992 0.25685 0.57247 0.0
O359 O 0.86256 0.26521 0.47643 0.0
C360 C 0.8107 0.24056 0.50154 0.0
C361 C 0.87176 0.4061 0.35758 0.0
O362 O 0.76777 0.36923 0.64336 0.0
O363 O 0.78103 0.19582 0.86454 0.0
O364 O 0.822 0.46112 0.59879 0.0
O365 O 0.70873 0.20281 0.69005 0.0
O366 O 0.74728 0.24889 0.92623 0.0
O367 O 0.68804 0.27005 0.72993 0.0
O368 O 0.93227 0.3424 0.6456 0.0
O369 O 0.91318 0.269 0.72687 0.0
C370 C -0.01195 0.49077 0.49298 0.0
C371 C 0.84727 0.43502 0.7807 0.0
loop_
_geom_bond_atom_site_label_1
_geom_bond_atom_site_label_2
_geom_bond_distance
_geom_bond_site_symmetry_2
_ccdc_geom_bond_type
C0 O27 1.312 1_556 S
C0 O28 1.208 . S
C1 O22 1.331 . S
C1 O25 1.244 . S
C2 O24 1.264 . S
C2 O26 1.273 . S
Mg3 O5 1.936 . S
Mg3 O12 2.081 . S
Mg3 O14 2.023 . S
Mg3 O18 2.031 . S
Mg3 O27 2.291 . S
Mg4 O5 1.963 . S
Mg4 O15 1.942 . S
Mg4 O16 1.955 . S
Mg4 O23 1.986 . S
O5 Mg3 1.936 . S
O5 Mg4 1.963 . S
O5 Mg6 1.915 . S
Mg6 O5 1.915 . S
Mg6 O7 1.915 . S
Mg6 O11 2.013 . S
Mg6 O17 2.114 . S
Mg6 O21 2.013 . S
Mg6 O27 2.114 . S
O7 Mg6 1.915 . S
O7 Mg8 1.936 1_554 S
O7 Mg9 1.963 . S
Mg8 O7 1.936 1_556 S
Mg8 O17 2.291 1_556 S
Mg8 O22 2.081 . S
Mg8 O24 2.023 1_556 S
Mg8 O28 2.031 . S
Mg9 O7 1.963 . S
Mg9 O13 1.986 . S
Mg9 O25 1.942 1_554 S
Mg9 O26 1.955 . S
C10 O21 1.191 . S
C10 O23 1.307 . S
O11 Mg6 2.013 . S
O11 C30 1.191 . S
O12 Mg3 2.081 . S
O12 C20 1.331 . S
O13 Mg9 1.986 . S
O13 C30 1.307 . S
O14 Mg3 2.023 . S
O14 C29 1.264 . S
O15 Mg4 1.942 . S
O15 C20 1.244 . S
O16 Mg4 1.955 . S
O16 C29 1.273 . S
O17 Mg6 2.114 . S
O17 Mg8 2.291 1_554 S
O17 C19 1.312 . S
O18 Mg3 2.031 . S
O18 C19 1.208 . S
C19 O17 1.312 . S
C19 O18 1.208 . S
C20 O12 1.331 . S
C20 O15 1.244 . S
O21 Mg6 2.013 . S
O21 C10 1.191 . S
O22 C1 1.331 . S
O22 Mg8 2.081 . S
O23 Mg4 1.986 . S
O23 C10 1.307 . S
O24 C2 1.264 . S
O24 Mg8 2.023 1_554 S
O25 C1 1.244 . S
O25 Mg9 1.942 1_556 S
O26 C2 1.273 . S
O26 Mg9 1.955 . S
O27 C0 1.312 1_554 S
O27 Mg3 2.291 . S
O27 Mg6 2.114 . S
O28 C0 1.208 . S
O28 Mg8 2.031 . S
C29 O14 1.264 . S
C29 O16 1.273 . S
C30 O11 1.191 . S
C30 O13 1.307 . S
C31 O58 1.312 1_556 S
C31 O59 1.208 . S
C32 O53 1.331 . S
C32 O56 1.244 . S
C33 O55 1.264 . S
C33 O57 1.273 1_565 S
Mg34 O36 1.936 . S
Mg34 O43 2.081 . S
Mg34 O45 2.023 . S
Mg34 O49 2.031 . S
Mg34 O58 2.291 . S
Mg35 O36 1.963 . S
Mg35 O46 1.942 . S
Mg35 O47 1.955 . S
Mg35 O54 1.986 . S
O36 Mg34 1.936 . S
O36 Mg35 1.963 . S
O36 Mg37 1.915 . S
Mg37 O36 1.915 . S
Mg37 O38 1.915 . S
Mg37 O42 2.013 . S
Mg37 O48 2.114 . S
Mg37 O52 2.013 . S
Mg37 O58 2.114 . S
O38 Mg37 1.915 . S
O38 Mg39 1.936 1_554 S
O38 Mg40 1.963 . S
Mg39 O38 1.936 1_556 S
Mg39 O48 2.291 1_556 S
Mg39 O53 2.081 . S
Mg39 O55 2.023 1_546 S
Mg39 O59 2.031 . S
Mg40 O38 1.963 . S
Mg40 O44 1.986 . S
Mg40 O56 1.942 1_554 S
Mg40 O57 1.955 . S
C41 O52 1.191 . S
C41 O54 1.307 . S
O42 Mg37 2.013 . S
O42 C61 1.191 . S
O43 Mg34 2.081 . S
O43 C51 1.331 . S
O44 Mg40 1.986 . S
O44 C61 1.307 . S
O45 Mg34 2.023 . S
O45 C60 1.264 . S
O46 Mg35 1.942 . S
O46 C51 1.244 . S
O47 Mg35 1.955 . S
O47 C60 1.273 . S
O48 Mg37 2.114 . S
O48 Mg39 2.291 1_554 S
O48 C50 1.312 . S
O49 Mg34 2.031 . S
O49 C50 1.208 . S
C50 O48 1.312 . S
C50 O49 1.208 . S
C51 O43 1.331 . S
C51 O46 1.244 . S
O52 Mg37 2.013 . S
O52 C41 1.191 . S
O53 C32 1.331 . S
O53 Mg39 2.081 . S
O54 Mg35 1.986 . S
O54 C41 1.307 . S
O55 C33 1.264 . S
O55 Mg39 2.023 1_564 S
O56 C32 1.244 . S
O56 Mg40 1.942 1_556 S
O57 C33 1.273 1_545 S
O57 Mg40 1.955 . S
O58 C31 1.312 1_554 S
O58 Mg34 2.291 . S
O58 Mg37 2.114 . S
O59 C31 1.208 . S
O59 Mg39 2.031 . S
C60 O45 1.264 . S
C60 O47 1.273 . S
C61 O42 1.191 . S
C61 O44 1.307 . S
C62 O89 1.312 . S
C62 O90 1.208 . S
C63 O84 1.331 . S
C63 O87 1.244 . S
C64 O86 1.264 . S
C64 O88 1.273 . S
Mg65 O67 1.936 1_556 S
Mg65 O74 2.081 . S
Mg65 O76 2.023 1_656 S
Mg65 O80 2.031 . S
Mg65 O89 2.291 1_556 S
Mg66 O67 1.963 . S
Mg66 O77 1.942 1_554 S
Mg66 O78 1.955 . S
Mg66 O85 1.986 . S
O67 Mg65 1.936 1_554 S
O67 Mg66 1.963 . S
O67 Mg68 1.915 . S
Mg68 O67 1.915 . S
Mg68 O69 1.915 . S
Mg68 O73 2.013 . S
Mg68 O79 2.114 . S
Mg68 O83 2.013 . S
Mg68 O89 2.114 . S
O69 Mg68 1.915 . S
O69 Mg70 1.936 . S
O69 Mg71 1.963 . S
Mg70 O69 1.936 . S
Mg70 O79 2.291 . S
Mg70 O84 2.081 . S
Mg70 O86 2.023 . S
Mg70 O90 2.031 . S
Mg71 O69 1.963 . S
Mg71 O75 1.986 . S
Mg71 O87 1.942 . S
Mg71 O88 1.955 . S
C72 O83 1.191 . S
C72 O85 1.307 . S
O73 Mg68 2.013 . S
O73 C92 1.191 . S
O74 Mg65 2.081 . S
O74 C82 1.331 . S
O75 Mg71 1.986 . S
O75 C92 1.307 . S
O76 Mg65 2.023 1_454 S
O76 C91 1.264 . S
O77 Mg66 1.942 1_556 S
O77 C82 1.244 . S
O78 Mg66 1.955 . S
O78 C91 1.273 1_655 S
O79 Mg68 2.114 . S
O79 Mg70 2.291 . S
O79 C81 1.312 1_554 S
O80 Mg65 2.031 . S
O80 C81 1.208 . S
C81 O79 1.312 1_556 S
C81 O80 1.208 . S
C82 O74 1.331 . S
C82 O77 1.244 . S
O83 Mg68 2.013 . S
O83 C72 1.191 . S
O84 C63 1.331 . S
O84 Mg70 2.081 . S
O85 Mg66 1.986 . S
O85 C72 1.307 . S
O86 C64 1.264 . S
O86 Mg70 2.023 . S
O87 C63 1.244 . S
O87 Mg71 1.942 . S
O88 C64 1.273 . S
O88 Mg71 1.955 . S
O89 C62 1.312 . S
O89 Mg65 2.291 1_554 S
O89 Mg68 2.114 . S
O90 C62 1.208 . S
O90 Mg70 2.031 . S
C91 O76 1.264 . S
C91 O78 1.273 1_455 S
C92 O73 1.191 . S
C92 O75 1.307 . S
C93 O120 1.312 . S
C93 O121 1.208 . S
C94 O115 1.331 . S
C94 O118 1.244 . S
C95 O117 1.264 . S
C95 O119 1.273 . S
Mg96 O98 1.936 . S
Mg96 O105 2.081 . S
Mg96 O107 2.023 . S
Mg96 O111 2.031 . S
Mg96 O120 2.291 . S
Mg97 O98 1.963 . S
Mg97 O108 1.942 . S
Mg97 O109 1.955 . S
Mg97 O116 1.986 . S
O98 Mg96 1.936 . S
O98 Mg97 1.963 . S
O98 Mg99 1.915 . S
Mg99 O98 1.915 . S
Mg99 O100 1.915 . S
Mg99 O104 2.013 . S
Mg99 O110 2.114 . S
Mg99 O114 2.013 . S
Mg99 O120 2.114 . S
O100 Mg99 1.915 . S
O100 Mg101 1.936 . S
O100 Mg102 1.963 . S
Mg101 O100 1.936 . S
Mg101 O110 2.291 . S
Mg101 O115 2.081 . S
Mg101 O117 2.023 . S
Mg101 O121 2.031 . S
Mg102 O100 1.963 . S
Mg102 O106 1.986 . S
Mg102 O118 1.942 . S
Mg102 O119 1.955 . S
C103 O114 1.191 . S
C103 O116 1.307 . S
O104 Mg99 2.013 . S
O104 C123 1.191 . S
O105 Mg96 2.081 . S
O105 C113 1.331 . S
O106 Mg102 1.986 . S
O106 C123 1.307 . S
O107 Mg96 2.023 . S
O107 C122 1.264 . S
O108 Mg97 1.942 . S
O108 C113 1.244 . S
O109 Mg97 1.955 . S
O109 C122 1.273 . S
O110 Mg99 2.114 . S
O110 Mg101 2.291 . S
O110 C112 1.312 . S
O111 Mg96 2.031 . S
O111 C112 1.208 . S
C112 O110 1.312 . S
C112 O111 1.208 . S
C113 O105 1.331 . S
C113 O108 1.244 . S
O114 Mg99 2.013 . S
O114 C103 1.191 . S
O115 C94 1.331 . S
O115 Mg101 2.081 . S
O116 Mg97 1.986 . S
O116 C103 1.307 . S
O117 C95 1.264 . S
O117 Mg101 2.023 . S
O118 C94 1.244 . S
O118 Mg102 1.942 . S
O119 C95 1.273 . S
O119 Mg102 1.955 . S
O120 C93 1.312 . S
O120 Mg96 2.291 . S
O120 Mg99 2.114 . S
O121 C93 1.208 . S
O121 Mg101 2.031 . S
C122 O107 1.264 . S
C122 O109 1.273 . S
C123 O104 1.191 . S
C123 O106 1.307 . S
C124 O151 1.312 . S
C124 O152 1.208 . S
C125 O146 1.331 . S
C125 O149 1.244 . S
C126 O148 1.264 . S
C126 O150 1.273 . S
Mg127 O129 1.936 . S
Mg127 O136 2.081 . S
Mg127 O138 2.023 1_565 S
Mg127 O142 2.031 . S
Mg127 O151 2.291 . S
Mg128 O129 1.963 . S
Mg128 O139 1.942 . S
Mg128 O140 1.955 . S
Mg128 O147 1.986 . S
O129 Mg127 1.936 . S
O129 Mg128 1.963 . S
O129 Mg130 1.915 . S
Mg130 O129 1.915 . S
Mg130 O131 1.915 . S
Mg130 O135 2.013 . S
Mg130 O141 2.114 . S
Mg130 O145 2.013 . S
Mg130 O151 2.114 . S
O131 Mg130 1.915 . S
O131 Mg132 1.936 . S
O131 Mg133 1.963 . S
Mg132 O131 1.936 . S
Mg132 O141 2.291 . S
Mg132 O146 2.081 . S
Mg132 O148 2.023 . S
Mg132 O152 2.031 . S
Mg133 O131 1.963 . S
Mg133 O137 1.986 . S
Mg133 O149 1.942 . S
Mg133 O150 1.955 . S
C134 O145 1.191 . S
C134 O147 1.307 . S
O135 Mg130 2.013 . S
O135 C154 1.191 . S
O136 Mg127 2.081 . S
O136 C144 1.331 . S
O137 Mg133 1.986 . S
O137 C154 1.307 . S
O138 Mg127 2.023 1_545 S
O138 C153 1.264 . S
O139 Mg128 1.942 . S
O139 C144 1.244 . S
O140 Mg128 1.955 . S
O140 C153 1.273 1_565 S
O141 Mg130 2.114 . S
O141 Mg132 2.291 . S
O141 C143 1.312 . S
O142 Mg127 2.031 . S
O142 C143 1.208 . S
C143 O141 1.312 . S
C143 O142 1.208 . S
C144 O136 1.331 . S
C144 O139 1.244 . S
O145 Mg130 2.013 . S
O145 C134 1.191 . S
O146 C125 1.331 . S
O146 Mg132 2.081 . S
O147 Mg128 1.986 . S
O147 C134 1.307 . S
O148 C126 1.264 . S
O148 Mg132 2.023 . S
O149 C125 1.244 . S
O149 Mg133 1.942 . S
O150 C126 1.273 . S
O150 Mg133 1.955 . S
O151 C124 1.312 . S
O151 Mg127 2.291 . S
O151 Mg130 2.114 . S
O152 C124 1.208 . S
O152 Mg132 2.031 . S
C153 O138 1.264 . S
C153 O140 1.273 1_545 S
C154 O135 1.191 . S
C154 O137 1.307 . S
C155 O182 1.312 . S
C155 O183 1.208 . S
C156 O177 1.331 . S
C156 O180 1.244 . S
C157 O179 1.264 . S
C157 O181 1.273 . S
Mg158 O160 1.936 . S
Mg158 O167 2.081 . S
Mg158 O169 2.023 1_455 S
Mg158 O173 2.031 . S
Mg158 O182 2.291 . S
Mg159 O160 1.963 . S
Mg159 O170 1.942 . S
Mg159 O171 1.955 . S
Mg159 O178 1.986 . S
O160 Mg158 1.936 . S
O160 Mg159 1.963 . S
O160 Mg161 1.915 . S
Mg161 O160 1.915 . S
Mg161 O162 1.915 . S
Mg161 O166 2.013 . S
Mg161 O172 2.114 . S
Mg161 O176 2.013 . S
Mg161 O182 2.114 . S
O162 Mg161 1.915 . S
O162 Mg163 1.936 . S
O162 Mg164 1.963 . S
Mg163 O162 1.936 . S
Mg163 O172 2.291 . S
Mg163 O177 2.081 . S
Mg163 O179 2.023 . S
Mg163 O183 2.031 . S
Mg164 O162 1.963 . S
Mg164 O168 1.986 . S
Mg164 O180 1.942 . S
Mg164 O181 1.955 . S
C165 O176 1.191 . S
C165 O178 1.307 . S
O166 Mg161 2.013 . S
O166 C185 1.191 . S
O167 Mg158 2.081 . S
O167 C175 1.331 . S
O168 Mg164 1.986 . S
O168 C185 1.307 . S
O169 Mg158 2.023 1_655 S
O169 C184 1.264 . S
O170 Mg159 1.942 . S
O170 C175 1.244 . S
O171 Mg159 1.955 . S
O171 C184 1.273 1_455 S
O172 Mg161 2.114 . S
O172 Mg163 2.291 . S
O172 C174 1.312 . S
O173 Mg158 2.031 . S
O173 C174 1.208 . S
C174 O172 1.312 . S
C174 O173 1.208 . S
C175 O167 1.331 . S
C175 O170 1.244 . S
O176 Mg161 2.013 . S
O176 C165 1.191 . S
O177 C156 1.331 . S
O177 Mg163 2.081 . S
O178 Mg159 1.986 . S
O178 C165 1.307 . S
O179 C157 1.264 . S
O179 Mg163 2.023 . S
O180 C156 1.244 . S
O180 Mg164 1.942 . S
O181 C157 1.273 . S
O181 Mg164 1.955 . S
O182 C155 1.312 . S
O182 Mg158 2.291 . S
O182 Mg161 2.114 . S
O183 C155 1.208 . S
O183 Mg163 2.031 . S
C184 O169 1.264 . S
C184 O171 1.273 1_655 S
C185 O166 1.191 . S
C185 O168 1.307 . S
C186 O213 1.312 1_554 S
C186 O214 1.208 . S
C187 O208 1.331 . S
C187 O211 1.244 . S
C188 O210 1.264 . S
C188 O212 1.273 . S
Mg189 O191 1.936 . S
Mg189 O198 2.081 . S
Mg189 O200 2.023 . S
Mg189 O204 2.031 . S
Mg189 O213 2.291 . S
Mg190 O191 1.963 . S
Mg190 O201 1.942 . S
Mg190 O202 1.955 . S
Mg190 O209 1.986 . S
O191 Mg189 1.936 . S
O191 Mg190 1.963 . S
O191 Mg192 1.915 . S
Mg192 O191 1.915 . S
Mg192 O193 1.915 . S
Mg192 O197 2.013 . S
Mg192 O203 2.114 . S
Mg192 O207 2.013 . S
Mg192 O213 2.114 . S
O193 Mg192 1.915 . S
O193 Mg194 1.936 1_556 S
O193 Mg195 1.963 . S
Mg194 O193 1.936 1_554 S
Mg194 O203 2.291 1_554 S
Mg194 O208 2.081 . S
Mg194 O210 2.023 1_554 S
Mg194 O214 2.031 . S
Mg195 O193 1.963 . S
Mg195 O199 1.986 . S
Mg195 O211 1.942 1_556 S
Mg195 O212 1.955 . S
C196 O207 1.191 . S
C196 O209 1.307 . S
O197 Mg192 2.013 . S
O197 C216 1.191 . S
O198 Mg189 2.081 . S
O198 C206 1.331 . S
O199 Mg195 1.986 . S
O199 C216 1.307 . S
O200 Mg189 2.023 . S
O200 C215 1.264 . S
O201 Mg190 1.942 . S
O201 C206 1.244 . S
O202 Mg190 1.955 . S
O202 C215 1.273 . S
O203 Mg192 2.114 . S
O203 Mg194 2.291 1_556 S
O203 C205 1.312 . S
O204 Mg189 2.031 . S
O204 C205 1.208 . S
C205 O203 1.312 . S
C205 O204 1.208 . S
C206 O198 1.331 . S
C206 O201 1.244 . S
O207 Mg192 2.013 . S
O207 C196 1.191 . S
O208 C187 1.331 . S
O208 Mg194 2.081 . S
O209 Mg190 1.986 . S
O209 C196 1.307 . S
O210 C188 1.264 . S
O210 Mg194 2.023 1_556 S
O211 C187 1.244 . S
O211 Mg195 1.942 1_554 S
O212 C188 1.273 . S
O212 Mg195 1.955 . S
O213 C186 1.312 1_556 S
O213 Mg189 2.291 . S
O213 Mg192 2.114 . S
O214 C186 1.208 . S
O214 Mg194 2.031 . S
C215 O200 1.264 . S
C215 O202 1.273 . S
C216 O197 1.191 . S
C216 O199 1.307 . S
C217 O244 1.312 . S
C217 O245 1.208 . S
C218 O239 1.331 . S
C218 O242 1.244 . S
C219 O241 1.264 . S
C219 O243 1.273 . S
Mg220 O222 1.936 1_554 S
Mg220 O229 2.081 . S
Mg220 O231 2.023 1_564 S
Mg220 O235 2.031 . S
Mg220 O244 2.291 1_554 S
Mg221 O222 1.963 . S
Mg221 O232 1.942 1_556 S
Mg221 O233 1.955 . S
Mg221 O240 1.986 . S
O222 Mg220 1.936 1_556 S
O222 Mg221 1.963 . S
O222 Mg223 1.915 . S
Mg223 O222 1.915 . S
Mg223 O224 1.915 . S
Mg223 O228 2.013 . S
Mg223 O234 2.114 . S
Mg223 O238 2.013 . S
Mg223 O244 2.114 . S
O224 Mg223 1.915 . S
O224 Mg225 1.936 . S
O224 Mg226 1.963 . S
Mg225 O224 1.936 . S
Mg225 O234 2.291 . S
Mg225 O239 2.081 . S
Mg225 O241 2.023 . S
Mg225 O245 2.031 . S
Mg226 O224 1.963 . S
Mg226 O230 1.986 . S
Mg226 O242 1.942 . S
Mg226 O243 1.955 . S
C227 O238 1.191 . S
C227 O240 1.307 . S
O228 Mg223 2.013 . S
O228 C247 1.191 . S
O229 Mg220 2.081 . S
O229 C237 1.331 . S
O230 Mg226 1.986 . S
O230 C247 1.307 . S
O231 Mg220 2.023 1_546 S
O231 C246 1.264 . S
O232 Mg221 1.942 1_554 S
O232 C237 1.244 . S
O233 Mg221 1.955 . S
O233 C246 1.273 1_565 S
O234 Mg223 2.114 . S
O234 Mg225 2.291 . S
O234 C236 1.312 1_556 S
O235 Mg220 2.031 . S
O235 C236 1.208 . S
C236 O234 1.312 1_554 S
C236 O235 1.208 . S
C237 O229 1.331 . S
C237 O232 1.244 . S
O238 Mg223 2.013 . S
O238 C227 1.191 . S
O239 C218 1.331 . S
O239 Mg225 2.081 . S
O240 Mg221 1.986 . S
O240 C227 1.307 . S
O241 C219 1.264 . S
O241 Mg225 2.023 . S
O242 C218 1.244 . S
O242 Mg226 1.942 . S
O243 C219 1.273 . S
O243 Mg226 1.955 . S
O244 C217 1.312 . S
O244 Mg220 2.291 1_556 S
O244 Mg223 2.114 . S
O245 C217 1.208 . S
O245 Mg225 2.031 . S
C246 O231 1.264 . S
C246 O233 1.273 1_545 S
C247 O228 1.191 . S
C247 O230 1.307 . S
C248 O275 1.312 1_554 S
C248 O276 1.208 . S
C249 O270 1.331 . S
C249 O273 1.244 . S
C250 O272 1.264 . S
C250 O274 1.273 1_655 S
Mg251 O253 1.936 . S
Mg251 O260 2.081 . S
Mg251 O262 2.023 . S
Mg251 O266 2.031 . S
Mg251 O275 2.291 . S
Mg252 O253 1.963 . S
Mg252 O263 1.942 . S
Mg252 O264 1.955 . S
Mg252 O271 1.986 . S
O253 Mg251 1.936 . S
O253 Mg252 1.963 . S
O253 Mg254 1.915 . S
Mg254 O253 1.915 . S
Mg254 O255 1.915 . S
Mg254 O259 2.013 . S
Mg254 O265 2.114 . S
Mg254 O269 2.013 . S
Mg254 O275 2.114 . S
O255 Mg254 1.915 . S
O255 Mg256 1.936 1_556 S
O255 Mg257 1.963 . S
Mg256 O255 1.936 1_554 S
Mg256 O265 2.291 1_554 S
Mg256 O270 2.081 . S
Mg256 O272 2.023 1_454 S
Mg256 O276 2.031 . S
Mg257 O255 1.963 . S
Mg257 O261 1.986 . S
Mg257 O273 1.942 1_556 S
Mg257 O274 1.955 . S
C258 O269 1.191 . S
C258 O271 1.307 . S
O259 Mg254 2.013 . S
O259 C278 1.191 . S
O260 Mg251 2.081 . S
O260 C268 1.331 . S
O261 Mg257 1.986 . S
O261 C278 1.307 . S
O262 Mg251 2.023 . S
O262 C277 1.264 . S
O263 Mg252 1.942 . S
O263 C268 1.244 . S
O264 Mg252 1.955 . S
O264 C277 1.273 . S
O265 Mg254 2.114 . S
O265 Mg256 2.291 1_556 S
O265 C267 1.312 . S
O266 Mg251 2.031 . S
O266 C267 1.208 . S
C267 O265 1.312 . S
C267 O266 1.208 . S
C268 O260 1.331 . S
C268 O263 1.244 . S
O269 Mg254 2.013 . S
O269 C258 1.191 . S
O270 C249 1.331 . S
O270 Mg256 2.081 . S
O271 Mg252 1.986 . S
O271 C258 1.307 . S
O272 C250 1.264 . S
O272 Mg256 2.023 1_656 S
O273 C249 1.244 . S
O273 Mg257 1.942 1_554 S
O274 C250 1.273 1_455 S
O274 Mg257 1.955 . S
O275 C248 1.312 1_556 S
O275 Mg251 2.291 . S
O275 Mg254 2.114 . S
O276 C248 1.208 . S
O276 Mg256 2.031 . S
C277 O262 1.264 . S
C277 O264 1.273 . S
C278 O259 1.191 . S
C278 O261 1.307 . S
C279 O306 1.312 . S
C279 O307 1.208 . S
C280 O301 1.331 . S
C280 O304 1.244 . S
C281 O303 1.264 . S
C281 O305 1.273 . S
Mg282 O284 1.936 . S
Mg282 O291 2.081 . S
Mg282 O293 2.023 . S
Mg282 O297 2.031 . S
Mg282 O306 2.291 . S
Mg283 O284 1.963 . S
Mg283 O294 1.942 . S
Mg283 O295 1.955 . S
Mg283 O302 1.986 . S
O284 Mg282 1.936 . S
O284 Mg283 1.963 . S
O284 Mg285 1.915 . S
Mg285 O284 1.915 . S
Mg285 O286 1.915 . S
Mg285 O290 2.013 . S
Mg285 O296 2.114 . S
Mg285 O300 2.013 . S
Mg285 O306 2.114 . S
O286 Mg285 1.915 . S
O286 Mg287 1.936 . S
O286 Mg288 1.963 . S
Mg287 O286 1.936 . S
Mg287 O296 2.291 . S
Mg287 O301 2.081 . S
Mg287 O303 2.023 . S
Mg287 O307 2.031 . S
Mg288 O286 1.963 . S
Mg288 O292 1.986 . S
Mg288 O304 1.942 . S
Mg288 O305 1.955 . S
C289 O300 1.191 . S
C289 O302 1.307 . S
O290 Mg285 2.013 . S
O290 C309 1.191 . S
O291 Mg282 2.081 . S
O291 C299 1.331 . S
O292 Mg288 1.986 . S
O292 C309 1.307 . S
O293 Mg282 2.023 . S
O293 C308 1.264 . S
O294 Mg283 1.942 . S
O294 C299 1.244 . S
O295 Mg283 1.955 . S
O295 C308 1.273 . S
O296 Mg285 2.114 . S
O296 Mg287 2.291 . S
O296 C298 1.312 . S
O297 Mg282 2.031 . S
O297 C298 1.208 . S
C298 O296 1.312 . S
C298 O297 1.208 . S
C299 O291 1.331 . S
C299 O294 1.244 . S
O300 Mg285 2.013 . S
O300 C289 1.191 . S
O301 C280 1.331 . S
O301 Mg287 2.081 . S
O302 Mg283 1.986 . S
O302 C289 1.307 . S
O303 C281 1.264 . S
O303 Mg287 2.023 . S
O304 C280 1.244 . S
O304 Mg288 1.942 . S
O305 C281 1.273 . S
O305 Mg288 1.955 . S
O306 C279 1.312 . S
O306 Mg282 2.291 . S
O306 Mg285 2.114 . S
O307 C279 1.208 . S
O307 Mg287 2.031 . S
C308 O293 1.264 . S
C308 O295 1.273 . S
C309 O290 1.191 . S
C309 O292 1.307 . S
C310 O337 1.312 . S
C310 O338 1.208 . S
C311 O332 1.331 . S
C311 O335 1.244 . S
C312 O334 1.264 . S
C312 O336 1.273 . S
Mg313 O315 1.936 . S
Mg313 O322 2.081 . S
Mg313 O324 2.023 1_545 S
Mg313 O328 2.031 . S
Mg313 O337 2.291 . S
Mg314 O315 1.963 . S
Mg314 O325 1.942 . S
Mg314 O326 1.955 . S
Mg314 O333 1.986 . S
O315 Mg313 1.936 . S
O315 Mg314 1.963 . S
O315 Mg316 1.915 . S
Mg316 O315 1.915 . S
Mg316 O317 1.915 . S
Mg316 O321 2.013 . S
Mg316 O327 2.114 . S
Mg316 O331 2.013 . S
Mg316 O337 2.114 . S
O317 Mg316 1.915 . S
O317 Mg318 1.936 . S
O317 Mg319 1.963 . S
Mg318 O317 1.936 . S
Mg318 O327 2.291 . S
Mg318 O332 2.081 . S
Mg318 O334 2.023 . S
Mg318 O338 2.031 . S
Mg319 O317 1.963 . S
Mg319 O323 1.986 . S
Mg319 O335 1.942 . S
Mg319 O336 1.955 . S
C320 O331 1.191 . S
C320 O333 1.307 . S
O321 Mg316 2.013 . S
O321 C340 1.191 . S
O322 Mg313 2.081 . S
O322 C330 1.331 . S
O323 Mg319 1.986 . S
O323 C340 1.307 . S
O324 Mg313 2.023 1_565 S
O324 C339 1.264 . S
O325 Mg314 1.942 . S
O325 C330 1.244 . S
O326 Mg314 1.955 . S
O326 C339 1.273 1_545 S
O327 Mg316 2.114 . S
O327 Mg318 2.291 . S
O327 C329 1.312 . S
O328 Mg313 2.031 . S
O328 C329 1.208 . S
C329 O327 1.312 . S
C329 O328 1.208 . S
C330 O322 1.331 . S
C330 O325 1.244 . S
O331 Mg316 2.013 . S
O331 C320 1.191 . S
O332 C311 1.331 . S
O332 Mg318 2.081 . S
O333 Mg314 1.986 . S
O333 C320 1.307 . S
O334 C312 1.264 . S
O334 Mg318 2.023 . S
O335 C311 1.244 . S
O335 Mg319 1.942 . S
O336 C312 1.273 . S
O336 Mg319 1.955 . S
O337 C310 1.312 . S
O337 Mg313 2.291 . S
O337 Mg316 2.114 . S
O338 C310 1.208 . S
O338 Mg318 2.031 . S
C339 O324 1.264 . S
C339 O326 1.273 1_565 S
C340 O321 1.191 . S
C340 O323 1.307 . S
C341 O368 1.312 . S
C341 O369 1.208 . S
C342 O363 1.331 . S
C342 O366 1.244 . S
C343 O365 1.264 . S
C343 O367 1.273 . S
Mg344 O346 1.936 . S
Mg344 O353 2.081 . S
Mg344 O355 2.023 1_655 S
Mg344 O359 2.031 . S
Mg344 O368 2.291 . S
Mg345 O346 1.963 . S
Mg345 O356 1.942 . S
Mg345 O357 1.955 . S
Mg345 O364 1.986 . S
O346 Mg344 1.936 . S
O346 Mg345 1.963 . S
O346 Mg347 1.915 . S
Mg347 O346 1.915 . S
Mg347 O348 1.915 . S
Mg347 O352 2.013 . S
Mg347 O358 2.114 . S
Mg347 O362 2.013 . S
Mg347 O368 2.114 . S
O348 Mg347 1.915 . S
O348 Mg349 1.936 . S
O348 Mg350 1.963 . S
Mg349 O348 1.936 . S
Mg349 O358 2.291 . S
Mg349 O363 2.081 . S
Mg349 O365 2.023 . S
Mg349 O369 2.031 . S
Mg350 O348 1.963 . S
Mg350 O354 1.986 . S
Mg350 O366 1.942 . S
Mg350 O367 1.955 . S
C351 O362 1.191 . S
C351 O364 1.307 . S
O352 Mg347 2.013 . S
O352 C371 1.191 . S
O353 Mg344 2.081 . S
O353 C361 1.331 . S
O354 Mg350 1.986 . S
O354 C371 1.307 . S
O355 Mg344 2.023 1_455 S
O355 C370 1.264 . S
O356 Mg345 1.942 . S
O356 C361 1.244 . S
O357 Mg345 1.955 . S
O357 C370 1.273 1_655 S
O358 Mg347 2.114 . S
O358 Mg349 2.291 . S
O358 C360 1.312 . S
O359 Mg344 2.031 . S
O359 C360 1.208 . S
C360 O358 1.312 . S
C360 O359 1.208 . S
C361 O353 1.331 . S
C361 O356 1.244 . S
O362 Mg347 2.013 . S
O362 C351 1.191 . S
O363 C342 1.331 . S
O363 Mg349 2.081 . S
O364 Mg345 1.986 . S
O364 C351 1.307 . S
O365 C343 1.264 . S
O365 Mg349 2.023 . S
O366 C342 1.244 . S
O366 Mg350 1.942 . S
O367 C343 1.273 . S
O367 Mg350 1.955 . S
O368 C341 1.312 . S
O368 Mg344 2.291 . S
O368 Mg347 2.114 . S
O369 C341 1.208 . S
O369 Mg349 2.031 . S
C370 O355 1.264 . S
C370 O357 1.273 1_455 S
C371 O352 1.191 . S
C371 O354 1.307 . S
C29 C61 2.884 . S
C72 C60 2.884 . S
C64 C30 2.884 . S
C165 C122 2.884 . S
C123 C126 2.884 . S
C157 C134 2.884 . S
C215 C227 2.884 . S
C278 C219 2.884 . S
C277 C216 2.884 . S
C281 C351 2.884 . S
C289 C312 2.884 . S
C320 C343 2.884 . S
C188 C2 2.308 1_556 S
C33 C246 2.308 1_564 S
C91 C250 2.308 1_454 S
C95 C308 2.308 . S
C153 C339 2.308 1_545 S
C370 C184 2.308 1_455 S
C1 C309 1.380 . S
C32 C340 1.380 . S
C371 C82 1.380 . S
C196 C94 1.380 . S
C247 C144 1.380 . S
C258 C175 1.380 . S
C103 C187 1.380 . S
C237 C154 1.380 . S
C249 C185 1.380 . S
C10 C299 1.380 . S
C330 C41 1.380 . S
C92 C361 1.380 . S
C112 C19 3.882 . S
C124 C50 3.882 1_565 S
C155 C62 3.882 1_455 S
C205 C279 3.882 . S
C217 C310 3.882 1_565 S
C341 C267 3.882 1_655 S
C311 C0 1.692 . S
C31 C342 1.692 . S
C81 C280 1.692 . S
C93 C268 1.692 . S
C206 C143 1.692 . S
C218 C174 1.692 . S
C186 C125 1.692 . S
C236 C156 1.692 . S
C248 C113 1.692 . S
C63 C298 1.692 . S
C20 C329 1.692 . S
C51 C360 1.692 . S
