# Generated by pormake.
# Topology cag, (4)-cn, num edge types: 1
# Building blocks:
#     Node 0, Type 0, BuildingBlock: AZAVOO_clean_sbu_0, # of connection points: 4
#     Node 1, Type 0, BuildingBlock: AZAVOO_clean_sbu_0, # of connection points: 4
#     Node 2, Type 0, BuildingBlock: AZAVOO_clean_sbu_0, # of connection points: 4
#     Node 3, Type 0, BuildingBlock: AZAVOO_clean_sbu_0, # of connection points: 4
#     Node 4, Type 0, BuildingBlock: AZAVOO_clean_sbu_0, # of connection points: 4
#     Node 5, Type 0, BuildingBlock: AZAVOO_clean_sbu_0, # of connection points: 4
#     Node 6, Type 0, BuildingBlock: AZAVOO_clean_sbu_0, # of connection points: 4
#     Node 7, Type 0, BuildingBlock: AZAVOO_clean_sbu_0, # of connection points: 4
#     Node 8, Type 0, BuildingBlock: AZAVOO_clean_sbu_0, # of connection points: 4
#     Node 9, Type 0, BuildingBlock: AZAVOO_clean_sbu_0, # of connection points: 4
#     Node 10, Type 0, BuildingBlock: AZAVOO_clean_sbu_0, # of connection points: 4
#     Node 11, Type 0, BuildingBlock: AZAVOO_clean_sbu_0, # of connection points: 4
#     Node 12, Type 0, BuildingBlock: AZAVOO_clean_sbu_0, # of connection points: 4
#     Node 13, Type 0, BuildingBlock: AZAVOO_clean_sbu_0, # of connection points: 4
#     Node 14, Type 0, BuildingBlock: AZAVOO_clean_sbu_0, # of connection points: 4
#     Node 15, Type 0, BuildingBlock: AZAVOO_clean_sbu_0, # of connection points: 4
#     Edge 16, Type (0, 0), BuildingBlock: AJUNOK_clean_linker_0, # of connection points: 2
#     Edge 17, Type (0, 0), BuildingBlock: AJUNOK_clean_linker_0, # of connection points: 2
#     Edge 18, Type (0, 0), BuildingBlock: AJUNOK_clean_linker_0, # of connection points: 2
#     Edge 19, Type (0, 0), BuildingBlock: AJUNOK_clean_linker_0, # of connection points: 2
#     Edge 20, Type (0, 0), BuildingBlock: AJUNOK_clean_linker_0, # of connection points: 2
#     Edge 21, Type (0, 0), BuildingBlock: AJUNOK_clean_linker_0, # of connection points: 2
#     Edge 22, Type (0, 0), BuildingBlock: AJUNOK_clean_linker_0, # of connection points: 2
#     Edge 23, Type (0, 0), BuildingBlock: AJUNOK_clean_linker_0, # of connection points: 2
#     Edge 24, Type (0, 0), BuildingBlock: AJUNOK_clean_linker_0, # of connection points: 2
#     Edge 25, Type (0, 0), BuildingBlock: AJUNOK_clean_linker_0, # of connection points: 2
#     Edge 26, Type (0, 0), BuildingBlock: AJUNOK_clean_linker_0, # of connection points: 2
#     Edge 27, Type (0, 0), BuildingBlock: AJUNOK_clean_linker_0, # of connection points: 2
#     Edge 28, Type (0, 0), BuildingBlock: AJUNOK_clean_linker_0, # of connection points: 2
#     Edge 29, Type (0, 0), BuildingBlock: AJUNOK_clean_linker_0, # of connection points: 2
#     Edge 30, Type (0, 0), BuildingBlock: AJUNOK_clean_linker_0, # of connection points: 2
#     Edge 31, Type (0, 0), BuildingBlock: AJUNOK_clean_linker_0, # of connection points: 2
#     Edge 32, Type (0, 0), BuildingBlock: AJUNOK_clean_linker_0, # of connection points: 2
#     Edge 33, Type (0, 0), BuildingBlock: AJUNOK_clean_linker_0, # of connection points: 2
#     Edge 34, Type (0, 0), BuildingBlock: AJUNOK_clean_linker_0, # of connection points: 2
#     Edge 35, Type (0, 0), BuildingBlock: AJUNOK_clean_linker_0, # of connection points: 2
#     Edge 36, Type (0, 0), BuildingBlock: AJUNOK_clean_linker_0, # of connection points: 2
#     Edge 37, Type (0, 0), BuildingBlock: AJUNOK_clean_linker_0, # of connection points: 2
#     Edge 38, Type (0, 0), BuildingBlock: AJUNOK_clean_linker_0, # of connection points: 2
#     Edge 39, Type (0, 0), BuildingBlock: AJUNOK_clean_linker_0, # of connection points: 2
#     Edge 40, Type (0, 0), BuildingBlock: AJUNOK_clean_linker_0, # of connection points: 2
#     Edge 41, Type (0, 0), BuildingBlock: AJUNOK_clean_linker_0, # of connection points: 2
#     Edge 42, Type (0, 0), BuildingBlock: AJUNOK_clean_linker_0, # of connection points: 2
#     Edge 43, Type (0, 0), BuildingBlock: AJUNOK_clean_linker_0, # of connection points: 2
#     Edge 44, Type (0, 0), BuildingBlock: AJUNOK_clean_linker_0, # of connection points: 2
#     Edge 45, Type (0, 0), BuildingBlock: AJUNOK_clean_linker_0, # of connection points: 2
#     Edge 46, Type (0, 0), BuildingBlock: AJUNOK_clean_linker_0, # of connection points: 2
#     Edge 47, Type (0, 0), BuildingBlock: AJUNOK_clean_linker_0, # of connection points: 2
# Relax obj value: 0.058
# Max RMSD: 0.098
# Mean RMSD: 0.095
data_MOF--net-cag--node1-AZAVOO_clean_sbu_0--edge1-AJUNOK_clean_linker_0
_symmetry_space_group_name_H-M    P1
_symmetry_Int_Tables_number       1
_symmetry_cell_setting            triclinic
loop_
_symmetry_equiv_pos_as_xyz
'x, y, z'
_cell_length_a     33.086077
_cell_length_b     33.57474
_cell_length_c     32.504691
_cell_angle_alpha  90.067054
_cell_angle_beta   89.942491
_cell_angle_gamma 90.01726
loop_
_atom_site_label
_atom_site_type_symbol
_atom_site_fract_x
_atom_site_fract_y
_atom_site_fract_z
_atom_type_partial_charge
Mg0 Mg 0.33159 0.12114 0.10095 0.0
O1 O 0.31712 0.06891 0.05796 0.0
O2 O 0.25022 0.05973 0.05931 0.0
Mg3 Mg 0.22164 0.10536 0.1024 0.0
C4 C 0.2854 0.05036 0.04628 0.0
C5 C 0.42329 0.10065 0.08897 0.0
O6 O 0.41212 0.07098 0.11267 0.0
O7 O 0.30822 0.16514 0.05208 0.0
O8 O 0.24201 0.15364 0.05825 0.0
O9 O 0.33546 0.08026 0.15563 0.0
O10 O 0.27932 0.10881 0.13455 0.0
C11 C 0.27159 0.17216 0.04192 0.0
C12 C 0.29684 0.08483 0.1596 0.0
O13 O 0.39662 0.12542 0.07707 0.0
Mg14 Mg 0.17728 0.88828 0.6091 0.0
O15 O 0.19297 0.93625 0.56179 0.0
O16 O 0.26022 0.94183 0.56063 0.0
Mg17 Mg 0.28778 0.90001 0.60845 0.0
C18 C 0.22526 0.95193 0.54762 0.0
C19 C 0.08376 0.90406 0.59946 0.0
O20 O 0.09147 0.92966 0.62902 0.0
O21 O 0.19937 0.83934 0.56476 0.0
O22 O 0.26625 0.84637 0.57193 0.0
O23 O 0.17592 0.93371 0.66076 0.0
O24 O 0.23005 0.90101 0.64076 0.0
C25 C 0.23559 0.82791 0.55769 0.0
C26 C 0.21431 0.92732 0.66447 0.0
O27 O 0.11271 0.88371 0.58454 0.0
Mg28 Mg 0.34602 0.87411 0.85276 0.0
O29 O 0.32581 0.91666 0.90355 0.0
O30 O 0.25841 0.9205 0.90065 0.0
Mg31 Mg 0.23543 0.8822 0.84717 0.0
C32 C 0.2922 0.9302 0.91691 0.0
C33 C 0.43803 0.89098 0.86913 0.0
O34 O 0.43079 0.91872 0.84165 0.0
O35 O 0.32296 0.82105 0.89079 0.0
O36 O 0.25635 0.82656 0.88076 0.0
O37 O 0.34967 0.92492 0.80738 0.0
O38 O 0.29496 0.88937 0.8194 0.0
C39 C 0.28688 0.8081 0.89518 0.0
C40 C 0.31155 0.91901 0.80105 0.0
O41 O 0.40912 0.86867 0.88075 0.0
Mg42 Mg 0.16945 0.135 0.3587 0.0
O43 O 0.18777 0.08836 0.40659 0.0
O44 O 0.25514 0.08413 0.40468 0.0
Mg45 Mg 0.28008 0.12535 0.35489 0.0
C46 C 0.22099 0.0736 0.41952 0.0
C47 C 0.07886 0.11265 0.37645 0.0
O48 O 0.0897 0.08137 0.3548 0.0
O49 O 0.19215 0.18543 0.40089 0.0
O50 O 0.25878 0.17937 0.39089 0.0
O51 O 0.16671 0.08824 0.30867 0.0
O52 O 0.22122 0.1222 0.32507 0.0
C53 C 0.22841 0.19766 0.40601 0.0
C54 C 0.20483 0.09492 0.30302 0.0
O55 O 0.1053 0.139 0.38472 0.0
Mg56 Mg 0.69786 0.85039 0.90461 0.0
O57 O 0.71782 0.90847 0.93586 0.0
O58 O 0.78509 0.90749 0.9393 0.0
Mg59 Mg 0.80808 0.84919 0.911 0.0
C60 C 0.75128 0.92455 0.94627 0.0
C61 C 0.60528 0.85478 0.91137 0.0
O62 O 0.61427 0.82243 0.93209 0.0
O63 O 0.71837 0.87323 0.84235 0.0
O64 O 0.78549 0.86808 0.84655 0.0
O65 O 0.69575 0.82059 0.96513 0.0
O66 O 0.7498 0.82062 0.9252 0.0
C67 C 0.75343 0.87617 0.82622 0.0
C68 C 0.73321 0.8108 0.95959 0.0
O69 O 0.63398 0.87486 0.89557 0.0
Mg70 Mg 0.81719 0.15659 0.40371 0.0
O71 O 0.7959 0.0998 0.43635 0.0
O72 O 0.72872 0.10241 0.44032 0.0
Mg73 Mg 0.70714 0.16104 0.41179 0.0
C74 C 0.76213 0.08463 0.44715 0.0
C75 C 0.90961 0.15098 0.40802 0.0
O76 O 0.9015 0.18533 0.42559 0.0
O77 O 0.79513 0.13303 0.34208 0.0
O78 O 0.7283 0.14067 0.34727 0.0
O79 O 0.82099 0.18811 0.46335 0.0
O80 O 0.76644 0.18842 0.42439 0.0
C81 C 0.75975 0.13115 0.32653 0.0
C82 C 0.78391 0.19928 0.45798 0.0
O83 O 0.8803 0.13001 0.39486 0.0
Mg84 Mg 0.68498 0.14937 0.07032 0.0
O85 O 0.70964 0.09246 0.03994 0.0
O86 O 0.77671 0.09847 0.03709 0.0
Mg87 Mg 0.79508 0.15857 0.06462 0.0
C88 C 0.7444 0.07879 0.03018 0.0
C89 C 0.59311 0.14098 0.06341 0.0
O90 O 0.60114 0.17491 0.04504 0.0
O91 O 0.70643 0.12863 0.13339 0.0
O92 O 0.77306 0.1386 0.12879 0.0
O93 O 0.68159 0.17875 0.00945 0.0
O94 O 0.73497 0.1824 0.04984 0.0
C95 C 0.74174 0.12835 0.1493 0.0
C96 C 0.71819 0.19111 0.01528 0.0
O97 O 0.62241 0.12105 0.07822 0.0
Mg98 Mg 0.82408 0.85795 0.56901 0.0
O99 O 0.80042 0.91569 0.5397 0.0
O100 O 0.73325 0.91083 0.53698 0.0
Mg101 Mg 0.71387 0.85077 0.56378 0.0
C102 C 0.76589 0.93003 0.53021 0.0
C103 C 0.91598 0.8661 0.56088 0.0
O104 O 0.90744 0.83384 0.53972 0.0
O105 O 0.8032 0.87818 0.63233 0.0
O106 O 0.73638 0.86952 0.62822 0.0
O107 O 0.82685 0.82952 0.50757 0.0
O108 O 0.77349 0.82613 0.54814 0.0
C109 C 0.76804 0.87892 0.64858 0.0
C110 C 0.79004 0.81774 0.51333 0.0
O111 O 0.88706 0.88504 0.57779 0.0
Mg112 Mg 0.84487 0.62175 0.11385 0.0
O113 O 0.82384 0.57559 0.06599 0.0
O114 O 0.75632 0.57608 0.06934 0.0
Mg115 Mg 0.73393 0.61913 0.11875 0.0
C116 C 0.78929 0.56292 0.05403 0.0
C117 C 0.93312 0.63671 0.11838 0.0
O118 O 0.91664 0.64746 0.15347 0.0
O119 O 0.82535 0.67329 0.0713 0.0
O120 O 0.7586 0.67169 0.08259 0.0
O121 O 0.8453 0.57525 0.16413 0.0
O122 O 0.79266 0.61177 0.14733 0.0
C123 C 0.78992 0.68798 0.06706 0.0
C124 C 0.80755 0.58384 0.16952 0.0
O125 O 0.91012 0.62264 0.09058 0.0
Mg126 Mg 0.67358 0.39118 0.61164 0.0
O127 O 0.69627 0.43676 0.56462 0.0
O128 O 0.7637 0.43754 0.56911 0.0
Mg129 Mg 0.78419 0.39475 0.61971 0.0
C130 C 0.73076 0.4498 0.55301 0.0
C131 C 0.58758 0.36339 0.59957 0.0
O132 O 0.60404 0.33727 0.62454 0.0
O133 O 0.69486 0.33981 0.56977 0.0
O134 O 0.76133 0.34217 0.58202 0.0
O135 O 0.67069 0.43792 0.66128 0.0
O136 O 0.72449 0.40178 0.64687 0.0
C137 C 0.73055 0.3257 0.56558 0.0
C138 C 0.70837 0.42996 0.66798 0.0
O139 O 0.60976 0.39093 0.5851 0.0
Mg140 Mg 0.83515 0.38014 0.86417 0.0
O141 O 0.81729 0.42608 0.91321 0.0
O142 O 0.74988 0.43008 0.91128 0.0
Mg143 Mg 0.72466 0.39008 0.86049 0.0
C144 C 0.78392 0.44037 0.92649 0.0
C145 C 0.92732 0.39752 0.87566 0.0
O146 O 0.91795 0.42558 0.84922 0.0
O147 O 0.81212 0.32895 0.90535 0.0
O148 O 0.7455 0.33489 0.89511 0.0
O149 O 0.83843 0.42784 0.81535 0.0
O150 O 0.78359 0.394 0.83094 0.0
C151 C 0.77588 0.31638 0.90981 0.0
C152 C 0.80028 0.42162 0.80959 0.0
O153 O 0.89937 0.37508 0.88932 0.0
Mg154 Mg 0.6759 0.62711 0.36265 0.0
O155 O 0.69825 0.58322 0.41123 0.0
O156 O 0.76565 0.58155 0.40719 0.0
Mg157 Mg 0.7866 0.62266 0.35514 0.0
C158 C 0.73245 0.57015 0.42348 0.0
C159 C 0.5838 0.62203 0.36495 0.0
O160 O 0.59298 0.61615 0.32607 0.0
O161 O 0.6973 0.67986 0.4026 0.0
O162 O 0.76384 0.67671 0.39052 0.0
O163 O 0.67336 0.57817 0.31509 0.0
O164 O 0.72701 0.61508 0.32784 0.0
C165 C 0.73305 0.69398 0.40605 0.0
C166 C 0.71108 0.5858 0.30826 0.0
O167 O 0.61242 0.62795 0.39034 0.0
Mg168 Mg 0.18829 0.35202 0.89058 0.0
O169 O 0.20959 0.4048 0.92959 0.0
O170 O 0.27667 0.40063 0.93413 0.0
Mg171 Mg 0.29811 0.34442 0.90074 0.0
C172 C 0.24345 0.4183 0.94223 0.0
C173 C 0.09705 0.35677 0.89698 0.0
O174 O 0.1066 0.32107 0.91022 0.0
O175 O 0.21218 0.38164 0.83267 0.0
O176 O 0.27862 0.37124 0.83839 0.0
O177 O 0.18223 0.31393 0.94548 0.0
O178 O 0.23811 0.3173 0.90834 0.0
C179 C 0.24801 0.38382 0.81817 0.0
C180 C 0.2191 0.30262 0.93939 0.0
O181 O 0.12528 0.37951 0.88445 0.0
Mg182 Mg 0.3244 0.66459 0.39138 0.0
O183 O 0.30727 0.6074 0.42559 0.0
O184 O 0.24015 0.60707 0.43181 0.0
Mg185 Mg 0.2146 0.66427 0.40378 0.0
C186 C 0.2746 0.59091 0.43768 0.0
C187 C 0.4136 0.63839 0.40857 0.0
O188 O 0.40179 0.64668 0.44621 0.0
O189 O 0.30095 0.63893 0.33155 0.0
O190 O 0.23402 0.64376 0.33877 0.0
O191 O 0.3294 0.69718 0.45013 0.0
O192 O 0.27313 0.69399 0.41386 0.0
C193 C 0.26524 0.63512 0.3173 0.0
C194 C 0.29148 0.70606 0.44651 0.0
O195 O 0.38806 0.641 0.37946 0.0
Mg196 Mg 0.19193 0.6497 0.06112 0.0
O197 O 0.21118 0.58963 0.03325 0.0
O198 O 0.27863 0.5902 0.03095 0.0
Mg199 Mg 0.30233 0.64975 0.05482 0.0
C200 C 0.24486 0.5728 0.02485 0.0
C201 C 0.10687 0.65365 0.0925 0.0
O202 O 0.12536 0.68599 0.10535 0.0
O203 O 0.21202 0.62963 0.12463 0.0
O204 O 0.27921 0.63446 0.1198 0.0
O205 O 0.19012 0.67739 -0.00063 0.0
O206 O 0.24419 0.67732 0.03899 0.0
C207 C 0.24719 0.62735 0.1406 0.0
C208 C 0.2277 0.68697 0.00457 0.0
O209 O 0.12712 0.62845 0.07178 0.0
Mg210 Mg 0.32428 0.3619 0.56589 0.0
O211 O 0.30764 0.42009 0.53299 0.0
O212 O 0.24036 0.42161 0.52907 0.0
Mg213 Mg 0.21416 0.36493 0.55743 0.0
C214 C 0.27489 0.43727 0.52221 0.0
C215 C 0.41325 0.35197 0.57683 0.0
O216 O 0.39729 0.31613 0.5757 0.0
O217 O 0.30403 0.38745 0.62733 0.0
O218 O 0.23683 0.38397 0.6216 0.0
O219 O 0.32615 0.32978 0.50667 0.0
O220 O 0.27144 0.33402 0.54531 0.0
C221 C 0.26863 0.39168 0.64247 0.0
C222 C 0.28826 0.32158 0.51195 0.0
O223 O 0.38973 0.38182 0.5743 0.0
C224 C 0.28595 0.23741 0.0064 0.0
C225 C 0.26165 0.20322 0.01124 0.0
C226 C 0.27292 0.26958 0.98197 0.0
C227 C 0.23513 0.26842 0.96229 0.0
H228 H 0.31426 0.24002 0.02289 0.0
H229 H 0.29164 0.29597 0.97979 0.0
S230 S 0.16382 0.1834 0.95898 0.0
N231 N 0.20073 0.16838 -0.01069 0.0
N232 N 0.17613 0.22899 0.94483 0.0
C233 C 0.21187 0.23366 0.96494 0.0
C234 C 0.22519 0.20096 -0.01097 0.0
C235 C 0.29228 0.7402 0.51425 0.0
C236 C 0.27153 0.73169 0.47758 0.0
C237 C 0.27881 0.76988 0.541 0.0
C238 C 0.24386 0.79221 0.53244 0.0
H239 H 0.32027 0.72506 0.52161 0.0
H240 H 0.29687 0.77638 0.56799 0.0
S241 S 0.17563 0.77858 0.44324 0.0
N242 N 0.212 0.74561 0.4359 0.0
N243 N 0.18649 0.80142 0.48689 0.0
C244 C 0.22099 0.78212 0.4976 0.0
C245 C 0.23489 0.75185 0.46997 0.0
C246 C 0.24423 0.74891 0.90938 0.0
C247 C 0.27854 0.77172 0.91929 0.0
C248 C 0.22988 0.71939 0.93588 0.0
C249 C 0.24904 0.71164 0.9736 0.0
H250 H 0.22716 0.75514 0.88168 0.0
H251 H 0.20226 0.70403 0.92758 0.0
S252 S 0.34306 0.75983 0.01155 0.0
N253 N 0.33387 0.78195 0.96719 0.0
N254 N 0.30671 0.72662 0.01761 0.0
C255 C 0.28525 0.73214 0.98247 0.0
C256 C 0.30006 0.76215 0.95513 0.0
C257 C 0.28549 0.28722 0.4444 0.0
C258 C 0.26677 0.29576 0.48219 0.0
C259 C 0.27105 0.25697 0.41889 0.0
C260 C 0.23713 0.23407 0.42994 0.0
H261 H 0.31277 0.30271 0.4352 0.0
H262 H 0.28767 0.25039 0.39095 0.0
S263 S 0.17403 0.24751 0.52311 0.0
N264 N 0.21005 0.2813 0.52769 0.0
N265 N 0.18274 0.22433 0.47913 0.0
C266 C 0.2161 0.2442 0.46598 0.0
C267 C 0.23099 0.2751 0.49229 0.0
C268 C 0.79996 0.72979 0.00396 0.0
C269 C 0.7833 0.72488 0.04341 0.0
C270 C 0.78577 0.75997 0.97767 0.0
C271 C 0.75456 0.78592 -0.00984 0.0
H272 H 0.82184 0.70858 -0.00767 0.0
H273 H 0.79734 0.76115 0.94651 0.0
S274 S 0.70764 0.79035 0.09372 0.0
N275 N 0.73889 0.7521 0.09597 0.0
N276 N 0.71239 0.80858 0.04682 0.0
C277 C 0.74062 0.78349 0.03089 0.0
C278 C 0.75497 0.75298 0.05746 0.0
C279 C 0.78412 0.23448 0.52528 0.0
C280 C 0.76431 0.22649 0.48795 0.0
C281 C 0.77134 0.26528 0.55109 0.0
C282 C 0.73803 0.28935 0.5409 0.0
H283 H 0.81092 0.21797 0.53395 0.0
H284 H 0.78871 0.27114 0.57869 0.0
S285 S 0.67266 0.27809 0.44911 0.0
N286 N 0.70733 0.24307 0.44373 0.0
N287 N 0.68312 0.30096 0.49285 0.0
C288 C 0.71603 0.28 0.50524 0.0
C289 C 0.72923 0.24857 0.4786 0.0
C290 C 0.7857 0.27196 0.97102 0.0
C291 C 0.76738 0.27941 0.93283 0.0
C292 C 0.77136 0.24137 -0.00329 0.0
C293 C 0.73839 0.21729 0.98486 0.0
H294 H 0.80941 0.29141 0.98222 0.0
H295 H 0.78465 0.23815 0.02696 0.0
S296 S 0.68584 0.22002 0.88408 0.0
N297 N 0.7188 0.25687 0.88185 0.0
N298 N 0.69214 0.19941 0.92969 0.0
C299 C 0.72236 0.22239 0.94519 0.0
C300 C 0.73679 0.25348 0.91929 0.0
C301 C 0.73715 0.76739 0.49444 0.0
C302 C 0.76941 0.79233 0.48253 0.0
C303 C 0.72293 0.73712 0.46823 0.0
C304 C 0.74064 0.73095 0.42945 0.0
H305 H 0.7245 0.76955 0.52511 0.0
H306 H 0.69998 0.71684 0.47949 0.0
S307 S 0.81979 0.79326 0.38049 0.0
N308 N 0.81404 0.81261 0.42684 0.0
N309 N 0.78756 0.7558 0.37795 0.0
C310 C 0.77029 0.75791 0.41588 0.0
C311 C 0.78463 0.78862 0.44234 0.0
C312 C 0.25351 0.99996 -9e-05 0.0
C313 C 0.28885 0.01804 0.01521 0.0
C314 C 0.25511 0.97123 0.96882 0.0
C315 C 0.29213 0.95908 0.95157 0.0
H316 H 0.22403 0.00845 0.01148 0.0
H317 H 0.22683 0.95882 0.95797 0.0
S318 S 0.39395 0.9955 0.98207 0.0
N319 N 0.36237 0.02045 0.01178 0.0
N320 N 0.36541 0.96638 0.95327 0.0
C321 C 0.32794 0.97607 0.96727 0.0
C322 C 0.32629 0.00552 -0.00097 0.0
C323 C 0.25827 0.99994 0.49941 0.0
C324 C 0.22255 0.98299 0.51514 0.0
C325 C 0.25723 0.02915 0.46884 0.0
C326 C 0.22043 0.04292 0.45247 0.0
H327 H 0.28758 0.99063 0.51067 0.0
H328 H 0.28579 0.04096 0.45803 0.0
S329 S 0.11791 0.00839 0.48287 0.0
N330 N 0.14897 0.98226 0.51195 0.0
N331 N 0.14704 0.03723 0.45438 0.0
C332 C 0.18431 0.02638 0.46792 0.0
C333 C 0.18536 0.99645 0.49919 0.0
C334 C 0.71356 0.98311 0.97542 0.0
C335 C 0.75066 0.96387 0.96769 0.0
C336 C 0.71187 0.0199 -0.00418 0.0
C337 C 0.7472 0.03928 0.00939 0.0
H338 H 0.68537 0.96972 0.96564 0.0
H339 H 0.68249 0.03333 0.00068 0.0
S340 S 0.8522 1.00136 -0.00218 0.0
N341 N 0.82377 0.96698 0.97596 0.0
N342 N 0.82058 0.0359 0.0142 0.0
C343 C 0.78456 0.02032 0.00209 0.0
C344 C 0.78629 0.98278 0.98132 0.0
C345 C 0.79872 0.02666 0.47866 0.0
C346 C 0.76193 0.04536 0.46856 0.0
C347 C 0.79963 0.98976 0.49881 0.0
C348 C 0.7638 0.96973 0.50976 0.0
H349 H 0.82729 0.04056 0.47097 0.0
H350 H 0.82885 0.97681 0.50557 0.0
S351 S 0.6592 0.00582 0.49076 0.0
N352 N 0.68849 0.04089 0.47142 0.0
N353 N 0.69019 0.97178 0.50921 0.0
C354 C 0.7267 0.98813 0.50003 0.0
C355 C 0.72577 0.02579 0.47951 0.0
C356 C 0.82118 0.48958 0.9706 0.0
C357 C 0.78467 0.4707 0.95983 0.0
C358 C 0.82242 0.51927 0.00097 0.0
C359 C 0.78721 0.53133 0.02193 0.0
H360 H 0.84909 0.48179 0.95512 0.0
H361 H 0.85127 0.53302 0.0078 0.0
S362 S 0.68408 0.48954 0.00701 0.0
N363 N 0.71258 0.46514 0.97385 0.0
N364 N 0.7148 0.5207 0.03068 0.0
C365 C 0.75053 0.51222 0.01188 0.0
C366 C 0.74929 0.48202 0.98096 0.0
C367 C 0.69635 0.49668 0.50446 0.0
C368 C 0.73245 0.48053 0.52013 0.0
C369 C 0.69678 0.52575 0.47363 0.0
C370 C 0.73331 0.53999 0.45694 0.0
H371 H 0.6673 0.4869 0.51605 0.0
H372 H 0.66801 0.53693 0.46274 0.0
S373 S 0.83655 0.50767 0.48722 0.0
N374 N 0.80602 0.48116 0.51655 0.0
N375 N 0.8068 0.53572 0.45869 0.0
C376 C 0.76975 0.52423 0.47238 0.0
C377 C 0.76932 0.49458 0.50388 0.0
C378 C 0.20921 0.51681 -0.01122 0.0
C379 C 0.24483 0.53233 0.00619 0.0
C380 C 0.20892 0.47972 0.9689 0.0
C381 C 0.24423 0.45645 0.96563 0.0
H382 H 0.18139 0.53378 -0.01034 0.0
H383 H 0.18083 0.46965 0.95534 0.0
S384 S 0.34474 0.48183 0.00947 0.0
N385 N 0.31587 0.52025 0.02121 0.0
N386 N 0.31535 0.45073 0.98398 0.0
C387 C 0.27982 0.47106 0.98407 0.0
C388 C 0.28011 0.50888 0.00426 0.0
C389 C 0.24005 0.53202 0.46913 0.0
C390 C 0.27628 0.5518 0.4592 0.0
C391 C 0.24014 0.4953 0.48939 0.0
C392 C 0.27646 0.47647 0.50083 0.0
H393 H 0.21108 0.54487 0.46113 0.0
H394 H 0.21121 0.48164 0.49607 0.0
S395 S 0.38 0.51572 0.48245 0.0
N396 N 0.34981 0.54979 0.46266 0.0
N397 N 0.34997 0.4807 0.50077 0.0
C398 C 0.31307 0.49587 0.4912 0.0
C399 C 0.31298 0.53345 0.47042 0.0
C400 C 0.51916 0.15166 0.05185 0.0
C401 C 0.55037 0.12787 0.06809 0.0
C402 C 0.47839 0.14189 0.05765 0.0
C403 C 0.46684 0.10787 0.07999 0.0
H404 H 0.52611 0.17862 0.035 0.0
H405 H 0.45576 0.16181 0.04518 0.0
S406 S 0.5367 0.03384 0.1265 0.0
N407 N 0.56686 0.06744 0.10571 0.0
N408 N 0.49026 0.04897 0.11661 0.0
C409 C 0.49772 0.08297 0.09526 0.0
C410 C 0.53939 0.09299 0.08934 0.0
C411 C 0.96871 0.90602 0.59811 0.0
C412 C 0.95879 0.87801 0.5675 0.0
C413 C 0.00912 0.91506 0.60738 0.0
C414 C 0.04133 0.89654 0.58637 0.0
H415 H 0.94515 0.92033 0.61594 0.0
H416 H 0.01503 0.93606 0.63196 0.0
S417 S 0.03164 0.82416 0.50039 0.0
N418 N 0.98463 0.83407 0.51394 0.0
N419 N 0.06031 0.85104 0.53129 0.0
C420 C 0.0318 0.86972 0.55448 0.0
C421 C 0.99066 0.86047 0.54508 0.0
C422 C 0.51249 0.90431 0.86511 0.0
C423 C 0.48009 0.88352 0.88331 0.0
C424 C 0.55274 0.89563 0.8752 0.0
C425 C 0.56235 0.86576 0.90391 0.0
H426 H 0.5069 0.9269 0.84206 0.0
H427 H 0.57649 0.91184 0.85951 0.0
S428 S 0.48866 0.80524 0.9635 0.0
N429 N 0.46039 0.83361 0.93374 0.0
N430 N 0.53585 0.81731 0.9527 0.0
C431 C 0.53021 0.8458 0.92357 0.0
C432 C 0.48919 0.85467 0.9133 0.0
C433 C 0.02436 0.1551 0.4071 0.0
C434 C 0.03566 0.11954 0.38722 0.0
C435 C 0.98371 0.16437 0.41436 0.0
C436 C 0.95239 0.13856 0.40208 0.0
H437 H 0.04704 0.17655 0.41644 0.0
H438 H 0.9769 0.19254 0.42909 0.0
S439 S 0.96559 0.04002 0.35184 0.0
N440 N 0.01205 0.05708 0.35756 0.0
N441 N 0.93564 0.07463 0.37116 0.0
C442 C 0.9632 0.10221 0.38345 0.0
C443 C 1.00476 0.09268 0.37607 0.0
C444 C 0.03954 0.62296 0.07533 0.0
C445 C 0.06296 0.64831 0.10033 0.0
C446 C 0.9975 0.61961 0.08091 0.0
C447 C 0.97742 0.64101 0.11212 0.0
H448 H 0.05363 0.60613 0.05075 0.0
H449 H 0.98069 0.5999 0.06082 0.0
S450 S 0.02513 0.71072 0.18657 0.0
N451 N 0.06293 0.69467 0.15789 0.0
N452 N 0.98447 0.68827 0.16853 0.0
C453 C 1.00065 0.66607 0.13762 0.0
C454 C 0.04323 0.66974 0.13169 0.0
C455 C 0.52245 0.32615 0.59971 0.0
C456 C 0.54353 0.36155 0.59112 0.0
C457 C 0.48055 0.32358 0.59474 0.0
C458 C 0.45767 0.35644 0.58142 0.0
H459 H 0.5384 0.30002 0.61058 0.0
H460 H 0.46597 0.29556 0.602 0.0
S461 S 0.49817 0.45604 0.55392 0.0
N462 N 0.53841 0.43022 0.56776 0.0
N463 N 0.45934 0.42547 0.5588 0.0
C464 C 0.47827 0.39206 0.57235 0.0
C465 C 0.52124 0.39456 0.577 0.0
C466 C 0.04213 0.40138 0.87046 0.0
C467 C 0.05398 0.36903 0.89509 0.0
C468 C 1.0012 0.4112 0.86555 0.0
C469 C 0.97045 0.3892 0.88522 0.0
H470 H 0.06451 0.41853 0.85379 0.0
H471 H 0.99367 0.43564 0.84524 0.0
S472 S 0.98584 0.30462 0.95708 0.0
N473 N 0.03184 0.31709 0.94224 0.0
N474 N 0.95516 0.33557 0.9331 0.0
C475 C 0.98205 0.35797 0.91152 0.0
C476 C 0.02371 0.34788 0.9164 0.0
C477 C 0.51018 0.62177 0.34774 0.0
C478 C 0.5407 0.62352 0.37785 0.0
C479 C 0.46928 0.62531 0.35818 0.0
C480 C 0.45694 0.63071 0.39925 0.0
H481 H 0.51784 0.61842 0.31552 0.0
H482 H 0.44724 0.62465 0.33356 0.0
S483 S 0.5246 0.63387 0.49043 0.0
N484 N 0.55557 0.62857 0.45096 0.0
N485 N 0.47867 0.63512 0.4707 0.0
C486 C 0.48702 0.63105 0.42997 0.0
C487 C 0.52884 0.62753 0.41926 0.0
C488 C 0.29383 0.07448 0.23472 0.0
C489 C 0.27505 0.07044 0.1963 0.0
C490 C 0.27073 0.07729 0.27066 0.0
C491 C 0.22821 0.07637 0.26926 0.0
H492 H 0.32608 0.07977 0.23675 0.0
H493 H 0.28634 0.08333 0.29908 0.0
S494 S 0.16632 0.05058 0.17808 0.0
N495 N 0.21305 0.05331 0.16039 0.0
N496 N 0.16924 0.06028 0.22782 0.0
C497 C 0.20974 0.06562 0.232 0.0
C498 C 0.23336 0.06241 0.1954 0.0
C499 C 0.30606 0.94218 0.72931 0.0
C500 C 0.28905 0.94025 0.76875 0.0
C501 C 0.28122 0.94428 0.69456 0.0
C502 C 0.2388 0.94406 0.69835 0.0
H503 H 0.33816 0.93727 0.72493 0.0
H504 H 0.29534 0.94226 0.66469 0.0
S505 S 0.18138 0.95609 0.79546 0.0
N506 N 0.22895 0.9515 0.81012 0.0
N507 N 0.18187 0.95363 0.74469 0.0
C508 C 0.22215 0.94961 0.73765 0.0
C509 C 0.24752 0.94792 0.77305 0.0
C510 C 0.79496 0.8813 0.76191 0.0
C511 C 0.75704 0.88462 0.78139 0.0
C512 C 0.79853 0.88206 0.71897 0.0
C513 C 0.76434 0.88606 0.69359 0.0
H514 H 0.82207 0.87614 0.77976 0.0
H515 H 0.82818 0.87729 0.70567 0.0
S516 S 0.65905 0.90352 0.72907 0.0
N517 N 0.68524 0.89777 0.77185 0.0
N518 N 0.69201 0.89905 0.6912 0.0
C519 C 0.72666 0.89264 0.71264 0.0
C520 C 0.72301 0.89198 0.75646 0.0
C521 C 0.71686 0.12618 0.26315 0.0
C522 C 0.75511 0.1224 0.28181 0.0
C523 C 0.71243 0.12537 0.22028 0.0
C524 C 0.74607 0.12088 0.19417 0.0
H525 H 0.69018 0.13178 0.28159 0.0
H526 H 0.68263 0.13059 0.20761 0.0
S527 S 0.85174 0.10192 0.22732 0.0
N528 N 0.82649 0.10815 0.27067 0.0
N529 N 0.81811 0.10679 0.19019 0.0
C530 C 0.78399 0.11376 0.2124 0.0
C531 C 0.78852 0.11444 0.25613 0.0
C532 C 0.71619 0.56732 0.23503 0.0
C533 C 0.73357 0.56704 0.27434 0.0
C534 C 0.74069 0.56709 0.1999 0.0
C535 C 0.78311 0.5668 0.2032 0.0
H536 H 0.68404 0.57234 0.23135 0.0
H537 H 0.72634 0.57065 0.1703 0.0
S538 S 0.84161 0.55092 0.29891 0.0
N539 N 0.79417 0.55459 0.31438 0.0
N540 N 0.84055 0.5555 0.24832 0.0
C541 C 0.80018 0.55959 0.24199 0.0
C542 C 0.77519 0.55959 0.27774 0.0
C543 C 0.71153 0.44412 0.74228 0.0
C544 C 0.73019 0.44626 0.70361 0.0
C545 C 0.73484 0.44147 0.77806 0.0
C546 C 0.77734 0.44084 0.7761 0.0
H547 H 0.67915 0.43976 0.74467 0.0
H548 H 0.71939 0.43647 0.80687 0.0
S549 S 0.83937 0.46081 0.68339 0.0
N550 N 0.79239 0.45933 0.66629 0.0
N551 N 0.83652 0.45331 0.73354 0.0
C552 C 0.79587 0.4499 0.73838 0.0
C553 C 0.77208 0.45273 0.70196 0.0
C554 C 0.29746 0.39349 0.71353 0.0
C555 C 0.26433 0.39977 0.68722 0.0
C556 C 0.29237 0.3915 0.75625 0.0
C557 C 0.25395 0.39576 0.77449 0.0
H558 H 0.3272 0.38738 0.70108 0.0
H559 H 0.31852 0.38412 0.77475 0.0
S560 S 0.15919 0.42248 0.71982 0.0
N561 N 0.1931 0.4174 0.68291 0.0
N562 N 0.18349 0.41371 0.76319 0.0
C563 C 0.22136 0.40632 0.74884 0.0
C564 C 0.22656 0.40828 0.70524 0.0
C565 C 0.22202 0.63087 0.25423 0.0
C566 C 0.25991 0.62509 0.27306 0.0
C567 C 0.2176 0.62892 0.21142 0.0
C568 C 0.25089 0.62116 0.18565 0.0
H569 H 0.19585 0.63909 0.27238 0.0
H570 H 0.18828 0.63581 0.19845 0.0
S571 S 0.3548 0.59574 0.21983 0.0
N572 N 0.33003 0.60531 0.26282 0.0
N573 N 0.32169 0.60176 0.18241 0.0
C574 C 0.28817 0.61197 0.20422 0.0
C575 C 0.29268 0.61388 0.24786 0.0
loop_
_geom_bond_atom_site_label_1
_geom_bond_atom_site_label_2
_geom_bond_distance
_geom_bond_site_symmetry_2
_ccdc_geom_bond_type
Mg0 O1 2.028 . S
Mg0 O7 1.986 . S
Mg0 O9 2.114 . S
Mg0 O10 2.251 . S
Mg0 O13 2.010 . S
O1 Mg0 2.028 . S
O1 C4 1.250 . S
O2 Mg3 2.028 . S
O2 C4 1.248 . S
Mg3 O2 2.028 . S
Mg3 O8 2.032 . S
Mg3 O10 2.079 . S
C4 O1 1.250 . S
C4 O2 1.248 . S
C5 O6 1.264 . S
C5 O13 1.249 . S
O6 C5 1.264 . S
O7 Mg0 1.986 . S
O7 C11 1.246 . S
O8 Mg3 2.032 . S
O8 C11 1.259 . S
O9 Mg0 2.114 . S
O9 C12 1.252 . S
O10 Mg0 2.251 . S
O10 Mg3 2.079 . S
O10 C12 1.273 . S
C11 O7 1.246 . S
C11 O8 1.259 . S
C12 O9 1.252 . S
C12 O10 1.273 . S
O13 Mg0 2.010 . S
O13 C5 1.249 . S
Mg14 O15 2.028 . S
Mg14 O21 1.986 . S
Mg14 O23 2.114 . S
Mg14 O24 2.251 . S
Mg14 O27 2.010 . S
O15 Mg14 2.028 . S
O15 C18 1.250 . S
O16 Mg17 2.028 . S
O16 C18 1.248 . S
Mg17 O16 2.028 . S
Mg17 O22 2.032 . S
Mg17 O24 2.079 . S
C18 O15 1.250 . S
C18 O16 1.248 . S
C19 O20 1.264 . S
C19 O27 1.249 . S
O20 C19 1.264 . S
O21 Mg14 1.986 . S
O21 C25 1.246 . S
O22 Mg17 2.032 . S
O22 C25 1.259 . S
O23 Mg14 2.114 . S
O23 C26 1.252 . S
O24 Mg14 2.251 . S
O24 Mg17 2.079 . S
O24 C26 1.273 . S
C25 O21 1.246 . S
C25 O22 1.259 . S
C26 O23 1.252 . S
C26 O24 1.273 . S
O27 Mg14 2.010 . S
O27 C19 1.249 . S
Mg28 O29 2.028 . S
Mg28 O35 1.986 . S
Mg28 O37 2.114 . S
Mg28 O38 2.251 . S
Mg28 O41 2.010 . S
O29 Mg28 2.028 . S
O29 C32 1.250 . S
O30 Mg31 2.028 . S
O30 C32 1.248 . S
Mg31 O30 2.028 . S
Mg31 O36 2.032 . S
Mg31 O38 2.079 . S
C32 O29 1.250 . S
C32 O30 1.248 . S
C33 O34 1.264 . S
C33 O41 1.249 . S
O34 C33 1.264 . S
O35 Mg28 1.986 . S
O35 C39 1.246 . S
O36 Mg31 2.032 . S
O36 C39 1.259 . S
O37 Mg28 2.114 . S
O37 C40 1.252 . S
O38 Mg28 2.251 . S
O38 Mg31 2.079 . S
O38 C40 1.273 . S
C39 O35 1.246 . S
C39 O36 1.259 . S
C40 O37 1.252 . S
C40 O38 1.273 . S
O41 Mg28 2.010 . S
O41 C33 1.249 . S
Mg42 O43 2.028 . S
Mg42 O49 1.986 . S
Mg42 O51 2.114 . S
Mg42 O52 2.251 . S
Mg42 O55 2.010 . S
O43 Mg42 2.028 . S
O43 C46 1.250 . S
O44 Mg45 2.028 . S
O44 C46 1.248 . S
Mg45 O44 2.028 . S
Mg45 O50 2.032 . S
Mg45 O52 2.079 . S
C46 O43 1.250 . S
C46 O44 1.248 . S
C47 O48 1.264 . S
C47 O55 1.249 . S
O48 C47 1.264 . S
O49 Mg42 1.986 . S
O49 C53 1.246 . S
O50 Mg45 2.032 . S
O50 C53 1.259 . S
O51 Mg42 2.114 . S
O51 C54 1.252 . S
O52 Mg42 2.251 . S
O52 Mg45 2.079 . S
O52 C54 1.273 . S
C53 O49 1.246 . S
C53 O50 1.259 . S
C54 O51 1.252 . S
C54 O52 1.273 . S
O55 Mg42 2.010 . S
O55 C47 1.249 . S
Mg56 O57 2.028 . S
Mg56 O63 1.986 . S
Mg56 O65 2.114 . S
Mg56 O66 2.251 . S
Mg56 O69 2.010 . S
O57 Mg56 2.028 . S
O57 C60 1.250 . S
O58 Mg59 2.028 . S
O58 C60 1.248 . S
Mg59 O58 2.028 . S
Mg59 O64 2.032 . S
Mg59 O66 2.079 . S
C60 O57 1.250 . S
C60 O58 1.248 . S
C61 O62 1.264 . S
C61 O69 1.249 . S
O62 C61 1.264 . S
O63 Mg56 1.986 . S
O63 C67 1.246 . S
O64 Mg59 2.032 . S
O64 C67 1.259 . S
O65 Mg56 2.114 . S
O65 C68 1.252 . S
O66 Mg56 2.251 . S
O66 Mg59 2.079 . S
O66 C68 1.273 . S
C67 O63 1.246 . S
C67 O64 1.259 . S
C68 O65 1.252 . S
C68 O66 1.273 . S
O69 Mg56 2.010 . S
O69 C61 1.249 . S
Mg70 O71 2.028 . S
Mg70 O77 1.986 . S
Mg70 O79 2.114 . S
Mg70 O80 2.251 . S
Mg70 O83 2.010 . S
O71 Mg70 2.028 . S
O71 C74 1.250 . S
O72 Mg73 2.028 . S
O72 C74 1.248 . S
Mg73 O72 2.028 . S
Mg73 O78 2.032 . S
Mg73 O80 2.079 . S
C74 O71 1.250 . S
C74 O72 1.248 . S
C75 O76 1.264 . S
C75 O83 1.249 . S
O76 C75 1.264 . S
O77 Mg70 1.986 . S
O77 C81 1.246 . S
O78 Mg73 2.032 . S
O78 C81 1.259 . S
O79 Mg70 2.114 . S
O79 C82 1.252 . S
O80 Mg70 2.251 . S
O80 Mg73 2.079 . S
O80 C82 1.273 . S
C81 O77 1.246 . S
C81 O78 1.259 . S
C82 O79 1.252 . S
C82 O80 1.273 . S
O83 Mg70 2.010 . S
O83 C75 1.249 . S
Mg84 O85 2.028 . S
Mg84 O91 1.986 . S
Mg84 O93 2.114 . S
Mg84 O94 2.251 . S
Mg84 O97 2.010 . S
O85 Mg84 2.028 . S
O85 C88 1.250 . S
O86 Mg87 2.028 . S
O86 C88 1.248 . S
Mg87 O86 2.028 . S
Mg87 O92 2.032 . S
Mg87 O94 2.079 . S
C88 O85 1.250 . S
C88 O86 1.248 . S
C89 O90 1.264 . S
C89 O97 1.249 . S
O90 C89 1.264 . S
O91 Mg84 1.986 . S
O91 C95 1.246 . S
O92 Mg87 2.032 . S
O92 C95 1.259 . S
O93 Mg84 2.114 . S
O93 C96 1.252 . S
O94 Mg84 2.251 . S
O94 Mg87 2.079 . S
O94 C96 1.273 . S
C95 O91 1.246 . S
C95 O92 1.259 . S
C96 O93 1.252 . S
C96 O94 1.273 . S
O97 Mg84 2.010 . S
O97 C89 1.249 . S
Mg98 O99 2.028 . S
Mg98 O105 1.986 . S
Mg98 O107 2.114 . S
Mg98 O108 2.251 . S
Mg98 O111 2.010 . S
O99 Mg98 2.028 . S
O99 C102 1.250 . S
O100 Mg101 2.028 . S
O100 C102 1.248 . S
Mg101 O100 2.028 . S
Mg101 O106 2.032 . S
Mg101 O108 2.079 . S
C102 O99 1.250 . S
C102 O100 1.248 . S
C103 O104 1.264 . S
C103 O111 1.249 . S
O104 C103 1.264 . S
O105 Mg98 1.986 . S
O105 C109 1.246 . S
O106 Mg101 2.032 . S
O106 C109 1.259 . S
O107 Mg98 2.114 . S
O107 C110 1.252 . S
O108 Mg98 2.251 . S
O108 Mg101 2.079 . S
O108 C110 1.273 . S
C109 O105 1.246 . S
C109 O106 1.259 . S
C110 O107 1.252 . S
C110 O108 1.273 . S
O111 Mg98 2.010 . S
O111 C103 1.249 . S
Mg112 O113 2.028 . S
Mg112 O119 1.986 . S
Mg112 O121 2.114 . S
Mg112 O122 2.251 . S
Mg112 O125 2.010 . S
O113 Mg112 2.028 . S
O113 C116 1.250 . S
O114 Mg115 2.028 . S
O114 C116 1.248 . S
Mg115 O114 2.028 . S
Mg115 O120 2.032 . S
Mg115 O122 2.079 . S
C116 O113 1.250 . S
C116 O114 1.248 . S
C117 O118 1.264 . S
C117 O125 1.249 . S
O118 C117 1.264 . S
O119 Mg112 1.986 . S
O119 C123 1.246 . S
O120 Mg115 2.032 . S
O120 C123 1.259 . S
O121 Mg112 2.114 . S
O121 C124 1.252 . S
O122 Mg112 2.251 . S
O122 Mg115 2.079 . S
O122 C124 1.273 . S
C123 O119 1.246 . S
C123 O120 1.259 . S
C124 O121 1.252 . S
C124 O122 1.273 . S
O125 Mg112 2.010 . S
O125 C117 1.249 . S
Mg126 O127 2.028 . S
Mg126 O133 1.986 . S
Mg126 O135 2.114 . S
Mg126 O136 2.251 . S
Mg126 O139 2.010 . S
O127 Mg126 2.028 . S
O127 C130 1.250 . S
O128 Mg129 2.028 . S
O128 C130 1.248 . S
Mg129 O128 2.028 . S
Mg129 O134 2.032 . S
Mg129 O136 2.079 . S
C130 O127 1.250 . S
C130 O128 1.248 . S
C131 O132 1.264 . S
C131 O139 1.249 . S
O132 C131 1.264 . S
O133 Mg126 1.986 . S
O133 C137 1.246 . S
O134 Mg129 2.032 . S
O134 C137 1.259 . S
O135 Mg126 2.114 . S
O135 C138 1.252 . S
O136 Mg126 2.251 . S
O136 Mg129 2.079 . S
O136 C138 1.273 . S
C137 O133 1.246 . S
C137 O134 1.259 . S
C138 O135 1.252 . S
C138 O136 1.273 . S
O139 Mg126 2.010 . S
O139 C131 1.249 . S
Mg140 O141 2.028 . S
Mg140 O147 1.986 . S
Mg140 O149 2.114 . S
Mg140 O150 2.251 . S
Mg140 O153 2.010 . S
O141 Mg140 2.028 . S
O141 C144 1.250 . S
O142 Mg143 2.028 . S
O142 C144 1.248 . S
Mg143 O142 2.028 . S
Mg143 O148 2.032 . S
Mg143 O150 2.079 . S
C144 O141 1.250 . S
C144 O142 1.248 . S
C145 O146 1.264 . S
C145 O153 1.249 . S
O146 C145 1.264 . S
O147 Mg140 1.986 . S
O147 C151 1.246 . S
O148 Mg143 2.032 . S
O148 C151 1.259 . S
O149 Mg140 2.114 . S
O149 C152 1.252 . S
O150 Mg140 2.251 . S
O150 Mg143 2.079 . S
O150 C152 1.273 . S
C151 O147 1.246 . S
C151 O148 1.259 . S
C152 O149 1.252 . S
C152 O150 1.273 . S
O153 Mg140 2.010 . S
O153 C145 1.249 . S
Mg154 O155 2.028 . S
Mg154 O161 1.986 . S
Mg154 O163 2.114 . S
Mg154 O164 2.251 . S
Mg154 O167 2.010 . S
O155 Mg154 2.028 . S
O155 C158 1.250 . S
O156 Mg157 2.028 . S
O156 C158 1.248 . S
Mg157 O156 2.028 . S
Mg157 O162 2.032 . S
Mg157 O164 2.079 . S
C158 O155 1.250 . S
C158 O156 1.248 . S
C159 O160 1.264 . S
C159 O167 1.249 . S
O160 C159 1.264 . S
O161 Mg154 1.986 . S
O161 C165 1.246 . S
O162 Mg157 2.032 . S
O162 C165 1.259 . S
O163 Mg154 2.114 . S
O163 C166 1.252 . S
O164 Mg154 2.251 . S
O164 Mg157 2.079 . S
O164 C166 1.273 . S
C165 O161 1.246 . S
C165 O162 1.259 . S
C166 O163 1.252 . S
C166 O164 1.273 . S
O167 Mg154 2.010 . S
O167 C159 1.249 . S
Mg168 O169 2.028 . S
Mg168 O175 1.986 . S
Mg168 O177 2.114 . S
Mg168 O178 2.251 . S
Mg168 O181 2.010 . S
O169 Mg168 2.028 . S
O169 C172 1.250 . S
O170 Mg171 2.028 . S
O170 C172 1.248 . S
Mg171 O170 2.028 . S
Mg171 O176 2.032 . S
Mg171 O178 2.079 . S
C172 O169 1.250 . S
C172 O170 1.248 . S
C173 O174 1.264 . S
C173 O181 1.249 . S
O174 C173 1.264 . S
O175 Mg168 1.986 . S
O175 C179 1.246 . S
O176 Mg171 2.032 . S
O176 C179 1.259 . S
O177 Mg168 2.114 . S
O177 C180 1.252 . S
O178 Mg168 2.251 . S
O178 Mg171 2.079 . S
O178 C180 1.273 . S
C179 O175 1.246 . S
C179 O176 1.259 . S
C180 O177 1.252 . S
C180 O178 1.273 . S
O181 Mg168 2.010 . S
O181 C173 1.249 . S
Mg182 O183 2.028 . S
Mg182 O189 1.986 . S
Mg182 O191 2.114 . S
Mg182 O192 2.251 . S
Mg182 O195 2.010 . S
O183 Mg182 2.028 . S
O183 C186 1.250 . S
O184 Mg185 2.028 . S
O184 C186 1.248 . S
Mg185 O184 2.028 . S
Mg185 O190 2.032 . S
Mg185 O192 2.079 . S
C186 O183 1.250 . S
C186 O184 1.248 . S
C187 O188 1.264 . S
C187 O195 1.249 . S
O188 C187 1.264 . S
O189 Mg182 1.986 . S
O189 C193 1.246 . S
O190 Mg185 2.032 . S
O190 C193 1.259 . S
O191 Mg182 2.114 . S
O191 C194 1.252 . S
O192 Mg182 2.251 . S
O192 Mg185 2.079 . S
O192 C194 1.273 . S
C193 O189 1.246 . S
C193 O190 1.259 . S
C194 O191 1.252 . S
C194 O192 1.273 . S
O195 Mg182 2.010 . S
O195 C187 1.249 . S
Mg196 O197 2.028 . S
Mg196 O203 1.986 . S
Mg196 O205 2.114 . S
Mg196 O206 2.251 . S
Mg196 O209 2.010 . S
O197 Mg196 2.028 . S
O197 C200 1.250 . S
O198 Mg199 2.028 . S
O198 C200 1.248 . S
Mg199 O198 2.028 . S
Mg199 O204 2.032 . S
Mg199 O206 2.079 . S
C200 O197 1.250 . S
C200 O198 1.248 . S
C201 O202 1.264 . S
C201 O209 1.249 . S
O202 C201 1.264 . S
O203 Mg196 1.986 . S
O203 C207 1.246 . S
O204 Mg199 2.032 . S
O204 C207 1.259 . S
O205 Mg196 2.114 . S
O205 C208 1.252 . S
O206 Mg196 2.251 . S
O206 Mg199 2.079 . S
O206 C208 1.273 . S
C207 O203 1.246 . S
C207 O204 1.259 . S
C208 O205 1.252 . S
C208 O206 1.273 . S
O209 Mg196 2.010 . S
O209 C201 1.249 . S
Mg210 O211 2.028 . S
Mg210 O217 1.986 . S
Mg210 O219 2.114 . S
Mg210 O220 2.251 . S
Mg210 O223 2.010 . S
O211 Mg210 2.028 . S
O211 C214 1.250 . S
O212 Mg213 2.028 . S
O212 C214 1.248 . S
Mg213 O212 2.028 . S
Mg213 O218 2.032 . S
Mg213 O220 2.079 . S
C214 O211 1.250 . S
C214 O212 1.248 . S
C215 O216 1.264 . S
C215 O223 1.249 . S
O216 C215 1.264 . S
O217 Mg210 1.986 . S
O217 C221 1.246 . S
O218 Mg213 2.032 . S
O218 C221 1.259 . S
O219 Mg210 2.114 . S
O219 C222 1.252 . S
O220 Mg210 2.251 . S
O220 Mg213 2.079 . S
O220 C222 1.273 . S
C221 O217 1.246 . S
C221 O218 1.259 . S
C222 O219 1.252 . S
C222 O220 1.273 . S
O223 Mg210 2.010 . S
O223 C215 1.249 . S
C224 C225 1.369 . S
C224 C226 1.419 . S
C224 H228 0.930 . S
C225 C224 1.369 . S
C225 C234 1.429 1_554 S
C226 C224 1.419 . S
C226 C227 1.363 1_554 S
C226 H229 0.929 . S
C227 C226 1.363 1_556 S
C227 C233 1.428 . S
H228 C224 0.930 . S
H229 C226 0.929 . S
S230 N231 1.613 . S
S230 N232 1.610 . S
N231 S230 1.613 . S
N231 C234 1.350 . S
N232 S230 1.610 . S
N232 C233 1.351 . S
C233 C227 1.428 . S
C233 N232 1.351 . S
C233 C234 1.434 . S
C234 C225 1.429 1_556 S
C234 N231 1.350 . S
C234 C233 1.434 . S
C235 C236 1.369 . S
C235 C237 1.419 . S
C235 H239 0.930 . S
C236 C235 1.369 . S
C236 C245 1.429 . S
C237 C235 1.419 . S
C237 C238 1.363 . S
C237 H240 0.929 . S
C238 C237 1.363 . S
C238 C244 1.428 . S
H239 C235 0.930 . S
H240 C237 0.929 . S
S241 N242 1.613 . S
S241 N243 1.610 . S
N242 S241 1.613 . S
N242 C245 1.350 . S
N243 S241 1.610 . S
N243 C244 1.351 . S
C244 C238 1.428 . S
C244 N243 1.351 . S
C244 C245 1.434 . S
C245 C236 1.429 . S
C245 N242 1.350 . S
C245 C244 1.434 . S
C246 C247 1.369 1_554 S
C246 C248 1.419 . S
C246 H250 0.930 . S
C247 C246 1.369 1_556 S
C247 C256 1.429 . S
C248 C246 1.419 . S
C248 C249 1.363 . S
C248 H251 0.929 . S
C249 C248 1.363 . S
C249 C255 1.428 1_554 S
H250 C246 0.930 . S
H251 C248 0.929 . S
S252 N253 1.613 . S
S252 N254 1.610 . S
N253 S252 1.613 . S
N253 C256 1.350 . S
N254 S252 1.610 . S
N254 C255 1.351 . S
C255 C249 1.428 1_556 S
C255 N254 1.351 . S
C255 C256 1.434 . S
C256 C247 1.429 . S
C256 N253 1.350 . S
C256 C255 1.434 . S
C257 C258 1.369 . S
C257 C259 1.419 . S
C257 H261 0.930 . S
C258 C257 1.369 . S
C258 C267 1.429 . S
C259 C257 1.419 . S
C259 C260 1.363 . S
C259 H262 0.929 . S
C260 C259 1.363 . S
C260 C266 1.428 . S
H261 C257 0.930 . S
H262 C259 0.929 . S
S263 N264 1.613 . S
S263 N265 1.610 . S
N264 S263 1.613 . S
N264 C267 1.350 . S
N265 S263 1.610 . S
N265 C266 1.351 . S
C266 C260 1.428 . S
C266 N265 1.351 . S
C266 C267 1.434 . S
C267 C258 1.429 . S
C267 N264 1.350 . S
C267 C266 1.434 . S
C268 C269 1.369 1_556 S
C268 C270 1.419 . S
C268 H272 0.930 . S
C269 C268 1.369 1_554 S
C269 C278 1.429 . S
C270 C268 1.419 . S
C270 C271 1.363 . S
C270 H273 0.929 . S
C271 C270 1.363 . S
C271 C277 1.428 1_556 S
H272 C268 0.930 . S
H273 C270 0.929 . S
S274 N275 1.613 . S
S274 N276 1.610 . S
N275 S274 1.613 . S
N275 C278 1.350 . S
N276 S274 1.610 . S
N276 C277 1.351 . S
C277 C271 1.428 1_554 S
C277 N276 1.351 . S
C277 C278 1.434 . S
C278 C269 1.429 . S
C278 N275 1.350 . S
C278 C277 1.434 . S
C279 C280 1.369 . S
C279 C281 1.419 . S
C279 H283 0.930 . S
C280 C279 1.369 . S
C280 C289 1.429 . S
C281 C279 1.419 . S
C281 C282 1.363 . S
C281 H284 0.929 . S
C282 C281 1.363 . S
C282 C288 1.428 . S
H283 C279 0.930 . S
H284 C281 0.929 . S
S285 N286 1.613 . S
S285 N287 1.610 . S
N286 S285 1.613 . S
N286 C289 1.350 . S
N287 S285 1.610 . S
N287 C288 1.351 . S
C288 C282 1.428 . S
C288 N287 1.351 . S
C288 C289 1.434 . S
C289 C280 1.429 . S
C289 N286 1.350 . S
C289 C288 1.434 . S
C290 C291 1.369 1_554 S
C290 C292 1.419 . S
C290 H294 0.930 . S
C291 C290 1.369 1_556 S
C291 C300 1.429 . S
C292 C290 1.419 . S
C292 C293 1.363 . S
C292 H295 0.929 . S
C293 C292 1.363 . S
C293 C299 1.428 1_554 S
H294 C290 0.930 . S
H295 C292 0.929 . S
S296 N297 1.613 . S
S296 N298 1.610 . S
N297 S296 1.613 . S
N297 C300 1.350 . S
N298 S296 1.610 . S
N298 C299 1.351 . S
C299 C293 1.428 1_556 S
C299 N298 1.351 . S
C299 C300 1.434 . S
C300 C291 1.429 . S
C300 N297 1.350 . S
C300 C299 1.434 . S
C301 C302 1.369 . S
C301 C303 1.419 . S
C301 H305 0.930 . S
C302 C301 1.369 . S
C302 C311 1.429 . S
C303 C301 1.419 . S
C303 C304 1.363 . S
C303 H306 0.929 . S
C304 C303 1.363 . S
C304 C310 1.428 . S
H305 C301 0.930 . S
H306 C303 0.929 . S
S307 N308 1.613 . S
S307 N309 1.610 . S
N308 S307 1.613 . S
N308 C311 1.350 . S
N309 S307 1.610 . S
N309 C310 1.351 . S
C310 C304 1.428 . S
C310 N309 1.351 . S
C310 C311 1.434 . S
C311 C302 1.429 . S
C311 N308 1.350 . S
C311 C310 1.434 . S
C312 C313 1.369 . S
C312 C314 1.419 1_545 S
C312 H316 0.930 . S
C313 C312 1.369 . S
C313 C322 1.429 1_554 S
C314 C312 1.419 1_565 S
C314 C315 1.363 1_554 S
C314 H317 0.929 . S
C315 C314 1.363 1_556 S
C315 C321 1.428 . S
H316 C312 0.930 . S
H317 C314 0.929 . S
S318 N319 1.613 . S
S318 N320 1.628 . S
N319 S318 1.613 . S
N319 C322 1.350 . S
N320 S318 1.628 . S
N320 C321 1.350 1_545 S
C321 C315 1.428 . S
C321 N320 1.350 1_565 S
C321 C322 1.434 1_565 S
C322 C313 1.429 1_556 S
C322 N319 1.350 . S
C322 C321 1.434 1_545 S
C323 C324 1.369 . S
C323 C325 1.419 1_565 S
C323 H327 0.930 . S
C324 C323 1.369 . S
C324 C333 1.429 . S
C325 C323 1.419 1_545 S
C325 C326 1.363 . S
C325 H328 0.929 . S
C326 C325 1.363 . S
C326 C332 1.428 . S
H327 C323 0.930 . S
H328 C325 0.929 . S
S329 N330 1.613 . S
S329 N331 1.610 . S
N330 S329 1.613 . S
N330 C333 1.350 . S
N331 S329 1.610 . S
N331 C332 1.351 1_565 S
C332 C326 1.428 . S
C332 N331 1.351 1_545 S
C332 C333 1.434 1_545 S
C333 C324 1.429 . S
C333 N330 1.350 . S
C333 C332 1.434 1_565 S
C334 C335 1.369 1_545 S
C334 C336 1.419 . S
C334 H338 0.930 . S
C335 C334 1.369 1_565 S
C335 C344 1.429 1_556 S
C336 C334 1.419 . S
C336 C337 1.363 1_556 S
C336 H339 0.929 . S
C337 C336 1.363 1_554 S
C337 C343 1.428 1_545 S
H338 C334 0.930 . S
H339 C336 0.929 . S
S340 N341 1.613 . S
S340 N342 1.610 . S
N341 S340 1.613 . S
N341 C344 1.350 . S
N342 S340 1.610 . S
N342 C343 1.351 . S
C343 C337 1.428 1_565 S
C343 N342 1.351 . S
C343 C344 1.434 . S
C344 C335 1.429 1_554 S
C344 N341 1.350 . S
C344 C343 1.434 . S
C345 C346 1.369 . S
C345 C347 1.419 . S
C345 H349 0.930 . S
C346 C345 1.369 . S
C346 C355 1.429 1_545 S
C347 C345 1.419 . S
C347 C348 1.363 1_545 S
C347 H350 0.929 . S
C348 C347 1.363 1_565 S
C348 C354 1.428 . S
H349 C345 0.930 . S
H350 C347 0.929 . S
S351 N352 1.613 . S
S351 N353 1.610 . S
N352 S351 1.613 . S
N352 C355 1.350 . S
N353 S351 1.610 . S
N353 C354 1.351 . S
C354 C348 1.428 . S
C354 N353 1.351 . S
C354 C355 1.434 . S
C355 C346 1.429 1_565 S
C355 N352 1.350 . S
C355 C354 1.434 . S
C356 C357 1.369 . S
C356 C358 1.419 1_556 S
C356 H360 0.930 . S
C357 C356 1.369 . S
C357 C366 1.429 . S
C358 C356 1.419 1_554 S
C358 C359 1.363 . S
C358 H361 0.929 . S
C359 C358 1.363 . S
C359 C365 1.428 . S
H360 C356 0.930 . S
H361 C358 0.929 . S
S362 N363 1.613 1_554 S
S362 N364 1.610 . S
N363 S362 1.613 1_556 S
N363 C366 1.350 . S
N364 S362 1.610 . S
N364 C365 1.351 . S
C365 C359 1.428 . S
C365 N364 1.351 . S
C365 C366 1.434 1_554 S
C366 C357 1.429 . S
C366 N363 1.350 . S
C366 C365 1.434 1_556 S
C367 C368 1.369 . S
C367 C369 1.419 . S
C367 H371 0.930 . S
C368 C367 1.369 . S
C368 C377 1.429 . S
C369 C367 1.419 . S
C369 C370 1.363 . S
C369 H372 0.929 . S
C370 C369 1.363 . S
C370 C376 1.428 . S
H371 C367 0.930 . S
H372 C369 0.929 . S
S373 N374 1.613 . S
S373 N375 1.610 . S
N374 S373 1.613 . S
N374 C377 1.350 . S
N375 S373 1.610 . S
N375 C376 1.351 . S
C376 C370 1.428 . S
C376 N375 1.351 . S
C376 C377 1.434 . S
C377 C368 1.429 . S
C377 N374 1.350 . S
C377 C376 1.434 . S
C378 C379 1.369 . S
C378 C380 1.419 . S
C378 H382 0.930 . S
C379 C378 1.369 . S
C379 C388 1.429 1_554 S
C380 C378 1.419 . S
C380 C381 1.363 1_554 S
C380 H383 0.929 . S
C381 C380 1.363 1_556 S
C381 C387 1.428 . S
H382 C378 0.930 . S
H383 C380 0.929 . S
S384 N385 1.613 . S
S384 N386 1.610 . S
N385 S384 1.613 . S
N385 C388 1.350 . S
N386 S384 1.610 . S
N386 C387 1.351 . S
C387 C381 1.428 . S
C387 N386 1.351 . S
C387 C388 1.434 . S
C388 C379 1.429 1_556 S
C388 N385 1.350 . S
C388 C387 1.434 . S
C389 C390 1.369 . S
C389 C391 1.419 . S
C389 H393 0.930 . S
C390 C389 1.369 . S
C390 C399 1.429 . S
C391 C389 1.419 . S
C391 C392 1.363 . S
C391 H394 0.929 . S
C392 C391 1.363 . S
C392 C398 1.428 . S
H393 C389 0.930 . S
H394 C391 0.929 . S
S395 N396 1.613 . S
S395 N397 1.610 . S
N396 S395 1.613 . S
N396 C399 1.350 . S
N397 S395 1.610 . S
N397 C398 1.351 . S
C398 C392 1.428 . S
C398 N397 1.351 . S
C398 C399 1.434 . S
C399 C390 1.429 . S
C399 N396 1.350 . S
C399 C398 1.434 . S
C400 C401 1.369 . S
C400 C402 1.419 . S
C400 H404 0.930 . S
C401 C400 1.369 . S
C401 C410 1.429 . S
C402 C400 1.419 . S
C402 C403 1.363 . S
C402 H405 0.929 . S
C403 C402 1.363 . S
C403 C409 1.428 . S
H404 C400 0.930 . S
H405 C402 0.929 . S
S406 N407 1.613 . S
S406 N408 1.610 . S
N407 S406 1.613 . S
N407 C410 1.350 . S
N408 S406 1.610 . S
N408 C409 1.351 . S
C409 C403 1.428 . S
C409 N408 1.351 . S
C409 C410 1.434 . S
C410 C401 1.429 . S
C410 N407 1.350 . S
C410 C409 1.434 . S
C411 C412 1.369 . S
C411 C413 1.419 1_655 S
C411 H415 0.930 . S
C412 C411 1.369 . S
C412 C421 1.429 . S
C413 C411 1.419 1_455 S
C413 C414 1.363 . S
C413 H416 0.929 . S
C414 C413 1.363 . S
C414 C420 1.428 . S
H415 C411 0.930 . S
H416 C413 0.929 . S
S417 N418 1.613 1_455 S
S417 N419 1.610 . S
N418 S417 1.613 1_655 S
N418 C421 1.350 . S
N419 S417 1.610 . S
N419 C420 1.351 . S
C420 C414 1.428 . S
C420 N419 1.351 . S
C420 C421 1.434 1_455 S
C421 C412 1.429 . S
C421 N418 1.350 . S
C421 C420 1.434 1_655 S
C422 C423 1.369 . S
C422 C424 1.419 . S
C422 H426 0.930 . S
C423 C422 1.369 . S
C423 C432 1.429 . S
C424 C422 1.419 . S
C424 C425 1.363 . S
C424 H427 0.929 . S
C425 C424 1.363 . S
C425 C431 1.428 . S
H426 C422 0.930 . S
H427 C424 0.929 . S
S428 N429 1.614 1_554 S
S428 N430 1.611 1_554 S
N429 S428 1.614 1_556 S
N429 C432 1.350 . S
N430 S428 1.611 1_556 S
N430 C431 1.351 . S
C431 C425 1.428 . S
C431 N430 1.351 . S
C431 C432 1.434 . S
C432 C423 1.429 . S
C432 N429 1.350 . S
C432 C431 1.434 . S
C433 C434 1.369 . S
C433 C435 1.419 1_455 S
C433 H437 0.930 . S
C434 C433 1.369 . S
C434 C443 1.429 . S
C435 C433 1.419 1_655 S
C435 C436 1.363 . S
C435 H438 0.929 . S
C436 C435 1.363 . S
C436 C442 1.428 . S
H437 C433 0.930 . S
H438 C435 0.929 . S
S439 N440 1.613 . S
S439 N441 1.610 1_455 S
N440 S439 1.613 . S
N440 C443 1.350 . S
N441 S439 1.610 1_655 S
N441 C442 1.351 . S
C442 C436 1.428 . S
C442 N441 1.351 . S
C442 C443 1.434 1_655 S
C443 C434 1.429 . S
C443 N440 1.350 . S
C443 C442 1.434 1_455 S
C444 C445 1.369 . S
C444 C446 1.419 1_455 S
C444 H448 0.930 . S
C445 C444 1.369 . S
C445 C454 1.429 . S
C446 C444 1.419 1_655 S
C446 C447 1.363 . S
C446 H449 0.929 . S
C447 C446 1.363 . S
C447 C453 1.428 . S
H448 C444 0.930 . S
H449 C446 0.929 . S
S450 N451 1.613 1_655 S
S450 N452 1.610 . S
N451 S450 1.613 1_455 S
N451 C454 1.350 . S
N452 S450 1.610 . S
N452 C453 1.351 . S
C453 C447 1.428 . S
C453 N452 1.351 . S
C453 C454 1.434 1_655 S
C454 C445 1.429 . S
C454 N451 1.350 . S
C454 C453 1.434 1_455 S
C455 C456 1.369 . S
C455 C457 1.419 . S
C455 H459 0.930 . S
C456 C455 1.369 . S
C456 C465 1.429 . S
C457 C455 1.419 . S
C457 C458 1.363 . S
C457 H460 0.929 . S
C458 C457 1.363 . S
C458 C464 1.428 . S
H459 C455 0.930 . S
H460 C457 0.929 . S
S461 N462 1.613 . S
S461 N463 1.610 . S
N462 S461 1.613 . S
N462 C465 1.350 . S
N463 S461 1.610 . S
N463 C464 1.351 . S
C464 C458 1.428 . S
C464 N463 1.351 . S
C464 C465 1.434 . S
C465 C456 1.429 . S
C465 N462 1.350 . S
C465 C464 1.434 . S
C466 C467 1.369 . S
C466 C468 1.419 1_455 S
C466 H470 0.930 . S
C467 C466 1.369 . S
C467 C476 1.429 . S
C468 C466 1.419 1_655 S
C468 C469 1.363 . S
C468 H471 0.929 . S
C469 C468 1.363 . S
C469 C475 1.428 . S
H470 C466 0.930 . S
H471 C468 0.929 . S
S472 N473 1.613 1_655 S
S472 N474 1.610 . S
N473 S472 1.613 1_455 S
N473 C476 1.350 . S
N474 S472 1.610 . S
N474 C475 1.351 . S
C475 C469 1.428 . S
C475 N474 1.351 . S
C475 C476 1.434 1_655 S
C476 C467 1.429 . S
C476 N473 1.350 . S
C476 C475 1.434 1_455 S
C477 C478 1.369 . S
C477 C479 1.419 . S
C477 H481 0.930 . S
C478 C477 1.369 . S
C478 C487 1.429 . S
C479 C477 1.419 . S
C479 C480 1.363 . S
C479 H482 0.929 . S
C480 C479 1.363 . S
C480 C486 1.428 . S
H481 C477 0.930 . S
H482 C479 0.929 . S
S483 N484 1.613 . S
S483 N485 1.610 . S
N484 S483 1.613 . S
N484 C487 1.350 . S
N485 S483 1.610 . S
N485 C486 1.351 . S
C486 C480 1.428 . S
C486 N485 1.351 . S
C486 C487 1.434 . S
C487 C478 1.429 . S
C487 N484 1.350 . S
C487 C486 1.434 . S
C488 C489 1.369 . S
C488 C490 1.419 . S
C488 H492 0.930 . S
C489 C488 1.369 . S
C489 C498 1.429 . S
C490 C488 1.419 . S
C490 C491 1.363 . S
C490 H493 0.929 . S
C491 C490 1.363 . S
C491 C497 1.428 . S
H492 C488 0.930 . S
H493 C490 0.929 . S
S494 N495 1.613 . S
S494 N496 1.610 . S
N495 S494 1.613 . S
N495 C498 1.350 . S
N496 S494 1.610 . S
N496 C497 1.351 . S
C497 C491 1.428 . S
C497 N496 1.351 . S
C497 C498 1.434 . S
C498 C489 1.429 . S
C498 N495 1.350 . S
C498 C497 1.434 . S
C499 C500 1.369 . S
C499 C501 1.419 . S
C499 H503 0.930 . S
C500 C499 1.369 . S
C500 C509 1.429 . S
C501 C499 1.419 . S
C501 C502 1.363 . S
C501 H504 0.929 . S
C502 C501 1.363 . S
C502 C508 1.428 . S
H503 C499 0.930 . S
H504 C501 0.929 . S
S505 N506 1.613 . S
S505 N507 1.610 . S
N506 S505 1.613 . S
N506 C509 1.350 . S
N507 S505 1.610 . S
N507 C508 1.351 . S
C508 C502 1.428 . S
C508 N507 1.351 . S
C508 C509 1.434 . S
C509 C500 1.429 . S
C509 N506 1.350 . S
C509 C508 1.434 . S
C510 C511 1.369 . S
C510 C512 1.419 . S
C510 H514 0.930 . S
C511 C510 1.369 . S
C511 C520 1.429 . S
C512 C510 1.419 . S
C512 C513 1.363 . S
C512 H515 0.929 . S
C513 C512 1.363 . S
C513 C519 1.428 . S
H514 C510 0.930 . S
H515 C512 0.929 . S
S516 N517 1.613 . S
S516 N518 1.610 . S
N517 S516 1.613 . S
N517 C520 1.350 . S
N518 S516 1.610 . S
N518 C519 1.351 . S
C519 C513 1.428 . S
C519 N518 1.351 . S
C519 C520 1.434 . S
C520 C511 1.429 . S
C520 N517 1.350 . S
C520 C519 1.434 . S
C521 C522 1.369 . S
C521 C523 1.419 . S
C521 H525 0.930 . S
C522 C521 1.369 . S
C522 C531 1.429 . S
C523 C521 1.419 . S
C523 C524 1.363 . S
C523 H526 0.929 . S
C524 C523 1.363 . S
C524 C530 1.428 . S
H525 C521 0.930 . S
H526 C523 0.929 . S
S527 N528 1.613 . S
S527 N529 1.610 . S
N528 S527 1.613 . S
N528 C531 1.350 . S
N529 S527 1.610 . S
N529 C530 1.351 . S
C530 C524 1.428 . S
C530 N529 1.351 . S
C530 C531 1.434 . S
C531 C522 1.429 . S
C531 N528 1.350 . S
C531 C530 1.434 . S
C532 C533 1.369 . S
C532 C534 1.419 . S
C532 H536 0.930 . S
C533 C532 1.369 . S
C533 C542 1.429 . S
C534 C532 1.419 . S
C534 C535 1.363 . S
C534 H537 0.929 . S
C535 C534 1.363 . S
C535 C541 1.428 . S
H536 C532 0.930 . S
H537 C534 0.929 . S
S538 N539 1.613 . S
S538 N540 1.610 . S
N539 S538 1.613 . S
N539 C542 1.350 . S
N540 S538 1.610 . S
N540 C541 1.351 . S
C541 C535 1.428 . S
C541 N540 1.351 . S
C541 C542 1.434 . S
C542 C533 1.429 . S
C542 N539 1.350 . S
C542 C541 1.434 . S
C543 C544 1.369 . S
C543 C545 1.419 . S
C543 H547 0.930 . S
C544 C543 1.369 . S
C544 C553 1.429 . S
C545 C543 1.419 . S
C545 C546 1.363 . S
C545 H548 0.929 . S
C546 C545 1.363 . S
C546 C552 1.428 . S
H547 C543 0.930 . S
H548 C545 0.929 . S
S549 N550 1.613 . S
S549 N551 1.610 . S
N550 S549 1.613 . S
N550 C553 1.350 . S
N551 S549 1.610 . S
N551 C552 1.351 . S
C552 C546 1.428 . S
C552 N551 1.351 . S
C552 C553 1.434 . S
C553 C544 1.429 . S
C553 N550 1.350 . S
C553 C552 1.434 . S
C554 C555 1.369 . S
C554 C556 1.419 . S
C554 H558 0.930 . S
C555 C554 1.369 . S
C555 C564 1.429 . S
C556 C554 1.419 . S
C556 C557 1.363 . S
C556 H559 0.929 . S
C557 C556 1.363 . S
C557 C563 1.428 . S
H558 C554 0.930 . S
H559 C556 0.929 . S
S560 N561 1.613 . S
S560 N562 1.610 . S
N561 S560 1.613 . S
N561 C564 1.350 . S
N562 S560 1.610 . S
N562 C563 1.351 . S
C563 C557 1.428 . S
C563 N562 1.351 . S
C563 C564 1.434 . S
C564 C555 1.429 . S
C564 N561 1.350 . S
C564 C563 1.434 . S
C565 C566 1.369 . S
C565 C567 1.419 . S
C565 H569 0.930 . S
C566 C565 1.369 . S
C566 C575 1.429 . S
C567 C565 1.419 . S
C567 C568 1.363 . S
C567 H570 0.929 . S
C568 C567 1.363 . S
C568 C574 1.428 . S
H569 C565 0.930 . S
H570 C567 0.929 . S
S571 N572 1.613 . S
S571 N573 1.610 . S
N572 S571 1.613 . S
N572 C575 1.350 . S
N573 S571 1.610 . S
N573 C574 1.351 . S
C574 C568 1.428 . S
C574 N573 1.351 . S
C574 C575 1.434 . S
C575 C566 1.429 . S
C575 N572 1.350 . S
C575 C574 1.434 . S
C225 C11 1.410 . S
C227 C180 1.423 . S
C236 C194 1.425 . S
C238 C25 1.412 . S
C247 C39 1.411 . S
C249 C208 1.425 . S
C258 C222 1.423 . S
C260 C53 1.411 . S
C269 C123 1.410 . S
C271 C68 1.425 . S
C280 C82 1.423 . S
C282 C137 1.411 . S
C291 C151 1.410 . S
C293 C96 1.424 . S
C302 C110 1.424 . S
C304 C165 1.410 . S
C313 C4 1.486 . S
C315 C32 1.488 . S
C324 C18 1.486 . S
C326 C46 1.488 . S
C335 C60 1.416 . S
C337 C88 1.418 . S
C346 C74 1.416 . S
C348 C102 1.415 . S
C357 C144 1.484 . S
C359 C116 1.484 . S
C368 C130 1.484 . S
C370 C158 1.484 . S
C379 C200 1.415 . S
C381 C172 1.417 . S
C390 C186 1.419 . S
C392 C214 1.418 . S
C401 C89 1.314 . S
C403 C5 1.313 . S
C412 C103 1.302 . S
C414 C19 1.305 . S
C423 C33 1.314 . S
C425 C61 1.310 . S
C434 C47 1.314 . S
C436 C75 1.313 . S
C445 C201 1.301 . S
C447 C117 1.304 . S
C456 C131 1.315 . S
C458 C215 1.313 . S
C467 C173 1.301 . S
C469 C145 1.305 . S
C478 C159 1.311 . S
C480 C187 1.308 . S
C489 C12 1.457 . S
C491 C54 1.456 . S
C500 C40 1.457 . S
C502 C26 1.456 . S
C511 C67 1.371 . S
C513 C109 1.367 . S
C522 C81 1.370 . S
C524 C95 1.366 . S
C533 C166 1.458 . S
C535 C124 1.458 . S
C544 C138 1.458 . S
C546 C152 1.456 . S
C555 C221 1.369 . S
C557 C179 1.369 . S
C566 C193 1.369 . S
C568 C207 1.367 . S
