# Generated by pormake.
# Topology uoq, (4)-cn, num edge types: 1
# Building blocks:
#     Node 0, Type 0, BuildingBlock: AZAVOO_clean_sbu_0, # of connection points: 4
#     Node 1, Type 0, BuildingBlock: AZAVOO_clean_sbu_0, # of connection points: 4
#     Node 2, Type 0, BuildingBlock: AZAVOO_clean_sbu_0, # of connection points: 4
#     Node 3, Type 0, BuildingBlock: AZAVOO_clean_sbu_0, # of connection points: 4
#     Node 4, Type 0, BuildingBlock: AZAVOO_clean_sbu_0, # of connection points: 4
#     Node 5, Type 0, BuildingBlock: AZAVOO_clean_sbu_0, # of connection points: 4
#     Node 6, Type 0, BuildingBlock: AZAVOO_clean_sbu_0, # of connection points: 4
#     Node 7, Type 0, BuildingBlock: AZAVOO_clean_sbu_0, # of connection points: 4
#     Node 8, Type 0, BuildingBlock: AZAVOO_clean_sbu_0, # of connection points: 4
#     Node 9, Type 0, BuildingBlock: AZAVOO_clean_sbu_0, # of connection points: 4
#     Node 10, Type 0, BuildingBlock: AZAVOO_clean_sbu_0, # of connection points: 4
#     Node 11, Type 0, BuildingBlock: AZAVOO_clean_sbu_0, # of connection points: 4
#     Edge 12, Type (0, 0), BuildingBlock: XUDNAN_clean_linker_2, # of connection points: 2
#     Edge 13, Type (0, 0), BuildingBlock: XUDNAN_clean_linker_2, # of connection points: 2
#     Edge 14, Type (0, 0), BuildingBlock: XUDNAN_clean_linker_2, # of connection points: 2
#     Edge 15, Type (0, 0), BuildingBlock: XUDNAN_clean_linker_2, # of connection points: 2
#     Edge 16, Type (0, 0), BuildingBlock: XUDNAN_clean_linker_2, # of connection points: 2
#     Edge 17, Type (0, 0), BuildingBlock: XUDNAN_clean_linker_2, # of connection points: 2
#     Edge 18, Type (0, 0), BuildingBlock: XUDNAN_clean_linker_2, # of connection points: 2
#     Edge 19, Type (0, 0), BuildingBlock: XUDNAN_clean_linker_2, # of connection points: 2
#     Edge 20, Type (0, 0), BuildingBlock: XUDNAN_clean_linker_2, # of connection points: 2
#     Edge 21, Type (0, 0), BuildingBlock: XUDNAN_clean_linker_2, # of connection points: 2
#     Edge 22, Type (0, 0), BuildingBlock: XUDNAN_clean_linker_2, # of connection points: 2
#     Edge 23, Type (0, 0), BuildingBlock: XUDNAN_clean_linker_2, # of connection points: 2
#     Edge 24, Type (0, 0), BuildingBlock: XUDNAN_clean_linker_2, # of connection points: 2
#     Edge 25, Type (0, 0), BuildingBlock: XUDNAN_clean_linker_2, # of connection points: 2
#     Edge 26, Type (0, 0), BuildingBlock: XUDNAN_clean_linker_2, # of connection points: 2
#     Edge 27, Type (0, 0), BuildingBlock: XUDNAN_clean_linker_2, # of connection points: 2
#     Edge 28, Type (0, 0), BuildingBlock: XUDNAN_clean_linker_2, # of connection points: 2
#     Edge 29, Type (0, 0), BuildingBlock: XUDNAN_clean_linker_2, # of connection points: 2
#     Edge 30, Type (0, 0), BuildingBlock: XUDNAN_clean_linker_2, # of connection points: 2
#     Edge 31, Type (0, 0), BuildingBlock: XUDNAN_clean_linker_2, # of connection points: 2
#     Edge 32, Type (0, 0), BuildingBlock: XUDNAN_clean_linker_2, # of connection points: 2
#     Edge 33, Type (0, 0), BuildingBlock: XUDNAN_clean_linker_2, # of connection points: 2
#     Edge 34, Type (0, 0), BuildingBlock: XUDNAN_clean_linker_2, # of connection points: 2
#     Edge 35, Type (0, 0), BuildingBlock: XUDNAN_clean_linker_2, # of connection points: 2
# Relax obj value: 0.087
# Max RMSD: 0.084
# Mean RMSD: 0.084
data_MOF--net-uoq--node1-AZAVOO_clean_sbu_0--edge1-XUDNAN_clean_linker_2
_symmetry_space_group_name_H-M    P1
_symmetry_Int_Tables_number       1
_symmetry_cell_setting            triclinic
loop_
_symmetry_equiv_pos_as_xyz
'x, y, z'
_cell_length_a     58.131783
_cell_length_b     58.163233
_cell_length_c     23.757832
_cell_angle_alpha  89.947456
_cell_angle_beta   90.062358
_cell_angle_gamma 119.96423
loop_
_atom_site_label
_atom_site_type_symbol
_atom_site_fract_x
_atom_site_fract_y
_atom_site_fract_z
_atom_type_partial_charge
Mg0 Mg 0.30773 0.4436 0.2475 0.0
O1 O 0.28818 0.44231 0.33306 0.0
O2 O 0.32023 0.45514 0.3981 0.0
Mg3 Mg 0.35902 0.46414 0.35674 0.0
C4 C 0.2962 0.44726 0.38416 0.0
C5 C 0.25427 0.43328 0.19585 0.0
O6 O 0.2617 0.45559 0.22297 0.0
O7 O 0.30712 0.40487 0.26992 0.0
O8 O 0.33906 0.41999 0.33548 0.0
O9 O 0.32015 0.48674 0.23823 0.0
O10 O 0.34444 0.47191 0.27853 0.0
C11 C 0.3213 0.40112 0.30592 0.0
C12 C 0.34137 0.49167 0.26564 0.0
O13 O 0.26789 0.42183 0.20165 0.0
Mg14 Mg 0.85993 0.31778 0.56905 0.0
O15 O 0.83136 0.28841 0.63507 0.0
O16 O 0.84272 0.3083 0.71916 0.0
Mg17 Mg 0.87906 0.3492 0.7082 0.0
C18 C 0.82786 0.28839 0.68822 0.0
C19 C 0.83664 0.29155 0.45637 0.0
O20 O 0.83826 0.31486 0.45309 0.0
O21 O 0.89248 0.30901 0.59743 0.0
O22 O 0.90232 0.32869 0.68199 0.0
O23 O 0.83371 0.33567 0.56152 0.0
O24 O 0.86741 0.3496 0.6207 0.0
C25 C 0.90556 0.31522 0.64357 0.0
C26 C 0.84757 0.35135 0.60205 0.0
O27 O 0.8444 0.28554 0.50128 0.0
Mg28 Mg 0.55421 0.86897 0.92137 0.0
O29 O 0.55216 0.8386 0.9867 0.0
O30 O 0.54686 0.8524 0.07111 0.0
Mg31 Mg 0.54462 0.89008 0.06095 0.0
C32 C 0.54955 0.83596 0.0402 0.0
C33 C 0.55738 0.84818 0.8056 0.0
O34 O 0.53873 0.85452 0.80017 0.0
O35 O 0.59632 0.8985 0.95046 0.0
O36 O 0.58829 0.91163 0.0329 0.0
O37 O 0.51006 0.84653 0.91084 0.0
O38 O 0.53134 0.8779 0.97442 0.0
C39 C 0.60436 0.91289 0.99469 0.0
C40 C 0.50922 0.85981 0.95363 0.0
O41 O 0.56905 0.852 0.85285 0.0
Mg42 Mg 0.69219 0.55414 0.25318 0.0
O43 O 0.71845 0.55314 0.32415 0.0
O44 O 0.69428 0.53897 0.40282 0.0
Mg45 Mg 0.65298 0.53211 0.38278 0.0
C46 C 0.71604 0.54694 0.37627 0.0
C47 C 0.72443 0.57134 0.14472 0.0
O48 O 0.70033 0.55414 0.12769 0.0
O49 O 0.69578 0.59228 0.28881 0.0
O50 O 0.67147 0.57685 0.36735 0.0
O51 O 0.67811 0.51134 0.2354 0.0
O52 O 0.65826 0.52564 0.29368 0.0
C53 C 0.68608 0.59585 0.33401 0.0
C54 C 0.65945 0.50611 0.27148 0.0
O55 O 0.72838 0.57674 0.1969 0.0
Mg56 Mg 0.13455 0.68058 0.55282 0.0
O57 O 0.16277 0.7053 0.62391 0.0
O58 O 0.15137 0.68092 0.70256 0.0
Mg59 Mg 0.11527 0.64073 0.68206 0.0
C60 C 0.16624 0.70241 0.67598 0.0
C61 C 0.15312 0.71367 0.44489 0.0
O62 O 0.14676 0.68973 0.42782 0.0
O63 O 0.10186 0.68718 0.58962 0.0
O64 O 0.09145 0.66176 0.66662 0.0
O65 O 0.16106 0.66369 0.53461 0.0
O66 O 0.12694 0.64586 0.59315 0.0
C67 C 0.08818 0.67751 0.63441 0.0
C68 C 0.14694 0.64552 0.57111 0.0
O69 O 0.15023 0.71721 0.49664 0.0
Mg70 Mg 0.43875 0.1252 0.93073 0.0
O71 O 0.44079 0.1447 0.01674 0.0
O72 O 0.44336 0.11839 0.08227 0.0
Mg73 Mg 0.44266 0.08289 0.04091 0.0
C74 C 0.44246 0.13911 0.06819 0.0
C75 C 0.4443 0.17559 0.86971 0.0
O76 O 0.46874 0.18544 0.88826 0.0
O77 O 0.39509 0.09371 0.94601 0.0
O78 O 0.40033 0.06917 0.01191 0.0
O79 O 0.48374 0.14564 0.92725 0.0
O80 O 0.45762 0.10622 0.9641 0.0
C81 C 0.38557 0.07399 0.97991 0.0
C82 C 0.48121 0.12493 0.9532 0.0
O83 O 0.42702 0.15209 0.88365 0.0
Mg84 Mg 0.54277 0.68773 0.43119 0.0
O85 O 0.54464 0.70632 0.34402 0.0
O86 O 0.53413 0.67426 0.28015 0.0
Mg87 Mg 0.52681 0.6365 0.32402 0.0
C88 C 0.54067 0.69806 0.29303 0.0
C89 C 0.55011 0.74009 0.48477 0.0
O90 O 0.52652 0.73093 0.46199 0.0
O91 O 0.58274 0.69029 0.41427 0.0
O92 O 0.5707 0.65854 0.34906 0.0
O93 O 0.49902 0.67336 0.43583 0.0
O94 O 0.51637 0.65044 0.39986 0.0
C95 C 0.5883 0.67687 0.37995 0.0
C96 C 0.49567 0.65236 0.40982 0.0
O97 O 0.56278 0.72787 0.47581 0.0
Mg98 Mg 0.85907 0.55269 0.77872 0.0
O99 O 0.84157 0.55161 0.69085 0.0
O100 O 0.86261 0.53908 0.62991 0.0
Mg101 Mg 0.8933 0.53298 0.67665 0.0
C102 C 0.84548 0.54607 0.64089 0.0
C103 C 0.85075 0.58962 0.85792 0.0
O104 O 0.87547 0.59615 0.86854 0.0
O105 O 0.89604 0.59212 0.75577 0.0
O106 O 0.91522 0.5776 0.69443 0.0
O107 O 0.82953 0.50951 0.78911 0.0
O108 O 0.86964 0.52517 0.75293 0.0
C109 C 0.91462 0.59624 0.72151 0.0
C110 C 0.8468 0.50509 0.76453 0.0
O111 O 0.83848 0.57324 0.81845 0.0
Mg112 Mg 0.30205 0.85322 0.07197 0.0
O113 O 0.28698 0.83053 0.98735 0.0
O114 O 0.31967 0.85319 0.92528 0.0
Mg115 Mg 0.35432 0.88862 0.96666 0.0
C116 C 0.29663 0.83402 0.93753 0.0
C117 C 0.25693 0.84185 0.15411 0.0
O118 O 0.27381 0.86712 0.16302 0.0
O119 O 0.29355 0.88519 0.03899 0.0
O120 O 0.32659 0.90586 0.97673 0.0
O121 O 0.32176 0.83 0.09567 0.0
O122 O 0.34089 0.86706 0.046 0.0
C123 C 0.30596 0.90309 0.00192 0.0
C124 C 0.34202 0.84728 0.0672 0.0
O125 O 0.26161 0.83012 0.11439 0.0
Mg126 Mg 0.45735 0.31152 0.43561 0.0
O127 O 0.45567 0.282 0.36914 0.0
O128 O 0.46503 0.30215 0.2853 0.0
Mg129 Mg 0.47137 0.34375 0.29708 0.0
C130 C 0.45914 0.28194 0.31601 0.0
C131 C 0.45267 0.28489 0.54843 0.0
O132 O 0.47413 0.30832 0.5528 0.0
O133 O 0.41668 0.30449 0.40649 0.0
O134 O 0.42762 0.32477 0.32252 0.0
O135 O 0.50137 0.32839 0.4442 0.0
O136 O 0.48254 0.34333 0.38499 0.0
C137 C 0.4105 0.31152 0.36048 0.0
C138 C 0.50381 0.34467 0.40444 0.0
O139 O 0.43956 0.27894 0.50264 0.0
Mg140 Mg 0.13311 0.44386 0.76004 0.0
O141 O 0.15909 0.44104 0.69082 0.0
O142 O 0.14672 0.44997 0.60831 0.0
Mg143 Mg 0.11247 0.45767 0.62407 0.0
C144 C 0.16147 0.44401 0.63744 0.0
C145 C 0.15138 0.43554 0.87391 0.0
O146 O 0.14511 0.45408 0.88213 0.0
O147 O 0.09821 0.40346 0.73398 0.0
O148 O 0.0868 0.41456 0.65275 0.0
O149 O 0.16141 0.48778 0.76637 0.0
O150 O 0.12628 0.46928 0.71068 0.0
C151 C 0.08331 0.39744 0.69046 0.0
C152 C 0.14704 0.49035 0.72796 0.0
O153 O 0.14842 0.42566 0.82489 0.0
Mg154 Mg 0.69164 0.1323 0.07344 0.0
O155 O 0.70735 0.1525 0.98719 0.0
O156 O 0.67814 0.12601 0.92245 0.0
Mg157 Mg 0.64499 0.0894 0.96467 0.0
C158 C 0.6995 0.14709 0.93605 0.0
C159 C 0.7356 0.18322 0.13433 0.0
O160 O 0.71981 0.1921 0.11833 0.0
O161 O 0.70563 0.10251 0.05457 0.0
O162 O 0.67572 0.07765 0.98908 0.0
O163 O 0.66551 0.1509 0.08071 0.0
O164 O 0.65339 0.11197 0.04253 0.0
C165 C 0.69598 0.08329 0.01949 0.0
C166 C 0.64757 0.12985 0.05533 0.0
O167 O 0.73042 0.16023 0.11869 0.0
H168 H 0.33053 0.3807 0.39987 0.0
H169 H 0.30915 0.36352 0.2241 0.0
H170 H 0.31859 0.32659 0.22854 0.0
H171 H 0.38427 0.37792 0.39646 0.0
H172 H 0.38195 0.36244 0.46364 0.0
H173 H 0.36481 0.38044 0.45268 0.0
H174 H 0.32032 0.339 0.48042 0.0
H175 H 0.33749 0.32074 0.49189 0.0
H176 H 0.30956 0.30798 0.44449 0.0
H177 H 0.3436 0.30315 0.24287 0.0
H178 H 0.37978 0.29433 0.26662 0.0
H179 H 0.38354 0.32422 0.43489 0.0
C180 C 0.32665 0.36829 0.36311 0.0
C181 C 0.31917 0.37486 0.31168 0.0
C182 C 0.31456 0.35857 0.26408 0.0
C183 C 0.31986 0.33753 0.26635 0.0
C184 C 0.32907 0.33269 0.31687 0.0
C185 C 0.33175 0.34724 0.36495 0.0
C186 C 0.34618 0.34144 0.41105 0.0
C187 C 0.37075 0.36707 0.43206 0.0
C188 C 0.32725 0.32638 0.45984 0.0
C189 C 0.35386 0.32368 0.37951 0.0
C190 C 0.34303 0.31812 0.32581 0.0
C191 C 0.35125 0.30635 0.28542 0.0
C192 C 0.37183 0.30141 0.29919 0.0
C193 C 0.38383 0.30804 0.35298 0.0
C194 C 0.37378 0.31795 0.3944 0.0
H195 H 0.9437 0.32384 0.56762 0.0
H196 H 0.91847 0.29821 0.73854 0.0
H197 H 0.96253 0.30428 0.76105 0.0
H198 H -0.00165 0.3023 0.56022 0.0
H199 H 0.01939 0.33201 0.52079 0.0
H200 H 0.98387 0.31511 0.5111 0.0
H201 H 0.9841 0.35877 0.53353 0.0
H202 H 0.01925 0.37561 0.54374 0.0
H203 H -0.00193 0.37551 0.59926 0.0
H204 H 0.0107 0.32583 0.77358 0.0
H205 H 0.05746 0.3616 0.7754 0.0
H206 H 0.05321 0.37502 0.5972 0.0
C207 C 0.94709 0.31787 0.60855 0.0
C208 C 0.92776 0.31011 0.65107 0.0
C209 C 0.93302 0.30375 0.70523 0.0
C210 C 0.958 0.30707 0.71827 0.0
C211 C 0.97755 0.31685 0.67671 0.0
C212 C 0.97225 0.3218 0.62245 0.0
C213 C -0.00229 0.33775 0.58942 0.0
C214 C -4e-05 0.32077 0.54262 0.0
C215 C -0.00011 0.36341 0.5652 0.0
C216 C 0.01803 0.34355 0.63524 0.0
C217 C 0.00612 0.33027 0.68451 0.0
C218 C 0.02038 0.33568 0.73482 0.0
C219 C 0.04701 0.3561 0.73554 0.0
C220 C 0.05889 0.37117 0.68647 0.0
C221 C 0.04463 0.36368 0.63524 0.0
H222 H 0.6296 0.94248 0.08699 0.0
H223 H 0.64187 0.9327 0.91089 0.0
H224 H 0.68253 0.97635 0.91111 0.0
H225 H 0.63755 -0.00043 0.08054 0.0
H226 H 0.65533 0.01381 0.14517 0.0
H227 H 0.63537 0.97867 0.13887 0.0
H228 H 0.67598 0.97357 0.16342 0.0
H229 H 0.69628 0.00914 0.16967 0.0
H230 H 0.70612 0.99117 0.12303 0.0
H231 H 0.70872 0.02421 0.91843 0.0
H232 H 0.71638 0.06939 0.93213 0.0
H233 H 0.69053 0.05091 0.10465 0.0
C234 C 0.64163 0.94904 0.04928 0.0
C235 C 0.63243 0.93436 0.99886 0.0
C236 C 0.6485 0.94352 0.95016 0.0
C237 C 0.6718 0.96835 0.95003 0.0
C238 C 0.67908 0.98356 0.99919 0.0
C239 C 0.66479 0.97389 0.0486 0.0
C240 C 0.67304 0.99573 0.09199 0.0
C241 C 0.6489 0.99702 0.11532 0.0
C242 C 0.6888 0.99219 0.13985 0.0
C243 C 0.69101 0.01976 0.05647 0.0
C244 C 0.69545 0.01221 0.00401 0.0
C245 C 0.70647 0.03044 0.95997 0.0
C246 C 0.71093 0.05621 0.96807 0.0
C247 C 0.70462 0.06354 0.0199 0.0
C248 C 0.69657 0.04584 0.06567 0.0
H249 H 0.67549 0.6245 0.26017 0.0
H250 H 0.69733 0.62256 0.43329 0.0
H251 H 0.68585 0.6568 0.45786 0.0
H252 H 0.68873 0.69776 0.25895 0.0
H253 H 0.65931 0.68703 0.21676 0.0
H254 H 0.67956 0.67183 0.20753 0.0
H255 H 0.63823 0.62563 0.22434 0.0
H256 H 0.61807 0.64054 0.23415 0.0
H257 H 0.6195 0.61963 0.28852 0.0
H258 H 0.66081 0.68033 0.46944 0.0
H259 H 0.62255 0.6878 0.4681 0.0
H260 H 0.61352 0.67202 0.28905 0.0
C261 C 0.67947 0.6327 0.3023 0.0
C262 C 0.68788 0.62159 0.34459 0.0
C263 C 0.69146 0.6314 0.40019 0.0
C264 C 0.68504 0.65091 0.41439 0.0
C265 C 0.67481 0.66017 0.37259 0.0
C266 C 0.67224 0.65151 0.31733 0.0
C267 C 0.65503 0.65923 0.2835 0.0
C268 C 0.67166 0.68022 0.23906 0.0
C269 C 0.63132 0.63481 0.25615 0.0
C270 C 0.64617 0.67108 0.32947 0.0
C271 C 0.65884 0.67275 0.37989 0.0
C272 C 0.65133 0.67985 0.42989 0.0
C273 C 0.62958 0.68408 0.42884 0.0
C274 C 0.61525 0.68046 0.37843 0.0
C275 C 0.62445 0.67515 0.32792 0.0
H276 H 0.9566 0.62163 0.79028 0.0
H277 H 0.92439 0.62802 0.63108 0.0
H278 H 0.96877 0.66332 0.6013 0.0
H279 H 0.01717 0.6955 0.79523 0.0
H280 H 0.03751 0.68316 0.82469 0.0
H281 H 0.00282 0.6677 0.84298 0.0
H282 H 0.99637 0.6223 0.81119 0.0
H283 H 0.03061 0.63747 0.79218 0.0
H284 H 0.00539 0.6187 0.74045 0.0
H285 H 0.01615 0.68561 0.57722 0.0
H286 H 0.06082 0.69181 0.56131 0.0
H287 H 0.06366 0.67082 0.73516 0.0
C288 C 0.95881 0.63198 0.75098 0.0
C289 C 0.93726 0.62299 0.7136 0.0
C290 C 0.94069 0.63546 0.66084 0.0
C291 C 0.96587 0.65549 0.64365 0.0
C292 C 0.98737 0.66271 0.67975 0.0
C293 C 0.984 0.65165 0.73301 0.0
C294 C 0.01042 0.65801 0.75857 0.0
C295 C 0.01739 0.67725 0.80831 0.0
C296 C 0.01068 0.63262 0.77652 0.0
C297 C 0.02866 0.67158 0.70915 0.0
C298 C 0.01531 0.67527 0.665 0.0
C299 C 0.02705 0.68366 0.61207 0.0
C300 C 0.05248 0.68712 0.6033 0.0
C301 C 0.0656 0.68166 0.64699 0.0
C302 C 0.05409 0.67527 0.70115 0.0
H303 H 0.30365 0.93576 0.07883 0.0
H304 H 0.2955 0.9179 0.90119 0.0
H305 H 0.29908 0.96107 0.88056 0.0
H306 H 0.27736 0.98769 0.07441 0.0
H307 H 0.30255 0.00773 0.12513 0.0
H308 H 0.28618 0.97201 0.12914 0.0
H309 H 0.33188 0.97451 0.12684 0.0
H310 H 0.34814 0.00981 0.12291 0.0
H311 H 0.35434 0.99157 0.06941 0.0
H312 H 0.31858 0.00886 0.87543 0.0
H313 H 0.35533 0.05478 0.88525 0.0
H314 H 0.35423 0.04469 0.06564 0.0
C315 C 0.3008 0.94044 0.03618 0.0
C316 C 0.29867 0.92355 0.99169 0.0
C317 C 0.29651 0.9305 0.93581 0.0
C318 C 0.29843 0.95498 0.92386 0.0
C319 C 0.30287 0.97246 0.96822 0.0
C320 C 0.30371 0.96533 0.02367 0.0
C321 C 0.31561 0.98945 0.06178 0.0
C322 C 0.29414 0.9892 0.09985 0.0
C323 C 0.33887 0.99144 0.09713 0.0
C324 C 0.32481 0.01138 0.0183 0.0
C325 C 0.31564 0.00121 0.96506 0.0
C326 C 0.32518 0.01715 0.91701 0.0
C327 C 0.34605 0.04336 0.92289 0.0
C328 C 0.35747 0.05304 0.97627 0.0
C329 C 0.34537 0.03761 0.02462 0.0
H330 H 0.16562 0.45795 0.97829 0.0
H331 H 0.16384 0.39567 0.87468 0.0
H332 H 0.18543 0.38453 0.9515 0.0
H333 H 0.22887 0.48082 0.03328 0.0
H334 H 0.22135 0.48833 0.1021 0.0
H335 H 0.203 0.48904 0.04181 0.0
H336 H 0.15894 0.45533 0.09037 0.0
H337 H 0.17722 0.45443 0.15087 0.0
H338 H 0.15467 0.4241 0.11495 0.0
H339 H 0.21046 0.38273 0.03726 0.0
H340 H 0.23881 0.39199 0.12133 0.0
H341 H 0.22429 0.45584 0.16744 0.0
C342 C 0.16931 0.44164 0.97195 0.0
C343 C 0.16289 0.42757 0.92053 0.0
C344 C 0.16849 0.40666 0.91378 0.0
C345 C 0.18064 0.40012 0.95728 0.0
C346 C 0.18697 0.41464 0.00725 0.0
C347 C 0.18149 0.43498 0.01467 0.0
C348 C 0.19212 0.44898 0.07033 0.0
C349 C 0.21255 0.47853 0.06131 0.0
C350 C 0.16938 0.44549 0.10891 0.0
C351 C 0.20512 0.43384 0.09256 0.0
C352 C 0.2016 0.41383 0.05608 0.0
C353 C 0.21308 0.39815 0.06638 0.0
C354 C 0.22913 0.40355 0.11435 0.0
C355 C 0.23378 0.42463 0.15113 0.0
C356 C 0.22099 0.43944 0.14056 0.0
H357 H 0.80972 0.29506 0.36563 0.0
H358 H 0.83801 0.24545 0.43949 0.0
H359 H 0.81872 0.21417 0.35959 0.0
H360 H 0.74795 0.24267 0.32037 0.0
H361 H 0.74702 0.25906 0.2567 0.0
H362 H 0.76502 0.2784 0.31699 0.0
H363 H 0.80757 0.30326 0.25626 0.0
H364 H 0.7897 0.28385 0.19577 0.0
H365 H 0.81966 0.28457 0.21843 0.0
H366 H 0.79479 0.18757 0.27288 0.0
H367 H 0.76531 0.16606 0.19148 0.0
H368 H 0.75193 0.23286 0.17661 0.0
C369 C 0.81217 0.27779 0.36479 0.0
C370 C 0.82554 0.27277 0.40862 0.0
C371 C 0.82789 0.2497 0.40631 0.0
C372 C 0.81712 0.23191 0.36097 0.0
C373 C 0.80402 0.23747 0.31848 0.0
C374 C 0.80138 0.25979 0.32028 0.0
C375 C 0.78491 0.26041 0.27152 0.0
C376 C 0.75974 0.2601 0.29268 0.0
C377 C 0.80146 0.28445 0.23323 0.0
C378 C 0.77827 0.23471 0.24236 0.0
C379 C 0.78979 0.22195 0.26953 0.0
C380 C 0.78578 0.19746 0.25117 0.0
C381 C 0.76905 0.18543 0.20474 0.0
C382 C 0.75627 0.19775 0.17758 0.0
C383 C 0.76146 0.22296 0.19619 0.0
H384 H 0.52999 0.83015 0.70692 0.0
H385 H 0.59836 0.83755 0.79703 0.0
H386 H 0.60704 0.8149 0.71866 0.0
H387 H 0.50721 0.7658 0.65762 0.0
H388 H 0.49587 0.77094 0.59065 0.0
H389 H 0.49703 0.7903 0.65067 0.0
H390 H 0.52678 0.83356 0.59501 0.0
H391 H 0.5258 0.81428 0.53476 0.0
H392 H 0.55727 0.83865 0.56403 0.0
H393 H 0.6063 0.78872 0.63299 0.0
H394 H 0.59468 0.75891 0.55094 0.0
H395 H 0.52627 0.76821 0.51848 0.0
C396 C 0.54708 0.82743 0.7099 0.0
C397 C 0.56361 0.83578 0.75798 0.0
C398 C 0.58547 0.8314 0.76053 0.0
C399 C 0.59062 0.81866 0.7161 0.0
C400 C 0.57374 0.81047 0.6695 0.0
C401 C 0.55237 0.81464 0.66626 0.0
C402 C 0.53599 0.80216 0.61386 0.0
C403 C 0.50734 0.78105 0.62914 0.0
C404 C 0.5365 0.82344 0.5746 0.0
C405 C 0.55109 0.78971 0.58868 0.0
C406 C 0.57304 0.79507 0.62085 0.0
C407 C 0.5893 0.78461 0.60725 0.0
C408 C 0.58254 0.76771 0.56045 0.0
C409 C 0.55955 0.7612 0.52815 0.0
C410 C 0.54407 0.77292 0.54194 0.0
H411 H 0.7232 0.55769 0.03426 0.0
H412 H 0.77627 0.60961 0.16406 0.0
H413 H 0.81404 0.62515 0.09821 0.0
H414 H 0.76492 0.53629 0.98466 0.0
H415 H 0.75577 0.53465 0.91164 0.0
H416 H 0.73255 0.53091 0.9657 0.0
H417 H 0.7284 0.56962 0.92247 0.0
H418 H 0.75173 0.57352 0.86818 0.0
H419 H 0.75785 0.60138 0.91172 0.0
H420 H 0.84654 0.63096 0.02237 0.0
H421 H 0.87132 0.6252 0.94464 0.0
H422 H 0.79693 0.56933 0.86454 0.0
C423 C 0.74265 0.5728 0.04852 0.0
C424 C 0.74676 0.58255 0.10424 0.0
C425 C 0.77262 0.60193 0.1215 0.0
C426 C 0.79418 0.61097 0.08429 0.0
C427 C 0.78949 0.60055 0.02993 0.0
C428 C 0.76433 0.58192 0.01206 0.0
C429 C 0.76492 0.57186 0.95363 0.0
C430 C 0.75391 0.54165 0.95398 0.0
C431 C 0.74983 0.57957 0.91151 0.0
C432 C 0.79448 0.58696 0.9422 0.0
C433 C 0.80827 0.60377 0.98626 0.0
C434 C 0.83593 0.6182 0.98724 0.0
C435 C 0.84984 0.61477 0.94287 0.0
C436 C 0.83608 0.5969 0.89836 0.0
C437 C 0.80804 0.58347 0.89741 0.0
H438 H 0.16736 0.71318 0.33536 0.0
H439 H 0.16534 0.76514 0.46387 0.0
H440 H 0.18685 0.80301 0.39797 0.0
H441 H 0.23055 0.75738 0.28532 0.0
H442 H 0.22316 0.74771 0.21254 0.0
H443 H 0.20471 0.72434 0.26725 0.0
H444 H 0.16074 0.71752 0.22415 0.0
H445 H 0.17913 0.74102 0.16931 0.0
H446 H 0.1565 0.74583 0.21281 0.0
H447 H 0.21218 0.83579 0.32116 0.0
H448 H 0.24108 0.86118 0.24171 0.0
H449 H 0.22657 0.78768 0.16359 0.0
C450 C 0.17098 0.73241 0.34942 0.0
C451 C 0.16454 0.73617 0.40473 0.0
C452 C 0.17002 0.76177 0.42165 0.0
C453 C 0.18212 0.78336 0.38442 0.0
C454 C 0.1885 0.77901 0.33037 0.0
C455 C 0.1831 0.75414 0.31293 0.0
C456 C 0.19386 0.75509 0.25442 0.0
C457 C 0.21428 0.74558 0.25496 0.0
C458 C 0.1712 0.7389 0.21271 0.0
C459 C 0.20689 0.78451 0.24226 0.0
C460 C 0.20323 0.79792 0.28622 0.0
C461 C 0.21489 0.82546 0.2862 0.0
C462 C 0.23128 0.83972 0.24083 0.0
C463 C 0.23603 0.82644 0.19626 0.0
C464 C 0.22305 0.79841 0.19651 0.0
H465 H 0.47669 0.22604 0.83035 0.0
H466 H 0.3983 0.15718 0.8086 0.0
H467 H 0.39058 0.17869 0.72677 0.0
H468 H 0.45849 0.27611 0.78754 0.0
H469 H 0.48984 0.29623 0.75266 0.0
H470 H 0.48791 0.27644 0.81279 0.0
H471 H 0.50859 0.25386 0.75378 0.0
H472 H 0.51032 0.27333 0.69338 0.0
H473 H 0.49298 0.23764 0.68866 0.0
H474 H 0.39356 0.20578 0.64056 0.0
H475 H 0.40587 0.23766 0.56164 0.0
H476 H 0.48174 0.28887 0.64198 0.0
C477 C 0.45767 0.21567 0.80917 0.0
C478 C 0.43811 0.18991 0.82598 0.0
C479 C 0.41356 0.17698 0.79674 0.0
C480 C 0.409 0.18902 0.75009 0.0
C481 C 0.42905 0.21411 0.73359 0.0
C482 C 0.45274 0.22744 0.7628 0.0
C483 C 0.47153 0.2537 0.73518 0.0
C484 C 0.47727 0.277 0.77438 0.0
C485 C 0.49737 0.25467 0.71665 0.0
C486 C 0.45502 0.25276 0.68502 0.0
C487 C 0.43054 0.22983 0.68479 0.0
C488 C 0.41252 0.224 0.64079 0.0
C489 C 0.41972 0.24215 0.59603 0.0
C490 C 0.44468 0.26583 0.59578 0.0
C491 C 0.46238 0.27112 0.64116 0.0
H492 H 0.17047 0.44531 0.52362 0.0
H493 H 0.20027 0.43671 0.68549 0.0
H494 H 0.23661 0.43438 0.63737 0.0
H495 H 0.1861 0.40072 0.44548 0.0
H496 H 0.19546 0.42088 0.38279 0.0
H497 H 0.1709 0.42046 0.42966 0.0
H498 H 0.19867 0.47165 0.43866 0.0
H499 H 0.22332 0.47222 0.39197 0.0
H500 H 0.23284 0.48691 0.46094 0.0
H501 H 0.2712 0.43606 0.57295 0.0
H502 H 0.30131 0.44017 0.49588 0.0
H503 H 0.24863 0.4466 0.37518 0.0
C504 C 0.18447 0.4427 0.54904 0.0
C505 C 0.18248 0.44121 0.60845 0.0
C506 C 0.20129 0.43784 0.63998 0.0
C507 C 0.22201 0.43649 0.61304 0.0
C508 C 0.22353 0.43832 0.55456 0.0
C509 C 0.20519 0.44117 0.52285 0.0
C510 C 0.21177 0.44337 0.46065 0.0
C511 C 0.18975 0.41996 0.42771 0.0
C512 C 0.21696 0.47013 0.43667 0.0
C513 C 0.23698 0.44178 0.46248 0.0
C514 C 0.24334 0.43883 0.5171 0.0
C515 C 0.26631 0.4381 0.52995 0.0
C516 C 0.28334 0.44058 0.48586 0.0
C517 C 0.27728 0.44363 0.42948 0.0
C518 C 0.25362 0.44396 0.41773 0.0
H519 H 0.81847 0.27855 0.80122 0.0
H520 H 0.78785 0.24416 0.63674 0.0
H521 H 0.75149 0.20453 0.68255 0.0
H522 H 0.80487 0.21801 0.86919 0.0
H523 H 0.79583 0.22649 0.93531 0.0
H524 H 0.81919 0.25231 0.88958 0.0
H525 H 0.78981 0.27423 0.88955 0.0
H526 H 0.76635 0.24846 0.93526 0.0
H527 H 0.75541 0.25492 0.86912 0.0
H528 H 0.71847 0.16894 0.74604 0.0
H529 H 0.69153 0.13911 0.82254 0.0
H530 H 0.74417 0.19651 0.94588 0.0
C531 C 0.80411 0.26276 0.77466 0.0
C532 C 0.806 0.26453 0.71528 0.0
C533 C 0.78685 0.24328 0.68227 0.0
C534 C 0.7661 0.22071 0.70789 0.0
C535 C 0.76487 0.21967 0.76649 0.0
C536 C 0.7834 0.24008 0.79947 0.0
C537 C 0.77779 0.23388 0.86156 0.0
C538 C 0.80079 0.23259 0.8906 0.0
C539 C 0.77199 0.25407 0.89056 0.0
C540 C 0.75316 0.20675 0.85839 0.0
C541 C 0.74601 0.19899 0.80315 0.0
C542 C 0.72389 0.17478 0.78945 0.0
C543 C 0.70868 0.15799 0.83335 0.0
C544 C 0.7157 0.16541 0.89042 0.0
C545 C 0.73828 0.19019 0.90283 0.0
H546 H 0.54906 0.8267 0.1534 0.0
H547 H 0.55004 0.79358 0.99014 0.0
H548 H 0.54914 0.75527 0.03744 0.0
H549 H 0.59112 0.80672 0.22519 0.0
H550 H 0.57288 0.7995 0.29027 0.0
H551 H 0.57421 0.82454 0.24355 0.0
H552 H 0.52278 0.80023 0.24077 0.0
H553 H 0.5213 0.77512 0.28745 0.0
H554 H 0.50454 0.76578 0.22043 0.0
H555 H 0.54652 0.71998 0.10244 0.0
H556 H 0.54309 0.69038 0.18014 0.0
H557 H 0.54452 0.7471 0.301 0.0
C558 C 0.54917 0.81148 0.12737 0.0
C559 C 0.54958 0.81316 0.06793 0.0
C560 C 0.54976 0.79277 0.03569 0.0
C561 C 0.54925 0.77094 0.06218 0.0
C562 C 0.54872 0.76991 0.12083 0.0
C563 C 0.54878 0.78969 0.15302 0.0
C564 C 0.54784 0.78373 0.21532 0.0
C565 C 0.57302 0.80488 0.24533 0.0
C566 C 0.52261 0.78105 0.24257 0.0
C567 C 0.54697 0.75732 0.2132 0.0
C568 C 0.54751 0.74973 0.15831 0.0
C569 C 0.54622 0.72577 0.14558 0.0
C570 C 0.54421 0.70907 0.19012 0.0
C571 C 0.54357 0.71641 0.24681 0.0
C572 C 0.54516 0.74099 0.25826 0.0
H573 H 0.72193 0.54461 0.49044 0.0
H574 H 0.76226 0.55329 0.33132 0.0
H575 H 0.80011 0.55501 0.38221 0.0
H576 H 0.78076 0.58909 0.57027 0.0
H577 H 0.76951 0.56931 0.63341 0.0
H578 H 0.74572 0.56917 0.58457 0.0
H579 H 0.72285 0.51796 0.57703 0.0
H580 H 0.74657 0.51794 0.62578 0.0
H581 H 0.74226 0.50287 0.55744 0.0
H582 H 0.83246 0.55364 0.44956 0.0
H583 H 0.85829 0.55126 0.52939 0.0
H584 H 0.79766 0.545 0.6452 0.0
C585 C 0.73873 0.54693 0.46621 0.0
C586 C 0.73908 0.54874 0.40681 0.0
C587 C 0.76154 0.55192 0.37681 0.0
C588 C 0.78313 0.55288 0.40532 0.0
C589 C 0.78204 0.55089 0.4638 0.0
C590 C 0.76053 0.54817 0.49398 0.0
C591 C 0.76434 0.54641 0.55662 0.0
C592 C 0.76513 0.5699 0.58806 0.0
C593 C 0.74272 0.5197 0.5806 0.0
C594 C 0.79126 0.54827 0.55689 0.0
C595 C 0.80105 0.55075 0.50287 0.0
C596 C 0.82511 0.5519 0.49208 0.0
C597 C 0.83958 0.55043 0.53773 0.0
C598 C 0.83003 0.54803 0.59356 0.0
C599 C 0.8056 0.54711 0.6031 0.0
H600 H 0.17312 0.70975 0.79038 0.0
H601 H 0.20958 0.74521 0.63013 0.0
H602 H 0.24708 0.7819 0.68028 0.0
H603 H 0.19132 0.77128 0.86088 0.0
H604 H 0.19729 0.76055 0.92777 0.0
H605 H 0.17351 0.73659 0.87947 0.0
H606 H 0.19854 0.71017 0.88236 0.0
H607 H 0.22244 0.73409 0.93056 0.0
H608 H 0.23343 0.72677 0.86556 0.0
H609 H 0.28066 0.81403 0.7466 0.0
H610 H 0.3076 0.84169 0.8253 0.0
H611 H 0.24898 0.78661 0.94384 0.0
C612 C 0.18904 0.72518 0.76583 0.0
C613 C 0.18848 0.72456 0.70628 0.0
C614 C 0.20954 0.74529 0.67572 0.0
C615 C 0.23097 0.76616 0.70381 0.0
C616 C 0.23093 0.76613 0.76242 0.0
C617 C 0.21047 0.74635 0.79319 0.0
C618 C 0.21504 0.75156 0.8559 0.0
C619 C 0.19298 0.75522 0.88256 0.0
C620 C 0.21751 0.72932 0.88531 0.0
C621 C 0.24134 0.77735 0.85547 0.0
C622 C 0.25015 0.7852 0.80104 0.0
C623 C 0.27397 0.80815 0.78944 0.0
C624 C 0.28916 0.8237 0.83464 0.0
C625 C 0.28045 0.81639 0.891 0.0
C626 C 0.25618 0.7928 0.90137 0.0
H627 H 0.44936 0.18942 0.05809 0.0
H628 H 0.43809 0.12943 0.1814 0.0
H629 H 0.4408 0.15922 0.25777 0.0
H630 H 0.4968 0.24523 0.1382 0.0
H631 H 0.48436 0.26668 0.11627 0.0
H632 H 0.4808 0.24037 0.07071 0.0
H633 H 0.42996 0.22165 0.06635 0.0
H634 H 0.43337 0.24795 0.11178 0.0
H635 H 0.41121 0.21383 0.13086 0.0
H636 H 0.445 0.19543 0.32113 0.0
H637 H 0.45077 0.23602 0.36708 0.0
H638 H 0.45994 0.27266 0.20293 0.0
C639 C 0.44731 0.18247 0.1011 0.0
C640 C 0.4435 0.15704 0.11358 0.0
C641 C 0.4411 0.14883 0.17059 0.0
C642 C 0.44256 0.16559 0.21439 0.0
C643 C 0.4465 0.19055 0.20068 0.0
C644 C 0.44886 0.19902 0.1455 0.0
C645 C 0.45346 0.227 0.14244 0.0
C646 C 0.48046 0.24593 0.11531 0.0
C647 C 0.43063 0.22763 0.11101 0.0
C648 C 0.45334 0.2329 0.2045 0.0
C649 C 0.44922 0.21158 0.23735 0.0
C650 C 0.44824 0.21229 0.29589 0.0
C651 C 0.45154 0.23544 0.3216 0.0
C652 C 0.45587 0.2576 0.28875 0.0
C653 C 0.45677 0.25616 0.22939 0.0
H654 H 0.39226 0.50904 0.29707 0.0
H655 H 0.33458 0.53503 0.27724 0.0
H656 H 0.36763 0.57958 0.31321 0.0
H657 H 0.42181 0.5436 0.42409 0.0
H658 H 0.45487 0.55152 0.40406 0.0
H659 H 0.42657 0.52207 0.37691 0.0
H660 H 0.44264 0.53774 0.27488 0.0
H661 H 0.47102 0.56722 0.30171 0.0
H662 H 0.44893 0.57 0.25245 0.0
H663 H 0.40741 0.62106 0.35544 0.0
H664 H 0.45074 0.6561 0.39301 0.0
H665 H 0.48148 0.60197 0.38052 0.0
C666 C 0.3865 0.52406 0.30038 0.0
C667 C 0.36086 0.51861 0.28486 0.0
C668 C 0.3542 0.53888 0.28897 0.0
C669 C 0.37279 0.56416 0.30949 0.0
C670 C 0.39792 0.56877 0.32495 0.0
C671 C 0.40478 0.54927 0.31998 0.0
C672 C 0.43307 0.55908 0.33817 0.0
C673 C 0.43413 0.54312 0.38882 0.0
C674 C 0.4499 0.55848 0.28886 0.0
C675 C 0.44115 0.58717 0.35462 0.0
C676 C 0.42067 0.59248 0.3472 0.0
C677 C 0.4236 0.61713 0.36101 0.0
C678 C 0.4482 0.63685 0.38246 0.0
C679 C 0.46945 0.63176 0.38917 0.0
C680 C 0.4657 0.60656 0.37518 0.0
H681 H 0.88089 0.48661 0.74978 0.0
H682 H 0.79786 0.46385 0.73472 0.0
H683 H 0.7881 0.42069 0.69363 0.0
H684 H 0.88669 0.45887 0.62363 0.0
H685 H 0.90829 0.44779 0.65187 0.0
H686 H 0.90818 0.47605 0.68225 0.0
H687 H 0.89771 0.45345 0.78032 0.0
H688 H 0.89794 0.42514 0.75028 0.0
H689 H 0.86927 0.42073 0.78858 0.0
H690 H 0.78886 0.38187 0.64525 0.0
H691 H 0.79918 0.34904 0.60305 0.0
H692 H 0.88106 0.39678 0.65704 0.0
C693 C 0.8606 0.47241 0.73837 0.0
C694 C 0.84011 0.47844 0.7451 0.0
C695 C 0.81378 0.45942 0.73007 0.0
C696 C 0.8081 0.43496 0.70658 0.0
C697 C 0.82893 0.42979 0.69961 0.0
C698 C 0.85456 0.44785 0.71607 0.0
C699 C 0.87349 0.43776 0.7042 0.0
C700 C 0.89545 0.45621 0.66304 0.0
C701 C 0.88529 0.43404 0.75912 0.0
C702 C 0.85469 0.41142 0.67726 0.0
C703 C 0.82909 0.40714 0.67455 0.0
C704 C 0.80874 0.38481 0.64804 0.0
C705 C 0.81477 0.36636 0.62402 0.0
C706 C 0.8408 0.3703 0.62747 0.0
C707 C 0.86086 0.39304 0.65471 0.0
H708 H 0.46825 0.8618 0.90373 0.0
H709 H 0.49398 0.84499 0.06191 0.0
H710 H 0.45183 0.83623 0.10663 0.0
H711 H 0.44083 0.89825 0.96486 0.0
H712 H 0.41375 0.88713 0.91556 0.0
H713 H 0.44427 0.88879 0.89448 0.0
H714 H 0.41831 0.83916 0.86601 0.0
H715 H 0.38766 0.83735 0.88699 0.0
H716 H 0.39705 0.81471 0.91681 0.0
H717 H 0.40696 0.82959 0.13365 0.0
H718 H 0.36535 0.83108 0.14459 0.0
H719 H 0.37124 0.8566 0.97113 0.0
C720 C 0.46467 0.85582 0.94751 0.0
C721 C 0.48388 0.85359 0.97949 0.0
C722 C 0.4792 0.84655 0.03698 0.0
C723 C 0.45535 0.84144 0.0625 0.0
C724 C 0.43676 0.844 0.02999 0.0
C725 C 0.44132 0.8514 0.97395 0.0
C726 C 0.41937 0.85528 0.94988 0.0
C727 C 0.43021 0.88407 0.93005 0.0
C728 C 0.40473 0.83543 0.9021 0.0
C729 C 0.40186 0.84912 1.0012 0.0
C730 C 0.41191 0.84206 0.04662 0.0
C731 C 0.39897 0.83519 0.09846 0.0
C732 C 0.37537 0.83601 0.10426 0.0
C733 C 0.36544 0.84427 0.05891 0.0
C734 C 0.37872 0.85065 0.00669 0.0
H735 H 0.60692 0.48633 0.28478 0.0
H736 H 0.66814 0.46472 0.29402 0.0
H737 H 0.63466 0.41962 0.32725 0.0
H738 H 0.57027 0.45228 0.40408 0.0
H739 H 0.53833 0.4419 0.37259 0.0
H740 H 0.56711 0.47183 0.3489 0.0
H741 H 0.55829 0.45397 0.24652 0.0
H742 H 0.52941 0.42397 0.26989 0.0
H743 H 0.55526 0.42216 0.23182 0.0
H744 H 0.59432 0.37826 0.36864 0.0
H745 H 0.55042 0.34314 0.40376 0.0
H746 H 0.51611 0.39169 0.35714 0.0
C747 C 0.61321 0.47201 0.29353 0.0
C748 C 0.63994 0.47879 0.28749 0.0
C749 C 0.64759 0.45965 0.29847 0.0
C750 C 0.62877 0.43413 0.31743 0.0
C751 C 0.60244 0.4281 0.32354 0.0
C752 C 0.59466 0.44642 0.31073 0.0
C753 C 0.56526 0.43519 0.31954 0.0
C754 C 0.55995 0.45125 0.36393 0.0
C755 C 0.55123 0.43373 0.26361 0.0
C756 C 0.55768 0.40788 0.34091 0.0
C757 C 0.57931 0.40407 0.34347 0.0
C758 C 0.57718 0.38086 0.36577 0.0
C759 C 0.55227 0.3611 0.38575 0.0
C760 C 0.52992 0.36464 0.38229 0.0
C761 C 0.53276 0.38823 0.35918 0.0
H762 H 0.11236 0.5948 0.5988 0.0
H763 H 0.19652 0.6512 0.58525 0.0
H764 H 0.20663 0.61748 0.62401 0.0
H765 H 0.11364 0.56437 0.72585 0.0
H766 H 0.08878 0.53147 0.70435 0.0
H767 H 0.0887 0.55997 0.67506 0.0
H768 H 0.09075 0.54402 0.57423 0.0
H769 H 0.09067 0.51535 0.6032 0.0
H770 H 0.11691 0.53723 0.55634 0.0
H771 H 0.20656 0.57778 0.67268 0.0
H772 H 0.19651 0.53465 0.71515 0.0
H773 H 0.11253 0.50449 0.68749 0.0
C774 C 0.13293 0.59999 0.60368 0.0
C775 C 0.1537 0.62548 0.58955 0.0
C776 C 0.18038 0.63162 0.5958 0.0
C777 C 0.18625 0.61267 0.61795 0.0
C778 C 0.16516 0.58767 0.63226 0.0
C779 C 0.13905 0.58125 0.62424 0.0
C780 C 0.11986 0.55304 0.64153 0.0
C781 C 0.10169 0.55218 0.68955 0.0
C782 C 0.1036 0.53643 0.5908 0.0
C783 C 0.13913 0.54457 0.66158 0.0
C784 C 0.1652 0.56478 0.65667 0.0
C785 C 0.18624 0.56172 0.67583 0.0
C786 C 0.1804 0.53729 0.70006 0.0
C787 C 0.15381 0.51629 0.70379 0.0
C788 C 0.13308 0.52009 0.68419 0.0
H789 H 0.63181 0.16701 0.03436 0.0
H790 H 0.60313 0.0824 0.04571 0.0
H791 H 0.55806 0.0729 0.0228 0.0
H792 H 0.57294 0.1654 0.09173 0.0
H793 H 0.57386 0.1898 0.04354 0.0
H794 H 0.60421 0.19064 0.06332 0.0
H795 H 0.61488 0.18862 0.95824 0.0
H796 H 0.58457 0.18776 0.93815 0.0
H797 H 0.59092 0.16197 0.91479 0.0
H798 H 0.51667 0.07173 1.00087 0.0
H799 H 0.47993 0.07877 0.97394 0.0
H800 H 0.53386 0.164 0.96988 0.0
C801 C 0.61593 0.14656 0.03232 0.0
C802 C 0.62089 0.12541 0.04197 0.0
C803 C 0.59978 0.09888 0.03824 0.0
C804 C 0.57407 0.09325 0.02547 0.0
C805 C 0.56977 0.11436 0.01583 0.0
C806 C 0.58997 0.14048 0.01845 0.0
C807 C 0.5796 0.15912 0.00363 0.0
C808 C 0.58285 0.17731 0.05354 0.0
C809 C 0.59331 0.17532 0.95054 0.0
C810 C 0.55051 0.13926 0.99258 0.0
C811 C 0.54546 0.11362 1.00059 0.0
C812 C 0.52028 0.09168 0.99426 0.0
C813 C 0.49953 0.09593 0.97912 0.0
C814 C 0.50403 0.12192 0.96983 0.0
C815 C 0.52992 0.14392 0.97643 0.0
loop_
_geom_bond_atom_site_label_1
_geom_bond_atom_site_label_2
_geom_bond_distance
_geom_bond_site_symmetry_2
_ccdc_geom_bond_type
Mg0 O1 2.028 . S
Mg0 O7 1.986 . S
Mg0 O9 2.114 . S
Mg0 O10 2.251 . S
Mg0 O13 2.010 . S
O1 Mg0 2.028 . S
O1 C4 1.250 . S
O2 Mg3 2.028 . S
O2 C4 1.248 . S
Mg3 O2 2.028 . S
Mg3 O8 2.032 . S
Mg3 O10 2.079 . S
C4 O1 1.250 . S
C4 O2 1.248 . S
C5 O6 1.264 . S
C5 O13 1.249 . S
O6 C5 1.264 . S
O7 Mg0 1.986 . S
O7 C11 1.246 . S
O8 Mg3 2.032 . S
O8 C11 1.259 . S
O9 Mg0 2.114 . S
O9 C12 1.252 . S
O10 Mg0 2.251 . S
O10 Mg3 2.079 . S
O10 C12 1.273 . S
C11 O7 1.246 . S
C11 O8 1.259 . S
C12 O9 1.252 . S
C12 O10 1.273 . S
O13 Mg0 2.010 . S
O13 C5 1.249 . S
Mg14 O15 2.028 . S
Mg14 O21 1.986 . S
Mg14 O23 2.114 . S
Mg14 O24 2.251 . S
Mg14 O27 2.010 . S
O15 Mg14 2.028 . S
O15 C18 1.250 . S
O16 Mg17 2.028 . S
O16 C18 1.248 . S
Mg17 O16 2.028 . S
Mg17 O22 2.032 . S
Mg17 O24 2.079 . S
C18 O15 1.250 . S
C18 O16 1.248 . S
C19 O20 1.264 . S
C19 O27 1.249 . S
O20 C19 1.264 . S
O21 Mg14 1.986 . S
O21 C25 1.246 . S
O22 Mg17 2.032 . S
O22 C25 1.259 . S
O23 Mg14 2.114 . S
O23 C26 1.252 . S
O24 Mg14 2.251 . S
O24 Mg17 2.079 . S
O24 C26 1.273 . S
C25 O21 1.246 . S
C25 O22 1.259 . S
C26 O23 1.252 . S
C26 O24 1.273 . S
O27 Mg14 2.010 . S
O27 C19 1.249 . S
Mg28 O29 2.028 . S
Mg28 O35 1.986 . S
Mg28 O37 2.114 . S
Mg28 O38 2.251 . S
Mg28 O41 2.010 . S
O29 Mg28 2.028 . S
O29 C32 1.250 1_556 S
O30 Mg31 2.028 . S
O30 C32 1.248 . S
Mg31 O30 2.028 . S
Mg31 O36 2.032 . S
Mg31 O38 2.079 1_554 S
C32 O29 1.250 1_554 S
C32 O30 1.248 . S
C33 O34 1.264 . S
C33 O41 1.249 . S
O34 C33 1.264 . S
O35 Mg28 1.986 . S
O35 C39 1.246 . S
O36 Mg31 2.032 . S
O36 C39 1.259 1_554 S
O37 Mg28 2.114 . S
O37 C40 1.252 . S
O38 Mg28 2.251 . S
O38 Mg31 2.079 1_556 S
O38 C40 1.273 . S
C39 O35 1.246 . S
C39 O36 1.259 1_556 S
C40 O37 1.252 . S
C40 O38 1.273 . S
O41 Mg28 2.010 . S
O41 C33 1.249 . S
Mg42 O43 2.028 . S
Mg42 O49 1.986 . S
Mg42 O51 2.114 . S
Mg42 O52 2.251 . S
Mg42 O55 2.010 . S
O43 Mg42 2.028 . S
O43 C46 1.250 . S
O44 Mg45 2.028 . S
O44 C46 1.248 . S
Mg45 O44 2.028 . S
Mg45 O50 2.032 . S
Mg45 O52 2.079 . S
C46 O43 1.250 . S
C46 O44 1.248 . S
C47 O48 1.264 . S
C47 O55 1.249 . S
O48 C47 1.264 . S
O49 Mg42 1.986 . S
O49 C53 1.246 . S
O50 Mg45 2.032 . S
O50 C53 1.259 . S
O51 Mg42 2.114 . S
O51 C54 1.252 . S
O52 Mg42 2.251 . S
O52 Mg45 2.079 . S
O52 C54 1.273 . S
C53 O49 1.246 . S
C53 O50 1.259 . S
C54 O51 1.252 . S
C54 O52 1.273 . S
O55 Mg42 2.010 . S
O55 C47 1.249 . S
Mg56 O57 2.028 . S
Mg56 O63 1.986 . S
Mg56 O65 2.114 . S
Mg56 O66 2.251 . S
Mg56 O69 2.010 . S
O57 Mg56 2.028 . S
O57 C60 1.250 . S
O58 Mg59 2.028 . S
O58 C60 1.248 . S
Mg59 O58 2.028 . S
Mg59 O64 2.032 . S
Mg59 O66 2.079 . S
C60 O57 1.250 . S
C60 O58 1.248 . S
C61 O62 1.264 . S
C61 O69 1.249 . S
O62 C61 1.264 . S
O63 Mg56 1.986 . S
O63 C67 1.246 . S
O64 Mg59 2.032 . S
O64 C67 1.259 . S
O65 Mg56 2.114 . S
O65 C68 1.252 . S
O66 Mg56 2.251 . S
O66 Mg59 2.079 . S
O66 C68 1.273 . S
C67 O63 1.246 . S
C67 O64 1.259 . S
C68 O65 1.252 . S
C68 O66 1.273 . S
O69 Mg56 2.010 . S
O69 C61 1.249 . S
Mg70 O71 2.028 . S
Mg70 O77 1.986 . S
Mg70 O79 2.114 . S
Mg70 O80 2.251 . S
Mg70 O83 2.010 . S
O71 Mg70 2.028 . S
O71 C74 1.250 1_556 S
O72 Mg73 2.028 . S
O72 C74 1.248 . S
Mg73 O72 2.028 . S
Mg73 O78 2.032 . S
Mg73 O80 2.079 1_554 S
C74 O71 1.250 1_554 S
C74 O72 1.248 . S
C75 O76 1.264 . S
C75 O83 1.249 . S
O76 C75 1.264 . S
O77 Mg70 1.986 . S
O77 C81 1.246 . S
O78 Mg73 2.032 . S
O78 C81 1.259 1_554 S
O79 Mg70 2.114 . S
O79 C82 1.252 . S
O80 Mg70 2.251 . S
O80 Mg73 2.079 1_556 S
O80 C82 1.273 . S
C81 O77 1.246 . S
C81 O78 1.259 1_556 S
C82 O79 1.252 . S
C82 O80 1.273 . S
O83 Mg70 2.010 . S
O83 C75 1.249 . S
Mg84 O85 2.028 . S
Mg84 O91 1.986 . S
Mg84 O93 2.114 . S
Mg84 O94 2.251 . S
Mg84 O97 2.010 . S
O85 Mg84 2.028 . S
O85 C88 1.250 . S
O86 Mg87 2.028 . S
O86 C88 1.248 . S
Mg87 O86 2.028 . S
Mg87 O92 2.032 . S
Mg87 O94 2.079 . S
C88 O85 1.250 . S
C88 O86 1.248 . S
C89 O90 1.264 . S
C89 O97 1.249 . S
O90 C89 1.264 . S
O91 Mg84 1.986 . S
O91 C95 1.246 . S
O92 Mg87 2.032 . S
O92 C95 1.259 . S
O93 Mg84 2.114 . S
O93 C96 1.252 . S
O94 Mg84 2.251 . S
O94 Mg87 2.079 . S
O94 C96 1.273 . S
C95 O91 1.246 . S
C95 O92 1.259 . S
C96 O93 1.252 . S
C96 O94 1.273 . S
O97 Mg84 2.010 . S
O97 C89 1.249 . S
Mg98 O99 2.028 . S
Mg98 O105 1.986 . S
Mg98 O107 2.114 . S
Mg98 O108 2.251 . S
Mg98 O111 2.010 . S
O99 Mg98 2.028 . S
O99 C102 1.250 . S
O100 Mg101 2.028 . S
O100 C102 1.248 . S
Mg101 O100 2.028 . S
Mg101 O106 2.032 . S
Mg101 O108 2.079 . S
C102 O99 1.250 . S
C102 O100 1.248 . S
C103 O104 1.264 . S
C103 O111 1.249 . S
O104 C103 1.264 . S
O105 Mg98 1.986 . S
O105 C109 1.246 . S
O106 Mg101 2.032 . S
O106 C109 1.259 . S
O107 Mg98 2.114 . S
O107 C110 1.252 . S
O108 Mg98 2.251 . S
O108 Mg101 2.079 . S
O108 C110 1.273 . S
C109 O105 1.246 . S
C109 O106 1.259 . S
C110 O107 1.252 . S
C110 O108 1.273 . S
O111 Mg98 2.010 . S
O111 C103 1.249 . S
Mg112 O113 2.028 . S
Mg112 O119 1.986 . S
Mg112 O121 2.114 . S
Mg112 O122 2.251 . S
Mg112 O125 2.010 . S
O113 Mg112 2.028 . S
O113 C116 1.250 1_554 S
O114 Mg115 2.028 . S
O114 C116 1.248 . S
Mg115 O114 2.028 . S
Mg115 O120 2.032 . S
Mg115 O122 2.079 1_556 S
C116 O113 1.250 1_556 S
C116 O114 1.248 . S
C117 O118 1.264 . S
C117 O125 1.249 . S
O118 C117 1.264 . S
O119 Mg112 1.986 . S
O119 C123 1.246 . S
O120 Mg115 2.032 . S
O120 C123 1.259 1_556 S
O121 Mg112 2.114 . S
O121 C124 1.252 . S
O122 Mg112 2.251 . S
O122 Mg115 2.079 1_554 S
O122 C124 1.273 . S
C123 O119 1.246 . S
C123 O120 1.259 1_554 S
C124 O121 1.252 . S
C124 O122 1.273 . S
O125 Mg112 2.010 . S
O125 C117 1.249 . S
Mg126 O127 2.028 . S
Mg126 O133 1.986 . S
Mg126 O135 2.114 . S
Mg126 O136 2.251 . S
Mg126 O139 2.010 . S
O127 Mg126 2.028 . S
O127 C130 1.250 . S
O128 Mg129 2.028 . S
O128 C130 1.248 . S
Mg129 O128 2.028 . S
Mg129 O134 2.032 . S
Mg129 O136 2.079 . S
C130 O127 1.250 . S
C130 O128 1.248 . S
C131 O132 1.264 . S
C131 O139 1.249 . S
O132 C131 1.264 . S
O133 Mg126 1.986 . S
O133 C137 1.246 . S
O134 Mg129 2.032 . S
O134 C137 1.259 . S
O135 Mg126 2.114 . S
O135 C138 1.252 . S
O136 Mg126 2.251 . S
O136 Mg129 2.079 . S
O136 C138 1.273 . S
C137 O133 1.246 . S
C137 O134 1.259 . S
C138 O135 1.252 . S
C138 O136 1.273 . S
O139 Mg126 2.010 . S
O139 C131 1.249 . S
Mg140 O141 2.028 . S
Mg140 O147 1.986 . S
Mg140 O149 2.114 . S
Mg140 O150 2.251 . S
Mg140 O153 2.010 . S
O141 Mg140 2.028 . S
O141 C144 1.250 . S
O142 Mg143 2.028 . S
O142 C144 1.248 . S
Mg143 O142 2.028 . S
Mg143 O148 2.032 . S
Mg143 O150 2.079 . S
C144 O141 1.250 . S
C144 O142 1.248 . S
C145 O146 1.264 . S
C145 O153 1.249 . S
O146 C145 1.264 . S
O147 Mg140 1.986 . S
O147 C151 1.246 . S
O148 Mg143 2.032 . S
O148 C151 1.259 . S
O149 Mg140 2.114 . S
O149 C152 1.252 . S
O150 Mg140 2.251 . S
O150 Mg143 2.079 . S
O150 C152 1.273 . S
C151 O147 1.246 . S
C151 O148 1.259 . S
C152 O149 1.252 . S
C152 O150 1.273 . S
O153 Mg140 2.010 . S
O153 C145 1.249 . S
Mg154 O155 2.028 . S
Mg154 O161 1.986 . S
Mg154 O163 2.114 . S
Mg154 O164 2.251 . S
Mg154 O167 2.010 . S
O155 Mg154 2.028 . S
O155 C158 1.250 1_554 S
O156 Mg157 2.028 . S
O156 C158 1.248 . S
Mg157 O156 2.028 . S
Mg157 O162 2.032 . S
Mg157 O164 2.079 1_556 S
C158 O155 1.250 1_556 S
C158 O156 1.248 . S
C159 O160 1.264 . S
C159 O167 1.249 . S
O160 C159 1.264 . S
O161 Mg154 1.986 . S
O161 C165 1.246 . S
O162 Mg157 2.032 . S
O162 C165 1.259 1_556 S
O163 Mg154 2.114 . S
O163 C166 1.252 . S
O164 Mg154 2.251 . S
O164 Mg157 2.079 1_554 S
O164 C166 1.273 . S
C165 O161 1.246 . S
C165 O162 1.259 1_554 S
C166 O163 1.252 . S
C166 O164 1.273 . S
O167 Mg154 2.010 . S
O167 C159 1.249 . S
H168 C180 0.930 . S
H169 C182 0.930 . S
H170 C183 0.930 . S
H171 C187 0.959 . S
H172 C187 0.959 . S
H173 C187 0.961 . S
H174 C188 0.960 . S
H175 C188 0.961 . S
H176 C188 0.959 . S
H177 C191 0.929 . S
H178 C192 0.931 . S
H179 C194 0.930 . S
C180 H168 0.930 . S
C180 C181 1.399 . S
C180 C185 1.399 . S
C181 C180 1.399 . S
C181 C182 1.376 . S
C182 H169 0.930 . S
C182 C181 1.376 . S
C182 C183 1.388 . S
C183 H170 0.930 . S
C183 C182 1.388 . S
C183 C184 1.390 . S
C184 C183 1.390 . S
C184 C185 1.394 . S
C184 C190 1.465 . S
C185 C180 1.399 . S
C185 C184 1.394 . S
C185 C186 1.516 . S
C186 C185 1.516 . S
C186 C187 1.502 . S
C186 C188 1.561 . S
C186 C189 1.526 . S
C187 H171 0.959 . S
C187 H172 0.959 . S
C187 H173 0.961 . S
C187 C186 1.502 . S
C188 H174 0.960 . S
C188 H175 0.961 . S
C188 H176 0.959 . S
C188 C186 1.561 . S
C189 C186 1.526 . S
C189 C190 1.396 . S
C189 C194 1.390 . S
C190 C184 1.465 . S
C190 C189 1.396 . S
C190 C191 1.399 . S
C191 H177 0.929 . S
C191 C190 1.399 . S
C191 C192 1.385 . S
C192 H178 0.931 . S
C192 C191 1.385 . S
C192 C193 1.389 . S
C193 C192 1.389 . S
C193 C194 1.387 . S
C194 H179 0.930 . S
C194 C189 1.390 . S
C194 C193 1.387 . S
H195 C207 0.930 . S
H196 C209 0.930 . S
H197 C210 0.930 . S
H198 C214 0.959 . S
H199 C214 0.959 . S
H200 C214 0.961 1_655 S
H201 C215 0.960 1_655 S
H202 C215 0.961 . S
H203 C215 0.959 . S
H204 C218 0.929 . S
H205 C219 0.931 . S
H206 C221 0.930 . S
C207 H195 0.930 . S
C207 C208 1.399 . S
C207 C212 1.399 . S
C208 C207 1.399 . S
C208 C209 1.376 . S
C209 H196 0.930 . S
C209 C208 1.376 . S
C209 C210 1.388 . S
C210 H197 0.930 . S
C210 C209 1.388 . S
C210 C211 1.390 . S
C211 C210 1.390 . S
C211 C212 1.394 . S
C211 C217 1.465 1_655 S
C212 C207 1.399 . S
C212 C211 1.394 . S
C212 C213 1.516 1_655 S
C213 C212 1.516 1_455 S
C213 C214 1.502 . S
C213 C215 1.561 . S
C213 C216 1.526 . S
C214 H198 0.959 . S
C214 H199 0.959 . S
C214 H200 0.961 1_455 S
C214 C213 1.502 . S
C215 H201 0.960 1_455 S
C215 H202 0.961 . S
C215 H203 0.959 . S
C215 C213 1.561 . S
C216 C213 1.526 . S
C216 C217 1.396 . S
C216 C221 1.390 . S
C217 C211 1.465 1_455 S
C217 C216 1.396 . S
C217 C218 1.399 . S
C218 H204 0.929 . S
C218 C217 1.399 . S
C218 C219 1.385 . S
C219 H205 0.931 . S
C219 C218 1.385 . S
C219 C220 1.389 . S
C220 C219 1.389 . S
C220 C221 1.387 . S
C221 H206 0.930 . S
C221 C216 1.390 . S
C221 C220 1.387 . S
H222 C234 0.930 . S
H223 C236 0.930 . S
H224 C237 0.930 . S
H225 C241 0.959 . S
H226 C241 0.959 1_545 S
H227 C241 0.961 . S
H228 C242 0.960 . S
H229 C242 0.961 1_545 S
H230 C242 0.959 . S
H231 C245 0.929 . S
H232 C246 0.931 . S
H233 C248 0.930 . S
C234 H222 0.930 . S
C234 C235 1.399 1_554 S
C234 C239 1.399 . S
C235 C234 1.399 1_556 S
C235 C236 1.376 . S
C236 H223 0.930 . S
C236 C235 1.376 . S
C236 C237 1.388 . S
C237 H224 0.930 . S
C237 C236 1.388 . S
C237 C238 1.390 . S
C238 C237 1.390 . S
C238 C239 1.394 1_556 S
C238 C244 1.465 1_565 S
C239 C234 1.399 . S
C239 C238 1.394 1_554 S
C239 C240 1.516 . S
C240 C239 1.516 . S
C240 C241 1.502 . S
C240 C242 1.561 . S
C240 C243 1.526 1_565 S
C241 H225 0.959 . S
C241 H226 0.959 1_565 S
C241 H227 0.961 . S
C241 C240 1.502 . S
C242 H228 0.960 . S
C242 H229 0.961 1_565 S
C242 H230 0.959 . S
C242 C240 1.561 . S
C243 C240 1.526 1_545 S
C243 C244 1.396 1_554 S
C243 C248 1.390 . S
C244 C238 1.465 1_545 S
C244 C243 1.396 1_556 S
C244 C245 1.399 . S
C245 H231 0.929 . S
C245 C244 1.399 . S
C245 C246 1.385 . S
C246 H232 0.931 . S
C246 C245 1.385 . S
C246 C247 1.389 1_556 S
C247 C246 1.389 1_554 S
C247 C248 1.387 . S
C248 H233 0.930 . S
C248 C243 1.390 . S
C248 C247 1.387 . S
H249 C261 0.930 . S
H250 C263 0.930 . S
H251 C264 0.930 . S
H252 C268 0.959 . S
H253 C268 0.959 . S
H254 C268 0.961 . S
H255 C269 0.960 . S
H256 C269 0.961 . S
H257 C269 0.959 . S
H258 C272 0.929 . S
H259 C273 0.931 . S
H260 C275 0.930 . S
C261 H249 0.930 . S
C261 C262 1.399 . S
C261 C266 1.399 . S
C262 C261 1.399 . S
C262 C263 1.376 . S
C263 H250 0.930 . S
C263 C262 1.376 . S
C263 C264 1.388 . S
C264 H251 0.930 . S
C264 C263 1.388 . S
C264 C265 1.390 . S
C265 C264 1.390 . S
C265 C266 1.394 . S
C265 C271 1.465 . S
C266 C261 1.399 . S
C266 C265 1.394 . S
C266 C267 1.516 . S
C267 C266 1.516 . S
C267 C268 1.502 . S
C267 C269 1.561 . S
C267 C270 1.526 . S
C268 H252 0.959 . S
C268 H253 0.959 . S
C268 H254 0.961 . S
C268 C267 1.502 . S
C269 H255 0.960 . S
C269 H256 0.961 . S
C269 H257 0.959 . S
C269 C267 1.561 . S
C270 C267 1.526 . S
C270 C271 1.396 . S
C270 C275 1.390 . S
C271 C265 1.465 . S
C271 C270 1.396 . S
C271 C272 1.399 . S
C272 H258 0.929 . S
C272 C271 1.399 . S
C272 C273 1.385 . S
C273 H259 0.931 . S
C273 C272 1.385 . S
C273 C274 1.389 . S
C274 C273 1.389 . S
C274 C275 1.387 . S
C275 H260 0.930 . S
C275 C270 1.390 . S
C275 C274 1.387 . S
H276 C288 0.930 . S
H277 C290 0.930 . S
H278 C291 0.930 . S
H279 C295 0.959 . S
H280 C295 0.959 . S
H281 C295 0.961 1_655 S
H282 C296 0.960 1_655 S
H283 C296 0.961 . S
H284 C296 0.959 . S
H285 C299 0.929 . S
H286 C300 0.931 . S
H287 C302 0.930 . S
C288 H276 0.930 . S
C288 C289 1.399 . S
C288 C293 1.399 . S
C289 C288 1.399 . S
C289 C290 1.376 . S
C290 H277 0.930 . S
C290 C289 1.376 . S
C290 C291 1.388 . S
C291 H278 0.930 . S
C291 C290 1.388 . S
C291 C292 1.390 . S
C292 C291 1.390 . S
C292 C293 1.394 . S
C292 C298 1.465 1_655 S
C293 C288 1.399 . S
C293 C292 1.394 . S
C293 C294 1.516 1_655 S
C294 C293 1.516 1_455 S
C294 C295 1.502 . S
C294 C296 1.561 . S
C294 C297 1.526 . S
C295 H279 0.959 . S
C295 H280 0.959 . S
C295 H281 0.961 1_455 S
C295 C294 1.502 . S
C296 H282 0.960 1_455 S
C296 H283 0.961 . S
C296 H284 0.959 . S
C296 C294 1.561 . S
C297 C294 1.526 . S
C297 C298 1.396 . S
C297 C302 1.390 . S
C298 C292 1.465 1_455 S
C298 C297 1.396 . S
C298 C299 1.399 . S
C299 H285 0.929 . S
C299 C298 1.399 . S
C299 C300 1.385 . S
C300 H286 0.931 . S
C300 C299 1.385 . S
C300 C301 1.389 . S
C301 C300 1.389 . S
C301 C302 1.387 . S
C302 H287 0.930 . S
C302 C297 1.390 . S
C302 C301 1.387 . S
H303 C315 0.930 . S
H304 C317 0.930 . S
H305 C318 0.930 . S
H306 C322 0.959 . S
H307 C322 0.959 . S
H308 C322 0.961 1_565 S
H309 C323 0.960 1_565 S
H310 C323 0.961 . S
H311 C323 0.959 . S
H312 C326 0.929 . S
H313 C327 0.931 . S
H314 C329 0.930 . S
C315 H303 0.930 . S
C315 C316 1.399 . S
C315 C320 1.399 . S
C316 C315 1.399 . S
C316 C317 1.376 1_554 S
C317 H304 0.930 . S
C317 C316 1.376 1_556 S
C317 C318 1.388 . S
C318 H305 0.930 . S
C318 C317 1.388 . S
C318 C319 1.390 . S
C319 C318 1.390 . S
C319 C320 1.394 1_556 S
C319 C325 1.465 1_565 S
C320 C315 1.399 . S
C320 C319 1.394 1_554 S
C320 C321 1.516 1_565 S
C321 C320 1.516 1_545 S
C321 C322 1.502 . S
C321 C323 1.561 . S
C321 C324 1.526 . S
C322 H306 0.959 . S
C322 H307 0.959 . S
C322 H308 0.961 1_545 S
C322 C321 1.502 . S
C323 H309 0.960 1_545 S
C323 H310 0.961 . S
C323 H311 0.959 . S
C323 C321 1.561 . S
C324 C321 1.526 . S
C324 C325 1.396 1_554 S
C324 C329 1.390 . S
C325 C319 1.465 1_545 S
C325 C324 1.396 1_556 S
C325 C326 1.399 . S
C326 H312 0.929 . S
C326 C325 1.399 . S
C326 C327 1.385 . S
C327 H313 0.931 . S
C327 C326 1.385 . S
C327 C328 1.389 . S
C328 C327 1.389 . S
C328 C329 1.387 1_556 S
C329 H314 0.930 . S
C329 C324 1.390 . S
C329 C328 1.387 1_554 S
H330 C342 0.930 . S
H331 C344 0.930 . S
H332 C345 0.930 . S
H333 C349 0.959 . S
H334 C349 0.959 . S
H335 C349 0.961 . S
H336 C350 0.960 . S
H337 C350 0.961 . S
H338 C350 0.959 . S
H339 C353 0.929 1_556 S
H340 C354 0.931 . S
H341 C356 0.930 . S
C342 H330 0.930 . S
C342 C343 1.399 . S
C342 C347 1.399 . S
C343 C342 1.399 . S
C343 C344 1.376 . S
C344 H331 0.930 . S
C344 C343 1.376 . S
C344 C345 1.388 . S
C345 H332 0.930 . S
C345 C344 1.388 . S
C345 C346 1.390 . S
C346 C345 1.390 . S
C346 C347 1.394 . S
C346 C352 1.465 1_556 S
C347 C342 1.399 . S
C347 C346 1.394 . S
C347 C348 1.516 1_556 S
C348 C347 1.516 1_554 S
C348 C349 1.502 . S
C348 C350 1.561 . S
C348 C351 1.526 . S
C349 H333 0.959 . S
C349 H334 0.959 . S
C349 H335 0.961 . S
C349 C348 1.502 . S
C350 H336 0.960 . S
C350 H337 0.961 . S
C350 H338 0.959 . S
C350 C348 1.561 . S
C351 C348 1.526 . S
C351 C352 1.396 . S
C351 C356 1.390 . S
C352 C346 1.465 1_554 S
C352 C351 1.396 . S
C352 C353 1.399 . S
C353 H339 0.929 1_554 S
C353 C352 1.399 . S
C353 C354 1.385 . S
C354 H340 0.931 . S
C354 C353 1.385 . S
C354 C355 1.389 . S
C355 C354 1.389 . S
C355 C356 1.387 . S
C356 H341 0.930 . S
C356 C351 1.390 . S
C356 C355 1.387 . S
H357 C369 0.930 . S
H358 C371 0.930 . S
H359 C372 0.930 . S
H360 C376 0.959 . S
H361 C376 0.959 . S
H362 C376 0.961 . S
H363 C377 0.960 . S
H364 C377 0.961 . S
H365 C377 0.959 . S
H366 C380 0.929 . S
H367 C381 0.931 . S
H368 C383 0.930 . S
C369 H357 0.930 . S
C369 C370 1.399 . S
C369 C374 1.399 . S
C370 C369 1.399 . S
C370 C371 1.376 . S
C371 H358 0.930 . S
C371 C370 1.376 . S
C371 C372 1.388 . S
C372 H359 0.930 . S
C372 C371 1.388 . S
C372 C373 1.390 . S
C373 C372 1.390 . S
C373 C374 1.394 . S
C373 C379 1.465 . S
C374 C369 1.399 . S
C374 C373 1.394 . S
C374 C375 1.516 . S
C375 C374 1.516 . S
C375 C376 1.502 . S
C375 C377 1.561 . S
C375 C378 1.526 . S
C376 H360 0.959 . S
C376 H361 0.959 . S
C376 H362 0.961 . S
C376 C375 1.502 . S
C377 H363 0.960 . S
C377 H364 0.961 . S
C377 H365 0.959 . S
C377 C375 1.561 . S
C378 C375 1.526 . S
C378 C379 1.396 . S
C378 C383 1.390 . S
C379 C373 1.465 . S
C379 C378 1.396 . S
C379 C380 1.399 . S
C380 H366 0.929 . S
C380 C379 1.399 . S
C380 C381 1.385 . S
C381 H367 0.931 . S
C381 C380 1.385 . S
C381 C382 1.389 . S
C382 C381 1.389 . S
C382 C383 1.387 . S
C383 H368 0.930 . S
C383 C378 1.390 . S
C383 C382 1.387 . S
H384 C396 0.930 . S
H385 C398 0.930 . S
H386 C399 0.930 . S
H387 C403 0.959 . S
H388 C403 0.959 . S
H389 C403 0.961 . S
H390 C404 0.960 . S
H391 C404 0.961 . S
H392 C404 0.959 . S
H393 C407 0.929 . S
H394 C408 0.931 . S
H395 C410 0.930 . S
C396 H384 0.930 . S
C396 C397 1.399 . S
C396 C401 1.399 . S
C397 C396 1.399 . S
C397 C398 1.376 . S
C398 H385 0.930 . S
C398 C397 1.376 . S
C398 C399 1.388 . S
C399 H386 0.930 . S
C399 C398 1.388 . S
C399 C400 1.390 . S
C400 C399 1.390 . S
C400 C401 1.394 . S
C400 C406 1.465 . S
C401 C396 1.399 . S
C401 C400 1.394 . S
C401 C402 1.516 . S
C402 C401 1.516 . S
C402 C403 1.502 . S
C402 C404 1.561 . S
C402 C405 1.526 . S
C403 H387 0.959 . S
C403 H388 0.959 . S
C403 H389 0.961 . S
C403 C402 1.502 . S
C404 H390 0.960 . S
C404 H391 0.961 . S
C404 H392 0.959 . S
C404 C402 1.561 . S
C405 C402 1.526 . S
C405 C406 1.396 . S
C405 C410 1.390 . S
C406 C400 1.465 . S
C406 C405 1.396 . S
C406 C407 1.399 . S
C407 H393 0.929 . S
C407 C406 1.399 . S
C407 C408 1.385 . S
C408 H394 0.931 . S
C408 C407 1.385 . S
C408 C409 1.389 . S
C409 C408 1.389 . S
C409 C410 1.387 . S
C410 H395 0.930 . S
C410 C405 1.390 . S
C410 C409 1.387 . S
H411 C423 0.930 . S
H412 C425 0.930 . S
H413 C426 0.930 . S
H414 C430 0.959 . S
H415 C430 0.959 . S
H416 C430 0.961 . S
H417 C431 0.960 . S
H418 C431 0.961 1_556 S
H419 C431 0.959 . S
H420 C434 0.929 . S
H421 C435 0.931 . S
H422 C437 0.930 . S
C423 H411 0.930 . S
C423 C424 1.399 . S
C423 C428 1.399 . S
C424 C423 1.399 . S
C424 C425 1.376 . S
C425 H412 0.930 . S
C425 C424 1.376 . S
C425 C426 1.388 . S
C426 H413 0.930 . S
C426 C425 1.388 . S
C426 C427 1.390 . S
C427 C426 1.390 . S
C427 C428 1.394 . S
C427 C433 1.465 1_554 S
C428 C423 1.399 . S
C428 C427 1.394 . S
C428 C429 1.516 1_554 S
C429 C428 1.516 1_556 S
C429 C430 1.502 . S
C429 C431 1.561 1_556 S
C429 C432 1.526 . S
C430 H414 0.959 . S
C430 H415 0.959 . S
C430 H416 0.961 . S
C430 C429 1.502 . S
C431 H417 0.960 . S
C431 H418 0.961 1_554 S
C431 H419 0.959 . S
C431 C429 1.561 1_554 S
C432 C429 1.526 . S
C432 C433 1.396 . S
C432 C437 1.390 . S
C433 C427 1.465 1_556 S
C433 C432 1.396 . S
C433 C434 1.399 . S
C434 H420 0.929 . S
C434 C433 1.399 . S
C434 C435 1.385 . S
C435 H421 0.931 . S
C435 C434 1.385 . S
C435 C436 1.389 . S
C436 C435 1.389 . S
C436 C437 1.387 . S
C437 H422 0.930 . S
C437 C432 1.390 . S
C437 C436 1.387 . S
H438 C450 0.930 . S
H439 C452 0.930 . S
H440 C453 0.930 . S
H441 C457 0.959 . S
H442 C457 0.959 . S
H443 C457 0.961 . S
H444 C458 0.960 . S
H445 C458 0.961 . S
H446 C458 0.959 . S
H447 C461 0.929 . S
H448 C462 0.931 . S
H449 C464 0.930 . S
C450 H438 0.930 . S
C450 C451 1.399 . S
C450 C455 1.399 . S
C451 C450 1.399 . S
C451 C452 1.376 . S
C452 H439 0.930 . S
C452 C451 1.376 . S
C452 C453 1.388 . S
C453 H440 0.930 . S
C453 C452 1.388 . S
C453 C454 1.390 . S
C454 C453 1.390 . S
C454 C455 1.394 . S
C454 C460 1.465 . S
C455 C450 1.399 . S
C455 C454 1.394 . S
C455 C456 1.516 . S
C456 C455 1.516 . S
C456 C457 1.502 . S
C456 C458 1.561 . S
C456 C459 1.526 . S
C457 H441 0.959 . S
C457 H442 0.959 . S
C457 H443 0.961 . S
C457 C456 1.502 . S
C458 H444 0.960 . S
C458 H445 0.961 . S
C458 H446 0.959 . S
C458 C456 1.561 . S
C459 C456 1.526 . S
C459 C460 1.396 . S
C459 C464 1.390 . S
C460 C454 1.465 . S
C460 C459 1.396 . S
C460 C461 1.399 . S
C461 H447 0.929 . S
C461 C460 1.399 . S
C461 C462 1.385 . S
C462 H448 0.931 . S
C462 C461 1.385 . S
C462 C463 1.389 . S
C463 C462 1.389 . S
C463 C464 1.387 . S
C464 H449 0.930 . S
C464 C459 1.390 . S
C464 C463 1.387 . S
H465 C477 0.930 . S
H466 C479 0.930 . S
H467 C480 0.930 . S
H468 C484 0.959 . S
H469 C484 0.959 . S
H470 C484 0.961 . S
H471 C485 0.960 . S
H472 C485 0.961 . S
H473 C485 0.959 . S
H474 C488 0.929 . S
H475 C489 0.931 . S
H476 C491 0.930 . S
C477 H465 0.930 . S
C477 C478 1.399 . S
C477 C482 1.399 . S
C478 C477 1.399 . S
C478 C479 1.376 . S
C479 H466 0.930 . S
C479 C478 1.376 . S
C479 C480 1.388 . S
C480 H467 0.930 . S
C480 C479 1.388 . S
C480 C481 1.390 . S
C481 C480 1.390 . S
C481 C482 1.394 . S
C481 C487 1.465 . S
C482 C477 1.399 . S
C482 C481 1.394 . S
C482 C483 1.516 . S
C483 C482 1.516 . S
C483 C484 1.502 . S
C483 C485 1.561 . S
C483 C486 1.526 . S
C484 H468 0.959 . S
C484 H469 0.959 . S
C484 H470 0.961 . S
C484 C483 1.502 . S
C485 H471 0.960 . S
C485 H472 0.961 . S
C485 H473 0.959 . S
C485 C483 1.561 . S
C486 C483 1.526 . S
C486 C487 1.396 . S
C486 C491 1.390 . S
C487 C481 1.465 . S
C487 C486 1.396 . S
C487 C488 1.399 . S
C488 H474 0.929 . S
C488 C487 1.399 . S
C488 C489 1.385 . S
C489 H475 0.931 . S
C489 C488 1.385 . S
C489 C490 1.389 . S
C490 C489 1.389 . S
C490 C491 1.387 . S
C491 H476 0.930 . S
C491 C486 1.390 . S
C491 C490 1.387 . S
H492 C504 0.930 . S
H493 C506 0.930 . S
H494 C507 0.930 . S
H495 C511 0.959 . S
H496 C511 0.959 . S
H497 C511 0.961 . S
H498 C512 0.960 . S
H499 C512 0.961 . S
H500 C512 0.959 . S
H501 C515 0.929 . S
H502 C516 0.931 . S
H503 C518 0.930 . S
C504 H492 0.930 . S
C504 C505 1.399 . S
C504 C509 1.399 . S
C505 C504 1.399 . S
C505 C506 1.376 . S
C506 H493 0.930 . S
C506 C505 1.376 . S
C506 C507 1.388 . S
C507 H494 0.930 . S
C507 C506 1.388 . S
C507 C508 1.390 . S
C508 C507 1.390 . S
C508 C509 1.394 . S
C508 C514 1.465 . S
C509 C504 1.399 . S
C509 C508 1.394 . S
C509 C510 1.516 . S
C510 C509 1.516 . S
C510 C511 1.502 . S
C510 C512 1.561 . S
C510 C513 1.526 . S
C511 H495 0.959 . S
C511 H496 0.959 . S
C511 H497 0.961 . S
C511 C510 1.502 . S
C512 H498 0.960 . S
C512 H499 0.961 . S
C512 H500 0.959 . S
C512 C510 1.561 . S
C513 C510 1.526 . S
C513 C514 1.396 . S
C513 C518 1.390 . S
C514 C508 1.465 . S
C514 C513 1.396 . S
C514 C515 1.399 . S
C515 H501 0.929 . S
C515 C514 1.399 . S
C515 C516 1.385 . S
C516 H502 0.931 . S
C516 C515 1.385 . S
C516 C517 1.389 . S
C517 C516 1.389 . S
C517 C518 1.387 . S
C518 H503 0.930 . S
C518 C513 1.390 . S
C518 C517 1.387 . S
H519 C531 0.930 . S
H520 C533 0.930 . S
H521 C534 0.930 . S
H522 C538 0.959 . S
H523 C538 0.959 . S
H524 C538 0.961 . S
H525 C539 0.960 . S
H526 C539 0.961 . S
H527 C539 0.959 . S
H528 C542 0.929 . S
H529 C543 0.931 . S
H530 C545 0.930 . S
C531 H519 0.930 . S
C531 C532 1.399 . S
C531 C536 1.399 . S
C532 C531 1.399 . S
C532 C533 1.376 . S
C533 H520 0.930 . S
C533 C532 1.376 . S
C533 C534 1.388 . S
C534 H521 0.930 . S
C534 C533 1.388 . S
C534 C535 1.390 . S
C535 C534 1.390 . S
C535 C536 1.394 . S
C535 C541 1.465 . S
C536 C531 1.399 . S
C536 C535 1.394 . S
C536 C537 1.516 . S
C537 C536 1.516 . S
C537 C538 1.502 . S
C537 C539 1.561 . S
C537 C540 1.526 . S
C538 H522 0.959 . S
C538 H523 0.959 . S
C538 H524 0.961 . S
C538 C537 1.502 . S
C539 H525 0.960 . S
C539 H526 0.961 . S
C539 H527 0.959 . S
C539 C537 1.561 . S
C540 C537 1.526 . S
C540 C541 1.396 . S
C540 C545 1.390 . S
C541 C535 1.465 . S
C541 C540 1.396 . S
C541 C542 1.399 . S
C542 H528 0.929 . S
C542 C541 1.399 . S
C542 C543 1.385 . S
C543 H529 0.931 . S
C543 C542 1.385 . S
C543 C544 1.389 . S
C544 C543 1.389 . S
C544 C545 1.387 . S
C545 H530 0.930 . S
C545 C540 1.390 . S
C545 C544 1.387 . S
H546 C558 0.930 . S
H547 C560 0.930 . S
H548 C561 0.930 . S
H549 C565 0.959 . S
H550 C565 0.959 . S
H551 C565 0.961 . S
H552 C566 0.960 . S
H553 C566 0.961 . S
H554 C566 0.959 . S
H555 C569 0.929 . S
H556 C570 0.931 . S
H557 C572 0.930 . S
C558 H546 0.930 . S
C558 C559 1.399 . S
C558 C563 1.399 . S
C559 C558 1.399 . S
C559 C560 1.376 . S
C560 H547 0.930 . S
C560 C559 1.376 . S
C560 C561 1.388 . S
C561 H548 0.930 . S
C561 C560 1.388 . S
C561 C562 1.390 . S
C562 C561 1.390 . S
C562 C563 1.394 . S
C562 C568 1.465 . S
C563 C558 1.399 . S
C563 C562 1.394 . S
C563 C564 1.516 . S
C564 C563 1.516 . S
C564 C565 1.502 . S
C564 C566 1.561 . S
C564 C567 1.526 . S
C565 H549 0.959 . S
C565 H550 0.959 . S
C565 H551 0.961 . S
C565 C564 1.502 . S
C566 H552 0.960 . S
C566 H553 0.961 . S
C566 H554 0.959 . S
C566 C564 1.561 . S
C567 C564 1.526 . S
C567 C568 1.396 . S
C567 C572 1.390 . S
C568 C562 1.465 . S
C568 C567 1.396 . S
C568 C569 1.399 . S
C569 H555 0.929 . S
C569 C568 1.399 . S
C569 C570 1.385 . S
C570 H556 0.931 . S
C570 C569 1.385 . S
C570 C571 1.389 . S
C571 C570 1.389 . S
C571 C572 1.387 . S
C572 H557 0.930 . S
C572 C567 1.390 . S
C572 C571 1.387 . S
H573 C585 0.930 . S
H574 C587 0.930 . S
H575 C588 0.930 . S
H576 C592 0.959 . S
H577 C592 0.959 . S
H578 C592 0.961 . S
H579 C593 0.960 . S
H580 C593 0.961 . S
H581 C593 0.959 . S
H582 C596 0.929 . S
H583 C597 0.931 . S
H584 C599 0.930 . S
C585 H573 0.930 . S
C585 C586 1.399 . S
C585 C590 1.399 . S
C586 C585 1.399 . S
C586 C587 1.376 . S
C587 H574 0.930 . S
C587 C586 1.376 . S
C587 C588 1.388 . S
C588 H575 0.930 . S
C588 C587 1.388 . S
C588 C589 1.390 . S
C589 C588 1.390 . S
C589 C590 1.394 . S
C589 C595 1.465 . S
C590 C585 1.399 . S
C590 C589 1.394 . S
C590 C591 1.516 . S
C591 C590 1.516 . S
C591 C592 1.502 . S
C591 C593 1.561 . S
C591 C594 1.526 . S
C592 H576 0.959 . S
C592 H577 0.959 . S
C592 H578 0.961 . S
C592 C591 1.502 . S
C593 H579 0.960 . S
C593 H580 0.961 . S
C593 H581 0.959 . S
C593 C591 1.561 . S
C594 C591 1.526 . S
C594 C595 1.396 . S
C594 C599 1.390 . S
C595 C589 1.465 . S
C595 C594 1.396 . S
C595 C596 1.399 . S
C596 H582 0.929 . S
C596 C595 1.399 . S
C596 C597 1.385 . S
C597 H583 0.931 . S
C597 C596 1.385 . S
C597 C598 1.389 . S
C598 C597 1.389 . S
C598 C599 1.387 . S
C599 H584 0.930 . S
C599 C594 1.390 . S
C599 C598 1.387 . S
H600 C612 0.930 . S
H601 C614 0.930 . S
H602 C615 0.930 . S
H603 C619 0.959 . S
H604 C619 0.959 . S
H605 C619 0.961 . S
H606 C620 0.960 . S
H607 C620 0.961 . S
H608 C620 0.959 . S
H609 C623 0.929 . S
H610 C624 0.931 . S
H611 C626 0.930 . S
C612 H600 0.930 . S
C612 C613 1.399 . S
C612 C617 1.399 . S
C613 C612 1.399 . S
C613 C614 1.376 . S
C614 H601 0.930 . S
C614 C613 1.376 . S
C614 C615 1.388 . S
C615 H602 0.930 . S
C615 C614 1.388 . S
C615 C616 1.390 . S
C616 C615 1.390 . S
C616 C617 1.394 . S
C616 C622 1.465 . S
C617 C612 1.399 . S
C617 C616 1.394 . S
C617 C618 1.516 . S
C618 C617 1.516 . S
C618 C619 1.502 . S
C618 C620 1.561 . S
C618 C621 1.526 . S
C619 H603 0.959 . S
C619 H604 0.959 . S
C619 H605 0.961 . S
C619 C618 1.502 . S
C620 H606 0.960 . S
C620 H607 0.961 . S
C620 H608 0.959 . S
C620 C618 1.561 . S
C621 C618 1.526 . S
C621 C622 1.396 . S
C621 C626 1.390 . S
C622 C616 1.465 . S
C622 C621 1.396 . S
C622 C623 1.399 . S
C623 H609 0.929 . S
C623 C622 1.399 . S
C623 C624 1.385 . S
C624 H610 0.931 . S
C624 C623 1.385 . S
C624 C625 1.389 . S
C625 C624 1.389 . S
C625 C626 1.387 . S
C626 H611 0.930 . S
C626 C621 1.390 . S
C626 C625 1.387 . S
H627 C639 0.930 . S
H628 C641 0.930 . S
H629 C642 0.930 . S
H630 C646 0.959 . S
H631 C646 0.959 . S
H632 C646 0.961 . S
H633 C647 0.960 . S
H634 C647 0.961 . S
H635 C647 0.959 . S
H636 C650 0.929 . S
H637 C651 0.931 . S
H638 C653 0.930 . S
C639 H627 0.930 . S
C639 C640 1.399 . S
C639 C644 1.399 . S
C640 C639 1.399 . S
C640 C641 1.376 . S
C641 H628 0.930 . S
C641 C640 1.376 . S
C641 C642 1.388 . S
C642 H629 0.930 . S
C642 C641 1.388 . S
C642 C643 1.390 . S
C643 C642 1.390 . S
C643 C644 1.394 . S
C643 C649 1.465 . S
C644 C639 1.399 . S
C644 C643 1.394 . S
C644 C645 1.516 . S
C645 C644 1.516 . S
C645 C646 1.502 . S
C645 C647 1.561 . S
C645 C648 1.526 . S
C646 H630 0.959 . S
C646 H631 0.959 . S
C646 H632 0.961 . S
C646 C645 1.502 . S
C647 H633 0.960 . S
C647 H634 0.961 . S
C647 H635 0.959 . S
C647 C645 1.561 . S
C648 C645 1.526 . S
C648 C649 1.396 . S
C648 C653 1.390 . S
C649 C643 1.465 . S
C649 C648 1.396 . S
C649 C650 1.399 . S
C650 H636 0.929 . S
C650 C649 1.399 . S
C650 C651 1.385 . S
C651 H637 0.931 . S
C651 C650 1.385 . S
C651 C652 1.389 . S
C652 C651 1.389 . S
C652 C653 1.387 . S
C653 H638 0.930 . S
C653 C648 1.390 . S
C653 C652 1.387 . S
H654 C666 0.930 . S
H655 C668 0.930 . S
H656 C669 0.930 . S
H657 C673 0.959 . S
H658 C673 0.959 . S
H659 C673 0.961 . S
H660 C674 0.960 . S
H661 C674 0.961 . S
H662 C674 0.959 . S
H663 C677 0.929 . S
H664 C678 0.931 . S
H665 C680 0.930 . S
C666 H654 0.930 . S
C666 C667 1.399 . S
C666 C671 1.399 . S
C667 C666 1.399 . S
C667 C668 1.376 . S
C668 H655 0.930 . S
C668 C667 1.376 . S
C668 C669 1.388 . S
C669 H656 0.930 . S
C669 C668 1.388 . S
C669 C670 1.390 . S
C670 C669 1.390 . S
C670 C671 1.394 . S
C670 C676 1.465 . S
C671 C666 1.399 . S
C671 C670 1.394 . S
C671 C672 1.516 . S
C672 C671 1.516 . S
C672 C673 1.502 . S
C672 C674 1.561 . S
C672 C675 1.526 . S
C673 H657 0.959 . S
C673 H658 0.959 . S
C673 H659 0.961 . S
C673 C672 1.502 . S
C674 H660 0.960 . S
C674 H661 0.961 . S
C674 H662 0.959 . S
C674 C672 1.561 . S
C675 C672 1.526 . S
C675 C676 1.396 . S
C675 C680 1.390 . S
C676 C670 1.465 . S
C676 C675 1.396 . S
C676 C677 1.399 . S
C677 H663 0.929 . S
C677 C676 1.399 . S
C677 C678 1.385 . S
C678 H664 0.931 . S
C678 C677 1.385 . S
C678 C679 1.389 . S
C679 C678 1.389 . S
C679 C680 1.387 . S
C680 H665 0.930 . S
C680 C675 1.390 . S
C680 C679 1.387 . S
H681 C693 0.930 . S
H682 C695 0.930 . S
H683 C696 0.930 . S
H684 C700 0.959 . S
H685 C700 0.959 . S
H686 C700 0.961 . S
H687 C701 0.960 . S
H688 C701 0.961 . S
H689 C701 0.959 . S
H690 C704 0.929 . S
H691 C705 0.931 . S
H692 C707 0.930 . S
C693 H681 0.930 . S
C693 C694 1.399 . S
C693 C698 1.399 . S
C694 C693 1.399 . S
C694 C695 1.376 . S
C695 H682 0.930 . S
C695 C694 1.376 . S
C695 C696 1.388 . S
C696 H683 0.930 . S
C696 C695 1.388 . S
C696 C697 1.390 . S
C697 C696 1.390 . S
C697 C698 1.394 . S
C697 C703 1.465 . S
C698 C693 1.399 . S
C698 C697 1.394 . S
C698 C699 1.516 . S
C699 C698 1.516 . S
C699 C700 1.502 . S
C699 C701 1.561 . S
C699 C702 1.526 . S
C700 H684 0.959 . S
C700 H685 0.959 . S
C700 H686 0.961 . S
C700 C699 1.502 . S
C701 H687 0.960 . S
C701 H688 0.961 . S
C701 H689 0.959 . S
C701 C699 1.561 . S
C702 C699 1.526 . S
C702 C703 1.396 . S
C702 C707 1.390 . S
C703 C697 1.465 . S
C703 C702 1.396 . S
C703 C704 1.399 . S
C704 H690 0.929 . S
C704 C703 1.399 . S
C704 C705 1.385 . S
C705 H691 0.931 . S
C705 C704 1.385 . S
C705 C706 1.389 . S
C706 C705 1.389 . S
C706 C707 1.387 . S
C707 H692 0.930 . S
C707 C702 1.390 . S
C707 C706 1.387 . S
H708 C720 0.930 . S
H709 C722 0.930 . S
H710 C723 0.930 . S
H711 C727 0.959 . S
H712 C727 0.959 . S
H713 C727 0.961 . S
H714 C728 0.960 . S
H715 C728 0.961 . S
H716 C728 0.959 . S
H717 C731 0.929 . S
H718 C732 0.931 . S
H719 C734 0.930 . S
C720 H708 0.930 . S
C720 C721 1.399 . S
C720 C725 1.399 . S
C721 C720 1.399 . S
C721 C722 1.376 1_556 S
C722 H709 0.930 . S
C722 C721 1.376 1_554 S
C722 C723 1.388 . S
C723 H710 0.930 . S
C723 C722 1.388 . S
C723 C724 1.390 . S
C724 C723 1.390 . S
C724 C725 1.394 1_554 S
C724 C730 1.465 . S
C725 C720 1.399 . S
C725 C724 1.394 1_556 S
C725 C726 1.516 . S
C726 C725 1.516 . S
C726 C727 1.502 . S
C726 C728 1.561 . S
C726 C729 1.526 . S
C727 H711 0.959 . S
C727 H712 0.959 . S
C727 H713 0.961 . S
C727 C726 1.502 . S
C728 H714 0.960 . S
C728 H715 0.961 . S
C728 H716 0.959 . S
C728 C726 1.561 . S
C729 C726 1.526 . S
C729 C730 1.396 1_556 S
C729 C734 1.390 . S
C730 C724 1.465 . S
C730 C729 1.396 1_554 S
C730 C731 1.399 . S
C731 H717 0.929 . S
C731 C730 1.399 . S
C731 C732 1.385 . S
C732 H718 0.931 . S
C732 C731 1.385 . S
C732 C733 1.389 . S
C733 C732 1.389 . S
C733 C734 1.387 1_554 S
C734 H719 0.930 . S
C734 C729 1.390 . S
C734 C733 1.387 1_556 S
H735 C747 0.930 . S
H736 C749 0.930 . S
H737 C750 0.930 . S
H738 C754 0.959 . S
H739 C754 0.959 . S
H740 C754 0.961 . S
H741 C755 0.960 . S
H742 C755 0.961 . S
H743 C755 0.959 . S
H744 C758 0.929 . S
H745 C759 0.931 . S
H746 C761 0.930 . S
C747 H735 0.930 . S
C747 C748 1.399 . S
C747 C752 1.399 . S
C748 C747 1.399 . S
C748 C749 1.376 . S
C749 H736 0.930 . S
C749 C748 1.376 . S
C749 C750 1.388 . S
C750 H737 0.930 . S
C750 C749 1.388 . S
C750 C751 1.390 . S
C751 C750 1.390 . S
C751 C752 1.394 . S
C751 C757 1.465 . S
C752 C747 1.399 . S
C752 C751 1.394 . S
C752 C753 1.516 . S
C753 C752 1.516 . S
C753 C754 1.502 . S
C753 C755 1.561 . S
C753 C756 1.526 . S
C754 H738 0.959 . S
C754 H739 0.959 . S
C754 H740 0.961 . S
C754 C753 1.502 . S
C755 H741 0.960 . S
C755 H742 0.961 . S
C755 H743 0.959 . S
C755 C753 1.561 . S
C756 C753 1.526 . S
C756 C757 1.396 . S
C756 C761 1.390 . S
C757 C751 1.465 . S
C757 C756 1.396 . S
C757 C758 1.399 . S
C758 H744 0.929 . S
C758 C757 1.399 . S
C758 C759 1.385 . S
C759 H745 0.931 . S
C759 C758 1.385 . S
C759 C760 1.389 . S
C760 C759 1.389 . S
C760 C761 1.387 . S
C761 H746 0.930 . S
C761 C756 1.390 . S
C761 C760 1.387 . S
H762 C774 0.930 . S
H763 C776 0.930 . S
H764 C777 0.930 . S
H765 C781 0.959 . S
H766 C781 0.959 . S
H767 C781 0.961 . S
H768 C782 0.960 . S
H769 C782 0.961 . S
H770 C782 0.959 . S
H771 C785 0.929 . S
H772 C786 0.931 . S
H773 C788 0.930 . S
C774 H762 0.930 . S
C774 C775 1.399 . S
C774 C779 1.399 . S
C775 C774 1.399 . S
C775 C776 1.376 . S
C776 H763 0.930 . S
C776 C775 1.376 . S
C776 C777 1.388 . S
C777 H764 0.930 . S
C777 C776 1.388 . S
C777 C778 1.390 . S
C778 C777 1.390 . S
C778 C779 1.394 . S
C778 C784 1.465 . S
C779 C774 1.399 . S
C779 C778 1.394 . S
C779 C780 1.516 . S
C780 C779 1.516 . S
C780 C781 1.502 . S
C780 C782 1.561 . S
C780 C783 1.526 . S
C781 H765 0.959 . S
C781 H766 0.959 . S
C781 H767 0.961 . S
C781 C780 1.502 . S
C782 H768 0.960 . S
C782 H769 0.961 . S
C782 H770 0.959 . S
C782 C780 1.561 . S
C783 C780 1.526 . S
C783 C784 1.396 . S
C783 C788 1.390 . S
C784 C778 1.465 . S
C784 C783 1.396 . S
C784 C785 1.399 . S
C785 H771 0.929 . S
C785 C784 1.399 . S
C785 C786 1.385 . S
C786 H772 0.931 . S
C786 C785 1.385 . S
C786 C787 1.389 . S
C787 C786 1.389 . S
C787 C788 1.387 . S
C788 H773 0.930 . S
C788 C783 1.390 . S
C788 C787 1.387 . S
H789 C801 0.930 . S
H790 C803 0.930 . S
H791 C804 0.932 . S
H792 C808 0.959 . S
H793 C808 0.959 . S
H794 C808 0.961 . S
H795 C809 0.960 . S
H796 C809 0.961 . S
H797 C809 0.959 . S
H798 C812 0.929 . S
H799 C813 0.931 . S
H800 C815 0.930 . S
C801 H789 0.930 . S
C801 C802 1.399 . S
C801 C806 1.399 . S
C802 C801 1.399 . S
C802 C803 1.376 . S
C803 H790 0.930 . S
C803 C802 1.376 . S
C803 C804 1.386 1_554 S
C804 H791 0.932 . S
C804 C803 1.386 1_556 S
C804 C805 1.391 . S
C805 C804 1.391 . S
C805 C806 1.394 1_556 S
C805 C811 1.465 . S
C806 C801 1.399 . S
C806 C805 1.394 1_554 S
C806 C807 1.516 1_554 S
C807 C806 1.516 1_556 S
C807 C808 1.502 1_556 S
C807 C809 1.561 . S
C807 C810 1.526 . S
C808 H792 0.959 . S
C808 H793 0.959 . S
C808 H794 0.961 . S
C808 C807 1.502 1_554 S
C809 H795 0.960 . S
C809 H796 0.961 . S
C809 H797 0.959 . S
C809 C807 1.561 . S
C810 C807 1.526 . S
C810 C811 1.396 . S
C810 C815 1.390 . S
C811 C805 1.465 . S
C811 C810 1.396 . S
C811 C812 1.399 . S
C812 H798 0.929 . S
C812 C811 1.399 . S
C812 C813 1.385 . S
C813 H799 0.931 . S
C813 C812 1.385 . S
C813 C814 1.389 . S
C814 C813 1.389 . S
C814 C815 1.387 . S
C815 H800 0.930 . S
C815 C810 1.390 . S
C815 C814 1.387 . S
C181 C11 1.373 . S
C193 C137 1.323 . S
C208 C25 1.293 . S
C220 C151 1.320 . S
C235 C39 1.373 . S
C247 C165 1.322 . S
C262 C53 1.294 . S
C274 C95 1.363 . S
C289 C109 1.287 . S
C301 C67 1.341 . S
C316 C123 1.287 . S
C328 C81 1.346 . S
C343 C145 1.370 . S
C355 C5 1.216 . S
C370 C19 1.368 . S
C382 C159 1.222 . S
C397 C33 1.370 . S
C409 C89 1.218 . S
C424 C47 1.328 . S
C436 C103 1.247 . S
C451 C61 1.336 . S
C463 C117 1.263 . S
C478 C75 1.233 . S
C490 C131 1.359 . S
C505 C144 1.035 . S
C517 C4 0.939 . S
C532 C18 1.003 . S
C544 C158 0.943 . S
C559 C32 1.050 . S
C571 C88 0.962 . S
C586 C46 0.952 . S
C598 C102 0.986 . S
C613 C60 0.983 . S
C625 C116 0.954 . S
C640 C74 1.035 . S
C652 C130 1.006 . S
C667 C12 1.562 . S
C679 C96 1.558 . S
C694 C110 1.565 . S
C706 C26 1.563 . S
C721 C40 1.556 . S
C733 C124 1.553 . S
C748 C54 1.559 . S
C760 C138 1.556 . S
C775 C68 1.557 . S
C787 C152 1.561 . S
C802 C166 1.550 . S
C814 C82 1.550 . S
