# Generated by pormake.
# Topology snl, (6)-cn, num edge types: 1
# Building blocks:
#     Node 0, Type 0, BuildingBlock: BETDIP_clean_sbu_0, # of connection points: 6
#     Node 1, Type 0, BuildingBlock: BETDIP_clean_sbu_0, # of connection points: 6
#     Node 2, Type 0, BuildingBlock: BETDIP_clean_sbu_0, # of connection points: 6
#     Node 3, Type 0, BuildingBlock: BETDIP_clean_sbu_0, # of connection points: 6
#     Node 4, Type 0, BuildingBlock: BETDIP_clean_sbu_0, # of connection points: 6
#     Node 5, Type 0, BuildingBlock: BETDIP_clean_sbu_0, # of connection points: 6
#     Node 6, Type 0, BuildingBlock: BETDIP_clean_sbu_0, # of connection points: 6
#     Node 7, Type 0, BuildingBlock: BETDIP_clean_sbu_0, # of connection points: 6
#     Node 8, Type 0, BuildingBlock: BETDIP_clean_sbu_0, # of connection points: 6
#     Node 9, Type 0, BuildingBlock: BETDIP_clean_sbu_0, # of connection points: 6
#     Node 10, Type 0, BuildingBlock: BETDIP_clean_sbu_0, # of connection points: 6
#     Node 11, Type 0, BuildingBlock: BETDIP_clean_sbu_0, # of connection points: 6
#     Node 12, Type 0, BuildingBlock: BETDIP_clean_sbu_0, # of connection points: 6
#     Node 13, Type 0, BuildingBlock: BETDIP_clean_sbu_0, # of connection points: 6
#     Node 14, Type 0, BuildingBlock: BETDIP_clean_sbu_0, # of connection points: 6
#     Node 15, Type 0, BuildingBlock: BETDIP_clean_sbu_0, # of connection points: 6
#     Edge 16, Type (0, 0), None
#     Edge 17, Type (0, 0), None
#     Edge 18, Type (0, 0), None
#     Edge 19, Type (0, 0), None
#     Edge 20, Type (0, 0), None
#     Edge 21, Type (0, 0), None
#     Edge 22, Type (0, 0), None
#     Edge 23, Type (0, 0), None
#     Edge 24, Type (0, 0), None
#     Edge 25, Type (0, 0), None
#     Edge 26, Type (0, 0), None
#     Edge 27, Type (0, 0), None
#     Edge 28, Type (0, 0), None
#     Edge 29, Type (0, 0), None
#     Edge 30, Type (0, 0), None
#     Edge 31, Type (0, 0), None
#     Edge 32, Type (0, 0), None
#     Edge 33, Type (0, 0), None
#     Edge 34, Type (0, 0), None
#     Edge 35, Type (0, 0), None
#     Edge 36, Type (0, 0), None
#     Edge 37, Type (0, 0), None
#     Edge 38, Type (0, 0), None
#     Edge 39, Type (0, 0), None
#     Edge 40, Type (0, 0), None
#     Edge 41, Type (0, 0), None
#     Edge 42, Type (0, 0), None
#     Edge 43, Type (0, 0), None
#     Edge 44, Type (0, 0), None
#     Edge 45, Type (0, 0), None
#     Edge 46, Type (0, 0), None
#     Edge 47, Type (0, 0), None
#     Edge 48, Type (0, 0), None
#     Edge 49, Type (0, 0), None
#     Edge 50, Type (0, 0), None
#     Edge 51, Type (0, 0), None
#     Edge 52, Type (0, 0), None
#     Edge 53, Type (0, 0), None
#     Edge 54, Type (0, 0), None
#     Edge 55, Type (0, 0), None
#     Edge 56, Type (0, 0), None
#     Edge 57, Type (0, 0), None
#     Edge 58, Type (0, 0), None
#     Edge 59, Type (0, 0), None
#     Edge 60, Type (0, 0), None
#     Edge 61, Type (0, 0), None
#     Edge 62, Type (0, 0), None
#     Edge 63, Type (0, 0), None
# Relax obj value: 0.242
# Max RMSD: 0.328
# Mean RMSD: 0.306
data_MOF--net-snl--node1-BETDIP_clean_sbu_0--edge1-none
_symmetry_space_group_name_H-M    P1
_symmetry_Int_Tables_number       1
_symmetry_cell_setting            triclinic
loop_
_symmetry_equiv_pos_as_xyz
'x, y, z'
_cell_length_a     23.845407
_cell_length_b     24.330922
_cell_length_c     15.917908
_cell_angle_alpha  86.599697
_cell_angle_beta   92.422806
_cell_angle_gamma 89.626631
loop_
_atom_site_label
_atom_site_type_symbol
_atom_site_fract_x
_atom_site_fract_y
_atom_site_fract_z
_atom_type_partial_charge
Tb0 Tb 0.14135 0.56232 0.2718 0.0
Tb1 Tb 0.16088 0.62957 0.13596 0.0
C2 C 0.13755 0.52198 0.41994 0.0
C3 C 0.1425 0.54719 0.50181 0.0
C4 C 0.18425 0.52863 0.56122 0.0
C5 C 0.18829 0.55078 0.64004 0.0
C6 C 0.15037 0.59191 0.66172 0.0
C7 C 0.10907 0.61099 0.6011 0.0
C8 C 0.10568 0.58942 0.52172 0.0
C9 C 0.05097 0.5636 0.17156 0.0
C10 C 0.11718 0.69413 0.26964 0.0
C11 C 0.17511 0.67704 0.99356 0.0
C12 C 0.16738 0.65592 0.90886 0.0
C13 C 0.14321 0.68893 0.84156 0.0
C14 C 0.13711 0.66851 0.76112 0.0
C15 C 0.15396 0.6141 0.74723 0.0
C16 C 0.17574 0.58086 0.81626 0.0
C17 C 0.1831 0.60168 0.89516 0.0
C18 C 0.24672 0.6219 0.25968 0.0
C19 C 0.16234 0.5065 0.09905 0.0
O20 O 0.18293 0.52119 0.3769 0.0
O21 O 0.09307 0.5355 0.37261 0.0
O22 O 0.08055 0.6053 0.18825 0.0
O23 O 0.07641 0.52003 0.20485 0.0
O24 O 0.14078 0.65104 0.31408 0.0
O25 O 0.10372 0.68429 0.192 0.0
O26 O 0.12957 0.68228 1.03474 0.0
O27 O 0.21568 0.65459 1.04168 0.0
O28 O 0.21898 0.58404 0.22718 0.0
O29 O 0.22698 0.6664 0.22003 0.0
O30 O 0.14862 0.55545 1.06744 0.0
O31 O 0.16924 0.49933 0.18308 0.0
H32 H 0.21362 0.49664 0.54691 0.0
H33 H 0.22211 0.53601 0.68312 0.0
H34 H 0.07843 0.64178 0.61503 0.0
H35 H 0.07333 0.60517 0.47665 0.0
H36 H 0.12984 0.73066 0.85086 0.0
H37 H 0.12071 0.69601 0.7099 0.0
H38 H 0.18781 0.53852 0.81012 0.0
H39 H 0.20223 0.57509 0.94491 0.0
Tb40 Tb 0.63851 0.89425 0.36694 0.0
Tb41 Tb 0.68021 0.84024 0.51019 0.0
C42 C 0.62228 0.94125 0.22272 0.0
C43 C 0.62357 0.91522 0.14112 0.0
C44 C 0.66142 0.87194 0.13152 0.0
C45 C 0.66482 0.84789 1.0546 0.0
C46 C 0.63047 0.86623 0.98419 0.0
C47 C 0.5898 0.90738 0.99579 0.0
C48 C 0.58663 0.93178 0.07333 0.0
C49 C 0.55287 0.86141 0.45633 0.0
C50 C 0.63702 0.76442 0.38424 0.0
C51 C 0.6979 0.79941 0.65844 0.0
C52 C 0.67674 0.81463 0.74013 0.0
C53 C 0.6457 0.86332 0.74652 0.0
C54 C 0.62894 0.8792 0.82482 0.0
C55 C 0.64068 0.84555 0.8988 0.0
C56 C 0.66764 0.79433 0.89036 0.0
C57 C 0.68668 0.77996 0.81249 0.0
C58 C 0.75413 0.84213 0.3794 0.0
C59 C 0.66556 0.96371 0.53456 0.0
O60 O 0.67003 0.94202 0.26581 0.0
O61 O 0.58169 0.926 0.27055 0.0
O62 O 0.59823 0.88268 0.48487 0.0
O63 O 0.55955 0.85212 0.37832 0.0
O64 O 0.65072 0.80658 0.33244 0.0
O65 O 0.63044 0.77489 0.46234 0.0
O66 O 0.66 0.78138 0.60561 0.0
O67 O 0.73131 0.83456 0.62103 0.0
O68 O 0.72391 0.88043 0.40398 0.0
O69 O 0.74541 0.80096 0.43266 0.0
O70 O 0.68746 0.91793 0.56725 0.0
O71 O 0.64338 0.96523 0.45505 0.0
H72 H 0.68941 0.85711 0.18334 0.0
H73 H 0.69603 0.81602 1.05067 0.0
H74 H 0.56069 0.92149 0.94499 0.0
H75 H 0.55596 0.96413 0.07989 0.0
H76 H 0.63507 0.88983 0.69136 0.0
H77 H 0.60858 0.91889 0.8269 0.0
H78 H 0.67592 0.76567 0.94403 0.0
H79 H 0.7104 0.74233 0.80925 0.0
Tb80 Tb 0.4061 0.38161 0.78542 0.0
Tb81 Tb 0.35111 0.3446 0.65857 0.0
C82 C 0.42845 0.42671 0.92331 0.0
C83 C 0.41023 0.4182 1.01159 0.0
C84 C 0.35366 0.42317 1.03197 0.0
C85 C 0.33726 0.41183 0.11486 0.0
C86 C 0.37665 0.39437 0.17973 0.0
C87 C 0.43365 0.39191 0.15945 0.0
C88 C 0.45008 0.40359 0.07672 0.0
C89 C 0.48809 0.3526 0.68736 0.0
C90 C 0.40909 0.25484 0.75669 0.0
C91 C 0.30635 0.32466 0.51794 0.0
C92 C 0.32346 0.34174 0.43091 0.0
C93 C 0.37135 0.31893 0.39751 0.0
C94 C 0.38811 0.33564 0.31664 0.0
C95 C 0.3584 0.37701 0.26692 0.0
C96 C 0.31085 0.40063 0.30121 0.0
C97 C 0.29369 0.38322 0.38187 0.0
C98 C 0.28904 0.34028 0.80317 0.0
C99 C 0.38043 0.46237 0.61287 0.0
O100 O 0.45781 0.38719 0.89531 0.0
O101 O 0.39159 0.44564 0.86606 0.0
O102 O 0.44065 0.37589 0.66288 0.0
O103 O 0.48554 0.34146 0.7673 0.0
O104 O 0.39948 0.28875 0.81769 0.0
O105 O 0.40458 0.27631 0.68018 0.0
O106 O 0.33894 0.28957 0.56272 0.0
O107 O 0.28936 0.36417 0.56312 0.0
O108 O 0.31735 0.37919 0.77129 0.0
O109 O 0.29483 0.30111 0.75257 0.0
O110 O 0.3523 0.42121 0.58798 0.0
O111 O 0.40647 0.45745 0.69013 0.0
H112 H 0.32178 0.43516 0.98378 0.0
H113 H 0.29331 0.41571 0.12731 0.0
H114 H 0.46594 0.38082 0.20738 0.0
H115 H 0.4941 0.4003 1.06334 0.0
H116 H 0.39652 0.28852 0.4345 0.0
H117 H 0.42432 0.31544 0.29312 0.0
H118 H 0.28712 0.43327 0.26653 0.0
H119 H 0.25731 0.4027 0.40626 0.0
Tb120 Tb 0.89461 0.07665 0.87162 0.0
Tb121 Tb 0.84185 0.12755 0.98749 0.0
C122 C 0.91889 0.04526 0.72893 0.0
C123 C 0.91017 0.0695 0.64258 0.0
C124 C 0.86604 0.10649 0.62165 0.0
C125 C 0.85575 0.12619 0.53836 0.0
C126 C 0.88972 0.10986 0.47368 0.0
C127 C 0.93678 0.07595 0.49685 0.0
C128 C 0.94647 0.05599 0.58043 0.0
C129 C 0.97347 0.09338 0.98576 0.0
C130 C 0.87988 0.21192 0.86134 0.0
C131 C 0.82035 0.16628 0.12512 0.0
C132 C 0.83739 0.15072 0.21342 0.0
C133 C 0.87454 0.10663 0.23437 0.0
C134 C 0.89137 0.09324 0.31822 0.0
C135 C 0.8743 0.1258 0.38311 0.0
C136 C 0.83971 0.17203 0.36043 0.0
C137 C 0.82002 0.18301 0.27717 0.0
C138 C 0.77428 0.11891 0.84706 0.0
C139 C 0.86983 0.00467 1.04194 0.0
O140 O 0.87373 0.03053 0.76749 0.0
O141 O 0.95316 0.07145 0.77745 0.0
O142 O 0.93315 0.12711 0.96142 0.0
O143 O 0.95998 0.04555 0.95942 0.0
O144 O 0.90907 0.16831 0.83907 0.0
O145 O 0.84077 0.20292 0.91429 0.0
O146 O 0.86166 0.18259 0.07853 0.0
O147 O 0.78648 0.13278 0.08642 0.0
O148 O 0.80665 0.08201 0.88329 0.0
O149 O 0.77495 0.1595 0.89588 0.0
O150 O 0.84553 0.04957 1.0625 0.0
O151 O 0.88873 0.00313 0.96411 0.0
H152 H 0.83907 0.11959 0.66953 0.0
H153 H 0.82017 0.15312 0.52531 0.0
H154 H 0.96619 0.06433 0.45104 0.0
H155 H 0.98197 0.02956 0.59697 0.0
H156 H 0.89118 0.08252 0.18639 0.0
H157 H 0.91732 0.05689 0.3313 0.0
H158 H 0.82723 0.20004 0.40648 0.0
H159 H 0.79211 0.21757 0.2623 0.0
Tb160 Tb 0.13867 0.39106 0.87233 0.0
Tb161 Tb 0.17995 0.33599 1.01416 0.0
C162 C 0.12495 0.43794 0.72757 0.0
C163 C 0.12673 0.41116 0.64665 0.0
C164 C 0.16188 0.36545 0.64013 0.0
C165 C 0.16632 0.34086 0.56379 0.0
C166 C 0.1365 0.3617 0.49005 0.0
C167 C 0.09702 0.4045 0.49952 0.0
C168 C 0.09272 0.42919 0.5766 0.0
C169 C 0.05144 0.35785 0.95971 0.0
C170 C 0.13573 0.26137 0.88773 0.0
C171 C 0.20134 0.2944 0.16109 0.0
C172 C 0.184 0.31102 0.2441 0.0
C173 C 0.14654 0.35511 0.25035 0.0
C174 C 0.13065 0.37108 0.32906 0.0
C175 C 0.14947 0.34162 0.40444 0.0
C176 C 0.18474 0.29523 0.39625 0.0
C177 C 0.20315 0.28161 0.31774 0.0
C178 C 0.25445 0.33948 0.88389 0.0
C179 C 0.165 0.45936 1.04091 0.0
O180 O 0.1723 0.43768 0.77166 0.0
O181 O 0.08346 0.42414 0.77464 0.0
O182 O 0.09716 0.3783 0.98958 0.0
O183 O 0.05879 0.34983 0.88142 0.0
O184 O 0.15026 0.30366 0.83697 0.0
O185 O 0.12936 0.27135 0.96605 0.0
O186 O 0.16059 0.27833 0.11131 0.0
O187 O 0.23534 0.32749 0.12087 0.0
O188 O 0.22422 0.37744 0.90965 0.0
O189 O 0.24454 0.29735 0.93462 0.0
O190 O 0.1851 0.41292 0.07394 0.0
O191 O 0.144 0.46171 0.96075 0.0
H192 H 0.18715 0.34909 0.694 0.0
H193 H 0.19508 0.3066 0.56417 0.0
H194 H 0.06955 0.42017 0.4479 0.0
H195 H 0.06345 0.46296 0.58106 0.0
H196 H 0.12962 0.37773 0.19439 0.0
H197 H 0.10432 0.40728 0.32916 0.0
H198 H 0.19981 0.26918 0.44963 0.0
H199 H 0.23284 0.2482 0.31488 0.0
Tb200 Tb 0.90107 0.88249 0.27912 0.0
Tb201 Tb 0.85524 0.83946 0.15892 0.0
C202 C 0.92777 0.91 0.42748 0.0
C203 C 0.91639 0.88948 0.51457 0.0
C204 C 0.87574 0.84919 0.53061 0.0
C205 C 0.86199 0.83404 0.6136 0.0
C206 C 0.88807 0.8594 0.68184 0.0
C207 C 0.93136 0.89701 0.66599 0.0
C208 C 0.94563 0.91143 0.58298 0.0
C209 C 0.98374 0.88459 0.17378 0.0
C210 C 0.91125 0.75093 0.2574 0.0
C211 C 0.80757 0.8208 1.01973 0.0
C212 C 0.82829 0.82886 0.93296 0.0
C213 C 0.88255 0.81172 0.91358 0.0
C214 C 0.90225 0.82166 0.83215 0.0
C215 C 0.86803 0.84877 0.76849 0.0
C216 C 0.81453 0.86725 0.78842 0.0
C217 C 0.79526 0.85804 0.87001 0.0
C218 C 0.78723 0.84129 0.29752 0.0
C219 C 0.87569 0.95593 0.10636 0.0
O220 O 0.95813 0.87847 0.38423 0.0
O221 O 0.88505 0.93016 0.38191 0.0
O222 O 0.94945 0.84424 0.18474 0.0
O223 O 0.96484 0.92552 0.21279 0.0
O224 O 0.90564 0.78866 0.31442 0.0
O225 O 0.90243 0.76781 0.17941 0.0
O226 O 0.83192 0.78253 1.06993 0.0
O227 O 0.79931 0.86583 1.05837 0.0
O228 O 0.81358 0.88005 0.26136 0.0
O229 O 0.79935 0.79895 0.2562 0.0
O230 O 0.88212 0.90779 0.079 0.0
O231 O 0.87498 0.95743 0.19054 0.0
H232 H 0.85443 0.82985 0.479 0.0
H233 H 0.83085 0.80263 0.62463 0.0
H234 H 0.95308 0.91625 0.71755 0.0
H235 H 0.97916 0.94016 0.57181 0.0
H236 H 0.91007 0.79121 0.9616 0.0
H237 H 0.94407 0.80793 0.81875 0.0
H238 H 0.78807 0.88992 0.74123 0.0
H239 H 0.75478 0.87454 0.88429 0.0
Tb240 Tb 0.39326 0.57818 0.37195 0.0
Tb241 Tb 0.34254 0.62713 0.49156 0.0
C242 C 0.41422 0.54444 0.22909 0.0
C243 C 0.40039 0.56438 0.14077 0.0
C244 C 0.34692 0.55591 0.10347 0.0
C245 C 0.33408 0.57528 1.02057 0.0
C246 C 0.37418 0.60348 0.97282 0.0
C247 C 0.42794 0.61133 1.00936 0.0
C248 C 0.44075 0.59227 0.09275 0.0
C249 C 0.47531 0.59464 0.48189 0.0
C250 C 0.38742 0.71362 0.37504 0.0
C251 C 0.3023 0.65465 0.62659 0.0
C252 C 0.32381 0.64684 0.71499 0.0
C253 C 0.37705 0.62314 0.73529 0.0
C254 C 0.39442 0.61034 0.81922 0.0
C255 C 0.3597 0.623 0.88446 0.0
C256 C 0.30952 0.6523 0.86426 0.0
C257 C 0.29156 0.66386 0.78018 0.0
C258 C 0.27557 0.62027 0.34807 0.0
C259 C 0.38188 0.51104 0.5494 0.0
O260 O 0.37276 0.52676 0.27386 0.0
O261 O 0.44802 0.57477 0.27236 0.0
O262 O 0.43356 0.6276 0.46322 0.0
O263 O 0.46341 0.54788 0.45077 0.0
O264 O 0.40052 0.67015 0.33119 0.0
O265 O 0.36523 0.70492 0.44748 0.0
O266 O 0.33237 0.68666 0.57832 0.0
O267 O 0.28743 0.61011 0.58926 0.0
O268 O 0.30596 0.5829 0.38608 0.0
O269 O 0.27967 0.66175 0.39426 0.0
O270 O 0.37721 0.56015 0.57465 0.0
O271 O 0.38085 0.5061 0.466 0.0
H272 H 0.31486 0.53418 0.13806 0.0
H273 H 0.293 0.5672 0.9932 0.0
H274 H 0.45975 0.63282 0.9739 0.0
H275 H 0.48211 0.59982 0.11997 0.0
H276 H 0.40553 0.61447 0.68686 0.0
H277 H 0.43428 0.58937 0.83292 0.0
H278 H 0.28412 0.66573 0.91382 0.0
H279 H 0.25252 0.6859 0.76596 0.0
Tb280 Tb 0.64015 0.06637 0.76676 0.0
Tb281 Tb 0.66189 0.13282 0.63278 0.0
C282 C 0.63694 0.02607 0.91528 0.0
C283 C 0.64705 0.05139 0.99643 0.0
C284 C 0.68307 0.02561 1.05841 0.0
C285 C 0.69076 0.04773 0.13708 0.0
C286 C 0.66359 0.09722 0.15534 0.0
C287 C 0.6307 0.12483 0.08988 0.0
C288 C 0.622 0.10191 1.0121 0.0
C289 C 0.55003 0.06842 0.66574 0.0
C290 C 0.62056 0.19935 0.76553 0.0
C291 C 0.68006 0.17997 0.49174 0.0
C292 C 0.67683 0.15969 0.40579 0.0
C293 C 0.63355 0.17789 0.3484 0.0
C294 C 0.62886 0.15736 0.26822 0.0
C295 C 0.66863 0.11936 0.24172 0.0
C296 C 0.7123 0.10181 0.29997 0.0
C297 C 0.71564 0.12084 0.38103 0.0
C298 C 0.74681 0.12211 0.75783 0.0
C299 C 0.66203 0.01077 0.5927 0.0
O300 O 0.68059 0.02146 0.86939 0.0
O301 O 0.59251 0.04328 0.87044 0.0
O302 O 0.57984 0.1101 0.68271 0.0
O303 O 0.57547 0.02477 0.69875 0.0
O304 O 0.64191 0.15506 0.80978 0.0
O305 O 0.60807 0.19115 0.68703 0.0
O306 O 0.63269 0.18426 0.52883 0.0
O307 O 0.71932 0.15891 0.54338 0.0
O308 O 0.71847 0.08538 0.72382 0.0
O309 O 0.72835 0.16738 0.71892 0.0
O310 O 0.65088 0.06017 0.5606 0.0
O311 O 0.66687 0.00324 0.67701 0.0
H312 H 0.70419 -0.01261 1.04678 0.0
H313 H 0.71721 0.02465 0.18331 0.0
H314 H 0.61137 0.16439 0.09753 0.0
H315 H 0.5954 0.12388 0.96431 0.0
H316 H 0.60259 0.20739 0.36608 0.0
H317 H 0.59304 0.17099 0.22844 0.0
H318 H 0.74494 0.07384 0.2839 0.0
H319 H 0.74913 0.10517 0.42407 0.0
Tb320 Tb 0.86734 0.33687 1.00635 0.0
Tb321 Tb 0.90333 0.39948 0.87445 0.0
C322 C 0.84268 0.29781 0.14943 0.0
C323 C 0.85206 0.32012 0.23353 0.0
C324 C 0.89059 0.29398 0.29209 0.0
C325 C 0.90054 0.31452 0.37137 0.0
C326 C 0.87337 0.36282 0.39351 0.0
C327 C 0.83532 0.38947 0.33414 0.0
C328 C 0.825 0.36851 0.25507 0.0
C329 C 0.78611 0.35262 0.87794 0.0
C330 C 0.88327 0.45746 1.04614 0.0
C331 C 0.9177 0.44075 0.72772 0.0
C332 C 0.90596 0.42212 0.64176 0.0
C333 C 0.85262 0.42908 0.6013 0.0
C334 C 0.84243 0.41125 0.52009 0.0
C335 C 0.88489 0.38492 0.47806 0.0
C336 C 0.93849 0.37905 0.51828 0.0
C337 C 0.94874 0.39725 0.59901 0.0
C338 C 0.99308 0.37618 0.97829 0.0
C339 C 0.9055 0.26657 0.87453 0.0
O340 O 0.88784 0.28406 0.11209 0.0
O341 O 0.80642 0.32354 0.0971 0.0
O342 O 0.81912 0.38816 0.90821 0.0
O343 O 0.7985 0.30704 0.92145 0.0
O344 O 0.88675 0.40739 0.07787 0.0
O345 O 0.88382 0.46595 0.96227 0.0
O346 O 0.87471 0.45218 0.77185 0.0
O347 O 0.95611 0.41313 0.77336 0.0
O348 O 0.95227 0.3449 0.95962 0.0
O349 O 0.97847 0.42457 0.94605 0.0
O350 O 0.89011 0.31264 0.82926 0.0
O351 O 0.91517 0.27264 0.9547 0.0
H352 H 0.913 0.25729 0.27666 0.0
H353 H 0.92927 0.29199 0.41548 0.0
H354 H 0.81391 0.42702 0.3479 0.0
H355 H 0.796 0.3905 0.21076 0.0
H356 H 0.81872 0.44852 0.63207 0.0
H357 H 0.80088 0.41743 0.49099 0.0
H358 H 0.9729 0.36061 0.4874 0.0
H359 H 0.99018 0.39122 0.62854 0.0
Tb360 Tb 0.36781 0.12328 0.63927 0.0
Tb361 Tb 0.40613 0.06394 0.77557 0.0
C362 C 0.33669 0.16218 0.49507 0.0
C363 C 0.35117 0.14263 0.41166 0.0
C364 C 0.3918 0.16946 0.36295 0.0
C365 C 0.40625 0.14976 0.28564 0.0
C366 C 0.38051 0.10255 0.2553 0.0
C367 C 0.34064 0.07523 0.30486 0.0
C368 C 0.32657 0.09464 0.38203 0.0
C369 C 0.2953 0.11743 0.77022 0.0
C370 C 0.3813 0.00242 0.60343 0.0
C371 C 0.42689 0.02721 0.92542 0.0
C372 C 0.41528 0.04636 1.00977 0.0
C373 C 0.36052 0.04613 1.03881 0.0
C374 C 0.35009 0.06301 0.11896 0.0
C375 C 0.3934 0.08278 0.17118 0.0
C376 C 0.44833 0.08344 0.14204 0.0
C377 C 0.45922 0.06479 1.06254 0.0
C378 C 0.48795 0.0662 0.66966 0.0
C379 C 0.42078 0.19414 0.75864 0.0
O380 O 0.37703 0.18364 0.54019 0.0
O381 O 0.30635 0.12879 0.54113 0.0
O382 O 0.322 0.07885 0.73988 0.0
O383 O 0.30533 0.16065 0.72151 0.0
O384 O 0.38253 0.05194 0.5698 0.0
O385 O 0.38344 -0.00429 0.68811 0.0
O386 O 0.38387 0.01227 0.87873 0.0
O387 O 0.462 0.05669 0.88155 0.0
O388 O 0.45597 0.10671 0.68292 0.0
O389 O 0.46985 0.02315 0.71097 0.0
O390 O 0.40197 0.15437 0.81073 0.0
O391 O 0.4291 0.1789 0.68343 0.0
H392 H 0.41311 0.20523 0.38486 0.0
H393 H 0.43692 0.17209 0.24905 0.0
H394 H 0.31999 0.03863 0.28429 0.0
H395 H 0.29601 0.07183 0.41816 0.0
H396 H 0.32563 0.0317 1.00054 0.0
H397 H 0.3079 0.06042 0.14026 0.0
H398 H 0.48303 0.09742 0.18114 0.0
H399 H 0.50199 0.06496 1.04215 0.0
Tb400 Tb 0.62811 0.58146 0.35827 0.0
Tb401 Tb 0.66804 0.61802 0.48031 0.0
C402 C 0.59956 0.53421 0.22624 0.0
C403 C 0.594 0.55735 0.13779 0.0
C404 C 0.61759 0.60872 0.11593 0.0
C405 C 0.62598 0.625 1.03172 0.0
C406 C 0.60979 0.59087 0.96673 0.0
C407 C 0.57848 0.54347 0.9882 0.0
C408 C 0.57163 0.52625 0.07315 0.0
C409 C 0.62469 0.50989 0.52951 0.0
C410 C 0.74624 0.61277 0.32374 0.0
C411 C 0.69502 0.6365 0.6321 0.0
C412 C 0.67262 0.62233 0.71609 0.0
C413 C 0.61905 0.59953 0.72611 0.0
C414 C 0.5981 0.5895 0.80689 0.0
C415 C 0.63023 0.60231 0.87943 0.0
C416 C 0.68414 0.62444 0.86837 0.0
C417 C 0.70493 0.63404 0.78794 0.0
C418 C 0.65422 0.70681 0.3731 0.0
C419 C 0.53314 0.61126 0.45972 0.0
O420 O 0.65074 0.53461 0.25859 0.0
O421 O 0.56357 0.55088 0.27919 0.0
O422 O 0.65527 0.52971 0.46958 0.0
O423 O 0.65785 0.52847 0.46993 0.0
O424 O 0.69654 0.61725 0.28808 0.0
O425 O 0.74725 0.60474 0.40758 0.0
O426 O 0.66413 0.66915 0.58167 0.0
O427 O 0.71555 0.5964 0.59201 0.0
O428 O 0.61959 0.66786 0.38476 0.0
O429 O 0.69993 0.69161 0.41485 0.0
O430 O 0.57658 0.61121 0.51433 0.0
O431 O 0.54459 0.60677 0.38147 0.0
H432 H 0.63225 0.63528 0.16407 0.0
H433 H 0.64708 0.66356 1.01791 0.0
H434 H 0.56248 0.5177 0.93991 0.0
H435 H 0.5516 0.4873 0.08822 0.0
H436 H 0.59316 0.58977 0.67177 0.0
H437 H 0.55646 0.57251 0.81223 0.0
H438 H 0.71087 0.634 0.92208 0.0
H439 H 0.74611 0.65189 0.78161 0.0
Tb440 Tb 0.17826 0.84309 0.16282 0.0
Tb441 Tb 0.13343 0.8859 0.27342 0.0
C442 C 0.21049 0.80821 1.02718 0.0
C443 C 0.19685 0.82234 0.93781 0.0
C444 C 0.14814 0.85299 0.91317 0.0
C445 C 0.13404 0.86449 0.82796 0.0
C446 C 0.16838 0.84539 0.76633 0.0
C447 C 0.21655 0.81403 0.79099 0.0
C448 C 0.23083 0.80268 0.87634 0.0
C449 C 0.25328 0.84787 0.29937 0.0
C450 C 0.14965 0.96416 0.10506 0.0
C451 C 0.11282 0.91235 0.41974 0.0
C452 C 0.12859 0.89167 0.50655 0.0
C453 C 0.18158 0.90315 0.54309 0.0
C454 C 0.19452 0.88719 0.62721 0.0
C455 C 0.15489 0.85972 0.67646 0.0
C456 C 0.102 0.84794 0.64024 0.0
C457 C 0.08906 0.86353 0.55571 0.0
C458 C 0.04751 0.88464 0.1678 0.0
C459 C 0.14039 0.7511 0.27357 0.0
O460 O 0.16896 0.78741 1.06907 0.0
O461 O 0.23756 0.84524 1.06878 0.0
O462 O 0.22238 0.88619 0.26481 0.0
O463 O 0.24225 0.80585 0.25659 0.0
O464 O 0.17211 0.91916 0.0817 0.0
O465 O 0.13248 0.96263 0.18404 0.0
O466 O 0.15221 0.93448 0.3751 0.0
O467 O 0.08032 0.88151 0.37558 0.0
O468 O 0.08363 0.84443 0.18171 0.0
O469 O 0.06836 0.92789 0.20018 0.0
O470 O 0.11595 0.79426 0.30531 0.0
O471 O 0.17414 0.76195 0.21407 0.0
H472 H 0.12074 0.86762 0.95974 0.0
H473 H 0.09672 0.88882 0.81018 0.0
H474 H 0.24258 0.79778 0.74408 0.0
H475 H 0.26787 0.778 0.89429 0.0
H476 H 0.21274 0.92548 0.50746 0.0
H477 H 0.23485 0.89796 0.65456 0.0
H478 H 0.07071 0.82692 0.67739 0.0
H479 H 0.04778 0.85458 0.52924 0.0
Tb480 Tb 0.87314 0.62511 0.14273 0.0
Tb481 Tb 0.90669 0.56234 0.28037 0.0
C482 C 0.84896 0.66859 0.99862 0.0
C483 C 0.86256 0.64813 0.91548 0.0
C484 C 0.9064 0.67103 0.86868 0.0
C485 C 0.91968 0.65022 0.79144 0.0
C486 C 0.88921 0.60619 0.75949 0.0
C487 C 0.84644 0.58257 0.8073 0.0
C488 C 0.83367 0.60284 0.88436 0.0
C489 C 0.79721 0.61916 0.26922 0.0
C490 C 0.88171 0.50341 0.10598 0.0
C491 C 0.92457 0.5248 0.43043 0.0
C492 C 0.91548 0.54551 0.5146 0.0
C493 C 0.86138 0.55756 0.54006 0.0
C494 C 0.85368 0.57717 0.61943 0.0
C495 C 0.89946 0.58614 0.67495 0.0
C496 C 0.95378 0.5745 0.64961 0.0
C497 C 0.96152 0.5537 0.57051 0.0
C498 C 0.98924 0.56233 0.17591 0.0
C499 C 0.92762 0.69127 0.2669 0.0
O500 O 0.89078 0.68497 1.04617 0.0
O501 O 0.81406 0.63875 1.04232 0.0
O502 O 0.82394 0.58047 0.23922 0.0
O503 O 0.80984 0.66303 0.22341 0.0
O504 O 0.88357 0.55312 1.07287 0.0
O505 O 0.88331 0.4958 0.19062 0.0
O506 O 0.88009 0.51331 0.38391 0.0
O507 O 0.962 0.55098 0.3864 0.0
O508 O 0.95892 0.60373 0.19008 0.0
O509 O 0.96996 0.5197 0.21698 0.0
O510 O 0.90404 0.65268 0.31589 0.0
O511 O 0.93921 0.67395 0.19416 0.0
H512 H 0.93077 0.70466 0.892 0.0
H513 H 0.95291 0.66926 0.75596 0.0
H514 H 0.82239 0.54837 0.78489 0.0
H515 H 0.8008 0.58278 0.91929 0.0
H516 H 0.82485 0.55095 0.49946 0.0
H517 H 0.81181 0.58558 0.63805 0.0
H518 H 0.98997 0.5802 0.69154 0.0
H519 H 1.00343 0.54365 0.55298 0.0
Tb520 Tb 0.12916 0.07802 0.86397 0.0
Tb521 Tb 0.16799 0.11615 0.98357 0.0
C522 C 0.10641 0.02937 0.73133 0.0
C523 C 0.10337 0.05188 0.64245 0.0
C524 C 0.1206 0.106 0.62147 0.0
C525 C 0.12908 0.1236 0.53747 0.0
C526 C 0.11809 0.08826 0.47195 0.0
C527 C 0.09446 0.0367 0.49278 0.0
C528 C 0.0894 0.01781 0.57714 0.0
C529 C 0.12906 0.0084 1.03801 0.0
C530 C 0.24535 0.11088 0.82631 0.0
C531 C 0.19551 0.13795 0.13402 0.0
C532 C 0.17482 0.12396 0.21906 0.0
C533 C 0.12334 0.09741 0.23118 0.0
C534 C 0.10406 0.08673 0.31275 0.0
C535 C 0.13564 0.10286 0.38399 0.0
C536 C 0.18686 0.12989 0.37084 0.0
C537 C 0.20634 0.13964 0.28953 0.0
C538 C 0.15313 0.20408 0.87586 0.0
C539 C 0.03252 0.10653 0.96314 0.0
O540 O 0.15645 0.03093 0.76726 0.0
O541 O 0.06807 0.04547 0.78116 0.0
O542 O 0.15789 0.02744 0.97576 0.0
O543 O 0.16066 0.0261 0.97586 0.0
O544 O 0.1954 0.11586 0.79218 0.0
O545 O 0.24707 0.10265 0.91014 0.0
O546 O 0.16223 0.16806 0.08354 0.0
O547 O 0.21764 0.0984 0.09468 0.0
O548 O 0.11889 0.16482 0.88783 0.0
O549 O 0.19925 0.18935 0.91674 0.0
O550 O 0.07602 0.1091 1.01766 0.0
O551 O 0.04422 0.0988 0.88587 0.0
H552 H 0.12961 0.1342 0.67008 0.0
H553 H 0.14513 0.16459 0.52406 0.0
H554 H 0.0819 0.01019 0.44382 0.0
H555 H 0.07471 0.97654 0.59161 0.0
H556 H 0.09802 0.08489 0.17781 0.0
H557 H 0.06425 0.06618 0.31982 0.0
H558 H 0.21288 0.14229 0.42363 0.0
H559 H 0.24637 0.15953 0.2814 0.0
Tb560 Tb 0.68117 0.34634 0.65424 0.0
Tb561 Tb 0.62831 0.39089 0.76847 0.0
C562 C 0.70896 0.30997 0.51698 0.0
C563 C 0.69895 0.32682 0.42747 0.0
C564 C 0.6648 0.37263 0.40264 0.0
C565 C 0.65335 0.38681 0.31758 0.0
C566 C 0.67391 0.35406 0.25618 0.0
C567 C 0.70625 0.30713 0.28064 0.0
C568 C 0.71983 0.29431 0.3659 0.0
C569 C 0.7518 0.35479 0.79285 0.0
C570 C 0.64433 0.4672 0.59974 0.0
C571 C 0.60922 0.42064 0.9133 0.0
C572 C 0.62841 0.40122 0.99933 0.0
C573 C 0.66427 0.43436 1.04655 0.0
C574 C 0.67951 0.4187 0.1301 0.0
C575 C 0.66064 0.36878 0.16675 0.0
C576 C 0.62699 0.33428 0.11885 0.0
C577 C 0.61051 0.35058 1.03586 0.0
C578 C 0.54535 0.37245 0.66181 0.0
C579 C 0.644 0.25612 0.77379 0.0
O580 O 0.66405 0.29494 0.55625 0.0
O581 O 0.74086 0.34183 0.56151 0.0
O582 O 0.71784 0.39138 0.75885 0.0
O583 O 0.74766 0.31344 0.74597 0.0
O584 O 0.67722 0.42664 0.58295 0.0
O585 O 0.62051 0.46383 0.6741 0.0
O586 O 0.64711 0.44318 0.86603 0.0
O587 O 0.57662 0.38825 0.87175 0.0
O588 O 0.58898 0.34084 0.67889 0.0
O589 O 0.55659 0.42014 0.69058 0.0
O590 O 0.61588 0.2987 0.80165 0.0
O591 O 0.68053 0.26729 0.71748 0.0
H592 H 0.64561 0.39674 0.44837 0.0
H593 H 0.62697 0.42233 0.29974 0.0
H594 H 0.7215 0.28119 0.23351 0.0
H595 H 0.74558 0.25848 0.38393 0.0
H596 H 0.67927 0.47318 1.01958 0.0
H597 H 0.7057 0.4457 0.16633 0.0
H598 H 0.61211 0.29557 0.14649 0.0
H599 H 0.58323 0.32385 1.00094 0.0
Tb600 Tb 0.37336 0.83317 0.50757 0.0
Tb601 Tb 0.40438 0.89876 0.37196 0.0
C602 C 0.35591 0.78626 0.64929 0.0
C603 C 0.36351 0.80656 0.73475 0.0
C604 C 0.39123 0.774 0.79961 0.0
C605 C 0.39982 0.794 0.8799 0.0
C606 C 0.3807 0.84699 0.89661 0.0
C607 C 0.35299 0.8793 0.83141 0.0
C608 C 0.34514 0.85961 0.75144 0.0
C609 C 0.29054 0.84581 0.38145 0.0
C610 C 0.38309 0.95603 0.54419 0.0
C611 C 0.41654 0.93732 0.22356 0.0
C612 C 0.40716 0.91371 0.14031 0.0
C613 C 0.3552 0.92023 0.09579 0.0
C614 C 0.34698 0.89913 1.01649 0.0
C615 C 0.38972 0.86909 0.98117 0.0
C616 C 0.44134 0.86154 1.02635 0.0
C617 C 0.45006 0.8839 0.10474 0.0
C618 C 0.49502 0.87905 0.47553 0.0
C619 C 0.41465 0.76847 0.37127 0.0
O620 O 0.40153 0.77893 0.60908 0.0
O621 O 0.31646 0.80977 0.60015 0.0
O622 O 0.32201 0.88271 0.41117 0.0
O623 O 0.30503 0.80051 0.4243 0.0
O624 O 0.38694 0.906 0.57694 0.0
O625 O 0.38349 0.96449 0.46011 0.0
O626 O 0.37225 0.94674 0.26631 0.0
O627 O 0.45713 0.91519 0.27173 0.0
O628 O 0.45562 0.84649 0.45709 0.0
O629 O 0.47907 0.92673 0.44195 0.0
O630 O 0.3927 0.81188 0.32684 0.0
O631 O 0.43132 0.78035 0.44714 0.0
H632 H 0.4067 0.73337 0.78799 0.0
H633 H 0.42094 0.76784 0.929 0.0
H634 H 0.33784 0.92024 0.84167 0.0
H635 H 0.32467 0.88622 0.70272 0.0
H636 H 0.32097 0.94232 0.12164 0.0
H637 H 0.30686 0.90601 0.983 0.0
H638 H 0.47542 0.83928 1.00041 0.0
H639 H 0.49044 0.87753 0.13768 0.0
loop_
_geom_bond_atom_site_label_1
_geom_bond_atom_site_label_2
_geom_bond_distance
_geom_bond_site_symmetry_2
_ccdc_geom_bond_type
Tb0 C2 2.809 . S
Tb0 O20 2.484 . S
Tb0 O21 2.440 . S
Tb0 O22 2.658 . S
Tb0 O23 2.409 . S
Tb0 O24 2.378 . S
Tb0 O28 2.325 . S
Tb0 O31 2.341 . S
Tb1 C11 2.809 1_554 S
Tb1 O22 2.325 . S
Tb1 O25 2.341 . S
Tb1 O26 2.484 1_554 S
Tb1 O27 2.440 1_554 S
Tb1 O28 2.658 . S
Tb1 O29 2.409 . S
Tb1 O30 2.378 . S
C2 Tb0 2.809 . S
C2 C3 1.514 . S
C2 O20 1.248 . S
C2 O21 1.266 . S
C3 C2 1.514 . S
C3 C4 1.359 . S
C3 C8 1.348 . S
C4 C3 1.359 . S
C4 C5 1.380 . S
C4 H32 0.929 . S
C5 C4 1.380 . S
C5 C6 1.347 . S
C5 H33 0.931 . S
C6 C5 1.347 . S
C6 C7 1.369 . S
C7 C6 1.369 . S
C7 C8 1.408 . S
C7 H34 0.930 . S
C8 C3 1.348 . S
C8 C7 1.408 . S
C8 H35 0.930 . S
C9 O22 1.281 . S
C9 O23 1.254 . S
C10 O24 1.236 . S
C10 O25 1.266 . S
C11 Tb1 2.809 1_556 S
C11 C12 1.514 . S
C11 O26 1.248 . S
C11 O27 1.266 . S
C12 C11 1.514 . S
C12 C13 1.359 . S
C12 C17 1.348 . S
C13 C12 1.359 . S
C13 C14 1.380 . S
C13 H36 0.929 . S
C14 C13 1.380 . S
C14 C15 1.347 . S
C14 H37 0.931 . S
C15 C14 1.347 . S
C15 C16 1.369 . S
C16 C15 1.369 . S
C16 C17 1.408 . S
C16 H38 0.930 . S
C17 C12 1.348 . S
C17 C16 1.408 . S
C17 H39 0.930 . S
C18 O28 1.281 . S
C18 O29 1.254 . S
C19 O30 1.236 . S
C19 O31 1.266 . S
O20 Tb0 2.484 . S
O20 C2 1.248 . S
O21 Tb0 2.440 . S
O21 C2 1.266 . S
O22 Tb0 2.658 . S
O22 Tb1 2.325 . S
O22 C9 1.281 . S
O23 Tb0 2.409 . S
O23 C9 1.254 . S
O24 Tb0 2.378 . S
O24 C10 1.236 . S
O25 Tb1 2.341 . S
O25 C10 1.266 . S
O26 Tb1 2.484 1_556 S
O26 C11 1.248 . S
O27 Tb1 2.440 1_556 S
O27 C11 1.266 . S
O28 Tb0 2.325 . S
O28 Tb1 2.658 . S
O28 C18 1.281 . S
O29 Tb1 2.409 . S
O29 C18 1.254 . S
O30 Tb1 2.378 . S
O30 C19 1.236 . S
O31 Tb0 2.341 . S
O31 C19 1.266 . S
H32 C4 0.929 . S
H33 C5 0.931 . S
H34 C7 0.930 . S
H35 C8 0.930 . S
H36 C13 0.929 . S
H37 C14 0.931 . S
H38 C16 0.930 . S
H39 C17 0.930 . S
Tb40 C42 2.809 . S
Tb40 O60 2.484 . S
Tb40 O61 2.440 . S
Tb40 O62 2.658 . S
Tb40 O63 2.409 . S
Tb40 O64 2.378 . S
Tb40 O68 2.325 . S
Tb40 O71 2.341 1_565 S
Tb41 C51 2.809 . S
Tb41 O62 2.325 . S
Tb41 O65 2.341 . S
Tb41 O66 2.484 . S
Tb41 O67 2.440 . S
Tb41 O68 2.658 . S
Tb41 O69 2.409 . S
Tb41 O70 2.378 . S
C42 Tb40 2.809 . S
C42 C43 1.514 . S
C42 O60 1.248 . S
C42 O61 1.266 . S
C43 C42 1.514 . S
C43 C44 1.351 1_554 S
C43 C48 1.348 1_554 S
C44 C43 1.351 1_556 S
C44 C45 1.396 . S
C44 H72 0.920 1_556 S
C45 C44 1.396 . S
C45 C46 1.347 . S
C45 H73 0.931 . S
C46 C45 1.347 . S
C46 C47 1.369 . S
C47 C46 1.369 . S
C47 C48 1.408 . S
C47 H74 0.930 . S
C48 C43 1.348 1_556 S
C48 C47 1.408 . S
C48 H75 0.930 1_556 S
C49 O62 1.281 . S
C49 O63 1.254 . S
C50 O64 1.236 . S
C50 O65 1.266 . S
C51 Tb41 2.809 . S
C51 C52 1.514 . S
C51 O66 1.248 . S
C51 O67 1.266 . S
C52 C51 1.514 . S
C52 C53 1.359 . S
C52 C57 1.348 . S
C53 C52 1.359 . S
C53 C54 1.380 . S
C53 H76 0.929 . S
C54 C53 1.380 . S
C54 C55 1.347 . S
C54 H77 0.931 . S
C55 C54 1.347 . S
C55 C56 1.369 . S
C56 C55 1.369 . S
C56 C57 1.408 . S
C56 H78 0.930 . S
C57 C52 1.348 . S
C57 C56 1.408 . S
C57 H79 0.930 . S
C58 O68 1.281 . S
C58 O69 1.254 . S
C59 O70 1.236 . S
C59 O71 1.266 1_565 S
O60 Tb40 2.484 . S
O60 C42 1.248 . S
O61 Tb40 2.440 . S
O61 C42 1.266 . S
O62 Tb40 2.658 . S
O62 Tb41 2.325 . S
O62 C49 1.281 . S
O63 Tb40 2.409 . S
O63 C49 1.254 . S
O64 Tb40 2.378 . S
O64 C50 1.236 . S
O65 Tb41 2.341 . S
O65 C50 1.266 . S
O66 Tb41 2.484 . S
O66 C51 1.248 . S
O67 Tb41 2.440 . S
O67 C51 1.266 . S
O68 Tb40 2.325 . S
O68 Tb41 2.658 . S
O68 C58 1.281 . S
O69 Tb41 2.409 . S
O69 C58 1.254 . S
O70 Tb41 2.378 . S
O70 C59 1.236 . S
O71 Tb40 2.341 1_545 S
O71 C59 1.266 1_545 S
H72 C44 0.920 1_554 S
H73 C45 0.931 . S
H74 C47 0.930 . S
H75 C48 0.930 1_554 S
H76 C53 0.929 . S
H77 C54 0.931 . S
H78 C56 0.930 . S
H79 C57 0.930 . S
Tb80 C82 2.809 . S
Tb80 O100 2.484 . S
Tb80 O101 2.440 . S
Tb80 O102 2.658 . S
Tb80 O103 2.409 . S
Tb80 O104 2.378 . S
Tb80 O108 2.325 . S
Tb80 O111 2.341 . S
Tb81 C91 2.809 . S
Tb81 O102 2.325 . S
Tb81 O105 2.341 . S
Tb81 O106 2.484 . S
Tb81 O107 2.440 . S
Tb81 O108 2.658 . S
Tb81 O109 2.409 . S
Tb81 O110 2.378 . S
C82 Tb80 2.809 . S
C82 C83 1.514 . S
C82 O100 1.248 . S
C82 O101 1.266 . S
C83 C82 1.514 . S
C83 C84 1.359 1_556 S
C83 C88 1.348 1_556 S
C84 C83 1.359 1_554 S
C84 C85 1.380 . S
C84 H112 0.929 1_554 S
C85 C84 1.380 . S
C85 C86 1.347 . S
C85 H113 0.931 . S
C86 C85 1.347 . S
C86 C87 1.369 . S
C87 C86 1.369 . S
C87 C88 1.408 . S
C87 H114 0.930 . S
C88 C83 1.348 1_554 S
C88 C87 1.408 . S
C88 H115 0.930 . S
C89 O102 1.281 . S
C89 O103 1.254 . S
C90 O104 1.236 . S
C90 O105 1.266 . S
C91 Tb81 2.809 . S
C91 C92 1.514 . S
C91 O106 1.248 . S
C91 O107 1.266 . S
C92 C91 1.514 . S
C92 C93 1.359 . S
C92 C97 1.348 . S
C93 C92 1.359 . S
C93 C94 1.380 . S
C93 H116 0.929 . S
C94 C93 1.380 . S
C94 C95 1.347 . S
C94 H117 0.931 . S
C95 C94 1.347 . S
C95 C96 1.369 . S
C96 C95 1.369 . S
C96 C97 1.408 . S
C96 H118 0.930 . S
C97 C92 1.348 . S
C97 C96 1.408 . S
C97 H119 0.930 . S
C98 O108 1.281 . S
C98 O109 1.254 . S
C99 O110 1.236 . S
C99 O111 1.266 . S
O100 Tb80 2.484 . S
O100 C82 1.248 . S
O101 Tb80 2.440 . S
O101 C82 1.266 . S
O102 Tb80 2.658 . S
O102 Tb81 2.325 . S
O102 C89 1.281 . S
O103 Tb80 2.409 . S
O103 C89 1.254 . S
O104 Tb80 2.378 . S
O104 C90 1.236 . S
O105 Tb81 2.341 . S
O105 C90 1.266 . S
O106 Tb81 2.484 . S
O106 C91 1.248 . S
O107 Tb81 2.440 . S
O107 C91 1.266 . S
O108 Tb80 2.325 . S
O108 Tb81 2.658 . S
O108 C98 1.281 . S
O109 Tb81 2.409 . S
O109 C98 1.254 . S
O110 Tb81 2.378 . S
O110 C99 1.236 . S
O111 Tb80 2.341 . S
O111 C99 1.266 . S
H112 C84 0.929 1_556 S
H113 C85 0.931 . S
H114 C87 0.930 . S
H115 C88 0.930 . S
H116 C93 0.929 . S
H117 C94 0.931 . S
H118 C96 0.930 . S
H119 C97 0.930 . S
Tb120 C122 2.809 . S
Tb120 O140 2.484 . S
Tb120 O141 2.440 . S
Tb120 O142 2.658 . S
Tb120 O143 2.409 . S
Tb120 O144 2.378 . S
Tb120 O148 2.325 . S
Tb120 O151 2.341 . S
Tb121 C131 2.809 1_556 S
Tb121 O142 2.325 . S
Tb121 O145 2.341 . S
Tb121 O146 2.484 1_556 S
Tb121 O147 2.440 1_556 S
Tb121 O148 2.658 . S
Tb121 O149 2.409 . S
Tb121 O150 2.378 . S
C122 Tb120 2.809 . S
C122 C123 1.514 . S
C122 O140 1.248 . S
C122 O141 1.266 . S
C123 C122 1.514 . S
C123 C124 1.359 . S
C123 C128 1.348 . S
C124 C123 1.359 . S
C124 C125 1.380 . S
C124 H152 0.929 . S
C125 C124 1.380 . S
C125 C126 1.347 . S
C125 H153 0.931 . S
C126 C125 1.347 . S
C126 C127 1.369 . S
C127 C126 1.369 . S
C127 C128 1.408 . S
C127 H154 0.930 . S
C128 C123 1.348 . S
C128 C127 1.408 . S
C128 H155 0.930 . S
C129 O142 1.281 . S
C129 O143 1.254 . S
C130 O144 1.236 . S
C130 O145 1.266 . S
C131 Tb121 2.809 1_554 S
C131 C132 1.514 . S
C131 O146 1.248 . S
C131 O147 1.266 . S
C132 C131 1.514 . S
C132 C133 1.359 . S
C132 C137 1.348 . S
C133 C132 1.359 . S
C133 C134 1.380 . S
C133 H156 0.929 . S
C134 C133 1.380 . S
C134 C135 1.347 . S
C134 H157 0.931 . S
C135 C134 1.347 . S
C135 C136 1.369 . S
C136 C135 1.369 . S
C136 C137 1.408 . S
C136 H158 0.930 . S
C137 C132 1.348 . S
C137 C136 1.408 . S
C137 H159 0.930 . S
C138 O148 1.281 . S
C138 O149 1.254 . S
C139 O150 1.236 . S
C139 O151 1.266 . S
O140 Tb120 2.484 . S
O140 C122 1.248 . S
O141 Tb120 2.440 . S
O141 C122 1.266 . S
O142 Tb120 2.658 . S
O142 Tb121 2.325 . S
O142 C129 1.281 . S
O143 Tb120 2.409 . S
O143 C129 1.254 . S
O144 Tb120 2.378 . S
O144 C130 1.236 . S
O145 Tb121 2.341 . S
O145 C130 1.266 . S
O146 Tb121 2.484 1_554 S
O146 C131 1.248 . S
O147 Tb121 2.440 1_554 S
O147 C131 1.266 . S
O148 Tb120 2.325 . S
O148 Tb121 2.658 . S
O148 C138 1.281 . S
O149 Tb121 2.409 . S
O149 C138 1.254 . S
O150 Tb121 2.378 . S
O150 C139 1.236 . S
O151 Tb120 2.341 . S
O151 C139 1.266 . S
H152 C124 0.929 . S
H153 C125 0.931 . S
H154 C127 0.930 . S
H155 C128 0.930 . S
H156 C133 0.929 . S
H157 C134 0.931 . S
H158 C136 0.930 . S
H159 C137 0.930 . S
Tb160 C162 2.809 . S
Tb160 O180 2.484 . S
Tb160 O181 2.440 . S
Tb160 O182 2.658 . S
Tb160 O183 2.409 . S
Tb160 O184 2.378 . S
Tb160 O188 2.325 . S
Tb160 O191 2.341 . S
Tb161 C171 2.809 1_556 S
Tb161 O182 2.325 . S
Tb161 O185 2.341 . S
Tb161 O186 2.484 1_556 S
Tb161 O187 2.440 1_556 S
Tb161 O188 2.658 . S
Tb161 O189 2.409 . S
Tb161 O190 2.378 . S
C162 Tb160 2.809 . S
C162 C163 1.514 . S
C162 O180 1.248 . S
C162 O181 1.266 . S
C163 C162 1.514 . S
C163 C164 1.359 . S
C163 C168 1.348 . S
C164 C163 1.359 . S
C164 C165 1.380 . S
C164 H192 0.929 . S
C165 C164 1.380 . S
C165 C166 1.347 . S
C165 H193 0.931 . S
C166 C165 1.347 . S
C166 C167 1.369 . S
C167 C166 1.369 . S
C167 C168 1.408 . S
C167 H194 0.930 . S
C168 C163 1.348 . S
C168 C167 1.408 . S
C168 H195 0.930 . S
C169 O182 1.281 . S
C169 O183 1.254 . S
C170 O184 1.236 . S
C170 O185 1.266 . S
C171 Tb161 2.809 1_554 S
C171 C172 1.514 . S
C171 O186 1.248 . S
C171 O187 1.266 . S
C172 C171 1.514 . S
C172 C173 1.359 . S
C172 C177 1.348 . S
C173 C172 1.359 . S
C173 C174 1.380 . S
C173 H196 0.929 . S
C174 C173 1.380 . S
C174 C175 1.347 . S
C174 H197 0.931 . S
C175 C174 1.347 . S
C175 C176 1.369 . S
C176 C175 1.369 . S
C176 C177 1.408 . S
C176 H198 0.930 . S
C177 C172 1.348 . S
C177 C176 1.408 . S
C177 H199 0.930 . S
C178 O188 1.281 . S
C178 O189 1.254 . S
C179 O190 1.236 . S
C179 O191 1.266 . S
O180 Tb160 2.484 . S
O180 C162 1.248 . S
O181 Tb160 2.440 . S
O181 C162 1.266 . S
O182 Tb160 2.658 . S
O182 Tb161 2.325 . S
O182 C169 1.281 . S
O183 Tb160 2.409 . S
O183 C169 1.254 . S
O184 Tb160 2.378 . S
O184 C170 1.236 . S
O185 Tb161 2.341 . S
O185 C170 1.266 . S
O186 Tb161 2.484 1_554 S
O186 C171 1.248 . S
O187 Tb161 2.440 1_554 S
O187 C171 1.266 . S
O188 Tb160 2.325 . S
O188 Tb161 2.658 . S
O188 C178 1.281 . S
O189 Tb161 2.409 . S
O189 C178 1.254 . S
O190 Tb161 2.378 . S
O190 C179 1.236 . S
O191 Tb160 2.341 . S
O191 C179 1.266 . S
H192 C164 0.929 . S
H193 C165 0.931 . S
H194 C167 0.930 . S
H195 C168 0.930 . S
H196 C173 0.929 . S
H197 C174 0.931 . S
H198 C176 0.930 . S
H199 C177 0.930 . S
Tb200 C202 2.809 . S
Tb200 O220 2.484 . S
Tb200 O221 2.440 . S
Tb200 O222 2.658 . S
Tb200 O223 2.409 . S
Tb200 O224 2.378 . S
Tb200 O228 2.325 . S
Tb200 O231 2.341 1_565 S
Tb201 C211 2.809 1_554 S
Tb201 O222 2.325 . S
Tb201 O225 2.341 . S
Tb201 O226 2.484 1_554 S
Tb201 O227 2.440 1_554 S
Tb201 O228 2.658 . S
Tb201 O229 2.409 . S
Tb201 O230 2.378 . S
C202 Tb200 2.809 . S
C202 C203 1.514 . S
C202 O220 1.248 . S
C202 O221 1.266 . S
C203 C202 1.514 . S
C203 C204 1.359 . S
C203 C208 1.348 . S
C204 C203 1.359 . S
C204 C205 1.380 . S
C204 H232 0.929 . S
C205 C204 1.380 . S
C205 C206 1.347 . S
C205 H233 0.931 . S
C206 C205 1.347 . S
C206 C207 1.369 . S
C207 C206 1.369 . S
C207 C208 1.408 . S
C207 H234 0.930 . S
C208 C203 1.348 . S
C208 C207 1.408 . S
C208 H235 0.930 . S
C209 O222 1.281 . S
C209 O223 1.254 . S
C210 O224 1.236 . S
C210 O225 1.266 . S
C211 Tb201 2.809 1_556 S
C211 C212 1.514 . S
C211 O226 1.248 . S
C211 O227 1.266 . S
C212 C211 1.514 . S
C212 C213 1.359 . S
C212 C217 1.348 . S
C213 C212 1.359 . S
C213 C214 1.380 . S
C213 H236 0.929 . S
C214 C213 1.380 . S
C214 C215 1.347 . S
C214 H237 0.931 . S
C215 C214 1.347 . S
C215 C216 1.369 . S
C216 C215 1.369 . S
C216 C217 1.408 . S
C216 H238 0.930 . S
C217 C212 1.348 . S
C217 C216 1.408 . S
C217 H239 0.930 . S
C218 O228 1.281 . S
C218 O229 1.254 . S
C219 O230 1.236 1_545 S
C219 O231 1.266 . S
O220 Tb200 2.484 . S
O220 C202 1.248 . S
O221 Tb200 2.440 . S
O221 C202 1.266 . S
O222 Tb200 2.658 . S
O222 Tb201 2.325 . S
O222 C209 1.281 . S
O223 Tb200 2.409 . S
O223 C209 1.254 . S
O224 Tb200 2.378 . S
O224 C210 1.236 . S
O225 Tb201 2.341 . S
O225 C210 1.266 . S
O226 Tb201 2.484 1_556 S
O226 C211 1.248 . S
O227 Tb201 2.440 1_556 S
O227 C211 1.266 . S
O228 Tb200 2.325 . S
O228 Tb201 2.658 . S
O228 C218 1.281 . S
O229 Tb201 2.409 . S
O229 C218 1.254 . S
O230 Tb201 2.378 . S
O230 C219 1.236 1_565 S
O231 Tb200 2.341 1_545 S
O231 C219 1.266 . S
H232 C204 0.929 . S
H233 C205 0.931 . S
H234 C207 0.930 . S
H235 C208 0.930 . S
H236 C213 0.929 . S
H237 C214 0.931 . S
H238 C216 0.930 . S
H239 C217 0.930 . S
Tb240 C242 2.809 . S
Tb240 O260 2.484 . S
Tb240 O261 2.440 . S
Tb240 O262 2.658 . S
Tb240 O263 2.409 . S
Tb240 O264 2.378 . S
Tb240 O268 2.325 . S
Tb240 O271 2.341 . S
Tb241 C251 2.809 . S
Tb241 O262 2.325 . S
Tb241 O265 2.341 . S
Tb241 O266 2.484 . S
Tb241 O267 2.440 . S
Tb241 O268 2.658 . S
Tb241 O269 2.409 . S
Tb241 O270 2.378 . S
C242 Tb240 2.809 . S
C242 C243 1.514 . S
C242 O260 1.248 . S
C242 O261 1.266 . S
C243 C242 1.514 . S
C243 C244 1.359 1_554 S
C243 C248 1.348 1_554 S
C244 C243 1.359 1_556 S
C244 C245 1.380 . S
C244 H272 0.929 1_556 S
C245 C244 1.380 . S
C245 C246 1.347 . S
C245 H273 0.931 . S
C246 C245 1.347 . S
C246 C247 1.369 . S
C247 C246 1.369 . S
C247 C248 1.408 . S
C247 H274 0.930 . S
C248 C243 1.348 1_556 S
C248 C247 1.408 . S
C248 H275 0.930 1_556 S
C249 O262 1.281 . S
C249 O263 1.254 . S
C250 O264 1.236 . S
C250 O265 1.266 . S
C251 Tb241 2.809 . S
C251 C252 1.514 . S
C251 O266 1.248 . S
C251 O267 1.266 . S
C252 C251 1.514 . S
C252 C253 1.359 . S
C252 C257 1.348 . S
C253 C252 1.359 . S
C253 C254 1.380 . S
C253 H276 0.929 . S
C254 C253 1.380 . S
C254 C255 1.347 . S
C254 H277 0.931 . S
C255 C254 1.347 . S
C255 C256 1.369 . S
C256 C255 1.369 . S
C256 C257 1.408 . S
C256 H278 0.930 . S
C257 C252 1.348 . S
C257 C256 1.408 . S
C257 H279 0.930 . S
C258 O268 1.281 . S
C258 O269 1.254 . S
C259 O270 1.236 . S
C259 O271 1.266 . S
O260 Tb240 2.484 . S
O260 C242 1.248 . S
O261 Tb240 2.440 . S
O261 C242 1.266 . S
O262 Tb240 2.658 . S
O262 Tb241 2.325 . S
O262 C249 1.281 . S
O263 Tb240 2.409 . S
O263 C249 1.254 . S
O264 Tb240 2.378 . S
O264 C250 1.236 . S
O265 Tb241 2.341 . S
O265 C250 1.266 . S
O266 Tb241 2.484 . S
O266 C251 1.248 . S
O267 Tb241 2.440 . S
O267 C251 1.266 . S
O268 Tb240 2.325 . S
O268 Tb241 2.658 . S
O268 C258 1.281 . S
O269 Tb241 2.409 . S
O269 C258 1.254 . S
O270 Tb241 2.378 . S
O270 C259 1.236 . S
O271 Tb240 2.341 . S
O271 C259 1.266 . S
H272 C244 0.929 1_554 S
H273 C245 0.931 . S
H274 C247 0.930 . S
H275 C248 0.930 1_554 S
H276 C253 0.929 . S
H277 C254 0.931 . S
H278 C256 0.930 . S
H279 C257 0.930 . S
Tb280 C282 2.809 . S
Tb280 O300 2.484 . S
Tb280 O301 2.440 . S
Tb280 O302 2.658 . S
Tb280 O303 2.409 . S
Tb280 O304 2.378 . S
Tb280 O308 2.325 . S
Tb280 O311 2.341 1_545 S
Tb281 C291 2.809 . S
Tb281 O302 2.325 . S
Tb281 O305 2.341 . S
Tb281 O306 2.484 . S
Tb281 O307 2.440 . S
Tb281 O308 2.658 . S
Tb281 O309 2.409 . S
Tb281 O310 2.378 . S
C282 Tb280 2.809 . S
C282 C283 1.514 . S
C282 O300 1.248 . S
C282 O301 1.266 . S
C283 C282 1.514 . S
C283 C284 1.359 1_556 S
C283 C288 1.348 1_556 S
C284 C283 1.359 1_554 S
C284 C285 1.380 . S
C284 H312 0.929 . S
C285 C284 1.380 . S
C285 C286 1.347 . S
C285 H313 0.931 . S
C286 C285 1.347 . S
C286 C287 1.369 . S
C287 C286 1.369 . S
C287 C288 1.408 . S
C287 H314 0.930 . S
C288 C283 1.348 1_554 S
C288 C287 1.408 . S
C288 H315 0.937 . S
C289 O302 1.281 . S
C289 O303 1.254 . S
C290 O304 1.236 . S
C290 O305 1.266 . S
C291 Tb281 2.809 . S
C291 C292 1.514 . S
C291 O306 1.248 . S
C291 O307 1.266 . S
C292 C291 1.514 . S
C292 C293 1.359 . S
C292 C297 1.348 . S
C293 C292 1.359 . S
C293 C294 1.380 . S
C293 H316 0.929 . S
C294 C293 1.380 . S
C294 C295 1.347 . S
C294 H317 0.931 . S
C295 C294 1.347 . S
C295 C296 1.369 . S
C296 C295 1.369 . S
C296 C297 1.408 . S
C296 H318 0.930 . S
C297 C292 1.348 . S
C297 C296 1.408 . S
C297 H319 0.930 . S
C298 O308 1.281 . S
C298 O309 1.254 . S
C299 O310 1.236 1_565 S
C299 O311 1.266 . S
O300 Tb280 2.484 . S
O300 C282 1.248 . S
O301 Tb280 2.440 . S
O301 C282 1.266 . S
O302 Tb280 2.658 . S
O302 Tb281 2.325 . S
O302 C289 1.281 . S
O303 Tb280 2.409 . S
O303 C289 1.254 . S
O304 Tb280 2.378 . S
O304 C290 1.236 . S
O305 Tb281 2.341 . S
O305 C290 1.266 . S
O306 Tb281 2.484 . S
O306 C291 1.248 . S
O307 Tb281 2.440 . S
O307 C291 1.266 . S
O308 Tb280 2.325 . S
O308 Tb281 2.658 . S
O308 C298 1.281 . S
O309 Tb281 2.409 . S
O309 C298 1.254 . S
O310 Tb281 2.378 . S
O310 C299 1.236 1_545 S
O311 Tb280 2.341 1_565 S
O311 C299 1.266 . S
H312 C284 0.929 . S
H313 C285 0.931 . S
H314 C287 0.930 . S
H315 C288 0.937 . S
H316 C293 0.929 . S
H317 C294 0.931 . S
H318 C296 0.930 . S
H319 C297 0.930 . S
Tb320 C322 2.809 1_556 S
Tb320 O340 2.484 1_556 S
Tb320 O341 2.440 1_556 S
Tb320 O342 2.658 . S
Tb320 O343 2.409 . S
Tb320 O344 2.378 . S
Tb320 O348 2.325 . S
Tb320 O351 2.341 . S
Tb321 C331 2.809 . S
Tb321 O342 2.325 . S
Tb321 O345 2.341 . S
Tb321 O346 2.484 . S
Tb321 O347 2.440 . S
Tb321 O348 2.658 . S
Tb321 O349 2.409 . S
Tb321 O350 2.378 . S
C322 Tb320 2.809 1_554 S
C322 C323 1.514 . S
C322 O340 1.248 . S
C322 O341 1.266 . S
C323 C322 1.514 . S
C323 C324 1.359 . S
C323 C328 1.348 . S
C324 C323 1.359 . S
C324 C325 1.380 . S
C324 H352 0.929 . S
C325 C324 1.380 . S
C325 C326 1.347 . S
C325 H353 0.931 . S
C326 C325 1.347 . S
C326 C327 1.369 . S
C327 C326 1.369 . S
C327 C328 1.408 . S
C327 H354 0.930 . S
C328 C323 1.348 . S
C328 C327 1.408 . S
C328 H355 0.930 . S
C329 O342 1.281 . S
C329 O343 1.254 . S
C330 O344 1.236 . S
C330 O345 1.266 . S
C331 Tb321 2.809 . S
C331 C332 1.514 . S
C331 O346 1.248 . S
C331 O347 1.266 . S
C332 C331 1.514 . S
C332 C333 1.359 . S
C332 C337 1.348 . S
C333 C332 1.359 . S
C333 C334 1.380 . S
C333 H356 0.929 . S
C334 C333 1.380 . S
C334 C335 1.347 . S
C334 H357 0.931 . S
C335 C334 1.347 . S
C335 C336 1.369 . S
C336 C335 1.369 . S
C336 C337 1.408 . S
C336 H358 0.930 . S
C337 C332 1.348 . S
C337 C336 1.408 . S
C337 H359 0.930 . S
C338 O348 1.281 . S
C338 O349 1.254 . S
C339 O350 1.236 . S
C339 O351 1.266 . S
O340 Tb320 2.484 1_554 S
O340 C322 1.248 . S
O341 Tb320 2.440 1_554 S
O341 C322 1.266 . S
O342 Tb320 2.658 . S
O342 Tb321 2.325 . S
O342 C329 1.281 . S
O343 Tb320 2.409 . S
O343 C329 1.254 . S
O344 Tb320 2.378 . S
O344 C330 1.236 . S
O345 Tb321 2.341 . S
O345 C330 1.266 . S
O346 Tb321 2.484 . S
O346 C331 1.248 . S
O347 Tb321 2.440 . S
O347 C331 1.266 . S
O348 Tb320 2.325 . S
O348 Tb321 2.658 . S
O348 C338 1.281 . S
O349 Tb321 2.409 . S
O349 C338 1.254 . S
O350 Tb321 2.378 . S
O350 C339 1.236 . S
O351 Tb320 2.341 . S
O351 C339 1.266 . S
H352 C324 0.929 . S
H353 C325 0.931 . S
H354 C327 0.930 . S
H355 C328 0.930 . S
H356 C333 0.929 . S
H357 C334 0.931 . S
H358 C336 0.930 . S
H359 C337 0.930 . S
Tb360 C362 2.809 . S
Tb360 O380 2.484 . S
Tb360 O381 2.440 . S
Tb360 O382 2.658 . S
Tb360 O383 2.409 . S
Tb360 O384 2.378 . S
Tb360 O388 2.325 . S
Tb360 O391 2.341 . S
Tb361 C371 2.809 . S
Tb361 O382 2.325 . S
Tb361 O385 2.341 1_545 S
Tb361 O386 2.484 . S
Tb361 O387 2.440 . S
Tb361 O388 2.658 . S
Tb361 O389 2.409 . S
Tb361 O390 2.378 . S
C362 Tb360 2.809 . S
C362 C363 1.514 . S
C362 O380 1.248 . S
C362 O381 1.266 . S
C363 C362 1.514 . S
C363 C364 1.359 . S
C363 C368 1.348 . S
C364 C363 1.359 . S
C364 C365 1.380 . S
C364 H392 0.929 . S
C365 C364 1.380 . S
C365 C366 1.347 . S
C365 H393 0.931 . S
C366 C365 1.347 . S
C366 C367 1.369 . S
C367 C366 1.369 . S
C367 C368 1.408 . S
C367 H394 0.930 . S
C368 C363 1.348 . S
C368 C367 1.408 . S
C368 H395 0.930 . S
C369 O382 1.281 . S
C369 O383 1.254 . S
C370 O384 1.224 1_565 S
C370 O385 1.267 . S
C371 Tb361 2.809 . S
C371 C372 1.514 . S
C371 O386 1.248 . S
C371 O387 1.266 . S
C372 C371 1.514 . S
C372 C373 1.359 1_556 S
C372 C377 1.348 1_556 S
C373 C372 1.359 1_554 S
C373 C374 1.380 . S
C373 H396 0.929 1_554 S
C374 C373 1.380 . S
C374 C375 1.347 . S
C374 H397 0.931 . S
C375 C374 1.347 . S
C375 C376 1.369 . S
C376 C375 1.369 . S
C376 C377 1.408 . S
C376 H398 0.930 . S
C377 C372 1.348 1_554 S
C377 C376 1.408 . S
C377 H399 0.930 1_554 S
C378 O388 1.281 . S
C378 O389 1.254 . S
C379 O390 1.236 . S
C379 O391 1.266 . S
O380 Tb360 2.484 . S
O380 C362 1.248 . S
O381 Tb360 2.440 . S
O381 C362 1.266 . S
O382 Tb360 2.658 . S
O382 Tb361 2.325 . S
O382 C369 1.281 . S
O383 Tb360 2.409 . S
O383 C369 1.254 . S
O384 Tb360 2.378 . S
O384 C370 1.224 1_545 S
O385 Tb361 2.341 1_565 S
O385 C370 1.267 . S
O386 Tb361 2.484 . S
O386 C371 1.248 . S
O387 Tb361 2.440 . S
O387 C371 1.266 . S
O388 Tb360 2.325 . S
O388 Tb361 2.658 . S
O388 C378 1.281 . S
O389 Tb361 2.409 . S
O389 C378 1.254 . S
O390 Tb361 2.378 . S
O390 C379 1.236 . S
O391 Tb360 2.341 . S
O391 C379 1.266 . S
H392 C364 0.929 . S
H393 C365 0.931 . S
H394 C367 0.930 . S
H395 C368 0.930 . S
H396 C373 0.929 1_556 S
H397 C374 0.931 . S
H398 C376 0.930 . S
H399 C377 0.930 1_556 S
Tb400 C402 2.809 . S
Tb400 O420 2.484 . S
Tb400 O421 2.440 . S
Tb400 O422 2.658 . S
Tb400 O423 2.409 . S
Tb400 O424 2.378 . S
Tb400 O428 2.325 . S
Tb400 O431 2.341 . S
Tb401 C411 2.809 . S
Tb401 O422 2.325 . S
Tb401 O425 2.341 . S
Tb401 O426 2.484 . S
Tb401 O427 2.440 . S
Tb401 O428 2.658 . S
Tb401 O429 2.409 . S
Tb401 O430 2.378 . S
C402 Tb400 2.809 . S
C402 C403 1.514 . S
C402 O420 1.248 . S
C402 O421 1.266 . S
C403 C402 1.514 . S
C403 C404 1.359 1_554 S
C403 C408 1.348 1_554 S
C404 C403 1.359 1_556 S
C404 C405 1.380 . S
C404 H432 0.929 1_556 S
C405 C404 1.380 . S
C405 C406 1.347 . S
C405 H433 0.931 . S
C406 C405 1.347 . S
C406 C407 1.369 . S
C407 C406 1.369 . S
C407 C408 1.408 . S
C407 H434 0.930 . S
C408 C403 1.348 1_556 S
C408 C407 1.408 . S
C408 H435 0.930 1_556 S
C409 O422 1.281 . S
C409 O423 1.254 . S
C410 O424 1.236 . S
C410 O425 1.266 . S
C411 Tb401 2.809 . S
C411 C412 1.514 . S
C411 O426 1.248 . S
C411 O427 1.266 . S
C412 C411 1.514 . S
C412 C413 1.359 . S
C412 C417 1.348 . S
C413 C412 1.359 . S
C413 C414 1.380 . S
C413 H436 0.929 . S
C414 C413 1.380 . S
C414 C415 1.347 . S
C414 H437 0.931 . S
C415 C414 1.347 . S
C415 C416 1.369 . S
C416 C415 1.369 . S
C416 C417 1.408 . S
C416 H438 0.930 . S
C417 C412 1.348 . S
C417 C416 1.408 . S
C417 H439 0.930 . S
C418 O428 1.281 . S
C418 O429 1.254 . S
C419 O430 1.236 . S
C419 O431 1.266 . S
O420 Tb400 2.484 . S
O420 C402 1.248 . S
O421 Tb400 2.440 . S
O421 C402 1.266 . S
O422 Tb400 2.658 . S
O422 Tb401 2.325 . S
O422 C409 1.281 . S
O423 Tb400 2.409 . S
O423 C409 1.254 . S
O424 Tb400 2.378 . S
O424 C410 1.236 . S
O425 Tb401 2.341 . S
O425 C410 1.266 . S
O426 Tb401 2.484 . S
O426 C411 1.248 . S
O427 Tb401 2.440 . S
O427 C411 1.266 . S
O428 Tb400 2.325 . S
O428 Tb401 2.658 . S
O428 C418 1.281 . S
O429 Tb401 2.409 . S
O429 C418 1.254 . S
O430 Tb401 2.378 . S
O430 C419 1.236 . S
O431 Tb400 2.341 . S
O431 C419 1.266 . S
H432 C404 0.929 1_554 S
H433 C405 0.931 . S
H434 C407 0.930 . S
H435 C408 0.930 1_554 S
H436 C413 0.929 . S
H437 C414 0.931 . S
H438 C416 0.930 . S
H439 C417 0.930 . S
Tb440 C442 2.809 1_554 S
Tb440 O460 2.484 1_554 S
Tb440 O461 2.440 1_554 S
Tb440 O462 2.658 . S
Tb440 O463 2.409 . S
Tb440 O464 2.378 . S
Tb440 O468 2.325 . S
Tb440 O471 2.341 . S
Tb441 C451 2.809 . S
Tb441 O462 2.325 . S
Tb441 O465 2.341 1_565 S
Tb441 O466 2.484 . S
Tb441 O467 2.440 . S
Tb441 O468 2.658 . S
Tb441 O469 2.409 . S
Tb441 O470 2.378 . S
C442 Tb440 2.809 1_556 S
C442 C443 1.514 . S
C442 O460 1.248 . S
C442 O461 1.266 . S
C443 C442 1.514 . S
C443 C444 1.359 . S
C443 C448 1.348 . S
C444 C443 1.359 . S
C444 C445 1.380 . S
C444 H472 0.929 . S
C445 C444 1.380 . S
C445 C446 1.347 . S
C445 H473 0.931 . S
C446 C445 1.347 . S
C446 C447 1.369 . S
C447 C446 1.369 . S
C447 C448 1.408 . S
C447 H474 0.930 . S
C448 C443 1.348 . S
C448 C447 1.408 . S
C448 H475 0.930 . S
C449 O462 1.281 . S
C449 O463 1.254 . S
C450 O464 1.236 . S
C450 O465 1.266 1_565 S
C451 Tb441 2.809 . S
C451 C452 1.514 . S
C451 O466 1.248 . S
C451 O467 1.266 . S
C452 C451 1.514 . S
C452 C453 1.359 . S
C452 C457 1.348 . S
C453 C452 1.359 . S
C453 C454 1.380 . S
C453 H476 0.929 . S
C454 C453 1.380 . S
C454 C455 1.347 . S
C454 H477 0.931 . S
C455 C454 1.347 . S
C455 C456 1.369 . S
C456 C455 1.369 . S
C456 C457 1.408 . S
C456 H478 0.930 . S
C457 C452 1.348 . S
C457 C456 1.408 . S
C457 H479 0.930 . S
C458 O468 1.281 . S
C458 O469 1.254 . S
C459 O470 1.236 . S
C459 O471 1.266 . S
O460 Tb440 2.484 1_556 S
O460 C442 1.248 . S
O461 Tb440 2.440 1_556 S
O461 C442 1.266 . S
O462 Tb440 2.658 . S
O462 Tb441 2.325 . S
O462 C449 1.281 . S
O463 Tb440 2.409 . S
O463 C449 1.254 . S
O464 Tb440 2.378 . S
O464 C450 1.236 . S
O465 Tb441 2.341 1_545 S
O465 C450 1.266 1_545 S
O466 Tb441 2.484 . S
O466 C451 1.248 . S
O467 Tb441 2.440 . S
O467 C451 1.266 . S
O468 Tb440 2.325 . S
O468 Tb441 2.658 . S
O468 C458 1.281 . S
O469 Tb441 2.409 . S
O469 C458 1.254 . S
O470 Tb441 2.378 . S
O470 C459 1.236 . S
O471 Tb440 2.341 . S
O471 C459 1.266 . S
H472 C444 0.929 . S
H473 C445 0.931 . S
H474 C447 0.930 . S
H475 C448 0.930 . S
H476 C453 0.929 . S
H477 C454 0.931 . S
H478 C456 0.930 . S
H479 C457 0.930 . S
Tb480 C482 2.809 1_554 S
Tb480 O500 2.484 1_554 S
Tb480 O501 2.440 1_554 S
Tb480 O502 2.658 . S
Tb480 O503 2.409 . S
Tb480 O504 2.378 . S
Tb480 O508 2.325 . S
Tb480 O511 2.341 . S
Tb481 C491 2.809 . S
Tb481 O502 2.325 . S
Tb481 O505 2.341 . S
Tb481 O506 2.484 . S
Tb481 O507 2.440 . S
Tb481 O508 2.658 . S
Tb481 O509 2.409 . S
Tb481 O510 2.378 . S
C482 Tb480 2.809 1_556 S
C482 C483 1.514 . S
C482 O500 1.248 . S
C482 O501 1.266 . S
C483 C482 1.514 . S
C483 C484 1.359 . S
C483 C488 1.348 . S
C484 C483 1.359 . S
C484 C485 1.380 . S
C484 H512 0.929 . S
C485 C484 1.380 . S
C485 C486 1.347 . S
C485 H513 0.931 . S
C486 C485 1.347 . S
C486 C487 1.369 . S
C487 C486 1.369 . S
C487 C488 1.408 . S
C487 H514 0.930 . S
C488 C483 1.348 . S
C488 C487 1.408 . S
C488 H515 0.930 . S
C489 O502 1.281 . S
C489 O503 1.254 . S
C490 O504 1.236 . S
C490 O505 1.266 . S
C491 Tb481 2.809 . S
C491 C492 1.514 . S
C491 O506 1.248 . S
C491 O507 1.266 . S
C492 C491 1.514 . S
C492 C493 1.359 . S
C492 C497 1.348 . S
C493 C492 1.359 . S
C493 C494 1.380 . S
C493 H516 0.929 . S
C494 C493 1.380 . S
C494 C495 1.347 . S
C494 H517 0.931 . S
C495 C494 1.347 . S
C495 C496 1.369 . S
C496 C495 1.369 . S
C496 C497 1.408 . S
C496 H518 0.930 . S
C497 C492 1.348 . S
C497 C496 1.408 . S
C497 H519 0.930 . S
C498 O508 1.281 . S
C498 O509 1.254 . S
C499 O510 1.236 . S
C499 O511 1.266 . S
O500 Tb480 2.484 1_556 S
O500 C482 1.248 . S
O501 Tb480 2.440 1_556 S
O501 C482 1.266 . S
O502 Tb480 2.658 . S
O502 Tb481 2.325 . S
O502 C489 1.281 . S
O503 Tb480 2.409 . S
O503 C489 1.254 . S
O504 Tb480 2.378 . S
O504 C490 1.236 . S
O505 Tb481 2.341 . S
O505 C490 1.266 . S
O506 Tb481 2.484 . S
O506 C491 1.248 . S
O507 Tb481 2.440 . S
O507 C491 1.266 . S
O508 Tb480 2.325 . S
O508 Tb481 2.658 . S
O508 C498 1.281 . S
O509 Tb481 2.409 . S
O509 C498 1.254 . S
O510 Tb481 2.378 . S
O510 C499 1.236 . S
O511 Tb480 2.341 . S
O511 C499 1.266 . S
H512 C484 0.929 . S
H513 C485 0.931 . S
H514 C487 0.930 . S
H515 C488 0.930 . S
H516 C493 0.929 . S
H517 C494 0.931 . S
H518 C496 0.930 . S
H519 C497 0.930 . S
Tb520 C522 2.809 . S
Tb520 O540 2.484 . S
Tb520 O541 2.440 . S
Tb520 O542 2.658 . S
Tb520 O543 2.409 1_545 S
Tb520 O544 2.378 . S
Tb520 O548 2.325 . S
Tb520 O551 2.341 . S
Tb521 C531 2.809 1_556 S
Tb521 O542 2.325 . S
Tb521 O545 2.341 . S
Tb521 O546 2.484 1_556 S
Tb521 O547 2.440 1_556 S
Tb521 O548 2.658 . S
Tb521 O549 2.409 . S
Tb521 O550 2.378 . S
C522 Tb520 2.809 . S
C522 C523 1.514 . S
C522 O540 1.248 . S
C522 O541 1.266 . S
C523 C522 1.514 . S
C523 C524 1.359 . S
C523 C528 1.348 . S
C524 C523 1.359 . S
C524 C525 1.380 . S
C524 H552 0.929 . S
C525 C524 1.380 . S
C525 C526 1.347 . S
C525 H553 0.931 . S
C526 C525 1.347 . S
C526 C527 1.369 . S
C527 C526 1.369 . S
C527 C528 1.408 . S
C527 H554 0.930 1_545 S
C528 C523 1.348 . S
C528 C527 1.408 . S
C528 H555 0.930 1_545 S
C529 O542 1.281 1_565 S
C529 O543 1.254 . S
C530 O544 1.236 . S
C530 O545 1.266 . S
C531 Tb521 2.809 1_554 S
C531 C532 1.514 . S
C531 O546 1.248 . S
C531 O547 1.266 . S
C532 C531 1.514 . S
C532 C533 1.359 . S
C532 C537 1.348 . S
C533 C532 1.359 . S
C533 C534 1.380 . S
C533 H556 0.929 . S
C534 C533 1.380 . S
C534 C535 1.347 . S
C534 H557 0.931 . S
C535 C534 1.347 . S
C535 C536 1.369 . S
C536 C535 1.369 . S
C536 C537 1.408 . S
C536 H558 0.930 . S
C537 C532 1.348 . S
C537 C536 1.408 . S
C537 H559 0.930 . S
C538 O548 1.281 . S
C538 O549 1.254 . S
C539 O550 1.236 . S
C539 O551 1.266 . S
O540 Tb520 2.484 . S
O540 C522 1.248 . S
O541 Tb520 2.440 . S
O541 C522 1.266 . S
O542 Tb520 2.658 . S
O542 Tb521 2.325 . S
O542 C529 1.281 1_545 S
O543 Tb520 2.409 1_565 S
O543 C529 1.254 . S
O544 Tb520 2.378 . S
O544 C530 1.236 . S
O545 Tb521 2.341 . S
O545 C530 1.266 . S
O546 Tb521 2.484 1_554 S
O546 C531 1.248 . S
O547 Tb521 2.440 1_554 S
O547 C531 1.266 . S
O548 Tb520 2.325 . S
O548 Tb521 2.658 . S
O548 C538 1.281 . S
O549 Tb521 2.409 . S
O549 C538 1.254 . S
O550 Tb521 2.378 . S
O550 C539 1.236 . S
O551 Tb520 2.341 . S
O551 C539 1.266 . S
H552 C524 0.929 . S
H553 C525 0.931 . S
H554 C527 0.930 1_565 S
H555 C528 0.930 1_565 S
H556 C533 0.929 . S
H557 C534 0.931 . S
H558 C536 0.930 . S
H559 C537 0.930 . S
Tb560 C562 2.809 . S
Tb560 O580 2.484 . S
Tb560 O581 2.440 . S
Tb560 O582 2.658 . S
Tb560 O583 2.409 . S
Tb560 O584 2.378 . S
Tb560 O588 2.325 . S
Tb560 O591 2.341 . S
Tb561 C571 2.809 . S
Tb561 O582 2.325 . S
Tb561 O585 2.341 . S
Tb561 O586 2.484 . S
Tb561 O587 2.440 . S
Tb561 O588 2.658 . S
Tb561 O589 2.409 . S
Tb561 O590 2.378 . S
C562 Tb560 2.809 . S
C562 C563 1.514 . S
C562 O580 1.248 . S
C562 O581 1.266 . S
C563 C562 1.514 . S
C563 C564 1.359 . S
C563 C568 1.348 . S
C564 C563 1.359 . S
C564 C565 1.380 . S
C564 H592 0.929 . S
C565 C564 1.380 . S
C565 C566 1.347 . S
C565 H593 0.931 . S
C566 C565 1.347 . S
C566 C567 1.369 . S
C567 C566 1.369 . S
C567 C568 1.408 . S
C567 H594 0.930 . S
C568 C563 1.348 . S
C568 C567 1.408 . S
C568 H595 0.930 . S
C569 O582 1.281 . S
C569 O583 1.254 . S
C570 O584 1.236 . S
C570 O585 1.266 . S
C571 Tb561 2.809 . S
C571 C572 1.514 . S
C571 O586 1.248 . S
C571 O587 1.266 . S
C572 C571 1.514 . S
C572 C573 1.359 1_556 S
C572 C577 1.348 1_556 S
C573 C572 1.359 1_554 S
C573 C574 1.380 . S
C573 H596 0.929 1_554 S
C574 C573 1.380 . S
C574 C575 1.347 . S
C574 H597 0.931 . S
C575 C574 1.347 . S
C575 C576 1.369 . S
C576 C575 1.369 . S
C576 C577 1.408 . S
C576 H598 0.930 . S
C577 C572 1.348 1_554 S
C577 C576 1.408 . S
C577 H599 0.930 1_554 S
C578 O588 1.281 . S
C578 O589 1.254 . S
C579 O590 1.236 . S
C579 O591 1.266 . S
O580 Tb560 2.484 . S
O580 C562 1.248 . S
O581 Tb560 2.440 . S
O581 C562 1.266 . S
O582 Tb560 2.658 . S
O582 Tb561 2.325 . S
O582 C569 1.281 . S
O583 Tb560 2.409 . S
O583 C569 1.254 . S
O584 Tb560 2.378 . S
O584 C570 1.236 . S
O585 Tb561 2.341 . S
O585 C570 1.266 . S
O586 Tb561 2.484 . S
O586 C571 1.248 . S
O587 Tb561 2.440 . S
O587 C571 1.266 . S
O588 Tb560 2.325 . S
O588 Tb561 2.658 . S
O588 C578 1.281 . S
O589 Tb561 2.409 . S
O589 C578 1.254 . S
O590 Tb561 2.378 . S
O590 C579 1.236 . S
O591 Tb560 2.341 . S
O591 C579 1.266 . S
H592 C564 0.929 . S
H593 C565 0.931 . S
H594 C567 0.930 . S
H595 C568 0.930 . S
H596 C573 0.929 1_556 S
H597 C574 0.931 . S
H598 C576 0.930 . S
H599 C577 0.930 1_556 S
Tb600 C602 2.809 . S
Tb600 O620 2.484 . S
Tb600 O621 2.440 . S
Tb600 O622 2.658 . S
Tb600 O623 2.409 . S
Tb600 O624 2.378 . S
Tb600 O628 2.325 . S
Tb600 O631 2.341 . S
Tb601 C611 2.809 . S
Tb601 O622 2.325 . S
Tb601 O625 2.341 1_565 S
Tb601 O626 2.484 . S
Tb601 O627 2.440 . S
Tb601 O628 2.658 . S
Tb601 O629 2.409 . S
Tb601 O630 2.378 . S
C602 Tb600 2.809 . S
C602 C603 1.514 . S
C602 O620 1.248 . S
C602 O621 1.266 . S
C603 C602 1.514 . S
C603 C604 1.359 . S
C603 C608 1.348 . S
C604 C603 1.359 . S
C604 C605 1.380 . S
C604 H632 0.929 . S
C605 C604 1.380 . S
C605 C606 1.347 . S
C605 H633 0.931 . S
C606 C605 1.347 . S
C606 C607 1.369 . S
C607 C606 1.369 . S
C607 C608 1.408 . S
C607 H634 0.930 . S
C608 C603 1.348 . S
C608 C607 1.408 . S
C608 H635 0.930 . S
C609 O622 1.281 . S
C609 O623 1.254 . S
C610 O624 1.236 1_545 S
C610 O625 1.266 . S
C611 Tb601 2.809 . S
C611 C612 1.514 . S
C611 O626 1.248 . S
C611 O627 1.266 . S
C612 C611 1.514 . S
C612 C613 1.359 1_554 S
C612 C617 1.348 1_554 S
C613 C612 1.359 1_556 S
C613 C614 1.380 . S
C613 H636 0.929 . S
C614 C613 1.380 . S
C614 C615 1.347 . S
C614 H637 0.931 . S
C615 C614 1.347 . S
C615 C616 1.369 . S
C616 C615 1.369 . S
C616 C617 1.408 . S
C616 H638 0.930 . S
C617 C612 1.348 1_556 S
C617 C616 1.408 . S
C617 H639 0.930 . S
C618 O628 1.281 . S
C618 O629 1.254 . S
C619 O630 1.236 . S
C619 O631 1.266 . S
O620 Tb600 2.484 . S
O620 C602 1.248 . S
O621 Tb600 2.440 . S
O621 C602 1.266 . S
O622 Tb600 2.658 . S
O622 Tb601 2.325 . S
O622 C609 1.281 . S
O623 Tb600 2.409 . S
O623 C609 1.254 . S
O624 Tb600 2.378 . S
O624 C610 1.236 1_565 S
O625 Tb601 2.341 1_545 S
O625 C610 1.266 . S
O626 Tb601 2.484 . S
O626 C611 1.248 . S
O627 Tb601 2.440 . S
O627 C611 1.266 . S
O628 Tb600 2.325 . S
O628 Tb601 2.658 . S
O628 C618 1.281 . S
O629 Tb601 2.409 . S
O629 C618 1.254 . S
O630 Tb601 2.378 . S
O630 C619 1.236 . S
O631 Tb600 2.341 . S
O631 C619 1.266 . S
H632 C604 0.929 . S
H633 C605 0.931 . S
H634 C607 0.930 . S
H635 C608 0.930 . S
H636 C613 0.929 . S
H637 C614 0.931 . S
H638 C616 0.930 . S
H639 C617 0.930 . S
C15 C6 2.042 . S
C46 C55 1.911 . S
C95 C86 3.205 . S
C126 C135 2.214 . S
C175 C166 1.911 . S
C215 C206 3.205 . S
C255 C246 2.214 . S
C286 C295 2.042 . S
C326 C335 1.986 . S
C366 C375 1.898 . S
C406 C415 3.498 . S
C455 C446 2.216 . S
C486 C495 1.898 . S
C526 C535 3.498 . S
C566 C575 2.216 . S
C615 C606 1.986 . S
C10 C459 2.463 . S
C49 C618 1.525 . S
C90 C379 2.487 . S
C129 C539 1.658 1_655 S
C170 C538 2.202 . S
C458 C209 1.492 1_455 S
C250 C619 2.387 . S
C289 C378 1.431 . S
C130 C339 2.387 . S
C50 C418 2.202 . S
C499 C210 2.487 . S
C290 C579 2.463 . S
C338 C169 1.525 1_655 S
C249 C419 1.658 . S
C89 C578 1.492 . S
C9 C498 1.431 1_455 S
C19 C179 3.485 1_554 S
C58 C218 3.311 . S
C99 C259 2.970 . S
C138 C298 2.830 . S
C490 C330 3.496 1_554 S
C530 C369 2.531 . S
C409 C570 3.852 . S
C609 C449 2.865 . S
C59 C299 3.485 . S
C178 C98 3.311 . S
C219 C139 2.970 1_554 S
C18 C258 2.830 . S
C610 C370 3.496 1_545 S
C489 C410 2.531 . S
C529 C450 3.852 1_556 S
C569 C329 2.865 . S
