# Generated by pormake.
# Topology pcb, (4)-cn, num edge types: 1
# Building blocks:
#     Node 0, Type 0, BuildingBlock: NAHDIM_clean_sbu_0, # of connection points: 4
#     Node 1, Type 0, BuildingBlock: NAHDIM_clean_sbu_0, # of connection points: 4
#     Node 2, Type 0, BuildingBlock: NAHDIM_clean_sbu_0, # of connection points: 4
#     Node 3, Type 0, BuildingBlock: NAHDIM_clean_sbu_0, # of connection points: 4
#     Node 4, Type 0, BuildingBlock: NAHDIM_clean_sbu_0, # of connection points: 4
#     Node 5, Type 0, BuildingBlock: NAHDIM_clean_sbu_0, # of connection points: 4
#     Node 6, Type 0, BuildingBlock: NAHDIM_clean_sbu_0, # of connection points: 4
#     Node 7, Type 0, BuildingBlock: NAHDIM_clean_sbu_0, # of connection points: 4
#     Node 8, Type 0, BuildingBlock: NAHDIM_clean_sbu_0, # of connection points: 4
#     Node 9, Type 0, BuildingBlock: NAHDIM_clean_sbu_0, # of connection points: 4
#     Node 10, Type 0, BuildingBlock: NAHDIM_clean_sbu_0, # of connection points: 4
#     Node 11, Type 0, BuildingBlock: NAHDIM_clean_sbu_0, # of connection points: 4
#     Node 12, Type 0, BuildingBlock: NAHDIM_clean_sbu_0, # of connection points: 4
#     Node 13, Type 0, BuildingBlock: NAHDIM_clean_sbu_0, # of connection points: 4
#     Node 14, Type 0, BuildingBlock: NAHDIM_clean_sbu_0, # of connection points: 4
#     Node 15, Type 0, BuildingBlock: NAHDIM_clean_sbu_0, # of connection points: 4
#     Edge 16, Type (0, 0), BuildingBlock: CIFDUS_clean_linker_0, # of connection points: 2
#     Edge 17, Type (0, 0), BuildingBlock: CIFDUS_clean_linker_0, # of connection points: 2
#     Edge 18, Type (0, 0), BuildingBlock: CIFDUS_clean_linker_0, # of connection points: 2
#     Edge 19, Type (0, 0), BuildingBlock: CIFDUS_clean_linker_0, # of connection points: 2
#     Edge 20, Type (0, 0), BuildingBlock: CIFDUS_clean_linker_0, # of connection points: 2
#     Edge 21, Type (0, 0), BuildingBlock: CIFDUS_clean_linker_0, # of connection points: 2
#     Edge 22, Type (0, 0), BuildingBlock: CIFDUS_clean_linker_0, # of connection points: 2
#     Edge 23, Type (0, 0), BuildingBlock: CIFDUS_clean_linker_0, # of connection points: 2
#     Edge 24, Type (0, 0), BuildingBlock: CIFDUS_clean_linker_0, # of connection points: 2
#     Edge 25, Type (0, 0), BuildingBlock: CIFDUS_clean_linker_0, # of connection points: 2
#     Edge 26, Type (0, 0), BuildingBlock: CIFDUS_clean_linker_0, # of connection points: 2
#     Edge 27, Type (0, 0), BuildingBlock: CIFDUS_clean_linker_0, # of connection points: 2
#     Edge 28, Type (0, 0), BuildingBlock: CIFDUS_clean_linker_0, # of connection points: 2
#     Edge 29, Type (0, 0), BuildingBlock: CIFDUS_clean_linker_0, # of connection points: 2
#     Edge 30, Type (0, 0), BuildingBlock: CIFDUS_clean_linker_0, # of connection points: 2
#     Edge 31, Type (0, 0), BuildingBlock: CIFDUS_clean_linker_0, # of connection points: 2
#     Edge 32, Type (0, 0), BuildingBlock: CIFDUS_clean_linker_0, # of connection points: 2
#     Edge 33, Type (0, 0), BuildingBlock: CIFDUS_clean_linker_0, # of connection points: 2
#     Edge 34, Type (0, 0), BuildingBlock: CIFDUS_clean_linker_0, # of connection points: 2
#     Edge 35, Type (0, 0), BuildingBlock: CIFDUS_clean_linker_0, # of connection points: 2
#     Edge 36, Type (0, 0), BuildingBlock: CIFDUS_clean_linker_0, # of connection points: 2
#     Edge 37, Type (0, 0), BuildingBlock: CIFDUS_clean_linker_0, # of connection points: 2
#     Edge 38, Type (0, 0), BuildingBlock: CIFDUS_clean_linker_0, # of connection points: 2
#     Edge 39, Type (0, 0), BuildingBlock: CIFDUS_clean_linker_0, # of connection points: 2
#     Edge 40, Type (0, 0), BuildingBlock: CIFDUS_clean_linker_0, # of connection points: 2
#     Edge 41, Type (0, 0), BuildingBlock: CIFDUS_clean_linker_0, # of connection points: 2
#     Edge 42, Type (0, 0), BuildingBlock: CIFDUS_clean_linker_0, # of connection points: 2
#     Edge 43, Type (0, 0), BuildingBlock: CIFDUS_clean_linker_0, # of connection points: 2
#     Edge 44, Type (0, 0), BuildingBlock: CIFDUS_clean_linker_0, # of connection points: 2
#     Edge 45, Type (0, 0), BuildingBlock: CIFDUS_clean_linker_0, # of connection points: 2
#     Edge 46, Type (0, 0), BuildingBlock: CIFDUS_clean_linker_0, # of connection points: 2
#     Edge 47, Type (0, 0), BuildingBlock: CIFDUS_clean_linker_0, # of connection points: 2
# Relax obj value: 0.189
# Max RMSD: 0.097
# Mean RMSD: 0.076
data_MOF--net-pcb--node1-NAHDIM_clean_sbu_0--edge1-CIFDUS_clean_linker_0
_symmetry_space_group_name_H-M    P1
_symmetry_Int_Tables_number       1
_symmetry_cell_setting            triclinic
loop_
_symmetry_equiv_pos_as_xyz
'x, y, z'
_cell_length_a     39.196949
_cell_length_b     41.350599
_cell_length_c     43.436779
_cell_angle_alpha  90.622204
_cell_angle_beta   90.95591
_cell_angle_gamma 92.523973
loop_
_atom_site_label
_atom_site_type_symbol
_atom_site_fract_x
_atom_site_fract_y
_atom_site_fract_z
_atom_type_partial_charge
C0 C 0.16628 0.21929 0.1903 0.0
O1 O 0.1403 0.20144 0.2003 0.0
O2 O 0.16834 0.14689 0.12997 0.0
Zn3 Zn 0.14691 0.1901 0.13155 0.0
O4 O 0.09773 0.18245 0.14236 0.0
C5 C 0.17477 0.20506 0.07302 0.0
O6 O 0.20125 0.19126 0.08529 0.0
O7 O 0.17295 0.21891 0.16179 0.0
C8 C 0.0772 0.20467 0.1477 0.0
O9 O 0.08854 0.23505 0.14787 0.0
C10 C 0.1655 0.12709 0.15202 0.0
O11 O 0.14872 0.13536 0.1766 0.0
O12 O 0.14854 0.2087 0.08924 0.0
C13 C 0.79991 0.19676 0.19293 0.0
O14 O 0.82286 0.20875 0.17399 0.0
O15 O 0.86449 0.15191 0.1601 0.0
Zn16 Zn 0.81449 0.13877 0.16076 0.0
O17 O 0.81092 0.09203 0.17358 0.0
C18 C 0.80681 0.16336 0.09899 0.0
O19 O 0.83188 0.18359 0.10798 0.0
O20 O 0.79138 0.16679 0.19123 0.0
C21 C 0.79636 0.07016 0.15655 0.0
O22 O 0.78103 0.07846 0.1309 0.0
C23 C 0.88519 0.13216 0.14918 0.0
O24 O 0.87326 0.10395 0.13852 0.0
O25 O 0.79453 0.14306 0.11804 0.0
C26 C 0.82156 0.78966 0.19388 0.0
O27 O 0.84557 0.80884 0.20656 0.0
O28 O 0.8244 0.86125 0.13491 0.0
Zn29 Zn 0.84506 0.81769 0.1368 0.0
O30 O 0.89396 0.82437 0.15054 0.0
C31 C 0.81907 0.80162 0.07625 0.0
O32 O 0.79286 0.81745 0.08588 0.0
O33 O 0.81769 0.78909 0.1648 0.0
C34 C 0.91549 0.80245 0.14814 0.0
O35 O 0.90508 0.77345 0.13835 0.0
C36 C 0.83007 0.88188 0.15647 0.0
O37 O 0.84914 0.87414 0.1802 0.0
O38 O 0.8443 0.79812 0.09444 0.0
C39 C 0.19583 0.81159 0.18006 0.0
O40 O 0.1736 0.8002 0.15926 0.0
O41 O 0.19481 0.8652 0.10946 0.0
Zn42 Zn 0.17814 0.87076 0.15277 0.0
O43 O 0.12775 0.85851 0.15418 0.0
C44 C 0.19842 0.93889 0.14884 0.0
O45 O 0.21036 0.93009 0.12209 0.0
O46 O 0.20271 0.84189 0.18154 0.0
C47 C 0.10545 0.87964 0.15742 0.0
O48 O 0.11532 0.91036 0.15954 0.0
C49 C 0.18013 0.84574 0.09011 0.0
O50 O 0.15367 0.82765 0.0987 0.0
O51 O 0.18521 0.91744 0.16628 0.0
C52 C 0.19877 0.78124 0.81126 0.0
O53 O 0.17086 0.76867 0.82351 0.0
O54 O 0.12988 0.83217 0.82851 0.0
Zn55 Zn 0.17848 0.83717 0.84402 0.0
O56 O 0.18024 0.82446 0.88856 0.0
C57 C 0.18418 0.89864 0.81553 0.0
O58 O 0.16869 0.88194 0.79307 0.0
O59 O 0.20801 0.81039 0.81769 0.0
C60 C 0.20006 0.83908 0.90808 0.0
O61 O 0.22166 0.86191 0.89863 0.0
C62 C 0.10742 0.81379 0.841 0.0
O63 O 0.11611 0.79631 0.86472 0.0
O64 O 0.19233 0.88419 0.84007 0.0
C65 C 0.18793 0.16762 0.77754 0.0
O66 O 0.18008 0.13743 0.76959 0.0
O67 O 0.10999 0.14745 0.83691 0.0
Zn68 Zn 0.16126 0.14767 0.836 0.0
O69 O 0.17482 0.102 0.82808 0.0
C70 C 0.1665 0.18551 0.89195 0.0
O71 O 0.14155 0.20096 0.87899 0.0
O72 O 0.18098 0.17748 0.8044 0.0
C73 C 0.19786 0.08887 0.84394 0.0
O74 O 0.21452 0.10593 0.8655 0.0
C75 C 0.0969 0.1299 0.85788 0.0
O76 O 0.11729 0.11404 0.87604 0.0
O77 O 0.17933 0.16226 0.8775 0.0
C78 C 0.80231 0.19274 0.81629 0.0
O79 O 0.82967 0.20762 0.82852 0.0
O80 O 0.87265 0.14761 0.84499 0.0
Zn81 Zn 0.82308 0.14226 0.85579 0.0
O82 O 0.81786 0.1614 0.89808 0.0
C83 C 0.82167 0.07557 0.83664 0.0
O84 O 0.84142 0.08737 0.81494 0.0
O85 O 0.79408 0.1642 0.82475 0.0
C86 C 0.79575 0.15014 0.91664 0.0
O87 O 0.77434 0.12656 0.90735 0.0
C88 C 0.89354 0.13399 0.86277 0.0
O89 O 0.88158 0.11765 0.88634 0.0
O90 O 0.81008 0.09473 0.85657 0.0
C91 C 0.77517 0.79486 0.80101 0.0
O92 O 0.76156 0.81494 0.82046 0.0
O93 O 0.88319 0.80179 0.83561 0.0
Zn94 Zn 0.83486 0.81588 0.83445 0.0
O95 O 0.83529 0.86342 0.82468 0.0
C96 C 0.82622 0.78798 0.89449 0.0
O97 O 0.84988 0.76885 0.88498 0.0
O98 O 0.80707 0.79082 0.80264 0.0
C99 C 0.81613 0.88259 0.8386 0.0
O100 O 0.79499 0.87102 0.85932 0.0
C101 C 0.90565 0.81341 0.81761 0.0
O102 O 0.89668 0.83409 0.79652 0.0
O103 O 0.81509 0.80913 0.87636 0.0
C104 C 0.68577 0.69102 0.6639 0.0
O105 O 0.69907 0.67043 0.64477 0.0
O106 O 0.63539 0.6261 0.62621 0.0
Zn107 Zn 0.62306 0.67242 0.63125 0.0
O108 O 0.57467 0.67195 0.64588 0.0
C109 C 0.65003 0.68479 0.5719 0.0
O110 O 0.67249 0.66464 0.58207 0.0
O111 O 0.65399 0.69571 0.66214 0.0
C112 C 0.55007 0.67277 0.62654 0.0
O113 O 0.55678 0.6753 0.59711 0.0
C114 C 0.64331 0.60797 0.64838 0.0
O115 O 0.64428 0.61977 0.6766 0.0
O116 O 0.62653 0.69325 0.58969 0.0
C117 C 0.26701 0.66834 0.67798 0.0
O118 O 0.29222 0.683 0.66333 0.0
O119 O 0.3272 0.63644 0.6289 0.0
Zn120 Zn 0.27939 0.61804 0.63427 0.0
O121 O 0.28286 0.57055 0.64204 0.0
C122 C 0.26135 0.65007 0.57948 0.0
O123 O 0.28028 0.67317 0.59316 0.0
O124 O 0.25653 0.64014 0.66928 0.0
C125 C 0.3017 0.55576 0.62353 0.0
O126 O 0.31605 0.572 0.60097 0.0
C127 C 0.35108 0.63476 0.64884 0.0
O128 O 0.34464 0.62123 0.67547 0.0
O129 O 0.25496 0.62395 0.59384 0.0
C130 C 0.31145 0.29645 0.69496 0.0
O131 O 0.3201 0.3265 0.70285 0.0
O132 O 0.34542 0.35631 0.64434 0.0
Zn133 Zn 0.3571 0.30955 0.64512 0.0
O134 O 0.40566 0.30762 0.66026 0.0
C135 C 0.32819 0.30091 0.58499 0.0
O136 O 0.30471 0.31856 0.59717 0.0
O137 O 0.32465 0.28402 0.67136 0.0
C138 C 0.42575 0.28732 0.64928 0.0
O139 O 0.41382 0.26558 0.62912 0.0
C140 C 0.36229 0.37407 0.62578 0.0
O141 O 0.38606 0.36109 0.6093 0.0
O142 O 0.35323 0.29278 0.60168 0.0
C143 C 0.71015 0.3016 0.6922 0.0
O144 O 0.68355 0.28609 0.67929 0.0
O145 O 0.69895 0.34433 0.61165 0.0
Zn146 Zn 0.68586 0.35285 0.6556 0.0
O147 O 0.6373 0.33659 0.6612 0.0
C148 C 0.67594 0.41895 0.64328 0.0
O149 O 0.66375 0.4058 0.61748 0.0
O150 O 0.71677 0.33091 0.68519 0.0
C151 C 0.61833 0.34815 0.68163 0.0
O152 O 0.63091 0.37103 0.70032 0.0
C153 C 0.68406 0.32147 0.59606 0.0
O154 O 0.66145 0.30221 0.60951 0.0
O155 O 0.68801 0.40079 0.66379 0.0
C156 C 0.70492 0.28548 0.32889 0.0
O157 O 0.68157 0.27368 0.34754 0.0
O158 O 0.63679 0.34186 0.34383 0.0
Zn159 Zn 0.68633 0.34482 0.35668 0.0
O160 O 0.69168 0.33338 0.40137 0.0
C161 C 0.69029 0.40698 0.32881 0.0
O162 O 0.66971 0.39188 0.30866 0.0
O163 O 0.71217 0.31572 0.32934 0.0
C164 C 0.7165 0.34595 0.41722 0.0
O165 O 0.73917 0.36503 0.40363 0.0
C166 C 0.61341 0.32427 0.35596 0.0
O167 O 0.62111 0.3054 0.37897 0.0
O168 O 0.70225 0.39122 0.35118 0.0
C169 C 0.67496 0.68119 0.27265 0.0
O170 O 0.6549 0.65802 0.26043 0.0
O171 O 0.59446 0.67022 0.32466 0.0
Zn172 Zn 0.64384 0.65925 0.32813 0.0
O173 O 0.64844 0.61257 0.31653 0.0
C174 C 0.64694 0.68682 0.38937 0.0
O175 O 0.62445 0.70622 0.37787 0.0
O176 O 0.67386 0.68681 0.3014 0.0
C177 C 0.67451 0.59774 0.32532 0.0
O178 O 0.69854 0.6135 0.34161 0.0
C179 C 0.5738 0.65589 0.30565 0.0
O180 O 0.58536 0.63455 0.28624 0.0
O181 O 0.65911 0.66532 0.37214 0.0
C182 C 0.29074 0.71723 0.31338 0.0
O183 O 0.3112 0.72889 0.33546 0.0
O184 O 0.36025 0.66475 0.33399 0.0
Zn185 Zn 0.30968 0.65914 0.34095 0.0
O186 O 0.29927 0.67243 0.38431 0.0
C187 C 0.31417 0.59299 0.32033 0.0
O188 O 0.34136 0.60497 0.30647 0.0
O189 O 0.28525 0.68679 0.31104 0.0
C190 C 0.27393 0.65963 0.39826 0.0
O191 O 0.25367 0.63822 0.38365 0.0
C192 C 0.38063 0.68244 0.35064 0.0
O193 O 0.36863 0.69874 0.37391 0.0
O194 O 0.29575 0.61192 0.33538 0.0
C195 C 0.313 0.31736 0.2859 0.0
O196 O 0.33713 0.33758 0.27611 0.0
O197 O 0.38871 0.32054 0.34502 0.0
Zn198 Zn 0.34122 0.33718 0.34441 0.0
O199 O 0.34345 0.38407 0.33291 0.0
C200 C 0.33014 0.30839 0.40276 0.0
O201 O 0.34838 0.28596 0.39026 0.0
O202 O 0.31033 0.31258 0.3146 0.0
C203 C 0.3177 0.40143 0.33552 0.0
O204 O 0.28911 0.38839 0.34608 0.0
C205 C 0.41253 0.33328 0.32912 0.0
O206 O 0.40554 0.35671 0.31014 0.0
O207 O 0.32281 0.3329 0.38699 0.0
H208 H 0.25521 0.2821 0.29933 0.0
H209 H 0.31543 0.31677 0.22313 0.0
H210 H 0.2746 0.2904 0.18683 0.0
H211 H 0.22248 0.25687 0.17681 0.0
H212 H 0.16206 0.22238 0.25298 0.0
H213 H 0.20228 0.24966 0.28925 0.0
C214 C 0.25947 0.28384 0.27478 0.0
C215 C 0.28842 0.30123 0.26396 0.0
C216 C 0.23582 0.26881 0.25405 0.0
C217 C 0.29339 0.30349 0.23208 0.0
C218 C 0.27005 0.28844 0.2113 0.0
C219 C 0.21797 0.25542 0.20134 0.0
C220 C 0.18935 0.23752 0.21216 0.0
C221 C 0.24124 0.27099 0.22205 0.0
C222 C 0.18389 0.23598 0.24402 0.0
C223 C 0.20692 0.25149 0.26479 0.0
H224 H 0.75035 0.30317 0.28495 0.0
H225 H 0.69518 0.21998 0.32177 0.0
H226 H 0.71959 0.18524 0.28285 0.0
H227 H 0.75586 0.17863 0.23794 0.0
H228 H 0.81088 0.26193 0.20114 0.0
H229 H 0.78708 0.29648 0.24049 0.0
C230 C 0.74375 0.27742 0.28458 0.0
C231 C 0.72095 0.26422 0.30624 0.0
C232 C 0.7577 0.25762 0.26206 0.0
C233 C 0.71266 0.2308 0.30537 0.0
C234 C 0.72656 0.2109 0.28309 0.0
C235 C 0.76262 0.20435 0.23847 0.0
C236 C 0.78505 0.21767 0.21656 0.0
C237 C 0.74893 0.22409 0.26121 0.0
C238 C 0.79363 0.25103 0.21768 0.0
C239 C 0.78007 0.27083 0.2402 0.0
H240 H 0.77066 0.74739 0.17434 0.0
H241 H 0.8185 0.78911 0.25671 0.0
H242 H 0.77697 0.75951 0.28828 0.0
H243 H 0.72669 0.7225 0.2924 0.0
H244 H 0.67931 0.68037 0.21001 0.0
H245 H 0.7211 0.70968 0.17848 0.0
C246 C 0.77212 0.74997 0.19921 0.0
C247 C 0.79761 0.7705 0.21313 0.0
C248 C 0.74816 0.73298 0.21719 0.0
C249 C 0.79916 0.77345 0.24539 0.0
C250 C 0.77537 0.75661 0.26346 0.0
C251 C 0.7254 0.7198 0.26753 0.0
C252 C 0.69982 0.6994 0.25356 0.0
C253 C 0.74965 0.73648 0.24958 0.0
C254 C 0.69871 0.69596 0.22134 0.0
C255 C 0.72261 0.71267 0.2033 0.0
H256 H 0.24918 0.70076 0.26444 0.0
H257 H 0.29767 0.78314 0.31212 0.0
H258 H 0.27303 0.81951 0.2748 0.0
H259 H 0.23778 0.82797 0.22872 0.0
H260 H 0.18902 0.74565 0.18118 0.0
H261 H 0.21388 0.70923 0.21835 0.0
C262 C 0.25433 0.72667 0.26672 0.0
C263 C 0.27523 0.73919 0.29104 0.0
C264 C 0.24014 0.74747 0.24517 0.0
C265 C 0.28166 0.77283 0.29362 0.0
C266 C 0.26761 0.79368 0.27227 0.0
C267 C 0.23265 0.80206 0.22642 0.0
C268 C 0.21159 0.78957 0.20219 0.0
C269 C 0.24686 0.78126 0.24794 0.0
C270 C 0.20513 0.75593 0.19962 0.0
C271 C 0.21931 0.73506 0.22088 0.0
H272 H 0.28693 0.7259 0.70458 0.0
H273 H 0.21175 0.64683 0.71079 0.0
H274 H 0.1851 0.67408 0.75373 0.0
H275 H 0.182 0.72115 0.78826 0.0
H276 H 0.25702 0.80033 0.78163 0.0
H277 H 0.28505 0.772 0.74023 0.0
C278 C 0.26473 0.71458 0.71531 0.0
C279 C 0.25123 0.68448 0.70435 0.0
C280 C 0.24954 0.73034 0.73995 0.0
C281 C 0.22259 0.67005 0.7187 0.0
C282 C 0.20734 0.6856 0.74327 0.0
C283 C 0.20463 0.73212 0.77794 0.0
C284 C 0.21728 0.76288 0.78796 0.0
C285 C 0.22046 0.71585 0.75393 0.0
C286 C 0.24667 0.77672 0.77432 0.0
C287 C 0.26269 0.76058 0.75058 0.0
H288 H 0.21026 0.22982 0.78858 0.0
H289 H 0.21114 0.15322 0.72024 0.0
H290 H 0.24884 0.18677 0.68833 0.0
H291 H 0.28365 0.23669 0.68107 0.0
H292 H 0.2831 0.31312 0.74959 0.0
H293 H 0.2431 0.28062 0.78027 0.0
C294 C 0.21846 0.2205 0.7666 0.0
C295 C 0.20805 0.18896 0.7569 0.0
C296 C 0.24039 0.23976 0.74853 0.0
C297 C 0.21882 0.17737 0.7283 0.0
C298 C 0.24048 0.1965 0.71008 0.0
C299 C 0.27478 0.24629 0.7027 0.0
C300 C 0.28657 0.27718 0.71315 0.0
C301 C 0.25181 0.22752 0.7202 0.0
C302 C 0.27454 0.28936 0.74108 0.0
C303 C 0.25166 0.27081 0.75863 0.0
H304 H 0.81281 0.2532 0.79332 0.0
H305 H 0.74525 0.168 0.78598 0.0
H306 H 0.7112 0.19401 0.74666 0.0
H307 H 0.7004 0.2409 0.71455 0.0
H308 H 0.76765 0.32628 0.72201 0.0
H309 H 0.80205 0.30012 0.76105 0.0
C310 C 0.79064 0.2403 0.78314 0.0
C311 C 0.78161 0.20871 0.79262 0.0
C312 C 0.77112 0.25539 0.76053 0.0
C313 C 0.75279 0.19236 0.77916 0.0
C314 C 0.73328 0.20719 0.75664 0.0
C315 C 0.72262 0.25379 0.72464 0.0
C316 C 0.73141 0.28549 0.71535 0.0
C317 C 0.74221 0.23869 0.74716 0.0
C318 C 0.76028 0.30185 0.72873 0.0
C319 C 0.77998 0.28692 0.75109 0.0
H320 H 0.79567 0.75268 0.75735 0.0
H321 H 0.70649 0.79839 0.79125 0.0
H322 H 0.67111 0.77039 0.7517 0.0
H323 H 0.66547 0.73312 0.70759 0.0
H324 H 0.75453 0.68727 0.67363 0.0
H325 H 0.79 0.71527 0.71319 0.0
C326 C 0.76849 0.75651 0.75613 0.0
C327 C 0.75376 0.77759 0.77724 0.0
C328 C 0.74828 0.74038 0.73332 0.0
C329 C 0.7185 0.78229 0.77531 0.0
C330 C 0.69823 0.7663 0.75269 0.0
C331 C 0.69265 0.72924 0.70879 0.0
C332 C 0.70731 0.70814 0.68767 0.0
C333 C 0.71286 0.74534 0.73158 0.0
C334 C 0.74257 0.70339 0.68959 0.0
C335 C 0.76288 0.71937 0.71221 0.0
H336 H 0.13374 0.22148 0.93397 0.0
H337 H 0.22215 0.16407 0.9227 0.0
H338 H 0.23508 0.16885 0.97773 0.0
H339 H 0.21772 0.18409 0.02955 0.0
H340 H 0.12733 0.2386 0.04133 0.0
H341 H 0.11906 0.24061 0.98555 0.0
C342 C 0.15614 0.21045 0.94347 0.0
C343 C 0.17674 0.19218 0.92435 0.0
C344 C 0.16297 0.21261 0.97526 0.0
C345 C 0.20568 0.17801 0.937 0.0
C346 C 0.2131 0.18071 0.96847 0.0
C347 C 0.19655 0.19692 0.01993 0.0
C348 C 0.173 0.21089 0.03955 0.0
C349 C 0.19138 0.19717 0.98792 0.0
C350 C 0.14568 0.2274 0.02671 0.0
C351 C 0.14087 0.22849 -0.00518 0.0
H352 H 0.75902 0.12489 0.96398 0.0
H353 H 0.83615 0.19875 0.94291 0.0
H354 H 0.84398 0.21149 -0.00241 0.0
H355 H 0.83283 0.19825 0.05145 0.0
H356 H 0.75708 0.12316 0.07263 0.0
H357 H 0.74463 0.11461 0.01786 0.0
C358 C 0.77723 0.14407 0.97129 0.0
C359 C 0.79721 0.16058 0.94936 0.0
C360 C 0.78204 0.15093 0.00283 0.0
C361 C 0.8206 0.18545 0.95928 0.0
C362 C 0.82516 0.19274 0.99058 0.0
C363 C 0.81329 0.18029 0.04415 0.0
C364 C 0.7962 0.16117 0.06614 0.0
C365 C 0.80663 0.1751 0.01258 0.0
C366 C 0.77082 0.1381 0.05621 0.0
C367 C 0.76371 0.13312 0.02486 0.0
H368 H 0.85767 0.75914 0.94235 0.0
H369 H 0.77266 0.818 0.9199 0.0
H370 H 0.76073 0.8246 0.97454 0.0
H371 H 0.7779 0.81809 0.02858 0.0
H372 H 0.86502 0.7619 0.0509 0.0
H373 H 0.87248 0.74962 -0.00359 0.0
C374 C 0.8362 0.77299 0.94937 0.0
C375 C 0.81624 0.78825 0.92712 0.0
C376 C 0.83005 0.77741 0.98082 0.0
C377 C 0.78857 0.8062 0.93661 0.0
C378 C 0.78177 0.81004 0.96785 0.0
C379 C 0.79823 0.80279 0.02157 0.0
C380 C 0.82103 0.79116 0.04373 0.0
C381 C 0.80288 0.79645 0.99016 0.0
C382 C 0.84728 0.77139 0.03426 0.0
C383 C 0.85159 0.76436 0.00311 0.0
H384 H 0.15405 0.80771 0.04316 0.0
H385 H 0.23063 0.88341 0.06401 0.0
H386 H 0.24532 0.88629 0.00973 0.0
H387 H 0.23379 0.86996 0.95596 0.0
H388 H 0.1565 0.79492 0.93506 0.0
H389 H 0.14503 0.78901 0.98977 0.0
C390 C 0.17414 0.82468 0.0359 0.0
C391 C 0.19098 0.84548 0.05763 0.0
C392 C 0.18231 0.82642 0.0046 0.0
C393 C 0.21711 0.86718 0.04779 0.0
C394 C 0.22553 0.8689 0.01672 0.0
C395 C 0.21468 0.85206 0.96336 0.0
C396 C 0.19587 0.83312 0.94138 0.0
C397 C 0.2079 0.84902 -0.00514 0.0
C398 C 0.17127 0.80997 0.95144 0.0
C399 C 0.16462 0.80659 0.98275 0.0
H400 H 0.04515 0.14593 0.13829 0.0
H401 H 0.02654 0.24447 0.16468 0.0
H402 H 0.96542 0.23058 0.16812 0.0
H403 H 0.91719 0.19063 0.16237 0.0
H404 H 0.93635 0.09263 0.1344 0.0
H405 H -0.00258 0.10625 0.13279 0.0
C406 C 0.02781 0.16439 0.145 0.0
C407 C 0.04042 0.1962 0.15126 0.0
C408 C 0.99278 0.15637 0.14649 0.0
C409 C 0.01751 0.21981 0.15971 0.0
C410 C 0.98256 0.21189 0.16166 0.0
C411 C 0.93474 0.17224 0.15601 0.0
C412 C 0.92219 0.14066 0.14851 0.0
C413 C 0.96989 0.18028 0.15488 0.0
C414 C 0.94527 0.11715 0.14019 0.0
C415 C 0.98023 0.12488 0.13931 0.0
H416 H 0.8406 0.93213 0.19686 0.0
H417 H 0.79097 0.90586 0.11009 0.0
H418 H 0.7737 0.9614 0.1038 0.0
H419 H 0.77604 0.01805 0.12114 0.0
H420 H 0.82701 0.04464 0.20722 0.0
H421 H 0.84005 0.98823 0.21567 0.0
C422 C 0.82579 0.93846 0.17667 0.0
C423 C 0.81737 0.91491 0.15387 0.0
C424 C 0.81621 0.97052 0.17302 0.0
C425 C 0.798 0.92354 0.12793 0.0
C426 C 0.7881 0.95531 0.12429 0.0
C427 C 0.78966 0.0115 0.14194 0.0
C428 C 0.80072 0.0356 0.16339 0.0
C429 C 0.79756 0.9791 0.14643 0.0
C430 C 0.81831 0.02662 0.19023 0.0
C431 C 0.82587 -0.00564 0.19506 0.0
H432 H 0.94509 0.86189 0.16015 0.0
H433 H 0.96879 0.76193 0.14572 0.0
H434 H 0.02982 0.77685 0.14835 0.0
H435 H 0.07631 0.81871 0.15213 0.0
H436 H 0.05199 0.91874 0.16526 0.0
H437 H 0.99129 0.90326 0.16564 0.0
C438 C 0.96355 0.84326 0.15785 0.0
C439 C 0.95235 0.81085 0.15263 0.0
C440 C -0.00149 0.85206 0.15888 0.0
C441 C 0.97669 0.78708 0.14968 0.0
C442 C 0.0116 0.7956 0.15109 0.0
C443 C 0.05775 0.83712 0.15519 0.0
C444 C 0.06873 0.86987 0.15849 0.0
C445 C 0.02278 0.82809 0.15522 0.0
C446 C 0.04431 0.89338 0.16252 0.0
C447 C 0.00955 0.88456 0.16278 0.0
H448 H 0.15954 0.0778 0.19281 0.0
H449 H 0.2006 0.10239 0.10401 0.0
H450 H 0.21739 0.04678 0.09657 0.0
H451 H 0.21629 0.99041 0.11336 0.0
H452 H 0.17367 0.96539 0.20144 0.0
H453 H 0.16205 0.02205 0.21118 0.0
C454 C 0.17244 0.0711 0.17194 0.0
C455 C 0.17846 0.09417 0.14888 0.0
C456 C 0.18168 0.03898 0.16762 0.0
C457 C 0.1954 0.08508 0.12206 0.0
C458 C 0.20501 0.05326 0.11775 0.0
C459 C 0.20485 -0.00264 0.13487 0.0
C460 C 0.19561 0.97361 0.1565 0.0
C461 C 0.19767 0.02988 0.1401 0.0
C462 C 0.1809 0.98312 0.1843 0.0
C463 C 0.17414 0.01553 0.18987 0.0
H464 H 0.96067 0.83921 0.78773 0.0
H465 H 0.93228 0.77208 0.85933 0.0
H466 H 0.99237 0.7647 0.87155 0.0
H467 H 0.05279 0.78013 0.86437 0.0
H468 H 0.08114 0.84816 0.7935 0.0
H469 H 0.02126 0.85214 0.77848 0.0
C470 C 0.9676 0.8227 0.80579 0.0
C471 C 0.94198 0.80645 0.82272 0.0
C472 C 0.00221 0.81885 0.813 0.0
C473 C 0.95146 0.78507 0.84602 0.0
C474 C 0.98583 0.78085 0.85309 0.0
C475 C 0.04593 0.79564 0.84548 0.0
C476 C 0.07141 0.81401 0.8303 0.0
C477 C 0.0114 0.79809 0.83712 0.0
C478 C 0.06204 0.83386 0.80574 0.0
C479 C 0.02778 0.8362 0.79712 0.0
H480 H 0.21902 0.9395 0.85555 0.0
H481 H 0.15833 0.93786 0.77162 0.0
H482 H 0.15926 -0.00312 0.77188 0.0
H483 H 0.17333 0.04867 0.79811 0.0
H484 H 0.23412 0.05042 0.88197 0.0
H485 H 0.23735 0.99164 0.87935 0.0
C486 C 0.20627 0.95205 0.83715 0.0
C487 C 0.1883 0.93428 0.81382 0.0
C488 C 0.20676 0.98601 0.83749 0.0
C489 C 0.17224 0.95092 0.78995 0.0
C490 C 0.17265 0.9847 0.79012 0.0
C491 C 0.18754 0.03623 0.81568 0.0
C492 C 0.20309 0.05386 0.84039 0.0
C493 C 0.1892 0.00244 0.81412 0.0
C494 C 0.22177 0.03743 0.86276 0.0
C495 C 0.22356 0.00379 0.86135 0.0
H496 H 0.0472 0.15789 0.82383 0.0
H497 H 0.06264 0.09641 0.90215 0.0
H498 H 0.00133 0.09229 0.91035 0.0
H499 H 0.94343 0.10612 0.89567 0.0
H500 H 0.92715 0.16734 0.81739 0.0
H501 H 0.98867 0.1715 0.80882 0.0
C502 C 0.03714 0.14359 0.84268 0.0
C503 C 0.05954 0.12751 0.86233 0.0
C504 C 0.00171 0.14124 0.84731 0.0
C505 C 0.04605 0.10904 0.88663 0.0
C506 C 0.01095 0.10665 0.89138 0.0
C507 C 0.95327 0.12039 0.87671 0.0
C508 C 0.9307 0.13642 0.85725 0.0
C509 C 0.98857 0.12266 0.87191 0.0
C510 C 0.94395 0.15474 0.83275 0.0
C511 C 0.97914 0.15715 0.82783 0.0
H512 H 0.78353 0.93013 0.86825 0.0
H513 H 0.85521 0.91412 0.79582 0.0
H514 H 0.86198 0.97238 0.78787 0.0
H515 H 0.8493 0.0279 0.80285 0.0
H516 H 0.77872 0.04386 0.8762 0.0
H517 H 0.7697 0.98553 0.88228 0.0
C518 C 0.80049 0.93934 0.85059 0.0
C519 C 0.8189 0.91777 0.83274 0.0
C520 C 0.80454 0.97287 0.84634 0.0
C521 C 0.84079 0.93016 0.80997 0.0
C522 C 0.8447 0.96349 0.8054 0.0
C523 C 0.83176 0.01865 0.82003 0.0
C524 C 0.8148 0.04024 0.83908 0.0
C525 C 0.82696 0.98508 0.82366 0.0
C526 C 0.79221 0.0278 0.86128 0.0
C527 C 0.78703 -0.00557 0.8648 0.0
H528 H 0.61572 0.71996 0.43458 0.0
H529 H 0.69736 0.65527 0.41885 0.0
H530 H 0.7078 0.6518 0.47419 0.0
H531 H 0.69052 0.66316 0.52684 0.0
H532 H 0.60712 0.72568 0.54295 0.0
H533 H 0.60093 0.73429 0.48761 0.0
C534 C 0.63608 0.70543 0.44324 0.0
C535 C 0.65552 0.68768 0.42263 0.0
C536 C 0.64154 0.70302 0.47514 0.0
C537 C 0.68182 0.66897 0.43423 0.0
C538 C 0.68782 0.66695 0.46587 0.0
C539 C 0.67125 0.67902 0.51834 0.0
C540 C 0.64913 0.69352 0.53899 0.0
C541 C 0.66733 0.68327 0.48653 0.0
C542 C 0.62437 0.71406 0.52753 0.0
C543 C 0.62075 0.71894 0.49588 0.0
H544 H 0.287 0.69408 0.53925 0.0
H545 H 0.21908 0.60935 0.54466 0.0
H546 H 0.214 0.60705 0.48852 0.0
H547 H 0.23396 0.62549 0.43809 0.0
H548 H 0.30492 0.70806 0.4331 0.0
H549 H 0.30352 0.71491 0.48893 0.0
C550 C 0.27058 0.67543 0.52822 0.0
C551 C 0.25365 0.65178 0.54611 0.0
C552 C 0.26864 0.67364 0.49598 0.0
C553 C 0.23255 0.62774 0.5314 0.0
C554 C 0.22974 0.62634 0.4993 0.0
C555 C 0.24873 0.64527 0.44916 0.0
C556 C 0.26976 0.66605 0.4315 0.0
C557 C 0.24847 0.64859 0.48136 0.0
C558 C 0.28877 0.69154 0.44621 0.0
C559 C 0.28799 0.69548 0.47813 0.0
H560 H 0.35694 0.26973 0.4461 0.0
H561 H 0.28461 0.34441 0.4334 0.0
H562 H 0.27499 0.34618 0.48879 0.0
H563 H 0.29078 0.32987 0.541 0.0
H564 H 0.36588 0.25772 0.5539 0.0
H565 H 0.37053 0.25139 0.49817 0.0
C566 C 0.33872 0.28609 0.45539 0.0
C567 C 0.32165 0.30702 0.43571 0.0
C568 C 0.33397 0.28756 0.4873 0.0
C569 C 0.29825 0.32819 0.44812 0.0
C570 C 0.29275 0.32924 0.47977 0.0
C571 C 0.3078 0.31241 0.53163 0.0
C572 C 0.32805 0.29439 0.55152 0.0
C573 C 0.31101 0.30953 0.49962 0.0
C574 C 0.35015 0.27201 0.53903 0.0
C575 C 0.35285 0.26841 0.50719 0.0
H576 H 0.6769 0.30511 0.4517 0.0
H577 H 0.75923 0.37783 0.45874 0.0
H578 H 0.75791 0.37521 0.51479 0.0
H579 H 0.73075 0.35507 0.56178 0.0
H580 H 0.64857 0.28219 0.55473 0.0
H581 H 0.65272 0.28194 0.49876 0.0
C582 C 0.69475 0.3202 0.46548 0.0
C583 C 0.71789 0.34186 0.45102 0.0
C584 C 0.69382 0.31866 0.49773 0.0
C585 C 0.74106 0.36101 0.46924 0.0
C586 C 0.74028 0.35961 0.50133 0.0
C587 C 0.71394 0.33891 0.54803 0.0
C588 C 0.68918 0.31892 0.56245 0.0
C589 C 0.71636 0.33895 0.51582 0.0
C590 C 0.66781 0.29793 0.54427 0.0
C591 C 0.67008 0.29782 0.51222 0.0
H592 H 0.49241 0.67761 0.59187 0.0
H593 H 0.52759 0.6573 0.68406 0.0
H594 H 0.46886 0.64509 0.69957 0.0
H595 H 0.40781 0.63723 0.68611 0.0
H596 H 0.37312 0.6578 0.59376 0.0
H597 H 0.43135 0.67294 0.57928 0.0
C598 C 0.48725 0.67071 0.61541 0.0
C599 C 0.51438 0.66811 0.63667 0.0
C600 C 0.4535 0.66361 0.62415 0.0
C601 C 0.50719 0.65941 0.66718 0.0
C602 C 0.47361 0.65233 0.67606 0.0
C603 C 0.41296 0.64521 0.66288 0.0
C604 C 0.38615 0.64609 0.64103 0.0
C605 C 0.4466 0.65388 0.65461 0.0
C606 C 0.39325 0.65674 0.61106 0.0
C607 C 0.42658 0.66538 0.6027 0.0
H608 H 0.34617 0.52037 0.59193 0.0
H609 H 0.27278 0.5136 0.66484 0.0
H610 H 0.28504 0.45668 0.67202 0.0
H611 H 0.31683 0.40893 0.65763 0.0
H612 H 0.39071 0.41656 0.58509 0.0
H613 H 0.378 0.47314 0.57783 0.0
C614 C 0.33274 0.50647 0.60935 0.0
C615 C 0.30854 0.5212 0.62775 0.0
C616 C 0.34006 0.47393 0.61349 0.0
C617 C 0.29153 0.50284 0.65034 0.0
C618 C 0.29853 0.4703 0.65447 0.0
C619 C 0.33016 0.42298 0.64024 0.0
C620 C 0.35469 0.4085 0.62194 0.0
C621 C 0.3228 0.45561 0.6362 0.0
C622 C 0.37176 0.42707 0.59955 0.0
C623 C 0.36449 0.45944 0.59533 0.0
H624 H 0.58639 0.29799 0.6503 0.0
H625 H 0.5681 0.37511 0.71495 0.0
H626 H 0.5069 0.36128 0.71254 0.0
H627 H 0.45835 0.33007 0.68906 0.0
H628 H 0.4767 0.25324 0.62408 0.0
H629 H 0.53818 0.26401 0.62996 0.0
C630 C 0.56906 0.31164 0.66405 0.0
C631 C 0.58177 0.33778 0.6825 0.0
C632 C 0.53391 0.30368 0.66245 0.0
C633 C 0.559 0.35496 0.70044 0.0
C634 C 0.52398 0.34712 0.69904 0.0
C635 C 0.47578 0.31542 0.67641 0.0
C636 C 0.46288 0.29111 0.6559 0.0
C637 C 0.5111 0.32193 0.67967 0.0
C638 C 0.48587 0.27221 0.63991 0.0
C639 C 0.52107 0.27842 0.64317 0.0
H640 H 0.6655 0.56352 0.68914 0.0
H641 H 0.63619 0.57516 0.59374 0.0
H642 H 0.64467 0.51804 0.58369 0.0
H643 H 0.65855 0.46446 0.60215 0.0
H644 H 0.68851 0.45241 0.69727 0.0
H645 H 0.68181 0.51005 0.70716 0.0
C646 C 0.66106 0.55358 0.66614 0.0
C647 C 0.65001 0.57358 0.64231 0.0
C648 C 0.66607 0.52063 0.66043 0.0
C649 C 0.64462 0.56034 0.61257 0.0
C650 C 0.64943 0.52764 0.60676 0.0
C651 C 0.66373 0.47442 0.62504 0.0
C652 C 0.67382 0.45412 0.64895 0.0
C653 C 0.65985 0.50752 0.63056 0.0
C654 C 0.68069 0.4675 0.67842 0.0
C655 C 0.67679 0.50045 0.68413 0.0
H656 H 0.46946 0.35852 0.3019 0.0
H657 H 0.43602 0.28859 0.36935 0.0
H658 H 0.49531 0.27834 0.38255 0.0
H659 H 0.55666 0.29184 0.37731 0.0
H660 H 0.58966 0.36244 0.31026 0.0
H661 H 0.53058 0.36967 0.29458 0.0
C662 C 0.47509 0.3408 0.31929 0.0
C663 C 0.4483 0.32456 0.33474 0.0
C664 C 0.50922 0.33528 0.32704 0.0
C665 C 0.45612 0.30156 0.35713 0.0
C666 C 0.49005 0.29573 0.36479 0.0
C667 C 0.55095 0.30864 0.35913 0.0
C668 C 0.57759 0.32674 0.34521 0.0
C669 C 0.51681 0.31288 0.35028 0.0
C670 C 0.5697 0.34829 0.32155 0.0
C671 C 0.53588 0.35248 0.31252 0.0
H672 H 0.65514 0.44897 0.29436 0.0
H673 H 0.73684 0.44489 0.3619 0.0
H674 H 0.74101 0.50398 0.36488 0.0
H675 H 0.71839 0.55648 0.35133 0.0
H676 H 0.63456 0.56016 0.28589 0.0
H677 H 0.63442 0.5015 0.27898 0.0
C678 C 0.67419 0.46098 0.30943 0.0
C679 C 0.69555 0.44256 0.32797 0.0
C680 C 0.67587 0.49488 0.3116 0.0
C681 C 0.71998 0.45853 0.34749 0.0
C682 C 0.72233 0.4923 0.34925 0.0
C683 C 0.70033 0.5445 0.33531 0.0
C684 C 0.67639 0.56263 0.3193 0.0
C685 C 0.69993 0.51069 0.33189 0.0
C686 C 0.6531 0.54672 0.29867 0.0
C687 C 0.653 0.51318 0.29469 0.0
H688 H 0.5415 0.69321 0.34701 0.0
H689 H 0.5226 0.62873 0.26912 0.0
H690 H 0.46114 0.63246 0.27542 0.0
H691 H 0.41291 0.65157 0.30467 0.0
H692 H 0.43174 0.7153 0.38312 0.0
H693 H 0.49315 0.71432 0.37485 0.0
C694 C 0.52397 0.68019 0.33121 0.0
C695 C 0.53669 0.66058 0.30772 0.0
C696 C 0.48865 0.68213 0.33517 0.0
C697 C 0.51356 0.64391 0.28747 0.0
C698 C 0.47838 0.64597 0.29108 0.0
C699 C 0.4304 0.66541 0.3199 0.0
C700 C 0.41771 0.68332 0.34461 0.0
C701 C 0.46567 0.6646 0.31514 0.0
C702 C 0.44078 0.70121 0.36399 0.0
C703 C 0.47592 0.70065 0.35929 0.0
H704 H 0.27154 0.44724 0.34666 0.0
H705 H 0.37031 0.43369 0.30711 0.0
H706 H 0.37659 0.49146 0.29673 0.0
H707 H 0.35561 0.54612 0.30143 0.0
H708 H 0.25793 0.56028 0.34282 0.0
H709 H 0.24954 0.50191 0.34962 0.0
C710 C 0.29433 0.45688 0.33557 0.0
C711 C 0.32048 0.43619 0.32784 0.0
C712 C 0.29801 0.49024 0.33001 0.0
C713 C 0.34987 0.4491 0.3135 0.0
C714 C 0.35349 0.48214 0.30751 0.0
C715 C 0.33229 0.53645 0.31163 0.0
C716 C 0.3075 0.55755 0.32167 0.0
C717 C 0.32793 0.50298 0.31603 0.0
C718 C 0.2775 0.54458 0.33496 0.0
C719 C 0.2727 0.51121 0.33892 0.0
loop_
_geom_bond_atom_site_label_1
_geom_bond_atom_site_label_2
_geom_bond_distance
_geom_bond_site_symmetry_2
_ccdc_geom_bond_type
C0 O1 1.160 . S
C0 O7 1.185 . S
O1 C0 1.160 . S
O2 Zn3 1.899 . S
O2 C10 1.284 . S
Zn3 O2 1.899 . S
Zn3 O4 2.032 . S
Zn3 O7 2.086 . S
Zn3 O12 1.977 . S
O4 Zn3 2.032 . S
O4 C8 1.278 . S
C5 O6 1.203 . S
C5 O12 1.267 . S
O6 C5 1.203 . S
O7 C0 1.185 . S
O7 Zn3 2.086 . S
C8 O4 1.278 . S
C8 O9 1.211 . S
O9 C8 1.211 . S
C10 O2 1.284 . S
C10 O11 1.273 . S
O11 C10 1.273 . S
O12 Zn3 1.977 . S
O12 C5 1.267 . S
C13 O14 1.160 . S
C13 O20 1.185 . S
O14 C13 1.160 . S
O15 Zn16 1.899 . S
O15 C23 1.284 . S
Zn16 O15 1.899 . S
Zn16 O17 2.032 . S
Zn16 O20 2.086 . S
Zn16 O25 1.977 . S
O17 Zn16 2.032 . S
O17 C21 1.278 . S
C18 O19 1.203 . S
C18 O25 1.267 . S
O19 C18 1.203 . S
O20 C13 1.185 . S
O20 Zn16 2.086 . S
C21 O17 1.278 . S
C21 O22 1.211 . S
O22 C21 1.211 . S
C23 O15 1.284 . S
C23 O24 1.273 . S
O24 C23 1.273 . S
O25 Zn16 1.977 . S
O25 C18 1.267 . S
C26 O27 1.160 . S
C26 O33 1.185 . S
O27 C26 1.160 . S
O28 Zn29 1.899 . S
O28 C36 1.284 . S
Zn29 O28 1.899 . S
Zn29 O30 2.032 . S
Zn29 O33 2.086 . S
Zn29 O38 1.977 . S
O30 Zn29 2.032 . S
O30 C34 1.278 . S
C31 O32 1.203 . S
C31 O38 1.267 . S
O32 C31 1.203 . S
O33 C26 1.185 . S
O33 Zn29 2.086 . S
C34 O30 1.278 . S
C34 O35 1.211 . S
O35 C34 1.211 . S
C36 O28 1.284 . S
C36 O37 1.273 . S
O37 C36 1.273 . S
O38 Zn29 1.977 . S
O38 C31 1.267 . S
C39 O40 1.160 . S
C39 O46 1.185 . S
O40 C39 1.160 . S
O41 Zn42 1.899 . S
O41 C49 1.284 . S
Zn42 O41 1.899 . S
Zn42 O43 2.032 . S
Zn42 O46 2.086 . S
Zn42 O51 1.977 . S
O43 Zn42 2.032 . S
O43 C47 1.278 . S
C44 O45 1.203 . S
C44 O51 1.267 . S
O45 C44 1.203 . S
O46 C39 1.185 . S
O46 Zn42 2.086 . S
C47 O43 1.278 . S
C47 O48 1.211 . S
O48 C47 1.211 . S
C49 O41 1.284 . S
C49 O50 1.273 . S
O50 C49 1.273 . S
O51 Zn42 1.977 . S
O51 C44 1.267 . S
C52 O53 1.160 . S
C52 O59 1.185 . S
O53 C52 1.160 . S
O54 Zn55 1.899 . S
O54 C62 1.284 . S
Zn55 O54 1.899 . S
Zn55 O56 2.032 . S
Zn55 O59 2.086 . S
Zn55 O64 1.977 . S
O56 Zn55 2.032 . S
O56 C60 1.278 . S
C57 O58 1.203 . S
C57 O64 1.267 . S
O58 C57 1.203 . S
O59 C52 1.185 . S
O59 Zn55 2.086 . S
C60 O56 1.278 . S
C60 O61 1.211 . S
O61 C60 1.211 . S
C62 O54 1.284 . S
C62 O63 1.273 . S
O63 C62 1.273 . S
O64 Zn55 1.977 . S
O64 C57 1.267 . S
C65 O66 1.160 . S
C65 O72 1.185 . S
O66 C65 1.160 . S
O67 Zn68 1.899 . S
O67 C75 1.284 . S
Zn68 O67 1.899 . S
Zn68 O69 2.032 . S
Zn68 O72 2.086 . S
Zn68 O77 1.977 . S
O69 Zn68 2.032 . S
O69 C73 1.278 . S
C70 O71 1.203 . S
C70 O77 1.267 . S
O71 C70 1.203 . S
O72 C65 1.185 . S
O72 Zn68 2.086 . S
C73 O69 1.278 . S
C73 O74 1.211 . S
O74 C73 1.211 . S
C75 O67 1.284 . S
C75 O76 1.273 . S
O76 C75 1.273 . S
O77 Zn68 1.977 . S
O77 C70 1.267 . S
C78 O79 1.160 . S
C78 O85 1.185 . S
O79 C78 1.160 . S
O80 Zn81 1.899 . S
O80 C88 1.284 . S
Zn81 O80 1.899 . S
Zn81 O82 2.032 . S
Zn81 O85 2.086 . S
Zn81 O90 1.977 . S
O82 Zn81 2.032 . S
O82 C86 1.278 . S
C83 O84 1.203 . S
C83 O90 1.267 . S
O84 C83 1.203 . S
O85 C78 1.185 . S
O85 Zn81 2.086 . S
C86 O82 1.278 . S
C86 O87 1.211 . S
O87 C86 1.211 . S
C88 O80 1.284 . S
C88 O89 1.273 . S
O89 C88 1.273 . S
O90 Zn81 1.977 . S
O90 C83 1.267 . S
C91 O92 1.160 . S
C91 O98 1.185 . S
O92 C91 1.160 . S
O93 Zn94 1.899 . S
O93 C101 1.284 . S
Zn94 O93 1.899 . S
Zn94 O95 2.032 . S
Zn94 O98 2.086 . S
Zn94 O103 1.977 . S
O95 Zn94 2.032 . S
O95 C99 1.278 . S
C96 O97 1.203 . S
C96 O103 1.267 . S
O97 C96 1.203 . S
O98 C91 1.185 . S
O98 Zn94 2.086 . S
C99 O95 1.278 . S
C99 O100 1.211 . S
O100 C99 1.211 . S
C101 O93 1.284 . S
C101 O102 1.273 . S
O102 C101 1.273 . S
O103 Zn94 1.977 . S
O103 C96 1.267 . S
C104 O105 1.160 . S
C104 O111 1.185 . S
O105 C104 1.160 . S
O106 Zn107 1.899 . S
O106 C114 1.284 . S
Zn107 O106 1.899 . S
Zn107 O108 2.032 . S
Zn107 O111 2.086 . S
Zn107 O116 1.977 . S
O108 Zn107 2.032 . S
O108 C112 1.278 . S
C109 O110 1.203 . S
C109 O116 1.267 . S
O110 C109 1.203 . S
O111 C104 1.185 . S
O111 Zn107 2.086 . S
C112 O108 1.278 . S
C112 O113 1.211 . S
O113 C112 1.211 . S
C114 O106 1.284 . S
C114 O115 1.273 . S
O115 C114 1.273 . S
O116 Zn107 1.977 . S
O116 C109 1.267 . S
C117 O118 1.160 . S
C117 O124 1.185 . S
O118 C117 1.160 . S
O119 Zn120 1.899 . S
O119 C127 1.284 . S
Zn120 O119 1.899 . S
Zn120 O121 2.032 . S
Zn120 O124 2.086 . S
Zn120 O129 1.977 . S
O121 Zn120 2.032 . S
O121 C125 1.278 . S
C122 O123 1.203 . S
C122 O129 1.267 . S
O123 C122 1.203 . S
O124 C117 1.185 . S
O124 Zn120 2.086 . S
C125 O121 1.278 . S
C125 O126 1.211 . S
O126 C125 1.211 . S
C127 O119 1.284 . S
C127 O128 1.273 . S
O128 C127 1.273 . S
O129 Zn120 1.977 . S
O129 C122 1.267 . S
C130 O131 1.160 . S
C130 O137 1.185 . S
O131 C130 1.160 . S
O132 Zn133 1.899 . S
O132 C140 1.284 . S
Zn133 O132 1.899 . S
Zn133 O134 2.032 . S
Zn133 O137 2.086 . S
Zn133 O142 1.977 . S
O134 Zn133 2.032 . S
O134 C138 1.278 . S
C135 O136 1.203 . S
C135 O142 1.267 . S
O136 C135 1.203 . S
O137 C130 1.185 . S
O137 Zn133 2.086 . S
C138 O134 1.278 . S
C138 O139 1.211 . S
O139 C138 1.211 . S
C140 O132 1.284 . S
C140 O141 1.273 . S
O141 C140 1.273 . S
O142 Zn133 1.977 . S
O142 C135 1.267 . S
C143 O144 1.160 . S
C143 O150 1.185 . S
O144 C143 1.160 . S
O145 Zn146 1.899 . S
O145 C153 1.284 . S
Zn146 O145 1.899 . S
Zn146 O147 2.032 . S
Zn146 O150 2.086 . S
Zn146 O155 1.977 . S
O147 Zn146 2.032 . S
O147 C151 1.278 . S
C148 O149 1.203 . S
C148 O155 1.267 . S
O149 C148 1.203 . S
O150 C143 1.185 . S
O150 Zn146 2.086 . S
C151 O147 1.278 . S
C151 O152 1.211 . S
O152 C151 1.211 . S
C153 O145 1.284 . S
C153 O154 1.273 . S
O154 C153 1.273 . S
O155 Zn146 1.977 . S
O155 C148 1.267 . S
C156 O157 1.160 . S
C156 O163 1.185 . S
O157 C156 1.160 . S
O158 Zn159 1.899 . S
O158 C166 1.284 . S
Zn159 O158 1.899 . S
Zn159 O160 2.032 . S
Zn159 O163 2.086 . S
Zn159 O168 1.977 . S
O160 Zn159 2.032 . S
O160 C164 1.278 . S
C161 O162 1.203 . S
C161 O168 1.267 . S
O162 C161 1.203 . S
O163 C156 1.185 . S
O163 Zn159 2.086 . S
C164 O160 1.278 . S
C164 O165 1.211 . S
O165 C164 1.211 . S
C166 O158 1.284 . S
C166 O167 1.273 . S
O167 C166 1.273 . S
O168 Zn159 1.977 . S
O168 C161 1.267 . S
C169 O170 1.160 . S
C169 O176 1.185 . S
O170 C169 1.160 . S
O171 Zn172 1.899 . S
O171 C179 1.284 . S
Zn172 O171 1.899 . S
Zn172 O173 2.032 . S
Zn172 O176 2.086 . S
Zn172 O181 1.977 . S
O173 Zn172 2.032 . S
O173 C177 1.278 . S
C174 O175 1.203 . S
C174 O181 1.267 . S
O175 C174 1.203 . S
O176 C169 1.185 . S
O176 Zn172 2.086 . S
C177 O173 1.278 . S
C177 O178 1.211 . S
O178 C177 1.211 . S
C179 O171 1.284 . S
C179 O180 1.273 . S
O180 C179 1.273 . S
O181 Zn172 1.977 . S
O181 C174 1.267 . S
C182 O183 1.160 . S
C182 O189 1.185 . S
O183 C182 1.160 . S
O184 Zn185 1.899 . S
O184 C192 1.284 . S
Zn185 O184 1.899 . S
Zn185 O186 2.032 . S
Zn185 O189 2.086 . S
Zn185 O194 1.977 . S
O186 Zn185 2.032 . S
O186 C190 1.278 . S
C187 O188 1.203 . S
C187 O194 1.267 . S
O188 C187 1.203 . S
O189 C182 1.185 . S
O189 Zn185 2.086 . S
C190 O186 1.278 . S
C190 O191 1.211 . S
O191 C190 1.211 . S
C192 O184 1.284 . S
C192 O193 1.273 . S
O193 C192 1.273 . S
O194 Zn185 1.977 . S
O194 C187 1.267 . S
C195 O196 1.160 . S
C195 O202 1.185 . S
O196 C195 1.160 . S
O197 Zn198 1.899 . S
O197 C205 1.284 . S
Zn198 O197 1.899 . S
Zn198 O199 2.032 . S
Zn198 O202 2.086 . S
Zn198 O207 1.977 . S
O199 Zn198 2.032 . S
O199 C203 1.278 . S
C200 O201 1.203 . S
C200 O207 1.267 . S
O201 C200 1.203 . S
O202 C195 1.185 . S
O202 Zn198 2.086 . S
C203 O199 1.278 . S
C203 O204 1.211 . S
O204 C203 1.211 . S
C205 O197 1.284 . S
C205 O206 1.273 . S
O206 C205 1.273 . S
O207 Zn198 1.977 . S
O207 C200 1.267 . S
H208 C214 0.930 . S
H209 C217 0.930 . S
H210 C218 0.930 . S
H211 C219 0.930 . S
H212 C222 0.930 . S
H213 C223 0.930 . S
C214 H208 0.930 . S
C214 C215 1.355 . S
C214 C216 1.415 . S
C215 C214 1.355 . S
C215 C217 1.419 . S
C216 C214 1.415 . S
C216 C221 1.425 . S
C216 C223 1.409 . S
C217 H209 0.930 . S
C217 C215 1.419 . S
C217 C218 1.362 . S
C218 H210 0.930 . S
C218 C217 1.362 . S
C218 C221 1.409 . S
C219 H211 0.930 . S
C219 C220 1.355 . S
C219 C221 1.415 . S
C220 C219 1.355 . S
C220 C222 1.419 . S
C221 C216 1.425 . S
C221 C218 1.409 . S
C221 C219 1.415 . S
C222 H212 0.930 . S
C222 C220 1.419 . S
C222 C223 1.362 . S
C223 H213 0.930 . S
C223 C216 1.409 . S
C223 C222 1.362 . S
H224 C230 0.930 . S
H225 C233 0.930 . S
H226 C234 0.930 . S
H227 C235 0.930 . S
H228 C238 0.930 . S
H229 C239 0.930 . S
C230 H224 0.930 . S
C230 C231 1.355 . S
C230 C232 1.415 . S
C231 C230 1.355 . S
C231 C233 1.419 . S
C232 C230 1.415 . S
C232 C237 1.425 . S
C232 C239 1.409 . S
C233 H225 0.930 . S
C233 C231 1.419 . S
C233 C234 1.362 . S
C234 H226 0.930 . S
C234 C233 1.362 . S
C234 C237 1.409 . S
C235 H227 0.930 . S
C235 C236 1.355 . S
C235 C237 1.415 . S
C236 C235 1.355 . S
C236 C238 1.419 . S
C237 C232 1.425 . S
C237 C234 1.409 . S
C237 C235 1.415 . S
C238 H228 0.930 . S
C238 C236 1.419 . S
C238 C239 1.362 . S
C239 H229 0.930 . S
C239 C232 1.409 . S
C239 C238 1.362 . S
H240 C246 0.930 . S
H241 C249 0.930 . S
H242 C250 0.930 . S
H243 C251 0.930 . S
H244 C254 0.930 . S
H245 C255 0.930 . S
C246 H240 0.930 . S
C246 C247 1.355 . S
C246 C248 1.415 . S
C247 C246 1.355 . S
C247 C249 1.419 . S
C248 C246 1.415 . S
C248 C253 1.425 . S
C248 C255 1.409 . S
C249 H241 0.930 . S
C249 C247 1.419 . S
C249 C250 1.362 . S
C250 H242 0.930 . S
C250 C249 1.362 . S
C250 C253 1.409 . S
C251 H243 0.930 . S
C251 C252 1.355 . S
C251 C253 1.415 . S
C252 C251 1.355 . S
C252 C254 1.419 . S
C253 C248 1.425 . S
C253 C250 1.409 . S
C253 C251 1.415 . S
C254 H244 0.930 . S
C254 C252 1.419 . S
C254 C255 1.362 . S
C255 H245 0.930 . S
C255 C248 1.409 . S
C255 C254 1.362 . S
H256 C262 0.930 . S
H257 C265 0.930 . S
H258 C266 0.930 . S
H259 C267 0.930 . S
H260 C270 0.930 . S
H261 C271 0.930 . S
C262 H256 0.930 . S
C262 C263 1.355 . S
C262 C264 1.415 . S
C263 C262 1.355 . S
C263 C265 1.419 . S
C264 C262 1.415 . S
C264 C269 1.425 . S
C264 C271 1.409 . S
C265 H257 0.930 . S
C265 C263 1.419 . S
C265 C266 1.362 . S
C266 H258 0.930 . S
C266 C265 1.362 . S
C266 C269 1.409 . S
C267 H259 0.930 . S
C267 C268 1.355 . S
C267 C269 1.415 . S
C268 C267 1.355 . S
C268 C270 1.419 . S
C269 C264 1.425 . S
C269 C266 1.409 . S
C269 C267 1.415 . S
C270 H260 0.930 . S
C270 C268 1.419 . S
C270 C271 1.362 . S
C271 H261 0.930 . S
C271 C264 1.409 . S
C271 C270 1.362 . S
H272 C278 0.930 . S
H273 C281 0.930 . S
H274 C282 0.930 . S
H275 C283 0.930 . S
H276 C286 0.930 . S
H277 C287 0.930 . S
C278 H272 0.930 . S
C278 C279 1.355 . S
C278 C280 1.415 . S
C279 C278 1.355 . S
C279 C281 1.419 . S
C280 C278 1.415 . S
C280 C285 1.425 . S
C280 C287 1.409 . S
C281 H273 0.930 . S
C281 C279 1.419 . S
C281 C282 1.362 . S
C282 H274 0.930 . S
C282 C281 1.362 . S
C282 C285 1.409 . S
C283 H275 0.930 . S
C283 C284 1.355 . S
C283 C285 1.415 . S
C284 C283 1.355 . S
C284 C286 1.419 . S
C285 C280 1.425 . S
C285 C282 1.409 . S
C285 C283 1.415 . S
C286 H276 0.930 . S
C286 C284 1.419 . S
C286 C287 1.362 . S
C287 H277 0.930 . S
C287 C280 1.409 . S
C287 C286 1.362 . S
H288 C294 0.930 . S
H289 C297 0.930 . S
H290 C298 0.930 . S
H291 C299 0.930 . S
H292 C302 0.930 . S
H293 C303 0.930 . S
C294 H288 0.930 . S
C294 C295 1.355 . S
C294 C296 1.415 . S
C295 C294 1.355 . S
C295 C297 1.419 . S
C296 C294 1.415 . S
C296 C301 1.425 . S
C296 C303 1.409 . S
C297 H289 0.930 . S
C297 C295 1.419 . S
C297 C298 1.362 . S
C298 H290 0.930 . S
C298 C297 1.362 . S
C298 C301 1.409 . S
C299 H291 0.930 . S
C299 C300 1.355 . S
C299 C301 1.415 . S
C300 C299 1.355 . S
C300 C302 1.419 . S
C301 C296 1.425 . S
C301 C298 1.409 . S
C301 C299 1.415 . S
C302 H292 0.930 . S
C302 C300 1.419 . S
C302 C303 1.362 . S
C303 H293 0.930 . S
C303 C296 1.409 . S
C303 C302 1.362 . S
H304 C310 0.930 . S
H305 C313 0.930 . S
H306 C314 0.930 . S
H307 C315 0.930 . S
H308 C318 0.930 . S
H309 C319 0.930 . S
C310 H304 0.930 . S
C310 C311 1.355 . S
C310 C312 1.415 . S
C311 C310 1.355 . S
C311 C313 1.419 . S
C312 C310 1.415 . S
C312 C317 1.425 . S
C312 C319 1.409 . S
C313 H305 0.930 . S
C313 C311 1.419 . S
C313 C314 1.362 . S
C314 H306 0.930 . S
C314 C313 1.362 . S
C314 C317 1.409 . S
C315 H307 0.930 . S
C315 C316 1.355 . S
C315 C317 1.415 . S
C316 C315 1.355 . S
C316 C318 1.419 . S
C317 C312 1.425 . S
C317 C314 1.409 . S
C317 C315 1.415 . S
C318 H308 0.930 . S
C318 C316 1.419 . S
C318 C319 1.362 . S
C319 H309 0.930 . S
C319 C312 1.409 . S
C319 C318 1.362 . S
H320 C326 0.930 . S
H321 C329 0.930 . S
H322 C330 0.930 . S
H323 C331 0.930 . S
H324 C334 0.930 . S
H325 C335 0.930 . S
C326 H320 0.930 . S
C326 C327 1.355 . S
C326 C328 1.415 . S
C327 C326 1.355 . S
C327 C329 1.419 . S
C328 C326 1.415 . S
C328 C333 1.425 . S
C328 C335 1.409 . S
C329 H321 0.930 . S
C329 C327 1.419 . S
C329 C330 1.362 . S
C330 H322 0.930 . S
C330 C329 1.362 . S
C330 C333 1.409 . S
C331 H323 0.930 . S
C331 C332 1.355 . S
C331 C333 1.415 . S
C332 C331 1.355 . S
C332 C334 1.419 . S
C333 C328 1.425 . S
C333 C330 1.409 . S
C333 C331 1.415 . S
C334 H324 0.930 . S
C334 C332 1.419 . S
C334 C335 1.362 . S
C335 H325 0.930 . S
C335 C328 1.409 . S
C335 C334 1.362 . S
H336 C342 0.930 . S
H337 C345 0.930 . S
H338 C346 0.930 . S
H339 C347 0.930 . S
H340 C350 0.930 . S
H341 C351 0.930 . S
C342 H336 0.930 . S
C342 C343 1.355 . S
C342 C344 1.415 . S
C343 C342 1.355 . S
C343 C345 1.419 . S
C344 C342 1.415 . S
C344 C349 1.425 1_556 S
C344 C351 1.409 1_556 S
C345 H337 0.930 . S
C345 C343 1.419 . S
C345 C346 1.362 . S
C346 H338 0.930 . S
C346 C345 1.362 . S
C346 C349 1.409 1_556 S
C347 H339 0.930 . S
C347 C348 1.355 . S
C347 C349 1.415 . S
C348 C347 1.355 . S
C348 C350 1.419 . S
C349 C344 1.425 1_554 S
C349 C346 1.409 1_554 S
C349 C347 1.415 . S
C350 H340 0.930 . S
C350 C348 1.419 . S
C350 C351 1.362 . S
C351 H341 0.930 . S
C351 C344 1.409 1_554 S
C351 C350 1.362 . S
H352 C358 0.930 . S
H353 C361 0.930 . S
H354 C362 0.930 . S
H355 C363 0.930 . S
H356 C366 0.930 . S
H357 C367 0.930 . S
C358 H352 0.930 . S
C358 C359 1.355 . S
C358 C360 1.415 . S
C359 C358 1.355 . S
C359 C361 1.419 . S
C360 C358 1.415 . S
C360 C365 1.425 . S
C360 C367 1.409 1_556 S
C361 H353 0.930 . S
C361 C359 1.419 . S
C361 C362 1.362 . S
C362 H354 0.930 . S
C362 C361 1.362 . S
C362 C365 1.409 . S
C363 H355 0.930 . S
C363 C364 1.355 . S
C363 C365 1.415 1_554 S
C364 C363 1.355 . S
C364 C366 1.419 . S
C365 C360 1.425 . S
C365 C362 1.409 . S
C365 C363 1.415 1_556 S
C366 H356 0.930 . S
C366 C364 1.419 . S
C366 C367 1.362 . S
C367 H357 0.930 . S
C367 C360 1.409 1_554 S
C367 C366 1.362 . S
H368 C374 0.930 . S
H369 C377 0.930 . S
H370 C378 0.930 . S
H371 C379 0.930 . S
H372 C382 0.930 . S
H373 C383 0.930 . S
C374 H368 0.930 . S
C374 C375 1.355 . S
C374 C376 1.415 . S
C375 C374 1.355 . S
C375 C377 1.419 . S
C376 C374 1.415 . S
C376 C381 1.425 1_556 S
C376 C383 1.409 1_556 S
C377 H369 0.930 . S
C377 C375 1.419 . S
C377 C378 1.362 . S
C378 H370 0.930 . S
C378 C377 1.362 . S
C378 C381 1.409 1_556 S
C379 H371 0.930 . S
C379 C380 1.355 . S
C379 C381 1.415 . S
C380 C379 1.355 . S
C380 C382 1.419 . S
C381 C376 1.425 1_554 S
C381 C378 1.409 1_554 S
C381 C379 1.415 . S
C382 H372 0.930 . S
C382 C380 1.419 . S
C382 C383 1.362 . S
C383 H373 0.930 . S
C383 C376 1.409 1_554 S
C383 C382 1.362 . S
H384 C390 0.930 . S
H385 C393 0.930 . S
H386 C394 0.930 . S
H387 C395 0.930 . S
H388 C398 0.930 . S
H389 C399 0.930 . S
C390 H384 0.930 . S
C390 C391 1.355 . S
C390 C392 1.415 . S
C391 C390 1.355 . S
C391 C393 1.419 . S
C392 C390 1.415 . S
C392 C397 1.425 1_554 S
C392 C399 1.409 1_554 S
C393 H385 0.930 . S
C393 C391 1.419 . S
C393 C394 1.362 . S
C394 H386 0.930 . S
C394 C393 1.362 . S
C394 C397 1.409 1_554 S
C395 H387 0.930 . S
C395 C396 1.355 . S
C395 C397 1.415 . S
C396 C395 1.355 . S
C396 C398 1.419 . S
C397 C392 1.425 1_556 S
C397 C394 1.409 1_556 S
C397 C395 1.415 . S
C398 H388 0.930 . S
C398 C396 1.419 . S
C398 C399 1.362 . S
C399 H389 0.930 . S
C399 C392 1.409 1_556 S
C399 C398 1.362 . S
H400 C406 0.930 . S
H401 C409 0.930 . S
H402 C410 0.930 . S
H403 C411 0.930 . S
H404 C414 0.930 . S
H405 C415 0.930 . S
C406 H400 0.930 . S
C406 C407 1.355 . S
C406 C408 1.415 . S
C407 C406 1.355 . S
C407 C409 1.419 . S
C408 C406 1.415 . S
C408 C413 1.425 1_455 S
C408 C415 1.409 1_455 S
C409 H401 0.930 . S
C409 C407 1.419 . S
C409 C410 1.362 . S
C410 H402 0.930 . S
C410 C409 1.362 . S
C410 C413 1.409 1_455 S
C411 H403 0.930 . S
C411 C412 1.355 . S
C411 C413 1.415 . S
C412 C411 1.355 . S
C412 C414 1.419 . S
C413 C408 1.425 1_655 S
C413 C410 1.409 1_655 S
C413 C411 1.415 . S
C414 H404 0.930 . S
C414 C412 1.419 . S
C414 C415 1.362 . S
C415 H405 0.930 . S
C415 C408 1.409 1_655 S
C415 C414 1.362 . S
H416 C422 0.930 . S
H417 C425 0.930 . S
H418 C426 0.930 . S
H419 C427 0.930 . S
H420 C430 0.930 . S
H421 C431 0.930 . S
C422 H416 0.930 . S
C422 C423 1.355 . S
C422 C424 1.415 . S
C423 C422 1.355 . S
C423 C425 1.419 . S
C424 C422 1.415 . S
C424 C429 1.425 1_565 S
C424 C431 1.409 1_565 S
C425 H417 0.930 . S
C425 C423 1.419 . S
C425 C426 1.362 . S
C426 H418 0.930 . S
C426 C425 1.362 . S
C426 C429 1.409 1_565 S
C427 H419 0.930 . S
C427 C428 1.355 . S
C427 C429 1.415 . S
C428 C427 1.355 . S
C428 C430 1.419 . S
C429 C424 1.425 1_545 S
C429 C426 1.409 1_545 S
C429 C427 1.415 . S
C430 H420 0.930 . S
C430 C428 1.419 . S
C430 C431 1.362 . S
C431 H421 0.930 . S
C431 C424 1.409 1_545 S
C431 C430 1.362 . S
H432 C438 0.930 . S
H433 C441 0.930 . S
H434 C442 0.930 . S
H435 C443 0.930 . S
H436 C446 0.930 . S
H437 C447 0.930 . S
C438 H432 0.930 . S
C438 C439 1.355 . S
C438 C440 1.425 . S
C439 C438 1.355 . S
C439 C441 1.419 . S
C440 C438 1.425 . S
C440 C445 1.422 1_655 S
C440 C447 1.402 1_655 S
C441 H433 0.930 . S
C441 C439 1.419 . S
C441 C442 1.362 . S
C442 H434 0.930 . S
C442 C441 1.362 . S
C442 C445 1.409 1_655 S
C443 H435 0.930 . S
C443 C444 1.355 . S
C443 C445 1.415 . S
C444 C443 1.355 . S
C444 C446 1.419 . S
C445 C440 1.422 1_455 S
C445 C442 1.409 1_455 S
C445 C443 1.415 . S
C446 H436 0.930 . S
C446 C444 1.419 . S
C446 C447 1.362 . S
C447 H437 0.930 . S
C447 C440 1.402 1_455 S
C447 C446 1.362 . S
H448 C454 0.930 . S
H449 C457 0.930 . S
H450 C458 0.930 . S
H451 C459 0.930 . S
H452 C462 0.930 . S
H453 C463 0.936 . S
C454 H448 0.930 . S
C454 C455 1.355 . S
C454 C456 1.415 . S
C455 C454 1.355 . S
C455 C457 1.419 . S
C456 C454 1.415 . S
C456 C461 1.425 . S
C456 C463 1.409 1_545 S
C457 H449 0.930 . S
C457 C455 1.419 . S
C457 C458 1.362 . S
C458 H450 0.930 . S
C458 C457 1.362 . S
C458 C461 1.409 . S
C459 H451 0.930 . S
C459 C460 1.355 . S
C459 C461 1.415 1_565 S
C460 C459 1.355 . S
C460 C462 1.419 . S
C461 C456 1.425 . S
C461 C458 1.409 . S
C461 C459 1.415 1_545 S
C462 H452 0.930 . S
C462 C460 1.419 . S
C462 C463 1.362 . S
C463 H453 0.936 . S
C463 C456 1.409 1_565 S
C463 C462 1.362 . S
H464 C470 0.930 . S
H465 C473 0.930 . S
H466 C474 0.930 . S
H467 C475 0.930 . S
H468 C478 0.930 . S
H469 C479 0.930 . S
C470 H464 0.930 . S
C470 C471 1.355 . S
C470 C472 1.415 . S
C471 C470 1.355 . S
C471 C473 1.419 . S
C472 C470 1.415 . S
C472 C477 1.425 1_655 S
C472 C479 1.409 1_655 S
C473 H465 0.930 . S
C473 C471 1.419 . S
C473 C474 1.362 . S
C474 H466 0.930 . S
C474 C473 1.362 . S
C474 C477 1.409 1_655 S
C475 H467 0.930 . S
C475 C476 1.355 . S
C475 C477 1.415 . S
C476 C475 1.355 . S
C476 C478 1.419 . S
C477 C472 1.425 1_455 S
C477 C474 1.409 1_455 S
C477 C475 1.415 . S
C478 H468 0.930 . S
C478 C476 1.419 . S
C478 C479 1.362 . S
C479 H469 0.930 . S
C479 C472 1.409 1_455 S
C479 C478 1.362 . S
H480 C486 0.930 . S
H481 C489 0.930 . S
H482 C490 0.930 . S
H483 C491 0.930 . S
H484 C494 0.930 . S
H485 C495 0.930 . S
C486 H480 0.930 . S
C486 C487 1.355 . S
C486 C488 1.415 . S
C487 C486 1.355 . S
C487 C489 1.419 . S
C488 C486 1.415 . S
C488 C493 1.425 1_565 S
C488 C495 1.409 1_565 S
C489 H481 0.930 . S
C489 C487 1.419 . S
C489 C490 1.362 . S
C490 H482 0.930 . S
C490 C489 1.362 . S
C490 C493 1.409 1_565 S
C491 H483 0.930 . S
C491 C492 1.355 . S
C491 C493 1.415 . S
C492 C491 1.355 . S
C492 C494 1.419 . S
C493 C488 1.425 1_545 S
C493 C490 1.409 1_545 S
C493 C491 1.415 . S
C494 H484 0.930 . S
C494 C492 1.419 . S
C494 C495 1.362 . S
C495 H485 0.930 . S
C495 C488 1.409 1_545 S
C495 C494 1.362 . S
H496 C502 0.930 . S
H497 C505 0.930 . S
H498 C506 0.930 . S
H499 C507 0.930 . S
H500 C510 0.930 . S
H501 C511 0.930 . S
C502 H496 0.930 . S
C502 C503 1.355 . S
C502 C504 1.415 . S
C503 C502 1.355 . S
C503 C505 1.419 . S
C504 C502 1.415 . S
C504 C509 1.425 1_455 S
C504 C511 1.409 1_455 S
C505 H497 0.930 . S
C505 C503 1.419 . S
C505 C506 1.362 . S
C506 H498 0.930 . S
C506 C505 1.362 . S
C506 C509 1.409 1_455 S
C507 H499 0.930 . S
C507 C508 1.355 . S
C507 C509 1.415 . S
C508 C507 1.355 . S
C508 C510 1.419 . S
C509 C504 1.425 1_655 S
C509 C506 1.409 1_655 S
C509 C507 1.415 . S
C510 H500 0.930 . S
C510 C508 1.419 . S
C510 C511 1.362 . S
C511 H501 0.930 . S
C511 C504 1.409 1_655 S
C511 C510 1.362 . S
H512 C518 0.930 . S
H513 C521 0.930 . S
H514 C522 0.930 . S
H515 C523 0.930 . S
H516 C526 0.930 . S
H517 C527 0.930 1_565 S
C518 H512 0.930 . S
C518 C519 1.355 . S
C518 C520 1.415 . S
C519 C518 1.355 . S
C519 C521 1.419 . S
C520 C518 1.415 . S
C520 C525 1.425 . S
C520 C527 1.409 1_565 S
C521 H513 0.930 . S
C521 C519 1.419 . S
C521 C522 1.362 . S
C522 H514 0.930 . S
C522 C521 1.362 . S
C522 C525 1.409 . S
C523 H515 0.930 . S
C523 C524 1.355 . S
C523 C525 1.415 1_545 S
C524 C523 1.355 . S
C524 C526 1.419 . S
C525 C520 1.425 . S
C525 C522 1.409 . S
C525 C523 1.415 1_565 S
C526 H516 0.930 . S
C526 C524 1.419 . S
C526 C527 1.362 . S
C527 H517 0.930 1_545 S
C527 C520 1.409 1_545 S
C527 C526 1.362 . S
H528 C534 0.930 . S
H529 C537 0.930 . S
H530 C538 0.930 . S
H531 C539 0.930 . S
H532 C542 0.930 . S
H533 C543 0.930 . S
C534 H528 0.930 . S
C534 C535 1.355 . S
C534 C536 1.415 . S
C535 C534 1.355 . S
C535 C537 1.419 . S
C536 C534 1.415 . S
C536 C541 1.425 . S
C536 C543 1.409 . S
C537 H529 0.930 . S
C537 C535 1.419 . S
C537 C538 1.362 . S
C538 H530 0.930 . S
C538 C537 1.362 . S
C538 C541 1.409 . S
C539 H531 0.930 . S
C539 C540 1.355 . S
C539 C541 1.415 . S
C540 C539 1.355 . S
C540 C542 1.419 . S
C541 C536 1.425 . S
C541 C538 1.409 . S
C541 C539 1.415 . S
C542 H532 0.930 . S
C542 C540 1.419 . S
C542 C543 1.362 . S
C543 H533 0.930 . S
C543 C536 1.409 . S
C543 C542 1.362 . S
H544 C550 0.930 . S
H545 C553 0.930 . S
H546 C554 0.930 . S
H547 C555 0.930 . S
H548 C558 0.930 . S
H549 C559 0.930 . S
C550 H544 0.930 . S
C550 C551 1.355 . S
C550 C552 1.415 . S
C551 C550 1.355 . S
C551 C553 1.419 . S
C552 C550 1.415 . S
C552 C557 1.425 . S
C552 C559 1.409 . S
C553 H545 0.930 . S
C553 C551 1.419 . S
C553 C554 1.362 . S
C554 H546 0.930 . S
C554 C553 1.362 . S
C554 C557 1.409 . S
C555 H547 0.930 . S
C555 C556 1.355 . S
C555 C557 1.415 . S
C556 C555 1.355 . S
C556 C558 1.419 . S
C557 C552 1.425 . S
C557 C554 1.409 . S
C557 C555 1.415 . S
C558 H548 0.930 . S
C558 C556 1.419 . S
C558 C559 1.362 . S
C559 H549 0.930 . S
C559 C552 1.409 . S
C559 C558 1.362 . S
H560 C566 0.930 . S
H561 C569 0.930 . S
H562 C570 0.930 . S
H563 C571 0.930 . S
H564 C574 0.930 . S
H565 C575 0.930 . S
C566 H560 0.930 . S
C566 C567 1.355 . S
C566 C568 1.415 . S
C567 C566 1.355 . S
C567 C569 1.419 . S
C568 C566 1.415 . S
C568 C573 1.425 . S
C568 C575 1.409 . S
C569 H561 0.930 . S
C569 C567 1.419 . S
C569 C570 1.362 . S
C570 H562 0.930 . S
C570 C569 1.362 . S
C570 C573 1.409 . S
C571 H563 0.930 . S
C571 C572 1.355 . S
C571 C573 1.415 . S
C572 C571 1.355 . S
C572 C574 1.419 . S
C573 C568 1.425 . S
C573 C570 1.409 . S
C573 C571 1.415 . S
C574 H564 0.930 . S
C574 C572 1.419 . S
C574 C575 1.362 . S
C575 H565 0.930 . S
C575 C568 1.409 . S
C575 C574 1.362 . S
H576 C582 0.930 . S
H577 C585 0.930 . S
H578 C586 0.930 . S
H579 C587 0.930 . S
H580 C590 0.930 . S
H581 C591 0.930 . S
C582 H576 0.930 . S
C582 C583 1.355 . S
C582 C584 1.415 . S
C583 C582 1.355 . S
C583 C585 1.419 . S
C584 C582 1.415 . S
C584 C589 1.425 . S
C584 C591 1.409 . S
C585 H577 0.930 . S
C585 C583 1.419 . S
C585 C586 1.362 . S
C586 H578 0.930 . S
C586 C585 1.362 . S
C586 C589 1.409 . S
C587 H579 0.930 . S
C587 C588 1.355 . S
C587 C589 1.415 . S
C588 C587 1.355 . S
C588 C590 1.419 . S
C589 C584 1.425 . S
C589 C586 1.409 . S
C589 C587 1.415 . S
C590 H580 0.930 . S
C590 C588 1.419 . S
C590 C591 1.362 . S
C591 H581 0.930 . S
C591 C584 1.409 . S
C591 C590 1.362 . S
H592 C598 0.930 . S
H593 C601 0.930 . S
H594 C602 0.930 . S
H595 C603 0.930 . S
H596 C606 0.930 . S
H597 C607 0.930 . S
C598 H592 0.930 . S
C598 C599 1.355 . S
C598 C600 1.415 . S
C599 C598 1.355 . S
C599 C601 1.419 . S
C600 C598 1.415 . S
C600 C605 1.425 . S
C600 C607 1.409 . S
C601 H593 0.930 . S
C601 C599 1.419 . S
C601 C602 1.362 . S
C602 H594 0.930 . S
C602 C601 1.362 . S
C602 C605 1.409 . S
C603 H595 0.930 . S
C603 C604 1.355 . S
C603 C605 1.415 . S
C604 C603 1.355 . S
C604 C606 1.419 . S
C605 C600 1.425 . S
C605 C602 1.409 . S
C605 C603 1.415 . S
C606 H596 0.930 . S
C606 C604 1.419 . S
C606 C607 1.362 . S
C607 H597 0.930 . S
C607 C600 1.409 . S
C607 C606 1.362 . S
H608 C614 0.930 . S
H609 C617 0.930 . S
H610 C618 0.930 . S
H611 C619 0.930 . S
H612 C622 0.930 . S
H613 C623 0.930 . S
C614 H608 0.930 . S
C614 C615 1.355 . S
C614 C616 1.415 . S
C615 C614 1.355 . S
C615 C617 1.419 . S
C616 C614 1.415 . S
C616 C621 1.425 . S
C616 C623 1.409 . S
C617 H609 0.930 . S
C617 C615 1.419 . S
C617 C618 1.362 . S
C618 H610 0.930 . S
C618 C617 1.362 . S
C618 C621 1.409 . S
C619 H611 0.930 . S
C619 C620 1.355 . S
C619 C621 1.415 . S
C620 C619 1.355 . S
C620 C622 1.419 . S
C621 C616 1.425 . S
C621 C618 1.409 . S
C621 C619 1.415 . S
C622 H612 0.930 . S
C622 C620 1.419 . S
C622 C623 1.362 . S
C623 H613 0.930 . S
C623 C616 1.409 . S
C623 C622 1.362 . S
H624 C630 0.930 . S
H625 C633 0.930 . S
H626 C634 0.930 . S
H627 C635 0.930 . S
H628 C638 0.930 . S
H629 C639 0.930 . S
C630 H624 0.930 . S
C630 C631 1.355 . S
C630 C632 1.415 . S
C631 C630 1.355 . S
C631 C633 1.419 . S
C632 C630 1.415 . S
C632 C637 1.425 . S
C632 C639 1.409 . S
C633 H625 0.930 . S
C633 C631 1.419 . S
C633 C634 1.362 . S
C634 H626 0.930 . S
C634 C633 1.362 . S
C634 C637 1.409 . S
C635 H627 0.930 . S
C635 C636 1.355 . S
C635 C637 1.415 . S
C636 C635 1.355 . S
C636 C638 1.419 . S
C637 C632 1.425 . S
C637 C634 1.409 . S
C637 C635 1.415 . S
C638 H628 0.930 . S
C638 C636 1.419 . S
C638 C639 1.362 . S
C639 H629 0.930 . S
C639 C632 1.409 . S
C639 C638 1.362 . S
H640 C646 0.930 . S
H641 C649 0.930 . S
H642 C650 0.930 . S
H643 C651 0.930 . S
H644 C654 0.930 . S
H645 C655 0.930 . S
C646 H640 0.930 . S
C646 C647 1.355 . S
C646 C648 1.415 . S
C647 C646 1.355 . S
C647 C649 1.419 . S
C648 C646 1.415 . S
C648 C653 1.425 . S
C648 C655 1.409 . S
C649 H641 0.930 . S
C649 C647 1.419 . S
C649 C650 1.362 . S
C650 H642 0.930 . S
C650 C649 1.362 . S
C650 C653 1.409 . S
C651 H643 0.930 . S
C651 C652 1.355 . S
C651 C653 1.415 . S
C652 C651 1.355 . S
C652 C654 1.419 . S
C653 C648 1.425 . S
C653 C650 1.409 . S
C653 C651 1.415 . S
C654 H644 0.930 . S
C654 C652 1.419 . S
C654 C655 1.362 . S
C655 H645 0.930 . S
C655 C648 1.409 . S
C655 C654 1.362 . S
H656 C662 0.930 . S
H657 C665 0.930 . S
H658 C666 0.930 . S
H659 C667 0.930 . S
H660 C670 0.930 . S
H661 C671 0.930 . S
C662 H656 0.930 . S
C662 C663 1.355 . S
C662 C664 1.415 . S
C663 C662 1.355 . S
C663 C665 1.419 . S
C664 C662 1.415 . S
C664 C669 1.425 . S
C664 C671 1.409 . S
C665 H657 0.930 . S
C665 C663 1.419 . S
C665 C666 1.362 . S
C666 H658 0.930 . S
C666 C665 1.362 . S
C666 C669 1.409 . S
C667 H659 0.930 . S
C667 C668 1.355 . S
C667 C669 1.415 . S
C668 C667 1.355 . S
C668 C670 1.419 . S
C669 C664 1.425 . S
C669 C666 1.409 . S
C669 C667 1.415 . S
C670 H660 0.930 . S
C670 C668 1.419 . S
C670 C671 1.362 . S
C671 H661 0.930 . S
C671 C664 1.409 . S
C671 C670 1.362 . S
H672 C678 0.930 . S
H673 C681 0.930 . S
H674 C682 0.930 . S
H675 C683 0.930 . S
H676 C686 0.930 . S
H677 C687 0.930 . S
C678 H672 0.930 . S
C678 C679 1.355 . S
C678 C680 1.415 . S
C679 C678 1.355 . S
C679 C681 1.419 . S
C680 C678 1.415 . S
C680 C685 1.425 . S
C680 C687 1.409 . S
C681 H673 0.930 . S
C681 C679 1.419 . S
C681 C682 1.362 . S
C682 H674 0.930 . S
C682 C681 1.362 . S
C682 C685 1.409 . S
C683 H675 0.930 . S
C683 C684 1.355 . S
C683 C685 1.415 . S
C684 C683 1.355 . S
C684 C686 1.419 . S
C685 C680 1.425 . S
C685 C682 1.409 . S
C685 C683 1.415 . S
C686 H676 0.930 . S
C686 C684 1.419 . S
C686 C687 1.362 . S
C687 H677 0.930 . S
C687 C680 1.409 . S
C687 C686 1.362 . S
H688 C694 0.930 . S
H689 C697 0.930 . S
H690 C698 0.930 . S
H691 C699 0.930 . S
H692 C702 0.930 . S
H693 C703 0.930 . S
C694 H688 0.930 . S
C694 C695 1.355 . S
C694 C696 1.415 . S
C695 C694 1.355 . S
C695 C697 1.419 . S
C696 C694 1.415 . S
C696 C701 1.425 . S
C696 C703 1.409 . S
C697 H689 0.930 . S
C697 C695 1.419 . S
C697 C698 1.362 . S
C698 H690 0.930 . S
C698 C697 1.362 . S
C698 C701 1.409 . S
C699 H691 0.930 . S
C699 C700 1.355 . S
C699 C701 1.415 . S
C700 C699 1.355 . S
C700 C702 1.419 . S
C701 C696 1.425 . S
C701 C698 1.409 . S
C701 C699 1.415 . S
C702 H692 0.930 . S
C702 C700 1.419 . S
C702 C703 1.362 . S
C703 H693 0.930 . S
C703 C696 1.409 . S
C703 C702 1.362 . S
H704 C710 0.930 . S
H705 C713 0.930 . S
H706 C714 0.930 . S
H707 C715 0.930 . S
H708 C718 0.930 . S
H709 C719 0.930 . S
C710 H704 0.930 . S
C710 C711 1.355 . S
C710 C712 1.415 . S
C711 C710 1.355 . S
C711 C713 1.419 . S
C712 C710 1.415 . S
C712 C717 1.425 . S
C712 C719 1.409 . S
C713 H705 0.930 . S
C713 C711 1.419 . S
C713 C714 1.362 . S
C714 H706 0.930 . S
C714 C713 1.362 . S
C714 C717 1.409 . S
C715 H707 0.930 . S
C715 C716 1.355 . S
C715 C717 1.415 . S
C716 C715 1.355 . S
C716 C718 1.419 . S
C717 C712 1.425 . S
C717 C714 1.409 . S
C717 C715 1.415 . S
C718 H708 0.930 . S
C718 C716 1.419 . S
C718 C719 1.362 . S
C719 H709 0.930 . S
C719 C712 1.409 . S
C719 C718 1.362 . S
C215 C195 0.921 . S
C220 C0 0.988 . S
C231 C156 1.055 . S
C236 C13 1.064 . S
C247 C26 0.972 . S
C252 C169 1.015 . S
C263 C182 1.062 . S
C268 C39 1.070 . S
C279 C117 1.146 . S
C284 C52 1.132 . S
C295 C65 1.033 . S
C300 C130 0.967 . S
C311 C78 1.100 . S
C316 C143 1.095 . S
C327 C91 0.994 . S
C332 C104 0.913 . S
C343 C70 1.183 . S
C348 C5 1.214 . S
C359 C86 1.430 . S
C364 C18 1.478 . S
C375 C96 1.336 . S
C380 C31 1.288 . S
C391 C49 1.521 . S
C396 C60 1.404 . S
C407 C8 1.376 . S
C412 C23 1.374 . S
C423 C36 1.546 . S
C428 C21 1.449 . S
C439 C34 1.417 . S
C444 C47 1.399 . S
C455 C10 1.453 . S
C460 C44 1.412 . S
C471 C101 1.419 . S
C476 C62 1.450 . S
C487 C57 1.314 . S
C492 C73 1.339 . S
C503 C75 1.374 . S
C508 C88 1.421 . S
C519 C99 1.247 . S
C524 C83 1.311 . S
C535 C174 1.231 . S
C540 C109 1.143 . S
C551 C122 1.445 . S
C556 C190 1.466 . S
C567 C200 1.316 . S
C572 C135 1.313 . S
C583 C164 1.434 . S
C588 C153 1.474 . S
C599 C112 1.406 . S
C604 C127 1.374 . S
C615 C125 1.487 . S
C620 C140 1.496 . S
C631 C151 1.392 . S
C636 C138 1.432 . S
C647 C114 1.465 . S
C652 C148 1.376 . S
C663 C205 1.435 . S
C668 C166 1.442 . S
C679 C161 1.384 . S
C684 C177 1.323 . S
C695 C179 1.362 . S
C700 C192 1.390 . S
C711 C203 1.286 . S
C716 C187 1.289 . S
