# Generated by pormake.
# Topology dia, (4)-cn, num edge types: 1
# Building blocks:
#     Node 0, Type 0, BuildingBlock: QUQFOY_clean_sbu_1, # of connection points: 4
#     Node 1, Type 0, BuildingBlock: QUQFOY_clean_sbu_1, # of connection points: 4
#     Node 2, Type 0, BuildingBlock: QUQFOY_clean_sbu_1, # of connection points: 4
#     Node 3, Type 0, BuildingBlock: QUQFOY_clean_sbu_1, # of connection points: 4
#     Node 4, Type 0, BuildingBlock: QUQFOY_clean_sbu_1, # of connection points: 4
#     Node 5, Type 0, BuildingBlock: QUQFOY_clean_sbu_1, # of connection points: 4
#     Node 6, Type 0, BuildingBlock: QUQFOY_clean_sbu_1, # of connection points: 4
#     Node 7, Type 0, BuildingBlock: QUQFOY_clean_sbu_1, # of connection points: 4
#     Edge 8, Type (0, 0), BuildingBlock: FUNLAD_clean_linker_0, # of connection points: 2
#     Edge 9, Type (0, 0), BuildingBlock: FUNLAD_clean_linker_0, # of connection points: 2
#     Edge 10, Type (0, 0), BuildingBlock: FUNLAD_clean_linker_0, # of connection points: 2
#     Edge 11, Type (0, 0), BuildingBlock: FUNLAD_clean_linker_0, # of connection points: 2
#     Edge 12, Type (0, 0), BuildingBlock: FUNLAD_clean_linker_0, # of connection points: 2
#     Edge 13, Type (0, 0), BuildingBlock: FUNLAD_clean_linker_0, # of connection points: 2
#     Edge 14, Type (0, 0), BuildingBlock: FUNLAD_clean_linker_0, # of connection points: 2
#     Edge 15, Type (0, 0), BuildingBlock: FUNLAD_clean_linker_0, # of connection points: 2
#     Edge 16, Type (0, 0), BuildingBlock: FUNLAD_clean_linker_0, # of connection points: 2
#     Edge 17, Type (0, 0), BuildingBlock: FUNLAD_clean_linker_0, # of connection points: 2
#     Edge 18, Type (0, 0), BuildingBlock: FUNLAD_clean_linker_0, # of connection points: 2
#     Edge 19, Type (0, 0), BuildingBlock: FUNLAD_clean_linker_0, # of connection points: 2
#     Edge 20, Type (0, 0), BuildingBlock: FUNLAD_clean_linker_0, # of connection points: 2
#     Edge 21, Type (0, 0), BuildingBlock: FUNLAD_clean_linker_0, # of connection points: 2
#     Edge 22, Type (0, 0), BuildingBlock: FUNLAD_clean_linker_0, # of connection points: 2
#     Edge 23, Type (0, 0), BuildingBlock: FUNLAD_clean_linker_0, # of connection points: 2
# Relax obj value: 0.201
# Max RMSD: 0.232
# Mean RMSD: 0.232
data_MOF--net-dia--node1-QUQFOY_clean_sbu_1--edge1-FUNLAD_clean_linker_0
_symmetry_space_group_name_H-M    P1
_symmetry_Int_Tables_number       1
_symmetry_cell_setting            triclinic
loop_
_symmetry_equiv_pos_as_xyz
'x, y, z'
_cell_length_a     40.045608
_cell_length_b     40.261058
_cell_length_c     46.412032
_cell_angle_alpha  90.476551
_cell_angle_beta   90.212899
_cell_angle_gamma 99.778745
loop_
_atom_site_label
_atom_site_type_symbol
_atom_site_fract_x
_atom_site_fract_y
_atom_site_fract_z
_atom_type_partial_charge
O0 O 0.125 0.15298 0.60101 0.0
Cd1 Cd 0.08743 0.12194 0.62266 0.0
Cd2 Cd 0.13605 0.08178 0.62789 0.0
O3 O 0.16423 0.12105 0.60595 0.0
O4 O 0.05296 0.15043 0.63235 0.0
O5 O 0.08131 0.127 0.66535 0.0
C6 C 0.05902 0.14564 0.65917 0.0
C7 C 0.16369 0.05822 0.66496 0.0
C8 C 0.15486 0.14753 0.59647 0.0
C9 C 0.07271 0.05372 0.59461 0.0
O10 O 0.10119 0.04891 0.60429 0.0
O11 O 0.06216 0.08118 0.59986 0.0
O12 O 0.17041 0.05358 0.63829 0.0
O13 O 0.14101 0.07654 0.67081 0.0
O14 O 0.81185 0.34264 0.89443 0.0
Cd15 Cd 0.84421 0.37945 0.87279 0.0
Cd16 Cd 0.88224 0.32789 0.87088 0.0
O17 O 0.84005 0.30045 0.88929 0.0
O18 O 0.81587 0.41514 0.86766 0.0
O19 O 0.83601 0.38947 0.83102 0.0
C20 C 0.81825 0.41129 0.84023 0.0
C21 C 0.90891 0.30234 0.83415 0.0
C22 C 0.81449 0.31202 0.89855 0.0
C23 C 0.90994 0.39019 0.90532 0.0
O24 O 0.9125 0.36012 0.89853 0.0
O25 O 0.88574 0.40365 0.89563 0.0
O26 O 0.9108 0.29366 0.86066 0.0
O27 O 0.89158 0.32576 0.82829 0.0
O28 O 0.63834 0.15794 0.1039 0.0
Cd29 Cd 0.59991 0.13025 0.12715 0.0
Cd30 Cd 0.64536 0.08497 0.12871 0.0
O31 O 0.67399 0.12178 0.10446 0.0
O32 O 0.56807 0.16255 0.13318 0.0
O33 O 0.59206 0.13957 0.16914 0.0
C34 C 0.57194 0.15941 0.16051 0.0
C35 C 0.67345 0.05988 0.16457 0.0
C36 C 0.66628 0.14961 0.09644 0.0
C37 C 0.57807 0.06203 0.0997 0.0
O38 O 0.60624 0.05455 0.10762 0.0
O39 O 0.57071 0.09077 0.10564 0.0
O40 O 0.6774 0.05371 0.13765 0.0
O41 O 0.65336 0.08063 0.17133 0.0
O42 O 0.81576 0.83775 0.39607 0.0
Cd43 Cd 0.84777 0.86964 0.37003 0.0
Cd44 Cd 0.88543 0.81783 0.37486 0.0
O45 O 0.8422 0.79389 0.39486 0.0
O46 O 0.8201 0.9048 0.36073 0.0
O47 O 0.83872 0.87309 0.32742 0.0
C48 C 0.82189 0.89674 0.33396 0.0
C49 C 0.91133 0.78686 0.34143 0.0
C50 C 0.81742 0.8076 0.40289 0.0
C51 C 0.91442 0.88552 0.4009 0.0
O52 O 0.91677 0.85454 0.3983 0.0
O53 O 0.88978 0.89684 0.38955 0.0
O54 O 0.91318 0.7818 0.36871 0.0
O55 O 0.89443 0.80965 0.33293 0.0
O56 O 0.1379 0.6534 0.10467 0.0
Cd57 Cd 0.09922 0.6219 0.12508 0.0
Cd58 Cd 0.14876 0.58144 0.12619 0.0
O59 O 0.17865 0.62326 0.10974 0.0
O60 O 0.06475 0.65161 0.13083 0.0
O61 O 0.08849 0.6288 0.16699 0.0
C62 C 0.06767 0.64783 0.15818 0.0
C63 C 0.17187 0.55256 0.16262 0.0
C64 C 0.1685 0.64966 0.10104 0.0
C65 C 0.08628 0.55788 0.09047 0.0
O66 O 0.11604 0.55372 0.09723 0.0
O67 O 0.07375 0.58228 0.10093 0.0
O68 O 0.18123 0.55097 0.13619 0.0
O69 O 0.14902 0.57068 0.16851 0.0
O70 O 0.31509 0.34073 0.39904 0.0
Cd71 Cd 0.34829 0.37537 0.37634 0.0
Cd72 Cd 0.38733 0.32476 0.37755 0.0
O73 O 0.34597 0.30029 0.39964 0.0
O74 O 0.32088 0.41025 0.36556 0.0
O75 O 0.34339 0.37987 0.33341 0.0
C76 C 0.32537 0.4029 0.33894 0.0
C77 C 0.41227 0.29363 0.34361 0.0
C78 C 0.31925 0.31146 0.40658 0.0
C79 C 0.41566 0.39056 0.40671 0.0
O80 O 0.41993 0.36095 0.39994 0.0
O81 O 0.38899 0.40135 0.39898 0.0
O82 O 0.415 0.28885 0.37085 0.0
O83 O 0.39483 0.31609 0.33541 0.0
O84 O 0.31418 0.84273 0.89858 0.0
Cd85 Cd 0.34343 0.88007 0.87539 0.0
Cd86 Cd 0.38953 0.83583 0.87889 0.0
O87 O 0.35097 0.80787 0.90186 0.0
O88 O 0.31094 0.91049 0.86548 0.0
O89 O 0.33725 0.88469 0.83255 0.0
C90 C 0.31622 0.90471 0.83871 0.0
C91 C 0.41844 0.8073 0.84578 0.0
C92 C 0.32223 0.8155 0.90773 0.0
C93 C 0.40925 0.90438 0.90622 0.0
O94 O 0.41755 0.87603 0.90036 0.0
O95 O 0.38096 0.91114 0.8978 0.0
O96 O 0.42252 0.80461 0.87314 0.0
O97 O 0.39753 0.82625 0.837 0.0
O98 O 0.62411 0.6597 0.60255 0.0
Cd99 Cd 0.59036 0.62864 0.62785 0.0
Cd100 Cd 0.64309 0.59036 0.62604 0.0
O101 O 0.66781 0.63302 0.60604 0.0
O102 O 0.55423 0.65612 0.63471 0.0
O103 O 0.58415 0.63895 0.66996 0.0
C104 C 0.56059 0.65517 0.66186 0.0
C105 C 0.67437 0.56453 0.65919 0.0
C106 C 0.65471 0.65762 0.59701 0.0
C107 C 0.57604 0.56123 0.59818 0.0
O108 O 0.60691 0.55872 0.60228 0.0
O109 O 0.56424 0.58628 0.60818 0.0
O110 O 0.67937 0.56279 0.63187 0.0
O111 O 0.65143 0.58126 0.66792 0.0
C112 C 0.30155 0.26195 0.43854 0.0
C113 C 0.29433 0.29152 0.42584 0.0
C114 C 0.2801 0.24527 0.45939 0.0
C115 C 0.25096 0.25783 0.46799 0.0
C116 C 0.24272 0.28624 0.45419 0.0
C117 C 0.26432 0.30312 0.43347 0.0
C118 C 0.22868 0.24167 0.49113 0.0
C119 C 0.2408 0.22655 0.51375 0.0
C120 C 0.21909 0.20878 0.5366 0.0
C121 C 0.23125 0.1835 0.55209 0.0
C122 C 0.21087 0.16443 0.57237 0.0
C123 C 0.17791 0.17047 0.57779 0.0
H124 H 0.17696 0.2362 0.53245 0.0
C125 C 0.16639 0.19703 0.56344 0.0
C126 C 0.18677 0.21605 0.54307 0.0
H127 H 0.14125 0.20259 0.56735 0.0
H128 H 0.32426 0.25212 0.43297 0.0
H129 H 0.2865 0.22261 0.46875 0.0
H130 H 0.22009 0.29604 0.46012 0.0
H131 H 0.25787 0.32568 0.42393 0.0
H132 H 0.2019 0.24295 0.48952 0.0
H133 H 0.26777 0.22591 0.51513 0.0
H134 H 0.25624 0.17772 0.54784 0.0
H135 H 0.22066 0.14435 0.5832 0.0
C136 C 0.68916 0.54905 0.70942 0.0
C137 C 0.6943 0.5475 0.67956 0.0
C138 C 0.70788 0.53244 0.72841 0.0
C139 C 0.73203 0.51371 0.71784 0.0
C140 C 0.73744 0.51272 0.68801 0.0
C141 C 0.71877 0.52928 0.6691 0.0
C142 C 0.75258 0.49532 0.7369 0.0
C143 C 0.74403 0.48629 0.76414 0.0
C144 C 0.76442 0.46745 0.78285 0.0
C145 C 0.76138 0.47034 0.81282 0.0
C146 C 0.77927 0.45248 0.83133 0.0
C147 C 0.80037 0.4309 0.82029 0.0
H148 H 0.78782 0.44206 0.74875 0.0
C149 C 0.80337 0.42778 0.79028 0.0
C150 C 0.78556 0.44583 0.77171 0.0
H151 H 0.8192 0.41113 0.78112 0.0
H152 H 0.67071 0.56315 0.71817 0.0
H153 H 0.70356 0.53488 0.75124 0.0
H154 H 0.756 0.49878 0.67922 0.0
H155 H 0.72351 0.52767 0.64621 0.0
H156 H 0.77542 0.48853 0.72774 0.0
H157 H 0.72139 0.49315 0.77357 0.0
H158 H 0.74512 0.48657 0.82201 0.0
H159 H 0.77622 0.45538 0.85434 0.0
C160 C 0.52671 0.04859 0.06814 0.0
C161 C 0.55528 0.03852 0.08081 0.0
C162 C 0.50788 0.02847 0.04716 0.0
C163 C 0.51732 -0.00214 0.0384 0.0
C164 C 0.54452 -0.01319 0.05234 0.0
C165 C 0.56347 0.00701 0.07323 0.0
C166 C 0.49965 0.97699 0.0147 0.0
C167 C 0.48451 -0.0099 0.99255 0.0
C168 C 0.46741 0.96915 0.96866 0.0
C169 C 0.43974 -0.0206 0.95478 0.0
C170 C 0.42157 0.95904 0.93356 0.0
C171 C 0.43106 0.9282 0.92557 0.0
H172 H 0.50018 0.93129 0.96889 0.0
C173 C 0.46005 0.91899 0.93823 0.0
C174 C 0.47807 0.93926 0.95954 0.0
H175 H 0.46832 0.89561 0.93234 0.0
H176 H 0.51944 0.07254 0.07374 0.0
H177 H 0.48617 0.03713 0.03776 0.0
H178 H 0.55192 0.96304 0.04631 0.0
H179 H 0.58516 -0.00164 0.08275 0.0
H180 H 0.5003 0.95015 0.01511 0.0
H181 H 0.48373 0.01691 0.99209 0.0
H182 H 0.43142 0.00264 0.9611 0.0
H183 H 0.39951 0.96702 0.92406 0.0
C184 C 0.9274 0.77295 0.29102 0.0
C185 C 0.92853 0.76724 0.3208 0.0
C186 C 0.94431 0.75467 0.27179 0.0
C187 C 0.96291 0.73037 0.28201 0.0
C188 C 0.9634 0.72431 0.31172 0.0
C189 C 0.94656 0.74257 0.3309 0.0
C190 C 0.98164 0.71037 0.26262 0.0
C191 C -0.00815 0.72004 0.23589 0.0
C192 C 0.011 0.70027 0.21672 0.0
C193 C 0.00948 0.70512 0.18689 0.0
C194 C 0.02757 0.68778 0.168 0.0
C195 C 0.04802 0.66539 0.17851 0.0
H196 H 0.03429 0.67418 0.25022 0.0
C197 C 0.04985 0.66062 0.20838 0.0
C198 C 0.03155 0.67789 0.22734 0.0
H199 H 0.0656 0.64375 0.21715 0.0
H200 H 0.91345 0.79156 0.28255 0.0
H201 H 0.94222 0.75943 0.24902 0.0
H202 H 0.97721 0.7056 0.32022 0.0
H203 H 0.94783 0.73738 0.3537 0.0
H204 H 0.9877 0.68707 0.27113 0.0
H205 H 0.98578 0.74325 0.22723 0.0
H206 H -0.00589 0.72236 0.17811 0.0
H207 H 0.02569 0.6922 0.1451 0.0
C208 C 0.27451 0.94094 0.82376 0.0
C209 C 0.29853 0.92077 0.81605 0.0
C210 C 0.25772 0.95646 0.80268 0.0
C211 C 0.26482 0.95245 0.77331 0.0
C212 C 0.28848 0.93187 0.76562 0.0
C213 C 0.30526 0.91625 0.78675 0.0
C214 C 0.24749 0.96845 0.7501 0.0
C215 C 0.2325 -0.00429 0.75425 0.0
C216 C 0.21524 0.01156 0.73094 0.0
C217 C 0.19047 0.03099 0.73835 0.0
C218 C 0.17365 0.04629 0.71703 0.0
C219 C 0.18151 0.04265 0.68784 0.0
H220 H 0.24329 -0.00509 0.69504 0.0
C221 C 0.20673 0.02375 0.68046 0.0
C222 C 0.22351 0.00851 0.70171 0.0
H223 H 0.2137 0.02078 0.65817 0.0
H224 H 0.26843 0.94463 0.84615 0.0
H225 H 0.23884 0.97101 0.80967 0.0
H226 H 0.29421 0.92804 0.74316 0.0
H227 H 0.32353 0.90075 0.78012 0.0
H228 H 0.24751 0.95725 0.72876 0.0
H229 H 0.2323 0.00693 0.77556 0.0
H230 H 0.18385 0.03407 0.76072 0.0
H231 H 0.15445 0.06083 0.72342 0.0
C232 C 0.9406 0.44345 0.92791 0.0
C233 C 0.93281 0.40811 0.92744 0.0
C234 C 0.95974 0.46023 0.95057 0.0
C235 C 0.9705 0.44187 0.97343 0.0
C236 C 0.96278 0.40662 0.97292 0.0
C237 C 0.94461 0.38983 0.94986 0.0
C238 C 0.98828 0.45911 0.99869 0.0
C239 C 0.01436 0.48455 0.99589 0.0
C240 C 0.03238 0.50138 0.02122 0.0
C241 C 0.06786 0.50796 0.02147 0.0
C242 C 0.08536 0.52487 0.04482 0.0
C243 C 0.06759 0.53651 0.0678 0.0
H244 H 0.98707 0.50763 0.04461 0.0
C245 C 0.03202 0.52996 0.06753 0.0
C246 C 0.01452 0.5121 0.04457 0.0
H247 H 0.01778 0.53889 0.08492 0.0
H248 H 0.93158 0.45808 0.91096 0.0
H249 H 0.96508 0.48752 0.95075 0.0
H250 H 0.97074 0.39208 0.99043 0.0
H251 H 0.93855 0.36256 0.95022 0.0
H252 H 0.98104 0.4494 0.01997 0.0
H253 H 0.02395 0.4919 0.97458 0.0
H254 H 0.08203 0.50001 0.00359 0.0
H255 H 0.1128 0.53002 0.04432 0.0
C256 C 0.42922 0.28117 0.29314 0.0
C257 C 0.42942 0.2743 0.32275 0.0
C258 C 0.44674 0.26363 0.27381 0.0
C259 C 0.46494 0.23891 0.28379 0.0
C260 C 0.46429 0.2315 0.31327 0.0
C261 C 0.44692 0.24908 0.33256 0.0
C262 C 0.48444 0.21988 0.26431 0.0
C263 C 0.49672 0.23146 0.23864 0.0
C264 C 0.51648 0.2125 0.21937 0.0
C265 C 0.5163 0.21884 0.18972 0.0
C266 C 0.53437 0.20162 0.17072 0.0
C267 C 0.55346 0.17791 0.181 0.0
H268 H 0.53775 0.18434 0.2526 0.0
C269 C 0.55432 0.17201 0.21075 0.0
C270 C 0.53602 0.18913 0.22979 0.0
H271 H 0.56902 0.15408 0.21934 0.0
H272 H 0.41571 0.30026 0.2849 0.0
H273 H 0.44556 0.26932 0.25114 0.0
H274 H 0.47774 0.21238 0.32154 0.0
H275 H 0.44742 0.24298 0.35522 0.0
H276 H 0.48941 0.19574 0.27189 0.0
H277 H 0.49175 0.25553 0.23094 0.0
H278 H 0.50178 0.23694 0.18113 0.0
H279 H 0.53332 0.20694 0.14793 0.0
C280 C 0.77703 0.80751 0.44353 0.0
C281 C 0.79195 0.78948 0.42252 0.0
C282 C 0.75552 0.79044 0.46415 0.0
C283 C 0.74795 0.75511 0.46364 0.0
C284 C 0.76153 0.73712 0.44187 0.0
C285 C 0.78389 0.75415 0.42173 0.0
C286 C 0.72631 0.73671 0.48596 0.0
C287 C 0.73161 0.74391 0.5141 0.0
C288 C 0.71159 0.72383 0.53646 0.0
C289 C 0.72819 0.71127 0.55957 0.0
C290 C 0.70968 0.69008 0.57971 0.0
C291 C 0.67422 0.68224 0.57753 0.0
H292 H 0.66282 0.72645 0.51711 0.0
C293 C 0.65754 0.69628 0.55519 0.0
C294 C 0.67612 0.71658 0.53459 0.0
H295 H 0.63023 0.69049 0.55296 0.0
H296 H 0.78295 0.83477 0.44468 0.0
H297 H 0.74489 0.80481 0.48054 0.0
H298 H 0.75576 0.70984 0.44108 0.0
H299 H 0.79501 0.73974 0.40567 0.0
H300 H 0.70761 0.71513 0.47935 0.0
H301 H 0.75284 0.76296 0.52087 0.0
H302 H 0.75555 0.71681 0.56141 0.0
H303 H 0.72306 0.67962 0.59681 0.0
C304 C 0.21028 0.51291 0.17765 0.0
C305 C 0.18731 0.53426 0.18524 0.0
C306 C 0.22554 0.49592 0.19876 0.0
C307 C 0.21843 0.50016 0.22812 0.0
C308 C 0.19499 0.52107 0.23563 0.0
C309 C 0.17961 0.538 0.21445 0.0
C310 C 0.23429 0.48289 0.25149 0.0
C311 C 0.26272 0.46941 0.24823 0.0
C312 C 0.27846 0.45263 0.27191 0.0
C313 C 0.29898 0.42868 0.26493 0.0
C314 C 0.31434 0.41247 0.28661 0.0
C315 C 0.30977 0.42019 0.31574 0.0
H316 H 0.25986 0.47989 0.30742 0.0
C317 C 0.28977 0.44462 0.3227 0.0
C318 C 0.27438 0.46073 0.30108 0.0
H319 H 0.28598 0.45141 0.34494 0.0
H320 H 0.21647 0.50916 0.15529 0.0
H321 H 0.24243 0.47925 0.19172 0.0
H322 H 0.18875 0.52461 0.25802 0.0
H323 H 0.16193 0.55417 0.22099 0.0
H324 H 0.22196 0.48166 0.27234 0.0
H325 H 0.27511 0.47014 0.22746 0.0
H326 H 0.30288 0.42223 0.24262 0.0
H327 H 0.32972 0.39389 0.28052 0.0
C328 C 0.79618 0.25945 0.9267 0.0
C329 C 0.78989 0.29095 0.91735 0.0
C330 C 0.77627 0.24198 0.94812 0.0
C331 C 0.74962 0.25566 0.96062 0.0
C332 C 0.7418 0.28588 0.94985 0.0
C333 C 0.76188 0.30352 0.92855 0.0
C334 C 0.72999 0.23932 0.98518 0.0
C335 C 0.74401 0.2221 0.0054 0.0
C336 C 0.72503 0.20571 0.03032 0.0
C337 C 0.73628 0.17812 0.04313 0.0
C338 C 0.71801 0.16068 0.06549 0.0
C339 C 0.68822 0.17073 0.07571 0.0
H340 H 0.68759 0.23893 0.03313 0.0
C341 C 0.67804 0.19953 0.06399 0.0
C342 C 0.69626 0.2169 0.04157 0.0
H343 H 0.65542 0.2082 0.07157 0.0
H344 H 0.8173 0.24882 0.9183 0.0
H345 H 0.7821 0.21801 0.9551 0.0
H346 H 0.721 0.2966 0.95879 0.0
H347 H 0.75615 0.32757 0.92163 0.0
H348 H 0.70379 0.24278 0.98702 0.0
H349 H 0.77034 0.21905 0.00339 0.0
H350 H 0.75869 0.16934 0.03519 0.0
H351 H 0.72671 0.13873 0.07415 0.0
C352 C 0.78513 0.93835 0.32012 0.0
C353 C 0.80482 0.91417 0.31179 0.0
C354 C 0.76866 0.95493 0.29955 0.0
C355 C 0.77176 0.94797 0.27 0.0
C356 C 0.79118 0.92352 0.26172 0.0
C357 C 0.80762 0.90683 0.28237 0.0
C358 C 0.75439 0.96477 0.2473 0.0
C359 C 0.74307 -0.0058 0.2513 0.0
C360 C 0.72546 0.01068 0.2286 0.0
C361 C 0.70415 0.03341 0.2369 0.0
C362 C 0.68717 0.04948 0.21621 0.0
C363 C 0.69142 0.04333 0.18674 0.0
H364 H 0.7472 -0.01131 0.19161 0.0
C365 C 0.71318 0.02104 0.17841 0.0
C366 C 0.7301 0.00499 0.19905 0.0
H367 H 0.71731 0.01601 0.15586 0.0
H368 H 0.78212 0.94435 0.34266 0.0
H369 H 0.75308 0.9726 0.30714 0.0
H370 H 0.79379 0.91739 0.23915 0.0
H371 H 0.82249 0.88823 0.27526 0.0
H372 H 0.75105 0.95218 0.22648 0.0
H373 H 0.74621 0.00686 0.27209 0.0
H374 H 0.70037 0.03853 0.2595 0.0
H375 H 0.67071 0.06663 0.22332 0.0
C376 C 0.96139 0.89486 0.43748 0.0
C377 C 0.93846 0.908 0.41963 0.0
C378 C 0.98069 0.91538 0.45803 0.0
C379 C 0.97735 0.94948 0.46112 0.0
C380 C 0.95599 0.96299 0.44209 0.0
C381 C 0.93663 0.94249 0.42168 0.0
C382 C -0.00505 0.97176 0.4841 0.0
C383 C 0.00608 0.96045 0.50899 0.0
C384 C 0.02136 -0.0163 0.5322 0.0
C385 C 0.04732 0.97476 0.5493 0.0
C386 C 0.06336 -0.00294 0.5703 0.0
C387 C 0.05328 0.02848 0.5749 0.0
H388 H 0.98936 0.02151 0.52562 0.0
C389 C 0.026 0.03657 0.55882 0.0
C390 C 0.01022 0.01443 0.53767 0.0
H391 H 0.01741 0.06044 0.56197 0.0
H392 H 0.96365 0.86845 0.43625 0.0
H393 H -0.00215 0.90427 0.47151 0.0
H394 H 0.95331 -0.01072 0.4437 0.0
H395 H 0.91947 0.95353 0.40807 0.0
H396 H -0.00266 -0.00124 0.48085 0.0
H397 H 0.00449 0.93365 0.5126 0.0
H398 H 0.05592 0.95095 0.5458 0.0
H399 H 0.08412 -0.01006 0.58248 0.0
C400 C 0.94689 0.2622 0.81899 0.0
C401 C 0.92628 0.28578 0.81143 0.0
C402 C 0.96347 0.24633 0.79787 0.0
C403 C 0.95955 0.25339 0.7685 0.0
C404 C 0.93922 0.27728 0.76101 0.0
C405 C 0.92271 0.29328 0.78221 0.0
C406 C 0.97683 0.23723 0.74517 0.0
C407 C 0.98973 0.20859 0.74846 0.0
C408 C 0.00718 0.19282 0.72508 0.0
C409 C 0.0303 0.17164 0.73254 0.0
C410 C 0.0472 0.15624 0.71122 0.0
C411 C 0.04104 0.16147 0.68194 0.0
H412 H 0.98218 0.21271 0.68897 0.0
C413 C 0.01747 0.18218 0.67445 0.0
C414 C 0.00065 0.1976 0.69573 0.0
H415 H 0.01187 0.18647 0.65207 0.0
H416 H 0.95051 0.25612 0.84136 0.0
H417 H 0.97971 0.22908 0.80491 0.0
H418 H 0.93594 0.28348 0.73862 0.0
H419 H 0.9071 0.31142 0.77568 0.0
H420 H 0.97877 0.24963 0.72442 0.0
H421 H 0.98813 0.19611 0.76913 0.0
H422 H 0.03557 0.16721 0.75497 0.0
H423 H 0.06509 0.14031 0.71771 0.0
C424 C 0.54859 0.67265 0.71235 0.0
C425 C 0.54132 0.67239 0.68271 0.0
C426 C 0.53033 0.68936 0.73176 0.0
C427 C 0.50449 0.70628 0.72183 0.0
C428 C 0.49698 0.70546 0.69227 0.0
C429 C 0.51523 0.68888 0.67293 0.0
C430 C 0.4842 0.72442 0.7414 0.0
C431 C 0.49471 0.73608 0.76776 0.0
C432 C 0.47434 0.75441 0.78704 0.0
C433 C 0.48014 0.75385 0.81683 0.0
C434 C 0.46183 0.77086 0.83581 0.0
C435 C 0.4375 0.78924 0.82539 0.0
H436 H 0.44574 0.77511 0.75365 0.0
C437 C 0.43196 0.79029 0.79554 0.0
C438 C 0.45021 0.77309 0.77652 0.0
H439 H 0.41361 0.80447 0.78685 0.0
H440 H 0.56835 0.65991 0.72057 0.0
H441 H 0.53628 0.68838 0.75445 0.0
H442 H 0.47707 0.71799 0.68401 0.0
H443 H 0.50882 0.68904 0.65024 0.0
H444 H 0.45984 0.72873 0.73333 0.0
H445 H 0.51895 0.73171 0.77603 0.0
H446 H 0.49875 0.73996 0.82552 0.0
H447 H 0.46689 0.76969 0.85869 0.0
C448 C 0.17876 0.70004 0.06902 0.0
C449 C 0.19133 0.67417 0.08348 0.0
C450 C 0.19864 0.71971 0.04876 0.0
C451 C 0.23151 0.71382 0.04254 0.0
C452 C 0.24488 0.68963 0.05846 0.0
C453 C 0.22496 0.66985 0.07862 0.0
C454 C 0.25226 0.73175 0.01925 0.0
C455 C 0.23866 0.74336 0.99556 0.0
C456 C 0.25953 0.75984 0.97171 0.0
C457 C 0.24731 0.78457 0.95559 0.0
C458 C 0.26714 0.80187 0.93398 0.0
C459 C 0.29941 0.79435 0.92782 0.0
H460 H 0.30068 0.73123 0.97582 0.0
C461 C 0.3108 0.76823 0.94289 0.0
C462 C 0.29108 0.75114 0.96462 0.0
H463 H 0.3354 0.7616 0.93852 0.0
H464 H 0.15309 0.70433 0.07252 0.0
H465 H 0.18799 0.73913 0.0378 0.0
H466 H 0.27034 0.68502 0.05442 0.0
H467 H 0.23555 0.65036 0.08959 0.0
H468 H 0.27958 0.73394 0.02116 0.0
H469 H 0.21137 0.74135 0.99354 0.0
H470 H 0.22282 0.79128 0.96032 0.0
H471 H 0.2575 0.82168 0.92263 0.0
C472 C 0.43247 0.44056 0.43914 0.0
C473 C 0.44045 0.41136 0.42598 0.0
C474 C 0.45391 0.45794 0.46004 0.0
C475 C 0.48384 0.4465 0.46817 0.0
C476 C 0.49281 0.41852 0.45388 0.0
C477 C 0.47119 0.40089 0.43315 0.0
C478 C 0.50609 0.4634 0.49139 0.0
C479 C 0.49355 0.47714 0.51467 0.0
C480 C 0.51479 0.49597 0.53771 0.0
C481 C 0.50051 0.51881 0.55474 0.0
C482 C 0.52005 0.53904 0.57523 0.0
C483 C 0.55434 0.53666 0.57933 0.0
H484 H 0.56029 0.47406 0.53099 0.0
C485 C 0.5682 0.51245 0.56345 0.0
C486 C 0.54864 0.49226 0.54285 0.0
H487 H 0.59447 0.50976 0.56629 0.0
H488 H 0.40914 0.44948 0.43394 0.0
H489 H 0.44691 0.48024 0.46987 0.0
H490 H 0.51604 0.40959 0.45945 0.0
H491 H 0.47823 0.37865 0.42322 0.0
H492 H 0.53312 0.46383 0.48924 0.0
H493 H 0.4663 0.47578 0.51647 0.0
H494 H 0.47438 0.52186 0.55155 0.0
H495 H 0.50845 0.55721 0.58726 0.0
loop_
_geom_bond_atom_site_label_1
_geom_bond_atom_site_label_2
_geom_bond_distance
_geom_bond_site_symmetry_2
_ccdc_geom_bond_type
O0 Cd1 2.223 . S
O0 C8 1.315 . S
Cd1 O0 2.223 . S
Cd1 O4 2.297 . S
Cd1 O5 2.439 . S
Cd1 O11 2.240 . S
Cd2 O3 2.240 . S
Cd2 O10 2.223 . S
Cd2 O12 2.297 . S
Cd2 O13 2.439 . S
O3 Cd2 2.240 . S
O3 C8 1.279 . S
O4 Cd1 2.297 . S
O4 C6 1.247 . S
O5 Cd1 2.439 . S
O5 C6 1.208 . S
C6 O4 1.247 . S
C6 O5 1.208 . S
C7 O12 1.247 . S
C7 O13 1.208 . S
C8 O0 1.315 . S
C8 O3 1.279 . S
C9 O10 1.315 . S
C9 O11 1.279 . S
O10 Cd2 2.223 . S
O10 C9 1.315 . S
O11 Cd1 2.240 . S
O11 C9 1.279 . S
O12 Cd2 2.297 . S
O12 C7 1.247 . S
O13 Cd2 2.439 . S
O13 C7 1.208 . S
O14 Cd15 2.223 . S
O14 C22 1.315 . S
Cd15 O14 2.223 . S
Cd15 O18 2.297 . S
Cd15 O19 2.439 . S
Cd15 O25 2.240 . S
Cd16 O17 2.240 . S
Cd16 O24 2.223 . S
Cd16 O26 2.297 . S
Cd16 O27 2.439 . S
O17 Cd16 2.240 . S
O17 C22 1.279 . S
O18 Cd15 2.297 . S
O18 C20 1.247 . S
O19 Cd15 2.439 . S
O19 C20 1.208 . S
C20 O18 1.247 . S
C20 O19 1.208 . S
C21 O26 1.247 . S
C21 O27 1.208 . S
C22 O14 1.315 . S
C22 O17 1.279 . S
C23 O24 1.315 . S
C23 O25 1.279 . S
O24 Cd16 2.223 . S
O24 C23 1.315 . S
O25 Cd15 2.240 . S
O25 C23 1.279 . S
O26 Cd16 2.297 . S
O26 C21 1.247 . S
O27 Cd16 2.439 . S
O27 C21 1.208 . S
O28 Cd29 2.223 . S
O28 C36 1.315 . S
Cd29 O28 2.223 . S
Cd29 O32 2.297 . S
Cd29 O33 2.439 . S
Cd29 O39 2.240 . S
Cd30 O31 2.240 . S
Cd30 O38 2.223 . S
Cd30 O40 2.297 . S
Cd30 O41 2.439 . S
O31 Cd30 2.240 . S
O31 C36 1.279 . S
O32 Cd29 2.297 . S
O32 C34 1.247 . S
O33 Cd29 2.439 . S
O33 C34 1.208 . S
C34 O32 1.247 . S
C34 O33 1.208 . S
C35 O40 1.247 . S
C35 O41 1.208 . S
C36 O28 1.315 . S
C36 O31 1.279 . S
C37 O38 1.315 . S
C37 O39 1.279 . S
O38 Cd30 2.223 . S
O38 C37 1.315 . S
O39 Cd29 2.240 . S
O39 C37 1.279 . S
O40 Cd30 2.297 . S
O40 C35 1.247 . S
O41 Cd30 2.439 . S
O41 C35 1.208 . S
O42 Cd43 2.223 . S
O42 C50 1.315 . S
Cd43 O42 2.223 . S
Cd43 O46 2.297 . S
Cd43 O47 2.439 . S
Cd43 O53 2.240 . S
Cd44 O45 2.240 . S
Cd44 O52 2.223 . S
Cd44 O54 2.297 . S
Cd44 O55 2.439 . S
O45 Cd44 2.240 . S
O45 C50 1.279 . S
O46 Cd43 2.297 . S
O46 C48 1.247 . S
O47 Cd43 2.439 . S
O47 C48 1.208 . S
C48 O46 1.247 . S
C48 O47 1.208 . S
C49 O54 1.247 . S
C49 O55 1.208 . S
C50 O42 1.315 . S
C50 O45 1.279 . S
C51 O52 1.315 . S
C51 O53 1.279 . S
O52 Cd44 2.223 . S
O52 C51 1.315 . S
O53 Cd43 2.240 . S
O53 C51 1.279 . S
O54 Cd44 2.297 . S
O54 C49 1.247 . S
O55 Cd44 2.439 . S
O55 C49 1.208 . S
O56 Cd57 2.223 . S
O56 C64 1.315 . S
Cd57 O56 2.223 . S
Cd57 O60 2.297 . S
Cd57 O61 2.439 . S
Cd57 O67 2.240 . S
Cd58 O59 2.240 . S
Cd58 O66 2.223 . S
Cd58 O68 2.297 . S
Cd58 O69 2.439 . S
O59 Cd58 2.240 . S
O59 C64 1.279 . S
O60 Cd57 2.297 . S
O60 C62 1.247 . S
O61 Cd57 2.439 . S
O61 C62 1.208 . S
C62 O60 1.247 . S
C62 O61 1.208 . S
C63 O68 1.247 . S
C63 O69 1.208 . S
C64 O56 1.315 . S
C64 O59 1.279 . S
C65 O66 1.315 . S
C65 O67 1.279 . S
O66 Cd58 2.223 . S
O66 C65 1.315 . S
O67 Cd57 2.240 . S
O67 C65 1.279 . S
O68 Cd58 2.297 . S
O68 C63 1.247 . S
O69 Cd58 2.439 . S
O69 C63 1.208 . S
O70 Cd71 2.223 . S
O70 C78 1.315 . S
Cd71 O70 2.223 . S
Cd71 O74 2.297 . S
Cd71 O75 2.439 . S
Cd71 O81 2.240 . S
Cd72 O73 2.240 . S
Cd72 O80 2.223 . S
Cd72 O82 2.297 . S
Cd72 O83 2.439 . S
O73 Cd72 2.240 . S
O73 C78 1.279 . S
O74 Cd71 2.297 . S
O74 C76 1.247 . S
O75 Cd71 2.439 . S
O75 C76 1.208 . S
C76 O74 1.247 . S
C76 O75 1.208 . S
C77 O82 1.247 . S
C77 O83 1.208 . S
C78 O70 1.315 . S
C78 O73 1.279 . S
C79 O80 1.315 . S
C79 O81 1.279 . S
O80 Cd72 2.223 . S
O80 C79 1.315 . S
O81 Cd71 2.240 . S
O81 C79 1.279 . S
O82 Cd72 2.297 . S
O82 C77 1.247 . S
O83 Cd72 2.439 . S
O83 C77 1.208 . S
O84 Cd85 2.223 . S
O84 C92 1.315 . S
Cd85 O84 2.223 . S
Cd85 O88 2.297 . S
Cd85 O89 2.439 . S
Cd85 O95 2.240 . S
Cd86 O87 2.240 . S
Cd86 O94 2.223 . S
Cd86 O96 2.297 . S
Cd86 O97 2.439 . S
O87 Cd86 2.240 . S
O87 C92 1.279 . S
O88 Cd85 2.297 . S
O88 C90 1.247 . S
O89 Cd85 2.439 . S
O89 C90 1.208 . S
C90 O88 1.247 . S
C90 O89 1.208 . S
C91 O96 1.247 . S
C91 O97 1.208 . S
C92 O84 1.315 . S
C92 O87 1.279 . S
C93 O94 1.315 . S
C93 O95 1.279 . S
O94 Cd86 2.223 . S
O94 C93 1.315 . S
O95 Cd85 2.240 . S
O95 C93 1.279 . S
O96 Cd86 2.297 . S
O96 C91 1.247 . S
O97 Cd86 2.439 . S
O97 C91 1.208 . S
O98 Cd99 2.223 . S
O98 C106 1.315 . S
Cd99 O98 2.223 . S
Cd99 O102 2.297 . S
Cd99 O103 2.439 . S
Cd99 O109 2.240 . S
Cd100 O101 2.240 . S
Cd100 O108 2.223 . S
Cd100 O110 2.297 . S
Cd100 O111 2.439 . S
O101 Cd100 2.240 . S
O101 C106 1.279 . S
O102 Cd99 2.297 . S
O102 C104 1.247 . S
O103 Cd99 2.439 . S
O103 C104 1.208 . S
C104 O102 1.247 . S
C104 O103 1.208 . S
C105 O110 1.247 . S
C105 O111 1.208 . S
C106 O98 1.315 . S
C106 O101 1.279 . S
C107 O108 1.315 . S
C107 O109 1.279 . S
O108 Cd100 2.223 . S
O108 C107 1.315 . S
O109 Cd99 2.240 . S
O109 C107 1.279 . S
O110 Cd100 2.297 . S
O110 C105 1.247 . S
O111 Cd100 2.439 . S
O111 C105 1.208 . S
C112 C113 1.386 . S
C112 C114 1.383 . S
C112 H128 0.951 . S
C113 C112 1.386 . S
C113 C117 1.383 . S
C114 C112 1.383 . S
C114 C115 1.402 . S
C114 H129 0.951 . S
C115 C114 1.402 . S
C115 C116 1.375 . S
C115 C118 1.481 . S
C116 C115 1.375 . S
C116 C117 1.367 . S
C116 H130 0.951 . S
C117 C113 1.383 . S
C117 C116 1.367 . S
C117 H131 0.950 . S
C118 C115 1.481 . S
C118 C119 1.297 . S
C118 H132 0.950 . S
C119 C118 1.297 . S
C119 C120 1.479 . S
C119 H133 0.950 . S
C120 C119 1.479 . S
C120 C121 1.375 . S
C120 C126 1.404 . S
C121 C120 1.375 . S
C121 C122 1.369 . S
C121 H134 0.950 . S
C122 C121 1.369 . S
C122 C123 1.392 . S
C122 H135 0.951 . S
C123 C122 1.392 . S
C123 C125 1.384 . S
H124 C126 0.949 . S
C125 C123 1.384 . S
C125 C126 1.385 . S
C125 H127 0.950 . S
C126 C120 1.404 . S
C126 H124 0.949 . S
C126 C125 1.385 . S
H127 C125 0.950 . S
H128 C112 0.951 . S
H129 C114 0.951 . S
H130 C116 0.951 . S
H131 C117 0.950 . S
H132 C118 0.950 . S
H133 C119 0.950 . S
H134 C121 0.950 . S
H135 C122 0.951 . S
C136 C137 1.386 . S
C136 C138 1.383 . S
C136 H152 0.951 . S
C137 C136 1.386 . S
C137 C141 1.383 . S
C138 C136 1.383 . S
C138 C139 1.402 . S
C138 H153 0.951 . S
C139 C138 1.402 . S
C139 C140 1.375 . S
C139 C142 1.481 . S
C140 C139 1.375 . S
C140 C141 1.367 . S
C140 H154 0.951 . S
C141 C137 1.383 . S
C141 C140 1.367 . S
C141 H155 0.950 . S
C142 C139 1.481 . S
C142 C143 1.297 . S
C142 H156 0.950 . S
C143 C142 1.297 . S
C143 C144 1.479 . S
C143 H157 0.950 . S
C144 C143 1.479 . S
C144 C145 1.375 . S
C144 C150 1.404 . S
C145 C144 1.375 . S
C145 C146 1.369 . S
C145 H158 0.950 . S
C146 C145 1.369 . S
C146 C147 1.392 . S
C146 H159 0.951 . S
C147 C146 1.392 . S
C147 C149 1.384 . S
H148 C150 0.949 . S
C149 C147 1.384 . S
C149 C150 1.385 . S
C149 H151 0.950 . S
C150 C144 1.404 . S
C150 H148 0.949 . S
C150 C149 1.385 . S
H151 C149 0.950 . S
H152 C136 0.951 . S
H153 C138 0.951 . S
H154 C140 0.951 . S
H155 C141 0.950 . S
H156 C142 0.950 . S
H157 C143 0.950 . S
H158 C145 0.950 . S
H159 C146 0.951 . S
C160 C161 1.386 . S
C160 C162 1.383 . S
C160 H176 0.951 . S
C161 C160 1.386 . S
C161 C165 1.383 . S
C162 C160 1.383 . S
C162 C163 1.402 . S
C162 H177 0.951 . S
C163 C162 1.402 . S
C163 C164 1.375 . S
C163 C166 1.481 1_554 S
C164 C163 1.375 . S
C164 C165 1.367 . S
C164 H178 0.951 . S
C165 C161 1.383 . S
C165 C164 1.367 . S
C165 H179 0.950 . S
C166 C163 1.481 1_556 S
C166 C167 1.297 1_545 S
C166 H180 0.950 . S
C167 C166 1.297 1_565 S
C167 C168 1.479 . S
C167 H181 0.950 1_556 S
C168 C167 1.479 . S
C168 C169 1.375 . S
C168 C174 1.404 . S
C169 C168 1.375 . S
C169 C170 1.369 . S
C169 H182 0.950 . S
C170 C169 1.369 . S
C170 C171 1.392 . S
C170 H183 0.951 . S
C171 C170 1.392 . S
C171 C173 1.384 . S
H172 C174 0.949 . S
C173 C171 1.384 . S
C173 C174 1.385 . S
C173 H175 0.950 . S
C174 C168 1.404 . S
C174 H172 0.949 . S
C174 C173 1.385 . S
H175 C173 0.950 . S
H176 C160 0.951 . S
H177 C162 0.951 . S
H178 C164 0.951 . S
H179 C165 0.950 . S
H180 C166 0.950 . S
H181 C167 0.950 1_554 S
H182 C169 0.950 . S
H183 C170 0.951 . S
C184 C185 1.386 . S
C184 C186 1.383 1_655 S
C184 H200 0.952 . S
C185 C184 1.386 . S
C185 C189 1.383 . S
C186 C184 1.383 1_455 S
C186 C187 1.402 1_455 S
C186 H201 0.951 . S
C187 C186 1.402 1_655 S
C187 C188 1.375 . S
C187 C190 1.481 1_655 S
C188 C187 1.375 . S
C188 C189 1.367 . S
C188 H202 0.951 . S
C189 C185 1.383 . S
C189 C188 1.367 . S
C189 H203 0.950 . S
C190 C187 1.481 1_455 S
C190 C191 1.297 . S
C190 H204 0.950 1_455 S
C191 C190 1.297 . S
C191 C192 1.479 . S
C191 H205 0.950 . S
C192 C191 1.479 . S
C192 C193 1.375 . S
C192 C198 1.404 . S
C193 C192 1.375 . S
C193 C194 1.369 . S
C193 H206 0.950 . S
C194 C193 1.369 . S
C194 C195 1.392 . S
C194 H207 0.951 . S
C195 C194 1.392 . S
C195 C197 1.384 . S
H196 C198 0.949 . S
C197 C195 1.384 . S
C197 C198 1.385 . S
C197 H199 0.950 . S
C198 C192 1.404 . S
C198 H196 0.949 . S
C198 C197 1.385 . S
H199 C197 0.950 . S
H200 C184 0.952 . S
H201 C186 0.951 . S
H202 C188 0.951 . S
H203 C189 0.950 . S
H204 C190 0.950 1_655 S
H205 C191 0.950 . S
H206 C193 0.950 . S
H207 C194 0.951 . S
C208 C209 1.386 . S
C208 C210 1.383 . S
C208 H224 0.951 . S
C209 C208 1.386 . S
C209 C213 1.383 . S
C210 C208 1.383 . S
C210 C211 1.402 . S
C210 H225 0.951 . S
C211 C210 1.402 . S
C211 C212 1.375 . S
C211 C214 1.481 . S
C212 C211 1.375 . S
C212 C213 1.367 . S
C212 H226 0.951 . S
C213 C209 1.383 . S
C213 C212 1.367 . S
C213 H227 0.950 . S
C214 C211 1.481 . S
C214 C215 1.297 . S
C214 H228 0.950 1_565 S
C215 C214 1.297 . S
C215 C216 1.479 1_565 S
C215 H229 0.950 . S
C216 C215 1.479 1_545 S
C216 C217 1.376 . S
C216 C222 1.404 . S
C217 C216 1.376 . S
C217 C218 1.382 . S
C217 H230 0.936 1_545 S
C218 C217 1.382 . S
C218 C219 1.392 . S
C218 H231 0.951 . S
C219 C218 1.392 . S
C219 C221 1.384 . S
H220 C222 0.949 . S
C221 C219 1.384 . S
C221 C222 1.385 . S
C221 H223 0.950 . S
C222 C216 1.404 . S
C222 H220 0.949 . S
C222 C221 1.385 . S
H223 C221 0.950 . S
H224 C208 0.951 . S
H225 C210 0.951 . S
H226 C212 0.951 . S
H227 C213 0.950 . S
H228 C214 0.950 1_545 S
H229 C215 0.950 . S
H230 C217 0.936 1_565 S
H231 C218 0.951 . S
C232 C233 1.386 . S
C232 C234 1.383 . S
C232 H248 0.951 . S
C233 C232 1.386 . S
C233 C237 1.383 . S
C234 C232 1.383 . S
C234 C235 1.402 . S
C234 H249 0.951 1_655 S
C235 C234 1.402 . S
C235 C236 1.375 . S
C235 C238 1.481 1_556 S
C236 C235 1.375 . S
C236 C237 1.367 . S
C236 H250 0.951 . S
C237 C233 1.383 . S
C237 C236 1.367 . S
C237 H251 0.950 . S
C238 C235 1.481 1_554 S
C238 C239 1.299 1_655 S
C238 H252 0.950 . S
C239 C238 1.299 1_455 S
C239 C240 1.511 . S
C239 H253 0.914 1_554 S
C240 C239 1.511 . S
C240 C241 1.375 . S
C240 C246 1.404 . S
C241 C240 1.375 . S
C241 C242 1.369 . S
C241 H254 0.950 . S
C242 C241 1.369 . S
C242 C243 1.392 . S
C242 H255 0.951 . S
C243 C242 1.392 . S
C243 C245 1.384 . S
H244 C246 0.958 . S
C245 C243 1.384 . S
C245 C246 1.385 . S
C245 H247 0.950 . S
C246 C240 1.404 . S
C246 H244 0.958 . S
C246 C245 1.385 . S
H247 C245 0.950 . S
H248 C232 0.951 . S
H249 C234 0.951 1_455 S
H250 C236 0.951 . S
H251 C237 0.950 . S
H252 C238 0.950 . S
H253 C239 0.914 1_556 S
H254 C241 0.950 . S
H255 C242 0.951 . S
C256 C257 1.386 . S
C256 C258 1.383 . S
C256 H272 0.951 . S
C257 C256 1.386 . S
C257 C261 1.383 . S
C258 C256 1.383 . S
C258 C259 1.402 . S
C258 H273 0.951 . S
C259 C258 1.402 . S
C259 C260 1.375 . S
C259 C262 1.481 . S
C260 C259 1.375 . S
C260 C261 1.367 . S
C260 H274 0.951 . S
C261 C257 1.383 . S
C261 C260 1.367 . S
C261 H275 0.950 . S
C262 C259 1.481 . S
C262 C263 1.297 . S
C262 H276 0.950 . S
C263 C262 1.297 . S
C263 C264 1.479 . S
C263 H277 0.950 . S
C264 C263 1.479 . S
C264 C265 1.375 . S
C264 C270 1.404 . S
C265 C264 1.375 . S
C265 C266 1.369 . S
C265 H278 0.950 . S
C266 C265 1.369 . S
C266 C267 1.392 . S
C266 H279 0.951 . S
C267 C266 1.392 . S
C267 C269 1.384 . S
H268 C270 0.949 . S
C269 C267 1.384 . S
C269 C270 1.385 . S
C269 H271 0.950 . S
C270 C264 1.404 . S
C270 H268 0.949 . S
C270 C269 1.385 . S
H271 C269 0.950 . S
H272 C256 0.951 . S
H273 C258 0.951 . S
H274 C260 0.951 . S
H275 C261 0.950 . S
H276 C262 0.950 . S
H277 C263 0.950 . S
H278 C265 0.950 . S
H279 C266 0.951 . S
C280 C281 1.386 . S
C280 C282 1.383 . S
C280 H296 0.951 . S
C281 C280 1.386 . S
C281 C285 1.383 . S
C282 C280 1.383 . S
C282 C283 1.402 . S
C282 H297 0.951 . S
C283 C282 1.402 . S
C283 C284 1.375 . S
C283 C286 1.481 . S
C284 C283 1.375 . S
C284 C285 1.367 . S
C284 H298 0.951 . S
C285 C281 1.383 . S
C285 C284 1.367 . S
C285 H299 0.950 . S
C286 C283 1.481 . S
C286 C287 1.297 . S
C286 H300 0.950 . S
C287 C286 1.297 . S
C287 C288 1.479 . S
C287 H301 0.950 . S
C288 C287 1.479 . S
C288 C289 1.375 . S
C288 C294 1.404 . S
C289 C288 1.375 . S
C289 C290 1.369 . S
C289 H302 0.950 . S
C290 C289 1.369 . S
C290 C291 1.392 . S
C290 H303 0.951 . S
C291 C290 1.392 . S
C291 C293 1.384 . S
H292 C294 0.949 . S
C293 C291 1.384 . S
C293 C294 1.385 . S
C293 H295 0.950 . S
C294 C288 1.404 . S
C294 H292 0.949 . S
C294 C293 1.385 . S
H295 C293 0.950 . S
H296 C280 0.951 . S
H297 C282 0.951 . S
H298 C284 0.951 . S
H299 C285 0.950 . S
H300 C286 0.950 . S
H301 C287 0.950 . S
H302 C289 0.950 . S
H303 C290 0.951 . S
C304 C305 1.386 . S
C304 C306 1.383 . S
C304 H320 0.951 . S
C305 C304 1.386 . S
C305 C309 1.383 . S
C306 C304 1.383 . S
C306 C307 1.402 . S
C306 H321 0.951 . S
C307 C306 1.402 . S
C307 C308 1.375 . S
C307 C310 1.481 . S
C308 C307 1.375 . S
C308 C309 1.367 . S
C308 H322 0.951 . S
C309 C305 1.383 . S
C309 C308 1.367 . S
C309 H323 0.950 . S
C310 C307 1.481 . S
C310 C311 1.297 . S
C310 H324 0.950 . S
C311 C310 1.297 . S
C311 C312 1.479 . S
C311 H325 0.950 . S
C312 C311 1.479 . S
C312 C313 1.375 . S
C312 C318 1.404 . S
C313 C312 1.375 . S
C313 C314 1.369 . S
C313 H326 0.950 . S
C314 C313 1.369 . S
C314 C315 1.392 . S
C314 H327 0.951 . S
C315 C314 1.392 . S
C315 C317 1.384 . S
H316 C318 0.949 . S
C317 C315 1.384 . S
C317 C318 1.385 . S
C317 H319 0.950 . S
C318 C312 1.404 . S
C318 H316 0.949 . S
C318 C317 1.385 . S
H319 C317 0.950 . S
H320 C304 0.951 . S
H321 C306 0.951 . S
H322 C308 0.951 . S
H323 C309 0.950 . S
H324 C310 0.950 . S
H325 C311 0.950 . S
H326 C313 0.950 . S
H327 C314 0.951 . S
C328 C329 1.386 . S
C328 C330 1.383 . S
C328 H344 0.951 . S
C329 C328 1.386 . S
C329 C333 1.383 . S
C330 C328 1.383 . S
C330 C331 1.402 . S
C330 H345 0.951 . S
C331 C330 1.402 . S
C331 C332 1.375 . S
C331 C334 1.481 1_556 S
C332 C331 1.375 . S
C332 C333 1.367 . S
C332 H346 0.951 . S
C333 C329 1.383 . S
C333 C332 1.367 . S
C333 H347 0.950 . S
C334 C331 1.481 1_554 S
C334 C335 1.297 . S
C334 H348 0.950 . S
C335 C334 1.297 . S
C335 C336 1.479 . S
C335 H349 0.950 1_554 S
C336 C335 1.479 . S
C336 C337 1.375 . S
C336 C342 1.404 . S
C337 C336 1.375 . S
C337 C338 1.369 . S
C337 H350 0.950 . S
C338 C337 1.369 . S
C338 C339 1.392 . S
C338 H351 0.951 . S
C339 C338 1.392 . S
C339 C341 1.384 . S
H340 C342 0.949 . S
C341 C339 1.384 . S
C341 C342 1.385 . S
C341 H343 0.950 . S
C342 C336 1.404 . S
C342 H340 0.949 . S
C342 C341 1.385 . S
H343 C341 0.950 . S
H344 C328 0.951 . S
H345 C330 0.951 . S
H346 C332 0.951 . S
H347 C333 0.950 . S
H348 C334 0.950 . S
H349 C335 0.950 1_556 S
H350 C337 0.950 . S
H351 C338 0.951 . S
C352 C353 1.386 . S
C352 C354 1.383 . S
C352 H368 0.951 . S
C353 C352 1.386 . S
C353 C357 1.383 . S
C354 C352 1.383 . S
C354 C355 1.402 . S
C354 H369 0.951 . S
C355 C354 1.402 . S
C355 C356 1.375 . S
C355 C358 1.481 . S
C356 C355 1.375 . S
C356 C357 1.367 . S
C356 H370 0.951 . S
C357 C353 1.383 . S
C357 C356 1.367 . S
C357 H371 0.950 . S
C358 C355 1.481 . S
C358 C359 1.297 . S
C358 H372 0.950 . S
C359 C358 1.297 . S
C359 C360 1.479 1_565 S
C359 H373 0.950 1_565 S
C360 C359 1.479 1_545 S
C360 C361 1.375 . S
C360 C366 1.404 1_545 S
C361 C360 1.375 . S
C361 C362 1.369 . S
C361 H374 0.950 . S
C362 C361 1.369 . S
C362 C363 1.392 . S
C362 H375 0.951 . S
C363 C362 1.392 . S
C363 C365 1.384 . S
H364 C366 0.949 . S
C365 C363 1.384 . S
C365 C366 1.385 1_545 S
C365 H367 0.948 1_545 S
C366 C360 1.404 1_565 S
C366 H364 0.949 . S
C366 C365 1.385 1_565 S
H367 C365 0.948 1_565 S
H368 C352 0.951 . S
H369 C354 0.951 . S
H370 C356 0.951 . S
H371 C357 0.950 . S
H372 C358 0.950 . S
H373 C359 0.950 1_545 S
H374 C361 0.950 . S
H375 C362 0.951 . S
C376 C377 1.386 . S
C376 C378 1.383 . S
C376 H392 0.951 . S
C377 C376 1.386 . S
C377 C381 1.383 . S
C378 C376 1.383 . S
C378 C379 1.402 . S
C378 H393 0.951 . S
C379 C378 1.402 . S
C379 C380 1.375 . S
C379 C382 1.481 1_655 S
C380 C379 1.375 . S
C380 C381 1.367 . S
C380 H394 0.956 . S
C381 C377 1.383 . S
C381 C380 1.367 . S
C381 H395 0.950 . S
C382 C379 1.481 1_455 S
C382 C383 1.297 . S
C382 H396 0.950 1_565 S
C383 C382 1.297 . S
C383 C384 1.479 1_565 S
C383 H397 0.950 . S
C384 C383 1.479 1_545 S
C384 C385 1.375 1_545 S
C384 C390 1.404 . S
C385 C384 1.375 1_565 S
C385 C386 1.369 1_565 S
C385 H398 0.950 . S
C386 C385 1.369 1_545 S
C386 C387 1.392 . S
C386 H399 0.951 . S
C387 C386 1.392 . S
C387 C389 1.384 . S
H388 C390 0.949 . S
C389 C387 1.384 . S
C389 C390 1.385 . S
C389 H391 0.950 . S
C390 C384 1.404 . S
C390 H388 0.949 . S
C390 C389 1.385 . S
H391 C389 0.950 . S
H392 C376 0.951 . S
H393 C378 0.951 . S
H394 C380 0.956 . S
H395 C381 0.950 . S
H396 C382 0.950 1_545 S
H397 C383 0.950 . S
H398 C385 0.950 . S
H399 C386 0.951 . S
C400 C401 1.386 . S
C400 C402 1.383 . S
C400 H416 0.951 . S
C401 C400 1.386 . S
C401 C405 1.383 . S
C402 C400 1.383 . S
C402 C403 1.402 . S
C402 H417 0.951 1_655 S
C403 C402 1.402 . S
C403 C404 1.375 . S
C403 C406 1.481 . S
C404 C403 1.375 . S
C404 C405 1.367 . S
C404 H418 0.951 . S
C405 C401 1.383 . S
C405 C404 1.367 . S
C405 H419 0.950 . S
C406 C403 1.481 . S
C406 C407 1.297 1_655 S
C406 H420 0.950 . S
C407 C406 1.297 1_455 S
C407 C408 1.479 . S
C407 H421 0.950 . S
C408 C407 1.479 . S
C408 C409 1.375 . S
C408 C414 1.404 . S
C409 C408 1.375 . S
C409 C410 1.369 . S
C409 H422 0.950 . S
C410 C409 1.369 . S
C410 C411 1.392 . S
C410 H423 0.951 . S
C411 C410 1.392 . S
C411 C413 1.384 . S
H412 C414 0.949 . S
C413 C411 1.384 . S
C413 C414 1.385 . S
C413 H415 0.950 . S
C414 C408 1.404 . S
C414 H412 0.949 . S
C414 C413 1.385 . S
H415 C413 0.950 . S
H416 C400 0.951 . S
H417 C402 0.951 1_455 S
H418 C404 0.951 . S
H419 C405 0.950 . S
H420 C406 0.950 . S
H421 C407 0.950 . S
H422 C409 0.950 . S
H423 C410 0.951 . S
C424 C425 1.386 . S
C424 C426 1.383 . S
C424 H440 0.951 . S
C425 C424 1.386 . S
C425 C429 1.383 . S
C426 C424 1.383 . S
C426 C427 1.402 . S
C426 H441 0.951 . S
C427 C426 1.402 . S
C427 C428 1.375 . S
C427 C430 1.481 . S
C428 C427 1.375 . S
C428 C429 1.367 . S
C428 H442 0.951 . S
C429 C425 1.383 . S
C429 C428 1.367 . S
C429 H443 0.950 . S
C430 C427 1.481 . S
C430 C431 1.297 . S
C430 H444 0.950 . S
C431 C430 1.297 . S
C431 C432 1.479 . S
C431 H445 0.950 . S
C432 C431 1.479 . S
C432 C433 1.375 . S
C432 C438 1.404 . S
C433 C432 1.375 . S
C433 C434 1.369 . S
C433 H446 0.950 . S
C434 C433 1.369 . S
C434 C435 1.392 . S
C434 H447 0.951 . S
C435 C434 1.392 . S
C435 C437 1.384 . S
H436 C438 0.949 . S
C437 C435 1.384 . S
C437 C438 1.385 . S
C437 H439 0.950 . S
C438 C432 1.404 . S
C438 H436 0.949 . S
C438 C437 1.385 . S
H439 C437 0.950 . S
H440 C424 0.951 . S
H441 C426 0.951 . S
H442 C428 0.951 . S
H443 C429 0.950 . S
H444 C430 0.950 . S
H445 C431 0.950 . S
H446 C433 0.950 . S
H447 C434 0.951 . S
C448 C449 1.386 . S
C448 C450 1.383 . S
C448 H464 0.951 . S
C449 C448 1.386 . S
C449 C453 1.383 . S
C450 C448 1.383 . S
C450 C451 1.402 . S
C450 H465 0.951 . S
C451 C450 1.402 . S
C451 C452 1.375 . S
C451 C454 1.481 . S
C452 C451 1.375 . S
C452 C453 1.367 . S
C452 H466 0.951 . S
C453 C449 1.383 . S
C453 C452 1.367 . S
C453 H467 0.950 . S
C454 C451 1.481 . S
C454 C455 1.297 1_554 S
C454 H468 0.950 . S
C455 C454 1.297 1_556 S
C455 C456 1.479 . S
C455 H469 0.951 . S
C456 C455 1.479 . S
C456 C457 1.375 . S
C456 C462 1.404 . S
C457 C456 1.375 . S
C457 C458 1.369 . S
C457 H470 0.950 . S
C458 C457 1.369 . S
C458 C459 1.392 . S
C458 H471 0.951 . S
C459 C458 1.392 . S
C459 C461 1.384 . S
H460 C462 0.949 . S
C461 C459 1.384 . S
C461 C462 1.385 . S
C461 H463 0.950 . S
C462 C456 1.404 . S
C462 H460 0.949 . S
C462 C461 1.385 . S
H463 C461 0.950 . S
H464 C448 0.951 . S
H465 C450 0.951 . S
H466 C452 0.951 . S
H467 C453 0.950 . S
H468 C454 0.950 . S
H469 C455 0.951 . S
H470 C457 0.950 . S
H471 C458 0.951 . S
C472 C473 1.386 . S
C472 C474 1.383 . S
C472 H488 0.951 . S
C473 C472 1.386 . S
C473 C477 1.383 . S
C474 C472 1.383 . S
C474 C475 1.402 . S
C474 H489 0.951 . S
C475 C474 1.402 . S
C475 C476 1.375 . S
C475 C478 1.481 . S
C476 C475 1.375 . S
C476 C477 1.367 . S
C476 H490 0.951 . S
C477 C473 1.383 . S
C477 C476 1.367 . S
C477 H491 0.950 . S
C478 C475 1.481 . S
C478 C479 1.297 . S
C478 H492 0.950 . S
C479 C478 1.297 . S
C479 C480 1.479 . S
C479 H493 0.950 . S
C480 C479 1.479 . S
C480 C481 1.375 . S
C480 C486 1.404 . S
C481 C480 1.375 . S
C481 C482 1.369 . S
C481 H494 0.950 . S
C482 C481 1.369 . S
C482 C483 1.392 . S
C482 H495 0.951 . S
C483 C482 1.392 . S
C483 C485 1.384 . S
H484 C486 0.949 . S
C485 C483 1.384 . S
C485 C486 1.385 . S
C485 H487 0.950 . S
C486 C480 1.404 . S
C486 H484 0.949 . S
C486 C485 1.385 . S
H487 C485 0.950 . S
H488 C472 0.951 . S
H489 C474 0.951 . S
H490 C476 0.951 . S
H491 C477 0.950 . S
H492 C478 0.950 . S
H493 C479 0.950 . S
H494 C481 0.950 . S
H495 C482 0.951 . S
C113 C78 1.586 . S
C123 C8 1.589 . S
C137 C105 1.542 . S
C147 C20 1.541 . S
C161 C37 1.586 . S
C171 C93 1.590 . S
C185 C49 1.506 . S
C195 C62 1.567 . S
C209 C90 1.508 . S
C219 C7 1.548 . S
C233 C23 1.590 . S
C243 C65 1.588 . S
C257 C77 1.510 . S
C267 C34 1.572 . S
C281 C50 1.585 . S
C291 C106 1.569 . S
C305 C63 1.507 . S
C315 C76 1.555 . S
C329 C22 1.586 . S
C339 C36 1.589 . S
C353 C48 1.555 . S
C363 C35 1.478 . S
C377 C51 1.587 . S
C387 C9 1.568 . S
C401 C21 1.530 . S
C411 C6 1.502 . S
C425 C104 1.542 . S
C435 C91 1.540 . S
C449 C64 1.591 . S
C459 C92 1.571 . S
C473 C79 1.583 . S
C483 C107 1.586 . S
