# Generated by pormake.
# Topology wgc, (5)-cn, num edge types: 1
# Building blocks:
#     Node 0, Type 0, BuildingBlock: XOMCOT_clean_sbu_1, # of connection points: 5
#     Node 1, Type 0, BuildingBlock: XOMCOT_clean_sbu_1, # of connection points: 5
#     Node 2, Type 0, BuildingBlock: XOMCOT_clean_sbu_1, # of connection points: 5
#     Node 3, Type 0, BuildingBlock: XOMCOT_clean_sbu_1, # of connection points: 5
#     Node 4, Type 0, BuildingBlock: XOMCOT_clean_sbu_1, # of connection points: 5
#     Node 5, Type 0, BuildingBlock: XOMCOT_clean_sbu_1, # of connection points: 5
#     Node 6, Type 0, BuildingBlock: XOMCOT_clean_sbu_1, # of connection points: 5
#     Node 7, Type 0, BuildingBlock: XOMCOT_clean_sbu_1, # of connection points: 5
#     Node 8, Type 0, BuildingBlock: XOMCOT_clean_sbu_1, # of connection points: 5
#     Node 9, Type 0, BuildingBlock: XOMCOT_clean_sbu_1, # of connection points: 5
#     Node 10, Type 0, BuildingBlock: XOMCOT_clean_sbu_1, # of connection points: 5
#     Node 11, Type 0, BuildingBlock: XOMCOT_clean_sbu_1, # of connection points: 5
#     Node 12, Type 0, BuildingBlock: XOMCOT_clean_sbu_1, # of connection points: 5
#     Node 13, Type 0, BuildingBlock: XOMCOT_clean_sbu_1, # of connection points: 5
#     Node 14, Type 0, BuildingBlock: XOMCOT_clean_sbu_1, # of connection points: 5
#     Node 15, Type 0, BuildingBlock: XOMCOT_clean_sbu_1, # of connection points: 5
#     Edge 16, Type (0, 0), None
#     Edge 17, Type (0, 0), None
#     Edge 18, Type (0, 0), None
#     Edge 19, Type (0, 0), None
#     Edge 20, Type (0, 0), None
#     Edge 21, Type (0, 0), None
#     Edge 22, Type (0, 0), None
#     Edge 23, Type (0, 0), None
#     Edge 24, Type (0, 0), None
#     Edge 25, Type (0, 0), None
#     Edge 26, Type (0, 0), None
#     Edge 27, Type (0, 0), None
#     Edge 28, Type (0, 0), None
#     Edge 29, Type (0, 0), None
#     Edge 30, Type (0, 0), None
#     Edge 31, Type (0, 0), None
#     Edge 32, Type (0, 0), None
#     Edge 33, Type (0, 0), None
#     Edge 34, Type (0, 0), None
#     Edge 35, Type (0, 0), None
#     Edge 36, Type (0, 0), None
#     Edge 37, Type (0, 0), None
#     Edge 38, Type (0, 0), None
#     Edge 39, Type (0, 0), None
#     Edge 40, Type (0, 0), None
#     Edge 41, Type (0, 0), None
#     Edge 42, Type (0, 0), None
#     Edge 43, Type (0, 0), None
#     Edge 44, Type (0, 0), None
#     Edge 45, Type (0, 0), None
#     Edge 46, Type (0, 0), None
#     Edge 47, Type (0, 0), None
#     Edge 48, Type (0, 0), None
#     Edge 49, Type (0, 0), None
#     Edge 50, Type (0, 0), None
#     Edge 51, Type (0, 0), None
#     Edge 52, Type (0, 0), None
#     Edge 53, Type (0, 0), None
#     Edge 54, Type (0, 0), None
#     Edge 55, Type (0, 0), None
# Relax obj value: 0.248
# Max RMSD: 0.168
# Mean RMSD: 0.167
data_MOF--net-wgc--node1-XOMCOT_clean_sbu_1--edge1-none
_symmetry_space_group_name_H-M    P1
_symmetry_Int_Tables_number       1
_symmetry_cell_setting            triclinic
loop_
_symmetry_equiv_pos_as_xyz
'x, y, z'
_cell_length_a     20.950406
_cell_length_b     20.950707
_cell_length_c     19.915432
_cell_angle_alpha  90.001538
_cell_angle_beta   90.00853
_cell_angle_gamma 90.001515
loop_
_atom_site_label
_atom_site_type_symbol
_atom_site_fract_x
_atom_site_fract_y
_atom_site_fract_z
_atom_type_partial_charge
C0 C 0.4398 0.12478 0.14031 0.0
C1 C 0.49562 0.08924 0.1386 0.0
N2 N 0.48139 0.02898 0.15658 0.0
N3 N 0.39072 0.08714 0.15963 0.0
C4 C 0.418 0.02885 0.16936 0.0
H5 H 0.43528 0.17481 0.12776 0.0
Co6 Co 0.30318 0.10959 0.17183 0.0
C7 C 0.26219 0.15686 1.02716 0.0
O8 O 0.27281 0.20644 0.98879 0.0
N9 N 0.21685 0.1331 0.18542 0.0
C10 C 0.1114 0.13458 0.19788 0.0
C11 C 0.16633 0.10135 0.21143 0.0
C12 C 0.1912 0.18831 0.16198 0.0
N13 N 0.12734 0.18967 0.16781 0.0
O14 O 0.3269 0.19104 0.21201 0.0
H15 H 0.16734 0.0556 0.2358 0.0
H16 H 0.21828 0.22538 0.13712 0.0
O17 O 0.29665 0.15185 1.08113 0.0
C18 C 0.33096 0.20631 0.27423 0.0
O19 O 0.32523 0.16228 0.32072 0.0
N20 N 0.28065 0.03032 0.13508 0.0
C21 C 0.23123 0.92087 1.07794 0.0
C22 C 0.27331 0.95925 1.04158 0.0
C23 C 0.29785 0.0141 1.07123 0.0
C24 C 0.25235 0.98589 0.17513 0.0
C25 C 0.22437 0.9318 0.14683 0.0
H26 H 0.32923 0.04439 1.04236 0.0
H27 H 0.24918 0.99372 0.22862 0.0
H28 H 0.39197 0.98695 0.1854 0.0
H29 H 0.5424 0.10588 0.12358 0.0
H30 H 0.06329 0.11731 0.20515 0.0
H31 H 0.28589 0.94838 0.99061 0.0
H32 H 0.19561 0.90079 0.17766 0.0
C33 C 0.12477 0.56489 1.07133 0.0
C34 C 0.08923 0.50906 1.07305 0.0
N35 N 0.02898 0.52329 1.05507 0.0
N36 N 0.08713 0.61397 1.05201 0.0
C37 C 0.02884 0.58668 1.04228 0.0
H38 H 0.1748 0.56941 1.08389 0.0
Co39 Co 0.10958 0.7015 1.03981 0.0
C40 C 0.15685 0.74247 0.18449 0.0
O41 O 0.20643 0.73185 0.22286 0.0
N42 N 0.13311 0.78782 1.02622 0.0
C43 C 0.13456 0.89329 1.01381 0.0
C44 C 0.10137 0.83835 1.00018 0.0
C45 C 0.18829 0.81348 1.04974 0.0
N46 N 0.18957 0.87735 1.04402 0.0
O47 O 0.19104 0.67778 0.99965 0.0
H48 H 0.05566 0.83732 0.97572 0.0
H49 H 0.22536 0.7864 1.07459 0.0
O50 O 0.15184 0.70802 0.13052 0.0
C51 C 0.20631 0.6737 0.93744 0.0
O52 O 0.16228 0.67942 0.89093 0.0
N53 N 0.03031 0.72403 1.07655 0.0
C54 C 0.92086 0.77344 0.13368 0.0
C55 C 0.95924 0.73135 0.17003 0.0
C56 C 0.01408 0.70682 0.14039 0.0
C57 C 0.98588 0.75236 1.03649 0.0
C58 C 0.9318 0.78033 1.0648 0.0
H59 H 0.04437 0.67543 0.16926 0.0
H60 H 0.99371 0.75555 0.98301 0.0
H61 H 0.98694 0.61271 1.02624 0.0
H62 H 0.10588 0.46229 1.08808 0.0
H63 H 0.11729 0.9414 1.0065 0.0
H64 H 0.94836 0.71876 0.221 0.0
H65 H 0.90079 0.8091 1.03397 0.0
C66 C 0.56484 0.87993 0.14035 0.0
C67 C 0.50903 0.91549 0.13863 0.0
N68 N 0.52331 0.97576 0.15652 0.0
N69 N 0.61395 0.91756 0.15964 0.0
C70 C 0.58669 0.97586 0.16933 0.0
H71 H 0.56933 0.82989 0.12785 0.0
Co72 Co 0.70149 0.89508 0.17184 0.0
C73 C 0.74243 0.84784 1.02715 0.0
O74 O 0.73179 0.79827 0.98877 0.0
N75 N 0.78781 0.87153 0.18543 0.0
C76 C 0.89328 0.87008 0.19784 0.0
C77 C 0.83833 0.90326 0.21148 0.0
C78 C 0.81346 0.81637 0.16189 0.0
N79 N 0.87734 0.81508 0.1676 0.0
O80 O 0.67775 0.81363 0.21199 0.0
H81 H 0.83732 0.94896 0.23596 0.0
H82 H 0.78638 0.7793 0.13702 0.0
O83 O 0.70798 0.85284 1.08112 0.0
C84 C 0.67365 0.79835 0.2742 0.0
O85 O 0.67934 0.84238 0.32071 0.0
N86 N 0.72403 0.97435 0.13511 0.0
C87 C 0.77346 0.0838 1.07799 0.0
C88 C 0.73136 0.04544 1.04164 0.0
C89 C 0.70682 0.9906 1.07127 0.0
C90 C 0.75237 0.01876 0.17517 0.0
C91 C 0.78036 0.07285 0.14688 0.0
H92 H 0.67542 0.96032 1.04239 0.0
H93 H 0.75556 0.01093 0.22866 0.0
H94 H 0.61274 0.01776 0.18537 0.0
H95 H 0.46223 0.89885 0.12365 0.0
H96 H 0.94139 0.88736 0.20515 0.0
H97 H 0.71877 0.05633 0.99067 0.0
H98 H 0.80914 0.10384 0.17772 0.0
C99 C 0.87993 0.43983 1.07131 0.0
C100 C 0.91549 0.49564 1.07303 0.0
N101 N 0.97575 0.48137 1.05513 0.0
N102 N 0.91757 0.39072 1.05204 0.0
C103 C 0.97586 0.41799 1.04234 0.0
H104 H 0.82989 0.43532 1.08382 0.0
Co105 Co 0.8951 0.30318 1.03985 0.0
C106 C 0.84784 0.26224 0.18453 0.0
O107 O 0.79828 0.27288 0.2229 0.0
N108 N 0.87156 0.21686 1.02627 0.0
C109 C 0.87012 0.11139 1.01387 0.0
C110 C 0.9033 0.16634 1.00023 0.0
C111 C 0.8164 0.1912 1.04979 0.0
N112 N 0.81512 0.12733 1.04409 0.0
O113 O 0.81365 0.32691 0.99967 0.0
H114 H 0.949 0.16736 0.97576 0.0
H115 H 0.77932 0.21828 1.07464 0.0
O116 O 0.85285 0.29669 0.13056 0.0
C117 C 0.79837 0.33103 0.93746 0.0
O118 O 0.8424 0.32535 0.89096 0.0
N119 N 0.97437 0.28065 1.07662 0.0
C120 C 0.0838 0.23127 0.13383 0.0
C121 C 0.04543 0.27339 0.17013 0.0
C122 C 0.99059 0.2979 0.14046 0.0
C123 C 0.0188 0.25229 1.0366 0.0
C124 C 0.07288 0.22432 1.06495 0.0
H125 H 0.96031 0.32931 0.16929 0.0
H126 H 0.01098 0.24908 0.98311 0.0
H127 H 0.01776 0.39194 1.0263 0.0
H128 H 0.89885 0.54243 1.088 0.0
H129 H 0.88739 0.06328 1.00656 0.0
H130 H 0.05631 0.28601 0.2211 0.0
H131 H 0.10388 0.19554 1.03414 0.0
C132 C 0.43562 0.3922 0.28326 0.0
C133 C 0.48748 0.43203 0.27756 0.0
N134 N 0.48799 0.47168 0.33058 0.0
N135 N 0.40237 0.40677 0.33936 0.0
C136 C 0.43706 0.45461 0.368 0.0
H137 H 0.41997 0.36 0.24443 0.0
Co138 Co 0.31446 0.3866 0.35287 0.0
C139 C 0.30037 0.3875 0.512 0.0
O140 O 0.32958 0.4167 0.56132 0.0
N141 N 0.22712 0.36978 0.36668 0.0
C142 C 0.1296 0.37985 0.41003 0.0
C143 C 0.18624 0.40995 0.39837 0.0
C144 C 0.19266 0.31598 0.35752 0.0
N145 N 0.13432 0.32033 0.38575 0.0
O146 O 0.33366 0.2955 0.35308 0.0
H147 H 0.19746 0.45712 0.41625 0.0
H148 H 0.21099 0.27274 0.33534 0.0
O149 O 0.32334 0.3959 0.45237 0.0
C150 C 0.32892 0.2748 0.29247 0.0
O151 O 0.31212 0.31534 0.24533 0.0
N152 N 0.29525 0.47194 0.34183 0.0
C153 C 0.23225 0.58574 0.32345 0.0
C154 C 0.27429 0.57858 0.37708 0.0
C155 C 0.30297 0.51961 0.38749 0.0
C156 C 0.26447 0.4827 0.28272 0.0
C157 C 0.23089 0.53913 0.27306 0.0
H158 H 0.32538 0.51043 0.43487 0.0
H159 H 0.26028 0.44456 0.24637 0.0
H160 H 0.42251 0.48094 0.41181 0.0
H161 H 0.51836 0.43624 0.2342 0.0
H162 H 0.0886 0.3998 0.43561 0.0
H163 H 0.27776 0.61502 0.41513 0.0
H164 H 0.20099 0.54444 0.22906 0.0
C165 C 0.39232 0.56912 0.92853 0.0
C166 C 0.43216 0.51726 0.93421 0.0
N167 N 0.47172 0.51671 0.88112 0.0
N168 N 0.40679 0.60232 0.87237 0.0
C169 C 0.45459 0.56762 0.84368 0.0
H170 H 0.36019 0.5848 0.9674 0.0
Co171 Co 0.3866 0.69022 0.85885 0.0
C172 C 0.38751 0.70431 0.6997 0.0
O173 O 0.41672 0.67511 0.6504 0.0
N174 N 0.36977 0.77755 0.84501 0.0
C175 C 0.37984 0.87508 0.80166 0.0
C176 C 0.40994 0.81843 0.81332 0.0
C177 C 0.31598 0.81201 0.85417 0.0
N178 N 0.32033 0.87036 0.82593 0.0
O179 O 0.29551 0.671 0.85861 0.0
H180 H 0.45711 0.80721 0.79544 0.0
H181 H 0.27273 0.79368 0.87635 0.0
O182 O 0.39591 0.68135 0.75935 0.0
C183 C 0.2748 0.67574 0.91921 0.0
O184 O 0.31533 0.69255 0.96636 0.0
N185 N 0.47194 0.70945 0.8699 0.0
C186 C 0.58572 0.77252 0.88823 0.0
C187 C 0.57857 0.73041 0.83466 0.0
C188 C 0.51961 0.7017 0.82427 0.0
C189 C 0.48269 0.74028 0.92898 0.0
C190 C 0.5391 0.7739 0.93861 0.0
H191 H 0.51044 0.67925 0.77691 0.0
H192 H 0.44454 0.74449 0.96532 0.0
H193 H 0.48084 0.58214 0.79981 0.0
H194 H 0.43644 0.48641 0.97759 0.0
H195 H 0.39981 0.91607 0.77608 0.0
H196 H 0.61502 0.72693 0.79662 0.0
H197 H 0.5444 0.80384 0.98258 0.0
C198 C 0.5693 0.612 0.28288 0.0
C199 C 0.51757 0.57197 0.27715 0.0
N200 N 0.51704 0.53259 0.33038 0.0
N201 N 0.60235 0.59784 0.33924 0.0
C202 C 0.56768 0.55006 0.36803 0.0
H203 H 0.58504 0.644 0.24393 0.0
Co204 Co 0.69022 0.61808 0.35283 0.0
C205 C 0.70426 0.61717 0.51198 0.0
O206 O 0.67505 0.58798 0.56129 0.0
N207 N 0.77754 0.63495 0.36672 0.0
C208 C 0.87506 0.6249 0.41009 0.0
C209 C 0.81842 0.5948 0.39844 0.0
C210 C 0.81199 0.68875 0.35754 0.0
N211 N 0.87034 0.68441 0.3858 0.0
O212 O 0.67095 0.70916 0.35304 0.0
H213 H 0.8072 0.54762 0.41631 0.0
H214 H 0.79366 0.73198 0.33533 0.0
O215 O 0.68131 0.60877 0.45233 0.0
C216 C 0.67569 0.72986 0.29244 0.0
O217 O 0.69255 0.68934 0.24531 0.0
N218 N 0.70949 0.53276 0.34179 0.0
C219 C 0.77253 0.41897 0.32345 0.0
C220 C 0.73041 0.4261 0.37701 0.0
C221 C 0.70171 0.48506 0.3874 0.0
C222 C 0.74034 0.52203 0.28272 0.0
C223 C 0.77394 0.4656 0.27309 0.0
H224 H 0.67923 0.49422 0.43474 0.0
H225 H 0.74456 0.56018 0.2464 0.0
H226 H 0.58212 0.52404 0.41209 0.0
H227 H 0.48687 0.56743 0.23368 0.0
H228 H 0.91606 0.60495 0.43568 0.0
H229 H 0.7269 0.38965 0.41504 0.0
H230 H 0.80388 0.46031 0.22913 0.0
C231 C 0.61212 0.43546 0.92865 0.0
C232 C 0.57211 0.48719 0.9344 0.0
N233 N 0.53263 0.48767 0.88124 0.0
N234 N 0.59785 0.40234 0.87236 0.0
C235 C 0.55003 0.43698 0.84363 0.0
H236 H 0.64421 0.41976 0.96756 0.0
Co237 Co 0.6181 0.31446 0.85881 0.0
C238 C 0.61717 0.3004 0.69966 0.0
O239 O 0.58797 0.3296 0.65035 0.0
N240 N 0.63497 0.22714 0.84495 0.0
C241 C 0.62493 0.12962 0.80159 0.0
C242 C 0.59482 0.18625 0.81324 0.0
C243 C 0.68878 0.1927 0.85413 0.0
N244 N 0.68445 0.13435 0.82588 0.0
O245 O 0.70918 0.33373 0.8586 0.0
H246 H 0.54764 0.19745 0.79536 0.0
H247 H 0.73201 0.21104 0.87633 0.0
O248 O 0.60878 0.32336 0.7593 0.0
C249 C 0.72988 0.32899 0.91921 0.0
O250 O 0.68936 0.31215 0.96633 0.0
N251 N 0.53278 0.29519 0.86984 0.0
C252 C 0.41897 0.23219 0.88823 0.0
C253 C 0.42612 0.27425 0.83461 0.0
C254 C 0.48509 0.30293 0.82421 0.0
C255 C 0.52204 0.26439 0.92893 0.0
C256 C 0.46561 0.23081 0.9386 0.0
H257 H 0.49425 0.32537 0.77684 0.0
H258 H 0.56019 0.26019 0.96527 0.0
H259 H 0.52392 0.4225 0.79963 0.0
H260 H 0.56766 0.51793 0.97783 0.0
H261 H 0.60499 0.08861 0.77601 0.0
H262 H 0.38966 0.27773 0.79657 0.0
H263 H 0.46031 0.20091 0.98259 0.0
C264 C 0.9398 0.62478 0.64031 0.0
C265 C 0.99562 0.58924 0.6386 0.0
N266 N 0.98139 0.52898 0.65657 0.0
N267 N 0.89072 0.58714 0.65963 0.0
C268 C 0.918 0.52885 0.66935 0.0
H269 H 0.93528 0.67481 0.62776 0.0
Co270 Co 0.80317 0.60959 0.67183 0.0
C271 C 0.76217 0.65688 0.52717 0.0
O272 O 0.77281 0.70644 0.48878 0.0
N273 N 0.71685 0.6331 0.68542 0.0
C274 C 0.6114 0.63458 0.69788 0.0
C275 C 0.66633 0.60134 0.71142 0.0
C276 C 0.6912 0.68831 0.66199 0.0
N277 N 0.62734 0.68967 0.66782 0.0
O278 O 0.8269 0.69104 0.71201 0.0
H279 H 0.66733 0.55559 0.73579 0.0
H280 H 0.71828 0.72538 0.63713 0.0
O281 O 0.79664 0.65186 0.58113 0.0
C282 C 0.83096 0.70631 0.77423 0.0
O283 O 0.82523 0.66228 0.82072 0.0
N284 N 0.78065 0.53032 0.63507 0.0
C285 C 0.73123 0.42087 0.57793 0.0
C286 C 0.77331 0.45926 0.54158 0.0
C287 C 0.79785 0.5141 0.57122 0.0
C288 C 0.75235 0.48589 0.67513 0.0
C289 C 0.72437 0.4318 0.64682 0.0
H290 H 0.82922 0.5444 0.54236 0.0
H291 H 0.74918 0.49371 0.72862 0.0
H292 H 0.89197 0.48695 0.68539 0.0
H293 H 0.0424 0.60588 0.62357 0.0
H294 H 0.56329 0.6173 0.70515 0.0
H295 H 0.78588 0.44838 0.4906 0.0
H296 H 0.69562 0.40079 0.67766 0.0
C297 C 0.62477 0.06489 0.57134 0.0
C298 C 0.58923 0.00906 0.57305 0.0
N299 N 0.52898 0.02329 0.55508 0.0
N300 N 0.58713 0.11397 0.55201 0.0
C301 C 0.52884 0.08668 0.54229 0.0
H302 H 0.6748 0.06941 0.58389 0.0
Co303 Co 0.60958 0.20151 0.53981 0.0
C304 C 0.65687 0.24249 0.68448 0.0
O305 O 0.70643 0.23185 0.72288 0.0
N306 N 0.6331 0.28783 0.52622 0.0
C307 C 0.63456 0.39329 0.51381 0.0
C308 C 0.60136 0.33835 0.50018 0.0
C309 C 0.68828 0.31348 0.54973 0.0
N310 N 0.68957 0.37735 0.54401 0.0
O311 O 0.69103 0.17778 0.49965 0.0
H312 H 0.55565 0.33733 0.47573 0.0
H313 H 0.72537 0.28641 0.57458 0.0
O314 O 0.65185 0.20803 0.63052 0.0
C315 C 0.70631 0.17371 0.43744 0.0
O316 O 0.66228 0.17942 0.39093 0.0
N317 N 0.53031 0.22403 0.57655 0.0
C318 C 0.42086 0.27344 0.63369 0.0
C319 C 0.45925 0.23135 0.67004 0.0
C320 C 0.51409 0.20682 0.6404 0.0
C321 C 0.48588 0.25236 0.5365 0.0
C322 C 0.43179 0.28033 0.56481 0.0
H323 H 0.54438 0.17544 0.66926 0.0
H324 H 0.49371 0.25554 0.48301 0.0
H325 H 0.48694 0.11271 0.52625 0.0
H326 H 0.60588 0.96229 0.58809 0.0
H327 H 0.61728 0.4414 0.5065 0.0
H328 H 0.44837 0.21876 0.72101 0.0
H329 H 0.40079 0.3091 0.53397 0.0
C330 C 0.06484 0.37993 0.64035 0.0
C331 C 0.00903 0.41549 0.63862 0.0
N332 N 0.02331 0.47576 0.65652 0.0
N333 N 0.11395 0.41756 0.65963 0.0
C334 C 0.08669 0.47586 0.66932 0.0
H335 H 0.06933 0.32989 0.62785 0.0
Co336 Co 0.20149 0.39508 0.67184 0.0
C337 C 0.24244 0.34782 0.52716 0.0
O338 O 0.23179 0.29827 0.48876 0.0
N339 N 0.28781 0.37154 0.68543 0.0
C340 C 0.39328 0.37009 0.69784 0.0
C341 C 0.33834 0.40327 0.71148 0.0
C342 C 0.31347 0.31637 0.6619 0.0
N343 N 0.37734 0.31509 0.66761 0.0
O344 O 0.17775 0.31363 0.71199 0.0
H345 H 0.33732 0.44897 0.73596 0.0
H346 H 0.28639 0.2793 0.63704 0.0
O347 O 0.20799 0.35284 0.58112 0.0
C348 C 0.17365 0.29835 0.77421 0.0
O349 O 0.17934 0.34238 0.82071 0.0
N350 N 0.22404 0.47435 0.63511 0.0
C351 C 0.27346 0.5838 0.57799 0.0
C352 C 0.23136 0.54544 0.54163 0.0
C353 C 0.20682 0.49059 0.57126 0.0
C354 C 0.25237 0.51877 0.67517 0.0
C355 C 0.28036 0.57285 0.64687 0.0
H356 H 0.17543 0.46031 0.54239 0.0
H357 H 0.25556 0.51093 0.72866 0.0
H358 H 0.11274 0.51776 0.68536 0.0
H359 H 0.96224 0.39885 0.62365 0.0
H360 H 0.44139 0.38736 0.70515 0.0
H361 H 0.21877 0.55633 0.49066 0.0
H362 H 0.30914 0.60385 0.67771 0.0
C363 C 0.37993 0.93982 0.57132 0.0
C364 C 0.41549 0.99564 0.57304 0.0
N365 N 0.47575 0.98137 0.55514 0.0
N366 N 0.41757 0.89072 0.55204 0.0
C367 C 0.47586 0.91799 0.54234 0.0
H368 H 0.32989 0.93532 0.58382 0.0
Co369 Co 0.3951 0.80318 0.53985 0.0
C370 C 0.34782 0.76223 0.68452 0.0
O371 O 0.29828 0.77288 0.72291 0.0
N372 N 0.37156 0.71686 0.52627 0.0
C373 C 0.37012 0.61139 0.51387 0.0
C374 C 0.4033 0.66634 0.50023 0.0
C375 C 0.3164 0.6912 0.54978 0.0
N376 N 0.31512 0.62733 0.54408 0.0
O377 O 0.31365 0.82691 0.49967 0.0
H378 H 0.449 0.66736 0.47577 0.0
H379 H 0.27932 0.71827 0.57463 0.0
O380 O 0.35284 0.79668 0.63056 0.0
C381 C 0.29837 0.83102 0.43745 0.0
O382 O 0.3424 0.82535 0.39096 0.0
N383 N 0.47437 0.78065 0.57662 0.0
C384 C 0.5838 0.73127 0.63384 0.0
C385 C 0.54543 0.77339 0.67014 0.0
C386 C 0.49059 0.7979 0.64046 0.0
C387 C 0.5188 0.7523 0.5366 0.0
C388 C 0.57288 0.72433 0.56495 0.0
H389 H 0.4603 0.8293 0.6693 0.0
H390 H 0.51099 0.74909 0.48311 0.0
H391 H 0.51776 0.89194 0.52631 0.0
H392 H 0.39884 0.04243 0.588 0.0
H393 H 0.3874 0.56328 0.50656 0.0
H394 H 0.5563 0.786 0.72111 0.0
H395 H 0.60389 0.69554 0.53415 0.0
C396 C 0.93562 0.8922 0.78326 0.0
C397 C 0.98749 0.93203 0.77756 0.0
N398 N 0.98799 0.97168 0.83058 0.0
N399 N 0.90237 0.90677 0.83936 0.0
C400 C 0.93706 0.95462 0.868 0.0
H401 H 0.91997 0.86 0.74443 0.0
Co402 Co 0.81446 0.8866 0.85287 0.0
C403 C 0.80037 0.88751 1.012 0.0
O404 O 0.82957 0.9167 1.06132 0.0
N405 N 0.72712 0.86978 0.86668 0.0
C406 C 0.62959 0.87985 0.91002 0.0
C407 C 0.68624 0.90995 0.89837 0.0
C408 C 0.69266 0.81598 0.85751 0.0
N409 N 0.63431 0.82034 0.88574 0.0
O410 O 0.83366 0.7955 0.85307 0.0
H411 H 0.69745 0.95713 0.91625 0.0
H412 H 0.711 0.77274 0.83535 0.0
O413 O 0.82334 0.8959 0.95237 0.0
C414 C 0.82892 0.7748 0.79247 0.0
O415 O 0.81212 0.81534 0.74533 0.0
N416 N 0.79525 0.97194 0.84183 0.0
C417 C 0.73225 0.08574 0.82345 0.0
C418 C 0.77429 0.07858 0.87708 0.0
C419 C 0.80297 0.01961 0.88749 0.0
C420 C 0.76448 0.9827 0.78272 0.0
C421 C 0.73089 0.03913 0.77306 0.0
H422 H 0.82537 0.01043 0.93488 0.0
H423 H 0.76029 0.94456 0.74637 0.0
H424 H 0.92251 0.98094 0.91181 0.0
H425 H 0.01837 0.93623 0.73421 0.0
H426 H 0.5886 0.89981 0.9356 0.0
H427 H 0.77775 0.11502 0.91514 0.0
H428 H 0.701 0.04444 0.72906 0.0
C429 C 0.89232 0.06912 0.42853 0.0
C430 C 0.93216 0.01726 0.43421 0.0
N431 N 0.97172 0.01671 0.38112 0.0
N432 N 0.90679 0.10232 0.37237 0.0
C433 C 0.95459 0.06762 0.34368 0.0
H434 H 0.86019 0.0848 0.4674 0.0
Co435 Co 0.8866 0.19022 0.35884 0.0
C436 C 0.88752 0.20431 0.19971 0.0
O437 O 0.91672 0.17511 0.1504 0.0
N438 N 0.86977 0.27755 0.34501 0.0
C439 C 0.87985 0.37508 0.30167 0.0
C440 C 0.90994 0.31843 0.31332 0.0
C441 C 0.81598 0.31201 0.35417 0.0
N442 N 0.82033 0.37037 0.32595 0.0
O443 O 0.79551 0.171 0.35861 0.0
H444 H 0.95711 0.30722 0.29544 0.0
H445 H 0.77273 0.29368 0.37634 0.0
O446 O 0.89591 0.18135 0.25935 0.0
C447 C 0.7748 0.17574 0.41922 0.0
O448 O 0.81533 0.19255 0.46636 0.0
N449 N 0.97194 0.20945 0.3699 0.0
C450 C 0.08571 0.27252 0.38823 0.0
C451 C 0.07857 0.23042 0.33465 0.0
C452 C 0.01961 0.20171 0.32426 0.0
C453 C 0.98269 0.24028 0.42898 0.0
C454 C 0.0391 0.2739 0.43862 0.0
H455 H 0.01044 0.17925 0.2769 0.0
H456 H 0.94455 0.24449 0.46532 0.0
H457 H 0.98084 0.08214 0.29981 0.0
H458 H 0.93645 0.98642 0.47759 0.0
H459 H 0.89981 0.41608 0.27609 0.0
H460 H 0.11502 0.22694 0.29661 0.0
H461 H 0.0444 0.30383 0.48258 0.0
C462 C 0.0693 0.112 0.78289 0.0
C463 C 0.01757 0.07197 0.77715 0.0
N464 N 0.01704 0.03259 0.83038 0.0
N465 N 0.10235 0.09783 0.83924 0.0
C466 C 0.06769 0.05006 0.86803 0.0
H467 H 0.08504 0.14401 0.74393 0.0
Co468 Co 0.19023 0.11808 0.85283 0.0
C469 C 0.20427 0.11717 1.01198 0.0
O470 O 0.17506 0.08798 1.06129 0.0
N471 N 0.27754 0.13495 0.86672 0.0
C472 C 0.37506 0.1249 0.91009 0.0
C473 C 0.31842 0.0948 0.89843 0.0
C474 C 0.312 0.18875 0.85754 0.0
N475 N 0.37035 0.1844 0.88578 0.0
O476 O 0.17096 0.20916 0.85304 0.0
H477 H 0.3072 0.04762 0.91632 0.0
H478 H 0.29366 0.23198 0.83534 0.0
O479 O 0.18131 0.10877 0.95233 0.0
C480 C 0.17569 0.22986 0.79244 0.0
O481 O 0.19255 0.18934 0.74531 0.0
N482 N 0.20949 0.03276 0.84179 0.0
C483 C 0.27253 0.91897 0.82345 0.0
C484 C 0.23042 0.9261 0.87702 0.0
C485 C 0.20171 0.98506 0.88741 0.0
C486 C 0.24033 0.02203 0.78273 0.0
C487 C 0.27394 0.9656 0.77309 0.0
H488 H 0.17924 0.99422 0.93475 0.0
H489 H 0.24456 0.06018 0.7464 0.0
H490 H 0.08213 0.02404 0.91208 0.0
H491 H 0.98687 0.06743 0.73368 0.0
H492 H 0.41606 0.10494 0.93567 0.0
H493 H 0.22691 0.88965 0.91505 0.0
H494 H 0.30387 0.96031 0.72913 0.0
C495 C 0.11212 0.93546 0.42865 0.0
C496 C 0.07211 0.98719 0.43439 0.0
N497 N 0.03263 0.98767 0.38124 0.0
N498 N 0.09785 0.90234 0.37236 0.0
C499 C 0.05002 0.93698 0.34363 0.0
H500 H 0.14422 0.91977 0.46755 0.0
Co501 Co 0.11809 0.81446 0.3588 0.0
C502 C 0.11717 0.8004 0.19966 0.0
O503 O 0.08797 0.8296 0.15034 0.0
N504 N 0.13497 0.72714 0.34495 0.0
C505 C 0.12493 0.62961 0.3016 0.0
C506 C 0.09482 0.68625 0.31324 0.0
C507 C 0.18878 0.6927 0.35413 0.0
N508 N 0.18444 0.63434 0.3259 0.0
O509 O 0.20917 0.83373 0.3586 0.0
H510 H 0.04764 0.69745 0.29535 0.0
H511 H 0.23201 0.71104 0.37633 0.0
O512 O 0.10878 0.82336 0.2593 0.0
C513 C 0.22988 0.82899 0.41921 0.0
O514 O 0.18936 0.81215 0.46633 0.0
N515 N 0.03277 0.79519 0.36984 0.0
C516 C 0.91897 0.73219 0.38823 0.0
C517 C 0.92612 0.77424 0.33461 0.0
C518 C 0.98508 0.80292 0.3242 0.0
C519 C 0.02204 0.76439 0.42893 0.0
C520 C 0.96561 0.73082 0.4386 0.0
H521 H 0.99425 0.82536 0.27683 0.0
H522 H 0.06019 0.7602 0.46527 0.0
H523 H 0.02391 0.9225 0.29964 0.0
H524 H 0.06767 0.01794 0.47783 0.0
H525 H 0.10498 0.58861 0.27601 0.0
H526 H 0.88966 0.77772 0.29656 0.0
H527 H 0.9603 0.70092 0.48259 0.0
loop_
_geom_bond_atom_site_label_1
_geom_bond_atom_site_label_2
_geom_bond_distance
_geom_bond_site_symmetry_2
_ccdc_geom_bond_type
C0 C1 1.351 . S
C0 N3 1.368 . S
C0 H5 0.931 . S
C1 C0 1.351 . S
C1 N2 1.373 1_554 S
C1 H29 0.930 . S
N2 C1 1.373 1_556 S
N2 C4 1.340 . S
N3 C0 1.368 . S
N3 C4 1.321 1_554 S
N3 Co6 2.135 1_554 S
C4 N2 1.340 . S
C4 N3 1.321 1_556 S
C4 H28 0.930 . S
H5 C0 0.931 . S
Co6 N3 2.135 1_556 S
Co6 N9 2.121 . S
Co6 O14 2.055 1_556 S
Co6 O17 2.039 . S
Co6 N20 2.140 1_556 S
C7 O8 1.227 . S
C7 O17 1.265 . S
O8 C7 1.227 . S
N9 Co6 2.121 . S
N9 C11 1.375 . S
N9 C12 1.313 1_556 S
C10 C11 1.338 . S
C10 N13 1.377 . S
C10 H30 0.930 . S
C11 N9 1.375 . S
C11 C10 1.338 . S
C11 H15 0.931 . S
C12 N9 1.313 1_554 S
C12 N13 1.344 1_554 S
C12 H16 0.930 . S
N13 C10 1.377 . S
N13 C12 1.344 1_556 S
O14 Co6 2.055 1_554 S
O14 C18 1.253 . S
H15 C11 0.931 . S
H16 C12 0.930 . S
O17 Co6 2.039 . S
O17 C7 1.265 . S
C18 O14 1.253 . S
C18 O19 1.227 . S
O19 C18 1.227 . S
N20 Co6 2.140 1_554 S
N20 C23 1.346 1_554 S
N20 C24 1.345 . S
C21 C22 1.397 . S
C21 C25 1.391 . S
C22 C21 1.397 . S
C22 C23 1.367 1_564 S
C22 H31 0.923 1_554 S
C23 N20 1.346 1_556 S
C23 C22 1.367 1_546 S
C23 H26 0.928 . S
C24 N20 1.345 . S
C24 C25 1.371 1_545 S
C24 H27 0.931 . S
C25 C21 1.391 . S
C25 C24 1.371 1_565 S
C25 H32 0.930 . S
H26 C23 0.928 . S
H27 C24 0.931 . S
H28 C4 0.930 . S
H29 C1 0.930 . S
H30 C10 0.930 . S
H31 C22 0.923 1_556 S
H32 C25 0.930 . S
C33 C34 1.351 . S
C33 N36 1.368 . S
C33 H38 0.931 . S
C34 C33 1.351 . S
C34 N35 1.373 1_556 S
C34 H62 0.930 . S
N35 C34 1.373 1_554 S
N35 C37 1.340 . S
N36 C33 1.368 . S
N36 C37 1.321 1_556 S
N36 Co39 2.135 1_556 S
C37 N35 1.340 . S
C37 N36 1.321 1_554 S
C37 H61 0.930 . S
H38 C33 0.931 . S
Co39 N36 2.135 1_554 S
Co39 N42 2.121 . S
Co39 O47 2.055 1_554 S
Co39 O50 2.039 . S
Co39 N53 2.140 1_554 S
C40 O41 1.227 . S
C40 O50 1.265 . S
O41 C40 1.227 . S
N42 Co39 2.121 . S
N42 C44 1.375 . S
N42 C45 1.313 1_554 S
C43 C44 1.338 . S
C43 N46 1.377 . S
C43 H63 0.930 . S
C44 N42 1.375 . S
C44 C43 1.338 . S
C44 H48 0.931 . S
C45 N42 1.313 1_556 S
C45 N46 1.344 1_556 S
C45 H49 0.930 . S
N46 C43 1.377 . S
N46 C45 1.344 1_554 S
O47 Co39 2.055 1_556 S
O47 C51 1.253 . S
H48 C44 0.931 . S
H49 C45 0.930 . S
O50 Co39 2.039 . S
O50 C40 1.265 . S
C51 O47 1.253 . S
C51 O52 1.227 . S
O52 C51 1.227 . S
N53 Co39 2.140 1_556 S
N53 C56 1.346 1_556 S
N53 C57 1.345 . S
C54 C55 1.397 . S
C54 C58 1.391 . S
C55 C54 1.397 . S
C55 C56 1.367 1_656 S
C55 H64 0.923 1_556 S
C56 N53 1.346 1_554 S
C56 C55 1.367 1_454 S
C56 H59 0.928 . S
C57 N53 1.345 . S
C57 C58 1.371 1_455 S
C57 H60 0.931 . S
C58 C54 1.391 . S
C58 C57 1.371 1_655 S
C58 H65 0.930 . S
H59 C56 0.928 . S
H60 C57 0.931 . S
H61 C37 0.930 . S
H62 C34 0.930 . S
H63 C43 0.930 . S
H64 C55 0.923 1_554 S
H65 C58 0.930 . S
C66 C67 1.351 . S
C66 N69 1.368 . S
C66 H71 0.931 . S
C67 C66 1.351 . S
C67 N68 1.373 1_554 S
C67 H95 0.930 . S
N68 C67 1.373 1_556 S
N68 C70 1.340 . S
N69 C66 1.368 . S
N69 C70 1.321 1_554 S
N69 Co72 2.135 1_554 S
C70 N68 1.340 . S
C70 N69 1.321 1_556 S
C70 H94 0.930 . S
H71 C66 0.931 . S
Co72 N69 2.135 1_556 S
Co72 N75 2.121 . S
Co72 O80 2.055 1_556 S
Co72 O83 2.039 . S
Co72 N86 2.140 1_556 S
C73 O74 1.227 . S
C73 O83 1.265 . S
O74 C73 1.227 . S
N75 Co72 2.121 . S
N75 C77 1.375 . S
N75 C78 1.313 1_556 S
C76 C77 1.338 . S
C76 N79 1.377 . S
C76 H96 0.930 . S
C77 N75 1.375 . S
C77 C76 1.338 . S
C77 H81 0.931 . S
C78 N75 1.313 1_554 S
C78 N79 1.344 1_554 S
C78 H82 0.930 . S
N79 C76 1.377 . S
N79 C78 1.344 1_556 S
O80 Co72 2.055 1_554 S
O80 C84 1.253 . S
H81 C77 0.931 . S
H82 C78 0.930 . S
O83 Co72 2.039 . S
O83 C73 1.265 . S
C84 O80 1.253 . S
C84 O85 1.227 . S
O85 C84 1.227 . S
N86 Co72 2.140 1_554 S
N86 C89 1.346 1_554 S
N86 C90 1.345 . S
C87 C88 1.397 . S
C87 C91 1.391 . S
C88 C87 1.397 . S
C88 C89 1.367 1_544 S
C88 H97 0.923 1_554 S
C89 N86 1.346 1_556 S
C89 C88 1.367 1_566 S
C89 H92 0.928 . S
C90 N86 1.345 . S
C90 C91 1.371 1_565 S
C90 H93 0.931 . S
C91 C87 1.391 . S
C91 C90 1.371 1_545 S
C91 H98 0.930 . S
H92 C89 0.928 . S
H93 C90 0.931 . S
H94 C70 0.930 . S
H95 C67 0.930 . S
H96 C76 0.930 . S
H97 C88 0.923 1_556 S
H98 C91 0.930 . S
C99 C100 1.351 . S
C99 N102 1.368 . S
C99 H104 0.931 . S
C100 C99 1.351 . S
C100 N101 1.373 1_556 S
C100 H128 0.930 . S
N101 C100 1.373 1_554 S
N101 C103 1.340 . S
N102 C99 1.368 . S
N102 C103 1.321 1_556 S
N102 Co105 2.135 1_556 S
C103 N101 1.340 . S
C103 N102 1.321 1_554 S
C103 H127 0.930 . S
H104 C99 0.931 . S
Co105 N102 2.135 1_554 S
Co105 N108 2.121 . S
Co105 O113 2.055 1_554 S
Co105 O116 2.039 . S
Co105 N119 2.140 1_554 S
C106 O107 1.227 . S
C106 O116 1.265 . S
O107 C106 1.227 . S
N108 Co105 2.121 . S
N108 C110 1.375 . S
N108 C111 1.313 1_554 S
C109 C110 1.338 . S
C109 N112 1.377 . S
C109 H129 0.930 . S
C110 N108 1.375 . S
C110 C109 1.338 . S
C110 H114 0.931 . S
C111 N108 1.313 1_556 S
C111 N112 1.344 1_556 S
C111 H115 0.930 . S
N112 C109 1.377 . S
N112 C111 1.344 1_554 S
O113 Co105 2.055 1_556 S
O113 C117 1.253 . S
H114 C110 0.931 . S
H115 C111 0.930 . S
O116 Co105 2.039 . S
O116 C106 1.265 . S
C117 O113 1.253 . S
C117 O118 1.227 . S
O118 C117 1.227 . S
N119 Co105 2.140 1_556 S
N119 C122 1.346 1_556 S
N119 C123 1.345 . S
C120 C121 1.397 . S
C120 C124 1.391 . S
C121 C120 1.397 . S
C121 C122 1.367 1_456 S
C121 H130 0.923 1_556 S
C122 N119 1.346 1_554 S
C122 C121 1.367 1_654 S
C122 H125 0.928 . S
C123 N119 1.345 . S
C123 C124 1.371 1_655 S
C123 H126 0.931 . S
C124 C120 1.391 . S
C124 C123 1.371 1_455 S
C124 H131 0.930 . S
H125 C122 0.928 . S
H126 C123 0.931 . S
H127 C103 0.930 . S
H128 C100 0.930 . S
H129 C109 0.930 . S
H130 C121 0.923 1_554 S
H131 C124 0.930 . S
C132 C133 1.351 . S
C132 N135 1.368 . S
C132 H137 0.931 . S
C133 C132 1.351 . S
C133 N134 1.373 . S
C133 H161 0.930 . S
N134 C133 1.373 . S
N134 C136 1.340 . S
N135 C132 1.368 . S
N135 C136 1.321 . S
N135 Co138 2.135 . S
C136 N134 1.340 . S
C136 N135 1.321 . S
C136 H160 0.930 . S
H137 C132 0.931 . S
Co138 N135 2.135 . S
Co138 N141 2.121 . S
Co138 O146 2.055 . S
Co138 O149 2.039 . S
Co138 N152 2.140 . S
C139 O140 1.227 . S
C139 O149 1.265 . S
O140 C139 1.227 . S
N141 Co138 2.121 . S
N141 C143 1.375 . S
N141 C144 1.313 . S
C142 C143 1.338 . S
C142 N145 1.377 . S
C142 H162 0.930 . S
C143 N141 1.375 . S
C143 C142 1.338 . S
C143 H147 0.931 . S
C144 N141 1.313 . S
C144 N145 1.344 . S
C144 H148 0.930 . S
N145 C142 1.377 . S
N145 C144 1.344 . S
O146 Co138 2.055 . S
O146 C150 1.253 . S
H147 C143 0.931 . S
H148 C144 0.930 . S
O149 Co138 2.039 . S
O149 C139 1.265 . S
C150 O146 1.253 . S
C150 O151 1.227 . S
O151 C150 1.227 . S
N152 Co138 2.140 . S
N152 C155 1.346 . S
N152 C156 1.345 . S
C153 C154 1.387 . S
C153 C157 1.391 . S
C154 C153 1.387 . S
C154 C155 1.369 . S
C154 H163 0.929 . S
C155 N152 1.346 . S
C155 C154 1.369 . S
C155 H158 0.928 . S
C156 N152 1.345 . S
C156 C157 1.371 . S
C156 H159 0.931 . S
C157 C153 1.391 . S
C157 C156 1.371 . S
C157 H164 0.930 . S
H158 C155 0.928 . S
H159 C156 0.931 . S
H160 C136 0.930 . S
H161 C133 0.930 . S
H162 C142 0.930 . S
H163 C154 0.929 . S
H164 C157 0.930 . S
C165 C166 1.351 . S
C165 N168 1.368 . S
C165 H170 0.931 . S
C166 C165 1.351 . S
C166 N167 1.373 . S
C166 H194 0.930 . S
N167 C166 1.373 . S
N167 C169 1.340 . S
N168 C165 1.368 . S
N168 C169 1.321 . S
N168 Co171 2.135 . S
C169 N167 1.340 . S
C169 N168 1.321 . S
C169 H193 0.930 . S
H170 C165 0.931 . S
Co171 N168 2.135 . S
Co171 N174 2.121 . S
Co171 O179 2.055 . S
Co171 O182 2.039 . S
Co171 N185 2.140 . S
C172 O173 1.227 . S
C172 O182 1.265 . S
O173 C172 1.227 . S
N174 Co171 2.121 . S
N174 C176 1.375 . S
N174 C177 1.313 . S
C175 C176 1.338 . S
C175 N178 1.377 . S
C175 H195 0.930 . S
C176 N174 1.375 . S
C176 C175 1.338 . S
C176 H180 0.931 . S
C177 N174 1.313 . S
C177 N178 1.344 . S
C177 H181 0.930 . S
N178 C175 1.377 . S
N178 C177 1.344 . S
O179 Co171 2.055 . S
O179 C183 1.253 . S
H180 C176 0.931 . S
H181 C177 0.930 . S
O182 Co171 2.039 . S
O182 C172 1.265 . S
C183 O179 1.253 . S
C183 O184 1.227 . S
O184 C183 1.227 . S
N185 Co171 2.140 . S
N185 C188 1.346 . S
N185 C189 1.345 . S
C186 C187 1.387 . S
C186 C190 1.391 . S
C187 C186 1.387 . S
C187 C188 1.369 . S
C187 H196 0.929 . S
C188 N185 1.346 . S
C188 C187 1.369 . S
C188 H191 0.928 . S
C189 N185 1.345 . S
C189 C190 1.371 . S
C189 H192 0.931 . S
C190 C186 1.391 . S
C190 C189 1.371 . S
C190 H197 0.930 . S
H191 C188 0.928 . S
H192 C189 0.931 . S
H193 C169 0.930 . S
H194 C166 0.930 . S
H195 C175 0.930 . S
H196 C187 0.929 . S
H197 C190 0.930 . S
C198 C199 1.351 . S
C198 N201 1.368 . S
C198 H203 0.931 . S
C199 C198 1.351 . S
C199 N200 1.373 . S
C199 H227 0.930 . S
N200 C199 1.373 . S
N200 C202 1.340 . S
N201 C198 1.368 . S
N201 C202 1.321 . S
N201 Co204 2.135 . S
C202 N200 1.340 . S
C202 N201 1.321 . S
C202 H226 0.930 . S
H203 C198 0.931 . S
Co204 N201 2.135 . S
Co204 N207 2.121 . S
Co204 O212 2.055 . S
Co204 O215 2.039 . S
Co204 N218 2.140 . S
C205 O206 1.227 . S
C205 O215 1.265 . S
O206 C205 1.227 . S
N207 Co204 2.121 . S
N207 C209 1.375 . S
N207 C210 1.313 . S
C208 C209 1.338 . S
C208 N211 1.377 . S
C208 H228 0.930 . S
C209 N207 1.375 . S
C209 C208 1.338 . S
C209 H213 0.931 . S
C210 N207 1.313 . S
C210 N211 1.344 . S
C210 H214 0.930 . S
N211 C208 1.377 . S
N211 C210 1.344 . S
O212 Co204 2.055 . S
O212 C216 1.253 . S
H213 C209 0.931 . S
H214 C210 0.930 . S
O215 Co204 2.039 . S
O215 C205 1.265 . S
C216 O212 1.253 . S
C216 O217 1.227 . S
O217 C216 1.227 . S
N218 Co204 2.140 . S
N218 C221 1.346 . S
N218 C222 1.345 . S
C219 C220 1.387 . S
C219 C223 1.391 . S
C220 C219 1.387 . S
C220 C221 1.369 . S
C220 H229 0.929 . S
C221 N218 1.346 . S
C221 C220 1.369 . S
C221 H224 0.928 . S
C222 N218 1.345 . S
C222 C223 1.371 . S
C222 H225 0.931 . S
C223 C219 1.391 . S
C223 C222 1.371 . S
C223 H230 0.930 . S
H224 C221 0.928 . S
H225 C222 0.931 . S
H226 C202 0.930 . S
H227 C199 0.930 . S
H228 C208 0.930 . S
H229 C220 0.929 . S
H230 C223 0.930 . S
C231 C232 1.351 . S
C231 N234 1.368 . S
C231 H236 0.931 . S
C232 C231 1.351 . S
C232 N233 1.373 . S
C232 H260 0.930 . S
N233 C232 1.373 . S
N233 C235 1.340 . S
N234 C231 1.368 . S
N234 C235 1.321 . S
N234 Co237 2.135 . S
C235 N233 1.340 . S
C235 N234 1.321 . S
C235 H259 0.930 . S
H236 C231 0.931 . S
Co237 N234 2.135 . S
Co237 N240 2.121 . S
Co237 O245 2.055 . S
Co237 O248 2.039 . S
Co237 N251 2.140 . S
C238 O239 1.227 . S
C238 O248 1.265 . S
O239 C238 1.227 . S
N240 Co237 2.121 . S
N240 C242 1.375 . S
N240 C243 1.313 . S
C241 C242 1.338 . S
C241 N244 1.377 . S
C241 H261 0.930 . S
C242 N240 1.375 . S
C242 C241 1.338 . S
C242 H246 0.931 . S
C243 N240 1.313 . S
C243 N244 1.344 . S
C243 H247 0.930 . S
N244 C241 1.377 . S
N244 C243 1.344 . S
O245 Co237 2.055 . S
O245 C249 1.253 . S
H246 C242 0.931 . S
H247 C243 0.930 . S
O248 Co237 2.039 . S
O248 C238 1.265 . S
C249 O245 1.253 . S
C249 O250 1.227 . S
O250 C249 1.227 . S
N251 Co237 2.140 . S
N251 C254 1.346 . S
N251 C255 1.345 . S
C252 C253 1.387 . S
C252 C256 1.391 . S
C253 C252 1.387 . S
C253 C254 1.369 . S
C253 H262 0.929 . S
C254 N251 1.346 . S
C254 C253 1.369 . S
C254 H257 0.928 . S
C255 N251 1.345 . S
C255 C256 1.371 . S
C255 H258 0.931 . S
C256 C252 1.391 . S
C256 C255 1.371 . S
C256 H263 0.930 . S
H257 C254 0.928 . S
H258 C255 0.931 . S
H259 C235 0.930 . S
H260 C232 0.930 . S
H261 C241 0.930 . S
H262 C253 0.929 . S
H263 C256 0.930 . S
C264 C265 1.351 . S
C264 N267 1.368 . S
C264 H269 0.931 . S
C265 C264 1.351 . S
C265 N266 1.373 . S
C265 H293 0.930 1_655 S
N266 C265 1.373 . S
N266 C268 1.340 . S
N267 C264 1.368 . S
N267 C268 1.321 . S
N267 Co270 2.135 . S
C268 N266 1.340 . S
C268 N267 1.321 . S
C268 H292 0.930 . S
H269 C264 0.931 . S
Co270 N267 2.135 . S
Co270 N273 2.121 . S
Co270 O278 2.055 . S
Co270 O281 2.039 . S
Co270 N284 2.140 . S
C271 O272 1.227 . S
C271 O281 1.265 . S
O272 C271 1.227 . S
N273 Co270 2.121 . S
N273 C275 1.375 . S
N273 C276 1.313 . S
C274 C275 1.338 . S
C274 N277 1.377 . S
C274 H294 0.930 . S
C275 N273 1.375 . S
C275 C274 1.338 . S
C275 H279 0.931 . S
C276 N273 1.313 . S
C276 N277 1.344 . S
C276 H280 0.930 . S
N277 C274 1.377 . S
N277 C276 1.344 . S
O278 Co270 2.055 . S
O278 C282 1.253 . S
H279 C275 0.931 . S
H280 C276 0.930 . S
O281 Co270 2.039 . S
O281 C271 1.265 . S
C282 O278 1.253 . S
C282 O283 1.227 . S
O283 C282 1.227 . S
N284 Co270 2.140 . S
N284 C287 1.346 . S
N284 C288 1.345 . S
C285 C286 1.387 . S
C285 C289 1.391 . S
C286 C285 1.387 . S
C286 C287 1.369 . S
C286 H295 0.929 . S
C287 N284 1.346 . S
C287 C286 1.369 . S
C287 H290 0.928 . S
C288 N284 1.345 . S
C288 C289 1.371 . S
C288 H291 0.931 . S
C289 C285 1.391 . S
C289 C288 1.371 . S
C289 H296 0.930 . S
H290 C287 0.928 . S
H291 C288 0.931 . S
H292 C268 0.930 . S
H293 C265 0.930 1_455 S
H294 C274 0.930 . S
H295 C286 0.929 . S
H296 C289 0.930 . S
C297 C298 1.351 . S
C297 N300 1.368 . S
C297 H302 0.931 . S
C298 C297 1.351 . S
C298 N299 1.373 . S
C298 H326 0.930 1_545 S
N299 C298 1.373 . S
N299 C301 1.340 . S
N300 C297 1.368 . S
N300 C301 1.321 . S
N300 Co303 2.135 . S
C301 N299 1.340 . S
C301 N300 1.321 . S
C301 H325 0.930 . S
H302 C297 0.931 . S
Co303 N300 2.135 . S
Co303 N306 2.121 . S
Co303 O311 2.055 . S
Co303 O314 2.039 . S
Co303 N317 2.140 . S
C304 O305 1.227 . S
C304 O314 1.265 . S
O305 C304 1.227 . S
N306 Co303 2.121 . S
N306 C308 1.375 . S
N306 C309 1.313 . S
C307 C308 1.338 . S
C307 N310 1.377 . S
C307 H327 0.930 . S
C308 N306 1.375 . S
C308 C307 1.338 . S
C308 H312 0.931 . S
C309 N306 1.313 . S
C309 N310 1.344 . S
C309 H313 0.930 . S
N310 C307 1.377 . S
N310 C309 1.344 . S
O311 Co303 2.055 . S
O311 C315 1.253 . S
H312 C308 0.931 . S
H313 C309 0.930 . S
O314 Co303 2.039 . S
O314 C304 1.265 . S
C315 O311 1.253 . S
C315 O316 1.227 . S
O316 C315 1.227 . S
N317 Co303 2.140 . S
N317 C320 1.346 . S
N317 C321 1.345 . S
C318 C319 1.387 . S
C318 C322 1.391 . S
C319 C318 1.387 . S
C319 C320 1.369 . S
C319 H328 0.929 . S
C320 N317 1.346 . S
C320 C319 1.369 . S
C320 H323 0.928 . S
C321 N317 1.345 . S
C321 C322 1.371 . S
C321 H324 0.931 . S
C322 C318 1.391 . S
C322 C321 1.371 . S
C322 H329 0.930 . S
H323 C320 0.928 . S
H324 C321 0.931 . S
H325 C301 0.930 . S
H326 C298 0.930 1_565 S
H327 C307 0.930 . S
H328 C319 0.929 . S
H329 C322 0.930 . S
C330 C331 1.351 . S
C330 N333 1.368 . S
C330 H335 0.931 . S
C331 C330 1.351 . S
C331 N332 1.373 . S
C331 H359 0.930 1_455 S
N332 C331 1.373 . S
N332 C334 1.340 . S
N333 C330 1.368 . S
N333 C334 1.321 . S
N333 Co336 2.135 . S
C334 N332 1.340 . S
C334 N333 1.321 . S
C334 H358 0.930 . S
H335 C330 0.931 . S
Co336 N333 2.135 . S
Co336 N339 2.121 . S
Co336 O344 2.055 . S
Co336 O347 2.039 . S
Co336 N350 2.140 . S
C337 O338 1.227 . S
C337 O347 1.265 . S
O338 C337 1.227 . S
N339 Co336 2.121 . S
N339 C341 1.375 . S
N339 C342 1.313 . S
C340 C341 1.338 . S
C340 N343 1.377 . S
C340 H360 0.930 . S
C341 N339 1.375 . S
C341 C340 1.338 . S
C341 H345 0.931 . S
C342 N339 1.313 . S
C342 N343 1.344 . S
C342 H346 0.930 . S
N343 C340 1.377 . S
N343 C342 1.344 . S
O344 Co336 2.055 . S
O344 C348 1.253 . S
H345 C341 0.931 . S
H346 C342 0.930 . S
O347 Co336 2.039 . S
O347 C337 1.265 . S
C348 O344 1.253 . S
C348 O349 1.227 . S
O349 C348 1.227 . S
N350 Co336 2.140 . S
N350 C353 1.346 . S
N350 C354 1.345 . S
C351 C352 1.387 . S
C351 C355 1.391 . S
C352 C351 1.387 . S
C352 C353 1.369 . S
C352 H361 0.929 . S
C353 N350 1.346 . S
C353 C352 1.369 . S
C353 H356 0.928 . S
C354 N350 1.345 . S
C354 C355 1.371 . S
C354 H357 0.931 . S
C355 C351 1.391 . S
C355 C354 1.371 . S
C355 H362 0.930 . S
H356 C353 0.928 . S
H357 C354 0.931 . S
H358 C334 0.930 . S
H359 C331 0.930 1_655 S
H360 C340 0.930 . S
H361 C352 0.929 . S
H362 C355 0.930 . S
C363 C364 1.351 . S
C363 N366 1.368 . S
C363 H368 0.931 . S
C364 C363 1.351 . S
C364 N365 1.373 . S
C364 H392 0.930 1_565 S
N365 C364 1.373 . S
N365 C367 1.340 . S
N366 C363 1.368 . S
N366 C367 1.321 . S
N366 Co369 2.135 . S
C367 N365 1.340 . S
C367 N366 1.321 . S
C367 H391 0.930 . S
H368 C363 0.931 . S
Co369 N366 2.135 . S
Co369 N372 2.121 . S
Co369 O377 2.055 . S
Co369 O380 2.039 . S
Co369 N383 2.140 . S
C370 O371 1.227 . S
C370 O380 1.265 . S
O371 C370 1.227 . S
N372 Co369 2.121 . S
N372 C374 1.375 . S
N372 C375 1.313 . S
C373 C374 1.338 . S
C373 N376 1.377 . S
C373 H393 0.930 . S
C374 N372 1.375 . S
C374 C373 1.338 . S
C374 H378 0.931 . S
C375 N372 1.313 . S
C375 N376 1.344 . S
C375 H379 0.930 . S
N376 C373 1.377 . S
N376 C375 1.344 . S
O377 Co369 2.055 . S
O377 C381 1.253 . S
H378 C374 0.931 . S
H379 C375 0.930 . S
O380 Co369 2.039 . S
O380 C370 1.265 . S
C381 O377 1.253 . S
C381 O382 1.227 . S
O382 C381 1.227 . S
N383 Co369 2.140 . S
N383 C386 1.346 . S
N383 C387 1.345 . S
C384 C385 1.387 . S
C384 C388 1.391 . S
C385 C384 1.387 . S
C385 C386 1.369 . S
C385 H394 0.929 . S
C386 N383 1.346 . S
C386 C385 1.369 . S
C386 H389 0.928 . S
C387 N383 1.345 . S
C387 C388 1.371 . S
C387 H390 0.931 . S
C388 C384 1.391 . S
C388 C387 1.371 . S
C388 H395 0.930 . S
H389 C386 0.928 . S
H390 C387 0.931 . S
H391 C367 0.930 . S
H392 C364 0.930 1_545 S
H393 C373 0.930 . S
H394 C385 0.929 . S
H395 C388 0.930 . S
C396 C397 1.351 . S
C396 N399 1.368 . S
C396 H401 0.931 . S
C397 C396 1.351 . S
C397 N398 1.373 . S
C397 H425 0.930 1_655 S
N398 C397 1.373 . S
N398 C400 1.340 . S
N399 C396 1.368 . S
N399 C400 1.321 . S
N399 Co402 2.135 . S
C400 N398 1.340 . S
C400 N399 1.321 . S
C400 H424 0.930 . S
H401 C396 0.931 . S
Co402 N399 2.135 . S
Co402 N405 2.121 . S
Co402 O410 2.055 . S
Co402 O413 2.039 . S
Co402 N416 2.140 . S
C403 O404 1.227 . S
C403 O413 1.265 . S
O404 C403 1.227 . S
N405 Co402 2.121 . S
N405 C407 1.375 . S
N405 C408 1.313 . S
C406 C407 1.338 . S
C406 N409 1.377 . S
C406 H426 0.930 . S
C407 N405 1.375 . S
C407 C406 1.338 . S
C407 H411 0.931 . S
C408 N405 1.313 . S
C408 N409 1.344 . S
C408 H412 0.930 . S
N409 C406 1.377 . S
N409 C408 1.344 . S
O410 Co402 2.055 . S
O410 C414 1.253 . S
H411 C407 0.931 . S
H412 C408 0.930 . S
O413 Co402 2.039 . S
O413 C403 1.265 . S
C414 O410 1.253 . S
C414 O415 1.227 . S
O415 C414 1.227 . S
N416 Co402 2.140 . S
N416 C419 1.346 . S
N416 C420 1.345 . S
C417 C418 1.387 . S
C417 C421 1.391 . S
C418 C417 1.387 . S
C418 C419 1.369 1_545 S
C418 H427 0.929 . S
C419 N416 1.346 . S
C419 C418 1.369 1_565 S
C419 H422 0.928 . S
C420 N416 1.345 . S
C420 C421 1.371 1_565 S
C420 H423 0.931 . S
C421 C417 1.391 . S
C421 C420 1.371 1_545 S
C421 H428 0.930 . S
H422 C419 0.928 . S
H423 C420 0.931 . S
H424 C400 0.930 . S
H425 C397 0.930 1_455 S
H426 C406 0.930 . S
H427 C418 0.929 . S
H428 C421 0.930 . S
C429 C430 1.351 . S
C429 N432 1.368 . S
C429 H434 0.931 . S
C430 C429 1.351 . S
C430 N431 1.373 . S
C430 H458 0.930 1_545 S
N431 C430 1.373 . S
N431 C433 1.340 . S
N432 C429 1.368 . S
N432 C433 1.321 . S
N432 Co435 2.135 . S
C433 N431 1.340 . S
C433 N432 1.321 . S
C433 H457 0.930 . S
H434 C429 0.931 . S
Co435 N432 2.135 . S
Co435 N438 2.121 . S
Co435 O443 2.055 . S
Co435 O446 2.039 . S
Co435 N449 2.140 . S
C436 O437 1.227 . S
C436 O446 1.265 . S
O437 C436 1.227 . S
N438 Co435 2.121 . S
N438 C440 1.375 . S
N438 C441 1.313 . S
C439 C440 1.338 . S
C439 N442 1.377 . S
C439 H459 0.930 . S
C440 N438 1.375 . S
C440 C439 1.338 . S
C440 H444 0.931 . S
C441 N438 1.313 . S
C441 N442 1.344 . S
C441 H445 0.930 . S
N442 C439 1.377 . S
N442 C441 1.344 . S
O443 Co435 2.055 . S
O443 C447 1.253 . S
H444 C440 0.931 . S
H445 C441 0.930 . S
O446 Co435 2.039 . S
O446 C436 1.265 . S
C447 O443 1.253 . S
C447 O448 1.227 . S
O448 C447 1.227 . S
N449 Co435 2.140 . S
N449 C452 1.346 . S
N449 C453 1.345 . S
C450 C451 1.387 . S
C450 C454 1.391 . S
C451 C450 1.387 . S
C451 C452 1.369 1_455 S
C451 H460 0.929 . S
C452 N449 1.346 . S
C452 C451 1.369 1_655 S
C452 H455 0.928 . S
C453 N449 1.345 . S
C453 C454 1.371 1_655 S
C453 H456 0.931 . S
C454 C450 1.391 . S
C454 C453 1.371 1_455 S
C454 H461 0.930 . S
H455 C452 0.928 . S
H456 C453 0.931 . S
H457 C433 0.930 . S
H458 C430 0.930 1_565 S
H459 C439 0.930 . S
H460 C451 0.929 . S
H461 C454 0.930 . S
C462 C463 1.351 . S
C462 N465 1.368 . S
C462 H467 0.931 . S
C463 C462 1.351 . S
C463 N464 1.373 . S
C463 H491 0.930 1_455 S
N464 C463 1.373 . S
N464 C466 1.340 . S
N465 C462 1.368 . S
N465 C466 1.321 . S
N465 Co468 2.135 . S
C466 N464 1.340 . S
C466 N465 1.321 . S
C466 H490 0.930 . S
H467 C462 0.931 . S
Co468 N465 2.135 . S
Co468 N471 2.121 . S
Co468 O476 2.055 . S
Co468 O479 2.039 . S
Co468 N482 2.140 . S
C469 O470 1.227 . S
C469 O479 1.265 . S
O470 C469 1.227 . S
N471 Co468 2.121 . S
N471 C473 1.375 . S
N471 C474 1.313 . S
C472 C473 1.338 . S
C472 N475 1.377 . S
C472 H492 0.930 . S
C473 N471 1.375 . S
C473 C472 1.338 . S
C473 H477 0.931 . S
C474 N471 1.313 . S
C474 N475 1.344 . S
C474 H478 0.930 . S
N475 C472 1.377 . S
N475 C474 1.344 . S
O476 Co468 2.055 . S
O476 C480 1.253 . S
H477 C473 0.931 . S
H478 C474 0.930 . S
O479 Co468 2.039 . S
O479 C469 1.265 . S
C480 O476 1.253 . S
C480 O481 1.227 . S
O481 C480 1.227 . S
N482 Co468 2.140 . S
N482 C485 1.346 . S
N482 C486 1.345 . S
C483 C484 1.387 . S
C483 C487 1.391 . S
C484 C483 1.387 . S
C484 C485 1.369 1_565 S
C484 H493 0.929 . S
C485 N482 1.346 . S
C485 C484 1.369 1_545 S
C485 H488 0.928 . S
C486 N482 1.345 . S
C486 C487 1.371 1_545 S
C486 H489 0.931 . S
C487 C483 1.391 . S
C487 C486 1.371 1_565 S
C487 H494 0.930 . S
H488 C485 0.928 . S
H489 C486 0.931 . S
H490 C466 0.930 . S
H491 C463 0.930 1_655 S
H492 C472 0.930 . S
H493 C484 0.929 . S
H494 C487 0.930 . S
C495 C496 1.351 . S
C495 N498 1.368 . S
C495 H500 0.931 . S
C496 C495 1.351 . S
C496 N497 1.373 . S
C496 H524 0.930 1_565 S
N497 C496 1.373 . S
N497 C499 1.340 . S
N498 C495 1.368 . S
N498 C499 1.321 . S
N498 Co501 2.135 . S
C499 N497 1.340 . S
C499 N498 1.321 . S
C499 H523 0.930 . S
H500 C495 0.931 . S
Co501 N498 2.135 . S
Co501 N504 2.121 . S
Co501 O509 2.055 . S
Co501 O512 2.039 . S
Co501 N515 2.140 . S
C502 O503 1.227 . S
C502 O512 1.265 . S
O503 C502 1.227 . S
N504 Co501 2.121 . S
N504 C506 1.375 . S
N504 C507 1.313 . S
C505 C506 1.338 . S
C505 N508 1.377 . S
C505 H525 0.930 . S
C506 N504 1.375 . S
C506 C505 1.338 . S
C506 H510 0.931 . S
C507 N504 1.313 . S
C507 N508 1.344 . S
C507 H511 0.930 . S
N508 C505 1.377 . S
N508 C507 1.344 . S
O509 Co501 2.055 . S
O509 C513 1.253 . S
H510 C506 0.931 . S
H511 C507 0.930 . S
O512 Co501 2.039 . S
O512 C502 1.265 . S
C513 O509 1.253 . S
C513 O514 1.227 . S
O514 C513 1.227 . S
N515 Co501 2.140 . S
N515 C518 1.346 . S
N515 C519 1.345 . S
C516 C517 1.387 . S
C516 C520 1.391 . S
C517 C516 1.387 . S
C517 C518 1.369 1_655 S
C517 H526 0.929 . S
C518 N515 1.346 . S
C518 C517 1.369 1_455 S
C518 H521 0.928 . S
C519 N515 1.345 . S
C519 C520 1.371 1_455 S
C519 H522 0.931 . S
C520 C516 1.391 . S
C520 C519 1.371 1_655 S
C520 H527 0.930 . S
H521 C518 0.928 . S
H522 C519 0.931 . S
H523 C499 0.930 . S
H524 C496 0.930 1_545 S
H525 C505 0.930 . S
H526 C517 0.929 . S
H527 C520 0.930 . S
C7 C469 2.483 . S
C40 C502 2.483 . S
C73 C403 2.483 . S
C106 C436 2.483 . S
C139 C337 2.475 . S
C172 C370 2.475 . S
C271 C205 2.475 . S
C304 C238 2.475 . S
C21 N46 1.130 . S
C54 N79 1.130 . S
C87 N112 1.130 . S
N13 C120 1.130 . S
N508 C153 1.070 . S
N409 C186 1.070 . S
N442 C219 1.070 . S
N475 C252 1.070 . S
C285 N310 1.098 . S
C318 N343 1.098 . S
N376 C351 1.098 . S
C384 N277 1.098 . S
C417 N244 1.069 . S
N145 C450 1.069 . S
N178 C483 1.069 . S
C516 N211 1.069 . S
N2 N68 3.002 1_545 S
N35 N101 3.002 1_455 S
N200 N134 3.021 . S
N233 N167 3.021 . S
N266 N332 3.011 1_655 S
N299 N365 3.011 1_545 S
N398 N464 3.022 1_665 S
N431 N497 3.022 1_645 S
C150 C18 2.283 . S
C183 C51 2.283 . S
C84 C216 2.283 . S
C249 C117 2.283 . S
C282 C414 2.303 . S
C447 C315 2.303 . S
C480 C348 2.303 . S
C381 C513 2.303 . S
