# Generated by pormake.
# Topology wmt, (6)-cn, num edge types: 1
# Building blocks:
#     Node 0, Type 0, BuildingBlock: GEDQOX_clean_sbu_0, # of connection points: 6
#     Node 1, Type 0, BuildingBlock: GEDQOX_clean_sbu_0, # of connection points: 6
#     Node 2, Type 0, BuildingBlock: GEDQOX_clean_sbu_0, # of connection points: 6
#     Node 3, Type 0, BuildingBlock: GEDQOX_clean_sbu_0, # of connection points: 6
#     Node 4, Type 0, BuildingBlock: GEDQOX_clean_sbu_0, # of connection points: 6
#     Node 5, Type 0, BuildingBlock: GEDQOX_clean_sbu_0, # of connection points: 6
#     Node 6, Type 0, BuildingBlock: GEDQOX_clean_sbu_0, # of connection points: 6
#     Node 7, Type 0, BuildingBlock: GEDQOX_clean_sbu_0, # of connection points: 6
#     Node 8, Type 0, BuildingBlock: GEDQOX_clean_sbu_0, # of connection points: 6
#     Node 9, Type 0, BuildingBlock: GEDQOX_clean_sbu_0, # of connection points: 6
#     Node 10, Type 0, BuildingBlock: GEDQOX_clean_sbu_0, # of connection points: 6
#     Node 11, Type 0, BuildingBlock: GEDQOX_clean_sbu_0, # of connection points: 6
#     Node 12, Type 0, BuildingBlock: GEDQOX_clean_sbu_0, # of connection points: 6
#     Node 13, Type 0, BuildingBlock: GEDQOX_clean_sbu_0, # of connection points: 6
#     Node 14, Type 0, BuildingBlock: GEDQOX_clean_sbu_0, # of connection points: 6
#     Node 15, Type 0, BuildingBlock: GEDQOX_clean_sbu_0, # of connection points: 6
#     Node 16, Type 0, BuildingBlock: GEDQOX_clean_sbu_0, # of connection points: 6
#     Node 17, Type 0, BuildingBlock: GEDQOX_clean_sbu_0, # of connection points: 6
#     Node 18, Type 0, BuildingBlock: GEDQOX_clean_sbu_0, # of connection points: 6
#     Node 19, Type 0, BuildingBlock: GEDQOX_clean_sbu_0, # of connection points: 6
#     Node 20, Type 0, BuildingBlock: GEDQOX_clean_sbu_0, # of connection points: 6
#     Node 21, Type 0, BuildingBlock: GEDQOX_clean_sbu_0, # of connection points: 6
#     Node 22, Type 0, BuildingBlock: GEDQOX_clean_sbu_0, # of connection points: 6
#     Node 23, Type 0, BuildingBlock: GEDQOX_clean_sbu_0, # of connection points: 6
#     Node 24, Type 0, BuildingBlock: GEDQOX_clean_sbu_0, # of connection points: 6
#     Node 25, Type 0, BuildingBlock: GEDQOX_clean_sbu_0, # of connection points: 6
#     Node 26, Type 0, BuildingBlock: GEDQOX_clean_sbu_0, # of connection points: 6
#     Node 27, Type 0, BuildingBlock: GEDQOX_clean_sbu_0, # of connection points: 6
#     Node 28, Type 0, BuildingBlock: GEDQOX_clean_sbu_0, # of connection points: 6
#     Node 29, Type 0, BuildingBlock: GEDQOX_clean_sbu_0, # of connection points: 6
#     Node 30, Type 0, BuildingBlock: GEDQOX_clean_sbu_0, # of connection points: 6
#     Node 31, Type 0, BuildingBlock: GEDQOX_clean_sbu_0, # of connection points: 6
#     Node 32, Type 0, BuildingBlock: GEDQOX_clean_sbu_0, # of connection points: 6
#     Node 33, Type 0, BuildingBlock: GEDQOX_clean_sbu_0, # of connection points: 6
#     Node 34, Type 0, BuildingBlock: GEDQOX_clean_sbu_0, # of connection points: 6
#     Node 35, Type 0, BuildingBlock: GEDQOX_clean_sbu_0, # of connection points: 6
#     Edge 36, Type (0, 0), BuildingBlock: AJUNOK_clean_linker_0, # of connection points: 2
#     Edge 37, Type (0, 0), BuildingBlock: AJUNOK_clean_linker_0, # of connection points: 2
#     Edge 38, Type (0, 0), BuildingBlock: AJUNOK_clean_linker_0, # of connection points: 2
#     Edge 39, Type (0, 0), BuildingBlock: AJUNOK_clean_linker_0, # of connection points: 2
#     Edge 40, Type (0, 0), BuildingBlock: AJUNOK_clean_linker_0, # of connection points: 2
#     Edge 41, Type (0, 0), BuildingBlock: AJUNOK_clean_linker_0, # of connection points: 2
#     Edge 42, Type (0, 0), BuildingBlock: AJUNOK_clean_linker_0, # of connection points: 2
#     Edge 43, Type (0, 0), BuildingBlock: AJUNOK_clean_linker_0, # of connection points: 2
#     Edge 44, Type (0, 0), BuildingBlock: AJUNOK_clean_linker_0, # of connection points: 2
#     Edge 45, Type (0, 0), BuildingBlock: AJUNOK_clean_linker_0, # of connection points: 2
#     Edge 46, Type (0, 0), BuildingBlock: AJUNOK_clean_linker_0, # of connection points: 2
#     Edge 47, Type (0, 0), BuildingBlock: AJUNOK_clean_linker_0, # of connection points: 2
#     Edge 48, Type (0, 0), BuildingBlock: AJUNOK_clean_linker_0, # of connection points: 2
#     Edge 49, Type (0, 0), BuildingBlock: AJUNOK_clean_linker_0, # of connection points: 2
#     Edge 50, Type (0, 0), BuildingBlock: AJUNOK_clean_linker_0, # of connection points: 2
#     Edge 51, Type (0, 0), BuildingBlock: AJUNOK_clean_linker_0, # of connection points: 2
#     Edge 52, Type (0, 0), BuildingBlock: AJUNOK_clean_linker_0, # of connection points: 2
#     Edge 53, Type (0, 0), BuildingBlock: AJUNOK_clean_linker_0, # of connection points: 2
#     Edge 54, Type (0, 0), BuildingBlock: AJUNOK_clean_linker_0, # of connection points: 2
#     Edge 55, Type (0, 0), BuildingBlock: AJUNOK_clean_linker_0, # of connection points: 2
#     Edge 56, Type (0, 0), BuildingBlock: AJUNOK_clean_linker_0, # of connection points: 2
#     Edge 57, Type (0, 0), BuildingBlock: AJUNOK_clean_linker_0, # of connection points: 2
#     Edge 58, Type (0, 0), BuildingBlock: AJUNOK_clean_linker_0, # of connection points: 2
#     Edge 59, Type (0, 0), BuildingBlock: AJUNOK_clean_linker_0, # of connection points: 2
#     Edge 60, Type (0, 0), BuildingBlock: AJUNOK_clean_linker_0, # of connection points: 2
#     Edge 61, Type (0, 0), BuildingBlock: AJUNOK_clean_linker_0, # of connection points: 2
#     Edge 62, Type (0, 0), BuildingBlock: AJUNOK_clean_linker_0, # of connection points: 2
#     Edge 63, Type (0, 0), BuildingBlock: AJUNOK_clean_linker_0, # of connection points: 2
#     Edge 64, Type (0, 0), BuildingBlock: AJUNOK_clean_linker_0, # of connection points: 2
#     Edge 65, Type (0, 0), BuildingBlock: AJUNOK_clean_linker_0, # of connection points: 2
#     Edge 66, Type (0, 0), BuildingBlock: AJUNOK_clean_linker_0, # of connection points: 2
#     Edge 67, Type (0, 0), BuildingBlock: AJUNOK_clean_linker_0, # of connection points: 2
#     Edge 68, Type (0, 0), BuildingBlock: AJUNOK_clean_linker_0, # of connection points: 2
#     Edge 69, Type (0, 0), BuildingBlock: AJUNOK_clean_linker_0, # of connection points: 2
#     Edge 70, Type (0, 0), BuildingBlock: AJUNOK_clean_linker_0, # of connection points: 2
#     Edge 71, Type (0, 0), BuildingBlock: AJUNOK_clean_linker_0, # of connection points: 2
#     Edge 72, Type (0, 0), BuildingBlock: AJUNOK_clean_linker_0, # of connection points: 2
#     Edge 73, Type (0, 0), BuildingBlock: AJUNOK_clean_linker_0, # of connection points: 2
#     Edge 74, Type (0, 0), BuildingBlock: AJUNOK_clean_linker_0, # of connection points: 2
#     Edge 75, Type (0, 0), BuildingBlock: AJUNOK_clean_linker_0, # of connection points: 2
#     Edge 76, Type (0, 0), BuildingBlock: AJUNOK_clean_linker_0, # of connection points: 2
#     Edge 77, Type (0, 0), BuildingBlock: AJUNOK_clean_linker_0, # of connection points: 2
#     Edge 78, Type (0, 0), BuildingBlock: AJUNOK_clean_linker_0, # of connection points: 2
#     Edge 79, Type (0, 0), BuildingBlock: AJUNOK_clean_linker_0, # of connection points: 2
#     Edge 80, Type (0, 0), BuildingBlock: AJUNOK_clean_linker_0, # of connection points: 2
#     Edge 81, Type (0, 0), BuildingBlock: AJUNOK_clean_linker_0, # of connection points: 2
#     Edge 82, Type (0, 0), BuildingBlock: AJUNOK_clean_linker_0, # of connection points: 2
#     Edge 83, Type (0, 0), BuildingBlock: AJUNOK_clean_linker_0, # of connection points: 2
#     Edge 84, Type (0, 0), BuildingBlock: AJUNOK_clean_linker_0, # of connection points: 2
#     Edge 85, Type (0, 0), BuildingBlock: AJUNOK_clean_linker_0, # of connection points: 2
#     Edge 86, Type (0, 0), BuildingBlock: AJUNOK_clean_linker_0, # of connection points: 2
#     Edge 87, Type (0, 0), BuildingBlock: AJUNOK_clean_linker_0, # of connection points: 2
#     Edge 88, Type (0, 0), BuildingBlock: AJUNOK_clean_linker_0, # of connection points: 2
#     Edge 89, Type (0, 0), BuildingBlock: AJUNOK_clean_linker_0, # of connection points: 2
#     Edge 90, Type (0, 0), BuildingBlock: AJUNOK_clean_linker_0, # of connection points: 2
#     Edge 91, Type (0, 0), BuildingBlock: AJUNOK_clean_linker_0, # of connection points: 2
#     Edge 92, Type (0, 0), BuildingBlock: AJUNOK_clean_linker_0, # of connection points: 2
#     Edge 93, Type (0, 0), BuildingBlock: AJUNOK_clean_linker_0, # of connection points: 2
#     Edge 94, Type (0, 0), BuildingBlock: AJUNOK_clean_linker_0, # of connection points: 2
#     Edge 95, Type (0, 0), BuildingBlock: AJUNOK_clean_linker_0, # of connection points: 2
#     Edge 96, Type (0, 0), BuildingBlock: AJUNOK_clean_linker_0, # of connection points: 2
#     Edge 97, Type (0, 0), BuildingBlock: AJUNOK_clean_linker_0, # of connection points: 2
#     Edge 98, Type (0, 0), BuildingBlock: AJUNOK_clean_linker_0, # of connection points: 2
#     Edge 99, Type (0, 0), BuildingBlock: AJUNOK_clean_linker_0, # of connection points: 2
#     Edge 100, Type (0, 0), BuildingBlock: AJUNOK_clean_linker_0, # of connection points: 2
#     Edge 101, Type (0, 0), BuildingBlock: AJUNOK_clean_linker_0, # of connection points: 2
#     Edge 102, Type (0, 0), BuildingBlock: AJUNOK_clean_linker_0, # of connection points: 2
#     Edge 103, Type (0, 0), BuildingBlock: AJUNOK_clean_linker_0, # of connection points: 2
#     Edge 104, Type (0, 0), BuildingBlock: AJUNOK_clean_linker_0, # of connection points: 2
#     Edge 105, Type (0, 0), BuildingBlock: AJUNOK_clean_linker_0, # of connection points: 2
#     Edge 106, Type (0, 0), BuildingBlock: AJUNOK_clean_linker_0, # of connection points: 2
#     Edge 107, Type (0, 0), BuildingBlock: AJUNOK_clean_linker_0, # of connection points: 2
#     Edge 108, Type (0, 0), BuildingBlock: AJUNOK_clean_linker_0, # of connection points: 2
#     Edge 109, Type (0, 0), BuildingBlock: AJUNOK_clean_linker_0, # of connection points: 2
#     Edge 110, Type (0, 0), BuildingBlock: AJUNOK_clean_linker_0, # of connection points: 2
#     Edge 111, Type (0, 0), BuildingBlock: AJUNOK_clean_linker_0, # of connection points: 2
#     Edge 112, Type (0, 0), BuildingBlock: AJUNOK_clean_linker_0, # of connection points: 2
#     Edge 113, Type (0, 0), BuildingBlock: AJUNOK_clean_linker_0, # of connection points: 2
#     Edge 114, Type (0, 0), BuildingBlock: AJUNOK_clean_linker_0, # of connection points: 2
#     Edge 115, Type (0, 0), BuildingBlock: AJUNOK_clean_linker_0, # of connection points: 2
#     Edge 116, Type (0, 0), BuildingBlock: AJUNOK_clean_linker_0, # of connection points: 2
#     Edge 117, Type (0, 0), BuildingBlock: AJUNOK_clean_linker_0, # of connection points: 2
#     Edge 118, Type (0, 0), BuildingBlock: AJUNOK_clean_linker_0, # of connection points: 2
#     Edge 119, Type (0, 0), BuildingBlock: AJUNOK_clean_linker_0, # of connection points: 2
#     Edge 120, Type (0, 0), BuildingBlock: AJUNOK_clean_linker_0, # of connection points: 2
#     Edge 121, Type (0, 0), BuildingBlock: AJUNOK_clean_linker_0, # of connection points: 2
#     Edge 122, Type (0, 0), BuildingBlock: AJUNOK_clean_linker_0, # of connection points: 2
#     Edge 123, Type (0, 0), BuildingBlock: AJUNOK_clean_linker_0, # of connection points: 2
#     Edge 124, Type (0, 0), BuildingBlock: AJUNOK_clean_linker_0, # of connection points: 2
#     Edge 125, Type (0, 0), BuildingBlock: AJUNOK_clean_linker_0, # of connection points: 2
#     Edge 126, Type (0, 0), BuildingBlock: AJUNOK_clean_linker_0, # of connection points: 2
#     Edge 127, Type (0, 0), BuildingBlock: AJUNOK_clean_linker_0, # of connection points: 2
#     Edge 128, Type (0, 0), BuildingBlock: AJUNOK_clean_linker_0, # of connection points: 2
#     Edge 129, Type (0, 0), BuildingBlock: AJUNOK_clean_linker_0, # of connection points: 2
#     Edge 130, Type (0, 0), BuildingBlock: AJUNOK_clean_linker_0, # of connection points: 2
#     Edge 131, Type (0, 0), BuildingBlock: AJUNOK_clean_linker_0, # of connection points: 2
#     Edge 132, Type (0, 0), BuildingBlock: AJUNOK_clean_linker_0, # of connection points: 2
#     Edge 133, Type (0, 0), BuildingBlock: AJUNOK_clean_linker_0, # of connection points: 2
#     Edge 134, Type (0, 0), BuildingBlock: AJUNOK_clean_linker_0, # of connection points: 2
#     Edge 135, Type (0, 0), BuildingBlock: AJUNOK_clean_linker_0, # of connection points: 2
#     Edge 136, Type (0, 0), BuildingBlock: AJUNOK_clean_linker_0, # of connection points: 2
#     Edge 137, Type (0, 0), BuildingBlock: AJUNOK_clean_linker_0, # of connection points: 2
#     Edge 138, Type (0, 0), BuildingBlock: AJUNOK_clean_linker_0, # of connection points: 2
#     Edge 139, Type (0, 0), BuildingBlock: AJUNOK_clean_linker_0, # of connection points: 2
#     Edge 140, Type (0, 0), BuildingBlock: AJUNOK_clean_linker_0, # of connection points: 2
#     Edge 141, Type (0, 0), BuildingBlock: AJUNOK_clean_linker_0, # of connection points: 2
#     Edge 142, Type (0, 0), BuildingBlock: AJUNOK_clean_linker_0, # of connection points: 2
#     Edge 143, Type (0, 0), BuildingBlock: AJUNOK_clean_linker_0, # of connection points: 2
# Relax obj value: 0.185
# Max RMSD: 0.215
# Mean RMSD: 0.215
data_MOF--net-wmt--node1-GEDQOX_clean_sbu_0--edge1-AJUNOK_clean_linker_0
_symmetry_space_group_name_H-M    P1
_symmetry_Int_Tables_number       1
_symmetry_cell_setting            triclinic
loop_
_symmetry_equiv_pos_as_xyz
'x, y, z'
_cell_length_a     63.12712
_cell_length_b     63.086522
_cell_length_c     29.637116
_cell_angle_alpha  89.999105
_cell_angle_beta   90.077137
_cell_angle_gamma 120.02632
loop_
_atom_site_label
_atom_site_type_symbol
_atom_site_fract_x
_atom_site_fract_y
_atom_site_fract_z
_atom_type_partial_charge
Nd0 Nd 0.03181 0.46376 0.06287 0.0
Nd1 Nd 0.07112 0.50686 1.00602 0.0
C2 C -0.00386 0.43382 0.11764 0.0
C3 C 0.99394 0.43053 0.16766 0.0
C4 C 0.97854 0.4367 0.19161 0.0
C5 C 0.97773 0.43601 0.23893 0.0
C6 C 0.99231 0.42908 0.26382 0.0
C7 C 0.00699 0.42196 0.23975 0.0
C8 C 0.00798 0.42288 0.19234 0.0
C9 C 0.07594 0.46468 0.0565 0.0
C10 C 0.07569 0.51083 0.11491 0.0
C11 C 0.10115 0.53501 0.9408 0.0
C12 C 0.09929 0.53808 0.89124 0.0
C13 C 0.12036 0.54879 0.864 0.0
C14 C 0.11903 0.5541 0.8182 0.0
C15 C 0.09661 0.54904 0.79881 0.0
C16 C 0.0754 0.53738 0.82574 0.0
C17 C 0.07671 0.53195 0.87126 0.0
C18 C 0.03433 0.51305 0.04204 0.0
C19 C 0.02397 0.46058 0.95317 0.0
O20 O -0.00104 0.45462 0.10321 0.0
O21 O 0.00978 0.42707 0.09536 0.0
O22 O 0.06273 0.45944 0.09254 0.0
O23 O 0.06562 0.46935 1.02442 0.0
O24 O 0.05207 0.49463 0.11409 0.0
O25 O 0.08921 0.51682 0.07753 0.0
O26 O 0.10032 0.51493 0.95485 0.0
O27 O 0.08852 0.54136 0.96667 0.0
O28 O 0.05703 0.53045 0.04032 0.0
O29 O 0.03223 0.49411 1.02386 0.0
O30 O 0.04397 0.48236 0.95101 0.0
O31 O 0.01545 0.44893 0.99208 0.0
H32 H 0.96732 0.44245 0.17362 0.0
H33 H 0.96555 0.44082 0.25597 0.0
H34 H 0.01839 0.41641 0.25766 0.0
H35 H 0.02014 0.41808 0.17518 0.0
H36 H 0.138 0.5537 0.87847 0.0
H37 H 0.13567 0.56303 0.79845 0.0
H38 H 0.05778 0.53288 0.81172 0.0
H39 H 0.06011 0.52356 0.89118 0.0
Nd40 Nd 0.52573 0.56826 0.05515 0.0
Nd41 Nd 0.47903 0.55798 1.00224 0.0
C42 C 0.55876 0.56781 0.10968 0.0
C43 C 0.56062 0.56823 0.16007 0.0
C44 C 0.55708 0.54721 0.18325 0.0
C45 C 0.55654 0.5463 0.23061 0.0
C46 C 0.55962 0.56642 0.25628 0.0
C47 C 0.56369 0.58765 0.23316 0.0
C48 C 0.56404 0.58851 0.18571 0.0
C49 C 0.51983 0.60855 0.04354 0.0
C50 C 0.47803 0.56058 0.11166 0.0
C51 C 0.4486 0.55646 0.93822 0.0
C52 C 0.44548 0.55129 0.8888 0.0
C53 C 0.43352 0.56041 0.86166 0.0
C54 C 0.42846 0.55365 0.81589 0.0
C55 C 0.43507 0.53743 0.79643 0.0
C56 C 0.44795 0.52918 0.82325 0.0
C57 C 0.45306 0.53598 0.86877 0.0
C58 C 0.47713 0.5183 0.04387 0.0
C59 C 0.52528 0.55863 0.94656 0.0
O60 O 0.54042 0.54806 0.09267 0.0
O61 O 0.56235 0.58768 0.08874 0.0
O62 O 0.52689 0.60308 0.08058 0.0
O63 O 0.51566 0.59241 1.01406 0.0
O64 O 0.49648 0.55638 0.10965 0.0
O65 O 0.46949 0.56577 0.07453 0.0
O66 O 0.46776 0.57684 0.95164 0.0
O67 O 0.44421 0.53799 0.96424 0.0
O68 O 0.45837 0.52153 0.04115 0.0
O69 O 0.49506 0.53506 1.02297 0.0
O70 O 0.50197 0.55261 0.94764 0.0
O71 O 0.53955 0.56701 0.98287 0.0
H72 H 0.55434 0.53125 0.16465 0.0
H73 H 0.55381 0.52981 0.24716 0.0
H74 H 0.56607 0.60347 0.25182 0.0
H75 H 0.56656 0.60493 0.1692 0.0
H76 H 0.42749 0.57225 0.87619 0.0
H77 H 0.41857 0.56036 0.79619 0.0
H78 H 0.45369 0.517 0.80917 0.0
H79 H 0.4624 0.52873 0.88863 0.0
Nd80 Nd 0.42256 0.9638 0.0492 0.0
Nd81 Nd 0.42851 0.92549 0.99257 0.0
C82 C 0.42635 -0.00247 0.10701 0.0
C83 C 0.42524 -0.00201 0.15761 0.0
C84 C 0.44466 -0.00018 0.18422 0.0
C85 C 0.44374 4e-05 0.23151 0.0
C86 C 0.42331 -0.00172 0.25399 0.0
C87 C 0.4039 -0.00344 0.22754 0.0
C88 C 0.40488 -0.00356 0.18004 0.0
C89 C 0.38113 0.91797 0.04466 0.0
C90 C 0.42906 0.92194 0.10125 0.0
C91 C 0.42804 0.89595 0.92768 0.0
C92 C 0.43287 0.89786 0.87816 0.0
C93 C 0.42446 0.87666 0.85161 0.0
C94 C 0.43085 0.87828 0.8057 0.0
C95 C 0.44586 0.90119 0.78522 0.0
C96 C 0.45369 0.9224 0.81174 0.0
C97 C 0.44729 0.92077 0.85749 0.0
C98 C 0.47065 0.96431 1.02662 0.0
C99 C 0.42633 0.97114 0.93917 0.0
O100 O 0.44512 -0.00312 0.09001 0.0
O101 O 0.40606 0.9835 0.08461 0.0
O102 O 0.38863 0.93172 0.08006 0.0
O103 O 0.39541 0.92878 1.012 0.0
O104 O 0.43578 0.94538 0.09956 0.0
O105 O 0.42158 0.90798 0.06436 0.0
O106 O 0.4083 0.89581 0.94164 0.0
O107 O 0.4469 0.90935 0.95344 0.0
O108 O 0.4668 0.94207 1.02578 0.0
O109 O 0.45285 0.96488 1.0091 0.0
O110 O 0.42911 0.95169 0.93758 0.0
O111 O 0.42318 0.9798 0.97803 0.0
H112 H 0.46066 0.00095 0.1686 0.0
H113 H 0.45895 0.00121 0.25057 0.0
H114 H 0.38804 0.99559 0.24358 0.0
H115 H 0.38965 0.99514 0.16085 0.0
H116 H 0.41346 0.85877 0.86671 0.0
H117 H 0.42478 0.86155 0.78671 0.0
H118 H 0.46508 0.94037 0.79715 0.0
H119 H 0.45406 0.93745 0.87698 0.0
Nd120 Nd 0.45728 0.03282 0.65789 0.0
Nd121 Nd 0.50325 0.06815 0.71454 0.0
C122 C 0.4253 0.00067 0.60014 0.0
C123 C 0.4245 0.00032 0.5496 0.0
C124 C 0.4447 0.00341 0.52406 0.0
C125 C 0.44391 0.0028 0.47671 0.0
C126 C 0.42298 -0.00074 0.45319 0.0
C127 C 0.40293 -0.00343 0.47876 0.0
C128 C 0.40365 -0.00302 0.52627 0.0
C129 C 0.46332 0.07895 0.67229 0.0
C130 C 0.50583 0.07332 0.60527 0.0
C131 C 0.53609 0.09648 0.77629 0.0
C132 C 0.54054 0.09891 0.82585 0.0
C133 C 0.52209 0.08474 0.85716 0.0
C134 C 0.52766 0.08538 0.9034 0.0
C135 C 0.55185 0.09998 0.91919 0.0
C136 C 0.57005 0.11469 0.88783 0.0
C137 C 0.56446 0.11412 0.84183 0.0
C138 C 0.50375 0.0292 0.67402 0.0
C139 C 0.45408 0.02408 0.76755 0.0
O140 O 0.44303 -0.00136 0.61849 0.0
O141 O 0.42143 0.01672 0.62121 0.0
O142 O 0.45691 0.06722 0.63436 0.0
O143 O 0.46696 0.06636 0.70111 0.0
O144 O 0.48781 0.05045 0.60584 0.0
O145 O 0.51367 0.08648 0.6431 0.0
O146 O 0.51975 0.10126 0.75914 0.0
O147 O 0.53557 0.07755 0.75735 0.0
O148 O 0.52279 0.05103 0.67553 0.0
O149 O 0.48617 0.02906 0.6939 0.0
O150 O 0.4766 0.04312 0.76992 0.0
O151 O 0.44219 0.01621 0.72851 0.0
H152 H 0.46125 0.00635 0.5406 0.0
H153 H 0.45973 0.00496 0.45848 0.0
H154 H 0.38672 0.99445 0.46206 0.0
H155 H 0.38789 0.99477 0.54481 0.0
H156 H 0.50357 0.07268 0.8457 0.0
H157 H 0.51323 0.07369 0.92654 0.0
H158 H 0.58878 0.12633 0.89878 0.0
H159 H 0.57907 0.12511 0.81842 0.0
Nd160 Nd 0.962 0.42267 0.67415 0.0
Nd161 Nd 0.92586 0.43381 0.72429 0.0
C162 C 0.99054 0.42171 0.6093 0.0
C163 C 0.99079 0.4232 0.55886 0.0
C164 C 0.00721 0.44509 0.53666 0.0
C165 C 0.00745 0.44673 0.48934 0.0
C166 C 0.9913 0.42649 0.46275 0.0
C167 C 0.97517 0.40451 0.48501 0.0
C168 C 0.97485 0.40289 0.53228 0.0
C169 C 0.92193 0.38213 0.70913 0.0
C170 C 0.91914 0.42827 0.61714 0.0
C171 C 0.89772 0.4361 0.78857 0.0
C172 C 0.90019 0.44266 0.83769 0.0
C173 C 0.88458 0.42544 0.86973 0.0
C174 C 0.88603 0.43166 0.91573 0.0
C175 C 0.90298 0.45538 0.93092 0.0
C176 C 0.919 0.4724 0.89899 0.0
C177 C 0.91762 0.46618 0.85312 0.0
C178 C 0.96539 0.47288 0.68509 0.0
C179 C 0.97162 0.43245 0.78058 0.0
O180 O -0.00462 0.44153 0.63152 0.0
O181 O 0.97306 0.40195 0.62831 0.0
O182 O 0.94423 0.38612 0.71086 0.0
O183 O 0.92134 0.39968 0.68954 0.0
O184 O 0.94059 0.42935 0.61806 0.0
O185 O 0.90704 0.42685 0.65467 0.0
O186 O 0.89723 0.41575 0.77743 0.0
O187 O 0.91016 0.45379 0.75976 0.0
O188 O 0.94383 0.47076 0.68649 0.0
O189 O 0.96534 0.4558 0.70685 0.0
O190 O 0.94996 0.43102 0.78068 0.0
O191 O 0.98232 0.43216 0.7423 0.0
H192 H 0.02003 0.46098 0.55592 0.0
H193 H 0.02068 0.46377 0.47363 0.0
H194 H 0.96251 0.38851 0.4658 0.0
H195 H 0.96199 0.38567 0.54793 0.0
H196 H 0.871 0.40717 0.85908 0.0
H197 H 0.87349 0.41805 0.93929 0.0
H198 H 0.93275 0.49062 0.90953 0.0
H199 H 0.93017 0.47992 0.82975 0.0
Nd200 Nd 0.56605 0.54039 0.66407 0.0
Nd201 Nd 0.56048 0.49213 0.71886 0.0
C202 C 0.55491 0.56325 0.60121 0.0
C203 C 0.55688 0.56547 0.55112 0.0
C204 C 0.53622 0.56115 0.52585 0.0
C205 C 0.53656 0.56085 0.47851 0.0
C206 C 0.55761 0.56485 0.45501 0.0
C207 C 0.57844 0.5695 0.48033 0.0
C208 C 0.57802 0.56961 0.52784 0.0
C209 C 0.61085 0.54361 0.67668 0.0
C210 C 0.56509 0.49293 0.60972 0.0
C211 C 0.5641 0.46546 0.78462 0.0
C212 C 0.55627 0.45989 0.83311 0.0
C213 C 0.57343 0.47009 0.8686 0.0
C214 C 0.566 0.46516 0.91412 0.0
C215 C 0.5412 0.44991 0.92541 0.0
C216 C 0.52424 0.43909 0.88986 0.0
C217 C 0.5316 0.44403 0.84458 0.0
C218 C 0.5195 0.48913 0.68214 0.0
C219 C 0.556 0.53737 0.77332 0.0
O220 O 0.53987 0.54126 0.61583 0.0
O221 O 0.57486 0.57447 0.62591 0.0
O222 O 0.60817 0.56069 0.65779 0.0
O223 O 0.59033 0.52657 0.68926 0.0
O224 O 0.56149 0.5119 0.61061 0.0
O225 O 0.56869 0.48329 0.64706 0.0
O226 O 0.5817 0.48766 0.77476 0.0
O227 O 0.54687 0.45651 0.75373 0.0
O228 O 0.52238 0.47013 0.68588 0.0
O229 O 0.53698 0.50759 0.7005 0.0
O230 O 0.55553 0.51604 0.77291 0.0
O231 O 0.55986 0.55088 0.73627 0.0
H232 H 0.51958 0.55762 0.54286 0.0
H233 H 0.52033 0.5576 0.46026 0.0
H234 H 0.59491 0.57256 0.46335 0.0
H235 H 0.59409 0.57252 0.54628 0.0
H236 H 0.59261 0.48215 0.86116 0.0
H237 H 0.57957 0.47383 0.94049 0.0
H238 H 0.50505 0.42686 0.89708 0.0
H239 H 0.5178 0.43548 0.81857 0.0
Nd240 Nd 0.92606 0.49116 0.22553 0.0
Nd241 Nd 0.96046 0.53861 0.17515 0.0
C242 C 0.89773 0.46022 0.28895 0.0
C243 C 0.89999 0.45598 0.33788 0.0
C244 C 0.88202 0.45375 0.36863 0.0
C245 C 0.8834 0.44886 0.41454 0.0
C246 C 0.90266 0.44579 0.43072 0.0
C247 C 0.92096 0.44863 0.40009 0.0
C248 C 0.91968 0.45368 0.35435 0.0
C249 C 0.96658 0.49332 0.18744 0.0
C250 C 0.9715 0.53886 0.28108 0.0
C251 C 0.98807 0.56971 0.1114 0.0
C252 C 0.98814 0.56921 0.061 0.0
C253 C 0.00354 0.56279 0.03765 0.0
C254 C 0.0034 0.56187 0.99034 0.0
C255 C 0.98796 0.56746 0.96499 0.0
C256 C 0.97286 0.57428 0.98832 0.0
C257 C 0.9729 0.57507 0.03563 0.0
C258 C 0.91941 0.53703 0.21024 0.0
C259 C 0.91966 0.48911 0.11798 0.0
O260 O 0.89719 0.4801 0.27821 0.0
O261 O 0.91053 0.45533 0.2604 0.0
O262 O 0.94548 0.47327 0.18918 0.0
O263 O 0.96566 0.5101 0.2084 0.0
O264 O 0.95005 0.5183 0.28214 0.0
O265 O 0.98134 0.54994 0.24244 0.0
O266 O 0.99373 0.55494 0.1322 0.0
O267 O 0.97017 0.57084 0.13131 0.0
O268 O 0.94143 0.55575 0.21308 0.0
O269 O 0.91976 0.51948 0.19022 0.0
O270 O 0.94048 0.51019 0.11871 0.0
O271 O 0.90779 0.4783 0.15559 0.0
H272 H 0.8667 0.45553 0.35702 0.0
H273 H 0.86907 0.44688 0.43719 0.0
H274 H 0.93635 0.44692 0.41155 0.0
H275 H 0.93405 0.4556 0.33187 0.0
H276 H 0.01569 0.5584 0.05597 0.0
H277 H 0.01526 0.55653 0.97358 0.0
H278 H 0.96119 0.57932 0.97 0.0
H279 H 0.96096 0.58034 0.05227 0.0
Nd280 Nd 0.50144 0.43193 0.22098 0.0
Nd281 Nd 0.45328 0.41846 0.17377 0.0
C282 C 0.53273 0.43378 0.28322 0.0
C283 C 0.53713 0.44079 0.33189 0.0
C284 C 0.54731 0.43048 0.36061 0.0
C285 C 0.55212 0.43746 0.4063 0.0
C286 C 0.54688 0.45498 0.42441 0.0
C287 C 0.53635 0.465 0.39559 0.0
C288 C 0.53144 0.45794 0.35007 0.0
C289 C 0.49823 0.47087 0.18916 0.0
C290 C 0.45366 0.42801 0.2797 0.0
C291 C 0.42033 0.41391 0.11308 0.0
C292 C 0.41943 0.41379 0.06297 0.0
C293 C 0.41319 0.42946 0.0403 0.0
C294 C 0.41287 0.43007 0.993 0.0
C295 C 0.41869 0.41493 0.96722 0.0
C296 C 0.42513 0.39939 0.99002 0.0
C297 C 0.42552 0.39883 0.0373 0.0
C298 C 0.45687 0.37918 0.20457 0.0
C299 C 0.5026 0.43179 0.11199 0.0
O300 O 0.51236 0.41369 0.27315 0.0
O301 O 0.53783 0.4514 0.25434 0.0
O302 O 0.51863 0.4705 0.19039 0.0
O303 O 0.48151 0.45218 0.20824 0.0
O304 O 0.47462 0.42784 0.27941 0.0
O305 O 0.44213 0.42679 0.24173 0.0
O306 O 0.43571 0.43473 0.13206 0.0
O307 O 0.42003 0.39524 0.13292 0.0
O308 O 0.43787 0.38178 0.20981 0.0
O309 O 0.47368 0.39757 0.1843 0.0
O310 O 0.48116 0.43039 0.11627 0.0
O311 O 0.51387 0.42928 0.1479 0.0
H312 H 0.55184 0.41719 0.34756 0.0
H313 H 0.56053 0.42959 0.42713 0.0
H314 H 0.53187 0.47839 0.40829 0.0
H315 H 0.52337 0.46606 0.32896 0.0
H316 H 0.40882 0.44146 0.05924 0.0
H317 H 0.40852 0.44277 0.97662 0.0
H318 H 0.42986 0.38762 0.97123 0.0
H319 H 0.43078 0.38681 0.05369 0.0
Nd320 Nd 0.56061 0.07155 0.21135 0.0
Nd321 Nd 0.57138 0.03514 0.15901 0.0
C322 C 0.56081 0.10019 0.27736 0.0
C323 C 0.5541 0.09727 0.32618 0.0
C324 C 0.56722 0.1167 0.35654 0.0
C325 C 0.56064 0.11446 0.40241 0.0
C326 C 0.54062 0.09278 0.41899 0.0
C327 C 0.52795 0.07309 0.38871 0.0
C328 C 0.53459 0.0753 0.34298 0.0
C329 C 0.52159 0.03351 0.16928 0.0
C330 C 0.55818 0.02297 0.26436 0.0
C331 C 0.57218 0.00664 0.09379 0.0
C332 C 0.56951 0.00528 0.04353 0.0
C333 C 0.54705 0.98869 1.0231 0.0
C334 C 0.54451 0.98725 0.97591 0.0
C335 C 0.56439 0.00231 0.9478 0.0
C336 C 0.58693 0.01861 0.96822 0.0
C337 C 0.58945 0.02012 1.01534 0.0
C338 C 0.61132 0.07352 0.19888 0.0
C339 C 0.56756 0.07979 0.10439 0.0
O340 O 0.5801 0.09868 0.26622 0.0
O341 O 0.54289 0.08919 0.2482 0.0
O342 O 0.52386 0.05512 0.17315 0.0
O343 O 0.53832 0.03259 0.19055 0.0
O344 O 0.55818 0.04395 0.2658 0.0
O345 O 0.56158 0.01406 0.2263 0.0
O346 O 0.55268 0.00121 0.11758 0.0
O347 O 0.59194 0.0251 0.11091 0.0
O348 O 0.60735 0.05121 0.19756 0.0
O349 O 0.59463 0.07516 0.17827 0.0
O350 O 0.5659 0.05802 0.10411 0.0
O351 O 0.56863 0.09129 0.14257 0.0
H352 H 0.58245 0.13378 0.34463 0.0
H353 H 0.57083 0.12993 0.42469 0.0
H354 H 0.51278 0.05591 0.4004 0.0
H355 H 0.52433 0.05985 0.32067 0.0
H356 H 0.5314 0.9767 0.04361 0.0
H357 H 0.52691 0.97441 0.96139 0.0
H358 H 0.60282 0.03001 0.94769 0.0
H359 H 0.60714 0.03288 1.02961 0.0
Nd360 Nd 0.48494 0.92207 0.49189 0.0
Nd361 Nd 0.53215 0.95964 0.54044 0.0
C362 C 0.45618 0.89171 0.42801 0.0
C363 C 0.45185 0.89468 0.37954 0.0
C364 C 0.44337 0.87484 0.34941 0.0
C365 C 0.43897 0.87753 0.30372 0.0
C366 C 0.4428 0.90011 0.2872 0.0
C367 C 0.45192 0.9201 0.31731 0.0
C368 C 0.45634 0.91741 0.36281 0.0
C369 C 0.48356 0.961 0.52854 0.0
C370 C 0.5306 0.96935 0.43467 0.0
C371 C 0.56241 0.98865 0.60405 0.0
C372 C 0.56113 0.99024 0.65425 0.0
C373 C 0.55388 0.00584 0.67422 0.0
C374 C 0.55273 0.00743 0.7213 0.0
C375 C 0.5594 0.9939 0.74993 0.0
C376 C 0.56646 0.97813 0.72994 0.0
C377 C 0.56733 0.97633 0.68285 0.0
C378 C 0.53301 0.91925 0.5076 0.0
C379 C 0.48426 0.91829 0.60002 0.0
O380 O 0.47764 0.89449 0.4382 0.0
O381 O 0.44884 0.90209 0.4576 0.0
O382 O 0.46435 0.93926 0.52575 0.0
O383 O 0.50134 0.96162 0.50818 0.0
O384 O 0.50951 0.94841 0.43507 0.0
O385 O 0.5433 0.97918 0.47198 0.0
O386 O 0.5486 0.99432 0.57985 0.0
O387 O 0.56322 0.96984 0.58757 0.0
O388 O 0.55084 0.9417 0.50384 0.0
O389 O 0.51507 0.91887 0.52737 0.0
O390 O 0.50413 0.94008 0.59711 0.0
O391 O 0.47389 0.90491 0.56333 0.0
H392 H 0.43995 0.85716 0.36131 0.0
H393 H 0.43204 0.8618 0.28155 0.0
H394 H 0.45567 0.93792 0.30565 0.0
H395 H 0.46317 0.93311 0.38503 0.0
H396 H 0.54919 0.01699 0.65344 0.0
H397 H 0.54657 0.01928 0.73521 0.0
H398 H 0.57182 0.96749 0.75077 0.0
H399 H 0.57308 0.96415 0.66889 0.0
Nd400 Nd 0.07205 0.56438 0.50621 0.0
Nd401 Nd 0.03012 0.56923 0.56338 0.0
C402 C 0.10241 0.56784 0.44076 0.0
C403 C 0.10001 0.56222 0.39154 0.0
C404 C 0.12062 0.57313 0.36318 0.0
C405 C 0.11873 0.56655 0.3173 0.0
C406 C 0.09621 0.54874 0.2989 0.0
C407 C 0.07542 0.5386 0.32704 0.0
C408 C 0.07729 0.54523 0.3727 0.0
C409 C 0.03351 0.52244 0.5404 0.0
C410 C 0.02415 0.56384 0.45343 0.0
C411 C -0.0053 0.55737 0.62299 0.0
C412 C 0.99221 0.56058 0.67187 0.0
C413 C 0.97639 0.53992 0.69745 0.0
C414 C 0.97527 0.54139 0.7444 0.0
C415 C 0.98973 0.56372 0.76705 0.0
C416 C 0.00544 0.58452 0.74133 0.0
C417 C 0.00678 0.58296 0.6942 0.0
C418 C 0.07113 0.61457 0.55064 0.0
C419 C 0.07709 0.56872 0.61556 0.0
O420 O 0.09987 0.58629 0.45381 0.0
O421 O 0.09151 0.54904 0.46798 0.0
O422 O 0.05543 0.52557 0.53625 0.0
O423 O 0.0327 0.54037 0.52368 0.0
O424 O 0.04558 0.56465 0.45215 0.0
O425 O 0.01339 0.56398 0.49195 0.0
O426 O 0.0044 0.54385 0.61373 0.0
O427 O 0.0023 0.5763 0.59586 0.0
O428 O 0.05164 0.61134 0.57139 0.0
O429 O 0.06789 0.59417 0.53757 0.0
O430 O 0.05427 0.56439 0.61579 0.0
O431 O 0.08982 0.57238 0.5776 0.0
H432 H 0.13832 0.58638 0.37676 0.0
H433 H 0.13505 0.57475 0.29661 0.0
H434 H 0.05767 0.52523 0.3138 0.0
H435 H 0.06102 0.53673 0.39352 0.0
H436 H 0.96527 0.52239 0.68108 0.0
H437 H 0.96346 0.52485 0.76307 0.0
H438 H 0.01684 0.60198 0.75773 0.0
H439 H 0.01948 0.59909 0.67542 0.0
Nd440 Nd 0.42356 0.49913 0.50407 0.0
Nd441 Nd 0.419 0.45212 0.56149 0.0
C442 C 0.4198 0.52562 0.43801 0.0
C443 C 0.42569 0.52929 0.38891 0.0
C444 C 0.4161 0.54066 0.36143 0.0
C445 C 0.42274 0.54558 0.31565 0.0
C446 C 0.43917 0.53923 0.29619 0.0
C447 C 0.44829 0.52733 0.32372 0.0
C448 C 0.44165 0.52242 0.36939 0.0
C449 C 0.46521 0.50317 0.54059 0.0
C450 C 0.426 0.45231 0.45231 0.0
C451 C 0.43003 0.42922 0.62412 0.0
C452 C 0.42702 0.42573 0.67401 0.0
C453 C 0.44661 0.44098 0.70263 0.0
C454 C 0.44437 0.43864 0.74953 0.0
C455 C 0.4225 0.42075 0.76949 0.0
C456 C 0.40292 0.40513 0.741 0.0
C457 C 0.40513 0.40764 0.6938 0.0
C458 C 0.37378 0.44776 0.54712 0.0
C459 C 0.41771 0.49886 0.61295 0.0
O460 O 0.40164 0.50427 0.45052 0.0
O461 O 0.43848 0.53388 0.4657 0.0
O462 O 0.4618 0.52179 0.53609 0.0
O463 O 0.44777 0.48431 0.5231 0.0
O464 O 0.42484 0.47278 0.45092 0.0
O465 O 0.42535 0.44105 0.4907 0.0
O466 O 0.4448 0.45165 0.61087 0.0
O467 O 0.41073 0.41772 0.59787 0.0
O468 O 0.37675 0.43123 0.56753 0.0
O469 O 0.39425 0.46486 0.53466 0.0
O470 O 0.42303 0.48103 0.61322 0.0
O471 O 0.41403 0.5079 0.57492 0.0
H472 H 0.40384 0.54623 0.37564 0.0
H473 H 0.41565 0.55511 0.29594 0.0
H474 H 0.46079 0.52194 0.30997 0.0
H475 H 0.44929 0.51357 0.38964 0.0
H476 H 0.46379 0.45491 0.68877 0.0
H477 H 0.45979 0.45106 0.77025 0.0
H478 H 0.38598 0.39077 0.75514 0.0
H479 H 0.38971 0.3954 0.67292 0.0
Nd480 Nd 0.69158 0.78824 0.38348 0.0
Nd481 Nd 0.73453 0.83641 0.33122 0.0
C482 C 0.65564 0.76328 0.44167 0.0
C483 C 0.65362 0.75756 0.49063 0.0
C484 C 0.63704 0.761 0.51679 0.0
C485 C 0.6367 0.75888 0.5639 0.0
C486 C 0.65279 0.75299 0.58626 0.0
C487 C 0.66922 0.74925 0.55981 0.0
C488 C 0.66971 0.75162 0.51259 0.0
C489 C 0.73402 0.78595 0.37885 0.0
C490 C 0.73412 0.83705 0.44109 0.0
C491 C 0.76676 0.86371 0.26833 0.0
C492 C 0.76612 0.86994 0.21951 0.0
C493 C 0.76734 0.85555 0.18418 0.0
C494 C 0.76582 0.86116 0.1386 0.0
C495 C 0.76305 0.88129 0.12716 0.0
C496 C 0.7628 0.89616 0.16236 0.0
C497 C 0.76439 0.89064 0.2077 0.0
C498 C 0.69448 0.83849 0.35988 0.0
C499 C 0.68732 0.78996 0.27365 0.0
O500 O 0.66468 0.78644 0.43268 0.0
O501 O 0.66386 0.75264 0.41426 0.0
O502 O 0.71381 0.76903 0.39647 0.0
O503 O 0.73085 0.80277 0.36351 0.0
O504 O 0.71208 0.81759 0.43732 0.0
O505 O 0.74893 0.84636 0.40544 0.0
O506 O 0.76175 0.8414 0.27825 0.0
O507 O 0.75757 0.87237 0.29786 0.0
O508 O 0.7162 0.85778 0.35711 0.0
O509 O 0.69475 0.82007 0.34411 0.0
O510 O 0.70789 0.81157 0.27476 0.0
O511 O 0.67691 0.77693 0.31063 0.0
H512 H 0.62487 0.76621 0.50081 0.0
H513 H 0.62443 0.76285 0.58283 0.0
H514 H 0.68192 0.74475 0.5757 0.0
H515 H 0.68306 0.74938 0.49342 0.0
H516 H 0.76898 0.83964 0.19174 0.0
H517 H 0.7658 0.84919 0.11239 0.0
H518 H 0.76066 0.91178 0.15476 0.0
H519 H 0.76378 0.90243 0.2336 0.0
Nd520 Nd 0.20012 0.90543 0.37511 0.0
Nd521 Nd 0.15326 0.89491 0.32466 0.0
C522 C 0.23108 0.90746 0.43804 0.0
C523 C 0.23072 0.90484 0.48798 0.0
C524 C 0.21088 0.88543 0.51055 0.0
C525 C 0.21112 0.88322 0.5577 0.0
C526 C 0.23115 0.90045 0.58348 0.0
C527 C 0.25064 0.92018 0.56077 0.0
C528 C 0.25048 0.92224 0.51368 0.0
C529 C 0.20053 0.9463 0.34149 0.0
C530 C 0.15136 0.8971 0.43304 0.0
C531 C 0.1237 0.89496 0.2606 0.0
C532 C 0.11963 0.88826 0.21178 0.0
C533 C 0.11015 0.89913 0.1827 0.0
C534 C 0.10532 0.89213 0.13699 0.0
C535 C 0.10966 0.87391 0.11942 0.0
C536 C 0.1199 0.86365 0.14835 0.0
C537 C 0.12485 0.87074 0.19383 0.0
C538 C 0.15325 0.85485 0.35997 0.0
C539 C 0.20038 0.89566 0.26891 0.0
O540 O 0.2171 0.88782 0.4144 0.0
O541 O 0.23113 0.92686 0.42237 0.0
O542 O 0.2187 0.94217 0.33884 0.0
O543 O 0.18248 0.92862 0.36095 0.0
O544 O 0.17145 0.89559 0.43098 0.0
O545 O 0.14114 0.89997 0.396 0.0
O546 O 0.14446 0.9144 0.27152 0.0
O547 O 0.1174 0.877 0.2893 0.0
O548 O 0.1337 0.85678 0.35809 0.0
O549 O 0.17067 0.87268 0.34035 0.0
O550 O 0.17995 0.89681 0.26815 0.0
O551 O 0.21145 0.89661 0.30743 0.0
H552 H 0.19515 0.87201 0.49178 0.0
H553 H 0.1957 0.8679 0.57395 0.0
H554 H 0.266 0.93426 0.57945 0.0
H555 H 0.26585 0.93755 0.49728 0.0
H556 H 0.10613 0.91281 0.19551 0.0
H557 H 0.09751 0.90044 0.11572 0.0
H558 H 0.12393 0.84993 0.1358 0.0
H559 H 0.1325 0.86229 0.21515 0.0
Nd560 Nd 0.08623 0.2908 0.3797 0.0
Nd561 Nd 0.0958 0.25359 0.32855 0.0
C562 C 0.08654 0.32101 0.44279 0.0
C563 C 0.08993 0.32351 0.4925 0.0
C564 C 0.09963 0.31108 0.51652 0.0
C565 C 0.10163 0.31269 0.56374 0.0
C566 C 0.0946 0.32737 0.58813 0.0
C567 C 0.08552 0.34032 0.5636 0.0
C568 C 0.08309 0.33828 0.51649 0.0
C569 C 0.04499 0.25053 0.34708 0.0
C570 C 0.09343 0.24883 0.43618 0.0
C571 C 0.0951 0.22367 0.26464 0.0
C572 C 0.10128 0.226 0.21571 0.0
C573 C 0.08988 0.2055 0.18702 0.0
C574 C 0.09644 0.20735 0.14118 0.0
C575 C 0.11474 0.22972 0.12317 0.0
C576 C 0.12549 0.25038 0.15169 0.0
C577 C 0.11886 0.24856 0.19731 0.0
C578 C 0.1361 0.29383 0.36321 0.0
C579 C 0.09465 0.29986 0.27312 0.0
O580 O 0.10565 0.32536 0.41889 0.0
O581 O 0.06654 0.30198 0.42796 0.0
O582 O 0.04903 0.27286 0.34514 0.0
O583 O 0.06278 0.25001 0.36571 0.0
O584 O 0.09468 0.27034 0.43476 0.0
O585 O 0.09069 0.23597 0.399 0.0
O586 O 0.07578 0.22506 0.27604 0.0
O587 O 0.11338 0.23554 0.2927 0.0
O588 O 0.1341 0.27229 0.36182 0.0
O589 O 0.11818 0.29324 0.34372 0.0
O590 O 0.09331 0.27818 0.27255 0.0
O591 O 0.09452 0.31051 0.31151 0.0
H592 H 0.10548 0.29992 0.49892 0.0
H593 H 0.10814 0.30194 0.58105 0.0
H594 H 0.08022 0.35208 0.58085 0.0
H595 H 0.07575 0.34823 0.49877 0.0
H596 H 0.07613 0.18794 0.20025 0.0
H597 H 0.08775 0.19114 0.12016 0.0
H598 H 0.13924 0.268 0.13868 0.0
H599 H 0.12768 0.26476 0.21836 0.0
Nd600 Nd 0.12032 0.36526 0.99727 0.0
Nd601 Nd 0.16713 0.40195 0.04951 0.0
C602 C 0.0914 0.33635 0.93217 0.0
C603 C 0.09327 0.33552 0.882 0.0
C604 C 0.09858 0.31856 0.86152 0.0
C605 C 0.10018 0.31754 0.81437 0.0
C606 C 0.09629 0.33331 0.78642 0.0
C607 C 0.09105 0.35029 0.8069 0.0
C608 C 0.08961 0.35143 0.85397 0.0
C609 C 0.11881 0.40422 0.03411 0.0
C610 C 0.16929 0.40744 0.9415 0.0
C611 C 0.19709 0.43154 0.11318 0.0
C612 C 0.20208 0.43052 0.16227 0.0
C613 C 0.18378 0.4235 0.19545 0.0
C614 C 0.18908 0.42248 0.24134 0.0
C615 C 0.21278 0.4284 0.25522 0.0
C616 C 0.23101 0.43554 0.22197 0.0
C617 C 0.22577 0.43668 0.17628 0.0
C618 C 0.16743 0.36246 1.01203 0.0
C619 C 0.12019 0.35436 0.10311 0.0
O620 O 0.10575 0.33133 0.95607 0.0
O621 O 0.08935 0.35433 0.94953 0.0
O622 O 0.10039 0.38194 0.03351 0.0
O623 O 0.13729 0.40573 1.01434 0.0
O624 O 0.14901 0.38595 0.94246 0.0
O625 O 0.17942 0.41999 0.97905 0.0
O626 O 0.17661 0.43071 0.10172 0.0
O627 O 0.20288 0.41903 0.0856 0.0
O628 O 0.18686 0.38406 1.0139 0.0
O629 O 0.15004 0.36259 0.03211 0.0
O630 O 0.14017 0.37634 0.10502 0.0
O631 O 0.10954 0.34438 0.0642 0.0
H632 H 0.10125 0.30586 0.88197 0.0
H633 H 0.10385 0.30396 0.79976 0.0
H634 H 0.08805 0.36276 0.78638 0.0
H635 H 0.0855 0.36475 0.86831 0.0
H636 H 0.16528 0.41849 0.18595 0.0
H637 H 0.17444 0.41637 0.26579 0.0
H638 H 0.24943 0.44015 0.23133 0.0
H639 H 0.24028 0.44223 0.1517 0.0
Nd640 Nd 0.62679 0.75221 0.99231 0.0
Nd641 Nd 0.58704 0.76153 0.04809 0.0
C642 C 0.66039 0.76075 0.93032 0.0
C643 C 0.66046 0.75725 0.8807 0.0
C644 C 0.67581 0.77747 0.85362 0.0
C645 C 0.67444 0.7758 0.80643 0.0
C646 C 0.65767 0.75381 0.78488 0.0
C647 C 0.64274 0.73333 0.81212 0.0
C648 C 0.64396 0.73509 0.85947 0.0
C649 C 0.58352 0.70883 1.0051 0.0
C650 C 0.58304 0.7579 0.93844 0.0
C651 C 0.55732 0.76064 0.1125 0.0
C652 C 0.55879 0.76762 0.16127 0.0
C653 C 0.56397 0.75544 0.19572 0.0
C654 C 0.56526 0.76248 0.24125 0.0
C655 C 0.56139 0.78185 0.25362 0.0
C656 C 0.55607 0.79385 0.21912 0.0
C657 C 0.5547 0.78679 0.17377 0.0
C658 C 0.62725 0.80131 1.0132 0.0
C659 C 0.63449 0.76104 0.10164 0.0
O660 O 0.6538 0.77648 0.9423 0.0
O661 O 0.65139 0.74153 0.95701 0.0
O662 O 0.60254 0.71031 0.98537 0.0
O663 O 0.58835 0.72983 1.01783 0.0
O664 O 0.60482 0.75966 0.93913 0.0
O665 O 0.5702 0.75517 0.97594 0.0
O666 O 0.5596 0.74166 0.10203 0.0
O667 O 0.56816 0.77855 0.08337 0.0
O668 O 0.60614 0.80018 1.01684 0.0
O669 O 0.62637 0.78267 1.03042 0.0
O670 O 0.61445 0.76299 0.10239 0.0
O671 O 0.64359 0.75729 0.06388 0.0
H672 H 0.68848 0.79488 0.86906 0.0
H673 H 0.68612 0.79199 0.7868 0.0
H674 H 0.63003 0.71591 0.7969 0.0
H675 H 0.63171 0.71924 0.87936 0.0
H676 H 0.56728 0.74062 0.18754 0.0
H677 H 0.56993 0.75315 0.26664 0.0
H678 H 0.55295 0.8088 0.22724 0.0
H679 H 0.55054 0.79649 0.1483 0.0
Nd680 Nd 0.23708 0.8685 0.99153 0.0
Nd681 Nd 0.22753 0.82183 0.04389 0.0
C682 C 0.2381 0.89827 0.92713 0.0
C683 C 0.2362 0.89748 0.87703 0.0
C684 C 0.21771 0.877 0.85406 0.0
C685 C 0.21633 0.87671 0.80671 0.0
C686 C 0.23372 0.89669 0.78127 0.0
C687 C 0.25221 0.91709 0.80432 0.0
C688 C 0.25337 0.9175 0.85159 0.0
C689 C 0.27764 0.87074 1.03 0.0
C690 C 0.23355 0.82074 0.93621 0.0
C691 C 0.22704 0.79218 0.10842 0.0
C692 C 0.22106 0.78744 0.15771 0.0
C693 C 0.23507 0.80464 0.19135 0.0
C694 C 0.22884 0.7997 0.23736 0.0
C695 C 0.20853 0.77736 0.2511 0.0
C696 C 0.19486 0.76009 0.21737 0.0
C697 C 0.20105 0.76503 0.17155 0.0
C698 C 0.18785 0.82007 1.00263 0.0
C699 C 0.22667 0.86863 0.09737 0.0
O700 O 0.21842 0.88361 0.94999 0.0
O701 O 0.25784 0.89966 0.94435 0.0
O702 O 0.27333 0.88884 1.02917 0.0
O703 O 0.26099 0.85222 1.00977 0.0
O704 O 0.23071 0.84011 0.93662 0.0
O705 O 0.23578 0.8108 0.9742 0.0
O706 O 0.24675 0.81252 0.09663 0.0
O707 O 0.20877 0.78628 0.08064 0.0
O708 O 0.19064 0.80107 1.00629 0.0
O709 O 0.20445 0.83784 1.02398 0.0
O710 O 0.22908 0.84892 0.09898 0.0
O711 O 0.22643 0.8789 0.05855 0.0
H712 H 0.20446 0.86112 0.87264 0.0
H713 H 0.20199 0.86065 0.78994 0.0
H714 H 0.26571 0.93287 0.78572 0.0
H715 H 0.26781 0.9335 0.86834 0.0
H716 H 0.25072 0.82206 0.18215 0.0
H717 H 0.23956 0.81366 0.26205 0.0
H718 H 0.17919 0.74264 0.22641 0.0
H719 H 0.19002 0.75124 0.14677 0.0
Nd720 Nd 0.5891 0.82163 0.54665 0.0
Nd721 Nd 0.62562 0.86866 0.49599 0.0
C722 C 0.55987 0.79092 0.60987 0.0
C723 C 0.56086 0.7858 0.65899 0.0
C724 C 0.56665 0.8037 0.69259 0.0
C725 C 0.56769 0.79837 0.73847 0.0
C726 C 0.56282 0.77493 0.75212 0.0
C727 C 0.55675 0.75703 0.71837 0.0
C728 C 0.55578 0.76238 0.67265 0.0
C729 C 0.62749 0.82066 0.50595 0.0
C730 C 0.63608 0.86839 0.60189 0.0
C731 C 0.65313 0.89837 0.43033 0.0
C732 C 0.65239 0.89727 0.37979 0.0
C733 C 0.66758 0.89085 0.35566 0.0
C734 C 0.66703 0.88988 0.30824 0.0
C735 C 0.65127 0.8953 0.28349 0.0
C736 C 0.63618 0.90185 0.30761 0.0
C737 C 0.63671 0.9028 0.35498 0.0
C738 C 0.58603 0.86953 0.53246 0.0
C739 C 0.58261 0.82054 0.43879 0.0
O740 O 0.56003 0.8111 0.59859 0.0
O741 O 0.57288 0.78579 0.58234 0.0
O742 O 0.60582 0.80149 0.50925 0.0
O743 O 0.62839 0.83824 0.5276 0.0
O744 O 0.61395 0.84866 0.60282 0.0
O745 O 0.64675 0.87886 0.56326 0.0
O746 O 0.65834 0.88335 0.45144 0.0
O747 O 0.63606 0.90065 0.451 0.0
O748 O 0.60847 0.88758 0.5345 0.0
O749 O 0.58512 0.85148 0.51199 0.0
O750 O 0.60434 0.84056 0.44015 0.0
O751 O 0.57028 0.81024 0.47643 0.0
H752 H 0.57061 0.82193 0.68342 0.0
H753 H 0.57297 0.81283 0.7631 0.0
H754 H 0.55278 0.73876 0.72732 0.0
H755 H 0.55113 0.74811 0.64778 0.0
H756 H 0.68002 0.88664 0.37346 0.0
H757 H 0.6789 0.88475 0.29091 0.0
H758 H 0.62424 0.90673 0.28983 0.0
H759 H 0.62487 0.90802 0.37211 0.0
Nd760 Nd 0.17105 0.76635 0.54756 0.0
Nd761 Nd 0.12459 0.75562 0.49327 0.0
C762 C 0.20427 0.7709 0.60841 0.0
C763 C 0.20852 0.77275 0.65804 0.0
C764 C 0.18947 0.76652 0.68909 0.0
C765 C 0.19453 0.77164 0.73542 0.0
C766 C 0.2188 0.78341 0.75148 0.0
C767 C 0.2377 0.78885 0.72046 0.0
C768 C 0.23261 0.78357 0.67438 0.0
C769 C 0.17241 0.80577 0.50522 0.0
C770 C 0.12248 0.76138 0.60253 0.0
C771 C 0.09137 0.75536 0.43855 0.0
C772 C 0.09016 0.75509 0.38826 0.0
C773 C 0.11053 0.77172 0.36256 0.0
C774 C 0.10965 0.77126 0.31532 0.0
C775 C 0.08845 0.75409 0.29218 0.0
C776 C 0.06815 0.73729 0.31789 0.0
C777 C 0.06898 0.73785 0.36534 0.0
C778 C 0.13065 0.71554 0.50749 0.0
C779 C 0.17221 0.76314 0.43773 0.0
O780 O 0.18807 0.7498 0.5909 0.0
O781 O 0.20355 0.7893 0.58992 0.0
O782 O 0.19112 0.80253 0.50776 0.0
O783 O 0.15458 0.78896 0.5261 0.0
O784 O 0.14512 0.7652 0.604 0.0
O785 O 0.11019 0.75727 0.56411 0.0
O786 O 0.10902 0.77527 0.45679 0.0
O787 O 0.08827 0.73547 0.45858 0.0
O788 O 0.12368 0.72054 0.46985 0.0
O789 O 0.1345 0.7319 0.5362 0.0
O790 O 0.15397 0.76766 0.4392 0.0
O791 O 0.1806 0.75816 0.47531 0.0
H792 H 0.17084 0.7585 0.67724 0.0
H793 H 0.17962 0.7675 0.75837 0.0
H794 H 0.25656 0.79789 0.73171 0.0
H795 H 0.24767 0.78877 0.65118 0.0
H796 H 0.12731 0.78509 0.37888 0.0
H797 H 0.12563 0.78454 0.29688 0.0
H798 H 0.05173 0.72339 0.30139 0.0
H799 H 0.05313 0.72464 0.38415 0.0
Nd800 Nd 0.22368 0.39978 0.54889 0.0
Nd801 Nd 0.23149 0.36222 0.49266 0.0
C802 C 0.22267 0.42837 0.61386 0.0
C803 C 0.21868 0.42645 0.66364 0.0
C804 C 0.23036 0.44738 0.69122 0.0
C805 C 0.22473 0.44607 0.73748 0.0
C806 C 0.20714 0.42381 0.75706 0.0
C807 C 0.19611 0.40275 0.72961 0.0
C808 C 0.20189 0.40401 0.68365 0.0
C809 C 0.18287 0.36214 0.50874 0.0
C810 C 0.22475 0.35366 0.60237 0.0
C811 C 0.22828 0.3285 0.43541 0.0
C812 C 0.22989 0.32803 0.38515 0.0
C813 C 0.21045 0.30932 0.36053 0.0
C814 C 0.21029 0.30963 0.31312 0.0
C815 C 0.22957 0.32872 0.28886 0.0
C816 C 0.24922 0.34727 0.31353 0.0
C817 C 0.24931 0.34704 0.36102 0.0
C818 C 0.27304 0.40736 0.50644 0.0
C819 C 0.22715 0.40541 0.44012 0.0
O820 O 0.24307 0.43043 0.59846 0.0
O821 O 0.20377 0.41375 0.58914 0.0
O822 O 0.18679 0.38439 0.51112 0.0
O823 O 0.19979 0.36079 0.52838 0.0
O824 O 0.22208 0.37317 0.604 0.0
O825 O 0.22873 0.3454 0.56376 0.0
O826 O 0.20935 0.3294 0.45062 0.0
O827 O 0.24826 0.34256 0.45862 0.0
O828 O 0.26772 0.39509 0.46908 0.0
O829 O 0.25654 0.3954 0.53509 0.0
O830 O 0.22121 0.38218 0.44048 0.0
O831 O 0.23285 0.41852 0.47805 0.0
H832 H 0.24335 0.4649 0.67672 0.0
H833 H 0.2334 0.46266 0.75749 0.0
H834 H 0.18264 0.38528 0.74364 0.0
H835 H 0.19268 0.38751 0.66346 0.0
H836 H 0.19508 0.29458 0.37807 0.0
H837 H 0.19505 0.29481 0.29544 0.0
H838 H 0.26431 0.36232 0.29605 0.0
H839 H 0.26436 0.362 0.37881 0.0
Nd840 Nd 0.15323 0.25627 0.8303 0.0
Nd841 Nd 0.19798 0.29499 0.88612 0.0
C842 C 0.12448 0.22736 0.76477 0.0
C843 C 0.12239 0.22984 0.71513 0.0
C844 C 0.11572 0.20978 0.68623 0.0
C845 C 0.1117 0.21139 0.63993 0.0
C846 C 0.11412 0.23308 0.62156 0.0
C847 C 0.1215 0.25335 0.65038 0.0
C848 C 0.12571 0.25181 0.69643 0.0
C849 C 0.14866 0.29333 0.86917 0.0
C850 C 0.1996 0.30266 0.77613 0.0
C851 C 0.22781 0.32965 0.94286 0.0
C852 C 0.23013 0.33096 0.99328 0.0
C853 C 0.22163 0.3443 1.01798 0.0
C854 C 0.22167 0.34426 0.06535 0.0
C855 C 0.23034 0.33096 0.08971 0.0
C856 C 0.2398 0.31844 0.06504 0.0
C857 C 0.23951 0.31825 1.01751 0.0
C858 C 0.19574 0.25033 0.87478 0.0
C859 C 0.15114 0.25075 0.93868 0.0
O860 O 0.14352 0.2264 0.77972 0.0
O861 O 0.11899 0.24076 0.79048 0.0
O862 O 0.13082 0.27081 0.86722 0.0
O863 O 0.16721 0.29523 0.84982 0.0
O864 O 0.17747 0.28313 0.7752 0.0
O865 O 0.21199 0.31137 0.81453 0.0
O866 O 0.20769 0.32793 0.92697 0.0
O867 O 0.23434 0.31585 0.92048 0.0
O868 O 0.20251 0.26313 0.91154 0.0
O869 O 0.19085 0.26162 0.8451 0.0
O870 O 0.16771 0.27429 0.93821 0.0
O871 O 0.14414 0.23753 0.90092 0.0
H872 H 0.11303 0.19264 0.69968 0.0
H873 H 0.10583 0.19538 0.61885 0.0
H874 H 0.12377 0.27041 0.63731 0.0
H875 H 0.13108 0.26771 0.71759 0.0
H876 H 0.21461 0.3546 1.00056 0.0
H877 H 0.215 0.35482 0.0829 0.0
H878 H 0.24673 0.30808 0.08253 0.0
H879 H 0.24623 0.30776 0.99986 0.0
Nd880 Nd 0.7339 0.89379 0.83301 0.0
Nd881 Nd 0.69491 0.90067 0.88534 0.0
C882 C 0.76399 0.89383 0.76985 0.0
C883 C 0.76303 0.88847 0.72024 0.0
C884 C 0.76546 0.90551 0.68684 0.0
C885 C 0.76359 0.89948 0.64055 0.0
C886 C 0.75922 0.8763 0.62661 0.0
C887 C 0.75749 0.85962 0.65988 0.0
C888 C 0.75952 0.86565 0.70585 0.0
C889 C 0.69617 0.85231 0.87073 0.0
C890 C 0.68783 0.89327 0.77575 0.0
C891 C 0.65946 0.89718 0.93831 0.0
C892 C 0.65663 0.8978 0.98835 0.0
C893 C 0.6401 0.87624 1.01127 0.0
C894 C 0.63831 0.87572 0.05851 0.0
C895 C 0.65284 0.89687 0.08445 0.0
C896 C 0.66921 0.91855 0.06145 0.0
C897 C 0.6711 0.91902 1.0141 0.0
C898 C 0.74018 0.94263 0.87568 0.0
C899 C 0.73607 0.89514 0.94276 0.0
O900 O 0.76413 0.91373 0.78307 0.0
O901 O 0.75059 0.8752 0.79607 0.0
O902 O 0.71854 0.85659 0.86914 0.0
O903 O 0.69465 0.86913 0.85085 0.0
O904 O 0.70709 0.89013 0.77613 0.0
O905 O 0.67961 0.89832 0.81319 0.0
O906 O 0.66055 0.87832 0.92313 0.0
O907 O 0.67473 0.9175 0.91728 0.0
O908 O 0.72712 0.93657 0.9121 0.0
O909 O 0.72902 0.92649 0.84588 0.0
O910 O 0.71291 0.88899 0.93874 0.0
O911 O 0.75056 0.902 0.90644 0.0
H912 H 0.76834 0.92333 0.69644 0.0
H913 H 0.76465 0.91259 0.61575 0.0
H914 H 0.75392 0.84155 0.65027 0.0
H915 H 0.75784 0.85213 0.73031 0.0
H916 H 0.62887 0.85949 0.99261 0.0
H917 H 0.62607 0.85848 0.07475 0.0
H918 H 0.68072 0.93519 0.08014 0.0
H919 H 0.6842 0.93592 0.99781 0.0
Nd920 Nd 0.09463 0.83406 0.82541 0.0
Nd921 Nd 0.08826 0.7869 0.88414 0.0
C922 C 0.09204 0.86104 0.75898 0.0
C923 C 0.09879 0.86503 0.71017 0.0
C924 C 0.0865 0.87254 0.68022 0.0
C925 C 0.09369 0.87772 0.63469 0.0
C926 C 0.11352 0.87573 0.6181 0.0
C927 C 0.12525 0.86741 0.64789 0.0
C928 C 0.11798 0.86211 0.69323 0.0
C929 C 0.13592 0.83592 0.8586 0.0
C930 C 0.0939 0.78534 0.77436 0.0
C931 C 0.09808 0.76356 0.9479 0.0
C932 C 0.09514 0.76088 0.99805 0.0
C933 C 0.11405 0.77765 1.02645 0.0
C934 C 0.11191 0.77561 0.07345 0.0
C935 C 0.09079 0.75671 0.09378 0.0
C936 C 0.07182 0.73981 0.0656 0.0
C937 C 0.07398 0.74185 1.01829 0.0
C938 C 0.04386 0.78491 0.87291 0.0
C939 C 0.09187 0.83598 0.93475 0.0
O940 O 0.07364 0.83967 0.77055 0.0
O941 O 0.11014 0.86914 0.78795 0.0
O942 O 0.13379 0.85531 0.85424 0.0
O943 O 0.11734 0.8174 0.84301 0.0
O944 O 0.09394 0.80645 0.77244 0.0
O945 O 0.09269 0.77417 0.81326 0.0
O946 O 0.11356 0.78554 0.93353 0.0
O947 O 0.0786 0.75243 0.92194 0.0
O948 O 0.04638 0.76815 0.8934 0.0
O949 O 0.06438 0.80121 0.85863 0.0
O950 O 0.09607 0.81744 0.93483 0.0
O951 O 0.08758 0.8447 0.89688 0.0
H952 H 0.07157 0.87483 0.69225 0.0
H953 H 0.08421 0.884 0.61279 0.0
H954 H 0.14025 0.86515 0.63616 0.0
H955 H 0.12762 0.85605 0.71525 0.0
H956 H 0.13065 0.79251 1.0124 0.0
H957 H 0.1268 0.78905 0.09398 0.0
H958 H 0.05545 0.72478 0.08011 0.0
H959 H 0.05913 0.72847 0.99764 0.0
Nd960 Nd 0.35808 0.11964 0.71996 0.0
Nd961 Nd 0.40053 0.16711 0.66392 0.0
C962 C 0.32377 0.09669 0.78175 0.0
C963 C 0.32364 0.09497 0.83177 0.0
C964 C 0.31034 0.1033 0.85684 0.0
C965 C 0.31178 0.1045 0.90401 0.0
C966 C 0.32628 0.097 0.92734 0.0
C967 C 0.33916 0.08808 0.90244 0.0
C968 C 0.33808 0.08731 0.85507 0.0
C969 C 0.39927 0.11575 0.70668 0.0
C970 C 0.40547 0.16612 0.77315 0.0
C971 C 0.43083 0.19421 0.59861 0.0
C972 C 0.42931 0.19898 0.54947 0.0
C973 C 0.42131 0.18036 0.51661 0.0
C974 C 0.41966 0.18537 0.47078 0.0
C975 C 0.42605 0.20916 0.45648 0.0
C976 C 0.43424 0.22774 0.48941 0.0
C977 C 0.43591 0.22274 0.53506 0.0
C978 C 0.36308 0.171 0.70131 0.0
C979 C 0.35127 0.12077 0.61075 0.0
O980 O 0.33039 0.11849 0.76647 0.0
O981 O 0.33279 0.08552 0.7578 0.0
O982 O 0.37965 0.09901 0.72644 0.0
O983 O 0.39581 0.13276 0.69385 0.0
O984 O 0.38248 0.14799 0.77281 0.0
O985 O 0.41838 0.1754 0.73536 0.0
O986 O 0.42767 0.17276 0.61051 0.0
O987 O 0.4207 0.20243 0.62696 0.0
O988 O 0.38511 0.18962 0.69699 0.0
O989 O 0.36159 0.15227 0.68301 0.0
O990 O 0.37265 0.14157 0.60987 0.0
O991 O 0.34118 0.1087 0.64879 0.0
H992 H 0.29907 0.10929 0.83978 0.0
H993 H 0.30142 0.11115 0.92231 0.0
H994 H 0.35046 0.08217 0.91964 0.0
H995 H 0.34881 0.08111 0.83678 0.0
H996 H 0.41606 0.16182 0.5263 0.0
H997 H 0.41278 0.17046 0.44673 0.0
H998 H 0.43939 0.24627 0.47983 0.0
H999 H 0.44227 0.23755 0.55931 0.0
Nd1000 Nd 0.86711 0.23798 0.71949 0.0
Nd1001 Nd 0.8206 0.22832 0.6684 0.0
C1002 C 0.89708 0.23948 0.78393 0.0
C1003 C 0.89593 0.23738 0.83409 0.0
C1004 C 0.87669 0.21714 0.85609 0.0
C1005 C 0.87611 0.21528 0.90335 0.0
C1006 C 0.89457 0.23386 0.93001 0.0
C1007 C 0.91363 0.25425 0.90781 0.0
C1008 C 0.91432 0.25594 0.86056 0.0
C1009 C 0.86872 0.27924 0.68492 0.0
C1010 C 0.81894 0.23213 0.7763 0.0
C1011 C 0.79068 0.22791 0.6045 0.0
C1012 C 0.78584 0.22183 0.55523 0.0
C1013 C 0.8023 0.2367 0.52143 0.0
C1014 C 0.79738 0.23039 0.47543 0.0
C1015 C 0.77585 0.20908 0.46185 0.0
C1016 C 0.75926 0.19453 0.49572 0.0
C1017 C 0.76413 0.20084 0.54153 0.0
C1018 C 0.81943 0.18823 0.70656 0.0
C1019 C 0.86737 0.22809 0.61363 0.0
O1020 O 0.88285 0.21977 0.76059 0.0
O1021 O 0.89823 0.25911 0.76672 0.0
O1022 O 0.88648 0.27447 0.68249 0.0
O1023 O 0.85035 0.26184 0.70423 0.0
O1024 O 0.83863 0.2299 0.77506 0.0
O1025 O 0.80898 0.23491 0.73883 0.0
O1026 O 0.81108 0.24762 0.61618 0.0
O1027 O 0.78484 0.20969 0.63233 0.0
O1028 O 0.80034 0.19092 0.70442 0.0
O1029 O 0.83701 0.20533 0.68583 0.0
O1030 O 0.84757 0.23035 0.61256 0.0
O1031 O 0.87783 0.22792 0.65226 0.0
H1032 H 0.86211 0.20267 0.83677 0.0
H1033 H 0.8614 0.19905 0.91884 0.0
H1034 H 0.92803 0.26906 0.92703 0.0
H1035 H 0.92929 0.27183 0.84465 0.0
H1036 H 0.81915 0.25311 0.53046 0.0
H1037 H 0.81081 0.24186 0.4506 0.0
H1038 H 0.74242 0.17807 0.48677 0.0
H1039 H 0.75088 0.1891 0.56642 0.0
Nd1040 Nd 0.75364 0.62886 0.71932 0.0
Nd1041 Nd 0.76111 0.59071 0.66441 0.0
C1042 C 0.75719 0.66326 0.77506 0.0
C1043 C 0.75616 0.66439 0.82535 0.0
C1044 C 0.77774 0.6793 0.84986 0.0
C1045 C 0.77784 0.67914 0.89721 0.0
C1046 C 0.75631 0.66413 0.92162 0.0
C1047 C 0.73456 0.64966 0.89709 0.0
C1048 C 0.73451 0.64967 0.84964 0.0
C1049 C 0.71207 0.58354 0.70839 0.0
C1050 C 0.75825 0.5862 0.77341 0.0
C1051 C 0.7618 0.56202 0.59907 0.0
C1052 C 0.76664 0.56421 0.54942 0.0
C1053 C 0.75474 0.54358 0.52111 0.0
C1054 C 0.76104 0.54501 0.47512 0.0
C1055 C 0.7796 0.56706 0.45652 0.0
C1056 C 0.79074 0.58791 0.48452 0.0
C1057 C 0.78434 0.58653 0.53023 0.0
C1058 C 0.80198 0.6285 0.70388 0.0
C1059 C 0.76063 0.63695 0.61011 0.0
O1060 O 0.77604 0.66236 0.75934 0.0
O1061 O 0.73699 0.64883 0.75273 0.0
O1062 O 0.71789 0.59643 0.74503 0.0
O1063 O 0.72812 0.59494 0.6786 0.0
O1064 O 0.76423 0.60945 0.77208 0.0
O1065 O 0.75234 0.57265 0.73596 0.0
O1066 O 0.7416 0.56084 0.61336 0.0
O1067 O 0.78048 0.57574 0.62505 0.0
O1068 O 0.79808 0.60624 0.70194 0.0
O1069 O 0.78511 0.62976 0.68387 0.0
O1070 O 0.76388 0.6178 0.60949 0.0
O1071 O 0.75602 0.64517 0.64804 0.0
H1072 H 0.79477 0.69082 0.83231 0.0
H1073 H 0.79495 0.69048 0.91472 0.0
H1074 H 0.71747 0.63838 0.91456 0.0
H1075 H 0.71753 0.63793 0.83206 0.0
H1076 H 0.74101 0.52615 0.53485 0.0
H1077 H 0.75207 0.52864 0.45453 0.0
H1078 H 0.80477 0.6053 0.47115 0.0
H1079 H 0.79367 0.60286 0.55085 0.0
Nd1080 Nd 0.78841 0.69884 0.33123 0.0
Nd1081 Nd 0.83526 0.73542 0.38254 0.0
C1082 C 0.75777 0.67036 0.26723 0.0
C1083 C 0.75781 0.66908 0.21681 0.0
C1084 C 0.76093 0.65102 0.19493 0.0
C1085 C 0.76076 0.64955 0.14759 0.0
C1086 C 0.75727 0.66598 0.12066 0.0
C1087 C 0.75419 0.68405 0.14269 0.0
C1088 C 0.75443 0.68557 0.18996 0.0
C1089 C 0.78806 0.73889 0.36559 0.0
C1090 C 0.83817 0.73829 0.27392 0.0
C1091 C 0.86526 0.76548 0.44566 0.0
C1092 C 0.86989 0.76436 0.49486 0.0
C1093 C 0.85095 0.75555 0.52706 0.0
C1094 C 0.85582 0.75424 0.57305 0.0
C1095 C 0.87973 0.76167 0.58808 0.0
C1096 C 0.89861 0.77058 0.55579 0.0
C1097 C 0.89376 0.77197 0.50994 0.0
C1098 C 0.83521 0.695 0.349 0.0
C1099 C 0.78755 0.68923 0.43773 0.0
O1100 O 0.77256 0.66511 0.28903 0.0
O1101 O 0.75672 0.68866 0.28564 0.0
O1102 O 0.7696 0.7167 0.36706 0.0
O1103 O 0.80623 0.73978 0.34571 0.0
O1104 O 0.81756 0.71724 0.27656 0.0
O1105 O 0.84801 0.75198 0.31057 0.0
O1106 O 0.84484 0.76465 0.43378 0.0
O1107 O 0.87108 0.75286 0.41848 0.0
O1108 O 0.85484 0.7164 0.35148 0.0
O1109 O 0.81758 0.6956 0.36739 0.0
O1110 O 0.80774 0.71109 0.43887 0.0
O1111 O 0.77715 0.67869 0.39895 0.0
H1112 H 0.76367 0.63807 0.21446 0.0
H1113 H 0.76398 0.63586 0.13219 0.0
H1114 H 0.7513 0.69695 0.12332 0.0
H1115 H 0.75188 0.6997 0.20538 0.0
H1116 H 0.83231 0.74941 0.51667 0.0
H1117 H 0.84072 0.74676 0.59667 0.0
H1118 H 0.91721 0.7764 0.56601 0.0
H1119 H 0.90874 0.77883 0.48607 0.0
Nd1120 Nd 0.29098 0.09053 0.33117 0.0
Nd1121 Nd 0.25407 0.10042 0.3806 0.0
C1122 C 0.3212 0.0895 0.27004 0.0
C1123 C 0.3243 0.09328 0.2206 0.0
C1124 C 0.31662 0.1078 0.19773 0.0
C1125 C 0.31837 0.11003 0.15058 0.0
C1126 C 0.32789 0.0978 0.1252 0.0
C1127 C 0.33603 0.08372 0.14852 0.0
C1128 C 0.33421 0.08147 0.1956 0.0
C1129 C 0.25101 0.04931 0.36488 0.0
C1130 C 0.24904 0.09622 0.27233 0.0
C1131 C 0.22431 0.10159 0.44287 0.0
C1132 C 0.22548 0.10795 0.49189 0.0
C1133 C 0.22928 0.09458 0.5259 0.0
C1134 C 0.23082 0.1013 0.57164 0.0
C1135 C 0.2284 0.12147 0.58476 0.0
C1136 C 0.22418 0.13451 0.55066 0.0
C1137 C 0.22271 0.12784 0.50506 0.0
C1138 C 0.29361 0.14063 0.3437 0.0
C1139 C 0.29942 0.0987 0.43771 0.0
O1140 O 0.3264 0.10868 0.29466 0.0
O1141 O 0.30135 0.06994 0.28357 0.0
O1142 O 0.27347 0.05392 0.36785 0.0
O1143 O 0.25022 0.06674 0.34524 0.0
O1144 O 0.27103 0.09858 0.2744 0.0
O1145 O 0.23619 0.09361 0.30951 0.0
O1146 O 0.22471 0.08165 0.43194 0.0
O1147 O 0.23711 0.11964 0.41502 0.0
O1148 O 0.27189 0.13806 0.34543 0.0
O1149 O 0.29376 0.12335 0.36454 0.0
O1150 O 0.27761 0.09701 0.4379 0.0
O1151 O 0.31049 0.09925 0.39954 0.0
H1152 H 0.30873 0.11697 0.21618 0.0
H1153 H 0.31133 0.12053 0.134 0.0
H1154 H 0.34369 0.07425 0.13028 0.0
H1155 H 0.34028 0.0702 0.21246 0.0
H1156 H 0.23134 0.07905 0.51718 0.0
H1157 H 0.23457 0.09108 0.59659 0.0
H1158 H 0.22208 0.15004 0.55923 0.0
H1159 H 0.21955 0.13841 0.4799 0.0
Nd1160 Nd 0.90273 0.19976 0.33605 0.0
Nd1161 Nd 0.89057 0.15227 0.38654 0.0
C1162 C 0.90605 0.23139 0.27334 0.0
C1163 C 0.90293 0.23087 0.22354 0.0
C1164 C 0.88465 0.21001 0.2012 0.0
C1165 C 0.88213 0.2098 0.15407 0.0
C1166 C 0.8981 0.23036 0.12811 0.0
C1167 C 0.91649 0.25111 0.1506 0.0
C1168 C 0.91879 0.25139 0.19772 0.0
C1169 C 0.94262 0.19896 0.37133 0.0
C1170 C 0.89372 0.15062 0.27817 0.0
C1171 C 0.88871 0.12116 0.44927 0.0
C1172 C 0.88269 0.11605 0.49835 0.0
C1173 C 0.89388 0.13434 0.53169 0.0
C1174 C 0.88757 0.12897 0.57756 0.0
C1175 C 0.86996 0.10517 0.59137 0.0
C1176 C 0.859 0.08694 0.55792 0.0
C1177 C 0.8653 0.09229 0.51222 0.0
C1178 C 0.85166 0.15366 0.34893 0.0
C1179 C 0.89273 0.20009 0.44219 0.0
O1180 O 0.88642 0.21825 0.29747 0.0
O1181 O 0.92492 0.23021 0.28829 0.0
O1182 O 0.93896 0.21745 0.37384 0.0
O1183 O 0.92488 0.18116 0.35138 0.0
O1184 O 0.89293 0.17113 0.27994 0.0
O1185 O 0.89578 0.14003 0.31542 0.0
O1186 O 0.90887 0.14123 0.43814 0.0
O1187 O 0.87058 0.11632 0.42183 0.0
O1188 O 0.85299 0.13377 0.35091 0.0
O1189 O 0.86939 0.17066 0.36959 0.0
O1190 O 0.89336 0.17936 0.44316 0.0
O1191 O 0.894 0.21125 0.40363 0.0
H1192 H 0.87256 0.19374 0.22014 0.0
H1193 H 0.86813 0.19331 0.13785 0.0
H1194 H 0.92905 0.26726 0.13169 0.0
H1195 H 0.9331 0.26766 0.21402 0.0
H1196 H 0.90731 0.15287 0.52232 0.0
H1197 H 0.89599 0.14365 0.60203 0.0
H1198 H 0.84537 0.06842 0.5671 0.0
H1199 H 0.85639 0.07778 0.48752 0.0
Nd1200 Nd 0.25677 0.15939 0.87975 0.0
Nd1201 Nd 0.29846 0.20696 0.82303 0.0
C1202 C 0.22697 0.13189 0.94549 0.0
C1203 C 0.22924 0.12768 0.99448 0.0
C1204 C 0.20908 0.11985 1.02356 0.0
C1205 C 0.21054 0.11427 0.06912 0.0
C1206 C 0.23217 0.11615 0.08665 0.0
C1207 C 0.25259 0.12479 0.05776 0.0
C1208 C 0.25116 0.13049 1.01238 0.0
C1209 C 0.29499 0.1566 0.84338 0.0
C1210 C 0.30586 0.20619 0.93224 0.0
C1211 C 0.33263 0.23034 0.76109 0.0
C1212 C 0.333 0.2327 0.71108 0.0
C1213 C 0.34555 0.2237 0.68544 0.0
C1214 C 0.34445 0.22331 0.63824 0.0
C1215 C 0.3311 0.23233 0.61535 0.0
C1216 C 0.31909 0.24201 0.64081 0.0
C1217 C 0.31981 0.24197 0.68824 0.0
C1218 C 0.25724 0.21066 0.83731 0.0
C1219 C 0.25196 0.15918 0.77036 0.0
O1220 O 0.22957 0.15312 0.93381 0.0
O1221 O 0.23756 0.12424 0.91703 0.0
O1222 O 0.27312 0.13764 0.84687 0.0
O1223 O 0.29583 0.17509 0.86121 0.0
O1224 O 0.2845 0.18538 0.93357 0.0
O1225 O 0.31578 0.21805 0.89393 0.0
O1226 O 0.32591 0.20836 0.77554 0.0
O1227 O 0.32366 0.24133 0.78572 0.0
O1228 O 0.2767 0.22731 0.81704 0.0
O1229 O 0.26067 0.19353 0.84975 0.0
O1230 O 0.27456 0.17805 0.77049 0.0
O1231 O 0.23909 0.14989 0.80818 0.0
H1232 H 0.19198 0.1176 1.01079 0.0
H1233 H 0.19451 0.10777 0.0903 0.0
H1234 H 0.26973 0.12702 0.07024 0.0
H1235 H 0.26713 0.13676 0.99108 0.0
H1236 H 0.35596 0.21657 0.70207 0.0
H1237 H 0.35417 0.21607 0.61956 0.0
H1238 H 0.30871 0.24913 0.62398 0.0
H1239 H 0.30977 0.24885 0.70691 0.0
Nd1240 Nd 0.8311 0.09425 0.88581 0.0
Nd1241 Nd 0.78441 0.0891 0.82702 0.0
C1242 C 0.85725 0.09055 0.95259 0.0
C1243 C 0.86121 0.09732 1.00141 0.0
C1244 C 0.86857 0.08495 0.03147 0.0
C1245 C 0.87376 0.0922 0.077 0.0
C1246 C 0.87194 0.11216 0.09346 0.0
C1247 C 0.86377 0.12398 0.06356 0.0
C1248 C 0.85845 0.11665 1.01823 0.0
C1249 C 0.83456 0.13603 0.85112 0.0
C1250 C 0.78347 0.09529 0.93694 0.0
C1251 C 0.76203 0.10056 0.76395 0.0
C1252 C 0.75801 0.09673 0.71453 0.0
C1253 C 0.76095 0.11626 0.68734 0.0
C1254 C 0.76013 0.11432 0.64015 0.0
C1255 C 0.75643 0.09278 0.6188 0.0
C1256 C 0.75298 0.07302 0.64622 0.0
C1257 C 0.75396 0.07504 0.69352 0.0
C1258 C 0.78086 0.04407 0.83954 0.0
C1259 C 0.83249 0.09019 0.77647 0.0
O1260 O 0.83565 0.07257 0.9407 0.0
O1261 O 0.86596 0.1087 0.92371 0.0
O1262 O 0.85345 0.13319 0.85668 0.0
O1263 O 0.81567 0.11801 0.86717 0.0
O1264 O 0.80427 0.09478 0.93869 0.0
O1265 O 0.77234 0.09433 0.89809 0.0
O1266 O 0.78486 0.11454 0.77559 0.0
O1267 O 0.75022 0.08174 0.79114 0.0
O1268 O 0.76436 0.04698 0.81884 0.0
O1269 O 0.79761 0.06451 0.85325 0.0
O1270 O 0.81384 0.09423 0.77571 0.0
O1271 O 0.84132 0.08639 0.81471 0.0
H1272 H 0.87074 0.06992 1.01952 0.0
H1273 H 0.87992 0.08266 0.09902 0.0
H1274 H 0.86168 0.13911 0.07522 0.0
H1275 H 0.85252 0.12635 0.99611 0.0
H1276 H 0.76456 0.13336 0.70266 0.0
H1277 H 0.76305 0.12998 0.62031 0.0
H1278 H 0.74957 0.05596 0.63116 0.0
H1279 H 0.75201 0.05981 0.71359 0.0
Nd1280 Nd 0.89362 0.73711 0.88303 0.0
Nd1281 Nd 0.90174 0.69941 0.82863 0.0
C1282 C 0.8931 0.76712 0.9458 0.0
C1283 C 0.88823 0.76679 0.99538 0.0
C1284 C 0.90618 0.7713 1.02835 0.0
C1285 C 0.90064 0.76989 0.07476 0.0
C1286 C 0.87705 0.76388 0.08914 0.0
C1287 C 0.85953 0.7604 0.05624 0.0
C1288 C 0.86505 0.76196 1.01018 0.0
C1289 C 0.85276 0.69833 0.84568 0.0
C1290 C 0.89464 0.69137 0.93828 0.0
C1291 C 0.89941 0.66569 0.77259 0.0
C1292 C 0.89895 0.66474 0.72205 0.0
C1293 C 0.88039 0.66593 0.69765 0.0
C1294 C 0.8797 0.66505 0.6504 0.0
C1295 C 0.89792 0.66357 0.62562 0.0
C1296 C 0.91655 0.6624 0.64997 0.0
C1297 C 0.91703 0.66293 0.69752 0.0
C1298 C 0.94277 0.74541 0.83865 0.0
C1299 C 0.89483 0.74035 0.77389 0.0
O1300 O 0.9132 0.76776 0.93243 0.0
O1301 O 0.87436 0.7529 0.92037 0.0
O1302 O 0.85621 0.72043 0.8465 0.0
O1303 O 0.87018 0.69782 0.86498 0.0
O1304 O 0.89114 0.71041 0.93887 0.0
O1305 O 0.89963 0.68342 0.90034 0.0
O1306 O 0.88025 0.66457 0.79183 0.0
O1307 O 0.9199 0.68155 0.79247 0.0
O1308 O 0.93679 0.73252 0.80205 0.0
O1309 O 0.92707 0.73369 0.86876 0.0
O1310 O 0.88943 0.71728 0.77557 0.0
O1311 O 0.90121 0.75424 0.81087 0.0
H1312 H 0.92432 0.77535 1.01836 0.0
H1313 H 0.91444 0.77243 0.09932 0.0
H1314 H 0.84118 0.75568 0.06625 0.0
H1315 H 0.85087 0.75881 0.98603 0.0
H1316 H 0.86625 0.66756 0.71504 0.0
H1317 H 0.8646 0.66523 0.6334 0.0
H1318 H 0.93098 0.66133 0.63224 0.0
H1319 H 0.93162 0.66205 0.71511 0.0
Nd1320 Nd 0.81949 0.59002 0.16351 0.0
Nd1321 Nd 0.86576 0.6266 0.21596 0.0
C1322 C 0.7902 0.55999 0.09954 0.0
C1323 C 0.78595 0.56212 0.0507 0.0
C1324 C 0.77345 0.54105 1.0237 0.0
C1325 C 0.76851 0.54287 0.97794 0.0
C1326 C 0.77595 0.56583 0.95813 0.0
C1327 C 0.78887 0.58691 0.98522 0.0
C1328 C 0.79385 0.58509 1.0308 0.0
C1329 C 0.81777 0.6286 0.20143 0.0
C1330 C 0.86664 0.63745 0.10966 0.0
C1331 C 0.89619 0.65457 0.28066 0.0
C1332 C 0.89559 0.65596 0.33085 0.0
C1333 C 0.87559 0.65497 0.3538 0.0
C1334 C 0.87558 0.65649 0.40115 0.0
C1335 C 0.89544 0.65874 0.42678 0.0
C1336 C 0.91521 0.65934 0.40369 0.0
C1337 C 0.91532 0.65809 0.3564 0.0
C1338 C 0.86681 0.58659 0.18148 0.0
C1339 C 0.81718 0.58449 0.27186 0.0
O1340 O 0.81114 0.56177 0.11055 0.0
O1341 O 0.78378 0.57177 0.12766 0.0
O1342 O 0.79858 0.60699 0.19704 0.0
O1343 O 0.83583 0.62938 0.18187 0.0
O1344 O 0.84658 0.61553 0.10789 0.0
O1345 O 0.8771 0.64746 0.14873 0.0
O1346 O 0.88227 0.6605 0.25751 0.0
O1347 O 0.89649 0.63561 0.26365 0.0
O1348 O 0.88476 0.60904 0.17895 0.0
O1349 O 0.84864 0.586 0.20066 0.0
O1350 O 0.83675 0.60654 0.27079 0.0
O1351 O 0.80752 0.57176 0.2342 0.0
H1352 H 0.76714 0.52312 0.03821 0.0
H1353 H 0.75825 0.52624 0.95846 0.0
H1354 H 0.79506 0.60492 0.97112 0.0
H1355 H 0.80365 0.60166 0.05068 0.0
H1356 H 0.85986 0.6528 0.33524 0.0
H1357 H 0.85977 0.65537 0.41775 0.0
H1358 H 0.9308 0.6611 0.42226 0.0
H1359 H 0.93092 0.65878 0.33971 0.0
Nd1360 Nd 0.40293 0.22507 0.16204 0.0
Nd1361 Nd 0.36732 0.23692 0.21091 0.0
C1362 C 0.43251 0.22292 0.10058 0.0
C1363 C 0.43158 0.21647 0.05168 0.0
C1364 C 0.42956 0.23072 1.01712 0.0
C1365 C 0.42833 0.22397 0.97147 0.0
C1366 C 0.42927 0.20289 0.95902 0.0
C1367 C 0.43171 0.18895 0.99367 0.0
C1368 C 0.43289 0.19566 0.03917 0.0
C1369 C 0.3621 0.18573 0.19734 0.0
C1370 C 0.35851 0.22835 0.1044 0.0
C1371 C 0.33815 0.23991 0.27208 0.0
C1372 C 0.33544 0.23705 0.32179 0.0
C1373 C 0.34243 0.2222 0.34543 0.0
C1374 C 0.34074 0.2205 0.39264 0.0
C1375 C 0.33168 0.23336 0.41736 0.0
C1376 C 0.32446 0.248 0.39338 0.0
C1377 C 0.32636 0.24985 0.34621 0.0
C1378 C 0.40853 0.27714 0.17763 0.0
C1379 C 0.40682 0.22754 0.27033 0.0
O1380 O 0.43263 0.24317 0.11109 0.0
O1381 O 0.41917 0.205 0.12832 0.0
O1382 O 0.38338 0.18722 0.19651 0.0
O1383 O 0.36306 0.20363 0.17694 0.0
O1384 O 0.37991 0.22911 0.10437 0.0
O1385 O 0.34776 0.22857 0.14255 0.0
O1386 O 0.3323 0.22018 0.24868 0.0
O1387 O 0.3581 0.25894 0.25726 0.0
O1388 O 0.38639 0.27336 0.1737 0.0
O1389 O 0.4083 0.2593 0.19771 0.0
O1390 O 0.38566 0.22697 0.2679 0.0
O1391 O 0.41985 0.23002 0.23349 0.0
H1392 H 0.42864 0.24696 1.02531 0.0
H1393 H 0.42598 0.23492 0.94602 0.0
H1394 H 0.43262 0.17268 0.9856 0.0
H1395 H 0.43469 0.18439 0.06476 0.0
H1396 H 0.34952 0.21214 0.32749 0.0
H1397 H 0.34708 0.20954 0.40979 0.0
H1398 H 0.31728 0.25806 0.41113 0.0
H1399 H 0.32085 0.26141 0.32878 0.0
Nd1400 Nd 0.76308 0.17052 0.16536 0.0
Nd1401 Nd 0.75617 0.1256 0.2198 0.0
C1402 C 0.7644 0.20194 0.10355 0.0
C1403 C 0.76851 0.2063 0.05407 0.0
C1404 C 0.76265 0.18714 1.02336 0.0
C1405 C 0.76892 0.19207 0.97742 0.0
C1406 C 0.78145 0.21632 0.96129 0.0
C1407 C 0.78671 0.23538 0.99198 0.0
C1408 C 0.78035 0.23042 0.0377 0.0
C1409 C 0.80483 0.17394 0.2016 0.0
C1410 C 0.75951 0.12271 0.11005 0.0
C1411 C 0.75872 0.09358 0.2738 0.0
C1412 C 0.75741 0.09078 0.32396 0.0
C1413 C 0.77895 0.09775 0.34879 0.0
C1414 C 0.77872 0.0974 0.39609 0.0
C1415 C 0.75682 0.0896 0.42015 0.0
C1416 C 0.7352 0.08237 0.3953 0.0
C1417 C 0.73548 0.08297 0.34787 0.0
C1418 C 0.71493 0.13024 0.21445 0.0
C1419 C 0.76293 0.17314 0.27495 0.0
O1420 O 0.74404 0.18298 0.11761 0.0
O1421 O 0.78332 0.20523 0.12696 0.0
O1422 O 0.80071 0.19211 0.20005 0.0
O1423 O 0.78756 0.15552 0.18271 0.0
O1424 O 0.76252 0.14503 0.10864 0.0
O1425 O 0.75662 0.11086 0.14858 0.0
O1426 O 0.77789 0.1133 0.25876 0.0
O1427 O 0.73872 0.08853 0.25153 0.0
O1428 O 0.72231 0.12412 0.25026 0.0
O1429 O 0.7295 0.13389 0.18223 0.0
O1430 O 0.76887 0.15588 0.27257 0.0
O1431 O 0.75605 0.18036 0.23813 0.0
H1432 H 0.75379 0.16847 0.03518 0.0
H1433 H 0.76479 0.17699 0.95483 0.0
H1434 H 0.79613 0.25424 0.9807 0.0
H1435 H 0.78522 0.24557 0.0606 0.0
H1436 H 0.79621 0.10406 0.33156 0.0
H1437 H 0.79589 0.10384 0.41376 0.0
H1438 H 0.71799 0.07623 0.41258 0.0
H1439 H 0.71855 0.07764 0.33004 0.0
C1440 C 0.10756 0.42879 0.08282 0.0
C1441 C 0.11452 0.42489 0.04017 0.0
C1442 C 0.09715 0.4437 0.08808 0.0
C1443 C 0.09255 0.4546 0.0506 0.0
H1444 H 0.10899 0.41921 0.11199 0.0
H1445 H 0.09114 0.44528 0.12151 0.0
S1446 S 0.10985 0.45182 0.93212 0.0
N1447 N 0.11841 0.43476 0.96034 0.0
N1448 N 0.09812 0.46232 0.96986 0.0
C1449 C 0.10102 0.45217 1.0081 0.0
C1450 C 0.11209 0.43731 1.00295 0.0
C1451 C 0.55282 0.66757 0.97868 0.0
C1452 C 0.56114 0.68521 1.01325 0.0
C1453 C 0.5369 0.64273 0.98782 0.0
C1454 C 0.52929 0.63463 0.03217 0.0
H1455 H 0.56003 0.67279 0.9448 0.0
H1456 H 0.53241 0.62967 0.96064 0.0
S1457 S 0.54307 0.67409 0.13341 0.0
N1458 N 0.5583 0.69343 0.09226 0.0
N1459 N 0.52858 0.64664 0.10996 0.0
C1460 C 0.53563 0.65241 0.06627 0.0
C1461 C 0.55159 0.67778 0.05671 0.0
C1462 C 0.34334 0.89517 0.99745 0.0
C1463 C 0.35484 0.89969 0.03986 0.0
C1464 C 0.31773 0.88351 0.99408 0.0
C1465 C 0.30299 0.87596 0.03293 0.0
H1466 H 0.35414 0.90234 0.96706 0.0
H1467 H 0.30954 0.88203 0.96122 0.0
S1468 S 0.32376 0.87963 0.15083 0.0
N1469 N 0.34923 0.89246 0.12086 0.0
N1470 N 0.30121 0.8711 0.11412 0.0
C1471 C 0.31406 0.87842 0.07495 0.0
C1472 C 0.34002 0.89007 0.07848 0.0
C1473 C 0.44693 0.10612 0.64936 0.0
C1474 C 0.45354 0.09526 0.68417 0.0
C1475 C 0.43115 0.11538 0.65755 0.0
C1476 C 0.42135 0.11376 0.70069 0.0
H1477 H 0.45252 0.10583 0.61492 0.0
H1478 H 0.42493 0.12178 0.62934 0.0
S1479 S 0.43655 0.09162 0.80485 0.0
N1480 N 0.45213 0.08728 0.76477 0.0
N1481 N 0.42194 0.10395 0.77969 0.0
C1482 C 0.42967 0.10522 0.73646 0.0
C1483 C 0.44602 0.09622 0.72836 0.0
C1484 C 0.89573 0.3464 0.66063 0.0
C1485 C 0.9021 0.35661 0.70417 0.0
C1486 C 0.88283 0.3209 0.65437 0.0
C1487 C 0.8754 0.30496 0.69148 0.0
H1488 H 0.90256 0.35811 0.63119 0.0
H1489 H 0.88002 0.31365 0.62038 0.0
S1490 S 0.88579 0.3227 0.8122 0.0
N1491 N 0.89897 0.34903 0.78474 0.0
N1492 N 0.87382 0.30113 0.77316 0.0
C1493 C 0.88005 0.31502 0.73516 0.0
C1494 C 0.89368 0.34091 0.74147 0.0
C1495 C 0.64382 0.54603 0.72627 0.0
C1496 C 0.63489 0.54562 0.68276 0.0
C1497 C 0.66906 0.55635 0.73385 0.0
C1498 C 0.68599 0.56631 0.69807 0.0
H1499 H 0.63159 0.54053 0.75499 0.0
H1500 H 0.67547 0.5582 0.76834 0.0
S1501 S 0.67075 0.56476 0.57678 0.0
N1502 N 0.6441 0.55259 0.60285 0.0
N1503 N 0.69139 0.57129 0.61673 0.0
C1504 C 0.67685 0.5633 0.65386 0.0
C1505 C 0.65127 0.55318 0.64633 0.0
C1506 C 0.8815 0.55935 0.15217 0.0
C1507 C 0.87309 0.56733 0.18859 0.0
C1508 C 0.8942 0.54668 0.15955 0.0
C1509 C 0.89939 0.54224 0.20361 0.0
H1510 H 0.87967 0.56433 0.11799 0.0
H1511 H 0.90188 0.5423 0.13076 0.0
S1512 S 0.88005 0.55814 0.31007 0.0
N1513 N 0.86917 0.5683 0.27003 0.0
N1514 N 0.89399 0.54543 0.2838 0.0
C1515 C 0.88988 0.54888 0.24012 0.0
C1516 C 0.87645 0.56122 0.23262 0.0
C1517 C 0.43583 0.31887 0.14746 0.0
C1518 C 0.42823 0.30264 0.18418 0.0
C1519 C 0.44812 0.34431 0.15433 0.0
C1520 C 0.45257 0.3542 0.19817 0.0
H1521 H 0.43066 0.31185 0.11343 0.0
H1522 H 0.45205 0.35617 0.12532 0.0
S1523 S 0.43781 0.31954 0.30529 0.0
N1524 N 0.4278 0.29826 0.26567 0.0
N1525 N 0.44997 0.34604 0.2785 0.0
C1526 C 0.44646 0.33824 0.23496 0.0
C1527 C 0.43452 0.31241 0.22798 0.0
C1528 C 0.64809 0.10005 0.24428 0.0
C1529 C 0.63664 0.09383 0.20203 0.0
C1530 C 0.67359 0.11412 0.24777 0.0
C1531 C 0.68856 0.12184 0.20904 0.0
H1532 H 0.63737 0.09277 0.27476 0.0
H1533 H 0.68168 0.11744 0.28113 0.0
S1534 S 0.66688 0.11225 0.09042 0.0
N1535 N 0.64157 0.09821 0.12071 0.0
N1536 N 0.6897 0.12429 0.12705 0.0
C1537 C 0.67714 0.11729 0.16656 0.0
C1538 C 0.65108 0.10322 0.16311 0.0
C1539 C 0.55679 0.87604 0.48666 0.0
C1540 C 0.56633 0.87547 0.52934 0.0
C1541 C 0.54395 0.88867 0.48012 0.0
C1542 C 0.53975 0.90044 0.5163 0.0
H1543 H 0.56111 0.86856 0.45747 0.0
H1544 H 0.53866 0.89054 0.44621 0.0
S1545 S 0.55882 0.90212 0.63519 0.0
N1546 N 0.5694 0.88633 0.60851 0.0
N1547 N 0.54437 0.90914 0.5967 0.0
C1548 C 0.5475 0.89829 0.55967 0.0
C1549 C 0.56105 0.886 0.56608 0.0
C1550 C 0.09959 0.65711 0.57484 0.0
C1551 C 0.09204 0.63905 0.54114 0.0
C1552 C 0.11447 0.68199 0.56457 0.0
C1553 C 0.12177 0.68969 0.51992 0.0
H1554 H 0.09271 0.65205 0.60895 0.0
H1555 H 0.11851 0.69529 0.59115 0.0
S1556 S 0.10918 0.64931 0.42044 0.0
N1557 N 0.09489 0.63024 0.46247 0.0
N1558 N 0.12267 0.67707 0.44268 0.0
C1559 C 0.11599 0.67165 0.48661 0.0
C1560 C 0.1011 0.64626 0.49732 0.0
C1561 C 0.34176 0.44479 0.4942 0.0
C1562 C 0.3496 0.445 0.53856 0.0
C1563 C 0.31672 0.43444 0.48438 0.0
C1564 C 0.29892 0.42426 0.51872 0.0
H1565 H 0.35472 0.45061 0.4666 0.0
H1566 H 0.31117 0.43283 0.44935 0.0
S1567 S 0.31115 0.42509 0.64137 0.0
N1568 N 0.33843 0.43746 0.61763 0.0
N1569 N 0.29152 0.41874 0.5996 0.0
C1570 C 0.30696 0.42694 0.56371 0.0
C1571 C 0.33233 0.43707 0.5735 0.0
C1572 C 0.77487 0.76216 0.4126 0.0
C1573 C 0.78382 0.75962 0.37093 0.0
C1574 C 0.76132 0.7741 0.41575 0.0
C1575 C 0.75611 0.78373 0.37728 0.0
H1576 H 0.77632 0.75282 0.44214 0.0
H1577 H 0.75281 0.77366 0.44777 0.0
S1578 S 0.77816 0.7846 0.26131 0.0
N1579 N 0.78908 0.77007 0.29126 0.0
N1580 N 0.76326 0.79245 0.29724 0.0
C1581 C 0.76714 0.78365 0.33629 0.0
C1582 C 0.7811 0.7715 0.33308 0.0
C1583 C 0.21185 0.98221 0.39063 0.0
C1584 C 0.20638 0.97184 0.34716 0.0
C1585 C 0.2246 0.00772 0.3966 0.0
C1586 C 0.23169 0.02357 0.35936 0.0
H1587 H 0.20808 0.97061 0.41997 0.0
H1588 H 0.2303 0.01508 0.4303 0.0
S1589 S 0.21992 0.00541 0.23894 0.0
N1590 N 0.20783 0.97917 0.26662 0.0
N1591 N 0.23091 0.02712 0.2778 0.0
C1592 C 0.22468 0.01336 0.31597 0.0
C1593 C 0.21223 0.98743 0.30987 0.0
C1594 C 0.97815 0.21017 0.32173 0.0
C1595 C 0.96799 0.20454 0.36532 0.0
C1596 C 0.00359 0.22335 0.31551 0.0
C1597 C 0.01955 0.23069 0.35261 0.0
H1598 H 0.96639 0.20633 0.29256 0.0
H1599 H 0.01076 0.22925 0.2818 0.0
S1600 S 0.00202 0.21833 0.47312 0.0
N1601 N 0.97567 0.20589 0.44572 0.0
N1602 N 0.02354 0.22976 0.43405 0.0
C1603 C 0.00961 0.22338 0.39605 0.0
C1604 C 0.98374 0.2105 0.40241 0.0
C1605 C 0.22805 0.22322 0.81085 0.0
C1606 C 0.23578 0.21346 0.8456 0.0
C1607 C 0.21275 0.23287 0.81973 0.0
C1608 C 0.20523 0.2337 0.86398 0.0
H1609 H 0.23511 0.22478 0.77696 0.0
H1610 H 0.20855 0.24157 0.79236 0.0
S1611 S 0.21796 0.20762 0.9658 0.0
N1612 N 0.23269 0.20269 0.92482 0.0
N1613 N 0.20423 0.22125 0.94203 0.0
C1614 C 0.21118 0.22213 0.89838 0.0
C1615 C 0.22645 0.21191 0.88908 0.0
C1616 C 0.77676 0.01131 0.89184 0.0
C1617 C 0.77816 0.01983 0.84761 0.0
C1618 C 0.76627 0.98612 0.90049 0.0
C1619 C 0.75712 0.9688 0.86515 0.0
H1620 H 0.78175 0.02386 0.92004 0.0
H1621 H 0.76378 0.98007 0.93528 0.0
S1622 S 0.76111 0.98283 0.74284 0.0
N1623 N 0.77271 0.00976 0.76789 0.0
N1624 N 0.75378 0.9626 0.78381 0.0
C1625 C 0.76095 0.97752 0.82053 0.0
C1626 C 0.77121 0.00304 0.81188 0.0
C1627 C 0.00272 0.77347 0.9009 0.0
C1628 C 0.0198 0.78272 0.86551 0.0
C1629 C 0.97768 0.76383 0.8928 0.0
C1630 C 0.96887 0.76254 0.84873 0.0
H1631 H 0.00857 0.77216 0.93468 0.0
H1632 H 0.96508 0.75538 0.92062 0.0
S1633 S 0.00659 0.78763 0.74554 0.0
N1634 N 0.02667 0.79279 0.78595 0.0
N1635 N 0.9795 0.77438 0.77022 0.0
C1636 C 0.98603 0.77385 0.81375 0.0
C1637 C 0.01159 0.784 0.82223 0.0
C1638 C 0.02281 0.45599 0.86862 0.0
C1639 C 0.01017 0.45024 0.91013 0.0
C1640 C 0.01031 0.44906 0.82699 0.0
C1641 C 0.98457 0.43653 0.82493 0.0
H1642 H 0.04262 0.46641 0.86821 0.0
H1643 H 0.02095 0.45455 0.79618 0.0
S1644 S 0.9427 0.41678 0.92381 0.0
N1645 N 0.97036 0.43065 0.94634 0.0
N1646 N 0.94687 0.41801 0.86867 0.0
C1647 C 0.9717 0.43017 0.86629 0.0
C1648 C 0.98446 0.43689 0.90865 0.0
C1649 C 0.5556 0.57111 0.88145 0.0
C1650 C 0.53421 0.55335 0.90353 0.0
C1651 C 0.56236 0.56646 0.83848 0.0
C1652 C 0.54823 0.54372 0.81659 0.0
H1653 H 0.56685 0.58885 0.89698 0.0
H1654 H 0.57894 0.58053 0.82274 0.0
S1655 S 0.49086 0.49107 0.86033 0.0
N1656 N 0.49911 0.51222 0.89984 0.0
N1657 N 0.51195 0.50339 0.82069 0.0
C1658 C 0.52701 0.52588 0.8387 0.0
C1659 C 0.51997 0.53071 0.88165 0.0
C1660 C 0.44194 0.01017 0.89384 0.0
C1661 C 0.42931 0.9844 0.89549 0.0
C1662 C 0.44889 0.02283 0.85229 0.0
C1663 C 0.44311 0.01034 0.81051 0.0
H1664 H 0.44771 0.02066 0.92485 0.0
H1665 H 0.45944 0.04264 0.85295 0.0
S1666 S 0.40852 0.94288 0.79595 0.0
N1667 N 0.41007 0.94687 0.85119 0.0
N1668 N 0.42276 0.9706 0.77379 0.0
C1669 C 0.42934 0.98462 0.81169 0.0
C1670 C 0.4226 0.97172 0.8539 0.0
C1671 C 0.97276 0.54136 0.36605 0.0
C1672 C 0.98533 0.54802 0.32446 0.0
C1673 C 0.98534 0.54758 0.4076 0.0
C1674 C 0.01108 0.56037 0.40946 0.0
H1675 H 0.95295 0.53081 0.36658 0.0
H1676 H 0.97477 0.54142 0.43843 0.0
S1677 S 0.05282 0.58282 0.3105 0.0
N1678 N 0.02514 0.5689 0.28812 0.0
N1679 N 0.04872 0.58035 0.36567 0.0
C1680 C 0.02388 0.56767 0.36813 0.0
C1681 C 0.01106 0.5616 0.32587 0.0
C1682 C 0.45198 0.42693 0.36488 0.0
C1683 C 0.44438 0.43202 0.32345 0.0
C1684 C 0.44492 0.43228 0.40655 0.0
C1685 C 0.43036 0.44339 0.40853 0.0
H1686 H 0.46379 0.41906 0.3652 0.0
H1687 H 0.45179 0.42863 0.43735 0.0
S1688 S 0.40515 0.46008 0.31009 0.0
N1689 N 0.42088 0.44833 0.28749 0.0
N1690 N 0.40793 0.45854 0.3652 0.0
C1691 C 0.42225 0.44812 0.36738 0.0
C1692 C 0.42916 0.4424 0.32509 0.0
C1693 C 0.56675 0.00177 0.32837 0.0
C1694 C 0.55091 0.00811 0.30634 0.0
C1695 C 0.56052 0.98973 0.37061 0.0
C1696 C 0.53803 0.9832 0.39153 0.0
H1697 H 0.58426 0.00666 0.31343 0.0
H1698 H 0.57318 0.98522 0.38668 0.0
S1699 S 0.49024 0.99558 0.34752 0.0
N1700 N 0.51197 0.00712 0.30888 0.0
N1701 N 0.50004 0.984 0.3869 0.0
C1702 C 0.52203 0.98922 0.36944 0.0
C1703 C 0.52854 0.00182 0.32723 0.0
C1704 C 0.66362 0.75799 0.21335 0.0
C1705 C 0.67417 0.78224 0.22944 0.0
C1706 C 0.6516 0.75116 0.17097 0.0
C1707 C 0.64933 0.76826 0.14381 0.0
H1708 H 0.66483 0.74429 0.23341 0.0
H1709 H 0.64355 0.73232 0.15994 0.0
S1710 S 0.67226 0.8335 0.17167 0.0
N1711 N 0.6808 0.82305 0.21496 0.0
N1712 N 0.65786 0.81011 0.1368 0.0
C1713 C 0.65951 0.79237 0.15988 0.0
C1714 C 0.67202 0.79939 0.20225 0.0
C1715 C 0.20676 0.88784 0.14239 0.0
C1716 C 0.22248 0.87807 0.14073 0.0
C1717 C 0.20026 0.89403 0.18377 0.0
C1718 C 0.20951 0.89112 0.22532 0.0
H1719 H 0.1986 0.88981 0.11165 0.0
H1720 H 0.18748 0.90076 0.1831 0.0
S1721 S 0.25323 0.86835 0.23897 0.0
N1722 N 0.24837 0.86719 0.18404 0.0
N1723 N 0.23651 0.87904 0.26138 0.0
C1724 C 0.2261 0.88233 0.22384 0.0
C1725 C 0.23245 0.87574 0.18176 0.0
C1726 C 0.10996 0.33891 0.22869 0.0
C1727 C 0.09869 0.31318 0.22941 0.0
C1728 C 0.1163 0.352 0.18777 0.0
C1729 C 0.11124 0.33994 0.14574 0.0
H1730 H 0.11474 0.34915 0.26 0.0
H1731 H 0.12555 0.37181 0.18916 0.0
S1732 S 0.08135 0.27271 0.12865 0.0
N1733 N 0.08229 0.27611 0.18397 0.0
N1734 N 0.09386 0.30062 0.10757 0.0
C1735 C 0.09935 0.31419 0.14593 0.0
C1736 C 0.0932 0.30087 0.18755 0.0
C1737 C 0.67472 0.88597 0.64858 0.0
C1738 C 0.64948 0.87754 0.64576 0.0
C1739 C 0.68697 0.8916 0.69052 0.0
C1740 C 0.67467 0.88951 0.73157 0.0
H1741 H 0.68493 0.88725 0.61836 0.0
H1742 H 0.70625 0.89726 0.69073 0.0
S1743 S 0.60886 0.87028 0.74222 0.0
N1744 N 0.61287 0.86876 0.68751 0.0
N1745 N 0.63584 0.87965 0.76583 0.0
C1746 C 0.64963 0.88214 0.72892 0.0
C1747 C 0.63709 0.87605 0.68626 0.0
C1748 C 0.10105 0.77883 0.64764 0.0
C1749 C 0.11165 0.76386 0.64562 0.0
C1750 C 0.09447 0.78478 0.68919 0.0
C1751 C 0.09788 0.77575 0.73066 0.0
H1752 H 0.09895 0.78705 0.6171 0.0
H1753 H 0.08728 0.79717 0.68876 0.0
S1754 S 0.12214 0.73319 0.74292 0.0
N1755 N 0.12315 0.73826 0.68807 0.0
N1756 N 0.11086 0.74929 0.76594 0.0
C1757 C 0.10719 0.7596 0.72869 0.0
C1758 C 0.1141 0.75376 0.68634 0.0
C1759 C 0.22267 0.34115 0.72926 0.0
C1760 C 0.20942 0.31544 0.73194 0.0
C1761 C 0.22832 0.35328 0.68718 0.0
C1762 C 0.22151 0.34026 0.6459 0.0
H1763 H 0.2276 0.35202 0.75983 0.0
H1764 H 0.23763 0.3731 0.68703 0.0
S1765 S 0.18772 0.27267 0.63415 0.0
N1766 N 0.19045 0.27735 0.68921 0.0
N1767 N 0.2015 0.30012 0.61082 0.0
C1768 C 0.20924 0.31458 0.64814 0.0
C1769 C 0.20308 0.30222 0.69088 0.0
C1770 C 0.35028 0.12143 0.52579 0.0
C1771 C 0.33765 0.11231 0.56691 0.0
C1772 C 0.33792 0.11614 0.48415 0.0
C1773 C 0.31228 0.10178 0.48167 0.0
H1774 H 0.36997 0.1332 0.52567 0.0
H1775 H 0.34853 0.12417 0.45384 0.0
S1776 S 0.2705 0.07164 0.57839 0.0
N1777 N 0.29791 0.08676 0.60169 0.0
N1778 N 0.27476 0.07706 0.52369 0.0
C1779 C 0.29944 0.09184 0.5222 0.0
C1780 C 0.31207 0.09698 0.56464 0.0
C1781 C 0.89249 0.20135 0.52736 0.0
C1782 C 0.88861 0.20967 0.48561 0.0
C1783 C 0.88673 0.2083 0.56868 0.0
C1784 C 0.87642 0.22359 0.57011 0.0
H1785 H 0.89971 0.18898 0.52822 0.0
H1786 H 0.88945 0.20082 0.59962 0.0
S1787 S 0.86404 0.25185 0.47107 0.0
N1788 N 0.875 0.2353 0.44896 0.0
N1789 N 0.86391 0.24801 0.52619 0.0
C1790 C 0.87311 0.23264 0.52881 0.0
C1791 C 0.87929 0.22583 0.48678 0.0
C1792 C 0.77633 0.6758 0.56438 0.0
C1793 C 0.7641 0.65006 0.56631 0.0
C1794 C 0.78327 0.6883 0.52271 0.0
C1795 C 0.77788 0.67561 0.4812 0.0
H1796 H 0.78162 0.6864 0.59529 0.0
H1797 H 0.79333 0.70812 0.52312 0.0
S1798 S 0.74467 0.60798 0.46775 0.0
N1799 N 0.74587 0.61229 0.52284 0.0
N1800 N 0.75852 0.6356 0.44518 0.0
C1801 C 0.76472 0.64984 0.48276 0.0
C1802 C 0.75797 0.63716 0.52506 0.0
C1803 C 0.30727 0.20695 1.01718 0.0
C1804 C 0.3198 0.21472 0.97567 0.0
C1805 C 0.31986 0.21228 0.05861 0.0
C1806 C 0.3456 0.22525 0.06045 0.0
H1807 H 0.28747 0.19622 1.01775 0.0
H1808 H 0.3093 0.20535 0.08931 0.0
S1809 S 0.38724 0.25082 0.96202 0.0
N1810 N 0.35959 0.23706 0.93954 0.0
N1811 N 0.38318 0.24677 1.01706 0.0
C1812 C 0.35837 0.23365 1.01936 0.0
C1813 C 0.34553 0.22853 0.97717 0.0
C1814 C 0.78412 0.09664 1.02208 0.0
C1815 C 0.77407 0.09913 0.98102 0.0
C1816 C 0.77814 0.10283 0.06394 0.0
C1817 C 0.76202 0.11204 0.06678 0.0
H1818 H 0.79733 0.09046 1.02198 0.0
H1819 H 0.78719 0.10154 0.09405 0.0
S1820 S 0.72816 0.11931 0.9712 0.0
N1821 N 0.7453 0.10952 0.9472 0.0
N1822 N 0.73413 0.12102 1.02578 0.0
C1823 C 0.75086 0.11348 1.0266 0.0
C1824 C 0.7568 0.10702 0.98387 0.0
C1825 C 0.87791 0.65205 0.98309 0.0
C1826 C 0.89071 0.67782 0.98186 0.0
C1827 C 0.87066 0.63917 1.02443 0.0
C1828 C 0.87635 0.65148 0.06641 0.0
H1829 H 0.87242 0.64172 0.95187 0.0
H1830 H 0.86015 0.61936 1.02337 0.0
S1831 S 0.91079 0.71896 0.08177 0.0
N1832 N 0.90947 0.71516 1.02651 0.0
N1833 N 0.89646 0.69117 0.10355 0.0
C1834 C 0.88997 0.67725 0.06553 0.0
C1835 C 0.89695 0.69033 1.02354 0.0
C1836 C 0.0998 0.55545 0.66929 0.0
C1837 C 0.0872 0.56827 0.66108 0.0
C1838 C 0.10377 0.55003 0.7139 0.0
C1839 C 0.09521 0.55716 0.75175 0.0
H1840 H 0.10518 0.54819 0.64122 0.0
H1841 H 0.11247 0.53912 0.7187 0.0
S1842 S 0.06575 0.59533 0.74859 0.0
N1843 N 0.06949 0.59092 0.69499 0.0
N1844 N 0.07685 0.58076 0.77771 0.0
C1845 C 0.08431 0.57153 0.74379 0.0
C1846 C 0.08039 0.57708 0.69884 0.0
C1847 C 0.4332 0.54347 0.71172 0.0
C1848 C 0.42738 0.52776 0.74936 0.0
C1849 C 0.42832 0.53418 0.66702 0.0
C1850 C 0.41732 0.50885 0.65857 0.0
H1851 H 0.44272 0.56311 0.71673 0.0
H1852 H 0.43462 0.54695 0.63909 0.0
S1853 S 0.39428 0.45991 0.74555 0.0
N1854 N 0.40704 0.48558 0.77491 0.0
N1855 N 0.39772 0.46823 0.69208 0.0
C1856 C 0.40973 0.49303 0.69618 0.0
C1857 C 0.41481 0.50243 0.74118 0.0
C1858 C 0.47984 0.919 0.72815 0.0
C1859 C 0.4549 0.90326 0.73753 0.0
C1860 C 0.48901 0.92252 0.68401 0.0
C1861 C 0.47377 0.91056 0.64655 0.0
H1862 H 0.49251 0.92893 0.75525 0.0
H1863 H 0.50834 0.93527 0.67928 0.0
S1864 S 0.40696 0.86717 0.6523 0.0
N1865 N 0.415 0.87519 0.7054 0.0
N1866 N 0.43231 0.88186 0.62229 0.0
C1867 C 0.44888 0.89414 0.65539 0.0
C1868 C 0.43946 0.89051 0.70075 0.0
C1869 C 0.54556 0.1013 1.00366 0.0
C1870 C 0.5584 0.09843 0.96737 0.0
C1871 C 0.55019 0.09763 0.0489 0.0
C1872 C 0.56726 0.09018 0.05934 0.0
H1873 H 0.53142 0.10583 0.99694 0.0
H1874 H 0.53915 0.09897 0.07545 0.0
S1875 S 0.60771 0.08292 0.97781 0.0
N1876 N 0.59073 0.09016 0.94611 0.0
N1877 N 0.59863 0.08241 1.0302 0.0
C1878 C 0.58102 0.08851 1.02366 0.0
C1879 C 0.57678 0.09279 0.97799 0.0
C1880 C 0.90493 0.44782 1.01477 0.0
C1881 C 0.90401 0.46253 0.9797 0.0
C1882 C 0.90812 0.4555 0.06037 0.0
C1883 C 0.91051 0.47817 0.07258 0.0
H1884 H 0.90422 0.43073 1.00673 0.0
H1885 H 0.91007 0.44426 0.08582 0.0
S1886 S 0.90567 0.52176 0.9954 0.0
N1887 N 0.90273 0.4995 0.96194 0.0
N1888 N 0.90959 0.51413 0.0467 0.0
C1889 C 0.90843 0.49239 0.03828 0.0
C1890 C 0.90495 0.48454 0.99219 0.0
C1891 C 0.53388 0.43495 0.05306 0.0
C1892 C 0.51349 0.43728 0.06502 0.0
C1893 C 0.54316 0.43939 1.00829 0.0
C1894 C 0.53248 0.4464 0.97363 0.0
H1895 H 0.54249 0.42926 0.07819 0.0
H1896 H 0.55849 0.43684 1.00056 0.0
S1897 S 0.48097 0.45829 0.98741 0.0
N1898 N 0.48413 0.44887 0.03752 0.0
N1899 N 0.50213 0.45787 0.95563 0.0
C1900 C 0.51283 0.44973 0.98555 0.0
C1901 C 0.50323 0.44501 1.03047 0.0
C1902 C 0.90163 0.45295 0.51487 0.0
C1903 C 0.9036 0.43924 0.4791 0.0
C1904 C 0.90475 0.44822 0.56034 0.0
C1905 C 0.90984 0.42953 0.5716 0.0
H1906 H 0.89873 0.46813 0.50755 0.0
H1907 H 0.90458 0.46013 0.58648 0.0
S1908 S 0.9128 0.38587 0.49165 0.0
N1909 N 0.90802 0.40431 0.45909 0.0
N1910 N 0.91418 0.39574 0.54377 0.0
C1911 C 0.91046 0.4149 0.5364 0.0
C1912 C 0.90727 0.41965 0.49043 0.0
C1913 C 0.57031 0.49807 0.52604 0.0
C1914 C 0.56359 0.48235 0.56376 0.0
C1915 C 0.5653 0.48906 0.48164 0.0
C1916 C 0.55328 0.46379 0.47242 0.0
H1917 H 0.57902 0.51771 0.53083 0.0
H1918 H 0.57066 0.5021 0.45421 0.0
S1919 S 0.53164 0.41456 0.55869 0.0
N1920 N 0.54436 0.44008 0.58865 0.0
N1921 N 0.53493 0.42303 0.5052 0.0
C1922 C 0.54705 0.44777 0.50968 0.0
C1923 C 0.55221 0.45705 0.55521 0.0
C1924 C 0.54893 0.09687 0.5037 0.0
C1925 C 0.53238 0.09078 0.46722 0.0
C1926 C 0.5408 0.09304 0.5491 0.0
C1927 C 0.51587 0.08321 0.55961 0.0
H1928 H 0.56813 0.10365 0.49705 0.0
H1929 H 0.55386 0.09653 0.57584 0.0
S1930 S 0.46572 0.06755 0.47732 0.0
N1931 N 0.4903 0.07686 0.44565 0.0
N1932 N 0.47518 0.06962 0.52993 0.0
C1933 C 0.49949 0.07837 0.52354 0.0
C1934 C 0.50767 0.08215 0.47772 0.0
C1935 C 0.44552 0.89513 0.2024 0.0
C1936 C 0.43683 0.90291 0.23919 0.0
C1937 C 0.4417 0.89973 0.15716 0.0
C1938 C 0.42894 0.91215 0.14717 0.0
H1939 H 0.45621 0.88633 0.20865 0.0
H1940 H 0.44982 0.89466 0.13011 0.0
S1941 S 0.39933 0.93302 0.23042 0.0
N1942 N 0.41253 0.9212 0.26161 0.0
N1943 N 0.40568 0.93 0.17763 0.0
C1944 C 0.4191 0.91879 0.18355 0.0
C1945 C 0.42294 0.91414 0.22919 0.0
C1946 C 0.09882 0.54643 0.16913 0.0
C1947 C 0.086 0.52107 0.16036 0.0
C1948 C 0.10296 0.5555 0.21399 0.0
C1949 C 0.09435 0.53951 0.25147 0.0
H1950 H 0.10427 0.55926 0.14137 0.0
H1951 H 0.11187 0.57509 0.21929 0.0
S1952 S 0.06404 0.47183 0.24641 0.0
N1953 N 0.06764 0.48039 0.19303 0.0
N1954 N 0.07561 0.49729 0.27625 0.0
C1955 C 0.08314 0.51427 0.24281 0.0
C1956 C 0.07894 0.50512 0.19762 0.0
C1957 C 0.48261 0.56271 0.19548 0.0
C1958 C 0.46726 0.55821 0.15771 0.0
C1959 C 0.47336 0.55692 0.23955 0.0
C1960 C 0.4482 0.5463 0.24849 0.0
H1961 H 0.50212 0.57029 0.19096 0.0
H1962 H 0.48615 0.56063 0.26692 0.0
S1963 S 0.39988 0.53073 0.16202 0.0
N1964 N 0.42548 0.54271 0.13246 0.0
N1965 N 0.40793 0.53174 0.21542 0.0
C1966 C 0.43259 0.54236 0.21128 0.0
C1967 C 0.44212 0.54835 0.16601 0.0
C1968 C 0.76653 0.89354 0.99859 0.0
C1969 C 0.74413 0.89272 0.98973 0.0
C1970 C 0.77275 0.88964 0.04277 0.0
C1971 C 0.75694 0.88503 0.07983 0.0
H1972 H 0.77916 0.89685 0.97123 0.0
H1973 H 0.7901 0.8904 0.04801 0.0
S1974 S 0.69573 0.87931 0.07561 0.0
N1975 N 0.7059 0.88609 1.02347 0.0
N1976 N 0.7177 0.8786 0.10431 0.0
C1977 C 0.73463 0.884 0.07139 0.0
C1978 C 0.72825 0.88793 1.0271 0.0
C1979 C 0.10585 0.87172 0.98943 0.0
C1980 C 0.09248 0.84639 0.98047 0.0
C1981 C 0.11072 0.88071 0.03436 0.0
C1982 C 0.1026 0.86469 0.07185 0.0
H1983 H 0.11369 0.88456 0.96178 0.0
H1984 H 0.12181 0.90026 0.03976 0.0
S1985 S 0.06406 0.79704 0.06642 0.0
N1986 N 0.06913 0.80571 1.01312 0.0
N1987 N 0.07837 0.82246 0.09636 0.0
C1988 C 0.08814 0.83949 0.06304 0.0
C1989 C 0.08308 0.83042 1.01776 0.0
C1990 C 0.11593 0.22797 0.99338 0.0
C1991 C 0.14119 0.24024 0.98403 0.0
C1992 C 0.10724 0.22369 0.03842 0.0
C1993 C 0.12353 0.23157 0.07551 0.0
H1994 H 0.10292 0.22311 0.96601 0.0
H1995 H 0.08775 0.21527 0.04424 0.0
S1996 S 0.19099 0.26019 0.06859 0.0
N1997 N 0.18203 0.25726 1.01549 0.0
N1998 N 0.16584 0.24901 0.09914 0.0
C1999 C 0.14864 0.2422 0.06619 0.0
C2000 C 0.1574 0.24655 1.02078 0.0
C2001 C 0.23386 0.4068 0.35711 0.0
C2002 C 0.22677 0.41551 0.3947 0.0
C2003 C 0.22985 0.41166 0.31268 0.0
C2004 C 0.21821 0.42524 0.30338 0.0
H2005 H 0.24202 0.39539 0.36205 0.0
H2006 H 0.23512 0.40388 0.28531 0.0
S2007 S 0.19679 0.45312 0.38935 0.0
N2008 N 0.20829 0.43922 0.41953 0.0
N2009 N 0.2005 0.44828 0.33586 0.0
C2010 C 0.21158 0.4347 0.34057 0.0
C2011 C 0.21603 0.42998 0.38615 0.0
C2012 C 0.57909 0.81605 0.3105 0.0
C2013 C 0.56454 0.79085 0.30158 0.0
C2014 C 0.5836 0.82526 0.35474 0.0
C2015 C 0.5737 0.80982 0.39271 0.0
H2016 H 0.58778 0.82882 0.28301 0.0
H2017 H 0.59557 0.84479 0.35913 0.0
S2018 S 0.53324 0.7424 0.38822 0.0
N2019 N 0.53928 0.75055 0.33469 0.0
N2020 N 0.54783 0.76793 0.41796 0.0
C2021 C 0.55838 0.78463 0.3844 0.0
C2022 C 0.55392 0.77515 0.339 0.0
C2023 C 0.16667 0.75885 0.35414 0.0
C2024 C 0.18245 0.76426 0.39156 0.0
C2025 C 0.17528 0.76282 0.30958 0.0
C2026 C 0.20025 0.77254 0.29965 0.0
H2027 H 0.14729 0.75186 0.35926 0.0
H2028 H 0.16221 0.75885 0.28262 0.0
S2029 S 0.24942 0.78916 0.38483 0.0
N2030 N 0.22437 0.77935 0.41546 0.0
N2031 N 0.24072 0.7867 0.33153 0.0
C2032 C 0.2163 0.77758 0.33662 0.0
C2033 C 0.20739 0.77334 0.38243 0.0
C2034 C 0.5825 0.75221 0.85479 0.0
C2035 C 0.57425 0.75984 0.89236 0.0
C2036 C 0.57829 0.75679 0.81026 0.0
C2037 C 0.56568 0.76941 0.80058 0.0
H2038 H 0.59294 0.74301 0.85973 0.0
H2039 H 0.58573 0.75102 0.78313 0.0
S2040 S 0.53915 0.79249 0.88628 0.0
N2041 N 0.55212 0.78009 0.91666 0.0
N2042 N 0.54391 0.78854 0.83289 0.0
C2043 C 0.55673 0.77666 0.83774 0.0
C2044 C 0.56096 0.77183 0.88346 0.0
C2045 C 0.21481 0.77636 0.83638 0.0
C2046 C 0.22469 0.7924 0.79923 0.0
C2047 C 0.2193 0.78521 0.88133 0.0
C2048 C 0.23332 0.81048 0.8906 0.0
H2049 H 0.20316 0.7569 0.8306 0.0
H2050 H 0.21053 0.77237 0.9087 0.0
S2051 S 0.26427 0.85989 0.80554 0.0
N2052 N 0.25006 0.83458 0.77526 0.0
N2053 N 0.25814 0.85113 0.85868 0.0
C2054 C 0.24389 0.82648 0.85369 0.0
C2055 C 0.23964 0.81749 0.80836 0.0
C2056 C 0.17351 0.41127 0.81378 0.0
C2057 C 0.19872 0.42251 0.80484 0.0
C2058 C 0.16457 0.40808 0.85803 0.0
C2059 C 0.18034 0.4159 0.89579 0.0
H2060 H 0.16044 0.40448 0.78624 0.0
H2061 H 0.14491 0.39867 0.86267 0.0
S2062 S 0.24802 0.44657 0.89118 0.0
N2063 N 0.23951 0.44197 0.83763 0.0
N2064 N 0.22259 0.43574 0.92104 0.0
C2065 C 0.20566 0.4279 0.88749 0.0
C2066 C 0.21486 0.43123 0.84205 0.0
C2067 C 0.08597 0.24627 0.51909 0.0
C2068 C 0.09602 0.24045 0.48189 0.0
C2069 C 0.09158 0.24335 0.56367 0.0
C2070 C 0.10748 0.23437 0.5734 0.0
H2071 H 0.0741 0.25385 0.51369 0.0
H2072 H 0.08361 0.24852 0.59086 0.0
S2073 S 0.13877 0.21636 0.48849 0.0
N2074 N 0.12258 0.22508 0.45785 0.0
N2075 N 0.13304 0.21936 0.5418 0.0
C2076 C 0.1171 0.2277 0.53661 0.0
C2077 C 0.11138 0.23076 0.4909 0.0
C2078 C 0.77045 0.87724 0.54338 0.0
C2079 C 0.75306 0.86789 0.57856 0.0
C2080 C 0.76447 0.86759 0.49888 0.0
C2081 C 0.74084 0.84825 0.48784 0.0
H2082 H 0.78892 0.89172 0.55052 0.0
H2083 H 0.77854 0.8751 0.47322 0.0
S2084 S 0.68823 0.81916 0.56829 0.0
N2085 N 0.71114 0.83957 0.59903 0.0
N2086 N 0.69957 0.82138 0.51732 0.0
C2087 C 0.72321 0.83942 0.52316 0.0
C2088 C 0.72939 0.84922 0.56786 0.0
C2089 C 0.10675 0.87411 0.53297 0.0
C2090 C 0.12268 0.88315 0.57057 0.0
C2091 C 0.11567 0.87977 0.48813 0.0
C2092 C 0.14083 0.8948 0.47926 0.0
H2093 H 0.08737 0.86185 0.5382 0.0
H2094 H 0.10295 0.87139 0.46039 0.0
S2095 S 0.18964 0.92618 0.56548 0.0
N2096 N 0.16448 0.91006 0.59529 0.0
N2097 N 0.18109 0.92058 0.51212 0.0
C2098 C 0.15665 0.90493 0.51663 0.0
C2099 C 0.14765 0.89916 0.56189 0.0
C2100 C 0.41116 0.22805 0.39866 0.0
C2101 C 0.42289 0.21455 0.40815 0.0
C2102 C 0.4071 0.23285 0.35414 0.0
C2103 C 0.4147 0.22461 0.31656 0.0
H2104 H 0.40444 0.2345 0.42597 0.0
H2105 H 0.39754 0.24294 0.34917 0.0
S2106 S 0.4471 0.18926 0.32223 0.0
N2107 N 0.44283 0.19363 0.37566 0.0
N2108 N 0.43507 0.20264 0.29201 0.0
C2109 C 0.42699 0.2116 0.32531 0.0
C2110 C 0.43099 0.20649 0.37093 0.0
C2111 C 0.76354 0.17614 0.40319 0.0
C2112 C 0.77135 0.20077 0.4133 0.0
C2113 C 0.76 0.16759 0.35857 0.0
C2114 C 0.76389 0.1831 0.32133 0.0
H2115 H 0.76076 0.16334 0.43002 0.0
H2116 H 0.7545 0.14852 0.35327 0.0
S2117 S 0.78355 0.24906 0.32864 0.0
N2118 N 0.78214 0.24057 0.38183 0.0
N2119 N 0.7755 0.22434 0.29779 0.0
C2120 C 0.77107 0.20765 0.33066 0.0
C2121 C 0.77492 0.21651 0.37651 0.0
C2122 C 0.78141 0.56424 0.32668 0.0
C2123 C 0.80667 0.57528 0.31776 0.0
C2124 C 0.7725 0.56079 0.37157 0.0
C2125 C 0.78854 0.56829 0.40904 0.0
H2126 H 0.76863 0.5596 0.29899 0.0
H2127 H 0.75307 0.55324 0.37692 0.0
S2128 S 0.85564 0.5934 0.40381 0.0
N2129 N 0.84705 0.59042 0.35047 0.0
N2130 N 0.83044 0.58393 0.43369 0.0
C2131 C 0.81355 0.5777 0.4003 0.0
C2132 C 0.82255 0.58115 0.35506 0.0
C2133 C 0.90235 0.74227 0.69105 0.0
C2134 C 0.89359 0.7496 0.72818 0.0
C2135 C 0.89834 0.74687 0.64638 0.0
C2136 C 0.88489 0.75859 0.63647 0.0
H2137 H 0.912 0.73231 0.69654 0.0
H2138 H 0.90517 0.74041 0.6193 0.0
S2139 S 0.8582 0.78186 0.72135 0.0
N2140 N 0.87125 0.76967 0.75207 0.0
N2141 N 0.86338 0.77814 0.66808 0.0
C2142 C 0.87631 0.7664 0.67331 0.0
C2143 C 0.88079 0.76203 0.71908 0.0
C2144 C 0.24672 0.15533 0.64233 0.0
C2145 C 0.23203 0.13018 0.63305 0.0
C2146 C 0.25173 0.16429 0.68671 0.0
C2147 C 0.24232 0.14866 0.72451 0.0
H2148 H 0.25518 0.1683 0.61502 0.0
H2149 H 0.26373 0.18381 0.69135 0.0
S2150 S 0.20177 0.0813 0.71945 0.0
N2151 N 0.20706 0.08971 0.66594 0.0
N2152 N 0.21687 0.10667 0.74945 0.0
C2153 C 0.22699 0.12352 0.71601 0.0
C2154 C 0.22188 0.11428 0.67043 0.0
C2155 C 0.82736 0.08257 0.69343 0.0
C2156 C 0.84319 0.09074 0.7311 0.0
C2157 C 0.83623 0.08674 0.649 0.0
C2158 C 0.86147 0.09958 0.63966 0.0
H2159 H 0.80772 0.07345 0.69825 0.0
H2160 H 0.8231 0.08061 0.62165 0.0
S2161 S 0.91094 0.12376 0.72585 0.0
N2162 N 0.8855 0.11132 0.75595 0.0
N2163 N 0.90233 0.11933 0.67235 0.0
C2164 C 0.87762 0.10719 0.67696 0.0
C2165 C 0.86848 0.10262 0.72256 0.0
C2166 C 0.2259 0.11715 0.17153 0.0
C2167 C 0.23342 0.1085 0.13431 0.0
C2168 C 0.22918 0.11174 0.21658 0.0
C2169 C 0.24012 0.09747 0.22605 0.0
H2170 H 0.21846 0.12912 0.16589 0.0
H2171 H 0.22453 0.12 0.244 0.0
S2172 S 0.25773 0.06582 0.141 0.0
N2173 N 0.24863 0.08172 0.11058 0.0
N2174 N 0.25485 0.07175 0.19418 0.0
C2175 C 0.24594 0.08727 0.18907 0.0
C2176 C 0.24262 0.09273 0.14359 0.0
C2177 C 0.87574 0.11473 0.22339 0.0
C2178 C 0.89126 0.13987 0.23209 0.0
C2179 C 0.87 0.10566 0.17862 0.0
C2180 C 0.87943 0.12142 0.14093 0.0
H2181 H 0.86706 0.10218 0.25119 0.0
H2182 H 0.85737 0.08633 0.1735 0.0
S2183 S 0.9238 0.18811 0.14557 0.0
N2184 N 0.91795 0.17983 0.19899 0.0
N2185 N 0.90719 0.16294 0.11592 0.0
C2186 C 0.8959 0.14632 0.14944 0.0
C2187 C 0.90179 0.15547 0.19463 0.0
C2188 C 0.87834 0.77503 0.17246 0.0
C2189 C 0.8692 0.75759 0.13727 0.0
C2190 C 0.86884 0.76887 0.21696 0.0
C2191 C 0.84982 0.74506 0.22777 0.0
H2192 H 0.89244 0.79367 0.1653 0.0
H2193 H 0.87602 0.78296 0.24266 0.0
S2194 S 0.82185 0.69227 0.14751 0.0
N2195 N 0.84189 0.71538 0.11682 0.0
N2196 N 0.82369 0.70361 0.19842 0.0
C2197 C 0.84134 0.72739 0.19255 0.0
C2198 C 0.8511 0.73369 0.14797 0.0
C2199 C 0.75941 0.58334 0.90121 0.0
C2200 C 0.76922 0.56809 0.91038 0.0
C2201 C 0.75452 0.58754 0.85695 0.0
C2202 C 0.75916 0.57676 0.81929 0.0
H2203 H 0.75581 0.5925 0.92854 0.0
H2204 H 0.74767 0.60008 0.85218 0.0
S2205 S 0.78431 0.53485 0.82436 0.0
N2206 N 0.78283 0.54154 0.87778 0.0
N2207 N 0.77359 0.54955 0.79441 0.0
C2208 C 0.76802 0.56065 0.82782 0.0
C2209 C 0.77308 0.55634 0.8733 0.0
C2210 C 0.40473 0.16052 0.85675 0.0
C2211 C 0.4154 0.17606 0.81917 0.0
C2212 C 0.40976 0.16932 0.90119 0.0
C2213 C 0.42581 0.19421 0.91078 0.0
H2214 H 0.39162 0.14127 0.85188 0.0
H2215 H 0.40022 0.15652 0.92828 0.0
S2216 S 0.45998 0.24259 0.82521 0.0
N2217 N 0.44372 0.21757 0.79485 0.0
N2218 N 0.45359 0.2342 0.87857 0.0
C2219 C 0.43738 0.20993 0.8737 0.0
C2220 C 0.43223 0.20085 0.82803 0.0
C2221 C 0.78352 0.21515 0.83149 0.0
C2222 C 0.8085 0.23088 0.82207 0.0
C2223 C 0.77474 0.21058 0.87642 0.0
C2224 C 0.79054 0.22192 0.91351 0.0
H2225 H 0.77091 0.20544 0.80421 0.0
H2226 H 0.7555 0.19789 0.88223 0.0
S2227 S 0.85746 0.26494 0.90675 0.0
N2228 N 0.84877 0.2579 0.8537 0.0
N2229 N 0.83235 0.24976 0.93714 0.0
C2230 C 0.81539 0.23814 0.90421 0.0
C2231 C 0.82432 0.24248 0.85885 0.0
C2232 C 0.99093 0.40922 0.33864 0.0
C2233 C 0.99213 0.42907 0.31459 0.0
C2234 C 0.99063 0.4086 0.38612 0.0
C2235 C 0.99163 0.42784 0.41203 0.0
H2236 H 0.98994 0.39382 0.3206 0.0
H2237 H 0.98986 0.39292 0.40269 0.0
S2238 S -0.00476 0.48436 0.36589 0.0
N2239 N -0.0051 0.46886 0.32072 0.0
N2240 N 0.9936 0.46734 0.40957 0.0
C2241 C 0.99287 0.44786 0.38845 0.0
C2242 C 0.99323 0.44852 0.34001 0.0
C2243 C 0.57702 0.58393 0.38026 0.0
C2244 C 0.55792 0.5645 0.40432 0.0
C2245 C 0.57732 0.58447 0.3327 0.0
C2246 C 0.55876 0.56541 0.30696 0.0
H2247 H 0.59168 0.5991 0.39837 0.0
H2248 H 0.59239 0.59987 0.3159 0.0
S2249 S 0.50478 0.50997 0.35328 0.0
N2250 N 0.52009 0.52544 0.39843 0.0
N2251 N 0.52063 0.52647 0.30949 0.0
C2252 C 0.53966 0.54573 0.33058 0.0
C2253 C 0.53923 0.54529 0.37901 0.0
C2254 C 0.44297 0.01562 0.32973 0.0
C2255 C 0.42253 -0.00164 0.30475 0.0
C2256 C 0.4429 0.01584 0.37729 0.0
C2257 C 0.42241 -0.00125 0.40232 0.0
H2258 H 0.45918 0.02927 0.31235 0.0
H2259 H 0.45906 0.02969 0.39456 0.0
S2260 S 0.36505 0.94819 0.35344 0.0
N2261 N 0.38171 0.96284 0.309 0.0
N2262 N 0.38164 0.96303 0.39793 0.0
C2263 C 0.40197 0.98115 0.37774 0.0
C2264 C 0.40202 0.98101 0.32926 0.0
C2265 C 0.01016 0.57709 0.89038 0.0
C2266 C 0.98793 0.5665 0.91442 0.0
C2267 C 0.01061 0.57648 0.84292 0.0
C2268 C 0.98884 0.56504 0.8174 0.0
H2269 H 0.02742 0.58613 0.90838 0.0
H2270 H 0.02818 0.5847 0.82615 0.0
S2271 S 0.92577 0.5346 0.86358 0.0
N2272 N 0.94357 0.54409 0.90861 0.0
N2273 N 0.94441 0.54328 0.81986 0.0
C2274 C 0.96651 0.55446 0.84096 0.0
C2275 C 0.96605 0.55515 0.88922 0.0
C2276 C 0.43986 0.4192 0.84522 0.0
C2277 C 0.4206 0.41846 0.81983 0.0
C2278 C 0.43897 0.4178 0.89256 0.0
C2279 C 0.4189 0.41589 0.91676 0.0
H2280 H 0.45579 0.42075 0.82834 0.0
H2281 H 0.45434 0.41857 0.91036 0.0
S2282 S 0.36359 0.41308 0.86675 0.0
N2283 N 0.38077 0.41563 0.82282 0.0
N2284 N 0.37903 0.41284 0.91158 0.0
C2285 C 0.39946 0.41504 0.89187 0.0
C2286 C 0.40029 0.41629 0.84358 0.0
C2287 C 0.55125 0.97757 0.87572 0.0
C2288 C 0.56192 0.00053 0.89738 0.0
C2289 C 0.55018 0.97558 0.82832 0.0
C2290 C 0.55957 -0.00355 0.80037 0.0
H2291 H 0.54418 0.96098 0.89556 0.0
H2292 H 0.54197 0.95749 0.81343 0.0
S2293 S 0.58791 0.06083 0.84028 0.0
N2294 N 0.58071 0.04448 0.88706 0.0
N2295 N 0.57931 0.0409 0.79847 0.0
C2296 C 0.56971 0.01949 0.82169 0.0
C2297 C 0.57078 0.02148 0.86992 0.0
C2298 C 0.67713 0.7634 0.70753 0.0
C2299 C 0.6558 0.75256 0.73426 0.0
C2300 C 0.67596 0.76316 0.66008 0.0
C2301 C 0.65339 0.75208 0.63694 0.0
H2302 H 0.69499 0.77218 0.7234 0.0
H2303 H 0.69297 0.7722 0.64139 0.0
S2304 S 0.59201 0.72118 0.69079 0.0
N2305 N 0.61132 0.73081 0.73366 0.0
N2306 N 0.60909 0.72952 0.6449 0.0
C2307 C 0.63189 0.741 0.66324 0.0
C2308 C 0.6331 0.74138 0.71162 0.0
C2309 C 0.21145 0.89165 0.70762 0.0
C2310 C 0.23287 0.89633 0.73081 0.0
C2311 C 0.21087 0.89263 0.66013 0.0
C2312 C 0.23165 0.89818 0.63385 0.0
H2313 H 0.1952 0.88781 0.72638 0.0
H2314 H 0.19417 0.88959 0.64397 0.0
S2315 S 0.29115 0.90843 0.67815 0.0
N2316 N 0.27464 0.90463 0.72377 0.0
N2317 N 0.27346 0.90592 0.63499 0.0
C2318 C 0.25283 0.90187 0.65674 0.0
C2319 C 0.25345 0.90108 0.70498 0.0
C2320 C 0.07699 0.33013 0.71063 0.0
C2321 C 0.09647 0.33145 0.73603 0.0
C2322 C 0.07655 0.32861 0.66331 0.0
C2323 C 0.09572 0.32861 0.63887 0.0
H2324 H 0.0617 0.32996 0.72755 0.0
H2325 H 0.06082 0.32718 0.64579 0.0
S2326 S 0.15165 0.33271 0.68939 0.0
N2327 N 0.13568 0.33297 0.73328 0.0
N2328 N 0.13528 0.33078 0.64442 0.0
C2329 C 0.11543 0.32999 0.66395 0.0
C2330 C 0.11571 0.33126 0.71235 0.0
C2331 C 0.67363 0.90714 0.16089 0.0
C2332 C 0.65185 0.89608 0.13525 0.0
C2333 C 0.67328 0.90644 0.20844 0.0
C2334 C 0.65112 0.89489 0.23273 0.0
H2335 H 0.69121 0.91626 0.14409 0.0
H2336 H 0.69056 0.91541 0.22634 0.0
S2337 S 0.58889 0.86269 0.18227 0.0
N2338 N 0.60739 0.87302 0.13834 0.0
N2339 N 0.60678 0.87145 0.2272 0.0
C2340 C 0.62921 0.88359 0.20759 0.0
C2341 C 0.62956 0.8842 0.15915 0.0
C2342 C 0.10832 0.75623 0.21716 0.0
C2343 C 0.08798 0.75366 0.24148 0.0
C2344 C 0.10887 0.75682 0.16972 0.0
C2345 C 0.08906 0.75476 0.14423 0.0
H2346 H 0.12403 0.75774 0.23494 0.0
H2347 H 0.125 0.75888 0.15283 0.0
S2348 S 0.03185 0.74888 0.19096 0.0
N2349 N 0.04777 0.74987 0.23597 0.0
N2350 N 0.04871 0.75064 0.14703 0.0
C2351 C 0.06852 0.75202 0.16796 0.0
C2352 C 0.068 0.75155 0.21639 0.0
C2353 C 0.25013 0.33371 0.16558 0.0
C2354 C 0.2296 0.3302 0.14054 0.0
C2355 C 0.25003 0.33341 0.21318 0.0
C2356 C 0.22928 0.32927 0.23808 0.0
H2357 H 0.26661 0.33704 0.14824 0.0
H2358 H 0.2663 0.33617 0.23064 0.0
S2359 S 0.17063 0.31902 0.18928 0.0
N2360 N 0.18772 0.32218 0.14483 0.0
N2361 N 0.18769 0.32199 0.23375 0.0
C2362 C 0.20859 0.32569 0.21352 0.0
C2363 C 0.20872 0.3261 0.16506 0.0
C2364 C 0.32092 0.07676 0.04989 0.0
C2365 C 0.32816 0.09846 0.07458 0.0
C2366 C 0.32074 0.07655 1.00248 0.0
C2367 C 0.32747 0.09796 0.9776 0.0
H2368 H 0.31495 0.0596 0.06733 0.0
H2369 H 0.31481 0.05937 0.98512 0.0
S2370 S 0.34955 0.16002 1.02493 0.0
N2371 N 0.34366 0.14236 0.06975 0.0
N2372 N 0.34259 0.14171 0.98078 0.0
C2373 C 0.33493 0.11985 1.00155 0.0
C2374 C 0.33541 0.12016 0.04991 0.0
C2375 C 0.91652 0.2387 1.00383 0.0
C2376 C 0.89452 0.23195 0.9806 0.0
C2377 C 0.91738 0.23787 0.05117 0.0
C2378 C 0.89627 0.23014 0.07767 0.0
H2379 H 0.93332 0.24458 0.98526 0.0
H2380 H 0.93479 0.24324 0.0672 0.0
S2381 S 0.83406 0.21116 0.03432 0.0
N2382 N 0.85104 0.2177 0.98845 0.0
N2383 N 0.85268 0.21592 0.07718 0.0
C2384 C 0.87407 0.22309 0.05507 0.0
C2385 C 0.87318 0.22404 1.00674 0.0
C2386 C 0.76922 0.68606 0.99673 0.0
C2387 C 0.75664 0.66394 0.97239 0.0
C2388 C 0.76949 0.68647 0.04424 0.0
C2389 C 0.7572 0.66478 0.06989 0.0
H2390 H 0.77872 0.70334 0.97892 0.0
H2391 H 0.77956 0.70403 0.06102 0.0
S2392 S 0.7225 0.60178 1.02277 0.0
N2393 N 0.73263 0.61958 0.97786 0.0
N2394 N 0.73232 0.62036 0.06673 0.0
C2395 C 0.74484 0.64247 0.04596 0.0
C2396 C 0.74468 0.64205 0.99751 0.0
C2397 C 0.33849 0.254 0.49322 0.0
C2398 C 0.33057 0.23234 0.46796 0.0
C2399 C 0.33815 0.25377 0.54069 0.0
C2400 C 0.33011 0.23192 0.56501 0.0
H2401 H 0.34546 0.27142 0.4762 0.0
H2402 H 0.34477 0.27094 0.55854 0.0
S2403 S 0.30522 0.16982 0.51587 0.0
N2404 N 0.31264 0.18807 0.47157 0.0
N2405 N 0.31263 0.18784 0.56055 0.0
C2406 C 0.32173 0.21007 0.54042 0.0
C2407 C 0.32183 0.21023 0.49206 0.0
C2408 C 0.74366 0.09988 0.54195 0.0
C2409 C 0.75643 0.09124 0.5682 0.0
C2410 C 0.74371 0.09905 0.49446 0.0
C2411 C 0.75662 0.08967 0.47088 0.0
H2412 H 0.7334 0.10727 0.55824 0.0
H2413 H 0.73382 0.10622 0.47606 0.0
S2414 S 0.7933 0.06496 0.52337 0.0
N2415 N 0.78282 0.07344 0.56664 0.0
N2416 N 0.78231 0.07121 0.47788 0.0
C2417 C 0.76943 0.08091 0.49671 0.0
C2418 C 0.76943 0.0818 0.54508 0.0
C2419 C 0.9025 0.64661 0.55107 0.0
C2420 C 0.89723 0.66282 0.57475 0.0
C2421 C 0.90175 0.64534 0.50357 0.0
C2422 C 0.89557 0.66012 0.47739 0.0
H2423 H 0.90695 0.63449 0.56939 0.0
H2424 H 0.9058 0.63243 0.48719 0.0
S2425 S 0.88168 0.70683 0.52194 0.0
N2426 N 0.88678 0.69496 0.56749 0.0
N2427 N 0.88496 0.69219 0.47875 0.0
C2428 C 0.89034 0.67648 0.50046 0.0
C2429 C 0.89128 0.67793 0.54883 0.0
C2430 C 0.99217 0.49326 0.07236 0.0
C2431 C 0.01686 0.51151 0.07661 0.0
C2432 C 0.97611 0.48684 0.10894 0.0
C2433 C 0.98413 0.49887 0.15061 0.0
H2434 H 0.98553 0.48291 0.04129 0.0
H2435 H 0.95737 0.47231 0.10454 0.0
S2436 S 0.04584 0.55058 0.17712 0.0
N2437 N 0.04784 0.54346 0.12424 0.0
N2438 N 0.01751 0.53134 0.19302 0.0
C2439 C 0.00835 0.51811 0.15452 0.0
C2440 C 0.02472 0.52468 0.1173 0.0
C2441 C 0.50062 0.50059 0.07771 0.0
C2442 C 0.48038 0.50409 0.07984 0.0
C2443 C 0.50701 0.49096 0.11425 0.0
C2444 C 0.49295 0.48387 0.15382 0.0
H2445 H 0.51204 0.50593 0.04785 0.0
H2446 H 0.52276 0.48854 0.11093 0.0
S2447 S 0.43758 0.48831 0.17622 0.0
N2448 N 0.44581 0.4991 0.12451 0.0
N2449 N 0.4578 0.48071 0.19332 0.0
C2450 C 0.4724 0.48686 0.15631 0.0
C2451 C 0.46593 0.49678 0.11907 0.0
C2452 C 0.50319 0.99192 0.13613 0.0
C2453 C 0.50824 0.01624 0.13254 0.0
C2454 C 0.49252 0.97543 0.10034 0.0
C2455 C 0.48639 0.98273 0.05996 0.0
H2456 H 0.50754 0.9856 0.16688 0.0
H2457 H 0.4882 0.95665 0.10503 0.0
S2458 S 0.49571 0.04415 0.03337 0.0
N2459 N 0.50616 0.0467 0.08539 0.0
N2460 N 0.48659 0.01576 1.01769 0.0
C2461 C 0.49188 0.00709 0.05549 0.0
C2462 C 0.50244 0.02379 0.09211 0.0
C2463 C 0.50688 0.00249 0.56207 0.0
C2464 C 0.48733 0.97831 0.5651 0.0
C2465 C 0.51302 0.01868 0.59841 0.0
C2466 C 0.49979 0.01115 0.63895 0.0
H2467 H 0.51763 0.00888 0.53144 0.0
H2468 H 0.52783 0.03735 0.59431 0.0
S2469 S 0.44704 0.94987 0.66429 0.0
N2470 N 0.45449 0.94776 0.61175 0.0
N2471 N 0.46676 0.97801 0.6807 0.0
C2472 C 0.48049 0.98695 0.64272 0.0
C2473 C 0.47388 0.97061 0.60545 0.0
C2474 C 0.9748 0.48882 0.60625 0.0
C2475 C 0.98294 0.48547 0.64842 0.0
C2476 C 0.99109 0.49917 0.57004 0.0
C2477 C 0.01604 0.50675 0.57514 0.0
H2478 H 0.95579 0.4835 0.60118 0.0
H2479 H 0.98437 0.50231 0.53853 0.0
S2480 S 0.04571 0.49959 0.67759 0.0
N2481 N 0.01695 0.4889 0.69243 0.0
N2482 N 0.04762 0.50826 0.62444 0.0
C2483 C 0.02411 0.50241 0.6165 0.0
C2484 C 0.00756 0.492 0.65331 0.0
C2485 C 0.5016 0.48062 0.60495 0.0
C2486 C 0.50427 0.49152 0.64749 0.0
C2487 C 0.49006 0.48565 0.5695 0.0
C2488 C 0.48075 0.50156 0.57574 0.0
H2489 H 0.50887 0.46856 0.59874 0.0
H2490 H 0.48787 0.47659 0.53734 0.0
S2491 S 0.48407 0.53515 0.68066 0.0
N2492 N 0.49705 0.51889 0.69405 0.0
N2493 N 0.47581 0.52883 0.62722 0.0
C2494 C 0.48363 0.51277 0.61802 0.0
C2495 C 0.49503 0.50737 0.65418 0.0
C2496 C 0.66842 0.84394 0.47043 0.0
C2497 C 0.64406 0.82475 0.46786 0.0
C2498 C 0.68433 0.84961 0.43382 0.0
C2499 C 0.67639 0.83614 0.39351 0.0
H2500 H 0.67529 0.85458 0.50115 0.0
H2501 H 0.70323 0.86388 0.43794 0.0
S2502 S 0.61434 0.78466 0.3687 0.0
N2503 N 0.61266 0.79252 0.42118 0.0
N2504 N 0.64255 0.80374 0.35193 0.0
C2505 C 0.65185 0.81767 0.38964 0.0
C2506 C 0.63572 0.81161 0.42716 0.0
C2507 C 0.1439 0.83501 0.43551 0.0
C2508 C 0.15751 0.84112 0.39538 0.0
C2509 C 0.14972 0.82467 0.47182 0.0
C2510 C 0.16913 0.81985 0.46899 0.0
H2511 H 0.12899 0.83873 0.43933 0.0
H2512 H 0.1387 0.82006 0.50213 0.0
S2513 S 0.21037 0.83268 0.37095 0.0
N2514 N 0.19108 0.84163 0.35454 0.0
N2515 N 0.20237 0.82255 0.42306 0.0
C2516 C 0.1831 0.82621 0.4292 0.0
C2517 C 0.17703 0.83655 0.39214 0.0
C2518 C 0.16212 0.32005 0.47769 0.0
C2519 C 0.16827 0.34466 0.47308 0.0
C2520 C 0.15292 0.30386 0.44114 0.0
C2521 C 0.1492 0.31172 0.39907 0.0
H2522 H 0.16531 0.31349 0.50935 0.0
H2523 H 0.14835 0.28503 0.44613 0.0
S2524 S 0.16025 0.37359 0.37041 0.0
N2525 N 0.16835 0.37563 0.42396 0.0
N2526 N 0.15132 0.34518 0.35507 0.0
C2527 C 0.15469 0.33607 0.39429 0.0
C2528 C 0.16385 0.3525 0.43155 0.0
C2529 C 0.16868 0.33573 0.89884 0.0
C2530 C 0.15083 0.31093 0.90397 0.0
C2531 C 0.17481 0.35225 0.93467 0.0
C2532 C 0.16295 0.34451 0.97649 0.0
H2533 H 0.17863 0.34221 0.8674 0.0
H2534 H 0.1887 0.3712 0.9294 0.0
S2535 S 0.11343 0.28218 1.0061 0.0
N2536 N 0.12021 0.27985 0.95319 0.0
N2537 N 0.1319 0.31097 1.02065 0.0
C2538 C 0.14457 0.32 0.98164 0.0
C2539 C 0.13825 0.30321 0.94516 0.0
C2540 C 0.65411 0.83132 0.90186 0.0
C2541 C 0.6787 0.83745 0.90616 0.0
C2542 C 0.63776 0.82092 0.93782 0.0
C2543 C 0.64545 0.81599 0.97899 0.0
H2544 H 0.64761 0.83518 0.87079 0.0
H2545 H 0.61887 0.81612 0.93289 0.0
S2546 S 0.70711 0.82614 1.00621 0.0
N2547 N 0.70946 0.83609 0.95388 0.0
N2548 N 0.67871 0.81693 1.02183 0.0
C2549 C 0.66988 0.82177 0.98373 0.0
C2550 C 0.68645 0.83206 0.94693 0.0
C2551 C 0.15766 0.84748 0.93225 0.0
C2552 C 0.15179 0.83377 0.8922 0.0
C2553 C 0.16882 0.84242 0.96824 0.0
C2554 C 0.17458 0.82364 0.96522 0.0
H2555 H 0.15271 0.86151 0.93654 0.0
H2556 H 0.17288 0.85322 0.9988 0.0
S2557 S 0.16323 0.78294 0.86673 0.0
N2558 N 0.15307 0.8013 0.85066 0.0
N2559 N 0.17369 0.79141 0.91861 0.0
C2560 C 0.16915 0.81009 0.92495 0.0
C2561 C 0.15805 0.81544 0.88815 0.0
C2562 C 0.30426 0.14846 0.76592 0.0
C2563 C 0.31258 0.15899 0.80872 0.0
C2564 C 0.32072 0.15368 0.73029 0.0
C2565 C 0.34599 0.16925 0.7367 0.0
H2566 H 0.28489 0.13653 0.75964 0.0
H2567 H 0.31376 0.1449 0.69794 0.0
S2568 S 0.37652 0.20265 0.84179 0.0
N2569 N 0.34729 0.18632 0.85526 0.0
N2570 N 0.37832 0.1964 0.78827 0.0
C2571 C 0.35443 0.18032 0.77911 0.0
C2572 C 0.3377 0.17484 0.81537 0.0
C2573 C 0.81057 0.17025 0.78386 0.0
C2574 C 0.82337 0.17474 0.74294 0.0
C2575 C 0.8155 0.15909 0.82007 0.0
C2576 C 0.83316 0.15183 0.81621 0.0
H2577 H 0.79673 0.17545 0.78804 0.0
H2578 H 0.80481 0.15528 0.85067 0.0
S2579 S 0.87256 0.16092 0.71692 0.0
N2580 N 0.85504 0.17214 0.70119 0.0
N2581 N 0.86442 0.15118 0.7692 0.0
C2582 C 0.84667 0.15704 0.77604 0.0
C2583 C 0.84159 0.16832 0.73923 0.0
C2584 C 0.83325 0.68743 0.76982 0.0
C2585 C 0.83798 0.68 0.81147 0.0
C2586 C 0.82291 0.67079 0.73415 0.0
C2587 C 0.81658 0.64615 0.73929 0.0
H2588 H 0.83817 0.70632 0.7643 0.0
H2589 H 0.81928 0.6771 0.70263 0.0
S2590 S 0.8258 0.61791 0.84175 0.0
N2591 N 0.83574 0.64666 0.85611 0.0
N2592 N 0.81665 0.6154 0.78879 0.0
C2593 C 0.82153 0.63861 0.78063 0.0
C2594 C 0.83184 0.65549 0.81702 0.0
C2595 C 0.84155 0.66895 0.23881 0.0
C2596 C 0.82095 0.64534 0.2387 0.0
C2597 C 0.84681 0.68458 0.27575 0.0
C2598 C 0.83151 0.67713 0.31374 0.0
H2599 H 0.85379 0.67539 0.21007 0.0
H2600 H 0.86256 0.70285 0.27386 0.0
S2601 S 0.77596 0.61679 0.33154 0.0
N2602 N 0.78543 0.61503 0.28047 0.0
N2603 N 0.79572 0.64438 0.35043 0.0
C2604 C 0.81116 0.65342 0.31463 0.0
C2605 C 0.80563 0.63757 0.2768 0.0
C2606 C 0.35127 0.16717 0.27404 0.0
C2607 C 0.34403 0.17289 0.23311 0.0
C2608 C 0.33513 0.15797 0.3106 0.0
C2609 C 0.31117 0.15393 0.30726 0.0
H2610 H 0.36967 0.17031 0.27827 0.0
H2611 H 0.34129 0.15355 0.34148 0.0
S2612 S 0.28372 0.16651 0.20726 0.0
N2613 N 0.31162 0.17404 0.1911 0.0
N2614 N 0.2813 0.15712 0.26 0.0
C2615 C 0.30387 0.15994 0.26666 0.0
C2616 C 0.32025 0.1691 0.22937 0.0
C2617 C 0.83433 0.14586 0.27126 0.0
C2618 C 0.83929 0.15879 0.31213 0.0
C2619 C 0.82486 0.15221 0.23426 0.0
C2620 C 0.81971 0.1714 0.23719 0.0
H2621 H 0.83795 0.13089 0.26764 0.0
H2622 H 0.82066 0.14141 0.20367 0.0
S2623 S 0.8311 0.21188 0.33614 0.0
N2624 N 0.8394 0.19217 0.3531 0.0
N2625 N 0.82201 0.20448 0.28331 0.0
C2626 C 0.82558 0.18513 0.27733 0.0
C2627 C 0.835 0.17851 0.31508 0.0
loop_
_geom_bond_atom_site_label_1
_geom_bond_atom_site_label_2
_geom_bond_distance
_geom_bond_site_symmetry_2
_ccdc_geom_bond_type
Nd0 C2 2.836 . S
Nd0 O20 2.500 . S
Nd0 O21 2.492 . S
Nd0 O22 2.487 . S
Nd0 O23 2.682 1_554 S
Nd0 O24 2.410 . S
Nd0 O29 2.414 . S
Nd0 O31 2.424 1_554 S
Nd1 C11 2.836 . S
Nd1 O23 2.414 . S
Nd1 O25 2.424 1_556 S
Nd1 O26 2.500 . S
Nd1 O27 2.492 . S
Nd1 O28 2.487 . S
Nd1 O29 2.682 1_556 S
Nd1 O30 2.410 . S
C2 Nd0 2.836 . S
C2 C3 1.498 . S
C2 O20 1.258 . S
C2 O21 1.239 . S
C3 C2 1.498 . S
C3 C4 1.366 . S
C3 C8 1.407 . S
C4 C3 1.366 . S
C4 C5 1.392 . S
C4 H32 0.930 . S
C5 C4 1.392 . S
C5 C6 1.398 . S
C5 H33 0.929 . S
C6 C5 1.398 . S
C6 C7 1.352 . S
C7 C6 1.352 . S
C7 C8 1.384 . S
C7 H34 0.930 . S
C8 C3 1.407 . S
C8 C7 1.384 . S
C8 H35 0.929 . S
C9 O22 1.241 1_556 S
C9 O23 1.273 . S
C10 O24 1.251 . S
C10 O25 1.268 . S
C11 Nd1 2.836 . S
C11 C12 1.498 . S
C11 O26 1.258 . S
C11 O27 1.239 . S
C12 C11 1.498 . S
C12 C13 1.366 . S
C12 C17 1.407 . S
C13 C12 1.366 . S
C13 C14 1.392 . S
C13 H36 0.930 . S
C14 C13 1.392 . S
C14 C15 1.398 . S
C14 H37 0.929 . S
C15 C14 1.398 . S
C15 C16 1.352 . S
C16 C15 1.352 . S
C16 C17 1.384 . S
C16 H38 0.930 . S
C17 C12 1.407 . S
C17 C16 1.384 . S
C17 H39 0.929 . S
C18 O28 1.241 1_554 S
C18 O29 1.273 . S
C19 O30 1.251 . S
C19 O31 1.268 . S
O20 Nd0 2.500 . S
O20 C2 1.258 . S
O21 Nd0 2.492 . S
O21 C2 1.239 . S
O22 Nd0 2.487 . S
O22 C9 1.241 1_554 S
O23 Nd0 2.682 1_556 S
O23 Nd1 2.414 . S
O23 C9 1.273 . S
O24 Nd0 2.410 . S
O24 C10 1.251 . S
O25 Nd1 2.424 1_554 S
O25 C10 1.268 . S
O26 Nd1 2.500 . S
O26 C11 1.258 . S
O27 Nd1 2.492 . S
O27 C11 1.239 . S
O28 Nd1 2.487 . S
O28 C18 1.241 1_556 S
O29 Nd0 2.414 . S
O29 Nd1 2.682 1_554 S
O29 C18 1.273 . S
O30 Nd1 2.410 . S
O30 C19 1.251 . S
O31 Nd0 2.424 1_556 S
O31 C19 1.268 . S
H32 C4 0.930 . S
H33 C5 0.929 . S
H34 C7 0.930 . S
H35 C8 0.929 . S
H36 C13 0.930 . S
H37 C14 0.929 . S
H38 C16 0.930 . S
H39 C17 0.929 . S
Nd40 C42 2.836 . S
Nd40 O60 2.500 . S
Nd40 O61 2.492 . S
Nd40 O62 2.487 . S
Nd40 O63 2.682 1_554 S
Nd40 O64 2.410 . S
Nd40 O69 2.414 . S
Nd40 O71 2.424 1_554 S
Nd41 C51 2.836 . S
Nd41 O63 2.414 . S
Nd41 O65 2.424 1_556 S
Nd41 O66 2.500 . S
Nd41 O67 2.492 . S
Nd41 O68 2.487 . S
Nd41 O69 2.682 1_556 S
Nd41 O70 2.410 . S
C42 Nd40 2.836 . S
C42 C43 1.498 . S
C42 O60 1.258 . S
C42 O61 1.239 . S
C43 C42 1.498 . S
C43 C44 1.366 . S
C43 C48 1.407 . S
C44 C43 1.366 . S
C44 C45 1.392 . S
C44 H72 0.930 . S
C45 C44 1.392 . S
C45 C46 1.398 . S
C45 H73 0.929 . S
C46 C45 1.398 . S
C46 C47 1.352 . S
C47 C46 1.352 . S
C47 C48 1.384 . S
C47 H74 0.930 . S
C48 C43 1.407 . S
C48 C47 1.384 . S
C48 H75 0.929 . S
C49 O62 1.241 1_556 S
C49 O63 1.273 . S
C50 O64 1.251 . S
C50 O65 1.268 . S
C51 Nd41 2.836 . S
C51 C52 1.498 . S
C51 O66 1.258 . S
C51 O67 1.239 . S
C52 C51 1.498 . S
C52 C53 1.366 . S
C52 C57 1.407 . S
C53 C52 1.366 . S
C53 C54 1.392 . S
C53 H76 0.930 . S
C54 C53 1.392 . S
C54 C55 1.398 . S
C54 H77 0.929 . S
C55 C54 1.398 . S
C55 C56 1.352 . S
C56 C55 1.352 . S
C56 C57 1.384 . S
C56 H78 0.930 . S
C57 C52 1.407 . S
C57 C56 1.384 . S
C57 H79 0.929 . S
C58 O68 1.241 1_554 S
C58 O69 1.273 . S
C59 O70 1.251 . S
C59 O71 1.268 . S
O60 Nd40 2.500 . S
O60 C42 1.258 . S
O61 Nd40 2.492 . S
O61 C42 1.239 . S
O62 Nd40 2.487 . S
O62 C49 1.241 1_554 S
O63 Nd40 2.682 1_556 S
O63 Nd41 2.414 . S
O63 C49 1.273 . S
O64 Nd40 2.410 . S
O64 C50 1.251 . S
O65 Nd41 2.424 1_554 S
O65 C50 1.268 . S
O66 Nd41 2.500 . S
O66 C51 1.258 . S
O67 Nd41 2.492 . S
O67 C51 1.239 . S
O68 Nd41 2.487 . S
O68 C58 1.241 1_556 S
O69 Nd40 2.414 . S
O69 Nd41 2.682 1_554 S
O69 C58 1.273 . S
O70 Nd41 2.410 . S
O70 C59 1.251 . S
O71 Nd40 2.424 1_556 S
O71 C59 1.268 . S
H72 C44 0.930 . S
H73 C45 0.929 . S
H74 C47 0.930 . S
H75 C48 0.929 . S
H76 C53 0.930 . S
H77 C54 0.929 . S
H78 C56 0.930 . S
H79 C57 0.929 . S
Nd80 C82 2.836 . S
Nd80 O100 2.500 . S
Nd80 O101 2.492 . S
Nd80 O102 2.487 . S
Nd80 O103 2.682 1_554 S
Nd80 O104 2.410 . S
Nd80 O109 2.414 . S
Nd80 O111 2.424 1_554 S
Nd81 C91 2.836 . S
Nd81 O103 2.414 . S
Nd81 O105 2.424 1_556 S
Nd81 O106 2.500 . S
Nd81 O107 2.492 . S
Nd81 O108 2.487 . S
Nd81 O109 2.682 1_556 S
Nd81 O110 2.410 . S
C82 Nd80 2.836 . S
C82 C83 1.498 . S
C82 O100 1.258 . S
C82 O101 1.239 . S
C83 C82 1.498 . S
C83 C84 1.366 . S
C83 C88 1.407 . S
C84 C83 1.366 . S
C84 C85 1.392 . S
C84 H112 0.930 . S
C85 C84 1.392 . S
C85 C86 1.398 . S
C85 H113 0.929 . S
C86 C85 1.398 . S
C86 C87 1.352 . S
C87 C86 1.352 . S
C87 C88 1.384 . S
C87 H114 0.930 . S
C88 C83 1.407 . S
C88 C87 1.384 . S
C88 H115 0.929 . S
C89 O102 1.241 1_556 S
C89 O103 1.273 . S
C90 O104 1.251 . S
C90 O105 1.268 . S
C91 Nd81 2.836 . S
C91 C92 1.498 . S
C91 O106 1.258 . S
C91 O107 1.239 . S
C92 C91 1.498 . S
C92 C93 1.366 . S
C92 C97 1.407 . S
C93 C92 1.366 . S
C93 C94 1.392 . S
C93 H116 0.930 . S
C94 C93 1.392 . S
C94 C95 1.398 . S
C94 H117 0.929 . S
C95 C94 1.398 . S
C95 C96 1.352 . S
C96 C95 1.352 . S
C96 C97 1.384 . S
C96 H118 0.930 . S
C97 C92 1.407 . S
C97 C96 1.384 . S
C97 H119 0.929 . S
C98 O108 1.241 1_554 S
C98 O109 1.273 . S
C99 O110 1.251 . S
C99 O111 1.268 . S
O100 Nd80 2.500 . S
O100 C82 1.258 . S
O101 Nd80 2.492 . S
O101 C82 1.239 . S
O102 Nd80 2.487 . S
O102 C89 1.241 1_554 S
O103 Nd80 2.682 1_556 S
O103 Nd81 2.414 . S
O103 C89 1.273 . S
O104 Nd80 2.410 . S
O104 C90 1.251 . S
O105 Nd81 2.424 1_554 S
O105 C90 1.268 . S
O106 Nd81 2.500 . S
O106 C91 1.258 . S
O107 Nd81 2.492 . S
O107 C91 1.239 . S
O108 Nd81 2.487 . S
O108 C98 1.241 1_556 S
O109 Nd80 2.414 . S
O109 Nd81 2.682 1_554 S
O109 C98 1.273 . S
O110 Nd81 2.410 . S
O110 C99 1.251 . S
O111 Nd80 2.424 1_556 S
O111 C99 1.268 . S
H112 C84 0.930 . S
H113 C85 0.929 . S
H114 C87 0.930 . S
H115 C88 0.929 . S
H116 C93 0.930 . S
H117 C94 0.929 . S
H118 C96 0.930 . S
H119 C97 0.929 . S
Nd120 C122 2.836 . S
Nd120 O140 2.500 . S
Nd120 O141 2.492 . S
Nd120 O142 2.487 . S
Nd120 O143 2.682 . S
Nd120 O144 2.410 . S
Nd120 O149 2.414 . S
Nd120 O151 2.424 . S
Nd121 C131 2.836 . S
Nd121 O143 2.414 . S
Nd121 O145 2.424 . S
Nd121 O146 2.500 . S
Nd121 O147 2.492 . S
Nd121 O148 2.487 . S
Nd121 O149 2.682 . S
Nd121 O150 2.410 . S
C122 Nd120 2.836 . S
C122 C123 1.498 . S
C122 O140 1.258 . S
C122 O141 1.239 . S
C123 C122 1.498 . S
C123 C124 1.366 . S
C123 C128 1.407 . S
C124 C123 1.366 . S
C124 C125 1.392 . S
C124 H152 0.930 . S
C125 C124 1.392 . S
C125 C126 1.398 . S
C125 H153 0.929 . S
C126 C125 1.398 . S
C126 C127 1.352 . S
C127 C126 1.352 . S
C127 C128 1.384 . S
C127 H154 0.930 . S
C128 C123 1.407 . S
C128 C127 1.384 . S
C128 H155 0.929 . S
C129 O142 1.241 . S
C129 O143 1.273 . S
C130 O144 1.251 . S
C130 O145 1.268 . S
C131 Nd121 2.836 . S
C131 C132 1.498 . S
C131 O146 1.258 . S
C131 O147 1.239 . S
C132 C131 1.498 . S
C132 C133 1.366 . S
C132 C137 1.407 . S
C133 C132 1.366 . S
C133 C134 1.392 . S
C133 H156 0.930 . S
C134 C133 1.392 . S
C134 C135 1.398 . S
C134 H157 0.929 . S
C135 C134 1.398 . S
C135 C136 1.352 . S
C136 C135 1.352 . S
C136 C137 1.384 . S
C136 H158 0.930 . S
C137 C132 1.407 . S
C137 C136 1.384 . S
C137 H159 0.929 . S
C138 O148 1.241 . S
C138 O149 1.273 . S
C139 O150 1.251 . S
C139 O151 1.268 . S
O140 Nd120 2.500 . S
O140 C122 1.258 . S
O141 Nd120 2.492 . S
O141 C122 1.239 . S
O142 Nd120 2.487 . S
O142 C129 1.241 . S
O143 Nd120 2.682 . S
O143 Nd121 2.414 . S
O143 C129 1.273 . S
O144 Nd120 2.410 . S
O144 C130 1.251 . S
O145 Nd121 2.424 . S
O145 C130 1.268 . S
O146 Nd121 2.500 . S
O146 C131 1.258 . S
O147 Nd121 2.492 . S
O147 C131 1.239 . S
O148 Nd121 2.487 . S
O148 C138 1.241 . S
O149 Nd120 2.414 . S
O149 Nd121 2.682 . S
O149 C138 1.273 . S
O150 Nd121 2.410 . S
O150 C139 1.251 . S
O151 Nd120 2.424 . S
O151 C139 1.268 . S
H152 C124 0.930 . S
H153 C125 0.929 . S
H154 C127 0.930 . S
H155 C128 0.929 . S
H156 C133 0.930 . S
H157 C134 0.929 . S
H158 C136 0.930 . S
H159 C137 0.929 . S
Nd160 C162 2.836 . S
Nd160 O180 2.500 . S
Nd160 O181 2.492 . S
Nd160 O182 2.487 . S
Nd160 O183 2.682 . S
Nd160 O184 2.410 . S
Nd160 O189 2.414 . S
Nd160 O191 2.424 . S
Nd161 C171 2.836 . S
Nd161 O183 2.414 . S
Nd161 O185 2.424 . S
Nd161 O186 2.500 . S
Nd161 O187 2.492 . S
Nd161 O188 2.487 . S
Nd161 O189 2.682 . S
Nd161 O190 2.410 . S
C162 Nd160 2.836 . S
C162 C163 1.498 . S
C162 O180 1.258 . S
C162 O181 1.239 . S
C163 C162 1.498 . S
C163 C164 1.366 . S
C163 C168 1.407 . S
C164 C163 1.366 . S
C164 C165 1.392 . S
C164 H192 0.930 . S
C165 C164 1.392 . S
C165 C166 1.398 . S
C165 H193 0.929 . S
C166 C165 1.398 . S
C166 C167 1.352 . S
C167 C166 1.352 . S
C167 C168 1.384 . S
C167 H194 0.930 . S
C168 C163 1.407 . S
C168 C167 1.384 . S
C168 H195 0.929 . S
C169 O182 1.241 . S
C169 O183 1.273 . S
C170 O184 1.251 . S
C170 O185 1.268 . S
C171 Nd161 2.836 . S
C171 C172 1.498 . S
C171 O186 1.258 . S
C171 O187 1.239 . S
C172 C171 1.498 . S
C172 C173 1.366 . S
C172 C177 1.407 . S
C173 C172 1.366 . S
C173 C174 1.392 . S
C173 H196 0.930 . S
C174 C173 1.392 . S
C174 C175 1.398 . S
C174 H197 0.929 . S
C175 C174 1.398 . S
C175 C176 1.352 . S
C176 C175 1.352 . S
C176 C177 1.384 . S
C176 H198 0.930 . S
C177 C172 1.407 . S
C177 C176 1.384 . S
C177 H199 0.929 . S
C178 O188 1.241 . S
C178 O189 1.273 . S
C179 O190 1.251 . S
C179 O191 1.268 . S
O180 Nd160 2.500 . S
O180 C162 1.258 . S
O181 Nd160 2.492 . S
O181 C162 1.239 . S
O182 Nd160 2.487 . S
O182 C169 1.241 . S
O183 Nd160 2.682 . S
O183 Nd161 2.414 . S
O183 C169 1.273 . S
O184 Nd160 2.410 . S
O184 C170 1.251 . S
O185 Nd161 2.424 . S
O185 C170 1.268 . S
O186 Nd161 2.500 . S
O186 C171 1.258 . S
O187 Nd161 2.492 . S
O187 C171 1.239 . S
O188 Nd161 2.487 . S
O188 C178 1.241 . S
O189 Nd160 2.414 . S
O189 Nd161 2.682 . S
O189 C178 1.273 . S
O190 Nd161 2.410 . S
O190 C179 1.251 . S
O191 Nd160 2.424 . S
O191 C179 1.268 . S
H192 C164 0.930 . S
H193 C165 0.929 . S
H194 C167 0.930 . S
H195 C168 0.929 . S
H196 C173 0.930 . S
H197 C174 0.929 . S
H198 C176 0.930 . S
H199 C177 0.929 . S
Nd200 C202 2.836 . S
Nd200 O220 2.500 . S
Nd200 O221 2.492 . S
Nd200 O222 2.487 . S
Nd200 O223 2.682 . S
Nd200 O224 2.410 . S
Nd200 O229 2.414 . S
Nd200 O231 2.424 . S
Nd201 C211 2.836 . S
Nd201 O223 2.414 . S
Nd201 O225 2.424 . S
Nd201 O226 2.500 . S
Nd201 O227 2.492 . S
Nd201 O228 2.487 . S
Nd201 O229 2.682 . S
Nd201 O230 2.410 . S
C202 Nd200 2.836 . S
C202 C203 1.498 . S
C202 O220 1.258 . S
C202 O221 1.239 . S
C203 C202 1.498 . S
C203 C204 1.366 . S
C203 C208 1.407 . S
C204 C203 1.366 . S
C204 C205 1.392 . S
C204 H232 0.930 . S
C205 C204 1.392 . S
C205 C206 1.398 . S
C205 H233 0.929 . S
C206 C205 1.398 . S
C206 C207 1.352 . S
C207 C206 1.352 . S
C207 C208 1.384 . S
C207 H234 0.930 . S
C208 C203 1.407 . S
C208 C207 1.384 . S
C208 H235 0.929 . S
C209 O222 1.241 . S
C209 O223 1.273 . S
C210 O224 1.251 . S
C210 O225 1.268 . S
C211 Nd201 2.836 . S
C211 C212 1.498 . S
C211 O226 1.258 . S
C211 O227 1.239 . S
C212 C211 1.498 . S
C212 C213 1.366 . S
C212 C217 1.407 . S
C213 C212 1.366 . S
C213 C214 1.392 . S
C213 H236 0.930 . S
C214 C213 1.392 . S
C214 C215 1.398 . S
C214 H237 0.929 . S
C215 C214 1.398 . S
C215 C216 1.352 . S
C216 C215 1.352 . S
C216 C217 1.384 . S
C216 H238 0.930 . S
C217 C212 1.407 . S
C217 C216 1.384 . S
C217 H239 0.929 . S
C218 O228 1.241 . S
C218 O229 1.273 . S
C219 O230 1.251 . S
C219 O231 1.268 . S
O220 Nd200 2.500 . S
O220 C202 1.258 . S
O221 Nd200 2.492 . S
O221 C202 1.239 . S
O222 Nd200 2.487 . S
O222 C209 1.241 . S
O223 Nd200 2.682 . S
O223 Nd201 2.414 . S
O223 C209 1.273 . S
O224 Nd200 2.410 . S
O224 C210 1.251 . S
O225 Nd201 2.424 . S
O225 C210 1.268 . S
O226 Nd201 2.500 . S
O226 C211 1.258 . S
O227 Nd201 2.492 . S
O227 C211 1.239 . S
O228 Nd201 2.487 . S
O228 C218 1.241 . S
O229 Nd200 2.414 . S
O229 Nd201 2.682 . S
O229 C218 1.273 . S
O230 Nd201 2.410 . S
O230 C219 1.251 . S
O231 Nd200 2.424 . S
O231 C219 1.268 . S
H232 C204 0.930 . S
H233 C205 0.929 . S
H234 C207 0.930 . S
H235 C208 0.929 . S
H236 C213 0.930 . S
H237 C214 0.929 . S
H238 C216 0.930 . S
H239 C217 0.929 . S
Nd240 C242 2.836 . S
Nd240 O260 2.500 . S
Nd240 O261 2.492 . S
Nd240 O262 2.487 . S
Nd240 O263 2.682 . S
Nd240 O264 2.410 . S
Nd240 O269 2.414 . S
Nd240 O271 2.424 . S
Nd241 C251 2.836 . S
Nd241 O263 2.414 . S
Nd241 O265 2.424 . S
Nd241 O266 2.500 . S
Nd241 O267 2.492 . S
Nd241 O268 2.487 . S
Nd241 O269 2.682 . S
Nd241 O270 2.410 . S
C242 Nd240 2.836 . S
C242 C243 1.498 . S
C242 O260 1.258 . S
C242 O261 1.239 . S
C243 C242 1.498 . S
C243 C244 1.366 . S
C243 C248 1.407 . S
C244 C243 1.366 . S
C244 C245 1.392 . S
C244 H272 0.930 . S
C245 C244 1.392 . S
C245 C246 1.398 . S
C245 H273 0.929 . S
C246 C245 1.398 . S
C246 C247 1.352 . S
C247 C246 1.352 . S
C247 C248 1.384 . S
C247 H274 0.930 . S
C248 C243 1.407 . S
C248 C247 1.384 . S
C248 H275 0.929 . S
C249 O262 1.241 . S
C249 O263 1.273 . S
C250 O264 1.251 . S
C250 O265 1.268 . S
C251 Nd241 2.836 . S
C251 C252 1.498 1_554 S
C251 O266 1.258 . S
C251 O267 1.239 . S
C252 C251 1.498 1_556 S
C252 C253 1.366 . S
C252 C257 1.407 . S
C253 C252 1.366 . S
C253 C254 1.392 . S
C253 H276 0.930 . S
C254 C253 1.392 . S
C254 C255 1.398 . S
C254 H277 0.929 . S
C255 C254 1.398 . S
C255 C256 1.352 . S
C256 C255 1.352 . S
C256 C257 1.384 . S
C256 H278 0.930 . S
C257 C252 1.407 . S
C257 C256 1.384 . S
C257 H279 0.929 . S
C258 O268 1.241 . S
C258 O269 1.273 . S
C259 O270 1.251 . S
C259 O271 1.268 . S
O260 Nd240 2.500 . S
O260 C242 1.258 . S
O261 Nd240 2.492 . S
O261 C242 1.239 . S
O262 Nd240 2.487 . S
O262 C249 1.241 . S
O263 Nd240 2.682 . S
O263 Nd241 2.414 . S
O263 C249 1.273 . S
O264 Nd240 2.410 . S
O264 C250 1.251 . S
O265 Nd241 2.424 . S
O265 C250 1.268 . S
O266 Nd241 2.500 . S
O266 C251 1.258 . S
O267 Nd241 2.492 . S
O267 C251 1.239 . S
O268 Nd241 2.487 . S
O268 C258 1.241 . S
O269 Nd240 2.414 . S
O269 Nd241 2.682 . S
O269 C258 1.273 . S
O270 Nd241 2.410 . S
O270 C259 1.251 . S
O271 Nd240 2.424 . S
O271 C259 1.268 . S
H272 C244 0.930 . S
H273 C245 0.929 . S
H274 C247 0.930 . S
H275 C248 0.929 . S
H276 C253 0.930 . S
H277 C254 0.929 . S
H278 C256 0.930 . S
H279 C257 0.929 . S
Nd280 C282 2.836 . S
Nd280 O300 2.500 . S
Nd280 O301 2.492 . S
Nd280 O302 2.487 . S
Nd280 O303 2.682 . S
Nd280 O304 2.410 . S
Nd280 O309 2.414 . S
Nd280 O311 2.424 . S
Nd281 C291 2.836 . S
Nd281 O303 2.414 . S
Nd281 O305 2.424 . S
Nd281 O306 2.500 . S
Nd281 O307 2.492 . S
Nd281 O308 2.487 . S
Nd281 O309 2.682 . S
Nd281 O310 2.410 . S
C282 Nd280 2.836 . S
C282 C283 1.498 . S
C282 O300 1.258 . S
C282 O301 1.239 . S
C283 C282 1.498 . S
C283 C284 1.366 . S
C283 C288 1.407 . S
C284 C283 1.366 . S
C284 C285 1.392 . S
C284 H312 0.930 . S
C285 C284 1.392 . S
C285 C286 1.398 . S
C285 H313 0.929 . S
C286 C285 1.398 . S
C286 C287 1.352 . S
C287 C286 1.352 . S
C287 C288 1.384 . S
C287 H314 0.930 . S
C288 C283 1.407 . S
C288 C287 1.384 . S
C288 H315 0.929 . S
C289 O302 1.241 . S
C289 O303 1.273 . S
C290 O304 1.251 . S
C290 O305 1.268 . S
C291 Nd281 2.836 . S
C291 C292 1.498 1_554 S
C291 O306 1.258 . S
C291 O307 1.239 . S
C292 C291 1.498 1_556 S
C292 C293 1.366 . S
C292 C297 1.407 . S
C293 C292 1.366 . S
C293 C294 1.392 . S
C293 H316 0.930 . S
C294 C293 1.392 . S
C294 C295 1.398 . S
C294 H317 0.929 . S
C295 C294 1.398 . S
C295 C296 1.352 . S
C296 C295 1.352 . S
C296 C297 1.384 . S
C296 H318 0.930 . S
C297 C292 1.407 . S
C297 C296 1.384 . S
C297 H319 0.929 . S
C298 O308 1.241 . S
C298 O309 1.273 . S
C299 O310 1.251 . S
C299 O311 1.268 . S
O300 Nd280 2.500 . S
O300 C282 1.258 . S
O301 Nd280 2.492 . S
O301 C282 1.239 . S
O302 Nd280 2.487 . S
O302 C289 1.241 . S
O303 Nd280 2.682 . S
O303 Nd281 2.414 . S
O303 C289 1.273 . S
O304 Nd280 2.410 . S
O304 C290 1.251 . S
O305 Nd281 2.424 . S
O305 C290 1.268 . S
O306 Nd281 2.500 . S
O306 C291 1.258 . S
O307 Nd281 2.492 . S
O307 C291 1.239 . S
O308 Nd281 2.487 . S
O308 C298 1.241 . S
O309 Nd280 2.414 . S
O309 Nd281 2.682 . S
O309 C298 1.273 . S
O310 Nd281 2.410 . S
O310 C299 1.251 . S
O311 Nd280 2.424 . S
O311 C299 1.268 . S
H312 C284 0.930 . S
H313 C285 0.929 . S
H314 C287 0.930 . S
H315 C288 0.929 . S
H316 C293 0.930 . S
H317 C294 0.929 . S
H318 C296 0.930 . S
H319 C297 0.929 . S
Nd320 C322 2.836 . S
Nd320 O340 2.500 . S
Nd320 O341 2.492 . S
Nd320 O342 2.487 . S
Nd320 O343 2.682 . S
Nd320 O344 2.410 . S
Nd320 O349 2.414 . S
Nd320 O351 2.424 . S
Nd321 C331 2.836 . S
Nd321 O343 2.414 . S
Nd321 O345 2.424 . S
Nd321 O346 2.500 . S
Nd321 O347 2.492 . S
Nd321 O348 2.487 . S
Nd321 O349 2.682 . S
Nd321 O350 2.410 . S
C322 Nd320 2.836 . S
C322 C323 1.498 . S
C322 O340 1.258 . S
C322 O341 1.239 . S
C323 C322 1.498 . S
C323 C324 1.366 . S
C323 C328 1.407 . S
C324 C323 1.366 . S
C324 C325 1.392 . S
C324 H352 0.930 . S
C325 C324 1.392 . S
C325 C326 1.398 . S
C325 H353 0.929 . S
C326 C325 1.398 . S
C326 C327 1.352 . S
C327 C326 1.352 . S
C327 C328 1.384 . S
C327 H354 0.930 . S
C328 C323 1.407 . S
C328 C327 1.384 . S
C328 H355 0.929 . S
C329 O342 1.241 . S
C329 O343 1.273 . S
C330 O344 1.251 . S
C330 O345 1.268 . S
C331 Nd321 2.836 . S
C331 C332 1.498 1_554 S
C331 O346 1.258 . S
C331 O347 1.239 . S
C332 C331 1.498 1_556 S
C332 C333 1.366 . S
C332 C337 1.407 . S
C333 C332 1.366 . S
C333 C334 1.392 . S
C333 H356 0.930 . S
C334 C333 1.392 . S
C334 C335 1.398 . S
C334 H357 0.929 . S
C335 C334 1.398 . S
C335 C336 1.352 . S
C336 C335 1.352 . S
C336 C337 1.384 . S
C336 H358 0.930 . S
C337 C332 1.407 . S
C337 C336 1.384 . S
C337 H359 0.929 . S
C338 O348 1.241 . S
C338 O349 1.273 . S
C339 O350 1.251 . S
C339 O351 1.268 . S
O340 Nd320 2.500 . S
O340 C322 1.258 . S
O341 Nd320 2.492 . S
O341 C322 1.239 . S
O342 Nd320 2.487 . S
O342 C329 1.241 . S
O343 Nd320 2.682 . S
O343 Nd321 2.414 . S
O343 C329 1.273 . S
O344 Nd320 2.410 . S
O344 C330 1.251 . S
O345 Nd321 2.424 . S
O345 C330 1.268 . S
O346 Nd321 2.500 . S
O346 C331 1.258 . S
O347 Nd321 2.492 . S
O347 C331 1.239 . S
O348 Nd321 2.487 . S
O348 C338 1.241 . S
O349 Nd320 2.414 . S
O349 Nd321 2.682 . S
O349 C338 1.273 . S
O350 Nd321 2.410 . S
O350 C339 1.251 . S
O351 Nd320 2.424 . S
O351 C339 1.268 . S
H352 C324 0.930 . S
H353 C325 0.929 . S
H354 C327 0.930 . S
H355 C328 0.929 . S
H356 C333 0.930 . S
H357 C334 0.929 . S
H358 C336 0.930 . S
H359 C337 0.929 . S
Nd360 C362 2.836 . S
Nd360 O380 2.500 . S
Nd360 O381 2.492 . S
Nd360 O382 2.487 . S
Nd360 O383 2.682 . S
Nd360 O384 2.410 . S
Nd360 O389 2.414 . S
Nd360 O391 2.424 . S
Nd361 C371 2.836 . S
Nd361 O383 2.414 . S
Nd361 O385 2.424 . S
Nd361 O386 2.500 . S
Nd361 O387 2.492 . S
Nd361 O388 2.487 . S
Nd361 O389 2.682 . S
Nd361 O390 2.410 . S
C362 Nd360 2.836 . S
C362 C363 1.498 . S
C362 O380 1.258 . S
C362 O381 1.239 . S
C363 C362 1.498 . S
C363 C364 1.366 . S
C363 C368 1.407 . S
C364 C363 1.366 . S
C364 C365 1.392 . S
C364 H392 0.930 . S
C365 C364 1.392 . S
C365 C366 1.398 . S
C365 H393 0.929 . S
C366 C365 1.398 . S
C366 C367 1.352 . S
C367 C366 1.352 . S
C367 C368 1.384 . S
C367 H394 0.930 . S
C368 C363 1.407 . S
C368 C367 1.384 . S
C368 H395 0.929 . S
C369 O382 1.241 . S
C369 O383 1.273 . S
C370 O384 1.251 . S
C370 O385 1.268 . S
C371 Nd361 2.836 . S
C371 C372 1.498 . S
C371 O386 1.258 . S
C371 O387 1.239 . S
C372 C371 1.498 . S
C372 C373 1.366 . S
C372 C377 1.407 . S
C373 C372 1.366 . S
C373 C374 1.392 . S
C373 H396 0.930 . S
C374 C373 1.392 . S
C374 C375 1.398 . S
C374 H397 0.929 . S
C375 C374 1.398 . S
C375 C376 1.352 . S
C376 C375 1.352 . S
C376 C377 1.384 . S
C376 H398 0.930 . S
C377 C372 1.407 . S
C377 C376 1.384 . S
C377 H399 0.929 . S
C378 O388 1.241 . S
C378 O389 1.273 . S
C379 O390 1.251 . S
C379 O391 1.268 . S
O380 Nd360 2.500 . S
O380 C362 1.258 . S
O381 Nd360 2.492 . S
O381 C362 1.239 . S
O382 Nd360 2.487 . S
O382 C369 1.241 . S
O383 Nd360 2.682 . S
O383 Nd361 2.414 . S
O383 C369 1.273 . S
O384 Nd360 2.410 . S
O384 C370 1.251 . S
O385 Nd361 2.424 . S
O385 C370 1.268 . S
O386 Nd361 2.500 . S
O386 C371 1.258 . S
O387 Nd361 2.492 . S
O387 C371 1.239 . S
O388 Nd361 2.487 . S
O388 C378 1.241 . S
O389 Nd360 2.414 . S
O389 Nd361 2.682 . S
O389 C378 1.273 . S
O390 Nd361 2.410 . S
O390 C379 1.251 . S
O391 Nd360 2.424 . S
O391 C379 1.268 . S
H392 C364 0.930 . S
H393 C365 0.929 . S
H394 C367 0.930 . S
H395 C368 0.929 . S
H396 C373 0.930 . S
H397 C374 0.929 . S
H398 C376 0.930 . S
H399 C377 0.929 . S
Nd400 C402 2.836 . S
Nd400 O420 2.500 . S
Nd400 O421 2.492 . S
Nd400 O422 2.487 . S
Nd400 O423 2.682 . S
Nd400 O424 2.410 . S
Nd400 O429 2.414 . S
Nd400 O431 2.424 . S
Nd401 C411 2.836 . S
Nd401 O423 2.414 . S
Nd401 O425 2.424 . S
Nd401 O426 2.500 . S
Nd401 O427 2.492 . S
Nd401 O428 2.487 . S
Nd401 O429 2.682 . S
Nd401 O430 2.410 . S
C402 Nd400 2.836 . S
C402 C403 1.498 . S
C402 O420 1.258 . S
C402 O421 1.239 . S
C403 C402 1.498 . S
C403 C404 1.366 . S
C403 C408 1.407 . S
C404 C403 1.366 . S
C404 C405 1.392 . S
C404 H432 0.930 . S
C405 C404 1.392 . S
C405 C406 1.398 . S
C405 H433 0.929 . S
C406 C405 1.398 . S
C406 C407 1.352 . S
C407 C406 1.352 . S
C407 C408 1.384 . S
C407 H434 0.930 . S
C408 C403 1.407 . S
C408 C407 1.384 . S
C408 H435 0.929 . S
C409 O422 1.241 . S
C409 O423 1.273 . S
C410 O424 1.251 . S
C410 O425 1.268 . S
C411 Nd401 2.836 . S
C411 C412 1.498 . S
C411 O426 1.258 . S
C411 O427 1.239 . S
C412 C411 1.498 . S
C412 C413 1.366 . S
C412 C417 1.407 . S
C413 C412 1.366 . S
C413 C414 1.392 . S
C413 H436 0.930 . S
C414 C413 1.392 . S
C414 C415 1.398 . S
C414 H437 0.929 . S
C415 C414 1.398 . S
C415 C416 1.352 . S
C416 C415 1.352 . S
C416 C417 1.384 . S
C416 H438 0.930 . S
C417 C412 1.407 . S
C417 C416 1.384 . S
C417 H439 0.929 . S
C418 O428 1.241 . S
C418 O429 1.273 . S
C419 O430 1.251 . S
C419 O431 1.268 . S
O420 Nd400 2.500 . S
O420 C402 1.258 . S
O421 Nd400 2.492 . S
O421 C402 1.239 . S
O422 Nd400 2.487 . S
O422 C409 1.241 . S
O423 Nd400 2.682 . S
O423 Nd401 2.414 . S
O423 C409 1.273 . S
O424 Nd400 2.410 . S
O424 C410 1.251 . S
O425 Nd401 2.424 . S
O425 C410 1.268 . S
O426 Nd401 2.500 . S
O426 C411 1.258 . S
O427 Nd401 2.492 . S
O427 C411 1.239 . S
O428 Nd401 2.487 . S
O428 C418 1.241 . S
O429 Nd400 2.414 . S
O429 Nd401 2.682 . S
O429 C418 1.273 . S
O430 Nd401 2.410 . S
O430 C419 1.251 . S
O431 Nd400 2.424 . S
O431 C419 1.268 . S
H432 C404 0.930 . S
H433 C405 0.929 . S
H434 C407 0.930 . S
H435 C408 0.929 . S
H436 C413 0.930 . S
H437 C414 0.929 . S
H438 C416 0.930 . S
H439 C417 0.929 . S
Nd440 C442 2.836 . S
Nd440 O460 2.500 . S
Nd440 O461 2.492 . S
Nd440 O462 2.487 . S
Nd440 O463 2.682 . S
Nd440 O464 2.410 . S
Nd440 O469 2.414 . S
Nd440 O471 2.424 . S
Nd441 C451 2.836 . S
Nd441 O463 2.414 . S
Nd441 O465 2.424 . S
Nd441 O466 2.500 . S
Nd441 O467 2.492 . S
Nd441 O468 2.487 . S
Nd441 O469 2.682 . S
Nd441 O470 2.410 . S
C442 Nd440 2.836 . S
C442 C443 1.498 . S
C442 O460 1.258 . S
C442 O461 1.239 . S
C443 C442 1.498 . S
C443 C444 1.366 . S
C443 C448 1.407 . S
C444 C443 1.366 . S
C444 C445 1.392 . S
C444 H472 0.930 . S
C445 C444 1.392 . S
C445 C446 1.398 . S
C445 H473 0.929 . S
C446 C445 1.398 . S
C446 C447 1.352 . S
C447 C446 1.352 . S
C447 C448 1.384 . S
C447 H474 0.930 . S
C448 C443 1.407 . S
C448 C447 1.384 . S
C448 H475 0.929 . S
C449 O462 1.241 . S
C449 O463 1.273 . S
C450 O464 1.251 . S
C450 O465 1.268 . S
C451 Nd441 2.836 . S
C451 C452 1.498 . S
C451 O466 1.258 . S
C451 O467 1.239 . S
C452 C451 1.498 . S
C452 C453 1.366 . S
C452 C457 1.407 . S
C453 C452 1.366 . S
C453 C454 1.392 . S
C453 H476 0.930 . S
C454 C453 1.392 . S
C454 C455 1.398 . S
C454 H477 0.929 . S
C455 C454 1.398 . S
C455 C456 1.352 . S
C456 C455 1.352 . S
C456 C457 1.384 . S
C456 H478 0.930 . S
C457 C452 1.407 . S
C457 C456 1.384 . S
C457 H479 0.929 . S
C458 O468 1.241 . S
C458 O469 1.273 . S
C459 O470 1.251 . S
C459 O471 1.268 . S
O460 Nd440 2.500 . S
O460 C442 1.258 . S
O461 Nd440 2.492 . S
O461 C442 1.239 . S
O462 Nd440 2.487 . S
O462 C449 1.241 . S
O463 Nd440 2.682 . S
O463 Nd441 2.414 . S
O463 C449 1.273 . S
O464 Nd440 2.410 . S
O464 C450 1.251 . S
O465 Nd441 2.424 . S
O465 C450 1.268 . S
O466 Nd441 2.500 . S
O466 C451 1.258 . S
O467 Nd441 2.492 . S
O467 C451 1.239 . S
O468 Nd441 2.487 . S
O468 C458 1.241 . S
O469 Nd440 2.414 . S
O469 Nd441 2.682 . S
O469 C458 1.273 . S
O470 Nd441 2.410 . S
O470 C459 1.251 . S
O471 Nd440 2.424 . S
O471 C459 1.268 . S
H472 C444 0.930 . S
H473 C445 0.929 . S
H474 C447 0.930 . S
H475 C448 0.929 . S
H476 C453 0.930 . S
H477 C454 0.929 . S
H478 C456 0.930 . S
H479 C457 0.929 . S
Nd480 C482 2.836 . S
Nd480 O500 2.500 . S
Nd480 O501 2.492 . S
Nd480 O502 2.487 . S
Nd480 O503 2.682 . S
Nd480 O504 2.410 . S
Nd480 O509 2.414 . S
Nd480 O511 2.424 . S
Nd481 C491 2.836 . S
Nd481 O503 2.414 . S
Nd481 O505 2.424 . S
Nd481 O506 2.500 . S
Nd481 O507 2.492 . S
Nd481 O508 2.487 . S
Nd481 O509 2.682 . S
Nd481 O510 2.410 . S
C482 Nd480 2.836 . S
C482 C483 1.498 . S
C482 O500 1.258 . S
C482 O501 1.239 . S
C483 C482 1.498 . S
C483 C484 1.366 . S
C483 C488 1.407 . S
C484 C483 1.366 . S
C484 C485 1.392 . S
C484 H512 0.930 . S
C485 C484 1.392 . S
C485 C486 1.398 . S
C485 H513 0.929 . S
C486 C485 1.398 . S
C486 C487 1.352 . S
C487 C486 1.352 . S
C487 C488 1.384 . S
C487 H514 0.930 . S
C488 C483 1.407 . S
C488 C487 1.384 . S
C488 H515 0.929 . S
C489 O502 1.241 . S
C489 O503 1.273 . S
C490 O504 1.251 . S
C490 O505 1.268 . S
C491 Nd481 2.836 . S
C491 C492 1.498 . S
C491 O506 1.258 . S
C491 O507 1.239 . S
C492 C491 1.498 . S
C492 C493 1.366 . S
C492 C497 1.407 . S
C493 C492 1.366 . S
C493 C494 1.392 . S
C493 H516 0.930 . S
C494 C493 1.392 . S
C494 C495 1.398 . S
C494 H517 0.929 . S
C495 C494 1.398 . S
C495 C496 1.352 . S
C496 C495 1.352 . S
C496 C497 1.384 . S
C496 H518 0.930 . S
C497 C492 1.407 . S
C497 C496 1.384 . S
C497 H519 0.929 . S
C498 O508 1.241 . S
C498 O509 1.273 . S
C499 O510 1.251 . S
C499 O511 1.268 . S
O500 Nd480 2.500 . S
O500 C482 1.258 . S
O501 Nd480 2.492 . S
O501 C482 1.239 . S
O502 Nd480 2.487 . S
O502 C489 1.241 . S
O503 Nd480 2.682 . S
O503 Nd481 2.414 . S
O503 C489 1.273 . S
O504 Nd480 2.410 . S
O504 C490 1.251 . S
O505 Nd481 2.424 . S
O505 C490 1.268 . S
O506 Nd481 2.500 . S
O506 C491 1.258 . S
O507 Nd481 2.492 . S
O507 C491 1.239 . S
O508 Nd481 2.487 . S
O508 C498 1.241 . S
O509 Nd480 2.414 . S
O509 Nd481 2.682 . S
O509 C498 1.273 . S
O510 Nd481 2.410 . S
O510 C499 1.251 . S
O511 Nd480 2.424 . S
O511 C499 1.268 . S
H512 C484 0.930 . S
H513 C485 0.929 . S
H514 C487 0.930 . S
H515 C488 0.929 . S
H516 C493 0.930 . S
H517 C494 0.929 . S
H518 C496 0.930 . S
H519 C497 0.929 . S
Nd520 C522 2.836 . S
Nd520 O540 2.500 . S
Nd520 O541 2.492 . S
Nd520 O542 2.487 . S
Nd520 O543 2.682 . S
Nd520 O544 2.410 . S
Nd520 O549 2.414 . S
Nd520 O551 2.424 . S
Nd521 C531 2.836 . S
Nd521 O543 2.414 . S
Nd521 O545 2.424 . S
Nd521 O546 2.500 . S
Nd521 O547 2.492 . S
Nd521 O548 2.487 . S
Nd521 O549 2.682 . S
Nd521 O550 2.410 . S
C522 Nd520 2.836 . S
C522 C523 1.498 . S
C522 O540 1.258 . S
C522 O541 1.239 . S
C523 C522 1.498 . S
C523 C524 1.366 . S
C523 C528 1.407 . S
C524 C523 1.366 . S
C524 C525 1.392 . S
C524 H552 0.930 . S
C525 C524 1.392 . S
C525 C526 1.398 . S
C525 H553 0.929 . S
C526 C525 1.398 . S
C526 C527 1.352 . S
C527 C526 1.352 . S
C527 C528 1.384 . S
C527 H554 0.930 . S
C528 C523 1.407 . S
C528 C527 1.384 . S
C528 H555 0.929 . S
C529 O542 1.241 . S
C529 O543 1.273 . S
C530 O544 1.251 . S
C530 O545 1.268 . S
C531 Nd521 2.836 . S
C531 C532 1.498 . S
C531 O546 1.258 . S
C531 O547 1.239 . S
C532 C531 1.498 . S
C532 C533 1.366 . S
C532 C537 1.407 . S
C533 C532 1.366 . S
C533 C534 1.392 . S
C533 H556 0.930 . S
C534 C533 1.392 . S
C534 C535 1.398 . S
C534 H557 0.929 . S
C535 C534 1.398 . S
C535 C536 1.352 . S
C536 C535 1.352 . S
C536 C537 1.384 . S
C536 H558 0.930 . S
C537 C532 1.407 . S
C537 C536 1.384 . S
C537 H559 0.929 . S
C538 O548 1.241 . S
C538 O549 1.273 . S
C539 O550 1.251 . S
C539 O551 1.268 . S
O540 Nd520 2.500 . S
O540 C522 1.258 . S
O541 Nd520 2.492 . S
O541 C522 1.239 . S
O542 Nd520 2.487 . S
O542 C529 1.241 . S
O543 Nd520 2.682 . S
O543 Nd521 2.414 . S
O543 C529 1.273 . S
O544 Nd520 2.410 . S
O544 C530 1.251 . S
O545 Nd521 2.424 . S
O545 C530 1.268 . S
O546 Nd521 2.500 . S
O546 C531 1.258 . S
O547 Nd521 2.492 . S
O547 C531 1.239 . S
O548 Nd521 2.487 . S
O548 C538 1.241 . S
O549 Nd520 2.414 . S
O549 Nd521 2.682 . S
O549 C538 1.273 . S
O550 Nd521 2.410 . S
O550 C539 1.251 . S
O551 Nd520 2.424 . S
O551 C539 1.268 . S
H552 C524 0.930 . S
H553 C525 0.929 . S
H554 C527 0.930 . S
H555 C528 0.929 . S
H556 C533 0.930 . S
H557 C534 0.929 . S
H558 C536 0.930 . S
H559 C537 0.929 . S
Nd560 C562 2.836 . S
Nd560 O580 2.500 . S
Nd560 O581 2.492 . S
Nd560 O582 2.487 . S
Nd560 O583 2.682 . S
Nd560 O584 2.410 . S
Nd560 O589 2.414 . S
Nd560 O591 2.424 . S
Nd561 C571 2.836 . S
Nd561 O583 2.414 . S
Nd561 O585 2.424 . S
Nd561 O586 2.500 . S
Nd561 O587 2.492 . S
Nd561 O588 2.487 . S
Nd561 O589 2.682 . S
Nd561 O590 2.410 . S
C562 Nd560 2.836 . S
C562 C563 1.498 . S
C562 O580 1.258 . S
C562 O581 1.239 . S
C563 C562 1.498 . S
C563 C564 1.366 . S
C563 C568 1.407 . S
C564 C563 1.366 . S
C564 C565 1.392 . S
C564 H592 0.930 . S
C565 C564 1.392 . S
C565 C566 1.398 . S
C565 H593 0.929 . S
C566 C565 1.398 . S
C566 C567 1.352 . S
C567 C566 1.352 . S
C567 C568 1.384 . S
C567 H594 0.930 . S
C568 C563 1.407 . S
C568 C567 1.384 . S
C568 H595 0.929 . S
C569 O582 1.241 . S
C569 O583 1.273 . S
C570 O584 1.251 . S
C570 O585 1.268 . S
C571 Nd561 2.836 . S
C571 C572 1.498 . S
C571 O586 1.258 . S
C571 O587 1.239 . S
C572 C571 1.498 . S
C572 C573 1.366 . S
C572 C577 1.407 . S
C573 C572 1.366 . S
C573 C574 1.392 . S
C573 H596 0.930 . S
C574 C573 1.392 . S
C574 C575 1.398 . S
C574 H597 0.929 . S
C575 C574 1.398 . S
C575 C576 1.352 . S
C576 C575 1.352 . S
C576 C577 1.384 . S
C576 H598 0.930 . S
C577 C572 1.407 . S
C577 C576 1.384 . S
C577 H599 0.929 . S
C578 O588 1.241 . S
C578 O589 1.273 . S
C579 O590 1.251 . S
C579 O591 1.268 . S
O580 Nd560 2.500 . S
O580 C562 1.258 . S
O581 Nd560 2.492 . S
O581 C562 1.239 . S
O582 Nd560 2.487 . S
O582 C569 1.241 . S
O583 Nd560 2.682 . S
O583 Nd561 2.414 . S
O583 C569 1.273 . S
O584 Nd560 2.410 . S
O584 C570 1.251 . S
O585 Nd561 2.424 . S
O585 C570 1.268 . S
O586 Nd561 2.500 . S
O586 C571 1.258 . S
O587 Nd561 2.492 . S
O587 C571 1.239 . S
O588 Nd561 2.487 . S
O588 C578 1.241 . S
O589 Nd560 2.414 . S
O589 Nd561 2.682 . S
O589 C578 1.273 . S
O590 Nd561 2.410 . S
O590 C579 1.251 . S
O591 Nd560 2.424 . S
O591 C579 1.268 . S
H592 C564 0.930 . S
H593 C565 0.929 . S
H594 C567 0.930 . S
H595 C568 0.929 . S
H596 C573 0.930 . S
H597 C574 0.929 . S
H598 C576 0.930 . S
H599 C577 0.929 . S
Nd600 C602 2.836 . S
Nd600 O620 2.500 . S
Nd600 O621 2.492 . S
Nd600 O622 2.487 . S
Nd600 O623 2.682 1_556 S
Nd600 O624 2.410 . S
Nd600 O629 2.414 . S
Nd600 O631 2.424 1_556 S
Nd601 C611 2.836 . S
Nd601 O623 2.414 . S
Nd601 O625 2.424 1_554 S
Nd601 O626 2.500 . S
Nd601 O627 2.492 . S
Nd601 O628 2.491 . S
Nd601 O629 2.682 1_554 S
Nd601 O630 2.410 . S
C602 Nd600 2.836 . S
C602 C603 1.498 . S
C602 O620 1.258 . S
C602 O621 1.239 . S
C603 C602 1.498 . S
C603 C604 1.366 . S
C603 C608 1.407 . S
C604 C603 1.366 . S
C604 C605 1.392 . S
C604 H632 0.930 . S
C605 C604 1.392 . S
C605 C606 1.398 . S
C605 H633 0.929 . S
C606 C605 1.398 . S
C606 C607 1.352 . S
C607 C606 1.352 . S
C607 C608 1.384 . S
C607 H634 0.930 . S
C608 C603 1.407 . S
C608 C607 1.384 . S
C608 H635 0.929 . S
C609 O622 1.241 . S
C609 O623 1.273 1_556 S
C610 O624 1.251 . S
C610 O625 1.268 . S
C611 Nd601 2.836 . S
C611 C612 1.498 . S
C611 O626 1.258 . S
C611 O627 1.239 . S
C612 C611 1.498 . S
C612 C613 1.366 . S
C612 C617 1.407 . S
C613 C612 1.366 . S
C613 C614 1.392 . S
C613 H636 0.930 . S
C614 C613 1.392 . S
C614 C615 1.398 . S
C614 H637 0.929 . S
C615 C614 1.398 . S
C615 C616 1.352 . S
C616 C615 1.352 . S
C616 C617 1.384 . S
C616 H638 0.930 . S
C617 C612 1.407 . S
C617 C616 1.384 . S
C617 H639 0.929 . S
C618 O628 1.226 1_556 S
C618 O629 1.273 . S
C619 O630 1.251 . S
C619 O631 1.268 . S
O620 Nd600 2.500 . S
O620 C602 1.258 . S
O621 Nd600 2.492 . S
O621 C602 1.239 . S
O622 Nd600 2.487 . S
O622 C609 1.241 . S
O623 Nd600 2.682 1_554 S
O623 Nd601 2.414 . S
O623 C609 1.273 1_554 S
O624 Nd600 2.410 . S
O624 C610 1.251 . S
O625 Nd601 2.424 1_556 S
O625 C610 1.268 . S
O626 Nd601 2.500 . S
O626 C611 1.258 . S
O627 Nd601 2.492 . S
O627 C611 1.239 . S
O628 Nd601 2.491 . S
O628 C618 1.226 1_554 S
O629 Nd600 2.414 . S
O629 Nd601 2.682 1_556 S
O629 C618 1.273 . S
O630 Nd601 2.410 . S
O630 C619 1.251 . S
O631 Nd600 2.424 1_554 S
O631 C619 1.268 . S
H632 C604 0.930 . S
H633 C605 0.929 . S
H634 C607 0.930 . S
H635 C608 0.929 . S
H636 C613 0.930 . S
H637 C614 0.929 . S
H638 C616 0.930 . S
H639 C617 0.929 . S
Nd640 C642 2.836 . S
Nd640 O660 2.500 . S
Nd640 O661 2.492 . S
Nd640 O662 2.487 . S
Nd640 O663 2.682 1_556 S
Nd640 O664 2.410 . S
Nd640 O669 2.414 . S
Nd640 O671 2.424 1_556 S
Nd641 C651 2.836 . S
Nd641 O663 2.414 . S
Nd641 O665 2.424 1_554 S
Nd641 O666 2.500 . S
Nd641 O667 2.492 . S
Nd641 O668 2.491 . S
Nd641 O669 2.682 1_554 S
Nd641 O670 2.410 . S
C642 Nd640 2.836 . S
C642 C643 1.498 . S
C642 O660 1.258 . S
C642 O661 1.239 . S
C643 C642 1.498 . S
C643 C644 1.366 . S
C643 C648 1.407 . S
C644 C643 1.366 . S
C644 C645 1.392 . S
C644 H672 0.930 . S
C645 C644 1.392 . S
C645 C646 1.398 . S
C645 H673 0.929 . S
C646 C645 1.398 . S
C646 C647 1.352 . S
C647 C646 1.352 . S
C647 C648 1.384 . S
C647 H674 0.930 . S
C648 C643 1.407 . S
C648 C647 1.384 . S
C648 H675 0.929 . S
C649 O662 1.241 . S
C649 O663 1.273 1_556 S
C650 O664 1.251 . S
C650 O665 1.268 . S
C651 Nd641 2.836 . S
C651 C652 1.498 . S
C651 O666 1.258 . S
C651 O667 1.239 . S
C652 C651 1.498 . S
C652 C653 1.366 . S
C652 C657 1.407 . S
C653 C652 1.366 . S
C653 C654 1.392 . S
C653 H676 0.930 . S
C654 C653 1.392 . S
C654 C655 1.398 . S
C654 H677 0.929 . S
C655 C654 1.398 . S
C655 C656 1.352 . S
C656 C655 1.352 . S
C656 C657 1.384 . S
C656 H678 0.930 . S
C657 C652 1.407 . S
C657 C656 1.384 . S
C657 H679 0.929 . S
C658 O668 1.226 1_556 S
C658 O669 1.273 . S
C659 O670 1.251 . S
C659 O671 1.268 . S
O660 Nd640 2.500 . S
O660 C642 1.258 . S
O661 Nd640 2.492 . S
O661 C642 1.239 . S
O662 Nd640 2.487 . S
O662 C649 1.241 . S
O663 Nd640 2.682 1_554 S
O663 Nd641 2.414 . S
O663 C649 1.273 1_554 S
O664 Nd640 2.410 . S
O664 C650 1.251 . S
O665 Nd641 2.424 1_556 S
O665 C650 1.268 . S
O666 Nd641 2.500 . S
O666 C651 1.258 . S
O667 Nd641 2.492 . S
O667 C651 1.239 . S
O668 Nd641 2.491 . S
O668 C658 1.226 1_554 S
O669 Nd640 2.414 . S
O669 Nd641 2.682 1_556 S
O669 C658 1.273 . S
O670 Nd641 2.410 . S
O670 C659 1.251 . S
O671 Nd640 2.424 1_554 S
O671 C659 1.268 . S
H672 C644 0.930 . S
H673 C645 0.929 . S
H674 C647 0.930 . S
H675 C648 0.929 . S
H676 C653 0.930 . S
H677 C654 0.929 . S
H678 C656 0.930 . S
H679 C657 0.929 . S
Nd680 C682 2.836 . S
Nd680 O700 2.500 . S
Nd680 O701 2.492 . S
Nd680 O702 2.487 . S
Nd680 O703 2.682 1_556 S
Nd680 O704 2.410 . S
Nd680 O709 2.414 . S
Nd680 O711 2.424 1_556 S
Nd681 C691 2.836 . S
Nd681 O703 2.414 . S
Nd681 O705 2.424 1_554 S
Nd681 O706 2.500 . S
Nd681 O707 2.492 . S
Nd681 O708 2.491 . S
Nd681 O709 2.682 1_554 S
Nd681 O710 2.410 . S
C682 Nd680 2.836 . S
C682 C683 1.498 . S
C682 O700 1.258 . S
C682 O701 1.239 . S
C683 C682 1.498 . S
C683 C684 1.366 . S
C683 C688 1.407 . S
C684 C683 1.366 . S
C684 C685 1.392 . S
C684 H712 0.930 . S
C685 C684 1.392 . S
C685 C686 1.398 . S
C685 H713 0.929 . S
C686 C685 1.398 . S
C686 C687 1.352 . S
C687 C686 1.352 . S
C687 C688 1.384 . S
C687 H714 0.930 . S
C688 C683 1.407 . S
C688 C687 1.384 . S
C688 H715 0.929 . S
C689 O702 1.241 . S
C689 O703 1.273 1_556 S
C690 O704 1.251 . S
C690 O705 1.268 . S
C691 Nd681 2.836 . S
C691 C692 1.498 . S
C691 O706 1.258 . S
C691 O707 1.239 . S
C692 C691 1.498 . S
C692 C693 1.366 . S
C692 C697 1.407 . S
C693 C692 1.366 . S
C693 C694 1.392 . S
C693 H716 0.930 . S
C694 C693 1.392 . S
C694 C695 1.398 . S
C694 H717 0.929 . S
C695 C694 1.398 . S
C695 C696 1.352 . S
C696 C695 1.352 . S
C696 C697 1.384 . S
C696 H718 0.930 . S
C697 C692 1.407 . S
C697 C696 1.384 . S
C697 H719 0.929 . S
C698 O708 1.226 1_556 S
C698 O709 1.273 . S
C699 O710 1.251 . S
C699 O711 1.268 . S
O700 Nd680 2.500 . S
O700 C682 1.258 . S
O701 Nd680 2.492 . S
O701 C682 1.239 . S
O702 Nd680 2.487 . S
O702 C689 1.241 . S
O703 Nd680 2.682 1_554 S
O703 Nd681 2.414 . S
O703 C689 1.273 1_554 S
O704 Nd680 2.410 . S
O704 C690 1.251 . S
O705 Nd681 2.424 1_556 S
O705 C690 1.268 . S
O706 Nd681 2.500 . S
O706 C691 1.258 . S
O707 Nd681 2.492 . S
O707 C691 1.239 . S
O708 Nd681 2.491 . S
O708 C698 1.226 1_554 S
O709 Nd680 2.414 . S
O709 Nd681 2.682 1_556 S
O709 C698 1.273 . S
O710 Nd681 2.410 . S
O710 C699 1.251 . S
O711 Nd680 2.424 1_554 S
O711 C699 1.268 . S
H712 C684 0.930 . S
H713 C685 0.929 . S
H714 C687 0.930 . S
H715 C688 0.929 . S
H716 C693 0.930 . S
H717 C694 0.929 . S
H718 C696 0.930 . S
H719 C697 0.929 . S
Nd720 C722 2.836 . S
Nd720 O740 2.500 . S
Nd720 O741 2.492 . S
Nd720 O742 2.487 . S
Nd720 O743 2.682 . S
Nd720 O744 2.410 . S
Nd720 O749 2.414 . S
Nd720 O751 2.424 . S
Nd721 C731 2.836 . S
Nd721 O743 2.414 . S
Nd721 O745 2.424 . S
Nd721 O746 2.500 . S
Nd721 O747 2.492 . S
Nd721 O748 2.487 . S
Nd721 O749 2.682 . S
Nd721 O750 2.410 . S
C722 Nd720 2.836 . S
C722 C723 1.498 . S
C722 O740 1.258 . S
C722 O741 1.239 . S
C723 C722 1.498 . S
C723 C724 1.366 . S
C723 C728 1.407 . S
C724 C723 1.366 . S
C724 C725 1.392 . S
C724 H752 0.930 . S
C725 C724 1.392 . S
C725 C726 1.398 . S
C725 H753 0.929 . S
C726 C725 1.398 . S
C726 C727 1.352 . S
C727 C726 1.352 . S
C727 C728 1.384 . S
C727 H754 0.930 . S
C728 C723 1.407 . S
C728 C727 1.384 . S
C728 H755 0.929 . S
C729 O742 1.241 . S
C729 O743 1.273 . S
C730 O744 1.251 . S
C730 O745 1.268 . S
C731 Nd721 2.836 . S
C731 C732 1.498 . S
C731 O746 1.258 . S
C731 O747 1.239 . S
C732 C731 1.498 . S
C732 C733 1.366 . S
C732 C737 1.407 . S
C733 C732 1.366 . S
C733 C734 1.392 . S
C733 H756 0.930 . S
C734 C733 1.392 . S
C734 C735 1.398 . S
C734 H757 0.929 . S
C735 C734 1.398 . S
C735 C736 1.352 . S
C736 C735 1.352 . S
C736 C737 1.384 . S
C736 H758 0.930 . S
C737 C732 1.407 . S
C737 C736 1.384 . S
C737 H759 0.929 . S
C738 O748 1.241 . S
C738 O749 1.273 . S
C739 O750 1.251 . S
C739 O751 1.268 . S
O740 Nd720 2.500 . S
O740 C722 1.258 . S
O741 Nd720 2.492 . S
O741 C722 1.239 . S
O742 Nd720 2.487 . S
O742 C729 1.241 . S
O743 Nd720 2.682 . S
O743 Nd721 2.414 . S
O743 C729 1.273 . S
O744 Nd720 2.410 . S
O744 C730 1.251 . S
O745 Nd721 2.424 . S
O745 C730 1.268 . S
O746 Nd721 2.500 . S
O746 C731 1.258 . S
O747 Nd721 2.492 . S
O747 C731 1.239 . S
O748 Nd721 2.487 . S
O748 C738 1.241 . S
O749 Nd720 2.414 . S
O749 Nd721 2.682 . S
O749 C738 1.273 . S
O750 Nd721 2.410 . S
O750 C739 1.251 . S
O751 Nd720 2.424 . S
O751 C739 1.268 . S
H752 C724 0.930 . S
H753 C725 0.929 . S
H754 C727 0.930 . S
H755 C728 0.929 . S
H756 C733 0.930 . S
H757 C734 0.929 . S
H758 C736 0.930 . S
H759 C737 0.929 . S
Nd760 C762 2.836 . S
Nd760 O780 2.500 . S
Nd760 O781 2.492 . S
Nd760 O782 2.487 . S
Nd760 O783 2.682 . S
Nd760 O784 2.410 . S
Nd760 O789 2.414 . S
Nd760 O791 2.424 . S
Nd761 C771 2.836 . S
Nd761 O783 2.414 . S
Nd761 O785 2.424 . S
Nd761 O786 2.500 . S
Nd761 O787 2.492 . S
Nd761 O788 2.487 . S
Nd761 O789 2.682 . S
Nd761 O790 2.410 . S
C762 Nd760 2.836 . S
C762 C763 1.498 . S
C762 O780 1.258 . S
C762 O781 1.239 . S
C763 C762 1.498 . S
C763 C764 1.366 . S
C763 C768 1.407 . S
C764 C763 1.366 . S
C764 C765 1.392 . S
C764 H792 0.930 . S
C765 C764 1.392 . S
C765 C766 1.398 . S
C765 H793 0.929 . S
C766 C765 1.398 . S
C766 C767 1.352 . S
C767 C766 1.352 . S
C767 C768 1.384 . S
C767 H794 0.930 . S
C768 C763 1.407 . S
C768 C767 1.384 . S
C768 H795 0.929 . S
C769 O782 1.241 . S
C769 O783 1.273 . S
C770 O784 1.251 . S
C770 O785 1.268 . S
C771 Nd761 2.836 . S
C771 C772 1.498 . S
C771 O786 1.258 . S
C771 O787 1.239 . S
C772 C771 1.498 . S
C772 C773 1.366 . S
C772 C777 1.407 . S
C773 C772 1.366 . S
C773 C774 1.392 . S
C773 H796 0.930 . S
C774 C773 1.392 . S
C774 C775 1.398 . S
C774 H797 0.929 . S
C775 C774 1.398 . S
C775 C776 1.352 . S
C776 C775 1.352 . S
C776 C777 1.384 . S
C776 H798 0.930 . S
C777 C772 1.407 . S
C777 C776 1.384 . S
C777 H799 0.929 . S
C778 O788 1.241 . S
C778 O789 1.273 . S
C779 O790 1.251 . S
C779 O791 1.268 . S
O780 Nd760 2.500 . S
O780 C762 1.258 . S
O781 Nd760 2.492 . S
O781 C762 1.239 . S
O782 Nd760 2.487 . S
O782 C769 1.241 . S
O783 Nd760 2.682 . S
O783 Nd761 2.414 . S
O783 C769 1.273 . S
O784 Nd760 2.410 . S
O784 C770 1.251 . S
O785 Nd761 2.424 . S
O785 C770 1.268 . S
O786 Nd761 2.500 . S
O786 C771 1.258 . S
O787 Nd761 2.492 . S
O787 C771 1.239 . S
O788 Nd761 2.487 . S
O788 C778 1.241 . S
O789 Nd760 2.414 . S
O789 Nd761 2.682 . S
O789 C778 1.273 . S
O790 Nd761 2.410 . S
O790 C779 1.251 . S
O791 Nd760 2.424 . S
O791 C779 1.268 . S
H792 C764 0.930 . S
H793 C765 0.929 . S
H794 C767 0.930 . S
H795 C768 0.929 . S
H796 C773 0.930 . S
H797 C774 0.929 . S
H798 C776 0.930 . S
H799 C777 0.929 . S
Nd800 C802 2.836 . S
Nd800 O820 2.500 . S
Nd800 O821 2.492 . S
Nd800 O822 2.487 . S
Nd800 O823 2.682 . S
Nd800 O824 2.410 . S
Nd800 O829 2.414 . S
Nd800 O831 2.424 . S
Nd801 C811 2.836 . S
Nd801 O823 2.414 . S
Nd801 O825 2.424 . S
Nd801 O826 2.500 . S
Nd801 O827 2.492 . S
Nd801 O828 2.487 . S
Nd801 O829 2.682 . S
Nd801 O830 2.410 . S
C802 Nd800 2.836 . S
C802 C803 1.498 . S
C802 O820 1.258 . S
C802 O821 1.239 . S
C803 C802 1.498 . S
C803 C804 1.366 . S
C803 C808 1.407 . S
C804 C803 1.366 . S
C804 C805 1.392 . S
C804 H832 0.930 . S
C805 C804 1.392 . S
C805 C806 1.398 . S
C805 H833 0.929 . S
C806 C805 1.398 . S
C806 C807 1.352 . S
C807 C806 1.352 . S
C807 C808 1.384 . S
C807 H834 0.930 . S
C808 C803 1.407 . S
C808 C807 1.384 . S
C808 H835 0.929 . S
C809 O822 1.241 . S
C809 O823 1.273 . S
C810 O824 1.251 . S
C810 O825 1.268 . S
C811 Nd801 2.836 . S
C811 C812 1.498 . S
C811 O826 1.258 . S
C811 O827 1.239 . S
C812 C811 1.498 . S
C812 C813 1.366 . S
C812 C817 1.407 . S
C813 C812 1.366 . S
C813 C814 1.392 . S
C813 H836 0.930 . S
C814 C813 1.392 . S
C814 C815 1.398 . S
C814 H837 0.929 . S
C815 C814 1.398 . S
C815 C816 1.352 . S
C816 C815 1.352 . S
C816 C817 1.384 . S
C816 H838 0.930 . S
C817 C812 1.407 . S
C817 C816 1.384 . S
C817 H839 0.929 . S
C818 O828 1.241 . S
C818 O829 1.273 . S
C819 O830 1.251 . S
C819 O831 1.268 . S
O820 Nd800 2.500 . S
O820 C802 1.258 . S
O821 Nd800 2.492 . S
O821 C802 1.239 . S
O822 Nd800 2.487 . S
O822 C809 1.241 . S
O823 Nd800 2.682 . S
O823 Nd801 2.414 . S
O823 C809 1.273 . S
O824 Nd800 2.410 . S
O824 C810 1.251 . S
O825 Nd801 2.424 . S
O825 C810 1.268 . S
O826 Nd801 2.500 . S
O826 C811 1.258 . S
O827 Nd801 2.492 . S
O827 C811 1.239 . S
O828 Nd801 2.487 . S
O828 C818 1.241 . S
O829 Nd800 2.414 . S
O829 Nd801 2.682 . S
O829 C818 1.273 . S
O830 Nd801 2.410 . S
O830 C819 1.251 . S
O831 Nd800 2.424 . S
O831 C819 1.268 . S
H832 C804 0.930 . S
H833 C805 0.929 . S
H834 C807 0.930 . S
H835 C808 0.929 . S
H836 C813 0.930 . S
H837 C814 0.929 . S
H838 C816 0.930 . S
H839 C817 0.929 . S
Nd840 C842 2.836 . S
Nd840 O860 2.500 . S
Nd840 O861 2.492 . S
Nd840 O862 2.487 . S
Nd840 O863 2.682 . S
Nd840 O864 2.410 . S
Nd840 O869 2.414 . S
Nd840 O871 2.424 . S
Nd841 C851 2.836 . S
Nd841 O863 2.414 . S
Nd841 O865 2.424 . S
Nd841 O866 2.500 . S
Nd841 O867 2.492 . S
Nd841 O868 2.487 . S
Nd841 O869 2.682 . S
Nd841 O870 2.410 . S
C842 Nd840 2.836 . S
C842 C843 1.498 . S
C842 O860 1.258 . S
C842 O861 1.239 . S
C843 C842 1.498 . S
C843 C844 1.366 . S
C843 C848 1.407 . S
C844 C843 1.366 . S
C844 C845 1.392 . S
C844 H872 0.930 . S
C845 C844 1.392 . S
C845 C846 1.398 . S
C845 H873 0.929 . S
C846 C845 1.398 . S
C846 C847 1.352 . S
C847 C846 1.352 . S
C847 C848 1.384 . S
C847 H874 0.930 . S
C848 C843 1.407 . S
C848 C847 1.384 . S
C848 H875 0.929 . S
C849 O862 1.241 . S
C849 O863 1.273 . S
C850 O864 1.251 . S
C850 O865 1.268 . S
C851 Nd841 2.836 . S
C851 C852 1.498 . S
C851 O866 1.258 . S
C851 O867 1.239 . S
C852 C851 1.498 . S
C852 C853 1.366 1_556 S
C852 C857 1.407 1_556 S
C853 C852 1.366 1_554 S
C853 C854 1.392 . S
C853 H876 0.930 . S
C854 C853 1.392 . S
C854 C855 1.398 . S
C854 H877 0.929 . S
C855 C854 1.398 . S
C855 C856 1.352 . S
C856 C855 1.352 . S
C856 C857 1.384 . S
C856 H878 0.930 . S
C857 C852 1.407 1_554 S
C857 C856 1.384 . S
C857 H879 0.929 1_554 S
C858 O868 1.241 . S
C858 O869 1.273 . S
C859 O870 1.251 . S
C859 O871 1.268 . S
O860 Nd840 2.500 . S
O860 C842 1.258 . S
O861 Nd840 2.492 . S
O861 C842 1.239 . S
O862 Nd840 2.487 . S
O862 C849 1.241 . S
O863 Nd840 2.682 . S
O863 Nd841 2.414 . S
O863 C849 1.273 . S
O864 Nd840 2.410 . S
O864 C850 1.251 . S
O865 Nd841 2.424 . S
O865 C850 1.268 . S
O866 Nd841 2.500 . S
O866 C851 1.258 . S
O867 Nd841 2.492 . S
O867 C851 1.239 . S
O868 Nd841 2.487 . S
O868 C858 1.241 . S
O869 Nd840 2.414 . S
O869 Nd841 2.682 . S
O869 C858 1.273 . S
O870 Nd841 2.410 . S
O870 C859 1.251 . S
O871 Nd840 2.424 . S
O871 C859 1.268 . S
H872 C844 0.930 . S
H873 C845 0.929 . S
H874 C847 0.930 . S
H875 C848 0.929 . S
H876 C853 0.930 . S
H877 C854 0.929 . S
H878 C856 0.930 . S
H879 C857 0.929 1_556 S
Nd880 C882 2.836 . S
Nd880 O900 2.500 . S
Nd880 O901 2.492 . S
Nd880 O902 2.487 . S
Nd880 O903 2.682 . S
Nd880 O904 2.410 . S
Nd880 O909 2.414 . S
Nd880 O911 2.424 . S
Nd881 C891 2.836 . S
Nd881 O903 2.414 . S
Nd881 O905 2.424 . S
Nd881 O906 2.500 . S
Nd881 O907 2.492 . S
Nd881 O908 2.487 . S
Nd881 O909 2.682 . S
Nd881 O910 2.410 . S
C882 Nd880 2.836 . S
C882 C883 1.498 . S
C882 O900 1.258 . S
C882 O901 1.239 . S
C883 C882 1.498 . S
C883 C884 1.366 . S
C883 C888 1.407 . S
C884 C883 1.366 . S
C884 C885 1.392 . S
C884 H912 0.930 . S
C885 C884 1.392 . S
C885 C886 1.398 . S
C885 H913 0.929 . S
C886 C885 1.398 . S
C886 C887 1.352 . S
C887 C886 1.352 . S
C887 C888 1.384 . S
C887 H914 0.930 . S
C888 C883 1.407 . S
C888 C887 1.384 . S
C888 H915 0.929 . S
C889 O902 1.241 . S
C889 O903 1.273 . S
C890 O904 1.251 . S
C890 O905 1.268 . S
C891 Nd881 2.836 . S
C891 C892 1.498 . S
C891 O906 1.258 . S
C891 O907 1.239 . S
C892 C891 1.498 . S
C892 C893 1.366 1_556 S
C892 C897 1.407 1_556 S
C893 C892 1.366 1_554 S
C893 C894 1.392 . S
C893 H916 0.930 . S
C894 C893 1.392 . S
C894 C895 1.398 . S
C894 H917 0.929 . S
C895 C894 1.398 . S
C895 C896 1.352 . S
C896 C895 1.352 . S
C896 C897 1.384 . S
C896 H918 0.930 . S
C897 C892 1.407 1_554 S
C897 C896 1.384 . S
C897 H919 0.929 1_554 S
C898 O908 1.241 . S
C898 O909 1.273 . S
C899 O910 1.251 . S
C899 O911 1.268 . S
O900 Nd880 2.500 . S
O900 C882 1.258 . S
O901 Nd880 2.492 . S
O901 C882 1.239 . S
O902 Nd880 2.487 . S
O902 C889 1.241 . S
O903 Nd880 2.682 . S
O903 Nd881 2.414 . S
O903 C889 1.273 . S
O904 Nd880 2.410 . S
O904 C890 1.251 . S
O905 Nd881 2.424 . S
O905 C890 1.268 . S
O906 Nd881 2.500 . S
O906 C891 1.258 . S
O907 Nd881 2.492 . S
O907 C891 1.239 . S
O908 Nd881 2.487 . S
O908 C898 1.241 . S
O909 Nd880 2.414 . S
O909 Nd881 2.682 . S
O909 C898 1.273 . S
O910 Nd881 2.410 . S
O910 C899 1.251 . S
O911 Nd880 2.424 . S
O911 C899 1.268 . S
H912 C884 0.930 . S
H913 C885 0.929 . S
H914 C887 0.930 . S
H915 C888 0.929 . S
H916 C893 0.930 . S
H917 C894 0.929 . S
H918 C896 0.930 . S
H919 C897 0.929 1_556 S
Nd920 C922 2.836 . S
Nd920 O940 2.500 . S
Nd920 O941 2.492 . S
Nd920 O942 2.487 . S
Nd920 O943 2.682 . S
Nd920 O944 2.410 . S
Nd920 O949 2.414 . S
Nd920 O951 2.424 . S
Nd921 C931 2.836 . S
Nd921 O943 2.414 . S
Nd921 O945 2.424 . S
Nd921 O946 2.500 . S
Nd921 O947 2.492 . S
Nd921 O948 2.487 . S
Nd921 O949 2.682 . S
Nd921 O950 2.410 . S
C922 Nd920 2.836 . S
C922 C923 1.498 . S
C922 O940 1.258 . S
C922 O941 1.239 . S
C923 C922 1.498 . S
C923 C924 1.366 . S
C923 C928 1.407 . S
C924 C923 1.366 . S
C924 C925 1.392 . S
C924 H952 0.930 . S
C925 C924 1.392 . S
C925 C926 1.398 . S
C925 H953 0.929 . S
C926 C925 1.398 . S
C926 C927 1.352 . S
C927 C926 1.352 . S
C927 C928 1.384 . S
C927 H954 0.930 . S
C928 C923 1.407 . S
C928 C927 1.384 . S
C928 H955 0.929 . S
C929 O942 1.241 . S
C929 O943 1.273 . S
C930 O944 1.251 . S
C930 O945 1.268 . S
C931 Nd921 2.836 . S
C931 C932 1.498 . S
C931 O946 1.258 . S
C931 O947 1.239 . S
C932 C931 1.498 . S
C932 C933 1.366 1_556 S
C932 C937 1.407 1_556 S
C933 C932 1.366 1_554 S
C933 C934 1.392 . S
C933 H956 0.930 . S
C934 C933 1.392 . S
C934 C935 1.398 . S
C934 H957 0.929 . S
C935 C934 1.398 . S
C935 C936 1.352 . S
C936 C935 1.352 . S
C936 C937 1.384 . S
C936 H958 0.930 . S
C937 C932 1.407 1_554 S
C937 C936 1.384 . S
C937 H959 0.929 1_554 S
C938 O948 1.241 . S
C938 O949 1.273 . S
C939 O950 1.251 . S
C939 O951 1.268 . S
O940 Nd920 2.500 . S
O940 C922 1.258 . S
O941 Nd920 2.492 . S
O941 C922 1.239 . S
O942 Nd920 2.487 . S
O942 C929 1.241 . S
O943 Nd920 2.682 . S
O943 Nd921 2.414 . S
O943 C929 1.273 . S
O944 Nd920 2.410 . S
O944 C930 1.251 . S
O945 Nd921 2.424 . S
O945 C930 1.268 . S
O946 Nd921 2.500 . S
O946 C931 1.258 . S
O947 Nd921 2.492 . S
O947 C931 1.239 . S
O948 Nd921 2.487 . S
O948 C938 1.241 . S
O949 Nd920 2.414 . S
O949 Nd921 2.682 . S
O949 C938 1.273 . S
O950 Nd921 2.410 . S
O950 C939 1.251 . S
O951 Nd920 2.424 . S
O951 C939 1.268 . S
H952 C924 0.930 . S
H953 C925 0.929 . S
H954 C927 0.930 . S
H955 C928 0.929 . S
H956 C933 0.930 . S
H957 C934 0.929 . S
H958 C936 0.930 . S
H959 C937 0.929 1_556 S
Nd960 C962 2.836 . S
Nd960 O980 2.500 . S
Nd960 O981 2.492 . S
Nd960 O982 2.487 . S
Nd960 O983 2.682 . S
Nd960 O984 2.410 . S
Nd960 O989 2.414 . S
Nd960 O991 2.424 . S
Nd961 C971 2.836 . S
Nd961 O983 2.414 . S
Nd961 O985 2.424 . S
Nd961 O986 2.500 . S
Nd961 O987 2.492 . S
Nd961 O988 2.487 . S
Nd961 O989 2.682 . S
Nd961 O990 2.410 . S
C962 Nd960 2.836 . S
C962 C963 1.498 . S
C962 O980 1.258 . S
C962 O981 1.239 . S
C963 C962 1.498 . S
C963 C964 1.366 . S
C963 C968 1.407 . S
C964 C963 1.366 . S
C964 C965 1.392 . S
C964 H992 0.930 . S
C965 C964 1.392 . S
C965 C966 1.398 . S
C965 H993 0.929 . S
C966 C965 1.398 . S
C966 C967 1.352 . S
C967 C966 1.352 . S
C967 C968 1.384 . S
C967 H994 0.930 . S
C968 C963 1.407 . S
C968 C967 1.384 . S
C968 H995 0.929 . S
C969 O982 1.241 . S
C969 O983 1.273 . S
C970 O984 1.251 . S
C970 O985 1.268 . S
C971 Nd961 2.836 . S
C971 C972 1.498 . S
C971 O986 1.258 . S
C971 O987 1.239 . S
C972 C971 1.498 . S
C972 C973 1.366 . S
C972 C977 1.407 . S
C973 C972 1.366 . S
C973 C974 1.392 . S
C973 H996 0.930 . S
C974 C973 1.392 . S
C974 C975 1.398 . S
C974 H997 0.929 . S
C975 C974 1.398 . S
C975 C976 1.352 . S
C976 C975 1.352 . S
C976 C977 1.384 . S
C976 H998 0.930 . S
C977 C972 1.407 . S
C977 C976 1.384 . S
C977 H999 0.929 . S
C978 O988 1.241 . S
C978 O989 1.273 . S
C979 O990 1.251 . S
C979 O991 1.268 . S
O980 Nd960 2.500 . S
O980 C962 1.258 . S
O981 Nd960 2.492 . S
O981 C962 1.239 . S
O982 Nd960 2.487 . S
O982 C969 1.241 . S
O983 Nd960 2.682 . S
O983 Nd961 2.414 . S
O983 C969 1.273 . S
O984 Nd960 2.410 . S
O984 C970 1.251 . S
O985 Nd961 2.424 . S
O985 C970 1.268 . S
O986 Nd961 2.500 . S
O986 C971 1.258 . S
O987 Nd961 2.492 . S
O987 C971 1.239 . S
O988 Nd961 2.487 . S
O988 C978 1.241 . S
O989 Nd960 2.414 . S
O989 Nd961 2.682 . S
O989 C978 1.273 . S
O990 Nd961 2.410 . S
O990 C979 1.251 . S
O991 Nd960 2.424 . S
O991 C979 1.268 . S
H992 C964 0.930 . S
H993 C965 0.929 . S
H994 C967 0.930 . S
H995 C968 0.929 . S
H996 C973 0.930 . S
H997 C974 0.929 . S
H998 C976 0.930 . S
H999 C977 0.929 . S
Nd1000 C1002 2.836 . S
Nd1000 O1020 2.500 . S
Nd1000 O1021 2.492 . S
Nd1000 O1022 2.487 . S
Nd1000 O1023 2.682 . S
Nd1000 O1024 2.410 . S
Nd1000 O1029 2.414 . S
Nd1000 O1031 2.424 . S
Nd1001 C1011 2.836 . S
Nd1001 O1023 2.414 . S
Nd1001 O1025 2.424 . S
Nd1001 O1026 2.500 . S
Nd1001 O1027 2.492 . S
Nd1001 O1028 2.487 . S
Nd1001 O1029 2.682 . S
Nd1001 O1030 2.410 . S
C1002 Nd1000 2.836 . S
C1002 C1003 1.498 . S
C1002 O1020 1.258 . S
C1002 O1021 1.239 . S
C1003 C1002 1.498 . S
C1003 C1004 1.366 . S
C1003 C1008 1.407 . S
C1004 C1003 1.366 . S
C1004 C1005 1.392 . S
C1004 H1032 0.930 . S
C1005 C1004 1.392 . S
C1005 C1006 1.398 . S
C1005 H1033 0.929 . S
C1006 C1005 1.398 . S
C1006 C1007 1.352 . S
C1007 C1006 1.352 . S
C1007 C1008 1.384 . S
C1007 H1034 0.930 . S
C1008 C1003 1.407 . S
C1008 C1007 1.384 . S
C1008 H1035 0.929 . S
C1009 O1022 1.241 . S
C1009 O1023 1.273 . S
C1010 O1024 1.251 . S
C1010 O1025 1.268 . S
C1011 Nd1001 2.836 . S
C1011 C1012 1.498 . S
C1011 O1026 1.258 . S
C1011 O1027 1.239 . S
C1012 C1011 1.498 . S
C1012 C1013 1.366 . S
C1012 C1017 1.407 . S
C1013 C1012 1.366 . S
C1013 C1014 1.392 . S
C1013 H1036 0.930 . S
C1014 C1013 1.392 . S
C1014 C1015 1.398 . S
C1014 H1037 0.929 . S
C1015 C1014 1.398 . S
C1015 C1016 1.352 . S
C1016 C1015 1.352 . S
C1016 C1017 1.384 . S
C1016 H1038 0.930 . S
C1017 C1012 1.407 . S
C1017 C1016 1.384 . S
C1017 H1039 0.929 . S
C1018 O1028 1.241 . S
C1018 O1029 1.273 . S
C1019 O1030 1.251 . S
C1019 O1031 1.268 . S
O1020 Nd1000 2.500 . S
O1020 C1002 1.258 . S
O1021 Nd1000 2.492 . S
O1021 C1002 1.239 . S
O1022 Nd1000 2.487 . S
O1022 C1009 1.241 . S
O1023 Nd1000 2.682 . S
O1023 Nd1001 2.414 . S
O1023 C1009 1.273 . S
O1024 Nd1000 2.410 . S
O1024 C1010 1.251 . S
O1025 Nd1001 2.424 . S
O1025 C1010 1.268 . S
O1026 Nd1001 2.500 . S
O1026 C1011 1.258 . S
O1027 Nd1001 2.492 . S
O1027 C1011 1.239 . S
O1028 Nd1001 2.487 . S
O1028 C1018 1.241 . S
O1029 Nd1000 2.414 . S
O1029 Nd1001 2.682 . S
O1029 C1018 1.273 . S
O1030 Nd1001 2.410 . S
O1030 C1019 1.251 . S
O1031 Nd1000 2.424 . S
O1031 C1019 1.268 . S
H1032 C1004 0.930 . S
H1033 C1005 0.929 . S
H1034 C1007 0.930 . S
H1035 C1008 0.929 . S
H1036 C1013 0.930 . S
H1037 C1014 0.929 . S
H1038 C1016 0.930 . S
H1039 C1017 0.929 . S
Nd1040 C1042 2.836 . S
Nd1040 O1060 2.500 . S
Nd1040 O1061 2.492 . S
Nd1040 O1062 2.487 . S
Nd1040 O1063 2.682 . S
Nd1040 O1064 2.410 . S
Nd1040 O1069 2.414 . S
Nd1040 O1071 2.424 . S
Nd1041 C1051 2.836 . S
Nd1041 O1063 2.414 . S
Nd1041 O1065 2.424 . S
Nd1041 O1066 2.500 . S
Nd1041 O1067 2.492 . S
Nd1041 O1068 2.487 . S
Nd1041 O1069 2.682 . S
Nd1041 O1070 2.410 . S
C1042 Nd1040 2.836 . S
C1042 C1043 1.498 . S
C1042 O1060 1.258 . S
C1042 O1061 1.239 . S
C1043 C1042 1.498 . S
C1043 C1044 1.366 . S
C1043 C1048 1.407 . S
C1044 C1043 1.366 . S
C1044 C1045 1.392 . S
C1044 H1072 0.930 . S
C1045 C1044 1.392 . S
C1045 C1046 1.398 . S
C1045 H1073 0.929 . S
C1046 C1045 1.398 . S
C1046 C1047 1.352 . S
C1047 C1046 1.352 . S
C1047 C1048 1.384 . S
C1047 H1074 0.930 . S
C1048 C1043 1.407 . S
C1048 C1047 1.384 . S
C1048 H1075 0.929 . S
C1049 O1062 1.241 . S
C1049 O1063 1.273 . S
C1050 O1064 1.251 . S
C1050 O1065 1.268 . S
C1051 Nd1041 2.836 . S
C1051 C1052 1.498 . S
C1051 O1066 1.258 . S
C1051 O1067 1.239 . S
C1052 C1051 1.498 . S
C1052 C1053 1.366 . S
C1052 C1057 1.407 . S
C1053 C1052 1.366 . S
C1053 C1054 1.392 . S
C1053 H1076 0.930 . S
C1054 C1053 1.392 . S
C1054 C1055 1.398 . S
C1054 H1077 0.929 . S
C1055 C1054 1.398 . S
C1055 C1056 1.352 . S
C1056 C1055 1.352 . S
C1056 C1057 1.384 . S
C1056 H1078 0.930 . S
C1057 C1052 1.407 . S
C1057 C1056 1.384 . S
C1057 H1079 0.929 . S
C1058 O1068 1.241 . S
C1058 O1069 1.273 . S
C1059 O1070 1.251 . S
C1059 O1071 1.268 . S
O1060 Nd1040 2.500 . S
O1060 C1042 1.258 . S
O1061 Nd1040 2.492 . S
O1061 C1042 1.239 . S
O1062 Nd1040 2.487 . S
O1062 C1049 1.241 . S
O1063 Nd1040 2.682 . S
O1063 Nd1041 2.414 . S
O1063 C1049 1.273 . S
O1064 Nd1040 2.410 . S
O1064 C1050 1.251 . S
O1065 Nd1041 2.424 . S
O1065 C1050 1.268 . S
O1066 Nd1041 2.500 . S
O1066 C1051 1.258 . S
O1067 Nd1041 2.492 . S
O1067 C1051 1.239 . S
O1068 Nd1041 2.487 . S
O1068 C1058 1.241 . S
O1069 Nd1040 2.414 . S
O1069 Nd1041 2.682 . S
O1069 C1058 1.273 . S
O1070 Nd1041 2.410 . S
O1070 C1059 1.251 . S
O1071 Nd1040 2.424 . S
O1071 C1059 1.268 . S
H1072 C1044 0.930 . S
H1073 C1045 0.929 . S
H1074 C1047 0.930 . S
H1075 C1048 0.929 . S
H1076 C1053 0.930 . S
H1077 C1054 0.929 . S
H1078 C1056 0.930 . S
H1079 C1057 0.929 . S
Nd1080 C1082 2.836 . S
Nd1080 O1100 2.500 . S
Nd1080 O1101 2.492 . S
Nd1080 O1102 2.487 . S
Nd1080 O1103 2.682 . S
Nd1080 O1104 2.410 . S
Nd1080 O1109 2.414 . S
Nd1080 O1111 2.424 . S
Nd1081 C1091 2.836 . S
Nd1081 O1103 2.414 . S
Nd1081 O1105 2.424 . S
Nd1081 O1106 2.500 . S
Nd1081 O1107 2.492 . S
Nd1081 O1108 2.487 . S
Nd1081 O1109 2.682 . S
Nd1081 O1110 2.410 . S
C1082 Nd1080 2.836 . S
C1082 C1083 1.498 . S
C1082 O1100 1.258 . S
C1082 O1101 1.239 . S
C1083 C1082 1.498 . S
C1083 C1084 1.366 . S
C1083 C1088 1.407 . S
C1084 C1083 1.366 . S
C1084 C1085 1.392 . S
C1084 H1112 0.930 . S
C1085 C1084 1.392 . S
C1085 C1086 1.398 . S
C1085 H1113 0.929 . S
C1086 C1085 1.398 . S
C1086 C1087 1.352 . S
C1087 C1086 1.352 . S
C1087 C1088 1.384 . S
C1087 H1114 0.930 . S
C1088 C1083 1.407 . S
C1088 C1087 1.384 . S
C1088 H1115 0.929 . S
C1089 O1102 1.241 . S
C1089 O1103 1.273 . S
C1090 O1104 1.251 . S
C1090 O1105 1.268 . S
C1091 Nd1081 2.836 . S
C1091 C1092 1.498 . S
C1091 O1106 1.258 . S
C1091 O1107 1.239 . S
C1092 C1091 1.498 . S
C1092 C1093 1.366 . S
C1092 C1097 1.407 . S
C1093 C1092 1.366 . S
C1093 C1094 1.392 . S
C1093 H1116 0.930 . S
C1094 C1093 1.392 . S
C1094 C1095 1.398 . S
C1094 H1117 0.929 . S
C1095 C1094 1.398 . S
C1095 C1096 1.352 . S
C1096 C1095 1.352 . S
C1096 C1097 1.384 . S
C1096 H1118 0.930 . S
C1097 C1092 1.407 . S
C1097 C1096 1.384 . S
C1097 H1119 0.929 . S
C1098 O1108 1.241 . S
C1098 O1109 1.273 . S
C1099 O1110 1.251 . S
C1099 O1111 1.268 . S
O1100 Nd1080 2.500 . S
O1100 C1082 1.258 . S
O1101 Nd1080 2.492 . S
O1101 C1082 1.239 . S
O1102 Nd1080 2.487 . S
O1102 C1089 1.241 . S
O1103 Nd1080 2.682 . S
O1103 Nd1081 2.414 . S
O1103 C1089 1.273 . S
O1104 Nd1080 2.410 . S
O1104 C1090 1.251 . S
O1105 Nd1081 2.424 . S
O1105 C1090 1.268 . S
O1106 Nd1081 2.500 . S
O1106 C1091 1.258 . S
O1107 Nd1081 2.492 . S
O1107 C1091 1.239 . S
O1108 Nd1081 2.487 . S
O1108 C1098 1.241 . S
O1109 Nd1080 2.414 . S
O1109 Nd1081 2.682 . S
O1109 C1098 1.273 . S
O1110 Nd1081 2.410 . S
O1110 C1099 1.251 . S
O1111 Nd1080 2.424 . S
O1111 C1099 1.268 . S
H1112 C1084 0.930 . S
H1113 C1085 0.929 . S
H1114 C1087 0.930 . S
H1115 C1088 0.929 . S
H1116 C1093 0.930 . S
H1117 C1094 0.929 . S
H1118 C1096 0.930 . S
H1119 C1097 0.929 . S
Nd1120 C1122 2.836 . S
Nd1120 O1140 2.500 . S
Nd1120 O1141 2.492 . S
Nd1120 O1142 2.487 . S
Nd1120 O1143 2.682 . S
Nd1120 O1144 2.410 . S
Nd1120 O1149 2.414 . S
Nd1120 O1151 2.424 . S
Nd1121 C1131 2.836 . S
Nd1121 O1143 2.414 . S
Nd1121 O1145 2.424 . S
Nd1121 O1146 2.500 . S
Nd1121 O1147 2.492 . S
Nd1121 O1148 2.487 . S
Nd1121 O1149 2.682 . S
Nd1121 O1150 2.410 . S
C1122 Nd1120 2.836 . S
C1122 C1123 1.498 . S
C1122 O1140 1.258 . S
C1122 O1141 1.239 . S
C1123 C1122 1.498 . S
C1123 C1124 1.366 . S
C1123 C1128 1.407 . S
C1124 C1123 1.366 . S
C1124 C1125 1.392 . S
C1124 H1152 0.930 . S
C1125 C1124 1.392 . S
C1125 C1126 1.398 . S
C1125 H1153 0.929 . S
C1126 C1125 1.398 . S
C1126 C1127 1.352 . S
C1127 C1126 1.352 . S
C1127 C1128 1.384 . S
C1127 H1154 0.930 . S
C1128 C1123 1.407 . S
C1128 C1127 1.384 . S
C1128 H1155 0.929 . S
C1129 O1142 1.241 . S
C1129 O1143 1.273 . S
C1130 O1144 1.251 . S
C1130 O1145 1.268 . S
C1131 Nd1121 2.836 . S
C1131 C1132 1.498 . S
C1131 O1146 1.258 . S
C1131 O1147 1.239 . S
C1132 C1131 1.498 . S
C1132 C1133 1.366 . S
C1132 C1137 1.407 . S
C1133 C1132 1.366 . S
C1133 C1134 1.392 . S
C1133 H1156 0.930 . S
C1134 C1133 1.392 . S
C1134 C1135 1.398 . S
C1134 H1157 0.929 . S
C1135 C1134 1.398 . S
C1135 C1136 1.352 . S
C1136 C1135 1.352 . S
C1136 C1137 1.384 . S
C1136 H1158 0.930 . S
C1137 C1132 1.407 . S
C1137 C1136 1.384 . S
C1137 H1159 0.929 . S
C1138 O1148 1.241 . S
C1138 O1149 1.273 . S
C1139 O1150 1.251 . S
C1139 O1151 1.268 . S
O1140 Nd1120 2.500 . S
O1140 C1122 1.258 . S
O1141 Nd1120 2.492 . S
O1141 C1122 1.239 . S
O1142 Nd1120 2.487 . S
O1142 C1129 1.241 . S
O1143 Nd1120 2.682 . S
O1143 Nd1121 2.414 . S
O1143 C1129 1.273 . S
O1144 Nd1120 2.410 . S
O1144 C1130 1.251 . S
O1145 Nd1121 2.424 . S
O1145 C1130 1.268 . S
O1146 Nd1121 2.500 . S
O1146 C1131 1.258 . S
O1147 Nd1121 2.492 . S
O1147 C1131 1.239 . S
O1148 Nd1121 2.487 . S
O1148 C1138 1.241 . S
O1149 Nd1120 2.414 . S
O1149 Nd1121 2.682 . S
O1149 C1138 1.273 . S
O1150 Nd1121 2.410 . S
O1150 C1139 1.251 . S
O1151 Nd1120 2.424 . S
O1151 C1139 1.268 . S
H1152 C1124 0.930 . S
H1153 C1125 0.929 . S
H1154 C1127 0.930 . S
H1155 C1128 0.929 . S
H1156 C1133 0.930 . S
H1157 C1134 0.929 . S
H1158 C1136 0.930 . S
H1159 C1137 0.929 . S
Nd1160 C1162 2.836 . S
Nd1160 O1180 2.500 . S
Nd1160 O1181 2.492 . S
Nd1160 O1182 2.487 . S
Nd1160 O1183 2.682 . S
Nd1160 O1184 2.410 . S
Nd1160 O1189 2.414 . S
Nd1160 O1191 2.424 . S
Nd1161 C1171 2.836 . S
Nd1161 O1183 2.414 . S
Nd1161 O1185 2.424 . S
Nd1161 O1186 2.500 . S
Nd1161 O1187 2.492 . S
Nd1161 O1188 2.487 . S
Nd1161 O1189 2.682 . S
Nd1161 O1190 2.410 . S
C1162 Nd1160 2.836 . S
C1162 C1163 1.498 . S
C1162 O1180 1.258 . S
C1162 O1181 1.239 . S
C1163 C1162 1.498 . S
C1163 C1164 1.366 . S
C1163 C1168 1.407 . S
C1164 C1163 1.366 . S
C1164 C1165 1.392 . S
C1164 H1192 0.930 . S
C1165 C1164 1.392 . S
C1165 C1166 1.398 . S
C1165 H1193 0.929 . S
C1166 C1165 1.398 . S
C1166 C1167 1.352 . S
C1167 C1166 1.352 . S
C1167 C1168 1.384 . S
C1167 H1194 0.930 . S
C1168 C1163 1.407 . S
C1168 C1167 1.384 . S
C1168 H1195 0.929 . S
C1169 O1182 1.241 . S
C1169 O1183 1.273 . S
C1170 O1184 1.251 . S
C1170 O1185 1.268 . S
C1171 Nd1161 2.836 . S
C1171 C1172 1.498 . S
C1171 O1186 1.258 . S
C1171 O1187 1.239 . S
C1172 C1171 1.498 . S
C1172 C1173 1.366 . S
C1172 C1177 1.407 . S
C1173 C1172 1.366 . S
C1173 C1174 1.392 . S
C1173 H1196 0.930 . S
C1174 C1173 1.392 . S
C1174 C1175 1.398 . S
C1174 H1197 0.929 . S
C1175 C1174 1.398 . S
C1175 C1176 1.352 . S
C1176 C1175 1.352 . S
C1176 C1177 1.384 . S
C1176 H1198 0.930 . S
C1177 C1172 1.407 . S
C1177 C1176 1.384 . S
C1177 H1199 0.929 . S
C1178 O1188 1.241 . S
C1178 O1189 1.273 . S
C1179 O1190 1.251 . S
C1179 O1191 1.268 . S
O1180 Nd1160 2.500 . S
O1180 C1162 1.258 . S
O1181 Nd1160 2.492 . S
O1181 C1162 1.239 . S
O1182 Nd1160 2.487 . S
O1182 C1169 1.241 . S
O1183 Nd1160 2.682 . S
O1183 Nd1161 2.414 . S
O1183 C1169 1.273 . S
O1184 Nd1160 2.410 . S
O1184 C1170 1.251 . S
O1185 Nd1161 2.424 . S
O1185 C1170 1.268 . S
O1186 Nd1161 2.500 . S
O1186 C1171 1.258 . S
O1187 Nd1161 2.492 . S
O1187 C1171 1.239 . S
O1188 Nd1161 2.487 . S
O1188 C1178 1.241 . S
O1189 Nd1160 2.414 . S
O1189 Nd1161 2.682 . S
O1189 C1178 1.273 . S
O1190 Nd1161 2.410 . S
O1190 C1179 1.251 . S
O1191 Nd1160 2.424 . S
O1191 C1179 1.268 . S
H1192 C1164 0.930 . S
H1193 C1165 0.929 . S
H1194 C1167 0.930 . S
H1195 C1168 0.929 . S
H1196 C1173 0.930 . S
H1197 C1174 0.929 . S
H1198 C1176 0.930 . S
H1199 C1177 0.929 . S
Nd1200 C1202 2.836 . S
Nd1200 O1220 2.500 . S
Nd1200 O1221 2.492 . S
Nd1200 O1222 2.487 . S
Nd1200 O1223 2.682 . S
Nd1200 O1224 2.410 . S
Nd1200 O1229 2.414 . S
Nd1200 O1231 2.424 . S
Nd1201 C1211 2.836 . S
Nd1201 O1223 2.414 . S
Nd1201 O1225 2.424 . S
Nd1201 O1226 2.500 . S
Nd1201 O1227 2.492 . S
Nd1201 O1228 2.487 . S
Nd1201 O1229 2.682 . S
Nd1201 O1230 2.410 . S
C1202 Nd1200 2.836 . S
C1202 C1203 1.498 . S
C1202 O1220 1.258 . S
C1202 O1221 1.239 . S
C1203 C1202 1.498 . S
C1203 C1204 1.366 1_556 S
C1203 C1208 1.407 . S
C1204 C1203 1.366 1_554 S
C1204 C1205 1.392 . S
C1204 H1232 0.930 1_554 S
C1205 C1204 1.392 . S
C1205 C1206 1.398 . S
C1205 H1233 0.929 . S
C1206 C1205 1.398 . S
C1206 C1207 1.352 . S
C1207 C1206 1.352 . S
C1207 C1208 1.384 1_554 S
C1207 H1234 0.930 . S
C1208 C1203 1.407 . S
C1208 C1207 1.384 1_556 S
C1208 H1235 0.929 . S
C1209 O1222 1.241 . S
C1209 O1223 1.273 . S
C1210 O1224 1.251 . S
C1210 O1225 1.268 . S
C1211 Nd1201 2.836 . S
C1211 C1212 1.498 . S
C1211 O1226 1.258 . S
C1211 O1227 1.239 . S
C1212 C1211 1.498 . S
C1212 C1213 1.366 . S
C1212 C1217 1.407 . S
C1213 C1212 1.366 . S
C1213 C1214 1.392 . S
C1213 H1236 0.930 . S
C1214 C1213 1.392 . S
C1214 C1215 1.398 . S
C1214 H1237 0.929 . S
C1215 C1214 1.398 . S
C1215 C1216 1.352 . S
C1216 C1215 1.352 . S
C1216 C1217 1.384 . S
C1216 H1238 0.930 . S
C1217 C1212 1.407 . S
C1217 C1216 1.384 . S
C1217 H1239 0.929 . S
C1218 O1228 1.241 . S
C1218 O1229 1.273 . S
C1219 O1230 1.251 . S
C1219 O1231 1.268 . S
O1220 Nd1200 2.500 . S
O1220 C1202 1.258 . S
O1221 Nd1200 2.492 . S
O1221 C1202 1.239 . S
O1222 Nd1200 2.487 . S
O1222 C1209 1.241 . S
O1223 Nd1200 2.682 . S
O1223 Nd1201 2.414 . S
O1223 C1209 1.273 . S
O1224 Nd1200 2.410 . S
O1224 C1210 1.251 . S
O1225 Nd1201 2.424 . S
O1225 C1210 1.268 . S
O1226 Nd1201 2.500 . S
O1226 C1211 1.258 . S
O1227 Nd1201 2.492 . S
O1227 C1211 1.239 . S
O1228 Nd1201 2.487 . S
O1228 C1218 1.241 . S
O1229 Nd1200 2.414 . S
O1229 Nd1201 2.682 . S
O1229 C1218 1.273 . S
O1230 Nd1201 2.410 . S
O1230 C1219 1.251 . S
O1231 Nd1200 2.424 . S
O1231 C1219 1.268 . S
H1232 C1204 0.930 1_556 S
H1233 C1205 0.929 . S
H1234 C1207 0.930 . S
H1235 C1208 0.929 . S
H1236 C1213 0.930 . S
H1237 C1214 0.929 . S
H1238 C1216 0.930 . S
H1239 C1217 0.929 . S
Nd1240 C1242 2.836 . S
Nd1240 O1260 2.500 . S
Nd1240 O1261 2.492 . S
Nd1240 O1262 2.487 . S
Nd1240 O1263 2.682 . S
Nd1240 O1264 2.410 . S
Nd1240 O1269 2.414 . S
Nd1240 O1271 2.424 . S
Nd1241 C1251 2.836 . S
Nd1241 O1263 2.414 . S
Nd1241 O1265 2.424 . S
Nd1241 O1266 2.500 . S
Nd1241 O1267 2.492 . S
Nd1241 O1268 2.487 . S
Nd1241 O1269 2.682 . S
Nd1241 O1270 2.410 . S
C1242 Nd1240 2.836 . S
C1242 C1243 1.498 . S
C1242 O1260 1.258 . S
C1242 O1261 1.239 . S
C1243 C1242 1.498 . S
C1243 C1244 1.366 1_556 S
C1243 C1248 1.407 . S
C1244 C1243 1.366 1_554 S
C1244 C1245 1.392 . S
C1244 H1272 0.930 1_554 S
C1245 C1244 1.392 . S
C1245 C1246 1.398 . S
C1245 H1273 0.929 . S
C1246 C1245 1.398 . S
C1246 C1247 1.352 . S
C1247 C1246 1.352 . S
C1247 C1248 1.384 1_554 S
C1247 H1274 0.930 . S
C1248 C1243 1.407 . S
C1248 C1247 1.384 1_556 S
C1248 H1275 0.929 . S
C1249 O1262 1.241 . S
C1249 O1263 1.273 . S
C1250 O1264 1.251 . S
C1250 O1265 1.268 . S
C1251 Nd1241 2.836 . S
C1251 C1252 1.498 . S
C1251 O1266 1.258 . S
C1251 O1267 1.239 . S
C1252 C1251 1.498 . S
C1252 C1253 1.366 . S
C1252 C1257 1.407 . S
C1253 C1252 1.366 . S
C1253 C1254 1.392 . S
C1253 H1276 0.930 . S
C1254 C1253 1.392 . S
C1254 C1255 1.398 . S
C1254 H1277 0.929 . S
C1255 C1254 1.398 . S
C1255 C1256 1.352 . S
C1256 C1255 1.352 . S
C1256 C1257 1.384 . S
C1256 H1278 0.930 . S
C1257 C1252 1.407 . S
C1257 C1256 1.384 . S
C1257 H1279 0.929 . S
C1258 O1268 1.241 . S
C1258 O1269 1.273 . S
C1259 O1270 1.251 . S
C1259 O1271 1.268 . S
O1260 Nd1240 2.500 . S
O1260 C1242 1.258 . S
O1261 Nd1240 2.492 . S
O1261 C1242 1.239 . S
O1262 Nd1240 2.487 . S
O1262 C1249 1.241 . S
O1263 Nd1240 2.682 . S
O1263 Nd1241 2.414 . S
O1263 C1249 1.273 . S
O1264 Nd1240 2.410 . S
O1264 C1250 1.251 . S
O1265 Nd1241 2.424 . S
O1265 C1250 1.268 . S
O1266 Nd1241 2.500 . S
O1266 C1251 1.258 . S
O1267 Nd1241 2.492 . S
O1267 C1251 1.239 . S
O1268 Nd1241 2.487 . S
O1268 C1258 1.241 . S
O1269 Nd1240 2.414 . S
O1269 Nd1241 2.682 . S
O1269 C1258 1.273 . S
O1270 Nd1241 2.410 . S
O1270 C1259 1.251 . S
O1271 Nd1240 2.424 . S
O1271 C1259 1.268 . S
H1272 C1244 0.930 1_556 S
H1273 C1245 0.929 . S
H1274 C1247 0.930 . S
H1275 C1248 0.929 . S
H1276 C1253 0.930 . S
H1277 C1254 0.929 . S
H1278 C1256 0.930 . S
H1279 C1257 0.929 . S
Nd1280 C1282 2.836 . S
Nd1280 O1300 2.500 . S
Nd1280 O1301 2.492 . S
Nd1280 O1302 2.487 . S
Nd1280 O1303 2.682 . S
Nd1280 O1304 2.410 . S
Nd1280 O1309 2.414 . S
Nd1280 O1311 2.424 . S
Nd1281 C1291 2.836 . S
Nd1281 O1303 2.414 . S
Nd1281 O1305 2.424 . S
Nd1281 O1306 2.500 . S
Nd1281 O1307 2.492 . S
Nd1281 O1308 2.487 . S
Nd1281 O1309 2.682 . S
Nd1281 O1310 2.410 . S
C1282 Nd1280 2.836 . S
C1282 C1283 1.498 . S
C1282 O1300 1.258 . S
C1282 O1301 1.239 . S
C1283 C1282 1.498 . S
C1283 C1284 1.366 1_556 S
C1283 C1288 1.407 . S
C1284 C1283 1.366 1_554 S
C1284 C1285 1.392 . S
C1284 H1312 0.930 1_554 S
C1285 C1284 1.392 . S
C1285 C1286 1.398 . S
C1285 H1313 0.929 . S
C1286 C1285 1.398 . S
C1286 C1287 1.352 . S
C1287 C1286 1.352 . S
C1287 C1288 1.384 1_554 S
C1287 H1314 0.930 . S
C1288 C1283 1.407 . S
C1288 C1287 1.384 1_556 S
C1288 H1315 0.929 . S
C1289 O1302 1.241 . S
C1289 O1303 1.273 . S
C1290 O1304 1.251 . S
C1290 O1305 1.268 . S
C1291 Nd1281 2.836 . S
C1291 C1292 1.498 . S
C1291 O1306 1.258 . S
C1291 O1307 1.239 . S
C1292 C1291 1.498 . S
C1292 C1293 1.366 . S
C1292 C1297 1.407 . S
C1293 C1292 1.366 . S
C1293 C1294 1.392 . S
C1293 H1316 0.930 . S
C1294 C1293 1.392 . S
C1294 C1295 1.398 . S
C1294 H1317 0.929 . S
C1295 C1294 1.398 . S
C1295 C1296 1.352 . S
C1296 C1295 1.352 . S
C1296 C1297 1.384 . S
C1296 H1318 0.930 . S
C1297 C1292 1.407 . S
C1297 C1296 1.384 . S
C1297 H1319 0.929 . S
C1298 O1308 1.241 . S
C1298 O1309 1.273 . S
C1299 O1310 1.251 . S
C1299 O1311 1.268 . S
O1300 Nd1280 2.500 . S
O1300 C1282 1.258 . S
O1301 Nd1280 2.492 . S
O1301 C1282 1.239 . S
O1302 Nd1280 2.487 . S
O1302 C1289 1.241 . S
O1303 Nd1280 2.682 . S
O1303 Nd1281 2.414 . S
O1303 C1289 1.273 . S
O1304 Nd1280 2.410 . S
O1304 C1290 1.251 . S
O1305 Nd1281 2.424 . S
O1305 C1290 1.268 . S
O1306 Nd1281 2.500 . S
O1306 C1291 1.258 . S
O1307 Nd1281 2.492 . S
O1307 C1291 1.239 . S
O1308 Nd1281 2.487 . S
O1308 C1298 1.241 . S
O1309 Nd1280 2.414 . S
O1309 Nd1281 2.682 . S
O1309 C1298 1.273 . S
O1310 Nd1281 2.410 . S
O1310 C1299 1.251 . S
O1311 Nd1280 2.424 . S
O1311 C1299 1.268 . S
H1312 C1284 0.930 1_556 S
H1313 C1285 0.929 . S
H1314 C1287 0.930 . S
H1315 C1288 0.929 . S
H1316 C1293 0.930 . S
H1317 C1294 0.929 . S
H1318 C1296 0.930 . S
H1319 C1297 0.929 . S
Nd1320 C1322 2.836 . S
Nd1320 O1340 2.500 . S
Nd1320 O1341 2.492 . S
Nd1320 O1342 2.487 . S
Nd1320 O1343 2.682 . S
Nd1320 O1344 2.410 . S
Nd1320 O1349 2.414 . S
Nd1320 O1351 2.424 . S
Nd1321 C1331 2.836 . S
Nd1321 O1343 2.414 . S
Nd1321 O1345 2.424 . S
Nd1321 O1346 2.500 . S
Nd1321 O1347 2.492 . S
Nd1321 O1348 2.487 . S
Nd1321 O1349 2.682 . S
Nd1321 O1350 2.410 . S
C1322 Nd1320 2.836 . S
C1322 C1323 1.498 . S
C1322 O1340 1.258 . S
C1322 O1341 1.239 . S
C1323 C1322 1.498 . S
C1323 C1324 1.366 1_554 S
C1323 C1328 1.407 1_554 S
C1324 C1323 1.366 1_556 S
C1324 C1325 1.392 . S
C1324 H1352 0.930 . S
C1325 C1324 1.392 . S
C1325 C1326 1.398 . S
C1325 H1353 0.929 . S
C1326 C1325 1.398 . S
C1326 C1327 1.352 . S
C1327 C1326 1.352 . S
C1327 C1328 1.384 . S
C1327 H1354 0.930 . S
C1328 C1323 1.407 1_556 S
C1328 C1327 1.384 . S
C1328 H1355 0.929 1_556 S
C1329 O1342 1.241 . S
C1329 O1343 1.273 . S
C1330 O1344 1.251 . S
C1330 O1345 1.268 . S
C1331 Nd1321 2.836 . S
C1331 C1332 1.498 . S
C1331 O1346 1.258 . S
C1331 O1347 1.239 . S
C1332 C1331 1.498 . S
C1332 C1333 1.366 . S
C1332 C1337 1.407 . S
C1333 C1332 1.366 . S
C1333 C1334 1.392 . S
C1333 H1356 0.930 . S
C1334 C1333 1.392 . S
C1334 C1335 1.398 . S
C1334 H1357 0.929 . S
C1335 C1334 1.398 . S
C1335 C1336 1.352 . S
C1336 C1335 1.352 . S
C1336 C1337 1.384 . S
C1336 H1358 0.930 . S
C1337 C1332 1.407 . S
C1337 C1336 1.384 . S
C1337 H1359 0.929 . S
C1338 O1348 1.241 . S
C1338 O1349 1.273 . S
C1339 O1350 1.251 . S
C1339 O1351 1.268 . S
O1340 Nd1320 2.500 . S
O1340 C1322 1.258 . S
O1341 Nd1320 2.492 . S
O1341 C1322 1.239 . S
O1342 Nd1320 2.487 . S
O1342 C1329 1.241 . S
O1343 Nd1320 2.682 . S
O1343 Nd1321 2.414 . S
O1343 C1329 1.273 . S
O1344 Nd1320 2.410 . S
O1344 C1330 1.251 . S
O1345 Nd1321 2.424 . S
O1345 C1330 1.268 . S
O1346 Nd1321 2.500 . S
O1346 C1331 1.258 . S
O1347 Nd1321 2.492 . S
O1347 C1331 1.239 . S
O1348 Nd1321 2.487 . S
O1348 C1338 1.241 . S
O1349 Nd1320 2.414 . S
O1349 Nd1321 2.682 . S
O1349 C1338 1.273 . S
O1350 Nd1321 2.410 . S
O1350 C1339 1.251 . S
O1351 Nd1320 2.424 . S
O1351 C1339 1.268 . S
H1352 C1324 0.930 . S
H1353 C1325 0.929 . S
H1354 C1327 0.930 . S
H1355 C1328 0.929 1_554 S
H1356 C1333 0.930 . S
H1357 C1334 0.929 . S
H1358 C1336 0.930 . S
H1359 C1337 0.929 . S
Nd1360 C1362 2.836 . S
Nd1360 O1380 2.500 . S
Nd1360 O1381 2.492 . S
Nd1360 O1382 2.487 . S
Nd1360 O1383 2.682 . S
Nd1360 O1384 2.410 . S
Nd1360 O1389 2.414 . S
Nd1360 O1391 2.424 . S
Nd1361 C1371 2.836 . S
Nd1361 O1383 2.414 . S
Nd1361 O1385 2.424 . S
Nd1361 O1386 2.500 . S
Nd1361 O1387 2.492 . S
Nd1361 O1388 2.487 . S
Nd1361 O1389 2.682 . S
Nd1361 O1390 2.410 . S
C1362 Nd1360 2.836 . S
C1362 C1363 1.498 . S
C1362 O1380 1.258 . S
C1362 O1381 1.239 . S
C1363 C1362 1.498 . S
C1363 C1364 1.366 1_554 S
C1363 C1368 1.407 1_554 S
C1364 C1363 1.366 1_556 S
C1364 C1365 1.392 . S
C1364 H1392 0.930 . S
C1365 C1364 1.392 . S
C1365 C1366 1.398 . S
C1365 H1393 0.929 . S
C1366 C1365 1.398 . S
C1366 C1367 1.352 . S
C1367 C1366 1.352 . S
C1367 C1368 1.384 . S
C1367 H1394 0.930 . S
C1368 C1363 1.407 1_556 S
C1368 C1367 1.384 . S
C1368 H1395 0.929 1_556 S
C1369 O1382 1.241 . S
C1369 O1383 1.273 . S
C1370 O1384 1.251 . S
C1370 O1385 1.268 . S
C1371 Nd1361 2.836 . S
C1371 C1372 1.498 . S
C1371 O1386 1.258 . S
C1371 O1387 1.239 . S
C1372 C1371 1.498 . S
C1372 C1373 1.366 . S
C1372 C1377 1.407 . S
C1373 C1372 1.366 . S
C1373 C1374 1.392 . S
C1373 H1396 0.930 . S
C1374 C1373 1.392 . S
C1374 C1375 1.398 . S
C1374 H1397 0.929 . S
C1375 C1374 1.398 . S
C1375 C1376 1.352 . S
C1376 C1375 1.352 . S
C1376 C1377 1.384 . S
C1376 H1398 0.930 . S
C1377 C1372 1.407 . S
C1377 C1376 1.384 . S
C1377 H1399 0.929 . S
C1378 O1388 1.241 . S
C1378 O1389 1.273 . S
C1379 O1390 1.251 . S
C1379 O1391 1.268 . S
O1380 Nd1360 2.500 . S
O1380 C1362 1.258 . S
O1381 Nd1360 2.492 . S
O1381 C1362 1.239 . S
O1382 Nd1360 2.487 . S
O1382 C1369 1.241 . S
O1383 Nd1360 2.682 . S
O1383 Nd1361 2.414 . S
O1383 C1369 1.273 . S
O1384 Nd1360 2.410 . S
O1384 C1370 1.251 . S
O1385 Nd1361 2.424 . S
O1385 C1370 1.268 . S
O1386 Nd1361 2.500 . S
O1386 C1371 1.258 . S
O1387 Nd1361 2.492 . S
O1387 C1371 1.239 . S
O1388 Nd1361 2.487 . S
O1388 C1378 1.241 . S
O1389 Nd1360 2.414 . S
O1389 Nd1361 2.682 . S
O1389 C1378 1.273 . S
O1390 Nd1361 2.410 . S
O1390 C1379 1.251 . S
O1391 Nd1360 2.424 . S
O1391 C1379 1.268 . S
H1392 C1364 0.930 . S
H1393 C1365 0.929 . S
H1394 C1367 0.930 . S
H1395 C1368 0.929 1_554 S
H1396 C1373 0.930 . S
H1397 C1374 0.929 . S
H1398 C1376 0.930 . S
H1399 C1377 0.929 . S
Nd1400 C1402 2.836 . S
Nd1400 O1420 2.500 . S
Nd1400 O1421 2.492 . S
Nd1400 O1422 2.487 . S
Nd1400 O1423 2.682 . S
Nd1400 O1424 2.410 . S
Nd1400 O1429 2.414 . S
Nd1400 O1431 2.424 . S
Nd1401 C1411 2.836 . S
Nd1401 O1423 2.414 . S
Nd1401 O1425 2.424 . S
Nd1401 O1426 2.500 . S
Nd1401 O1427 2.492 . S
Nd1401 O1428 2.487 . S
Nd1401 O1429 2.682 . S
Nd1401 O1430 2.410 . S
C1402 Nd1400 2.836 . S
C1402 C1403 1.498 . S
C1402 O1420 1.258 . S
C1402 O1421 1.239 . S
C1403 C1402 1.498 . S
C1403 C1404 1.366 1_554 S
C1403 C1408 1.407 1_554 S
C1404 C1403 1.366 1_556 S
C1404 C1405 1.392 . S
C1404 H1432 0.930 . S
C1405 C1404 1.392 . S
C1405 C1406 1.398 . S
C1405 H1433 0.929 . S
C1406 C1405 1.398 . S
C1406 C1407 1.352 . S
C1407 C1406 1.352 . S
C1407 C1408 1.384 . S
C1407 H1434 0.930 . S
C1408 C1403 1.407 1_556 S
C1408 C1407 1.384 . S
C1408 H1435 0.929 1_556 S
C1409 O1422 1.241 . S
C1409 O1423 1.273 . S
C1410 O1424 1.251 . S
C1410 O1425 1.268 . S
C1411 Nd1401 2.836 . S
C1411 C1412 1.498 . S
C1411 O1426 1.258 . S
C1411 O1427 1.239 . S
C1412 C1411 1.498 . S
C1412 C1413 1.366 . S
C1412 C1417 1.407 . S
C1413 C1412 1.366 . S
C1413 C1414 1.392 . S
C1413 H1436 0.930 . S
C1414 C1413 1.392 . S
C1414 C1415 1.398 . S
C1414 H1437 0.929 . S
C1415 C1414 1.398 . S
C1415 C1416 1.352 . S
C1416 C1415 1.352 . S
C1416 C1417 1.384 . S
C1416 H1438 0.930 . S
C1417 C1412 1.407 . S
C1417 C1416 1.384 . S
C1417 H1439 0.929 . S
C1418 O1428 1.241 . S
C1418 O1429 1.273 . S
C1419 O1430 1.251 . S
C1419 O1431 1.268 . S
O1420 Nd1400 2.500 . S
O1420 C1402 1.258 . S
O1421 Nd1400 2.492 . S
O1421 C1402 1.239 . S
O1422 Nd1400 2.487 . S
O1422 C1409 1.241 . S
O1423 Nd1400 2.682 . S
O1423 Nd1401 2.414 . S
O1423 C1409 1.273 . S
O1424 Nd1400 2.410 . S
O1424 C1410 1.251 . S
O1425 Nd1401 2.424 . S
O1425 C1410 1.268 . S
O1426 Nd1401 2.500 . S
O1426 C1411 1.258 . S
O1427 Nd1401 2.492 . S
O1427 C1411 1.239 . S
O1428 Nd1401 2.487 . S
O1428 C1418 1.241 . S
O1429 Nd1400 2.414 . S
O1429 Nd1401 2.682 . S
O1429 C1418 1.273 . S
O1430 Nd1401 2.410 . S
O1430 C1419 1.251 . S
O1431 Nd1400 2.424 . S
O1431 C1419 1.268 . S
H1432 C1404 0.930 . S
H1433 C1405 0.929 . S
H1434 C1407 0.930 . S
H1435 C1408 0.929 1_554 S
H1436 C1413 0.930 . S
H1437 C1414 0.929 . S
H1438 C1416 0.930 . S
H1439 C1417 0.929 . S
C1440 C1441 1.369 . S
C1440 C1442 1.419 1_554 S
C1440 H1444 0.930 . S
C1441 C1440 1.369 . S
C1441 C1450 1.429 1_554 S
C1442 C1440 1.419 1_556 S
C1442 C1443 1.363 . S
C1442 H1445 0.929 1_556 S
C1443 C1442 1.363 . S
C1443 C1449 1.428 . S
H1444 C1440 0.930 . S
H1445 C1442 0.929 1_554 S
S1446 N1447 1.613 . S
S1446 N1448 1.610 . S
N1447 S1446 1.613 . S
N1447 C1450 1.350 . S
N1448 S1446 1.610 . S
N1448 C1449 1.351 . S
C1449 C1443 1.428 . S
C1449 N1448 1.351 . S
C1449 C1450 1.434 . S
C1450 C1441 1.429 1_556 S
C1450 N1447 1.350 . S
C1450 C1449 1.434 . S
C1451 C1452 1.364 1_556 S
C1451 C1453 1.419 . S
C1451 H1455 0.930 . S
C1452 C1451 1.364 1_554 S
C1452 C1461 1.429 . S
C1453 C1451 1.419 . S
C1453 C1454 1.363 . S
C1453 H1456 0.929 . S
C1454 C1453 1.363 . S
C1454 C1460 1.428 . S
H1455 C1451 0.930 . S
H1456 C1453 0.929 . S
S1457 N1458 1.613 . S
S1457 N1459 1.610 1_554 S
N1458 S1457 1.613 . S
N1458 C1461 1.350 . S
N1459 S1457 1.610 1_556 S
N1459 C1460 1.351 . S
C1460 C1454 1.428 . S
C1460 N1459 1.351 . S
C1460 C1461 1.434 1_556 S
C1461 C1452 1.429 . S
C1461 N1458 1.350 . S
C1461 C1460 1.434 1_554 S
C1462 C1463 1.369 . S
C1462 C1464 1.419 . S
C1462 H1466 0.930 . S
C1463 C1462 1.369 . S
C1463 C1472 1.429 1_556 S
C1464 C1462 1.419 . S
C1464 C1465 1.363 1_556 S
C1464 H1467 0.929 . S
C1465 C1464 1.363 1_554 S
C1465 C1471 1.428 . S
H1466 C1462 0.930 . S
H1467 C1464 0.929 . S
S1468 N1469 1.613 . S
S1468 N1470 1.610 . S
N1469 S1468 1.613 . S
N1469 C1472 1.350 . S
N1470 S1468 1.610 . S
N1470 C1471 1.351 . S
C1471 C1465 1.428 . S
C1471 N1470 1.351 . S
C1471 C1472 1.434 . S
C1472 C1463 1.429 1_554 S
C1472 N1469 1.350 . S
C1472 C1471 1.434 . S
C1473 C1474 1.369 . S
C1473 C1475 1.419 . S
C1473 H1477 0.930 . S
C1474 C1473 1.369 . S
C1474 C1483 1.429 . S
C1475 C1473 1.419 . S
C1475 C1476 1.363 . S
C1475 H1478 0.929 . S
C1476 C1475 1.363 . S
C1476 C1482 1.428 . S
H1477 C1473 0.930 . S
H1478 C1475 0.929 . S
S1479 N1480 1.613 . S
S1479 N1481 1.610 . S
N1480 S1479 1.613 . S
N1480 C1483 1.350 . S
N1481 S1479 1.610 . S
N1481 C1482 1.351 . S
C1482 C1476 1.428 . S
C1482 N1481 1.351 . S
C1482 C1483 1.434 . S
C1483 C1474 1.429 . S
C1483 N1480 1.350 . S
C1483 C1482 1.434 . S
C1484 C1485 1.369 . S
C1484 C1486 1.419 . S
C1484 H1488 0.930 . S
C1485 C1484 1.369 . S
C1485 C1494 1.429 . S
C1486 C1484 1.419 . S
C1486 C1487 1.363 . S
C1486 H1489 0.929 . S
C1487 C1486 1.363 . S
C1487 C1493 1.428 . S
H1488 C1484 0.930 . S
H1489 C1486 0.929 . S
S1490 N1491 1.613 . S
S1490 N1492 1.610 . S
N1491 S1490 1.613 . S
N1491 C1494 1.350 . S
N1492 S1490 1.610 . S
N1492 C1493 1.351 . S
C1493 C1487 1.428 . S
C1493 N1492 1.351 . S
C1493 C1494 1.434 . S
C1494 C1485 1.429 . S
C1494 N1491 1.350 . S
C1494 C1493 1.434 . S
C1495 C1496 1.369 . S
C1495 C1497 1.419 . S
C1495 H1499 0.930 . S
C1496 C1495 1.369 . S
C1496 C1505 1.429 . S
C1497 C1495 1.419 . S
C1497 C1498 1.363 . S
C1497 H1500 0.929 . S
C1498 C1497 1.363 . S
C1498 C1504 1.428 . S
H1499 C1495 0.930 . S
H1500 C1497 0.929 . S
S1501 N1502 1.613 . S
S1501 N1503 1.610 . S
N1502 S1501 1.613 . S
N1502 C1505 1.350 . S
N1503 S1501 1.610 . S
N1503 C1504 1.351 . S
C1504 C1498 1.428 . S
C1504 N1503 1.351 . S
C1504 C1505 1.434 . S
C1505 C1496 1.429 . S
C1505 N1502 1.350 . S
C1505 C1504 1.434 . S
C1506 C1507 1.369 . S
C1506 C1508 1.419 . S
C1506 H1510 0.930 . S
C1507 C1506 1.369 . S
C1507 C1516 1.429 . S
C1508 C1506 1.419 . S
C1508 C1509 1.363 . S
C1508 H1511 0.929 . S
C1509 C1508 1.363 . S
C1509 C1515 1.428 . S
H1510 C1506 0.930 . S
H1511 C1508 0.929 . S
S1512 N1513 1.613 . S
S1512 N1514 1.610 . S
N1513 S1512 1.613 . S
N1513 C1516 1.350 . S
N1514 S1512 1.610 . S
N1514 C1515 1.351 . S
C1515 C1509 1.428 . S
C1515 N1514 1.351 . S
C1515 C1516 1.434 . S
C1516 C1507 1.429 . S
C1516 N1513 1.350 . S
C1516 C1515 1.434 . S
C1517 C1518 1.369 . S
C1517 C1519 1.419 . S
C1517 H1521 0.930 . S
C1518 C1517 1.369 . S
C1518 C1527 1.429 . S
C1519 C1517 1.419 . S
C1519 C1520 1.363 . S
C1519 H1522 0.929 . S
C1520 C1519 1.363 . S
C1520 C1526 1.428 . S
H1521 C1517 0.930 . S
H1522 C1519 0.929 . S
S1523 N1524 1.613 . S
S1523 N1525 1.610 . S
N1524 S1523 1.613 . S
N1524 C1527 1.350 . S
N1525 S1523 1.610 . S
N1525 C1526 1.351 . S
C1526 C1520 1.428 . S
C1526 N1525 1.351 . S
C1526 C1527 1.434 . S
C1527 C1518 1.429 . S
C1527 N1524 1.350 . S
C1527 C1526 1.434 . S
C1528 C1529 1.369 . S
C1528 C1530 1.419 . S
C1528 H1532 0.930 . S
C1529 C1528 1.369 . S
C1529 C1538 1.429 . S
C1530 C1528 1.419 . S
C1530 C1531 1.363 . S
C1530 H1533 0.929 . S
C1531 C1530 1.363 . S
C1531 C1537 1.428 . S
H1532 C1528 0.930 . S
H1533 C1530 0.929 . S
S1534 N1535 1.613 . S
S1534 N1536 1.610 . S
N1535 S1534 1.613 . S
N1535 C1538 1.350 . S
N1536 S1534 1.610 . S
N1536 C1537 1.351 . S
C1537 C1531 1.428 . S
C1537 N1536 1.351 . S
C1537 C1538 1.434 . S
C1538 C1529 1.429 . S
C1538 N1535 1.350 . S
C1538 C1537 1.434 . S
C1539 C1540 1.369 . S
C1539 C1541 1.419 . S
C1539 H1543 0.930 . S
C1540 C1539 1.369 . S
C1540 C1549 1.429 . S
C1541 C1539 1.419 . S
C1541 C1542 1.363 . S
C1541 H1544 0.929 . S
C1542 C1541 1.363 . S
C1542 C1548 1.428 . S
H1543 C1539 0.930 . S
H1544 C1541 0.929 . S
S1545 N1546 1.613 . S
S1545 N1547 1.610 . S
N1546 S1545 1.613 . S
N1546 C1549 1.350 . S
N1547 S1545 1.610 . S
N1547 C1548 1.351 . S
C1548 C1542 1.428 . S
C1548 N1547 1.351 . S
C1548 C1549 1.434 . S
C1549 C1540 1.429 . S
C1549 N1546 1.350 . S
C1549 C1548 1.434 . S
C1550 C1551 1.369 . S
C1550 C1552 1.419 . S
C1550 H1554 0.930 . S
C1551 C1550 1.369 . S
C1551 C1560 1.429 . S
C1552 C1550 1.419 . S
C1552 C1553 1.363 . S
C1552 H1555 0.929 . S
C1553 C1552 1.363 . S
C1553 C1559 1.428 . S
H1554 C1550 0.930 . S
H1555 C1552 0.929 . S
S1556 N1557 1.613 . S
S1556 N1558 1.610 . S
N1557 S1556 1.613 . S
N1557 C1560 1.350 . S
N1558 S1556 1.610 . S
N1558 C1559 1.351 . S
C1559 C1553 1.428 . S
C1559 N1558 1.351 . S
C1559 C1560 1.434 . S
C1560 C1551 1.429 . S
C1560 N1557 1.350 . S
C1560 C1559 1.434 . S
C1561 C1562 1.369 . S
C1561 C1563 1.419 . S
C1561 H1565 0.930 . S
C1562 C1561 1.369 . S
C1562 C1571 1.429 . S
C1563 C1561 1.419 . S
C1563 C1564 1.363 . S
C1563 H1566 0.929 . S
C1564 C1563 1.363 . S
C1564 C1570 1.428 . S
H1565 C1561 0.930 . S
H1566 C1563 0.929 . S
S1567 N1568 1.613 . S
S1567 N1569 1.610 . S
N1568 S1567 1.613 . S
N1568 C1571 1.350 . S
N1569 S1567 1.610 . S
N1569 C1570 1.351 . S
C1570 C1564 1.428 . S
C1570 N1569 1.351 . S
C1570 C1571 1.434 . S
C1571 C1562 1.429 . S
C1571 N1568 1.350 . S
C1571 C1570 1.434 . S
C1572 C1573 1.369 . S
C1572 C1574 1.419 . S
C1572 H1576 0.930 . S
C1573 C1572 1.369 . S
C1573 C1582 1.429 . S
C1574 C1572 1.419 . S
C1574 C1575 1.363 . S
C1574 H1577 0.929 . S
C1575 C1574 1.363 . S
C1575 C1581 1.428 . S
H1576 C1572 0.930 . S
H1577 C1574 0.929 . S
S1578 N1579 1.613 . S
S1578 N1580 1.610 . S
N1579 S1578 1.613 . S
N1579 C1582 1.350 . S
N1580 S1578 1.610 . S
N1580 C1581 1.351 . S
C1581 C1575 1.428 . S
C1581 N1580 1.351 . S
C1581 C1582 1.434 . S
C1582 C1573 1.429 . S
C1582 N1579 1.350 . S
C1582 C1581 1.434 . S
C1583 C1584 1.369 . S
C1583 C1585 1.419 1_565 S
C1583 H1587 0.930 . S
C1584 C1583 1.369 . S
C1584 C1593 1.429 . S
C1585 C1583 1.419 1_545 S
C1585 C1586 1.363 . S
C1585 H1588 0.929 . S
C1586 C1585 1.363 . S
C1586 C1592 1.428 . S
H1587 C1583 0.930 . S
H1588 C1585 0.929 . S
S1589 N1590 1.613 1_545 S
S1589 N1591 1.610 . S
N1590 S1589 1.613 1_565 S
N1590 C1593 1.350 . S
N1591 S1589 1.610 . S
N1591 C1592 1.351 . S
C1592 C1586 1.428 . S
C1592 N1591 1.351 . S
C1592 C1593 1.434 1_545 S
C1593 C1584 1.429 . S
C1593 N1590 1.350 . S
C1593 C1592 1.434 1_565 S
C1594 C1595 1.369 . S
C1594 C1596 1.419 1_655 S
C1594 H1598 0.930 . S
C1595 C1594 1.369 . S
C1595 C1604 1.429 . S
C1596 C1594 1.419 1_455 S
C1596 C1597 1.363 . S
C1596 H1599 0.929 . S
C1597 C1596 1.363 . S
C1597 C1603 1.428 . S
H1598 C1594 0.930 . S
H1599 C1596 0.929 . S
S1600 N1601 1.613 1_455 S
S1600 N1602 1.610 . S
N1601 S1600 1.613 1_655 S
N1601 C1604 1.350 . S
N1602 S1600 1.610 . S
N1602 C1603 1.351 . S
C1603 C1597 1.428 . S
C1603 N1602 1.351 . S
C1603 C1604 1.434 1_455 S
C1604 C1595 1.429 . S
C1604 N1601 1.350 . S
C1604 C1603 1.434 1_655 S
C1605 C1606 1.369 . S
C1605 C1607 1.419 . S
C1605 H1609 0.930 . S
C1606 C1605 1.369 . S
C1606 C1615 1.429 . S
C1607 C1605 1.419 . S
C1607 C1608 1.363 . S
C1607 H1610 0.929 . S
C1608 C1607 1.363 . S
C1608 C1614 1.428 . S
H1609 C1605 0.930 . S
H1610 C1607 0.929 . S
S1611 N1612 1.613 . S
S1611 N1613 1.610 . S
N1612 S1611 1.613 . S
N1612 C1615 1.350 . S
N1613 S1611 1.610 . S
N1613 C1614 1.351 . S
C1614 C1608 1.428 . S
C1614 N1613 1.351 . S
C1614 C1615 1.434 . S
C1615 C1606 1.429 . S
C1615 N1612 1.350 . S
C1615 C1614 1.434 . S
C1616 C1617 1.369 . S
C1616 C1618 1.419 1_545 S
C1616 H1620 0.930 . S
C1617 C1616 1.369 . S
C1617 C1626 1.429 . S
C1618 C1616 1.419 1_565 S
C1618 C1619 1.363 . S
C1618 H1621 0.929 . S
C1619 C1618 1.363 . S
C1619 C1625 1.428 . S
H1620 C1616 0.930 . S
H1621 C1618 0.929 . S
S1622 N1623 1.613 . S
S1622 N1624 1.610 1_545 S
N1623 S1622 1.613 . S
N1623 C1626 1.350 . S
N1624 S1622 1.610 1_565 S
N1624 C1625 1.351 . S
C1625 C1619 1.428 . S
C1625 N1624 1.351 . S
C1625 C1626 1.434 1_565 S
C1626 C1617 1.429 . S
C1626 N1623 1.350 . S
C1626 C1625 1.434 1_545 S
C1627 C1628 1.369 . S
C1627 C1629 1.419 1_455 S
C1627 H1631 0.930 . S
C1628 C1627 1.369 . S
C1628 C1637 1.429 . S
C1629 C1627 1.419 1_655 S
C1629 C1630 1.363 . S
C1629 H1632 0.929 . S
C1630 C1629 1.363 . S
C1630 C1636 1.428 . S
H1631 C1627 0.930 . S
H1632 C1629 0.929 . S
S1633 N1634 1.613 1_655 S
S1633 N1635 1.610 . S
N1634 S1633 1.613 1_455 S
N1634 C1637 1.350 . S
N1635 S1633 1.610 . S
N1635 C1636 1.351 . S
C1636 C1630 1.428 . S
C1636 N1635 1.351 . S
C1636 C1637 1.434 1_655 S
C1637 C1628 1.429 . S
C1637 N1634 1.350 . S
C1637 C1636 1.434 1_455 S
C1638 C1639 1.369 . S
C1638 C1640 1.419 . S
C1638 H1642 0.930 . S
C1639 C1638 1.369 . S
C1639 C1648 1.429 1_455 S
C1640 C1638 1.419 . S
C1640 C1641 1.363 1_455 S
C1640 H1643 0.929 . S
C1641 C1640 1.363 1_655 S
C1641 C1647 1.428 . S
H1642 C1638 0.930 . S
H1643 C1640 0.929 . S
S1644 N1645 1.613 . S
S1644 N1646 1.610 . S
N1645 S1644 1.613 . S
N1645 C1648 1.350 . S
N1646 S1644 1.610 . S
N1646 C1647 1.351 . S
C1647 C1641 1.428 . S
C1647 N1646 1.351 . S
C1647 C1648 1.434 . S
C1648 C1639 1.429 1_655 S
C1648 N1645 1.350 . S
C1648 C1647 1.434 . S
C1649 C1650 1.369 . S
C1649 C1651 1.419 . S
C1649 H1653 0.930 . S
C1650 C1649 1.369 . S
C1650 C1659 1.429 . S
C1651 C1649 1.419 . S
C1651 C1652 1.363 . S
C1651 H1654 0.929 . S
C1652 C1651 1.363 . S
C1652 C1658 1.428 . S
H1653 C1649 0.930 . S
H1654 C1651 0.929 . S
S1655 N1656 1.613 . S
S1655 N1657 1.610 . S
N1656 S1655 1.613 . S
N1656 C1659 1.350 . S
N1657 S1655 1.610 . S
N1657 C1658 1.351 . S
C1658 C1652 1.428 . S
C1658 N1657 1.351 . S
C1658 C1659 1.434 . S
C1659 C1650 1.429 . S
C1659 N1656 1.350 . S
C1659 C1658 1.434 . S
C1660 C1661 1.369 1_545 S
C1660 C1662 1.419 . S
C1660 H1664 0.930 . S
C1661 C1660 1.369 1_565 S
C1661 C1670 1.429 . S
C1662 C1660 1.419 . S
C1662 C1663 1.363 . S
C1662 H1665 0.929 . S
C1663 C1662 1.363 . S
C1663 C1669 1.428 1_545 S
H1664 C1660 0.930 . S
H1665 C1662 0.929 . S
S1666 N1667 1.613 . S
S1666 N1668 1.610 . S
N1667 S1666 1.613 . S
N1667 C1670 1.350 . S
N1668 S1666 1.610 . S
N1668 C1669 1.351 . S
C1669 C1663 1.428 1_565 S
C1669 N1668 1.351 . S
C1669 C1670 1.434 . S
C1670 C1661 1.429 . S
C1670 N1667 1.350 . S
C1670 C1669 1.434 . S
C1671 C1672 1.369 . S
C1671 C1673 1.419 . S
C1671 H1675 0.930 . S
C1672 C1671 1.369 . S
C1672 C1681 1.429 1_655 S
C1673 C1671 1.419 . S
C1673 C1674 1.363 1_655 S
C1673 H1676 0.929 . S
C1674 C1673 1.363 1_455 S
C1674 C1680 1.428 . S
H1675 C1671 0.930 . S
H1676 C1673 0.929 . S
S1677 N1678 1.613 . S
S1677 N1679 1.610 . S
N1678 S1677 1.613 . S
N1678 C1681 1.350 . S
N1679 S1677 1.610 . S
N1679 C1680 1.351 . S
C1680 C1674 1.428 . S
C1680 N1679 1.351 . S
C1680 C1681 1.434 . S
C1681 C1672 1.429 1_455 S
C1681 N1678 1.350 . S
C1681 C1680 1.434 . S
C1682 C1683 1.369 . S
C1682 C1684 1.419 . S
C1682 H1686 0.930 . S
C1683 C1682 1.369 . S
C1683 C1692 1.429 . S
C1684 C1682 1.419 . S
C1684 C1685 1.363 . S
C1684 H1687 0.929 . S
C1685 C1684 1.363 . S
C1685 C1691 1.428 . S
H1686 C1682 0.930 . S
H1687 C1684 0.929 . S
S1688 N1689 1.613 . S
S1688 N1690 1.610 . S
N1689 S1688 1.613 . S
N1689 C1692 1.350 . S
N1690 S1688 1.610 . S
N1690 C1691 1.351 . S
C1691 C1685 1.428 . S
C1691 N1690 1.351 . S
C1691 C1692 1.434 . S
C1692 C1683 1.429 . S
C1692 N1689 1.350 . S
C1692 C1691 1.434 . S
C1693 C1694 1.369 . S
C1693 C1695 1.419 1_545 S
C1693 H1697 0.930 . S
C1694 C1693 1.369 . S
C1694 C1703 1.429 . S
C1695 C1693 1.419 1_565 S
C1695 C1696 1.363 . S
C1695 H1698 0.929 . S
C1696 C1695 1.363 . S
C1696 C1702 1.428 . S
H1697 C1693 0.930 . S
H1698 C1695 0.929 . S
S1699 N1700 1.613 . S
S1699 N1701 1.610 1_545 S
N1700 S1699 1.613 . S
N1700 C1703 1.350 . S
N1701 S1699 1.610 1_565 S
N1701 C1702 1.351 . S
C1702 C1696 1.428 . S
C1702 N1701 1.351 . S
C1702 C1703 1.434 1_565 S
C1703 C1694 1.429 . S
C1703 N1700 1.350 . S
C1703 C1702 1.434 1_545 S
C1704 C1705 1.369 . S
C1704 C1706 1.419 . S
C1704 H1708 0.930 . S
C1705 C1704 1.369 . S
C1705 C1714 1.429 . S
C1706 C1704 1.419 . S
C1706 C1707 1.363 . S
C1706 H1709 0.929 . S
C1707 C1706 1.363 . S
C1707 C1713 1.428 . S
H1708 C1704 0.930 . S
H1709 C1706 0.929 . S
S1710 N1711 1.613 . S
S1710 N1712 1.610 . S
N1711 S1710 1.613 . S
N1711 C1714 1.350 . S
N1712 S1710 1.610 . S
N1712 C1713 1.351 . S
C1713 C1707 1.428 . S
C1713 N1712 1.351 . S
C1713 C1714 1.434 . S
C1714 C1705 1.429 . S
C1714 N1711 1.350 . S
C1714 C1713 1.434 . S
C1715 C1716 1.369 . S
C1715 C1717 1.419 . S
C1715 H1719 0.930 . S
C1716 C1715 1.369 . S
C1716 C1725 1.429 . S
C1717 C1715 1.419 . S
C1717 C1718 1.363 . S
C1717 H1720 0.929 . S
C1718 C1717 1.363 . S
C1718 C1724 1.428 . S
H1719 C1715 0.930 . S
H1720 C1717 0.929 . S
S1721 N1722 1.613 . S
S1721 N1723 1.610 . S
N1722 S1721 1.613 . S
N1722 C1725 1.350 . S
N1723 S1721 1.610 . S
N1723 C1724 1.351 . S
C1724 C1718 1.428 . S
C1724 N1723 1.351 . S
C1724 C1725 1.434 . S
C1725 C1716 1.429 . S
C1725 N1722 1.350 . S
C1725 C1724 1.434 . S
C1726 C1727 1.369 . S
C1726 C1728 1.419 . S
C1726 H1730 0.930 . S
C1727 C1726 1.369 . S
C1727 C1736 1.429 . S
C1728 C1726 1.419 . S
C1728 C1729 1.363 . S
C1728 H1731 0.929 . S
C1729 C1728 1.363 . S
C1729 C1735 1.428 . S
H1730 C1726 0.930 . S
H1731 C1728 0.929 . S
S1732 N1733 1.613 . S
S1732 N1734 1.610 . S
N1733 S1732 1.613 . S
N1733 C1736 1.350 . S
N1734 S1732 1.610 . S
N1734 C1735 1.351 . S
C1735 C1729 1.428 . S
C1735 N1734 1.351 . S
C1735 C1736 1.434 . S
C1736 C1727 1.429 . S
C1736 N1733 1.350 . S
C1736 C1735 1.434 . S
C1737 C1738 1.369 . S
C1737 C1739 1.419 . S
C1737 H1741 0.930 . S
C1738 C1737 1.369 . S
C1738 C1747 1.429 . S
C1739 C1737 1.419 . S
C1739 C1740 1.363 . S
C1739 H1742 0.929 . S
C1740 C1739 1.363 . S
C1740 C1746 1.428 . S
H1741 C1737 0.930 . S
H1742 C1739 0.929 . S
S1743 N1744 1.613 . S
S1743 N1745 1.610 . S
N1744 S1743 1.613 . S
N1744 C1747 1.350 . S
N1745 S1743 1.610 . S
N1745 C1746 1.351 . S
C1746 C1740 1.428 . S
C1746 N1745 1.351 . S
C1746 C1747 1.434 . S
C1747 C1738 1.429 . S
C1747 N1744 1.350 . S
C1747 C1746 1.434 . S
C1748 C1749 1.369 . S
C1748 C1750 1.419 . S
C1748 H1752 0.930 . S
C1749 C1748 1.369 . S
C1749 C1758 1.429 . S
C1750 C1748 1.419 . S
C1750 C1751 1.363 . S
C1750 H1753 0.929 . S
C1751 C1750 1.363 . S
C1751 C1757 1.428 . S
H1752 C1748 0.930 . S
H1753 C1750 0.929 . S
S1754 N1755 1.613 . S
S1754 N1756 1.610 . S
N1755 S1754 1.613 . S
N1755 C1758 1.350 . S
N1756 S1754 1.610 . S
N1756 C1757 1.351 . S
C1757 C1751 1.428 . S
C1757 N1756 1.351 . S
C1757 C1758 1.434 . S
C1758 C1749 1.429 . S
C1758 N1755 1.350 . S
C1758 C1757 1.434 . S
C1759 C1760 1.369 . S
C1759 C1761 1.419 . S
C1759 H1763 0.930 . S
C1760 C1759 1.369 . S
C1760 C1769 1.429 . S
C1761 C1759 1.419 . S
C1761 C1762 1.363 . S
C1761 H1764 0.929 . S
C1762 C1761 1.363 . S
C1762 C1768 1.428 . S
H1763 C1759 0.930 . S
H1764 C1761 0.929 . S
S1765 N1766 1.613 . S
S1765 N1767 1.610 . S
N1766 S1765 1.613 . S
N1766 C1769 1.350 . S
N1767 S1765 1.610 . S
N1767 C1768 1.351 . S
C1768 C1762 1.428 . S
C1768 N1767 1.351 . S
C1768 C1769 1.434 . S
C1769 C1760 1.429 . S
C1769 N1766 1.350 . S
C1769 C1768 1.434 . S
C1770 C1771 1.369 . S
C1770 C1772 1.419 . S
C1770 H1774 0.930 . S
C1771 C1770 1.369 . S
C1771 C1780 1.429 . S
C1772 C1770 1.419 . S
C1772 C1773 1.363 . S
C1772 H1775 0.929 . S
C1773 C1772 1.363 . S
C1773 C1779 1.428 . S
H1774 C1770 0.930 . S
H1775 C1772 0.929 . S
S1776 N1777 1.613 . S
S1776 N1778 1.610 . S
N1777 S1776 1.613 . S
N1777 C1780 1.350 . S
N1778 S1776 1.610 . S
N1778 C1779 1.351 . S
C1779 C1773 1.428 . S
C1779 N1778 1.351 . S
C1779 C1780 1.434 . S
C1780 C1771 1.429 . S
C1780 N1777 1.350 . S
C1780 C1779 1.434 . S
C1781 C1782 1.369 . S
C1781 C1783 1.419 . S
C1781 H1785 0.930 . S
C1782 C1781 1.369 . S
C1782 C1791 1.429 . S
C1783 C1781 1.419 . S
C1783 C1784 1.363 . S
C1783 H1786 0.929 . S
C1784 C1783 1.363 . S
C1784 C1790 1.428 . S
H1785 C1781 0.930 . S
H1786 C1783 0.929 . S
S1787 N1788 1.613 . S
S1787 N1789 1.610 . S
N1788 S1787 1.613 . S
N1788 C1791 1.350 . S
N1789 S1787 1.610 . S
N1789 C1790 1.351 . S
C1790 C1784 1.428 . S
C1790 N1789 1.351 . S
C1790 C1791 1.434 . S
C1791 C1782 1.429 . S
C1791 N1788 1.350 . S
C1791 C1790 1.434 . S
C1792 C1793 1.369 . S
C1792 C1794 1.419 . S
C1792 H1796 0.930 . S
C1793 C1792 1.369 . S
C1793 C1802 1.429 . S
C1794 C1792 1.419 . S
C1794 C1795 1.363 . S
C1794 H1797 0.929 . S
C1795 C1794 1.363 . S
C1795 C1801 1.428 . S
H1796 C1792 0.930 . S
H1797 C1794 0.929 . S
S1798 N1799 1.613 . S
S1798 N1800 1.610 . S
N1799 S1798 1.613 . S
N1799 C1802 1.350 . S
N1800 S1798 1.610 . S
N1800 C1801 1.351 . S
C1801 C1795 1.428 . S
C1801 N1800 1.351 . S
C1801 C1802 1.434 . S
C1802 C1793 1.429 . S
C1802 N1799 1.350 . S
C1802 C1801 1.434 . S
C1803 C1804 1.369 . S
C1803 C1805 1.419 1_556 S
C1803 H1807 0.930 . S
C1804 C1803 1.369 . S
C1804 C1813 1.429 . S
C1805 C1803 1.419 1_554 S
C1805 C1806 1.363 . S
C1805 H1808 0.929 . S
C1806 C1805 1.363 . S
C1806 C1812 1.428 1_554 S
H1807 C1803 0.930 . S
H1808 C1805 0.929 . S
S1809 N1810 1.613 . S
S1809 N1811 1.610 . S
N1810 S1809 1.613 . S
N1810 C1813 1.350 . S
N1811 S1809 1.610 . S
N1811 C1812 1.351 . S
C1812 C1806 1.428 1_556 S
C1812 N1811 1.351 . S
C1812 C1813 1.434 . S
C1813 C1804 1.429 . S
C1813 N1810 1.350 . S
C1813 C1812 1.434 . S
C1814 C1815 1.369 . S
C1814 C1816 1.419 1_556 S
C1814 H1818 0.930 . S
C1815 C1814 1.369 . S
C1815 C1824 1.429 . S
C1816 C1814 1.419 1_554 S
C1816 C1817 1.363 . S
C1816 H1819 0.929 . S
C1817 C1816 1.363 . S
C1817 C1823 1.428 1_554 S
H1818 C1814 0.930 . S
H1819 C1816 0.929 . S
S1820 N1821 1.613 . S
S1820 N1822 1.610 . S
N1821 S1820 1.613 . S
N1821 C1824 1.350 . S
N1822 S1820 1.610 . S
N1822 C1823 1.351 . S
C1823 C1817 1.428 1_556 S
C1823 N1822 1.351 . S
C1823 C1824 1.434 . S
C1824 C1815 1.429 . S
C1824 N1821 1.350 . S
C1824 C1823 1.434 . S
C1825 C1826 1.369 . S
C1825 C1827 1.419 . S
C1825 H1829 0.930 . S
C1826 C1825 1.369 . S
C1826 C1835 1.429 . S
C1827 C1825 1.419 . S
C1827 C1828 1.363 1_556 S
C1827 H1830 0.929 . S
C1828 C1827 1.363 1_554 S
C1828 C1834 1.428 . S
H1829 C1825 0.930 . S
H1830 C1827 0.929 . S
S1831 N1832 1.613 . S
S1831 N1833 1.610 . S
N1832 S1831 1.613 . S
N1832 C1835 1.350 1_554 S
N1833 S1831 1.610 . S
N1833 C1834 1.351 . S
C1834 C1828 1.428 . S
C1834 N1833 1.351 . S
C1834 C1835 1.434 1_554 S
C1835 C1826 1.429 . S
C1835 N1832 1.350 1_556 S
C1835 C1834 1.434 1_556 S
C1836 C1837 1.369 . S
C1836 C1838 1.419 . S
C1836 H1840 0.930 . S
C1837 C1836 1.369 . S
C1837 C1846 1.429 . S
C1838 C1836 1.419 . S
C1838 C1839 1.363 . S
C1838 H1841 0.929 . S
C1839 C1838 1.363 . S
C1839 C1845 1.428 . S
H1840 C1836 0.930 . S
H1841 C1838 0.929 . S
S1842 N1843 1.613 . S
S1842 N1844 1.610 . S
N1843 S1842 1.613 . S
N1843 C1846 1.350 . S
N1844 S1842 1.610 . S
N1844 C1845 1.351 . S
C1845 C1839 1.428 . S
C1845 N1844 1.351 . S
C1845 C1846 1.434 . S
C1846 C1837 1.429 . S
C1846 N1843 1.350 . S
C1846 C1845 1.434 . S
C1847 C1848 1.369 . S
C1847 C1849 1.419 . S
C1847 H1851 0.930 . S
C1848 C1847 1.369 . S
C1848 C1857 1.429 . S
C1849 C1847 1.419 . S
C1849 C1850 1.363 . S
C1849 H1852 0.929 . S
C1850 C1849 1.363 . S
C1850 C1856 1.428 . S
H1851 C1847 0.930 . S
H1852 C1849 0.929 . S
S1853 N1854 1.613 . S
S1853 N1855 1.610 . S
N1854 S1853 1.613 . S
N1854 C1857 1.350 . S
N1855 S1853 1.610 . S
N1855 C1856 1.351 . S
C1856 C1850 1.428 . S
C1856 N1855 1.351 . S
C1856 C1857 1.434 . S
C1857 C1848 1.429 . S
C1857 N1854 1.350 . S
C1857 C1856 1.434 . S
C1858 C1859 1.369 . S
C1858 C1860 1.419 . S
C1858 H1862 0.930 . S
C1859 C1858 1.369 . S
C1859 C1868 1.429 . S
C1860 C1858 1.419 . S
C1860 C1861 1.363 . S
C1860 H1863 0.929 . S
C1861 C1860 1.363 . S
C1861 C1867 1.428 . S
H1862 C1858 0.930 . S
H1863 C1860 0.929 . S
S1864 N1865 1.613 . S
S1864 N1866 1.610 . S
N1865 S1864 1.613 . S
N1865 C1868 1.350 . S
N1866 S1864 1.610 . S
N1866 C1867 1.351 . S
C1867 C1861 1.428 . S
C1867 N1866 1.351 . S
C1867 C1868 1.434 . S
C1868 C1859 1.429 . S
C1868 N1865 1.350 . S
C1868 C1867 1.434 . S
C1869 C1870 1.369 . S
C1869 C1871 1.419 1_556 S
C1869 H1873 0.930 . S
C1870 C1869 1.369 . S
C1870 C1879 1.429 . S
C1871 C1869 1.419 1_554 S
C1871 C1872 1.363 . S
C1871 H1874 0.929 . S
C1872 C1871 1.363 . S
C1872 C1878 1.428 1_554 S
H1873 C1869 0.930 . S
H1874 C1871 0.929 . S
S1875 N1876 1.613 . S
S1875 N1877 1.610 . S
N1876 S1875 1.613 . S
N1876 C1879 1.350 . S
N1877 S1875 1.610 . S
N1877 C1878 1.351 . S
C1878 C1872 1.428 1_556 S
C1878 N1877 1.351 . S
C1878 C1879 1.434 . S
C1879 C1870 1.429 . S
C1879 N1876 1.350 . S
C1879 C1878 1.434 . S
C1880 C1881 1.369 . S
C1880 C1882 1.419 1_556 S
C1880 H1884 0.930 . S
C1881 C1880 1.369 . S
C1881 C1890 1.429 . S
C1882 C1880 1.419 1_554 S
C1882 C1883 1.363 . S
C1882 H1885 0.929 . S
C1883 C1882 1.363 . S
C1883 C1889 1.428 . S
H1884 C1880 0.930 . S
H1885 C1882 0.929 . S
S1886 N1887 1.613 . S
S1886 N1888 1.610 1_556 S
N1887 S1886 1.613 . S
N1887 C1890 1.350 . S
N1888 S1886 1.610 1_554 S
N1888 C1889 1.351 . S
C1889 C1883 1.428 . S
C1889 N1888 1.351 . S
C1889 C1890 1.434 1_554 S
C1890 C1881 1.429 . S
C1890 N1887 1.350 . S
C1890 C1889 1.434 1_556 S
C1891 C1892 1.369 . S
C1891 C1893 1.419 1_554 S
C1891 H1895 0.930 . S
C1892 C1891 1.369 . S
C1892 C1901 1.429 1_554 S
C1893 C1891 1.419 1_556 S
C1893 C1894 1.363 . S
C1893 H1896 0.929 . S
C1894 C1893 1.363 . S
C1894 C1900 1.428 . S
H1895 C1891 0.930 . S
H1896 C1893 0.929 . S
S1897 N1898 1.599 1_556 S
S1897 N1899 1.610 . S
N1898 S1897 1.599 1_554 S
N1898 C1901 1.349 1_554 S
N1899 S1897 1.610 . S
N1899 C1900 1.351 . S
C1900 C1894 1.428 . S
C1900 N1899 1.351 . S
C1900 C1901 1.434 . S
C1901 C1892 1.429 1_556 S
C1901 N1898 1.349 1_556 S
C1901 C1900 1.434 . S
C1902 C1903 1.369 . S
C1902 C1904 1.419 . S
C1902 H1906 0.930 . S
C1903 C1902 1.369 . S
C1903 C1912 1.429 . S
C1904 C1902 1.419 . S
C1904 C1905 1.363 . S
C1904 H1907 0.929 . S
C1905 C1904 1.363 . S
C1905 C1911 1.428 . S
H1906 C1902 0.930 . S
H1907 C1904 0.929 . S
S1908 N1909 1.613 . S
S1908 N1910 1.610 . S
N1909 S1908 1.613 . S
N1909 C1912 1.350 . S
N1910 S1908 1.610 . S
N1910 C1911 1.351 . S
C1911 C1905 1.428 . S
C1911 N1910 1.351 . S
C1911 C1912 1.434 . S
C1912 C1903 1.429 . S
C1912 N1909 1.350 . S
C1912 C1911 1.434 . S
C1913 C1914 1.369 . S
C1913 C1915 1.419 . S
C1913 H1917 0.930 . S
C1914 C1913 1.369 . S
C1914 C1923 1.429 . S
C1915 C1913 1.419 . S
C1915 C1916 1.363 . S
C1915 H1918 0.929 . S
C1916 C1915 1.363 . S
C1916 C1922 1.428 . S
H1917 C1913 0.930 . S
H1918 C1915 0.929 . S
S1919 N1920 1.613 . S
S1919 N1921 1.610 . S
N1920 S1919 1.613 . S
N1920 C1923 1.350 . S
N1921 S1919 1.610 . S
N1921 C1922 1.351 . S
C1922 C1916 1.428 . S
C1922 N1921 1.351 . S
C1922 C1923 1.434 . S
C1923 C1914 1.429 . S
C1923 N1920 1.350 . S
C1923 C1922 1.434 . S
C1924 C1925 1.369 . S
C1924 C1926 1.419 . S
C1924 H1928 0.930 . S
C1925 C1924 1.369 . S
C1925 C1934 1.429 . S
C1926 C1924 1.419 . S
C1926 C1927 1.363 . S
C1926 H1929 0.929 . S
C1927 C1926 1.363 . S
C1927 C1933 1.428 . S
H1928 C1924 0.930 . S
H1929 C1926 0.929 . S
S1930 N1931 1.613 . S
S1930 N1932 1.610 . S
N1931 S1930 1.613 . S
N1931 C1934 1.350 . S
N1932 S1930 1.610 . S
N1932 C1933 1.351 . S
C1933 C1927 1.428 . S
C1933 N1932 1.351 . S
C1933 C1934 1.434 . S
C1934 C1925 1.429 . S
C1934 N1931 1.350 . S
C1934 C1933 1.434 . S
C1935 C1936 1.369 . S
C1935 C1937 1.419 . S
C1935 H1939 0.930 . S
C1936 C1935 1.369 . S
C1936 C1945 1.429 . S
C1937 C1935 1.419 . S
C1937 C1938 1.363 . S
C1937 H1940 0.929 . S
C1938 C1937 1.363 . S
C1938 C1944 1.428 . S
H1939 C1935 0.930 . S
H1940 C1937 0.929 . S
S1941 N1942 1.613 . S
S1941 N1943 1.610 . S
N1942 S1941 1.613 . S
N1942 C1945 1.350 . S
N1943 S1941 1.610 . S
N1943 C1944 1.351 . S
C1944 C1938 1.428 . S
C1944 N1943 1.351 . S
C1944 C1945 1.434 . S
C1945 C1936 1.429 . S
C1945 N1942 1.350 . S
C1945 C1944 1.434 . S
C1946 C1947 1.369 . S
C1946 C1948 1.419 . S
C1946 H1950 0.930 . S
C1947 C1946 1.369 . S
C1947 C1956 1.429 . S
C1948 C1946 1.419 . S
C1948 C1949 1.363 . S
C1948 H1951 0.929 . S
C1949 C1948 1.363 . S
C1949 C1955 1.428 . S
H1950 C1946 0.930 . S
H1951 C1948 0.929 . S
S1952 N1953 1.613 . S
S1952 N1954 1.610 . S
N1953 S1952 1.613 . S
N1953 C1956 1.350 . S
N1954 S1952 1.610 . S
N1954 C1955 1.351 . S
C1955 C1949 1.428 . S
C1955 N1954 1.351 . S
C1955 C1956 1.434 . S
C1956 C1947 1.429 . S
C1956 N1953 1.350 . S
C1956 C1955 1.434 . S
C1957 C1958 1.369 . S
C1957 C1959 1.419 . S
C1957 H1961 0.930 . S
C1958 C1957 1.369 . S
C1958 C1967 1.429 . S
C1959 C1957 1.419 . S
C1959 C1960 1.363 . S
C1959 H1962 0.929 . S
C1960 C1959 1.363 . S
C1960 C1966 1.428 . S
H1961 C1957 0.930 . S
H1962 C1959 0.929 . S
S1963 N1964 1.613 . S
S1963 N1965 1.610 . S
N1964 S1963 1.613 . S
N1964 C1967 1.350 . S
N1965 S1963 1.610 . S
N1965 C1966 1.351 . S
C1966 C1960 1.428 . S
C1966 N1965 1.351 . S
C1966 C1967 1.434 . S
C1967 C1958 1.429 . S
C1967 N1964 1.350 . S
C1967 C1966 1.434 . S
C1968 C1969 1.369 . S
C1968 C1970 1.419 1_556 S
C1968 H1972 0.930 . S
C1969 C1968 1.369 . S
C1969 C1978 1.429 . S
C1970 C1968 1.419 1_554 S
C1970 C1971 1.363 . S
C1970 H1973 0.929 . S
C1971 C1970 1.363 . S
C1971 C1977 1.428 . S
H1972 C1968 0.930 . S
H1973 C1970 0.929 . S
S1974 N1975 1.613 1_554 S
S1974 N1976 1.610 . S
N1975 S1974 1.613 1_556 S
N1975 C1978 1.350 . S
N1976 S1974 1.610 . S
N1976 C1977 1.351 . S
C1977 C1971 1.428 . S
C1977 N1976 1.351 . S
C1977 C1978 1.434 1_554 S
C1978 C1969 1.429 . S
C1978 N1975 1.350 . S
C1978 C1977 1.434 1_556 S
C1979 C1980 1.369 . S
C1979 C1981 1.419 1_556 S
C1979 H1983 0.930 . S
C1980 C1979 1.369 . S
C1980 C1989 1.429 . S
C1981 C1979 1.419 1_554 S
C1981 C1982 1.363 . S
C1981 H1984 0.929 . S
C1982 C1981 1.363 . S
C1982 C1988 1.428 . S
H1983 C1979 0.930 . S
H1984 C1981 0.929 . S
S1985 N1986 1.613 1_554 S
S1985 N1987 1.610 . S
N1986 S1985 1.613 1_556 S
N1986 C1989 1.350 . S
N1987 S1985 1.610 . S
N1987 C1988 1.351 . S
C1988 C1982 1.428 . S
C1988 N1987 1.351 . S
C1988 C1989 1.434 1_554 S
C1989 C1980 1.429 . S
C1989 N1986 1.350 . S
C1989 C1988 1.434 1_556 S
C1990 C1991 1.369 . S
C1990 C1992 1.419 1_556 S
C1990 H1994 0.930 . S
C1991 C1990 1.369 . S
C1991 C2000 1.429 . S
C1992 C1990 1.419 1_554 S
C1992 C1993 1.363 . S
C1992 H1995 0.929 . S
C1993 C1992 1.363 . S
C1993 C1999 1.428 . S
H1994 C1990 0.930 . S
H1995 C1992 0.929 . S
S1996 N1997 1.613 . S
S1996 N1998 1.610 1_556 S
N1997 S1996 1.613 . S
N1997 C2000 1.350 . S
N1998 S1996 1.610 1_554 S
N1998 C1999 1.351 . S
C1999 C1993 1.428 . S
C1999 N1998 1.351 . S
C1999 C2000 1.434 1_554 S
C2000 C1991 1.429 . S
C2000 N1997 1.350 . S
C2000 C1999 1.434 1_556 S
C2001 C2002 1.369 . S
C2001 C2003 1.419 . S
C2001 H2005 0.930 . S
C2002 C2001 1.369 . S
C2002 C2011 1.429 . S
C2003 C2001 1.419 . S
C2003 C2004 1.363 . S
C2003 H2006 0.929 . S
C2004 C2003 1.363 . S
C2004 C2010 1.428 . S
H2005 C2001 0.930 . S
H2006 C2003 0.929 . S
S2007 N2008 1.613 . S
S2007 N2009 1.610 . S
N2008 S2007 1.613 . S
N2008 C2011 1.350 . S
N2009 S2007 1.610 . S
N2009 C2010 1.351 . S
C2010 C2004 1.428 . S
C2010 N2009 1.351 . S
C2010 C2011 1.434 . S
C2011 C2002 1.429 . S
C2011 N2008 1.350 . S
C2011 C2010 1.434 . S
C2012 C2013 1.369 . S
C2012 C2014 1.419 . S
C2012 H2016 0.930 . S
C2013 C2012 1.369 . S
C2013 C2022 1.429 . S
C2014 C2012 1.419 . S
C2014 C2015 1.363 . S
C2014 H2017 0.929 . S
C2015 C2014 1.363 . S
C2015 C2021 1.428 . S
H2016 C2012 0.930 . S
H2017 C2014 0.929 . S
S2018 N2019 1.613 . S
S2018 N2020 1.610 . S
N2019 S2018 1.613 . S
N2019 C2022 1.350 . S
N2020 S2018 1.610 . S
N2020 C2021 1.351 . S
C2021 C2015 1.428 . S
C2021 N2020 1.351 . S
C2021 C2022 1.434 . S
C2022 C2013 1.429 . S
C2022 N2019 1.350 . S
C2022 C2021 1.434 . S
C2023 C2024 1.369 . S
C2023 C2025 1.419 . S
C2023 H2027 0.930 . S
C2024 C2023 1.369 . S
C2024 C2033 1.429 . S
C2025 C2023 1.419 . S
C2025 C2026 1.363 . S
C2025 H2028 0.929 . S
C2026 C2025 1.363 . S
C2026 C2032 1.428 . S
H2027 C2023 0.930 . S
H2028 C2025 0.929 . S
S2029 N2030 1.613 . S
S2029 N2031 1.610 . S
N2030 S2029 1.613 . S
N2030 C2033 1.350 . S
N2031 S2029 1.610 . S
N2031 C2032 1.351 . S
C2032 C2026 1.428 . S
C2032 N2031 1.351 . S
C2032 C2033 1.434 . S
C2033 C2024 1.429 . S
C2033 N2030 1.350 . S
C2033 C2032 1.434 . S
C2034 C2035 1.369 . S
C2034 C2036 1.419 . S
C2034 H2038 0.930 . S
C2035 C2034 1.369 . S
C2035 C2044 1.429 . S
C2036 C2034 1.419 . S
C2036 C2037 1.363 . S
C2036 H2039 0.929 . S
C2037 C2036 1.363 . S
C2037 C2043 1.428 . S
H2038 C2034 0.930 . S
H2039 C2036 0.929 . S
S2040 N2041 1.613 . S
S2040 N2042 1.610 . S
N2041 S2040 1.613 . S
N2041 C2044 1.350 . S
N2042 S2040 1.610 . S
N2042 C2043 1.351 . S
C2043 C2037 1.428 . S
C2043 N2042 1.351 . S
C2043 C2044 1.434 . S
C2044 C2035 1.429 . S
C2044 N2041 1.350 . S
C2044 C2043 1.434 . S
C2045 C2046 1.369 . S
C2045 C2047 1.419 . S
C2045 H2049 0.930 . S
C2046 C2045 1.369 . S
C2046 C2055 1.429 . S
C2047 C2045 1.419 . S
C2047 C2048 1.363 . S
C2047 H2050 0.929 . S
C2048 C2047 1.363 . S
C2048 C2054 1.428 . S
H2049 C2045 0.930 . S
H2050 C2047 0.929 . S
S2051 N2052 1.613 . S
S2051 N2053 1.610 . S
N2052 S2051 1.613 . S
N2052 C2055 1.350 . S
N2053 S2051 1.610 . S
N2053 C2054 1.351 . S
C2054 C2048 1.428 . S
C2054 N2053 1.351 . S
C2054 C2055 1.434 . S
C2055 C2046 1.429 . S
C2055 N2052 1.350 . S
C2055 C2054 1.434 . S
C2056 C2057 1.369 . S
C2056 C2058 1.419 . S
C2056 H2060 0.930 . S
C2057 C2056 1.369 . S
C2057 C2066 1.429 . S
C2058 C2056 1.419 . S
C2058 C2059 1.363 . S
C2058 H2061 0.929 . S
C2059 C2058 1.363 . S
C2059 C2065 1.428 . S
H2060 C2056 0.930 . S
H2061 C2058 0.929 . S
S2062 N2063 1.613 . S
S2062 N2064 1.610 . S
N2063 S2062 1.613 . S
N2063 C2066 1.350 . S
N2064 S2062 1.610 . S
N2064 C2065 1.351 . S
C2065 C2059 1.428 . S
C2065 N2064 1.351 . S
C2065 C2066 1.434 . S
C2066 C2057 1.429 . S
C2066 N2063 1.350 . S
C2066 C2065 1.434 . S
C2067 C2068 1.369 . S
C2067 C2069 1.419 . S
C2067 H2071 0.930 . S
C2068 C2067 1.369 . S
C2068 C2077 1.429 . S
C2069 C2067 1.419 . S
C2069 C2070 1.363 . S
C2069 H2072 0.929 . S
C2070 C2069 1.363 . S
C2070 C2076 1.428 . S
H2071 C2067 0.930 . S
H2072 C2069 0.929 . S
S2073 N2074 1.613 . S
S2073 N2075 1.610 . S
N2074 S2073 1.613 . S
N2074 C2077 1.350 . S
N2075 S2073 1.610 . S
N2075 C2076 1.351 . S
C2076 C2070 1.428 . S
C2076 N2075 1.351 . S
C2076 C2077 1.434 . S
C2077 C2068 1.429 . S
C2077 N2074 1.350 . S
C2077 C2076 1.434 . S
C2078 C2079 1.369 . S
C2078 C2080 1.419 . S
C2078 H2082 0.930 . S
C2079 C2078 1.369 . S
C2079 C2088 1.429 . S
C2080 C2078 1.419 . S
C2080 C2081 1.363 . S
C2080 H2083 0.929 . S
C2081 C2080 1.363 . S
C2081 C2087 1.428 . S
H2082 C2078 0.930 . S
H2083 C2080 0.929 . S
S2084 N2085 1.613 . S
S2084 N2086 1.610 . S
N2085 S2084 1.613 . S
N2085 C2088 1.350 . S
N2086 S2084 1.610 . S
N2086 C2087 1.351 . S
C2087 C2081 1.428 . S
C2087 N2086 1.351 . S
C2087 C2088 1.434 . S
C2088 C2079 1.429 . S
C2088 N2085 1.350 . S
C2088 C2087 1.434 . S
C2089 C2090 1.369 . S
C2089 C2091 1.419 . S
C2089 H2093 0.930 . S
C2090 C2089 1.369 . S
C2090 C2099 1.429 . S
C2091 C2089 1.419 . S
C2091 C2092 1.363 . S
C2091 H2094 0.929 . S
C2092 C2091 1.363 . S
C2092 C2098 1.428 . S
H2093 C2089 0.930 . S
H2094 C2091 0.929 . S
S2095 N2096 1.613 . S
S2095 N2097 1.610 . S
N2096 S2095 1.613 . S
N2096 C2099 1.350 . S
N2097 S2095 1.610 . S
N2097 C2098 1.351 . S
C2098 C2092 1.428 . S
C2098 N2097 1.351 . S
C2098 C2099 1.434 . S
C2099 C2090 1.429 . S
C2099 N2096 1.350 . S
C2099 C2098 1.434 . S
C2100 C2101 1.369 . S
C2100 C2102 1.419 . S
C2100 H2104 0.930 . S
C2101 C2100 1.369 . S
C2101 C2110 1.429 . S
C2102 C2100 1.419 . S
C2102 C2103 1.363 . S
C2102 H2105 0.929 . S
C2103 C2102 1.363 . S
C2103 C2109 1.428 . S
H2104 C2100 0.930 . S
H2105 C2102 0.929 . S
S2106 N2107 1.613 . S
S2106 N2108 1.610 . S
N2107 S2106 1.613 . S
N2107 C2110 1.350 . S
N2108 S2106 1.610 . S
N2108 C2109 1.351 . S
C2109 C2103 1.428 . S
C2109 N2108 1.351 . S
C2109 C2110 1.434 . S
C2110 C2101 1.429 . S
C2110 N2107 1.350 . S
C2110 C2109 1.434 . S
C2111 C2112 1.369 . S
C2111 C2113 1.419 . S
C2111 H2115 0.930 . S
C2112 C2111 1.369 . S
C2112 C2121 1.429 . S
C2113 C2111 1.419 . S
C2113 C2114 1.363 . S
C2113 H2116 0.929 . S
C2114 C2113 1.363 . S
C2114 C2120 1.428 . S
H2115 C2111 0.930 . S
H2116 C2113 0.929 . S
S2117 N2118 1.613 . S
S2117 N2119 1.610 . S
N2118 S2117 1.613 . S
N2118 C2121 1.350 . S
N2119 S2117 1.610 . S
N2119 C2120 1.351 . S
C2120 C2114 1.428 . S
C2120 N2119 1.351 . S
C2120 C2121 1.434 . S
C2121 C2112 1.429 . S
C2121 N2118 1.350 . S
C2121 C2120 1.434 . S
C2122 C2123 1.369 . S
C2122 C2124 1.419 . S
C2122 H2126 0.930 . S
C2123 C2122 1.369 . S
C2123 C2132 1.429 . S
C2124 C2122 1.419 . S
C2124 C2125 1.363 . S
C2124 H2127 0.929 . S
C2125 C2124 1.363 . S
C2125 C2131 1.428 . S
H2126 C2122 0.930 . S
H2127 C2124 0.929 . S
S2128 N2129 1.613 . S
S2128 N2130 1.610 . S
N2129 S2128 1.613 . S
N2129 C2132 1.350 . S
N2130 S2128 1.610 . S
N2130 C2131 1.351 . S
C2131 C2125 1.428 . S
C2131 N2130 1.351 . S
C2131 C2132 1.434 . S
C2132 C2123 1.429 . S
C2132 N2129 1.350 . S
C2132 C2131 1.434 . S
C2133 C2134 1.369 . S
C2133 C2135 1.419 . S
C2133 H2137 0.930 . S
C2134 C2133 1.369 . S
C2134 C2143 1.429 . S
C2135 C2133 1.419 . S
C2135 C2136 1.363 . S
C2135 H2138 0.929 . S
C2136 C2135 1.363 . S
C2136 C2142 1.428 . S
H2137 C2133 0.930 . S
H2138 C2135 0.929 . S
S2139 N2140 1.613 . S
S2139 N2141 1.610 . S
N2140 S2139 1.613 . S
N2140 C2143 1.350 . S
N2141 S2139 1.610 . S
N2141 C2142 1.351 . S
C2142 C2136 1.428 . S
C2142 N2141 1.351 . S
C2142 C2143 1.434 . S
C2143 C2134 1.429 . S
C2143 N2140 1.350 . S
C2143 C2142 1.434 . S
C2144 C2145 1.369 . S
C2144 C2146 1.419 . S
C2144 H2148 0.930 . S
C2145 C2144 1.369 . S
C2145 C2154 1.429 . S
C2146 C2144 1.419 . S
C2146 C2147 1.363 . S
C2146 H2149 0.929 . S
C2147 C2146 1.363 . S
C2147 C2153 1.428 . S
H2148 C2144 0.930 . S
H2149 C2146 0.929 . S
S2150 N2151 1.613 . S
S2150 N2152 1.610 . S
N2151 S2150 1.613 . S
N2151 C2154 1.350 . S
N2152 S2150 1.610 . S
N2152 C2153 1.351 . S
C2153 C2147 1.428 . S
C2153 N2152 1.351 . S
C2153 C2154 1.434 . S
C2154 C2145 1.429 . S
C2154 N2151 1.350 . S
C2154 C2153 1.434 . S
C2155 C2156 1.369 . S
C2155 C2157 1.419 . S
C2155 H2159 0.930 . S
C2156 C2155 1.369 . S
C2156 C2165 1.429 . S
C2157 C2155 1.419 . S
C2157 C2158 1.363 . S
C2157 H2160 0.929 . S
C2158 C2157 1.363 . S
C2158 C2164 1.428 . S
H2159 C2155 0.930 . S
H2160 C2157 0.929 . S
S2161 N2162 1.613 . S
S2161 N2163 1.610 . S
N2162 S2161 1.613 . S
N2162 C2165 1.350 . S
N2163 S2161 1.610 . S
N2163 C2164 1.351 . S
C2164 C2158 1.428 . S
C2164 N2163 1.351 . S
C2164 C2165 1.434 . S
C2165 C2156 1.429 . S
C2165 N2162 1.350 . S
C2165 C2164 1.434 . S
C2166 C2167 1.369 . S
C2166 C2168 1.419 . S
C2166 H2170 0.930 . S
C2167 C2166 1.369 . S
C2167 C2176 1.429 . S
C2168 C2166 1.419 . S
C2168 C2169 1.363 . S
C2168 H2171 0.929 . S
C2169 C2168 1.363 . S
C2169 C2175 1.428 . S
H2170 C2166 0.930 . S
H2171 C2168 0.929 . S
S2172 N2173 1.613 . S
S2172 N2174 1.610 . S
N2173 S2172 1.613 . S
N2173 C2176 1.350 . S
N2174 S2172 1.610 . S
N2174 C2175 1.351 . S
C2175 C2169 1.428 . S
C2175 N2174 1.351 . S
C2175 C2176 1.434 . S
C2176 C2167 1.429 . S
C2176 N2173 1.350 . S
C2176 C2175 1.434 . S
C2177 C2178 1.369 . S
C2177 C2179 1.419 . S
C2177 H2181 0.930 . S
C2178 C2177 1.369 . S
C2178 C2187 1.429 . S
C2179 C2177 1.419 . S
C2179 C2180 1.363 . S
C2179 H2182 0.929 . S
C2180 C2179 1.363 . S
C2180 C2186 1.428 . S
H2181 C2177 0.930 . S
H2182 C2179 0.929 . S
S2183 N2184 1.613 . S
S2183 N2185 1.610 . S
N2184 S2183 1.613 . S
N2184 C2187 1.350 . S
N2185 S2183 1.610 . S
N2185 C2186 1.351 . S
C2186 C2180 1.428 . S
C2186 N2185 1.351 . S
C2186 C2187 1.434 . S
C2187 C2178 1.429 . S
C2187 N2184 1.350 . S
C2187 C2186 1.434 . S
C2188 C2189 1.369 . S
C2188 C2190 1.419 . S
C2188 H2192 0.930 . S
C2189 C2188 1.369 . S
C2189 C2198 1.429 . S
C2190 C2188 1.419 . S
C2190 C2191 1.363 . S
C2190 H2193 0.929 . S
C2191 C2190 1.363 . S
C2191 C2197 1.428 . S
H2192 C2188 0.930 . S
H2193 C2190 0.929 . S
S2194 N2195 1.613 . S
S2194 N2196 1.610 . S
N2195 S2194 1.613 . S
N2195 C2198 1.350 . S
N2196 S2194 1.610 . S
N2196 C2197 1.351 . S
C2197 C2191 1.428 . S
C2197 N2196 1.351 . S
C2197 C2198 1.434 . S
C2198 C2189 1.429 . S
C2198 N2195 1.350 . S
C2198 C2197 1.434 . S
C2199 C2200 1.369 . S
C2199 C2201 1.419 . S
C2199 H2203 0.930 . S
C2200 C2199 1.369 . S
C2200 C2209 1.429 . S
C2201 C2199 1.419 . S
C2201 C2202 1.363 . S
C2201 H2204 0.929 . S
C2202 C2201 1.363 . S
C2202 C2208 1.428 . S
H2203 C2199 0.930 . S
H2204 C2201 0.929 . S
S2205 N2206 1.613 . S
S2205 N2207 1.610 . S
N2206 S2205 1.613 . S
N2206 C2209 1.350 . S
N2207 S2205 1.610 . S
N2207 C2208 1.351 . S
C2208 C2202 1.428 . S
C2208 N2207 1.351 . S
C2208 C2209 1.434 . S
C2209 C2200 1.429 . S
C2209 N2206 1.350 . S
C2209 C2208 1.434 . S
C2210 C2211 1.369 . S
C2210 C2212 1.419 . S
C2210 H2214 0.930 . S
C2211 C2210 1.369 . S
C2211 C2220 1.429 . S
C2212 C2210 1.419 . S
C2212 C2213 1.363 . S
C2212 H2215 0.929 . S
C2213 C2212 1.363 . S
C2213 C2219 1.428 . S
H2214 C2210 0.930 . S
H2215 C2212 0.929 . S
S2216 N2217 1.613 . S
S2216 N2218 1.610 . S
N2217 S2216 1.613 . S
N2217 C2220 1.350 . S
N2218 S2216 1.610 . S
N2218 C2219 1.351 . S
C2219 C2213 1.428 . S
C2219 N2218 1.351 . S
C2219 C2220 1.434 . S
C2220 C2211 1.429 . S
C2220 N2217 1.350 . S
C2220 C2219 1.434 . S
C2221 C2222 1.369 . S
C2221 C2223 1.419 . S
C2221 H2225 0.930 . S
C2222 C2221 1.369 . S
C2222 C2231 1.429 . S
C2223 C2221 1.419 . S
C2223 C2224 1.363 . S
C2223 H2226 0.929 . S
C2224 C2223 1.363 . S
C2224 C2230 1.428 . S
H2225 C2221 0.930 . S
H2226 C2223 0.929 . S
S2227 N2228 1.613 . S
S2227 N2229 1.610 . S
N2228 S2227 1.613 . S
N2228 C2231 1.350 . S
N2229 S2227 1.610 . S
N2229 C2230 1.351 . S
C2230 C2224 1.428 . S
C2230 N2229 1.351 . S
C2230 C2231 1.434 . S
C2231 C2222 1.429 . S
C2231 N2228 1.350 . S
C2231 C2230 1.434 . S
C2232 C2233 1.369 . S
C2232 C2234 1.419 1_455 S
C2232 H2236 0.930 . S
C2233 C2232 1.369 . S
C2233 C2242 1.429 . S
C2234 C2232 1.419 1_655 S
C2234 C2235 1.363 . S
C2234 H2237 0.929 . S
C2235 C2234 1.363 . S
C2235 C2241 1.428 . S
H2236 C2232 0.930 . S
H2237 C2234 0.929 . S
S2238 N2239 1.613 . S
S2238 N2240 1.614 1_455 S
N2239 S2238 1.613 . S
N2239 C2242 1.350 . S
N2240 S2238 1.614 1_655 S
N2240 C2241 1.329 . S
C2241 C2235 1.428 . S
C2241 N2240 1.329 . S
C2241 C2242 1.434 1_655 S
C2242 C2233 1.429 . S
C2242 N2239 1.350 . S
C2242 C2241 1.434 1_455 S
C2243 C2244 1.369 . S
C2243 C2245 1.419 . S
C2243 H2247 0.930 . S
C2244 C2243 1.369 . S
C2244 C2253 1.429 . S
C2245 C2243 1.419 . S
C2245 C2246 1.363 . S
C2245 H2248 0.929 . S
C2246 C2245 1.363 . S
C2246 C2252 1.428 . S
H2247 C2243 0.930 . S
H2248 C2245 0.929 . S
S2249 N2250 1.613 . S
S2249 N2251 1.610 . S
N2250 S2249 1.613 . S
N2250 C2253 1.350 . S
N2251 S2249 1.610 . S
N2251 C2252 1.351 . S
C2252 C2246 1.428 . S
C2252 N2251 1.351 . S
C2252 C2253 1.434 . S
C2253 C2244 1.429 . S
C2253 N2250 1.350 . S
C2253 C2252 1.434 . S
C2254 C2255 1.369 1_545 S
C2254 C2256 1.419 . S
C2254 H2258 0.930 . S
C2255 C2254 1.369 1_565 S
C2255 C2264 1.429 . S
C2256 C2254 1.419 . S
C2256 C2257 1.363 . S
C2256 H2259 0.929 . S
C2257 C2256 1.363 . S
C2257 C2263 1.428 1_545 S
H2258 C2254 0.930 . S
H2259 C2256 0.929 . S
S2260 N2261 1.613 . S
S2260 N2262 1.610 . S
N2261 S2260 1.613 . S
N2261 C2264 1.350 . S
N2262 S2260 1.610 . S
N2262 C2263 1.351 . S
C2263 C2257 1.428 1_565 S
C2263 N2262 1.351 . S
C2263 C2264 1.434 . S
C2264 C2255 1.429 . S
C2264 N2261 1.350 . S
C2264 C2263 1.434 . S
C2265 C2266 1.369 1_455 S
C2265 C2267 1.419 . S
C2265 H2269 0.930 . S
C2266 C2265 1.369 1_655 S
C2266 C2275 1.429 . S
C2267 C2265 1.419 . S
C2267 C2268 1.363 . S
C2267 H2270 0.929 . S
C2268 C2267 1.363 . S
C2268 C2274 1.428 1_455 S
H2269 C2265 0.930 . S
H2270 C2267 0.929 . S
S2271 N2272 1.613 . S
S2271 N2273 1.610 . S
N2272 S2271 1.613 . S
N2272 C2275 1.350 . S
N2273 S2271 1.610 . S
N2273 C2274 1.351 . S
C2274 C2268 1.428 1_655 S
C2274 N2273 1.351 . S
C2274 C2275 1.434 . S
C2275 C2266 1.429 . S
C2275 N2272 1.350 . S
C2275 C2274 1.434 . S
C2276 C2277 1.369 . S
C2276 C2278 1.419 . S
C2276 H2280 0.930 . S
C2277 C2276 1.369 . S
C2277 C2286 1.429 . S
C2278 C2276 1.419 . S
C2278 C2279 1.363 . S
C2278 H2281 0.929 . S
C2279 C2278 1.363 . S
C2279 C2285 1.428 . S
H2280 C2276 0.930 . S
H2281 C2278 0.929 . S
S2282 N2283 1.613 . S
S2282 N2284 1.610 . S
N2283 S2282 1.613 . S
N2283 C2286 1.350 . S
N2284 S2282 1.610 . S
N2284 C2285 1.351 . S
C2285 C2279 1.428 . S
C2285 N2284 1.351 . S
C2285 C2286 1.434 . S
C2286 C2277 1.429 . S
C2286 N2283 1.350 . S
C2286 C2285 1.434 . S
C2287 C2288 1.369 1_565 S
C2287 C2289 1.419 . S
C2287 H2291 0.930 . S
C2288 C2287 1.369 1_545 S
C2288 C2297 1.429 . S
C2289 C2287 1.419 . S
C2289 C2290 1.363 . S
C2289 H2292 0.929 . S
C2290 C2289 1.363 . S
C2290 C2296 1.428 1_565 S
H2291 C2287 0.930 . S
H2292 C2289 0.929 . S
S2293 N2294 1.613 . S
S2293 N2295 1.610 . S
N2294 S2293 1.613 . S
N2294 C2297 1.350 . S
N2295 S2293 1.610 . S
N2295 C2296 1.351 . S
C2296 C2290 1.428 1_545 S
C2296 N2295 1.351 . S
C2296 C2297 1.434 . S
C2297 C2288 1.429 . S
C2297 N2294 1.350 . S
C2297 C2296 1.434 . S
C2298 C2299 1.369 . S
C2298 C2300 1.419 . S
C2298 H2302 0.930 . S
C2299 C2298 1.369 . S
C2299 C2308 1.429 . S
C2300 C2298 1.419 . S
C2300 C2301 1.363 . S
C2300 H2303 0.929 . S
C2301 C2300 1.363 . S
C2301 C2307 1.428 . S
H2302 C2298 0.930 . S
H2303 C2300 0.929 . S
S2304 N2305 1.613 . S
S2304 N2306 1.610 . S
N2305 S2304 1.613 . S
N2305 C2308 1.350 . S
N2306 S2304 1.610 . S
N2306 C2307 1.351 . S
C2307 C2301 1.428 . S
C2307 N2306 1.351 . S
C2307 C2308 1.434 . S
C2308 C2299 1.429 . S
C2308 N2305 1.350 . S
C2308 C2307 1.434 . S
C2309 C2310 1.369 . S
C2309 C2311 1.419 . S
C2309 H2313 0.930 . S
C2310 C2309 1.369 . S
C2310 C2319 1.429 . S
C2311 C2309 1.419 . S
C2311 C2312 1.363 . S
C2311 H2314 0.929 . S
C2312 C2311 1.363 . S
C2312 C2318 1.428 . S
H2313 C2309 0.930 . S
H2314 C2311 0.929 . S
S2315 N2316 1.613 . S
S2315 N2317 1.610 . S
N2316 S2315 1.613 . S
N2316 C2319 1.350 . S
N2317 S2315 1.610 . S
N2317 C2318 1.351 . S
C2318 C2312 1.428 . S
C2318 N2317 1.351 . S
C2318 C2319 1.434 . S
C2319 C2310 1.429 . S
C2319 N2316 1.350 . S
C2319 C2318 1.434 . S
C2320 C2321 1.369 . S
C2320 C2322 1.419 . S
C2320 H2324 0.930 . S
C2321 C2320 1.369 . S
C2321 C2330 1.429 . S
C2322 C2320 1.419 . S
C2322 C2323 1.363 . S
C2322 H2325 0.929 . S
C2323 C2322 1.363 . S
C2323 C2329 1.428 . S
H2324 C2320 0.930 . S
H2325 C2322 0.929 . S
S2326 N2327 1.613 . S
S2326 N2328 1.610 . S
N2327 S2326 1.613 . S
N2327 C2330 1.350 . S
N2328 S2326 1.610 . S
N2328 C2329 1.351 . S
C2329 C2323 1.428 . S
C2329 N2328 1.351 . S
C2329 C2330 1.434 . S
C2330 C2321 1.429 . S
C2330 N2327 1.350 . S
C2330 C2329 1.434 . S
C2331 C2332 1.369 . S
C2331 C2333 1.419 . S
C2331 H2335 0.930 . S
C2332 C2331 1.369 . S
C2332 C2341 1.429 . S
C2333 C2331 1.419 . S
C2333 C2334 1.363 . S
C2333 H2336 0.929 . S
C2334 C2333 1.363 . S
C2334 C2340 1.428 . S
H2335 C2331 0.930 . S
H2336 C2333 0.929 . S
S2337 N2338 1.613 . S
S2337 N2339 1.610 . S
N2338 S2337 1.613 . S
N2338 C2341 1.350 . S
N2339 S2337 1.610 . S
N2339 C2340 1.351 . S
C2340 C2334 1.428 . S
C2340 N2339 1.351 . S
C2340 C2341 1.434 . S
C2341 C2332 1.429 . S
C2341 N2338 1.350 . S
C2341 C2340 1.434 . S
C2342 C2343 1.369 . S
C2342 C2344 1.419 . S
C2342 H2346 0.930 . S
C2343 C2342 1.369 . S
C2343 C2352 1.429 . S
C2344 C2342 1.419 . S
C2344 C2345 1.363 . S
C2344 H2347 0.929 . S
C2345 C2344 1.363 . S
C2345 C2351 1.428 . S
H2346 C2342 0.930 . S
H2347 C2344 0.929 . S
S2348 N2349 1.613 . S
S2348 N2350 1.610 . S
N2349 S2348 1.613 . S
N2349 C2352 1.350 . S
N2350 S2348 1.610 . S
N2350 C2351 1.351 . S
C2351 C2345 1.428 . S
C2351 N2350 1.351 . S
C2351 C2352 1.434 . S
C2352 C2343 1.429 . S
C2352 N2349 1.350 . S
C2352 C2351 1.434 . S
C2353 C2354 1.369 . S
C2353 C2355 1.419 . S
C2353 H2357 0.930 . S
C2354 C2353 1.369 . S
C2354 C2363 1.429 . S
C2355 C2353 1.419 . S
C2355 C2356 1.363 . S
C2355 H2358 0.929 . S
C2356 C2355 1.363 . S
C2356 C2362 1.428 . S
H2357 C2353 0.930 . S
H2358 C2355 0.929 . S
S2359 N2360 1.613 . S
S2359 N2361 1.610 . S
N2360 S2359 1.613 . S
N2360 C2363 1.350 . S
N2361 S2359 1.610 . S
N2361 C2362 1.351 . S
C2362 C2356 1.428 . S
C2362 N2361 1.351 . S
C2362 C2363 1.434 . S
C2363 C2354 1.429 . S
C2363 N2360 1.350 . S
C2363 C2362 1.434 . S
C2364 C2365 1.369 . S
C2364 C2366 1.419 1_554 S
C2364 H2368 0.930 . S
C2365 C2364 1.369 . S
C2365 C2374 1.429 . S
C2366 C2364 1.419 1_556 S
C2366 C2367 1.363 . S
C2366 H2369 0.929 . S
C2367 C2366 1.363 . S
C2367 C2373 1.428 . S
H2368 C2364 0.930 . S
H2369 C2366 0.929 . S
S2370 N2371 1.613 . S
S2370 N2372 1.610 1_554 S
N2371 S2370 1.613 . S
N2371 C2374 1.350 . S
N2372 S2370 1.610 1_556 S
N2372 C2373 1.351 . S
C2373 C2367 1.428 . S
C2373 N2372 1.351 . S
C2373 C2374 1.434 1_556 S
C2374 C2365 1.429 . S
C2374 N2371 1.350 . S
C2374 C2373 1.434 1_554 S
C2375 C2376 1.369 . S
C2375 C2377 1.419 1_556 S
C2375 H2379 0.930 . S
C2376 C2375 1.369 . S
C2376 C2385 1.429 . S
C2377 C2375 1.419 1_554 S
C2377 C2378 1.363 . S
C2377 H2380 0.929 . S
C2378 C2377 1.363 . S
C2378 C2384 1.428 . S
H2379 C2375 0.930 . S
H2380 C2377 0.929 . S
S2381 N2382 1.613 1_554 S
S2381 N2383 1.610 . S
N2382 S2381 1.613 1_556 S
N2382 C2385 1.350 . S
N2383 S2381 1.610 . S
N2383 C2384 1.351 . S
C2384 C2378 1.428 . S
C2384 N2383 1.351 . S
C2384 C2385 1.434 1_554 S
C2385 C2376 1.429 . S
C2385 N2382 1.350 . S
C2385 C2384 1.434 1_556 S
C2386 C2387 1.369 . S
C2386 C2388 1.419 1_556 S
C2386 H2390 0.930 . S
C2387 C2386 1.369 . S
C2387 C2396 1.429 . S
C2388 C2386 1.419 1_554 S
C2388 C2389 1.363 . S
C2388 H2391 0.929 . S
C2389 C2388 1.363 . S
C2389 C2395 1.428 . S
H2390 C2386 0.930 . S
H2391 C2388 0.929 . S
S2392 N2393 1.613 1_554 S
S2392 N2394 1.610 . S
N2393 S2392 1.613 1_556 S
N2393 C2396 1.350 . S
N2394 S2392 1.610 . S
N2394 C2395 1.351 . S
C2395 C2389 1.428 . S
C2395 N2394 1.351 . S
C2395 C2396 1.434 1_554 S
C2396 C2387 1.429 . S
C2396 N2393 1.350 . S
C2396 C2395 1.434 1_556 S
C2397 C2398 1.369 . S
C2397 C2399 1.419 . S
C2397 H2401 0.930 . S
C2398 C2397 1.369 . S
C2398 C2407 1.429 . S
C2399 C2397 1.419 . S
C2399 C2400 1.363 . S
C2399 H2402 0.929 . S
C2400 C2399 1.363 . S
C2400 C2406 1.428 . S
H2401 C2397 0.930 . S
H2402 C2399 0.929 . S
S2403 N2404 1.613 . S
S2403 N2405 1.610 . S
N2404 S2403 1.613 . S
N2404 C2407 1.350 . S
N2405 S2403 1.610 . S
N2405 C2406 1.351 . S
C2406 C2400 1.428 . S
C2406 N2405 1.351 . S
C2406 C2407 1.434 . S
C2407 C2398 1.429 . S
C2407 N2404 1.350 . S
C2407 C2406 1.434 . S
C2408 C2409 1.369 . S
C2408 C2410 1.419 . S
C2408 H2412 0.930 . S
C2409 C2408 1.369 . S
C2409 C2418 1.429 . S
C2410 C2408 1.419 . S
C2410 C2411 1.363 . S
C2410 H2413 0.929 . S
C2411 C2410 1.363 . S
C2411 C2417 1.428 . S
H2412 C2408 0.930 . S
H2413 C2410 0.929 . S
S2414 N2415 1.613 . S
S2414 N2416 1.610 . S
N2415 S2414 1.613 . S
N2415 C2418 1.350 . S
N2416 S2414 1.610 . S
N2416 C2417 1.351 . S
C2417 C2411 1.428 . S
C2417 N2416 1.351 . S
C2417 C2418 1.434 . S
C2418 C2409 1.429 . S
C2418 N2415 1.350 . S
C2418 C2417 1.434 . S
C2419 C2420 1.369 . S
C2419 C2421 1.419 . S
C2419 H2423 0.930 . S
C2420 C2419 1.369 . S
C2420 C2429 1.429 . S
C2421 C2419 1.419 . S
C2421 C2422 1.363 . S
C2421 H2424 0.929 . S
C2422 C2421 1.363 . S
C2422 C2428 1.428 . S
H2423 C2419 0.930 . S
H2424 C2421 0.929 . S
S2425 N2426 1.613 . S
S2425 N2427 1.610 . S
N2426 S2425 1.613 . S
N2426 C2429 1.350 . S
N2427 S2425 1.610 . S
N2427 C2428 1.351 . S
C2428 C2422 1.428 . S
C2428 N2427 1.351 . S
C2428 C2429 1.434 . S
C2429 C2420 1.429 . S
C2429 N2426 1.350 . S
C2429 C2428 1.434 . S
C2430 C2431 1.369 1_655 S
C2430 C2432 1.419 . S
C2430 H2434 0.930 . S
C2431 C2430 1.369 1_455 S
C2431 C2440 1.429 . S
C2432 C2430 1.419 . S
C2432 C2433 1.363 . S
C2432 H2435 0.929 . S
C2433 C2432 1.363 . S
C2433 C2439 1.428 1_655 S
H2434 C2430 0.930 . S
H2435 C2432 0.929 . S
S2436 N2437 1.613 . S
S2436 N2438 1.610 . S
N2437 S2436 1.613 . S
N2437 C2440 1.350 . S
N2438 S2436 1.610 . S
N2438 C2439 1.351 . S
C2439 C2433 1.428 1_455 S
C2439 N2438 1.351 . S
C2439 C2440 1.434 . S
C2440 C2431 1.429 . S
C2440 N2437 1.350 . S
C2440 C2439 1.434 . S
C2441 C2442 1.369 . S
C2441 C2443 1.419 . S
C2441 H2445 0.930 . S
C2442 C2441 1.369 . S
C2442 C2451 1.429 . S
C2443 C2441 1.419 . S
C2443 C2444 1.363 . S
C2443 H2446 0.929 . S
C2444 C2443 1.363 . S
C2444 C2450 1.428 . S
H2445 C2441 0.930 . S
H2446 C2443 0.929 . S
S2447 N2448 1.613 . S
S2447 N2449 1.610 . S
N2448 S2447 1.613 . S
N2448 C2451 1.350 . S
N2449 S2447 1.610 . S
N2449 C2450 1.351 . S
C2450 C2444 1.428 . S
C2450 N2449 1.351 . S
C2450 C2451 1.434 . S
C2451 C2442 1.429 . S
C2451 N2448 1.350 . S
C2451 C2450 1.434 . S
C2452 C2453 1.369 1_565 S
C2452 C2454 1.419 . S
C2452 H2456 0.930 . S
C2453 C2452 1.369 1_545 S
C2453 C2462 1.429 . S
C2454 C2452 1.419 . S
C2454 C2455 1.363 . S
C2454 H2457 0.929 . S
C2455 C2454 1.363 . S
C2455 C2461 1.428 1_565 S
H2456 C2452 0.930 . S
H2457 C2454 0.929 . S
S2458 N2459 1.613 . S
S2458 N2460 1.610 . S
N2459 S2458 1.613 . S
N2459 C2462 1.350 . S
N2460 S2458 1.610 . S
N2460 C2461 1.351 . S
C2461 C2455 1.428 1_545 S
C2461 N2460 1.351 . S
C2461 C2462 1.434 . S
C2462 C2453 1.429 . S
C2462 N2459 1.350 . S
C2462 C2461 1.434 . S
C2463 C2464 1.369 1_545 S
C2463 C2465 1.419 . S
C2463 H2467 0.930 . S
C2464 C2463 1.369 1_565 S
C2464 C2473 1.429 . S
C2465 C2463 1.419 . S
C2465 C2466 1.363 . S
C2465 H2468 0.929 . S
C2466 C2465 1.363 . S
C2466 C2472 1.428 1_545 S
H2467 C2463 0.930 . S
H2468 C2465 0.929 . S
S2469 N2470 1.613 . S
S2469 N2471 1.610 . S
N2470 S2469 1.613 . S
N2470 C2473 1.350 . S
N2471 S2469 1.610 . S
N2471 C2472 1.351 . S
C2472 C2466 1.428 1_565 S
C2472 N2471 1.351 . S
C2472 C2473 1.434 . S
C2473 C2464 1.429 . S
C2473 N2470 1.350 . S
C2473 C2472 1.434 . S
C2474 C2475 1.369 . S
C2474 C2476 1.419 . S
C2474 H2478 0.930 . S
C2475 C2474 1.369 . S
C2475 C2484 1.429 1_655 S
C2476 C2474 1.419 . S
C2476 C2477 1.363 1_655 S
C2476 H2479 0.929 . S
C2477 C2476 1.363 1_455 S
C2477 C2483 1.428 . S
H2478 C2474 0.930 . S
H2479 C2476 0.929 . S
S2480 N2481 1.613 . S
S2480 N2482 1.610 . S
N2481 S2480 1.613 . S
N2481 C2484 1.350 . S
N2482 S2480 1.610 . S
N2482 C2483 1.351 . S
C2483 C2477 1.428 . S
C2483 N2482 1.351 . S
C2483 C2484 1.434 . S
C2484 C2475 1.429 1_455 S
C2484 N2481 1.350 . S
C2484 C2483 1.434 . S
C2485 C2486 1.369 . S
C2485 C2487 1.419 . S
C2485 H2489 0.930 . S
C2486 C2485 1.369 . S
C2486 C2495 1.429 . S
C2487 C2485 1.419 . S
C2487 C2488 1.363 . S
C2487 H2490 0.929 . S
C2488 C2487 1.363 . S
C2488 C2494 1.428 . S
H2489 C2485 0.930 . S
H2490 C2487 0.929 . S
S2491 N2492 1.613 . S
S2491 N2493 1.610 . S
N2492 S2491 1.613 . S
N2492 C2495 1.350 . S
N2493 S2491 1.610 . S
N2493 C2494 1.351 . S
C2494 C2488 1.428 . S
C2494 N2493 1.351 . S
C2494 C2495 1.434 . S
C2495 C2486 1.429 . S
C2495 N2492 1.350 . S
C2495 C2494 1.434 . S
C2496 C2497 1.369 . S
C2496 C2498 1.419 . S
C2496 H2500 0.930 . S
C2497 C2496 1.369 . S
C2497 C2506 1.429 . S
C2498 C2496 1.419 . S
C2498 C2499 1.363 . S
C2498 H2501 0.929 . S
C2499 C2498 1.363 . S
C2499 C2505 1.428 . S
H2500 C2496 0.930 . S
H2501 C2498 0.929 . S
S2502 N2503 1.613 . S
S2502 N2504 1.610 . S
N2503 S2502 1.613 . S
N2503 C2506 1.350 . S
N2504 S2502 1.610 . S
N2504 C2505 1.351 . S
C2505 C2499 1.428 . S
C2505 N2504 1.351 . S
C2505 C2506 1.434 . S
C2506 C2497 1.429 . S
C2506 N2503 1.350 . S
C2506 C2505 1.434 . S
C2507 C2508 1.369 . S
C2507 C2509 1.419 . S
C2507 H2511 0.930 . S
C2508 C2507 1.369 . S
C2508 C2517 1.429 . S
C2509 C2507 1.419 . S
C2509 C2510 1.363 . S
C2509 H2512 0.929 . S
C2510 C2509 1.363 . S
C2510 C2516 1.428 . S
H2511 C2507 0.930 . S
H2512 C2509 0.929 . S
S2513 N2514 1.613 . S
S2513 N2515 1.610 . S
N2514 S2513 1.613 . S
N2514 C2517 1.350 . S
N2515 S2513 1.610 . S
N2515 C2516 1.351 . S
C2516 C2510 1.428 . S
C2516 N2515 1.351 . S
C2516 C2517 1.434 . S
C2517 C2508 1.429 . S
C2517 N2514 1.350 . S
C2517 C2516 1.434 . S
C2518 C2519 1.369 . S
C2518 C2520 1.419 . S
C2518 H2522 0.930 . S
C2519 C2518 1.369 . S
C2519 C2528 1.429 . S
C2520 C2518 1.419 . S
C2520 C2521 1.363 . S
C2520 H2523 0.929 . S
C2521 C2520 1.363 . S
C2521 C2527 1.428 . S
H2522 C2518 0.930 . S
H2523 C2520 0.929 . S
S2524 N2525 1.613 . S
S2524 N2526 1.610 . S
N2525 S2524 1.613 . S
N2525 C2528 1.350 . S
N2526 S2524 1.610 . S
N2526 C2527 1.351 . S
C2527 C2521 1.428 . S
C2527 N2526 1.351 . S
C2527 C2528 1.434 . S
C2528 C2519 1.429 . S
C2528 N2525 1.350 . S
C2528 C2527 1.434 . S
C2529 C2530 1.369 . S
C2529 C2531 1.419 . S
C2529 H2533 0.930 . S
C2530 C2529 1.369 . S
C2530 C2539 1.429 . S
C2531 C2529 1.419 . S
C2531 C2532 1.363 . S
C2531 H2534 0.929 . S
C2532 C2531 1.363 . S
C2532 C2538 1.428 . S
H2533 C2529 0.930 . S
H2534 C2531 0.929 . S
S2535 N2536 1.613 . S
S2535 N2537 1.610 . S
N2536 S2535 1.613 . S
N2536 C2539 1.350 . S
N2537 S2535 1.610 . S
N2537 C2538 1.351 . S
C2538 C2532 1.428 . S
C2538 N2537 1.351 . S
C2538 C2539 1.434 . S
C2539 C2530 1.429 . S
C2539 N2536 1.350 . S
C2539 C2538 1.434 . S
C2540 C2541 1.369 . S
C2540 C2542 1.419 . S
C2540 H2544 0.930 . S
C2541 C2540 1.369 . S
C2541 C2550 1.429 . S
C2542 C2540 1.419 . S
C2542 C2543 1.363 . S
C2542 H2545 0.929 . S
C2543 C2542 1.363 . S
C2543 C2549 1.428 . S
H2544 C2540 0.930 . S
H2545 C2542 0.929 . S
S2546 N2547 1.613 . S
S2546 N2548 1.610 . S
N2547 S2546 1.613 . S
N2547 C2550 1.350 . S
N2548 S2546 1.610 . S
N2548 C2549 1.351 . S
C2549 C2543 1.428 . S
C2549 N2548 1.351 . S
C2549 C2550 1.434 . S
C2550 C2541 1.429 . S
C2550 N2547 1.350 . S
C2550 C2549 1.434 . S
C2551 C2552 1.369 . S
C2551 C2553 1.419 . S
C2551 H2555 0.930 . S
C2552 C2551 1.369 . S
C2552 C2561 1.429 . S
C2553 C2551 1.419 . S
C2553 C2554 1.363 . S
C2553 H2556 0.929 . S
C2554 C2553 1.363 . S
C2554 C2560 1.428 . S
H2555 C2551 0.930 . S
H2556 C2553 0.929 . S
S2557 N2558 1.613 . S
S2557 N2559 1.610 . S
N2558 S2557 1.613 . S
N2558 C2561 1.350 . S
N2559 S2557 1.610 . S
N2559 C2560 1.351 . S
C2560 C2554 1.428 . S
C2560 N2559 1.351 . S
C2560 C2561 1.434 . S
C2561 C2552 1.429 . S
C2561 N2558 1.350 . S
C2561 C2560 1.434 . S
C2562 C2563 1.369 . S
C2562 C2564 1.419 . S
C2562 H2566 0.930 . S
C2563 C2562 1.369 . S
C2563 C2572 1.429 . S
C2564 C2562 1.419 . S
C2564 C2565 1.363 . S
C2564 H2567 0.929 . S
C2565 C2564 1.363 . S
C2565 C2571 1.428 . S
H2566 C2562 0.930 . S
H2567 C2564 0.929 . S
S2568 N2569 1.613 . S
S2568 N2570 1.610 . S
N2569 S2568 1.613 . S
N2569 C2572 1.350 . S
N2570 S2568 1.610 . S
N2570 C2571 1.351 . S
C2571 C2565 1.428 . S
C2571 N2570 1.351 . S
C2571 C2572 1.434 . S
C2572 C2563 1.429 . S
C2572 N2569 1.350 . S
C2572 C2571 1.434 . S
C2573 C2574 1.369 . S
C2573 C2575 1.419 . S
C2573 H2577 0.930 . S
C2574 C2573 1.369 . S
C2574 C2583 1.429 . S
C2575 C2573 1.419 . S
C2575 C2576 1.363 . S
C2575 H2578 0.929 . S
C2576 C2575 1.363 . S
C2576 C2582 1.428 . S
H2577 C2573 0.930 . S
H2578 C2575 0.929 . S
S2579 N2580 1.613 . S
S2579 N2581 1.610 . S
N2580 S2579 1.613 . S
N2580 C2583 1.350 . S
N2581 S2579 1.610 . S
N2581 C2582 1.351 . S
C2582 C2576 1.428 . S
C2582 N2581 1.351 . S
C2582 C2583 1.434 . S
C2583 C2574 1.429 . S
C2583 N2580 1.350 . S
C2583 C2582 1.434 . S
C2584 C2585 1.369 . S
C2584 C2586 1.419 . S
C2584 H2588 0.930 . S
C2585 C2584 1.369 . S
C2585 C2594 1.429 . S
C2586 C2584 1.419 . S
C2586 C2587 1.363 . S
C2586 H2589 0.929 . S
C2587 C2586 1.363 . S
C2587 C2593 1.428 . S
H2588 C2584 0.930 . S
H2589 C2586 0.929 . S
S2590 N2591 1.613 . S
S2590 N2592 1.610 . S
N2591 S2590 1.613 . S
N2591 C2594 1.350 . S
N2592 S2590 1.610 . S
N2592 C2593 1.351 . S
C2593 C2587 1.428 . S
C2593 N2592 1.351 . S
C2593 C2594 1.434 . S
C2594 C2585 1.429 . S
C2594 N2591 1.350 . S
C2594 C2593 1.434 . S
C2595 C2596 1.369 . S
C2595 C2597 1.419 . S
C2595 H2599 0.930 . S
C2596 C2595 1.369 . S
C2596 C2605 1.429 . S
C2597 C2595 1.419 . S
C2597 C2598 1.363 . S
C2597 H2600 0.929 . S
C2598 C2597 1.363 . S
C2598 C2604 1.428 . S
H2599 C2595 0.930 . S
H2600 C2597 0.929 . S
S2601 N2602 1.613 . S
S2601 N2603 1.610 . S
N2602 S2601 1.613 . S
N2602 C2605 1.350 . S
N2603 S2601 1.610 . S
N2603 C2604 1.351 . S
C2604 C2598 1.428 . S
C2604 N2603 1.351 . S
C2604 C2605 1.434 . S
C2605 C2596 1.429 . S
C2605 N2602 1.350 . S
C2605 C2604 1.434 . S
C2606 C2607 1.369 . S
C2606 C2608 1.419 . S
C2606 H2610 0.930 . S
C2607 C2606 1.369 . S
C2607 C2616 1.429 . S
C2608 C2606 1.419 . S
C2608 C2609 1.363 . S
C2608 H2611 0.929 . S
C2609 C2608 1.363 . S
C2609 C2615 1.428 . S
H2610 C2606 0.930 . S
H2611 C2608 0.929 . S
S2612 N2613 1.613 . S
S2612 N2614 1.610 . S
N2613 S2612 1.613 . S
N2613 C2616 1.350 . S
N2614 S2612 1.610 . S
N2614 C2615 1.351 . S
C2615 C2609 1.428 . S
C2615 N2614 1.351 . S
C2615 C2616 1.434 . S
C2616 C2607 1.429 . S
C2616 N2613 1.350 . S
C2616 C2615 1.434 . S
C2617 C2618 1.369 . S
C2617 C2619 1.419 . S
C2617 H2621 0.930 . S
C2618 C2617 1.369 . S
C2618 C2627 1.429 . S
C2619 C2617 1.419 . S
C2619 C2620 1.363 . S
C2619 H2622 0.929 . S
C2620 C2619 1.363 . S
C2620 C2626 1.428 . S
H2621 C2617 0.930 . S
H2622 C2619 0.929 . S
S2623 N2624 1.613 . S
S2623 N2625 1.610 . S
N2624 S2623 1.613 . S
N2624 C2627 1.350 . S
N2625 S2623 1.610 . S
N2625 C2626 1.351 . S
C2626 C2620 1.428 . S
C2626 N2625 1.351 . S
C2626 C2627 1.434 . S
C2627 C2618 1.429 . S
C2627 N2624 1.350 . S
C2627 C2626 1.434 . S
C1441 C609 1.124 1_554 S
C1443 C9 1.122 . S
C1452 C649 1.104 1_554 S
C1454 C49 1.114 . S
C1463 C89 1.108 . S
C1465 C689 1.118 1_554 S
C1474 C129 1.127 . S
C1476 C969 1.119 . S
C1485 C169 1.122 . S
C1487 C1009 1.111 . S
C1496 C209 1.123 . S
C1498 C1049 1.122 . S
C1507 C1338 1.108 . S
C1509 C258 1.118 . S
C1518 C1378 1.112 . S
C1520 C298 1.123 . S
C1529 C338 1.117 . S
C1531 C1418 1.109 . S
C1540 C738 1.124 . S
C1542 C378 1.112 . S
C1551 C418 1.113 . S
C1553 C778 1.109 . S
C1562 C458 1.118 . S
C1564 C818 1.123 . S
C1573 C1089 1.122 . S
C1575 C489 1.123 . S
C1584 C529 1.118 . S
C1586 C1129 1.109 . S
C1595 C1169 1.124 . S
C1597 C569 1.113 . S
C1606 C1218 1.118 . S
C1608 C858 1.110 . S
C1617 C1258 1.116 . S
C1619 C898 1.122 . S
C1628 C938 1.117 . S
C1630 C1298 1.109 . S
C1639 C19 2.185 . S
C1641 C179 2.188 . S
C1650 C59 2.184 . S
C1652 C219 2.186 . S
C1661 C99 2.187 . S
C1663 C139 2.185 . S
C1672 C250 2.185 . S
C1674 C410 2.186 . S
C1683 C290 2.184 . S
C1685 C450 2.186 . S
C1694 C330 2.186 . S
C1696 C370 2.185 . S
C1705 C499 2.186 . S
C1707 C659 2.185 . S
C1716 C699 2.189 . S
C1718 C539 2.186 . S
C1727 C579 2.189 . S
C1729 C619 2.186 . S
C1738 C730 2.189 . S
C1740 C890 2.189 . S
C1749 C770 2.189 . S
C1751 C930 2.188 . S
C1760 C850 2.188 . S
C1762 C810 2.185 . S
C1771 C979 2.186 . S
C1773 C1139 2.189 . S
C1782 C1179 2.186 . S
C1784 C1019 2.189 . S
C1793 C1059 2.188 . S
C1795 C1099 2.185 . S
C1804 C1210 2.184 . S
C1806 C1370 2.186 . S
C1815 C1250 2.186 . S
C1817 C1410 2.189 . S
C1826 C1290 2.189 . S
C1828 C1330 2.186 . S
C1837 C419 1.622 . S
C1839 C15 1.574 . S
C1848 C55 1.570 . S
C1850 C459 1.622 . S
C1859 C95 1.575 . S
C1861 C379 1.621 . S
C1870 C135 1.570 . S
C1872 C339 1.622 . S
C1881 C175 1.574 . S
C1883 C259 1.622 . S
C1892 C299 1.622 . S
C1894 C215 1.570 . S
C1903 C246 1.572 . S
C1905 C170 1.621 . S
C1914 C210 1.621 . S
C1916 C286 1.575 . S
C1925 C326 1.576 . S
C1927 C130 1.621 . S
C1936 C366 1.576 . S
C1938 C90 1.622 . S
C1947 C10 1.622 . S
C1949 C406 1.573 . S
C1958 C50 1.621 . S
C1960 C446 1.574 . S
C1969 C899 1.622 . S
C1971 C495 1.570 . S
C1980 C939 1.622 . S
C1982 C535 1.573 . S
C1991 C859 1.621 . S
C1993 C575 1.576 . S
C2002 C819 1.621 . S
C2004 C615 1.576 . S
C2013 C655 1.576 . S
C2015 C739 1.621 . S
C2024 C779 1.621 . S
C2026 C695 1.574 . S
C2035 C650 1.621 . S
C2037 C726 1.576 . S
C2046 C766 1.572 . S
C2048 C690 1.622 . S
C2057 C806 1.569 . S
C2059 C610 1.622 . S
C2068 C570 1.621 . S
C2070 C846 1.575 . S
C2079 C886 1.570 . S
C2081 C490 1.622 . S
C2090 C926 1.574 . S
C2092 C530 1.621 . S
C2101 C975 1.577 . S
C2103 C1379 1.621 . S
C2112 C1015 1.576 . S
C2114 C1419 1.621 . S
C2123 C1339 1.621 . S
C2125 C1055 1.573 . S
C2134 C1299 1.621 . S
C2136 C1095 1.574 . S
C2145 C1135 1.576 . S
C2147 C1219 1.621 . S
C2156 C1259 1.621 . S
C2158 C1175 1.573 . S
C2167 C1206 1.574 . S
C2169 C1130 1.622 . S
C2178 C1170 1.621 . S
C2180 C1246 1.574 . S
C2189 C1286 1.569 . S
C2191 C1090 1.622 . S
C2200 C1326 1.569 . S
C2202 C1050 1.622 . S
C2211 C970 1.621 . S
C2213 C1366 1.574 . S
C2222 C1010 1.622 . S
C2224 C1406 1.570 . S
C2233 C6 1.054 . S
C2235 C166 1.054 . S
C2244 C206 1.054 . S
C2246 C46 1.054 . S
C2255 C86 1.059 . S
C2257 C126 1.058 . S
C2266 C255 1.055 . S
C2268 C415 1.055 . S
C2277 C455 1.058 . S
C2279 C295 1.057 . S
C2288 C335 1.056 . S
C2290 C375 1.056 . S
C2299 C646 1.059 . S
C2301 C486 1.058 . S
C2310 C686 1.060 . S
C2312 C526 1.059 . S
C2321 C606 1.055 . S
C2323 C566 1.055 . S
C2332 C895 1.056 . S
C2334 C735 1.056 . S
C2343 C775 1.060 . S
C2345 C935 1.059 . S
C2354 C855 1.054 . S
C2356 C815 1.055 . S
C2365 C1126 1.054 . S
C2367 C966 1.055 . S
C2376 C1006 1.057 . S
C2378 C1166 1.056 . S
C2387 C1046 1.058 . S
C2389 C1086 1.057 . S
C2398 C1375 1.054 . S
C2400 C1215 1.055 . S
C2409 C1255 1.056 . S
C2411 C1415 1.055 . S
C2420 C1295 1.054 . S
C2422 C1335 1.054 . S
C2431 C18 1.257 . S
C2433 C249 1.264 . S
C2442 C58 1.255 . S
C2444 C289 1.265 . S
C2453 C329 1.255 . S
C2455 C98 1.265 . S
C2464 C369 1.256 . S
C2466 C138 1.266 . S
C2475 C178 1.266 . S
C2477 C409 1.257 . S
C2486 C218 1.266 . S
C2488 C449 1.257 . S
C2497 C729 1.261 . S
C2499 C498 1.262 . S
C2508 C538 1.265 . S
C2510 C769 1.257 . S
C2519 C809 1.258 . S
C2521 C578 1.263 . S
C2530 C849 1.256 . S
C2532 C618 1.265 . S
C2541 C889 1.266 . S
C2543 C658 1.257 . S
C2552 C929 1.264 . S
C2554 C698 1.257 . S
C2563 C1209 1.267 . S
C2565 C978 1.257 . S
C2574 C1018 1.266 . S
C2576 C1249 1.256 . S
C2585 C1289 1.266 . S
C2587 C1058 1.257 . S
C2596 C1329 1.256 . S
C2598 C1098 1.266 . S
C2607 C1369 1.259 . S
C2609 C1138 1.261 . S
C2618 C1178 1.263 . S
C2620 C1409 1.259 . S
