# Generated by pormake.
# Topology vcj, (7)-cn, num edge types: 1
# Building blocks:
#     Node 0, Type 0, BuildingBlock: HICVOG_clean_sbu_0, # of connection points: 7
#     Node 1, Type 0, BuildingBlock: HICVOG_clean_sbu_0, # of connection points: 7
#     Node 2, Type 0, BuildingBlock: HICVOG_clean_sbu_0, # of connection points: 7
#     Node 3, Type 0, BuildingBlock: HICVOG_clean_sbu_0, # of connection points: 7
#     Node 4, Type 0, BuildingBlock: HICVOG_clean_sbu_0, # of connection points: 7
#     Node 5, Type 0, BuildingBlock: HICVOG_clean_sbu_0, # of connection points: 7
#     Node 6, Type 0, BuildingBlock: HICVOG_clean_sbu_0, # of connection points: 7
#     Node 7, Type 0, BuildingBlock: HICVOG_clean_sbu_0, # of connection points: 7
#     Edge 8, Type (0, 0), BuildingBlock: CIFDUS_clean_linker_0, # of connection points: 2
#     Edge 9, Type (0, 0), BuildingBlock: CIFDUS_clean_linker_0, # of connection points: 2
#     Edge 10, Type (0, 0), BuildingBlock: CIFDUS_clean_linker_0, # of connection points: 2
#     Edge 11, Type (0, 0), BuildingBlock: CIFDUS_clean_linker_0, # of connection points: 2
#     Edge 12, Type (0, 0), BuildingBlock: CIFDUS_clean_linker_0, # of connection points: 2
#     Edge 13, Type (0, 0), BuildingBlock: CIFDUS_clean_linker_0, # of connection points: 2
#     Edge 14, Type (0, 0), BuildingBlock: CIFDUS_clean_linker_0, # of connection points: 2
#     Edge 15, Type (0, 0), BuildingBlock: CIFDUS_clean_linker_0, # of connection points: 2
#     Edge 16, Type (0, 0), BuildingBlock: CIFDUS_clean_linker_0, # of connection points: 2
#     Edge 17, Type (0, 0), BuildingBlock: CIFDUS_clean_linker_0, # of connection points: 2
#     Edge 18, Type (0, 0), BuildingBlock: CIFDUS_clean_linker_0, # of connection points: 2
#     Edge 19, Type (0, 0), BuildingBlock: CIFDUS_clean_linker_0, # of connection points: 2
#     Edge 20, Type (0, 0), BuildingBlock: CIFDUS_clean_linker_0, # of connection points: 2
#     Edge 21, Type (0, 0), BuildingBlock: CIFDUS_clean_linker_0, # of connection points: 2
#     Edge 22, Type (0, 0), BuildingBlock: CIFDUS_clean_linker_0, # of connection points: 2
#     Edge 23, Type (0, 0), BuildingBlock: CIFDUS_clean_linker_0, # of connection points: 2
#     Edge 24, Type (0, 0), BuildingBlock: CIFDUS_clean_linker_0, # of connection points: 2
#     Edge 25, Type (0, 0), BuildingBlock: CIFDUS_clean_linker_0, # of connection points: 2
#     Edge 26, Type (0, 0), BuildingBlock: CIFDUS_clean_linker_0, # of connection points: 2
#     Edge 27, Type (0, 0), BuildingBlock: CIFDUS_clean_linker_0, # of connection points: 2
#     Edge 28, Type (0, 0), BuildingBlock: CIFDUS_clean_linker_0, # of connection points: 2
#     Edge 29, Type (0, 0), BuildingBlock: CIFDUS_clean_linker_0, # of connection points: 2
#     Edge 30, Type (0, 0), BuildingBlock: CIFDUS_clean_linker_0, # of connection points: 2
#     Edge 31, Type (0, 0), BuildingBlock: CIFDUS_clean_linker_0, # of connection points: 2
#     Edge 32, Type (0, 0), BuildingBlock: CIFDUS_clean_linker_0, # of connection points: 2
#     Edge 33, Type (0, 0), BuildingBlock: CIFDUS_clean_linker_0, # of connection points: 2
#     Edge 34, Type (0, 0), BuildingBlock: CIFDUS_clean_linker_0, # of connection points: 2
#     Edge 35, Type (0, 0), BuildingBlock: CIFDUS_clean_linker_0, # of connection points: 2
# Relax obj value: 0.123
# Max RMSD: 0.194
# Mean RMSD: 0.194
data_MOF--net-vcj--node1-HICVOG_clean_sbu_0--edge1-CIFDUS_clean_linker_0
_symmetry_space_group_name_H-M    P1
_symmetry_Int_Tables_number       1
_symmetry_cell_setting            triclinic
loop_
_symmetry_equiv_pos_as_xyz
'x, y, z'
_cell_length_a     31.839128
_cell_length_b     40.591585
_cell_length_c     19.9062
_cell_angle_alpha  90.598898
_cell_angle_beta   89.973725
_cell_angle_gamma 89.897684
loop_
_atom_site_label
_atom_site_type_symbol
_atom_site_fract_x
_atom_site_fract_y
_atom_site_fract_z
_atom_type_partial_charge
Zn0 Zn 0.33258 0.42173 0.22516 0.0
C1 C 0.40673 0.46142 0.08554 0.0
N2 N 0.37243 0.47937 0.07258 0.0
C3 C 0.34237 0.46433 0.10794 0.0
N4 N 0.35747 0.43821 0.14208 0.0
N5 N 0.39796 0.43566 0.12638 0.0
C6 C 0.50788 0.39675 0.22275 0.0
O7 O 0.48581 0.37745 0.26171 0.0
O8 O 0.26871 0.42257 0.22182 0.0
Zn9 Zn 0.43265 0.39562 0.13778 0.0
N10 N 0.34937 0.45162 0.29847 0.0
C11 C 0.3994 0.48884 0.34564 0.0
C12 C 0.38765 0.46633 0.29558 0.0
C13 C 0.32265 0.45829 0.35044 0.0
N14 N 0.37258 0.49564 0.39712 0.0
C15 C 0.33444 0.48073 0.40152 0.0
O16 O 0.41039 0.36034 0.2021 0.0
C17 C 0.37972 0.35457 0.24144 0.0
O18 O 0.35013 0.37531 0.25034 0.0
H19 H 0.40876 0.46087 0.2544 0.0
H20 H 0.29207 0.44691 0.35131 0.0
C21 C 0.42159 0.34732 0.024 0.0
C22 C 0.43155 0.33558 0.95829 0.0
C23 C 0.4785 0.3808 0.94607 0.0
C24 C 0.46895 0.39185 0.0105 0.0
N25 N 0.44064 0.37529 0.0483 0.0
N26 N 0.45982 0.35318 0.9219 0.0
H27 H 0.39914 0.33474 0.05531 0.0
C28 C 0.24843 0.4061 0.26518 0.0
O29 O 0.26944 0.38799 0.30802 0.0
O30 O 0.49117 0.40797 0.16963 0.0
H31 H 0.48426 0.41352 0.03066 0.0
H32 H 0.42963 0.50092 0.34348 0.0
H33 H 0.50091 0.39391 0.91551 0.0
Zn34 Zn 0.16477 0.60651 0.73396 0.0
C35 C 0.09544 0.55763 0.60419 0.0
N36 N 0.12817 0.53684 0.60601 0.0
C37 C 0.15904 0.55499 0.63343 0.0
N38 N 0.14522 0.58556 0.65026 0.0
N39 N 0.10579 0.58778 0.62922 0.0
C40 C 0.99858 0.61732 0.66737 0.0
O41 O 0.02203 0.60859 0.7185 0.0
O42 O 0.22816 0.60908 0.73517 0.0
Zn43 Zn 0.07977 0.63059 0.61232 0.0
N44 N 0.14826 0.57736 0.80641 0.0
C45 C 0.09767 0.54122 0.85379 0.0
C46 C 0.10947 0.56347 0.8043 0.0
C47 C 0.1756 0.57018 0.85675 0.0
N48 N 0.12512 0.53372 0.90361 0.0
C49 C 0.16386 0.54776 0.90704 0.0
O50 O 0.09291 0.66539 0.68297 0.0
C51 C 0.11472 0.67275 0.73463 0.0
O52 O 0.14187 0.65273 0.7578 0.0
H53 H 0.08809 0.56933 0.76399 0.0
H54 H 0.20655 0.58114 0.85638 0.0
C55 C 0.093 0.67751 0.5014 0.0
C56 C 0.11248 0.68764 0.44115 0.0
C57 C 0.14497 0.63512 0.43127 0.0
C58 C 0.12612 0.62535 0.49079 0.0
N59 N 0.10064 0.64655 0.52522 0.0
N60 N 0.13799 0.66592 0.40823 0.0
H61 H 0.07326 0.69427 0.52996 0.0
C62 C 0.24713 0.63405 0.71213 0.0
O63 O 0.22499 0.65765 0.68448 0.0
O64 O 0.0164 0.62709 0.61393 0.0
H65 H 0.13233 0.60101 0.50958 0.0
H66 H 0.06702 0.52979 0.85234 0.0
H67 H 0.16543 0.61846 0.40384 0.0
Zn68 Zn 0.93024 0.12961 0.88459 0.0
C69 C 0.8414 0.05909 0.91396 0.0
N70 N 0.87192 0.04467 0.94952 0.0
C71 C 0.9056 0.06333 0.93699 0.0
N72 N 0.89608 0.08896 0.89622 0.0
N73 N 0.85566 0.08558 0.88016 0.0
C74 C 0.75269 0.11149 0.73711 0.0
O75 O 0.77996 0.12183 0.69249 0.0
O76 O 0.98807 0.11997 0.84352 0.0
Zn77 Zn 0.83056 0.1022 0.79738 0.0
N78 N 0.94107 0.14919 0.97406 0.0
C79 C 0.98261 0.14447 0.07273 0.0
C80 C 0.97113 0.13312 1.00932 0.0
C81 C 0.92227 0.17704 0.99979 0.0
N82 N 0.96417 0.17198 0.09826 0.0
C83 C 0.93428 0.18917 0.06428 0.0
O84 O 0.8456 0.1494 0.77705 0.0
C85 C 0.87339 0.17121 0.78839 0.0
O86 O 0.90457 0.16581 0.82676 0.0
H87 H 0.98645 0.11172 0.98783 0.0
H88 H 0.89856 0.18929 0.97032 0.0
C89 C 0.82448 0.05272 0.69186 0.0
C90 C 0.83745 0.03624 0.63266 0.0
C91 C 0.90316 0.06358 0.64016 0.0
C92 C 0.88979 0.08026 0.69807 0.0
N93 N 0.85057 0.07487 0.72236 0.0
N94 N 0.8766 0.04237 0.60837 0.0
H95 H 0.79323 0.04916 0.71178 0.0
C96 C 0.9977 0.12977 0.78492 0.0
O97 O 0.96882 0.14405 0.74824 0.0
O98 O 0.76643 0.10096 0.79316 0.0
H99 H 0.9101 0.09791 0.72277 0.0
H100 H 0.00641 0.13173 0.10131 0.0
H101 H 0.93417 0.06794 0.61992 0.0
Zn102 Zn 0.66681 0.91575 0.292 0.0
C103 C 0.59816 0.96704 0.41944 0.0
N104 N 0.63377 0.9843 0.4267 0.0
C105 C 0.66298 0.96467 0.3985 0.0
N106 N 0.64591 0.93631 0.37501 0.0
N107 N 0.60533 0.93718 0.39021 0.0
C108 C 0.49676 0.9024 0.32597 0.0
O109 O 0.52346 0.89591 0.27726 0.0
O110 O 0.73104 0.91401 0.29198 0.0
Zn111 Zn 0.573 0.89628 0.40242 0.0
N112 N 0.6498 0.94468 0.21857 0.0
C113 C 0.59712 0.97768 0.16702 0.0
C114 C 0.60972 0.95625 0.21768 0.0
C115 C 0.67764 0.9535 0.17 0.0
N116 N 0.62492 0.98641 0.11854 0.0
C117 C 0.66495 0.97462 0.118 0.0
O118 O 0.58962 0.85949 0.33717 0.0
C119 C 0.61442 0.85065 0.28994 0.0
O120 O 0.64372 0.86951 0.26963 0.0
H121 H 0.58776 0.94908 0.25629 0.0
H122 H 0.7096 0.94472 0.17239 0.0
C123 C 0.58191 0.84772 0.51266 0.0
C124 C 0.59413 0.83853 0.5783 0.0
C125 C 0.60703 0.89471 0.60484 0.0
C126 C 0.59514 0.90366 0.54033 0.0
N127 N 0.58328 0.88024 0.4948 0.0
N128 N 0.60653 0.86253 0.62209 0.0
H129 H 0.57274 0.82924 0.47595 0.0
C130 C 0.74847 0.89709 0.24548 0.0
O131 O 0.72441 0.88049 0.20358 0.0
O132 O 0.51045 0.90429 0.38611 0.0
H133 H 0.59617 0.9292 0.52669 0.0
H134 H 0.5654 0.98726 0.16619 0.0
H135 H 0.61696 0.91323 0.64092 0.0
Zn136 Zn 0.56843 0.62966 0.88236 0.0
C137 C 0.66203 0.56804 0.93029 0.0
N138 N 0.63257 0.55381 0.96831 0.0
C139 C 0.59692 0.56787 0.9472 0.0
N140 N 0.60443 0.59091 0.8996 0.0
N141 N 0.64539 0.58985 0.88681 0.0
C142 C 0.7548 0.62003 0.76391 0.0
O143 O 0.73352 0.63731 0.72001 0.0
O144 O 0.51185 0.616 0.84483 0.0
Zn145 Zn 0.67102 0.60442 0.80277 0.0
N146 N 0.55667 0.65123 0.96958 0.0
C147 C 0.51373 0.64779 0.06698 0.0
C148 C 0.5259 0.6358 1.00437 0.0
C149 C 0.57585 0.67886 0.99524 0.0
N150 N 0.53254 0.67508 0.09247 0.0
C151 C 0.56337 0.69148 0.05916 0.0
O152 O 0.65339 0.65027 0.77371 0.0
C153 C 0.62287 0.67037 0.78004 0.0
O154 O 0.59158 0.66427 0.8178 0.0
H155 H 0.51078 0.61423 0.9833 0.0
H156 H 0.60041 0.69044 0.96645 0.0
C157 C 0.68222 0.56646 0.67885 0.0
C158 C 0.67113 0.54309 0.62901 0.0
C159 C 0.60705 0.53373 0.68664 0.0
C160 C 0.61806 0.55714 0.73538 0.0
N161 N 0.65555 0.57296 0.73108 0.0
N162 N 0.63376 0.52716 0.63494 0.0
H163 H 0.71219 0.57874 0.67677 0.0
C164 C 0.48894 0.63756 0.81677 0.0
O165 O 0.50338 0.66768 0.81079 0.0
O166 O 0.73477 0.60415 0.80846 0.0
H167 H 0.59695 0.56244 0.77662 0.0
H168 H 0.48932 0.63559 0.09515 0.0
H169 H 0.57744 0.52081 0.68995 0.0
Zn170 Zn 0.92194 0.39425 0.4104 0.0
C171 C 0.8431 0.46996 0.38684 0.0
N172 N 0.87435 0.48829 0.41259 0.0
C173 C 0.90706 0.46748 0.41447 0.0
N174 N 0.8964 0.43711 0.39084 0.0
N175 N 0.85681 0.43926 0.37057 0.0
C176 C 0.7514 0.39306 0.31746 0.0
O177 O 0.77149 0.37008 0.35065 0.0
O178 O 0.98545 0.39723 0.40907 0.0
Zn179 Zn 0.8358 0.41621 0.29005 0.0
N180 N 0.90045 0.37978 0.49827 0.0
C181 C 0.85525 0.39253 0.59051 0.0
C182 C 0.87475 0.40149 0.53095 0.0
C183 C 0.9077 0.34915 0.52397 0.0
N184 N 0.86187 0.36204 0.61541 0.0
C185 C 0.88762 0.33987 0.5843 0.0
O186 O 0.85696 0.3691 0.27132 0.0
C187 C 0.88521 0.34973 0.2933 0.0
O188 O 0.90869 0.35808 0.3424 0.0
H189 H 0.86881 0.42558 0.51069 0.0
H190 H 0.92761 0.33198 0.49678 0.0
C191 C 0.82793 0.46494 0.18609 0.0
C192 C 0.83991 0.48107 0.1267 0.0
C193 C 0.90275 0.44959 0.1243 0.0
C194 C 0.89069 0.43367 0.18303 0.0
N195 N 0.85339 0.44142 0.21245 0.0
N196 N 0.87703 0.47266 0.09721 0.0
H197 H 0.79811 0.47023 0.21004 0.0
C198 C 0.00373 0.40788 0.35675 0.0
O199 O 0.98073 0.41789 0.3061 0.0
O200 O 0.77236 0.41558 0.28902 0.0
H201 H 0.91053 0.41485 0.20448 0.0
H202 H 0.83458 0.40959 0.61649 0.0
H203 H 0.93218 0.44342 0.10001 0.0
Zn204 Zn 0.17236 0.92463 0.22416 0.0
C205 C 0.09947 0.96203 0.08006 0.0
N206 N 0.13508 0.97684 0.061 0.0
C207 C 0.16435 0.96226 0.09884 0.0
N208 N 0.14765 0.93951 0.13997 0.0
N209 N 0.10682 0.93818 0.12615 0.0
C210 C 0.99911 0.91391 0.2273 0.0
O211 O 0.02615 0.9175 0.27667 0.0
O212 O 0.23623 0.92605 0.22569 0.0
Zn213 Zn 0.07233 0.89769 0.13782 0.0
N214 N 0.15444 0.95449 0.29635 0.0
C215 C 0.10533 0.9929 0.34234 0.0
C216 C 0.11681 0.97021 0.2924 0.0
C217 C 0.18081 0.96025 0.34911 0.0
N218 N 0.13188 0.99899 0.39444 0.0
C219 C 0.16941 0.98312 0.39981 0.0
O220 O 0.09539 0.86292 0.20242 0.0
C221 C 0.12657 0.85748 0.24099 0.0
O222 O 0.15582 0.87847 0.24929 0.0
H223 H 0.09606 0.96547 0.25047 0.0
H224 H 0.21084 0.94777 0.35043 0.0
C225 C 0.08241 0.84798 0.02496 0.0
C226 C 0.07205 0.83631 0.95928 0.0
C227 C 0.0285 0.88362 0.94536 0.0
C228 C 0.03823 0.89448 1.00973 0.0
N229 N 0.06519 0.87695 0.04831 0.0
N230 N 0.04539 0.85509 0.92214 0.0
H231 H 0.10335 0.83445 0.05727 0.0
C232 C 0.26113 0.91105 0.18589 0.0
O233 O 0.24562 0.89431 0.13482 0.0
O234 O 0.01247 0.90731 0.16839 0.0
H235 H 0.02387 0.91665 0.0294 0.0
H236 H 0.07561 1.00577 0.33947 0.0
H237 H 0.00721 0.89754 0.91418 0.0
Zn238 Zn 0.42758 0.12996 0.62214 0.0
C239 C 0.34473 0.05593 0.63169 0.0
N240 N 0.37546 0.03822 0.60243 0.0
C241 C 0.40897 0.05801 0.60685 0.0
N242 N 0.39914 0.08739 0.63619 0.0
N243 N 0.35906 0.08547 0.65429 0.0
C244 C 0.2456 0.12334 0.72003 0.0
O245 O 0.2578 0.14924 0.68618 0.0
O246 O 0.49049 0.12493 0.63801 0.0
Zn247 Zn 0.33649 0.10734 0.73545 0.0
N248 N 0.41545 0.14509 0.52963 0.0
C249 C 0.38712 0.13042 0.42251 0.0
C250 C 0.40034 0.12173 0.48652 0.0
C251 C 0.41849 0.17727 0.50985 0.0
N252 N 0.38933 0.16229 0.40344 0.0
C253 C 0.40476 0.18623 0.44481 0.0
O254 O 0.35399 0.15544 0.75248 0.0
C255 C 0.38248 0.17499 0.732 0.0
O256 O 0.40849 0.16636 0.68635 0.0
H257 H 0.39767 0.09648 0.5018 0.0
H258 H 0.43007 0.19574 0.54478 0.0
C259 C 0.3328 0.05901 0.83973 0.0
C260 C 0.34479 0.04433 0.90066 0.0
C261 C 0.40515 0.07849 0.90376 0.0
C262 C 0.39273 0.09329 0.84394 0.0
N263 N 0.35678 0.08336 0.81318 0.0
N264 N 0.38073 0.05471 0.93113 0.0
H265 H 0.3037 0.05226 0.81517 0.0
C266 C 0.50276 0.12404 0.69892 0.0
O267 O 0.47455 0.12631 0.74685 0.0
O268 O 0.27298 0.10326 0.7417 0.0
H269 H 0.41089 0.11318 0.82319 0.0
H270 H 0.37472 0.11196 0.38834 0.0
H271 H 0.43354 0.08637 0.92903 0.0
H272 H 0.3141 0.52617 0.10574 0.0
H273 H 0.27354 0.42546 0.08525 0.0
H274 H 0.20974 0.44363 0.02735 0.0
H275 H 0.17352 0.48727 0.96305 0.0
H276 H 0.21973 0.58708 0.97454 0.0
H277 H 0.27362 0.57025 0.05411 0.0
C278 C 0.29041 0.50833 0.09086 0.0
C279 C 0.29818 0.47459 0.10036 0.0
C280 C 0.25567 0.51879 0.05345 0.0
C281 C 0.26772 0.45161 0.08012 0.0
C282 C 0.23173 0.462 0.04555 0.0
C283 C 0.19498 0.5054 0.98388 0.0
C284 C 0.19332 0.53822 0.9614 0.0
C285 C 0.22659 0.49537 0.0288 0.0
C286 C 0.22113 0.56149 0.98922 0.0
C287 C 0.25174 0.55193 0.03525 0.0
H288 H 0.19191 0.49428 0.61959 0.0
H289 H 0.2226 0.59694 0.5984 0.0
H290 H 0.28423 0.58225 0.53126 0.0
H291 H 0.3214 0.54069 0.46108 0.0
H292 H 0.28372 0.4388 0.47108 0.0
H293 H 0.23234 0.45262 0.55785 0.0
C294 C 0.21296 0.51339 0.60219 0.0
C295 C 0.20306 0.54667 0.61541 0.0
C296 C 0.24617 0.50485 0.55887 0.0
C297 C 0.23025 0.57115 0.59155 0.0
C298 C 0.26493 0.56273 0.55139 0.0
C299 C 0.30232 0.52148 0.48301 0.0
C300 C 0.30584 0.48886 0.45853 0.0
C301 C 0.27197 0.52976 0.53204 0.0
C302 C 0.28095 0.46422 0.48758 0.0
C303 C 0.25177 0.47207 0.5377 0.0
H304 H 0.81564 0.99678 0.92038 0.0
H305 H 0.7704 0.09668 0.93178 0.0
H306 H 0.70703 0.07801 0.99037 0.0
H307 H 0.67226 0.0346 0.05792 0.0
H308 H 0.72338 0.93602 0.05477 0.0
H309 H 0.777 0.9528 0.97496 0.0
C310 C 0.7911 0.0143 0.93353 0.0
C311 C 0.79751 0.04799 0.92153 0.0
C312 C 0.75661 1.00369 0.97129 0.0
C313 C 0.76577 0.07053 0.93913 0.0
C314 C 0.73002 0.05989 0.97409 0.0
C315 C 0.69478 0.01674 0.03888 0.0
C316 C 0.69449 0.98431 0.0638 0.0
C317 C 0.72629 0.02678 0.99364 0.0
C318 C 0.72366 0.96135 0.03822 0.0
C319 C 0.75413 0.97086 0.99202 0.0
H320 H 0.69075 0.94819 0.51899 0.0
H321 H 0.73015 0.99217 0.33372 0.0
H322 H 0.7922 0.01552 0.3902 0.0
H323 H 0.8279 0.03095 0.49684 0.0
H324 H 0.78234 0.9913 0.68346 0.0
H325 H 0.72984 0.95906 0.62257 0.0
C326 C 0.71397 0.96178 0.49052 0.0
C327 C 0.70661 0.96794 0.42215 0.0
C328 C 0.7476 0.97686 0.52437 0.0
C329 C 0.73587 0.98648 0.38598 0.0
C330 C 0.77085 1.00028 0.41867 0.0
C331 C 0.80689 0.01482 0.52396 0.0
C332 C 0.80857 0.01402 0.5948 0.0
C333 C 0.77594 0.99687 0.48855 0.0
C334 C 0.78112 0.99302 0.62923 0.0
C335 C 0.75126 0.97438 0.59436 0.0
H336 H 0.70063 0.58224 0.04408 0.0
H337 H 0.72051 0.53657 0.85069 0.0
H338 H 0.78282 0.50791 0.89422 0.0
H339 H 0.82286 0.48832 0.99345 0.0
H340 H 0.79565 0.53011 0.18895 0.0
H341 H 0.74469 0.56752 0.13914 0.0
C342 C 0.71973 0.56703 0.01083 0.0
C343 C 0.70669 0.56188 0.94417 0.0
C344 C 0.75323 0.54902 0.03755 0.0
C345 C 0.73073 0.54151 0.90171 0.0
C346 C 0.76577 0.52465 0.92711 0.0
C347 C 0.80619 0.50602 0.02481 0.0
C348 C 0.81234 0.50598 0.09501 0.0
C349 C 0.77597 0.52696 0.99587 0.0
C350 C 0.79069 0.52906 0.13513 0.0
C351 C 0.76179 0.55063 0.1066 0.0
H352 H 0.80969 0.53049 0.40327 0.0
H353 H 0.78162 0.42759 0.42797 0.0
H354 H 0.72148 0.44176 0.49874 0.0
H355 H 0.68491 0.48308 0.57009 0.0
H356 H 0.7205 0.58535 0.55728 0.0
H357 H 0.77032 0.57186 0.46794 0.0
C358 C 0.78949 0.5112 0.42228 0.0
C359 C 0.79954 0.47798 0.40837 0.0
C360 C 0.75735 0.51949 0.46794 0.0
C361 C 0.77357 0.4533 0.43472 0.0
C362 C 0.73985 0.46145 0.47711 0.0
C363 C 0.70323 0.50245 0.54714 0.0
C364 C 0.69949 0.53511 0.57144 0.0
C365 C 0.73266 0.49438 0.49654 0.0
C366 C 0.72344 0.55991 0.54099 0.0
C367 C 0.75171 0.55225 0.48936 0.0
H368 H 0.3263 0.03978 0.03385 0.0
H369 H 0.30265 0.99321 0.84174 0.0
H370 H 0.25077 0.95719 0.89312 0.0
H371 H 0.20451 0.94537 0.98756 0.0
H372 H 0.22156 0.99553 0.17695 0.0
H373 H 0.28473 0.02274 0.13318 0.0
C374 C 0.31031 0.02129 1.00364 0.0
C375 C 0.31765 0.01962 0.93378 0.0
C376 C 0.27955 1.00119 0.03336 0.0
C377 C 0.29681 0.99554 0.8952 0.0
C378 C 0.26733 0.97481 0.92464 0.0
C379 C 0.22318 0.96125 0.02 0.0
C380 C 0.2091 0.96813 0.0855 0.0
C381 C 0.25741 0.97825 0.993 0.0
C382 C 0.23255 0.98936 0.12685 0.0
C383 C 0.26814 1.00532 0.10131 0.0
H384 H 0.31147 0.99555 0.61861 0.0
H385 H 0.28145 0.09839 0.59797 0.0
H386 H 0.21968 0.08415 0.53067 0.0
H387 H 0.1826 0.04289 0.45992 0.0
H388 H 0.21958 0.94072 0.46982 0.0
H389 H 0.27079 0.95416 0.55692 0.0
C390 C 0.29049 0.01479 0.60136 0.0
C391 C 0.30056 0.04799 0.61467 0.0
C392 C 0.25728 1.00648 0.55799 0.0
C393 C 0.27356 0.07267 0.59096 0.0
C394 C 0.23886 0.06449 0.55074 0.0
C395 C 0.20148 0.02352 0.48188 0.0
C396 C 0.19786 0.99093 0.45716 0.0
C397 C 0.23168 0.03157 0.53117 0.0
C398 C 0.22247 0.96611 0.48636 0.0
C399 C 0.25154 0.97374 0.53669 0.0
H400 H 0.42802 0.48728 0.96641 0.0
H401 H 0.47599 0.46916 0.16481 0.0
H402 H 0.53773 0.50297 0.14084 0.0
H403 H 0.57612 0.54013 0.06522 0.0
H404 H 0.52884 0.55742 0.86605 0.0
H405 H 0.46731 0.5234 0.88972 0.0
C406 C 0.45265 0.49002 1.00369 0.0
C407 C 0.44849 0.47428 0.06622 0.0
C408 C 0.48692 0.51087 0.99053 0.0
C409 C 0.47978 0.47906 0.11492 0.0
C410 C 0.51442 0.49929 0.10183 0.0
C411 C 0.55185 0.537 0.02746 0.0
C412 C 0.55591 0.55293 0.96506 0.0
C413 C 0.51789 0.51579 0.04027 0.0
C414 C 0.525 0.54762 0.91594 0.0
C415 C 0.4905 0.52722 0.92886 0.0
H416 H 0.94299 0.52704 0.41104 0.0
H417 H 0.95543 0.43193 0.503 0.0
H418 H 0.01374 0.45244 0.57147 0.0
H419 H 0.05953 0.49811 0.60768 0.0
H420 H 0.04652 0.59345 0.51683 0.0
H421 H 0.98839 0.57285 0.44796 0.0
C422 C 0.95889 0.51065 0.44548 0.0
C423 C 0.94601 0.47749 0.44984 0.0
C424 C 0.9911 0.52314 0.48663 0.0
C425 C 0.96613 0.45685 0.4958 0.0
C426 C 0.99884 0.4689 0.53614 0.0
C427 C 0.04356 0.51452 0.57336 0.0
C428 C 0.0564 0.54768 0.56906 0.0
C429 C 0.01126 0.50207 0.53238 0.0
C430 C 0.03605 0.56842 0.52356 0.0
C431 C 0.00338 0.55636 0.48311 0.0
H432 H 0.08024 0.99195 0.96354 0.0
H433 H 0.02906 0.96872 0.15749 0.0
H434 H 0.96573 1.00057 0.13217 0.0
H435 H 0.92585 0.0363 0.05544 0.0
H436 H 0.97719 0.05968 0.86165 0.0
H437 H 0.04108 0.02871 0.88791 0.0
C438 C 0.05485 0.99342 0.99982 0.0
C439 C 0.05834 0.97645 0.06114 0.0
C440 C 0.01968 0.01328 0.98609 0.0
C441 C 0.02585 0.97948 0.10836 0.0
C442 C 0.99025 0.9986 0.09455 0.0
C443 C 0.95155 0.03527 0.01966 0.0
C444 C 0.94769 0.05172 0.95785 0.0
C445 C 0.98705 0.01587 0.03386 0.0
C446 C 0.98054 0.04924 0.9111 0.0
C447 C 0.01648 0.03059 0.92542 0.0
H448 H 0.42028 0.02817 0.48676 0.0
H449 H 0.48684 0.06052 0.66345 0.0
H450 H 0.55136 0.03461 0.62121 0.0
H451 H 0.58746 0.99981 0.53669 0.0
H452 H 0.52069 0.96662 0.36071 0.0
H453 H 0.45664 0.99394 0.40146 0.0
C454 C 0.44922 0.0301 0.51527 0.0
C455 C 0.44952 0.04788 0.57656 0.0
C456 C 0.48538 0.01355 0.49214 0.0
C457 C 0.48669 0.04919 0.61409 0.0
C458 C 0.52317 0.03344 0.59077 0.0
C459 C 0.55865 0.9982 0.50775 0.0
C460 C 0.55806 0.97973 0.44732 0.0
C461 C 0.52266 0.01513 0.53038 0.0
C462 C 0.52103 0.97869 0.40938 0.0
C463 C 0.48482 0.99511 0.4319 0.0
H464 H 0.3643 0.19446 0.86199 0.0
H465 H 0.4137 0.23 0.67432 0.0
H466 H 0.42983 0.28295 0.72695 0.0
H467 H 0.43404 0.31802 0.82633 0.0
H468 H 0.38945 0.28249 0.01739 0.0
H469 H 0.36686 0.23129 0.96315 0.0
C470 C 0.378 0.21401 0.83247 0.0
C471 C 0.38768 0.20815 0.76401 0.0
C472 C 0.3883 0.24447 0.86372 0.0
C473 C 0.406 0.23366 0.72691 0.0
C474 C 0.4153 0.26401 0.75705 0.0
C475 C 0.41931 0.29929 0.85676 0.0
C476 C 0.41377 0.30475 0.9265 0.0
C477 C 0.40731 0.26949 0.82559 0.0
C478 C 0.39406 0.27978 0.96382 0.0
C479 C 0.38129 0.25014 0.93272 0.0
H480 H 0.06349 0.822 0.30005 0.0
H481 H 0.19716 0.8223 0.2646 0.0
H482 H 0.20446 0.77064 0.32517 0.0
H483 H 0.17315 0.7249 0.38653 0.0
H484 H 0.0405 0.72513 0.42951 0.0
H485 H 0.03251 0.77723 0.36906 0.0
C486 C 0.09411 0.81058 0.30544 0.0
C487 C 0.12971 0.82576 0.27713 0.0
C488 C 0.09831 0.78118 0.34233 0.0
C489 C 0.16931 0.81108 0.28566 0.0
C490 C 0.17352 0.78155 0.32038 0.0
C491 C 0.14249 0.73648 0.38312 0.0
C492 C 0.10748 0.72113 0.41245 0.0
C493 C 0.1383 0.76638 0.34882 0.0
C494 C 0.06804 0.73659 0.40807 0.0
C495 C 0.06344 0.76623 0.37294 0.0
H496 H 0.94221 0.20808 0.19506 0.0
H497 H 0.88785 0.2411 1.00853 0.0
H498 H 0.86542 0.29213 0.06377 0.0
H499 H 0.8647 0.32936 0.1644 0.0
H500 H 0.92294 0.29612 0.3475 0.0
H501 H 0.94034 0.24368 0.2939 0.0
C502 C 0.9254 0.22622 0.16583 0.0
C503 C 0.917 0.22004 0.09706 0.0
C504 C 0.91333 0.25594 0.19751 0.0
C505 C 0.89471 0.2443 0.06136 0.0
C506 C 0.882 0.27388 0.09301 0.0
C507 C 0.8808 0.31049 0.19274 0.0
C508 C 0.89248 0.31694 0.2602 0.0
C509 C 0.89156 0.2802 0.16097 0.0
C510 C 0.91369 0.29216 0.29567 0.0
C511 C 0.92369 0.26203 0.26499 0.0
H512 H 0.56018 0.69878 0.70641 0.0
H513 H 0.68898 0.71185 0.76763 0.0
H514 H 0.69208 0.76415 0.70777 0.0
H515 H 0.65739 0.80731 0.64173 0.0
H516 H 0.53069 0.79285 0.57187 0.0
H517 H 0.52762 0.73978 0.62994 0.0
C518 C 0.58884 0.71318 0.70656 0.0
C519 C 0.62414 0.70177 0.74238 0.0
C520 C 0.59085 0.74278 0.66987 0.0
C521 C 0.66138 0.72023 0.74091 0.0
C522 C 0.66316 0.7501 0.70658 0.0
C523 C 0.62934 0.79224 0.63833 0.0
C524 C 0.59434 0.80394 0.6024 0.0
C525 C 0.62806 0.76172 0.67125 0.0
C526 C 0.55821 0.7842 0.59839 0.0
C527 C 0.55635 0.75402 0.63222 0.0
H528 H 0.55568 0.71004 0.19005 0.0
H529 H 0.61125 0.74266 1.00421 0.0
H530 H 0.63472 0.79319 0.06024 0.0
H531 H 0.63572 0.83021 0.16132 0.0
H532 H 0.57597 0.79738 0.34345 0.0
H533 H 0.55796 0.74528 0.28926 0.0
C534 C 0.57297 0.72799 0.16114 0.0
C535 C 0.58138 0.72191 0.09234 0.0
C536 C 0.58559 0.7574 0.19323 0.0
C537 C 0.60436 0.74586 0.05706 0.0
C538 C 0.61765 0.77513 0.08915 0.0
C539 C 0.61919 0.81148 0.18931 0.0
C540 C 0.60721 0.81794 0.25666 0.0
C541 C 0.60799 0.78141 0.15713 0.0
C542 C 0.58544 0.79337 0.29171 0.0
C543 C 0.57508 0.76346 0.26068 0.0
H544 H 0.82662 0.30306 0.63988 0.0
H545 H 0.95963 0.30294 0.59951 0.0
H546 H 0.96748 0.25156 0.6623 0.0
H547 H 0.93632 0.20731 0.73168 0.0
H548 H 0.80237 0.20599 0.76368 0.0
H549 H 0.7951 0.2575 0.70215 0.0
C550 C 0.85732 0.29166 0.64442 0.0
C551 C 0.89249 0.30682 0.61503 0.0
C552 C 0.86143 0.26208 0.67993 0.0
C553 C 0.93199 0.29161 0.62092 0.0
C554 C 0.93651 0.26239 0.65738 0.0
C555 C 0.90563 0.21847 0.72547 0.0
C556 C 0.86996 0.20312 0.75311 0.0
C557 C 0.90149 0.24756 0.68776 0.0
C558 C 0.83027 0.21745 0.74336 0.0
C559 C 0.8261 0.24684 0.70801 0.0
H560 H 0.13788 0.69411 0.86239 0.0
H561 H 0.07424 0.72548 0.6823 0.0
H562 H 0.0578 0.7781 0.73504 0.0
H563 H 0.05906 0.81472 0.83136 0.0
H564 H 0.11974 0.78467 0.01516 0.0
H565 H 0.13992 0.73265 0.96142 0.0
C566 C 0.12068 0.71256 0.83458 0.0
C567 C 0.10728 0.70546 0.76813 0.0
C568 C 0.11064 0.74318 0.8658 0.0
C569 C 0.08482 0.72982 0.73334 0.0
C570 C 0.07538 0.76011 0.76351 0.0
C571 C 0.07674 0.79708 0.86055 0.0
C572 C 0.08744 0.80438 0.92807 0.0
C573 C 0.08773 0.76695 0.82977 0.0
C574 C 0.11076 0.78057 0.96341 0.0
C575 C 0.12232 0.75046 0.93257 0.0
H576 H 0.4427 0.32437 0.3118 0.0
H577 H 0.31249 0.31443 0.25611 0.0
H578 H 0.3083 0.26235 0.31651 0.0
H579 H 0.34212 0.21868 0.38227 0.0
H580 H 0.47044 0.23013 0.44672 0.0
H581 H 0.47485 0.28275 0.3872 0.0
C582 C 0.41352 0.31069 0.3128 0.0
C583 C 0.37811 0.32295 0.27843 0.0
C584 C 0.41092 0.28123 0.34988 0.0
C585 C 0.34021 0.30538 0.28158 0.0
C586 C 0.33779 0.27564 0.31626 0.0
C587 C 0.37088 0.23296 0.38407 0.0
C588 C 0.40589 0.22054 0.419 0.0
C589 C 0.37295 0.26325 0.35035 0.0
C590 C 0.44291 0.23932 0.421 0.0
C591 C 0.44552 0.26925 0.38634 0.0
H592 H 0.70175 0.4291 0.23432 0.0
H593 H 0.69677 0.35529 0.38867 0.0
H594 H 0.62065 0.3517 0.37611 0.0
H595 H 0.55608 0.36731 0.31747 0.0
H596 H 0.56119 0.43919 0.15941 0.0
H597 H 0.63658 0.44592 0.17767 0.0
C598 C 0.68399 0.41239 0.26556 0.0
C599 C 0.705 0.39236 0.31214 0.0
C600 C 0.64023 0.41005 0.25732 0.0
C601 C 0.68147 0.37081 0.3521 0.0
C602 C 0.63791 0.36876 0.345 0.0
C603 C 0.57355 0.38469 0.28737 0.0
C604 C 0.55293 0.40271 0.23712 0.0
C605 C 0.61704 0.38793 0.29718 0.0
C606 C 0.57621 0.425 0.19842 0.0
C607 C 0.61938 0.42881 0.20873 0.0
H608 H 0.9513 0.5974 0.77372 0.0
H609 H 0.94145 0.63901 0.57554 0.0
H610 H 0.86548 0.64369 0.58866 0.0
H611 H 0.80219 0.63736 0.65701 0.0
H612 H 0.81096 0.59451 0.85405 0.0
H613 H 0.88714 0.58904 0.84077 0.0
C614 C 0.93254 0.60738 0.73325 0.0
C615 C 0.95219 0.61806 0.67387 0.0
C616 C 0.88875 0.61 0.7411 0.0
C617 C 0.92728 0.6307 0.62184 0.0
C618 C 0.8838 0.63347 0.62935 0.0
C619 C 0.82072 0.62696 0.69731 0.0
C620 C 0.80095 0.61674 0.75681 0.0
C621 C 0.86428 0.62351 0.68897 0.0
C622 C 0.82542 0.60278 0.80794 0.0
C623 C 0.86896 0.5996 0.80031 0.0
H624 H 0.17784 0.15166 0.66042 0.0
H625 H 0.21214 0.08372 0.81639 0.0
H626 H 0.13847 0.0786 0.84917 0.0
H627 H 0.06432 0.0957 0.83724 0.0
H628 H 0.03047 0.16222 0.6782 0.0
H629 H 0.10357 0.16537 0.643 0.0
C630 C 0.16919 0.13564 0.70141 0.0
C631 C 0.20056 0.11842 0.73629 0.0
C632 C 0.1267 0.13257 0.71968 0.0
C633 C 0.18868 0.09736 0.7887 0.0
C634 C 0.14652 0.09447 0.80766 0.0
C635 C 0.07293 0.1107 0.79462 0.0
C636 C 0.04186 0.12889 0.76088 0.0
C637 C 0.11526 0.1123 0.7741 0.0
C638 C 0.05359 0.14794 0.70528 0.0
C639 C 0.09551 0.14989 0.68512 0.0
H640 H 0.45757 0.89125 0.20669 0.0
H641 H 0.43423 0.92513 0.40953 0.0
H642 H 0.35977 0.93266 0.38296 0.0
H643 H 0.30084 0.92788 0.30291 0.0
H644 H 0.32443 0.89208 0.10143 0.0
H645 H 0.39925 0.88728 0.12663 0.0
C646 C 0.4363 0.90039 0.24517 0.0
C647 C 0.45158 0.9075 0.31015 0.0
C648 C 0.39349 0.90432 0.22973 0.0
C649 C 0.42338 0.91926 0.35925 0.0
C650 C 0.38077 0.92364 0.34402 0.0
C651 C 0.32239 0.91929 0.2643 0.0
C652 C 0.30692 0.9103 0.20027 0.0
C653 C 0.3654 0.91602 0.27953 0.0
C654 C 0.33534 0.89901 0.15112 0.0
C655 C 0.37818 0.89625 0.16552 0.0
H656 H 0.43708 0.67524 0.74155 0.0
H657 H 0.44278 0.58256 0.84544 0.0
H658 H 0.3689 0.57234 0.81904 0.0
H659 H 0.30155 0.59142 0.77219 0.0
H660 H 0.29648 0.68443 0.66909 0.0
H661 H 0.37128 0.69264 0.68909 0.0
C662 C 0.42227 0.65269 0.75814 0.0
C663 C 0.44537 0.62983 0.79587 0.0
C664 C 0.3798 0.64707 0.74309 0.0
C665 C 0.42576 0.60058 0.81632 0.0
C666 C 0.38344 0.59477 0.80143 0.0
C667 C 0.31686 0.61338 0.75365 0.0
C668 C 0.29324 0.63743 0.71975 0.0
C669 C 0.35998 0.61809 0.76571 0.0
C670 C 0.31372 0.66562 0.69575 0.0
C671 C 0.35654 0.67037 0.70721 0.0
H672 H 0.20015 0.3875 0.37035 0.0
H673 H 0.19292 0.43251 0.17525 0.0
H674 H 0.11668 0.43783 0.18709 0.0
H675 H 0.05199 0.42881 0.25233 0.0
H676 H 0.06008 0.38485 0.44853 0.0
H677 H 0.13616 0.38027 0.43688 0.0
C678 C 0.18194 0.39835 0.33019 0.0
C679 C 0.20221 0.40929 0.27166 0.0
C680 C 0.13827 0.40165 0.33769 0.0
C681 C 0.17812 0.42376 0.22067 0.0
C682 C 0.13452 0.42683 0.22746 0.0
C683 C 0.07037 0.41833 0.29269 0.0
C684 C 0.05019 0.407 0.35108 0.0
C685 C 0.11424 0.41577 0.2857 0.0
C686 C 0.07465 0.39368 0.40297 0.0
C687 C 0.11821 0.39098 0.39631 0.0
H688 H 0.81003 0.92278 0.32753 0.0
H689 H 0.79053 0.87494 0.13526 0.0
H690 H 0.86536 0.87755 0.11174 0.0
H691 H 0.93662 0.89233 0.14549 0.0
H692 H 0.95824 0.93782 0.33916 0.0
H693 H 0.88261 0.93738 0.36202 0.0
C694 C 0.82221 0.91288 0.28059 0.0
C695 C 0.79451 0.89852 0.23347 0.0
C696 C 0.86576 0.9141 0.2674 0.0
C697 C 0.81094 0.88588 0.17282 0.0
C698 C 0.85385 0.88745 0.15907 0.0
C699 C 0.92487 0.90236 0.19261 0.0
C700 C 0.95316 0.91515 0.24044 0.0
C701 C 0.88156 0.90139 0.20597 0.0
C702 C 0.93723 0.92777 0.30144 0.0
C703 C 0.89395 0.92749 0.31458 0.0
H704 H 0.5703 0.12234 0.61437 0.0
H705 H 0.53633 0.11506 0.82356 0.0
H706 H 0.61006 0.10873 0.85411 0.0
H707 H 0.68504 0.10717 0.82201 0.0
H708 H 0.71847 0.1164 0.61291 0.0
H709 H 0.64463 0.11982 0.58218 0.0
C710 C 0.579 0.11932 0.66662 0.0
C711 C 0.54772 0.11941 0.71646 0.0
C712 C 0.62162 0.11604 0.68411 0.0
C713 C 0.55967 0.11532 0.78398 0.0
C714 C 0.60193 0.11165 0.80164 0.0
C715 C 0.67608 0.10974 0.76976 0.0
C716 C 0.70734 0.11173 0.72003 0.0
C717 C 0.63329 0.11225 0.75222 0.0
C718 C 0.69516 0.11511 0.65246 0.0
C719 C 0.65285 0.11704 0.63465 0.0
loop_
_geom_bond_atom_site_label_1
_geom_bond_atom_site_label_2
_geom_bond_distance
_geom_bond_site_symmetry_2
_ccdc_geom_bond_type
Zn0 N4 2.020 . S
Zn0 O8 2.019 . S
Zn0 N10 2.119 . S
Zn0 O18 1.975 . S
C1 N2 1.334 . S
C1 N5 1.336 . S
N2 C1 1.334 . S
N2 C3 1.334 . S
C3 N2 1.334 . S
C3 N4 1.336 . S
N4 Zn0 2.020 . S
N4 C3 1.336 . S
N4 N5 1.354 . S
N5 C1 1.336 . S
N5 N4 1.354 . S
N5 Zn9 2.020 . S
C6 O7 1.244 . S
C6 O30 1.257 . S
O7 C6 1.244 . S
O8 Zn0 2.019 . S
O8 C28 1.257 . S
Zn9 N5 2.020 . S
Zn9 O16 1.975 . S
Zn9 N25 2.119 . S
Zn9 O30 2.019 . S
N10 Zn0 2.119 . S
N10 C12 1.334 . S
N10 C13 1.328 . S
C11 C12 1.391 . S
C11 N14 1.329 . S
C11 H32 0.930 . S
C12 N10 1.334 . S
C12 C11 1.391 . S
C12 H19 0.930 . S
C13 N10 1.328 . S
C13 C15 1.392 . S
C13 H20 0.930 . S
N14 C11 1.329 . S
N14 C15 1.331 . S
C15 C13 1.392 . S
C15 N14 1.331 . S
O16 Zn9 1.975 . S
O16 C17 1.252 . S
C17 O16 1.252 . S
C17 O18 1.252 . S
O18 Zn0 1.975 . S
O18 C17 1.252 . S
H19 C12 0.930 . S
H20 C13 0.930 . S
C21 C22 1.392 . S
C21 N25 1.328 . S
C21 H27 0.930 . S
C22 C21 1.392 . S
C22 N26 1.331 . S
C23 C24 1.391 . S
C23 N26 1.329 . S
C23 H33 0.930 . S
C24 C23 1.391 . S
C24 N25 1.334 . S
C24 H31 0.930 . S
N25 Zn9 2.119 . S
N25 C21 1.328 . S
N25 C24 1.334 . S
N26 C22 1.331 . S
N26 C23 1.329 . S
H27 C21 0.930 . S
C28 O8 1.257 . S
C28 O29 1.244 . S
O29 C28 1.244 . S
O30 C6 1.257 . S
O30 Zn9 2.019 . S
H31 C24 0.930 . S
H32 C11 0.930 . S
H33 C23 0.930 . S
Zn34 N38 2.020 . S
Zn34 O42 2.019 . S
Zn34 N44 2.119 . S
Zn34 O52 1.975 . S
C35 N36 1.334 . S
C35 N39 1.336 . S
N36 C35 1.334 . S
N36 C37 1.334 . S
C37 N36 1.334 . S
C37 N38 1.336 . S
N38 Zn34 2.020 . S
N38 C37 1.336 . S
N38 N39 1.354 . S
N39 C35 1.336 . S
N39 N38 1.354 . S
N39 Zn43 2.020 . S
C40 O41 1.244 1_655 S
C40 O64 1.257 . S
O41 C40 1.244 1_455 S
O42 Zn34 2.019 . S
O42 C62 1.257 . S
Zn43 N39 2.020 . S
Zn43 O50 1.975 . S
Zn43 N59 2.119 . S
Zn43 O64 2.019 1_455 S
N44 Zn34 2.119 . S
N44 C46 1.334 . S
N44 C47 1.328 . S
C45 C46 1.391 . S
C45 N48 1.329 . S
C45 H66 0.930 . S
C46 N44 1.334 . S
C46 C45 1.391 . S
C46 H53 0.930 . S
C47 N44 1.328 . S
C47 C49 1.392 . S
C47 H54 0.930 . S
N48 C45 1.329 . S
N48 C49 1.331 . S
C49 C47 1.392 . S
C49 N48 1.331 . S
O50 Zn43 1.975 . S
O50 C51 1.252 . S
C51 O50 1.252 . S
C51 O52 1.252 . S
O52 Zn34 1.975 . S
O52 C51 1.252 . S
H53 C46 0.930 . S
H54 C47 0.930 . S
C55 C56 1.392 . S
C55 N59 1.328 . S
C55 H61 0.930 . S
C56 C55 1.392 . S
C56 N60 1.331 . S
C57 C58 1.391 . S
C57 N60 1.329 . S
C57 H67 0.930 . S
C58 C57 1.391 . S
C58 N59 1.334 . S
C58 H65 0.930 . S
N59 Zn43 2.119 . S
N59 C55 1.328 . S
N59 C58 1.334 . S
N60 C56 1.331 . S
N60 C57 1.329 . S
H61 C55 0.930 . S
C62 O42 1.257 . S
C62 O63 1.244 . S
O63 C62 1.244 . S
O64 C40 1.257 . S
O64 Zn43 2.019 1_655 S
H65 C58 0.930 . S
H66 C45 0.930 . S
H67 C57 0.930 . S
Zn68 N72 2.020 . S
Zn68 O76 2.019 1_655 S
Zn68 N78 2.119 . S
Zn68 O86 1.975 . S
C69 N70 1.334 . S
C69 N73 1.336 . S
N70 C69 1.334 . S
N70 C71 1.334 . S
C71 N70 1.334 . S
C71 N72 1.336 . S
N72 Zn68 2.020 . S
N72 C71 1.336 . S
N72 N73 1.354 . S
N73 C69 1.336 . S
N73 N72 1.354 . S
N73 Zn77 2.020 . S
C74 O75 1.244 . S
C74 O98 1.257 . S
O75 C74 1.244 . S
O76 Zn68 2.019 1_455 S
O76 C96 1.257 . S
Zn77 N73 2.020 . S
Zn77 O84 1.975 . S
Zn77 N93 2.119 . S
Zn77 O98 2.019 . S
N78 Zn68 2.119 . S
N78 C80 1.334 . S
N78 C81 1.328 . S
C79 C80 1.391 . S
C79 N82 1.329 . S
C79 H100 0.930 . S
C80 N78 1.334 . S
C80 C79 1.391 . S
C80 H87 0.930 . S
C81 N78 1.328 . S
C81 C83 1.392 . S
C81 H88 0.930 . S
N82 C79 1.329 . S
N82 C83 1.331 . S
C83 C81 1.392 . S
C83 N82 1.331 . S
O84 Zn77 1.975 . S
O84 C85 1.252 . S
C85 O84 1.252 . S
C85 O86 1.252 . S
O86 Zn68 1.975 . S
O86 C85 1.252 . S
H87 C80 0.930 . S
H88 C81 0.930 . S
C89 C90 1.392 . S
C89 N93 1.328 . S
C89 H95 0.930 . S
C90 C89 1.392 . S
C90 N94 1.331 . S
C91 C92 1.391 . S
C91 N94 1.329 . S
C91 H101 0.930 . S
C92 C91 1.391 . S
C92 N93 1.334 . S
C92 H99 0.930 . S
N93 Zn77 2.119 . S
N93 C89 1.328 . S
N93 C92 1.334 . S
N94 C90 1.331 . S
N94 C91 1.329 . S
H95 C89 0.930 . S
C96 O76 1.257 . S
C96 O97 1.244 1_455 S
O97 C96 1.244 1_655 S
O98 C74 1.257 . S
O98 Zn77 2.019 . S
H99 C92 0.930 . S
H100 C79 0.930 . S
H101 C91 0.930 . S
Zn102 N106 2.020 . S
Zn102 O110 2.019 . S
Zn102 N112 2.119 . S
Zn102 O120 1.975 . S
C103 N104 1.334 . S
C103 N107 1.336 . S
N104 C103 1.334 . S
N104 C105 1.334 . S
C105 N104 1.334 . S
C105 N106 1.336 . S
N106 Zn102 2.020 . S
N106 C105 1.336 . S
N106 N107 1.354 . S
N107 C103 1.336 . S
N107 N106 1.354 . S
N107 Zn111 2.020 . S
C108 O109 1.244 . S
C108 O132 1.257 . S
O109 C108 1.244 . S
O110 Zn102 2.019 . S
O110 C130 1.257 . S
Zn111 N107 2.020 . S
Zn111 O118 1.975 . S
Zn111 N127 2.119 . S
Zn111 O132 2.019 . S
N112 Zn102 2.119 . S
N112 C114 1.334 . S
N112 C115 1.328 . S
C113 C114 1.391 . S
C113 N116 1.329 . S
C113 H134 0.930 . S
C114 N112 1.334 . S
C114 C113 1.391 . S
C114 H121 0.930 . S
C115 N112 1.328 . S
C115 C117 1.392 . S
C115 H122 0.930 . S
N116 C113 1.329 . S
N116 C117 1.331 . S
C117 C115 1.392 . S
C117 N116 1.331 . S
O118 Zn111 1.975 . S
O118 C119 1.252 . S
C119 O118 1.252 . S
C119 O120 1.252 . S
O120 Zn102 1.975 . S
O120 C119 1.252 . S
H121 C114 0.930 . S
H122 C115 0.930 . S
C123 C124 1.392 . S
C123 N127 1.328 . S
C123 H129 0.930 . S
C124 C123 1.392 . S
C124 N128 1.331 . S
C125 C126 1.391 . S
C125 N128 1.329 . S
C125 H135 0.930 . S
C126 C125 1.391 . S
C126 N127 1.334 . S
C126 H133 0.930 . S
N127 Zn111 2.119 . S
N127 C123 1.328 . S
N127 C126 1.334 . S
N128 C124 1.331 . S
N128 C125 1.329 . S
H129 C123 0.930 . S
C130 O110 1.257 . S
C130 O131 1.244 . S
O131 C130 1.244 . S
O132 C108 1.257 . S
O132 Zn111 2.019 . S
H133 C126 0.930 . S
H134 C113 0.930 . S
H135 C125 0.930 . S
Zn136 N140 2.020 . S
Zn136 O144 2.019 . S
Zn136 N146 2.119 . S
Zn136 O154 1.975 . S
C137 N138 1.334 . S
C137 N141 1.336 . S
N138 C137 1.334 . S
N138 C139 1.334 . S
C139 N138 1.334 . S
C139 N140 1.336 . S
N140 Zn136 2.020 . S
N140 C139 1.336 . S
N140 N141 1.354 . S
N141 C137 1.336 . S
N141 N140 1.354 . S
N141 Zn145 2.020 . S
C142 O143 1.244 . S
C142 O166 1.257 . S
O143 C142 1.244 . S
O144 Zn136 2.019 . S
O144 C164 1.257 . S
Zn145 N141 2.020 . S
Zn145 O152 1.975 . S
Zn145 N161 2.119 . S
Zn145 O166 2.019 . S
N146 Zn136 2.119 . S
N146 C148 1.334 . S
N146 C149 1.328 . S
C147 C148 1.391 . S
C147 N150 1.329 . S
C147 H168 0.930 . S
C148 N146 1.334 . S
C148 C147 1.391 . S
C148 H155 0.930 . S
C149 N146 1.328 . S
C149 C151 1.392 . S
C149 H156 0.930 . S
N150 C147 1.329 . S
N150 C151 1.331 . S
C151 C149 1.392 . S
C151 N150 1.331 . S
O152 Zn145 1.975 . S
O152 C153 1.252 . S
C153 O152 1.252 . S
C153 O154 1.252 . S
O154 Zn136 1.975 . S
O154 C153 1.252 . S
H155 C148 0.930 . S
H156 C149 0.930 . S
C157 C158 1.392 . S
C157 N161 1.328 . S
C157 H163 0.930 . S
C158 C157 1.392 . S
C158 N162 1.331 . S
C159 C160 1.391 . S
C159 N162 1.329 . S
C159 H169 0.930 . S
C160 C159 1.391 . S
C160 N161 1.334 . S
C160 H167 0.930 . S
N161 Zn145 2.119 . S
N161 C157 1.328 . S
N161 C160 1.334 . S
N162 C158 1.331 . S
N162 C159 1.329 . S
H163 C157 0.930 . S
C164 O144 1.257 . S
C164 O165 1.244 . S
O165 C164 1.244 . S
O166 C142 1.257 . S
O166 Zn145 2.019 . S
H167 C160 0.930 . S
H168 C147 0.930 . S
H169 C159 0.930 . S
Zn170 N174 2.020 . S
Zn170 O178 2.019 1_655 S
Zn170 N180 2.119 . S
Zn170 O188 1.975 . S
C171 N172 1.334 . S
C171 N175 1.336 . S
N172 C171 1.334 . S
N172 C173 1.334 . S
C173 N172 1.334 . S
C173 N174 1.336 . S
N174 Zn170 2.020 . S
N174 C173 1.336 . S
N174 N175 1.354 . S
N175 C171 1.336 . S
N175 N174 1.354 . S
N175 Zn179 2.020 . S
C176 O177 1.244 . S
C176 O200 1.257 . S
O177 C176 1.244 . S
O178 Zn170 2.019 1_455 S
O178 C198 1.257 . S
Zn179 N175 2.020 . S
Zn179 O186 1.975 . S
Zn179 N195 2.119 . S
Zn179 O200 2.019 . S
N180 Zn170 2.119 . S
N180 C182 1.334 . S
N180 C183 1.328 . S
C181 C182 1.391 . S
C181 N184 1.329 . S
C181 H202 0.930 . S
C182 N180 1.334 . S
C182 C181 1.391 . S
C182 H189 0.930 . S
C183 N180 1.328 . S
C183 C185 1.392 . S
C183 H190 0.930 . S
N184 C181 1.329 . S
N184 C185 1.331 . S
C185 C183 1.392 . S
C185 N184 1.331 . S
O186 Zn179 1.975 . S
O186 C187 1.252 . S
C187 O186 1.252 . S
C187 O188 1.252 . S
O188 Zn170 1.975 . S
O188 C187 1.252 . S
H189 C182 0.930 . S
H190 C183 0.930 . S
C191 C192 1.392 . S
C191 N195 1.328 . S
C191 H197 0.930 . S
C192 C191 1.392 . S
C192 N196 1.331 . S
C193 C194 1.391 . S
C193 N196 1.329 . S
C193 H203 0.930 . S
C194 C193 1.391 . S
C194 N195 1.334 . S
C194 H201 0.930 . S
N195 Zn179 2.119 . S
N195 C191 1.328 . S
N195 C194 1.334 . S
N196 C192 1.331 . S
N196 C193 1.329 . S
H197 C191 0.930 . S
C198 O178 1.257 . S
C198 O199 1.244 1_455 S
O199 C198 1.244 1_655 S
O200 C176 1.257 . S
O200 Zn179 2.019 . S
H201 C194 0.930 . S
H202 C181 0.930 . S
H203 C193 0.930 . S
Zn204 N208 2.020 . S
Zn204 O212 2.019 . S
Zn204 N214 2.119 . S
Zn204 O222 1.975 . S
C205 N206 1.334 . S
C205 N209 1.336 . S
N206 C205 1.334 . S
N206 C207 1.334 . S
C207 N206 1.334 . S
C207 N208 1.336 . S
N208 Zn204 2.020 . S
N208 C207 1.336 . S
N208 N209 1.354 . S
N209 C205 1.336 . S
N209 N208 1.354 . S
N209 Zn213 2.020 . S
C210 O211 1.244 1_655 S
C210 O234 1.257 . S
O211 C210 1.244 1_455 S
O212 Zn204 2.019 . S
O212 C232 1.257 . S
Zn213 N209 2.020 . S
Zn213 O220 1.975 . S
Zn213 N229 2.119 . S
Zn213 O234 2.019 1_455 S
N214 Zn204 2.119 . S
N214 C216 1.334 . S
N214 C217 1.328 . S
C215 C216 1.391 . S
C215 N218 1.329 . S
C215 H236 0.930 . S
C216 N214 1.334 . S
C216 C215 1.391 . S
C216 H223 0.930 . S
C217 N214 1.328 . S
C217 C219 1.392 . S
C217 H224 0.930 . S
N218 C215 1.329 . S
N218 C219 1.331 . S
C219 C217 1.392 . S
C219 N218 1.331 . S
O220 Zn213 1.975 . S
O220 C221 1.252 . S
C221 O220 1.252 . S
C221 O222 1.252 . S
O222 Zn204 1.975 . S
O222 C221 1.252 . S
H223 C216 0.930 . S
H224 C217 0.930 . S
C225 C226 1.392 . S
C225 N229 1.328 . S
C225 H231 0.930 . S
C226 C225 1.392 . S
C226 N230 1.331 . S
C227 C228 1.391 . S
C227 N230 1.329 . S
C227 H237 0.930 . S
C228 C227 1.391 . S
C228 N229 1.334 . S
C228 H235 0.930 . S
N229 Zn213 2.119 . S
N229 C225 1.328 . S
N229 C228 1.334 . S
N230 C226 1.331 . S
N230 C227 1.329 . S
H231 C225 0.930 . S
C232 O212 1.257 . S
C232 O233 1.244 . S
O233 C232 1.244 . S
O234 C210 1.257 . S
O234 Zn213 2.019 1_655 S
H235 C228 0.930 . S
H236 C215 0.930 . S
H237 C227 0.930 . S
Zn238 N242 2.020 . S
Zn238 O246 2.019 . S
Zn238 N248 2.119 . S
Zn238 O256 1.975 . S
C239 N240 1.334 . S
C239 N243 1.336 . S
N240 C239 1.334 . S
N240 C241 1.334 . S
C241 N240 1.334 . S
C241 N242 1.336 . S
N242 Zn238 2.020 . S
N242 C241 1.336 . S
N242 N243 1.354 . S
N243 C239 1.336 . S
N243 N242 1.354 . S
N243 Zn247 2.020 . S
C244 O245 1.244 . S
C244 O268 1.257 . S
O245 C244 1.244 . S
O246 Zn238 2.019 . S
O246 C266 1.257 . S
Zn247 N243 2.020 . S
Zn247 O254 1.975 . S
Zn247 N263 2.119 . S
Zn247 O268 2.019 . S
N248 Zn238 2.119 . S
N248 C250 1.334 . S
N248 C251 1.328 . S
C249 C250 1.391 . S
C249 N252 1.329 . S
C249 H270 0.930 . S
C250 N248 1.334 . S
C250 C249 1.391 . S
C250 H257 0.930 . S
C251 N248 1.328 . S
C251 C253 1.392 . S
C251 H258 0.930 . S
N252 C249 1.329 . S
N252 C253 1.331 . S
C253 C251 1.392 . S
C253 N252 1.331 . S
O254 Zn247 1.975 . S
O254 C255 1.252 . S
C255 O254 1.252 . S
C255 O256 1.252 . S
O256 Zn238 1.975 . S
O256 C255 1.252 . S
H257 C250 0.930 . S
H258 C251 0.930 . S
C259 C260 1.392 . S
C259 N263 1.328 . S
C259 H265 0.930 . S
C260 C259 1.392 . S
C260 N264 1.331 . S
C261 C262 1.391 . S
C261 N264 1.329 . S
C261 H271 0.930 . S
C262 C261 1.391 . S
C262 N263 1.334 . S
C262 H269 0.930 . S
N263 Zn247 2.119 . S
N263 C259 1.328 . S
N263 C262 1.334 . S
N264 C260 1.331 . S
N264 C261 1.329 . S
H265 C259 0.930 . S
C266 O246 1.257 . S
C266 O267 1.244 . S
O267 C266 1.244 . S
O268 C244 1.257 . S
O268 Zn247 2.019 . S
H269 C262 0.930 . S
H270 C249 0.930 . S
H271 C261 0.930 . S
H272 C278 0.930 . S
H273 C281 0.930 . S
H274 C282 0.930 . S
H275 C283 0.930 . S
H276 C286 0.930 . S
H277 C287 0.930 . S
C278 H272 0.930 . S
C278 C279 1.355 . S
C278 C280 1.415 . S
C279 C278 1.355 . S
C279 C281 1.419 . S
C280 C278 1.415 . S
C280 C285 1.425 . S
C280 C287 1.409 . S
C281 H273 0.930 . S
C281 C279 1.419 . S
C281 C282 1.362 . S
C282 H274 0.930 . S
C282 C281 1.362 . S
C282 C285 1.409 . S
C283 H275 0.930 . S
C283 C284 1.355 . S
C283 C285 1.415 1_556 S
C284 C283 1.355 . S
C284 C286 1.419 . S
C285 C280 1.425 . S
C285 C282 1.409 . S
C285 C283 1.415 1_554 S
C286 H276 0.930 . S
C286 C284 1.419 . S
C286 C287 1.362 1_556 S
C287 H277 0.930 . S
C287 C280 1.409 . S
C287 C286 1.362 1_554 S
H288 C294 0.930 . S
H289 C297 0.930 . S
H290 C298 0.930 . S
H291 C299 0.930 . S
H292 C302 0.930 . S
H293 C303 0.930 . S
C294 H288 0.930 . S
C294 C295 1.355 . S
C294 C296 1.415 . S
C295 C294 1.355 . S
C295 C297 1.419 . S
C296 C294 1.415 . S
C296 C301 1.425 . S
C296 C303 1.409 . S
C297 H289 0.930 . S
C297 C295 1.419 . S
C297 C298 1.362 . S
C298 H290 0.930 . S
C298 C297 1.362 . S
C298 C301 1.409 . S
C299 H291 0.930 . S
C299 C300 1.355 . S
C299 C301 1.415 . S
C300 C299 1.355 . S
C300 C302 1.419 . S
C301 C296 1.425 . S
C301 C298 1.409 . S
C301 C299 1.415 . S
C302 H292 0.930 . S
C302 C300 1.419 . S
C302 C303 1.362 . S
C303 H293 0.930 . S
C303 C296 1.409 . S
C303 C302 1.362 . S
H304 C310 0.930 . S
H305 C313 0.930 . S
H306 C314 0.930 . S
H307 C315 0.930 . S
H308 C318 0.930 . S
H309 C319 0.930 . S
C310 H304 0.930 . S
C310 C311 1.355 . S
C310 C312 1.415 . S
C311 C310 1.355 . S
C311 C313 1.419 . S
C312 C310 1.415 . S
C312 C317 1.425 . S
C312 C319 1.409 1_545 S
C313 H305 0.930 . S
C313 C311 1.419 . S
C313 C314 1.362 1_556 S
C314 H306 0.930 . S
C314 C313 1.362 1_554 S
C314 C317 1.409 1_554 S
C315 H307 0.930 . S
C315 C316 1.351 1_545 S
C315 C317 1.418 1_554 S
C316 C315 1.351 1_565 S
C316 C318 1.419 1_554 S
C317 C312 1.425 . S
C317 C314 1.409 1_556 S
C317 C315 1.418 1_556 S
C318 H308 0.930 . S
C318 C316 1.419 1_556 S
C318 C319 1.362 . S
C319 H309 0.930 . S
C319 C312 1.409 1_565 S
C319 C318 1.362 . S
H320 C326 0.930 . S
H321 C329 0.930 1_545 S
H322 C330 0.930 . S
H323 C331 0.930 . S
H324 C334 0.930 . S
H325 C335 0.930 . S
C326 H320 0.930 . S
C326 C327 1.355 . S
C326 C328 1.415 . S
C327 C326 1.355 . S
C327 C329 1.419 . S
C328 C326 1.415 . S
C328 C333 1.425 1_565 S
C328 C335 1.409 . S
C329 H321 0.930 1_565 S
C329 C327 1.419 . S
C329 C330 1.362 1_565 S
C330 H322 0.930 . S
C330 C329 1.362 1_545 S
C330 C333 1.409 . S
C331 H323 0.930 . S
C331 C332 1.355 . S
C331 C333 1.415 . S
C332 C331 1.355 . S
C332 C334 1.419 1_545 S
C333 C328 1.425 1_545 S
C333 C330 1.409 . S
C333 C331 1.415 . S
C334 H324 0.930 . S
C334 C332 1.419 1_565 S
C334 C335 1.362 . S
C335 H325 0.930 . S
C335 C328 1.409 . S
C335 C334 1.362 . S
H336 C342 0.930 . S
H337 C345 0.930 . S
H338 C346 0.930 . S
H339 C347 0.930 . S
H340 C350 0.930 . S
H341 C351 0.930 . S
C342 H336 0.930 . S
C342 C343 1.355 . S
C342 C344 1.415 . S
C343 C342 1.355 . S
C343 C345 1.419 . S
C344 C342 1.415 . S
C344 C349 1.425 . S
C344 C351 1.409 1_556 S
C345 H337 0.930 . S
C345 C343 1.419 . S
C345 C346 1.362 . S
C346 H338 0.930 . S
C346 C345 1.362 . S
C346 C349 1.409 . S
C347 H339 0.930 . S
C347 C348 1.355 1_556 S
C347 C349 1.415 . S
C348 C347 1.355 1_554 S
C348 C350 1.419 . S
C349 C344 1.425 . S
C349 C346 1.409 . S
C349 C347 1.415 . S
C350 H340 0.930 . S
C350 C348 1.419 . S
C350 C351 1.362 . S
C351 H341 0.930 . S
C351 C344 1.409 1_554 S
C351 C350 1.362 . S
H352 C358 0.930 . S
H353 C361 0.930 . S
H354 C362 0.930 . S
H355 C363 0.930 . S
H356 C366 0.930 . S
H357 C367 0.930 . S
C358 H352 0.930 . S
C358 C359 1.355 . S
C358 C360 1.415 . S
C359 C358 1.355 . S
C359 C361 1.419 . S
C360 C358 1.415 . S
C360 C365 1.425 . S
C360 C367 1.409 . S
C361 H353 0.930 . S
C361 C359 1.419 . S
C361 C362 1.362 . S
C362 H354 0.930 . S
C362 C361 1.362 . S
C362 C365 1.409 . S
C363 H355 0.930 . S
C363 C364 1.355 . S
C363 C365 1.415 . S
C364 C363 1.355 . S
C364 C366 1.419 . S
C365 C360 1.425 . S
C365 C362 1.409 . S
C365 C363 1.415 . S
C366 H356 0.930 . S
C366 C364 1.419 . S
C366 C367 1.362 . S
C367 H357 0.930 . S
C367 C360 1.409 . S
C367 C366 1.362 . S
H368 C374 0.930 . S
H369 C377 0.930 . S
H370 C378 0.930 . S
H371 C379 0.930 . S
H372 C382 0.930 . S
H373 C383 0.930 . S
C374 H368 0.930 . S
C374 C375 1.355 1_554 S
C374 C376 1.415 1_545 S
C375 C374 1.355 1_556 S
C375 C377 1.419 . S
C376 C374 1.415 1_565 S
C376 C381 1.425 . S
C376 C383 1.409 . S
C377 H369 0.930 . S
C377 C375 1.419 . S
C377 C378 1.362 1_545 S
C378 H370 0.930 . S
C378 C377 1.362 1_565 S
C378 C381 1.409 1_556 S
C379 H371 0.930 . S
C379 C380 1.355 . S
C379 C381 1.415 . S
C380 C379 1.355 . S
C380 C382 1.419 . S
C381 C376 1.425 . S
C381 C378 1.409 1_554 S
C381 C379 1.415 . S
C382 H372 0.930 . S
C382 C380 1.419 . S
C382 C383 1.362 . S
C383 H373 0.930 . S
C383 C376 1.409 . S
C383 C382 1.362 . S
H384 C390 0.930 . S
H385 C393 0.930 . S
H386 C394 0.930 . S
H387 C395 0.930 . S
H388 C398 0.930 . S
H389 C399 0.930 . S
C390 H384 0.930 . S
C390 C391 1.355 . S
C390 C392 1.415 . S
C391 C390 1.355 . S
C391 C393 1.419 . S
C392 C390 1.415 . S
C392 C397 1.425 . S
C392 C399 1.409 1_545 S
C393 H385 0.930 . S
C393 C391 1.419 . S
C393 C394 1.362 . S
C394 H386 0.930 . S
C394 C393 1.362 . S
C394 C397 1.409 . S
C395 H387 0.930 . S
C395 C396 1.355 1_545 S
C395 C397 1.415 . S
C396 C395 1.355 1_565 S
C396 C398 1.419 . S
C397 C392 1.425 . S
C397 C394 1.409 . S
C397 C395 1.415 . S
C398 H388 0.930 . S
C398 C396 1.419 . S
C398 C399 1.362 . S
C399 H389 0.930 . S
C399 C392 1.409 1_565 S
C399 C398 1.362 . S
H400 C406 0.930 . S
H401 C409 0.930 . S
H402 C410 0.930 . S
H403 C411 0.930 . S
H404 C414 0.930 . S
H405 C415 0.930 . S
C406 H400 0.930 . S
C406 C407 1.355 . S
C406 C408 1.415 . S
C407 C406 1.355 . S
C407 C409 1.419 . S
C408 C406 1.415 . S
C408 C413 1.425 1_554 S
C408 C415 1.409 1_554 S
C409 H401 0.930 . S
C409 C407 1.419 . S
C409 C410 1.362 . S
C410 H402 0.930 . S
C410 C409 1.362 . S
C410 C413 1.409 1_554 S
C411 H403 0.930 . S
C411 C412 1.355 . S
C411 C413 1.415 . S
C412 C411 1.355 . S
C412 C414 1.419 . S
C413 C408 1.425 1_556 S
C413 C410 1.409 1_556 S
C413 C411 1.415 . S
C414 H404 0.930 . S
C414 C412 1.419 . S
C414 C415 1.362 . S
C415 H405 0.930 . S
C415 C408 1.409 1_556 S
C415 C414 1.362 . S
H416 C422 0.930 1_455 S
H417 C425 0.930 . S
H418 C426 0.930 . S
H419 C427 0.930 1_655 S
H420 C430 0.930 . S
H421 C431 0.930 . S
C422 H416 0.930 1_655 S
C422 C423 1.355 . S
C422 C424 1.415 1_655 S
C423 C422 1.355 . S
C423 C425 1.419 . S
C424 C422 1.415 1_455 S
C424 C429 1.425 1_455 S
C424 C431 1.409 . S
C425 H417 0.930 . S
C425 C423 1.419 . S
C425 C426 1.362 . S
C426 H418 0.930 . S
C426 C425 1.362 . S
C426 C429 1.409 . S
C427 H419 0.930 1_455 S
C427 C428 1.355 . S
C427 C429 1.415 1_455 S
C428 C427 1.355 . S
C428 C430 1.419 . S
C429 C424 1.425 1_655 S
C429 C426 1.409 . S
C429 C427 1.415 1_655 S
C430 H420 0.930 . S
C430 C428 1.419 . S
C430 C431 1.362 . S
C431 H421 0.930 . S
C431 C424 1.409 . S
C431 C430 1.362 . S
H432 C438 0.930 1_556 S
H433 C441 0.927 1_655 S
H434 C442 0.930 . S
H435 C443 0.930 1_554 S
H436 C446 0.927 1_455 S
H437 C447 0.930 . S
C438 H432 0.930 1_554 S
C438 C439 1.355 . S
C438 C440 1.415 1_554 S
C439 C438 1.355 . S
C439 C441 1.419 . S
C440 C438 1.415 1_556 S
C440 C445 1.425 1_466 S
C440 C447 1.409 1_565 S
C441 H433 0.927 1_455 S
C441 C439 1.419 . S
C441 C442 1.362 1_455 S
C442 H434 0.930 . S
C442 C441 1.362 1_655 S
C442 C445 1.409 1_565 S
C443 H435 0.930 1_556 S
C443 C444 1.355 . S
C443 C445 1.415 1_556 S
C444 C443 1.355 . S
C444 C446 1.419 . S
C445 C440 1.425 1_644 S
C445 C442 1.409 1_545 S
C445 C443 1.415 1_554 S
C446 H436 0.927 1_655 S
C446 C444 1.419 . S
C446 C447 1.362 1_655 S
C447 H437 0.930 . S
C447 C440 1.409 1_545 S
C447 C446 1.362 1_455 S
H448 C454 0.930 . S
H449 C457 0.930 . S
H450 C458 0.930 . S
H451 C459 0.930 . S
H452 C462 0.930 . S
H453 C463 0.930 . S
C454 H448 0.930 . S
C454 C455 1.355 . S
C454 C456 1.415 . S
C455 C454 1.355 . S
C455 C457 1.419 . S
C456 C454 1.415 . S
C456 C461 1.425 1_545 S
C456 C463 1.409 . S
C457 H449 0.930 . S
C457 C455 1.419 . S
C457 C458 1.362 1_545 S
C458 H450 0.930 . S
C458 C457 1.362 1_565 S
C458 C461 1.409 . S
C459 H451 0.930 . S
C459 C460 1.355 . S
C459 C461 1.415 . S
C460 C459 1.355 . S
C460 C462 1.419 . S
C461 C456 1.425 1_565 S
C461 C458 1.409 . S
C461 C459 1.415 . S
C462 H452 0.930 . S
C462 C460 1.419 . S
C462 C463 1.362 1_565 S
C463 H453 0.930 . S
C463 C456 1.409 . S
C463 C462 1.362 1_545 S
H464 C470 0.930 . S
H465 C473 0.930 . S
H466 C474 0.930 . S
H467 C475 0.930 . S
H468 C478 0.930 . S
H469 C479 0.930 . S
C470 H464 0.930 . S
C470 C471 1.355 . S
C470 C472 1.415 . S
C471 C470 1.355 . S
C471 C473 1.419 . S
C472 C470 1.415 . S
C472 C477 1.425 . S
C472 C479 1.409 1_556 S
C473 H465 0.930 . S
C473 C471 1.419 . S
C473 C474 1.362 . S
C474 H466 0.930 . S
C474 C473 1.362 . S
C474 C477 1.409 . S
C475 H467 0.930 . S
C475 C476 1.355 1_556 S
C475 C477 1.415 . S
C476 C475 1.355 1_554 S
C476 C478 1.419 . S
C477 C472 1.425 . S
C477 C474 1.409 . S
C477 C475 1.415 . S
C478 H468 0.930 . S
C478 C476 1.419 . S
C478 C479 1.362 . S
C479 H469 0.930 . S
C479 C472 1.409 1_554 S
C479 C478 1.362 . S
H480 C486 0.930 . S
H481 C489 0.930 . S
H482 C490 0.930 . S
H483 C491 0.930 . S
H484 C494 0.930 . S
H485 C495 0.930 . S
C486 H480 0.930 . S
C486 C487 1.355 . S
C486 C488 1.415 . S
C487 C486 1.355 . S
C487 C489 1.419 . S
C488 C486 1.415 . S
C488 C493 1.425 . S
C488 C495 1.409 . S
C489 H481 0.930 . S
C489 C487 1.419 . S
C489 C490 1.362 . S
C490 H482 0.930 . S
C490 C489 1.362 . S
C490 C493 1.409 . S
C491 H483 0.930 . S
C491 C492 1.355 . S
C491 C493 1.415 . S
C492 C491 1.355 . S
C492 C494 1.419 . S
C493 C488 1.425 . S
C493 C490 1.409 . S
C493 C491 1.415 . S
C494 H484 0.930 . S
C494 C492 1.419 . S
C494 C495 1.362 . S
C495 H485 0.930 . S
C495 C488 1.409 . S
C495 C494 1.362 . S
H496 C502 0.930 . S
H497 C505 0.930 . S
H498 C506 0.930 . S
H499 C507 0.930 . S
H500 C510 0.930 . S
H501 C511 0.930 . S
C502 H496 0.930 . S
C502 C503 1.355 1_554 S
C502 C504 1.415 . S
C503 C502 1.355 1_556 S
C503 C505 1.419 . S
C504 C502 1.415 . S
C504 C509 1.425 . S
C504 C511 1.409 . S
C505 H497 0.930 . S
C505 C503 1.419 . S
C505 C506 1.362 . S
C506 H498 0.930 . S
C506 C505 1.362 . S
C506 C509 1.409 1_556 S
C507 H499 0.930 . S
C507 C508 1.355 . S
C507 C509 1.415 . S
C508 C507 1.355 . S
C508 C510 1.419 . S
C509 C504 1.425 . S
C509 C506 1.409 1_554 S
C509 C507 1.415 . S
C510 H500 0.930 . S
C510 C508 1.419 . S
C510 C511 1.362 . S
C511 H501 0.930 . S
C511 C504 1.409 . S
C511 C510 1.362 . S
H512 C518 0.930 . S
H513 C521 0.930 . S
H514 C522 0.930 . S
H515 C523 0.930 . S
H516 C526 0.930 . S
H517 C527 0.930 . S
C518 H512 0.930 . S
C518 C519 1.355 . S
C518 C520 1.415 . S
C519 C518 1.355 . S
C519 C521 1.419 . S
C520 C518 1.415 . S
C520 C525 1.425 . S
C520 C527 1.409 . S
C521 H513 0.930 . S
C521 C519 1.419 . S
C521 C522 1.362 . S
C522 H514 0.930 . S
C522 C521 1.362 . S
C522 C525 1.409 . S
C523 H515 0.930 . S
C523 C524 1.355 . S
C523 C525 1.415 . S
C524 C523 1.355 . S
C524 C526 1.419 . S
C525 C520 1.425 . S
C525 C522 1.409 . S
C525 C523 1.415 . S
C526 H516 0.930 . S
C526 C524 1.419 . S
C526 C527 1.362 . S
C527 H517 0.930 . S
C527 C520 1.409 . S
C527 C526 1.362 . S
H528 C534 0.930 . S
H529 C537 0.930 . S
H530 C538 0.930 . S
H531 C539 0.930 . S
H532 C542 0.930 . S
H533 C543 0.930 . S
C534 H528 0.930 . S
C534 C535 1.355 1_554 S
C534 C536 1.415 . S
C535 C534 1.355 1_556 S
C535 C537 1.419 . S
C536 C534 1.415 . S
C536 C541 1.425 . S
C536 C543 1.409 . S
C537 H529 0.930 . S
C537 C535 1.419 . S
C537 C538 1.362 . S
C538 H530 0.930 . S
C538 C537 1.362 . S
C538 C541 1.409 1_556 S
C539 H531 0.930 . S
C539 C540 1.355 . S
C539 C541 1.415 . S
C540 C539 1.355 . S
C540 C542 1.419 . S
C541 C536 1.425 . S
C541 C538 1.409 1_554 S
C541 C539 1.415 . S
C542 H532 0.930 . S
C542 C540 1.419 . S
C542 C543 1.362 . S
C543 H533 0.930 . S
C543 C536 1.409 . S
C543 C542 1.362 . S
H544 C550 0.930 . S
H545 C553 0.930 . S
H546 C554 0.930 . S
H547 C555 0.930 . S
H548 C558 0.930 . S
H549 C559 0.930 . S
C550 H544 0.930 . S
C550 C551 1.355 . S
C550 C552 1.415 . S
C551 C550 1.355 . S
C551 C553 1.419 . S
C552 C550 1.415 . S
C552 C557 1.425 . S
C552 C559 1.409 . S
C553 H545 0.930 . S
C553 C551 1.419 . S
C553 C554 1.362 . S
C554 H546 0.930 . S
C554 C553 1.362 . S
C554 C557 1.409 . S
C555 H547 0.930 . S
C555 C556 1.355 . S
C555 C557 1.415 . S
C556 C555 1.355 . S
C556 C558 1.419 . S
C557 C552 1.425 . S
C557 C554 1.409 . S
C557 C555 1.415 . S
C558 H548 0.930 . S
C558 C556 1.419 . S
C558 C559 1.362 . S
C559 H549 0.930 . S
C559 C552 1.409 . S
C559 C558 1.362 . S
H560 C566 0.930 . S
H561 C569 0.930 . S
H562 C570 0.930 . S
H563 C571 0.930 . S
H564 C574 0.930 . S
H565 C575 0.930 . S
C566 H560 0.930 . S
C566 C567 1.355 . S
C566 C568 1.415 . S
C567 C566 1.355 . S
C567 C569 1.419 . S
C568 C566 1.415 . S
C568 C573 1.425 . S
C568 C575 1.409 1_556 S
C569 H561 0.930 . S
C569 C567 1.419 . S
C569 C570 1.362 . S
C570 H562 0.930 . S
C570 C569 1.362 . S
C570 C573 1.409 . S
C571 H563 0.930 . S
C571 C572 1.355 1_556 S
C571 C573 1.415 . S
C572 C571 1.355 1_554 S
C572 C574 1.419 . S
C573 C568 1.425 . S
C573 C570 1.409 . S
C573 C571 1.415 . S
C574 H564 0.930 . S
C574 C572 1.419 . S
C574 C575 1.362 . S
C575 H565 0.930 . S
C575 C568 1.409 1_554 S
C575 C574 1.362 . S
H576 C582 0.930 . S
H577 C585 0.930 . S
H578 C586 0.930 . S
H579 C587 0.930 . S
H580 C590 0.930 . S
H581 C591 0.930 . S
C582 H576 0.930 . S
C582 C583 1.355 . S
C582 C584 1.415 . S
C583 C582 1.355 . S
C583 C585 1.419 . S
C584 C582 1.415 . S
C584 C589 1.425 . S
C584 C591 1.409 . S
C585 H577 0.930 . S
C585 C583 1.419 . S
C585 C586 1.362 . S
C586 H578 0.930 . S
C586 C585 1.362 . S
C586 C589 1.409 . S
C587 H579 0.930 . S
C587 C588 1.355 . S
C587 C589 1.415 . S
C588 C587 1.355 . S
C588 C590 1.419 . S
C589 C584 1.425 . S
C589 C586 1.409 . S
C589 C587 1.415 . S
C590 H580 0.930 . S
C590 C588 1.419 . S
C590 C591 1.362 . S
C591 H581 0.930 . S
C591 C584 1.409 . S
C591 C590 1.362 . S
H592 C598 0.930 . S
H593 C601 0.930 . S
H594 C602 0.930 . S
H595 C603 0.930 . S
H596 C606 0.930 . S
H597 C607 0.930 . S
C598 H592 0.930 . S
C598 C599 1.355 . S
C598 C600 1.415 . S
C599 C598 1.355 . S
C599 C601 1.419 . S
C600 C598 1.415 . S
C600 C605 1.425 . S
C600 C607 1.409 . S
C601 H593 0.930 . S
C601 C599 1.419 . S
C601 C602 1.362 . S
C602 H594 0.930 . S
C602 C601 1.362 . S
C602 C605 1.409 . S
C603 H595 0.930 . S
C603 C604 1.355 . S
C603 C605 1.415 . S
C604 C603 1.355 . S
C604 C606 1.419 . S
C605 C600 1.425 . S
C605 C602 1.409 . S
C605 C603 1.415 . S
C606 H596 0.930 . S
C606 C604 1.419 . S
C606 C607 1.362 . S
C607 H597 0.930 . S
C607 C600 1.409 . S
C607 C606 1.362 . S
H608 C614 0.930 . S
H609 C617 0.930 . S
H610 C618 0.930 . S
H611 C619 0.930 . S
H612 C622 0.930 . S
H613 C623 0.930 . S
C614 H608 0.930 . S
C614 C615 1.355 . S
C614 C616 1.415 . S
C615 C614 1.355 . S
C615 C617 1.419 . S
C616 C614 1.415 . S
C616 C621 1.425 . S
C616 C623 1.409 . S
C617 H609 0.930 . S
C617 C615 1.419 . S
C617 C618 1.362 . S
C618 H610 0.930 . S
C618 C617 1.362 . S
C618 C621 1.409 . S
C619 H611 0.930 . S
C619 C620 1.355 . S
C619 C621 1.415 . S
C620 C619 1.355 . S
C620 C622 1.419 . S
C621 C616 1.425 . S
C621 C618 1.409 . S
C621 C619 1.415 . S
C622 H612 0.930 . S
C622 C620 1.419 . S
C622 C623 1.362 . S
C623 H613 0.930 . S
C623 C616 1.409 . S
C623 C622 1.362 . S
H624 C630 0.930 . S
H625 C633 0.930 . S
H626 C634 0.930 . S
H627 C635 0.930 . S
H628 C638 0.930 . S
H629 C639 0.930 . S
C630 H624 0.930 . S
C630 C631 1.355 . S
C630 C632 1.415 . S
C631 C630 1.355 . S
C631 C633 1.419 . S
C632 C630 1.415 . S
C632 C637 1.425 . S
C632 C639 1.409 . S
C633 H625 0.930 . S
C633 C631 1.419 . S
C633 C634 1.362 . S
C634 H626 0.930 . S
C634 C633 1.362 . S
C634 C637 1.409 . S
C635 H627 0.930 . S
C635 C636 1.355 . S
C635 C637 1.415 . S
C636 C635 1.355 . S
C636 C638 1.419 . S
C637 C632 1.425 . S
C637 C634 1.409 . S
C637 C635 1.415 . S
C638 H628 0.930 . S
C638 C636 1.419 . S
C638 C639 1.362 . S
C639 H629 0.930 . S
C639 C632 1.409 . S
C639 C638 1.362 . S
H640 C646 0.930 . S
H641 C649 0.930 . S
H642 C650 0.930 . S
H643 C651 0.930 . S
H644 C654 0.930 . S
H645 C655 0.930 . S
C646 H640 0.930 . S
C646 C647 1.355 . S
C646 C648 1.415 . S
C647 C646 1.355 . S
C647 C649 1.419 . S
C648 C646 1.415 . S
C648 C653 1.425 . S
C648 C655 1.409 . S
C649 H641 0.930 . S
C649 C647 1.419 . S
C649 C650 1.362 . S
C650 H642 0.930 . S
C650 C649 1.362 . S
C650 C653 1.409 . S
C651 H643 0.930 . S
C651 C652 1.355 . S
C651 C653 1.415 . S
C652 C651 1.355 . S
C652 C654 1.419 . S
C653 C648 1.425 . S
C653 C650 1.409 . S
C653 C651 1.415 . S
C654 H644 0.930 . S
C654 C652 1.419 . S
C654 C655 1.362 . S
C655 H645 0.930 . S
C655 C648 1.409 . S
C655 C654 1.362 . S
H656 C662 0.930 . S
H657 C665 0.930 . S
H658 C666 0.930 . S
H659 C667 0.930 . S
H660 C670 0.930 . S
H661 C671 0.930 . S
C662 H656 0.930 . S
C662 C663 1.355 . S
C662 C664 1.415 . S
C663 C662 1.355 . S
C663 C665 1.419 . S
C664 C662 1.415 . S
C664 C669 1.425 . S
C664 C671 1.409 . S
C665 H657 0.930 . S
C665 C663 1.419 . S
C665 C666 1.362 . S
C666 H658 0.930 . S
C666 C665 1.362 . S
C666 C669 1.409 . S
C667 H659 0.930 . S
C667 C668 1.355 . S
C667 C669 1.415 . S
C668 C667 1.355 . S
C668 C670 1.419 . S
C669 C664 1.425 . S
C669 C666 1.409 . S
C669 C667 1.415 . S
C670 H660 0.930 . S
C670 C668 1.419 . S
C670 C671 1.362 . S
C671 H661 0.930 . S
C671 C664 1.409 . S
C671 C670 1.362 . S
H672 C678 0.930 . S
H673 C681 0.930 . S
H674 C682 0.930 . S
H675 C683 0.930 . S
H676 C686 0.930 . S
H677 C687 0.930 . S
C678 H672 0.930 . S
C678 C679 1.355 . S
C678 C680 1.415 . S
C679 C678 1.355 . S
C679 C681 1.419 . S
C680 C678 1.415 . S
C680 C685 1.425 . S
C680 C687 1.409 . S
C681 H673 0.930 . S
C681 C679 1.419 . S
C681 C682 1.362 . S
C682 H674 0.930 . S
C682 C681 1.362 . S
C682 C685 1.409 . S
C683 H675 0.930 . S
C683 C684 1.355 . S
C683 C685 1.415 . S
C684 C683 1.355 . S
C684 C686 1.419 . S
C685 C680 1.425 . S
C685 C682 1.409 . S
C685 C683 1.415 . S
C686 H676 0.930 . S
C686 C684 1.419 . S
C686 C687 1.362 . S
C687 H677 0.930 . S
C687 C680 1.409 . S
C687 C686 1.362 . S
H688 C694 0.930 . S
H689 C697 0.930 . S
H690 C698 0.930 . S
H691 C699 0.930 . S
H692 C702 0.930 . S
H693 C703 0.930 . S
C694 H688 0.930 . S
C694 C695 1.355 . S
C694 C696 1.415 . S
C695 C694 1.355 . S
C695 C697 1.419 . S
C696 C694 1.415 . S
C696 C701 1.425 . S
C696 C703 1.409 . S
C697 H689 0.930 . S
C697 C695 1.419 . S
C697 C698 1.362 . S
C698 H690 0.930 . S
C698 C697 1.362 . S
C698 C701 1.409 . S
C699 H691 0.930 . S
C699 C700 1.355 . S
C699 C701 1.415 . S
C700 C699 1.355 . S
C700 C702 1.419 . S
C701 C696 1.425 . S
C701 C698 1.409 . S
C701 C699 1.415 . S
C702 H692 0.930 . S
C702 C700 1.419 . S
C702 C703 1.362 . S
C703 H693 0.930 . S
C703 C696 1.409 . S
C703 C702 1.362 . S
H704 C710 0.930 . S
H705 C713 0.930 . S
H706 C714 0.930 . S
H707 C715 0.930 . S
H708 C718 0.930 . S
H709 C719 0.930 . S
C710 H704 0.930 . S
C710 C711 1.355 . S
C710 C712 1.415 . S
C711 C710 1.355 . S
C711 C713 1.419 . S
C712 C710 1.415 . S
C712 C717 1.425 . S
C712 C719 1.409 . S
C713 H705 0.930 . S
C713 C711 1.419 . S
C713 C714 1.362 . S
C714 H706 0.930 . S
C714 C713 1.362 . S
C714 C717 1.409 . S
C715 H707 0.930 . S
C715 C716 1.355 . S
C715 C717 1.415 . S
C716 C715 1.355 . S
C716 C718 1.419 . S
C717 C712 1.425 . S
C717 C714 1.409 . S
C717 C715 1.415 . S
C718 H708 0.930 . S
C718 C716 1.419 . S
C718 C719 1.362 . S
C719 H709 0.930 . S
C719 C712 1.409 . S
C719 C718 1.362 . S
C279 C3 1.517 . S
C284 C49 1.608 . S
C295 C37 1.465 . S
C300 C15 1.599 . S
C311 C69 1.467 . S
C316 C117 1.599 . S
C327 C105 1.484 . S
C332 C90 1.604 . S
C343 C137 1.552 . S
C348 C192 1.617 . S
C359 C171 1.496 . S
C364 C158 1.604 . S
C375 C260 1.618 . S
C380 C207 1.553 . S
C391 C239 1.515 . S
C396 C219 1.608 . S
C407 C1 1.952 . S
C412 C139 1.952 . S
C423 C173 1.968 . S
C428 C35 1.968 . S
C439 C205 1.989 . S
C444 C71 1.989 . S
C455 C241 1.955 . S
C460 C103 1.955 . S
C471 C255 1.958 . S
C476 C22 1.693 . S
C487 C221 1.964 . S
C492 C56 1.687 . S
C503 C83 1.635 . S
C508 C187 1.940 . S
C519 C153 1.964 . S
C524 C124 1.685 . S
C535 C151 1.683 . S
C540 C119 1.955 . S
C551 C185 1.625 . S
C556 C85 1.942 . S
C567 C51 1.937 . S
C572 C226 1.620 . S
C583 C17 1.965 . S
C588 C253 1.689 . S
C599 C176 1.259 . S
C604 C6 1.250 . S
C615 C40 1.255 . S
C620 C142 1.250 . S
C631 C244 1.243 . S
C636 C96 1.261 . S
C647 C108 1.250 . S
C652 C232 1.263 . S
C663 C164 1.251 . S
C668 C62 1.258 . S
C679 C28 1.251 . S
C684 C198 1.254 . S
C695 C130 1.252 . S
C700 C210 1.257 . S
C711 C266 1.251 . S
C716 C74 1.263 . S
