# Generated by pormake.
# Topology ske, (6)-cn, num edge types: 1
# Building blocks:
#     Node 0, Type 0, BuildingBlock: GEDQOX_clean_sbu_0, # of connection points: 6
#     Node 1, Type 0, BuildingBlock: GEDQOX_clean_sbu_0, # of connection points: 6
#     Node 2, Type 0, BuildingBlock: GEDQOX_clean_sbu_0, # of connection points: 6
#     Node 3, Type 0, BuildingBlock: GEDQOX_clean_sbu_0, # of connection points: 6
#     Node 4, Type 0, BuildingBlock: GEDQOX_clean_sbu_0, # of connection points: 6
#     Node 5, Type 0, BuildingBlock: GEDQOX_clean_sbu_0, # of connection points: 6
#     Node 6, Type 0, BuildingBlock: GEDQOX_clean_sbu_0, # of connection points: 6
#     Node 7, Type 0, BuildingBlock: GEDQOX_clean_sbu_0, # of connection points: 6
#     Edge 8, Type (0, 0), BuildingBlock: XUDNAN_clean_linker_2, # of connection points: 2
#     Edge 9, Type (0, 0), BuildingBlock: XUDNAN_clean_linker_2, # of connection points: 2
#     Edge 10, Type (0, 0), BuildingBlock: XUDNAN_clean_linker_2, # of connection points: 2
#     Edge 11, Type (0, 0), BuildingBlock: XUDNAN_clean_linker_2, # of connection points: 2
#     Edge 12, Type (0, 0), BuildingBlock: XUDNAN_clean_linker_2, # of connection points: 2
#     Edge 13, Type (0, 0), BuildingBlock: XUDNAN_clean_linker_2, # of connection points: 2
#     Edge 14, Type (0, 0), BuildingBlock: XUDNAN_clean_linker_2, # of connection points: 2
#     Edge 15, Type (0, 0), BuildingBlock: XUDNAN_clean_linker_2, # of connection points: 2
#     Edge 16, Type (0, 0), BuildingBlock: XUDNAN_clean_linker_2, # of connection points: 2
#     Edge 17, Type (0, 0), BuildingBlock: XUDNAN_clean_linker_2, # of connection points: 2
#     Edge 18, Type (0, 0), BuildingBlock: XUDNAN_clean_linker_2, # of connection points: 2
#     Edge 19, Type (0, 0), BuildingBlock: XUDNAN_clean_linker_2, # of connection points: 2
#     Edge 20, Type (0, 0), BuildingBlock: XUDNAN_clean_linker_2, # of connection points: 2
#     Edge 21, Type (0, 0), BuildingBlock: XUDNAN_clean_linker_2, # of connection points: 2
#     Edge 22, Type (0, 0), BuildingBlock: XUDNAN_clean_linker_2, # of connection points: 2
#     Edge 23, Type (0, 0), BuildingBlock: XUDNAN_clean_linker_2, # of connection points: 2
#     Edge 24, Type (0, 0), BuildingBlock: XUDNAN_clean_linker_2, # of connection points: 2
#     Edge 25, Type (0, 0), BuildingBlock: XUDNAN_clean_linker_2, # of connection points: 2
#     Edge 26, Type (0, 0), BuildingBlock: XUDNAN_clean_linker_2, # of connection points: 2
#     Edge 27, Type (0, 0), BuildingBlock: XUDNAN_clean_linker_2, # of connection points: 2
#     Edge 28, Type (0, 0), BuildingBlock: XUDNAN_clean_linker_2, # of connection points: 2
#     Edge 29, Type (0, 0), BuildingBlock: XUDNAN_clean_linker_2, # of connection points: 2
#     Edge 30, Type (0, 0), BuildingBlock: XUDNAN_clean_linker_2, # of connection points: 2
#     Edge 31, Type (0, 0), BuildingBlock: XUDNAN_clean_linker_2, # of connection points: 2
# Relax obj value: 0.205
# Max RMSD: 0.234
# Mean RMSD: 0.234
data_MOF--net-ske--node1-GEDQOX_clean_sbu_0--edge1-XUDNAN_clean_linker_2
_symmetry_space_group_name_H-M    P1
_symmetry_Int_Tables_number       1
_symmetry_cell_setting            triclinic
loop_
_symmetry_equiv_pos_as_xyz
'x, y, z'
_cell_length_a     52.30595
_cell_length_b     29.11592
_cell_length_c     25.453394
_cell_angle_alpha  89.999224
_cell_angle_beta   90.097117
_cell_angle_gamma 95.869643
loop_
_atom_site_label
_atom_site_type_symbol
_atom_site_fract_x
_atom_site_fract_y
_atom_site_fract_z
_atom_type_partial_charge
Nd0 Nd 0.18067 0.26557 0.52871 0.0
Nd1 Nd 0.15352 0.24912 0.6233 0.0
C2 C 0.19722 0.29326 0.434 0.0
C3 C 0.19256 0.2818 0.37759 0.0
C4 C 0.17767 0.30881 0.34629 0.0
C5 C 0.17393 0.2992 0.29266 0.0
C6 C 0.18509 0.26244 0.26893 0.0
C7 C 0.20025 0.23589 0.30027 0.0
C8 C 0.20388 0.24534 0.35379 0.0
C9 C 0.17599 0.17159 0.55098 0.0
C10 C 0.11685 0.24418 0.52719 0.0
C11 C 0.1374 0.2339 0.72132 0.0
C12 C 0.14729 0.23789 0.77602 0.0
C13 C 0.16563 0.20979 0.7947 0.0
C14 C 0.17251 0.21058 0.84789 0.0
C15 C 0.16136 0.23958 0.88366 0.0
C16 C 0.14409 0.2695 0.86432 0.0
C17 C 0.13707 0.26849 0.81114 0.0
C18 C 0.15719 0.34047 0.5905 0.0
C19 C 0.21429 0.26505 0.63255 0.0
O20 O 0.17903 0.31149 0.45931 0.0
O21 O 0.2084 0.26401 0.46288 0.0
O22 O 0.19688 0.1961 0.53682 0.0
O23 O 0.15817 0.19786 0.55612 0.0
O24 O 0.13738 0.26554 0.50398 0.0
O25 O 0.11861 0.22647 0.5742 0.0
O26 O 0.14517 0.20182 0.69106 0.0
O27 O 0.13545 0.27237 0.6962 0.0
O28 O 0.13598 0.31647 0.60339 0.0
O29 O 0.17566 0.3159 0.59275 0.0
O30 O 0.19435 0.23731 0.64705 0.0
O31 O 0.21279 0.28933 0.58903 0.0
H32 H 0.16892 0.3375 0.36326 0.0
H33 H 0.16199 0.3202 0.27003 0.0
H34 H 0.20966 0.20795 0.28335 0.0
H35 H 0.21577 0.2242 0.37636 0.0
H36 H 0.17416 0.18622 0.76866 0.0
H37 H 0.18613 0.18752 0.86131 0.0
H38 H 0.135 0.29206 0.89069 0.0
H39 H 0.12294 0.29065 0.79779 0.0
Nd40 Nd 0.86983 0.24574 0.52153 0.0
Nd41 Nd 0.8983 0.25799 0.6271 0.0
C42 C 0.85239 0.21025 0.43146 0.0
C43 C 0.85552 0.22219 0.37496 0.0
C44 C 0.87033 0.19633 0.34237 0.0
C45 C 0.87376 0.20758 0.28919 0.0
C46 C 0.86228 0.24481 0.26718 0.0
C47 C 0.84719 0.27025 0.29979 0.0
C48 C 0.84391 0.25921 0.35297 0.0
C49 C 0.88186 0.33901 0.53394 0.0
C50 C 0.93366 0.26319 0.52781 0.0
C51 C 0.91501 0.27158 0.72461 0.0
C52 C 0.90463 0.27011 0.77862 0.0
C53 C 0.88495 0.29678 0.79378 0.0
C54 C 0.87691 0.2971 0.8462 0.0
C55 C 0.88826 0.27057 0.88431 0.0
C56 C 0.90708 0.24232 0.86845 0.0
C57 C 0.91522 0.24224 0.81619 0.0
C58 C 0.89007 0.16987 0.58633 0.0
C59 C 0.836 0.25119 0.62928 0.0
O60 O 0.87263 0.19707 0.45543 0.0
O61 O 0.83943 0.23694 0.46067 0.0
O62 O 0.86954 0.3204 0.49404 0.0
O63 O 0.88739 0.30866 0.56637 0.0
O64 O 0.91345 0.24101 0.50379 0.0
O65 O 0.93144 0.28208 0.57425 0.0
O66 O 0.9094 0.30506 0.69367 0.0
O67 O 0.91465 0.23201 0.70039 0.0
O68 O 0.91196 0.18701 0.60547 0.0
O69 O 0.87385 0.19864 0.58916 0.0
O70 O 0.85752 0.26676 0.65267 0.0
O71 O 0.8355 0.23554 0.58023 0.0
H72 H 0.87945 0.16751 0.35814 0.0
H73 H 0.88575 0.18749 0.26559 0.0
H74 H 0.8376 0.29855 0.28417 0.0
H75 H 0.83225 0.27979 0.37674 0.0
H76 H 0.87611 0.31804 0.76547 0.0
H77 H 0.86208 0.31867 0.8571 0.0
H78 H 0.91632 0.22174 0.89685 0.0
H79 H 0.93029 0.22117 0.80532 0.0
Nd80 Nd 0.15787 0.74699 0.42925 0.0
Nd81 Nd 0.18172 0.766 0.52882 0.0
C82 C 0.14357 0.72005 0.33323 0.0
C83 C 0.14966 0.73303 0.27859 0.0
C84 C 0.14271 0.70132 0.23843 0.0
C85 C 0.14771 0.71312 0.18599 0.0
C86 C 0.15976 0.75699 0.1728 0.0
C87 C 0.1674 0.78827 0.21347 0.0
C88 C 0.16242 0.77636 0.26599 0.0
C89 C 0.1633 0.84077 0.45513 0.0
C90 C 0.21871 0.76141 0.42925 0.0
C91 C 0.19582 0.79565 0.62411 0.0
C92 C 0.18808 0.78977 0.67984 0.0
C93 C 0.16673 0.80988 0.69953 0.0
C94 C 0.16127 0.80854 0.75323 0.0
C95 C 0.17711 0.78743 0.78867 0.0
C96 C 0.19786 0.7657 0.76866 0.0
C97 C 0.2033 0.76696 0.71483 0.0
C98 C 0.1761 0.67243 0.5075 0.0
C99 C 0.11883 0.74673 0.51945 0.0
O100 O 0.16174 0.70269 0.35954 0.0
O101 O 0.1316 0.74893 0.361 0.0
O102 O 0.14355 0.81964 0.43187 0.0
O103 O 0.18042 0.81372 0.46056 0.0
O104 O 0.19915 0.7338 0.41255 0.0
O105 O 0.216 0.78638 0.47196 0.0
O106 O 0.1809 0.8168 0.59317 0.0
O107 O 0.20539 0.76123 0.60099 0.0
O108 O 0.19654 0.6943 0.5278 0.0
O109 O 0.1592 0.69969 0.49943 0.0
O110 O 0.13776 0.77404 0.54104 0.0
O111 O 0.12452 0.71994 0.48077 0.0
H112 H 0.13304 0.66758 0.24762 0.0
H113 H 0.14136 0.68839 0.15571 0.0
H114 H 0.17709 0.82206 0.20465 0.0
H115 H 0.16829 0.80105 0.29667 0.0
H116 H 0.15454 0.8277 0.67373 0.0
H117 H 0.14482 0.8248 0.76707 0.0
H118 H 0.2106 0.74943 0.79476 0.0
H119 H 0.21994 0.75136 0.70081 0.0
Nd120 Nd 0.88916 0.75788 0.42314 0.0
Nd121 Nd 0.8713 0.75246 0.52603 0.0
C122 C 0.90113 0.77845 0.32488 0.0
C123 C 0.89135 0.77078 0.27113 0.0
C124 C 0.87595 0.80233 0.24855 0.0
C125 C 0.87098 0.8011 0.19489 0.0
C126 C 0.8813 0.76834 0.16311 0.0
C127 C 0.89478 0.73428 0.1861 0.0
C128 C 0.89993 0.73565 0.23989 0.0
C129 C 0.88846 0.6696 0.46351 0.0
C130 C 0.82967 0.74896 0.42743 0.0
C131 C 0.84996 0.73271 0.61863 0.0
C132 C 0.85599 0.74208 0.67426 0.0
C133 C 0.86479 0.70709 0.70537 0.0
C134 C 0.87114 0.71528 0.75789 0.0
C135 C 0.86849 0.7585 0.78049 0.0
C136 C 0.8594 0.79338 0.7495 0.0
C137 C 0.85327 0.78532 0.69678 0.0
C138 C 0.88632 0.84305 0.50415 0.0
C139 C 0.93234 0.76781 0.50537 0.0
O140 O 0.8886 0.80451 0.35525 0.0
O141 O 0.90953 0.74365 0.34961 0.0
O142 O 0.90778 0.69015 0.43789 0.0
O143 O 0.87065 0.69538 0.46781 0.0
O144 O 0.84851 0.73713 0.39892 0.0
O145 O 0.83368 0.76078 0.47731 0.0
O146 O 0.86506 0.70675 0.59464 0.0
O147 O 0.84405 0.76691 0.58941 0.0
O148 O 0.89338 0.82151 0.54549 0.0
O149 O 0.8737 0.81487 0.47316 0.0
O150 O 0.91545 0.74247 0.5348 0.0
O151 O 0.92356 0.79039 0.46627 0.0
H152 H 0.86897 0.8297 0.27163 0.0
H153 H 0.86034 0.82741 0.1777 0.0
H154 H 0.90296 0.70883 0.162 0.0
H155 H 0.91184 0.71089 0.25632 0.0
H156 H 0.86695 0.67337 0.68893 0.0
H157 H 0.87834 0.68789 0.7806 0.0
H158 H 0.85668 0.82677 0.76614 0.0
H159 H 0.84639 0.8129 0.67385 0.0
Nd160 Nd 0.68099 0.76098 0.02491 0.0
Nd161 Nd 0.65322 0.75421 0.1239 0.0
C162 C 0.69946 0.77756 0.92898 0.0
C163 C 0.69165 0.77632 0.87299 0.0
C164 C 0.68203 0.81482 0.8497 0.0
C165 C 0.67819 0.81642 0.79546 0.0
C166 C 0.68393 0.77965 0.76325 0.0
C167 C 0.69224 0.7401 0.78671 0.0
C168 C 0.69621 0.73856 0.84105 0.0
C169 C 0.67271 0.67138 0.06064 0.0
C170 C 0.61719 0.74902 0.02626 0.0
C171 C 0.63709 0.73728 0.22109 0.0
C172 C 0.64695 0.74686 0.27496 0.0
C173 C 0.65575 0.71119 0.30512 0.0
C174 C 0.66424 0.71936 0.35673 0.0
C175 C 0.66404 0.76337 0.3793 0.0
C176 C 0.65553 0.79915 0.34883 0.0
C177 C 0.64711 0.79104 0.29727 0.0
C178 C 0.66045 0.84309 0.08463 0.0
C179 C 0.71516 0.76411 0.12979 0.0
O180 O 0.691 0.80907 0.95898 0.0
O181 O 0.70031 0.73825 0.95322 0.0
O182 O 0.6946 0.6903 0.0434 0.0
O183 O 0.6562 0.70027 0.06068 0.0
O184 O 0.63796 0.76746 1.00105 0.0
O185 O 0.61923 0.73101 0.0731 0.0
O186 O 0.64879 0.70807 0.19325 0.0
O187 O 0.63082 0.77223 0.19336 0.0
O188 O 0.6395 0.82554 0.10695 0.0
O189 O 0.67739 0.81514 0.08577 0.0
O190 O 0.69386 0.74461 0.15037 0.0
O191 O 0.71521 0.78122 0.08167 0.0
H192 H 0.67834 0.84453 0.87305 0.0
H193 H 0.67144 0.8471 0.77846 0.0
H194 H 0.69697 0.71139 0.7628 0.0
H195 H 0.7038 0.70853 0.85772 0.0
H196 H 0.65587 0.6768 0.28894 0.0
H197 H 0.67097 0.6912 0.37891 0.0
H198 H 0.65475 0.8333 0.36524 0.0
H199 H 0.64042 0.81932 0.27526 0.0
Nd200 Nd 0.36833 0.74749 0.02581 0.0
Nd201 Nd 0.39501 0.7554 0.12751 0.0
C202 C 0.35164 0.71202 0.9349 0.0
C203 C 0.35524 0.7237 0.8784 0.0
C204 C 0.36874 0.69562 0.84577 0.0
C205 C 0.3725 0.7063 0.79249 0.0
C206 C 0.36269 0.74524 0.77041 0.0
C207 C 0.34896 0.77302 0.80313 0.0
C208 C 0.34537 0.76253 0.85641 0.0
C209 C 0.37873 0.84048 0.03662 0.0
C210 C 0.43212 0.76706 0.03217 0.0
C211 C 0.41211 0.76083 0.22573 0.0
C212 C 0.40255 0.76201 0.2802 0.0
C213 C 0.38465 0.79213 0.29584 0.0
C214 C 0.37736 0.79429 0.34865 0.0
C215 C 0.3877 0.76619 0.38661 0.0
C216 C 0.40478 0.73479 0.37027 0.0
C217 C 0.41216 0.73285 0.31765 0.0
C218 C 0.3866 0.66825 0.08461 0.0
C219 C 0.33364 0.76034 0.12993 0.0
O220 O 0.37163 0.69885 0.95967 0.0
O221 O 0.33855 0.73881 0.96354 0.0
O222 O 0.36687 0.81977 0.99746 0.0
O223 O 0.38533 0.8124 0.07141 0.0
O224 O 0.41226 0.74644 1.00572 0.0
O225 O 0.42891 0.78279 0.07957 0.0
O226 O 0.41033 0.79693 0.19592 0.0
O227 O 0.40702 0.72202 0.20054 0.0
O228 O 0.40921 0.68682 0.09823 0.0
O229 O 0.3702 0.69648 0.08996 0.0
O230 O 0.35556 0.77003 0.15428 0.0
O231 O 0.3325 0.74583 0.08052 0.0
H232 H 0.37655 0.66544 0.86159 0.0
H233 H 0.38344 0.68438 0.76886 0.0
H234 H 0.34067 0.80276 0.78752 0.0
H235 H 0.33481 0.78491 0.88024 0.0
H236 H 0.37662 0.81449 0.26756 0.0
H237 H 0.36386 0.81834 0.35991 0.0
H238 H 0.41326 0.71296 0.39849 0.0
H239 H 0.42588 0.70918 0.30635 0.0
Nd240 Nd 0.6564 0.25727 0.92085 0.0
Nd241 Nd 0.68232 0.27159 0.0264 0.0
C242 C 0.64035 0.23764 0.82417 0.0
C243 C 0.64982 0.24287 0.7696 0.0
C244 C 0.66852 0.21587 0.75024 0.0
C245 C 0.675 0.21731 0.69703 0.0
C246 C 0.66301 0.24583 0.66218 0.0
C247 C 0.64541 0.27476 0.68204 0.0
C248 C 0.63879 0.27309 0.73523 0.0
C249 C 0.65647 0.34444 0.9623 0.0
C250 C 0.71881 0.27063 0.92132 0.0
C251 C 0.69793 0.31012 0.11626 0.0
C252 C 0.69434 0.29845 0.17252 0.0
C253 C 0.68089 0.32667 0.20499 0.0
C254 C 0.67639 0.31523 0.25779 0.0
C255 C 0.68541 0.27541 0.27935 0.0
C256 C 0.69924 0.24764 0.24687 0.0
C257 C 0.70353 0.25884 0.19406 0.0
C258 C 0.67346 0.17734 1.01589 0.0
C259 C 0.61963 0.24539 1.01805 0.0
O260 O 0.65065 0.20821 0.85451 0.0
O261 O 0.63578 0.27531 0.84877 0.0
O262 O 0.63665 0.3216 0.94058 0.0
O263 O 0.67564 0.32117 0.96181 0.0
O264 O 0.69766 0.26484 0.89351 0.0
O265 O 0.71867 0.27471 0.9732 0.0
O266 O 0.67746 0.32068 0.09119 0.0
O267 O 0.71203 0.28456 0.08826 0.0
O268 O 0.68385 0.19835 0.05654 0.0
O269 O 0.66731 0.20602 0.98165 0.0
O270 O 0.63844 0.2693 0.04422 0.0
O271 O 0.62396 0.22698 0.97225 0.0
H272 H 0.6776 0.19254 0.77574 0.0
H273 H 0.6889 0.19512 0.6828 0.0
H274 H 0.63577 0.29688 0.65601 0.0
H275 H 0.62434 0.2943 0.74913 0.0
H276 H 0.67355 0.35734 0.1893 0.0
H277 H 0.66542 0.33715 0.28136 0.0
H278 H 0.70695 0.21724 0.26227 0.0
H279 H 0.71395 0.23628 0.17017 0.0
Nd280 Nd 0.39591 0.26099 0.91807 0.0
Nd281 Nd 0.37186 0.257 0.03185 0.0
C282 C 0.41419 0.28913 0.82604 0.0
C283 C 0.40553 0.28509 0.77114 0.0
C284 C 0.4044 0.32555 0.74193 0.0
C285 C 0.39553 0.32338 0.69033 0.0
C286 C 0.38764 0.2806 0.66682 0.0
C287 C 0.38891 0.23988 0.69591 0.0
C288 C 0.39766 0.24209 0.74791 0.0
C289 C 0.3878 0.17052 0.95461 0.0
C290 C 0.33439 0.254 0.92342 0.0
C291 C 0.34886 0.23629 0.12187 0.0
C292 C 0.35536 0.24319 0.17775 0.0
C293 C 0.35074 0.20621 0.21293 0.0
C294 C 0.3551 0.21298 0.26668 0.0
C295 C 0.36391 0.25698 0.28587 0.0
C296 C 0.36968 0.29344 0.25036 0.0
C297 C 0.3656 0.28657 0.19666 0.0
C298 C 0.38929 0.34451 0.99911 0.0
C299 C 0.43402 0.26285 1.01867 0.0
O300 O 0.40109 0.31445 0.85636 0.0
O301 O 0.42055 0.25173 0.84912 0.0
O302 O 0.3968 0.18061 0.90809 0.0
O303 O 0.38303 0.20715 0.97587 0.0
O304 O 0.35456 0.25335 0.893 0.0
O305 O 0.33586 0.25546 0.97578 0.0
O306 O 0.36174 0.20717 0.09627 0.0
O307 O 0.34526 0.27333 0.09471 0.0
O308 O 0.39313 0.32803 0.04568 0.0
O309 O 0.37767 0.31296 0.97081 0.0
O310 O 0.41449 0.24792 0.04944 0.0
O311 O 0.43066 0.27828 0.97069 0.0
H312 H 0.41031 0.35899 0.75919 0.0
H313 H 0.39515 0.35528 0.6686 0.0
H314 H 0.38279 0.2065 0.67876 0.0
H315 H 0.39808 0.21032 0.76988 0.0
H316 H 0.3431 0.17241 0.19896 0.0
H317 H 0.35044 0.18443 0.29344 0.0
H318 H 0.37676 0.32755 0.26436 0.0
H319 H 0.36984 0.31549 0.1702 0.0
H320 H 0.2335 0.2002 0.69363 0.0
H321 H 0.24192 0.34689 0.6603 0.0
H322 H 0.26987 0.36027 0.73898 0.0
H323 H 0.23099 0.20765 0.8322 0.0
H324 H 0.24919 0.15933 0.84372 0.0
H325 H 0.23047 0.16184 0.78445 0.0
H326 H 0.27135 0.1543 0.72801 0.0
H327 H 0.28985 0.15088 0.78734 0.0
H328 H 0.29958 0.1942 0.73874 0.0
H329 H 0.2936 0.35746 0.82663 0.0
H330 H 0.32021 0.33788 0.90219 0.0
H331 H 0.29897 0.1924 0.87395 0.0
C332 C 0.24176 0.23505 0.70218 0.0
C333 C 0.23575 0.27254 0.67068 0.0
C334 C 0.24667 0.31765 0.68335 0.0
C335 C 0.2622 0.32556 0.72843 0.0
C336 C 0.26685 0.28791 0.75992 0.0
C337 C 0.25761 0.2434 0.74628 0.0
C338 C 0.26609 0.20864 0.78536 0.0
C339 C 0.24279 0.18279 0.81303 0.0
C340 C 0.28271 0.17502 0.75826 0.0
C341 C 0.28172 0.24037 0.82331 0.0
C342 C 0.28129 0.2861 0.80876 0.0
C343 C 0.29405 0.32178 0.83818 0.0
C344 C 0.30872 0.31037 0.8817 0.0
C345 C 0.31094 0.26372 0.89502 0.0
C346 C 0.29682 0.22834 0.86596 0.0
H347 H 0.74149 0.33024 0.84852 0.0
H348 H 0.74639 0.19714 0.92146 0.0
H349 H 0.77399 0.17512 0.84863 0.0
H350 H 0.73753 0.2944 0.71957 0.0
H351 H 0.75775 0.34197 0.69153 0.0
H352 H 0.74058 0.34993 0.75159 0.0
H353 H 0.78307 0.37787 0.80018 0.0
H354 H 0.80021 0.37216 0.73958 0.0
H355 H 0.80956 0.34285 0.79783 0.0
H356 H 0.79576 0.1639 0.76134 0.0
H357 H 0.82048 0.1715 0.67845 0.0
H358 H 0.80468 0.31412 0.66546 0.0
C359 C 0.74953 0.29744 0.85044 0.0
C360 C 0.74251 0.26585 0.89142 0.0
C361 C 0.75236 0.2224 0.89149 0.0
C362 C 0.76761 0.20931 0.84971 0.0
C363 C 0.77315 0.2404 0.80855 0.0
C364 C 0.76531 0.28429 0.80966 0.0
C365 C 0.77415 0.31126 0.76078 0.0
C366 C 0.75113 0.32522 0.72902 0.0
C367 C 0.79286 0.35354 0.77546 0.0
C368 C 0.78776 0.27548 0.73151 0.0
C369 C 0.78646 0.23449 0.75925 0.0
C370 C 0.79707 0.19597 0.73958 0.0
C371 C 0.81064 0.2003 0.69193 0.0
C372 C 0.81377 0.24289 0.66477 0.0
C373 C 0.8018 0.2807 0.68445 0.0
H374 H 0.3001 0.69664 0.18053 0.0
H375 H 0.31924 0.84316 0.15588 0.0
H376 H 0.29387 0.86001 0.23405 0.0
H377 H 0.23297 0.70589 0.23147 0.0
H378 H 0.23553 0.65952 0.27746 0.0
H379 H 0.25244 0.6601 0.21582 0.0
H380 H 0.29492 0.65417 0.2672 0.0
H381 H 0.27832 0.65563 0.329 0.0
H382 H 0.3052 0.69769 0.31529 0.0
H383 H 0.27116 0.86046 0.32221 0.0
H384 H 0.24474 0.84471 0.40234 0.0
H385 H 0.23938 0.69824 0.3682 0.0
C386 C 0.29765 0.73221 0.18989 0.0
C387 C 0.31081 0.76872 0.16101 0.0
C388 C 0.30846 0.81484 0.17633 0.0
C389 C 0.29447 0.8247 0.22125 0.0
C390 C 0.28275 0.78798 0.25049 0.0
C391 C 0.28346 0.74267 0.23451 0.0
C392 C 0.26972 0.70962 0.27374 0.0
C393 C 0.24627 0.68216 0.2481 0.0
C394 C 0.28815 0.67737 0.2977 0.0
C395 C 0.26159 0.74328 0.31446 0.0
C396 C 0.26955 0.78832 0.30079 0.0
C397 C 0.26463 0.82528 0.33305 0.0
C398 C 0.25001 0.81603 0.37902 0.0
C399 C 0.24035 0.77028 0.39192 0.0
C400 C 0.24683 0.73355 0.35973 0.0
H401 H 0.73124 0.69924 0.19422 0.0
H402 H 0.74754 0.84276 0.14969 0.0
H403 H 0.77549 0.85623 0.22846 0.0
H404 H 0.72657 0.71626 0.32921 0.0
H405 H 0.74175 0.66592 0.34816 0.0
H406 H 0.72491 0.66673 0.28643 0.0
H407 H 0.76574 0.64873 0.23554 0.0
H408 H 0.78237 0.64578 0.29724 0.0
H409 H 0.79558 0.68426 0.24642 0.0
H410 H 0.79786 0.85467 0.3184 0.0
H411 H 0.82131 0.83492 0.39846 0.0
H412 H 0.79174 0.69148 0.3807 0.0
C413 C 0.74141 0.73318 0.2001 0.0
C414 C 0.73758 0.76986 0.16554 0.0
C415 C 0.75074 0.81398 0.17499 0.0
C416 C 0.76625 0.82203 0.22015 0.0
C417 C 0.76847 0.78547 0.255 0.0
C418 C 0.75703 0.74159 0.24442 0.0
C419 C 0.76246 0.7079 0.28738 0.0
C420 C 0.73744 0.68803 0.31437 0.0
C421 C 0.77744 0.6694 0.26535 0.0
C422 C 0.77885 0.73946 0.32416 0.0
C423 C 0.78161 0.78434 0.3055 0.0
C424 C 0.79578 0.81964 0.33318 0.0
C425 C 0.8086 0.80829 0.37931 0.0
C426 C 0.80757 0.76197 0.39687 0.0
C427 C 0.79202 0.72741 0.36944 0.0
H428 H 0.16176 0.89257 0.54591 0.0
H429 H 0.17233 0.90371 0.37746 0.0
H430 H 0.17517 0.98891 0.38424 0.0
H431 H 0.1219 0.98631 0.55749 0.0
H432 H 0.13508 1.00693 0.61961 0.0
H433 H 0.13479 0.94679 0.60255 0.0
H434 H 0.18402 0.95139 0.617 0.0
H435 H 0.1844 0.01139 0.63466 0.0
H436 H 0.20473 0.99456 0.58243 0.0
H437 H 0.17613 0.07218 0.40834 0.0
H438 H 0.17733 0.14945 0.4486 0.0
H439 H 0.16577 0.08707 0.6025 0.0
C440 C 0.16512 0.91315 0.51071 0.0
C441 C 0.16728 0.89173 0.46106 0.0
C442 C 0.17095 0.91956 0.41572 0.0
C443 C 0.17247 0.96792 0.41926 0.0
C444 C 0.16999 0.98812 0.4685 0.0
C445 C 0.1665 0.96178 0.51356 0.0
C446 C 0.16398 0.99262 0.56135 0.0
C447 C 0.13735 0.98254 0.58676 0.0
C448 C 0.18557 0.98715 0.60122 0.0
C449 C 0.16697 0.04034 0.53618 0.0
C450 C 0.17021 0.03662 0.48247 0.0
C451 C 0.17353 0.07545 0.4503 0.0
C452 C 0.17407 0.11923 0.47351 0.0
C453 C 0.17133 0.1243 0.52849 0.0
C454 C 0.16747 0.08421 0.56026 0.0
H455 H 0.90181 0.3988 0.45995 0.0
H456 H 0.87164 0.39199 0.61844 0.0
H457 H 0.87089 0.47717 0.61839 0.0
H458 H 0.94371 0.50874 0.47769 0.0
H459 H 0.93783 0.52756 0.41168 0.0
H460 H 0.93729 0.46683 0.42593 0.0
H461 H 0.89137 0.45305 0.3865 0.0
H462 H 0.89158 0.51378 0.37295 0.0
H463 H 0.86632 0.48468 0.41242 0.0
H464 H 0.86487 0.55924 0.59233 0.0
H465 H 0.86444 0.63598 0.55262 0.0
H466 H 0.90686 0.59356 0.4187 0.0
C467 C 0.89588 0.41557 0.49525 0.0
C468 C 0.88704 0.38934 0.5395 0.0
C469 C 0.87892 0.41187 0.5847 0.0
C470 C 0.8782 0.46003 0.58469 0.0
C471 C 0.88634 0.48484 0.5397 0.0
C472 C 0.89587 0.46359 0.4965 0.0
C473 C 0.90337 0.49808 0.45311 0.0
C474 C 0.93227 0.50044 0.44143 0.0
C475 C 0.8872 0.4867 0.40331 0.0
C476 C 0.89643 0.54217 0.47841 0.0
C477 C 0.88587 0.53341 0.52764 0.0
C478 C 0.87439 0.56703 0.55519 0.0
C479 C 0.87447 0.61092 0.53259 0.0
C480 C 0.88717 0.62193 0.48453 0.0
C481 C 0.89812 0.5868 0.45683 0.0
H482 H 0.90457 0.92453 0.45473 0.0
H483 H 0.85256 0.86674 0.57557 0.0
H484 H 0.84483 0.94496 0.604 0.0
H485 H 0.9349 0.01404 0.52463 0.0
H486 H 0.93639 0.05747 0.47391 0.0
H487 H 0.9347 0.99742 0.45633 0.0
H488 H 0.89415 1.00564 0.39992 0.0
H489 H 0.89582 0.06604 0.41696 0.0
H490 H 0.86684 0.02865 0.42926 0.0
H491 H 0.84585 0.02774 0.62561 0.0
H492 H 0.85609 0.11169 0.63962 0.0
H493 H 0.90872 0.11788 0.50793 0.0
C494 C 0.89094 0.92867 0.48592 0.0
C495 C 0.87888 0.88989 0.51269 0.0
C496 C 0.86166 0.89621 0.55427 0.0
C497 C 0.85714 0.94045 0.57066 0.0
C498 C 0.86979 0.97818 0.54469 0.0
C499 C 0.88608 0.973 0.50277 0.0
C500 C 0.89833 0.01975 0.4842 0.0
C501 C 0.92783 0.02228 0.48487 0.0
C502 C 0.88819 0.03067 0.42932 0.0
C503 C 0.88827 0.05118 0.52529 0.0
C504 C 0.87103 0.02654 0.55842 0.0
C505 C 0.85914 0.04754 0.59968 0.0
C506 C 0.8651 0.09504 0.60748 0.0
C507 C 0.88331 0.12061 0.57522 0.0
C508 C 0.89492 0.09862 0.53336 0.0
H509 H 0.20399 0.60994 0.55691 0.0
H510 H 0.13568 0.61972 0.46243 0.0
H511 H 0.12523 0.53504 0.46876 0.0
H512 H 0.22075 0.4998 0.50637 0.0
H513 H 0.23066 0.48007 0.56966 0.0
H514 H 0.23355 0.54094 0.55504 0.0
H515 H 0.20647 0.55564 0.63718 0.0
H516 H 0.20344 0.49488 0.65217 0.0
H517 H 0.17506 0.52461 0.64477 0.0
H518 H 0.12043 0.45066 0.49092 0.0
H519 H 0.12186 0.37179 0.52574 0.0
H520 H 0.19396 0.41501 0.60417 0.0
C521 C 0.18703 0.59415 0.53692 0.0
C522 C 0.17067 0.62139 0.5089 0.0
C523 C 0.14845 0.59953 0.48404 0.0
C524 C 0.14241 0.55146 0.48737 0.0
C525 C 0.15874 0.52567 0.51587 0.0
C526 C 0.18062 0.54619 0.54019 0.0
C527 C 0.1942 0.51084 0.57061 0.0
C528 C 0.2214 0.50772 0.54911 0.0
C529 C 0.19482 0.52217 0.62968 0.0
C530 C 0.17665 0.46706 0.55931 0.0
C531 C 0.15622 0.47663 0.52791 0.0
C532 C 0.13648 0.44269 0.51496 0.0
C533 C 0.13743 0.39803 0.53502 0.0
C534 C 0.15812 0.38726 0.56713 0.0
C535 C 0.1782 0.42212 0.5788 0.0
H536 H 0.70523 0.6037 0.04827 0.0
H537 H 0.6248 0.62461 0.06718 0.0
H538 H 0.61278 0.54146 0.0519 0.0
H539 H 0.69834 0.52577 0.94555 0.0
H540 H 0.72192 0.48902 0.96767 0.0
H541 H 0.7247 0.54885 0.98663 0.0
H542 H 0.72539 0.52568 0.08467 0.0
H543 H 0.72284 0.46558 0.06617 0.0
H544 H 0.69978 0.4861 0.1107 0.0
H545 H 0.60898 0.45938 0.02429 0.0
H546 H 0.61333 0.38172 0.9898 0.0
H547 H 0.69638 0.41095 0.99033 0.0
C548 C 0.68513 0.59053 0.05037 0.0
C549 C 0.66591 0.62066 0.05902 0.0
C550 C 0.63983 0.60222 0.06096 0.0
C551 C 0.63283 0.55501 0.05228 0.0
C552 C 0.65215 0.52648 0.04246 0.0
C553 C 0.67781 0.54328 0.04221 0.0
C554 C 0.6946 0.50534 0.02834 0.0
C555 C 0.71084 0.51802 0.97911 0.0
C556 C 0.71167 0.49506 0.07526 0.0
C557 C 0.67426 0.46521 1.01792 0.0
C558 C 0.64996 0.47827 0.02716 0.0
C559 C 0.6279 0.44855 1.01769 0.0
C560 C 0.6306 0.4045 0.99781 0.0
C561 C 0.65517 0.39019 0.98736 0.0
C562 C 0.67736 0.42076 0.99846 0.0
H563 H 0.36646 0.89773 0.95983 0.0
H564 H 0.399 0.89895 0.11675 0.0
H565 H 0.40311 0.98509 0.11546 0.0
H566 H 0.40597 0.99077 0.90773 0.0
H567 H 0.38073 0.01181 0.86898 0.0
H568 H 0.37946 0.95139 0.88468 0.0
H569 H 0.33436 0.95417 0.92603 0.0
H570 H 0.33545 0.01474 0.91063 0.0
H571 H 0.33005 0.99535 0.97731 0.0
H572 H 0.40235 0.07273 0.09501 0.0
H573 H 0.4011 0.15048 0.05546 0.0
H574 H 0.37159 0.08771 0.91052 0.0
C575 C 0.37448 0.9158 0.99424 0.0
C576 C 0.38243 0.89161 0.03849 0.0
C577 C 0.39282 0.91685 0.08243 0.0
C578 C 0.39508 0.96567 0.08201 0.0
C579 C 0.38685 0.9883 0.03742 0.0
C580 C 0.37689 0.96381 0.99434 0.0
C581 C 0.3699 0.99516 0.95042 0.0
C582 C 0.38493 0.98678 0.9 0.0
C583 C 0.34071 0.98951 0.94053 0.0
C584 C 0.3784 0.04163 0.97427 0.0
C585 C 0.38744 0.03734 0.02504 0.0
C586 C 0.39546 0.07619 0.05524 0.0
C587 C 0.39458 0.12016 0.03259 0.0
C588 C 0.38641 0.12474 0.97992 0.0
C589 C 0.37814 0.08498 0.95069 0.0
H590 H 0.41659 0.42564 0.9667 0.0
H591 H 0.3446 0.36866 0.03563 0.0
H592 H 0.33403 0.44709 0.05736 0.0
H593 H 0.43433 0.50955 0.05282 0.0
H594 H 0.44552 0.55506 1.00784 0.0
H595 H 0.44549 0.49578 0.98821 0.0
H596 H 0.41754 0.51025 0.90694 0.0
H597 H 0.41782 0.57004 0.92585 0.0
H598 H 0.38772 0.53525 0.91566 0.0
H599 H 0.33379 0.52967 0.08204 0.0
H600 H 0.34346 0.6119 0.10608 0.0
H601 H 0.41593 0.61663 1.02295 0.0
C602 C 0.39818 0.43011 0.9843 0.0
C603 C 0.38115 0.39145 0.99871 0.0
C604 C 0.35754 0.39811 1.02324 0.0
C605 C 0.35143 0.44248 0.03588 0.0
C606 C 0.36889 0.48 1.02269 0.0
C607 C 0.39151 0.47453 0.99633 0.0
C608 C 0.40737 0.52079 0.98921 0.0
C609 C 0.43479 0.52021 1.01088 0.0
C610 C 0.40765 0.53492 0.93097 0.0
C611 C 0.3917 0.55182 1.0212 0.0
C612 C 0.369 0.52794 0.03805 0.0
C613 C 0.35133 0.5489 0.06846 0.0
C614 C 0.357 0.59549 0.08206 0.0
C615 C 0.38049 0.62017 0.06675 0.0
C616 C 0.39797 0.59818 0.03558 0.0
H617 H 0.6725 0.11794 0.09778 0.0
H618 H 0.66557 0.1211 0.92816 0.0
H619 H 0.6627 0.0352 0.92636 0.0
H620 H 0.71101 0.02528 0.10782 0.0
H621 H 0.69522 1.00105 0.16589 0.0
H622 H 0.69624 0.06206 0.15322 0.0
H623 H 0.64652 0.05721 0.15863 0.0
H624 H 0.64531 0.99627 0.17197 0.0
H625 H 0.62738 0.0165 0.11763 0.0
H626 H 0.66211 0.94767 0.94482 0.0
H627 H 0.66005 0.86843 0.98137 0.0
H628 H 0.66653 0.92434 0.13885 0.0
C629 C 0.67023 0.10064 0.06013 0.0
C630 C 0.66934 0.12616 1.013 0.0
C631 C 0.66618 0.10218 0.9647 0.0
C632 C 0.66468 0.05346 0.9634 0.0
C633 C 0.66605 0.02939 1.01081 0.0
C634 C 0.66838 0.0524 0.05829 0.0
C635 C 0.6689 0.01914 0.10398 0.0
C636 C 0.69436 0.02739 0.13452 0.0
C637 C 0.64565 0.02248 0.14019 0.0
C638 C 0.66688 0.97349 0.07511 0.0
C639 C 0.66539 0.97996 1.02134 0.0
C640 C 0.66339 0.94249 0.98681 0.0
C641 C 0.66259 0.89759 1.00782 0.0
C642 C 0.66389 0.89044 0.06273 0.0
C643 C 0.66595 0.92894 0.09665 0.0
H644 H 0.1818 0.3221 0.18429 0.0
H645 H 0.178 0.17649 0.22449 0.0
H646 H 0.17292 0.15623 0.1311 0.0
H647 H 0.13329 0.30765 0.08084 0.0
H648 H 0.14933 0.35186 0.03953 0.0
H649 H 0.15299 0.35548 0.10986 0.0
H650 H 0.20249 0.36067 0.09927 0.0
H651 H 0.19897 0.35662 0.02894 0.0
H652 H 0.21659 0.31603 0.06371 0.0
H653 H 0.16902 0.15078 0.03444 0.0
H654 H 0.16363 0.16013 0.93924 0.0
H655 H 0.16852 0.30898 0.95904 0.0
C656 C 0.17966 0.28593 0.17358 0.0
C657 C 0.18075 0.25094 0.21214 0.0
C658 C 0.17796 0.20407 0.19599 0.0
C659 C 0.17487 0.19212 0.14292 0.0
C660 C 0.17433 0.22729 0.10608 0.0
C661 C 0.17636 0.27323 0.12051 0.0
C662 C 0.17475 0.30396 0.07255 0.0
C663 C 0.15119 0.33136 0.07591 0.0
C664 C 0.19969 0.33623 0.06572 0.0
C665 C 0.17159 0.26799 0.02911 0.0
C666 C 0.17155 0.22407 0.0496 0.0
C667 C 0.16904 0.18499 1.01783 0.0
C668 C 0.16621 0.19074 0.96362 0.0
C669 C 0.16586 0.23527 0.94129 0.0
C670 C 0.16862 0.27444 0.97476 0.0
H671 H 0.8656 0.18679 0.18179 0.0
H672 H 0.86816 0.33175 0.22428 0.0
H673 H 0.8728 0.35317 0.13101 0.0
H674 H 0.914 0.20337 0.0802 0.0
H675 H 0.89845 0.15902 0.0383 0.0
H676 H 0.89456 0.15495 0.10851 0.0
H677 H 0.84502 0.14854 0.09664 0.0
H678 H 0.8488 0.1532 0.02643 0.0
H679 H 0.83071 0.19304 0.06114 0.0
H680 H 0.87671 0.35931 0.03347 0.0
H681 H 0.8833 0.35008 0.9383 0.0
H682 H 0.88005 0.20156 0.95861 0.0
C683 C 0.86736 0.22309 0.1717 0.0
C684 C 0.8661 0.25749 0.21072 0.0
C685 C 0.86835 0.30456 0.19532 0.0
C686 C 0.87116 0.31717 0.14236 0.0
C687 C 0.87194 0.28242 0.10504 0.0
C688 C 0.87041 0.23639 0.11896 0.0
C689 C 0.87248 0.20603 0.07104 0.0
C690 C 0.89629 0.17926 0.07475 0.0
C691 C 0.84778 0.17326 0.06337 0.0
C692 C 0.87551 0.24226 0.02812 0.0
C693 C 0.87488 0.28605 0.04863 0.0
C694 C 0.87723 0.3252 1.0169 0.0
C695 C 0.88077 0.31956 0.96282 0.0
C696 C 0.88212 0.27514 0.94094 0.0
C697 C 0.87923 0.23599 0.97419 0.0
H698 H 0.17452 0.70522 0.08937 0.0
H699 H 0.15138 0.83994 0.12931 0.0
H700 H 0.15377 0.86215 0.0359 0.0
H701 H 0.21895 0.74506 0.98483 0.0
H702 H 0.21054 0.695 0.94434 0.0
H703 H 0.20825 0.69038 1.01482 0.0
H704 H 0.16039 0.65757 1.00603 0.0
H705 H 0.16247 0.66252 0.93559 0.0
H706 H 0.13843 0.69028 0.97081 0.0
H707 H 0.1571 0.86908 0.93865 0.0
H708 H 0.16295 0.86171 0.84328 0.0
H709 H 0.18252 0.72147 0.86508 0.0
C710 C 0.17 0.73942 0.07848 0.0
C711 C 0.16286 0.77093 0.11681 0.0
C712 C 0.15731 0.81549 0.1009 0.0
C713 C 0.15842 0.82832 0.04786 0.0
C714 C 0.16517 0.79628 1.01113 0.0
C715 C 0.17105 0.75288 0.02563 0.0
C716 C 0.17751 0.72496 0.97805 0.0
C717 C 0.20548 0.71315 0.98068 0.0
C718 C 0.15857 0.68124 0.97229 0.0
C719 C 0.17396 0.75927 0.93453 0.0
C720 C 0.16691 0.80019 0.95461 0.0
C721 C 0.16256 0.83717 0.92238 0.0
C722 C 0.1657 0.83243 0.86811 0.0
C723 C 0.17299 0.79087 0.84634 0.0
C724 C 0.17711 0.75381 0.88031 0.0
H725 H 0.85826 0.69916 0.86324 0.0
H726 H 0.89282 0.83699 0.82413 0.0
H727 H 0.90034 0.85332 0.91817 0.0
H728 H 0.82615 0.72751 0.97681 0.0
H729 H 0.83243 0.67699 1.01368 0.0
H730 H 0.83091 0.67461 0.94306 0.0
H731 H 0.87658 0.64736 0.93955 0.0
H732 H 0.87807 0.64893 1.01028 0.0
H733 H 0.90282 0.68099 0.97209 0.0
H734 H 0.90106 0.85704 1.01476 0.0
H735 H 0.89834 0.84589 0.11067 0.0
H736 H 0.86551 0.70434 0.08765 0.0
C737 C 0.86789 0.73246 0.87431 0.0
C738 C 0.87474 0.76701 0.83645 0.0
C739 C 0.88694 0.81038 0.8526 0.0
C740 C 0.89147 0.81985 0.90579 0.0
C741 C 0.88398 0.78538 0.94205 0.0
C742 C 0.87281 0.74234 0.92715 0.0
C743 C 0.86626 0.71176 0.97431 0.0
C744 C 0.83721 0.69686 0.97711 0.0
C745 C 0.88187 0.66977 0.97403 0.0
C746 C 0.87489 0.74489 1.01806 0.0
C747 C 0.88504 0.78712 0.99839 0.0
C748 C 0.8934 0.82406 0.03079 0.0
C749 C 0.89156 0.81754 0.08498 0.0
C750 C 0.88157 0.77442 0.10595 0.0
C751 C 0.87325 0.73754 0.0722 0.0
H752 H 0.65306 0.70679 0.46474 0.0
H753 H 0.69247 0.83946 0.41975 0.0
H754 H 0.702 0.85711 0.51289 0.0
H755 H 0.6241 0.74363 0.57968 0.0
H756 H 0.62841 0.69272 0.61765 0.0
H757 H 0.62573 0.68898 0.54722 0.0
H758 H 0.66936 0.65427 0.54208 0.0
H759 H 0.67202 0.65724 0.61263 0.0
H760 H 0.6974 0.68465 0.57214 0.0
H761 H 0.70484 0.86275 0.61012 0.0
H762 H 0.7038 0.85384 0.70638 0.0
H763 H 0.66381 0.71649 0.68929 0.0
C764 C 0.66413 0.73918 0.47434 0.0
C765 C 0.67184 0.77193 0.43488 0.0
C766 C 0.68597 0.81418 0.4493 0.0
C767 C 0.6916 0.82443 0.50206 0.0
C768 C 0.68318 0.79191 0.53996 0.0
C769 C 0.67005 0.7499 0.52686 0.0
C770 C 0.66288 0.72142 0.57551 0.0
C771 C 0.63354 0.7111 0.58029 0.0
C772 C 0.67621 0.67674 0.57559 0.0
C773 C 0.67367 0.75438 0.61802 0.0
C774 C 0.68526 0.79483 0.59647 0.0
C775 C 0.69599 0.83114 0.62752 0.0
C776 C 0.6951 0.8259 0.68213 0.0
C777 C 0.68363 0.7846 0.70528 0.0
C778 C 0.67283 0.74833 0.67265 0.0
H779 H 0.36343 0.68616 0.68513 0.0
H780 H 0.37187 0.83165 0.7269 0.0
H781 H 0.37704 0.85221 0.63348 0.0
H782 H 0.4117 0.69629 0.58271 0.0
H783 H 0.39441 0.65357 0.54121 0.0
H784 H 0.39065 0.65019 0.61148 0.0
H785 H 0.3413 0.65002 0.6004 0.0
H786 H 0.34497 0.65395 0.53012 0.0
H787 H 0.32875 0.6964 0.5649 0.0
H788 H 0.38085 0.85752 0.53576 0.0
H789 H 0.38648 0.84702 0.44048 0.0
H790 H 0.37733 0.69829 0.46158 0.0
C791 C 0.36659 0.72237 0.67486 0.0
C792 C 0.36684 0.75725 0.71377 0.0
C793 C 0.37089 0.80419 0.69808 0.0
C794 C 0.37403 0.81629 0.64502 0.0
C795 C 0.37332 0.78115 0.60784 0.0
C796 C 0.36999 0.73514 0.62199 0.0
C797 C 0.37066 0.7042 0.57415 0.0
C798 C 0.3932 0.6743 0.57761 0.0
C799 C 0.34488 0.67438 0.56698 0.0
C800 C 0.37492 0.74006 0.53101 0.0
C801 C 0.37616 0.78421 0.55133 0.0
C802 C 0.37991 0.82311 0.51935 0.0
C803 C 0.38289 0.81678 0.46519 0.0
C804 C 0.38228 0.77188 0.44346 0.0
C805 C 0.37804 0.73307 0.477 0.0
H806 H 0.68473 0.33289 0.36579 0.0
H807 H 0.67414 0.18844 0.31972 0.0
H808 H 0.66837 0.16597 0.41243 0.0
H809 H 0.71897 0.31906 0.48403 0.0
H810 H 0.70342 0.36116 0.52084 0.0
H811 H 0.7066 0.36673 0.45061 0.0
H812 H 0.65726 0.36811 0.44125 0.0
H813 H 0.654 0.36322 0.51155 0.0
H814 H 0.63604 0.32191 0.46935 0.0
H815 H 0.66558 0.15847 0.50938 0.0
H816 H 0.66195 0.16667 0.60538 0.0
H817 H 0.672 0.31585 0.58943 0.0
C818 C 0.68086 0.29655 0.37499 0.0
C819 C 0.68035 0.26242 0.33523 0.0
C820 C 0.67537 0.21524 0.34936 0.0
C821 C 0.67186 0.20208 0.40193 0.0
C822 C 0.67303 0.23646 0.44004 0.0
C823 C 0.67701 0.28274 0.42734 0.0
C824 C 0.677 0.31264 0.47613 0.0
C825 C 0.70305 0.34161 0.48331 0.0
C826 C 0.65475 0.34329 0.47445 0.0
C827 C 0.6727 0.27583 0.51817 0.0
C828 C 0.67061 0.23216 0.49635 0.0
C829 C 0.66707 0.19247 0.527 0.0
C830 C 0.66525 0.19748 0.58148 0.0
C831 C 0.66681 0.24184 0.60478 0.0
C832 C 0.67064 0.28152 0.5726 0.0
H833 H 0.38741 0.21032 0.36332 0.0
H834 H 0.34141 0.32396 0.33639 0.0
H835 H 0.34015 0.33844 0.43175 0.0
H836 H 0.3569 0.16914 0.48415 0.0
H837 H 0.38631 0.15628 0.51528 0.0
H838 H 0.38325 0.15332 0.44479 0.0
H839 H 0.42404 0.21125 0.43431 0.0
H840 H 0.42748 0.2137 0.50469 0.0
H841 H 0.42574 0.26609 0.46772 0.0
H842 H 0.34318 0.34039 0.52838 0.0
H843 H 0.35452 0.33555 0.62208 0.0
H844 H 0.40018 0.22285 0.58754 0.0
C845 C 0.37705 0.23811 0.37776 0.0
C846 C 0.36446 0.26608 0.34285 0.0
C847 C 0.35131 0.30247 0.36271 0.0
C848 C 0.35032 0.31069 0.41669 0.0
C849 C 0.36273 0.28239 0.45017 0.0
C850 C 0.37617 0.24728 0.43167 0.0
C851 C 0.38885 0.22362 0.47634 0.0
C852 C 0.37819 0.17255 0.48036 0.0
C853 C 0.41827 0.229 0.47039 0.0
C854 C 0.38045 0.25114 0.52261 0.0
C855 C 0.36513 0.28442 0.5065 0.0
C856 C 0.35529 0.31467 0.5416 0.0
C857 C 0.36191 0.31177 0.59461 0.0
C858 C 0.37842 0.27919 0.61185 0.0
C859 C 0.38735 0.24783 0.57549 0.0
H860 H 0.08434 0.3041 0.55902 0.0
H861 H 0.09061 0.1902 0.45234 0.0
H862 H 0.04413 0.18898 0.43064 0.0
H863 H 0.02674 0.26356 0.61312 0.0
H864 H 1.01444 0.31889 0.61986 0.0
H865 H 0.04853 0.3154 0.61948 0.0
H866 H 0.0537 0.37308 0.54169 0.0
H867 H 1.01952 0.37707 0.54199 0.0
H868 H 0.03515 0.36114 0.48261 0.0
H869 H 0.99545 0.19453 0.43035 0.0
H870 H 0.95027 0.20528 0.45214 0.0
H871 H 0.97707 0.31605 0.55888 0.0
C872 C 0.07605 0.28001 0.52969 0.0
C873 C 0.09092 0.24793 0.50628 0.0
C874 C 0.07947 0.21574 0.46953 0.0
C875 C 0.05314 0.21481 0.45719 0.0
C876 C 0.03874 0.24649 0.48185 0.0
C877 C 0.04997 0.27877 0.51702 0.0
C878 C 0.03023 0.30634 0.54195 0.0
C879 C 0.02998 0.30067 0.60214 0.0
C880 C 0.03493 0.35745 0.52611 0.0
C881 C 1.0059 0.2834 0.51717 0.0
C882 C 1.01108 0.24944 0.48194 0.0
C883 C 0.99127 0.22161 0.45716 0.0
C884 C 0.96563 0.22804 0.46962 0.0
C885 C 0.96007 0.26166 0.50699 0.0
C886 C 0.98059 0.29027 0.52983 0.0
H887 H 0.96684 0.74471 0.58664 0.0
H888 H 0.9627 0.78525 0.42214 0.0
H889 H 1.00872 0.79107 0.4155 0.0
H890 H 0.02748 0.81698 0.6162 0.0
H891 H 0.04116 0.77443 0.65592 0.0
H892 H 1.00674 0.77503 0.6524 0.0
H893 H 1.0018 0.68976 0.622 0.0
H894 H 0.03614 0.68874 0.62612 0.0
H895 H 1.01953 0.67325 0.56554 0.0
H896 H 0.05337 0.79575 0.42196 0.0
H897 H 0.09806 0.78441 0.43778 0.0
H898 H 0.07946 0.73595 0.59591 0.0
C899 C 0.97576 0.7548 0.5495 0.0
C900 C 0.96072 0.76609 0.50561 0.0
C901 C 0.97329 0.7781 0.45731 0.0
C902 C 0.99973 0.78153 0.45272 0.0
C903 C 1.01399 0.77221 0.4964 0.0
C904 C 1.0029 0.75801 0.54365 0.0
C905 C 1.02397 0.74743 0.58231 0.0
C906 C 1.02488 0.78043 0.62953 0.0
C907 C 1.02013 0.69676 0.60004 0.0
C908 C 0.04807 0.75706 0.54831 0.0
C909 C 0.04132 0.77253 0.4995 0.0
C910 C 0.05908 0.7838 0.46005 0.0
C911 C 0.08459 0.77766 0.46967 0.0
C912 C 0.09241 0.76018 0.51821 0.0
C913 C 0.07402 0.75027 0.55878 0.0
H914 H 0.58076 0.77857 0.08674 0.0
H915 H 0.59418 0.73408 0.92779 0.0
H916 H 0.54765 0.73751 0.90728 0.0
H917 H 0.52183 0.71369 0.10527 0.0
H918 H 0.50869 0.75707 0.14456 0.0
H919 H 0.54282 0.75387 0.14339 0.0
H920 H 0.55018 0.83957 0.11407 0.0
H921 H 0.51603 0.8432 0.11544 0.0
H922 H 0.53399 0.85802 0.05638 0.0
H923 H 0.4968 0.73843 0.91039 0.0
H924 H 0.45085 0.7425 0.93428 0.0
H925 H 0.47497 0.79012 0.08987 0.0
C926 C 0.57404 0.77003 0.04727 0.0
C927 C 0.59088 0.75585 1.00886 0.0
C928 C 0.58147 0.74528 0.95766 0.0
C929 C 0.55509 0.74695 0.94591 0.0
C930 C 0.53875 0.75998 0.98565 0.0
C931 C 0.54826 0.77197 0.03506 0.0
C932 C 0.52749 0.78365 0.07211 0.0
C933 C 0.52507 0.75007 0.11907 0.0
C934 C 0.5322 0.83411 0.09055 0.0
C935 C 0.50447 0.77627 0.03637 0.0
C936 C 0.51089 0.76221 0.98668 0.0
C937 C 0.4918 0.75024 0.94898 0.0
C938 C 0.46574 0.75263 0.96281 0.0
C939 C 0.45914 0.76727 1.01369 0.0
C940 C 0.47903 0.77961 0.05019 0.0
H941 H 0.47225 0.24447 0.9545 0.0
H942 H 0.45646 0.27172 0.11799 0.0
H943 H 0.50289 0.26866 0.13896 0.0
H944 H 0.51801 0.16365 0.97665 0.0
H945 H 0.53714 0.18334 0.92064 0.0
H946 H 0.50308 0.18791 0.92064 0.0
H947 H 0.51154 0.27588 0.90232 0.0
H948 H 0.5456 0.27159 0.90221 0.0
H949 H 0.53226 0.31159 0.94588 0.0
H950 H 0.5534 0.26797 0.13781 0.0
H951 H 0.59953 0.26314 0.11632 0.0
H952 H 0.57816 0.23132 0.95469 0.0
C953 C 0.47844 0.2499 0.99488 0.0
C954 C 0.4609 0.25888 0.03458 0.0
C955 C 0.4697 0.26483 0.08701 0.0
C956 C 0.49601 0.26331 0.0991 0.0
C957 C 0.51291 0.25498 0.05838 0.0
C958 C 0.50415 0.24783 1.00748 0.0
C959 C 0.5254 0.239 0.97018 0.0
C960 C 0.52062 0.1906 0.94561 0.0
C961 C 0.5289 0.27676 0.92767 0.0
C962 C 0.5478 0.24224 1.00765 0.0
C963 C 0.54064 0.25208 0.05834 0.0
C964 C 0.55899 0.25946 0.09836 0.0
C965 C 0.58512 0.25664 0.08591 0.0
C966 C 0.59243 0.24578 0.03415 0.0
C967 C 0.57332 0.23836 0.99505 0.0
loop_
_geom_bond_atom_site_label_1
_geom_bond_atom_site_label_2
_geom_bond_distance
_geom_bond_site_symmetry_2
_ccdc_geom_bond_type
Nd0 C2 2.836 . S
Nd0 O20 2.500 . S
Nd0 O21 2.492 . S
Nd0 O22 2.487 . S
Nd0 O23 2.682 . S
Nd0 O24 2.410 . S
Nd0 O29 2.414 . S
Nd0 O31 2.424 . S
Nd1 C11 2.836 . S
Nd1 O23 2.414 . S
Nd1 O25 2.424 . S
Nd1 O26 2.500 . S
Nd1 O27 2.492 . S
Nd1 O28 2.487 . S
Nd1 O29 2.682 . S
Nd1 O30 2.410 . S
C2 Nd0 2.836 . S
C2 C3 1.498 . S
C2 O20 1.258 . S
C2 O21 1.239 . S
C3 C2 1.498 . S
C3 C4 1.366 . S
C3 C8 1.407 . S
C4 C3 1.366 . S
C4 C5 1.392 . S
C4 H32 0.930 . S
C5 C4 1.392 . S
C5 C6 1.398 . S
C5 H33 0.929 . S
C6 C5 1.398 . S
C6 C7 1.352 . S
C7 C6 1.352 . S
C7 C8 1.384 . S
C7 H34 0.930 . S
C8 C3 1.407 . S
C8 C7 1.384 . S
C8 H35 0.929 . S
C9 O22 1.241 . S
C9 O23 1.273 . S
C10 O24 1.251 . S
C10 O25 1.268 . S
C11 Nd1 2.836 . S
C11 C12 1.498 . S
C11 O26 1.258 . S
C11 O27 1.239 . S
C12 C11 1.498 . S
C12 C13 1.366 . S
C12 C17 1.407 . S
C13 C12 1.366 . S
C13 C14 1.392 . S
C13 H36 0.930 . S
C14 C13 1.392 . S
C14 C15 1.398 . S
C14 H37 0.929 . S
C15 C14 1.398 . S
C15 C16 1.352 . S
C16 C15 1.352 . S
C16 C17 1.384 . S
C16 H38 0.930 . S
C17 C12 1.407 . S
C17 C16 1.384 . S
C17 H39 0.929 . S
C18 O28 1.241 . S
C18 O29 1.273 . S
C19 O30 1.251 . S
C19 O31 1.268 . S
O20 Nd0 2.500 . S
O20 C2 1.258 . S
O21 Nd0 2.492 . S
O21 C2 1.239 . S
O22 Nd0 2.487 . S
O22 C9 1.241 . S
O23 Nd0 2.682 . S
O23 Nd1 2.414 . S
O23 C9 1.273 . S
O24 Nd0 2.410 . S
O24 C10 1.251 . S
O25 Nd1 2.424 . S
O25 C10 1.268 . S
O26 Nd1 2.500 . S
O26 C11 1.258 . S
O27 Nd1 2.492 . S
O27 C11 1.239 . S
O28 Nd1 2.487 . S
O28 C18 1.241 . S
O29 Nd0 2.414 . S
O29 Nd1 2.682 . S
O29 C18 1.273 . S
O30 Nd1 2.410 . S
O30 C19 1.251 . S
O31 Nd0 2.424 . S
O31 C19 1.268 . S
H32 C4 0.930 . S
H33 C5 0.929 . S
H34 C7 0.930 . S
H35 C8 0.929 . S
H36 C13 0.930 . S
H37 C14 0.929 . S
H38 C16 0.930 . S
H39 C17 0.929 . S
Nd40 C42 2.836 . S
Nd40 O60 2.500 . S
Nd40 O61 2.492 . S
Nd40 O62 2.487 . S
Nd40 O63 2.682 . S
Nd40 O64 2.410 . S
Nd40 O69 2.414 . S
Nd40 O71 2.424 . S
Nd41 C51 2.836 . S
Nd41 O63 2.414 . S
Nd41 O65 2.424 . S
Nd41 O66 2.500 . S
Nd41 O67 2.492 . S
Nd41 O68 2.487 . S
Nd41 O69 2.682 . S
Nd41 O70 2.410 . S
C42 Nd40 2.836 . S
C42 C43 1.498 . S
C42 O60 1.258 . S
C42 O61 1.239 . S
C43 C42 1.498 . S
C43 C44 1.366 . S
C43 C48 1.407 . S
C44 C43 1.366 . S
C44 C45 1.392 . S
C44 H72 0.930 . S
C45 C44 1.392 . S
C45 C46 1.398 . S
C45 H73 0.929 . S
C46 C45 1.398 . S
C46 C47 1.352 . S
C47 C46 1.352 . S
C47 C48 1.384 . S
C47 H74 0.930 . S
C48 C43 1.407 . S
C48 C47 1.384 . S
C48 H75 0.929 . S
C49 O62 1.241 . S
C49 O63 1.273 . S
C50 O64 1.251 . S
C50 O65 1.268 . S
C51 Nd41 2.836 . S
C51 C52 1.498 . S
C51 O66 1.258 . S
C51 O67 1.239 . S
C52 C51 1.498 . S
C52 C53 1.366 . S
C52 C57 1.407 . S
C53 C52 1.366 . S
C53 C54 1.392 . S
C53 H76 0.930 . S
C54 C53 1.392 . S
C54 C55 1.398 . S
C54 H77 0.929 . S
C55 C54 1.398 . S
C55 C56 1.352 . S
C56 C55 1.352 . S
C56 C57 1.384 . S
C56 H78 0.930 . S
C57 C52 1.407 . S
C57 C56 1.384 . S
C57 H79 0.929 . S
C58 O68 1.241 . S
C58 O69 1.273 . S
C59 O70 1.251 . S
C59 O71 1.268 . S
O60 Nd40 2.500 . S
O60 C42 1.258 . S
O61 Nd40 2.492 . S
O61 C42 1.239 . S
O62 Nd40 2.487 . S
O62 C49 1.241 . S
O63 Nd40 2.682 . S
O63 Nd41 2.414 . S
O63 C49 1.273 . S
O64 Nd40 2.410 . S
O64 C50 1.251 . S
O65 Nd41 2.424 . S
O65 C50 1.268 . S
O66 Nd41 2.500 . S
O66 C51 1.258 . S
O67 Nd41 2.492 . S
O67 C51 1.239 . S
O68 Nd41 2.487 . S
O68 C58 1.241 . S
O69 Nd40 2.414 . S
O69 Nd41 2.682 . S
O69 C58 1.273 . S
O70 Nd41 2.410 . S
O70 C59 1.251 . S
O71 Nd40 2.424 . S
O71 C59 1.268 . S
H72 C44 0.930 . S
H73 C45 0.929 . S
H74 C47 0.930 . S
H75 C48 0.929 . S
H76 C53 0.930 . S
H77 C54 0.929 . S
H78 C56 0.930 . S
H79 C57 0.929 . S
Nd80 C82 2.836 . S
Nd80 O100 2.500 . S
Nd80 O101 2.492 . S
Nd80 O102 2.487 . S
Nd80 O103 2.682 . S
Nd80 O104 2.410 . S
Nd80 O109 2.414 . S
Nd80 O111 2.424 . S
Nd81 C91 2.836 . S
Nd81 O103 2.414 . S
Nd81 O105 2.424 . S
Nd81 O106 2.500 . S
Nd81 O107 2.492 . S
Nd81 O108 2.487 . S
Nd81 O109 2.682 . S
Nd81 O110 2.410 . S
C82 Nd80 2.836 . S
C82 C83 1.498 . S
C82 O100 1.258 . S
C82 O101 1.239 . S
C83 C82 1.498 . S
C83 C84 1.366 . S
C83 C88 1.407 . S
C84 C83 1.366 . S
C84 C85 1.392 . S
C84 H112 0.930 . S
C85 C84 1.392 . S
C85 C86 1.398 . S
C85 H113 0.929 . S
C86 C85 1.398 . S
C86 C87 1.352 . S
C87 C86 1.352 . S
C87 C88 1.384 . S
C87 H114 0.930 . S
C88 C83 1.407 . S
C88 C87 1.384 . S
C88 H115 0.929 . S
C89 O102 1.241 . S
C89 O103 1.273 . S
C90 O104 1.251 . S
C90 O105 1.268 . S
C91 Nd81 2.836 . S
C91 C92 1.498 . S
C91 O106 1.258 . S
C91 O107 1.239 . S
C92 C91 1.498 . S
C92 C93 1.366 . S
C92 C97 1.407 . S
C93 C92 1.366 . S
C93 C94 1.392 . S
C93 H116 0.930 . S
C94 C93 1.392 . S
C94 C95 1.398 . S
C94 H117 0.929 . S
C95 C94 1.398 . S
C95 C96 1.352 . S
C96 C95 1.352 . S
C96 C97 1.384 . S
C96 H118 0.930 . S
C97 C92 1.407 . S
C97 C96 1.384 . S
C97 H119 0.929 . S
C98 O108 1.241 . S
C98 O109 1.273 . S
C99 O110 1.251 . S
C99 O111 1.268 . S
O100 Nd80 2.500 . S
O100 C82 1.258 . S
O101 Nd80 2.492 . S
O101 C82 1.239 . S
O102 Nd80 2.487 . S
O102 C89 1.241 . S
O103 Nd80 2.682 . S
O103 Nd81 2.414 . S
O103 C89 1.273 . S
O104 Nd80 2.410 . S
O104 C90 1.251 . S
O105 Nd81 2.424 . S
O105 C90 1.268 . S
O106 Nd81 2.500 . S
O106 C91 1.258 . S
O107 Nd81 2.492 . S
O107 C91 1.239 . S
O108 Nd81 2.487 . S
O108 C98 1.241 . S
O109 Nd80 2.414 . S
O109 Nd81 2.682 . S
O109 C98 1.273 . S
O110 Nd81 2.410 . S
O110 C99 1.251 . S
O111 Nd80 2.424 . S
O111 C99 1.268 . S
H112 C84 0.930 . S
H113 C85 0.929 . S
H114 C87 0.930 . S
H115 C88 0.929 . S
H116 C93 0.930 . S
H117 C94 0.929 . S
H118 C96 0.930 . S
H119 C97 0.929 . S
Nd120 C122 2.836 . S
Nd120 O140 2.500 . S
Nd120 O141 2.492 . S
Nd120 O142 2.487 . S
Nd120 O143 2.682 . S
Nd120 O144 2.410 . S
Nd120 O149 2.414 . S
Nd120 O151 2.424 . S
Nd121 C131 2.836 . S
Nd121 O143 2.414 . S
Nd121 O145 2.424 . S
Nd121 O146 2.500 . S
Nd121 O147 2.492 . S
Nd121 O148 2.487 . S
Nd121 O149 2.682 . S
Nd121 O150 2.410 . S
C122 Nd120 2.836 . S
C122 C123 1.498 . S
C122 O140 1.258 . S
C122 O141 1.239 . S
C123 C122 1.498 . S
C123 C124 1.366 . S
C123 C128 1.407 . S
C124 C123 1.366 . S
C124 C125 1.392 . S
C124 H152 0.930 . S
C125 C124 1.392 . S
C125 C126 1.398 . S
C125 H153 0.929 . S
C126 C125 1.398 . S
C126 C127 1.352 . S
C127 C126 1.352 . S
C127 C128 1.384 . S
C127 H154 0.930 . S
C128 C123 1.407 . S
C128 C127 1.384 . S
C128 H155 0.929 . S
C129 O142 1.241 . S
C129 O143 1.273 . S
C130 O144 1.251 . S
C130 O145 1.268 . S
C131 Nd121 2.836 . S
C131 C132 1.498 . S
C131 O146 1.258 . S
C131 O147 1.239 . S
C132 C131 1.498 . S
C132 C133 1.366 . S
C132 C137 1.407 . S
C133 C132 1.366 . S
C133 C134 1.392 . S
C133 H156 0.930 . S
C134 C133 1.392 . S
C134 C135 1.398 . S
C134 H157 0.929 . S
C135 C134 1.398 . S
C135 C136 1.352 . S
C136 C135 1.352 . S
C136 C137 1.384 . S
C136 H158 0.930 . S
C137 C132 1.407 . S
C137 C136 1.384 . S
C137 H159 0.929 . S
C138 O148 1.241 . S
C138 O149 1.273 . S
C139 O150 1.251 . S
C139 O151 1.268 . S
O140 Nd120 2.500 . S
O140 C122 1.258 . S
O141 Nd120 2.492 . S
O141 C122 1.239 . S
O142 Nd120 2.487 . S
O142 C129 1.241 . S
O143 Nd120 2.682 . S
O143 Nd121 2.414 . S
O143 C129 1.273 . S
O144 Nd120 2.410 . S
O144 C130 1.251 . S
O145 Nd121 2.424 . S
O145 C130 1.268 . S
O146 Nd121 2.500 . S
O146 C131 1.258 . S
O147 Nd121 2.492 . S
O147 C131 1.239 . S
O148 Nd121 2.487 . S
O148 C138 1.241 . S
O149 Nd120 2.414 . S
O149 Nd121 2.682 . S
O149 C138 1.273 . S
O150 Nd121 2.410 . S
O150 C139 1.251 . S
O151 Nd120 2.424 . S
O151 C139 1.268 . S
H152 C124 0.930 . S
H153 C125 0.929 . S
H154 C127 0.930 . S
H155 C128 0.929 . S
H156 C133 0.930 . S
H157 C134 0.929 . S
H158 C136 0.930 . S
H159 C137 0.929 . S
Nd160 C162 2.836 . S
Nd160 O180 2.500 . S
Nd160 O181 2.492 . S
Nd160 O182 2.487 . S
Nd160 O183 2.682 1_556 S
Nd160 O184 2.410 . S
Nd160 O189 2.414 1_556 S
Nd160 O191 2.424 1_556 S
Nd161 C171 2.836 . S
Nd161 O183 2.414 . S
Nd161 O185 2.424 . S
Nd161 O186 2.500 . S
Nd161 O187 2.492 . S
Nd161 O188 2.487 . S
Nd161 O189 2.682 . S
Nd161 O190 2.410 . S
C162 Nd160 2.836 . S
C162 C163 1.498 . S
C162 O180 1.258 . S
C162 O181 1.239 . S
C163 C162 1.498 . S
C163 C164 1.366 . S
C163 C168 1.407 . S
C164 C163 1.366 . S
C164 C165 1.392 . S
C164 H192 0.930 . S
C165 C164 1.392 . S
C165 C166 1.398 . S
C165 H193 0.929 . S
C166 C165 1.398 . S
C166 C167 1.352 . S
C167 C166 1.352 . S
C167 C168 1.384 . S
C167 H194 0.930 . S
C168 C163 1.407 . S
C168 C167 1.384 . S
C168 H195 0.929 . S
C169 O182 1.241 1_554 S
C169 O183 1.273 . S
C170 O184 1.251 . S
C170 O185 1.268 1_556 S
C171 Nd161 2.836 . S
C171 C172 1.498 . S
C171 O186 1.258 . S
C171 O187 1.239 . S
C172 C171 1.498 . S
C172 C173 1.366 . S
C172 C177 1.407 . S
C173 C172 1.366 . S
C173 C174 1.392 . S
C173 H196 0.930 . S
C174 C173 1.392 . S
C174 C175 1.398 . S
C174 H197 0.929 . S
C175 C174 1.398 . S
C175 C176 1.352 . S
C176 C175 1.352 . S
C176 C177 1.384 . S
C176 H198 0.930 . S
C177 C172 1.407 . S
C177 C176 1.384 . S
C177 H199 0.929 . S
C178 O188 1.241 . S
C178 O189 1.273 . S
C179 O190 1.251 . S
C179 O191 1.268 . S
O180 Nd160 2.500 . S
O180 C162 1.258 . S
O181 Nd160 2.492 . S
O181 C162 1.239 . S
O182 Nd160 2.487 . S
O182 C169 1.241 1_556 S
O183 Nd160 2.682 1_554 S
O183 Nd161 2.414 . S
O183 C169 1.273 . S
O184 Nd160 2.410 . S
O184 C170 1.251 . S
O185 Nd161 2.424 . S
O185 C170 1.268 1_554 S
O186 Nd161 2.500 . S
O186 C171 1.258 . S
O187 Nd161 2.492 . S
O187 C171 1.239 . S
O188 Nd161 2.487 . S
O188 C178 1.241 . S
O189 Nd160 2.414 1_554 S
O189 Nd161 2.682 . S
O189 C178 1.273 . S
O190 Nd161 2.410 . S
O190 C179 1.251 . S
O191 Nd160 2.424 1_554 S
O191 C179 1.268 . S
H192 C164 0.930 . S
H193 C165 0.929 . S
H194 C167 0.930 . S
H195 C168 0.929 . S
H196 C173 0.930 . S
H197 C174 0.929 . S
H198 C176 0.930 . S
H199 C177 0.929 . S
Nd200 C202 2.836 . S
Nd200 O220 2.500 . S
Nd200 O221 2.492 . S
Nd200 O222 2.487 . S
Nd200 O223 2.682 1_556 S
Nd200 O224 2.410 . S
Nd200 O229 2.414 1_556 S
Nd200 O231 2.424 1_556 S
Nd201 C211 2.836 . S
Nd201 O223 2.414 . S
Nd201 O225 2.424 . S
Nd201 O226 2.500 . S
Nd201 O227 2.492 . S
Nd201 O228 2.487 . S
Nd201 O229 2.682 . S
Nd201 O230 2.410 . S
C202 Nd200 2.836 . S
C202 C203 1.498 . S
C202 O220 1.258 . S
C202 O221 1.239 . S
C203 C202 1.498 . S
C203 C204 1.366 . S
C203 C208 1.407 . S
C204 C203 1.366 . S
C204 C205 1.392 . S
C204 H232 0.930 . S
C205 C204 1.392 . S
C205 C206 1.398 . S
C205 H233 0.929 . S
C206 C205 1.398 . S
C206 C207 1.352 . S
C207 C206 1.352 . S
C207 C208 1.384 . S
C207 H234 0.930 . S
C208 C203 1.407 . S
C208 C207 1.384 . S
C208 H235 0.929 . S
C209 O222 1.241 1_554 S
C209 O223 1.273 . S
C210 O224 1.251 . S
C210 O225 1.268 1_556 S
C211 Nd201 2.836 . S
C211 C212 1.498 . S
C211 O226 1.258 . S
C211 O227 1.239 . S
C212 C211 1.498 . S
C212 C213 1.366 . S
C212 C217 1.407 . S
C213 C212 1.366 . S
C213 C214 1.392 . S
C213 H236 0.930 . S
C214 C213 1.392 . S
C214 C215 1.398 . S
C214 H237 0.929 . S
C215 C214 1.398 . S
C215 C216 1.352 . S
C216 C215 1.352 . S
C216 C217 1.384 . S
C216 H238 0.930 . S
C217 C212 1.407 . S
C217 C216 1.384 . S
C217 H239 0.929 . S
C218 O228 1.241 . S
C218 O229 1.273 . S
C219 O230 1.251 . S
C219 O231 1.268 . S
O220 Nd200 2.500 . S
O220 C202 1.258 . S
O221 Nd200 2.492 . S
O221 C202 1.239 . S
O222 Nd200 2.487 . S
O222 C209 1.241 1_556 S
O223 Nd200 2.682 1_554 S
O223 Nd201 2.414 . S
O223 C209 1.273 . S
O224 Nd200 2.410 . S
O224 C210 1.251 . S
O225 Nd201 2.424 . S
O225 C210 1.268 1_554 S
O226 Nd201 2.500 . S
O226 C211 1.258 . S
O227 Nd201 2.492 . S
O227 C211 1.239 . S
O228 Nd201 2.487 . S
O228 C218 1.241 . S
O229 Nd200 2.414 1_554 S
O229 Nd201 2.682 . S
O229 C218 1.273 . S
O230 Nd201 2.410 . S
O230 C219 1.251 . S
O231 Nd200 2.424 1_554 S
O231 C219 1.268 . S
H232 C204 0.930 . S
H233 C205 0.929 . S
H234 C207 0.930 . S
H235 C208 0.929 . S
H236 C213 0.930 . S
H237 C214 0.929 . S
H238 C216 0.930 . S
H239 C217 0.929 . S
Nd240 C242 2.836 . S
Nd240 O260 2.500 . S
Nd240 O261 2.492 . S
Nd240 O262 2.487 . S
Nd240 O263 2.682 . S
Nd240 O264 2.410 . S
Nd240 O269 2.414 . S
Nd240 O271 2.424 . S
Nd241 C251 2.836 . S
Nd241 O263 2.414 1_554 S
Nd241 O265 2.424 1_554 S
Nd241 O266 2.500 . S
Nd241 O267 2.492 . S
Nd241 O268 2.487 . S
Nd241 O269 2.682 1_554 S
Nd241 O270 2.410 . S
C242 Nd240 2.836 . S
C242 C243 1.498 . S
C242 O260 1.258 . S
C242 O261 1.239 . S
C243 C242 1.498 . S
C243 C244 1.366 . S
C243 C248 1.407 . S
C244 C243 1.366 . S
C244 C245 1.392 . S
C244 H272 0.930 . S
C245 C244 1.392 . S
C245 C246 1.398 . S
C245 H273 0.929 . S
C246 C245 1.398 . S
C246 C247 1.352 . S
C247 C246 1.352 . S
C247 C248 1.384 . S
C247 H274 0.930 . S
C248 C243 1.407 . S
C248 C247 1.384 . S
C248 H275 0.929 . S
C249 O262 1.241 . S
C249 O263 1.273 . S
C250 O264 1.251 . S
C250 O265 1.268 . S
C251 Nd241 2.836 . S
C251 C252 1.498 . S
C251 O266 1.258 . S
C251 O267 1.239 . S
C252 C251 1.498 . S
C252 C253 1.366 . S
C252 C257 1.407 . S
C253 C252 1.366 . S
C253 C254 1.392 . S
C253 H276 0.930 . S
C254 C253 1.392 . S
C254 C255 1.398 . S
C254 H277 0.929 . S
C255 C254 1.398 . S
C255 C256 1.352 . S
C256 C255 1.352 . S
C256 C257 1.384 . S
C256 H278 0.930 . S
C257 C252 1.407 . S
C257 C256 1.384 . S
C257 H279 0.929 . S
C258 O268 1.241 1_556 S
C258 O269 1.273 . S
C259 O270 1.251 . S
C259 O271 1.268 1_554 S
O260 Nd240 2.500 . S
O260 C242 1.258 . S
O261 Nd240 2.492 . S
O261 C242 1.239 . S
O262 Nd240 2.487 . S
O262 C249 1.241 . S
O263 Nd240 2.682 . S
O263 Nd241 2.414 1_556 S
O263 C249 1.273 . S
O264 Nd240 2.410 . S
O264 C250 1.251 . S
O265 Nd241 2.424 1_556 S
O265 C250 1.268 . S
O266 Nd241 2.500 . S
O266 C251 1.258 . S
O267 Nd241 2.492 . S
O267 C251 1.239 . S
O268 Nd241 2.487 . S
O268 C258 1.241 1_554 S
O269 Nd240 2.414 . S
O269 Nd241 2.682 1_556 S
O269 C258 1.273 . S
O270 Nd241 2.410 . S
O270 C259 1.251 . S
O271 Nd240 2.424 . S
O271 C259 1.268 1_556 S
H272 C244 0.930 . S
H273 C245 0.929 . S
H274 C247 0.930 . S
H275 C248 0.929 . S
H276 C253 0.930 . S
H277 C254 0.929 . S
H278 C256 0.930 . S
H279 C257 0.929 . S
Nd280 C282 2.836 . S
Nd280 O300 2.500 . S
Nd280 O301 2.492 . S
Nd280 O302 2.487 . S
Nd280 O303 2.682 . S
Nd280 O304 2.410 . S
Nd280 O309 2.414 . S
Nd280 O311 2.424 . S
Nd281 C291 2.836 . S
Nd281 O303 2.414 1_554 S
Nd281 O305 2.424 1_554 S
Nd281 O306 2.500 . S
Nd281 O307 2.492 . S
Nd281 O308 2.487 . S
Nd281 O309 2.682 1_554 S
Nd281 O310 2.410 . S
C282 Nd280 2.836 . S
C282 C283 1.498 . S
C282 O300 1.258 . S
C282 O301 1.239 . S
C283 C282 1.498 . S
C283 C284 1.366 . S
C283 C288 1.407 . S
C284 C283 1.366 . S
C284 C285 1.392 . S
C284 H312 0.930 . S
C285 C284 1.392 . S
C285 C286 1.398 . S
C285 H313 0.929 . S
C286 C285 1.398 . S
C286 C287 1.352 . S
C287 C286 1.352 . S
C287 C288 1.384 . S
C287 H314 0.930 . S
C288 C283 1.407 . S
C288 C287 1.384 . S
C288 H315 0.929 . S
C289 O302 1.241 . S
C289 O303 1.273 . S
C290 O304 1.251 . S
C290 O305 1.268 . S
C291 Nd281 2.836 . S
C291 C292 1.498 . S
C291 O306 1.258 . S
C291 O307 1.239 . S
C292 C291 1.498 . S
C292 C293 1.366 . S
C292 C297 1.407 . S
C293 C292 1.366 . S
C293 C294 1.392 . S
C293 H316 0.930 . S
C294 C293 1.392 . S
C294 C295 1.398 . S
C294 H317 0.929 . S
C295 C294 1.398 . S
C295 C296 1.352 . S
C296 C295 1.352 . S
C296 C297 1.384 . S
C296 H318 0.930 . S
C297 C292 1.407 . S
C297 C296 1.384 . S
C297 H319 0.929 . S
C298 O308 1.241 1_556 S
C298 O309 1.273 . S
C299 O310 1.251 . S
C299 O311 1.268 1_554 S
O300 Nd280 2.500 . S
O300 C282 1.258 . S
O301 Nd280 2.492 . S
O301 C282 1.239 . S
O302 Nd280 2.487 . S
O302 C289 1.241 . S
O303 Nd280 2.682 . S
O303 Nd281 2.414 1_556 S
O303 C289 1.273 . S
O304 Nd280 2.410 . S
O304 C290 1.251 . S
O305 Nd281 2.424 1_556 S
O305 C290 1.268 . S
O306 Nd281 2.500 . S
O306 C291 1.258 . S
O307 Nd281 2.492 . S
O307 C291 1.239 . S
O308 Nd281 2.487 . S
O308 C298 1.241 1_554 S
O309 Nd280 2.414 . S
O309 Nd281 2.682 1_556 S
O309 C298 1.273 . S
O310 Nd281 2.410 . S
O310 C299 1.251 . S
O311 Nd280 2.424 . S
O311 C299 1.268 1_556 S
H312 C284 0.930 . S
H313 C285 0.929 . S
H314 C287 0.930 . S
H315 C288 0.929 . S
H316 C293 0.930 . S
H317 C294 0.929 . S
H318 C296 0.930 . S
H319 C297 0.929 . S
H320 C332 0.930 . S
H321 C334 0.930 . S
H322 C335 0.930 . S
H323 C339 0.959 . S
H324 C339 0.959 . S
H325 C339 0.961 . S
H326 C340 0.960 . S
H327 C340 0.961 . S
H328 C340 0.959 . S
H329 C343 0.929 . S
H330 C344 0.931 . S
H331 C346 0.930 . S
C332 H320 0.930 . S
C332 C333 1.399 . S
C332 C337 1.399 . S
C333 C332 1.399 . S
C333 C334 1.376 . S
C334 H321 0.930 . S
C334 C333 1.376 . S
C334 C335 1.388 . S
C335 H322 0.930 . S
C335 C334 1.388 . S
C335 C336 1.390 . S
C336 C335 1.390 . S
C336 C337 1.394 . S
C336 C342 1.465 . S
C337 C332 1.399 . S
C337 C336 1.394 . S
C337 C338 1.516 . S
C338 C337 1.516 . S
C338 C339 1.502 . S
C338 C340 1.561 . S
C338 C341 1.526 . S
C339 H323 0.959 . S
C339 H324 0.959 . S
C339 H325 0.961 . S
C339 C338 1.502 . S
C340 H326 0.960 . S
C340 H327 0.961 . S
C340 H328 0.959 . S
C340 C338 1.561 . S
C341 C338 1.526 . S
C341 C342 1.396 . S
C341 C346 1.390 . S
C342 C336 1.465 . S
C342 C341 1.396 . S
C342 C343 1.399 . S
C343 H329 0.929 . S
C343 C342 1.399 . S
C343 C344 1.385 . S
C344 H330 0.931 . S
C344 C343 1.385 . S
C344 C345 1.389 . S
C345 C344 1.389 . S
C345 C346 1.387 . S
C346 H331 0.930 . S
C346 C341 1.390 . S
C346 C345 1.387 . S
H347 C359 0.930 . S
H348 C361 0.930 . S
H349 C362 0.930 . S
H350 C366 0.959 . S
H351 C366 0.959 . S
H352 C366 0.961 . S
H353 C367 0.960 . S
H354 C367 0.961 . S
H355 C367 0.959 . S
H356 C370 0.929 . S
H357 C371 0.931 . S
H358 C373 0.930 . S
C359 H347 0.930 . S
C359 C360 1.399 . S
C359 C364 1.399 . S
C360 C359 1.399 . S
C360 C361 1.376 . S
C361 H348 0.930 . S
C361 C360 1.376 . S
C361 C362 1.388 . S
C362 H349 0.930 . S
C362 C361 1.388 . S
C362 C363 1.390 . S
C363 C362 1.390 . S
C363 C364 1.394 . S
C363 C369 1.465 . S
C364 C359 1.399 . S
C364 C363 1.394 . S
C364 C365 1.516 . S
C365 C364 1.516 . S
C365 C366 1.502 . S
C365 C367 1.561 . S
C365 C368 1.526 . S
C366 H350 0.959 . S
C366 H351 0.959 . S
C366 H352 0.961 . S
C366 C365 1.502 . S
C367 H353 0.960 . S
C367 H354 0.961 . S
C367 H355 0.959 . S
C367 C365 1.561 . S
C368 C365 1.526 . S
C368 C369 1.396 . S
C368 C373 1.390 . S
C369 C363 1.465 . S
C369 C368 1.396 . S
C369 C370 1.399 . S
C370 H356 0.929 . S
C370 C369 1.399 . S
C370 C371 1.385 . S
C371 H357 0.931 . S
C371 C370 1.385 . S
C371 C372 1.389 . S
C372 C371 1.389 . S
C372 C373 1.387 . S
C373 H358 0.930 . S
C373 C368 1.390 . S
C373 C372 1.387 . S
H374 C386 0.930 . S
H375 C388 0.930 . S
H376 C389 0.930 . S
H377 C393 0.959 . S
H378 C393 0.959 . S
H379 C393 0.961 . S
H380 C394 0.960 . S
H381 C394 0.961 . S
H382 C394 0.959 . S
H383 C397 0.929 . S
H384 C398 0.931 . S
H385 C400 0.930 . S
C386 H374 0.930 . S
C386 C387 1.399 . S
C386 C391 1.399 . S
C387 C386 1.399 . S
C387 C388 1.376 . S
C388 H375 0.930 . S
C388 C387 1.376 . S
C388 C389 1.388 . S
C389 H376 0.930 . S
C389 C388 1.388 . S
C389 C390 1.390 . S
C390 C389 1.390 . S
C390 C391 1.394 . S
C390 C396 1.465 . S
C391 C386 1.399 . S
C391 C390 1.394 . S
C391 C392 1.516 . S
C392 C391 1.516 . S
C392 C393 1.502 . S
C392 C394 1.561 . S
C392 C395 1.526 . S
C393 H377 0.959 . S
C393 H378 0.959 . S
C393 H379 0.961 . S
C393 C392 1.502 . S
C394 H380 0.960 . S
C394 H381 0.961 . S
C394 H382 0.959 . S
C394 C392 1.561 . S
C395 C392 1.526 . S
C395 C396 1.396 . S
C395 C400 1.390 . S
C396 C390 1.465 . S
C396 C395 1.396 . S
C396 C397 1.399 . S
C397 H383 0.929 . S
C397 C396 1.399 . S
C397 C398 1.385 . S
C398 H384 0.931 . S
C398 C397 1.385 . S
C398 C399 1.389 . S
C399 C398 1.389 . S
C399 C400 1.387 . S
C400 H385 0.930 . S
C400 C395 1.390 . S
C400 C399 1.387 . S
H401 C413 0.930 . S
H402 C415 0.930 . S
H403 C416 0.930 . S
H404 C420 0.959 . S
H405 C420 0.959 . S
H406 C420 0.961 . S
H407 C421 0.960 . S
H408 C421 0.961 . S
H409 C421 0.959 . S
H410 C424 0.929 . S
H411 C425 0.931 . S
H412 C427 0.930 . S
C413 H401 0.930 . S
C413 C414 1.399 . S
C413 C418 1.399 . S
C414 C413 1.399 . S
C414 C415 1.376 . S
C415 H402 0.930 . S
C415 C414 1.376 . S
C415 C416 1.388 . S
C416 H403 0.930 . S
C416 C415 1.388 . S
C416 C417 1.390 . S
C417 C416 1.390 . S
C417 C418 1.394 . S
C417 C423 1.465 . S
C418 C413 1.399 . S
C418 C417 1.394 . S
C418 C419 1.516 . S
C419 C418 1.516 . S
C419 C420 1.502 . S
C419 C421 1.561 . S
C419 C422 1.526 . S
C420 H404 0.959 . S
C420 H405 0.959 . S
C420 H406 0.961 . S
C420 C419 1.502 . S
C421 H407 0.960 . S
C421 H408 0.961 . S
C421 H409 0.959 . S
C421 C419 1.561 . S
C422 C419 1.526 . S
C422 C423 1.396 . S
C422 C427 1.390 . S
C423 C417 1.465 . S
C423 C422 1.396 . S
C423 C424 1.399 . S
C424 H410 0.929 . S
C424 C423 1.399 . S
C424 C425 1.385 . S
C425 H411 0.931 . S
C425 C424 1.385 . S
C425 C426 1.389 . S
C426 C425 1.389 . S
C426 C427 1.387 . S
C427 H412 0.930 . S
C427 C422 1.390 . S
C427 C426 1.387 . S
H428 C440 0.930 . S
H429 C442 0.930 . S
H430 C443 0.930 . S
H431 C447 0.959 . S
H432 C447 0.959 1_545 S
H433 C447 0.961 . S
H434 C448 0.960 . S
H435 C448 0.961 1_545 S
H436 C448 0.959 1_545 S
H437 C451 0.929 . S
H438 C452 0.931 . S
H439 C454 0.930 . S
C440 H428 0.930 . S
C440 C441 1.399 . S
C440 C445 1.399 . S
C441 C440 1.399 . S
C441 C442 1.376 . S
C442 H429 0.930 . S
C442 C441 1.376 . S
C442 C443 1.388 . S
C443 H430 0.930 . S
C443 C442 1.388 . S
C443 C444 1.390 . S
C444 C443 1.390 . S
C444 C445 1.394 . S
C444 C450 1.465 1_565 S
C445 C440 1.399 . S
C445 C444 1.394 . S
C445 C446 1.516 . S
C446 C445 1.516 . S
C446 C447 1.502 . S
C446 C448 1.561 . S
C446 C449 1.526 1_565 S
C447 H431 0.959 . S
C447 H432 0.959 1_565 S
C447 H433 0.961 . S
C447 C446 1.502 . S
C448 H434 0.960 . S
C448 H435 0.961 1_565 S
C448 H436 0.959 1_565 S
C448 C446 1.561 . S
C449 C446 1.526 1_545 S
C449 C450 1.396 . S
C449 C454 1.390 . S
C450 C444 1.465 1_545 S
C450 C449 1.396 . S
C450 C451 1.399 . S
C451 H437 0.929 . S
C451 C450 1.399 . S
C451 C452 1.385 . S
C452 H438 0.931 . S
C452 C451 1.385 . S
C452 C453 1.389 . S
C453 C452 1.389 . S
C453 C454 1.387 . S
C454 H439 0.930 . S
C454 C449 1.390 . S
C454 C453 1.387 . S
H455 C467 0.930 . S
H456 C469 0.930 . S
H457 C470 0.930 . S
H458 C474 0.959 . S
H459 C474 0.959 . S
H460 C474 0.961 . S
H461 C475 0.960 . S
H462 C475 0.961 . S
H463 C475 0.959 . S
H464 C478 0.929 . S
H465 C479 0.931 . S
H466 C481 0.930 . S
C467 H455 0.930 . S
C467 C468 1.399 . S
C467 C472 1.399 . S
C468 C467 1.399 . S
C468 C469 1.376 . S
C469 H456 0.930 . S
C469 C468 1.376 . S
C469 C470 1.388 . S
C470 H457 0.930 . S
C470 C469 1.388 . S
C470 C471 1.390 . S
C471 C470 1.390 . S
C471 C472 1.394 . S
C471 C477 1.465 . S
C472 C467 1.399 . S
C472 C471 1.394 . S
C472 C473 1.516 . S
C473 C472 1.516 . S
C473 C474 1.502 . S
C473 C475 1.561 . S
C473 C476 1.526 . S
C474 H458 0.959 . S
C474 H459 0.959 . S
C474 H460 0.961 . S
C474 C473 1.502 . S
C475 H461 0.960 . S
C475 H462 0.961 . S
C475 H463 0.959 . S
C475 C473 1.561 . S
C476 C473 1.526 . S
C476 C477 1.396 . S
C476 C481 1.390 . S
C477 C471 1.465 . S
C477 C476 1.396 . S
C477 C478 1.399 . S
C478 H464 0.929 . S
C478 C477 1.399 . S
C478 C479 1.385 . S
C479 H465 0.931 . S
C479 C478 1.385 . S
C479 C480 1.389 . S
C480 C479 1.389 . S
C480 C481 1.387 . S
C481 H466 0.930 . S
C481 C476 1.390 . S
C481 C480 1.387 . S
H482 C494 0.930 . S
H483 C496 0.930 . S
H484 C497 0.930 . S
H485 C501 0.959 . S
H486 C501 0.959 . S
H487 C501 0.961 1_565 S
H488 C502 0.960 1_565 S
H489 C502 0.961 . S
H490 C502 0.959 . S
H491 C505 0.929 . S
H492 C506 0.931 . S
H493 C508 0.930 . S
C494 H482 0.930 . S
C494 C495 1.399 . S
C494 C499 1.399 . S
C495 C494 1.399 . S
C495 C496 1.376 . S
C496 H483 0.930 . S
C496 C495 1.376 . S
C496 C497 1.388 . S
C497 H484 0.930 . S
C497 C496 1.388 . S
C497 C498 1.390 . S
C498 C497 1.390 . S
C498 C499 1.394 . S
C498 C504 1.465 1_565 S
C499 C494 1.399 . S
C499 C498 1.394 . S
C499 C500 1.516 1_565 S
C500 C499 1.516 1_545 S
C500 C501 1.502 . S
C500 C502 1.561 . S
C500 C503 1.526 . S
C501 H485 0.959 . S
C501 H486 0.959 . S
C501 H487 0.961 1_545 S
C501 C500 1.502 . S
C502 H488 0.960 1_545 S
C502 H489 0.961 . S
C502 H490 0.959 . S
C502 C500 1.561 . S
C503 C500 1.526 . S
C503 C504 1.396 . S
C503 C508 1.390 . S
C504 C498 1.465 1_545 S
C504 C503 1.396 . S
C504 C505 1.399 . S
C505 H491 0.929 . S
C505 C504 1.399 . S
C505 C506 1.385 . S
C506 H492 0.931 . S
C506 C505 1.385 . S
C506 C507 1.389 . S
C507 C506 1.389 . S
C507 C508 1.387 . S
C508 H493 0.930 . S
C508 C503 1.390 . S
C508 C507 1.387 . S
H509 C521 0.930 . S
H510 C523 0.930 . S
H511 C524 0.930 . S
H512 C528 0.959 . S
H513 C528 0.959 . S
H514 C528 0.961 . S
H515 C529 0.960 . S
H516 C529 0.961 . S
H517 C529 0.959 . S
H518 C532 0.929 . S
H519 C533 0.931 . S
H520 C535 0.930 . S
C521 H509 0.930 . S
C521 C522 1.399 . S
C521 C526 1.399 . S
C522 C521 1.399 . S
C522 C523 1.376 . S
C523 H510 0.930 . S
C523 C522 1.376 . S
C523 C524 1.388 . S
C524 H511 0.930 . S
C524 C523 1.388 . S
C524 C525 1.390 . S
C525 C524 1.390 . S
C525 C526 1.394 . S
C525 C531 1.465 . S
C526 C521 1.399 . S
C526 C525 1.394 . S
C526 C527 1.516 . S
C527 C526 1.516 . S
C527 C528 1.502 . S
C527 C529 1.561 . S
C527 C530 1.526 . S
C528 H512 0.959 . S
C528 H513 0.959 . S
C528 H514 0.961 . S
C528 C527 1.502 . S
C529 H515 0.960 . S
C529 H516 0.961 . S
C529 H517 0.959 . S
C529 C527 1.561 . S
C530 C527 1.526 . S
C530 C531 1.396 . S
C530 C535 1.390 . S
C531 C525 1.465 . S
C531 C530 1.396 . S
C531 C532 1.399 . S
C532 H518 0.929 . S
C532 C531 1.399 . S
C532 C533 1.385 . S
C533 H519 0.931 . S
C533 C532 1.385 . S
C533 C534 1.389 . S
C534 C533 1.389 . S
C534 C535 1.387 . S
C535 H520 0.930 . S
C535 C530 1.390 . S
C535 C534 1.387 . S
H536 C548 0.930 . S
H537 C550 0.930 . S
H538 C551 0.930 . S
H539 C555 0.959 . S
H540 C555 0.959 . S
H541 C555 0.961 . S
H542 C556 0.960 . S
H543 C556 0.961 . S
H544 C556 0.959 . S
H545 C559 0.929 . S
H546 C560 0.931 . S
H547 C562 0.931 . S
C548 H536 0.930 . S
C548 C549 1.399 . S
C548 C553 1.399 . S
C549 C548 1.399 . S
C549 C550 1.376 . S
C550 H537 0.930 . S
C550 C549 1.376 . S
C550 C551 1.388 . S
C551 H538 0.930 . S
C551 C550 1.388 . S
C551 C552 1.390 . S
C552 C551 1.390 . S
C552 C553 1.394 . S
C552 C558 1.469 . S
C553 C548 1.399 . S
C553 C552 1.394 . S
C553 C554 1.516 . S
C554 C553 1.516 . S
C554 C555 1.502 1_554 S
C554 C556 1.561 . S
C554 C557 1.526 . S
C555 H539 0.959 . S
C555 H540 0.959 . S
C555 H541 0.961 . S
C555 C554 1.502 1_556 S
C556 H542 0.960 . S
C556 H543 0.961 . S
C556 H544 0.959 . S
C556 C554 1.561 . S
C557 C554 1.526 . S
C557 C558 1.398 . S
C557 C562 1.390 1_554 S
C558 C552 1.469 . S
C558 C557 1.398 . S
C558 C559 1.394 1_554 S
C559 H545 0.929 . S
C559 C558 1.394 1_556 S
C559 C560 1.385 . S
C560 H546 0.931 . S
C560 C559 1.385 . S
C560 C561 1.389 . S
C561 C560 1.389 . S
C561 C562 1.387 . S
C562 H547 0.931 . S
C562 C557 1.390 1_556 S
C562 C561 1.387 . S
H563 C575 0.930 . S
H564 C577 0.930 . S
H565 C578 0.930 . S
H566 C582 0.959 . S
H567 C582 0.961 . S
H568 C582 0.961 . S
H569 C583 0.960 . S
H570 C583 0.961 . S
H571 C583 0.959 . S
H572 C586 0.929 . S
H573 C587 0.931 . S
H574 C589 0.930 . S
C575 H563 0.930 . S
C575 C576 1.399 1_556 S
C575 C580 1.399 . S
C576 C575 1.399 1_554 S
C576 C577 1.376 . S
C577 H564 0.930 . S
C577 C576 1.376 . S
C577 C578 1.388 . S
C578 H565 0.930 . S
C578 C577 1.388 . S
C578 C579 1.390 . S
C579 C578 1.390 . S
C579 C580 1.394 1_554 S
C579 C585 1.465 1_565 S
C580 C575 1.399 . S
C580 C579 1.394 1_556 S
C580 C581 1.516 . S
C581 C580 1.516 . S
C581 C582 1.502 . S
C581 C583 1.561 . S
C581 C584 1.526 1_565 S
C582 H566 0.959 . S
C582 H567 0.961 . S
C582 H568 0.961 . S
C582 C581 1.502 . S
C583 H569 0.960 . S
C583 H570 0.961 . S
C583 H571 0.959 . S
C583 C581 1.561 . S
C584 C581 1.526 1_545 S
C584 C585 1.396 1_556 S
C584 C589 1.390 . S
C585 C579 1.465 1_545 S
C585 C584 1.396 1_554 S
C585 C586 1.399 . S
C586 H572 0.929 . S
C586 C585 1.399 . S
C586 C587 1.385 . S
C587 H573 0.931 . S
C587 C586 1.385 . S
C587 C588 1.389 1_554 S
C588 C587 1.389 1_556 S
C588 C589 1.387 . S
C589 H574 0.930 . S
C589 C584 1.390 . S
C589 C588 1.387 . S
H590 C602 0.930 . S
H591 C604 0.930 . S
H592 C605 0.930 . S
H593 C609 0.959 . S
H594 C609 0.959 . S
H595 C609 0.961 . S
H596 C610 0.960 . S
H597 C610 0.961 . S
H598 C610 0.959 . S
H599 C613 0.929 . S
H600 C614 0.931 . S
H601 C616 0.930 . S
C602 H590 0.930 . S
C602 C603 1.399 . S
C602 C607 1.399 . S
C603 C602 1.399 . S
C603 C604 1.376 1_556 S
C604 H591 0.930 . S
C604 C603 1.376 1_554 S
C604 C605 1.388 . S
C605 H592 0.930 . S
C605 C604 1.388 . S
C605 C606 1.390 . S
C606 C605 1.390 . S
C606 C607 1.394 1_554 S
C606 C612 1.465 . S
C607 C602 1.399 . S
C607 C606 1.394 1_556 S
C607 C608 1.516 . S
C608 C607 1.516 . S
C608 C609 1.502 . S
C608 C610 1.561 . S
C608 C611 1.526 . S
C609 H593 0.959 . S
C609 H594 0.959 . S
C609 H595 0.961 . S
C609 C608 1.502 . S
C610 H596 0.960 . S
C610 H597 0.961 . S
C610 H598 0.959 . S
C610 C608 1.561 . S
C611 C608 1.526 . S
C611 C612 1.396 1_556 S
C611 C616 1.390 . S
C612 C606 1.465 . S
C612 C611 1.396 1_554 S
C612 C613 1.399 . S
C613 H599 0.929 . S
C613 C612 1.399 . S
C613 C614 1.385 . S
C614 H600 0.931 . S
C614 C613 1.385 . S
C614 C615 1.389 . S
C615 C614 1.389 . S
C615 C616 1.387 1_554 S
C616 H601 0.930 . S
C616 C611 1.390 . S
C616 C615 1.387 1_556 S
H617 C629 0.930 . S
H618 C631 0.930 . S
H619 C632 0.930 . S
H620 C636 0.959 . S
H621 C636 0.959 . S
H622 C636 0.961 . S
H623 C637 0.960 . S
H624 C637 0.961 1_565 S
H625 C637 0.959 . S
H626 C640 0.929 . S
H627 C641 0.931 . S
H628 C643 0.930 . S
C629 H617 0.930 . S
C629 C630 1.399 1_554 S
C629 C634 1.399 . S
C630 C629 1.399 1_556 S
C630 C631 1.376 . S
C631 H618 0.930 . S
C631 C630 1.376 . S
C631 C632 1.388 . S
C632 H619 0.930 . S
C632 C631 1.388 . S
C632 C633 1.390 . S
C633 C632 1.390 . S
C633 C634 1.394 1_556 S
C633 C639 1.465 1_545 S
C634 C629 1.399 . S
C634 C633 1.394 1_554 S
C634 C635 1.516 . S
C635 C634 1.516 . S
C635 C636 1.502 . S
C635 C637 1.561 . S
C635 C638 1.526 1_545 S
C636 H620 0.959 . S
C636 H621 0.959 . S
C636 H622 0.961 . S
C636 C635 1.502 . S
C637 H623 0.960 . S
C637 H624 0.961 1_545 S
C637 H625 0.959 . S
C637 C635 1.561 . S
C638 C635 1.526 1_565 S
C638 C639 1.396 1_554 S
C638 C643 1.390 . S
C639 C633 1.465 1_565 S
C639 C638 1.396 1_556 S
C639 C640 1.399 . S
C640 H626 0.929 . S
C640 C639 1.399 . S
C640 C641 1.385 . S
C641 H627 0.931 . S
C641 C640 1.385 . S
C641 C642 1.389 1_556 S
C642 C641 1.389 1_554 S
C642 C643 1.387 . S
C643 H628 0.930 . S
C643 C638 1.390 . S
C643 C642 1.387 . S
H644 C656 0.930 . S
H645 C658 0.930 . S
H646 C659 0.930 . S
H647 C663 0.959 . S
H648 C663 0.958 . S
H649 C663 0.962 1_554 S
H650 C664 0.960 . S
H651 C664 0.961 1_556 S
H652 C664 0.959 . S
H653 C667 0.929 . S
H654 C668 0.931 . S
H655 C670 0.930 . S
C656 H644 0.930 . S
C656 C657 1.399 . S
C656 C661 1.399 . S
C657 C656 1.399 . S
C657 C658 1.376 . S
C658 H645 0.930 . S
C658 C657 1.376 . S
C658 C659 1.388 . S
C659 H646 0.930 . S
C659 C658 1.388 . S
C659 C660 1.390 . S
C660 C659 1.390 . S
C660 C661 1.394 . S
C660 C666 1.465 . S
C661 C656 1.399 . S
C661 C660 1.394 . S
C661 C662 1.516 . S
C662 C661 1.516 . S
C662 C663 1.502 1_554 S
C662 C664 1.561 . S
C662 C665 1.526 1_554 S
C663 H647 0.959 . S
C663 H648 0.958 . S
C663 H649 0.962 1_556 S
C663 C662 1.502 1_556 S
C664 H650 0.960 . S
C664 H651 0.961 1_554 S
C664 H652 0.959 . S
C664 C662 1.561 . S
C665 C662 1.526 1_556 S
C665 C666 1.396 1_556 S
C665 C670 1.390 . S
C666 C660 1.465 . S
C666 C665 1.396 1_554 S
C666 C667 1.399 1_554 S
C667 H653 0.929 . S
C667 C666 1.399 1_556 S
C667 C668 1.385 . S
C668 H654 0.931 . S
C668 C667 1.385 . S
C668 C669 1.389 . S
C669 C668 1.389 . S
C669 C670 1.387 . S
C670 H655 0.930 . S
C670 C665 1.390 . S
C670 C669 1.387 . S
H671 C683 0.930 . S
H672 C685 0.930 . S
H673 C686 0.930 . S
H674 C690 0.956 1_556 S
H675 C690 0.944 1_556 S
H676 C690 0.974 . S
H677 C691 0.960 . S
H678 C691 0.961 1_556 S
H679 C691 0.959 . S
H680 C694 0.929 . S
H681 C695 0.931 . S
H682 C697 0.930 . S
C683 H671 0.930 . S
C683 C684 1.399 . S
C683 C688 1.399 . S
C684 C683 1.399 . S
C684 C685 1.376 . S
C685 H672 0.930 . S
C685 C684 1.376 . S
C685 C686 1.388 . S
C686 H673 0.930 . S
C686 C685 1.388 . S
C686 C687 1.390 . S
C687 C686 1.390 . S
C687 C688 1.394 . S
C687 C693 1.465 . S
C688 C683 1.399 . S
C688 C687 1.394 . S
C688 C689 1.516 . S
C689 C688 1.516 . S
C689 C690 1.507 . S
C689 C691 1.561 . S
C689 C692 1.526 1_554 S
C690 H674 0.956 1_554 S
C690 H675 0.944 1_554 S
C690 H676 0.974 . S
C690 C689 1.507 . S
C691 H677 0.960 . S
C691 H678 0.961 1_554 S
C691 H679 0.959 . S
C691 C689 1.561 . S
C692 C689 1.526 1_556 S
C692 C693 1.396 1_556 S
C692 C697 1.390 . S
C693 C687 1.465 . S
C693 C692 1.396 1_554 S
C693 C694 1.399 1_554 S
C694 H680 0.929 . S
C694 C693 1.399 1_556 S
C694 C695 1.385 . S
C695 H681 0.931 . S
C695 C694 1.385 . S
C695 C696 1.389 . S
C696 C695 1.389 . S
C696 C697 1.387 . S
C697 H682 0.930 . S
C697 C692 1.390 . S
C697 C696 1.387 . S
H698 C710 0.930 . S
H699 C712 0.930 . S
H700 C713 0.930 . S
H701 C717 0.959 . S
H702 C717 0.959 . S
H703 C717 0.961 . S
H704 C718 0.960 . S
H705 C718 0.961 . S
H706 C718 0.959 . S
H707 C721 0.929 . S
H708 C722 0.931 . S
H709 C724 0.930 . S
C710 H698 0.930 . S
C710 C711 1.399 . S
C710 C715 1.399 . S
C711 C710 1.399 . S
C711 C712 1.376 . S
C712 H699 0.930 . S
C712 C711 1.376 . S
C712 C713 1.388 . S
C713 H700 0.930 . S
C713 C712 1.388 . S
C713 C714 1.390 . S
C714 C713 1.390 . S
C714 C715 1.394 . S
C714 C720 1.465 1_554 S
C715 C710 1.399 . S
C715 C714 1.394 . S
C715 C716 1.516 1_554 S
C716 C715 1.516 1_556 S
C716 C717 1.502 . S
C716 C718 1.561 . S
C716 C719 1.526 . S
C717 H701 0.959 . S
C717 H702 0.959 . S
C717 H703 0.961 . S
C717 C716 1.502 . S
C718 H704 0.960 . S
C718 H705 0.961 . S
C718 H706 0.959 . S
C718 C716 1.561 . S
C719 C716 1.526 . S
C719 C720 1.396 . S
C719 C724 1.390 . S
C720 C714 1.465 1_556 S
C720 C719 1.396 . S
C720 C721 1.399 . S
C721 H707 0.929 . S
C721 C720 1.399 . S
C721 C722 1.385 . S
C722 H708 0.931 . S
C722 C721 1.385 . S
C722 C723 1.389 . S
C723 C722 1.389 . S
C723 C724 1.387 . S
C724 H709 0.930 . S
C724 C719 1.390 . S
C724 C723 1.387 . S
H725 C737 0.930 . S
H726 C739 0.930 . S
H727 C740 0.930 . S
H728 C744 0.959 . S
H729 C744 0.959 . S
H730 C744 0.961 . S
H731 C745 0.960 . S
H732 C745 0.961 1_554 S
H733 C745 0.958 1_554 S
H734 C748 0.929 . S
H735 C749 0.931 . S
H736 C751 0.930 . S
C737 H725 0.930 . S
C737 C738 1.399 . S
C737 C742 1.399 . S
C738 C737 1.399 . S
C738 C739 1.376 . S
C739 H726 0.930 . S
C739 C738 1.376 . S
C739 C740 1.388 . S
C740 H727 0.930 . S
C740 C739 1.388 . S
C740 C741 1.390 . S
C741 C740 1.390 . S
C741 C742 1.394 . S
C741 C747 1.458 1_556 S
C742 C737 1.399 . S
C742 C741 1.394 . S
C742 C743 1.516 . S
C743 C742 1.516 . S
C743 C744 1.502 . S
C743 C745 1.561 . S
C743 C746 1.526 1_556 S
C744 H728 0.959 . S
C744 H729 0.959 . S
C744 H730 0.961 . S
C744 C743 1.502 . S
C745 H731 0.960 . S
C745 H732 0.961 1_556 S
C745 H733 0.958 1_556 S
C745 C743 1.561 . S
C746 C743 1.526 1_554 S
C746 C747 1.398 . S
C746 C751 1.390 . S
C747 C741 1.458 1_554 S
C747 C746 1.398 . S
C747 C748 1.403 . S
C748 H734 0.929 . S
C748 C747 1.403 . S
C748 C749 1.385 . S
C749 H735 0.931 . S
C749 C748 1.385 . S
C749 C750 1.389 . S
C750 C749 1.389 . S
C750 C751 1.387 . S
C751 H736 0.930 . S
C751 C746 1.390 . S
C751 C750 1.387 . S
H752 C764 0.930 . S
H753 C766 0.930 . S
H754 C767 0.930 . S
H755 C771 0.959 . S
H756 C771 0.959 . S
H757 C771 0.961 . S
H758 C772 0.960 . S
H759 C772 0.961 . S
H760 C772 0.959 . S
H761 C775 0.929 . S
H762 C776 0.931 . S
H763 C778 0.930 . S
C764 H752 0.930 . S
C764 C765 1.399 . S
C764 C769 1.399 . S
C765 C764 1.399 . S
C765 C766 1.376 . S
C766 H753 0.930 . S
C766 C765 1.376 . S
C766 C767 1.388 . S
C767 H754 0.930 . S
C767 C766 1.388 . S
C767 C768 1.390 . S
C768 C767 1.390 . S
C768 C769 1.394 . S
C768 C774 1.465 . S
C769 C764 1.399 . S
C769 C768 1.394 . S
C769 C770 1.516 . S
C770 C769 1.516 . S
C770 C771 1.502 . S
C770 C772 1.561 . S
C770 C773 1.526 . S
C771 H755 0.959 . S
C771 H756 0.959 . S
C771 H757 0.961 . S
C771 C770 1.502 . S
C772 H758 0.960 . S
C772 H759 0.961 . S
C772 H760 0.959 . S
C772 C770 1.561 . S
C773 C770 1.526 . S
C773 C774 1.396 . S
C773 C778 1.390 . S
C774 C768 1.465 . S
C774 C773 1.396 . S
C774 C775 1.399 . S
C775 H761 0.929 . S
C775 C774 1.399 . S
C775 C776 1.385 . S
C776 H762 0.931 . S
C776 C775 1.385 . S
C776 C777 1.389 . S
C777 C776 1.389 . S
C777 C778 1.387 . S
C778 H763 0.930 . S
C778 C773 1.390 . S
C778 C777 1.387 . S
H779 C791 0.930 . S
H780 C793 0.930 . S
H781 C794 0.930 . S
H782 C798 0.959 . S
H783 C798 0.959 . S
H784 C798 0.961 . S
H785 C799 0.960 . S
H786 C799 0.961 . S
H787 C799 0.959 . S
H788 C802 0.929 . S
H789 C803 0.931 . S
H790 C805 0.930 . S
C791 H779 0.930 . S
C791 C792 1.399 . S
C791 C796 1.399 . S
C792 C791 1.399 . S
C792 C793 1.376 . S
C793 H780 0.930 . S
C793 C792 1.376 . S
C793 C794 1.388 . S
C794 H781 0.930 . S
C794 C793 1.388 . S
C794 C795 1.390 . S
C795 C794 1.390 . S
C795 C796 1.394 . S
C795 C801 1.465 . S
C796 C791 1.399 . S
C796 C795 1.394 . S
C796 C797 1.516 . S
C797 C796 1.516 . S
C797 C798 1.502 . S
C797 C799 1.561 . S
C797 C800 1.526 . S
C798 H782 0.959 . S
C798 H783 0.959 . S
C798 H784 0.961 . S
C798 C797 1.502 . S
C799 H785 0.960 . S
C799 H786 0.961 . S
C799 H787 0.959 . S
C799 C797 1.561 . S
C800 C797 1.526 . S
C800 C801 1.396 . S
C800 C805 1.390 . S
C801 C795 1.465 . S
C801 C800 1.396 . S
C801 C802 1.399 . S
C802 H788 0.929 . S
C802 C801 1.399 . S
C802 C803 1.385 . S
C803 H789 0.931 . S
C803 C802 1.385 . S
C803 C804 1.389 . S
C804 C803 1.389 . S
C804 C805 1.387 . S
C805 H790 0.930 . S
C805 C800 1.390 . S
C805 C804 1.387 . S
H806 C818 0.930 . S
H807 C820 0.930 . S
H808 C821 0.930 . S
H809 C825 0.959 . S
H810 C825 0.959 . S
H811 C825 0.961 . S
H812 C826 0.960 . S
H813 C826 0.961 . S
H814 C826 0.959 . S
H815 C829 0.929 . S
H816 C830 0.931 . S
H817 C832 0.930 . S
C818 H806 0.930 . S
C818 C819 1.399 . S
C818 C823 1.399 . S
C819 C818 1.399 . S
C819 C820 1.376 . S
C820 H807 0.930 . S
C820 C819 1.376 . S
C820 C821 1.388 . S
C821 H808 0.930 . S
C821 C820 1.388 . S
C821 C822 1.390 . S
C822 C821 1.390 . S
C822 C823 1.394 . S
C822 C828 1.465 . S
C823 C818 1.399 . S
C823 C822 1.394 . S
C823 C824 1.516 . S
C824 C823 1.516 . S
C824 C825 1.502 . S
C824 C826 1.561 . S
C824 C827 1.526 . S
C825 H809 0.959 . S
C825 H810 0.959 . S
C825 H811 0.961 . S
C825 C824 1.502 . S
C826 H812 0.960 . S
C826 H813 0.961 . S
C826 H814 0.959 . S
C826 C824 1.561 . S
C827 C824 1.526 . S
C827 C828 1.396 . S
C827 C832 1.390 . S
C828 C822 1.465 . S
C828 C827 1.396 . S
C828 C829 1.399 . S
C829 H815 0.929 . S
C829 C828 1.399 . S
C829 C830 1.385 . S
C830 H816 0.931 . S
C830 C829 1.385 . S
C830 C831 1.389 . S
C831 C830 1.389 . S
C831 C832 1.387 . S
C832 H817 0.930 . S
C832 C827 1.390 . S
C832 C831 1.387 . S
H833 C845 0.930 . S
H834 C847 0.930 . S
H835 C848 0.930 . S
H836 C852 0.959 . S
H837 C852 0.959 . S
H838 C852 0.961 . S
H839 C853 0.960 . S
H840 C853 0.961 . S
H841 C853 0.959 . S
H842 C856 0.929 . S
H843 C857 0.931 . S
H844 C859 0.930 . S
C845 H833 0.930 . S
C845 C846 1.399 . S
C845 C850 1.399 . S
C846 C845 1.399 . S
C846 C847 1.376 . S
C847 H834 0.930 . S
C847 C846 1.376 . S
C847 C848 1.388 . S
C848 H835 0.930 . S
C848 C847 1.388 . S
C848 C849 1.390 . S
C849 C848 1.390 . S
C849 C850 1.394 . S
C849 C855 1.465 . S
C850 C845 1.399 . S
C850 C849 1.394 . S
C850 C851 1.516 . S
C851 C850 1.516 . S
C851 C852 1.502 . S
C851 C853 1.561 . S
C851 C854 1.526 . S
C852 H836 0.959 . S
C852 H837 0.959 . S
C852 H838 0.961 . S
C852 C851 1.502 . S
C853 H839 0.960 . S
C853 H840 0.961 . S
C853 H841 0.959 . S
C853 C851 1.561 . S
C854 C851 1.526 . S
C854 C855 1.396 . S
C854 C859 1.390 . S
C855 C849 1.465 . S
C855 C854 1.396 . S
C855 C856 1.399 . S
C856 H842 0.929 . S
C856 C855 1.399 . S
C856 C857 1.385 . S
C857 H843 0.931 . S
C857 C856 1.385 . S
C857 C858 1.389 . S
C858 C857 1.389 . S
C858 C859 1.387 . S
C859 H844 0.930 . S
C859 C854 1.390 . S
C859 C858 1.387 . S
H860 C872 0.930 . S
H861 C874 0.930 . S
H862 C875 0.930 . S
H863 C879 0.958 1_655 S
H864 C879 0.959 1_655 S
H865 C879 0.961 . S
H866 C880 0.960 . S
H867 C880 0.961 1_655 S
H868 C880 0.959 . S
H869 C883 0.929 . S
H870 C884 0.931 . S
H871 C886 0.930 . S
C872 H860 0.930 . S
C872 C873 1.399 . S
C872 C877 1.399 . S
C873 C872 1.399 . S
C873 C874 1.376 . S
C874 H861 0.930 . S
C874 C873 1.376 . S
C874 C875 1.388 . S
C875 H862 0.930 . S
C875 C874 1.388 . S
C875 C876 1.390 . S
C876 C875 1.390 . S
C876 C877 1.394 . S
C876 C882 1.465 1_455 S
C877 C872 1.399 . S
C877 C876 1.394 . S
C877 C878 1.516 . S
C878 C877 1.516 . S
C878 C879 1.502 . S
C878 C880 1.561 . S
C878 C881 1.526 1_455 S
C879 H863 0.958 1_455 S
C879 H864 0.959 1_455 S
C879 H865 0.961 . S
C879 C878 1.502 . S
C880 H866 0.960 . S
C880 H867 0.961 1_455 S
C880 H868 0.959 . S
C880 C878 1.561 . S
C881 C878 1.526 1_655 S
C881 C882 1.396 . S
C881 C886 1.390 . S
C882 C876 1.465 1_655 S
C882 C881 1.396 . S
C882 C883 1.399 . S
C883 H869 0.929 . S
C883 C882 1.399 . S
C883 C884 1.385 . S
C884 H870 0.931 . S
C884 C883 1.385 . S
C884 C885 1.389 . S
C885 C884 1.389 . S
C885 C886 1.387 . S
C886 H871 0.930 . S
C886 C881 1.390 . S
C886 C885 1.387 . S
H887 C899 0.930 . S
H888 C901 0.930 . S
H889 C902 0.930 . S
H890 C906 0.959 . S
H891 C906 0.959 . S
H892 C906 0.961 1_655 S
H893 C907 0.960 . S
H894 C907 0.961 1_455 S
H895 C907 0.959 . S
H896 C910 0.929 . S
H897 C911 0.931 . S
H898 C913 0.930 . S
C899 H887 0.930 . S
C899 C900 1.399 . S
C899 C904 1.399 . S
C900 C899 1.399 . S
C900 C901 1.376 . S
C901 H888 0.930 . S
C901 C900 1.376 . S
C901 C902 1.388 . S
C902 H889 0.930 . S
C902 C901 1.388 . S
C902 C903 1.390 . S
C903 C902 1.390 . S
C903 C904 1.394 . S
C903 C909 1.465 1_655 S
C904 C899 1.399 . S
C904 C903 1.394 . S
C904 C905 1.537 . S
C905 C904 1.537 . S
C905 C906 1.502 1_655 S
C905 C907 1.561 . S
C905 C908 1.505 1_655 S
C906 H890 0.959 . S
C906 H891 0.959 . S
C906 H892 0.961 1_455 S
C906 C905 1.502 1_455 S
C907 H893 0.960 . S
C907 H894 0.961 1_655 S
C907 H895 0.959 . S
C907 C905 1.561 . S
C908 C905 1.505 1_455 S
C908 C909 1.396 . S
C908 C913 1.390 . S
C909 C903 1.465 1_455 S
C909 C908 1.396 . S
C909 C910 1.399 . S
C910 H896 0.929 . S
C910 C909 1.399 . S
C910 C911 1.385 . S
C911 H897 0.931 . S
C911 C910 1.385 . S
C911 C912 1.389 . S
C912 C911 1.389 . S
C912 C913 1.387 . S
C913 H898 0.930 . S
C913 C908 1.390 . S
C913 C912 1.387 . S
H914 C926 0.930 1_554 S
H915 C928 0.930 . S
H916 C929 0.930 . S
H917 C933 0.959 . S
H918 C933 0.959 . S
H919 C933 0.961 . S
H920 C934 0.960 . S
H921 C934 0.961 . S
H922 C934 0.959 . S
H923 C937 0.929 . S
H924 C938 0.931 . S
H925 C940 0.930 1_554 S
C926 H914 0.930 1_556 S
C926 C927 1.399 . S
C926 C931 1.399 . S
C927 C926 1.399 . S
C927 C928 1.376 . S
C928 H915 0.930 . S
C928 C927 1.376 . S
C928 C929 1.388 . S
C929 H916 0.930 . S
C929 C928 1.388 . S
C929 C930 1.390 . S
C930 C929 1.390 . S
C930 C931 1.394 . S
C930 C936 1.465 . S
C931 C926 1.399 . S
C931 C930 1.394 . S
C931 C932 1.516 1_556 S
C932 C931 1.516 1_554 S
C932 C933 1.502 . S
C932 C934 1.561 . S
C932 C935 1.526 1_554 S
C933 H917 0.959 . S
C933 H918 0.959 . S
C933 H919 0.961 . S
C933 C932 1.502 . S
C934 H920 0.960 . S
C934 H921 0.961 . S
C934 H922 0.959 . S
C934 C932 1.561 . S
C935 C932 1.526 1_556 S
C935 C936 1.396 . S
C935 C940 1.390 . S
C936 C930 1.465 . S
C936 C935 1.396 . S
C936 C937 1.399 . S
C937 H923 0.929 . S
C937 C936 1.399 . S
C937 C938 1.385 . S
C938 H924 0.931 . S
C938 C937 1.385 . S
C938 C939 1.389 . S
C939 C938 1.389 . S
C939 C940 1.387 . S
C940 H925 0.930 1_556 S
C940 C935 1.390 . S
C940 C939 1.387 . S
H941 C953 0.930 1_556 S
H942 C955 0.930 . S
H943 C956 0.930 . S
H944 C960 0.959 . S
H945 C960 0.959 . S
H946 C960 0.961 . S
H947 C961 0.960 . S
H948 C961 0.961 . S
H949 C961 0.959 . S
H950 C964 0.929 . S
H951 C965 0.931 . S
H952 C967 0.930 1_556 S
C953 H941 0.930 1_554 S
C953 C954 1.399 . S
C953 C958 1.399 . S
C954 C953 1.399 . S
C954 C955 1.376 . S
C955 H942 0.930 . S
C955 C954 1.376 . S
C955 C956 1.388 . S
C956 H943 0.930 . S
C956 C955 1.388 . S
C956 C957 1.390 . S
C957 C956 1.390 . S
C957 C958 1.394 . S
C957 C963 1.465 . S
C958 C953 1.399 . S
C958 C957 1.394 . S
C958 C959 1.516 1_554 S
C959 C958 1.516 1_556 S
C959 C960 1.502 . S
C959 C961 1.561 . S
C959 C962 1.526 1_556 S
C960 H944 0.959 . S
C960 H945 0.959 . S
C960 H946 0.961 . S
C960 C959 1.502 . S
C961 H947 0.960 . S
C961 H948 0.961 . S
C961 H949 0.959 . S
C961 C959 1.561 . S
C962 C959 1.526 1_554 S
C962 C963 1.396 . S
C962 C967 1.390 . S
C963 C957 1.465 . S
C963 C962 1.396 . S
C963 C964 1.399 . S
C964 H950 0.929 . S
C964 C963 1.399 . S
C964 C965 1.385 . S
C965 H951 0.931 . S
C965 C964 1.385 . S
C965 C966 1.389 . S
C966 C965 1.389 . S
C966 C967 1.387 . S
C967 H952 0.930 1_554 S
C967 C962 1.390 . S
C967 C966 1.387 . S
C333 C19 2.272 . S
C345 C290 2.265 . S
C360 C250 2.283 . S
C372 C59 2.251 . S
C387 C219 2.261 . S
C399 C90 2.264 . S
C414 C179 2.273 . S
C426 C130 2.264 . S
C441 C89 1.509 . S
C453 C9 1.402 . S
C468 C49 1.471 . S
C480 C129 1.544 . S
C495 C138 1.405 . S
C507 C58 1.502 . S
C522 C98 1.481 . S
C534 C18 1.520 . S
C549 C169 1.478 . S
C561 C249 1.502 . S
C576 C209 1.497 . S
C588 C289 1.535 . S
C603 C298 1.411 . S
C615 C218 1.507 . S
C630 C258 1.498 . S
C642 C178 1.536 . S
C657 C6 1.421 . S
C669 C15 1.483 . S
C684 C46 1.422 . S
C696 C55 1.482 . S
C711 C86 1.420 . S
C723 C95 1.485 . S
C738 C135 1.472 . S
C750 C126 1.451 . S
C765 C175 1.474 . S
C777 C166 1.449 . S
C792 C206 1.425 . S
C804 C215 1.479 . S
C819 C255 1.457 . S
C831 C246 1.466 . S
C846 C295 1.439 . S
C858 C286 1.481 . S
C873 C10 2.175 . S
C885 C50 2.180 . S
C900 C139 2.128 . S
C912 C99 2.124 . S
C927 C170 2.183 . S
C939 C210 2.182 . S
C954 C299 2.169 . S
C966 C259 2.183 . S
