# Generated by pormake.
# Topology uoz, (4)-cn, num edge types: 1
# Building blocks:
#     Node 0, Type 0, BuildingBlock: CEKHIL_clean_sbu_0, # of connection points: 4
#     Node 1, Type 0, BuildingBlock: CEKHIL_clean_sbu_0, # of connection points: 4
#     Node 2, Type 0, BuildingBlock: CEKHIL_clean_sbu_0, # of connection points: 4
#     Node 3, Type 0, BuildingBlock: CEKHIL_clean_sbu_0, # of connection points: 4
#     Node 4, Type 0, BuildingBlock: CEKHIL_clean_sbu_0, # of connection points: 4
#     Node 5, Type 0, BuildingBlock: CEKHIL_clean_sbu_0, # of connection points: 4
#     Node 6, Type 0, BuildingBlock: CEKHIL_clean_sbu_0, # of connection points: 4
#     Node 7, Type 0, BuildingBlock: CEKHIL_clean_sbu_0, # of connection points: 4
#     Node 8, Type 0, BuildingBlock: CEKHIL_clean_sbu_0, # of connection points: 4
#     Node 9, Type 0, BuildingBlock: CEKHIL_clean_sbu_0, # of connection points: 4
#     Node 10, Type 0, BuildingBlock: CEKHIL_clean_sbu_0, # of connection points: 4
#     Node 11, Type 0, BuildingBlock: CEKHIL_clean_sbu_0, # of connection points: 4
#     Node 12, Type 0, BuildingBlock: CEKHIL_clean_sbu_0, # of connection points: 4
#     Node 13, Type 0, BuildingBlock: CEKHIL_clean_sbu_0, # of connection points: 4
#     Node 14, Type 0, BuildingBlock: CEKHIL_clean_sbu_0, # of connection points: 4
#     Node 15, Type 0, BuildingBlock: CEKHIL_clean_sbu_0, # of connection points: 4
#     Edge 16, Type (0, 0), BuildingBlock: XIVTED_clean_linker_0, # of connection points: 2
#     Edge 17, Type (0, 0), BuildingBlock: XIVTED_clean_linker_0, # of connection points: 2
#     Edge 18, Type (0, 0), BuildingBlock: XIVTED_clean_linker_0, # of connection points: 2
#     Edge 19, Type (0, 0), BuildingBlock: XIVTED_clean_linker_0, # of connection points: 2
#     Edge 20, Type (0, 0), BuildingBlock: XIVTED_clean_linker_0, # of connection points: 2
#     Edge 21, Type (0, 0), BuildingBlock: XIVTED_clean_linker_0, # of connection points: 2
#     Edge 22, Type (0, 0), BuildingBlock: XIVTED_clean_linker_0, # of connection points: 2
#     Edge 23, Type (0, 0), BuildingBlock: XIVTED_clean_linker_0, # of connection points: 2
#     Edge 24, Type (0, 0), BuildingBlock: XIVTED_clean_linker_0, # of connection points: 2
#     Edge 25, Type (0, 0), BuildingBlock: XIVTED_clean_linker_0, # of connection points: 2
#     Edge 26, Type (0, 0), BuildingBlock: XIVTED_clean_linker_0, # of connection points: 2
#     Edge 27, Type (0, 0), BuildingBlock: XIVTED_clean_linker_0, # of connection points: 2
#     Edge 28, Type (0, 0), BuildingBlock: XIVTED_clean_linker_0, # of connection points: 2
#     Edge 29, Type (0, 0), BuildingBlock: XIVTED_clean_linker_0, # of connection points: 2
#     Edge 30, Type (0, 0), BuildingBlock: XIVTED_clean_linker_0, # of connection points: 2
#     Edge 31, Type (0, 0), BuildingBlock: XIVTED_clean_linker_0, # of connection points: 2
#     Edge 32, Type (0, 0), BuildingBlock: XIVTED_clean_linker_0, # of connection points: 2
#     Edge 33, Type (0, 0), BuildingBlock: XIVTED_clean_linker_0, # of connection points: 2
#     Edge 34, Type (0, 0), BuildingBlock: XIVTED_clean_linker_0, # of connection points: 2
#     Edge 35, Type (0, 0), BuildingBlock: XIVTED_clean_linker_0, # of connection points: 2
#     Edge 36, Type (0, 0), BuildingBlock: XIVTED_clean_linker_0, # of connection points: 2
#     Edge 37, Type (0, 0), BuildingBlock: XIVTED_clean_linker_0, # of connection points: 2
#     Edge 38, Type (0, 0), BuildingBlock: XIVTED_clean_linker_0, # of connection points: 2
#     Edge 39, Type (0, 0), BuildingBlock: XIVTED_clean_linker_0, # of connection points: 2
#     Edge 40, Type (0, 0), BuildingBlock: XIVTED_clean_linker_0, # of connection points: 2
#     Edge 41, Type (0, 0), BuildingBlock: XIVTED_clean_linker_0, # of connection points: 2
#     Edge 42, Type (0, 0), BuildingBlock: XIVTED_clean_linker_0, # of connection points: 2
#     Edge 43, Type (0, 0), BuildingBlock: XIVTED_clean_linker_0, # of connection points: 2
#     Edge 44, Type (0, 0), BuildingBlock: XIVTED_clean_linker_0, # of connection points: 2
#     Edge 45, Type (0, 0), BuildingBlock: XIVTED_clean_linker_0, # of connection points: 2
#     Edge 46, Type (0, 0), BuildingBlock: XIVTED_clean_linker_0, # of connection points: 2
#     Edge 47, Type (0, 0), BuildingBlock: XIVTED_clean_linker_0, # of connection points: 2
# Relax obj value: 0.187
# Max RMSD: 0.171
# Mean RMSD: 0.171
data_MOF--net-uoz--node1-CEKHIL_clean_sbu_0--edge1-XIVTED_clean_linker_0
_symmetry_space_group_name_H-M    P1
_symmetry_Int_Tables_number       1
_symmetry_cell_setting            triclinic
loop_
_symmetry_equiv_pos_as_xyz
'x, y, z'
_cell_length_a     60.131344
_cell_length_b     60.143375
_cell_length_c     20.699467
_cell_angle_alpha  89.965433
_cell_angle_beta   89.982929
_cell_angle_gamma 90.007433
loop_
_atom_site_label
_atom_site_type_symbol
_atom_site_fract_x
_atom_site_fract_y
_atom_site_fract_z
_atom_type_partial_charge
Co0 Co 0.03085 0.58447 0.30476 0.0
O1 O 0.01706 0.55899 0.346 0.0
O2 O 0.0469 0.57579 0.38348 0.0
C3 C 0.99885 0.60355 0.28455 0.0
O4 O 0.04926 0.61164 0.27523 0.0
Co5 Co 0.01882 0.5963 0.16067 0.0
O6 O 0.03572 0.62358 0.17959 0.0
C7 C 0.05336 0.56252 0.18959 0.0
C8 C 0.03234 0.5599 0.39006 0.0
C9 C 0.04898 0.62549 0.22723 0.0
O10 O 0.05065 0.56448 0.25111 0.0
O11 O 0.04175 0.57291 0.14751 0.0
O12 O 0.00801 0.60451 0.34143 0.0
O13 O 0.00788 0.58963 0.24554 0.0
Co14 Co 0.70567 0.74647 0.55715 0.0
O15 O 0.73106 0.73282 0.59932 0.0
O16 O 0.71385 0.76253 0.63612 0.0
C17 C 0.6868 0.71446 0.53573 0.0
O18 O 0.6786 0.76482 0.52694 0.0
Co19 Co 0.69447 0.73481 0.4125 0.0
O20 O 0.66712 0.75172 0.43038 0.0
C21 C 0.72776 0.7696 0.44334 0.0
C22 C 0.72987 0.74814 0.6432 0.0
C23 C 0.665 0.76479 0.4784 0.0
O24 O 0.7258 0.76647 0.50466 0.0
O25 O 0.71749 0.75823 0.40055 0.0
O26 O 0.68557 0.72351 0.59273 0.0
O27 O 0.70087 0.7236 0.49731 0.0
Co28 Co 0.54519 0.42212 0.80735 0.0
O29 O 0.55895 0.447 0.85164 0.0
O30 O 0.52892 0.42978 0.88639 0.0
C31 C 0.57719 0.40322 0.78552 0.0
O32 O 0.52665 0.39549 0.77474 0.0
Co33 Co 0.55723 0.41206 0.66232 0.0
O34 O 0.53999 0.38473 0.67778 0.0
C35 C 0.52277 0.44553 0.69458 0.0
C36 C 0.54344 0.44559 0.89496 0.0
C37 C 0.52672 0.38231 0.72524 0.0
O38 O 0.52557 0.4429 0.75581 0.0
O39 O 0.53421 0.43555 0.65134 0.0
O40 O 0.5679 0.40153 0.84212 0.0
O41 O 0.56824 0.41764 0.74783 0.0
Co42 Co 0.86664 0.26096 0.05242 0.0
O43 O 0.84011 0.273 0.0931 0.0
O44 O 0.85985 0.24541 0.13326 0.0
C45 C 0.88348 0.29389 0.02861 0.0
O46 O 0.89493 0.24423 0.02359 0.0
Co47 Co 0.8771 0.272 0.90695 0.0
O48 O 0.90566 0.2575 0.9265 0.0
C49 C 0.84571 0.23573 0.94051 0.0
C50 C 0.84263 0.25842 0.13868 0.0
C51 C 0.9086 0.24488 0.9752 0.0
O52 O 0.84786 0.23919 1.00163 0.0
O53 O 0.85514 0.24746 0.89684 0.0
O54 O 0.88508 0.28547 0.08632 0.0
O55 O 0.86999 0.28362 0.99078 0.0
Co56 Co 0.02823 0.4211 0.8357 0.0
O57 O 0.01526 0.4465 0.79186 0.0
O58 O 0.04504 0.42883 0.75749 0.0
C59 C 0.99565 0.40286 0.85534 0.0
O60 O 0.04598 0.39393 0.86836 0.0
Co61 Co 0.01487 0.41069 0.97977 0.0
O62 O 0.03175 0.38314 0.96431 0.0
C63 C 0.05053 0.44332 0.95059 0.0
C64 C 0.03089 0.44498 0.74898 0.0
C65 C 0.04533 0.38063 0.91763 0.0
O66 O 0.04807 0.44112 0.88906 0.0
O67 O 0.03844 0.43348 0.99266 0.0
O68 O 0.00522 0.40117 0.79916 0.0
O69 O 0.00473 0.4169 0.89383 0.0
Co70 Co 0.86956 0.74561 0.08627 0.0
O71 O 0.84441 0.73171 0.0437 0.0
O72 O 0.86116 0.7618 1.00756 0.0
C73 C 0.88884 0.71379 0.10694 0.0
O74 O 0.89635 0.76422 0.1173 0.0
Co75 Co 0.88056 0.73347 0.23084 0.0
O76 O 0.90753 0.75115 0.2143 0.0
C77 C 0.84673 0.76779 0.20049 0.0
C78 C 0.84539 0.74716 1.00011 0.0
C79 C 0.9097 0.76431 0.16646 0.0
O80 O 0.84911 0.76515 0.1391 0.0
O81 O 0.8569 0.7562 0.24306 0.0
O82 O 0.89001 0.72305 0.0502 0.0
O83 O 0.87461 0.72259 0.14546 0.0
Co84 Co 0.54426 0.58628 0.33508 0.0
O85 O 0.55807 0.56014 0.29739 0.0
O86 O 0.52879 0.57697 0.25629 0.0
C87 C 0.57639 0.60499 0.3561 0.0
O88 O 0.52576 0.61388 0.35951 0.0
Co89 Co 0.55416 0.60147 0.47718 0.0
O90 O 0.54148 0.62986 0.44665 0.0
C91 C 0.52063 0.56626 0.45103 0.0
C92 C 0.54316 0.56083 0.25217 0.0
C93 C 0.52765 0.6301 0.40013 0.0
O94 O 0.52389 0.56718 0.3895 0.0
O95 O 0.5315 0.57782 0.49221 0.0
O96 O 0.56778 0.60551 0.29839 0.0
O97 O 0.5665 0.59199 0.3961 0.0
Co98 Co 0.70597 0.26117 0.58817 0.0
O99 O 0.73227 0.27334 0.54665 0.0
O100 O 0.7128 0.24535 0.50785 0.0
C101 C 0.68884 0.29403 0.61094 0.0
O102 O 0.67794 0.24422 0.61822 0.0
Co103 Co 0.69569 0.27279 0.73334 0.0
O104 O 0.66722 0.25793 0.71475 0.0
C105 C 0.72758 0.23685 0.70079 0.0
C106 C 0.72986 0.25853 0.5017 0.0
C107 C 0.66434 0.245 0.66676 0.0
O108 O 0.72507 0.23984 0.63956 0.0
O109 O 0.7182 0.24879 0.74405 0.0
O110 O 0.68717 0.28533 0.55362 0.0
O111 O 0.7025 0.28406 0.64889 0.0
Co112 Co 0.36951 0.24621 0.58279 0.0
O113 O 0.34529 0.2317 0.53788 0.0
O114 O 0.36044 0.26312 0.50578 0.0
C115 C 0.38994 0.215 0.59976 0.0
O116 O 0.39526 0.26557 0.61714 0.0
Co117 Co 0.38079 0.23219 0.72561 0.0
O118 O 0.40711 0.25113 0.71177 0.0
C119 C 0.345 0.26492 0.69894 0.0
C120 C 0.34542 0.24781 0.49638 0.0
C121 C 0.40871 0.26523 0.66604 0.0
O122 O 0.34783 0.26366 0.63737 0.0
O123 O 0.3557 0.25321 0.74012 0.0
O124 O 0.3914 0.22544 0.54483 0.0
O125 O 0.37519 0.2225 0.63882 0.0
Co126 Co 0.20402 0.76452 0.0887 0.0
O127 O 0.22903 0.7784 0.04525 0.0
O128 O 0.21216 0.74825 1.01009 0.0
C129 C 0.18484 0.79641 0.1095 0.0
O130 O 0.17736 0.74583 0.12024 0.0
Co131 Co 0.19298 0.77653 0.23314 0.0
O132 O 0.16601 0.75876 0.2171 0.0
C133 C 0.22724 0.74261 0.20271 0.0
C134 C 0.2279 0.76288 1.00195 0.0
C135 C 0.16396 0.7456 0.16927 0.0
O136 O 0.22465 0.74508 0.14132 0.0
O137 O 0.21702 0.75416 0.24527 0.0
O138 O 0.18347 0.78708 0.05291 0.0
O139 O 0.19908 0.78754 0.14788 0.0
Co140 Co 0.1998 0.24268 0.06976 0.0
O141 O 0.22473 0.22905 0.11395 0.0
O142 O 0.21062 0.26151 0.14071 0.0
C143 C 0.17852 0.2115 0.06449 0.0
O144 O 0.17379 0.26161 0.03522 0.0
Co145 Co 0.18556 0.2247 0.93278 0.0
O146 O 0.16139 0.24664 0.94185 0.0
C147 C 0.22188 0.25787 0.94524 0.0
C148 C 0.22555 0.24623 0.15156 0.0
C149 C 0.16045 0.26135 0.98607 0.0
O150 O 0.22038 0.25826 1.00733 0.0
O151 O 0.21041 0.24502 0.90897 0.0
O152 O 0.17854 0.22349 0.11675 0.0
O153 O 0.19242 0.21752 0.02087 0.0
Co154 Co 0.36813 0.76082 0.56027 0.0
O155 O 0.34203 0.77459 0.59851 0.0
O156 O 0.3592 0.74551 0.63966 0.0
C157 C 0.38662 0.79297 0.53788 0.0
O158 O 0.39575 0.74239 0.53552 0.0
Co159 Co 0.38291 0.77034 0.41759 0.0
O160 O 0.41147 0.75795 0.4477 0.0
C161 C 0.34815 0.73653 0.44564 0.0
C162 C 0.34297 0.75977 0.644 0.0
C163 C 0.41187 0.74423 0.49447 0.0
O164 O 0.34893 0.74023 0.50695 0.0
O165 O 0.35969 0.74717 0.40386 0.0
O166 O 0.38736 0.78453 0.59578 0.0
O167 O 0.37354 0.78292 0.49848 0.0
Co168 Co 0.5275 0.08974 0.82226 0.0
O169 O 0.51354 0.06503 0.86655 0.0
O170 O 0.5454 0.07979 0.89639 0.0
C171 C 0.49617 0.11046 0.81162 0.0
O172 O 0.54643 0.11581 0.78813 0.0
Co173 Co 0.51121 0.10262 0.68236 0.0
O174 O 0.53183 0.12781 0.69375 0.0
C175 C 0.5449 0.06707 0.70129 0.0
C176 C 0.53011 0.0648 0.90647 0.0
C177 C 0.54615 0.12915 0.73895 0.0
O178 O 0.54431 0.06892 0.76329 0.0
O179 O 0.53239 0.07807 0.66283 0.0
O180 O 0.50741 0.11112 0.86524 0.0
O181 O 0.50295 0.09624 0.76992 0.0
Co182 Co 0.04197 0.92515 0.30207 0.0
O183 O 0.05407 0.95176 0.34187 0.0
O184 O 0.02626 0.93238 0.38234 0.0
C185 C 0.07486 0.9081 0.27945 0.0
O186 O 0.02514 0.89685 0.27381 0.0
Co187 Co 0.05327 0.91418 0.15713 0.0
O188 O 0.03863 0.88574 0.17738 0.0
C189 C 0.01736 0.94616 0.18901 0.0
C190 C 0.03934 0.94957 0.38719 0.0
C191 C 0.02588 0.88301 0.22589 0.0
O192 O 0.02043 0.94385 0.25026 0.0
O193 O 0.02926 0.93666 0.14588 0.0
O194 O 0.06631 0.90671 0.33706 0.0
O195 O 0.06472 0.92148 0.24101 0.0
Co196 Co 0.52896 0.9229 0.34396 0.0
O197 O 0.51528 0.94828 0.30181 0.0
O198 O 0.54513 0.93125 0.26524 0.0
C199 C 0.49695 0.90395 0.3651 0.0
O200 O 0.54738 0.89588 0.37423 0.0
Co201 Co 0.51715 0.91142 0.48837 0.0
O202 O 0.53397 0.88405 0.47009 0.0
C203 C 0.55113 0.94565 0.45821 0.0
C204 C 0.53073 0.94725 0.25821 0.0
C205 C 0.54719 0.88209 0.42234 0.0
O206 O 0.54867 0.94315 0.3968 0.0
O207 O 0.53955 0.93539 0.50064 0.0
O208 O 0.50607 0.90271 0.30816 0.0
O209 O 0.50606 0.91799 0.40355 0.0
Co210 Co 0.042 0.08594 0.83667 0.0
O211 O 0.05424 0.05982 0.79476 0.0
O212 O 0.02596 0.07905 0.7566 0.0
C213 C 0.07477 0.10315 0.85863 0.0
O214 O 0.02503 0.11379 0.86751 0.0
Co215 Co 0.05423 0.09604 0.98147 0.0
O216 O 0.03874 0.1243 0.96427 0.0
C217 C 0.01787 0.06447 0.94959 0.0
C218 C 0.03925 0.06207 0.75028 0.0
C219 C 0.02578 0.12724 0.91634 0.0
O220 O 0.02097 0.06663 0.88832 0.0
O221 O 0.02978 0.07399 0.99267 0.0
O222 O 0.06572 0.10516 0.80184 0.0
O223 O 0.06515 0.08925 0.8966 0.0
H224 H 0.14675 0.71786 0.07494 0.0
H225 H 0.07541 0.64421 0.32274 0.0
H226 H 0.14192 0.73295 0.27846 0.0
H227 H 0.06174 0.64726 0.11808 0.0
H228 H 0.10367 0.67344 0.3081 0.0
H229 H 0.119 0.68828 0.09017 0.0
C230 C 0.13985 0.71505 0.12259 0.0
C231 C 0.14659 0.72811 0.17519 0.0
C232 C 0.09436 0.66766 0.2666 0.0
C233 C 0.11523 0.69409 0.19327 0.0
C234 C 0.07828 0.65099 0.27498 0.0
C235 C 0.06597 0.64338 0.22186 0.0
C236 C 0.09842 0.6764 0.20452 0.0
C237 C 0.07053 0.65274 0.16082 0.0
C238 C 0.12403 0.69818 0.13132 0.0
C239 C 0.13712 0.72355 0.23612 0.0
N240 N 0.0864 0.6686 0.15385 0.0
N241 N 0.12208 0.70691 0.24349 0.0
H242 H 0.57508 0.86513 0.3278 0.0
H243 H 0.64612 0.79087 0.5742 0.0
H244 H 0.55873 0.85879 0.53022 0.0
H245 H 0.6438 0.7782 0.36894 0.0
H246 H 0.6174 0.81961 0.5597 0.0
H247 H 0.604 0.83662 0.34229 0.0
C248 C 0.57747 0.85775 0.37502 0.0
C249 C 0.56427 0.8643 0.42755 0.0
C250 C 0.62321 0.81041 0.51802 0.0
C251 C 0.59752 0.8321 0.4448 0.0
C252 C 0.63959 0.79405 0.52633 0.0
C253 C 0.64726 0.7819 0.47299 0.0
C254 C 0.61484 0.81492 0.45581 0.0
C255 C 0.63824 0.78688 0.41181 0.0
C256 C 0.59396 0.8415 0.38332 0.0
C257 C 0.56826 0.85419 0.48793 0.0
N258 N 0.62267 0.80302 0.40491 0.0
N259 N 0.58455 0.83876 0.49491 0.0
H260 H 0.51464 0.36096 0.61456 0.0
H261 H 0.42912 0.27771 0.77775 0.0
H262 H 0.49886 0.36391 0.81798 0.0
H263 H 0.42734 0.29312 0.57403 0.0
H264 H 0.45717 0.30635 0.79327 0.0
H265 H 0.4856 0.33338 0.59962 0.0
C266 C 0.5052 0.35572 0.65647 0.0
C267 C 0.50943 0.36478 0.71801 0.0
C268 C 0.45064 0.30353 0.74522 0.0
C269 C 0.47584 0.33295 0.70047 0.0
C270 C 0.43469 0.28703 0.73597 0.0
C271 C 0.42589 0.2828 0.67413 0.0
C272 C 0.45824 0.31582 0.69223 0.0
C273 C 0.43364 0.29574 0.62241 0.0
C274 C 0.48845 0.34004 0.64751 0.0
C275 C 0.4963 0.35739 0.76983 0.0
N276 N 0.44953 0.31155 0.63254 0.0
N277 N 0.48019 0.34177 0.75996 0.0
H278 H 0.92679 0.21781 0.07001 0.0
H279 H 0.99926 0.14631 0.82197 0.0
H280 H 0.93255 0.23444 0.8676 0.0
H281 H 0.01461 0.14997 0.02556 0.0
H282 H 0.9712 0.17559 0.83761 0.0
H283 H 0.95593 0.18952 0.05506 0.0
C284 C 0.93421 0.21566 0.02275 0.0
C285 C 0.92722 0.22868 0.97028 0.0
C286 C 0.98086 0.16998 0.87863 0.0
C287 C 0.96009 0.19612 0.9525 0.0
C288 C 0.99685 0.15329 0.86969 0.0
C289 C 0.00948 0.14572 0.92224 0.0
C290 C 0.97719 0.17879 0.94076 0.0
C291 C 0.00549 0.15535 0.98326 0.0
C292 C 0.95081 0.19953 0.01419 0.0
C293 C 0.93742 0.22501 0.90985 0.0
N294 N 0.98964 0.1712 0.99088 0.0
N295 N 0.95312 0.20901 0.90258 0.0
H296 H 0.05665 0.35952 0.02929 0.0
H297 H 0.1412 0.27399 0.87279 0.0
H298 H 0.07336 0.36156 0.82641 0.0
H299 H 0.14232 0.29032 0.07585 0.0
H300 H 0.114 0.30331 0.85475 0.0
H301 H 0.08519 0.33159 0.04623 0.0
C302 C 0.06618 0.35399 0.9879 0.0
C303 C 0.06235 0.3629 0.92592 0.0
C304 C 0.12022 0.30055 0.9032 0.0
C305 C 0.09539 0.33066 0.94578 0.0
C306 C 0.13567 0.28368 0.91387 0.0
C307 C 0.14399 0.27948 0.97629 0.0
C308 C 0.11264 0.31325 0.95534 0.0
C309 C 0.13636 0.29289 0.02708 0.0
C310 C 0.08266 0.33812 0.99801 0.0
C311 C 0.07561 0.35516 0.87485 0.0
N312 N 0.12094 0.30905 0.01557 0.0
N313 N 0.09144 0.33934 0.88583 0.0
H314 H 0.99692 0.8667 0.3189 0.0
H315 H 0.93003 0.78951 0.07107 0.0
H316 H 0.01722 0.85714 0.12057 0.0
H317 H 0.92892 0.77897 0.27744 0.0
H318 H 0.95872 0.81822 0.0869 0.0
H319 H 0.96848 0.83775 0.3038 0.0
C320 C 0.99556 0.85849 0.27254 0.0
C321 C 0.00964 0.86439 0.22124 0.0
C322 C 0.95216 0.8095 0.12854 0.0
C323 C 0.97688 0.83172 0.20317 0.0
C324 C 0.93579 0.79318 0.11947 0.0
C325 C 0.9272 0.78161 0.17276 0.0
C326 C 0.95959 0.81457 0.19139 0.0
C327 C 0.93523 0.78718 0.23465 0.0
C328 C 0.97931 0.84202 0.26386 0.0
C329 C 0.00693 0.85318 0.16191 0.0
N330 N 0.95083 0.80328 0.24224 0.0
N331 N 0.99082 0.83759 0.15444 0.0
H332 H 0.40907 0.69936 0.51533 0.0
H333 H 0.53508 0.67402 0.42172 0.0
H334 H 0.45535 0.75128 0.46471 0.0
H335 H 0.48251 0.62672 0.38814 0.0
H336 H 0.50722 0.7021 0.44987 0.0
H337 H 0.43736 0.67153 0.48647 0.0
C338 C 0.42539 0.70488 0.5 0.0
C339 C 0.42999 0.72763 0.49288 0.0
C340 C 0.50174 0.68568 0.43543 0.0
C341 C 0.46211 0.69604 0.45866 0.0
C342 C 0.5176 0.66974 0.4188 0.0
C343 C 0.51103 0.64816 0.40163 0.0
C344 C 0.47915 0.67983 0.43672 0.0
C345 C 0.48821 0.64331 0.39985 0.0
C346 C 0.44135 0.68903 0.48246 0.0
C347 C 0.45121 0.7339 0.47121 0.0
N348 N 0.47306 0.65894 0.41813 0.0
N349 N 0.46648 0.71822 0.45492 0.0
H350 H 0.64799 0.21529 0.57586 0.0
H351 H 0.57245 0.14956 0.83119 0.0
H352 H 0.63898 0.23668 0.7734 0.0
H353 H 0.56069 0.14682 0.62562 0.0
H354 H 0.60121 0.17794 0.81192 0.0
H355 H 0.61948 0.18654 0.59368 0.0
C356 C 0.63998 0.2141 0.62261 0.0
C357 C 0.64592 0.22858 0.67289 0.0
C358 C 0.59225 0.17107 0.77117 0.0
C359 C 0.6138 0.19547 0.69407 0.0
C360 C 0.57593 0.15486 0.78219 0.0
C361 C 0.56396 0.14598 0.73015 0.0
C362 C 0.59691 0.17807 0.70761 0.0
C363 C 0.56924 0.15342 0.66743 0.0
C364 C 0.62378 0.19768 0.63283 0.0
C365 C 0.635 0.22609 0.73278 0.0
N366 N 0.58534 0.16892 0.65792 0.0
N367 N 0.61968 0.20981 0.74175 0.0
H368 H 0.97816 0.40094 0.97659 0.0
H369 H 0.88735 0.30852 0.90405 0.0
H370 H 0.97284 0.36997 0.78919 0.0
H371 H 0.91491 0.31842 0.09436 0.0
H372 H 0.91436 0.33483 0.86034 0.0
H373 H 0.95092 0.37481 0.01893 0.0
C374 C 0.9713 0.38863 0.94411 0.0
C375 C 0.97806 0.38755 0.87914 0.0
C376 C 0.91451 0.33122 0.91161 0.0
C377 C 0.94634 0.3577 0.92772 0.0
C378 C 0.89905 0.31622 0.93684 0.0
C379 C 0.89894 0.31104 1.00313 0.0
C380 C 0.92974 0.34157 0.95301 0.0
C381 C 0.9144 0.32183 0.04304 0.0
C382 C 0.95572 0.37369 0.96859 0.0
C383 C 0.96821 0.37137 0.83956 0.0
N384 N 0.92911 0.33666 0.0174 0.0
N385 N 0.95275 0.35711 0.86443 0.0
H386 H 0.45232 0.10368 0.79192 0.0
H387 H 0.4354 0.21388 0.58335 0.0
H388 H 0.50305 0.15407 0.7811 0.0
H389 H 0.38086 0.17905 0.67286 0.0
H390 H 0.46158 0.18912 0.64059 0.0
H391 H 0.42644 0.12879 0.73666 0.0
C392 C 0.45776 0.12031 0.77936 0.0
C393 C 0.47953 0.12714 0.79256 0.0
C394 C 0.44385 0.18683 0.64704 0.0
C395 C 0.45056 0.15546 0.7262 0.0
C396 C 0.42898 0.20068 0.61369 0.0
C397 C 0.406 0.19825 0.62294 0.0
C398 C 0.43557 0.1703 0.6888 0.0
C399 C 0.39847 0.18131 0.66412 0.0
C400 C 0.44312 0.13453 0.74724 0.0
C401 C 0.48615 0.1485 0.7732 0.0
N402 N 0.41317 0.16795 0.69526 0.0
N403 N 0.47177 0.16188 0.74028 0.0
H404 H 0.6001 0.63666 0.28762 0.0
H405 H 0.65404 0.69187 0.60235 0.0
H406 H 0.59181 0.60936 0.47903 0.0
H407 H 0.68322 0.69854 0.4128 0.0
H408 H 0.62729 0.66506 0.5575 0.0
H409 H 0.62726 0.66328 0.33184 0.0
C410 C 0.60397 0.63623 0.3387 0.0
C411 C 0.59356 0.6208 0.37957 0.0
C412 C 0.6396 0.67245 0.5259 0.0
C413 C 0.62418 0.65132 0.43055 0.0
C414 C 0.65484 0.68773 0.5515 0.0
C415 C 0.67086 0.69757 0.51138 0.0
C416 C 0.64018 0.66728 0.45958 0.0
C417 C 0.6711 0.69156 0.44565 0.0
C418 C 0.61943 0.6514 0.36393 0.0
C419 C 0.59922 0.62102 0.44556 0.0
N420 N 0.65593 0.67697 0.42177 0.0
N421 N 0.61396 0.6361 0.46898 0.0
H422 H 0.1817 0.81285 0.23177 0.0
H423 H 0.09006 0.9042 0.1556 0.0
H424 H 0.1524 0.81948 0.04241 0.0
H425 H 0.099 0.8766 0.34634 0.0
H426 H 0.11653 0.87719 0.11302 0.0
H427 H 0.15529 0.83993 0.27351 0.0
C428 C 0.1697 0.81996 0.19875 0.0
C429 C 0.16919 0.81365 0.13336 0.0
C430 C 0.11268 0.87702 0.16414 0.0
C431 C 0.13901 0.84515 0.18127 0.0
C432 C 0.09759 0.89248 0.18873 0.0
C433 C 0.0921 0.89258 0.25479 0.0
C434 C 0.1228 0.86176 0.20597 0.0
C435 C 0.10266 0.87711 0.29516 0.0
C436 C 0.15458 0.83544 0.22289 0.0
C437 C 0.15336 0.82376 0.09312 0.0
N438 N 0.11758 0.86237 0.27015 0.0
N439 N 0.13894 0.83911 0.11767 0.0
H440 H 0.97629 0.63602 0.35251 0.0
H441 H 0.9214 0.69124 0.0394 0.0
H442 H 0.98276 0.60759 0.16202 0.0
H443 H 0.89282 0.69782 0.22972 0.0
H444 H 0.94818 0.66427 0.08349 0.0
H445 H 0.94937 0.66292 0.3086 0.0
C446 C 0.97209 0.63542 0.30166 0.0
C447 C 0.98191 0.61958 0.26096 0.0
C448 C 0.936 0.6717 0.1154 0.0
C449 C 0.95156 0.65041 0.21033 0.0
C450 C 0.92075 0.68706 0.09026 0.0
C451 C 0.90488 0.69691 0.13084 0.0
C452 C 0.93559 0.66648 0.1817 0.0
C453 C 0.90482 0.69085 0.19653 0.0
C454 C 0.95676 0.65074 0.27663 0.0
C455 C 0.97583 0.61957 0.1953 0.0
N456 N 0.92 0.6762 0.21995 0.0
N457 N 0.96122 0.63482 0.172 0.0
H458 H 0.08108 0.14716 0.82759 0.0
H459 H 0.18249 0.16661 0.06743 0.0
H460 H 0.10532 0.095 0.95193 0.0
H461 H 0.1367 0.21911 0.01953 0.0
H462 H 0.15735 0.13968 0.01607 0.0
H463 H 0.10526 0.17376 0.88461 0.0
C464 C 0.09182 0.14125 0.86593 0.0
C465 C 0.09139 0.11886 0.88481 0.0
C466 C 0.15263 0.15705 0.01771 0.0
C467 C 0.11879 0.14904 0.95029 0.0
C468 C 0.16682 0.17232 0.04761 0.0
C469 C 0.16134 0.19494 0.04881 0.0
C470 C 0.13323 0.16462 0.98691 0.0
C471 C 0.14128 0.20172 0.02041 0.0
C472 C 0.10535 0.15644 0.89898 0.0
C473 C 0.10527 0.11212 0.93574 0.0
N474 N 0.12804 0.18666 0.98984 0.0
N475 N 0.11848 0.1271 0.96647 0.0
H476 H 0.68552 0.3094 0.73472 0.0
H477 H 0.59332 0.40047 0.66271 0.0
H478 H 0.65674 0.31782 0.54532 0.0
H479 H 0.60054 0.37069 0.8513 0.0
H480 H 0.62035 0.37423 0.61973 0.0
H481 H 0.6585 0.33565 0.77834 0.0
C482 C 0.67354 0.31676 0.7021 0.0
C483 C 0.67332 0.31118 0.63612 0.0
C484 C 0.616 0.37339 0.67046 0.0
C485 C 0.64249 0.34166 0.68613 0.0
C486 C 0.60055 0.3884 0.6953 0.0
C487 C 0.59442 0.3877 0.76085 0.0
C488 C 0.62588 0.35774 0.71152 0.0
C489 C 0.60468 0.37179 0.8005 0.0
C490 C 0.65808 0.33173 0.72729 0.0
C491 C 0.65751 0.32156 0.59641 0.0
N492 N 0.62001 0.35749 0.77528 0.0
N493 N 0.64278 0.33637 0.62198 0.0
H494 H 0.39074 0.80795 0.41427 0.0
H495 H 0.48063 0.90098 0.48764 0.0
H496 H 0.41825 0.81719 0.60497 0.0
H497 H 0.47436 0.87089 0.29927 0.0
H498 H 0.45425 0.87408 0.53068 0.0
H499 H 0.41751 0.83449 0.37145 0.0
C500 C 0.40242 0.81553 0.44738 0.0
C501 C 0.40232 0.81011 0.51351 0.0
C502 C 0.45867 0.87331 0.48001 0.0
C503 C 0.43291 0.84098 0.46424 0.0
C504 C 0.47375 0.8887 0.45511 0.0
C505 C 0.47996 0.88812 0.38958 0.0
C506 C 0.44925 0.85739 0.43902 0.0
C507 C 0.47014 0.87193 0.35001 0.0
C508 C 0.41775 0.83069 0.4226 0.0
C509 C 0.41774 0.82079 0.55375 0.0
N510 N 0.45517 0.85726 0.3753 0.0
N511 N 0.43237 0.83582 0.52851 0.0
H512 H 0.07799 0.56706 0.08076 0.0
H513 H 0.07501 0.43786 0.05919 0.0
H514 H 0.06553 0.52188 0.2385 0.0
H515 H 0.06412 0.48354 0.90171 0.0
H516 H 0.09212 0.46772 0.12145 0.0
H517 H 0.09356 0.53648 0.01804 0.0
C518 C 0.07921 0.55078 0.10295 0.0
C519 C 0.06962 0.54664 0.16365 0.0
C520 C 0.0867 0.47105 0.07247 0.0
C521 C 0.08716 0.51178 0.09213 0.0
C522 C 0.07687 0.45408 0.03698 0.0
C523 C 0.06734 0.45863 0.97648 0.0
C524 C 0.08663 0.49269 0.0475 0.0
C525 C 0.07077 0.47958 0.94894 0.0
C526 C 0.08815 0.53339 0.06717 0.0
C527 C 0.07223 0.52556 0.19113 0.0
N528 N 0.07959 0.49612 0.98558 0.0
N529 N 0.08019 0.50865 0.15425 0.0
H530 H 0.80651 0.77991 0.14921 0.0
H531 H 0.72182 0.79763 0.34227 0.0
H532 H 0.85062 0.79251 0.30919 0.0
H533 H 0.76975 0.77861 0.48684 0.0
H534 H 0.75169 0.8136 0.27724 0.0
H535 H 0.77614 0.79631 0.21056 0.0
C536 C 0.80995 0.78699 0.19628 0.0
C537 C 0.83071 0.78409 0.22544 0.0
C538 C 0.75569 0.80628 0.32358 0.0
C539 C 0.79625 0.80285 0.29636 0.0
C540 C 0.73865 0.79737 0.361 0.0
C541 C 0.74363 0.78603 0.41848 0.0
C542 C 0.77777 0.80312 0.34326 0.0
C543 C 0.76539 0.78673 0.44189 0.0
C544 C 0.7926 0.7965 0.23158 0.0
C545 C 0.83448 0.79372 0.2862 0.0
N546 N 0.78186 0.79453 0.40311 0.0
N547 N 0.81724 0.80207 0.32053 0.0
H548 H 0.50856 0.52586 0.40087 0.0
H549 H 0.49427 0.44007 0.59462 0.0
H550 H 0.49753 0.56926 0.56352 0.0
H551 H 0.51458 0.48761 0.73867 0.0
H552 H 0.47783 0.4701 0.53131 0.0
H553 H 0.49394 0.49499 0.46368 0.0
C554 C 0.5022 0.52904 0.44896 0.0
C555 C 0.50507 0.54982 0.47808 0.0
C556 C 0.48558 0.474 0.57711 0.0
C557 C 0.48832 0.51469 0.55078 0.0
C558 C 0.49475 0.45685 0.61357 0.0
C559 C 0.50647 0.46165 0.67049 0.0
C560 C 0.48887 0.49603 0.59707 0.0
C561 C 0.5061 0.48339 0.6942 0.0
C562 C 0.49371 0.51138 0.48514 0.0
C563 C 0.49637 0.55317 0.54028 0.0
N564 N 0.49801 0.49996 0.65629 0.0
N565 N 0.48902 0.53563 0.57534 0.0
H566 H 0.85212 0.20733 0.84052 0.0
H567 H 0.76736 0.22401 0.6483 0.0
H568 H 0.80413 0.22579 0.9855 0.0
H569 H 0.72337 0.21171 0.80882 0.0
H570 H 0.79769 0.20748 0.70933 0.0
H571 H 0.8224 0.19081 0.77616 0.0
C572 C 0.83533 0.2073 0.85956 0.0
C573 C 0.83028 0.21866 0.91693 0.0
C574 C 0.78126 0.20735 0.73057 0.0
C575 C 0.79624 0.20102 0.84232 0.0
C576 C 0.76391 0.21691 0.69537 0.0
C577 C 0.7432 0.21996 0.72476 0.0
C578 C 0.7777 0.20113 0.79554 0.0
C579 C 0.73945 0.21035 0.78558 0.0
C580 C 0.81835 0.19811 0.82246 0.0
C581 C 0.80855 0.21764 0.94066 0.0
N582 N 0.75672 0.20198 0.81985 0.0
N583 N 0.79213 0.20959 0.90216 0.0
H584 H 0.21756 0.27572 0.82565 0.0
H585 H 0.3466 0.28814 0.81092 0.0
H586 H 0.2618 0.27403 0.98961 0.0
H587 H 0.30401 0.2744 0.64822 0.0
H588 H 0.31437 0.30073 0.87229 0.0
H589 H 0.24698 0.29241 0.76087 0.0
C590 C 0.23342 0.27922 0.8483 0.0
C591 C 0.23768 0.27264 0.91219 0.0
C592 C 0.31213 0.29562 0.82255 0.0
C593 C 0.27131 0.2916 0.8383 0.0
C594 C 0.33048 0.28842 0.78751 0.0
C595 C 0.32766 0.27943 0.72552 0.0
C596 C 0.29088 0.29336 0.79561 0.0
C597 C 0.3067 0.28074 0.69654 0.0
C598 C 0.25012 0.28889 0.81139 0.0
C599 C 0.25811 0.27833 0.93997 0.0
N600 N 0.28889 0.28692 0.73265 0.0
N601 N 0.27445 0.28697 0.90221 0.0
H602 H 0.35288 0.70964 0.34109 0.0
H603 H 0.26734 0.73047 0.15044 0.0
H604 H 0.30598 0.72822 0.48905 0.0
H605 H 0.2239 0.71826 0.31235 0.0
H606 H 0.29784 0.7137 0.21049 0.0
H607 H 0.32232 0.69567 0.2751 0.0
C608 C 0.33613 0.71024 0.3603 0.0
C609 C 0.33171 0.72093 0.41922 0.0
C610 C 0.28148 0.71371 0.23223 0.0
C611 C 0.29677 0.70605 0.34303 0.0
C612 C 0.26406 0.72343 0.19769 0.0
C613 C 0.24344 0.72646 0.22764 0.0
C614 C 0.27806 0.70721 0.29702 0.0
C615 C 0.2399 0.71692 0.28866 0.0
C616 C 0.31868 0.70248 0.32231 0.0
C617 C 0.30997 0.72062 0.44308 0.0
N618 N 0.25721 0.70829 0.32213 0.0
N619 N 0.29314 0.71392 0.40393 0.0
H620 H 0.56316 0.98548 0.40382 0.0
H621 H 0.56187 0.02811 0.75061 0.0
H622 H 0.57445 0.94381 0.5702 0.0
H623 H 0.56369 0.07061 0.58274 0.0
H624 H 0.57943 0.99863 0.68721 0.0
H625 H 0.57704 0.0173 0.46494 0.0
C626 C 0.56931 0.9829 0.45245 0.0
C627 C 0.5667 0.96237 0.48329 0.0
C628 C 0.57653 0.0146 0.66458 0.0
C629 C 0.58183 0.99853 0.55399 0.0
C630 C 0.56646 0.03139 0.7009 0.0
C631 C 0.56037 0.05131 0.67081 0.0
C632 C 0.58009 0.01784 0.5979 0.0
C633 C 0.56718 0.05501 0.60681 0.0
C634 C 0.57715 1.00107 0.48764 0.0
C635 C 0.57531 0.95973 0.54584 0.0
N636 N 0.57616 0.03823 0.57195 0.0
N637 N 0.58184 0.97777 0.57998 0.0
H638 H 0.98995 0.07104 0.05066 0.0
H639 H 0.00444 0.98578 0.2421 0.0
H640 H 0.00741 0.023 0.90486 0.0
H641 H 0.99247 0.94231 0.08034 0.0
H642 H 0.98829 0.01635 0.18136 0.0
H643 H 0.97278 0.04155 0.11454 0.0
C644 C 0.98963 0.05428 0.03145 0.0
C645 C 1.00085 0.04912 0.97392 0.0
C646 C 0.98815 1.0 0.1597 0.0
C647 C 0.98248 0.01531 0.04801 0.0
C648 C 0.99748 0.98249 0.19477 0.0
C649 C 1.00056 0.96187 0.16498 0.0
C650 C 0.98219 0.99666 0.09447 0.0
C651 C 0.99111 0.95833 0.10388 0.0
C652 C 0.98005 0.03743 0.06824 0.0
C653 C 0.9994 0.02748 0.94987 0.0
N654 N 0.98297 0.97574 0.06976 0.0
N655 N 0.991 0.01115 0.98811 0.0
H656 H 0.06725 0.45675 0.67378 0.0
H657 H 0.99781 0.53499 0.43547 0.0
H658 H 0.99752 0.47071 0.69991 0.0
H659 H 0.06767 0.54663 0.46754 0.0
H660 H 0.9981 0.50706 0.52136 0.0
H661 H 0.06853 0.48515 0.58756 0.0
C662 C 0.0522 0.46562 0.66115 0.0
C663 C 0.03224 0.46125 0.6943 0.0
C664 C 0.01339 0.51572 0.50982 0.0
C665 C 0.03355 0.49361 0.59527 0.0
C666 C 0.01326 0.53169 0.46059 0.0
C667 C 0.03272 0.54336 0.44421 0.0
C668 C 0.03325 0.5108 0.54261 0.0
C669 C 0.05223 0.53822 0.47878 0.0
C670 C 0.05298 0.48193 0.61225 0.0
C671 C 0.0133 0.47346 0.676 0.0
N672 N 0.05206 0.52221 0.52589 0.0
N673 N 0.01439 0.48884 0.6277 0.0
H674 H 0.82085 0.71275 0.95235 0.0
H675 H 0.74186 0.78383 0.72043 0.0
H676 H 0.83195 0.78292 0.9248 0.0
H677 H 0.75586 0.71438 0.68904 0.0
H678 H 0.7705 0.78443 0.80588 0.0
H679 H 0.79285 0.71354 0.86663 0.0
C680 C 0.81743 0.72837 0.92822 0.0
C681 C 0.82895 0.74778 0.94583 0.0
C682 C 0.76725 0.76909 0.78021 0.0
C683 C 0.79632 0.74887 0.84776 0.0
C684 C 0.7508 0.76869 0.73173 0.0
C685 C 0.74636 0.74901 0.69735 0.0
C686 C 0.77901 0.74954 0.79553 0.0
C687 C 0.75866 0.72995 0.71396 0.0
C688 C 0.80142 0.72878 0.8791 0.0
C689 C 0.82366 0.76751 0.91257 0.0
N690 N 0.77419 0.73066 0.76191 0.0
N691 N 0.80761 0.76761 0.86562 0.0
H692 H 0.57734 0.53445 0.21109 0.0
H693 H 0.50727 0.4581 0.96942 0.0
H694 H 0.50823 0.5482 0.17301 0.0
H695 H 0.57745 0.4702 0.94544 0.0
H696 H 0.50646 0.48636 0.05585 0.0
H697 H 0.57693 0.50625 0.12581 0.0
C698 C 0.56203 0.53154 0.18486 0.0
C699 C 0.54282 0.54388 0.19926 0.0
C700 C 0.52201 0.48275 0.03164 0.0
C701 C 0.54214 0.51108 0.10175 0.0
C702 C 0.52253 0.46652 0.98263 0.0
C703 C 0.54247 0.4617 0.94998 0.0
C704 C 0.54169 0.49388 0.0493 0.0
C705 C 0.56168 0.47333 0.96898 0.0
C706 C 0.56184 0.51543 0.136 0.0
C707 C 0.52348 0.53925 0.16334 0.0
N708 N 0.56084 0.48866 0.01745 0.0
N709 N 0.52357 0.52312 0.11671 0.0
H710 H 0.84974 0.24524 0.26476 0.0
H711 H 0.7228 0.24493 0.37599 0.0
H712 H 0.79808 0.26762 0.13596 0.0
H713 H 0.77434 0.26803 0.50406 0.0
H714 H 0.75019 0.2439 0.2872 0.0
H715 H 0.82233 0.24425 0.35349 0.0
C716 C 0.83263 0.24975 0.25498 0.0
C717 C 0.82625 0.25665 0.19282 0.0
C718 C 0.75546 0.24908 0.33491 0.0
C719 C 0.79472 0.255 0.29371 0.0
C720 C 0.73988 0.24959 0.3856 0.0
C721 C 0.74622 0.2567 0.44755 0.0
C722 C 0.77774 0.25502 0.34664 0.0
C723 C 0.76864 0.26261 0.45702 0.0
C724 C 0.81703 0.24926 0.30565 0.0
C725 C 0.8038 0.26237 0.18315 0.0
N726 N 0.78359 0.26144 0.40747 0.0
N727 N 0.78885 0.26122 0.2327 0.0
H728 H 0.32163 0.21309 0.44815 0.0
H729 H 0.23989 0.28328 0.22035 0.0
H730 H 0.33053 0.28369 0.42312 0.0
H731 H 0.25128 0.21285 0.20018 0.0
H732 H 0.26976 0.2847 0.30225 0.0
H733 H 0.29279 0.21354 0.36534 0.0
C734 C 0.31758 0.22875 0.42507 0.0
C735 C 0.32871 0.24837 0.44273 0.0
C736 C 0.26567 0.26898 0.27974 0.0
C737 C 0.29505 0.24906 0.34752 0.0
C738 C 0.24853 0.26812 0.23328 0.0
C739 C 0.24295 0.2479 0.20316 0.0
C740 C 0.27706 0.2494 0.29713 0.0
C741 C 0.25491 0.22884 0.22175 0.0
C742 C 0.30105 0.22897 0.37755 0.0
C743 C 0.32257 0.26812 0.41079 0.0
N744 N 0.27116 0.23005 0.26745 0.0
N745 N 0.30605 0.26801 0.36517 0.0
H746 H 0.33125 0.72492 0.7244 0.0
H747 H 0.25203 0.79719 0.95144 0.0
H748 H 0.31613 0.79367 0.68517 0.0
H749 H 0.24126 0.72679 0.92833 0.0
H750 H 0.2797 0.796 0.86467 0.0
H751 H 0.30262 0.72494 0.80979 0.0
C752 C 0.32203 0.74004 0.73389 0.0
C753 C 0.32617 0.75934 0.69738 0.0
C754 C 0.27126 0.78081 0.87837 0.0
C755 C 0.29356 0.75953 0.79564 0.0
C756 C 0.25546 0.78145 0.92807 0.0
C757 C 0.24414 0.76208 0.9472 0.0
C758 C 0.27637 0.76053 0.84811 0.0
C759 C 0.2494 0.74217 0.91491 0.0
C760 C 0.3056 0.73999 0.78238 0.0
C761 C 0.31355 0.77839 0.71178 0.0
N762 N 0.26527 0.74185 0.86747 0.0
N763 N 0.29805 0.77805 0.7599 0.0
H764 H 0.56636 0.9588 0.17983 0.0
H765 H 0.4955 0.04169 0.95838 0.0
H766 H 0.49742 0.97431 0.21496 0.0
H767 H 0.56654 0.04919 0.97596 0.0
H768 H 0.49631 0.01322 0.04249 0.0
H769 H 0.56724 0.98788 0.09558 0.0
C770 C 0.55139 0.96817 0.16961 0.0
C771 C 0.53176 0.964 0.20468 0.0
C772 C 0.51176 0.02109 0.02825 0.0
C773 C 0.53263 0.9972 0.10796 0.0
C774 C 0.51133 0.03738 0.97999 0.0
C775 C 0.53097 0.04803 0.95997 0.0
C776 C 0.53205 0.01483 0.05652 0.0
C777 C 0.55096 0.04159 0.9901 0.0
C778 C 0.55195 0.98487 0.12182 0.0
C779 C 0.51294 0.97686 0.18948 0.0
N780 N 0.55103 0.0253 0.03642 0.0
N781 N 0.51381 0.99264 0.14227 0.0
H782 H 0.04827 0.01766 0.75565 0.0
H783 H 0.04857 0.99402 0.38132 0.0
H784 H 0.02597 0.06836 0.62355 0.0
H785 H 0.02598 0.94353 0.51375 0.0
H786 H 0.04651 0.02158 0.46876 0.0
H787 H 0.04632 0.99023 0.66796 0.0
C788 C 0.04296 0.02304 0.70815 0.0
C789 C 0.03725 0.0454 0.69706 0.0
C790 C 0.04191 0.0045 0.47857 0.0
C791 C 0.0355 0.01405 0.59589 0.0
C792 C 0.04318 0.98871 0.42883 0.0
C793 C 0.03743 0.96637 0.44011 0.0
C794 C 0.03553 0.99786 0.54091 0.0
C795 C 0.03048 0.96054 0.50273 0.0
C796 C 0.04176 0.00733 0.65825 0.0
C797 C 0.03041 0.05133 0.63442 0.0
N798 N 0.03005 0.97608 0.55094 0.0
N799 N 0.03006 0.03585 0.58601 0.0
loop_
_geom_bond_atom_site_label_1
_geom_bond_atom_site_label_2
_geom_bond_distance
_geom_bond_site_symmetry_2
_ccdc_geom_bond_type
Co0 O1 2.216 . S
Co0 O2 2.091 . S
Co0 O4 2.004 . S
Co0 O10 2.021 . S
Co0 O12 2.137 . S
Co0 O13 2.244 . S
O1 Co0 2.216 . S
O1 C8 1.247 . S
O2 Co0 2.091 . S
O2 C8 1.261 . S
C3 O12 1.247 1_655 S
C3 O13 1.272 1_655 S
O4 Co0 2.004 . S
O4 C9 1.259 . S
Co5 O6 2.061 . S
Co5 O11 2.052 . S
Co5 O13 2.135 . S
O6 Co5 2.061 . S
O6 C9 1.235 . S
C7 O10 1.238 . S
C7 O11 1.241 . S
C8 O1 1.247 . S
C8 O2 1.261 . S
C9 O4 1.259 . S
C9 O6 1.235 . S
O10 Co0 2.021 . S
O10 C7 1.238 . S
O11 Co5 2.052 . S
O11 C7 1.241 . S
O12 Co0 2.137 . S
O12 C3 1.247 1_455 S
O13 Co0 2.244 . S
O13 C3 1.272 1_455 S
O13 Co5 2.135 . S
Co14 O15 2.216 . S
Co14 O16 2.091 . S
Co14 O18 2.004 . S
Co14 O24 2.021 . S
Co14 O26 2.137 . S
Co14 O27 2.244 . S
O15 Co14 2.216 . S
O15 C22 1.247 . S
O16 Co14 2.091 . S
O16 C22 1.261 . S
C17 O26 1.247 . S
C17 O27 1.272 . S
O18 Co14 2.004 . S
O18 C23 1.259 . S
Co19 O20 2.061 . S
Co19 O25 2.052 . S
Co19 O27 2.135 . S
O20 Co19 2.061 . S
O20 C23 1.235 . S
C21 O24 1.238 . S
C21 O25 1.241 . S
C22 O15 1.247 . S
C22 O16 1.261 . S
C23 O18 1.259 . S
C23 O20 1.235 . S
O24 Co14 2.021 . S
O24 C21 1.238 . S
O25 Co19 2.052 . S
O25 C21 1.241 . S
O26 Co14 2.137 . S
O26 C17 1.247 . S
O27 Co14 2.244 . S
O27 C17 1.272 . S
O27 Co19 2.135 . S
Co28 O29 2.216 . S
Co28 O30 2.091 . S
Co28 O32 2.004 . S
Co28 O38 2.021 . S
Co28 O40 2.137 . S
Co28 O41 2.244 . S
O29 Co28 2.216 . S
O29 C36 1.247 . S
O30 Co28 2.091 . S
O30 C36 1.261 . S
C31 O40 1.247 . S
C31 O41 1.272 . S
O32 Co28 2.004 . S
O32 C37 1.259 . S
Co33 O34 2.061 . S
Co33 O39 2.052 . S
Co33 O41 2.135 . S
O34 Co33 2.061 . S
O34 C37 1.235 . S
C35 O38 1.238 . S
C35 O39 1.241 . S
C36 O29 1.247 . S
C36 O30 1.261 . S
C37 O32 1.259 . S
C37 O34 1.235 . S
O38 Co28 2.021 . S
O38 C35 1.238 . S
O39 Co33 2.052 . S
O39 C35 1.241 . S
O40 Co28 2.137 . S
O40 C31 1.247 . S
O41 Co28 2.244 . S
O41 C31 1.272 . S
O41 Co33 2.135 . S
Co42 O43 2.216 . S
Co42 O44 2.091 . S
Co42 O46 2.004 . S
Co42 O52 2.021 1_554 S
Co42 O54 2.137 . S
Co42 O55 2.244 1_554 S
O43 Co42 2.216 . S
O43 C50 1.247 . S
O44 Co42 2.091 . S
O44 C50 1.261 . S
C45 O54 1.247 . S
C45 O55 1.272 1_554 S
O46 Co42 2.004 . S
O46 C51 1.259 1_554 S
Co47 O48 2.061 . S
Co47 O53 2.052 . S
Co47 O55 2.135 . S
O48 Co47 2.061 . S
O48 C51 1.235 . S
C49 O52 1.238 . S
C49 O53 1.241 . S
C50 O43 1.247 . S
C50 O44 1.261 . S
C51 O46 1.259 1_556 S
C51 O48 1.235 . S
O52 Co42 2.021 1_556 S
O52 C49 1.238 . S
O53 Co47 2.052 . S
O53 C49 1.241 . S
O54 Co42 2.137 . S
O54 C45 1.247 . S
O55 Co42 2.244 1_556 S
O55 C45 1.272 1_556 S
O55 Co47 2.135 . S
Co56 O57 2.216 . S
Co56 O58 2.091 . S
Co56 O60 2.004 . S
Co56 O66 2.021 . S
Co56 O68 2.137 . S
Co56 O69 2.244 . S
O57 Co56 2.216 . S
O57 C64 1.247 . S
O58 Co56 2.091 . S
O58 C64 1.261 . S
C59 O68 1.247 1_655 S
C59 O69 1.272 1_655 S
O60 Co56 2.004 . S
O60 C65 1.259 . S
Co61 O62 2.061 . S
Co61 O67 2.052 . S
Co61 O69 2.135 . S
O62 Co61 2.061 . S
O62 C65 1.235 . S
C63 O66 1.238 . S
C63 O67 1.241 . S
C64 O57 1.247 . S
C64 O58 1.261 . S
C65 O60 1.259 . S
C65 O62 1.235 . S
O66 Co56 2.021 . S
O66 C63 1.238 . S
O67 Co61 2.052 . S
O67 C63 1.241 . S
O68 Co56 2.137 . S
O68 C59 1.247 1_455 S
O69 Co56 2.244 . S
O69 C59 1.272 1_455 S
O69 Co61 2.135 . S
Co70 O71 2.216 . S
Co70 O72 2.091 1_554 S
Co70 O74 2.004 . S
Co70 O80 2.021 . S
Co70 O82 2.137 . S
Co70 O83 2.244 . S
O71 Co70 2.216 . S
O71 C78 1.247 1_554 S
O72 Co70 2.091 1_556 S
O72 C78 1.261 . S
C73 O82 1.247 . S
C73 O83 1.272 . S
O74 Co70 2.004 . S
O74 C79 1.259 . S
Co75 O76 2.061 . S
Co75 O81 2.052 . S
Co75 O83 2.135 . S
O76 Co75 2.061 . S
O76 C79 1.235 . S
C77 O80 1.238 . S
C77 O81 1.241 . S
C78 O71 1.247 1_556 S
C78 O72 1.261 . S
C79 O74 1.259 . S
C79 O76 1.235 . S
O80 Co70 2.021 . S
O80 C77 1.238 . S
O81 Co75 2.052 . S
O81 C77 1.241 . S
O82 Co70 2.137 . S
O82 C73 1.247 . S
O83 Co70 2.244 . S
O83 C73 1.272 . S
O83 Co75 2.135 . S
Co84 O85 2.216 . S
Co84 O86 2.091 . S
Co84 O88 2.004 . S
Co84 O94 2.021 . S
Co84 O96 2.137 . S
Co84 O97 2.244 . S
O85 Co84 2.216 . S
O85 C92 1.247 . S
O86 Co84 2.091 . S
O86 C92 1.261 . S
C87 O96 1.247 . S
C87 O97 1.272 . S
O88 Co84 2.004 . S
O88 C93 1.259 . S
Co89 O90 2.061 . S
Co89 O95 2.052 . S
Co89 O97 2.135 . S
O90 Co89 2.061 . S
O90 C93 1.235 . S
C91 O94 1.238 . S
C91 O95 1.241 . S
C92 O85 1.247 . S
C92 O86 1.261 . S
C93 O88 1.259 . S
C93 O90 1.235 . S
O94 Co84 2.021 . S
O94 C91 1.238 . S
O95 Co89 2.052 . S
O95 C91 1.241 . S
O96 Co84 2.137 . S
O96 C87 1.247 . S
O97 Co84 2.244 . S
O97 C87 1.272 . S
O97 Co89 2.135 . S
Co98 O99 2.216 . S
Co98 O100 2.091 . S
Co98 O102 2.004 . S
Co98 O108 2.021 . S
Co98 O110 2.137 . S
Co98 O111 2.244 . S
O99 Co98 2.216 . S
O99 C106 1.247 . S
O100 Co98 2.091 . S
O100 C106 1.261 . S
C101 O110 1.247 . S
C101 O111 1.272 . S
O102 Co98 2.004 . S
O102 C107 1.259 . S
Co103 O104 2.061 . S
Co103 O109 2.052 . S
Co103 O111 2.135 . S
O104 Co103 2.061 . S
O104 C107 1.235 . S
C105 O108 1.238 . S
C105 O109 1.241 . S
C106 O99 1.247 . S
C106 O100 1.261 . S
C107 O102 1.259 . S
C107 O104 1.235 . S
O108 Co98 2.021 . S
O108 C105 1.238 . S
O109 Co103 2.052 . S
O109 C105 1.241 . S
O110 Co98 2.137 . S
O110 C101 1.247 . S
O111 Co98 2.244 . S
O111 C101 1.272 . S
O111 Co103 2.135 . S
Co112 O113 2.216 . S
Co112 O114 2.091 . S
Co112 O116 2.004 . S
Co112 O122 2.021 . S
Co112 O124 2.137 . S
Co112 O125 2.244 . S
O113 Co112 2.216 . S
O113 C120 1.247 . S
O114 Co112 2.091 . S
O114 C120 1.261 . S
C115 O124 1.247 . S
C115 O125 1.272 . S
O116 Co112 2.004 . S
O116 C121 1.259 . S
Co117 O118 2.061 . S
Co117 O123 2.052 . S
Co117 O125 2.135 . S
O118 Co117 2.061 . S
O118 C121 1.235 . S
C119 O122 1.238 . S
C119 O123 1.241 . S
C120 O113 1.247 . S
C120 O114 1.261 . S
C121 O116 1.259 . S
C121 O118 1.235 . S
O122 Co112 2.021 . S
O122 C119 1.238 . S
O123 Co117 2.052 . S
O123 C119 1.241 . S
O124 Co112 2.137 . S
O124 C115 1.247 . S
O125 Co112 2.244 . S
O125 C115 1.272 . S
O125 Co117 2.135 . S
Co126 O127 2.216 . S
Co126 O128 2.091 1_554 S
Co126 O130 2.004 . S
Co126 O136 2.021 . S
Co126 O138 2.137 . S
Co126 O139 2.244 . S
O127 Co126 2.216 . S
O127 C134 1.247 1_554 S
O128 Co126 2.091 1_556 S
O128 C134 1.261 . S
C129 O138 1.247 . S
C129 O139 1.272 . S
O130 Co126 2.004 . S
O130 C135 1.259 . S
Co131 O132 2.061 . S
Co131 O137 2.052 . S
Co131 O139 2.135 . S
O132 Co131 2.061 . S
O132 C135 1.235 . S
C133 O136 1.238 . S
C133 O137 1.241 . S
C134 O127 1.247 1_556 S
C134 O128 1.261 . S
C135 O130 1.259 . S
C135 O132 1.235 . S
O136 Co126 2.021 . S
O136 C133 1.238 . S
O137 Co131 2.052 . S
O137 C133 1.241 . S
O138 Co126 2.137 . S
O138 C129 1.247 . S
O139 Co126 2.244 . S
O139 C129 1.272 . S
O139 Co131 2.135 . S
Co140 O141 2.216 . S
Co140 O142 2.091 . S
Co140 O144 2.004 . S
Co140 O150 2.021 1_554 S
Co140 O152 2.137 . S
Co140 O153 2.244 1_554 S
O141 Co140 2.216 . S
O141 C148 1.247 . S
O142 Co140 2.091 . S
O142 C148 1.261 . S
C143 O152 1.247 . S
C143 O153 1.272 1_554 S
O144 Co140 2.004 . S
O144 C149 1.259 1_554 S
Co145 O146 2.061 . S
Co145 O151 2.052 . S
Co145 O153 2.135 . S
O146 Co145 2.061 . S
O146 C149 1.235 . S
C147 O150 1.238 . S
C147 O151 1.241 . S
C148 O141 1.247 . S
C148 O142 1.261 . S
C149 O144 1.259 1_556 S
C149 O146 1.235 . S
O150 Co140 2.021 1_556 S
O150 C147 1.238 . S
O151 Co145 2.052 . S
O151 C147 1.241 . S
O152 Co140 2.137 . S
O152 C143 1.247 . S
O153 Co140 2.244 1_556 S
O153 C143 1.272 1_556 S
O153 Co145 2.135 . S
Co154 O155 2.216 . S
Co154 O156 2.091 . S
Co154 O158 2.004 . S
Co154 O164 2.021 . S
Co154 O166 2.137 . S
Co154 O167 2.244 . S
O155 Co154 2.216 . S
O155 C162 1.247 . S
O156 Co154 2.091 . S
O156 C162 1.261 . S
C157 O166 1.247 . S
C157 O167 1.272 . S
O158 Co154 2.004 . S
O158 C163 1.259 . S
Co159 O160 2.061 . S
Co159 O165 2.052 . S
Co159 O167 2.135 . S
O160 Co159 2.061 . S
O160 C163 1.235 . S
C161 O164 1.238 . S
C161 O165 1.241 . S
C162 O155 1.247 . S
C162 O156 1.261 . S
C163 O158 1.259 . S
C163 O160 1.235 . S
O164 Co154 2.021 . S
O164 C161 1.238 . S
O165 Co159 2.052 . S
O165 C161 1.241 . S
O166 Co154 2.137 . S
O166 C157 1.247 . S
O167 Co154 2.244 . S
O167 C157 1.272 . S
O167 Co159 2.135 . S
Co168 O169 2.216 . S
Co168 O170 2.091 . S
Co168 O172 2.004 . S
Co168 O178 2.021 . S
Co168 O180 2.137 . S
Co168 O181 2.244 . S
O169 Co168 2.216 . S
O169 C176 1.247 . S
O170 Co168 2.091 . S
O170 C176 1.261 . S
C171 O180 1.247 . S
C171 O181 1.272 . S
O172 Co168 2.004 . S
O172 C177 1.259 . S
Co173 O174 2.061 . S
Co173 O179 2.052 . S
Co173 O181 2.135 . S
O174 Co173 2.061 . S
O174 C177 1.235 . S
C175 O178 1.238 . S
C175 O179 1.241 . S
C176 O169 1.247 . S
C176 O170 1.261 . S
C177 O172 1.259 . S
C177 O174 1.235 . S
O178 Co168 2.021 . S
O178 C175 1.238 . S
O179 Co173 2.052 . S
O179 C175 1.241 . S
O180 Co168 2.137 . S
O180 C171 1.247 . S
O181 Co168 2.244 . S
O181 C171 1.272 . S
O181 Co173 2.135 . S
Co182 O183 2.216 . S
Co182 O184 2.091 . S
Co182 O186 2.004 . S
Co182 O192 2.021 . S
Co182 O194 2.137 . S
Co182 O195 2.244 . S
O183 Co182 2.216 . S
O183 C190 1.247 . S
O184 Co182 2.091 . S
O184 C190 1.261 . S
C185 O194 1.247 . S
C185 O195 1.272 . S
O186 Co182 2.004 . S
O186 C191 1.259 . S
Co187 O188 2.061 . S
Co187 O193 2.052 . S
Co187 O195 2.135 . S
O188 Co187 2.061 . S
O188 C191 1.235 . S
C189 O192 1.238 . S
C189 O193 1.241 . S
C190 O183 1.247 . S
C190 O184 1.261 . S
C191 O186 1.259 . S
C191 O188 1.235 . S
O192 Co182 2.021 . S
O192 C189 1.238 . S
O193 Co187 2.052 . S
O193 C189 1.241 . S
O194 Co182 2.137 . S
O194 C185 1.247 . S
O195 Co182 2.244 . S
O195 C185 1.272 . S
O195 Co187 2.135 . S
Co196 O197 2.216 . S
Co196 O198 2.091 . S
Co196 O200 2.004 . S
Co196 O206 2.021 . S
Co196 O208 2.137 . S
Co196 O209 2.244 . S
O197 Co196 2.216 . S
O197 C204 1.247 . S
O198 Co196 2.091 . S
O198 C204 1.261 . S
C199 O208 1.247 . S
C199 O209 1.272 . S
O200 Co196 2.004 . S
O200 C205 1.259 . S
Co201 O202 2.061 . S
Co201 O207 2.052 . S
Co201 O209 2.135 . S
O202 Co201 2.061 . S
O202 C205 1.235 . S
C203 O206 1.238 . S
C203 O207 1.241 . S
C204 O197 1.247 . S
C204 O198 1.261 . S
C205 O200 1.259 . S
C205 O202 1.235 . S
O206 Co196 2.021 . S
O206 C203 1.238 . S
O207 Co201 2.052 . S
O207 C203 1.241 . S
O208 Co196 2.137 . S
O208 C199 1.247 . S
O209 Co196 2.244 . S
O209 C199 1.272 . S
O209 Co201 2.135 . S
Co210 O211 2.216 . S
Co210 O212 2.091 . S
Co210 O214 2.004 . S
Co210 O220 2.021 . S
Co210 O222 2.137 . S
Co210 O223 2.244 . S
O211 Co210 2.216 . S
O211 C218 1.247 . S
O212 Co210 2.091 . S
O212 C218 1.261 . S
C213 O222 1.247 . S
C213 O223 1.272 . S
O214 Co210 2.004 . S
O214 C219 1.259 . S
Co215 O216 2.061 . S
Co215 O221 2.052 . S
Co215 O223 2.135 . S
O216 Co215 2.061 . S
O216 C219 1.235 . S
C217 O220 1.238 . S
C217 O221 1.241 . S
C218 O211 1.247 . S
C218 O212 1.261 . S
C219 O214 1.259 . S
C219 O216 1.235 . S
O220 Co210 2.021 . S
O220 C217 1.238 . S
O221 Co215 2.052 . S
O221 C217 1.241 . S
O222 Co210 2.137 . S
O222 C213 1.247 . S
O223 Co210 2.244 . S
O223 C213 1.272 . S
O223 Co215 2.135 . S
H224 C230 0.930 . S
H225 C234 0.930 . S
H226 C239 0.929 . S
H227 C237 0.929 . S
H228 C232 0.929 . S
H229 C238 0.929 . S
C230 H224 0.930 . S
C230 C231 1.367 . S
C230 C238 1.378 . S
C231 C230 1.367 . S
C231 C239 1.433 . S
C232 H228 0.929 . S
C232 C234 1.378 . S
C232 C236 1.350 . S
C233 C236 1.463 . S
C233 C238 1.350 . S
C233 N241 1.427 . S
C234 H225 0.930 . S
C234 C232 1.378 . S
C234 C235 1.367 . S
C235 C234 1.367 . S
C235 C237 1.433 . S
C236 C232 1.350 . S
C236 C233 1.463 . S
C236 N240 1.427 . S
C237 H227 0.929 . S
C237 C235 1.433 . S
C237 N240 1.384 . S
C238 H229 0.929 . S
C238 C230 1.378 . S
C238 C233 1.350 . S
C239 H226 0.929 . S
C239 C231 1.433 . S
C239 N241 1.384 . S
N240 C236 1.427 . S
N240 C237 1.384 . S
N241 C233 1.427 . S
N241 C239 1.384 . S
H242 C248 0.930 . S
H243 C252 0.930 . S
H244 C257 0.929 . S
H245 C255 0.929 . S
H246 C250 0.929 . S
H247 C256 0.929 . S
C248 H242 0.930 . S
C248 C249 1.367 . S
C248 C256 1.378 . S
C249 C248 1.367 . S
C249 C257 1.433 . S
C250 H246 0.929 . S
C250 C252 1.378 . S
C250 C254 1.350 . S
C251 C254 1.463 . S
C251 C256 1.350 . S
C251 N259 1.427 . S
C252 H243 0.930 . S
C252 C250 1.378 . S
C252 C253 1.367 . S
C253 C252 1.367 . S
C253 C255 1.433 . S
C254 C250 1.350 . S
C254 C251 1.463 . S
C254 N258 1.427 . S
C255 H245 0.929 . S
C255 C253 1.433 . S
C255 N258 1.384 . S
C256 H247 0.929 . S
C256 C248 1.378 . S
C256 C251 1.350 . S
C257 H244 0.929 . S
C257 C249 1.433 . S
C257 N259 1.384 . S
N258 C254 1.427 . S
N258 C255 1.384 . S
N259 C251 1.427 . S
N259 C257 1.384 . S
H260 C266 0.930 . S
H261 C270 0.930 . S
H262 C275 0.929 . S
H263 C273 0.929 . S
H264 C268 0.929 . S
H265 C274 0.929 . S
C266 H260 0.930 . S
C266 C267 1.367 . S
C266 C274 1.378 . S
C267 C266 1.367 . S
C267 C275 1.433 . S
C268 H264 0.929 . S
C268 C270 1.378 . S
C268 C272 1.350 . S
C269 C272 1.463 . S
C269 C274 1.350 . S
C269 N277 1.427 . S
C270 H261 0.930 . S
C270 C268 1.378 . S
C270 C271 1.367 . S
C271 C270 1.367 . S
C271 C273 1.433 . S
C272 C268 1.350 . S
C272 C269 1.463 . S
C272 N276 1.427 . S
C273 H263 0.929 . S
C273 C271 1.433 . S
C273 N276 1.384 . S
C274 H265 0.929 . S
C274 C266 1.378 . S
C274 C269 1.350 . S
C275 H262 0.929 . S
C275 C267 1.433 . S
C275 N277 1.384 . S
N276 C272 1.427 . S
N276 C273 1.384 . S
N277 C269 1.427 . S
N277 C275 1.384 . S
H278 C284 0.930 1_554 S
H279 C288 0.930 . S
H280 C293 0.929 . S
H281 C291 0.929 1_455 S
H282 C286 0.929 . S
H283 C292 0.929 1_554 S
C284 H278 0.930 1_556 S
C284 C285 1.367 . S
C284 C292 1.378 . S
C285 C284 1.367 . S
C285 C293 1.433 . S
C286 H282 0.929 . S
C286 C288 1.378 . S
C286 C290 1.350 . S
C287 C290 1.463 . S
C287 C292 1.350 . S
C287 N295 1.427 . S
C288 H279 0.930 . S
C288 C286 1.378 . S
C288 C289 1.367 . S
C289 C288 1.367 . S
C289 C291 1.433 . S
C290 C286 1.350 . S
C290 C287 1.463 . S
C290 N294 1.427 . S
C291 H281 0.929 1_655 S
C291 C289 1.433 . S
C291 N294 1.384 . S
C292 H283 0.929 1_556 S
C292 C284 1.378 . S
C292 C287 1.350 . S
C293 H280 0.929 . S
C293 C285 1.433 . S
C293 N295 1.384 . S
N294 C290 1.427 . S
N294 C291 1.384 . S
N295 C287 1.427 . S
N295 C293 1.384 . S
H296 C302 0.930 . S
H297 C306 0.930 . S
H298 C311 0.929 . S
H299 C309 0.929 . S
H300 C304 0.929 . S
H301 C310 0.929 . S
C302 H296 0.930 . S
C302 C303 1.367 . S
C302 C310 1.378 . S
C303 C302 1.367 . S
C303 C311 1.433 . S
C304 H300 0.929 . S
C304 C306 1.378 . S
C304 C308 1.350 . S
C305 C308 1.463 . S
C305 C310 1.350 . S
C305 N313 1.427 . S
C306 H297 0.930 . S
C306 C304 1.378 . S
C306 C307 1.367 . S
C307 C306 1.367 . S
C307 C309 1.433 . S
C308 C304 1.350 . S
C308 C305 1.463 . S
C308 N312 1.427 . S
C309 H299 0.929 . S
C309 C307 1.433 . S
C309 N312 1.384 . S
C310 H301 0.929 . S
C310 C302 1.378 . S
C310 C305 1.350 . S
C311 H298 0.929 . S
C311 C303 1.433 . S
C311 N313 1.384 . S
N312 C308 1.427 . S
N312 C309 1.384 . S
N313 C305 1.427 . S
N313 C311 1.384 . S
H314 C320 0.930 . S
H315 C324 0.930 . S
H316 C329 0.929 . S
H317 C327 0.929 . S
H318 C322 0.929 . S
H319 C328 0.929 . S
C320 H314 0.930 . S
C320 C321 1.367 . S
C320 C328 1.378 . S
C321 C320 1.367 . S
C321 C329 1.433 . S
C322 H318 0.929 . S
C322 C324 1.378 . S
C322 C326 1.350 . S
C323 C326 1.463 . S
C323 C328 1.350 . S
C323 N331 1.427 . S
C324 H315 0.930 . S
C324 C322 1.378 . S
C324 C325 1.367 . S
C325 C324 1.367 . S
C325 C327 1.433 . S
C326 C322 1.350 . S
C326 C323 1.463 . S
C326 N330 1.427 . S
C327 H317 0.929 . S
C327 C325 1.433 . S
C327 N330 1.384 . S
C328 H319 0.929 . S
C328 C320 1.378 . S
C328 C323 1.350 . S
C329 H316 0.929 . S
C329 C321 1.433 . S
C329 N331 1.384 . S
N330 C326 1.427 . S
N330 C327 1.384 . S
N331 C323 1.427 . S
N331 C329 1.384 . S
H332 C338 0.930 . S
H333 C342 0.930 . S
H334 C347 0.929 . S
H335 C345 0.929 . S
H336 C340 0.929 . S
H337 C346 0.929 . S
C338 H332 0.930 . S
C338 C339 1.367 . S
C338 C346 1.378 . S
C339 C338 1.367 . S
C339 C347 1.433 . S
C340 H336 0.929 . S
C340 C342 1.378 . S
C340 C344 1.350 . S
C341 C344 1.463 . S
C341 C346 1.350 . S
C341 N349 1.427 . S
C342 H333 0.930 . S
C342 C340 1.378 . S
C342 C343 1.367 . S
C343 C342 1.367 . S
C343 C345 1.433 . S
C344 C340 1.350 . S
C344 C341 1.463 . S
C344 N348 1.427 . S
C345 H335 0.929 . S
C345 C343 1.433 . S
C345 N348 1.384 . S
C346 H337 0.929 . S
C346 C338 1.378 . S
C346 C341 1.350 . S
C347 H334 0.929 . S
C347 C339 1.433 . S
C347 N349 1.384 . S
N348 C344 1.427 . S
N348 C345 1.384 . S
N349 C341 1.427 . S
N349 C347 1.384 . S
H350 C356 0.930 . S
H351 C360 0.930 . S
H352 C365 0.929 . S
H353 C363 0.929 . S
H354 C358 0.929 . S
H355 C364 0.929 . S
C356 H350 0.930 . S
C356 C357 1.367 . S
C356 C364 1.378 . S
C357 C356 1.367 . S
C357 C365 1.433 . S
C358 H354 0.929 . S
C358 C360 1.378 . S
C358 C362 1.350 . S
C359 C362 1.463 . S
C359 C364 1.350 . S
C359 N367 1.427 . S
C360 H351 0.930 . S
C360 C358 1.378 . S
C360 C361 1.367 . S
C361 C360 1.367 . S
C361 C363 1.433 . S
C362 C358 1.350 . S
C362 C359 1.463 . S
C362 N366 1.427 . S
C363 H353 0.929 . S
C363 C361 1.433 . S
C363 N366 1.384 . S
C364 H355 0.929 . S
C364 C356 1.378 . S
C364 C359 1.350 . S
C365 H352 0.929 . S
C365 C357 1.433 . S
C365 N367 1.384 . S
N366 C362 1.427 . S
N366 C363 1.384 . S
N367 C359 1.427 . S
N367 C365 1.384 . S
H368 C374 0.930 . S
H369 C378 0.930 . S
H370 C383 0.929 . S
H371 C381 0.929 . S
H372 C376 0.929 . S
H373 C382 0.929 . S
C374 H368 0.930 . S
C374 C375 1.367 . S
C374 C382 1.378 . S
C375 C374 1.367 . S
C375 C383 1.433 . S
C376 H372 0.929 . S
C376 C378 1.378 . S
C376 C380 1.350 . S
C377 C380 1.463 . S
C377 C382 1.350 . S
C377 N385 1.427 . S
C378 H369 0.930 . S
C378 C376 1.378 . S
C378 C379 1.367 . S
C379 C378 1.367 . S
C379 C381 1.433 1_556 S
C380 C376 1.350 . S
C380 C377 1.463 . S
C380 N384 1.427 1_556 S
C381 H371 0.929 . S
C381 C379 1.433 1_554 S
C381 N384 1.384 . S
C382 H373 0.929 . S
C382 C374 1.378 . S
C382 C377 1.350 . S
C383 H370 0.929 . S
C383 C375 1.433 . S
C383 N385 1.384 . S
N384 C380 1.427 1_554 S
N384 C381 1.384 . S
N385 C377 1.427 . S
N385 C383 1.384 . S
H386 C392 0.930 . S
H387 C396 0.930 . S
H388 C401 0.929 . S
H389 C399 0.929 . S
H390 C394 0.929 . S
H391 C400 0.929 . S
C392 H386 0.930 . S
C392 C393 1.367 . S
C392 C400 1.378 . S
C393 C392 1.367 . S
C393 C401 1.433 . S
C394 H390 0.929 . S
C394 C396 1.378 . S
C394 C398 1.350 . S
C395 C398 1.463 . S
C395 C400 1.350 . S
C395 N403 1.427 . S
C396 H387 0.930 . S
C396 C394 1.378 . S
C396 C397 1.367 . S
C397 C396 1.367 . S
C397 C399 1.433 . S
C398 C394 1.350 . S
C398 C395 1.463 . S
C398 N402 1.427 . S
C399 H389 0.929 . S
C399 C397 1.433 . S
C399 N402 1.384 . S
C400 H391 0.929 . S
C400 C392 1.378 . S
C400 C395 1.350 . S
C401 H388 0.929 . S
C401 C393 1.433 . S
C401 N403 1.384 . S
N402 C398 1.427 . S
N402 C399 1.384 . S
N403 C395 1.427 . S
N403 C401 1.384 . S
H404 C410 0.930 . S
H405 C414 0.930 . S
H406 C419 0.929 . S
H407 C417 0.929 . S
H408 C412 0.929 . S
H409 C418 0.929 . S
C410 H404 0.930 . S
C410 C411 1.367 . S
C410 C418 1.378 . S
C411 C410 1.367 . S
C411 C419 1.433 . S
C412 H408 0.929 . S
C412 C414 1.378 . S
C412 C416 1.350 . S
C413 C416 1.463 . S
C413 C418 1.350 . S
C413 N421 1.427 . S
C414 H405 0.930 . S
C414 C412 1.378 . S
C414 C415 1.367 . S
C415 C414 1.367 . S
C415 C417 1.433 . S
C416 C412 1.350 . S
C416 C413 1.463 . S
C416 N420 1.427 . S
C417 H407 0.929 . S
C417 C415 1.433 . S
C417 N420 1.384 . S
C418 H409 0.929 . S
C418 C410 1.378 . S
C418 C413 1.350 . S
C419 H406 0.929 . S
C419 C411 1.433 . S
C419 N421 1.384 . S
N420 C416 1.427 . S
N420 C417 1.384 . S
N421 C413 1.427 . S
N421 C419 1.384 . S
H422 C428 0.930 . S
H423 C432 0.930 . S
H424 C437 0.929 . S
H425 C435 0.929 . S
H426 C430 0.929 . S
H427 C436 0.929 . S
C428 H422 0.930 . S
C428 C429 1.367 . S
C428 C436 1.378 . S
C429 C428 1.367 . S
C429 C437 1.433 . S
C430 H426 0.929 . S
C430 C432 1.378 . S
C430 C434 1.350 . S
C431 C434 1.463 . S
C431 C436 1.350 . S
C431 N439 1.427 . S
C432 H423 0.930 . S
C432 C430 1.378 . S
C432 C433 1.367 . S
C433 C432 1.367 . S
C433 C435 1.433 . S
C434 C430 1.350 . S
C434 C431 1.463 . S
C434 N438 1.427 . S
C435 H425 0.929 . S
C435 C433 1.433 . S
C435 N438 1.384 . S
C436 H427 0.929 . S
C436 C428 1.378 . S
C436 C431 1.350 . S
C437 H424 0.929 . S
C437 C429 1.433 . S
C437 N439 1.384 . S
N438 C434 1.427 . S
N438 C435 1.384 . S
N439 C431 1.427 . S
N439 C437 1.384 . S
H440 C446 0.930 . S
H441 C450 0.930 . S
H442 C455 0.929 . S
H443 C453 0.929 . S
H444 C448 0.929 . S
H445 C454 0.929 . S
C446 H440 0.930 . S
C446 C447 1.367 . S
C446 C454 1.378 . S
C447 C446 1.367 . S
C447 C455 1.433 . S
C448 H444 0.929 . S
C448 C450 1.378 . S
C448 C452 1.350 . S
C449 C452 1.463 . S
C449 C454 1.350 . S
C449 N457 1.427 . S
C450 H441 0.930 . S
C450 C448 1.378 . S
C450 C451 1.367 . S
C451 C450 1.367 . S
C451 C453 1.433 . S
C452 C448 1.350 . S
C452 C449 1.463 . S
C452 N456 1.427 . S
C453 H443 0.929 . S
C453 C451 1.433 . S
C453 N456 1.384 . S
C454 H445 0.929 . S
C454 C446 1.378 . S
C454 C449 1.350 . S
C455 H442 0.929 . S
C455 C447 1.433 . S
C455 N457 1.384 . S
N456 C452 1.427 . S
N456 C453 1.384 . S
N457 C449 1.427 . S
N457 C455 1.384 . S
H458 C464 0.930 . S
H459 C468 0.930 . S
H460 C473 0.929 . S
H461 C471 0.929 . S
H462 C466 0.929 1_554 S
H463 C472 0.929 . S
C464 H458 0.930 . S
C464 C465 1.367 . S
C464 C472 1.378 . S
C465 C464 1.367 . S
C465 C473 1.433 . S
C466 H462 0.929 1_556 S
C466 C468 1.378 1_556 S
C466 C470 1.350 . S
C467 C470 1.463 . S
C467 C472 1.350 . S
C467 N475 1.427 . S
C468 H459 0.930 . S
C468 C466 1.378 1_554 S
C468 C469 1.368 . S
C469 C468 1.368 . S
C469 C471 1.431 1_554 S
C470 C466 1.350 . S
C470 C467 1.463 . S
C470 N474 1.427 . S
C471 H461 0.929 . S
C471 C469 1.431 1_556 S
C471 N474 1.384 . S
C472 H463 0.929 . S
C472 C464 1.378 . S
C472 C467 1.350 . S
C473 H460 0.929 . S
C473 C465 1.433 . S
C473 N475 1.384 . S
N474 C470 1.427 . S
N474 C471 1.384 . S
N475 C467 1.427 . S
N475 C473 1.384 . S
H476 C482 0.930 . S
H477 C486 0.930 . S
H478 C491 0.929 . S
H479 C489 0.929 . S
H480 C484 0.929 . S
H481 C490 0.929 . S
C482 H476 0.930 . S
C482 C483 1.367 . S
C482 C490 1.378 . S
C483 C482 1.367 . S
C483 C491 1.433 . S
C484 H480 0.929 . S
C484 C486 1.378 . S
C484 C488 1.350 . S
C485 C488 1.463 . S
C485 C490 1.350 . S
C485 N493 1.427 . S
C486 H477 0.930 . S
C486 C484 1.378 . S
C486 C487 1.367 . S
C487 C486 1.367 . S
C487 C489 1.433 . S
C488 C484 1.350 . S
C488 C485 1.463 . S
C488 N492 1.427 . S
C489 H479 0.929 . S
C489 C487 1.433 . S
C489 N492 1.384 . S
C490 H481 0.929 . S
C490 C482 1.378 . S
C490 C485 1.350 . S
C491 H478 0.929 . S
C491 C483 1.433 . S
C491 N493 1.384 . S
N492 C488 1.427 . S
N492 C489 1.384 . S
N493 C485 1.427 . S
N493 C491 1.384 . S
H494 C500 0.930 . S
H495 C504 0.930 . S
H496 C509 0.929 . S
H497 C507 0.929 . S
H498 C502 0.929 . S
H499 C508 0.929 . S
C500 H494 0.930 . S
C500 C501 1.367 . S
C500 C508 1.378 . S
C501 C500 1.367 . S
C501 C509 1.433 . S
C502 H498 0.929 . S
C502 C504 1.378 . S
C502 C506 1.350 . S
C503 C506 1.463 . S
C503 C508 1.350 . S
C503 N511 1.427 . S
C504 H495 0.930 . S
C504 C502 1.378 . S
C504 C505 1.367 . S
C505 C504 1.367 . S
C505 C507 1.433 . S
C506 C502 1.350 . S
C506 C503 1.463 . S
C506 N510 1.427 . S
C507 H497 0.929 . S
C507 C505 1.433 . S
C507 N510 1.384 . S
C508 H499 0.929 . S
C508 C500 1.378 . S
C508 C503 1.350 . S
C509 H496 0.929 . S
C509 C501 1.433 . S
C509 N511 1.384 . S
N510 C506 1.427 . S
N510 C507 1.384 . S
N511 C503 1.427 . S
N511 C509 1.384 . S
H512 C518 0.930 . S
H513 C522 0.930 . S
H514 C527 0.929 . S
H515 C525 0.929 . S
H516 C520 0.929 . S
H517 C526 0.929 . S
C518 H512 0.930 . S
C518 C519 1.367 . S
C518 C526 1.378 . S
C519 C518 1.367 . S
C519 C527 1.433 . S
C520 H516 0.929 . S
C520 C522 1.378 . S
C520 C524 1.350 . S
C521 C524 1.463 . S
C521 C526 1.350 . S
C521 N529 1.427 . S
C522 H513 0.930 . S
C522 C520 1.378 . S
C522 C523 1.367 1_554 S
C523 C522 1.367 1_556 S
C523 C525 1.433 . S
C524 C520 1.350 . S
C524 C521 1.463 . S
C524 N528 1.427 1_554 S
C525 H515 0.929 . S
C525 C523 1.433 . S
C525 N528 1.384 . S
C526 H517 0.929 . S
C526 C518 1.378 . S
C526 C521 1.350 . S
C527 H514 0.929 . S
C527 C519 1.433 . S
C527 N529 1.384 . S
N528 C524 1.427 1_556 S
N528 C525 1.384 . S
N529 C521 1.427 . S
N529 C527 1.384 . S
H530 C536 0.930 . S
H531 C540 0.930 . S
H532 C545 0.929 . S
H533 C543 0.929 . S
H534 C538 0.929 . S
H535 C544 0.929 . S
C536 H530 0.930 . S
C536 C537 1.367 . S
C536 C544 1.378 . S
C537 C536 1.367 . S
C537 C545 1.433 . S
C538 H534 0.929 . S
C538 C540 1.378 . S
C538 C542 1.350 . S
C539 C542 1.463 . S
C539 C544 1.350 . S
C539 N547 1.427 . S
C540 H531 0.930 . S
C540 C538 1.378 . S
C540 C541 1.367 . S
C541 C540 1.367 . S
C541 C543 1.433 . S
C542 C538 1.350 . S
C542 C539 1.463 . S
C542 N546 1.427 . S
C543 H533 0.929 . S
C543 C541 1.433 . S
C543 N546 1.384 . S
C544 H535 0.929 . S
C544 C536 1.378 . S
C544 C539 1.350 . S
C545 H532 0.929 . S
C545 C537 1.433 . S
C545 N547 1.384 . S
N546 C542 1.427 . S
N546 C543 1.384 . S
N547 C539 1.427 . S
N547 C545 1.384 . S
H548 C554 0.930 . S
H549 C558 0.930 . S
H550 C563 0.929 . S
H551 C561 0.929 . S
H552 C556 0.929 . S
H553 C562 0.929 . S
C554 H548 0.930 . S
C554 C555 1.367 . S
C554 C562 1.378 . S
C555 C554 1.367 . S
C555 C563 1.433 . S
C556 H552 0.929 . S
C556 C558 1.378 . S
C556 C560 1.350 . S
C557 C560 1.463 . S
C557 C562 1.350 . S
C557 N565 1.427 . S
C558 H549 0.930 . S
C558 C556 1.378 . S
C558 C559 1.367 . S
C559 C558 1.367 . S
C559 C561 1.433 . S
C560 C556 1.350 . S
C560 C557 1.463 . S
C560 N564 1.427 . S
C561 H551 0.929 . S
C561 C559 1.433 . S
C561 N564 1.384 . S
C562 H553 0.929 . S
C562 C554 1.378 . S
C562 C557 1.350 . S
C563 H550 0.929 . S
C563 C555 1.433 . S
C563 N565 1.384 . S
N564 C560 1.427 . S
N564 C561 1.384 . S
N565 C557 1.427 . S
N565 C563 1.384 . S
H566 C572 0.930 . S
H567 C576 0.930 . S
H568 C581 0.929 . S
H569 C579 0.929 . S
H570 C574 0.929 . S
H571 C580 0.929 . S
C572 H566 0.930 . S
C572 C573 1.367 . S
C572 C580 1.378 . S
C573 C572 1.367 . S
C573 C581 1.433 . S
C574 H570 0.929 . S
C574 C576 1.378 . S
C574 C578 1.350 . S
C575 C578 1.463 . S
C575 C580 1.350 . S
C575 N583 1.427 . S
C576 H567 0.930 . S
C576 C574 1.378 . S
C576 C577 1.367 . S
C577 C576 1.367 . S
C577 C579 1.433 . S
C578 C574 1.350 . S
C578 C575 1.463 . S
C578 N582 1.427 . S
C579 H569 0.929 . S
C579 C577 1.433 . S
C579 N582 1.384 . S
C580 H571 0.929 . S
C580 C572 1.378 . S
C580 C575 1.350 . S
C581 H568 0.929 . S
C581 C573 1.433 . S
C581 N583 1.384 . S
N582 C578 1.427 . S
N582 C579 1.384 . S
N583 C575 1.427 . S
N583 C581 1.384 . S
H584 C590 0.930 . S
H585 C594 0.930 . S
H586 C599 0.929 . S
H587 C597 0.929 . S
H588 C592 0.929 . S
H589 C598 0.929 . S
C590 H584 0.930 . S
C590 C591 1.367 . S
C590 C598 1.378 . S
C591 C590 1.367 . S
C591 C599 1.433 . S
C592 H588 0.929 . S
C592 C594 1.378 . S
C592 C596 1.350 . S
C593 C596 1.463 . S
C593 C598 1.350 . S
C593 N601 1.427 . S
C594 H585 0.930 . S
C594 C592 1.378 . S
C594 C595 1.367 . S
C595 C594 1.367 . S
C595 C597 1.433 . S
C596 C592 1.350 . S
C596 C593 1.463 . S
C596 N600 1.427 . S
C597 H587 0.929 . S
C597 C595 1.433 . S
C597 N600 1.384 . S
C598 H589 0.929 . S
C598 C590 1.378 . S
C598 C593 1.350 . S
C599 H586 0.929 . S
C599 C591 1.433 . S
C599 N601 1.384 . S
N600 C596 1.427 . S
N600 C597 1.384 . S
N601 C593 1.427 . S
N601 C599 1.384 . S
H602 C608 0.930 . S
H603 C612 0.930 . S
H604 C617 0.929 . S
H605 C615 0.929 . S
H606 C610 0.929 . S
H607 C616 0.929 . S
C608 H602 0.930 . S
C608 C609 1.367 . S
C608 C616 1.378 . S
C609 C608 1.367 . S
C609 C617 1.433 . S
C610 H606 0.929 . S
C610 C612 1.378 . S
C610 C614 1.350 . S
C611 C614 1.463 . S
C611 C616 1.350 . S
C611 N619 1.427 . S
C612 H603 0.930 . S
C612 C610 1.378 . S
C612 C613 1.367 . S
C613 C612 1.367 . S
C613 C615 1.433 . S
C614 C610 1.350 . S
C614 C611 1.463 . S
C614 N618 1.427 . S
C615 H605 0.929 . S
C615 C613 1.433 . S
C615 N618 1.384 . S
C616 H607 0.929 . S
C616 C608 1.378 . S
C616 C611 1.350 . S
C617 H604 0.929 . S
C617 C609 1.433 . S
C617 N619 1.384 . S
N618 C614 1.427 . S
N618 C615 1.384 . S
N619 C611 1.427 . S
N619 C617 1.384 . S
H620 C626 0.930 . S
H621 C630 0.930 . S
H622 C635 0.929 . S
H623 C633 0.929 . S
H624 C628 0.929 1_565 S
H625 C634 0.929 1_545 S
C626 H620 0.930 . S
C626 C627 1.367 . S
C626 C634 1.378 . S
C627 C626 1.367 . S
C627 C635 1.433 . S
C628 H624 0.929 1_545 S
C628 C630 1.378 . S
C628 C632 1.350 . S
C629 C632 1.463 1_565 S
C629 C634 1.350 . S
C629 N637 1.427 . S
C630 H621 0.930 . S
C630 C628 1.378 . S
C630 C631 1.367 . S
C631 C630 1.367 . S
C631 C633 1.433 . S
C632 C628 1.350 . S
C632 C629 1.463 1_545 S
C632 N636 1.427 . S
C633 H623 0.929 . S
C633 C631 1.433 . S
C633 N636 1.384 . S
C634 H625 0.929 1_565 S
C634 C626 1.378 . S
C634 C629 1.350 . S
C635 H622 0.929 . S
C635 C627 1.433 . S
C635 N637 1.384 . S
N636 C632 1.427 . S
N636 C633 1.384 . S
N637 C629 1.427 . S
N637 C635 1.384 . S
H638 C644 0.920 1_655 S
H639 C648 0.930 . S
H640 C653 0.929 . S
H641 C651 0.908 1_655 S
H642 C646 0.929 . S
H643 C652 0.919 1_655 S
C644 H638 0.920 1_455 S
C644 C645 1.367 . S
C644 C652 1.378 1_556 S
C645 C644 1.367 . S
C645 C653 1.433 . S
C646 H642 0.929 . S
C646 C648 1.378 . S
C646 C650 1.350 . S
C647 C650 1.463 1_545 S
C647 C652 1.350 . S
C647 N655 1.427 1_554 S
C648 H639 0.930 . S
C648 C646 1.378 . S
C648 C649 1.367 . S
C649 C648 1.367 . S
C649 C651 1.433 . S
C650 C646 1.350 . S
C650 C647 1.463 1_565 S
C650 N654 1.427 . S
C651 H641 0.908 1_455 S
C651 C649 1.433 . S
C651 N654 1.384 . S
C652 H643 0.919 1_455 S
C652 C644 1.378 1_554 S
C652 C647 1.350 . S
C653 H640 0.929 . S
C653 C645 1.433 . S
C653 N655 1.384 . S
N654 C650 1.427 . S
N654 C651 1.384 . S
N655 C647 1.427 1_556 S
N655 C653 1.384 . S
H656 C662 0.930 . S
H657 C666 0.930 1_655 S
H658 C671 0.929 1_655 S
H659 C669 0.929 . S
H660 C664 0.929 1_655 S
H661 C670 0.929 . S
C662 H656 0.930 . S
C662 C663 1.367 . S
C662 C670 1.378 . S
C663 C662 1.367 . S
C663 C671 1.433 . S
C664 H660 0.929 1_455 S
C664 C666 1.378 . S
C664 C668 1.350 . S
C665 C668 1.463 . S
C665 C670 1.350 . S
C665 N673 1.427 . S
C666 H657 0.930 1_455 S
C666 C664 1.378 . S
C666 C667 1.367 . S
C667 C666 1.367 . S
C667 C669 1.433 . S
C668 C664 1.350 . S
C668 C665 1.463 . S
C668 N672 1.427 . S
C669 H659 0.929 . S
C669 C667 1.433 . S
C669 N672 1.384 . S
C670 H661 0.929 . S
C670 C662 1.378 . S
C670 C665 1.350 . S
C671 H658 0.929 1_455 S
C671 C663 1.433 . S
C671 N673 1.384 . S
N672 C668 1.427 . S
N672 C669 1.384 . S
N673 C665 1.427 . S
N673 C671 1.384 . S
H674 C680 0.930 . S
H675 C684 0.930 . S
H676 C689 0.929 . S
H677 C687 0.929 . S
H678 C682 0.929 . S
H679 C688 0.929 . S
C680 H674 0.930 . S
C680 C681 1.367 . S
C680 C688 1.378 . S
C681 C680 1.367 . S
C681 C689 1.433 . S
C682 H678 0.929 . S
C682 C684 1.378 . S
C682 C686 1.350 . S
C683 C686 1.463 . S
C683 C688 1.350 . S
C683 N691 1.427 . S
C684 H675 0.930 . S
C684 C682 1.378 . S
C684 C685 1.367 . S
C685 C684 1.367 . S
C685 C687 1.433 . S
C686 C682 1.350 . S
C686 C683 1.463 . S
C686 N690 1.427 . S
C687 H677 0.929 . S
C687 C685 1.433 . S
C687 N690 1.384 . S
C688 H679 0.929 . S
C688 C680 1.378 . S
C688 C683 1.350 . S
C689 H676 0.929 . S
C689 C681 1.433 . S
C689 N691 1.384 . S
N690 C686 1.427 . S
N690 C687 1.384 . S
N691 C683 1.427 . S
N691 C689 1.384 . S
H692 C698 0.930 . S
H693 C702 0.930 . S
H694 C707 0.929 . S
H695 C705 0.929 . S
H696 C700 0.929 . S
H697 C706 0.929 . S
C698 H692 0.930 . S
C698 C699 1.367 . S
C698 C706 1.378 . S
C699 C698 1.367 . S
C699 C707 1.433 . S
C700 H696 0.929 . S
C700 C702 1.378 1_554 S
C700 C704 1.350 . S
C701 C704 1.463 . S
C701 C706 1.350 . S
C701 N709 1.427 . S
C702 H693 0.930 . S
C702 C700 1.378 1_556 S
C702 C703 1.367 . S
C703 C702 1.367 . S
C703 C705 1.433 . S
C704 C700 1.350 . S
C704 C701 1.463 . S
C704 N708 1.427 1_554 S
C705 H695 0.929 . S
C705 C703 1.433 . S
C705 N708 1.384 . S
C706 H697 0.929 . S
C706 C698 1.378 . S
C706 C701 1.350 . S
C707 H694 0.929 . S
C707 C699 1.433 . S
C707 N709 1.384 . S
N708 C704 1.427 1_556 S
N708 C705 1.384 . S
N709 C701 1.427 . S
N709 C707 1.384 . S
H710 C716 0.930 . S
H711 C720 0.930 . S
H712 C725 0.929 . S
H713 C723 0.929 . S
H714 C718 0.929 . S
H715 C724 0.929 . S
C716 H710 0.930 . S
C716 C717 1.367 . S
C716 C724 1.378 . S
C717 C716 1.367 . S
C717 C725 1.433 . S
C718 H714 0.929 . S
C718 C720 1.378 . S
C718 C722 1.350 . S
C719 C722 1.463 . S
C719 C724 1.350 . S
C719 N727 1.427 . S
C720 H711 0.930 . S
C720 C718 1.378 . S
C720 C721 1.367 . S
C721 C720 1.367 . S
C721 C723 1.433 . S
C722 C718 1.350 . S
C722 C719 1.463 . S
C722 N726 1.427 . S
C723 H713 0.929 . S
C723 C721 1.433 . S
C723 N726 1.384 . S
C724 H715 0.929 . S
C724 C716 1.378 . S
C724 C719 1.350 . S
C725 H712 0.929 . S
C725 C717 1.433 . S
C725 N727 1.384 . S
N726 C722 1.427 . S
N726 C723 1.384 . S
N727 C719 1.427 . S
N727 C725 1.384 . S
H728 C734 0.930 . S
H729 C738 0.930 . S
H730 C743 0.929 . S
H731 C741 0.929 . S
H732 C736 0.929 . S
H733 C742 0.929 . S
C734 H728 0.930 . S
C734 C735 1.367 . S
C734 C742 1.378 . S
C735 C734 1.367 . S
C735 C743 1.433 . S
C736 H732 0.929 . S
C736 C738 1.378 . S
C736 C740 1.350 . S
C737 C740 1.463 . S
C737 C742 1.350 . S
C737 N745 1.427 . S
C738 H729 0.930 . S
C738 C736 1.378 . S
C738 C739 1.367 . S
C739 C738 1.367 . S
C739 C741 1.433 . S
C740 C736 1.350 . S
C740 C737 1.463 . S
C740 N744 1.427 . S
C741 H731 0.929 . S
C741 C739 1.433 . S
C741 N744 1.384 . S
C742 H733 0.929 . S
C742 C734 1.378 . S
C742 C737 1.350 . S
C743 H730 0.929 . S
C743 C735 1.433 . S
C743 N745 1.384 . S
N744 C740 1.427 . S
N744 C741 1.384 . S
N745 C737 1.427 . S
N745 C743 1.384 . S
H746 C752 0.930 . S
H747 C756 0.930 . S
H748 C761 0.929 . S
H749 C759 0.929 . S
H750 C754 0.929 . S
H751 C760 0.929 . S
C752 H746 0.930 . S
C752 C753 1.367 . S
C752 C760 1.378 . S
C753 C752 1.367 . S
C753 C761 1.433 . S
C754 H750 0.929 . S
C754 C756 1.378 . S
C754 C758 1.350 . S
C755 C758 1.463 . S
C755 C760 1.350 . S
C755 N763 1.427 . S
C756 H747 0.930 . S
C756 C754 1.378 . S
C756 C757 1.367 . S
C757 C756 1.367 . S
C757 C759 1.433 . S
C758 C754 1.350 . S
C758 C755 1.463 . S
C758 N762 1.427 . S
C759 H749 0.929 . S
C759 C757 1.433 . S
C759 N762 1.384 . S
C760 H751 0.929 . S
C760 C752 1.378 . S
C760 C755 1.350 . S
C761 H748 0.929 . S
C761 C753 1.433 . S
C761 N763 1.384 . S
N762 C758 1.427 . S
N762 C759 1.384 . S
N763 C755 1.427 . S
N763 C761 1.384 . S
H764 C770 0.930 . S
H765 C774 0.930 . S
H766 C779 0.929 . S
H767 C777 0.929 . S
H768 C772 0.929 . S
H769 C778 0.929 . S
C770 H764 0.930 . S
C770 C771 1.367 . S
C770 C778 1.378 . S
C771 C770 1.367 . S
C771 C779 1.433 . S
C772 H768 0.929 . S
C772 C774 1.378 1_554 S
C772 C776 1.350 . S
C773 C776 1.463 1_565 S
C773 C778 1.350 . S
C773 N781 1.427 . S
C774 H765 0.930 . S
C774 C772 1.378 1_556 S
C774 C775 1.367 . S
C775 C774 1.367 . S
C775 C777 1.433 . S
C776 C772 1.350 . S
C776 C773 1.463 1_545 S
C776 N780 1.427 . S
C777 H767 0.929 . S
C777 C775 1.433 . S
C777 N780 1.384 1_556 S
C778 H769 0.929 . S
C778 C770 1.378 . S
C778 C773 1.350 . S
C779 H766 0.929 . S
C779 C771 1.433 . S
C779 N781 1.384 . S
N780 C776 1.427 . S
N780 C777 1.384 1_554 S
N781 C773 1.427 . S
N781 C779 1.384 . S
H782 C788 0.930 . S
H783 C792 0.930 . S
H784 C797 0.929 . S
H785 C795 0.929 . S
H786 C790 0.895 1_545 S
H787 C796 0.895 1_565 S
C788 H782 0.930 . S
C788 C789 1.367 . S
C788 C796 1.401 . S
C789 C788 1.367 . S
C789 C797 1.433 . S
C790 H786 0.895 1_565 S
C790 C792 1.401 . S
C790 C794 1.361 . S
C791 C794 1.463 1_545 S
C791 C796 1.361 . S
C791 N799 1.427 . S
C792 H783 0.930 . S
C792 C790 1.401 . S
C792 C793 1.367 . S
C793 C792 1.367 . S
C793 C795 1.433 . S
C794 C790 1.361 . S
C794 C791 1.463 1_565 S
C794 N798 1.427 . S
C795 H785 0.929 . S
C795 C793 1.433 . S
C795 N798 1.384 . S
C796 H787 0.895 1_545 S
C796 C788 1.401 . S
C796 C791 1.361 . S
C797 H784 0.929 . S
C797 C789 1.433 . S
C797 N799 1.384 . S
N798 C794 1.427 . S
N798 C795 1.384 . S
N799 C791 1.427 . S
N799 C797 1.384 . S
C231 C135 1.469 . S
C235 C9 1.464 . S
C249 C205 1.469 . S
C253 C23 1.463 . S
C267 C37 1.464 . S
C271 C121 1.463 . S
C285 C51 1.464 . S
C289 C219 1.469 1_655 S
C303 C65 1.468 . S
C307 C149 1.462 . S
C321 C191 1.467 1_655 S
C325 C79 1.467 . S
C339 C163 1.469 . S
C343 C93 1.462 . S
C357 C107 1.469 . S
C361 C177 1.464 . S
C375 C59 1.560 . S
C379 C45 1.561 1_556 S
C393 C171 1.565 . S
C397 C115 1.563 . S
C411 C87 1.567 . S
C415 C17 1.568 . S
C429 C129 1.560 . S
C433 C185 1.562 . S
C447 C3 1.566 . S
C451 C73 1.568 . S
C465 C213 1.566 . S
C469 C143 1.569 . S
C483 C101 1.560 . S
C487 C31 1.560 . S
C501 C157 1.560 . S
C505 C199 1.560 . S
C519 C7 0.598 . S
C523 C63 0.594 . S
C537 C77 0.603 . S
C541 C21 0.616 . S
C555 C91 0.600 . S
C559 C35 0.613 . S
C573 C49 0.620 . S
C577 C105 0.607 . S
C591 C147 0.594 . S
C595 C119 0.599 . S
C609 C161 0.622 . S
C613 C133 0.611 . S
C627 C203 0.619 . S
C631 C175 0.625 . S
C645 C217 0.606 . S
C649 C189 0.596 . S
C663 C64 1.758 . S
C667 C8 1.760 . S
C681 C78 1.760 . S
C685 C22 1.758 . S
C699 C92 1.762 . S
C703 C36 1.758 . S
C717 C50 1.761 . S
C721 C106 1.760 . S
C735 C120 1.761 . S
C739 C148 1.757 . S
C753 C162 1.758 . S
C757 C134 1.762 . S
C771 C204 1.758 . S
C775 C176 1.762 . S
C789 C218 1.758 . S
C793 C190 1.760 . S
