# Generated by pormake.
# Topology wmi, (6)-cn, num edge types: 1
# Building blocks:
#     Node 0, Type 0, BuildingBlock: FUNLAD_clean_sbu_0, # of connection points: 6
#     Node 1, Type 0, BuildingBlock: FUNLAD_clean_sbu_0, # of connection points: 6
#     Node 2, Type 0, BuildingBlock: FUNLAD_clean_sbu_0, # of connection points: 6
#     Node 3, Type 0, BuildingBlock: FUNLAD_clean_sbu_0, # of connection points: 6
#     Node 4, Type 0, BuildingBlock: FUNLAD_clean_sbu_0, # of connection points: 6
#     Node 5, Type 0, BuildingBlock: FUNLAD_clean_sbu_0, # of connection points: 6
#     Node 6, Type 0, BuildingBlock: FUNLAD_clean_sbu_0, # of connection points: 6
#     Node 7, Type 0, BuildingBlock: FUNLAD_clean_sbu_0, # of connection points: 6
#     Node 8, Type 0, BuildingBlock: FUNLAD_clean_sbu_0, # of connection points: 6
#     Node 9, Type 0, BuildingBlock: FUNLAD_clean_sbu_0, # of connection points: 6
#     Node 10, Type 0, BuildingBlock: FUNLAD_clean_sbu_0, # of connection points: 6
#     Node 11, Type 0, BuildingBlock: FUNLAD_clean_sbu_0, # of connection points: 6
#     Node 12, Type 0, BuildingBlock: FUNLAD_clean_sbu_0, # of connection points: 6
#     Node 13, Type 0, BuildingBlock: FUNLAD_clean_sbu_0, # of connection points: 6
#     Node 14, Type 0, BuildingBlock: FUNLAD_clean_sbu_0, # of connection points: 6
#     Node 15, Type 0, BuildingBlock: FUNLAD_clean_sbu_0, # of connection points: 6
#     Node 16, Type 0, BuildingBlock: FUNLAD_clean_sbu_0, # of connection points: 6
#     Node 17, Type 0, BuildingBlock: FUNLAD_clean_sbu_0, # of connection points: 6
#     Edge 18, Type (0, 0), BuildingBlock: CIFDUS_clean_linker_0, # of connection points: 2
#     Edge 19, Type (0, 0), BuildingBlock: CIFDUS_clean_linker_0, # of connection points: 2
#     Edge 20, Type (0, 0), BuildingBlock: CIFDUS_clean_linker_0, # of connection points: 2
#     Edge 21, Type (0, 0), BuildingBlock: CIFDUS_clean_linker_0, # of connection points: 2
#     Edge 22, Type (0, 0), BuildingBlock: CIFDUS_clean_linker_0, # of connection points: 2
#     Edge 23, Type (0, 0), BuildingBlock: CIFDUS_clean_linker_0, # of connection points: 2
#     Edge 24, Type (0, 0), BuildingBlock: CIFDUS_clean_linker_0, # of connection points: 2
#     Edge 25, Type (0, 0), BuildingBlock: CIFDUS_clean_linker_0, # of connection points: 2
#     Edge 26, Type (0, 0), BuildingBlock: CIFDUS_clean_linker_0, # of connection points: 2
#     Edge 27, Type (0, 0), BuildingBlock: CIFDUS_clean_linker_0, # of connection points: 2
#     Edge 28, Type (0, 0), BuildingBlock: CIFDUS_clean_linker_0, # of connection points: 2
#     Edge 29, Type (0, 0), BuildingBlock: CIFDUS_clean_linker_0, # of connection points: 2
#     Edge 30, Type (0, 0), BuildingBlock: CIFDUS_clean_linker_0, # of connection points: 2
#     Edge 31, Type (0, 0), BuildingBlock: CIFDUS_clean_linker_0, # of connection points: 2
#     Edge 32, Type (0, 0), BuildingBlock: CIFDUS_clean_linker_0, # of connection points: 2
#     Edge 33, Type (0, 0), BuildingBlock: CIFDUS_clean_linker_0, # of connection points: 2
#     Edge 34, Type (0, 0), BuildingBlock: CIFDUS_clean_linker_0, # of connection points: 2
#     Edge 35, Type (0, 0), BuildingBlock: CIFDUS_clean_linker_0, # of connection points: 2
#     Edge 36, Type (0, 0), BuildingBlock: CIFDUS_clean_linker_0, # of connection points: 2
#     Edge 37, Type (0, 0), BuildingBlock: CIFDUS_clean_linker_0, # of connection points: 2
#     Edge 38, Type (0, 0), BuildingBlock: CIFDUS_clean_linker_0, # of connection points: 2
#     Edge 39, Type (0, 0), BuildingBlock: CIFDUS_clean_linker_0, # of connection points: 2
#     Edge 40, Type (0, 0), BuildingBlock: CIFDUS_clean_linker_0, # of connection points: 2
#     Edge 41, Type (0, 0), BuildingBlock: CIFDUS_clean_linker_0, # of connection points: 2
#     Edge 42, Type (0, 0), BuildingBlock: CIFDUS_clean_linker_0, # of connection points: 2
#     Edge 43, Type (0, 0), BuildingBlock: CIFDUS_clean_linker_0, # of connection points: 2
#     Edge 44, Type (0, 0), BuildingBlock: CIFDUS_clean_linker_0, # of connection points: 2
#     Edge 45, Type (0, 0), BuildingBlock: CIFDUS_clean_linker_0, # of connection points: 2
#     Edge 46, Type (0, 0), BuildingBlock: CIFDUS_clean_linker_0, # of connection points: 2
#     Edge 47, Type (0, 0), BuildingBlock: CIFDUS_clean_linker_0, # of connection points: 2
#     Edge 48, Type (0, 0), BuildingBlock: CIFDUS_clean_linker_0, # of connection points: 2
#     Edge 49, Type (0, 0), BuildingBlock: CIFDUS_clean_linker_0, # of connection points: 2
#     Edge 50, Type (0, 0), BuildingBlock: CIFDUS_clean_linker_0, # of connection points: 2
#     Edge 51, Type (0, 0), BuildingBlock: CIFDUS_clean_linker_0, # of connection points: 2
#     Edge 52, Type (0, 0), BuildingBlock: CIFDUS_clean_linker_0, # of connection points: 2
#     Edge 53, Type (0, 0), BuildingBlock: CIFDUS_clean_linker_0, # of connection points: 2
#     Edge 54, Type (0, 0), BuildingBlock: CIFDUS_clean_linker_0, # of connection points: 2
#     Edge 55, Type (0, 0), BuildingBlock: CIFDUS_clean_linker_0, # of connection points: 2
#     Edge 56, Type (0, 0), BuildingBlock: CIFDUS_clean_linker_0, # of connection points: 2
#     Edge 57, Type (0, 0), BuildingBlock: CIFDUS_clean_linker_0, # of connection points: 2
#     Edge 58, Type (0, 0), BuildingBlock: CIFDUS_clean_linker_0, # of connection points: 2
#     Edge 59, Type (0, 0), BuildingBlock: CIFDUS_clean_linker_0, # of connection points: 2
#     Edge 60, Type (0, 0), BuildingBlock: CIFDUS_clean_linker_0, # of connection points: 2
#     Edge 61, Type (0, 0), BuildingBlock: CIFDUS_clean_linker_0, # of connection points: 2
#     Edge 62, Type (0, 0), BuildingBlock: CIFDUS_clean_linker_0, # of connection points: 2
#     Edge 63, Type (0, 0), BuildingBlock: CIFDUS_clean_linker_0, # of connection points: 2
#     Edge 64, Type (0, 0), BuildingBlock: CIFDUS_clean_linker_0, # of connection points: 2
#     Edge 65, Type (0, 0), BuildingBlock: CIFDUS_clean_linker_0, # of connection points: 2
#     Edge 66, Type (0, 0), BuildingBlock: CIFDUS_clean_linker_0, # of connection points: 2
#     Edge 67, Type (0, 0), BuildingBlock: CIFDUS_clean_linker_0, # of connection points: 2
#     Edge 68, Type (0, 0), BuildingBlock: CIFDUS_clean_linker_0, # of connection points: 2
#     Edge 69, Type (0, 0), BuildingBlock: CIFDUS_clean_linker_0, # of connection points: 2
#     Edge 70, Type (0, 0), BuildingBlock: CIFDUS_clean_linker_0, # of connection points: 2
#     Edge 71, Type (0, 0), BuildingBlock: CIFDUS_clean_linker_0, # of connection points: 2
# Relax obj value: 0.145
# Max RMSD: 0.210
# Mean RMSD: 0.210
data_MOF--net-wmi--node1-FUNLAD_clean_sbu_0--edge1-CIFDUS_clean_linker_0
_symmetry_space_group_name_H-M    P1
_symmetry_Int_Tables_number       1
_symmetry_cell_setting            triclinic
loop_
_symmetry_equiv_pos_as_xyz
'x, y, z'
_cell_length_a     24.562138
_cell_length_b     24.548857
_cell_length_c     118.0609
_cell_angle_alpha  90.06435
_cell_angle_beta   89.963864
_cell_angle_gamma 119.90205
loop_
_atom_site_label
_atom_site_type_symbol
_atom_site_fract_x
_atom_site_fract_y
_atom_site_fract_z
_atom_type_partial_charge
C0 C 0.32261 0.93636 0.09833 0.0
N1 N 0.43646 0.036 0.12595 0.0
C2 C 0.37954 0.02138 0.13036 0.0
C3 C 0.36839 0.01266 0.142 0.0
C4 C 0.41679 0.02118 0.14944 0.0
C5 C 0.47619 0.0394 0.14466 0.0
C6 C 0.48475 0.04567 0.13288 0.0
Zn7 Zn 0.4438 0.03658 0.10842 0.0
C8 C 0.48806 0.95322 0.09992 0.0
N9 N 0.44514 0.03166 0.07226 0.0
C10 C 0.39606 0.02696 0.06614 0.0
C11 C 0.49556 0.03348 0.06709 0.0
C12 C 0.4976 0.02989 0.05531 0.0
C13 C 0.44731 0.02445 0.0488 0.0
C14 C 0.39618 0.02329 0.05435 0.0
Zn15 Zn 0.44149 0.03351 0.08949 0.0
O16 O 0.35027 0.96114 0.10758 0.0
C17 C 0.40759 0.12473 0.09784 0.0
O18 O 0.35016 0.95941 0.08904 0.0
H19 H 0.53416 0.03737 0.07211 0.0
H20 H 0.34172 0.01472 0.12481 0.0
H21 H 0.35634 0.02535 0.07042 0.0
O22 O 0.41546 0.10482 0.1073 0.0
O23 O 0.411 0.09901 0.08874 0.0
H24 H 0.52978 0.05739 0.12927 0.0
O25 O 0.533 0.10669 0.08995 0.0
O26 O 0.53872 0.10933 0.10858 0.0
O27 O 0.47567 0.96984 0.09053 0.0
O28 O 0.47587 0.97188 0.10913 0.0
C29 C 0.56447 0.12913 0.09895 0.0
H30 H 0.32137 -0.00245 0.14499 0.0
H31 H 0.51596 0.04848 0.14989 0.0
H32 H 0.53829 0.03177 0.05136 0.0
H33 H 0.3561 0.01838 0.04966 0.0
C34 C 0.12037 0.4169 0.09845 0.0
N35 N 0.0322 0.43357 0.12702 0.0
C36 C 0.04168 0.38683 0.1309 0.0
C37 C 0.0552 0.38439 0.14227 0.0
C38 C 0.05723 0.42941 0.14989 0.0
C39 C 0.04391 0.47528 0.14573 0.0
C40 C 0.03217 0.47694 0.13419 0.0
Zn41 Zn 0.02704 0.44115 0.10993 0.0
C42 C 0.11533 0.56945 0.10199 0.0
N43 N 0.02353 0.45628 0.0738 0.0
C44 C 0.02204 0.40941 0.0674 0.0
C45 C 0.02353 0.50639 0.06886 0.0
C46 C 0.02214 0.51069 0.05706 0.0
C47 C 0.02093 0.46308 0.05024 0.0
C48 C 0.02075 0.41188 0.05559 0.0
Zn49 Zn 0.02654 0.44997 0.09115 0.0
O50 O 0.09761 0.41774 0.10803 0.0
C51 C 0.9323 0.32368 0.09958 0.0
O52 O 0.09652 0.42557 0.08958 0.0
H53 H 0.02489 0.54327 0.07409 0.0
H54 H 0.04111 0.35249 0.12509 0.0
H55 H 0.02185 0.36987 0.07146 0.0
O56 O 0.95708 0.34752 0.10905 0.0
O57 O 0.95452 0.35551 0.09057 0.0
H58 H 0.02462 0.51378 0.13092 0.0
O59 O 0.95935 0.47745 0.09299 0.0
O60 O 0.95803 0.46824 0.11153 0.0
O61 O 0.09593 0.54505 0.09227 0.0
O62 O 0.09558 0.5355 0.11079 0.0
C63 C 0.93977 0.48347 0.10261 0.0
H64 H 0.06609 0.3487 0.14491 0.0
H65 H 0.04335 0.51014 0.15127 0.0
H66 H 0.02294 0.55132 0.05331 0.0
H67 H 0.01885 0.37361 0.0507 0.0
C68 C 0.64156 0.74109 0.09157 0.0
N69 N 0.61883 0.64043 0.12112 0.0
C70 C 0.67412 0.69036 0.1246 0.0
C71 C 0.68619 0.70452 0.13606 0.0
C72 C 0.64053 0.6679 0.14408 0.0
C73 C 0.58288 0.61792 0.14034 0.0
C74 C 0.57312 0.60451 0.12872 0.0
Zn75 Zn 0.61075 0.6229 0.10398 0.0
C76 C 0.48721 0.58697 0.09429 0.0
N77 N 0.60511 0.59988 0.06794 0.0
C78 C 0.65212 0.64395 0.06142 0.0
C79 C 0.55513 0.54901 0.06318 0.0
C80 C 0.55075 0.5415 0.0514 0.0
C81 C 0.59809 0.58695 0.04446 0.0
C82 C 0.64952 0.63842 0.04964 0.0
Zn83 Zn 0.60961 0.61332 0.08515 0.0
O84 O 0.63655 0.7164 0.10122 0.0
C85 C 0.73127 0.64109 0.09455 0.0
O86 O 0.63691 0.70938 0.08274 0.0
H87 H 0.51812 0.51461 0.0685 0.0
H88 H 0.70954 0.71915 0.11846 0.0
H89 H 0.69155 0.6839 0.06537 0.0
O90 O 0.7045 0.64258 0.10365 0.0
O91 O 0.70283 0.63258 0.08519 0.0
H92 H 0.52947 0.56513 0.12579 0.0
O93 O 0.57755 0.51585 0.08814 0.0
O94 O 0.5824 0.52933 0.10663 0.0
O95 O 0.51734 0.59255 0.08524 0.0
O96 O 0.51491 0.59832 0.10383 0.0
C97 C 0.56897 0.49322 0.09812 0.0
H98 H 0.73091 0.74382 0.13865 0.0
H99 H 0.54665 0.58869 0.14634 0.0
H100 H 0.51003 0.50136 0.04777 0.0
H101 H 0.68755 0.67406 0.04464 0.0
C102 C 0.9417 0.32688 0.93232 0.0
N103 N 0.02996 0.44545 0.90499 0.0
C104 C 0.03388 0.39556 0.90094 0.0
C105 C 0.02608 0.38068 0.88945 0.0
C106 C 0.01317 0.41671 0.88186 0.0
C107 C 0.01109 0.46926 0.88615 0.0
C108 C 0.01946 0.48275 0.89782 0.0
Zn109 Zn 0.03378 0.45297 0.92254 0.0
C110 C 0.94456 0.48459 0.93268 0.0
N111 N 0.03733 0.44863 0.95894 0.0
C112 C 0.03849 0.40068 0.96449 0.0
C113 C 0.03827 0.49705 0.96475 0.0
C114 C 0.04086 0.49859 0.9766 0.0
C115 C 0.04258 0.44989 0.98255 0.0
C116 C 0.04107 0.40034 0.97631 0.0
Zn117 Zn 0.0348 0.44703 0.94151 0.0
O118 O 0.96451 0.35719 0.92321 0.0
C119 C 0.13069 0.42454 0.93165 0.0
O120 O 0.96513 0.35282 0.94174 0.0
H121 H 0.03743 0.53482 0.9602 0.0
H122 H 0.04142 0.36569 0.90667 0.0
H123 H 0.03753 0.36253 0.95974 0.0
O124 O 0.10724 0.43261 0.92267 0.0
O125 O 0.10638 0.42422 0.94115 0.0
H126 H 0.01591 0.5219 0.90117 0.0
O127 O 0.1024 0.54224 0.94095 0.0
O128 O 0.10055 0.54968 0.92237 0.0
O129 O 0.96521 0.47249 0.94163 0.0
O130 O 0.96328 0.47757 0.92301 0.0
C131 C 0.12052 0.57541 0.93201 0.0
H132 H 0.02948 0.34057 0.88657 0.0
H133 H 0.00105 0.49831 0.88062 0.0
H134 H 0.04262 0.53808 0.98103 0.0
H135 H 0.04133 0.3613 0.98052 0.0
C136 C 0.74389 0.65212 0.92812 0.0
N137 N 0.63506 0.63406 0.89996 0.0
C138 C 0.67275 0.61531 0.8949 0.0
C139 C 0.68751 0.62711 0.88344 0.0
C140 C 0.66225 0.6574 0.877 0.0
C141 C 0.6208 0.67325 0.88235 0.0
C142 C 0.60827 0.66165 0.8939 0.0
Zn143 Zn 0.626 0.62808 0.91717 0.0
C144 C 0.58405 0.49954 0.92557 0.0
N145 N 0.61147 0.61767 0.95332 0.0
C146 C 0.65884 0.66596 0.95911 0.0
C147 C 0.56225 0.56988 0.95888 0.0
C148 C 0.55928 0.56993 0.97073 0.0
C149 C 0.60729 0.61977 0.97689 0.0
C150 C 0.6577 0.66793 0.97091 0.0
Zn151 Zn 0.61723 0.62074 0.93596 0.0
O152 O 0.72065 0.65286 0.91858 0.0
C153 C 0.65029 0.74723 0.92727 0.0
O154 O 0.71133 0.64287 0.93701 0.0
H155 H 0.52501 0.53193 0.95411 0.0
H156 H 0.69337 0.59316 0.89985 0.0
H157 H 0.69772 0.70336 0.95457 0.0
O158 O 0.64951 0.72233 0.91781 0.0
O159 O 0.64163 0.71593 0.93631 0.0
H160 H 0.57851 0.67629 0.89809 0.0
O161 O 0.52267 0.59497 0.93461 0.0
O162 O 0.5302 0.6005 0.91603 0.0
O163 O 0.58942 0.52525 0.93517 0.0
O164 O 0.59964 0.53275 0.91664 0.0
C165 C 0.49703 0.58737 0.92496 0.0
H166 H 0.72033 0.61466 0.87981 0.0
H167 H 0.59893 0.69533 0.87772 0.0
H168 H 0.51932 0.53204 0.975 0.0
H169 H 0.69627 0.70671 0.9753 0.0
C170 C 0.41903 0.13307 0.93121 0.0
N171 N 0.46265 0.05161 0.90462 0.0
C172 C 0.41222 0.04995 0.8995 0.0
C173 C 0.41297 0.06156 0.88796 0.0
C174 C 0.46624 0.07538 0.8815 0.0
C175 C 0.51773 0.07637 0.88692 0.0
C176 C 0.51486 0.06408 0.89857 0.0
Zn177 Zn 0.45693 0.0429 0.92191 0.0
C178 C 0.57394 0.13062 0.93355 0.0
N179 N 0.43648 0.03323 0.95781 0.0
C180 C 0.38546 0.0308 0.96283 0.0
C181 C 0.48375 0.03484 0.96406 0.0
C182 C 0.48143 0.03539 0.97587 0.0
C183 C 0.4299 0.03416 0.98129 0.0
C184 C 0.38117 0.03116 0.97461 0.0
Zn185 Zn 0.44418 0.03891 0.94061 0.0
O186 O 0.43053 0.11197 0.92227 0.0
C187 C 0.32957 0.94415 0.92921 0.0
O188 O 0.41769 0.10777 0.94064 0.0
H189 H 0.52397 0.03694 0.9599 0.0
H190 H 0.37167 0.04144 0.90444 0.0
H191 H 0.34841 0.0295 0.95769 0.0
O192 O 0.363 0.96956 0.9205 0.0
O193 O 0.35121 0.96662 0.93893 0.0
H194 H 0.55472 0.06581 0.90282 0.0
O195 O 0.47355 0.97203 0.94046 0.0
O196 O 0.48675 0.97644 0.92197 0.0
O197 O 0.53825 0.1093 0.94212 0.0
O198 O 0.55138 0.11288 0.92367 0.0
C199 C 0.49078 0.95538 0.93158 0.0
H200 H 0.37273 0.06154 0.88421 0.0
H201 H 0.55964 0.08661 0.88222 0.0
H202 H 0.52041 0.03848 0.98067 0.0
H203 H 0.34018 0.02925 0.97845 0.0
C204 C -0.00759 0.27493 0.42982 0.0
N205 N 0.10188 0.35742 0.45852 0.0
C206 C 0.04616 0.34799 0.46272 0.0
C207 C 0.03509 0.34306 0.47435 0.0
C208 C 0.0823 0.34948 0.48177 0.0
C209 C 0.13968 0.35986 0.47732 0.0
C210 C 0.14834 0.36303 0.46556 0.0
Zn211 Zn 0.11293 0.36526 0.44122 0.0
C212 C 0.14964 0.27889 0.43089 0.0
N213 N 0.12434 0.37798 0.40512 0.0
C214 C 0.0779 0.37879 0.39898 0.0
C215 C 0.17386 0.37796 0.39995 0.0
C216 C 0.17721 0.37726 0.38815 0.0
C217 C 0.12909 0.37646 0.38159 0.0
C218 C 0.07933 0.37803 0.38717 0.0
Zn219 Zn 0.11651 0.37129 0.42237 0.0
O220 O 0.01935 0.29402 0.43932 0.0
C221 C 0.08651 0.46273 0.43221 0.0
O222 O 0.02158 0.30214 0.42083 0.0
H223 H 0.2103 0.37731 0.40499 0.0
H224 H 0.01024 0.34502 0.45706 0.0
H225 H 0.03885 0.37858 0.40326 0.0
O226 O 0.08811 0.43617 0.44134 0.0
O227 O 0.09463 0.44284 0.4228 0.0
H228 H 0.19232 0.37064 0.46207 0.0
O229 O 0.21345 0.43829 0.42428 0.0
O230 O 0.20657 0.43424 0.44287 0.0
O231 O 0.13933 0.30125 0.42202 0.0
O232 O 0.14197 0.29666 0.44061 0.0
C233 C 0.23938 0.45549 0.43396 0.0
H234 H -0.00939 0.33586 0.47755 0.0
H235 H 0.17716 0.36532 0.48288 0.0
H236 H 0.2169 0.37699 0.38421 0.0
H237 H 0.04086 0.37673 0.38247 0.0
C238 C 0.79629 0.75204 0.42843 0.0
N239 N 0.70794 0.79107 0.45465 0.0
C240 C 0.70192 0.73884 0.45985 0.0
C241 C 0.70962 0.73778 0.47154 0.0
C242 C 0.72448 0.79122 0.47807 0.0
C243 C 0.7297 0.84442 0.47254 0.0
C244 C 0.72093 0.84325 0.46077 0.0
Zn245 Zn 0.70468 0.7888 0.43711 0.0
C246 C 0.79545 0.90763 0.42636 0.0
N247 N 0.70364 0.77473 0.40091 0.0
C248 C 0.70271 0.72457 0.3958 0.0
C249 C 0.7054 0.82226 0.3947 0.0
C250 C 0.70691 0.82075 0.38288 0.0
C251 C 0.70663 0.76983 0.37737 0.0
C252 C 0.70417 0.72116 0.384 0.0
Zn253 Zn 0.70453 0.77934 0.41824 0.0
O254 O 0.77293 0.76141 0.4373 0.0
C255 C 0.60697 0.66293 0.42855 0.0
O256 O 0.77348 0.75293 0.41883 0.0
H257 H 0.70632 0.86183 0.39893 0.0
H258 H 0.69304 0.69823 0.45488 0.0
H259 H 0.70118 0.68721 0.40088 0.0
O260 O 0.63023 0.69502 0.43751 0.0
O261 O 0.63201 0.6859 0.41905 0.0
H262 H 0.72601 0.88452 0.45651 0.0
O263 O 0.63749 0.80889 0.41797 0.0
O264 O 0.63926 0.81956 0.43652 0.0
O265 O 0.77523 0.87363 0.41756 0.0
O266 O 0.77587 0.88341 0.43608 0.0
C267 C 0.61977 0.82512 0.42684 0.0
H268 H 0.70625 0.69613 0.47537 0.0
H269 H 0.74081 0.88658 0.47726 0.0
H270 H 0.70956 0.85969 0.37813 0.0
H271 H 0.70303 0.68062 0.38011 0.0
C272 C 0.31544 0.07632 0.4318 0.0
N273 N 0.30074 0.9731 0.46019 0.0
C274 C 0.35455 0.02346 0.46403 0.0
C275 C 0.36108 0.04036 0.47541 0.0
C276 C 0.31139 0.00585 0.48296 0.0
C277 C 0.25693 0.95297 0.47884 0.0
C278 C 0.25267 0.93721 0.46737 0.0
Zn279 Zn 0.29161 0.95941 0.44311 0.0
C280 C 0.16218 0.91734 0.43513 0.0
N281 N 0.2748 0.93959 0.40703 0.0
C282 C 0.32047 0.98643 0.40071 0.0
C283 C 0.22488 0.8898 0.40201 0.0
C284 C 0.21926 0.8863 0.39019 0.0
C285 C 0.26545 0.93448 0.38347 0.0
C286 C 0.3167 0.98485 0.38891 0.0
Zn287 Zn 0.28199 0.94846 0.42436 0.0
O288 O 0.31649 0.05334 0.44134 0.0
C289 C 0.40907 0.98124 0.43232 0.0
O290 O 0.30469 0.0431 0.42294 0.0
H291 H 0.18903 0.85302 0.40717 0.0
H292 H 0.39198 0.05191 0.4582 0.0
H293 H 0.35962 0.02579 0.40484 0.0
O294 O 0.38553 0.98124 0.44189 0.0
O295 O 0.37662 0.97211 0.42342 0.0
H296 H 0.21018 0.89753 0.46413 0.0
O297 O 0.25553 0.85325 0.42633 0.0
O298 O 0.26426 0.86457 0.44487 0.0
O299 O 0.18739 0.92164 0.42555 0.0
O300 O 0.1959 0.93394 0.44401 0.0
C301 C 0.2496 0.82961 0.43616 0.0
H302 H 0.40448 0.08061 0.47823 0.0
H303 H 0.21717 0.92524 0.48431 0.0
H304 H 0.17927 0.8462 0.38637 0.0
H305 H 0.35293 0.02358 0.38412 0.0
C306 C 0.60875 0.66642 0.25917 0.0
N307 N 0.70741 0.78694 0.23262 0.0
C308 C 0.70962 0.7378 0.22774 0.0
C309 C 0.70006 0.72683 0.21612 0.0
C310 C 0.6873 0.7663 0.20942 0.0
C311 C 0.68716 0.81785 0.21458 0.0
C312 C 0.6977 0.82755 0.22625 0.0
Zn313 Zn 0.70696 0.7898 0.25001 0.0
C314 C 0.61969 0.82804 0.25866 0.0
N315 N 0.70013 0.78616 0.28622 0.0
C316 C 0.69651 0.73693 0.29214 0.0
C317 C 0.7006 0.8354 0.29161 0.0
C318 C 0.69686 0.83618 0.30341 0.0
C319 C 0.69264 0.78584 0.30975 0.0
C320 C 0.69278 0.73584 0.30396 0.0
Zn321 Zn 0.70357 0.78619 0.26887 0.0
O322 O 0.63497 0.69414 0.25 0.0
C323 C 0.79818 0.75744 0.26005 0.0
O324 O 0.63052 0.69413 0.26854 0.0
H325 H 0.70373 0.87422 0.28677 0.0
H326 H 0.71612 0.70527 0.23294 0.0
H327 H 0.69603 0.69818 0.28769 0.0
O328 O 0.77801 0.76614 0.25072 0.0
O329 O 0.77164 0.75822 0.26925 0.0
H330 H 0.69579 0.86617 0.23028 0.0
O331 O 0.77476 0.87792 0.2691 0.0
O332 O 0.7767 0.88737 0.25055 0.0
O333 O 0.63806 0.81833 0.26812 0.0
O334 O 0.63877 0.81596 0.24954 0.0
C335 C 0.79618 0.91156 0.26031 0.0
H336 H 0.69983 0.68611 0.21252 0.0
H337 H 0.67804 0.84972 0.20968 0.0
H338 H 0.69782 0.87612 0.30752 0.0
H339 H 0.68893 0.69576 0.3085 0.0
C340 C 0.41288 0.98744 0.26586 0.0
N341 N 0.29406 0.95849 0.23826 0.0
C342 C 0.34962 0.00309 0.23372 0.0
C343 C 0.3588 0.0081 0.22202 0.0
C344 C 0.30986 0.96813 0.2148 0.0
C345 C 0.2524 0.92323 0.2196 0.0
C346 C 0.24567 0.91869 0.23144 0.0
Zn347 Zn 0.2883 0.95699 0.25583 0.0
C348 C 0.25278 0.83581 0.2662 0.0
N349 N 0.29179 0.96573 0.2922 0.0
C350 C 0.33995 0.01421 0.29782 0.0
C351 C 0.24468 0.91687 0.29794 0.0
C352 C 0.24568 0.91483 0.30977 0.0
C353 C 0.29565 0.96352 0.31579 0.0
C354 C 0.34277 0.01409 0.30963 0.0
Zn355 Zn 0.2932 0.96439 0.27479 0.0
O356 O 0.38219 0.97821 0.25674 0.0
C357 C 0.31997 0.08342 0.26451 0.0
O358 O 0.38769 0.9882 0.27519 0.0
H359 H 0.20687 0.87865 0.29333 0.0
H360 H 0.38716 0.03562 0.23917 0.0
H361 H 0.37691 0.05265 0.29311 0.0
O362 O 0.3141 0.05247 0.25553 0.0
O363 O 0.31658 0.0584 0.27409 0.0
H364 H 0.20174 0.88373 0.23515 0.0
O365 O 0.19791 0.93786 0.27424 0.0
O366 O 0.19274 0.93169 0.25562 0.0
O367 O 0.26696 0.8695 0.27507 0.0
O368 O 0.25924 0.86086 0.2565 0.0
C369 C 0.16597 0.92496 0.26517 0.0
H370 H 0.40338 0.04399 0.21863 0.0
H371 H 0.21346 0.89175 0.21425 0.0
H372 H 0.20864 0.8746 0.31413 0.0
H373 H 0.38167 0.05316 0.3139 0.0
C374 C 0.08982 0.46825 0.26281 0.0
N375 N 0.12122 0.37088 0.23727 0.0
C376 C 0.07374 0.3751 0.23219 0.0
C377 C 0.06992 0.37592 0.22047 0.0
C378 C 0.11486 0.37156 0.2139 0.0
C379 C 0.16305 0.36628 0.21921 0.0
C380 C 0.16558 0.36634 0.23106 0.0
Zn381 Zn 0.1205 0.37213 0.25452 0.0
C382 C 0.24151 0.45873 0.26466 0.0
N383 N 0.10862 0.37511 0.29052 0.0
C384 C 0.05997 0.37668 0.29572 0.0
C385 C 0.15639 0.37671 0.29662 0.0
C386 C 0.15675 0.38068 0.30842 0.0
C387 C 0.10745 0.38298 0.31402 0.0
C388 C 0.05845 0.38064 0.30751 0.0
Zn389 Zn 0.11175 0.37302 0.27324 0.0
O390 O 0.09928 0.44515 0.25392 0.0
C391 C -0.00693 0.27985 0.26294 0.0
O392 O 0.08904 0.44421 0.27235 0.0
H393 H 0.19475 0.37564 0.29233 0.0
H394 H 0.03853 0.37797 0.23723 0.0
H395 H 0.02247 0.37531 0.29071 0.0
O396 O 0.0255 0.30339 0.25409 0.0
O397 O 0.01681 0.30229 0.27257 0.0
H398 H 0.20281 0.36293 0.2353 0.0
O399 O 0.13684 0.30389 0.27403 0.0
O400 O 0.14546 0.30154 0.25553 0.0
O401 O 0.20801 0.44137 0.27357 0.0
O402 O 0.21595 0.43846 0.25507 0.0
C403 C 0.15065 0.28301 0.26532 0.0
H404 H 0.03203 0.37969 0.21655 0.0
H405 H 0.19833 0.36275 0.21427 0.0
H406 H 0.1959 0.38318 0.31308 0.0
H407 H 0.01912 0.38149 0.31148 0.0
C408 C 0.67127 0.62136 0.76263 0.0
N409 N 0.79065 0.71999 0.78898 0.0
C410 C 0.74312 0.72557 0.79372 0.0
C411 C 0.73255 0.71838 0.80535 0.0
C412 C 0.77068 0.70444 0.81218 0.0
C413 C 0.82077 0.70106 0.80717 0.0
C414 C 0.83024 0.70946 0.79548 0.0
Zn415 Zn 0.79399 0.71718 0.77172 0.0
C416 C 0.82909 0.62573 0.76393 0.0
N417 N 0.7954 0.70817 0.73553 0.0
C418 C 0.7478 0.7065 0.72936 0.0
C419 C 0.84529 0.70887 0.73036 0.0
C420 C 0.84911 0.70886 0.71855 0.0
C421 C 0.80107 0.70796 0.71195 0.0
C422 C 0.74963 0.70625 0.71752 0.0
Zn423 Zn 0.79374 0.71236 0.75291 0.0
O424 O 0.69845 0.64955 0.77169 0.0
C425 C 0.76739 0.8103 0.76115 0.0
O426 O 0.69991 0.64028 0.75323 0.0
H427 H 0.88261 0.71004 0.73539 0.0
H428 H 0.71153 0.73293 0.7884 0.0
H429 H 0.70867 0.7062 0.73363 0.0
O430 O 0.77461 0.78976 0.77054 0.0
O431 O 0.76838 0.78323 0.75202 0.0
H432 H 0.86774 0.70518 0.79156 0.0
O433 O 0.88744 0.7817 0.75294 0.0
O434 O 0.8912 0.78291 0.77154 0.0
O435 O 0.82298 0.64441 0.75422 0.0
O436 O 0.81566 0.64621 0.77273 0.0
C437 C 0.91878 0.80136 0.76203 0.0
H438 H 0.69299 0.72062 0.80889 0.0
H439 H 0.85142 0.69079 0.8122 0.0
H440 H 0.88923 0.70936 0.71463 0.0
H441 H 0.71188 0.70621 0.71278 0.0
C442 C 0.47395 0.09585 0.76443 0.0
N443 N 0.39899 0.13008 0.79317 0.0
C444 C 0.39407 0.07561 0.79706 0.0
C445 C 0.39796 0.06648 0.80858 0.0
C446 C 0.40823 0.11418 0.81623 0.0
C447 C 0.41524 0.17093 0.81208 0.0
C448 C 0.40991 0.17779 0.8004 0.0
Zn449 Zn 0.38893 0.13323 0.77597 0.0
C450 C 0.47831 0.25289 0.76518 0.0
N451 N 0.37253 0.12726 0.73994 0.0
C452 C 0.36766 0.07679 0.73426 0.0
C453 C 0.3768 0.17759 0.7343 0.0
C454 C 0.37844 0.17921 0.72246 0.0
C455 C 0.37593 0.12869 0.71641 0.0
C456 C 0.36924 0.0765 0.72246 0.0
Zn457 Zn 0.38068 0.12827 0.75717 0.0
O458 O 0.45589 0.10537 0.77391 0.0
C459 C 0.28568 0.01067 0.76746 0.0
O460 O 0.44621 0.09744 0.75549 0.0
H461 H 0.38085 0.21733 0.73899 0.0
H462 H 0.38667 0.03862 0.79123 0.0
H463 H 0.36426 0.03724 0.73889 0.0
O464 O 0.31372 0.03911 0.77645 0.0
O465 O 0.30628 0.03713 0.75797 0.0
H466 H 0.41402 0.22083 0.79712 0.0
O467 O 0.31752 0.16313 0.75919 0.0
O468 O 0.32452 0.16392 0.77779 0.0
O469 O 0.45359 0.21942 0.75647 0.0
O470 O 0.46125 0.22904 0.77501 0.0
C471 C 0.30304 0.17525 0.76886 0.0
H472 H 0.39295 0.02236 0.8115 0.0
H473 H 0.42312 0.20866 0.81781 0.0
H474 H 0.38396 0.2205 0.71812 0.0
H475 H 0.36605 0.03612 0.71812 0.0
C476 C -0.00471 0.4234 0.76217 0.0
N477 N 0.98179 0.32401 0.79169 0.0
C478 C 0.03612 0.37459 0.79533 0.0
C479 C 0.04396 0.39294 0.8067 0.0
C480 C -0.00482 0.35965 0.81451 0.0
C481 C 0.94006 0.30668 0.81057 0.0
C482 C 0.93442 0.28954 0.79911 0.0
Zn483 Zn 0.97019 0.30704 0.77442 0.0
C484 C 0.84152 0.26687 0.76694 0.0
N485 N 0.94943 0.28247 0.73839 0.0
C486 C -0.00592 0.32687 0.73156 0.0
C487 C 0.8975 0.23219 0.73396 0.0
C488 C 0.88861 0.22568 0.72223 0.0
C489 C 0.9336 0.27136 0.71498 0.0
C490 C 0.98706 0.32227 0.71981 0.0
Zn491 Zn 0.96033 0.29532 0.75558 0.0
O492 O -0.00407 0.40163 0.77189 0.0
C493 C 0.08656 0.32575 0.76321 0.0
O494 O 0.98472 0.38909 0.7535 0.0
H495 H 0.86251 0.19738 0.73954 0.0
H496 H 0.0731 0.40192 0.78933 0.0
H497 H 0.03486 0.36664 0.73523 0.0
O498 O 0.06332 0.32657 0.77279 0.0
O499 O 0.05439 0.31729 0.75429 0.0
H500 H 0.89137 0.24972 0.79609 0.0
O501 O 0.93314 0.20131 0.75794 0.0
O502 O 0.94038 0.21076 0.77651 0.0
O503 O 0.86541 0.26999 0.75725 0.0
O504 O 0.87632 0.28388 0.77566 0.0
C505 C 0.92558 0.17649 0.76767 0.0
H506 H 0.08787 0.43323 0.8093 0.0
H507 H 0.90075 0.27973 0.81617 0.0
H508 H 0.84703 0.18529 0.71888 0.0
H509 H 0.02251 0.35915 0.71459 0.0
C510 C 0.26537 -0.00521 0.60167 0.0
N511 N 0.34564 0.0944 0.5726 0.0
C512 C 0.34896 0.0434 0.56904 0.0
C513 C 0.33938 0.02548 0.55772 0.0
C514 C 0.3254 0.05977 0.54991 0.0
C515 C 0.32302 0.11282 0.55375 0.0
C516 C 0.33344 0.12946 0.56521 0.0
Zn517 Zn 0.35472 0.11186 0.58957 0.0
C518 C 0.26657 0.14925 0.59892 0.0
N519 N 0.36788 0.13571 0.62542 0.0
C520 C 0.36737 0.09017 0.63204 0.0
C521 C 0.36972 0.18739 0.63006 0.0
C522 C 0.3701 0.19418 0.64182 0.0
C523 C 0.36852 0.1473 0.64886 0.0
C524 C 0.36756 0.09497 0.64381 0.0
Zn525 Zn 0.36098 0.1225 0.6083 0.0
O526 O 0.28722 0.01851 0.59208 0.0
C527 C 0.45395 0.09135 0.59964 0.0
O528 O 0.28957 0.0273 0.61055 0.0
H529 H 0.36997 0.22298 0.62463 0.0
H530 H 0.35813 0.01574 0.57505 0.0
H531 H 0.36561 0.04935 0.62819 0.0
O532 O 0.42836 0.09121 0.59028 0.0
O533 O 0.43223 0.09997 0.60878 0.0
H534 H 0.33072 0.16965 0.56823 0.0
O535 O 0.42946 0.21977 0.60531 0.0
O536 O 0.42058 0.20467 0.58686 0.0
O537 O 0.29193 0.14547 0.60796 0.0
O538 O 0.28284 0.13708 0.58943 0.0
C539 C 0.44449 0.24122 0.59525 0.0
H540 H 0.343 0.98507 0.55513 0.0
H541 H 0.31193 0.14036 0.54803 0.0
H542 H 0.37159 0.23564 0.64535 0.0
H543 H 0.36533 0.0572 0.64889 0.0
C544 C 0.0679 0.31834 0.59798 0.0
N545 N 0.95471 0.29072 0.57008 0.0
C546 C 0.01034 0.33504 0.56558 0.0
C547 C 0.02177 0.33609 0.55401 0.0
C548 C 0.97477 0.2926 0.54674 0.0
C549 C 0.91675 0.24865 0.55159 0.0
C550 C 0.90798 0.24806 0.56333 0.0
Zn551 Zn 0.94669 0.28952 0.58744 0.0
C552 C 0.90879 0.16526 0.59773 0.0
N553 N 0.94123 0.29171 0.6237 0.0
C554 C -0.01036 0.3404 0.62923 0.0
C555 C 0.89463 0.24277 0.62952 0.0
C556 C 0.89677 0.24072 0.64135 0.0
C557 C 0.94747 0.28937 0.64723 0.0
C558 C -0.00636 0.34022 0.64101 0.0
Zn559 Zn 0.9446 0.29105 0.60635 0.0
O560 O 0.03974 0.31087 0.58866 0.0
C561 C 0.97519 0.41346 0.5966 0.0
O562 O 0.03985 0.31585 0.60716 0.0
H563 H 0.85667 0.20438 0.62496 0.0
H564 H 0.0468 0.36926 0.57101 0.0
H565 H 0.02622 0.37888 0.62448 0.0
O566 O 0.97268 0.38559 0.58736 0.0
O567 O 0.96729 0.38483 0.60592 0.0
H568 H 0.86397 0.21324 0.56704 0.0
O569 O 0.84749 0.26208 0.60502 0.0
O570 O 0.85376 0.26616 0.5864 0.0
O571 O 0.92055 0.19775 0.60668 0.0
O572 O 0.91642 0.19138 0.58808 0.0
C573 C 0.82134 0.2543 0.59537 0.0
H574 H 0.06784 0.37011 0.55091 0.0
H575 H 0.87829 0.21488 0.54643 0.0
H576 H 0.86035 0.20045 0.6458 0.0
H577 H 0.03297 0.37925 0.6452 0.0
C578 C 0.74082 0.79726 0.59536 0.0
N579 N 0.77837 0.72032 0.56697 0.0
C580 C 0.79558 0.77733 0.56228 0.0
C581 C 0.78659 0.78253 0.55071 0.0
C582 C 0.76028 0.72868 0.54378 0.0
C583 C 0.74605 0.671 0.54879 0.0
C584 C 0.75496 0.66778 0.56042 0.0
Zn585 Zn 0.77882 0.71188 0.58441 0.0
C586 C 0.89949 0.8045 0.59545 0.0
N587 N 0.77385 0.69842 0.62074 0.0
C588 C 0.72303 0.69347 0.6263 0.0
C589 C 0.82185 0.69844 0.6265 0.0
C590 C 0.81983 0.69347 0.63832 0.0
C591 C 0.76785 0.68829 0.64428 0.0
C592 C 0.71907 0.68835 0.63809 0.0
Zn593 Zn 0.77654 0.70649 0.60339 0.0
O594 O 0.74755 0.77675 0.58591 0.0
C595 C 0.65736 0.60953 0.5933 0.0
O596 O 0.74647 0.77293 0.60446 0.0
H597 H 0.86182 0.70234 0.62193 0.0
H598 H 0.81418 0.81869 0.56759 0.0
H599 H 0.68543 0.69372 0.62159 0.0
O600 O 0.68465 0.6345 0.58399 0.0
O601 O 0.68511 0.63268 0.60258 0.0
H602 H 0.74135 0.62281 0.56427 0.0
O603 O 0.81119 0.64235 0.60169 0.0
O604 O 0.81148 0.64936 0.5831 0.0
O605 O 0.86718 0.77911 0.60423 0.0
O606 O 0.87517 0.78674 0.58563 0.0
C607 C 0.82291 0.62781 0.59197 0.0
H608 H 0.79788 0.828 0.54736 0.0
H609 H 0.72716 0.62831 0.54382 0.0
H610 H 0.85822 0.69296 0.64273 0.0
H611 H 0.67853 0.68541 0.64231 0.0
H612 H 0.53076 0.91605 0.08188 0.0
H613 H 0.52473 0.91378 0.11847 0.0
H614 H 0.58522 0.8598 0.11895 0.0
H615 H 0.63191 0.80631 0.10912 0.0
H616 H 0.63064 0.79953 0.07256 0.0
H617 H 0.58401 0.86733 0.07195 0.0
C618 C 0.54246 0.90354 0.08996 0.0
C619 C 0.52227 0.91798 0.10012 0.0
C620 C 0.57713 0.87222 0.09019 0.0
C621 C 0.53878 0.90238 0.11052 0.0
C622 C 0.57386 0.872 0.11081 0.0
C623 C 0.62277 0.8206 0.10098 0.0
C624 C 0.63399 0.79708 0.0909 0.0
C625 C 0.59251 0.85602 0.1007 0.0
C626 C 0.62241 0.81683 0.08045 0.0
C627 C 0.59482 0.85478 0.0801 0.0
H628 H 0.28491 0.85252 0.11532 0.0
H629 H 0.23991 0.87754 0.08108 0.0
H630 H 0.17041 0.76413 0.07919 0.0
H631 H 0.13269 0.65793 0.08656 0.0
H632 H 0.18265 0.63359 0.12049 0.0
H633 H 0.24175 0.74725 0.12311 0.0
C634 C 0.25852 0.8334 0.10755 0.0
C635 C 0.26756 0.87302 0.09833 0.0
C636 C 0.22149 0.76834 0.10634 0.0
C637 C 0.23351 0.84766 0.08829 0.0
C638 C 0.19453 0.7829 0.08716 0.0
C639 C 0.15699 0.67758 0.09449 0.0
C640 C 0.15444 0.63775 0.10324 0.0
C641 C 0.19031 0.74277 0.09597 0.0
C642 C 0.18474 0.66355 0.11358 0.0
C643 C 0.21804 0.72839 0.11512 0.0
H644 H 0.20379 0.47013 0.08155 0.0
H645 H 0.18087 0.3883 0.11478 0.0
H646 H 0.29483 0.43658 0.11665 0.0
H647 H 0.40075 0.51155 0.10964 0.0
H648 H 0.42179 0.59664 0.07678 0.0
H649 H 0.30819 0.53937 0.07415 0.0
C650 C 0.22348 0.46121 0.08907 0.0
C651 C 0.18413 0.42601 0.09803 0.0
C652 C 0.28862 0.4919 0.09035 0.0
C653 C 0.21043 0.41522 0.10775 0.0
C654 C 0.2755 0.44365 0.10891 0.0
C655 C 0.38018 0.51816 0.102 0.0
C656 C 0.419 0.55901 0.09351 0.0
C657 C 0.31498 0.48422 0.10046 0.0
C658 C 0.39237 0.56599 0.08349 0.0
C659 C 0.32766 0.5328 0.08192 0.0
H660 H 0.9313 0.55835 0.91719 0.0
H661 H 0.8741 0.48056 0.95074 0.0
H662 H 0.81673 0.53723 0.95314 0.0
H663 H 0.77756 0.60273 0.94528 0.0
H664 H 0.83033 0.67707 0.91142 0.0
H665 H 0.89757 0.63032 0.90979 0.0
C666 C 0.90569 0.55333 0.92498 0.0
C667 C 0.90574 0.51444 0.93369 0.0
C668 C 0.87356 0.58665 0.92636 0.0
C669 C 0.8739 0.50961 0.94385 0.0
C670 C 0.84162 0.54239 0.94527 0.0
C671 C 0.80509 0.61032 0.93765 0.0
C672 C 0.7987 0.64298 0.92846 0.0
C673 C 0.84087 0.58069 0.93656 0.0
C674 C 0.83454 0.65211 0.91862 0.0
C675 C 0.87221 0.62461 0.91762 0.0
H676 H 0.45843 0.2134 0.91358 0.0
H677 H 0.39981 0.19605 0.94852 0.0
H678 H 0.44608 0.31006 0.94978 0.0
H679 H 0.51493 0.41448 0.94169 0.0
H680 H 0.57919 0.43065 0.90713 0.0
H681 H 0.52053 0.31661 0.90513 0.0
C682 C 0.45426 0.2342 0.92141 0.0
C683 C 0.42647 0.19639 0.93099 0.0
C684 C 0.48407 0.29957 0.92227 0.0
C685 C 0.4212 0.22421 0.94103 0.0
C686 C 0.44846 0.28941 0.94181 0.0
C687 C 0.51651 0.39301 0.93375 0.0
C688 C 0.55229 0.43074 0.92464 0.0
C689 C 0.48247 0.32754 0.93264 0.0
C690 C 0.55269 0.40246 0.91432 0.0
C691 C 0.51875 0.33737 0.91313 0.0
H692 H 0.66449 0.14696 0.91864 0.0
H693 H 0.6358 0.19459 0.9525 0.0
H694 H 0.74881 0.24874 0.95592 0.0
H695 H 0.85512 0.28837 0.94886 0.0
H696 H 0.88481 0.24616 0.91468 0.0
H697 H 0.77136 0.18089 0.912 0.0
C698 C 0.68306 0.16977 0.92672 0.0
C699 C 0.64217 0.168 0.93523 0.0
C700 C 0.74785 0.20007 0.92868 0.0
C701 C 0.66659 0.19624 0.94576 0.0
C702 C 0.73103 0.22661 0.94776 0.0
C703 C 0.83696 0.26328 0.94094 0.0
C704 C 0.87811 0.27202 0.93197 0.0
C705 C 0.77202 0.22909 0.93926 0.0
C706 C 0.85386 0.2398 0.92172 0.0
C707 C 0.78909 0.20341 0.92013 0.0
H708 H 0.25455 0.10413 0.41598 0.0
H709 H 0.3537 0.16915 0.44769 0.0
H710 H 0.30889 0.23758 0.45048 0.0
H711 H 0.23233 0.26973 0.44483 0.0
H712 H 0.13021 0.19974 0.41351 0.0
H713 H 0.18379 0.14051 0.40983 0.0
C714 C 0.268 0.13472 0.42333 0.0
C715 C 0.30724 0.13164 0.43163 0.0
C716 C 0.23948 0.171 0.42517 0.0
C717 C 0.32367 0.17104 0.44117 0.0
C718 C 0.29729 0.20931 0.44286 0.0
C719 C 0.22135 0.24074 0.4373 0.0
C720 C 0.17674 0.23792 0.42956 0.0
C721 C 0.25311 0.20762 0.43514 0.0
C722 C 0.16395 0.20179 0.41965 0.0
C723 C 0.19495 0.16849 0.41748 0.0
H724 H 0.96332 0.19119 0.41298 0.0
H725 H 0.90214 0.21591 0.44589 0.0
H726 H 0.83508 0.10212 0.44778 0.0
H727 H 0.80434 -0.00389 0.44104 0.0
H728 H 0.86943 0.97183 0.40847 0.0
H729 H 0.92638 0.08552 0.40562 0.0
C730 C 0.93362 0.17182 0.42039 0.0
C731 C 0.93739 0.21161 0.42928 0.0
C732 C 0.8981 0.10658 0.42168 0.0
C733 C 0.89952 0.18593 0.43892 0.0
C734 C 0.86207 0.12098 0.44007 0.0
C735 C 0.83157 0.01582 0.43338 0.0
C736 C 0.83401 0.97604 0.42509 0.0
C737 C 0.86322 0.08093 0.43172 0.0
C738 C 0.86783 0.00184 0.41505 0.0
C739 C 0.89981 0.06665 0.41337 0.0
H740 H 0.07804 0.84624 0.41912 0.0
H741 H 0.09226 0.91375 0.4534 0.0
H742 H 0.97787 0.85573 0.4551 0.0
H743 H 0.87505 0.79359 0.44633 0.0
H744 H 0.86072 0.73099 0.41169 0.0
H745 H 0.97468 0.77684 0.41086 0.0
C746 C 0.05615 0.84867 0.42694 0.0
C747 C 0.09336 0.88534 0.43604 0.0
C748 C -0.00931 0.81492 0.42788 0.0
C749 C 0.06445 0.88666 0.44622 0.0
C750 C -0.0008 0.85311 0.44722 0.0
C751 C 0.89651 0.78837 0.43868 0.0
C752 C 0.85955 0.75953 0.42904 0.0
C753 C 0.96196 0.81774 0.43806 0.0
C754 C 0.88821 0.75313 0.41922 0.0
C755 C 0.95337 0.78011 0.41869 0.0
H756 H 0.46003 0.9563 0.24798 0.0
H757 H 0.48847 -0.00238 0.28376 0.0
H758 H 0.55679 0.95179 0.28466 0.0
H759 H 0.59702 0.88823 0.27574 0.0
H760 H 0.56155 0.84154 0.2402 0.0
H761 H 0.50536 0.89962 0.23886 0.0
C762 C 0.48222 0.9567 0.25594 0.0
C763 C 0.46849 0.97952 0.26582 0.0
C764 C 0.51827 0.92728 0.25653 0.0
C765 C 0.49812 0.98008 0.27604 0.0
C766 C 0.53642 0.95308 0.27659 0.0
C767 C 0.57656 0.89041 0.26773 0.0
C768 C 0.58239 0.85973 0.25814 0.0
C769 C 0.54448 0.9241 0.26699 0.0
C770 C 0.55693 0.86408 0.24775 0.0
C771 C 0.52528 0.8977 0.24694 0.0
H772 H 0.18811 0.74784 0.25012 0.0
H773 H 0.24565 0.77022 0.28519 0.0
H774 H 0.18767 0.65675 0.28776 0.0
H775 H 0.12745 0.55201 0.27981 0.0
H776 H 0.07561 0.52791 0.24447 0.0
H777 H 0.12204 0.64167 0.24238 0.0
C778 C 0.18836 0.72781 0.2583 0.0
C779 C 0.22189 0.76721 0.2674 0.0
C780 C 0.15472 0.66251 0.25974 0.0
C781 C 0.22079 0.74077 0.27801 0.0
C782 C 0.18723 0.67597 0.27952 0.0
C783 C 0.1246 0.57136 0.27172 0.0
C784 C 0.09837 0.53182 0.2623 0.0
C785 C 0.15446 0.6365 0.27043 0.0
C786 C 0.09554 0.55764 0.25185 0.0
C787 C 0.12285 0.62261 0.25061 0.0
H788 H 0.52765 0.61935 0.27666 0.0
H789 H 0.54533 0.59277 0.24096 0.0
H790 H 0.43152 0.52442 0.23957 0.0
H791 H 0.32696 0.48296 0.24805 0.0
H792 H 0.31038 0.5161 0.2835 0.0
H793 H 0.42441 0.57312 0.28533 0.0
C794 C 0.50698 0.59752 0.2686 0.0
C795 C 0.54485 0.61155 0.2589 0.0
C796 C 0.44168 0.56132 0.26774 0.0
C797 C 0.51715 0.58273 0.24855 0.0
C798 C 0.45206 0.54438 0.24772 0.0
C799 C 0.34829 0.503 0.25616 0.0
C800 C 0.31034 0.49628 0.26558 0.0
C801 C 0.41382 0.53553 0.25717 0.0
C802 C 0.3386 0.52139 0.27608 0.0
C803 C 0.40374 0.55353 0.27717 0.0
H804 H 0.89413 0.60088 0.74807 0.0
H805 H 0.83472 0.56776 0.78306 0.0
H806 H 0.89394 0.51394 0.78613 0.0
H807 H 0.95659 0.471 0.77873 0.0
H808 H 0.00954 0.495 0.74344 0.0
H809 H 0.96155 0.56078 0.74078 0.0
C810 C 0.89367 0.58127 0.75632 0.0
C811 C 0.85947 0.58754 0.76528 0.0
C812 C 0.92805 0.55044 0.75806 0.0
C813 C 0.86018 0.56297 0.77599 0.0
C814 C 0.8945 0.53273 0.77779 0.0
C815 C 0.95939 0.49208 0.77051 0.0
C816 C 0.98652 0.47825 0.76129 0.0
C817 C 0.92834 0.52604 0.76889 0.0
C818 C -0.0109 0.50536 0.75068 0.0
C819 C 0.9608 0.54203 0.74912 0.0
H820 H 0.6409 0.52811 0.74773 0.0
H821 H 0.5866 0.56941 0.77996 0.0
H822 H 0.52333 0.45683 0.784 0.0
H823 H 0.49169 0.34719 0.77899 0.0
H824 H 0.55335 0.3092 0.74721 0.0
H825 H 0.60806 0.42067 0.74258 0.0
C826 C 0.61381 0.51265 0.7555 0.0
C827 C 0.61814 0.5569 0.76351 0.0
C828 C 0.58117 0.44864 0.75806 0.0
C829 C 0.58346 0.53601 0.77362 0.0
C830 C 0.54827 0.47181 0.77602 0.0
C831 C 0.51818 0.3637 0.77117 0.0
C832 C 0.51949 0.32054 0.76353 0.0
C833 C 0.54877 0.42787 0.76847 0.0
C834 C 0.55244 0.34193 0.75327 0.0
C835 C 0.58304 0.40543 0.75056 0.0
H836 H 0.55854 0.13049 0.7813 0.0
H837 H 0.53332 0.08367 0.7457 0.0
H838 H 0.64718 0.13341 0.74333 0.0
H839 H 0.7532 0.20203 0.75091 0.0
H840 H 0.77612 0.25613 0.7862 0.0
H841 H 0.66305 0.19377 0.78902 0.0
C842 C 0.57759 0.12968 0.77305 0.0
C843 C 0.53751 0.10412 0.76366 0.0
C844 C 0.64264 0.16201 0.7716 0.0
C845 C 0.5632 0.10316 0.75307 0.0
C846 C 0.62828 0.13254 0.75167 0.0
C847 C 0.7334 0.20069 0.75919 0.0
C848 C 0.77288 0.23452 0.76829 0.0
C849 C 0.66834 0.16461 0.76078 0.0
C850 C 0.74667 0.23127 0.77902 0.0
C851 C 0.68212 0.19509 0.78067 0.0
H852 H 0.09223 0.25423 0.61344 0.0
H853 H 0.16012 0.35572 0.58206 0.0
H854 H 0.22667 0.30871 0.5791 0.0
H855 H 0.25775 0.23107 0.58472 0.0
H856 H 0.18297 0.12545 0.61555 0.0
H857 H 0.12445 0.17977 0.61923 0.0
C858 C 0.12326 0.26777 0.60615 0.0
C859 C 0.12217 0.30884 0.59805 0.0
C860 C 0.15777 0.23761 0.60416 0.0
C861 C 0.16121 0.32479 0.58848 0.0
C862 C 0.19819 0.29705 0.58669 0.0
C863 C 0.22759 0.21933 0.5921 0.0
C864 C 0.22356 0.17395 0.59977 0.0
C865 C 0.19499 0.2516 0.59427 0.0
C866 C 0.18589 0.15993 0.60948 0.0
C867 C 0.15315 0.19141 0.61166 0.0
H868 H 0.79508 0.88326 0.61182 0.0
H869 H 0.70861 0.85424 0.57891 0.0
H870 H 0.75489 0.96785 0.57653 0.0
H871 H 0.82979 0.07547 0.58298 0.0
H872 H 0.92054 0.10221 0.61545 0.0
H873 H 0.86441 0.98916 0.61865 0.0
C874 C 0.78449 0.90156 0.60429 0.0
C875 C 0.74828 0.86052 0.59558 0.0
C876 C 0.81424 0.96658 0.6027 0.0
C877 C 0.73594 0.88507 0.58578 0.0
C878 C 0.7633 0.94998 0.58433 0.0
C879 C 0.83771 0.0563 0.59068 0.0
C880 C 0.87988 0.0968 0.59888 0.0
C881 C 0.80465 0.99117 0.59254 0.0
C882 C 0.88872 0.07174 0.60895 0.0
C883 C 0.85624 0.00723 0.61085 0.0
H884 H 0.16967 0.98734 0.6136 0.0
H885 H 0.21715 0.8886 0.58886 0.0
H886 H 0.106 0.82273 0.58393 0.0
H887 H -0.00373 0.79988 0.58559 0.0
H888 H 0.95087 0.90254 0.60984 0.0
H889 H 0.06085 0.96258 0.6157 0.0
C890 C 0.15535 0.94965 0.60746 0.0
C891 C 0.20101 0.94158 0.60178 0.0
C892 C 0.09226 0.91509 0.60419 0.0
C893 C 0.18231 0.89432 0.59353 0.0
C894 C 0.11908 0.85775 0.59054 0.0
C895 C 0.01108 0.83651 0.59195 0.0
C896 C 0.96651 0.8484 0.59708 0.0
C897 C 0.07397 0.86935 0.59552 0.0
C898 C 0.98517 0.89403 0.60563 0.0
C899 C 0.04763 0.92751 0.6091 0.0
H900 H 0.41155 0.0824 0.03332 0.0
H901 H 0.48428 0.95518 0.03618 0.0
H902 H 0.48499 0.94668 0.01558 0.0
H903 H 0.46383 0.97447 0.99678 0.0
H904 H 0.39182 0.10234 0.99395 0.0
H905 H 0.39018 0.10998 0.01454 0.0
C906 C 0.42702 0.05237 0.02944 0.0
C907 C 0.44787 0.01953 0.03628 0.0
C908 C 0.42695 0.0474 0.0176 0.0
C909 C 0.46876 0.9816 0.03111 0.0
C910 C 0.46879 0.97639 0.01933 0.0
C911 C 0.44823 0.00438 1.00066 0.0
C912 C 0.42789 0.03767 0.99382 0.0
C913 C 0.44805 0.00912 1.0125 0.0
C914 C 0.40686 0.07546 0.999 0.0
C915 C 0.40634 0.08024 1.01078 0.0
H916 H 0.98139 0.48475 0.99775 0.0
H917 H 0.11319 0.4172 0.99576 0.0
H918 H 0.11818 0.41557 0.01637 0.0
H919 H 0.08529 0.43311 0.035 0.0
H920 H 0.95365 0.5007 0.03712 0.0
H921 H 0.94983 0.50411 0.01646 0.0
C922 C 0.01172 0.47029 1.00182 0.0
C923 C 0.04654 0.45077 0.99516 0.0
C924 C 0.01468 0.46976 1.01372 0.0
C925 C 0.08499 0.43145 1.00062 0.0
C926 C 0.08822 0.43087 1.01243 0.0
C927 C 0.05537 0.44815 0.03095 0.0
C928 C 0.01968 0.46643 0.03764 0.0
C929 C 0.05304 0.44959 0.01907 0.0
C930 C 0.98213 0.48697 0.03222 0.0
C931 C 0.97961 0.48857 0.02039 0.0
H932 H 0.57341 0.52386 0.99203 0.0
H933 H 0.63624 0.72209 0.99004 0.0
H934 H 0.63855 0.72913 1.01065 0.0
H935 H 0.62423 0.67975 0.02924 0.0
H936 H 0.56143 0.48172 0.03146 0.0
H937 H 0.55627 0.4736 1.01079 0.0
C938 C 0.58691 0.56842 0.99611 0.0
C939 C 0.60512 0.62245 0.98947 0.0
C940 C 0.58807 0.57221 1.00801 0.0
C941 C 0.62305 0.67997 0.99492 0.0
C942 C 0.62411 0.68402 1.00672 0.0
C943 C 0.60985 0.63487 0.02521 0.0
C944 C 0.59364 0.58153 0.0319 0.0
C945 C 0.60729 0.63062 1.01334 0.0
C946 C 0.57378 0.52346 0.02652 0.0
C947 C 0.57111 0.51884 0.0147 0.0
H948 H 0.09716 0.43788 0.36607 0.0
H949 H 0.16173 0.30398 0.36891 0.0
H950 H 0.16108 0.29455 0.34834 0.0
H951 H 0.14013 0.32252 0.32955 0.0
H952 H 0.07528 0.45615 0.32665 0.0
H953 H 0.07631 0.466 0.34725 0.0
C954 C 0.11067 0.4063 0.36219 0.0
C955 C 0.12965 0.37188 0.36905 0.0
C956 C 0.1096 0.40058 0.35035 0.0
C957 C 0.14787 0.33182 0.36386 0.0
C958 C 0.14705 0.32601 0.35209 0.0
C959 C 0.12676 0.35425 0.33342 0.0
C960 C 0.10763 0.38849 0.32656 0.0
C961 C 0.12794 0.36009 0.34525 0.0
C962 C 0.08942 0.42858 0.33173 0.0
C963 C 0.0904 0.43459 0.3435 0.0
H964 H 0.64542 0.8026 0.36196 0.0
H965 H 0.77521 0.73287 0.36452 0.0
H966 H 0.78126 0.73035 0.3439 0.0
H967 H 0.75171 0.75032 0.32513 0.0
H968 H 0.62235 0.82056 0.3226 0.0
H969 H 0.61533 0.82188 0.34321 0.0
C970 C 0.67543 0.78733 0.35802 0.0
C971 C 0.70975 0.76793 0.3648 0.0
C972 C 0.67912 0.78646 0.34615 0.0
C973 C 0.74761 0.74728 0.35952 0.0
C974 C 0.75143 0.74619 0.34772 0.0
C975 C 0.72151 0.76533 0.32908 0.0
C976 C 0.68777 0.78547 0.32231 0.0
C977 C 0.71748 0.76576 0.34095 0.0
C978 C 0.64954 0.80565 0.32759 0.0
C979 C 0.6452 0.80609 0.33939 0.0
H980 H 0.20065 0.92456 0.3313 0.0
H981 H 0.40017 -0.00427 0.32856 0.0
H982 H 0.40812 -0.00788 0.3491 0.0
H983 H 0.35876 0.96851 0.36785 0.0
H984 H 0.15946 0.89806 0.37073 0.0
H985 H 0.15092 0.89973 0.35014 0.0
C986 C 0.24579 0.93878 0.33518 0.0
C987 C 0.29976 0.96077 0.32835 0.0
C988 C 0.25006 0.93622 0.34704 0.0
C989 C 0.35799 0.97968 0.33358 0.0
C990 C 0.36256 0.97719 0.34534 0.0
C991 C 0.31347 0.95393 0.364 0.0
C992 C 0.25989 0.93329 0.37088 0.0
C993 C 0.30898 0.95576 0.35215 0.0
C994 C 0.20142 0.91342 0.36568 0.0
C995 C 0.19653 0.91483 0.35389 0.0
H996 H 0.70765 0.6412 0.69668 0.0
H997 H 0.9044 0.78013 0.6989 0.0
H998 H 0.91195 0.78504 0.67827 0.0
H999 H 0.86215 0.75209 0.65956 0.0
H1000 H 0.66544 0.61292 0.65734 0.0
H1001 H 0.65824 0.60692 0.67796 0.0
C1002 C 0.75209 0.67285 0.69265 0.0
C1003 C 0.80535 0.71017 0.69936 0.0
C1004 C 0.75608 0.6757 0.68076 0.0
C1005 C 0.8628 0.75025 0.69397 0.0
C1006 C 0.86711 0.75339 0.68216 0.0
C1007 C 0.81786 0.71989 0.66358 0.0
C1008 C 0.7644 0.68322 0.65687 0.0
C1009 C 0.81405 0.71643 0.67547 0.0
C1010 C 0.70717 0.64243 0.66226 0.0
C1011 C 0.70305 0.63869 0.67407 0.0
H1012 H 0.42986 0.11648 0.6645 0.0
H1013 H 0.30179 0.18804 0.66141 0.0
H1014 H 0.29443 0.19081 0.68201 0.0
H1015 H 0.32085 0.16846 0.70094 0.0
H1016 H 0.44714 0.09466 0.70383 0.0
H1017 H 0.45739 0.09574 0.68328 0.0
C1018 C 0.39998 0.1323 0.66832 0.0
C1019 C 0.36631 0.15181 0.6614 0.0
C1020 C 0.39513 0.13279 0.68015 0.0
C1021 C 0.32884 0.17342 0.66652 0.0
C1022 C 0.32419 0.17457 0.67831 0.0
C1023 C 0.351 0.15314 0.69706 0.0
C1024 C 0.38275 0.13104 0.7039 0.0
C1025 C 0.35674 0.15387 0.68521 0.0
C1026 C 0.42129 0.11085 0.69875 0.0
C1027 C 0.42752 0.11181 0.687 0.0
H1028 H 0.85601 0.25323 0.66337 0.0
H1029 H 0.05362 0.31834 0.65912 0.0
H1030 H 0.06623 0.31679 0.67957 0.0
H1031 H 0.02185 0.29829 0.69867 0.0
H1032 H 0.82477 0.23497 0.70314 0.0
H1033 H 0.81098 0.23268 0.68262 0.0
C1034 C 0.90168 0.26654 0.66692 0.0
C1035 C 0.95387 0.28643 0.65971 0.0
C1036 C 0.9087 0.2655 0.67873 0.0
C1037 C 0.01286 0.30397 0.66447 0.0
C1038 C 0.02009 0.30272 0.67617 0.0
C1039 C 0.97591 0.28437 0.69517 0.0
C1040 C 0.92454 0.26708 0.70247 0.0
C1041 C 0.96848 0.28405 0.68338 0.0
C1042 C 0.86508 0.24788 0.69775 0.0
C1043 C 0.85721 0.247 0.686 0.0
H1044 H 0.39804 0.95998 0.2022 0.0
H1045 H 0.24281 -0.00564 0.19961 0.0
H1046 H 0.26382 0.01679 0.17935 0.0
H1047 H 0.32878 0.03057 0.16268 0.0
H1048 H 0.47655 0.98366 0.16482 0.0
H1049 H 0.4574 0.9647 0.18499 0.0
C1050 C 0.36859 0.97188 0.19714 0.0
C1051 C 0.31896 0.97556 0.20235 0.0
C1052 C 0.38033 0.98366 0.18547 0.0
C1053 C 0.28091 0.99077 0.19575 0.0
C1054 C 0.29322 0.00398 0.18419 0.0
C1055 C 0.35628 0.01493 0.16738 0.0
C1056 C 0.4047 0.00937 0.16196 0.0
C1057 C 0.3431 0.00096 0.17897 0.0
C1058 C 0.44023 0.99049 0.16858 0.0
C1059 C 0.42876 0.97864 0.18018 0.0
H1060 H 0.03308 0.32819 0.1631 0.0
H1061 H 0.12284 0.53094 0.16395 0.0
H1062 H 0.15154 0.53094 0.18367 0.0
H1063 H 0.14897 0.47316 0.20089 0.0
H1064 H 0.06613 0.27198 0.19964 0.0
H1065 H 0.03956 0.27174 0.17961 0.0
C1066 C 0.06008 0.37268 0.16745 0.0
C1067 C 0.07509 0.42942 0.16195 0.0
C1068 C 0.0786 0.37268 0.17868 0.0
C1069 C 0.1089 0.48626 0.16796 0.0
C1070 C 0.1262 0.48649 0.17923 0.0
C1071 C 0.1264 0.42964 0.1961 0.0
C1072 C 0.11 0.37275 0.20153 0.0
C1073 C 0.11109 0.43001 0.18467 0.0
C1074 C 0.07989 0.31624 0.19545 0.0
C1075 C 0.06421 0.31614 0.18408 0.0
H1076 H 0.74667 0.7326 0.19386 0.0
H1077 H 0.59109 0.76592 0.19774 0.0
H1078 H 0.5607 0.73554 0.178 0.0
H1079 H 0.57823 0.69869 0.15955 0.0
H1080 H 0.73611 0.66923 0.15567 0.0
H1081 H 0.76513 0.69767 0.17551 0.0
C1082 C 0.70603 0.73306 0.19038 0.0
C1083 C 0.67122 0.75148 0.19725 0.0
C1084 C 0.68892 0.71561 0.17905 0.0
C1085 C 0.61914 0.75265 0.19259 0.0
C1086 C 0.60142 0.73478 0.18133 0.0
C1087 C 0.61855 0.69802 0.16314 0.0
C1088 C 0.65478 0.6815 0.15626 0.0
C1089 C 0.6358 0.71591 0.17448 0.0
C1090 C 0.70758 0.68169 0.16087 0.0
C1091 C 0.72422 0.69807 0.17218 0.0
H1092 H 0.05264 0.49134 0.86287 0.0
H1093 H 0.94375 0.29781 0.87346 0.0
H1094 H 0.92897 0.26336 0.8538 0.0
H1095 H 0.95013 0.28716 0.83361 0.0
H1096 H 0.05427 0.48062 0.82274 0.0
H1097 H 0.06796 0.51555 0.84239 0.0
C1098 C 0.02502 0.44172 0.86087 0.0
C1099 C 0.00026 0.39736 0.8697 0.0
C1100 C 0.0163 0.4219 0.84945 0.0
C1101 C 0.96473 0.33312 0.8669 0.0
C1102 C 0.95591 0.31323 0.85562 0.0
C1103 C 0.97508 0.33704 0.83548 0.0
C1104 C 0.00157 0.38088 0.82659 0.0
C1105 C 0.98208 0.35709 0.84683 0.0
C1106 C 0.03449 0.44538 0.82933 0.0
C1107 C 0.04194 0.46561 0.84061 0.0
H1108 H 0.68909 0.59245 0.86122 0.0
H1109 H 0.67932 0.7622 0.8656 0.0
H1110 H 0.71183 0.79148 0.84604 0.0
H1111 H 0.74446 0.76985 0.82768 0.0
H1112 H 0.76087 0.60399 0.8237 0.0
H1113 H 0.72695 0.57369 0.84328 0.0
C1114 C 0.69487 0.63635 0.858 0.0
C1115 C 0.68118 0.67464 0.86496 0.0
C1116 C 0.71565 0.65413 0.84683 0.0
C1117 C 0.6879 0.73077 0.86044 0.0
C1118 C 0.70728 0.74808 0.84926 0.0
C1119 C 0.74074 0.7272 0.83114 0.0
C1120 C 0.75514 0.68922 0.82429 0.0
C1121 C 0.72135 0.71018 0.84239 0.0
C1122 C 0.75072 0.63434 0.82886 0.0
C1123 C 0.73085 0.61675 0.84002 0.0
H1124 H 0.50346 0.17861 0.83124 0.0
H1125 H 0.31507 0.02185 0.82841 0.0
H1126 H 0.31721 -0.00522 0.84825 0.0
H1127 H 0.37305 0.01412 0.86621 0.0
H1128 H 0.56204 0.16973 0.86936 0.0
H1129 H 0.56014 0.19791 0.84951 0.0
C1130 C 0.46283 0.13909 0.83506 0.0
C1131 C 0.40899 0.10247 0.82848 0.0
C1132 C 0.46493 0.12301 0.84643 0.0
C1133 C 0.35683 0.05068 0.83339 0.0
C1134 C 0.35814 0.03508 0.84469 0.0
C1135 C 0.41376 0.05442 0.86258 0.0
C1136 C 0.46747 0.08992 0.86926 0.0
C1137 C 0.41205 0.0706 0.85126 0.0
C1138 C 0.52031 0.14125 0.86436 0.0
C1139 C 0.51902 0.15773 0.85305 0.0
H1140 H 0.05293 0.39288 0.53331 0.0
H1141 H 0.92494 0.19236 0.53188 0.0
H1142 H 0.94592 0.19266 0.51173 0.0
H1143 H 0.00204 0.24953 0.49442 0.0
H1144 H 0.13837 0.44675 0.49646 0.0
H1145 H 0.11472 0.4475 0.51662 0.0
C1146 C 0.03038 0.3487 0.52875 0.0
C1147 C 0.98709 0.29271 0.53431 0.0
C1148 C 0.04482 0.34848 0.51725 0.0
C1149 C 0.95731 0.23668 0.52794 0.0
C1150 C 0.96988 0.23652 0.51639 0.0
C1151 C 0.02682 0.29234 0.49937 0.0
C1152 C 0.0719 0.34799 0.49409 0.0
C1153 C 0.01368 0.29207 0.51096 0.0
C1154 C 0.10389 0.4034 0.50046 0.0
C1155 C 0.09008 0.40383 0.51193 0.0
H1156 H 0.65827 0.69879 0.49347 0.0
H1157 H 0.81974 0.88436 0.49046 0.0
H1158 H 0.84536 0.88169 0.5104 0.0
H1159 H 0.82448 0.82461 0.52848 0.0
H1160 H 0.66015 0.64036 0.53151 0.0
H1161 H 0.63461 0.64397 0.51174 0.0
C1162 C 0.69912 0.73868 0.49717 0.0
C1163 C 0.7371 0.79161 0.49044 0.0
C1164 C 0.71374 0.73671 0.50863 0.0
C1165 C 0.78928 0.84326 0.49545 0.0
C1166 C 0.80427 0.84154 0.50684 0.0
C1167 C 0.78264 0.78543 0.5249 0.0
C1168 C 0.74499 0.73191 0.53159 0.0
C1169 C 0.76714 0.78825 0.5135 0.0
C1170 C 0.69131 0.68155 0.52661 0.0
C1171 C 0.67609 0.68377 0.51528 0.0
H1172 H 0.26799 0.93162 0.50173 0.0
H1173 H 0.36521 0.12593 0.4912 0.0
H1174 H 0.37752 0.15967 0.5109 0.0
H1175 H 0.36345 0.13421 0.53114 0.0
H1176 H 0.26029 0.93997 0.54159 0.0
H1177 H 0.24711 0.90624 0.52188 0.0
C1178 C 0.29106 0.98134 0.50371 0.0
C1179 C 0.31623 0.02601 0.49497 0.0
C1180 C 0.29712 0.00057 0.51505 0.0
C1181 C 0.34666 0.09035 0.49775 0.0
C1182 C 0.35331 0.1098 0.50902 0.0
C1183 C 0.33722 0.08454 0.52911 0.0
C1184 C 0.31358 0.0398 0.53786 0.0
C1185 C 0.32914 0.06533 0.51774 0.0
C1186 C 0.28025 0.97551 0.53505 0.0
C1187 C 0.27233 0.95609 0.52377 0.0
H1188 H 0.49725 0.40035 0.08323 0.0
H1189 H 0.56876 0.43328 0.11745 0.0
H1190 H 0.51289 0.3206 0.1211 0.0
H1191 H 0.45108 0.21335 0.11419 0.0
H1192 H 0.38341 0.17888 0.07973 0.0
H1193 H 0.42791 0.29172 0.07673 0.0
C1194 C 0.50091 0.38273 0.09145 0.0
C1195 C 0.53797 0.4249 0.09999 0.0
C1196 C 0.46821 0.31782 0.09354 0.0
C1197 C 0.54111 0.40165 0.11069 0.0
C1198 C 0.50882 0.33729 0.11282 0.0
C1199 C 0.44431 0.23019 0.10612 0.0
C1200 C 0.41431 0.18779 0.09718 0.0
C1201 C 0.47276 0.29499 0.10428 0.0
C1202 C 0.40633 0.21062 0.08676 0.0
C1203 C 0.43257 0.27517 0.08498 0.0
H1204 H 0.65517 0.13702 0.11298 0.0
H1205 H 0.62467 0.21071 0.08195 0.0
H1206 H 0.73725 0.26762 0.07822 0.0
H1207 H 0.84349 0.29923 0.08406 0.0
H1208 H 0.87653 0.23164 0.11558 0.0
H1209 H 0.76317 0.16639 0.11855 0.0
C1210 C 0.67352 0.16653 0.10553 0.0
C1211 C 0.63228 0.17082 0.09784 0.0
C1212 C 0.73818 0.19818 0.10333 0.0
C1213 C 0.65599 0.2076 0.08804 0.0
C1214 C 0.7201 0.23945 0.08583 0.0
C1215 C 0.82605 0.2688 0.09142 0.0
C1216 C 0.86809 0.26999 0.09958 0.0
C1217 C 0.76148 0.23481 0.09339 0.0
C1218 C 0.84478 0.231 0.10914 0.0
C1219 C 0.78013 0.19465 0.11094 0.0
H1220 H 0.77056 0.60324 0.11269 0.0
H1221 H 0.81229 0.65536 0.0775 0.0
H1222 H 0.88244 0.6116 0.07708 0.0
H1223 H 0.92142 0.54815 0.08603 0.0
H1224 H 0.87596 0.49139 0.12097 0.0
H1225 H 0.81616 0.54651 0.12209 0.0
C1226 C 0.79636 0.60668 0.10501 0.0
C1227 C 0.78621 0.6323 0.09512 0.0
C1228 C 0.83409 0.57884 0.10469 0.0
C1229 C 0.81948 0.63588 0.08522 0.0
C1230 C 0.85892 0.61022 0.08494 0.0
C1231 C 0.89819 0.54748 0.0939 0.0
C1232 C 0.90194 0.51467 0.10334 0.0
C1233 C 0.86448 0.57944 0.09449 0.0
C1234 C 0.8729 0.51556 0.11353 0.0
C1235 C 0.83914 0.54739 0.1142 0.0
H1236 H 0.41296 0.51997 0.94124 0.0
H1237 H 0.42723 0.58166 0.90657 0.0
H1238 H 0.31282 0.5247 0.90495 0.0
H1239 H 0.21 0.46472 0.91382 0.0
H1240 H 0.19555 0.40733 0.94878 0.0
H1241 H 0.30945 0.45294 0.94967 0.0
C1242 C 0.39104 0.52137 0.93335 0.0
C1243 C 0.42826 0.556 0.9241 0.0
C1244 C 0.32555 0.48819 0.93246 0.0
C1245 C 0.39938 0.55603 0.91385 0.0
C1246 C 0.33412 0.52312 0.9129 0.0
C1247 C 0.23144 0.46068 0.92157 0.0
C1248 C 0.19447 0.43328 0.93126 0.0
C1249 C 0.29685 0.48965 0.92219 0.0
C1250 C 0.22307 0.42837 0.94121 0.0
C1251 C 0.28819 0.45516 0.94177 0.0
H1252 H 0.56343 0.93977 0.91607 0.0
H1253 H 0.48875 0.88777 0.94995 0.0
H1254 H 0.54365 0.82891 0.9524 0.0
H1255 H 0.60546 0.78575 0.94446 0.0
H1256 H 0.67549 0.83189 0.91022 0.0
H1257 H 0.63222 0.90218 0.90857 0.0
C1258 C 0.55886 0.91517 0.92395 0.0
C1259 C 0.52121 0.91708 0.93273 0.0
C1260 C 0.59081 0.88166 0.92534 0.0
C1261 C 0.51684 0.88628 0.943 0.0
C1262 C 0.54858 0.85304 0.94445 0.0
C1263 C 0.61288 0.81246 0.93673 0.0
C1264 C 0.6432 0.80331 0.92745 0.0
C1265 C 0.5851 0.84991 0.93564 0.0
C1266 C 0.65221 0.83816 0.91749 0.0
C1267 C 0.62673 0.87762 0.91649 0.0
H1268 H 0.28005 0.85886 0.9459 0.0
H1269 H 0.26068 0.88496 0.91029 0.0
H1270 H 0.19286 0.77135 0.90793 0.0
H1271 H 0.14861 0.66423 0.9157 0.0
H1272 H 0.17671 0.64082 0.9511 0.0
H1273 H 0.23329 0.75401 0.95372 0.0
C1274 C 0.25974 0.84005 0.93766 0.0
C1275 C 0.27533 0.88018 0.92828 0.0
C1276 C 0.22413 0.775 0.93625 0.0
C1277 C 0.24909 0.85488 0.91765 0.0
C1278 C 0.21109 0.78995 0.91627 0.0
C1279 C 0.16757 0.68399 0.92396 0.0
C1280 C 0.15906 0.64415 0.93315 0.0
C1281 C 0.20028 0.74945 0.92544 0.0
C1282 C 0.18304 0.67039 0.94385 0.0
C1283 C 0.215 0.73514 0.94539 0.0
H1284 H 0.17439 0.74131 0.42107 0.0
H1285 H 0.25286 0.76491 0.45463 0.0
H1286 H 0.1971 0.65105 0.45725 0.0
H1287 H 0.13373 0.54563 0.44939 0.0
H1288 H 0.05929 0.52194 0.41551 0.0
H1289 H 0.1035 0.63551 0.41382 0.0
C1290 C 0.17964 0.72148 0.42892 0.0
C1291 C 0.2187 0.76113 0.43755 0.0
C1292 C 0.14702 0.65627 0.43041 0.0
C1293 C 0.22374 0.73508 0.4478 0.0
C1294 C 0.19152 0.67013 0.44934 0.0
C1295 C 0.12536 0.56509 0.44178 0.0
C1296 C 0.09351 0.52571 0.43257 0.0
C1297 C 0.15362 0.63034 0.44066 0.0
C1298 C 0.08362 0.55156 0.42271 0.0
C1299 C 0.10964 0.61643 0.42168 0.0
H1300 H 0.52463 0.62645 0.44594 0.0
H1301 H 0.54479 0.57886 0.41156 0.0
H1302 H 0.43122 0.50966 0.4102 0.0
H1303 H 0.32592 0.47223 0.41809 0.0
H1304 H 0.30635 0.52311 0.45225 0.0
H1305 H 0.42039 0.58303 0.45428 0.0
C1306 C 0.5045 0.59973 0.43823 0.0
C1307 C 0.54303 0.60813 0.42883 0.0
C1308 C 0.43921 0.56235 0.43735 0.0
C1309 C 0.51606 0.57324 0.41891 0.0
C1310 C 0.4511 0.53432 0.41808 0.0
C1311 C 0.34669 0.49688 0.42594 0.0
C1312 C 0.308 0.49439 0.43493 0.0
C1313 C 0.41216 0.53054 0.4271 0.0
C1314 C 0.33534 0.52509 0.44516 0.0
C1315 C 0.40043 0.55893 0.44636 0.0
H1316 H 0.60493 0.89752 0.44246 0.0
H1317 H 0.55195 0.82393 0.40853 0.0
H1318 H 0.49151 0.87763 0.40645 0.0
H1319 H 0.44684 0.93739 0.41481 0.0
H1320 H 0.49545 0.00708 0.44905 0.0
H1321 H 0.56707 0.96527 0.45027 0.0
C1322 C 0.57985 0.89297 0.43463 0.0
C1323 C 0.58169 0.8558 0.42575 0.0
C1324 C 0.54561 0.92425 0.43346 0.0
C1325 C 0.55042 0.8516 0.41555 0.0
C1326 C 0.51626 0.8826 0.41432 0.0
C1327 C 0.47435 0.94503 0.42244 0.0
C1328 C 0.46542 0.9747 0.43187 0.0
C1329 C 0.5129 0.91833 0.42328 0.0
C1330 C 0.5014 0.98415 0.44169 0.0
C1331 C 0.5417 0.95958 0.44244 0.0
H1332 H 0.88022 0.80466 0.27731 0.0
H1333 H 0.86047 0.73548 0.24308 0.0
H1334 H 0.97454 0.78261 0.24156 0.0
H1335 H 0.07987 0.85324 0.24929 0.0
H1336 H 0.0981 0.92674 0.28319 0.0
H1337 H 0.98428 0.86959 0.28537 0.0
C1338 C 0.90062 0.79809 0.26963 0.0
C1339 C 0.86207 0.76652 0.26033 0.0
C1340 C 0.96601 0.82817 0.26861 0.0
C1341 C 0.88933 0.7593 0.25038 0.0
C1342 C 0.95451 0.78705 0.24945 0.0
C1343 C 0.05882 0.85721 0.25711 0.0
C1344 C 0.09718 0.89496 0.26599 0.0
C1345 C -0.00668 0.8237 0.25836 0.0
C1346 C 0.06945 0.89854 0.27617 0.0
C1347 C 0.00445 0.86547 0.27747 0.0
H1348 H 0.27297 0.12453 0.2808 0.0
H1349 H 0.34138 0.16094 0.24639 0.0
H1350 H 0.29344 0.22655 0.24349 0.0
H1351 H 0.22226 0.26336 0.25015 0.0
H1352 H 0.14849 0.21926 0.28421 0.0
H1353 H 0.20675 0.16468 0.28768 0.0
C1354 C 0.2791 0.14827 0.27276 0.0
C1355 C 0.31061 0.13796 0.26382 0.0
C1356 C 0.24834 0.18238 0.27095 0.0
C1357 C 0.3175 0.16852 0.25342 0.0
C1358 C 0.28927 0.20512 0.2517 0.0
C1359 C 0.21843 0.24114 0.25828 0.0
C1360 C 0.18048 0.24446 0.26685 0.0
C1361 C 0.25244 0.21018 0.26027 0.0
C1362 C 0.17693 0.21672 0.27743 0.0
C1363 C 0.21066 0.18604 0.27947 0.0
H1364 H 0.80905 0.00654 0.24664 0.0
H1365 H 0.87285 0.96784 0.27808 0.0
H1366 H 0.92865 0.07913 0.28276 0.0
H1367 H 0.9625 0.18697 0.27773 0.0
H1368 H 0.90799 0.22934 0.24569 0.0
H1369 H 0.84258 0.11679 0.24166 0.0
C1370 C 0.83611 0.02282 0.2544 0.0
C1371 C 0.83748 0.97937 0.26195 0.0
C1372 C 0.86781 0.0871 0.25711 0.0
C1373 C 0.87154 0.00064 0.27211 0.0
C1374 C 0.90289 0.06412 0.27485 0.0
C1375 C 0.93461 0.17163 0.27004 0.0
C1376 C 0.93909 0.21605 0.26209 0.0
C1377 C 0.90102 0.10761 0.26746 0.0
C1378 C 0.90422 0.19562 0.25201 0.0
C1379 C 0.86788 0.13146 0.24962 0.0
H1380 H 0.79274 0.88871 0.77891 0.0
H1381 H 0.7633 0.87586 0.7427 0.0
H1382 H 0.80906 0.98986 0.74169 0.0
H1383 H 0.86944 0.09279 0.7507 0.0
H1384 H 0.90524 0.10555 0.78671 0.0
H1385 H 0.84641 0.99101 0.78811 0.0
C1386 C 0.79497 0.91048 0.7708 0.0
C1387 C 0.77545 0.87392 0.76086 0.0
C1388 C 0.82444 0.97593 0.7702 0.0
C1389 C 0.77819 0.90297 0.75047 0.0
C1390 C 0.80515 0.96817 0.74987 0.0
C1391 C 0.86475 0.07064 0.75886 0.0
C1392 C 0.89276 0.10754 0.76856 0.0
C1393 C 0.83086 0.0051 0.7596 0.0
C1394 C 0.885 0.07811 0.7791 0.0
C1395 C 0.85095 0.01275 0.77992 0.0
H1396 H 0.20465 0.95853 0.75016 0.0
H1397 H 0.22223 0.94285 0.78623 0.0
H1398 H 0.10831 0.8751 0.78778 0.0
H1399 H 0.00338 0.83072 0.77911 0.0
H1400 H -0.01167 0.85492 0.7432 0.0
H1401 H 0.10201 0.91099 0.74146 0.0
C1402 C 0.18394 0.93934 0.75835 0.0
C1403 C 0.22172 0.95622 0.76808 0.0
C1404 C 0.11874 0.90377 0.75926 0.0
C1405 C 0.19403 0.9306 0.77861 0.0
C1406 C 0.12889 0.89262 0.77952 0.0
C1407 C 0.02507 0.84875 0.77093 0.0
C1408 C -0.01245 0.83947 0.76134 0.0
C1409 C 0.09069 0.88107 0.76996 0.0
C1410 C 0.01618 0.86204 0.75075 0.0
C1411 C 0.08117 0.89365 0.74971 0.0
H1412 H 0.27191 0.22921 0.75189 0.0
H1413 H 0.2529 0.19487 0.78794 0.0
H1414 H 0.19401 0.25022 0.78961 0.0
H1415 H 0.14114 0.30045 0.78069 0.0
H1416 H 0.15447 0.33001 0.74452 0.0
H1417 H 0.22487 0.28675 0.74312 0.0
C1418 C 0.25466 0.23363 0.7601 0.0
C1419 C 0.2658 0.20706 0.76974 0.0
C1420 C 0.22093 0.26564 0.76101 0.0
C1421 C 0.24428 0.21425 0.78036 0.0
C1422 C 0.21097 0.24624 0.78134 0.0
C1423 C 0.16066 0.29902 0.77252 0.0
C1424 C 0.14224 0.31797 0.76271 0.0
C1425 C 0.19841 0.27141 0.77171 0.0
C1426 C 0.1679 0.3156 0.7522 0.0
C1427 C 0.20749 0.29017 0.75137 0.0
H1428 H 0.53696 0.1346 0.58251 0.0
H1429 H 0.51456 0.07216 0.61723 0.0
H1430 H 0.62836 0.11818 0.61903 0.0
H1431 H 0.73423 0.18619 0.61133 0.0
H1432 H 0.75508 0.25334 0.57692 0.0
H1433 H 0.64145 0.19685 0.57452 0.0
C1434 C 0.55672 0.12932 0.59038 0.0
C1435 C 0.51762 0.10009 0.59973 0.0
C1436 C 0.62192 0.15876 0.59153 0.0
C1437 C 0.54395 0.09432 0.6099 0.0
C1438 C 0.60895 0.1214 0.61099 0.0
C1439 C 0.71379 0.1889 0.60335 0.0
C1440 C 0.75277 0.22463 0.59438 0.0
C1441 C 0.64842 0.15589 0.60199 0.0
C1442 C 0.72588 0.22666 0.584 0.0
C1443 C 0.66101 0.19398 0.58258 0.0
H1444 H 0.93684 0.45709 0.57921 0.0
H1445 H -0.00229 0.49508 0.61404 0.0
H1446 H 0.95621 0.56687 0.61568 0.0
H1447 H 0.89075 0.60782 0.60789 0.0
H1448 H 0.82617 0.56508 0.57329 0.0
H1449 H 0.87986 0.50492 0.57097 0.0
C1450 C 0.94283 0.48254 0.58706 0.0
C1451 C 0.96989 0.47057 0.59651 0.0
C1452 C 0.91624 0.52115 0.5881 0.0
C1453 C 0.97691 0.50357 0.60664 0.0
C1454 C 0.95246 0.54392 0.60763 0.0
C1455 C 0.88826 0.58504 0.59987 0.0
C1456 C 0.8537 0.58983 0.59085 0.0
C1457 C 0.91961 0.55084 0.59856 0.0
C1458 C 0.85198 0.56143 0.58041 0.0
C1459 C 0.88297 0.52737 0.57904 0.0
H1460 H 0.45954 0.33849 0.60837 0.0
H1461 H 0.51868 0.29456 0.57692 0.0
H1462 H 0.58172 0.40624 0.57247 0.0
H1463 H 0.62537 0.51628 0.57811 0.0
H1464 H 0.56831 0.56065 0.60973 0.0
H1465 H 0.49708 0.44901 0.61331 0.0
C1466 C 0.48671 0.35358 0.60061 0.0
C1467 C 0.48554 0.30872 0.59309 0.0
C1468 C 0.52195 0.4178 0.598 0.0
C1469 C 0.51953 0.32852 0.5829 0.0
C1470 C 0.55518 0.39225 0.5803 0.0
C1471 C 0.5957 0.50157 0.58558 0.0
C1472 C 0.60168 0.54639 0.59362 0.0
C1473 C 0.55699 0.43732 0.58782 0.0
C1474 C 0.56401 0.52675 0.60339 0.0
C1475 C 0.52401 0.46297 0.60552 0.0
loop_
_geom_bond_atom_site_label_1
_geom_bond_atom_site_label_2
_geom_bond_distance
_geom_bond_site_symmetry_2
_ccdc_geom_bond_type
C0 O16 1.251 . S
C0 O18 1.254 . S
N1 C2 1.333 . S
N1 C6 1.307 . S
N1 Zn7 2.020 . S
C2 N1 1.333 . S
C2 C3 1.379 . S
C2 H20 0.951 1_545 S
C3 C2 1.379 . S
C3 C4 1.390 . S
C3 H30 0.949 1_545 S
C4 C3 1.390 . S
C4 C5 1.357 . S
C5 C4 1.357 . S
C5 C6 1.370 . S
C5 H31 0.950 . S
C6 N1 1.307 . S
C6 C5 1.370 . S
C6 H24 0.948 . S
Zn7 N1 2.020 . S
Zn7 O16 2.039 1_545 S
Zn7 O22 2.034 . S
Zn7 O26 2.025 . S
Zn7 O28 2.024 1_545 S
C8 O27 1.246 . S
C8 O28 1.249 . S
N9 C10 1.307 . S
N9 C11 1.333 . S
N9 Zn15 2.020 . S
C10 N9 1.307 . S
C10 C14 1.370 . S
C10 H21 0.948 . S
C11 N9 1.333 . S
C11 C12 1.379 . S
C11 H19 0.952 . S
C12 C11 1.379 . S
C12 C13 1.390 . S
C12 H32 0.949 . S
C13 C12 1.390 . S
C13 C14 1.357 . S
C14 C10 1.370 . S
C14 C13 1.357 . S
C14 H33 0.950 . S
Zn15 N9 2.020 . S
Zn15 O18 2.025 1_545 S
Zn15 O23 2.024 . S
Zn15 O25 2.039 . S
Zn15 O27 2.034 1_545 S
O16 C0 1.251 . S
O16 Zn7 2.039 1_565 S
C17 O22 1.246 . S
C17 O23 1.249 . S
O18 C0 1.254 . S
O18 Zn15 2.025 1_565 S
H19 C11 0.952 . S
H20 C2 0.951 1_565 S
H21 C10 0.948 . S
O22 Zn7 2.034 . S
O22 C17 1.246 . S
O23 Zn15 2.024 . S
O23 C17 1.249 . S
H24 C6 0.948 . S
O25 Zn15 2.039 . S
O25 C29 1.251 . S
O26 Zn7 2.025 . S
O26 C29 1.254 . S
O27 C8 1.246 . S
O27 Zn15 2.034 1_565 S
O28 Zn7 2.024 1_565 S
O28 C8 1.249 . S
C29 O25 1.251 . S
C29 O26 1.254 . S
H30 C3 0.949 1_565 S
H31 C5 0.950 . S
H32 C12 0.949 . S
H33 C14 0.950 . S
C34 O50 1.251 . S
C34 O52 1.254 . S
N35 C36 1.333 . S
N35 C40 1.307 . S
N35 Zn41 2.020 . S
C36 N35 1.333 . S
C36 C37 1.379 . S
C36 H54 0.952 . S
C37 C36 1.379 . S
C37 C38 1.390 . S
C37 H64 0.949 . S
C38 C37 1.390 . S
C38 C39 1.357 . S
C39 C38 1.357 . S
C39 C40 1.370 . S
C39 H65 0.950 . S
C40 N35 1.307 . S
C40 C39 1.370 . S
C40 H58 0.948 . S
Zn41 N35 2.020 . S
Zn41 O50 2.039 . S
Zn41 O56 2.034 1_455 S
Zn41 O60 2.025 1_455 S
Zn41 O62 2.024 . S
C42 O61 1.246 . S
C42 O62 1.249 . S
N43 C44 1.307 . S
N43 C45 1.333 . S
N43 Zn49 2.020 . S
C44 N43 1.307 . S
C44 C48 1.370 . S
C44 H55 0.948 . S
C45 N43 1.333 . S
C45 C46 1.379 . S
C45 H53 0.952 . S
C46 C45 1.379 . S
C46 C47 1.390 . S
C46 H66 0.949 . S
C47 C46 1.390 . S
C47 C48 1.357 . S
C48 C44 1.370 . S
C48 C47 1.357 . S
C48 H67 0.950 . S
Zn49 N43 2.020 . S
Zn49 O52 2.025 . S
Zn49 O57 2.024 1_455 S
Zn49 O59 2.039 1_455 S
Zn49 O61 2.034 . S
O50 C34 1.251 . S
O50 Zn41 2.039 . S
C51 O56 1.246 . S
C51 O57 1.249 . S
O52 C34 1.254 . S
O52 Zn49 2.025 . S
H53 C45 0.952 . S
H54 C36 0.952 . S
H55 C44 0.948 . S
O56 Zn41 2.034 1_655 S
O56 C51 1.246 . S
O57 Zn49 2.024 1_655 S
O57 C51 1.249 . S
H58 C40 0.948 . S
O59 Zn49 2.039 1_655 S
O59 C63 1.251 . S
O60 Zn41 2.025 1_655 S
O60 C63 1.254 . S
O61 C42 1.246 . S
O61 Zn49 2.034 . S
O62 Zn41 2.024 . S
O62 C42 1.249 . S
C63 O59 1.251 . S
C63 O60 1.254 . S
H64 C37 0.949 . S
H65 C39 0.950 . S
H66 C46 0.949 . S
H67 C48 0.950 . S
C68 O84 1.251 . S
C68 O86 1.254 . S
N69 C70 1.333 . S
N69 C74 1.307 . S
N69 Zn75 2.020 . S
C70 N69 1.333 . S
C70 C71 1.379 . S
C70 H88 0.952 . S
C71 C70 1.379 . S
C71 C72 1.390 . S
C71 H98 0.949 . S
C72 C71 1.390 . S
C72 C73 1.357 . S
C73 C72 1.357 . S
C73 C74 1.370 . S
C73 H99 0.950 . S
C74 N69 1.307 . S
C74 C73 1.370 . S
C74 H92 0.948 . S
Zn75 N69 2.020 . S
Zn75 O84 2.039 . S
Zn75 O90 2.034 . S
Zn75 O94 2.025 . S
Zn75 O96 2.024 . S
C76 O95 1.246 . S
C76 O96 1.249 . S
N77 C78 1.307 . S
N77 C79 1.333 . S
N77 Zn83 2.020 . S
C78 N77 1.307 . S
C78 C82 1.370 . S
C78 H89 0.948 . S
C79 N77 1.333 . S
C79 C80 1.379 . S
C79 H87 0.952 . S
C80 C79 1.379 . S
C80 C81 1.390 . S
C80 H100 0.949 . S
C81 C80 1.390 . S
C81 C82 1.357 . S
C82 C78 1.370 . S
C82 C81 1.357 . S
C82 H101 0.950 . S
Zn83 N77 2.020 . S
Zn83 O86 2.025 . S
Zn83 O91 2.024 . S
Zn83 O93 2.039 . S
Zn83 O95 2.034 . S
O84 C68 1.251 . S
O84 Zn75 2.039 . S
C85 O90 1.246 . S
C85 O91 1.249 . S
O86 C68 1.254 . S
O86 Zn83 2.025 . S
H87 C79 0.952 . S
H88 C70 0.952 . S
H89 C78 0.948 . S
O90 Zn75 2.034 . S
O90 C85 1.246 . S
O91 Zn83 2.024 . S
O91 C85 1.249 . S
H92 C74 0.948 . S
O93 Zn83 2.039 . S
O93 C97 1.251 . S
O94 Zn75 2.025 . S
O94 C97 1.254 . S
O95 C76 1.246 . S
O95 Zn83 2.034 . S
O96 Zn75 2.024 . S
O96 C76 1.249 . S
C97 O93 1.251 . S
C97 O94 1.254 . S
H98 C71 0.949 . S
H99 C73 0.950 . S
H100 C80 0.949 . S
H101 C82 0.950 . S
C102 O118 1.251 . S
C102 O120 1.254 . S
N103 C104 1.333 . S
N103 C108 1.307 . S
N103 Zn109 2.020 . S
C104 N103 1.333 . S
C104 C105 1.379 . S
C104 H122 0.951 1_455 S
C105 C104 1.379 . S
C105 C106 1.390 . S
C105 H132 0.949 1_455 S
C106 C105 1.390 . S
C106 C107 1.357 . S
C107 C106 1.357 . S
C107 C108 1.370 . S
C107 H133 0.950 . S
C108 N103 1.307 . S
C108 C107 1.370 . S
C108 H126 0.948 . S
Zn109 N103 2.020 . S
Zn109 O118 2.039 1_455 S
Zn109 O124 2.034 . S
Zn109 O128 2.025 . S
Zn109 O130 2.024 1_455 S
C110 O129 1.246 . S
C110 O130 1.249 . S
N111 C112 1.307 . S
N111 C113 1.333 . S
N111 Zn117 2.020 . S
C112 N111 1.307 . S
C112 C116 1.370 . S
C112 H123 0.948 . S
C113 N111 1.333 . S
C113 C114 1.379 . S
C113 H121 0.952 . S
C114 C113 1.379 . S
C114 C115 1.390 . S
C114 H134 0.949 . S
C115 C114 1.390 . S
C115 C116 1.357 . S
C116 C112 1.370 . S
C116 C115 1.357 . S
C116 H135 0.950 . S
Zn117 N111 2.020 . S
Zn117 O120 2.025 1_455 S
Zn117 O125 2.024 . S
Zn117 O127 2.039 . S
Zn117 O129 2.034 1_455 S
O118 C102 1.251 . S
O118 Zn109 2.039 1_655 S
C119 O124 1.246 . S
C119 O125 1.249 . S
O120 C102 1.254 . S
O120 Zn117 2.025 1_655 S
H121 C113 0.952 . S
H122 C104 0.951 1_655 S
H123 C112 0.948 . S
O124 Zn109 2.034 . S
O124 C119 1.246 . S
O125 Zn117 2.024 . S
O125 C119 1.249 . S
H126 C108 0.948 . S
O127 Zn117 2.039 . S
O127 C131 1.251 . S
O128 Zn109 2.025 . S
O128 C131 1.254 . S
O129 C110 1.246 . S
O129 Zn117 2.034 1_655 S
O130 Zn109 2.024 1_655 S
O130 C110 1.249 . S
C131 O127 1.251 . S
C131 O128 1.254 . S
H132 C105 0.949 1_655 S
H133 C107 0.950 . S
H134 C114 0.949 . S
H135 C116 0.950 . S
C136 O152 1.251 . S
C136 O154 1.254 . S
N137 C138 1.333 . S
N137 C142 1.307 . S
N137 Zn143 2.020 . S
C138 N137 1.333 . S
C138 C139 1.379 . S
C138 H156 0.952 . S
C139 C138 1.379 . S
C139 C140 1.390 . S
C139 H166 0.949 . S
C140 C139 1.390 . S
C140 C141 1.357 . S
C141 C140 1.357 . S
C141 C142 1.370 . S
C141 H167 0.950 . S
C142 N137 1.307 . S
C142 C141 1.370 . S
C142 H160 0.948 . S
Zn143 N137 2.020 . S
Zn143 O152 2.039 . S
Zn143 O158 2.034 . S
Zn143 O162 2.025 . S
Zn143 O164 2.024 . S
C144 O163 1.246 . S
C144 O164 1.249 . S
N145 C146 1.307 . S
N145 C147 1.333 . S
N145 Zn151 2.020 . S
C146 N145 1.307 . S
C146 C150 1.370 . S
C146 H157 0.948 . S
C147 N145 1.333 . S
C147 C148 1.379 . S
C147 H155 0.952 . S
C148 C147 1.379 . S
C148 C149 1.390 . S
C148 H168 0.949 . S
C149 C148 1.390 . S
C149 C150 1.357 . S
C150 C146 1.370 . S
C150 C149 1.357 . S
C150 H169 0.950 . S
Zn151 N145 2.020 . S
Zn151 O154 2.025 . S
Zn151 O159 2.024 . S
Zn151 O161 2.039 . S
Zn151 O163 2.034 . S
O152 C136 1.251 . S
O152 Zn143 2.039 . S
C153 O158 1.246 . S
C153 O159 1.249 . S
O154 C136 1.254 . S
O154 Zn151 2.025 . S
H155 C147 0.952 . S
H156 C138 0.952 . S
H157 C146 0.948 . S
O158 Zn143 2.034 . S
O158 C153 1.246 . S
O159 Zn151 2.024 . S
O159 C153 1.249 . S
H160 C142 0.948 . S
O161 Zn151 2.039 . S
O161 C165 1.251 . S
O162 Zn143 2.025 . S
O162 C165 1.254 . S
O163 C144 1.246 . S
O163 Zn151 2.034 . S
O164 Zn143 2.024 . S
O164 C144 1.249 . S
C165 O161 1.251 . S
C165 O162 1.254 . S
H166 C139 0.949 . S
H167 C141 0.950 . S
H168 C148 0.949 . S
H169 C150 0.950 . S
C170 O186 1.251 . S
C170 O188 1.254 . S
N171 C172 1.333 . S
N171 C176 1.307 . S
N171 Zn177 2.020 . S
C172 N171 1.333 . S
C172 C173 1.379 . S
C172 H190 0.952 . S
C173 C172 1.379 . S
C173 C174 1.390 . S
C173 H200 0.949 . S
C174 C173 1.390 . S
C174 C175 1.357 . S
C175 C174 1.357 . S
C175 C176 1.370 . S
C175 H201 0.950 . S
C176 N171 1.307 . S
C176 C175 1.370 . S
C176 H194 0.948 . S
Zn177 N171 2.020 . S
Zn177 O186 2.039 . S
Zn177 O192 2.034 1_545 S
Zn177 O196 2.025 1_545 S
Zn177 O198 2.024 . S
C178 O197 1.246 . S
C178 O198 1.249 . S
N179 C180 1.307 . S
N179 C181 1.333 . S
N179 Zn185 2.020 . S
C180 N179 1.307 . S
C180 C184 1.370 . S
C180 H191 0.948 . S
C181 N179 1.333 . S
C181 C182 1.379 . S
C181 H189 0.952 . S
C182 C181 1.379 . S
C182 C183 1.390 . S
C182 H202 0.949 . S
C183 C182 1.390 . S
C183 C184 1.357 . S
C184 C180 1.370 . S
C184 C183 1.357 . S
C184 H203 0.950 . S
Zn185 N179 2.020 . S
Zn185 O188 2.025 . S
Zn185 O193 2.024 1_545 S
Zn185 O195 2.039 1_545 S
Zn185 O197 2.034 . S
O186 C170 1.251 . S
O186 Zn177 2.039 . S
C187 O192 1.246 . S
C187 O193 1.249 . S
O188 C170 1.254 . S
O188 Zn185 2.025 . S
H189 C181 0.952 . S
H190 C172 0.952 . S
H191 C180 0.948 . S
O192 Zn177 2.034 1_565 S
O192 C187 1.246 . S
O193 Zn185 2.024 1_565 S
O193 C187 1.249 . S
H194 C176 0.948 . S
O195 Zn185 2.039 1_565 S
O195 C199 1.251 . S
O196 Zn177 2.025 1_565 S
O196 C199 1.254 . S
O197 C178 1.246 . S
O197 Zn185 2.034 . S
O198 Zn177 2.024 . S
O198 C178 1.249 . S
C199 O195 1.251 . S
C199 O196 1.254 . S
H200 C173 0.949 . S
H201 C175 0.950 . S
H202 C182 0.949 . S
H203 C184 0.950 . S
C204 O220 1.251 . S
C204 O222 1.254 . S
N205 C206 1.333 . S
N205 C210 1.307 . S
N205 Zn211 2.020 . S
C206 N205 1.333 . S
C206 C207 1.379 . S
C206 H224 0.952 . S
C207 C206 1.379 . S
C207 C208 1.390 . S
C207 H234 0.949 . S
C208 C207 1.390 . S
C208 C209 1.357 . S
C209 C208 1.357 . S
C209 C210 1.370 . S
C209 H235 0.950 . S
C210 N205 1.307 . S
C210 C209 1.370 . S
C210 H228 0.948 . S
Zn211 N205 2.020 . S
Zn211 O220 2.039 . S
Zn211 O226 2.034 . S
Zn211 O230 2.025 . S
Zn211 O232 2.024 . S
C212 O231 1.246 . S
C212 O232 1.249 . S
N213 C214 1.307 . S
N213 C215 1.333 . S
N213 Zn219 2.020 . S
C214 N213 1.307 . S
C214 C218 1.370 . S
C214 H225 0.948 . S
C215 N213 1.333 . S
C215 C216 1.379 . S
C215 H223 0.952 . S
C216 C215 1.379 . S
C216 C217 1.390 . S
C216 H236 0.949 . S
C217 C216 1.390 . S
C217 C218 1.357 . S
C218 C214 1.370 . S
C218 C217 1.357 . S
C218 H237 0.950 . S
Zn219 N213 2.020 . S
Zn219 O222 2.025 . S
Zn219 O227 2.024 . S
Zn219 O229 2.039 . S
Zn219 O231 2.034 . S
O220 C204 1.251 . S
O220 Zn211 2.039 . S
C221 O226 1.246 . S
C221 O227 1.249 . S
O222 C204 1.254 . S
O222 Zn219 2.025 . S
H223 C215 0.952 . S
H224 C206 0.952 . S
H225 C214 0.948 . S
O226 Zn211 2.034 . S
O226 C221 1.246 . S
O227 Zn219 2.024 . S
O227 C221 1.249 . S
H228 C210 0.948 . S
O229 Zn219 2.039 . S
O229 C233 1.251 . S
O230 Zn211 2.025 . S
O230 C233 1.254 . S
O231 C212 1.246 . S
O231 Zn219 2.034 . S
O232 Zn211 2.024 . S
O232 C212 1.249 . S
C233 O229 1.251 . S
C233 O230 1.254 . S
H234 C207 0.949 . S
H235 C209 0.950 . S
H236 C216 0.949 . S
H237 C218 0.950 . S
C238 O254 1.251 . S
C238 O256 1.254 . S
N239 C240 1.333 . S
N239 C244 1.307 . S
N239 Zn245 2.020 . S
C240 N239 1.333 . S
C240 C241 1.379 . S
C240 H258 0.952 . S
C241 C240 1.379 . S
C241 C242 1.390 . S
C241 H268 0.949 . S
C242 C241 1.390 . S
C242 C243 1.357 . S
C243 C242 1.357 . S
C243 C244 1.370 . S
C243 H269 0.950 . S
C244 N239 1.307 . S
C244 C243 1.370 . S
C244 H262 0.948 . S
Zn245 N239 2.020 . S
Zn245 O254 2.039 . S
Zn245 O260 2.034 . S
Zn245 O264 2.025 . S
Zn245 O266 2.024 . S
C246 O265 1.246 . S
C246 O266 1.249 . S
N247 C248 1.307 . S
N247 C249 1.333 . S
N247 Zn253 2.020 . S
C248 N247 1.307 . S
C248 C252 1.370 . S
C248 H259 0.948 . S
C249 N247 1.333 . S
C249 C250 1.379 . S
C249 H257 0.952 . S
C250 C249 1.379 . S
C250 C251 1.390 . S
C250 H270 0.949 . S
C251 C250 1.390 . S
C251 C252 1.357 . S
C252 C248 1.370 . S
C252 C251 1.357 . S
C252 H271 0.950 . S
Zn253 N247 2.020 . S
Zn253 O256 2.025 . S
Zn253 O261 2.024 . S
Zn253 O263 2.039 . S
Zn253 O265 2.034 . S
O254 C238 1.251 . S
O254 Zn245 2.039 . S
C255 O260 1.246 . S
C255 O261 1.249 . S
O256 C238 1.254 . S
O256 Zn253 2.025 . S
H257 C249 0.952 . S
H258 C240 0.952 . S
H259 C248 0.948 . S
O260 Zn245 2.034 . S
O260 C255 1.246 . S
O261 Zn253 2.024 . S
O261 C255 1.249 . S
H262 C244 0.948 . S
O263 Zn253 2.039 . S
O263 C267 1.251 . S
O264 Zn245 2.025 . S
O264 C267 1.254 . S
O265 C246 1.246 . S
O265 Zn253 2.034 . S
O266 Zn245 2.024 . S
O266 C246 1.249 . S
C267 O263 1.251 . S
C267 O264 1.254 . S
H268 C241 0.949 . S
H269 C243 0.950 . S
H270 C250 0.949 . S
H271 C252 0.950 . S
C272 O288 1.251 . S
C272 O290 1.254 . S
N273 C274 1.333 . S
N273 C278 1.307 . S
N273 Zn279 2.020 . S
C274 N273 1.333 . S
C274 C275 1.379 . S
C274 H292 0.952 1_565 S
C275 C274 1.379 . S
C275 C276 1.390 . S
C275 H302 0.949 1_565 S
C276 C275 1.390 . S
C276 C277 1.357 . S
C277 C276 1.357 . S
C277 C278 1.370 . S
C277 H303 0.950 . S
C278 N273 1.307 . S
C278 C277 1.370 . S
C278 H296 0.948 . S
Zn279 N273 2.020 . S
Zn279 O288 2.039 1_565 S
Zn279 O294 2.034 . S
Zn279 O298 2.025 . S
Zn279 O300 2.024 . S
C280 O299 1.246 . S
C280 O300 1.249 . S
N281 C282 1.307 . S
N281 C283 1.333 . S
N281 Zn287 2.020 . S
C282 N281 1.307 . S
C282 C286 1.370 . S
C282 H293 0.948 . S
C283 N281 1.333 . S
C283 C284 1.379 . S
C283 H291 0.952 . S
C284 C283 1.379 . S
C284 C285 1.390 . S
C284 H304 0.949 . S
C285 C284 1.390 . S
C285 C286 1.357 . S
C286 C282 1.370 . S
C286 C285 1.357 . S
C286 H305 0.950 . S
Zn287 N281 2.020 . S
Zn287 O290 2.025 1_565 S
Zn287 O295 2.024 . S
Zn287 O297 2.039 . S
Zn287 O299 2.034 . S
O288 C272 1.251 . S
O288 Zn279 2.039 1_545 S
C289 O294 1.246 . S
C289 O295 1.249 . S
O290 C272 1.254 . S
O290 Zn287 2.025 1_545 S
H291 C283 0.952 . S
H292 C274 0.952 1_545 S
H293 C282 0.948 . S
O294 Zn279 2.034 . S
O294 C289 1.246 . S
O295 Zn287 2.024 . S
O295 C289 1.249 . S
H296 C278 0.948 . S
O297 Zn287 2.039 . S
O297 C301 1.251 . S
O298 Zn279 2.025 . S
O298 C301 1.254 . S
O299 C280 1.246 . S
O299 Zn287 2.034 . S
O300 Zn279 2.024 . S
O300 C280 1.249 . S
C301 O297 1.251 . S
C301 O298 1.254 . S
H302 C275 0.949 1_545 S
H303 C277 0.950 . S
H304 C284 0.949 . S
H305 C286 0.950 . S
C306 O322 1.251 . S
C306 O324 1.254 . S
N307 C308 1.333 . S
N307 C312 1.307 . S
N307 Zn313 2.020 . S
C308 N307 1.333 . S
C308 C309 1.379 . S
C308 H326 0.952 . S
C309 C308 1.379 . S
C309 C310 1.390 . S
C309 H336 0.949 . S
C310 C309 1.390 . S
C310 C311 1.357 . S
C311 C310 1.357 . S
C311 C312 1.370 . S
C311 H337 0.950 . S
C312 N307 1.307 . S
C312 C311 1.370 . S
C312 H330 0.948 . S
Zn313 N307 2.020 . S
Zn313 O322 2.039 . S
Zn313 O328 2.034 . S
Zn313 O332 2.025 . S
Zn313 O334 2.024 . S
C314 O333 1.246 . S
C314 O334 1.249 . S
N315 C316 1.307 . S
N315 C317 1.333 . S
N315 Zn321 2.020 . S
C316 N315 1.307 . S
C316 C320 1.370 . S
C316 H327 0.948 . S
C317 N315 1.333 . S
C317 C318 1.379 . S
C317 H325 0.952 . S
C318 C317 1.379 . S
C318 C319 1.390 . S
C318 H338 0.949 . S
C319 C318 1.390 . S
C319 C320 1.357 . S
C320 C316 1.370 . S
C320 C319 1.357 . S
C320 H339 0.950 . S
Zn321 N315 2.020 . S
Zn321 O324 2.025 . S
Zn321 O329 2.024 . S
Zn321 O331 2.039 . S
Zn321 O333 2.034 . S
O322 C306 1.251 . S
O322 Zn313 2.039 . S
C323 O328 1.246 . S
C323 O329 1.249 . S
O324 C306 1.254 . S
O324 Zn321 2.025 . S
H325 C317 0.952 . S
H326 C308 0.952 . S
H327 C316 0.948 . S
O328 Zn313 2.034 . S
O328 C323 1.246 . S
O329 Zn321 2.024 . S
O329 C323 1.249 . S
H330 C312 0.948 . S
O331 Zn321 2.039 . S
O331 C335 1.251 . S
O332 Zn313 2.025 . S
O332 C335 1.254 . S
O333 C314 1.246 . S
O333 Zn321 2.034 . S
O334 Zn313 2.024 . S
O334 C314 1.249 . S
C335 O331 1.251 . S
C335 O332 1.254 . S
H336 C309 0.949 . S
H337 C311 0.950 . S
H338 C318 0.949 . S
H339 C320 0.950 . S
C340 O356 1.251 . S
C340 O358 1.254 . S
N341 C342 1.333 . S
N341 C346 1.307 . S
N341 Zn347 2.020 . S
C342 N341 1.333 . S
C342 C343 1.379 . S
C342 H360 0.952 . S
C343 C342 1.379 . S
C343 C344 1.390 . S
C343 H370 0.949 . S
C344 C343 1.390 . S
C344 C345 1.357 . S
C345 C344 1.357 . S
C345 C346 1.370 . S
C345 H371 0.950 . S
C346 N341 1.307 . S
C346 C345 1.370 . S
C346 H364 0.948 . S
Zn347 N341 2.020 . S
Zn347 O356 2.039 . S
Zn347 O362 2.034 . S
Zn347 O366 2.025 . S
Zn347 O368 2.024 . S
C348 O367 1.246 . S
C348 O368 1.249 . S
N349 C350 1.307 . S
N349 C351 1.333 . S
N349 Zn355 2.020 . S
C350 N349 1.307 . S
C350 C354 1.370 . S
C350 H361 0.948 . S
C351 N349 1.333 . S
C351 C352 1.379 . S
C351 H359 0.952 . S
C352 C351 1.379 . S
C352 C353 1.390 . S
C352 H372 0.949 . S
C353 C352 1.390 . S
C353 C354 1.357 . S
C354 C350 1.370 . S
C354 C353 1.357 . S
C354 H373 0.950 . S
Zn355 N349 2.020 . S
Zn355 O358 2.025 . S
Zn355 O363 2.024 . S
Zn355 O365 2.039 . S
Zn355 O367 2.034 . S
O356 C340 1.251 . S
O356 Zn347 2.039 . S
C357 O362 1.246 1_545 S
C357 O363 1.249 1_545 S
O358 C340 1.254 . S
O358 Zn355 2.025 . S
H359 C351 0.952 . S
H360 C342 0.952 . S
H361 C350 0.948 . S
O362 Zn347 2.034 . S
O362 C357 1.246 1_565 S
O363 Zn355 2.024 . S
O363 C357 1.249 1_565 S
H364 C346 0.948 . S
O365 Zn355 2.039 . S
O365 C369 1.251 . S
O366 Zn347 2.025 . S
O366 C369 1.254 . S
O367 C348 1.246 . S
O367 Zn355 2.034 . S
O368 Zn347 2.024 . S
O368 C348 1.249 . S
C369 O365 1.251 . S
C369 O366 1.254 . S
H370 C343 0.949 . S
H371 C345 0.950 . S
H372 C352 0.949 . S
H373 C354 0.950 . S
C374 O390 1.251 . S
C374 O392 1.254 . S
N375 C376 1.333 . S
N375 C380 1.307 . S
N375 Zn381 2.020 . S
C376 N375 1.333 . S
C376 C377 1.379 . S
C376 H394 0.952 . S
C377 C376 1.379 . S
C377 C378 1.390 . S
C377 H404 0.949 . S
C378 C377 1.390 . S
C378 C379 1.357 . S
C379 C378 1.357 . S
C379 C380 1.370 . S
C379 H405 0.950 . S
C380 N375 1.307 . S
C380 C379 1.370 . S
C380 H398 0.948 . S
Zn381 N375 2.020 . S
Zn381 O390 2.039 . S
Zn381 O396 2.034 . S
Zn381 O400 2.025 . S
Zn381 O402 2.024 . S
C382 O401 1.246 . S
C382 O402 1.249 . S
N383 C384 1.307 . S
N383 C385 1.333 . S
N383 Zn389 2.020 . S
C384 N383 1.307 . S
C384 C388 1.370 . S
C384 H395 0.948 . S
C385 N383 1.333 . S
C385 C386 1.379 . S
C385 H393 0.952 . S
C386 C385 1.379 . S
C386 C387 1.390 . S
C386 H406 0.949 . S
C387 C386 1.390 . S
C387 C388 1.357 . S
C388 C384 1.370 . S
C388 C387 1.357 . S
C388 H407 0.950 . S
Zn389 N383 2.020 . S
Zn389 O392 2.025 . S
Zn389 O397 2.024 . S
Zn389 O399 2.039 . S
Zn389 O401 2.034 . S
O390 C374 1.251 . S
O390 Zn381 2.039 . S
C391 O396 1.246 . S
C391 O397 1.249 . S
O392 C374 1.254 . S
O392 Zn389 2.025 . S
H393 C385 0.952 . S
H394 C376 0.952 . S
H395 C384 0.948 . S
O396 Zn381 2.034 . S
O396 C391 1.246 . S
O397 Zn389 2.024 . S
O397 C391 1.249 . S
H398 C380 0.948 . S
O399 Zn389 2.039 . S
O399 C403 1.251 . S
O400 Zn381 2.025 . S
O400 C403 1.254 . S
O401 C382 1.246 . S
O401 Zn389 2.034 . S
O402 Zn381 2.024 . S
O402 C382 1.249 . S
C403 O399 1.251 . S
C403 O400 1.254 . S
H404 C377 0.949 . S
H405 C379 0.950 . S
H406 C386 0.949 . S
H407 C388 0.950 . S
C408 O424 1.251 . S
C408 O426 1.254 . S
N409 C410 1.333 . S
N409 C414 1.307 . S
N409 Zn415 2.020 . S
C410 N409 1.333 . S
C410 C411 1.379 . S
C410 H428 0.952 . S
C411 C410 1.379 . S
C411 C412 1.390 . S
C411 H438 0.949 . S
C412 C411 1.390 . S
C412 C413 1.357 . S
C413 C412 1.357 . S
C413 C414 1.370 . S
C413 H439 0.950 . S
C414 N409 1.307 . S
C414 C413 1.370 . S
C414 H432 0.948 . S
Zn415 N409 2.020 . S
Zn415 O424 2.039 . S
Zn415 O430 2.034 . S
Zn415 O434 2.025 . S
Zn415 O436 2.024 . S
C416 O435 1.246 . S
C416 O436 1.249 . S
N417 C418 1.307 . S
N417 C419 1.333 . S
N417 Zn423 2.020 . S
C418 N417 1.307 . S
C418 C422 1.370 . S
C418 H429 0.948 . S
C419 N417 1.333 . S
C419 C420 1.379 . S
C419 H427 0.952 . S
C420 C419 1.379 . S
C420 C421 1.390 . S
C420 H440 0.949 . S
C421 C420 1.390 . S
C421 C422 1.357 . S
C422 C418 1.370 . S
C422 C421 1.357 . S
C422 H441 0.950 . S
Zn423 N417 2.020 . S
Zn423 O426 2.025 . S
Zn423 O431 2.024 . S
Zn423 O433 2.039 . S
Zn423 O435 2.034 . S
O424 C408 1.251 . S
O424 Zn415 2.039 . S
C425 O430 1.246 . S
C425 O431 1.249 . S
O426 C408 1.254 . S
O426 Zn423 2.025 . S
H427 C419 0.952 . S
H428 C410 0.952 . S
H429 C418 0.948 . S
O430 Zn415 2.034 . S
O430 C425 1.246 . S
O431 Zn423 2.024 . S
O431 C425 1.249 . S
H432 C414 0.948 . S
O433 Zn423 2.039 . S
O433 C437 1.251 . S
O434 Zn415 2.025 . S
O434 C437 1.254 . S
O435 C416 1.246 . S
O435 Zn423 2.034 . S
O436 Zn415 2.024 . S
O436 C416 1.249 . S
C437 O433 1.251 . S
C437 O434 1.254 . S
H438 C411 0.949 . S
H439 C413 0.950 . S
H440 C420 0.949 . S
H441 C422 0.950 . S
C442 O458 1.251 . S
C442 O460 1.254 . S
N443 C444 1.333 . S
N443 C448 1.307 . S
N443 Zn449 2.020 . S
C444 N443 1.333 . S
C444 C445 1.379 . S
C444 H462 0.952 . S
C445 C444 1.379 . S
C445 C446 1.390 . S
C445 H472 0.949 . S
C446 C445 1.390 . S
C446 C447 1.357 . S
C447 C446 1.357 . S
C447 C448 1.370 . S
C447 H473 0.950 . S
C448 N443 1.307 . S
C448 C447 1.370 . S
C448 H466 0.948 . S
Zn449 N443 2.020 . S
Zn449 O458 2.039 . S
Zn449 O464 2.034 . S
Zn449 O468 2.025 . S
Zn449 O470 2.024 . S
C450 O469 1.246 . S
C450 O470 1.249 . S
N451 C452 1.307 . S
N451 C453 1.333 . S
N451 Zn457 2.020 . S
C452 N451 1.307 . S
C452 C456 1.370 . S
C452 H463 0.948 . S
C453 N451 1.333 . S
C453 C454 1.379 . S
C453 H461 0.952 . S
C454 C453 1.379 . S
C454 C455 1.390 . S
C454 H474 0.949 . S
C455 C454 1.390 . S
C455 C456 1.357 . S
C456 C452 1.370 . S
C456 C455 1.357 . S
C456 H475 0.950 . S
Zn457 N451 2.020 . S
Zn457 O460 2.025 . S
Zn457 O465 2.024 . S
Zn457 O467 2.039 . S
Zn457 O469 2.034 . S
O458 C442 1.251 . S
O458 Zn449 2.039 . S
C459 O464 1.246 . S
C459 O465 1.249 . S
O460 C442 1.254 . S
O460 Zn457 2.025 . S
H461 C453 0.952 . S
H462 C444 0.952 . S
H463 C452 0.948 . S
O464 Zn449 2.034 . S
O464 C459 1.246 . S
O465 Zn457 2.024 . S
O465 C459 1.249 . S
H466 C448 0.948 . S
O467 Zn457 2.039 . S
O467 C471 1.251 . S
O468 Zn449 2.025 . S
O468 C471 1.254 . S
O469 C450 1.246 . S
O469 Zn457 2.034 . S
O470 Zn449 2.024 . S
O470 C450 1.249 . S
C471 O467 1.251 . S
C471 O468 1.254 . S
H472 C445 0.949 . S
H473 C447 0.950 . S
H474 C454 0.949 . S
H475 C456 0.950 . S
C476 O492 1.251 . S
C476 O494 1.254 . S
N477 C478 1.333 . S
N477 C482 1.307 . S
N477 Zn483 2.020 . S
C478 N477 1.333 . S
C478 C479 1.379 . S
C478 H496 0.952 . S
C479 C478 1.379 . S
C479 C480 1.390 . S
C479 H506 0.949 . S
C480 C479 1.390 . S
C480 C481 1.357 . S
C481 C480 1.357 . S
C481 C482 1.370 . S
C481 H507 0.950 . S
C482 N477 1.307 . S
C482 C481 1.370 . S
C482 H500 0.948 . S
Zn483 N477 2.020 . S
Zn483 O492 2.039 . S
Zn483 O498 2.034 . S
Zn483 O502 2.025 . S
Zn483 O504 2.024 . S
C484 O503 1.246 . S
C484 O504 1.249 . S
N485 C486 1.307 . S
N485 C487 1.333 . S
N485 Zn491 2.020 . S
C486 N485 1.307 . S
C486 C490 1.370 . S
C486 H497 0.948 . S
C487 N485 1.333 . S
C487 C488 1.379 . S
C487 H495 0.952 . S
C488 C487 1.379 . S
C488 C489 1.390 . S
C488 H508 0.949 . S
C489 C488 1.390 . S
C489 C490 1.357 . S
C490 C486 1.370 . S
C490 C489 1.357 . S
C490 H509 0.950 . S
Zn491 N485 2.020 . S
Zn491 O494 2.025 . S
Zn491 O499 2.024 . S
Zn491 O501 2.039 . S
Zn491 O503 2.034 . S
O492 C476 1.251 . S
O492 Zn483 2.039 . S
C493 O498 1.246 1_455 S
C493 O499 1.249 1_455 S
O494 C476 1.254 . S
O494 Zn491 2.025 . S
H495 C487 0.952 . S
H496 C478 0.952 . S
H497 C486 0.948 . S
O498 Zn483 2.034 . S
O498 C493 1.246 1_655 S
O499 Zn491 2.024 . S
O499 C493 1.249 1_655 S
H500 C482 0.948 . S
O501 Zn491 2.039 . S
O501 C505 1.251 . S
O502 Zn483 2.025 . S
O502 C505 1.254 . S
O503 C484 1.246 . S
O503 Zn491 2.034 . S
O504 Zn483 2.024 . S
O504 C484 1.249 . S
C505 O501 1.251 . S
C505 O502 1.254 . S
H506 C479 0.949 . S
H507 C481 0.950 . S
H508 C488 0.949 . S
H509 C490 0.950 . S
C510 O526 1.251 . S
C510 O528 1.254 . S
N511 C512 1.333 . S
N511 C516 1.307 . S
N511 Zn517 2.020 . S
C512 N511 1.333 . S
C512 C513 1.379 . S
C512 H530 0.952 . S
C513 C512 1.379 . S
C513 C514 1.390 . S
C513 H540 0.949 . S
C514 C513 1.390 . S
C514 C515 1.357 . S
C515 C514 1.357 . S
C515 C516 1.370 . S
C515 H541 0.950 . S
C516 N511 1.307 . S
C516 C515 1.370 . S
C516 H534 0.948 . S
Zn517 N511 2.020 . S
Zn517 O526 2.039 . S
Zn517 O532 2.034 . S
Zn517 O536 2.025 . S
Zn517 O538 2.024 . S
C518 O537 1.246 . S
C518 O538 1.249 . S
N519 C520 1.307 . S
N519 C521 1.333 . S
N519 Zn525 2.020 . S
C520 N519 1.307 . S
C520 C524 1.370 . S
C520 H531 0.948 . S
C521 N519 1.333 . S
C521 C522 1.379 . S
C521 H529 0.952 . S
C522 C521 1.379 . S
C522 C523 1.390 . S
C522 H542 0.949 . S
C523 C522 1.390 . S
C523 C524 1.357 . S
C524 C520 1.370 . S
C524 C523 1.357 . S
C524 H543 0.950 . S
Zn525 N519 2.020 . S
Zn525 O528 2.025 . S
Zn525 O533 2.024 . S
Zn525 O535 2.039 . S
Zn525 O537 2.034 . S
O526 C510 1.251 . S
O526 Zn517 2.039 . S
C527 O532 1.246 . S
C527 O533 1.249 . S
O528 C510 1.254 . S
O528 Zn525 2.025 . S
H529 C521 0.952 . S
H530 C512 0.952 . S
H531 C520 0.948 . S
O532 Zn517 2.034 . S
O532 C527 1.246 . S
O533 Zn525 2.024 . S
O533 C527 1.249 . S
H534 C516 0.948 . S
O535 Zn525 2.039 . S
O535 C539 1.251 . S
O536 Zn517 2.025 . S
O536 C539 1.254 . S
O537 C518 1.246 . S
O537 Zn525 2.034 . S
O538 Zn517 2.024 . S
O538 C518 1.249 . S
C539 O535 1.251 . S
C539 O536 1.254 . S
H540 C513 0.949 . S
H541 C515 0.950 . S
H542 C522 0.949 . S
H543 C524 0.950 . S
C544 O560 1.251 . S
C544 O562 1.254 . S
N545 C546 1.333 . S
N545 C550 1.307 . S
N545 Zn551 2.020 . S
C546 N545 1.333 . S
C546 C547 1.379 . S
C546 H564 0.952 1_655 S
C547 C546 1.379 . S
C547 C548 1.390 . S
C547 H574 0.949 1_655 S
C548 C547 1.390 . S
C548 C549 1.357 . S
C549 C548 1.357 . S
C549 C550 1.370 . S
C549 H575 0.950 . S
C550 N545 1.307 . S
C550 C549 1.370 . S
C550 H568 0.948 . S
Zn551 N545 2.020 . S
Zn551 O560 2.039 1_655 S
Zn551 O566 2.034 . S
Zn551 O570 2.025 . S
Zn551 O572 2.024 . S
C552 O571 1.246 . S
C552 O572 1.249 . S
N553 C554 1.307 . S
N553 C555 1.333 . S
N553 Zn559 2.020 . S
C554 N553 1.307 . S
C554 C558 1.370 . S
C554 H565 0.948 . S
C555 N553 1.333 . S
C555 C556 1.379 . S
C555 H563 0.952 . S
C556 C555 1.379 . S
C556 C557 1.390 . S
C556 H576 0.949 . S
C557 C556 1.390 . S
C557 C558 1.357 . S
C558 C554 1.370 . S
C558 C557 1.357 . S
C558 H577 0.950 . S
Zn559 N553 2.020 . S
Zn559 O562 2.025 1_655 S
Zn559 O567 2.024 . S
Zn559 O569 2.039 . S
Zn559 O571 2.034 . S
O560 C544 1.251 . S
O560 Zn551 2.039 1_455 S
C561 O566 1.246 . S
C561 O567 1.249 . S
O562 C544 1.254 . S
O562 Zn559 2.025 1_455 S
H563 C555 0.952 . S
H564 C546 0.952 1_455 S
H565 C554 0.948 . S
O566 Zn551 2.034 . S
O566 C561 1.246 . S
O567 Zn559 2.024 . S
O567 C561 1.249 . S
H568 C550 0.948 . S
O569 Zn559 2.039 . S
O569 C573 1.251 . S
O570 Zn551 2.025 . S
O570 C573 1.254 . S
O571 C552 1.246 . S
O571 Zn559 2.034 . S
O572 Zn551 2.024 . S
O572 C552 1.249 . S
C573 O569 1.251 . S
C573 O570 1.254 . S
H574 C547 0.949 1_455 S
H575 C549 0.950 . S
H576 C556 0.949 . S
H577 C558 0.950 . S
C578 O594 1.251 . S
C578 O596 1.254 . S
N579 C580 1.333 . S
N579 C584 1.307 . S
N579 Zn585 2.020 . S
C580 N579 1.333 . S
C580 C581 1.379 . S
C580 H598 0.952 . S
C581 C580 1.379 . S
C581 C582 1.390 . S
C581 H608 0.949 . S
C582 C581 1.390 . S
C582 C583 1.357 . S
C583 C582 1.357 . S
C583 C584 1.370 . S
C583 H609 0.950 . S
C584 N579 1.307 . S
C584 C583 1.370 . S
C584 H602 0.948 . S
Zn585 N579 2.020 . S
Zn585 O594 2.039 . S
Zn585 O600 2.034 . S
Zn585 O604 2.025 . S
Zn585 O606 2.024 . S
C586 O605 1.246 . S
C586 O606 1.249 . S
N587 C588 1.307 . S
N587 C589 1.333 . S
N587 Zn593 2.020 . S
C588 N587 1.307 . S
C588 C592 1.370 . S
C588 H599 0.948 . S
C589 N587 1.333 . S
C589 C590 1.379 . S
C589 H597 0.952 . S
C590 C589 1.379 . S
C590 C591 1.390 . S
C590 H610 0.949 . S
C591 C590 1.390 . S
C591 C592 1.357 . S
C592 C588 1.370 . S
C592 C591 1.357 . S
C592 H611 0.950 . S
Zn593 N587 2.020 . S
Zn593 O596 2.025 . S
Zn593 O601 2.024 . S
Zn593 O603 2.039 . S
Zn593 O605 2.034 . S
O594 C578 1.251 . S
O594 Zn585 2.039 . S
C595 O600 1.246 . S
C595 O601 1.249 . S
O596 C578 1.254 . S
O596 Zn593 2.025 . S
H597 C589 0.952 . S
H598 C580 0.952 . S
H599 C588 0.948 . S
O600 Zn585 2.034 . S
O600 C595 1.246 . S
O601 Zn593 2.024 . S
O601 C595 1.249 . S
H602 C584 0.948 . S
O603 Zn593 2.039 . S
O603 C607 1.251 . S
O604 Zn585 2.025 . S
O604 C607 1.254 . S
O605 C586 1.246 . S
O605 Zn593 2.034 . S
O606 Zn585 2.024 . S
O606 C586 1.249 . S
C607 O603 1.251 . S
C607 O604 1.254 . S
H608 C581 0.949 . S
H609 C583 0.950 . S
H610 C590 0.949 . S
H611 C592 0.950 . S
H612 C618 0.930 . S
H613 C621 0.930 . S
H614 C622 0.930 . S
H615 C623 0.930 . S
H616 C626 0.930 . S
H617 C627 0.930 . S
C618 H612 0.930 . S
C618 C619 1.355 . S
C618 C620 1.415 . S
C619 C618 1.355 . S
C619 C621 1.419 . S
C620 C618 1.415 . S
C620 C625 1.425 . S
C620 C627 1.409 . S
C621 H613 0.930 . S
C621 C619 1.419 . S
C621 C622 1.362 . S
C622 H614 0.930 . S
C622 C621 1.362 . S
C622 C625 1.409 . S
C623 H615 0.930 . S
C623 C624 1.355 . S
C623 C625 1.415 . S
C624 C623 1.355 . S
C624 C626 1.419 . S
C625 C620 1.425 . S
C625 C622 1.409 . S
C625 C623 1.415 . S
C626 H616 0.930 . S
C626 C624 1.419 . S
C626 C627 1.362 . S
C627 H617 0.930 . S
C627 C620 1.409 . S
C627 C626 1.362 . S
H628 C634 0.930 . S
H629 C637 0.930 . S
H630 C638 0.930 . S
H631 C639 0.930 . S
H632 C642 0.930 . S
H633 C643 0.930 . S
C634 H628 0.930 . S
C634 C635 1.355 . S
C634 C636 1.415 . S
C635 C634 1.355 . S
C635 C637 1.419 . S
C636 C634 1.415 . S
C636 C641 1.425 . S
C636 C643 1.409 . S
C637 H629 0.930 . S
C637 C635 1.419 . S
C637 C638 1.362 . S
C638 H630 0.930 . S
C638 C637 1.362 . S
C638 C641 1.409 . S
C639 H631 0.930 . S
C639 C640 1.355 . S
C639 C641 1.415 . S
C640 C639 1.355 . S
C640 C642 1.419 . S
C641 C636 1.425 . S
C641 C638 1.409 . S
C641 C639 1.415 . S
C642 H632 0.930 . S
C642 C640 1.419 . S
C642 C643 1.362 . S
C643 H633 0.930 . S
C643 C636 1.409 . S
C643 C642 1.362 . S
H644 C650 0.930 . S
H645 C653 0.930 . S
H646 C654 0.930 . S
H647 C655 0.930 . S
H648 C658 0.930 . S
H649 C659 0.930 . S
C650 H644 0.930 . S
C650 C651 1.355 . S
C650 C652 1.415 . S
C651 C650 1.355 . S
C651 C653 1.419 . S
C652 C650 1.415 . S
C652 C657 1.425 . S
C652 C659 1.409 . S
C653 H645 0.930 . S
C653 C651 1.419 . S
C653 C654 1.362 . S
C654 H646 0.930 . S
C654 C653 1.362 . S
C654 C657 1.409 . S
C655 H647 0.930 . S
C655 C656 1.355 . S
C655 C657 1.415 . S
C656 C655 1.355 . S
C656 C658 1.419 . S
C657 C652 1.425 . S
C657 C654 1.409 . S
C657 C655 1.415 . S
C658 H648 0.930 . S
C658 C656 1.419 . S
C658 C659 1.362 . S
C659 H649 0.930 . S
C659 C652 1.409 . S
C659 C658 1.362 . S
H660 C666 0.930 . S
H661 C669 0.930 . S
H662 C670 0.930 . S
H663 C671 0.930 . S
H664 C674 0.930 . S
H665 C675 0.930 . S
C666 H660 0.930 . S
C666 C667 1.355 . S
C666 C668 1.415 . S
C667 C666 1.355 . S
C667 C669 1.419 . S
C668 C666 1.415 . S
C668 C673 1.425 . S
C668 C675 1.409 . S
C669 H661 0.930 . S
C669 C667 1.419 . S
C669 C670 1.362 . S
C670 H662 0.930 . S
C670 C669 1.362 . S
C670 C673 1.409 . S
C671 H663 0.930 . S
C671 C672 1.355 . S
C671 C673 1.415 . S
C672 C671 1.355 . S
C672 C674 1.419 . S
C673 C668 1.425 . S
C673 C670 1.409 . S
C673 C671 1.415 . S
C674 H664 0.930 . S
C674 C672 1.419 . S
C674 C675 1.362 . S
C675 H665 0.930 . S
C675 C668 1.409 . S
C675 C674 1.362 . S
H676 C682 0.930 . S
H677 C685 0.930 . S
H678 C686 0.930 . S
H679 C687 0.930 . S
H680 C690 0.930 . S
H681 C691 0.930 . S
C682 H676 0.930 . S
C682 C683 1.355 . S
C682 C684 1.415 . S
C683 C682 1.355 . S
C683 C685 1.419 . S
C684 C682 1.415 . S
C684 C689 1.425 . S
C684 C691 1.409 . S
C685 H677 0.930 . S
C685 C683 1.419 . S
C685 C686 1.362 . S
C686 H678 0.930 . S
C686 C685 1.362 . S
C686 C689 1.409 . S
C687 H679 0.930 . S
C687 C688 1.355 . S
C687 C689 1.415 . S
C688 C687 1.355 . S
C688 C690 1.419 . S
C689 C684 1.425 . S
C689 C686 1.409 . S
C689 C687 1.415 . S
C690 H680 0.930 . S
C690 C688 1.419 . S
C690 C691 1.362 . S
C691 H681 0.930 . S
C691 C684 1.409 . S
C691 C690 1.362 . S
H692 C698 0.930 . S
H693 C701 0.930 . S
H694 C702 0.930 . S
H695 C703 0.930 . S
H696 C706 0.930 . S
H697 C707 0.930 . S
C698 H692 0.930 . S
C698 C699 1.355 . S
C698 C700 1.415 . S
C699 C698 1.355 . S
C699 C701 1.419 . S
C700 C698 1.415 . S
C700 C705 1.425 . S
C700 C707 1.409 . S
C701 H693 0.930 . S
C701 C699 1.419 . S
C701 C702 1.362 . S
C702 H694 0.930 . S
C702 C701 1.362 . S
C702 C705 1.409 . S
C703 H695 0.930 . S
C703 C704 1.355 . S
C703 C705 1.415 . S
C704 C703 1.355 . S
C704 C706 1.419 . S
C705 C700 1.425 . S
C705 C702 1.409 . S
C705 C703 1.415 . S
C706 H696 0.930 . S
C706 C704 1.419 . S
C706 C707 1.362 . S
C707 H697 0.930 . S
C707 C700 1.409 . S
C707 C706 1.362 . S
H708 C714 0.930 . S
H709 C717 0.930 . S
H710 C718 0.930 . S
H711 C719 0.930 . S
H712 C722 0.930 . S
H713 C723 0.930 . S
C714 H708 0.930 . S
C714 C715 1.355 . S
C714 C716 1.415 . S
C715 C714 1.355 . S
C715 C717 1.419 . S
C716 C714 1.415 . S
C716 C721 1.425 . S
C716 C723 1.409 . S
C717 H709 0.930 . S
C717 C715 1.419 . S
C717 C718 1.362 . S
C718 H710 0.930 . S
C718 C717 1.362 . S
C718 C721 1.409 . S
C719 H711 0.930 . S
C719 C720 1.355 . S
C719 C721 1.415 . S
C720 C719 1.355 . S
C720 C722 1.419 . S
C721 C716 1.425 . S
C721 C718 1.409 . S
C721 C719 1.415 . S
C722 H712 0.930 . S
C722 C720 1.419 . S
C722 C723 1.362 . S
C723 H713 0.930 . S
C723 C716 1.409 . S
C723 C722 1.362 . S
H724 C730 0.930 . S
H725 C733 0.930 . S
H726 C734 0.930 . S
H727 C735 0.930 . S
H728 C738 0.930 1_565 S
H729 C739 0.930 1_455 S
C730 H724 0.930 . S
C730 C731 1.355 . S
C730 C732 1.415 1_455 S
C731 C730 1.355 . S
C731 C733 1.419 1_455 S
C732 C730 1.415 1_655 S
C732 C737 1.425 . S
C732 C739 1.409 . S
C733 H725 0.930 . S
C733 C731 1.419 1_655 S
C733 C734 1.362 . S
C734 H726 0.930 . S
C734 C733 1.362 . S
C734 C737 1.409 . S
C735 H727 0.930 . S
C735 C736 1.355 . S
C735 C737 1.415 . S
C736 C735 1.355 . S
C736 C738 1.419 . S
C737 C732 1.425 . S
C737 C734 1.409 . S
C737 C735 1.415 . S
C738 H728 0.930 1_545 S
C738 C736 1.419 . S
C738 C739 1.362 . S
C739 H729 0.930 1_655 S
C739 C732 1.409 . S
C739 C738 1.362 . S
H740 C746 0.930 . S
H741 C749 0.930 . S
H742 C750 0.930 . S
H743 C751 0.930 . S
H744 C754 0.930 . S
H745 C755 0.930 . S
C746 H740 0.930 . S
C746 C747 1.355 . S
C746 C748 1.415 1_455 S
C747 C746 1.355 . S
C747 C749 1.419 . S
C748 C746 1.415 1_655 S
C748 C753 1.425 . S
C748 C755 1.409 . S
C749 H741 0.930 . S
C749 C747 1.419 . S
C749 C750 1.362 1_455 S
C750 H742 0.930 . S
C750 C749 1.362 1_655 S
C750 C753 1.409 . S
C751 H743 0.930 . S
C751 C752 1.355 . S
C751 C753 1.415 . S
C752 C751 1.355 . S
C752 C754 1.419 . S
C753 C748 1.425 . S
C753 C750 1.409 . S
C753 C751 1.415 . S
C754 H744 0.930 . S
C754 C752 1.419 . S
C754 C755 1.362 . S
C755 H745 0.930 . S
C755 C748 1.409 . S
C755 C754 1.362 . S
H756 C762 0.930 . S
H757 C765 0.930 1_545 S
H758 C766 0.930 1_545 S
H759 C767 0.930 . S
H760 C770 0.930 . S
H761 C771 0.930 . S
C762 H756 0.930 . S
C762 C763 1.355 . S
C762 C764 1.415 . S
C763 C762 1.355 . S
C763 C765 1.419 . S
C764 C762 1.415 . S
C764 C769 1.425 . S
C764 C771 1.409 . S
C765 H757 0.930 1_565 S
C765 C763 1.419 . S
C765 C766 1.362 . S
C766 H758 0.930 1_565 S
C766 C765 1.362 . S
C766 C769 1.409 . S
C767 H759 0.930 . S
C767 C768 1.355 . S
C767 C769 1.415 . S
C768 C767 1.355 . S
C768 C770 1.419 . S
C769 C764 1.425 . S
C769 C766 1.409 . S
C769 C767 1.415 . S
C770 H760 0.930 . S
C770 C768 1.419 . S
C770 C771 1.362 . S
C771 H761 0.930 . S
C771 C764 1.409 . S
C771 C770 1.362 . S
H772 C778 0.930 . S
H773 C781 0.930 . S
H774 C782 0.930 . S
H775 C783 0.930 . S
H776 C786 0.930 . S
H777 C787 0.930 . S
C778 H772 0.930 . S
C778 C779 1.355 . S
C778 C780 1.415 . S
C779 C778 1.355 . S
C779 C781 1.419 . S
C780 C778 1.415 . S
C780 C785 1.425 . S
C780 C787 1.409 . S
C781 H773 0.930 . S
C781 C779 1.419 . S
C781 C782 1.362 . S
C782 H774 0.930 . S
C782 C781 1.362 . S
C782 C785 1.409 . S
C783 H775 0.930 . S
C783 C784 1.355 . S
C783 C785 1.415 . S
C784 C783 1.355 . S
C784 C786 1.419 . S
C785 C780 1.425 . S
C785 C782 1.409 . S
C785 C783 1.415 . S
C786 H776 0.930 . S
C786 C784 1.419 . S
C786 C787 1.362 . S
C787 H777 0.930 . S
C787 C780 1.409 . S
C787 C786 1.362 . S
H788 C794 0.930 . S
H789 C797 0.930 . S
H790 C798 0.930 . S
H791 C799 0.930 . S
H792 C802 0.930 . S
H793 C803 0.930 . S
C794 H788 0.930 . S
C794 C795 1.355 . S
C794 C796 1.415 . S
C795 C794 1.355 . S
C795 C797 1.419 . S
C796 C794 1.415 . S
C796 C801 1.425 . S
C796 C803 1.409 . S
C797 H789 0.930 . S
C797 C795 1.419 . S
C797 C798 1.362 . S
C798 H790 0.930 . S
C798 C797 1.362 . S
C798 C801 1.409 . S
C799 H791 0.930 . S
C799 C800 1.355 . S
C799 C801 1.415 . S
C800 C799 1.355 . S
C800 C802 1.419 . S
C801 C796 1.425 . S
C801 C798 1.409 . S
C801 C799 1.415 . S
C802 H792 0.930 . S
C802 C800 1.419 . S
C802 C803 1.362 . S
C803 H793 0.930 . S
C803 C796 1.409 . S
C803 C802 1.362 . S
H804 C810 0.930 . S
H805 C813 0.930 . S
H806 C814 0.930 . S
H807 C815 0.930 . S
H808 C818 0.930 . S
H809 C819 0.930 . S
C810 H804 0.930 . S
C810 C811 1.355 . S
C810 C812 1.415 . S
C811 C810 1.355 . S
C811 C813 1.419 . S
C812 C810 1.415 . S
C812 C817 1.425 . S
C812 C819 1.409 . S
C813 H805 0.930 . S
C813 C811 1.419 . S
C813 C814 1.362 . S
C814 H806 0.930 . S
C814 C813 1.362 . S
C814 C817 1.409 . S
C815 H807 0.930 . S
C815 C816 1.355 . S
C815 C817 1.415 . S
C816 C815 1.355 . S
C816 C818 1.419 . S
C817 C812 1.425 . S
C817 C814 1.409 . S
C817 C815 1.415 . S
C818 H808 0.930 . S
C818 C816 1.419 . S
C818 C819 1.362 . S
C819 H809 0.930 . S
C819 C812 1.409 . S
C819 C818 1.362 . S
H820 C826 0.930 . S
H821 C829 0.930 . S
H822 C830 0.930 . S
H823 C831 0.930 . S
H824 C834 0.930 . S
H825 C835 0.930 . S
C826 H820 0.930 . S
C826 C827 1.355 . S
C826 C828 1.415 . S
C827 C826 1.355 . S
C827 C829 1.419 . S
C828 C826 1.415 . S
C828 C833 1.425 . S
C828 C835 1.409 . S
C829 H821 0.930 . S
C829 C827 1.419 . S
C829 C830 1.362 . S
C830 H822 0.930 . S
C830 C829 1.362 . S
C830 C833 1.409 . S
C831 H823 0.930 . S
C831 C832 1.355 . S
C831 C833 1.415 . S
C832 C831 1.355 . S
C832 C834 1.419 . S
C833 C828 1.425 . S
C833 C830 1.409 . S
C833 C831 1.415 . S
C834 H824 0.930 . S
C834 C832 1.419 . S
C834 C835 1.362 . S
C835 H825 0.930 . S
C835 C828 1.409 . S
C835 C834 1.362 . S
H836 C842 0.930 . S
H837 C845 0.930 . S
H838 C846 0.930 . S
H839 C847 0.930 . S
H840 C850 0.930 . S
H841 C851 0.930 . S
C842 H836 0.930 . S
C842 C843 1.355 . S
C842 C844 1.415 . S
C843 C842 1.355 . S
C843 C845 1.419 . S
C844 C842 1.415 . S
C844 C849 1.425 . S
C844 C851 1.409 . S
C845 H837 0.930 . S
C845 C843 1.419 . S
C845 C846 1.362 . S
C846 H838 0.930 . S
C846 C845 1.362 . S
C846 C849 1.409 . S
C847 H839 0.930 . S
C847 C848 1.355 . S
C847 C849 1.415 . S
C848 C847 1.355 . S
C848 C850 1.419 . S
C849 C844 1.425 . S
C849 C846 1.409 . S
C849 C847 1.415 . S
C850 H840 0.930 . S
C850 C848 1.419 . S
C850 C851 1.362 . S
C851 H841 0.930 . S
C851 C844 1.409 . S
C851 C850 1.362 . S
H852 C858 0.930 . S
H853 C861 0.930 1_655 S
H854 C862 0.930 . S
H855 C863 0.930 . S
H856 C866 0.930 . S
H857 C867 0.930 . S
C858 H852 0.930 . S
C858 C859 1.355 . S
C858 C860 1.415 . S
C859 C858 1.355 . S
C859 C861 1.419 . S
C860 C858 1.415 . S
C860 C865 1.425 . S
C860 C867 1.409 . S
C861 H853 0.930 1_455 S
C861 C859 1.419 . S
C861 C862 1.362 . S
C862 H854 0.930 . S
C862 C861 1.362 . S
C862 C865 1.409 . S
C863 H855 0.930 . S
C863 C864 1.355 . S
C863 C865 1.415 . S
C864 C863 1.355 . S
C864 C866 1.419 . S
C865 C860 1.425 . S
C865 C862 1.409 . S
C865 C863 1.415 . S
C866 H856 0.930 . S
C866 C864 1.419 . S
C866 C867 1.362 . S
C867 H857 0.930 . S
C867 C860 1.409 . S
C867 C866 1.362 . S
H868 C874 0.930 . S
H869 C877 0.930 . S
H870 C878 0.930 . S
H871 C879 0.930 . S
H872 C882 0.930 . S
H873 C883 0.930 . S
C874 H868 0.930 . S
C874 C875 1.355 . S
C874 C876 1.415 . S
C875 C874 1.355 . S
C875 C877 1.419 . S
C876 C874 1.415 . S
C876 C881 1.425 . S
C876 C883 1.409 1_565 S
C877 H869 0.930 . S
C877 C875 1.419 . S
C877 C878 1.362 . S
C878 H870 0.930 . S
C878 C877 1.362 . S
C878 C881 1.409 . S
C879 H871 0.930 . S
C879 C880 1.355 . S
C879 C881 1.415 1_545 S
C880 C879 1.355 . S
C880 C882 1.419 . S
C881 C876 1.425 . S
C881 C878 1.409 . S
C881 C879 1.415 1_565 S
C882 H872 0.930 . S
C882 C880 1.419 . S
C882 C883 1.362 . S
C883 H873 0.930 . S
C883 C876 1.409 1_545 S
C883 C882 1.362 . S
H884 C890 0.930 . S
H885 C893 0.930 . S
H886 C894 0.930 . S
H887 C895 0.930 . S
H888 C898 0.930 1_655 S
H889 C899 0.915 1_545 S
C890 H884 0.930 . S
C890 C891 1.355 . S
C890 C892 1.415 1_545 S
C891 C890 1.355 . S
C891 C893 1.419 1_545 S
C892 C890 1.415 1_565 S
C892 C897 1.425 . S
C892 C899 1.409 . S
C893 H885 0.930 . S
C893 C891 1.419 1_565 S
C893 C894 1.362 . S
C894 H886 0.930 . S
C894 C893 1.362 . S
C894 C897 1.409 . S
C895 H887 0.930 . S
C895 C896 1.355 . S
C895 C897 1.415 . S
C896 C895 1.355 . S
C896 C898 1.419 . S
C897 C892 1.425 . S
C897 C894 1.409 . S
C897 C895 1.415 . S
C898 H888 0.930 1_455 S
C898 C896 1.419 . S
C898 C899 1.362 . S
C899 H889 0.915 1_565 S
C899 C892 1.409 . S
C899 C898 1.362 . S
H900 C906 0.930 . S
H901 C909 0.930 . S
H902 C910 0.936 . S
H903 C911 0.930 . S
H904 C914 0.930 . S
H905 C915 0.930 . S
C906 H900 0.930 . S
C906 C907 1.355 . S
C906 C908 1.415 . S
C907 C906 1.355 . S
C907 C909 1.419 . S
C908 C906 1.415 . S
C908 C913 1.425 1_554 S
C908 C915 1.409 1_554 S
C909 H901 0.930 . S
C909 C907 1.419 . S
C909 C910 1.362 . S
C910 H902 0.936 . S
C910 C909 1.362 . S
C910 C913 1.409 1_554 S
C911 H903 0.930 . S
C911 C912 1.355 . S
C911 C913 1.415 . S
C912 C911 1.355 . S
C912 C914 1.419 . S
C913 C908 1.425 1_556 S
C913 C910 1.409 1_556 S
C913 C911 1.415 . S
C914 H904 0.930 . S
C914 C912 1.419 . S
C914 C915 1.362 . S
C915 H905 0.930 . S
C915 C908 1.409 1_556 S
C915 C914 1.362 . S
H916 C922 0.930 . S
H917 C925 0.930 . S
H918 C926 0.930 . S
H919 C927 0.930 . S
H920 C930 0.930 1_655 S
H921 C931 0.930 1_655 S
C922 H916 0.930 . S
C922 C923 1.355 . S
C922 C924 1.415 . S
C923 C922 1.355 . S
C923 C925 1.419 . S
C924 C922 1.415 . S
C924 C929 1.425 1_556 S
C924 C931 1.409 1_556 S
C925 H917 0.930 . S
C925 C923 1.419 . S
C925 C926 1.362 . S
C926 H918 0.930 . S
C926 C925 1.362 . S
C926 C929 1.409 1_556 S
C927 H919 0.930 . S
C927 C928 1.355 . S
C927 C929 1.415 . S
C928 C927 1.355 . S
C928 C930 1.419 . S
C929 C924 1.425 1_554 S
C929 C926 1.409 1_554 S
C929 C927 1.415 . S
C930 H920 0.930 1_455 S
C930 C928 1.419 . S
C930 C931 1.362 . S
C931 H921 0.930 1_455 S
C931 C924 1.409 1_554 S
C931 C930 1.362 . S
H932 C938 0.930 . S
H933 C941 0.930 . S
H934 C942 0.930 . S
H935 C943 0.930 . S
H936 C946 0.930 . S
H937 C947 0.930 . S
C938 H932 0.930 . S
C938 C939 1.355 . S
C938 C940 1.415 . S
C939 C938 1.355 . S
C939 C941 1.419 . S
C940 C938 1.415 . S
C940 C945 1.425 1_556 S
C940 C947 1.409 1_556 S
C941 H933 0.930 . S
C941 C939 1.419 . S
C941 C942 1.362 . S
C942 H934 0.930 . S
C942 C941 1.362 . S
C942 C945 1.409 1_556 S
C943 H935 0.930 . S
C943 C944 1.355 . S
C943 C945 1.415 . S
C944 C943 1.355 . S
C944 C946 1.419 . S
C945 C940 1.425 1_554 S
C945 C942 1.409 1_554 S
C945 C943 1.415 . S
C946 H936 0.930 . S
C946 C944 1.419 . S
C946 C947 1.362 . S
C947 H937 0.930 . S
C947 C940 1.409 1_554 S
C947 C946 1.362 . S
H948 C954 0.930 . S
H949 C957 0.930 . S
H950 C958 0.930 . S
H951 C959 0.930 . S
H952 C962 0.930 . S
H953 C963 0.930 . S
C954 H948 0.930 . S
C954 C955 1.355 . S
C954 C956 1.415 . S
C955 C954 1.355 . S
C955 C957 1.419 . S
C956 C954 1.415 . S
C956 C961 1.425 . S
C956 C963 1.409 . S
C957 H949 0.930 . S
C957 C955 1.419 . S
C957 C958 1.362 . S
C958 H950 0.930 . S
C958 C957 1.362 . S
C958 C961 1.409 . S
C959 H951 0.930 . S
C959 C960 1.355 . S
C959 C961 1.415 . S
C960 C959 1.355 . S
C960 C962 1.419 . S
C961 C956 1.425 . S
C961 C958 1.409 . S
C961 C959 1.415 . S
C962 H952 0.930 . S
C962 C960 1.419 . S
C962 C963 1.362 . S
C963 H953 0.930 . S
C963 C956 1.409 . S
C963 C962 1.362 . S
H964 C970 0.930 . S
H965 C973 0.930 . S
H966 C974 0.930 . S
H967 C975 0.930 . S
H968 C978 0.930 . S
H969 C979 0.930 . S
C970 H964 0.930 . S
C970 C971 1.355 . S
C970 C972 1.415 . S
C971 C970 1.355 . S
C971 C973 1.419 . S
C972 C970 1.415 . S
C972 C977 1.425 . S
C972 C979 1.409 . S
C973 H965 0.930 . S
C973 C971 1.419 . S
C973 C974 1.362 . S
C974 H966 0.930 . S
C974 C973 1.362 . S
C974 C977 1.409 . S
C975 H967 0.930 . S
C975 C976 1.355 . S
C975 C977 1.415 . S
C976 C975 1.355 . S
C976 C978 1.419 . S
C977 C972 1.425 . S
C977 C974 1.409 . S
C977 C975 1.415 . S
C978 H968 0.930 . S
C978 C976 1.419 . S
C978 C979 1.362 . S
C979 H969 0.930 . S
C979 C972 1.409 . S
C979 C978 1.362 . S
H980 C986 0.930 . S
H981 C989 0.930 . S
H982 C990 0.930 . S
H983 C991 0.930 . S
H984 C994 0.930 . S
H985 C995 0.930 . S
C986 H980 0.930 . S
C986 C987 1.355 . S
C986 C988 1.415 . S
C987 C986 1.355 . S
C987 C989 1.419 . S
C988 C986 1.415 . S
C988 C993 1.425 . S
C988 C995 1.409 . S
C989 H981 0.930 . S
C989 C987 1.419 . S
C989 C990 1.362 . S
C990 H982 0.930 . S
C990 C989 1.362 . S
C990 C993 1.409 . S
C991 H983 0.930 . S
C991 C992 1.355 . S
C991 C993 1.415 . S
C992 C991 1.355 . S
C992 C994 1.419 . S
C993 C988 1.425 . S
C993 C990 1.409 . S
C993 C991 1.415 . S
C994 H984 0.930 . S
C994 C992 1.419 . S
C994 C995 1.362 . S
C995 H985 0.930 . S
C995 C988 1.409 . S
C995 C994 1.362 . S
H996 C1002 0.930 . S
H997 C1005 0.930 . S
H998 C1006 0.930 . S
H999 C1007 0.930 . S
H1000 C1010 0.930 . S
H1001 C1011 0.930 . S
C1002 H996 0.930 . S
C1002 C1003 1.355 . S
C1002 C1004 1.415 . S
C1003 C1002 1.355 . S
C1003 C1005 1.419 . S
C1004 C1002 1.415 . S
C1004 C1009 1.425 . S
C1004 C1011 1.409 . S
C1005 H997 0.930 . S
C1005 C1003 1.419 . S
C1005 C1006 1.362 . S
C1006 H998 0.930 . S
C1006 C1005 1.362 . S
C1006 C1009 1.409 . S
C1007 H999 0.930 . S
C1007 C1008 1.355 . S
C1007 C1009 1.415 . S
C1008 C1007 1.355 . S
C1008 C1010 1.419 . S
C1009 C1004 1.425 . S
C1009 C1006 1.409 . S
C1009 C1007 1.415 . S
C1010 H1000 0.930 . S
C1010 C1008 1.419 . S
C1010 C1011 1.362 . S
C1011 H1001 0.930 . S
C1011 C1004 1.409 . S
C1011 C1010 1.362 . S
H1012 C1018 0.930 . S
H1013 C1021 0.930 . S
H1014 C1022 0.930 . S
H1015 C1023 0.930 . S
H1016 C1026 0.930 . S
H1017 C1027 0.930 . S
C1018 H1012 0.930 . S
C1018 C1019 1.355 . S
C1018 C1020 1.415 . S
C1019 C1018 1.355 . S
C1019 C1021 1.419 . S
C1020 C1018 1.415 . S
C1020 C1025 1.425 . S
C1020 C1027 1.409 . S
C1021 H1013 0.930 . S
C1021 C1019 1.419 . S
C1021 C1022 1.362 . S
C1022 H1014 0.930 . S
C1022 C1021 1.362 . S
C1022 C1025 1.409 . S
C1023 H1015 0.930 . S
C1023 C1024 1.355 . S
C1023 C1025 1.415 . S
C1024 C1023 1.355 . S
C1024 C1026 1.419 . S
C1025 C1020 1.425 . S
C1025 C1022 1.409 . S
C1025 C1023 1.415 . S
C1026 H1016 0.930 . S
C1026 C1024 1.419 . S
C1026 C1027 1.362 . S
C1027 H1017 0.930 . S
C1027 C1020 1.409 . S
C1027 C1026 1.362 . S
H1028 C1034 0.930 . S
H1029 C1037 0.930 . S
H1030 C1038 0.930 . S
H1031 C1039 0.930 . S
H1032 C1042 0.930 . S
H1033 C1043 0.930 . S
C1034 H1028 0.930 . S
C1034 C1035 1.355 . S
C1034 C1036 1.415 . S
C1035 C1034 1.355 . S
C1035 C1037 1.419 . S
C1036 C1034 1.415 . S
C1036 C1041 1.425 . S
C1036 C1043 1.409 . S
C1037 H1029 0.930 . S
C1037 C1035 1.419 . S
C1037 C1038 1.362 . S
C1038 H1030 0.930 . S
C1038 C1037 1.362 . S
C1038 C1041 1.409 . S
C1039 H1031 0.930 . S
C1039 C1040 1.355 . S
C1039 C1041 1.415 . S
C1040 C1039 1.355 . S
C1040 C1042 1.419 . S
C1041 C1036 1.425 . S
C1041 C1038 1.409 . S
C1041 C1039 1.415 . S
C1042 H1032 0.930 . S
C1042 C1040 1.419 . S
C1042 C1043 1.362 . S
C1043 H1033 0.930 . S
C1043 C1036 1.409 . S
C1043 C1042 1.362 . S
H1044 C1050 0.930 . S
H1045 C1053 0.930 . S
H1046 C1054 0.930 . S
H1047 C1055 0.930 . S
H1048 C1058 0.930 . S
H1049 C1059 0.930 . S
C1050 H1044 0.930 . S
C1050 C1051 1.355 . S
C1050 C1052 1.415 . S
C1051 C1050 1.355 . S
C1051 C1053 1.419 1_565 S
C1052 C1050 1.415 . S
C1052 C1057 1.425 1_565 S
C1052 C1059 1.409 . S
C1053 H1045 0.930 . S
C1053 C1051 1.419 1_545 S
C1053 C1054 1.362 . S
C1054 H1046 0.930 . S
C1054 C1053 1.362 . S
C1054 C1057 1.409 . S
C1055 H1047 0.930 . S
C1055 C1056 1.355 . S
C1055 C1057 1.415 . S
C1056 C1055 1.355 . S
C1056 C1058 1.419 1_545 S
C1057 C1052 1.425 1_545 S
C1057 C1054 1.409 . S
C1057 C1055 1.415 . S
C1058 H1048 0.930 . S
C1058 C1056 1.419 1_565 S
C1058 C1059 1.362 . S
C1059 H1049 0.930 . S
C1059 C1052 1.409 . S
C1059 C1058 1.362 . S
H1060 C1066 0.930 . S
H1061 C1069 0.930 . S
H1062 C1070 0.930 . S
H1063 C1071 0.930 . S
H1064 C1074 0.930 . S
H1065 C1075 0.930 . S
C1066 H1060 0.930 . S
C1066 C1067 1.355 . S
C1066 C1068 1.415 . S
C1067 C1066 1.355 . S
C1067 C1069 1.419 . S
C1068 C1066 1.415 . S
C1068 C1073 1.425 . S
C1068 C1075 1.409 . S
C1069 H1061 0.930 . S
C1069 C1067 1.419 . S
C1069 C1070 1.362 . S
C1070 H1062 0.930 . S
C1070 C1069 1.362 . S
C1070 C1073 1.409 . S
C1071 H1063 0.930 . S
C1071 C1072 1.355 . S
C1071 C1073 1.415 . S
C1072 C1071 1.355 . S
C1072 C1074 1.419 . S
C1073 C1068 1.425 . S
C1073 C1070 1.409 . S
C1073 C1071 1.415 . S
C1074 H1064 0.930 . S
C1074 C1072 1.419 . S
C1074 C1075 1.362 . S
C1075 H1065 0.930 . S
C1075 C1068 1.409 . S
C1075 C1074 1.362 . S
H1076 C1082 0.930 . S
H1077 C1085 0.930 . S
H1078 C1086 0.930 . S
H1079 C1087 0.930 . S
H1080 C1090 0.930 . S
H1081 C1091 0.930 . S
C1082 H1076 0.930 . S
C1082 C1083 1.355 . S
C1082 C1084 1.415 . S
C1083 C1082 1.355 . S
C1083 C1085 1.419 . S
C1084 C1082 1.415 . S
C1084 C1089 1.425 . S
C1084 C1091 1.409 . S
C1085 H1077 0.930 . S
C1085 C1083 1.419 . S
C1085 C1086 1.362 . S
C1086 H1078 0.930 . S
C1086 C1085 1.362 . S
C1086 C1089 1.409 . S
C1087 H1079 0.930 . S
C1087 C1088 1.355 . S
C1087 C1089 1.415 . S
C1088 C1087 1.355 . S
C1088 C1090 1.419 . S
C1089 C1084 1.425 . S
C1089 C1086 1.409 . S
C1089 C1087 1.415 . S
C1090 H1080 0.930 . S
C1090 C1088 1.419 . S
C1090 C1091 1.362 . S
C1091 H1081 0.930 . S
C1091 C1084 1.409 . S
C1091 C1090 1.362 . S
H1092 C1098 0.930 . S
H1093 C1101 0.930 . S
H1094 C1102 0.930 . S
H1095 C1103 0.930 . S
H1096 C1106 0.930 . S
H1097 C1107 0.930 1_455 S
C1098 H1092 0.930 . S
C1098 C1099 1.355 . S
C1098 C1100 1.415 1_455 S
C1099 C1098 1.355 . S
C1099 C1101 1.419 1_455 S
C1100 C1098 1.415 1_655 S
C1100 C1105 1.425 . S
C1100 C1107 1.409 . S
C1101 H1093 0.930 . S
C1101 C1099 1.419 1_655 S
C1101 C1102 1.362 . S
C1102 H1094 0.930 . S
C1102 C1101 1.362 . S
C1102 C1105 1.409 . S
C1103 H1095 0.930 . S
C1103 C1104 1.355 . S
C1103 C1105 1.415 . S
C1104 C1103 1.355 . S
C1104 C1106 1.419 . S
C1105 C1100 1.425 . S
C1105 C1102 1.409 . S
C1105 C1103 1.415 . S
C1106 H1096 0.930 . S
C1106 C1104 1.419 . S
C1106 C1107 1.362 . S
C1107 H1097 0.930 1_655 S
C1107 C1100 1.409 . S
C1107 C1106 1.362 . S
H1108 C1114 0.930 . S
H1109 C1117 0.930 . S
H1110 C1118 0.930 . S
H1111 C1119 0.930 . S
H1112 C1122 0.930 . S
H1113 C1123 0.930 . S
C1114 H1108 0.930 . S
C1114 C1115 1.355 . S
C1114 C1116 1.415 . S
C1115 C1114 1.355 . S
C1115 C1117 1.419 . S
C1116 C1114 1.415 . S
C1116 C1121 1.425 . S
C1116 C1123 1.409 . S
C1117 H1109 0.930 . S
C1117 C1115 1.419 . S
C1117 C1118 1.362 . S
C1118 H1110 0.930 . S
C1118 C1117 1.362 . S
C1118 C1121 1.409 . S
C1119 H1111 0.930 . S
C1119 C1120 1.355 . S
C1119 C1121 1.415 . S
C1120 C1119 1.355 . S
C1120 C1122 1.419 . S
C1121 C1116 1.425 . S
C1121 C1118 1.409 . S
C1121 C1119 1.415 . S
C1122 H1112 0.930 . S
C1122 C1120 1.419 . S
C1122 C1123 1.362 . S
C1123 H1113 0.930 . S
C1123 C1116 1.409 . S
C1123 C1122 1.362 . S
H1124 C1130 0.930 . S
H1125 C1133 0.930 . S
H1126 C1134 0.930 . S
H1127 C1135 0.930 . S
H1128 C1138 0.930 . S
H1129 C1139 0.930 . S
C1130 H1124 0.930 . S
C1130 C1131 1.355 . S
C1130 C1132 1.415 . S
C1131 C1130 1.355 . S
C1131 C1133 1.419 . S
C1132 C1130 1.415 . S
C1132 C1137 1.425 . S
C1132 C1139 1.409 . S
C1133 H1125 0.930 . S
C1133 C1131 1.419 . S
C1133 C1134 1.362 . S
C1134 H1126 0.930 . S
C1134 C1133 1.362 . S
C1134 C1137 1.409 . S
C1135 H1127 0.930 . S
C1135 C1136 1.355 . S
C1135 C1137 1.415 . S
C1136 C1135 1.355 . S
C1136 C1138 1.419 . S
C1137 C1132 1.425 . S
C1137 C1134 1.409 . S
C1137 C1135 1.415 . S
C1138 H1128 0.930 . S
C1138 C1136 1.419 . S
C1138 C1139 1.362 . S
C1139 H1129 0.930 . S
C1139 C1132 1.409 . S
C1139 C1138 1.362 . S
H1140 C1146 0.930 . S
H1141 C1149 0.930 . S
H1142 C1150 0.930 . S
H1143 C1151 0.930 . S
H1144 C1154 0.930 . S
H1145 C1155 0.930 . S
C1146 H1140 0.930 . S
C1146 C1147 1.355 1_455 S
C1146 C1148 1.415 . S
C1147 C1146 1.355 1_655 S
C1147 C1149 1.419 . S
C1148 C1146 1.415 . S
C1148 C1153 1.425 . S
C1148 C1155 1.409 . S
C1149 H1141 0.930 . S
C1149 C1147 1.419 . S
C1149 C1150 1.362 1_655 S
C1150 H1142 0.930 . S
C1150 C1149 1.362 1_455 S
C1150 C1153 1.409 . S
C1151 H1143 0.930 . S
C1151 C1152 1.355 . S
C1151 C1153 1.415 . S
C1152 C1151 1.355 . S
C1152 C1154 1.419 . S
C1153 C1148 1.425 . S
C1153 C1150 1.409 . S
C1153 C1151 1.415 . S
C1154 H1144 0.930 . S
C1154 C1152 1.419 . S
C1154 C1155 1.362 . S
C1155 H1145 0.930 . S
C1155 C1148 1.409 . S
C1155 C1154 1.362 . S
H1156 C1162 0.930 . S
H1157 C1165 0.930 . S
H1158 C1166 0.930 . S
H1159 C1167 0.930 . S
H1160 C1170 0.930 . S
H1161 C1171 0.930 . S
C1162 H1156 0.930 . S
C1162 C1163 1.355 . S
C1162 C1164 1.415 . S
C1163 C1162 1.355 . S
C1163 C1165 1.419 . S
C1164 C1162 1.415 . S
C1164 C1169 1.425 . S
C1164 C1171 1.409 . S
C1165 H1157 0.930 . S
C1165 C1163 1.419 . S
C1165 C1166 1.362 . S
C1166 H1158 0.930 . S
C1166 C1165 1.362 . S
C1166 C1169 1.409 . S
C1167 H1159 0.930 . S
C1167 C1168 1.355 . S
C1167 C1169 1.415 . S
C1168 C1167 1.355 . S
C1168 C1170 1.419 . S
C1169 C1164 1.425 . S
C1169 C1166 1.409 . S
C1169 C1167 1.415 . S
C1170 H1160 0.930 . S
C1170 C1168 1.419 . S
C1170 C1171 1.362 . S
C1171 H1161 0.930 . S
C1171 C1164 1.409 . S
C1171 C1170 1.362 . S
H1172 C1178 0.930 . S
H1173 C1181 0.930 . S
H1174 C1182 0.930 . S
H1175 C1183 0.930 . S
H1176 C1186 0.930 . S
H1177 C1187 0.929 1_565 S
C1178 H1172 0.930 . S
C1178 C1179 1.355 . S
C1178 C1180 1.415 1_565 S
C1179 C1178 1.355 . S
C1179 C1181 1.419 1_565 S
C1180 C1178 1.415 1_545 S
C1180 C1185 1.425 . S
C1180 C1187 1.409 . S
C1181 H1173 0.930 . S
C1181 C1179 1.419 1_545 S
C1181 C1182 1.362 . S
C1182 H1174 0.930 . S
C1182 C1181 1.362 . S
C1182 C1185 1.409 . S
C1183 H1175 0.930 . S
C1183 C1184 1.355 . S
C1183 C1185 1.415 . S
C1184 C1183 1.355 . S
C1184 C1186 1.419 . S
C1185 C1180 1.425 . S
C1185 C1182 1.409 . S
C1185 C1183 1.415 . S
C1186 H1176 0.930 . S
C1186 C1184 1.419 . S
C1186 C1187 1.363 . S
C1187 H1177 0.929 1_545 S
C1187 C1180 1.409 . S
C1187 C1186 1.363 . S
H1188 C1194 0.930 . S
H1189 C1197 0.930 . S
H1190 C1198 0.930 . S
H1191 C1199 0.930 . S
H1192 C1202 0.930 . S
H1193 C1203 0.930 . S
C1194 H1188 0.930 . S
C1194 C1195 1.355 . S
C1194 C1196 1.415 . S
C1195 C1194 1.355 . S
C1195 C1197 1.419 . S
C1196 C1194 1.415 . S
C1196 C1201 1.425 . S
C1196 C1203 1.409 . S
C1197 H1189 0.930 . S
C1197 C1195 1.419 . S
C1197 C1198 1.362 . S
C1198 H1190 0.930 . S
C1198 C1197 1.362 . S
C1198 C1201 1.409 . S
C1199 H1191 0.930 . S
C1199 C1200 1.355 . S
C1199 C1201 1.415 . S
C1200 C1199 1.355 . S
C1200 C1202 1.419 . S
C1201 C1196 1.425 . S
C1201 C1198 1.409 . S
C1201 C1199 1.415 . S
C1202 H1192 0.930 . S
C1202 C1200 1.419 . S
C1202 C1203 1.362 . S
C1203 H1193 0.930 . S
C1203 C1196 1.409 . S
C1203 C1202 1.362 . S
H1204 C1210 0.930 . S
H1205 C1213 0.930 . S
H1206 C1214 0.930 . S
H1207 C1215 0.930 . S
H1208 C1218 0.930 . S
H1209 C1219 0.930 . S
C1210 H1204 0.930 . S
C1210 C1211 1.355 . S
C1210 C1212 1.415 . S
C1211 C1210 1.355 . S
C1211 C1213 1.419 . S
C1212 C1210 1.415 . S
C1212 C1217 1.425 . S
C1212 C1219 1.409 . S
C1213 H1205 0.930 . S
C1213 C1211 1.419 . S
C1213 C1214 1.362 . S
C1214 H1206 0.930 . S
C1214 C1213 1.362 . S
C1214 C1217 1.409 . S
C1215 H1207 0.930 . S
C1215 C1216 1.355 . S
C1215 C1217 1.415 . S
C1216 C1215 1.355 . S
C1216 C1218 1.419 . S
C1217 C1212 1.425 . S
C1217 C1214 1.409 . S
C1217 C1215 1.415 . S
C1218 H1208 0.930 . S
C1218 C1216 1.419 . S
C1218 C1219 1.362 . S
C1219 H1209 0.930 . S
C1219 C1212 1.409 . S
C1219 C1218 1.362 . S
H1220 C1226 0.930 . S
H1221 C1229 0.930 . S
H1222 C1230 0.930 . S
H1223 C1231 0.930 . S
H1224 C1234 0.930 . S
H1225 C1235 0.930 . S
C1226 H1220 0.930 . S
C1226 C1227 1.355 . S
C1226 C1228 1.415 . S
C1227 C1226 1.355 . S
C1227 C1229 1.419 . S
C1228 C1226 1.415 . S
C1228 C1233 1.425 . S
C1228 C1235 1.409 . S
C1229 H1221 0.930 . S
C1229 C1227 1.419 . S
C1229 C1230 1.362 . S
C1230 H1222 0.930 . S
C1230 C1229 1.362 . S
C1230 C1233 1.409 . S
C1231 H1223 0.930 . S
C1231 C1232 1.355 . S
C1231 C1233 1.415 . S
C1232 C1231 1.355 . S
C1232 C1234 1.419 . S
C1233 C1228 1.425 . S
C1233 C1230 1.409 . S
C1233 C1231 1.415 . S
C1234 H1224 0.930 . S
C1234 C1232 1.419 . S
C1234 C1235 1.362 . S
C1235 H1225 0.930 . S
C1235 C1228 1.409 . S
C1235 C1234 1.362 . S
H1236 C1242 0.930 . S
H1237 C1245 0.930 . S
H1238 C1246 0.930 . S
H1239 C1247 0.930 . S
H1240 C1250 0.930 . S
H1241 C1251 0.930 . S
C1242 H1236 0.930 . S
C1242 C1243 1.355 . S
C1242 C1244 1.415 . S
C1243 C1242 1.355 . S
C1243 C1245 1.419 . S
C1244 C1242 1.415 . S
C1244 C1249 1.425 . S
C1244 C1251 1.409 . S
C1245 H1237 0.930 . S
C1245 C1243 1.419 . S
C1245 C1246 1.362 . S
C1246 H1238 0.930 . S
C1246 C1245 1.362 . S
C1246 C1249 1.409 . S
C1247 H1239 0.930 . S
C1247 C1248 1.355 . S
C1247 C1249 1.415 . S
C1248 C1247 1.355 . S
C1248 C1250 1.419 . S
C1249 C1244 1.425 . S
C1249 C1246 1.409 . S
C1249 C1247 1.415 . S
C1250 H1240 0.930 . S
C1250 C1248 1.419 . S
C1250 C1251 1.362 . S
C1251 H1241 0.930 . S
C1251 C1244 1.409 . S
C1251 C1250 1.362 . S
H1252 C1258 0.930 . S
H1253 C1261 0.930 . S
H1254 C1262 0.930 . S
H1255 C1263 0.930 . S
H1256 C1266 0.930 . S
H1257 C1267 0.930 . S
C1258 H1252 0.930 . S
C1258 C1259 1.355 . S
C1258 C1260 1.415 . S
C1259 C1258 1.355 . S
C1259 C1261 1.419 . S
C1260 C1258 1.415 . S
C1260 C1265 1.425 . S
C1260 C1267 1.409 . S
C1261 H1253 0.930 . S
C1261 C1259 1.419 . S
C1261 C1262 1.362 . S
C1262 H1254 0.930 . S
C1262 C1261 1.362 . S
C1262 C1265 1.409 . S
C1263 H1255 0.930 . S
C1263 C1264 1.355 . S
C1263 C1265 1.415 . S
C1264 C1263 1.355 . S
C1264 C1266 1.419 . S
C1265 C1260 1.425 . S
C1265 C1262 1.409 . S
C1265 C1263 1.415 . S
C1266 H1256 0.930 . S
C1266 C1264 1.419 . S
C1266 C1267 1.362 . S
C1267 H1257 0.930 . S
C1267 C1260 1.409 . S
C1267 C1266 1.362 . S
H1268 C1274 0.930 . S
H1269 C1277 0.930 . S
H1270 C1278 0.930 . S
H1271 C1279 0.930 . S
H1272 C1282 0.930 . S
H1273 C1283 0.930 . S
C1274 H1268 0.930 . S
C1274 C1275 1.355 . S
C1274 C1276 1.415 . S
C1275 C1274 1.355 . S
C1275 C1277 1.419 . S
C1276 C1274 1.415 . S
C1276 C1281 1.425 . S
C1276 C1283 1.409 . S
C1277 H1269 0.930 . S
C1277 C1275 1.419 . S
C1277 C1278 1.362 . S
C1278 H1270 0.930 . S
C1278 C1277 1.362 . S
C1278 C1281 1.409 . S
C1279 H1271 0.930 . S
C1279 C1280 1.355 . S
C1279 C1281 1.415 . S
C1280 C1279 1.355 . S
C1280 C1282 1.419 . S
C1281 C1276 1.425 . S
C1281 C1278 1.409 . S
C1281 C1279 1.415 . S
C1282 H1272 0.930 . S
C1282 C1280 1.419 . S
C1282 C1283 1.362 . S
C1283 H1273 0.930 . S
C1283 C1276 1.409 . S
C1283 C1282 1.362 . S
H1284 C1290 0.930 . S
H1285 C1293 0.930 . S
H1286 C1294 0.930 . S
H1287 C1295 0.930 . S
H1288 C1298 0.930 . S
H1289 C1299 0.930 . S
C1290 H1284 0.930 . S
C1290 C1291 1.355 . S
C1290 C1292 1.415 . S
C1291 C1290 1.355 . S
C1291 C1293 1.419 . S
C1292 C1290 1.415 . S
C1292 C1297 1.425 . S
C1292 C1299 1.409 . S
C1293 H1285 0.930 . S
C1293 C1291 1.419 . S
C1293 C1294 1.362 . S
C1294 H1286 0.930 . S
C1294 C1293 1.362 . S
C1294 C1297 1.409 . S
C1295 H1287 0.930 . S
C1295 C1296 1.355 . S
C1295 C1297 1.415 . S
C1296 C1295 1.355 . S
C1296 C1298 1.419 . S
C1297 C1292 1.425 . S
C1297 C1294 1.409 . S
C1297 C1295 1.415 . S
C1298 H1288 0.930 . S
C1298 C1296 1.419 . S
C1298 C1299 1.362 . S
C1299 H1289 0.930 . S
C1299 C1292 1.409 . S
C1299 C1298 1.362 . S
H1300 C1306 0.930 . S
H1301 C1309 0.930 . S
H1302 C1310 0.930 . S
H1303 C1311 0.930 . S
H1304 C1314 0.930 . S
H1305 C1315 0.930 . S
C1306 H1300 0.930 . S
C1306 C1307 1.355 . S
C1306 C1308 1.415 . S
C1307 C1306 1.355 . S
C1307 C1309 1.419 . S
C1308 C1306 1.415 . S
C1308 C1313 1.425 . S
C1308 C1315 1.409 . S
C1309 H1301 0.930 . S
C1309 C1307 1.419 . S
C1309 C1310 1.362 . S
C1310 H1302 0.930 . S
C1310 C1309 1.362 . S
C1310 C1313 1.409 . S
C1311 H1303 0.930 . S
C1311 C1312 1.355 . S
C1311 C1313 1.415 . S
C1312 C1311 1.355 . S
C1312 C1314 1.419 . S
C1313 C1308 1.425 . S
C1313 C1310 1.409 . S
C1313 C1311 1.415 . S
C1314 H1304 0.930 . S
C1314 C1312 1.419 . S
C1314 C1315 1.362 . S
C1315 H1305 0.930 . S
C1315 C1308 1.409 . S
C1315 C1314 1.362 . S
H1316 C1322 0.930 . S
H1317 C1325 0.930 . S
H1318 C1326 0.930 1_545 S
H1319 C1327 0.930 1_545 S
H1320 C1330 0.930 . S
H1321 C1331 0.930 . S
C1322 H1316 0.930 . S
C1322 C1323 1.355 . S
C1322 C1324 1.415 . S
C1323 C1322 1.355 . S
C1323 C1325 1.419 . S
C1324 C1322 1.415 . S
C1324 C1329 1.425 . S
C1324 C1331 1.409 . S
C1325 H1317 0.930 . S
C1325 C1323 1.419 . S
C1325 C1326 1.362 . S
C1326 H1318 0.930 1_565 S
C1326 C1325 1.362 . S
C1326 C1329 1.409 . S
C1327 H1319 0.930 1_565 S
C1327 C1328 1.355 . S
C1327 C1329 1.415 . S
C1328 C1327 1.355 . S
C1328 C1330 1.419 . S
C1329 C1324 1.425 . S
C1329 C1326 1.409 . S
C1329 C1327 1.415 . S
C1330 H1320 0.930 . S
C1330 C1328 1.419 . S
C1330 C1331 1.362 . S
C1331 H1321 0.930 . S
C1331 C1324 1.409 . S
C1331 C1330 1.362 . S
H1332 C1338 0.930 . S
H1333 C1341 0.930 . S
H1334 C1342 0.930 . S
H1335 C1343 0.930 . S
H1336 C1346 0.930 . S
H1337 C1347 0.930 . S
C1338 H1332 0.930 . S
C1338 C1339 1.355 . S
C1338 C1340 1.415 . S
C1339 C1338 1.355 . S
C1339 C1341 1.419 . S
C1340 C1338 1.415 . S
C1340 C1345 1.425 . S
C1340 C1347 1.409 1_655 S
C1341 H1333 0.930 . S
C1341 C1339 1.419 . S
C1341 C1342 1.362 . S
C1342 H1334 0.930 . S
C1342 C1341 1.362 . S
C1342 C1345 1.409 . S
C1343 H1335 0.930 . S
C1343 C1344 1.355 . S
C1343 C1345 1.415 1_455 S
C1344 C1343 1.355 . S
C1344 C1346 1.419 . S
C1345 C1340 1.425 . S
C1345 C1342 1.409 . S
C1345 C1343 1.415 1_655 S
C1346 H1336 0.930 . S
C1346 C1344 1.419 . S
C1346 C1347 1.362 . S
C1347 H1337 0.930 . S
C1347 C1340 1.409 1_455 S
C1347 C1346 1.362 . S
H1348 C1354 0.930 . S
H1349 C1357 0.930 . S
H1350 C1358 0.930 . S
H1351 C1359 0.930 . S
H1352 C1362 0.930 . S
H1353 C1363 0.930 . S
C1354 H1348 0.930 . S
C1354 C1355 1.355 . S
C1354 C1356 1.415 . S
C1355 C1354 1.355 . S
C1355 C1357 1.419 . S
C1356 C1354 1.415 . S
C1356 C1361 1.425 . S
C1356 C1363 1.409 . S
C1357 H1349 0.930 . S
C1357 C1355 1.419 . S
C1357 C1358 1.362 . S
C1358 H1350 0.930 . S
C1358 C1357 1.362 . S
C1358 C1361 1.409 . S
C1359 H1351 0.930 . S
C1359 C1360 1.355 . S
C1359 C1361 1.415 . S
C1360 C1359 1.355 . S
C1360 C1362 1.419 . S
C1361 C1356 1.425 . S
C1361 C1358 1.409 . S
C1361 C1359 1.415 . S
C1362 H1352 0.930 . S
C1362 C1360 1.419 . S
C1362 C1363 1.362 . S
C1363 H1353 0.930 . S
C1363 C1356 1.409 . S
C1363 C1362 1.362 . S
H1364 C1370 0.930 . S
H1365 C1373 0.930 1_565 S
H1366 C1374 0.930 . S
H1367 C1375 0.930 . S
H1368 C1378 0.930 . S
H1369 C1379 0.930 . S
C1370 H1364 0.930 . S
C1370 C1371 1.355 . S
C1370 C1372 1.415 . S
C1371 C1370 1.355 . S
C1371 C1373 1.419 . S
C1372 C1370 1.415 . S
C1372 C1377 1.425 . S
C1372 C1379 1.409 . S
C1373 H1365 0.930 1_545 S
C1373 C1371 1.419 . S
C1373 C1374 1.362 . S
C1374 H1366 0.930 . S
C1374 C1373 1.362 . S
C1374 C1377 1.409 . S
C1375 H1367 0.930 . S
C1375 C1376 1.355 . S
C1375 C1377 1.415 1_455 S
C1376 C1375 1.355 . S
C1376 C1378 1.419 1_455 S
C1377 C1372 1.425 . S
C1377 C1374 1.409 . S
C1377 C1375 1.415 1_655 S
C1378 H1368 0.930 . S
C1378 C1376 1.419 1_655 S
C1378 C1379 1.362 . S
C1379 H1369 0.930 . S
C1379 C1372 1.409 . S
C1379 C1378 1.362 . S
H1380 C1386 0.930 . S
H1381 C1389 0.930 . S
H1382 C1390 0.930 . S
H1383 C1391 0.930 . S
H1384 C1394 0.930 . S
H1385 C1395 0.930 . S
C1386 H1380 0.930 . S
C1386 C1387 1.355 . S
C1386 C1388 1.415 . S
C1387 C1386 1.355 . S
C1387 C1389 1.419 . S
C1388 C1386 1.415 . S
C1388 C1393 1.425 . S
C1388 C1395 1.409 1_565 S
C1389 H1381 0.930 . S
C1389 C1387 1.419 . S
C1389 C1390 1.362 . S
C1390 H1382 0.930 . S
C1390 C1389 1.362 . S
C1390 C1393 1.409 . S
C1391 H1383 0.930 . S
C1391 C1392 1.355 . S
C1391 C1393 1.415 1_545 S
C1392 C1391 1.355 . S
C1392 C1394 1.419 . S
C1393 C1388 1.425 . S
C1393 C1390 1.409 . S
C1393 C1391 1.415 1_565 S
C1394 H1384 0.930 . S
C1394 C1392 1.419 . S
C1394 C1395 1.362 . S
C1395 H1385 0.930 . S
C1395 C1388 1.409 1_545 S
C1395 C1394 1.362 . S
H1396 C1402 0.930 . S
H1397 C1405 0.930 . S
H1398 C1406 0.930 . S
H1399 C1407 0.930 . S
H1400 C1410 0.930 . S
H1401 C1411 0.930 . S
C1402 H1396 0.930 . S
C1402 C1403 1.355 1_565 S
C1402 C1404 1.415 . S
C1403 C1402 1.355 1_545 S
C1403 C1405 1.419 . S
C1404 C1402 1.415 . S
C1404 C1409 1.425 . S
C1404 C1411 1.409 . S
C1405 H1397 0.930 . S
C1405 C1403 1.419 . S
C1405 C1406 1.362 1_545 S
C1406 H1398 0.930 . S
C1406 C1405 1.362 1_565 S
C1406 C1409 1.409 . S
C1407 H1399 0.930 . S
C1407 C1408 1.355 . S
C1407 C1409 1.415 . S
C1408 C1407 1.355 . S
C1408 C1410 1.419 . S
C1409 C1404 1.425 . S
C1409 C1406 1.409 . S
C1409 C1407 1.415 . S
C1410 H1400 0.930 . S
C1410 C1408 1.419 . S
C1410 C1411 1.362 . S
C1411 H1401 0.930 . S
C1411 C1404 1.409 . S
C1411 C1410 1.362 . S
H1412 C1418 0.930 . S
H1413 C1421 0.930 . S
H1414 C1422 0.930 . S
H1415 C1423 0.930 . S
H1416 C1426 0.930 . S
H1417 C1427 0.930 . S
C1418 H1412 0.930 . S
C1418 C1419 1.355 . S
C1418 C1420 1.415 . S
C1419 C1418 1.355 . S
C1419 C1421 1.419 . S
C1420 C1418 1.415 . S
C1420 C1425 1.425 . S
C1420 C1427 1.409 . S
C1421 H1413 0.930 . S
C1421 C1419 1.419 . S
C1421 C1422 1.362 . S
C1422 H1414 0.930 . S
C1422 C1421 1.362 . S
C1422 C1425 1.409 . S
C1423 H1415 0.930 . S
C1423 C1424 1.355 . S
C1423 C1425 1.415 . S
C1424 C1423 1.355 . S
C1424 C1426 1.419 . S
C1425 C1420 1.425 . S
C1425 C1422 1.409 . S
C1425 C1423 1.415 . S
C1426 H1416 0.930 . S
C1426 C1424 1.419 . S
C1426 C1427 1.362 . S
C1427 H1417 0.930 . S
C1427 C1420 1.409 . S
C1427 C1426 1.362 . S
H1428 C1434 0.930 . S
H1429 C1437 0.930 . S
H1430 C1438 0.930 . S
H1431 C1439 0.930 . S
H1432 C1442 0.930 . S
H1433 C1443 0.930 . S
C1434 H1428 0.930 . S
C1434 C1435 1.355 . S
C1434 C1436 1.415 . S
C1435 C1434 1.355 . S
C1435 C1437 1.419 . S
C1436 C1434 1.415 . S
C1436 C1441 1.425 . S
C1436 C1443 1.409 . S
C1437 H1429 0.930 . S
C1437 C1435 1.419 . S
C1437 C1438 1.362 . S
C1438 H1430 0.930 . S
C1438 C1437 1.362 . S
C1438 C1441 1.409 . S
C1439 H1431 0.930 . S
C1439 C1440 1.355 . S
C1439 C1441 1.415 . S
C1440 C1439 1.355 . S
C1440 C1442 1.419 . S
C1441 C1436 1.425 . S
C1441 C1438 1.409 . S
C1441 C1439 1.415 . S
C1442 H1432 0.930 . S
C1442 C1440 1.419 . S
C1442 C1443 1.362 . S
C1443 H1433 0.930 . S
C1443 C1436 1.409 . S
C1443 C1442 1.362 . S
H1444 C1450 0.930 1_455 S
H1445 C1453 0.930 . S
H1446 C1454 0.930 . S
H1447 C1455 0.930 . S
H1448 C1458 0.930 . S
H1449 C1459 0.930 1_455 S
C1450 H1444 0.930 1_655 S
C1450 C1451 1.355 . S
C1450 C1452 1.415 . S
C1451 C1450 1.355 . S
C1451 C1453 1.419 . S
C1452 C1450 1.415 . S
C1452 C1457 1.425 . S
C1452 C1459 1.409 . S
C1453 H1445 0.930 . S
C1453 C1451 1.419 . S
C1453 C1454 1.362 . S
C1454 H1446 0.930 . S
C1454 C1453 1.362 . S
C1454 C1457 1.409 . S
C1455 H1447 0.930 . S
C1455 C1456 1.355 . S
C1455 C1457 1.415 . S
C1456 C1455 1.355 . S
C1456 C1458 1.419 . S
C1457 C1452 1.425 . S
C1457 C1454 1.409 . S
C1457 C1455 1.415 . S
C1458 H1448 0.930 . S
C1458 C1456 1.419 . S
C1458 C1459 1.362 . S
C1459 H1449 0.930 1_655 S
C1459 C1452 1.409 . S
C1459 C1458 1.362 . S
H1460 C1466 0.930 . S
H1461 C1469 0.930 . S
H1462 C1470 0.930 . S
H1463 C1471 0.930 . S
H1464 C1474 0.930 . S
H1465 C1475 0.930 . S
C1466 H1460 0.930 . S
C1466 C1467 1.355 . S
C1466 C1468 1.415 . S
C1467 C1466 1.355 . S
C1467 C1469 1.419 . S
C1468 C1466 1.415 . S
C1468 C1473 1.425 . S
C1468 C1475 1.409 . S
C1469 H1461 0.930 . S
C1469 C1467 1.419 . S
C1469 C1470 1.362 . S
C1470 H1462 0.930 . S
C1470 C1469 1.362 . S
C1470 C1473 1.409 . S
C1471 H1463 0.930 . S
C1471 C1472 1.355 . S
C1471 C1473 1.415 . S
C1472 C1471 1.355 . S
C1472 C1474 1.419 . S
C1473 C1468 1.425 . S
C1473 C1470 1.409 . S
C1473 C1471 1.415 . S
C1474 H1464 0.930 . S
C1474 C1472 1.419 . S
C1474 C1475 1.362 . S
C1475 H1465 0.930 . S
C1475 C1468 1.409 . S
C1475 C1474 1.362 . S
C619 C8 0.955 . S
C624 C68 0.918 . S
C635 C0 0.978 . S
C640 C42 0.968 . S
C651 C34 0.991 . S
C656 C76 0.973 . S
C667 C110 0.973 . S
C672 C136 0.984 . S
C683 C170 0.989 . S
C688 C144 0.971 . S
C699 C178 0.973 . S
C704 C102 0.986 . S
C715 C272 0.949 . S
C720 C212 0.966 . S
C731 C204 0.992 . S
C736 C246 0.973 1_545 S
C747 C280 0.961 . S
C752 C238 0.952 . S
C763 C340 0.990 . S
C768 C314 0.972 . S
C779 C348 0.972 . S
C784 C374 0.982 . S
C795 C306 0.991 . S
C800 C382 0.972 . S
C811 C416 0.962 . S
C816 C476 0.957 . S
C827 C408 0.961 . S
C832 C450 0.969 . S
C843 C442 0.912 . S
C848 C484 0.954 . S
C859 C544 0.915 . S
C864 C518 0.957 . S
C875 C578 0.987 . S
C880 C552 0.973 . S
C891 C510 0.993 . S
C896 C586 0.973 1_455 S
C907 C13 1.590 . S
C912 C183 1.574 . S
C923 C115 1.593 . S
C928 C47 1.606 . S
C939 C149 1.599 . S
C944 C81 1.604 . S
C955 C217 1.580 . S
C960 C387 1.576 . S
C971 C251 1.575 . S
C976 C319 1.584 . S
C987 C353 1.574 . S
C992 C285 1.590 . S
C1003 C421 1.606 . S
C1008 C591 1.591 . S
C1019 C523 1.585 . S
C1024 C455 1.574 . S
C1035 C557 1.574 . S
C1040 C489 1.591 . S
C1051 C344 1.816 . S
C1056 C4 1.819 . S
C1067 C38 1.845 . S
C1072 C378 1.845 . S
C1083 C310 1.807 . S
C1088 C72 1.805 . S
C1099 C106 1.801 . S
C1104 C480 1.800 . S
C1115 C140 1.831 . S
C1120 C412 1.834 . S
C1131 C446 1.812 . S
C1136 C174 1.815 . S
C1147 C548 1.835 . S
C1152 C208 1.832 . S
C1163 C242 1.840 . S
C1168 C582 1.838 . S
C1179 C276 1.802 . S
C1184 C514 1.801 . S
C1195 C97 1.231 . S
C1200 C17 1.197 . S
C1211 C29 1.229 . S
C1216 C51 1.241 . S
C1227 C85 1.239 . S
C1232 C63 1.227 . S
C1243 C165 1.232 . S
C1248 C119 1.203 . S
C1259 C199 1.225 . S
C1264 C153 1.203 . S
C1275 C187 1.234 . S
C1280 C131 1.226 . S
C1291 C301 1.227 . S
C1296 C221 1.192 . S
C1307 C255 1.235 . S
C1312 C233 1.232 . S
C1323 C267 1.225 . S
C1328 C289 1.203 . S
C1339 C323 1.232 . S
C1344 C369 1.226 . S
C1355 C357 1.239 . S
C1360 C403 1.228 . S
C1371 C335 1.228 1_545 S
C1376 C391 1.239 . S
C1387 C425 1.241 . S
C1392 C505 1.229 . S
C1403 C459 1.205 . S
C1408 C437 1.225 1_455 S
C1419 C471 1.233 . S
C1424 C493 1.212 . S
C1435 C527 1.196 . S
C1440 C573 1.231 . S
C1451 C561 1.196 . S
C1456 C607 1.231 . S
C1467 C539 1.233 . S
C1472 C595 1.226 . S
