# Generated by pormake.
# Topology upb, (4)-cn, num edge types: 1
# Building blocks:
#     Node 0, Type 0, BuildingBlock: TATPOV_clean_sbu_0, # of connection points: 4
#     Node 1, Type 0, BuildingBlock: TATPOV_clean_sbu_0, # of connection points: 4
#     Node 2, Type 0, BuildingBlock: TATPOV_clean_sbu_0, # of connection points: 4
#     Node 3, Type 0, BuildingBlock: TATPOV_clean_sbu_0, # of connection points: 4
#     Node 4, Type 0, BuildingBlock: TATPOV_clean_sbu_0, # of connection points: 4
#     Node 5, Type 0, BuildingBlock: TATPOV_clean_sbu_0, # of connection points: 4
#     Node 6, Type 0, BuildingBlock: TATPOV_clean_sbu_0, # of connection points: 4
#     Node 7, Type 0, BuildingBlock: TATPOV_clean_sbu_0, # of connection points: 4
#     Node 8, Type 0, BuildingBlock: TATPOV_clean_sbu_0, # of connection points: 4
#     Node 9, Type 0, BuildingBlock: TATPOV_clean_sbu_0, # of connection points: 4
#     Node 10, Type 0, BuildingBlock: TATPOV_clean_sbu_0, # of connection points: 4
#     Node 11, Type 0, BuildingBlock: TATPOV_clean_sbu_0, # of connection points: 4
#     Node 12, Type 0, BuildingBlock: TATPOV_clean_sbu_0, # of connection points: 4
#     Node 13, Type 0, BuildingBlock: TATPOV_clean_sbu_0, # of connection points: 4
#     Node 14, Type 0, BuildingBlock: TATPOV_clean_sbu_0, # of connection points: 4
#     Node 15, Type 0, BuildingBlock: TATPOV_clean_sbu_0, # of connection points: 4
#     Edge 16, Type (0, 0), BuildingBlock: AJUNOK_clean_linker_0, # of connection points: 2
#     Edge 17, Type (0, 0), BuildingBlock: AJUNOK_clean_linker_0, # of connection points: 2
#     Edge 18, Type (0, 0), BuildingBlock: AJUNOK_clean_linker_0, # of connection points: 2
#     Edge 19, Type (0, 0), BuildingBlock: AJUNOK_clean_linker_0, # of connection points: 2
#     Edge 20, Type (0, 0), BuildingBlock: AJUNOK_clean_linker_0, # of connection points: 2
#     Edge 21, Type (0, 0), BuildingBlock: AJUNOK_clean_linker_0, # of connection points: 2
#     Edge 22, Type (0, 0), BuildingBlock: AJUNOK_clean_linker_0, # of connection points: 2
#     Edge 23, Type (0, 0), BuildingBlock: AJUNOK_clean_linker_0, # of connection points: 2
#     Edge 24, Type (0, 0), BuildingBlock: AJUNOK_clean_linker_0, # of connection points: 2
#     Edge 25, Type (0, 0), BuildingBlock: AJUNOK_clean_linker_0, # of connection points: 2
#     Edge 26, Type (0, 0), BuildingBlock: AJUNOK_clean_linker_0, # of connection points: 2
#     Edge 27, Type (0, 0), BuildingBlock: AJUNOK_clean_linker_0, # of connection points: 2
#     Edge 28, Type (0, 0), BuildingBlock: AJUNOK_clean_linker_0, # of connection points: 2
#     Edge 29, Type (0, 0), BuildingBlock: AJUNOK_clean_linker_0, # of connection points: 2
#     Edge 30, Type (0, 0), BuildingBlock: AJUNOK_clean_linker_0, # of connection points: 2
#     Edge 31, Type (0, 0), BuildingBlock: AJUNOK_clean_linker_0, # of connection points: 2
#     Edge 32, Type (0, 0), BuildingBlock: AJUNOK_clean_linker_0, # of connection points: 2
#     Edge 33, Type (0, 0), BuildingBlock: AJUNOK_clean_linker_0, # of connection points: 2
#     Edge 34, Type (0, 0), BuildingBlock: AJUNOK_clean_linker_0, # of connection points: 2
#     Edge 35, Type (0, 0), BuildingBlock: AJUNOK_clean_linker_0, # of connection points: 2
#     Edge 36, Type (0, 0), BuildingBlock: AJUNOK_clean_linker_0, # of connection points: 2
#     Edge 37, Type (0, 0), BuildingBlock: AJUNOK_clean_linker_0, # of connection points: 2
#     Edge 38, Type (0, 0), BuildingBlock: AJUNOK_clean_linker_0, # of connection points: 2
#     Edge 39, Type (0, 0), BuildingBlock: AJUNOK_clean_linker_0, # of connection points: 2
#     Edge 40, Type (0, 0), BuildingBlock: AJUNOK_clean_linker_0, # of connection points: 2
#     Edge 41, Type (0, 0), BuildingBlock: AJUNOK_clean_linker_0, # of connection points: 2
#     Edge 42, Type (0, 0), BuildingBlock: AJUNOK_clean_linker_0, # of connection points: 2
#     Edge 43, Type (0, 0), BuildingBlock: AJUNOK_clean_linker_0, # of connection points: 2
#     Edge 44, Type (0, 0), BuildingBlock: AJUNOK_clean_linker_0, # of connection points: 2
#     Edge 45, Type (0, 0), BuildingBlock: AJUNOK_clean_linker_0, # of connection points: 2
#     Edge 46, Type (0, 0), BuildingBlock: AJUNOK_clean_linker_0, # of connection points: 2
#     Edge 47, Type (0, 0), BuildingBlock: AJUNOK_clean_linker_0, # of connection points: 2
# Relax obj value: 0.237
# Max RMSD: 0.117
# Mean RMSD: 0.117
data_MOF--net-upb--node1-TATPOV_clean_sbu_0--edge1-AJUNOK_clean_linker_0
_symmetry_space_group_name_H-M    P1
_symmetry_Int_Tables_number       1
_symmetry_cell_setting            triclinic
loop_
_symmetry_equiv_pos_as_xyz
'x, y, z'
_cell_length_a     29.618986
_cell_length_b     29.570165
_cell_length_c     33.229468
_cell_angle_alpha  89.970874
_cell_angle_beta   89.805862
_cell_angle_gamma 89.973546
loop_
_atom_site_label
_atom_site_type_symbol
_atom_site_fract_x
_atom_site_fract_y
_atom_site_fract_z
_atom_type_partial_charge
Zn0 Zn 0.99807 0.12166 0.33612 0.0
Zn1 Zn 0.007 0.20922 0.33008 0.0
O2 O 0.00998 0.20306 0.39153 0.0
O3 O 0.00142 0.12948 0.39722 0.0
O4 O 0.01889 0.2752 0.31897 0.0
O5 O 0.0524 0.10693 0.30321 0.0
O6 O 0.0621 0.18041 0.29997 0.0
C7 C 0.00626 0.16796 0.41357 0.0
C8 C 0.91988 0.16118 0.30311 0.0
O9 O 0.94122 0.19752 0.31103 0.0
O10 O 0.93828 0.1232 0.30902 0.0
C11 C 0.00213 0.29494 0.2885 0.0
O12 O 0.97301 0.27284 0.26619 0.0
C13 C 0.07517 0.14046 0.29118 0.0
Zn14 Zn 0.74634 0.00955 0.36613 0.0
Zn15 Zn 0.68216 0.01526 0.32798 0.0
O16 O 0.65827 0.01905 0.38757 0.0
O17 O 0.71446 0.98015 0.41244 0.0
O18 O 0.63002 0.0323 0.29206 0.0
O19 O 0.76152 0.0759 0.36772 0.0
O20 O 0.72776 0.06524 0.31033 0.0
C21 C 0.67542 0.99665 0.41665 0.0
C22 C 0.74753 0.94195 0.31037 0.0
O23 O 0.70541 0.95042 0.31373 0.0
O24 O 0.77551 0.97017 0.32414 0.0
C25 C 0.63851 0.03686 0.25471 0.0
O26 O 0.67758 0.02243 0.24094 0.0
C27 C 0.75394 0.08885 0.33217 0.0
Zn28 Zn 0.92867 0.8057 0.41044 0.0
Zn29 Zn 0.95558 0.75398 0.35346 0.0
O30 O 0.96154 0.71636 0.4059 0.0
O31 O 0.92863 0.75752 0.45235 0.0
O32 O 0.96353 0.70589 0.3117 0.0
O33 O 0.87023 0.82294 0.38556 0.0
O34 O 0.89463 0.78294 0.33423 0.0
C35 C 0.94842 0.72143 0.44216 0.0
C36 C 0.01569 0.83187 0.37259 0.0
O37 O 0.00907 0.79791 0.34971 0.0
O38 O 0.9867 0.8416 0.39951 0.0
C39 C 0.96448 0.71554 0.27453 0.0
O40 O 0.96649 0.75832 0.2639 0.0
C41 C 0.86465 0.80818 0.3503 0.0
Zn42 Zn 0.22828 0.02644 0.38629 0.0
Zn43 Zn 0.27072 0.97397 0.3413 0.0
O44 O 0.3095 0.98157 0.39452 0.0
O45 O 0.27031 0.02931 0.4314 0.0
O46 O 0.31213 0.93668 0.30528 0.0
O47 O 0.17554 0.98237 0.38615 0.0
O48 O 0.21445 0.93385 0.34997 0.0
C49 C 0.30487 0.00502 0.42662 0.0
C50 C 0.23459 0.0684 0.31376 0.0
O51 O 0.25017 0.02911 0.30555 0.0
O52 O 0.2274 0.07893 0.34999 0.0
C53 C 0.29973 0.9218 0.27115 0.0
O54 O 0.25885 0.93145 0.25848 0.0
C55 C 0.1781 0.9445 0.36837 0.0
Zn56 Zn 0.06691 0.81191 0.60247 0.0
Zn57 Zn 0.03622 0.76741 0.66358 0.0
O58 O 0.02802 0.72585 0.61382 0.0
O59 O 0.06157 0.76077 0.56381 0.0
O60 O 0.02747 0.72491 0.71049 0.0
O61 O 0.1272 0.82616 0.62534 0.0
O62 O 0.0985 0.79565 0.67996 0.0
C63 C 0.04008 0.72696 0.57701 0.0
C64 C 0.9827 0.84821 0.63925 0.0
O65 O 0.9857 0.81496 0.6636 0.0
O66 O 0.01259 0.85371 0.61217 0.0
C67 C 0.0181 0.68296 0.70807 0.0
O68 O 0.0047 0.66635 0.67348 0.0
C69 C 0.13076 0.81615 0.66212 0.0
Zn70 Zn 0.25275 0.01528 0.63869 0.0
Zn71 Zn 0.31763 0.02062 0.67621 0.0
O72 O 0.34117 0.02007 0.61651 0.0
O73 O 0.28306 0.9829 0.59316 0.0
O74 O 0.3714 0.03776 0.70992 0.0
O75 O 0.23998 0.08207 0.63496 0.0
O76 O 0.27401 0.07314 0.69247 0.0
C77 C 0.32285 0.99724 0.58835 0.0
C78 C 0.2504 0.95014 0.69701 0.0
O79 O 0.29271 0.95736 0.69332 0.0
O80 O 0.22307 0.97844 0.68227 0.0
C81 C 0.36587 0.0431 0.74759 0.0
O82 O 0.32806 0.02902 0.76414 0.0
C83 C 0.2487 0.09672 0.66974 0.0
Zn84 Zn 0.00682 0.13505 0.66983 0.0
Zn85 Zn 0.99933 0.22275 0.67007 0.0
O86 O 0.99715 0.21209 0.60914 0.0
O87 O 0.00417 0.13807 0.60835 0.0
O88 O 0.98727 0.28947 0.67717 0.0
O89 O 0.95176 0.12299 0.70271 0.0
O90 O 0.94315 0.19658 0.70045 0.0
C91 C 1.00037 0.17522 0.58949 0.0
C92 C 0.08588 0.17547 0.69991 0.0
O93 O 0.06492 0.21147 0.69 0.0
O94 O 0.06664 0.1375 0.69687 0.0
C95 C 0.00575 0.3138 0.70399 0.0
O96 O 0.03816 0.29621 0.72591 0.0
C97 C 0.92891 0.15774 0.71142 0.0
Zn98 Zn 0.77148 0.04707 0.61772 0.0
Zn99 Zn 0.73144 0.99374 0.66381 0.0
O100 O 0.69216 0.99821 0.61068 0.0
O101 O 0.72955 0.04581 0.57222 0.0
O102 O 0.69249 0.95608 0.70163 0.0
O103 O 0.82617 0.0049 0.62001 0.0
O104 O 0.78823 0.9548 0.65519 0.0
C105 C 0.69602 0.02026 0.5777 0.0
C106 C 0.76541 0.09008 0.68911 0.0
O107 O 0.75237 0.05002 0.69789 0.0
O108 O 0.76948 0.10105 0.6526 0.0
C109 C 0.65051 0.96347 0.70675 0.0
O110 O 0.63186 0.9977 0.68784 0.0
C111 C 0.82461 0.96685 0.63761 0.0
Zn112 Zn 0.51142 0.65986 0.82868 0.0
Zn113 Zn 0.53883 0.73817 0.83296 0.0
O114 O 0.53499 0.73607 0.89371 0.0
O115 O 0.50562 0.66773 0.8904 0.0
O116 O 0.56435 0.79893 0.81512 0.0
O117 O 0.56325 0.62661 0.80574 0.0
O118 O 0.59156 0.69411 0.81593 0.0
C119 C 0.51753 0.70185 0.91114 0.0
C120 C 0.44252 0.70702 0.80271 0.0
O121 O 0.46998 0.73596 0.81733 0.0
O122 O 0.45671 0.66771 0.79516 0.0
C123 C 0.54438 0.82777 0.79298 0.0
O124 O 0.50223 0.82055 0.78267 0.0
C125 C 0.59681 0.65278 0.80577 0.0
Zn126 Zn 0.26914 0.56489 0.91384 0.0
Zn127 Zn 0.20761 0.56823 0.86038 0.0
O128 O 0.17515 0.55544 0.91528 0.0
O129 O 0.22746 0.56639 0.96085 0.0
O130 O 0.15597 0.58708 0.8255 0.0
O131 O 0.30125 0.62157 0.89761 0.0
O132 O 0.25073 0.62278 0.84954 0.0
C133 C 0.18688 0.55803 0.9521 0.0
C134 C 0.2688 0.48948 0.85481 0.0
O135 O 0.237 0.51096 0.83748 0.0
O136 O 0.28581 0.50447 0.8872 0.0
C137 C 0.11939 0.56811 0.81499 0.0
O138 O 0.11117 0.52607 0.82543 0.0
C139 C 0.28544 0.63981 0.86629 0.0
Zn140 Zn 0.49572 0.37286 0.8339 0.0
Zn141 Zn 0.47424 0.29068 0.82849 0.0
O142 O 0.48303 0.28807 0.88929 0.0
O143 O 0.50183 0.35979 0.8943 0.0
O144 O 0.45573 0.22839 0.80917 0.0
O145 O 0.4397 0.40069 0.81336 0.0
O146 O 0.41626 0.33037 0.817 0.0
C147 C 0.49473 0.32167 0.91083 0.0
C148 C 0.56247 0.33222 0.7907 0.0
O149 O 0.53804 0.29874 0.80147 0.0
O150 O 0.54951 0.37191 0.79849 0.0
C151 C 0.45229 0.19234 0.82987 0.0
O152 O 0.46117 0.1935 0.86855 0.0
C153 C 0.40808 0.37229 0.81097 0.0
Zn154 Zn 0.75512 0.44744 0.86999 0.0
Zn155 Zn 0.80708 0.45831 0.81285 0.0
O156 O 0.84072 0.47132 0.86775 0.0
O157 O 0.79844 0.44055 0.91441 0.0
O158 O 0.85674 0.44768 0.77212 0.0
O159 O 0.72203 0.39294 0.85304 0.0
O160 O 0.76424 0.40354 0.7996 0.0
C161 C 0.83446 0.46034 0.90454 0.0
C162 C 0.74244 0.53133 0.82172 0.0
O163 O 0.7721 0.51499 0.79803 0.0
O164 O 0.73165 0.51046 0.85378 0.0
C165 C 0.89879 0.45255 0.7784 0.0
O166 O 0.91218 0.47115 0.8122 0.0
C167 C 0.73312 0.38167 0.81779 0.0
Zn168 Zn 0.50811 0.36201 0.16546 0.0
Zn169 Zn 0.52664 0.2797 0.16651 0.0
O170 O 0.5192 0.27923 0.10568 0.0
O171 O 0.50471 0.35224 0.10422 0.0
O172 O 0.54345 0.21697 0.18593 0.0
O173 O 0.56371 0.38777 0.189 0.0
O174 O 0.58537 0.3178 0.17862 0.0
C175 C 0.51017 0.31493 0.0858 0.0
C176 C 0.43747 0.32197 0.20255 0.0
O177 O 0.46187 0.28865 0.1913 0.0
O178 O 0.45208 0.36171 0.19802 0.0
C179 C 0.55586 0.18318 0.16494 0.0
O180 O 0.55801 0.18721 0.12562 0.0
C181 C 0.59482 0.35867 0.18786 0.0
Zn182 Zn 0.73962 0.54877 0.08562 0.0
Zn183 Zn 0.80168 0.54873 0.13882 0.0
O184 O 0.83359 0.5367 0.08327 0.0
O185 O 0.78105 0.55088 0.03857 0.0
O186 O 0.8539 0.56392 0.17479 0.0
O187 O 0.70958 0.60591 0.10337 0.0
O188 O 0.76042 0.60437 0.15118 0.0
C189 C 0.82156 0.54144 0.0467 0.0
C190 C 0.73749 0.47198 0.14289 0.0
O191 O 0.77009 0.49197 0.16039 0.0
O192 O 0.72089 0.48819 0.11078 0.0
C193 C 0.8779 0.59643 0.16163 0.0
O194 O 0.86885 0.61287 0.12579 0.0
C195 C 0.72613 0.62285 0.13493 0.0
Zn196 Zn 0.49738 0.6403 0.16117 0.0
Zn197 Zn 0.47178 0.72043 0.1674 0.0
O198 O 0.47381 0.72347 0.10615 0.0
O199 O 0.49887 0.65358 0.10056 0.0
O200 O 0.44754 0.78012 0.18903 0.0
O201 O 0.44657 0.60688 0.18524 0.0
O202 O 0.41987 0.6761 0.18568 0.0
C203 C 0.48778 0.69087 0.08432 0.0
C204 C 0.56754 0.68529 0.19328 0.0
O205 O 0.54027 0.71713 0.18403 0.0
O206 O 0.55399 0.64489 0.19213 0.0
C207 C 0.40715 0.79091 0.18015 0.0
O208 O 0.3852 0.76551 0.15433 0.0
C209 C 0.4145 0.63384 0.19205 0.0
Zn210 Zn 0.24579 0.44116 0.1231 0.0
Zn211 Zn 0.19488 0.45272 0.18024 0.0
O212 O 0.16369 0.47313 0.12582 0.0
O213 O 0.20315 0.44153 0.07771 0.0
O214 O 0.14426 0.43962 0.21948 0.0
O215 O 0.27525 0.38308 0.13583 0.0
O216 O 0.23747 0.39696 0.19118 0.0
C217 C 0.1691 0.464 0.08855 0.0
C218 C 0.26299 0.52107 0.17705 0.0
O219 O 0.23102 0.50639 0.19911 0.0
O220 O 0.27353 0.50075 0.14461 0.0
C221 C 0.10332 0.43506 0.2088 0.0
O222 O 0.09205 0.44528 0.17171 0.0
C223 C 0.26601 0.37297 0.17177 0.0
C224 C 0.15707 0.15894 0.28897 0.0
C225 C 0.12119 0.13191 0.27537 0.0
C226 C 0.20059 0.14064 0.29277 0.0
C227 C 0.20886 0.09476 0.28376 0.0
H228 H 0.15044 0.19179 0.30216 0.0
H229 H 0.22546 0.15989 0.30939 0.0
S230 S 0.1309 0.01765 0.23042 0.0
N231 N 0.10026 0.06305 0.24019 0.0
N232 N 0.18201 0.02878 0.24748 0.0
C233 C 0.17607 0.07162 0.26133 0.0
C234 C 0.13175 0.09003 0.25763 0.0
C235 C 0.84417 0.1769 0.32993 0.0
C236 C 0.87069 0.16115 0.29772 0.0
C237 C 0.80216 0.15715 0.33837 0.0
C238 C 0.78513 0.12212 0.31416 0.0
H239 H 0.8585 0.19975 0.35194 0.0
H240 H 0.7853 0.16591 0.3663 0.0
S241 S 0.83661 0.07829 0.22013 0.0
N242 N 0.87361 0.11527 0.23732 0.0
N243 N 0.79369 0.07955 0.25197 0.0
C244 C 0.808 0.11173 0.27819 0.0
C245 C 0.85121 0.13102 0.27021 0.0
C246 C 0.75297 0.86313 0.33311 0.0
C247 C 0.76478 0.89577 0.30417 0.0
C248 C 0.784 0.82975 0.34473 0.0
C249 C 0.827 0.82716 0.32677 0.0
H250 H 0.7226 0.86737 0.35102 0.0
H251 H 0.77617 0.80907 0.37077 0.0
S252 S 0.86909 0.89743 0.24245 0.0
N253 N 0.81867 0.91839 0.25286 0.0
N254 N 0.87616 0.85426 0.2734 0.0
C255 C 0.83609 0.85485 0.29342 0.0
C256 C 0.80499 0.88954 0.2823 0.0
C257 C 0.06128 0.89911 0.39303 0.0
C258 C 0.05754 0.85972 0.36948 0.0
C259 C 0.10037 0.92561 0.39254 0.0
C260 C 0.13793 0.91411 0.36855 0.0
H261 H 0.0337 0.90982 0.4123 0.0
H262 H 0.10095 0.9555 0.41136 0.0
S263 S 0.14587 0.81457 0.30073 0.0
N264 N 0.09506 0.81057 0.32104 0.0
N265 N 0.16874 0.86057 0.32008 0.0
C266 C 0.13486 0.87487 0.34464 0.0
C267 C 0.09469 0.84775 0.34505 0.0
C268 C 0.21177 0.83711 0.66683 0.0
C269 C 0.16864 0.83622 0.6847 0.0
C270 C 0.24337 0.87044 0.67721 0.0
C271 C 0.23207 0.90467 0.7048 0.0
H272 H 0.21939 0.81491 0.64176 0.0
H273 H 0.2739 0.87316 0.6593 0.0
S274 S 0.12766 0.91136 0.76611 0.0
N275 N 0.11987 0.8669 0.73686 0.0
N276 N 0.17849 0.93081 0.755 0.0
C277 C 0.19168 0.90032 0.72673 0.0
C278 C 0.15997 0.86573 0.7169 0.0
C279 C 0.19646 0.12366 0.72292 0.0
C280 C 0.21923 0.13229 0.68652 0.0
C281 C 0.15478 0.14423 0.73114 0.0
C282 C 0.13538 0.17473 0.70368 0.0
H283 H 0.20767 0.09661 0.74252 0.0
H284 H 0.1352 0.13209 0.75655 0.0
S285 S 0.18819 0.21785 0.61005 0.0
N286 N 0.22426 0.17984 0.62712 0.0
N287 N 0.14666 0.21976 0.64332 0.0
C288 C 0.16159 0.18923 0.67082 0.0
C289 C 0.20343 0.16748 0.66193 0.0
C290 C 0.86998 0.10909 0.74293 0.0
C291 C 0.88193 0.15114 0.726 0.0
C292 C 0.82595 0.09218 0.73934 0.0
C293 C 0.79317 0.1164 0.71766 0.0
H294 H 0.89589 0.0867 0.75442 0.0
H295 H 0.82018 0.05712 0.74735 0.0
S296 S 0.8025 0.23526 0.6834 0.0
N297 N 0.85373 0.22234 0.69922 0.0
N298 N 0.77126 0.18989 0.69162 0.0
C299 C 0.80215 0.1621 0.70896 0.0
C300 C 0.84685 0.17959 0.71296 0.0
C301 C 0.86367 0.89391 0.65598 0.0
C302 C 0.86554 0.93739 0.63859 0.0
C303 C 0.90191 0.8657 0.65719 0.0
C304 C 0.94353 0.87971 0.64085 0.0
H305 H 0.83231 0.8813 0.66853 0.0
H306 H 0.8985 0.83226 0.67017 0.0
S307 S 0.96789 0.9917 0.59494 0.0
N308 N 0.91381 0.9939 0.60681 0.0
N309 N 0.98507 0.94102 0.60895 0.0
C310 C 0.9462 0.92345 0.62425 0.0
C311 C 0.90744 0.9522 0.62314 0.0
C312 C 0.64922 0.59757 0.77381 0.0
C313 C 0.64214 0.63247 0.80193 0.0
C314 C 0.68571 0.56761 0.77765 0.0
C315 C 0.71548 0.57104 0.81031 0.0
H316 H 0.62455 0.59137 0.75044 0.0
H317 H 0.68804 0.53913 0.75723 0.0
S318 S 0.71475 0.65919 0.88938 0.0
N319 N 0.67094 0.67166 0.86079 0.0
N320 N 0.73838 0.61409 0.86887 0.0
C321 C 0.71085 0.60772 0.83674 0.0
C322 C 0.67445 0.63892 0.83226 0.0
C323 C 0.36345 0.68525 0.78741 0.0
C324 C 0.39349 0.71101 0.81086 0.0
C325 C 0.32376 0.66722 0.80423 0.0
C326 C 0.31344 0.67382 0.84516 0.0
H327 H 0.37339 0.67433 0.75754 0.0
H328 H 0.30439 0.64343 0.7865 0.0
S329 S 0.37448 0.74821 0.91621 0.0
N330 N 0.40463 0.75037 0.87436 0.0
N331 N 0.33106 0.71511 0.90618 0.0
C332 C 0.33955 0.7048 0.86702 0.0
C333 C 0.37929 0.72405 0.84966 0.0
C334 C 0.30083 0.4118 0.85789 0.0
C335 C 0.29142 0.45083 0.8352 0.0
C336 C 0.33491 0.38154 0.84602 0.0
C337 C 0.36162 0.3903 0.81183 0.0
H338 H 0.2843 0.40662 0.88667 0.0
H339 H 0.34385 0.35429 0.86631 0.0
S340 S 0.34632 0.48439 0.73948 0.0
N341 N 0.30726 0.49324 0.77422 0.0
N342 N 0.3728 0.43759 0.75293 0.0
C343 C 0.34963 0.42679 0.78696 0.0
C344 C 0.31412 0.45686 0.79845 0.0
C345 C 0.68195 0.31556 0.81627 0.0
C346 C 0.70136 0.35242 0.79575 0.0
C347 C 0.63735 0.30224 0.80855 0.0
C348 C 0.61073 0.32634 0.78091 0.0
H349 H 0.69911 0.30092 0.84191 0.0
H350 H 0.62183 0.27792 0.8287 0.0
S351 S 0.65011 0.41613 0.71151 0.0
N352 N 0.69441 0.40498 0.73991 0.0
N353 N 0.61 0.38113 0.72655 0.0
C354 C 0.63224 0.35779 0.75562 0.0
C355 C 0.67794 0.3706 0.76281 0.0
C356 C 0.7021 0.39584 0.13908 0.0
C357 C 0.71352 0.43395 0.16219 0.0
C358 C 0.66722 0.36664 0.15115 0.0
C359 C 0.64165 0.37566 0.18599 0.0
H360 H 0.7178 0.3906 0.10995 0.0
H361 H 0.6569 0.34011 0.13066 0.0
S362 S 0.66224 0.46747 0.2595 0.0
N363 N 0.70072 0.47561 0.22411 0.0
N364 N 0.6337 0.42202 0.24585 0.0
C365 C 0.65556 0.41115 0.21116 0.0
C366 C 0.69189 0.44008 0.19944 0.0
C367 C 0.64515 0.66359 0.21275 0.0
C368 C 0.61684 0.69144 0.18946 0.0
C369 C 0.6858 0.64665 0.19691 0.0
C370 C 0.69873 0.65646 0.15708 0.0
H371 H 0.63298 0.64999 0.24106 0.0
H372 H 0.70367 0.621 0.21388 0.0
S373 S 0.64279 0.73717 0.08812 0.0
N374 N 0.60999 0.73618 0.12841 0.0
N375 N 0.68539 0.70295 0.09815 0.0
C376 C 0.67442 0.68964 0.13609 0.0
C377 C 0.63373 0.70779 0.15261 0.0
C378 C 0.33397 0.62609 0.17307 0.0
C379 C 0.36938 0.61447 0.19922 0.0
C380 C 0.29654 0.59745 0.16852 0.0
C381 C 0.29282 0.55738 0.19102 0.0
H382 H 0.33739 0.65478 0.15299 0.0
H383 H 0.27209 0.60497 0.14527 0.0
S384 S 0.37297 0.51565 0.26776 0.0
N385 N 0.3961 0.56281 0.25077 0.0
N386 N 0.32478 0.51009 0.24336 0.0
C387 C 0.32558 0.54798 0.22019 0.0
C388 C 0.36416 0.57639 0.22409 0.0
C389 C 0.32147 0.36151 0.22604 0.0
C390 C 0.29818 0.34333 0.19299 0.0
C391 C 0.36621 0.34874 0.23388 0.0
C392 C 0.38842 0.31675 0.20946 0.0
H393 H 0.30776 0.39032 0.24213 0.0
H394 H 0.38517 0.36805 0.25578 0.0
S395 S 0.33668 0.24943 0.12769 0.0
N396 N 0.29652 0.28483 0.14187 0.0
N397 N 0.38005 0.25957 0.15748 0.0
C398 C 0.36256 0.29256 0.18136 0.0
C399 C 0.31739 0.30626 0.17283 0.0
C400 C 0.00843 0.35512 0.23593 0.0
C401 C 0.022 0.33794 0.27351 0.0
C402 C 0.03286 0.38944 0.21664 0.0
C403 C 0.07199 0.40789 0.23407 0.0
H404 H 0.98024 0.34023 0.22004 0.0
H405 H 0.02252 0.39934 0.18667 0.0
S406 S 0.11583 0.38215 0.3361 0.0
N407 N 0.07262 0.34751 0.33049 0.0
N408 N 0.11864 0.41188 0.29411 0.0
C409 C 0.08323 0.39433 0.27341 0.0
C410 C 0.05823 0.3594 0.29315 0.0
C411 C 0.58261 0.09999 0.24874 0.0
C412 C 0.6109 0.06814 0.22983 0.0
C413 C 0.56352 0.13591 0.22712 0.0
C414 C 0.57148 0.14131 0.18556 0.0
H415 H 0.57707 0.09877 0.28097 0.0
H416 H 0.54355 0.1605 0.24353 0.0
S417 S 0.63749 0.06309 0.12066 0.0
N418 N 0.64194 0.04146 0.1663 0.0
N419 N 0.60571 0.10865 0.12554 0.0
C420 C 0.59698 0.1078 0.16571 0.0
C421 C 0.61677 0.07136 0.18786 0.0
C422 C 0.92484 0.66433 0.1767 0.0
C423 C 0.90877 0.62155 0.18864 0.0
C424 C 0.94606 0.69328 0.20403 0.0
C425 C 0.95232 0.68056 0.2444 0.0
H426 H 0.91869 0.6769 0.14658 0.0
H427 H 0.95526 0.72684 0.19384 0.0
S428 S 0.92545 0.56816 0.28858 0.0
N429 N 0.90703 0.56505 0.24184 0.0
N430 N 0.94736 0.61921 0.29326 0.0
C431 C 0.94056 0.63609 0.25571 0.0
C432 C 0.91864 0.60666 0.22783 0.0
C433 C 0.31245 0.87008 0.21242 0.0
C434 C 0.32963 0.89155 0.24692 0.0
C435 C 0.33837 0.83895 0.19043 0.0
C436 C 0.38282 0.82789 0.20175 0.0
H437 H 0.27817 0.87645 0.20267 0.0
H438 H 0.32287 0.82272 0.16474 0.0
S439 S 0.44538 0.87731 0.28788 0.0
N440 N 0.39517 0.90148 0.29003 0.0
N441 N 0.44387 0.8431 0.24867 0.0
C442 C 0.40117 0.8504 0.2353 0.0
C443 C 0.37462 0.88209 0.25787 0.0
C444 C 0.08701 0.64248 0.79617 0.0
C445 C 0.08636 0.59519 0.79195 0.0
C446 C 0.06151 0.67036 0.77111 0.0
C447 C 0.03475 0.65223 0.74016 0.0
H448 H 0.1087 0.65839 0.81822 0.0
H449 H 0.06514 0.70659 0.77466 0.0
S450 S 0.01518 0.52992 0.72115 0.0
N451 N 0.05202 0.53088 0.75837 0.0
N452 N 0.00431 0.58339 0.71038 0.0
C453 C 0.03081 0.60473 0.73773 0.0
C454 C 0.05658 0.57618 0.76382 0.0
C455 C 0.43758 0.14636 0.76814 0.0
C456 C 0.43586 0.15025 0.81035 0.0
C457 C 0.41784 0.10962 0.74824 0.0
C458 C 0.39486 0.07557 0.76968 0.0
H459 H 0.45324 0.1726 0.75011 0.0
H460 H 0.41843 0.10942 0.71564 0.0
S461 S 0.38531 0.06673 0.88075 0.0
N462 N 0.41322 0.11434 0.87317 0.0
N463 N 0.3753 0.04573 0.83562 0.0
C464 C 0.39511 0.07761 0.81197 0.0
C465 C 0.41582 0.11478 0.83234 0.0
C466 C 0.99887 0.37905 0.75167 0.0
C467 C 0.9842 0.35706 0.71647 0.0
C468 C 0.97295 0.41323 0.7697 0.0
C469 C 0.93126 0.42658 0.75332 0.0
H470 H 0.02911 0.36789 0.767 0.0
H471 H 0.9842 0.42679 0.79823 0.0
S472 S 0.8832 0.38778 0.65629 0.0
N473 N 0.92943 0.35725 0.66193 0.0
N474 N 0.88069 0.42117 0.69603 0.0
C475 C 0.91874 0.40848 0.71583 0.0
C476 C 0.94521 0.37381 0.69735 0.0
C477 C 0.64344 0.89579 0.75203 0.0
C478 C 0.62262 0.93187 0.73152 0.0
C479 C 0.61799 0.86347 0.77312 0.0
C480 C 0.57049 0.8655 0.77441 0.0
H481 H 0.67979 0.89182 0.75122 0.0
H482 H 0.63578 0.8358 0.7874 0.0
S483 S 0.49931 0.95544 0.72915 0.0
N484 N 0.55141 0.96943 0.71648 0.0
N485 N 0.50375 0.90849 0.75576 0.0
C486 C 0.54923 0.90229 0.75536 0.0
C487 C 0.5752 0.93548 0.73407 0.0
C488 C 0.00361 0.13191 0.48177 0.0
C489 C 0.00571 0.17156 0.45833 0.0
C490 C 0.00152 0.13366 0.52385 0.0
C491 C 0.00129 0.17515 0.54464 0.0
H492 H 0.0035 0.09894 0.46759 0.0
H493 H 1.00004 0.10196 0.54015 0.0
S494 S 0.00638 0.28916 0.49773 0.0
N495 N 0.00751 0.25387 0.45926 0.0
N496 N 0.00357 0.25716 0.53838 0.0
C497 C 0.00337 0.21521 0.52168 0.0
C498 C 0.00564 0.21342 0.47863 0.0
C499 C 0.65583 0.04731 0.51712 0.0
C500 C 0.66765 0.01084 0.54229 0.0
C501 C 0.6502 0.04121 0.47554 0.0
C502 C 0.65717 0.99858 0.45798 0.0
H503 H 0.65629 0.08152 0.52881 0.0
H504 H 0.64669 0.07092 0.4567 0.0
S505 S 0.6774 0.89084 0.51197 0.0
N506 N 0.67678 0.92954 0.54781 0.0
N507 N 0.66741 0.91817 0.46954 0.0
C508 C 0.66228 0.96103 0.48356 0.0
C509 C 0.66719 0.96714 0.52593 0.0
C510 C 0.04029 0.69078 0.50995 0.0
C511 C 0.01825 0.69743 0.54705 0.0
C512 C 0.01559 0.68861 0.47411 0.0
C513 C 0.96843 0.69415 0.47467 0.0
H514 H 0.07669 0.69396 0.50798 0.0
H515 H 0.03405 0.69036 0.44593 0.0
S516 S 0.89475 0.69436 0.5648 0.0
N517 N 0.94659 0.69479 0.58296 0.0
N518 N 0.9003 0.69249 0.51535 0.0
C519 C 0.94601 0.69111 0.51184 0.0
C520 C 0.97108 0.69232 0.54836 0.0
C521 C 0.33449 0.95547 0.52457 0.0
C522 C 0.34177 0.99503 0.54725 0.0
C523 C 0.331 0.9572 0.48248 0.0
C524 C 0.33378 0.99872 0.46213 0.0
H525 H 0.32616 0.92407 0.53969 0.0
H526 H 0.31962 0.92723 0.46674 0.0
S527 S 0.3634 0.10955 0.50665 0.0
N528 N 0.36087 0.07481 0.54554 0.0
N529 N 0.35297 0.0783 0.46654 0.0
C530 C 0.34775 0.03698 0.48385 0.0
C531 C 0.35208 0.03509 0.52658 0.0
C532 C 0.5019 0.65938 0.97453 0.0
C533 C 0.50999 0.70106 0.95536 0.0
C534 C 0.49394 0.65681 0.01597 0.0
C535 C 0.49309 0.69584 0.04013 0.0
H536 H 0.50216 0.62815 0.9575 0.0
H537 H 0.48847 0.62374 0.02916 0.0
S538 S 0.5111 0.81358 0.00487 0.0
N539 N 0.51592 0.78259 0.96374 0.0
N540 N 0.50058 0.77772 0.04185 0.0
C541 C 0.50039 0.73793 0.02141 0.0
C542 C 0.50905 0.74053 0.97905 0.0
C543 C 0.15922 0.56244 0.02238 0.0
C544 C 0.15772 0.54079 0.98472 0.0
C545 C 0.15304 0.53788 0.0581 0.0
C546 C 0.14673 0.49077 0.05698 0.0
H547 H 0.17076 0.59714 0.02444 0.0
H548 H 0.16047 0.55454 0.08636 0.0
S549 S 0.1279 0.42109 0.96608 0.0
N550 N 0.13872 0.47219 0.9484 0.0
N551 N 0.12915 0.42561 0.01562 0.0
C552 C 0.13777 0.47051 0.01965 0.0
C553 C 0.14292 0.49573 0.9833 0.0
C554 C 0.50819 0.3556 0.02014 0.0
C555 C 0.50678 0.31433 0.04119 0.0
C556 C 0.50464 0.35721 0.97827 0.0
C557 C 0.49915 0.31765 0.95527 0.0
H558 H 0.51227 0.38728 0.03609 0.0
H559 H 0.50586 0.3901 0.96393 0.0
S560 S 0.4934 0.20057 0.99554 0.0
N561 N 0.49975 0.23257 0.03584 0.0
N562 N 0.49271 0.23558 0.9568 0.0
C563 C 0.49774 0.27594 0.97579 0.0
C564 C 0.50172 0.27427 0.01874 0.0
C565 C 0.86532 0.45869 0.97344 0.0
C566 C 0.85899 0.48291 0.9374 0.0
C567 C 0.86143 0.48027 0.01091 0.0
C568 C 0.85042 0.52643 0.01311 0.0
H569 H 0.86677 0.42207 0.97282 0.0
H570 H 0.86024 0.45949 0.03777 0.0
S571 S 0.84375 0.60674 0.9279 0.0
N572 N 0.85252 0.55708 0.90651 0.0
N573 N 0.84357 0.59728 0.9769 0.0
C574 C 0.85178 0.55207 0.97759 0.0
C575 C 0.85677 0.53031 0.93954 0.0
loop_
_geom_bond_atom_site_label_1
_geom_bond_atom_site_label_2
_geom_bond_distance
_geom_bond_site_symmetry_2
_ccdc_geom_bond_type
Zn0 O3 2.031 1_455 S
Zn0 O5 2.049 . S
Zn0 O10 2.067 1_455 S
Zn1 O2 1.962 . S
Zn1 O4 1.986 . S
Zn1 O6 1.996 . S
Zn1 O9 1.943 1_455 S
O2 Zn1 1.962 . S
O2 C7 1.254 . S
O3 Zn0 2.031 1_655 S
O3 C7 1.269 1_655 S
O4 Zn1 1.986 . S
O4 C11 1.262 . S
O5 Zn0 2.049 . S
O5 C13 1.260 . S
O6 Zn1 1.996 . S
O6 C13 1.257 . S
C7 O2 1.254 . S
C7 O3 1.269 1_455 S
C8 O9 1.249 . S
C8 O10 1.270 . S
O9 Zn1 1.943 1_655 S
O9 C8 1.249 . S
O10 Zn0 2.067 1_655 S
O10 C8 1.270 . S
C11 O4 1.262 . S
C11 O12 1.232 . S
O12 C11 1.232 . S
C13 O5 1.260 . S
C13 O6 1.257 . S
Zn14 O17 2.031 1_545 S
Zn14 O19 2.049 . S
Zn14 O24 2.067 1_545 S
Zn15 O16 1.962 . S
Zn15 O18 1.986 . S
Zn15 O20 1.996 . S
Zn15 O23 1.943 1_545 S
O16 Zn15 1.962 . S
O16 C21 1.254 . S
O17 Zn14 2.031 1_565 S
O17 C21 1.269 1_565 S
O18 Zn15 1.986 . S
O18 C25 1.262 . S
O19 Zn14 2.049 . S
O19 C27 1.260 . S
O20 Zn15 1.996 . S
O20 C27 1.257 . S
C21 O16 1.254 . S
C21 O17 1.269 1_545 S
C22 O23 1.249 . S
C22 O24 1.270 . S
O23 Zn15 1.943 1_565 S
O23 C22 1.249 . S
O24 Zn14 2.067 1_565 S
O24 C22 1.270 . S
C25 O18 1.262 . S
C25 O26 1.232 . S
O26 C25 1.232 . S
C27 O19 1.260 . S
C27 O20 1.257 . S
Zn28 O31 2.031 1_655 S
Zn28 O33 2.049 . S
Zn28 O38 2.067 1_655 S
Zn29 O30 1.962 . S
Zn29 O32 1.986 . S
Zn29 O34 1.996 . S
Zn29 O37 1.943 1_655 S
O30 Zn29 1.962 . S
O30 C35 1.254 . S
O31 Zn28 2.031 1_455 S
O31 C35 1.269 1_455 S
O32 Zn29 1.986 . S
O32 C39 1.262 . S
O33 Zn28 2.049 . S
O33 C41 1.260 . S
O34 Zn29 1.996 . S
O34 C41 1.257 . S
C35 O30 1.254 . S
C35 O31 1.269 1_655 S
C36 O37 1.249 . S
C36 O38 1.270 . S
O37 Zn29 1.943 1_455 S
O37 C36 1.249 . S
O38 Zn28 2.067 1_455 S
O38 C36 1.270 . S
C39 O32 1.262 . S
C39 O40 1.232 . S
O40 C39 1.232 . S
C41 O33 1.260 . S
C41 O34 1.257 . S
Zn42 O45 2.031 1_565 S
Zn42 O47 2.049 . S
Zn42 O52 2.067 1_565 S
Zn43 O44 1.962 . S
Zn43 O46 1.986 . S
Zn43 O48 1.996 . S
Zn43 O51 1.943 1_565 S
O44 Zn43 1.962 . S
O44 C49 1.254 . S
O45 Zn42 2.031 1_545 S
O45 C49 1.269 1_545 S
O46 Zn43 1.986 . S
O46 C53 1.262 . S
O47 Zn42 2.049 . S
O47 C55 1.260 . S
O48 Zn43 1.996 . S
O48 C55 1.257 . S
C49 O44 1.254 . S
C49 O45 1.269 1_565 S
C50 O51 1.249 . S
C50 O52 1.270 . S
O51 Zn43 1.943 1_545 S
O51 C50 1.249 . S
O52 Zn42 2.067 1_545 S
O52 C50 1.270 . S
C53 O46 1.262 . S
C53 O54 1.232 . S
O54 C53 1.232 . S
C55 O47 1.260 . S
C55 O48 1.257 . S
Zn56 O59 2.031 1_455 S
Zn56 O61 2.049 . S
Zn56 O66 2.067 1_455 S
Zn57 O58 1.962 . S
Zn57 O60 1.986 . S
Zn57 O62 1.996 . S
Zn57 O65 1.943 1_455 S
O58 Zn57 1.962 . S
O58 C63 1.254 . S
O59 Zn56 2.031 1_655 S
O59 C63 1.269 1_655 S
O60 Zn57 1.986 . S
O60 C67 1.262 . S
O61 Zn56 2.049 . S
O61 C69 1.260 . S
O62 Zn57 1.996 . S
O62 C69 1.257 . S
C63 O58 1.254 . S
C63 O59 1.269 1_455 S
C64 O65 1.249 . S
C64 O66 1.270 . S
O65 Zn57 1.943 1_655 S
O65 C64 1.249 . S
O66 Zn56 2.067 1_655 S
O66 C64 1.270 . S
C67 O60 1.262 . S
C67 O68 1.232 . S
O68 C67 1.232 . S
C69 O61 1.260 . S
C69 O62 1.257 . S
Zn70 O73 2.031 1_545 S
Zn70 O75 2.049 . S
Zn70 O80 2.067 1_545 S
Zn71 O72 1.962 . S
Zn71 O74 1.986 . S
Zn71 O76 1.996 . S
Zn71 O79 1.943 1_545 S
O72 Zn71 1.962 . S
O72 C77 1.254 . S
O73 Zn70 2.031 1_565 S
O73 C77 1.269 1_565 S
O74 Zn71 1.986 . S
O74 C81 1.262 . S
O75 Zn70 2.049 . S
O75 C83 1.260 . S
O76 Zn71 1.996 . S
O76 C83 1.257 . S
C77 O72 1.254 . S
C77 O73 1.269 1_545 S
C78 O79 1.249 . S
C78 O80 1.270 . S
O79 Zn71 1.943 1_565 S
O79 C78 1.249 . S
O80 Zn70 2.067 1_565 S
O80 C78 1.270 . S
C81 O74 1.262 . S
C81 O82 1.232 . S
O82 C81 1.232 . S
C83 O75 1.260 . S
C83 O76 1.257 . S
Zn84 O87 2.031 1_655 S
Zn84 O89 2.049 . S
Zn84 O94 2.067 1_655 S
Zn85 O86 1.962 . S
Zn85 O88 1.986 . S
Zn85 O90 1.996 . S
Zn85 O93 1.943 1_655 S
O86 Zn85 1.962 . S
O86 C91 1.254 . S
O87 Zn84 2.031 1_455 S
O87 C91 1.269 1_455 S
O88 Zn85 1.986 . S
O88 C95 1.262 . S
O89 Zn84 2.049 . S
O89 C97 1.260 . S
O90 Zn85 1.996 . S
O90 C97 1.257 . S
C91 O86 1.254 . S
C91 O87 1.269 1_655 S
C92 O93 1.249 . S
C92 O94 1.270 . S
O93 Zn85 1.943 1_455 S
O93 C92 1.249 . S
O94 Zn84 2.067 1_455 S
O94 C92 1.270 . S
C95 O88 1.262 . S
C95 O96 1.232 . S
O96 C95 1.232 . S
C97 O89 1.260 . S
C97 O90 1.257 . S
Zn98 O101 2.031 1_565 S
Zn98 O103 2.049 . S
Zn98 O108 2.067 1_565 S
Zn99 O100 1.962 . S
Zn99 O102 1.986 . S
Zn99 O104 1.996 . S
Zn99 O107 1.943 1_565 S
O100 Zn99 1.962 . S
O100 C105 1.254 . S
O101 Zn98 2.031 1_545 S
O101 C105 1.269 1_545 S
O102 Zn99 1.986 . S
O102 C109 1.262 . S
O103 Zn98 2.049 . S
O103 C111 1.260 . S
O104 Zn99 1.996 . S
O104 C111 1.257 . S
C105 O100 1.254 . S
C105 O101 1.269 1_565 S
C106 O107 1.249 . S
C106 O108 1.270 . S
O107 Zn99 1.943 1_545 S
O107 C106 1.249 . S
O108 Zn98 2.067 1_545 S
O108 C106 1.270 . S
C109 O102 1.262 . S
C109 O110 1.232 . S
O110 C109 1.232 . S
C111 O103 1.260 . S
C111 O104 1.257 . S
Zn112 O115 2.031 . S
Zn112 O117 2.049 . S
Zn112 O122 2.067 . S
Zn113 O114 1.962 . S
Zn113 O116 1.986 . S
Zn113 O118 1.996 . S
Zn113 O121 1.943 . S
O114 Zn113 1.962 . S
O114 C119 1.254 . S
O115 Zn112 2.031 . S
O115 C119 1.269 . S
O116 Zn113 1.986 . S
O116 C123 1.262 . S
O117 Zn112 2.049 . S
O117 C125 1.260 . S
O118 Zn113 1.996 . S
O118 C125 1.257 . S
C119 O114 1.254 . S
C119 O115 1.269 . S
C120 O121 1.249 . S
C120 O122 1.270 . S
O121 Zn113 1.943 . S
O121 C120 1.249 . S
O122 Zn112 2.067 . S
O122 C120 1.270 . S
C123 O116 1.262 . S
C123 O124 1.232 . S
O124 C123 1.232 . S
C125 O117 1.260 . S
C125 O118 1.257 . S
Zn126 O129 2.031 . S
Zn126 O131 2.049 . S
Zn126 O136 2.067 . S
Zn127 O128 1.962 . S
Zn127 O130 1.986 . S
Zn127 O132 1.996 . S
Zn127 O135 1.943 . S
O128 Zn127 1.962 . S
O128 C133 1.254 . S
O129 Zn126 2.031 . S
O129 C133 1.269 . S
O130 Zn127 1.986 . S
O130 C137 1.262 . S
O131 Zn126 2.049 . S
O131 C139 1.260 . S
O132 Zn127 1.996 . S
O132 C139 1.257 . S
C133 O128 1.254 . S
C133 O129 1.269 . S
C134 O135 1.249 . S
C134 O136 1.270 . S
O135 Zn127 1.943 . S
O135 C134 1.249 . S
O136 Zn126 2.067 . S
O136 C134 1.270 . S
C137 O130 1.262 . S
C137 O138 1.232 . S
O138 C137 1.232 . S
C139 O131 1.260 . S
C139 O132 1.257 . S
Zn140 O143 2.031 . S
Zn140 O145 2.049 . S
Zn140 O150 2.067 . S
Zn141 O142 1.962 . S
Zn141 O144 1.986 . S
Zn141 O146 1.996 . S
Zn141 O149 1.943 . S
O142 Zn141 1.962 . S
O142 C147 1.254 . S
O143 Zn140 2.031 . S
O143 C147 1.269 . S
O144 Zn141 1.986 . S
O144 C151 1.262 . S
O145 Zn140 2.049 . S
O145 C153 1.260 . S
O146 Zn141 1.996 . S
O146 C153 1.257 . S
C147 O142 1.254 . S
C147 O143 1.269 . S
C148 O149 1.249 . S
C148 O150 1.270 . S
O149 Zn141 1.943 . S
O149 C148 1.249 . S
O150 Zn140 2.067 . S
O150 C148 1.270 . S
C151 O144 1.262 . S
C151 O152 1.232 . S
O152 C151 1.232 . S
C153 O145 1.260 . S
C153 O146 1.257 . S
Zn154 O157 2.031 . S
Zn154 O159 2.049 . S
Zn154 O164 2.067 . S
Zn155 O156 1.962 . S
Zn155 O158 1.986 . S
Zn155 O160 1.996 . S
Zn155 O163 1.943 . S
O156 Zn155 1.962 . S
O156 C161 1.254 . S
O157 Zn154 2.031 . S
O157 C161 1.269 . S
O158 Zn155 1.986 . S
O158 C165 1.262 . S
O159 Zn154 2.049 . S
O159 C167 1.260 . S
O160 Zn155 1.996 . S
O160 C167 1.257 . S
C161 O156 1.254 . S
C161 O157 1.269 . S
C162 O163 1.249 . S
C162 O164 1.270 . S
O163 Zn155 1.943 . S
O163 C162 1.249 . S
O164 Zn154 2.067 . S
O164 C162 1.270 . S
C165 O158 1.262 . S
C165 O166 1.232 . S
O166 C165 1.232 . S
C167 O159 1.260 . S
C167 O160 1.257 . S
Zn168 O171 2.031 . S
Zn168 O173 2.049 . S
Zn168 O178 2.067 . S
Zn169 O170 1.962 . S
Zn169 O172 1.986 . S
Zn169 O174 1.996 . S
Zn169 O177 1.943 . S
O170 Zn169 1.962 . S
O170 C175 1.254 . S
O171 Zn168 2.031 . S
O171 C175 1.269 . S
O172 Zn169 1.986 . S
O172 C179 1.262 . S
O173 Zn168 2.049 . S
O173 C181 1.260 . S
O174 Zn169 1.996 . S
O174 C181 1.257 . S
C175 O170 1.254 . S
C175 O171 1.269 . S
C176 O177 1.249 . S
C176 O178 1.270 . S
O177 Zn169 1.943 . S
O177 C176 1.249 . S
O178 Zn168 2.067 . S
O178 C176 1.270 . S
C179 O172 1.262 . S
C179 O180 1.232 . S
O180 C179 1.232 . S
C181 O173 1.260 . S
C181 O174 1.257 . S
Zn182 O185 2.031 . S
Zn182 O187 2.049 . S
Zn182 O192 2.067 . S
Zn183 O184 1.962 . S
Zn183 O186 1.986 . S
Zn183 O188 1.996 . S
Zn183 O191 1.943 . S
O184 Zn183 1.962 . S
O184 C189 1.254 . S
O185 Zn182 2.031 . S
O185 C189 1.269 . S
O186 Zn183 1.986 . S
O186 C193 1.262 . S
O187 Zn182 2.049 . S
O187 C195 1.260 . S
O188 Zn183 1.996 . S
O188 C195 1.257 . S
C189 O184 1.254 . S
C189 O185 1.269 . S
C190 O191 1.249 . S
C190 O192 1.270 . S
O191 Zn183 1.943 . S
O191 C190 1.249 . S
O192 Zn182 2.067 . S
O192 C190 1.270 . S
C193 O186 1.262 . S
C193 O194 1.232 . S
O194 C193 1.232 . S
C195 O187 1.260 . S
C195 O188 1.257 . S
Zn196 O199 2.031 . S
Zn196 O201 2.049 . S
Zn196 O206 2.067 . S
Zn197 O198 1.962 . S
Zn197 O200 1.986 . S
Zn197 O202 1.996 . S
Zn197 O205 1.943 . S
O198 Zn197 1.962 . S
O198 C203 1.254 . S
O199 Zn196 2.031 . S
O199 C203 1.269 . S
O200 Zn197 1.986 . S
O200 C207 1.262 . S
O201 Zn196 2.049 . S
O201 C209 1.260 . S
O202 Zn197 1.996 . S
O202 C209 1.257 . S
C203 O198 1.254 . S
C203 O199 1.269 . S
C204 O205 1.249 . S
C204 O206 1.270 . S
O205 Zn197 1.943 . S
O205 C204 1.249 . S
O206 Zn196 2.067 . S
O206 C204 1.270 . S
C207 O200 1.262 . S
C207 O208 1.232 . S
O208 C207 1.232 . S
C209 O201 1.260 . S
C209 O202 1.257 . S
Zn210 O213 2.031 . S
Zn210 O215 2.049 . S
Zn210 O220 2.067 . S
Zn211 O212 1.962 . S
Zn211 O214 1.986 . S
Zn211 O216 1.996 . S
Zn211 O219 1.943 . S
O212 Zn211 1.962 . S
O212 C217 1.254 . S
O213 Zn210 2.031 . S
O213 C217 1.269 . S
O214 Zn211 1.986 . S
O214 C221 1.262 . S
O215 Zn210 2.049 . S
O215 C223 1.260 . S
O216 Zn211 1.996 . S
O216 C223 1.257 . S
C217 O212 1.254 . S
C217 O213 1.269 . S
C218 O219 1.249 . S
C218 O220 1.270 . S
O219 Zn211 1.943 . S
O219 C218 1.249 . S
O220 Zn210 2.067 . S
O220 C218 1.270 . S
C221 O214 1.262 . S
C221 O222 1.232 . S
O222 C221 1.232 . S
C223 O215 1.260 . S
C223 O216 1.257 . S
C224 C225 1.369 . S
C224 C226 1.419 . S
C224 H228 0.930 . S
C225 C224 1.369 . S
C225 C234 1.429 . S
C226 C224 1.419 . S
C226 C227 1.363 . S
C226 H229 0.929 . S
C227 C226 1.363 . S
C227 C233 1.428 . S
H228 C224 0.930 . S
H229 C226 0.929 . S
S230 N231 1.613 . S
S230 N232 1.610 . S
N231 S230 1.613 . S
N231 C234 1.350 . S
N232 S230 1.610 . S
N232 C233 1.351 . S
C233 C227 1.428 . S
C233 N232 1.351 . S
C233 C234 1.434 . S
C234 C225 1.429 . S
C234 N231 1.350 . S
C234 C233 1.434 . S
C235 C236 1.369 . S
C235 C237 1.419 . S
C235 H239 0.930 . S
C236 C235 1.369 . S
C236 C245 1.429 . S
C237 C235 1.419 . S
C237 C238 1.363 . S
C237 H240 0.929 . S
C238 C237 1.363 . S
C238 C244 1.428 . S
H239 C235 0.930 . S
H240 C237 0.929 . S
S241 N242 1.613 . S
S241 N243 1.610 . S
N242 S241 1.613 . S
N242 C245 1.350 . S
N243 S241 1.610 . S
N243 C244 1.351 . S
C244 C238 1.428 . S
C244 N243 1.351 . S
C244 C245 1.434 . S
C245 C236 1.429 . S
C245 N242 1.350 . S
C245 C244 1.434 . S
C246 C247 1.369 . S
C246 C248 1.419 . S
C246 H250 0.930 . S
C247 C246 1.369 . S
C247 C256 1.429 . S
C248 C246 1.419 . S
C248 C249 1.363 . S
C248 H251 0.929 . S
C249 C248 1.363 . S
C249 C255 1.428 . S
H250 C246 0.930 . S
H251 C248 0.929 . S
S252 N253 1.613 . S
S252 N254 1.610 . S
N253 S252 1.613 . S
N253 C256 1.350 . S
N254 S252 1.610 . S
N254 C255 1.351 . S
C255 C249 1.428 . S
C255 N254 1.351 . S
C255 C256 1.434 . S
C256 C247 1.429 . S
C256 N253 1.350 . S
C256 C255 1.434 . S
C257 C258 1.369 . S
C257 C259 1.419 . S
C257 H261 0.930 . S
C258 C257 1.369 . S
C258 C267 1.429 . S
C259 C257 1.419 . S
C259 C260 1.363 . S
C259 H262 0.929 . S
C260 C259 1.363 . S
C260 C266 1.428 . S
H261 C257 0.930 . S
H262 C259 0.929 . S
S263 N264 1.613 . S
S263 N265 1.610 . S
N264 S263 1.613 . S
N264 C267 1.350 . S
N265 S263 1.610 . S
N265 C266 1.351 . S
C266 C260 1.428 . S
C266 N265 1.351 . S
C266 C267 1.434 . S
C267 C258 1.429 . S
C267 N264 1.350 . S
C267 C266 1.434 . S
C268 C269 1.369 . S
C268 C270 1.419 . S
C268 H272 0.930 . S
C269 C268 1.369 . S
C269 C278 1.429 . S
C270 C268 1.419 . S
C270 C271 1.363 . S
C270 H273 0.929 . S
C271 C270 1.363 . S
C271 C277 1.428 . S
H272 C268 0.930 . S
H273 C270 0.929 . S
S274 N275 1.613 . S
S274 N276 1.610 . S
N275 S274 1.613 . S
N275 C278 1.350 . S
N276 S274 1.610 . S
N276 C277 1.351 . S
C277 C271 1.428 . S
C277 N276 1.351 . S
C277 C278 1.434 . S
C278 C269 1.429 . S
C278 N275 1.350 . S
C278 C277 1.434 . S
C279 C280 1.369 . S
C279 C281 1.419 . S
C279 H283 0.930 . S
C280 C279 1.369 . S
C280 C289 1.429 . S
C281 C279 1.419 . S
C281 C282 1.363 . S
C281 H284 0.929 . S
C282 C281 1.363 . S
C282 C288 1.428 . S
H283 C279 0.930 . S
H284 C281 0.929 . S
S285 N286 1.613 . S
S285 N287 1.610 . S
N286 S285 1.613 . S
N286 C289 1.350 . S
N287 S285 1.610 . S
N287 C288 1.351 . S
C288 C282 1.428 . S
C288 N287 1.351 . S
C288 C289 1.434 . S
C289 C280 1.429 . S
C289 N286 1.350 . S
C289 C288 1.434 . S
C290 C291 1.369 . S
C290 C292 1.419 . S
C290 H294 0.930 . S
C291 C290 1.369 . S
C291 C300 1.429 . S
C292 C290 1.419 . S
C292 C293 1.363 . S
C292 H295 0.929 . S
C293 C292 1.363 . S
C293 C299 1.428 . S
H294 C290 0.930 . S
H295 C292 0.929 . S
S296 N297 1.613 . S
S296 N298 1.610 . S
N297 S296 1.613 . S
N297 C300 1.350 . S
N298 S296 1.610 . S
N298 C299 1.351 . S
C299 C293 1.428 . S
C299 N298 1.351 . S
C299 C300 1.434 . S
C300 C291 1.429 . S
C300 N297 1.350 . S
C300 C299 1.434 . S
C301 C302 1.369 . S
C301 C303 1.419 . S
C301 H305 0.930 . S
C302 C301 1.369 . S
C302 C311 1.429 . S
C303 C301 1.419 . S
C303 C304 1.363 . S
C303 H306 0.929 . S
C304 C303 1.363 . S
C304 C310 1.428 . S
H305 C301 0.930 . S
H306 C303 0.929 . S
S307 N308 1.613 . S
S307 N309 1.610 . S
N308 S307 1.613 . S
N308 C311 1.350 . S
N309 S307 1.610 . S
N309 C310 1.351 . S
C310 C304 1.428 . S
C310 N309 1.351 . S
C310 C311 1.434 . S
C311 C302 1.429 . S
C311 N308 1.350 . S
C311 C310 1.434 . S
C312 C313 1.369 . S
C312 C314 1.419 . S
C312 H316 0.930 . S
C313 C312 1.369 . S
C313 C322 1.429 . S
C314 C312 1.419 . S
C314 C315 1.363 . S
C314 H317 0.929 . S
C315 C314 1.363 . S
C315 C321 1.428 . S
H316 C312 0.930 . S
H317 C314 0.929 . S
S318 N319 1.613 . S
S318 N320 1.610 . S
N319 S318 1.613 . S
N319 C322 1.350 . S
N320 S318 1.610 . S
N320 C321 1.351 . S
C321 C315 1.428 . S
C321 N320 1.351 . S
C321 C322 1.434 . S
C322 C313 1.429 . S
C322 N319 1.350 . S
C322 C321 1.434 . S
C323 C324 1.369 . S
C323 C325 1.419 . S
C323 H327 0.930 . S
C324 C323 1.369 . S
C324 C333 1.429 . S
C325 C323 1.419 . S
C325 C326 1.363 . S
C325 H328 0.929 . S
C326 C325 1.363 . S
C326 C332 1.428 . S
H327 C323 0.930 . S
H328 C325 0.929 . S
S329 N330 1.613 . S
S329 N331 1.610 . S
N330 S329 1.613 . S
N330 C333 1.350 . S
N331 S329 1.610 . S
N331 C332 1.351 . S
C332 C326 1.428 . S
C332 N331 1.351 . S
C332 C333 1.434 . S
C333 C324 1.429 . S
C333 N330 1.350 . S
C333 C332 1.434 . S
C334 C335 1.369 . S
C334 C336 1.419 . S
C334 H338 0.930 . S
C335 C334 1.369 . S
C335 C344 1.429 . S
C336 C334 1.419 . S
C336 C337 1.363 . S
C336 H339 0.929 . S
C337 C336 1.363 . S
C337 C343 1.428 . S
H338 C334 0.930 . S
H339 C336 0.929 . S
S340 N341 1.613 . S
S340 N342 1.610 . S
N341 S340 1.613 . S
N341 C344 1.350 . S
N342 S340 1.610 . S
N342 C343 1.351 . S
C343 C337 1.428 . S
C343 N342 1.351 . S
C343 C344 1.434 . S
C344 C335 1.429 . S
C344 N341 1.350 . S
C344 C343 1.434 . S
C345 C346 1.369 . S
C345 C347 1.419 . S
C345 H349 0.930 . S
C346 C345 1.369 . S
C346 C355 1.429 . S
C347 C345 1.419 . S
C347 C348 1.363 . S
C347 H350 0.929 . S
C348 C347 1.363 . S
C348 C354 1.428 . S
H349 C345 0.930 . S
H350 C347 0.929 . S
S351 N352 1.613 . S
S351 N353 1.610 . S
N352 S351 1.613 . S
N352 C355 1.350 . S
N353 S351 1.610 . S
N353 C354 1.351 . S
C354 C348 1.428 . S
C354 N353 1.351 . S
C354 C355 1.434 . S
C355 C346 1.429 . S
C355 N352 1.350 . S
C355 C354 1.434 . S
C356 C357 1.369 . S
C356 C358 1.419 . S
C356 H360 0.930 . S
C357 C356 1.369 . S
C357 C366 1.429 . S
C358 C356 1.419 . S
C358 C359 1.363 . S
C358 H361 0.929 . S
C359 C358 1.363 . S
C359 C365 1.428 . S
H360 C356 0.930 . S
H361 C358 0.929 . S
S362 N363 1.613 . S
S362 N364 1.610 . S
N363 S362 1.613 . S
N363 C366 1.350 . S
N364 S362 1.610 . S
N364 C365 1.351 . S
C365 C359 1.428 . S
C365 N364 1.351 . S
C365 C366 1.434 . S
C366 C357 1.429 . S
C366 N363 1.350 . S
C366 C365 1.434 . S
C367 C368 1.369 . S
C367 C369 1.419 . S
C367 H371 0.930 . S
C368 C367 1.369 . S
C368 C377 1.429 . S
C369 C367 1.419 . S
C369 C370 1.363 . S
C369 H372 0.929 . S
C370 C369 1.363 . S
C370 C376 1.428 . S
H371 C367 0.930 . S
H372 C369 0.929 . S
S373 N374 1.613 . S
S373 N375 1.610 . S
N374 S373 1.613 . S
N374 C377 1.350 . S
N375 S373 1.610 . S
N375 C376 1.351 . S
C376 C370 1.428 . S
C376 N375 1.351 . S
C376 C377 1.434 . S
C377 C368 1.429 . S
C377 N374 1.350 . S
C377 C376 1.434 . S
C378 C379 1.369 . S
C378 C380 1.419 . S
C378 H382 0.930 . S
C379 C378 1.369 . S
C379 C388 1.429 . S
C380 C378 1.419 . S
C380 C381 1.363 . S
C380 H383 0.929 . S
C381 C380 1.363 . S
C381 C387 1.428 . S
H382 C378 0.930 . S
H383 C380 0.929 . S
S384 N385 1.613 . S
S384 N386 1.610 . S
N385 S384 1.613 . S
N385 C388 1.350 . S
N386 S384 1.610 . S
N386 C387 1.351 . S
C387 C381 1.428 . S
C387 N386 1.351 . S
C387 C388 1.434 . S
C388 C379 1.429 . S
C388 N385 1.350 . S
C388 C387 1.434 . S
C389 C390 1.369 . S
C389 C391 1.419 . S
C389 H393 0.930 . S
C390 C389 1.369 . S
C390 C399 1.429 . S
C391 C389 1.419 . S
C391 C392 1.363 . S
C391 H394 0.929 . S
C392 C391 1.363 . S
C392 C398 1.428 . S
H393 C389 0.930 . S
H394 C391 0.929 . S
S395 N396 1.613 . S
S395 N397 1.610 . S
N396 S395 1.613 . S
N396 C399 1.350 . S
N397 S395 1.610 . S
N397 C398 1.351 . S
C398 C392 1.428 . S
C398 N397 1.351 . S
C398 C399 1.434 . S
C399 C390 1.429 . S
C399 N396 1.350 . S
C399 C398 1.434 . S
C400 C401 1.369 . S
C400 C402 1.419 . S
C400 H404 0.930 . S
C401 C400 1.369 . S
C401 C410 1.429 . S
C402 C400 1.419 . S
C402 C403 1.363 . S
C402 H405 0.929 . S
C403 C402 1.363 . S
C403 C409 1.428 . S
H404 C400 0.930 . S
H405 C402 0.929 . S
S406 N407 1.613 . S
S406 N408 1.610 . S
N407 S406 1.613 . S
N407 C410 1.350 . S
N408 S406 1.610 . S
N408 C409 1.351 . S
C409 C403 1.428 . S
C409 N408 1.351 . S
C409 C410 1.434 . S
C410 C401 1.429 . S
C410 N407 1.350 . S
C410 C409 1.434 . S
C411 C412 1.369 . S
C411 C413 1.419 . S
C411 H415 0.930 . S
C412 C411 1.369 . S
C412 C421 1.429 . S
C413 C411 1.419 . S
C413 C414 1.363 . S
C413 H416 0.929 . S
C414 C413 1.363 . S
C414 C420 1.428 . S
H415 C411 0.930 . S
H416 C413 0.929 . S
S417 N418 1.613 . S
S417 N419 1.610 . S
N418 S417 1.613 . S
N418 C421 1.350 . S
N419 S417 1.610 . S
N419 C420 1.351 . S
C420 C414 1.428 . S
C420 N419 1.351 . S
C420 C421 1.434 . S
C421 C412 1.429 . S
C421 N418 1.350 . S
C421 C420 1.434 . S
C422 C423 1.369 . S
C422 C424 1.419 . S
C422 H426 0.930 . S
C423 C422 1.369 . S
C423 C432 1.429 . S
C424 C422 1.419 . S
C424 C425 1.363 . S
C424 H427 0.929 . S
C425 C424 1.363 . S
C425 C431 1.428 . S
H426 C422 0.930 . S
H427 C424 0.929 . S
S428 N429 1.613 . S
S428 N430 1.610 . S
N429 S428 1.613 . S
N429 C432 1.350 . S
N430 S428 1.610 . S
N430 C431 1.351 . S
C431 C425 1.428 . S
C431 N430 1.351 . S
C431 C432 1.434 . S
C432 C423 1.429 . S
C432 N429 1.350 . S
C432 C431 1.434 . S
C433 C434 1.369 . S
C433 C435 1.419 . S
C433 H437 0.930 . S
C434 C433 1.369 . S
C434 C443 1.429 . S
C435 C433 1.419 . S
C435 C436 1.363 . S
C435 H438 0.929 . S
C436 C435 1.363 . S
C436 C442 1.428 . S
H437 C433 0.930 . S
H438 C435 0.929 . S
S439 N440 1.613 . S
S439 N441 1.610 . S
N440 S439 1.613 . S
N440 C443 1.350 . S
N441 S439 1.610 . S
N441 C442 1.351 . S
C442 C436 1.428 . S
C442 N441 1.351 . S
C442 C443 1.434 . S
C443 C434 1.429 . S
C443 N440 1.350 . S
C443 C442 1.434 . S
C444 C445 1.369 . S
C444 C446 1.419 . S
C444 H448 0.930 . S
C445 C444 1.369 . S
C445 C454 1.429 . S
C446 C444 1.419 . S
C446 C447 1.363 . S
C446 H449 0.929 . S
C447 C446 1.363 . S
C447 C453 1.428 . S
H448 C444 0.930 . S
H449 C446 0.929 . S
S450 N451 1.613 . S
S450 N452 1.610 . S
N451 S450 1.613 . S
N451 C454 1.350 . S
N452 S450 1.610 . S
N452 C453 1.351 . S
C453 C447 1.428 . S
C453 N452 1.351 . S
C453 C454 1.434 . S
C454 C445 1.429 . S
C454 N451 1.350 . S
C454 C453 1.434 . S
C455 C456 1.369 . S
C455 C457 1.419 . S
C455 H459 0.930 . S
C456 C455 1.369 . S
C456 C465 1.429 . S
C457 C455 1.419 . S
C457 C458 1.363 . S
C457 H460 0.929 . S
C458 C457 1.363 . S
C458 C464 1.428 . S
H459 C455 0.930 . S
H460 C457 0.929 . S
S461 N462 1.613 . S
S461 N463 1.610 . S
N462 S461 1.613 . S
N462 C465 1.350 . S
N463 S461 1.610 . S
N463 C464 1.351 . S
C464 C458 1.428 . S
C464 N463 1.351 . S
C464 C465 1.434 . S
C465 C456 1.429 . S
C465 N462 1.350 . S
C465 C464 1.434 . S
C466 C467 1.369 . S
C466 C468 1.419 . S
C466 H470 0.930 . S
C467 C466 1.369 . S
C467 C476 1.429 . S
C468 C466 1.419 . S
C468 C469 1.363 . S
C468 H471 0.929 . S
C469 C468 1.363 . S
C469 C475 1.428 . S
H470 C466 0.930 . S
H471 C468 0.929 . S
S472 N473 1.613 . S
S472 N474 1.610 . S
N473 S472 1.613 . S
N473 C476 1.350 . S
N474 S472 1.610 . S
N474 C475 1.351 . S
C475 C469 1.428 . S
C475 N474 1.351 . S
C475 C476 1.434 . S
C476 C467 1.429 . S
C476 N473 1.350 . S
C476 C475 1.434 . S
C477 C478 1.369 . S
C477 C479 1.419 . S
C477 H481 0.930 . S
C478 C477 1.369 . S
C478 C487 1.429 . S
C479 C477 1.419 . S
C479 C480 1.363 . S
C479 H482 0.929 . S
C480 C479 1.363 . S
C480 C486 1.428 . S
H481 C477 0.930 . S
H482 C479 0.929 . S
S483 N484 1.613 . S
S483 N485 1.610 . S
N484 S483 1.613 . S
N484 C487 1.350 . S
N485 S483 1.610 . S
N485 C486 1.351 . S
C486 C480 1.428 . S
C486 N485 1.351 . S
C486 C487 1.434 . S
C487 C478 1.429 . S
C487 N484 1.350 . S
C487 C486 1.434 . S
C488 C489 1.369 . S
C488 C490 1.419 . S
C488 H492 0.930 . S
C489 C488 1.369 . S
C489 C498 1.429 1_455 S
C490 C488 1.419 . S
C490 C491 1.363 1_455 S
C490 H493 0.929 . S
C491 C490 1.363 1_655 S
C491 C497 1.428 . S
H492 C488 0.930 . S
H493 C490 0.929 . S
S494 N495 1.613 . S
S494 N496 1.610 . S
N495 S494 1.613 . S
N495 C498 1.350 . S
N496 S494 1.610 . S
N496 C497 1.351 . S
C497 C491 1.428 . S
C497 N496 1.351 . S
C497 C498 1.434 . S
C498 C489 1.429 1_655 S
C498 N495 1.350 . S
C498 C497 1.434 . S
C499 C500 1.369 1_545 S
C499 C501 1.419 . S
C499 H503 0.930 . S
C500 C499 1.369 1_565 S
C500 C509 1.429 . S
C501 C499 1.419 . S
C501 C502 1.363 . S
C501 H504 0.929 . S
C502 C501 1.363 . S
C502 C508 1.428 1_545 S
H503 C499 0.930 . S
H504 C501 0.929 . S
S505 N506 1.613 . S
S505 N507 1.610 . S
N506 S505 1.613 . S
N506 C509 1.350 . S
N507 S505 1.610 . S
N507 C508 1.351 . S
C508 C502 1.428 1_565 S
C508 N507 1.351 . S
C508 C509 1.434 . S
C509 C500 1.429 . S
C509 N506 1.350 . S
C509 C508 1.434 . S
C510 C511 1.369 . S
C510 C512 1.419 . S
C510 H514 0.930 . S
C511 C510 1.369 . S
C511 C520 1.429 1_455 S
C512 C510 1.419 . S
C512 C513 1.363 1_455 S
C512 H515 0.929 . S
C513 C512 1.363 1_655 S
C513 C519 1.428 . S
H514 C510 0.930 . S
H515 C512 0.929 . S
S516 N517 1.613 . S
S516 N518 1.610 . S
N517 S516 1.613 . S
N517 C520 1.350 . S
N518 S516 1.610 . S
N518 C519 1.351 . S
C519 C513 1.428 . S
C519 N518 1.351 . S
C519 C520 1.434 . S
C520 C511 1.429 1_655 S
C520 N517 1.350 . S
C520 C519 1.434 . S
C521 C522 1.369 1_565 S
C521 C523 1.419 . S
C521 H525 0.930 . S
C522 C521 1.369 1_545 S
C522 C531 1.429 . S
C523 C521 1.419 . S
C523 C524 1.363 . S
C523 H526 0.929 . S
C524 C523 1.363 . S
C524 C530 1.428 1_565 S
H525 C521 0.930 . S
H526 C523 0.929 . S
S527 N528 1.613 . S
S527 N529 1.610 . S
N528 S527 1.613 . S
N528 C531 1.350 . S
N529 S527 1.610 . S
N529 C530 1.351 . S
C530 C524 1.428 1_545 S
C530 N529 1.351 . S
C530 C531 1.434 . S
C531 C522 1.429 . S
C531 N528 1.350 . S
C531 C530 1.434 . S
C532 C533 1.369 . S
C532 C534 1.419 1_556 S
C532 H536 0.930 . S
C533 C532 1.369 . S
C533 C542 1.429 . S
C534 C532 1.419 1_554 S
C534 C535 1.363 . S
C534 H537 0.929 . S
C535 C534 1.363 . S
C535 C541 1.428 . S
H536 C532 0.930 . S
H537 C534 0.929 . S
S538 N539 1.613 1_554 S
S538 N540 1.610 . S
N539 S538 1.613 1_556 S
N539 C542 1.350 . S
N540 S538 1.610 . S
N540 C541 1.351 . S
C541 C535 1.428 . S
C541 N540 1.351 . S
C541 C542 1.434 1_554 S
C542 C533 1.429 . S
C542 N539 1.350 . S
C542 C541 1.434 1_556 S
C543 C544 1.369 . S
C543 C545 1.419 1_556 S
C543 H547 0.930 . S
C544 C543 1.369 . S
C544 C553 1.429 . S
C545 C543 1.419 1_554 S
C545 C546 1.363 . S
C545 H548 0.929 . S
C546 C545 1.363 . S
C546 C552 1.428 . S
H547 C543 0.930 . S
H548 C545 0.929 . S
S549 N550 1.613 . S
S549 N551 1.610 1_556 S
N550 S549 1.613 . S
N550 C553 1.350 . S
N551 S549 1.610 1_554 S
N551 C552 1.351 . S
C552 C546 1.428 . S
C552 N551 1.351 . S
C552 C553 1.434 1_554 S
C553 C544 1.429 . S
C553 N550 1.350 . S
C553 C552 1.434 1_556 S
C554 C555 1.369 . S
C554 C556 1.419 1_554 S
C554 H558 0.930 . S
C555 C554 1.369 . S
C555 C564 1.429 . S
C556 C554 1.419 1_556 S
C556 C557 1.363 . S
C556 H559 0.929 . S
C557 C556 1.363 . S
C557 C563 1.428 . S
H558 C554 0.930 . S
H559 C556 0.929 . S
S560 N561 1.613 . S
S560 N562 1.610 1_554 S
N561 S560 1.613 . S
N561 C564 1.350 . S
N562 S560 1.610 1_556 S
N562 C563 1.351 . S
C563 C557 1.428 . S
C563 N562 1.351 . S
C563 C564 1.434 1_556 S
C564 C555 1.429 . S
C564 N561 1.350 . S
C564 C563 1.434 1_554 S
C565 C566 1.369 . S
C565 C567 1.419 1_556 S
C565 H569 0.930 . S
C566 C565 1.369 . S
C566 C575 1.429 . S
C567 C565 1.419 1_554 S
C567 C568 1.363 . S
C567 H570 0.929 . S
C568 C567 1.363 . S
C568 C574 1.428 . S
H569 C565 0.930 . S
H570 C567 0.929 . S
S571 N572 1.613 . S
S571 N573 1.610 1_556 S
N572 S571 1.613 . S
N572 C575 1.350 . S
N573 S571 1.610 1_554 S
N573 C574 1.351 . S
C574 C568 1.428 . S
C574 N573 1.351 . S
C574 C575 1.434 1_554 S
C575 C566 1.429 . S
C575 N572 1.350 . S
C575 C574 1.434 1_556 S
C225 C13 1.367 . S
C227 C50 1.290 . S
C236 C8 1.298 . S
C238 C27 1.369 . S
C247 C22 1.292 . S
C249 C41 1.368 . S
C258 C36 1.289 . S
C260 C55 1.362 . S
C269 C69 1.362 . S
C271 C78 1.285 . S
C280 C83 1.371 . S
C282 C92 1.296 . S
C291 C97 1.370 . S
C293 C106 1.296 . S
C302 C111 1.370 . S
C304 C64 1.293 . S
C313 C125 1.360 . S
C315 C162 1.287 . S
C324 C120 1.289 . S
C326 C139 1.362 . S
C335 C134 1.288 . S
C337 C153 1.366 . S
C346 C167 1.365 . S
C348 C148 1.287 . S
C357 C190 1.284 . S
C359 C181 1.363 . S
C368 C204 1.282 . S
C370 C195 1.360 . S
C379 C209 1.367 . S
C381 C218 1.289 . S
C390 C223 1.361 . S
C392 C176 1.289 . S
C401 C11 1.186 . S
C403 C221 1.192 . S
C412 C25 1.193 . S
C414 C179 1.187 . S
C423 C193 1.192 . S
C425 C39 1.187 . S
C434 C53 1.186 . S
C436 C207 1.190 . S
C445 C137 1.193 . S
C447 C67 1.191 . S
C456 C151 1.194 . S
C458 C81 1.191 . S
C467 C95 1.186 . S
C469 C165 1.192 . S
C478 C109 1.189 . S
C480 C123 1.193 . S
C489 C7 1.444 . S
C491 C91 1.443 . S
C500 C105 1.436 . S
C502 C21 1.438 . S
C511 C63 1.444 . S
C513 C35 1.443 . S
C522 C77 1.438 . S
C524 C49 1.441 . S
C533 C119 1.435 . S
C535 C203 1.437 . S
C544 C133 1.438 . S
C546 C217 1.437 . S
C555 C175 1.440 . S
C557 C147 1.438 . S
C566 C161 1.443 . S
C568 C189 1.441 . S
