# Generated by pormake.
# Topology som, (6)-cn, num edge types: 1
# Building blocks:
#     Node 0, Type 0, BuildingBlock: BETDIP_clean_sbu_0, # of connection points: 6
#     Node 1, Type 0, BuildingBlock: BETDIP_clean_sbu_0, # of connection points: 6
#     Node 2, Type 0, BuildingBlock: BETDIP_clean_sbu_0, # of connection points: 6
#     Node 3, Type 0, BuildingBlock: BETDIP_clean_sbu_0, # of connection points: 6
#     Node 4, Type 0, BuildingBlock: BETDIP_clean_sbu_0, # of connection points: 6
#     Node 5, Type 0, BuildingBlock: BETDIP_clean_sbu_0, # of connection points: 6
#     Node 6, Type 0, BuildingBlock: BETDIP_clean_sbu_0, # of connection points: 6
#     Node 7, Type 0, BuildingBlock: BETDIP_clean_sbu_0, # of connection points: 6
#     Node 8, Type 0, BuildingBlock: BETDIP_clean_sbu_0, # of connection points: 6
#     Node 9, Type 0, BuildingBlock: BETDIP_clean_sbu_0, # of connection points: 6
#     Node 10, Type 0, BuildingBlock: BETDIP_clean_sbu_0, # of connection points: 6
#     Node 11, Type 0, BuildingBlock: BETDIP_clean_sbu_0, # of connection points: 6
#     Node 12, Type 0, BuildingBlock: BETDIP_clean_sbu_0, # of connection points: 6
#     Node 13, Type 0, BuildingBlock: BETDIP_clean_sbu_0, # of connection points: 6
#     Node 14, Type 0, BuildingBlock: BETDIP_clean_sbu_0, # of connection points: 6
#     Node 15, Type 0, BuildingBlock: BETDIP_clean_sbu_0, # of connection points: 6
#     Node 16, Type 0, BuildingBlock: BETDIP_clean_sbu_0, # of connection points: 6
#     Node 17, Type 0, BuildingBlock: BETDIP_clean_sbu_0, # of connection points: 6
#     Node 18, Type 0, BuildingBlock: BETDIP_clean_sbu_0, # of connection points: 6
#     Node 19, Type 0, BuildingBlock: BETDIP_clean_sbu_0, # of connection points: 6
#     Node 20, Type 0, BuildingBlock: BETDIP_clean_sbu_0, # of connection points: 6
#     Node 21, Type 0, BuildingBlock: BETDIP_clean_sbu_0, # of connection points: 6
#     Node 22, Type 0, BuildingBlock: BETDIP_clean_sbu_0, # of connection points: 6
#     Node 23, Type 0, BuildingBlock: BETDIP_clean_sbu_0, # of connection points: 6
#     Node 24, Type 0, BuildingBlock: BETDIP_clean_sbu_0, # of connection points: 6
#     Node 25, Type 0, BuildingBlock: BETDIP_clean_sbu_0, # of connection points: 6
#     Node 26, Type 0, BuildingBlock: BETDIP_clean_sbu_0, # of connection points: 6
#     Node 27, Type 0, BuildingBlock: BETDIP_clean_sbu_0, # of connection points: 6
#     Node 28, Type 0, BuildingBlock: BETDIP_clean_sbu_0, # of connection points: 6
#     Node 29, Type 0, BuildingBlock: BETDIP_clean_sbu_0, # of connection points: 6
#     Node 30, Type 0, BuildingBlock: BETDIP_clean_sbu_0, # of connection points: 6
#     Node 31, Type 0, BuildingBlock: BETDIP_clean_sbu_0, # of connection points: 6
#     Edge 32, Type (0, 0), None
#     Edge 33, Type (0, 0), None
#     Edge 34, Type (0, 0), None
#     Edge 35, Type (0, 0), None
#     Edge 36, Type (0, 0), None
#     Edge 37, Type (0, 0), None
#     Edge 38, Type (0, 0), None
#     Edge 39, Type (0, 0), None
#     Edge 40, Type (0, 0), None
#     Edge 41, Type (0, 0), None
#     Edge 42, Type (0, 0), None
#     Edge 43, Type (0, 0), None
#     Edge 44, Type (0, 0), None
#     Edge 45, Type (0, 0), None
#     Edge 46, Type (0, 0), None
#     Edge 47, Type (0, 0), None
#     Edge 48, Type (0, 0), None
#     Edge 49, Type (0, 0), None
#     Edge 50, Type (0, 0), None
#     Edge 51, Type (0, 0), None
#     Edge 52, Type (0, 0), None
#     Edge 53, Type (0, 0), None
#     Edge 54, Type (0, 0), None
#     Edge 55, Type (0, 0), None
#     Edge 56, Type (0, 0), None
#     Edge 57, Type (0, 0), None
#     Edge 58, Type (0, 0), None
#     Edge 59, Type (0, 0), None
#     Edge 60, Type (0, 0), None
#     Edge 61, Type (0, 0), None
#     Edge 62, Type (0, 0), None
#     Edge 63, Type (0, 0), None
#     Edge 64, Type (0, 0), None
#     Edge 65, Type (0, 0), None
#     Edge 66, Type (0, 0), None
#     Edge 67, Type (0, 0), None
#     Edge 68, Type (0, 0), None
#     Edge 69, Type (0, 0), None
#     Edge 70, Type (0, 0), None
#     Edge 71, Type (0, 0), None
#     Edge 72, Type (0, 0), None
#     Edge 73, Type (0, 0), None
#     Edge 74, Type (0, 0), None
#     Edge 75, Type (0, 0), None
#     Edge 76, Type (0, 0), None
#     Edge 77, Type (0, 0), None
#     Edge 78, Type (0, 0), None
#     Edge 79, Type (0, 0), None
#     Edge 80, Type (0, 0), None
#     Edge 81, Type (0, 0), None
#     Edge 82, Type (0, 0), None
#     Edge 83, Type (0, 0), None
#     Edge 84, Type (0, 0), None
#     Edge 85, Type (0, 0), None
#     Edge 86, Type (0, 0), None
#     Edge 87, Type (0, 0), None
#     Edge 88, Type (0, 0), None
#     Edge 89, Type (0, 0), None
#     Edge 90, Type (0, 0), None
#     Edge 91, Type (0, 0), None
#     Edge 92, Type (0, 0), None
#     Edge 93, Type (0, 0), None
#     Edge 94, Type (0, 0), None
#     Edge 95, Type (0, 0), None
#     Edge 96, Type (0, 0), None
#     Edge 97, Type (0, 0), None
#     Edge 98, Type (0, 0), None
#     Edge 99, Type (0, 0), None
#     Edge 100, Type (0, 0), None
#     Edge 101, Type (0, 0), None
#     Edge 102, Type (0, 0), None
#     Edge 103, Type (0, 0), None
#     Edge 104, Type (0, 0), None
#     Edge 105, Type (0, 0), None
#     Edge 106, Type (0, 0), None
#     Edge 107, Type (0, 0), None
#     Edge 108, Type (0, 0), None
#     Edge 109, Type (0, 0), None
#     Edge 110, Type (0, 0), None
#     Edge 111, Type (0, 0), None
#     Edge 112, Type (0, 0), None
#     Edge 113, Type (0, 0), None
#     Edge 114, Type (0, 0), None
#     Edge 115, Type (0, 0), None
#     Edge 116, Type (0, 0), None
#     Edge 117, Type (0, 0), None
#     Edge 118, Type (0, 0), None
#     Edge 119, Type (0, 0), None
#     Edge 120, Type (0, 0), None
#     Edge 121, Type (0, 0), None
#     Edge 122, Type (0, 0), None
#     Edge 123, Type (0, 0), None
#     Edge 124, Type (0, 0), None
#     Edge 125, Type (0, 0), None
#     Edge 126, Type (0, 0), None
#     Edge 127, Type (0, 0), None
# Relax obj value: 0.097
# Max RMSD: 0.187
# Mean RMSD: 0.187
data_MOF--net-som--node1-BETDIP_clean_sbu_0--edge1-none
_symmetry_space_group_name_H-M    P1
_symmetry_Int_Tables_number       1
_symmetry_cell_setting            triclinic
loop_
_symmetry_equiv_pos_as_xyz
'x, y, z'
_cell_length_a     15.88829
_cell_length_b     23.00834
_cell_length_c     44.50876
_cell_angle_alpha  90.117349
_cell_angle_beta   89.999579
_cell_angle_gamma 89.998119
loop_
_atom_site_label
_atom_site_type_symbol
_atom_site_fract_x
_atom_site_fract_y
_atom_site_fract_z
_atom_type_partial_charge
Tb0 Tb 1.0252 0.46999 0.1028 0.0
Tb1 Tb 0.17485 0.38708 0.08817 0.0
C2 C 0.88438 0.51543 0.09647 0.0
C3 C 0.80346 0.49104 0.08635 0.0
C4 C 0.79659 0.43465 0.0742 0.0
C5 C 0.71731 0.40932 0.06996 0.0
C6 C 0.64465 0.44119 0.07671 0.0
C7 C 0.65209 0.49982 0.08464 0.0
C8 C 0.731 0.52424 0.08973 0.0
C9 C 0.14744 0.45871 0.14475 0.0
C10 C 0.98731 0.33302 0.09788 0.0
C11 C 0.31592 0.34104 0.0933 0.0
C12 C 0.4009 0.36503 0.08812 0.0
C13 C 0.44616 0.38725 0.11261 0.0
C14 C 0.52597 0.41042 0.10852 0.0
C15 C 0.5623 0.41266 0.07993 0.0
C16 C 0.51912 0.38874 0.05541 0.0
C17 C 0.43829 0.36554 0.05937 0.0
C18 C 0.11098 0.42748 0.03882 0.0
C19 C 0.18367 0.53129 0.08318 0.0
O20 O 0.94297 0.51746 0.07578 0.0
O21 O 0.91264 0.4973 0.12269 0.0
O22 O 0.11746 0.41993 0.12738 0.0
O23 O 0.09971 0.50443 0.14117 0.0
O24 O 0.96039 0.3863 0.10268 0.0
O25 O 1.06982 0.32166 0.09363 0.0
O26 O 0.27457 0.3632 0.11602 0.0
O27 O 0.26803 0.33288 0.06974 0.0
O28 O 0.0869 0.43515 0.06536 0.0
O29 O 0.17195 0.39047 0.03895 0.0
O30 O 0.22374 0.47987 0.08676 0.0
O31 O 0.10178 0.53624 0.08432 0.0
H32 H 0.85167 0.40973 0.06847 0.0
H33 H 0.71292 0.36449 0.06274 0.0
H34 H 0.5964 0.52543 0.08885 0.0
H35 H 0.73575 0.56819 0.09757 0.0
H36 H 0.42043 0.38578 0.13513 0.0
H37 H 0.56029 0.42569 0.12785 0.0
H38 H 0.54774 0.38811 0.0334 0.0
H39 H 0.4056 0.34774 0.04008 0.0
Tb40 Tb 0.37031 0.65292 0.11001 0.0
Tb41 Tb 0.23523 0.73089 0.09008 0.0
C42 C 0.50948 0.61184 0.12368 0.0
C43 C 0.59385 0.63581 0.11828 0.0
C44 C 0.61556 0.66289 0.09104 0.0
C45 C 0.69607 0.68638 0.08718 0.0
C46 C 0.75579 0.68316 0.11052 0.0
C47 C 0.73226 0.6575 0.13782 0.0
C48 C 0.65246 0.63399 0.14146 0.0
C49 C 0.23745 0.66665 0.14794 0.0
C50 C 0.42019 0.78533 0.09827 0.0
C51 C 0.09109 0.77397 0.09381 0.0
C52 C 1.00766 0.74726 0.09835 0.0
C53 C 0.96796 0.75175 0.12634 0.0
C54 C 0.88638 0.73091 0.13031 0.0
C55 C 0.84309 0.70435 0.10636 0.0
C56 C 0.88395 0.69816 0.07854 0.0
C57 C 0.96526 0.71962 0.07452 0.0
C58 C 0.30321 0.69924 0.04077 0.0
C59 C 0.2301 0.58681 0.0838 0.0
O60 O 0.46741 0.59469 0.09993 0.0
O61 O 0.46325 0.64147 0.14264 0.0
O62 O 0.27576 0.70459 0.13254 0.0
O63 O 0.27836 0.61891 0.14339 0.0
O64 O 0.44521 0.7313 0.10126 0.0
O65 O 0.33768 0.79735 0.09597 0.0
O66 O 0.14341 0.77275 0.11646 0.0
O67 O 0.12814 0.76266 0.06836 0.0
O68 O 0.32807 0.6821 0.06659 0.0
O69 O 0.25023 0.74156 0.04265 0.0
O70 O 0.1888 0.63755 0.08768 0.0
O71 O 0.31143 0.58367 0.08691 0.0
H72 H 0.5707 0.66577 0.07277 0.0
H73 H 0.7114 0.70691 0.066 0.0
H74 H 0.77622 0.65371 0.1561 0.0
H75 H 0.63604 0.61374 0.16237 0.0
H76 H 0.99884 0.77373 0.14478 0.0
H77 H 0.8562 0.73764 0.15184 0.0
H78 H 0.8532 0.67684 0.0598 0.0
H79 H 0.99414 0.71529 0.05258 0.0
Tb80 Tb 1.02527 0.65819 0.20208 0.0
Tb81 Tb 0.17487 0.7411 0.21674 0.0
C82 C 0.88445 0.61274 0.20839 0.0
C83 C 0.80352 0.63711 0.21851 0.0
C84 C 0.79663 0.69349 0.23068 0.0
C85 C 0.71734 0.7188 0.23493 0.0
C86 C 0.64469 0.68694 0.22817 0.0
C87 C 0.65214 0.62832 0.22022 0.0
C88 C 0.73107 0.60391 0.21512 0.0
C89 C 0.1476 0.66944 0.16019 0.0
C90 C 0.98733 0.79517 0.20702 0.0
C91 C 0.31595 0.78714 0.21163 0.0
C92 C 0.40093 0.76312 0.21679 0.0
C93 C 0.44614 0.74085 0.1923 0.0
C94 C 0.52595 0.71767 0.19638 0.0
C95 C 0.56233 0.71546 0.22496 0.0
C96 C 0.5192 0.73942 0.24948 0.0
C97 C 0.43837 0.76264 0.24553 0.0
C98 C 0.11097 0.7007 0.26608 0.0
C99 C 0.1837 0.59689 0.22173 0.0
O100 O 0.94303 0.61068 0.22908 0.0
O101 O 0.91271 0.63091 0.18217 0.0
O102 O 0.11756 0.70825 0.17752 0.0
O103 O 0.09981 0.62373 0.16372 0.0
O104 O 0.96043 0.74189 0.20221 0.0
O105 O 1.06983 0.80653 0.21128 0.0
O106 O 0.27458 0.76503 0.1889 0.0
O107 O 0.26808 0.79526 0.23519 0.0
O108 O 0.08691 0.69303 0.23953 0.0
O109 O 0.17193 0.73772 0.26596 0.0
O110 O 0.22377 0.64831 0.21816 0.0
O111 O 0.10181 0.59194 0.22058 0.0
H112 H 0.8517 0.71841 0.23642 0.0
H113 H 0.71294 0.76363 0.24216 0.0
H114 H 0.59646 0.60271 0.216 0.0
H115 H 0.73583 0.55997 0.20727 0.0
H116 H 0.42036 0.7423 0.16979 0.0
H117 H 0.56022 0.70236 0.17705 0.0
H118 H 0.54787 0.74008 0.27148 0.0
H119 H 0.40573 0.78048 0.26482 0.0
Tb120 Tb 0.37027 0.47524 0.19487 0.0
Tb121 Tb 0.23519 0.39726 0.21483 0.0
C122 C 0.50943 0.5163 0.18116 0.0
C123 C 0.5938 0.49234 0.18658 0.0
C124 C 0.6155 0.46528 0.21383 0.0
C125 C 0.69602 0.4418 0.2177 0.0
C126 C 0.75575 0.445 0.19435 0.0
C127 C 0.73223 0.47063 0.16704 0.0
C128 C 0.65242 0.49414 0.1634 0.0
C129 C 0.23729 0.46153 0.157 0.0
C130 C 0.42017 0.34284 0.20664 0.0
C131 C 0.09105 0.3542 0.21112 0.0
C132 C 1.00763 0.38092 0.20656 0.0
C133 C 0.96795 0.37641 0.17856 0.0
C134 C 0.88637 0.39724 0.17458 0.0
C135 C 0.84305 0.42382 0.19852 0.0
C136 C 0.88389 0.43003 0.22635 0.0
C137 C 0.96519 0.40858 0.23038 0.0
C138 C 0.30323 0.42891 0.26412 0.0
C139 C 0.23011 0.54136 0.22112 0.0
O140 O 0.46737 0.53349 0.20491 0.0
O141 O 0.46319 0.48663 0.16222 0.0
O142 O 0.27565 0.42357 0.17237 0.0
O143 O 0.27828 0.50926 0.16149 0.0
O144 O 0.44517 0.39687 0.20364 0.0
O145 O 0.33767 0.33081 0.20893 0.0
O146 O 0.14338 0.35535 0.18847 0.0
O147 O 0.12809 0.36556 0.23656 0.0
O148 O 0.32806 0.44605 0.23829 0.0
O149 O 0.25027 0.38658 0.26225 0.0
O150 O 0.18881 0.49062 0.21724 0.0
O151 O 0.31144 0.54449 0.21798 0.0
H152 H 0.57064 0.46241 0.23209 0.0
H153 H 0.71134 0.42129 0.23888 0.0
H154 H 0.77618 0.4744 0.14877 0.0
H155 H 0.636 0.51438 0.14248 0.0
H156 H 0.99885 0.35441 0.16013 0.0
H157 H 0.85621 0.3905 0.15305 0.0
H158 H 0.85312 0.45136 0.24508 0.0
H159 H 0.99406 0.41291 0.25232 0.0
Tb160 Tb 0.98423 0.48886 0.96937 0.0
Tb161 Tb 0.12597 0.41156 0.94839 0.0
C162 C 0.84043 0.53187 0.97558 0.0
C163 C 0.75464 0.50766 0.97588 0.0
C164 C 0.72052 0.48117 0.95024 0.0
C165 C 0.63921 0.45888 0.95098 0.0
C166 C 0.59093 0.46141 0.97726 0.0
C167 C 0.62376 0.48909 1.00272 0.0
C168 C 0.70555 0.51164 1.00212 0.0
C169 C 0.08331 0.45716 1.01216 0.0
C170 C 0.97331 0.34459 0.96661 0.0
C171 C 0.26728 0.36574 0.95199 0.0
C172 C 0.34793 0.38851 0.96332 0.0
C173 C 0.35492 0.44279 0.97787 0.0
C174 C 0.43429 0.46636 0.98412 0.0
C175 C 0.50679 0.43446 0.97719 0.0
C176 C 0.49848 0.37712 0.96713 0.0
C177 C 0.41968 0.35479 0.95982 0.0
C178 C 1.00061 0.42908 0.90861 0.0
C179 C 0.16563 0.54582 0.95714 0.0
O180 O 0.88133 0.53167 0.94994 0.0
O181 O 0.88776 0.51621 0.99808 0.0
O182 O 1.06266 0.42846 0.98945 0.0
O183 O 1.04343 0.50623 1.01263 0.0
O184 O 0.93442 0.39663 0.96796 0.0
O185 O 1.05384 0.33938 0.96183 0.0
O186 O 0.20931 0.35979 0.97261 0.0
O187 O 0.23821 0.38812 0.92678 0.0
O188 O 1.0322 0.46542 0.927 0.0
O189 O 1.04928 0.38329 0.90944 0.0
O190 O 0.19226 0.49341 0.95119 0.0
O191 O 0.08366 0.55662 0.96198 0.0
H192 H 0.75589 0.47833 0.92952 0.0
H193 H 0.61276 0.44044 0.93087 0.0
H194 H 0.58618 0.49341 1.02285 0.0
H195 H 0.73018 0.53286 1.022 0.0
H196 H 0.3001 0.46727 0.98426 0.0
H197 H 0.43898 0.50989 0.99326 0.0
H198 H 0.55381 0.3512 0.96302 0.0
H199 H 0.41446 0.31212 0.95033 0.0
Tb200 Tb 0.91627 0.14634 0.96626 0.0
Tb201 Tb 0.78194 0.22171 0.94619 0.0
C202 C 1.06093 0.10356 0.96818 0.0
C203 C 0.1456 0.12783 0.96298 0.0
C204 C 0.18548 0.11988 0.93515 0.0
C205 C 0.26735 0.13977 0.93067 0.0
C206 C 0.31089 0.16872 0.95383 0.0
C207 C 0.27013 0.17769 0.9815 0.0
C208 C 0.18862 0.15713 0.98609 0.0
C209 C 0.82425 0.17384 1.01174 0.0
C210 C 0.92598 0.29055 0.96678 0.0
C211 C 0.64225 0.26373 0.93426 0.0
C212 C 0.55858 0.23897 0.94011 0.0
C213 C 0.53672 0.21543 0.96821 0.0
C214 C 0.4569 0.19137 0.97263 0.0
C215 C 0.39797 0.19011 0.94899 0.0
C216 C 0.42191 0.21179 0.92078 0.0
C217 C 0.50086 0.23662 0.91665 0.0
C218 C 0.90886 0.20177 0.90628 0.0
C219 C 0.73225 0.09265 0.9577 0.0
O220 O 1.01166 0.09872 0.94478 0.0
O221 O 1.02095 0.12248 0.99187 0.0
O222 O 0.84001 0.20615 0.98946 0.0
O223 O 0.86141 0.12387 1.00918 0.0
O224 O 0.96549 0.23883 0.96516 0.0
O225 O 0.84467 0.29451 0.96421 0.0
O226 O 0.68582 0.27962 0.95789 0.0
O227 O 0.68749 0.23543 0.91449 0.0
O228 O 0.87192 0.16617 0.92345 0.0
O229 O 0.86876 0.25033 0.90986 0.0
O230 O 0.70722 0.14649 0.95842 0.0
O231 O 0.81483 0.0806 0.95742 0.0
H232 H 0.15428 0.09678 0.91709 0.0
H233 H 0.29716 0.13091 0.90928 0.0
H234 H 0.30081 0.20085 0.99965 0.0
H235 H 0.15976 0.16383 1.00788 0.0
H236 H 0.5809 0.21577 0.98674 0.0
H237 H 0.44167 0.17367 0.9945 0.0
H238 H 0.37852 0.2122 0.90221 0.0
H239 H 0.51674 0.25578 0.89543 0.0
Tb240 Tb 0.9842 0.13928 0.8355 0.0
Tb241 Tb 0.12592 0.21657 0.85653 0.0
C242 C 0.8404 0.09629 0.82926 0.0
C243 C 0.75462 0.12051 0.82897 0.0
C244 C 0.72057 0.14705 0.8546 0.0
C245 C 0.63926 0.16936 0.85388 0.0
C246 C 0.59091 0.16679 0.82762 0.0
C247 C 0.62369 0.13907 0.80216 0.0
C248 C 0.70547 0.11651 0.80274 0.0
C249 C 0.08352 0.17095 0.79275 0.0
C250 C 0.97332 0.28355 0.83824 0.0
C251 C 0.26725 0.26238 0.85297 0.0
C252 C 0.34789 0.23963 0.84162 0.0
C253 C 0.35489 0.18537 0.82707 0.0
C254 C 0.43426 0.16182 0.82079 0.0
C255 C 0.50676 0.19374 0.82771 0.0
C256 C 0.49843 0.25107 0.83778 0.0
C257 C 0.41963 0.27338 0.84511 0.0
C258 C 1.00042 0.1991 0.89624 0.0
C259 C 0.1656 0.08232 0.84775 0.0
O260 O 0.8813 0.09641 0.85489 0.0
O261 O 0.88773 0.11202 0.80677 0.0
O262 O 1.06275 0.19963 0.81545 0.0
O263 O 1.04347 0.12195 0.79225 0.0
O264 O 0.93441 0.23152 0.83689 0.0
O265 O 1.05384 0.28874 0.84305 0.0
O266 O 0.20927 0.2684 0.83235 0.0
O267 O 0.23816 0.23994 0.87816 0.0
O268 O 1.03206 0.16272 0.87788 0.0
O269 O 1.04914 0.24487 0.89546 0.0
O270 O 0.19221 0.13472 0.85373 0.0
O271 O 0.08363 0.07152 0.84289 0.0
H272 H 0.75598 0.14991 0.87532 0.0
H273 H 0.61287 0.18784 0.87399 0.0
H274 H 0.58606 0.13473 0.78205 0.0
H275 H 0.73005 0.09526 0.78287 0.0
H276 H 0.30008 0.16087 0.82068 0.0
H277 H 0.43896 0.1183 0.81165 0.0
H278 H 0.55375 0.277 0.84189 0.0
H279 H 0.4144 0.31604 0.8546 0.0
Tb280 Tb 0.91633 0.48183 0.83861 0.0
Tb281 Tb 0.78202 0.40645 0.85872 0.0
C282 C 1.06099 0.52459 0.83668 0.0
C283 C 0.14566 0.50032 0.8419 0.0
C284 C 0.18549 0.50825 0.86973 0.0
C285 C 0.26736 0.48836 0.87423 0.0
C286 C 0.31095 0.45943 0.85107 0.0
C287 C 0.27023 0.45048 0.82339 0.0
C288 C 0.18873 0.47104 0.81879 0.0
C289 C 0.82426 0.45432 0.79315 0.0
C290 C 0.92601 0.3376 0.83808 0.0
C291 C 0.64233 0.36446 0.87068 0.0
C292 C 0.55865 0.3892 0.86482 0.0
C293 C 0.53682 0.41276 0.83673 0.0
C294 C 0.457 0.43682 0.83229 0.0
C295 C 0.39803 0.43805 0.85592 0.0
C296 C 0.42193 0.41634 0.88413 0.0
C297 C 0.50089 0.39151 0.88827 0.0
C298 C 0.90906 0.42636 0.89856 0.0
C299 C 0.73229 0.53551 0.84719 0.0
O300 O 1.01171 0.52947 0.86007 0.0
O301 O 1.02102 0.50563 0.813 0.0
O302 O 0.84002 0.42202 0.81544 0.0
O303 O 0.86142 0.50429 0.79571 0.0
O304 O 0.96553 0.38932 0.8397 0.0
O305 O 0.8447 0.33365 0.84067 0.0
O306 O 0.68589 0.34852 0.84706 0.0
O307 O 0.68758 0.39279 0.89043 0.0
O308 O 0.87206 0.462 0.88143 0.0
O309 O 0.86889 0.37781 0.89504 0.0
O310 O 0.70728 0.48166 0.84648 0.0
O311 O 0.81487 0.54756 0.84745 0.0
H312 H 0.15426 0.53134 0.88779 0.0
H313 H 0.29714 0.4972 0.89563 0.0
H314 H 0.30095 0.42733 0.80524 0.0
H315 H 0.1599 0.46436 0.79699 0.0
H316 H 0.58103 0.41244 0.8182 0.0
H317 H 0.44179 0.45454 0.81043 0.0
H318 H 0.37852 0.4159 0.90269 0.0
H319 H 0.51674 0.37233 0.90949 0.0
Tb320 Tb 1.02522 -0.03001 0.6028 0.0
Tb321 Tb 0.17486 0.88708 0.58817 0.0
C322 C 0.88439 0.01543 0.59648 0.0
C323 C 0.80347 -0.00896 0.58636 0.0
C324 C 0.7966 0.93465 0.57421 0.0
C325 C 0.71732 0.90933 0.56996 0.0
C326 C 0.64466 -0.0588 0.57671 0.0
C327 C 0.6521 -0.00018 0.58465 0.0
C328 C 0.73101 0.02425 0.58974 0.0
C329 C 0.14746 -0.04129 0.64475 0.0
C330 C 0.98732 0.83302 0.59788 0.0
C331 C 0.31593 0.84104 0.5933 0.0
C332 C 0.40091 0.86504 0.58812 0.0
C333 C 0.44617 0.88726 0.61261 0.0
C334 C 0.52598 0.91044 0.60852 0.0
C335 C 0.56231 0.91267 0.57994 0.0
C336 C 0.51913 0.88874 0.55541 0.0
C337 C 0.4383 0.86554 0.55937 0.0
C338 C 0.11098 0.92748 0.53882 0.0
C339 C 0.18368 0.03129 0.58318 0.0
O340 O 0.94298 0.01747 0.57579 0.0
O341 O 0.91265 -0.00271 0.6227 0.0
O342 O 0.11748 0.91993 0.62739 0.0
O343 O 0.09973 0.00443 0.64117 0.0
O344 O 0.9604 0.88629 0.60268 0.0
O345 O 1.06983 0.82166 0.59363 0.0
O346 O 0.27457 0.86319 0.61602 0.0
O347 O 0.26804 0.83288 0.56974 0.0
O348 O 0.0869 0.93514 0.56537 0.0
O349 O 0.17196 0.89048 0.53895 0.0
O350 O 0.22374 -0.02013 0.58676 0.0
O351 O 0.10178 0.03624 0.58432 0.0
H352 H 0.85168 0.90973 0.56847 0.0
H353 H 0.71293 0.8645 0.56274 0.0
H354 H 0.59641 0.02543 0.58886 0.0
H355 H 0.73576 0.06819 0.59758 0.0
H356 H 0.42042 0.8858 0.63513 0.0
H357 H 0.56028 0.92571 0.62785 0.0
H358 H 0.54776 0.88811 0.53341 0.0
H359 H 0.40562 0.84773 0.54008 0.0
Tb360 Tb 0.37031 0.15293 0.61001 0.0
Tb361 Tb 0.23522 0.23089 0.59008 0.0
C362 C 0.50947 0.11184 0.62369 0.0
C363 C 0.59384 0.13581 0.61828 0.0
C364 C 0.61554 0.16289 0.59104 0.0
C365 C 0.69606 0.18638 0.58718 0.0
C366 C 0.75578 0.18316 0.61053 0.0
C367 C 0.73226 0.1575 0.63783 0.0
C368 C 0.65245 0.13399 0.64147 0.0
C369 C 0.23743 0.16665 0.64794 0.0
C370 C 0.42018 0.28533 0.59827 0.0
C371 C 0.09108 0.27396 0.59381 0.0
C372 C 1.00765 0.24726 0.59835 0.0
C373 C 0.96796 0.25174 0.62634 0.0
C374 C 0.88638 0.23091 0.63031 0.0
C375 C 0.84308 0.20435 0.60637 0.0
C376 C 0.88393 0.19816 0.57854 0.0
C377 C 0.96524 0.21962 0.57452 0.0
C378 C 0.30321 0.19924 0.54077 0.0
C379 C 0.2301 0.08681 0.5838 0.0
O380 O 0.4674 0.09469 0.59994 0.0
O381 O 0.46323 0.14148 0.64265 0.0
O382 O 0.27574 0.20459 0.63254 0.0
O383 O 0.27835 0.11891 0.64339 0.0
O384 O 0.4452 0.2313 0.60126 0.0
O385 O 0.33767 0.29735 0.59597 0.0
O386 O 0.1434 0.27276 0.61646 0.0
O387 O 0.12813 0.26265 0.56836 0.0
O388 O 0.32807 0.1821 0.5666 0.0
O389 O 0.25023 0.24156 0.54265 0.0
O390 O 0.1888 0.13755 0.58768 0.0
O391 O 0.31143 0.08368 0.58691 0.0
H392 H 0.57068 0.16577 0.57278 0.0
H393 H 0.71138 0.20691 0.566 0.0
H394 H 0.77621 0.15371 0.6561 0.0
H395 H 0.63603 0.11374 0.66238 0.0
H396 H 0.99884 0.27372 0.64478 0.0
H397 H 0.8562 0.23763 0.65185 0.0
H398 H 0.85318 0.17684 0.5598 0.0
H399 H 0.99412 0.21529 0.55258 0.0
Tb400 Tb 1.02526 0.15819 0.70209 0.0
Tb401 Tb 0.17487 0.24111 0.71674 0.0
C402 C 0.88444 0.11274 0.7084 0.0
C403 C 0.80351 0.13712 0.71852 0.0
C404 C 0.79662 0.1935 0.73069 0.0
C405 C 0.71733 0.21881 0.73493 0.0
C406 C 0.64469 0.18695 0.72818 0.0
C407 C 0.65214 0.12833 0.72022 0.0
C408 C 0.73106 0.10391 0.71513 0.0
C409 C 0.14757 0.16944 0.66019 0.0
C410 C 0.98732 0.29517 0.70703 0.0
C411 C 0.31595 0.28714 0.71161 0.0
C412 C 0.40093 0.26312 0.71679 0.0
C413 C 0.44615 0.24087 0.69229 0.0
C414 C 0.52596 0.21768 0.69638 0.0
C415 C 0.56232 0.21547 0.72496 0.0
C416 C 0.51918 0.23942 0.74948 0.0
C417 C 0.43835 0.26264 0.74553 0.0
C418 C 0.11105 0.20069 0.76609 0.0
C419 C 0.1837 0.09689 0.72174 0.0
O420 O 0.94302 0.11069 0.7291 0.0
O421 O 0.91271 0.1309 0.68219 0.0
O422 O 0.11754 0.20825 0.67752 0.0
O423 O 0.09979 0.12373 0.66373 0.0
O424 O 0.96042 0.24188 0.70222 0.0
O425 O 1.06982 0.30653 0.71128 0.0
O426 O 0.27458 0.26502 0.68889 0.0
O427 O 0.26807 0.29528 0.73518 0.0
O428 O 0.08693 0.19303 0.73954 0.0
O429 O 0.17197 0.23773 0.76595 0.0
O430 O 0.22376 0.14831 0.71816 0.0
O431 O 0.10181 0.09195 0.72059 0.0
H432 H 0.85169 0.21842 0.73643 0.0
H433 H 0.71293 0.26364 0.74216 0.0
H434 H 0.59646 0.10272 0.71601 0.0
H435 H 0.73582 0.05998 0.70728 0.0
H436 H 0.42038 0.24232 0.66978 0.0
H437 H 0.56024 0.20239 0.67704 0.0
H438 H 0.54783 0.24007 0.77148 0.0
H439 H 0.40569 0.28047 0.76482 0.0
Tb440 Tb 0.37028 -0.02475 0.69488 0.0
Tb441 Tb 0.23522 0.89728 0.71484 0.0
C442 C 0.50945 0.01631 0.68118 0.0
C443 C 0.59382 -0.00766 0.68659 0.0
C444 C 0.61552 -0.03472 0.71384 0.0
C445 C 0.69604 -0.05821 0.7177 0.0
C446 C 0.75576 -0.05501 0.69436 0.0
C447 C 0.73224 -0.02937 0.66705 0.0
C448 C 0.65244 -0.00586 0.6634 0.0
C449 C 0.23732 -0.03846 0.65701 0.0
C450 C 0.42018 0.84285 0.70664 0.0
C451 C 0.09107 0.85421 0.71112 0.0
C452 C 1.00764 0.88091 0.70656 0.0
C453 C 0.96796 0.8764 0.67857 0.0
C454 C 0.88638 0.89723 0.67459 0.0
C455 C 0.84306 0.92381 0.69853 0.0
C456 C 0.88391 0.93003 0.72636 0.0
C457 C 0.96521 0.90857 0.73039 0.0
C458 C 0.30323 0.9289 0.76413 0.0
C459 C 0.23012 0.04137 0.72112 0.0
O460 O 0.46739 0.03351 0.70492 0.0
O461 O 0.4632 -0.01336 0.66224 0.0
O462 O 0.27569 0.92358 0.67237 0.0
O463 O 0.2783 0.00927 0.6615 0.0
O464 O 0.44519 0.89688 0.70364 0.0
O465 O 0.33768 0.83081 0.70894 0.0
O466 O 0.1434 0.85537 0.68847 0.0
O467 O 0.12812 0.86556 0.73656 0.0
O468 O 0.32808 -0.05394 0.7383 0.0
O469 O 0.25028 0.88657 0.76225 0.0
O470 O 0.18882 -0.00937 0.71724 0.0
O471 O 0.31144 0.04451 0.71799 0.0
H472 H 0.57066 -0.03758 0.7321 0.0
H473 H 0.71136 0.92129 0.73889 0.0
H474 H 0.7762 -0.0256 0.64878 0.0
H475 H 0.63602 0.01438 0.64249 0.0
H476 H 0.99885 0.8544 0.66013 0.0
H477 H 0.85621 0.89049 0.65306 0.0
H478 H 0.85315 -0.04864 0.74509 0.0
H479 H 0.99408 0.91291 0.75232 0.0
Tb480 Tb 0.98421 -0.01114 0.46937 0.0
Tb481 Tb 0.12596 0.91156 0.44839 0.0
C482 C 0.84041 0.03187 0.47559 0.0
C483 C 0.75463 0.00765 0.47589 0.0
C484 C 0.72053 -0.01886 0.45026 0.0
C485 C 0.63922 -0.04115 0.451 0.0
C486 C 0.59092 -0.0386 0.47727 0.0
C487 C 0.62374 -0.0109 0.50273 0.0
C488 C 0.70552 0.01165 0.50214 0.0
C489 C 0.08331 -0.04284 0.51216 0.0
C490 C 0.9733 0.84459 0.46662 0.0
C491 C 0.26727 0.86575 0.45199 0.0
C492 C 0.34791 0.88852 0.46333 0.0
C493 C 0.35491 -0.0572 0.47787 0.0
C494 C 0.43427 -0.03364 0.48413 0.0
C495 C 0.50678 0.93445 0.4772 0.0
C496 C 0.49846 0.87711 0.46715 0.0
C497 C 0.41966 0.85478 0.45983 0.0
C498 C 1.00058 0.92908 0.40862 0.0
C499 C 0.16561 0.04583 0.45715 0.0
O500 O 0.88131 0.03168 0.44996 0.0
O501 O 0.88775 0.01619 0.49809 0.0
O502 O 1.06265 0.92846 0.48945 0.0
O503 O 1.04343 0.00623 0.51264 0.0
O504 O 0.93441 0.89663 0.46797 0.0
O505 O 1.05383 0.83939 0.46183 0.0
O506 O 0.20929 0.85979 0.47261 0.0
O507 O 0.23819 0.88813 0.42678 0.0
O508 O 1.03217 -0.03458 0.42701 0.0
O509 O 1.04926 0.88329 0.40945 0.0
O510 O 0.19224 -0.00658 0.45119 0.0
O511 O 0.08364 0.05662 0.46199 0.0
H512 H 0.7559 -0.02171 0.42954 0.0
H513 H 0.61278 -0.05961 0.43089 0.0
H514 H 0.58614 -0.00657 0.52285 0.0
H515 H 0.73014 0.03289 0.52201 0.0
H516 H 0.30009 -0.03272 0.48426 0.0
H517 H 0.43897 0.00989 0.49326 0.0
H518 H 0.55379 0.85118 0.46304 0.0
H519 H 0.41444 0.81211 0.45035 0.0
Tb520 Tb 0.91629 0.64633 0.46627 0.0
Tb521 Tb 0.78196 0.7217 0.44619 0.0
C522 C 1.06096 0.60357 0.46819 0.0
C523 C 0.14562 0.62784 0.46298 0.0
C524 C 0.18548 0.61991 0.43515 0.0
C525 C 0.26735 0.6398 0.43067 0.0
C526 C 0.31091 0.66873 0.45383 0.0
C527 C 0.27017 0.67768 0.4815 0.0
C528 C 0.18866 0.65712 0.4861 0.0
C529 C 0.82427 0.67383 0.51174 0.0
C530 C 0.92598 0.79055 0.46679 0.0
C531 C 0.64228 0.76372 0.43425 0.0
C532 C 0.5586 0.73897 0.4401 0.0
C533 C 0.53676 0.7154 0.46819 0.0
C534 C 0.45694 0.69134 0.47262 0.0
C535 C 0.39799 0.69011 0.44898 0.0
C536 C 0.42191 0.71182 0.42077 0.0
C537 C 0.50086 0.73665 0.41665 0.0
C538 C 0.9089 0.70176 0.40628 0.0
C539 C 0.73228 0.59264 0.45769 0.0
O540 O 1.01169 0.59871 0.44479 0.0
O541 O 1.02098 0.6225 0.49187 0.0
O542 O 0.84001 0.70613 0.48946 0.0
O543 O 0.86143 0.62385 0.50918 0.0
O544 O 0.9655 0.73883 0.46516 0.0
O545 O 0.84467 0.79451 0.46421 0.0
O546 O 0.68584 0.77962 0.45787 0.0
O547 O 0.68752 0.73541 0.41449 0.0
O548 O 0.87196 0.66616 0.42345 0.0
O549 O 0.8688 0.75032 0.40986 0.0
O550 O 0.70724 0.64648 0.45842 0.0
O551 O 0.81485 0.5806 0.45742 0.0
H552 H 0.15427 0.59682 0.41708 0.0
H553 H 0.29715 0.63095 0.40927 0.0
H554 H 0.30087 0.70083 0.49965 0.0
H555 H 0.15982 0.6638 0.50789 0.0
H556 H 0.58095 0.71572 0.48672 0.0
H557 H 0.44172 0.67362 0.49448 0.0
H558 H 0.37851 0.71226 0.40221 0.0
H559 H 0.51673 0.75583 0.39542 0.0
Tb560 Tb 0.98421 0.63927 0.33551 0.0
Tb561 Tb 0.12593 0.71657 0.35652 0.0
C562 C 0.84041 0.59629 0.32928 0.0
C563 C 0.75463 0.62051 0.32899 0.0
C564 C 0.72054 0.64703 0.35462 0.0
C565 C 0.63924 0.66933 0.35389 0.0
C566 C 0.59092 0.66679 0.32763 0.0
C567 C 0.62372 0.63909 0.30217 0.0
C568 C 0.7055 0.61653 0.30275 0.0
C569 C 0.08334 0.671 0.29274 0.0
C570 C 0.9733 0.78355 0.33826 0.0
C571 C 0.26724 0.76239 0.35294 0.0
C572 C 0.34789 0.73964 0.3416 0.0
C573 C 0.3549 0.68537 0.32705 0.0
C574 C 0.43427 0.66182 0.32078 0.0
C575 C 0.50677 0.69373 0.32771 0.0
C576 C 0.49844 0.75107 0.33778 0.0
C577 C 0.41963 0.77338 0.3451 0.0
C578 C 1.00047 0.69909 0.39624 0.0
C579 C 0.16563 0.58232 0.34774 0.0
O580 O 0.8813 0.59645 0.35491 0.0
O581 O 0.88774 0.61197 0.30679 0.0
O582 O 1.06267 0.69968 0.31545 0.0
O583 O 1.04345 0.62193 0.29225 0.0
O584 O 0.93441 0.73152 0.3369 0.0
O585 O 1.05382 0.78876 0.34307 0.0
O586 O 0.20926 0.76837 0.33232 0.0
O587 O 0.23816 0.73999 0.37814 0.0
O588 O 1.0321 0.66271 0.37788 0.0
O589 O 1.04918 0.74486 0.39546 0.0
O590 O 0.19223 0.63473 0.35372 0.0
O591 O 0.08366 0.57152 0.34289 0.0
H592 H 0.75593 0.64987 0.37535 0.0
H593 H 0.61282 0.68779 0.37401 0.0
H594 H 0.58612 0.63476 0.28204 0.0
H595 H 0.7301 0.59529 0.28288 0.0
H596 H 0.30009 0.66088 0.32065 0.0
H597 H 0.43898 0.6183 0.31164 0.0
H598 H 0.55376 0.77699 0.34189 0.0
H599 H 0.4144 0.81604 0.3546 0.0
Tb600 Tb 0.9163 -0.01817 0.33862 0.0
Tb601 Tb 0.78199 0.90645 0.35873 0.0
C602 C 1.06097 0.02459 0.33669 0.0
C603 C 0.14563 0.00033 0.34191 0.0
C604 C 0.18548 0.00827 0.36974 0.0
C605 C 0.26735 -0.01163 0.37423 0.0
C606 C 0.31093 -0.04057 0.35108 0.0
C607 C 0.2702 -0.04953 0.3234 0.0
C608 C 0.18869 -0.02897 0.3188 0.0
C609 C 0.82426 -0.04569 0.29316 0.0
C610 C 0.92599 0.8376 0.3381 0.0
C611 C 0.64231 0.86446 0.37068 0.0
C612 C 0.55863 0.8892 0.36483 0.0
C613 C 0.53679 0.91275 0.33673 0.0
C614 C 0.45697 0.93681 0.3323 0.0
C615 C 0.398 0.93805 0.35593 0.0
C616 C 0.42191 0.91634 0.38414 0.0
C617 C 0.50086 0.89152 0.38827 0.0
C618 C 0.90903 0.92636 0.39857 0.0
C619 C 0.73227 0.0355 0.3472 0.0
O620 O 1.01169 0.02947 0.36008 0.0
O621 O 1.02099 0.00563 0.31301 0.0
O622 O 0.84001 0.92201 0.31544 0.0
O623 O 0.8614 0.00429 0.29571 0.0
O624 O 0.9655 0.88933 0.33971 0.0
O625 O 0.84468 0.83365 0.34068 0.0
O626 O 0.68587 0.84852 0.34707 0.0
O627 O 0.68755 0.89279 0.39043 0.0
O628 O 0.87203 -0.038 0.38144 0.0
O629 O 0.86887 0.87781 0.39505 0.0
O630 O 0.70725 -0.01834 0.34649 0.0
O631 O 0.81484 0.04756 0.34746 0.0
H632 H 0.15426 0.03137 0.3878 0.0
H633 H 0.29713 -0.00278 0.39563 0.0
H634 H 0.30091 0.92731 0.30525 0.0
H635 H 0.15986 -0.03566 0.29701 0.0
H636 H 0.58099 0.91243 0.3182 0.0
H637 H 0.44176 -0.04548 0.31043 0.0
H638 H 0.3785 0.91591 0.4027 0.0
H639 H 0.51672 0.87234 0.4095 0.0
Tb640 Tb 0.52521 0.46999 0.60279 0.0
Tb641 Tb 0.67484 0.38708 0.58816 0.0
C642 C 0.38439 0.51544 0.59646 0.0
C643 C 0.30346 0.49104 0.58635 0.0
C644 C 0.29659 0.43465 0.57419 0.0
C645 C 0.21731 0.40933 0.56995 0.0
C646 C 0.14465 0.4412 0.5767 0.0
C647 C 0.15209 0.49983 0.58464 0.0
C648 C 0.23101 0.52425 0.58973 0.0
C649 C 0.64744 0.45871 0.64475 0.0
C650 C 0.4873 0.333 0.59788 0.0
C651 C 0.81592 0.34104 0.59329 0.0
C652 C 0.9009 0.36504 0.58811 0.0
C653 C 0.94616 0.38726 0.6126 0.0
C654 C 1.02597 0.41043 0.60851 0.0
C655 C 1.06229 0.41267 0.57993 0.0
C656 C 1.01912 0.38875 0.5554 0.0
C657 C 0.93829 0.36555 0.55936 0.0
C658 C 0.61098 0.42748 0.53881 0.0
C659 C 0.68369 0.5313 0.58318 0.0
O660 O 0.44297 0.51746 0.57577 0.0
O661 O 0.41264 0.4973 0.62269 0.0
O662 O 0.61746 0.41993 0.62738 0.0
O663 O 0.59971 0.50443 0.64116 0.0
O664 O 0.46038 0.38629 0.60267 0.0
O665 O 0.56982 0.32165 0.59363 0.0
O666 O 0.77457 0.3632 0.61601 0.0
O667 O 0.76803 0.33288 0.56974 0.0
O668 O 0.5869 0.43515 0.56536 0.0
O669 O 0.67195 0.39047 0.53895 0.0
O670 O 0.72375 0.47988 0.58676 0.0
O671 O 0.6018 0.53625 0.58432 0.0
H672 H 0.35167 0.40973 0.56846 0.0
H673 H 0.21292 0.3645 0.56273 0.0
H674 H 0.0964 0.52544 0.58885 0.0
H675 H 0.23576 0.56819 0.59757 0.0
H676 H 0.92043 0.38579 0.63512 0.0
H677 H 1.06029 0.4257 0.62784 0.0
H678 H 1.04774 0.38812 0.53339 0.0
H679 H 0.9056 0.34774 0.54008 0.0
Tb680 Tb 0.87036 0.65295 0.61 0.0
Tb681 Tb 0.73521 0.73092 0.59008 0.0
C682 C 1.00951 0.61184 0.62368 0.0
C683 C 0.09387 0.63581 0.61828 0.0
C684 C 0.11556 0.6629 0.59104 0.0
C685 C 0.19608 0.68638 0.58718 0.0
C686 C 0.25579 0.68316 0.61053 0.0
C687 C 0.23227 0.6575 0.63783 0.0
C688 C 0.15247 0.63399 0.64147 0.0
C689 C 0.73749 0.66665 0.64793 0.0
C690 C 0.92021 0.78534 0.59827 0.0
C691 C 0.59107 0.77398 0.59382 0.0
C692 C 0.50766 0.74725 0.59835 0.0
C693 C 0.46796 0.75174 0.62635 0.0
C694 C 0.38638 0.73091 0.63031 0.0
C695 C 0.34309 0.70434 0.60637 0.0
C696 C 0.38395 0.69815 0.57854 0.0
C697 C 0.46525 0.71961 0.57452 0.0
C698 C 0.80314 0.69923 0.54077 0.0
C699 C 0.73012 0.58683 0.5838 0.0
O700 O 0.96745 0.59469 0.59993 0.0
O701 O 0.96328 0.64148 0.64264 0.0
O702 O 0.77579 0.7046 0.63254 0.0
O703 O 0.77842 0.61892 0.64338 0.0
O704 O 0.94525 0.73132 0.60124 0.0
O705 O 0.8377 0.79737 0.59598 0.0
O706 O 0.64339 0.77278 0.61647 0.0
O707 O 0.62812 0.76267 0.56836 0.0
O708 O 0.82801 0.68213 0.5666 0.0
O709 O 0.75018 0.74156 0.54265 0.0
O710 O 0.68882 0.63757 0.58769 0.0
O711 O 0.81146 0.5837 0.58691 0.0
H712 H 1.07071 0.66578 0.57278 0.0
H713 H 0.2114 0.70691 0.566 0.0
H714 H 0.27622 0.65371 0.6561 0.0
H715 H 0.13604 0.61374 0.66238 0.0
H716 H 0.49884 0.77372 0.64479 0.0
H717 H 0.3562 0.73763 0.65185 0.0
H718 H 0.3532 0.67683 0.5598 0.0
H719 H 0.49414 0.71528 0.55259 0.0
Tb720 Tb 0.52527 0.65819 0.70208 0.0
Tb721 Tb 0.67487 0.7411 0.71675 0.0
C722 C 0.38445 0.61274 0.70839 0.0
C723 C 0.30352 0.63711 0.71851 0.0
C724 C 0.29663 0.69349 0.73068 0.0
C725 C 0.21734 0.7188 0.73494 0.0
C726 C 0.14469 0.68693 0.72818 0.0
C727 C 0.15214 0.62831 0.72022 0.0
C728 C 0.23107 0.6039 0.71512 0.0
C729 C 0.64762 0.66944 0.66019 0.0
C730 C 0.48732 0.79518 0.70703 0.0
C731 C 0.81595 0.78713 0.71163 0.0
C732 C 0.90093 0.76311 0.7168 0.0
C733 C 0.94614 0.74085 0.69231 0.0
C734 C 1.02595 0.71766 0.69639 0.0
C735 C 1.06232 0.71546 0.72496 0.0
C736 C 1.0192 0.73942 0.74949 0.0
C737 C 0.93837 0.76263 0.74554 0.0
C738 C 0.61098 0.7007 0.76609 0.0
C739 C 0.68371 0.59688 0.72173 0.0
O740 O 0.44303 0.61068 0.72908 0.0
O741 O 0.41271 0.63091 0.68218 0.0
O742 O 0.61758 0.70825 0.67752 0.0
O743 O 0.59982 0.62373 0.66372 0.0
O744 O 0.46042 0.74189 0.70222 0.0
O745 O 0.56983 0.80653 0.71128 0.0
O746 O 0.77458 0.76503 0.6889 0.0
O747 O 0.76808 0.79526 0.7352 0.0
O748 O 0.58691 0.69302 0.73954 0.0
O749 O 0.67193 0.73772 0.76596 0.0
O750 O 0.72377 0.64831 0.71816 0.0
O751 O 0.60182 0.59194 0.72059 0.0
H752 H 0.3517 0.7184 0.73642 0.0
H753 H 0.21293 0.76362 0.74217 0.0
H754 H 0.09646 0.6027 0.71601 0.0
H755 H 0.23583 0.55997 0.70727 0.0
H756 H 0.92036 0.74229 0.66979 0.0
H757 H 1.06022 0.70236 0.67705 0.0
H758 H 1.04786 0.74007 0.77149 0.0
H759 H 0.90573 0.78047 0.76483 0.0
Tb760 Tb 0.87028 0.47521 0.69487 0.0
Tb761 Tb 0.73521 0.39726 0.71483 0.0
C762 C 1.00943 0.51628 0.68116 0.0
C763 C 0.0938 0.49233 0.68658 0.0
C764 C 0.11551 0.46527 0.71382 0.0
C765 C 0.19602 0.44179 0.71769 0.0
C766 C 0.25575 0.445 0.69435 0.0
C767 C 0.23223 0.47063 0.66704 0.0
C768 C 0.15242 0.49414 0.66339 0.0
C769 C 0.7373 0.46153 0.657 0.0
C770 C 0.92018 0.34283 0.70664 0.0
C771 C 0.59106 0.35421 0.71111 0.0
C772 C 0.50763 0.38093 0.70656 0.0
C773 C 0.46796 0.37642 0.67856 0.0
C774 C 0.38638 0.39725 0.67458 0.0
C775 C 0.34306 0.42383 0.69852 0.0
C776 C 0.38389 0.43004 0.72635 0.0
C777 C 0.4652 0.40859 0.73038 0.0
C778 C 0.80316 0.42892 0.76413 0.0
C779 C 0.73013 0.54135 0.72111 0.0
O780 O 0.96736 0.53348 0.70491 0.0
O781 O 0.96319 0.48661 0.66222 0.0
O782 O 0.77566 0.42355 0.67236 0.0
O783 O 0.77829 0.50925 0.6615 0.0
O784 O 0.9452 0.39686 0.70364 0.0
O785 O 0.83768 0.3308 0.70893 0.0
O786 O 0.64339 0.35536 0.68847 0.0
O787 O 0.6281 0.36558 0.73656 0.0
O788 O 0.82805 0.44607 0.7383 0.0
O789 O 0.75027 0.38655 0.76225 0.0
O790 O 0.68882 0.49061 0.71724 0.0
O791 O 0.81145 0.54447 0.71798 0.0
H792 H 1.07064 0.46241 0.73209 0.0
H793 H 0.21135 0.42128 0.73888 0.0
H794 H 0.27618 0.47441 0.64876 0.0
H795 H 0.136 0.51438 0.64248 0.0
H796 H 0.49886 0.35442 0.66013 0.0
H797 H 0.35621 0.39051 0.65304 0.0
H798 H 0.35312 0.45137 0.74508 0.0
H799 H 0.49406 0.41292 0.75232 0.0
Tb800 Tb 0.48424 0.48886 0.46936 0.0
Tb801 Tb 0.62598 0.41156 0.44838 0.0
C802 C 0.34044 0.53187 0.47557 0.0
C803 C 0.25465 0.50766 0.47587 0.0
C804 C 0.22053 0.48118 0.45024 0.0
C805 C 0.13922 0.45889 0.45098 0.0
C806 C 0.09093 0.46142 0.47725 0.0
C807 C 0.12377 0.48909 0.50271 0.0
C808 C 0.20555 0.51164 0.50212 0.0
C809 C 0.58333 0.45716 0.51215 0.0
C810 C 0.47332 0.3446 0.4666 0.0
C811 C 0.76729 0.36575 0.45198 0.0
C812 C 0.84793 0.38852 0.46331 0.0
C813 C 0.85493 0.44279 0.47786 0.0
C814 C 0.93429 0.46636 0.48412 0.0
C815 C 1.00679 0.43446 0.47718 0.0
C816 C 0.99848 0.37712 0.46712 0.0
C817 C 0.91968 0.3548 0.4598 0.0
C818 C 0.50061 0.42909 0.4086 0.0
C819 C 0.66564 0.54582 0.45713 0.0
O820 O 0.38133 0.53168 0.44994 0.0
O821 O 0.38777 0.5162 0.49807 0.0
O822 O 0.56267 0.42846 0.48944 0.0
O823 O 0.54344 0.50623 0.51263 0.0
O824 O 0.43443 0.39663 0.46795 0.0
O825 O 0.55385 0.33939 0.46182 0.0
O826 O 0.70931 0.35979 0.4726 0.0
O827 O 0.73821 0.38813 0.42677 0.0
O828 O 0.5322 0.46543 0.427 0.0
O829 O 0.54927 0.3833 0.40944 0.0
O830 O 0.69227 0.49341 0.45118 0.0
O831 O 0.58366 0.55662 0.46197 0.0
H832 H 0.2559 0.47834 0.42951 0.0
H833 H 0.11277 0.44045 0.43086 0.0
H834 H 0.08618 0.49341 0.52284 0.0
H835 H 0.23018 0.53286 0.522 0.0
H836 H 0.8001 0.46727 0.48426 0.0
H837 H 0.93898 0.50989 0.49325 0.0
H838 H 1.05381 0.35121 0.463 0.0
H839 H 0.91447 0.31213 0.45031 0.0
Tb840 Tb 0.41627 0.14634 0.46627 0.0
Tb841 Tb 0.28195 0.2217 0.4462 0.0
C842 C 0.56094 0.10356 0.46818 0.0
C843 C 0.6456 0.12783 0.46298 0.0
C844 C 0.68549 0.11987 0.43516 0.0
C845 C 0.76737 0.13976 0.43068 0.0
C846 C 0.8109 0.16872 0.45384 0.0
C847 C 0.77012 0.17769 0.48151 0.0
C848 C 0.68861 0.15714 0.48609 0.0
C849 C 0.32442 0.17388 0.51175 0.0
C850 C 0.426 0.29056 0.46677 0.0
C851 C 0.14226 0.26372 0.43428 0.0
C852 C 1.05859 0.23896 0.44012 0.0
C853 C 1.03672 0.21544 0.46822 0.0
C854 C 0.9569 0.19137 0.47265 0.0
C855 C 0.89797 0.1901 0.449 0.0
C856 C 0.92192 0.21178 0.42079 0.0
C857 C 1.00087 0.23661 0.41666 0.0
C858 C 0.40885 0.20175 0.40628 0.0
C859 C 0.23225 0.09265 0.45771 0.0
O860 O 0.51167 0.09874 0.44477 0.0
O861 O 0.52095 0.12246 0.49187 0.0
O862 O 0.34007 0.20619 0.48946 0.0
O863 O 0.36142 0.12386 0.50918 0.0
O864 O 0.46551 0.23883 0.46515 0.0
O865 O 0.34469 0.29452 0.4642 0.0
O866 O 0.18583 0.27961 0.4579 0.0
O867 O 0.1875 0.23543 0.4145 0.0
O868 O 0.37191 0.16616 0.42345 0.0
O869 O 0.36875 0.25032 0.40986 0.0
O870 O 0.20723 0.14649 0.45844 0.0
O871 O 0.31483 0.0806 0.45743 0.0
H872 H 0.6543 0.09677 0.41709 0.0
H873 H 0.79719 0.1309 0.40929 0.0
H874 H 0.80079 0.20086 0.49966 0.0
H875 H 0.65974 0.16383 0.50788 0.0
H876 H 0.08089 0.21579 0.48676 0.0
H877 H 0.94165 0.17368 0.49451 0.0
H878 H 0.87855 0.21218 0.40222 0.0
H879 H 1.01676 0.25576 0.39544 0.0
Tb880 Tb 0.48421 0.13927 0.33551 0.0
Tb881 Tb 0.62593 0.21657 0.35654 0.0
C882 C 0.34041 0.09629 0.32926 0.0
C883 C 0.25463 0.12051 0.32898 0.0
C884 C 0.22057 0.14704 0.35461 0.0
C885 C 0.13927 0.16935 0.35389 0.0
C886 C 0.09092 0.16679 0.32763 0.0
C887 C 0.12369 0.13907 0.30217 0.0
C888 C 0.20547 0.11651 0.30275 0.0
C889 C 0.58353 0.17095 0.29275 0.0
C890 C 0.47333 0.28355 0.33825 0.0
C891 C 0.76725 0.26237 0.35298 0.0
C892 C 0.84789 0.23963 0.34163 0.0
C893 C 0.8549 0.18536 0.32708 0.0
C894 C 0.93427 0.16182 0.3208 0.0
C895 C 1.00676 0.19373 0.32772 0.0
C896 C 0.99844 0.25106 0.33779 0.0
C897 C 0.91963 0.27337 0.34513 0.0
C898 C 0.50041 0.19909 0.39624 0.0
C899 C 0.66561 0.08231 0.34776 0.0
O900 O 0.3813 0.0964 0.35489 0.0
O901 O 0.38774 0.11202 0.30677 0.0
O902 O 0.56276 0.19963 0.31546 0.0
O903 O 0.54348 0.12195 0.29225 0.0
O904 O 0.43443 0.23152 0.3369 0.0
O905 O 0.55385 0.28874 0.34306 0.0
O906 O 0.70928 0.2684 0.33237 0.0
O907 O 0.73816 0.23993 0.37817 0.0
O908 O 0.53206 0.16271 0.37788 0.0
O909 O 0.54913 0.24485 0.39547 0.0
O910 O 0.69222 0.13472 0.35374 0.0
O911 O 0.58364 0.07152 0.3429 0.0
H912 H 0.25599 0.1499 0.37533 0.0
H913 H 0.11288 0.18783 0.374 0.0
H914 H 0.08606 0.13474 0.28205 0.0
H915 H 0.23005 0.09526 0.28287 0.0
H916 H 0.80008 0.16088 0.32068 0.0
H917 H 0.93897 0.1183 0.31166 0.0
H918 H 1.05376 0.27699 0.34191 0.0
H919 H 0.91441 0.31602 0.35463 0.0
Tb920 Tb 0.41633 0.48183 0.3386 0.0
Tb921 Tb 0.28203 0.40646 0.35871 0.0
C922 C 0.561 0.52459 0.33668 0.0
C923 C 0.64566 0.50032 0.3419 0.0
C924 C 0.68551 0.50826 0.36973 0.0
C925 C 0.76738 0.48837 0.37422 0.0
C926 C 0.81095 0.45943 0.35106 0.0
C927 C 0.77022 0.45048 0.32339 0.0
C928 C 0.68872 0.47103 0.31879 0.0
C929 C 0.32444 0.45428 0.29314 0.0
C930 C 0.42602 0.3376 0.33809 0.0
C931 C 0.14234 0.36447 0.37066 0.0
C932 C 1.05866 0.38921 0.36481 0.0
C933 C 1.03682 0.41275 0.33671 0.0
C934 C 0.95699 0.43681 0.33228 0.0
C935 C 0.89803 0.43805 0.35591 0.0
C936 C 0.92195 0.41635 0.38413 0.0
C937 C 1.00091 0.39153 0.38826 0.0
C938 C 0.40905 0.42637 0.39856 0.0
C939 C 0.23229 0.53551 0.34718 0.0
O940 O 0.51172 0.52946 0.36008 0.0
O941 O 0.52102 0.50565 0.313 0.0
O942 O 0.34009 0.42198 0.31543 0.0
O943 O 0.36146 0.50431 0.2957 0.0
O944 O 0.46554 0.38932 0.3397 0.0
O945 O 0.34471 0.33365 0.34068 0.0
O946 O 0.18591 0.34853 0.34704 0.0
O947 O 0.18759 0.3928 0.39042 0.0
O948 O 0.37205 0.46201 0.38143 0.0
O949 O 0.36889 0.37782 0.39504 0.0
O950 O 0.20728 0.48166 0.34646 0.0
O951 O 0.31487 0.54756 0.34744 0.0
H952 H 0.65429 0.53135 0.38779 0.0
H953 H 0.79716 0.49721 0.39562 0.0
H954 H 0.80093 0.42732 0.30524 0.0
H955 H 0.65988 0.46435 0.29699 0.0
H956 H 0.08102 0.41243 0.31818 0.0
H957 H 0.94178 0.45452 0.31042 0.0
H958 H 0.87854 0.41592 0.40269 0.0
H959 H 1.01677 0.37235 0.40948 0.0
Tb960 Tb 0.52522 -0.03001 0.1028 0.0
Tb961 Tb 0.67485 0.88708 0.08817 0.0
C962 C 0.3844 0.01544 0.09647 0.0
C963 C 0.30347 -0.00895 0.08636 0.0
C964 C 0.2966 0.93466 0.0742 0.0
C965 C 0.21731 0.90934 0.06995 0.0
C966 C 0.14466 -0.0588 0.0767 0.0
C967 C 0.1521 -0.00017 0.08464 0.0
C968 C 0.23102 0.02425 0.08974 0.0
C969 C 0.64746 -0.04129 0.14475 0.0
C970 C 0.48731 0.833 0.09788 0.0
C971 C 0.81593 0.84104 0.09329 0.0
C972 C 0.90091 0.86504 0.08811 0.0
C973 C 0.94616 0.88727 0.1126 0.0
C974 C 1.02597 0.91044 0.10852 0.0
C975 C 1.0623 0.91267 0.07993 0.0
C976 C 1.01913 0.88875 0.05541 0.0
C977 C 0.9383 0.86554 0.05937 0.0
C978 C 0.61099 0.92748 0.03882 0.0
C979 C 0.68369 0.0313 0.08318 0.0
O980 O 0.44298 0.01747 0.07578 0.0
O981 O 0.41265 -0.00271 0.12269 0.0
O982 O 0.61748 0.91993 0.12738 0.0
O983 O 0.59973 0.00443 0.14117 0.0
O984 O 0.46039 0.88628 0.10268 0.0
O985 O 0.56983 0.82165 0.09363 0.0
O986 O 0.77457 0.8632 0.11602 0.0
O987 O 0.76804 0.83288 0.06974 0.0
O988 O 0.58691 0.93515 0.06536 0.0
O989 O 0.67196 0.89047 0.03895 0.0
O990 O 0.72376 -0.02013 0.08676 0.0
O991 O 0.6018 0.03624 0.08432 0.0
H992 H 0.35167 0.90974 0.06847 0.0
H993 H 0.21292 0.86451 0.06273 0.0
H994 H 0.09641 0.02544 0.08886 0.0
H995 H 0.23577 0.0682 0.09758 0.0
H996 H 0.92042 0.8858 0.13512 0.0
H997 H 1.06028 0.92572 0.12785 0.0
H998 H 1.04776 0.88812 0.0334 0.0
H999 H 0.90562 0.84774 0.04008 0.0
Tb1000 Tb 0.87034 0.15296 0.11001 0.0
Tb1001 Tb 0.73522 0.2309 0.09008 0.0
C1002 C 1.00948 0.11185 0.1237 0.0
C1003 C 0.09385 0.13581 0.11829 0.0
C1004 C 0.11555 0.1629 0.09105 0.0
C1005 C 0.19606 0.18638 0.08719 0.0
C1006 C 0.25578 0.18316 0.11053 0.0
C1007 C 0.23226 0.1575 0.13783 0.0
C1008 C 0.15246 0.13399 0.14147 0.0
C1009 C 0.73745 0.16665 0.14793 0.0
C1010 C 0.9202 0.28535 0.09827 0.0
C1011 C 0.59108 0.27396 0.09381 0.0
C1012 C 0.50765 0.24724 0.09835 0.0
C1013 C 0.46796 0.25173 0.12635 0.0
C1014 C 0.38638 0.2309 0.13032 0.0
C1015 C 0.34308 0.20434 0.10637 0.0
C1016 C 0.38393 0.19815 0.07854 0.0
C1017 C 0.46524 0.2196 0.07452 0.0
C1018 C 0.80313 0.19923 0.04077 0.0
C1019 C 0.73012 0.08683 0.0838 0.0
O1020 O 0.96742 0.0947 0.09994 0.0
O1021 O 0.96325 0.1415 0.14265 0.0
O1022 O 0.77576 0.20461 0.13254 0.0
O1023 O 0.77838 0.11892 0.14338 0.0
O1024 O 0.94524 0.23132 0.10125 0.0
O1025 O 0.83769 0.29737 0.09598 0.0
O1026 O 0.64339 0.27277 0.11646 0.0
O1027 O 0.62813 0.26264 0.06836 0.0
O1028 O 0.82804 0.1821 0.06659 0.0
O1029 O 0.7502 0.24158 0.04265 0.0
O1030 O 0.68882 0.13756 0.08768 0.0
O1031 O 0.81146 0.0837 0.08692 0.0
H1032 H 1.07069 0.16578 0.07279 0.0
H1033 H 0.21138 0.20691 0.06601 0.0
H1034 H 0.27621 0.15371 0.15611 0.0
H1035 H 0.13603 0.11374 0.16238 0.0
H1036 H 0.49885 0.27371 0.14479 0.0
H1037 H 0.3562 0.23763 0.15185 0.0
H1038 H 0.35318 0.17683 0.05981 0.0
H1039 H 0.49412 0.21528 0.05259 0.0
Tb1040 Tb 0.52527 0.15819 0.2021 0.0
Tb1041 Tb 0.67486 0.24111 0.21674 0.0
C1042 C 0.38444 0.11274 0.20841 0.0
C1043 C 0.30351 0.13712 0.21852 0.0
C1044 C 0.29662 0.19349 0.23069 0.0
C1045 C 0.21732 0.21881 0.23494 0.0
C1046 C 0.14468 0.18694 0.22818 0.0
C1047 C 0.15213 0.12832 0.22023 0.0
C1048 C 0.23106 0.10391 0.21513 0.0
C1049 C 0.64759 0.16944 0.16019 0.0
C1050 C 0.48731 0.29517 0.20703 0.0
C1051 C 0.81595 0.28714 0.21162 0.0
C1052 C 0.90092 0.26312 0.21679 0.0
C1053 C 0.94615 0.24086 0.1923 0.0
C1054 C 1.02595 0.21768 0.19638 0.0
C1055 C 1.06231 0.21547 0.22496 0.0
C1056 C 1.01917 0.23941 0.24949 0.0
C1057 C 0.93834 0.26263 0.24553 0.0
C1058 C 0.61106 0.20069 0.26609 0.0
C1059 C 0.68371 0.09689 0.22174 0.0
O1060 O 0.44302 0.11069 0.2291 0.0
O1061 O 0.41271 0.1309 0.18219 0.0
O1062 O 0.61755 0.20825 0.17752 0.0
O1063 O 0.5998 0.12373 0.16373 0.0
O1064 O 0.46042 0.24189 0.20223 0.0
O1065 O 0.56982 0.30654 0.21128 0.0
O1066 O 0.77458 0.26501 0.1889 0.0
O1067 O 0.76807 0.29528 0.23518 0.0
O1068 O 0.58693 0.19303 0.23955 0.0
O1069 O 0.67197 0.23773 0.26596 0.0
O1070 O 0.72377 0.14831 0.21816 0.0
O1071 O 0.60182 0.09194 0.22059 0.0
H1072 H 0.35169 0.21841 0.23643 0.0
H1073 H 0.21292 0.26363 0.24217 0.0
H1074 H 0.09645 0.10271 0.21601 0.0
H1075 H 0.23582 0.05997 0.20728 0.0
H1076 H 0.92039 0.24232 0.16978 0.0
H1077 H 1.06024 0.20239 0.17705 0.0
H1078 H 1.04782 0.24006 0.27149 0.0
H1079 H 0.90569 0.28046 0.26482 0.0
Tb1080 Tb 0.87027 -0.02478 0.19488 0.0
Tb1081 Tb 0.73522 0.89726 0.21483 0.0
C1082 C 1.00943 0.01629 0.18117 0.0
C1083 C 0.09381 -0.00767 0.18659 0.0
C1084 C 0.11552 -0.03472 0.21383 0.0
C1085 C 0.19604 -0.05821 0.2177 0.0
C1086 C 0.25576 -0.055 0.19436 0.0
C1087 C 0.23224 -0.02937 0.16705 0.0
C1088 C 0.15243 -0.00586 0.1634 0.0
C1089 C 0.73731 -0.03847 0.15701 0.0
C1090 C 0.92019 0.84283 0.20664 0.0
C1091 C 0.59107 0.85421 0.21111 0.0
C1092 C 0.50764 0.88092 0.20656 0.0
C1093 C 0.46796 0.87641 0.17856 0.0
C1094 C 0.38638 0.89724 0.17459 0.0
C1095 C 0.34307 0.92382 0.19852 0.0
C1096 C 0.38391 0.93003 0.22635 0.0
C1097 C 0.46522 0.90858 0.23038 0.0
C1098 C 0.80318 0.92891 0.26413 0.0
C1099 C 0.73013 0.04136 0.22112 0.0
O1100 O 0.96737 0.03348 0.20492 0.0
O1101 O 0.9632 -0.01338 0.16223 0.0
O1102 O 0.77567 0.92356 0.17237 0.0
O1103 O 0.7783 0.00926 0.1615 0.0
O1104 O 0.9452 0.89686 0.20365 0.0
O1105 O 0.83769 0.8308 0.20893 0.0
O1106 O 0.6434 0.85536 0.18847 0.0
O1107 O 0.62811 0.86556 0.23656 0.0
O1108 O 0.82806 -0.05393 0.23831 0.0
O1109 O 0.75028 0.88655 0.26225 0.0
O1110 O 0.68883 -0.00939 0.21724 0.0
O1111 O 0.81145 0.04449 0.21798 0.0
H1112 H 1.07066 -0.03759 0.2321 0.0
H1113 H 0.21136 0.92128 0.23888 0.0
H1114 H 0.27619 -0.0256 0.14877 0.0
H1115 H 0.13601 0.01438 0.14249 0.0
H1116 H 0.49886 0.85441 0.16013 0.0
H1117 H 0.35621 0.8905 0.15305 0.0
H1118 H 0.35315 -0.04863 0.24508 0.0
H1119 H 0.49408 0.91292 0.25232 0.0
Tb1120 Tb 0.48422 -0.01113 0.96937 0.0
Tb1121 Tb 0.62596 0.91157 0.94839 0.0
C1122 C 0.34042 0.03187 0.97559 0.0
C1123 C 0.25464 0.00766 0.97589 0.0
C1124 C 0.22053 -0.01885 0.95026 0.0
C1125 C 0.13922 -0.04114 0.95099 0.0
C1126 C 0.09092 -0.0386 0.97726 0.0
C1127 C 0.12374 -0.0109 1.00272 0.0
C1128 C 0.20552 0.01165 1.00213 0.0
C1129 C 0.58333 -0.04284 1.01216 0.0
C1130 C 0.47332 0.8446 0.96661 0.0
C1131 C 0.76728 0.86576 0.95198 0.0
C1132 C 0.84792 0.88852 0.96331 0.0
C1133 C 0.85491 -0.0572 0.97786 0.0
C1134 C 0.93428 -0.03364 0.98412 0.0
C1135 C 1.00678 0.93445 0.97719 0.0
C1136 C 0.99847 0.87711 0.96713 0.0
C1137 C 0.91967 0.85479 0.95981 0.0
C1138 C 0.50058 0.92909 0.90861 0.0
C1139 C 0.66562 0.04583 0.95714 0.0
O1140 O 0.38131 0.03169 0.94996 0.0
O1141 O 0.38775 0.01619 0.99809 0.0
O1142 O 0.56266 0.92847 0.98945 0.0
O1143 O 0.54344 0.00623 1.01263 0.0
O1144 O 0.43442 0.89663 0.96796 0.0
O1145 O 0.55385 0.83939 0.96182 0.0
O1146 O 0.7093 0.85979 0.9726 0.0
O1147 O 0.7382 0.88814 0.92677 0.0
O1148 O 0.53217 -0.03457 0.927 0.0
O1149 O 0.54925 0.8833 0.90944 0.0
O1150 O 0.69225 -0.00658 0.95119 0.0
O1151 O 0.58364 0.05663 0.96198 0.0
H1152 H 0.25591 -0.0217 0.92953 0.0
H1153 H 0.11279 -0.0596 0.93088 0.0
H1154 H 0.08614 -0.00657 1.02285 0.0
H1155 H 0.23014 0.03289 1.02201 0.0
H1156 H 0.80009 -0.03271 0.98425 0.0
H1157 H 0.93897 0.00989 0.99325 0.0
H1158 H 1.05379 0.85119 0.96302 0.0
H1159 H 0.91445 0.81212 0.95033 0.0
Tb1160 Tb 0.41629 0.64634 0.96627 0.0
Tb1161 Tb 0.28197 0.72169 0.94619 0.0
C1162 C 0.56096 0.60356 0.96819 0.0
C1163 C 0.64562 0.62783 0.96298 0.0
C1164 C 0.68549 0.6199 0.93515 0.0
C1165 C 0.76736 0.63979 0.93067 0.0
C1166 C 0.81092 0.66873 0.95383 0.0
C1167 C 0.77016 0.67768 0.98151 0.0
C1168 C 0.68865 0.65713 0.9861 0.0
C1169 C 0.32441 0.67388 1.01175 0.0
C1170 C 0.426 0.79056 0.96677 0.0
C1171 C 0.14229 0.76371 0.93427 0.0
C1172 C 1.05861 0.73896 0.94011 0.0
C1173 C 1.03675 0.71541 0.96821 0.0
C1174 C 0.95693 0.69135 0.97263 0.0
C1175 C 0.89799 0.69011 0.949 0.0
C1176 C 0.92192 0.71181 0.92078 0.0
C1177 C 1.00088 0.73664 0.91666 0.0
C1178 C 0.40889 0.70174 0.90628 0.0
C1179 C 0.23228 0.59264 0.95771 0.0
O1180 O 0.51169 0.59873 0.94478 0.0
O1181 O 0.52098 0.62248 0.99187 0.0
O1182 O 0.34007 0.70619 0.98946 0.0
O1183 O 0.36143 0.62386 1.00918 0.0
O1184 O 0.46551 0.73883 0.96516 0.0
O1185 O 0.34469 0.79451 0.9642 0.0
O1186 O 0.18585 0.77961 0.95789 0.0
O1187 O 0.18752 0.73541 0.9145 0.0
O1188 O 0.37195 0.66615 0.92345 0.0
O1189 O 0.36879 0.75031 0.90986 0.0
O1190 O 0.20725 0.64648 0.95844 0.0
O1191 O 0.31485 0.5806 0.95743 0.0
H1192 H 0.65429 0.59681 0.91709 0.0
H1193 H 0.79717 0.63094 0.90927 0.0
H1194 H 0.80085 0.70084 0.99966 0.0
H1195 H 0.6598 0.66381 1.00789 0.0
H1196 H 0.08094 0.71574 0.98674 0.0
H1197 H 0.94171 0.67364 0.99449 0.0
H1198 H 0.87853 0.71224 0.90222 0.0
H1199 H 1.01675 0.75581 0.89544 0.0
Tb1200 Tb 0.48422 0.63927 0.83551 0.0
Tb1201 Tb 0.62593 0.71657 0.85653 0.0
C1202 C 0.34041 0.59629 0.82929 0.0
C1203 C 0.25463 0.62051 0.82899 0.0
C1204 C 0.22055 0.64702 0.85463 0.0
C1205 C 0.13924 0.66932 0.8539 0.0
C1206 C 0.09092 0.66678 0.82764 0.0
C1207 C 0.12372 0.63909 0.80217 0.0
C1208 C 0.20551 0.61653 0.80276 0.0
C1209 C 0.58335 0.67099 0.79274 0.0
C1210 C 0.47332 0.78355 0.83827 0.0
C1211 C 0.76725 0.76238 0.85295 0.0
C1212 C 0.8479 0.73963 0.84161 0.0
C1213 C 0.85491 0.68537 0.82706 0.0
C1214 C 0.93427 0.66182 0.82078 0.0
C1215 C 1.00677 0.69373 0.82772 0.0
C1216 C 0.99844 0.75106 0.83779 0.0
C1217 C 0.91964 0.77337 0.84512 0.0
C1218 C 0.50046 0.69907 0.89625 0.0
C1219 C 0.66563 0.58232 0.84775 0.0
O1220 O 0.38131 0.59644 0.85492 0.0
O1221 O 0.38775 0.61198 0.80679 0.0
O1222 O 0.56268 0.69968 0.81546 0.0
O1223 O 0.54346 0.62193 0.79225 0.0
O1224 O 0.43443 0.73152 0.83691 0.0
O1225 O 0.55384 0.78875 0.84308 0.0
O1226 O 0.70927 0.76837 0.83234 0.0
O1227 O 0.73816 0.73997 0.87815 0.0
O1228 O 0.5321 0.6627 0.87789 0.0
O1229 O 0.54917 0.74484 0.89547 0.0
O1230 O 0.69224 0.63473 0.85372 0.0
O1231 O 0.58366 0.57152 0.8429 0.0
H1232 H 0.25594 0.64986 0.87535 0.0
H1233 H 0.11283 0.68778 0.87402 0.0
H1234 H 0.08612 0.63477 0.78205 0.0
H1235 H 0.23011 0.5953 0.78288 0.0
H1236 H 0.80009 0.66089 0.82066 0.0
H1237 H 0.93898 0.6183 0.81164 0.0
H1238 H 1.05376 0.77698 0.84191 0.0
H1239 H 0.91441 0.81603 0.85462 0.0
Tb1240 Tb 0.4163 -0.01817 0.83861 0.0
Tb1241 Tb 0.282 0.90646 0.85872 0.0
C1242 C 0.56097 0.0246 0.83669 0.0
C1243 C 0.64563 0.00033 0.84191 0.0
C1244 C 0.68549 0.00828 0.86973 0.0
C1245 C 0.76736 -0.01162 0.87422 0.0
C1246 C 0.81093 -0.04057 0.85107 0.0
C1247 C 0.77019 -0.04953 0.8234 0.0
C1248 C 0.68868 -0.02898 0.8188 0.0
C1249 C 0.3244 -0.04573 0.79315 0.0
C1250 C 0.426 0.8376 0.83811 0.0
C1251 C 0.14232 0.86447 0.87067 0.0
C1252 C 1.05864 0.88921 0.86481 0.0
C1253 C 1.03679 0.91275 0.83672 0.0
C1254 C 0.95696 0.9368 0.83228 0.0
C1255 C 0.89801 0.93805 0.85592 0.0
C1256 C 0.92193 0.91636 0.88413 0.0
C1257 C 1.00088 0.89153 0.88826 0.0
C1258 C 0.40902 0.92638 0.89857 0.0
C1259 C 0.23227 0.0355 0.84719 0.0
O1260 O 0.51169 0.02946 0.86009 0.0
O1261 O 0.52099 0.00566 0.81301 0.0
O1262 O 0.34007 0.92197 0.81544 0.0
O1263 O 0.36141 0.00429 0.79571 0.0
O1264 O 0.46552 0.88933 0.83971 0.0
O1265 O 0.34469 0.83364 0.84069 0.0
O1266 O 0.18588 0.84853 0.84705 0.0
O1267 O 0.18756 0.89279 0.89042 0.0
O1268 O 0.37202 -0.03799 0.88143 0.0
O1269 O 0.36886 0.87783 0.89505 0.0
O1270 O 0.20726 -0.01834 0.84646 0.0
O1271 O 0.31484 0.04756 0.84745 0.0
H1272 H 0.65428 0.03138 0.8878 0.0
H1273 H 0.79716 -0.00276 0.89562 0.0
H1274 H 0.80089 0.9273 0.80525 0.0
H1275 H 0.65984 -0.03567 0.79701 0.0
H1276 H 0.08098 0.91242 0.81819 0.0
H1277 H 0.94174 -0.04549 0.81042 0.0
H1278 H 0.87852 0.91594 0.9027 0.0
H1279 H 1.01675 0.87237 0.90949 0.0
loop_
_geom_bond_atom_site_label_1
_geom_bond_atom_site_label_2
_geom_bond_distance
_geom_bond_site_symmetry_2
_ccdc_geom_bond_type
Tb0 C2 2.809 . S
Tb0 O20 2.484 . S
Tb0 O21 2.440 . S
Tb0 O22 2.658 1_655 S
Tb0 O23 2.409 . S
Tb0 O24 2.378 . S
Tb0 O28 2.325 . S
Tb0 O31 2.341 1_655 S
Tb1 C11 2.809 . S
Tb1 O22 2.325 . S
Tb1 O25 2.341 . S
Tb1 O26 2.484 . S
Tb1 O27 2.440 . S
Tb1 O28 2.658 1_455 S
Tb1 O29 2.409 . S
Tb1 O30 2.378 . S
C2 Tb0 2.809 . S
C2 C3 1.514 . S
C2 O20 1.248 . S
C2 O21 1.266 . S
C3 C2 1.514 . S
C3 C4 1.359 . S
C3 C8 1.348 . S
C4 C3 1.359 . S
C4 C5 1.380 . S
C4 H32 0.929 . S
C5 C4 1.380 . S
C5 C6 1.347 . S
C5 H33 0.931 . S
C6 C5 1.347 . S
C6 C7 1.369 . S
C7 C6 1.369 . S
C7 C8 1.408 . S
C7 H34 0.930 . S
C8 C3 1.348 . S
C8 C7 1.408 . S
C8 H35 0.930 . S
C9 O22 1.281 . S
C9 O23 1.254 1_455 S
C10 O24 1.236 . S
C10 O25 1.266 1_655 S
C11 Tb1 2.809 . S
C11 C12 1.514 . S
C11 O26 1.248 . S
C11 O27 1.266 . S
C12 C11 1.514 . S
C12 C13 1.359 . S
C12 C17 1.348 . S
C13 C12 1.359 . S
C13 C14 1.380 . S
C13 H36 0.929 . S
C14 C13 1.380 . S
C14 C15 1.347 . S
C14 H37 0.931 . S
C15 C14 1.347 . S
C15 C16 1.369 . S
C16 C15 1.369 . S
C16 C17 1.408 . S
C16 H38 0.930 . S
C17 C12 1.348 . S
C17 C16 1.408 . S
C17 H39 0.930 . S
C18 O28 1.281 1_455 S
C18 O29 1.254 . S
C19 O30 1.236 . S
C19 O31 1.266 . S
O20 Tb0 2.484 . S
O20 C2 1.248 . S
O21 Tb0 2.440 . S
O21 C2 1.266 . S
O22 Tb0 2.658 1_455 S
O22 Tb1 2.325 . S
O22 C9 1.281 . S
O23 Tb0 2.409 . S
O23 C9 1.254 1_655 S
O24 Tb0 2.378 . S
O24 C10 1.236 . S
O25 Tb1 2.341 . S
O25 C10 1.266 1_455 S
O26 Tb1 2.484 . S
O26 C11 1.248 . S
O27 Tb1 2.440 . S
O27 C11 1.266 . S
O28 Tb0 2.325 . S
O28 Tb1 2.658 1_655 S
O28 C18 1.281 1_655 S
O29 Tb1 2.409 . S
O29 C18 1.254 . S
O30 Tb1 2.378 . S
O30 C19 1.236 . S
O31 Tb0 2.341 1_455 S
O31 C19 1.266 . S
H32 C4 0.929 . S
H33 C5 0.931 . S
H34 C7 0.930 . S
H35 C8 0.930 . S
H36 C13 0.929 . S
H37 C14 0.931 . S
H38 C16 0.930 . S
H39 C17 0.930 . S
Tb40 C42 2.809 . S
Tb40 O60 2.484 . S
Tb40 O61 2.440 . S
Tb40 O62 2.658 . S
Tb40 O63 2.409 . S
Tb40 O64 2.378 . S
Tb40 O68 2.325 . S
Tb40 O71 2.341 . S
Tb41 C51 2.809 1_455 S
Tb41 O62 2.325 . S
Tb41 O65 2.341 . S
Tb41 O66 2.484 . S
Tb41 O67 2.440 . S
Tb41 O68 2.658 . S
Tb41 O69 2.409 . S
Tb41 O70 2.378 . S
C42 Tb40 2.809 . S
C42 C43 1.514 . S
C42 O60 1.248 . S
C42 O61 1.266 . S
C43 C42 1.514 . S
C43 C44 1.359 . S
C43 C48 1.348 . S
C44 C43 1.359 . S
C44 C45 1.380 . S
C44 H72 0.929 . S
C45 C44 1.380 . S
C45 C46 1.347 . S
C45 H73 0.931 . S
C46 C45 1.347 . S
C46 C47 1.369 . S
C47 C46 1.369 . S
C47 C48 1.408 . S
C47 H74 0.930 . S
C48 C43 1.348 . S
C48 C47 1.408 . S
C48 H75 0.930 . S
C49 O62 1.281 . S
C49 O63 1.254 . S
C50 O64 1.236 . S
C50 O65 1.266 . S
C51 Tb41 2.809 1_655 S
C51 C52 1.514 . S
C51 O66 1.248 1_655 S
C51 O67 1.266 1_655 S
C52 C51 1.514 . S
C52 C53 1.359 . S
C52 C57 1.348 . S
C53 C52 1.359 . S
C53 C54 1.380 . S
C53 H76 0.929 . S
C54 C53 1.380 . S
C54 C55 1.347 . S
C54 H77 0.931 . S
C55 C54 1.347 . S
C55 C56 1.369 . S
C56 C55 1.369 . S
C56 C57 1.408 . S
C56 H78 0.930 . S
C57 C52 1.348 . S
C57 C56 1.408 . S
C57 H79 0.930 . S
C58 O68 1.281 . S
C58 O69 1.254 . S
C59 O70 1.236 . S
C59 O71 1.266 . S
O60 Tb40 2.484 . S
O60 C42 1.248 . S
O61 Tb40 2.440 . S
O61 C42 1.266 . S
O62 Tb40 2.658 . S
O62 Tb41 2.325 . S
O62 C49 1.281 . S
O63 Tb40 2.409 . S
O63 C49 1.254 . S
O64 Tb40 2.378 . S
O64 C50 1.236 . S
O65 Tb41 2.341 . S
O65 C50 1.266 . S
O66 Tb41 2.484 . S
O66 C51 1.248 1_455 S
O67 Tb41 2.440 . S
O67 C51 1.266 1_455 S
O68 Tb40 2.325 . S
O68 Tb41 2.658 . S
O68 C58 1.281 . S
O69 Tb41 2.409 . S
O69 C58 1.254 . S
O70 Tb41 2.378 . S
O70 C59 1.236 . S
O71 Tb40 2.341 . S
O71 C59 1.266 . S
H72 C44 0.929 . S
H73 C45 0.931 . S
H74 C47 0.930 . S
H75 C48 0.930 . S
H76 C53 0.929 . S
H77 C54 0.931 . S
H78 C56 0.930 . S
H79 C57 0.930 . S
Tb80 C82 2.809 . S
Tb80 O100 2.484 . S
Tb80 O101 2.440 . S
Tb80 O102 2.658 1_655 S
Tb80 O103 2.409 . S
Tb80 O104 2.378 . S
Tb80 O108 2.325 . S
Tb80 O111 2.341 1_655 S
Tb81 C91 2.809 . S
Tb81 O102 2.325 . S
Tb81 O105 2.341 . S
Tb81 O106 2.484 . S
Tb81 O107 2.440 . S
Tb81 O108 2.658 1_455 S
Tb81 O109 2.409 . S
Tb81 O110 2.378 . S
C82 Tb80 2.809 . S
C82 C83 1.514 . S
C82 O100 1.248 . S
C82 O101 1.266 . S
C83 C82 1.514 . S
C83 C84 1.359 . S
C83 C88 1.348 . S
C84 C83 1.359 . S
C84 C85 1.380 . S
C84 H112 0.929 . S
C85 C84 1.380 . S
C85 C86 1.347 . S
C85 H113 0.931 . S
C86 C85 1.347 . S
C86 C87 1.369 . S
C87 C86 1.369 . S
C87 C88 1.408 . S
C87 H114 0.930 . S
C88 C83 1.348 . S
C88 C87 1.408 . S
C88 H115 0.930 . S
C89 O102 1.281 . S
C89 O103 1.254 1_455 S
C90 O104 1.236 . S
C90 O105 1.266 1_655 S
C91 Tb81 2.809 . S
C91 C92 1.514 . S
C91 O106 1.248 . S
C91 O107 1.266 . S
C92 C91 1.514 . S
C92 C93 1.359 . S
C92 C97 1.348 . S
C93 C92 1.359 . S
C93 C94 1.380 . S
C93 H116 0.929 . S
C94 C93 1.380 . S
C94 C95 1.347 . S
C94 H117 0.931 . S
C95 C94 1.347 . S
C95 C96 1.369 . S
C96 C95 1.369 . S
C96 C97 1.408 . S
C96 H118 0.930 . S
C97 C92 1.348 . S
C97 C96 1.408 . S
C97 H119 0.930 . S
C98 O108 1.281 1_455 S
C98 O109 1.254 . S
C99 O110 1.236 . S
C99 O111 1.266 . S
O100 Tb80 2.484 . S
O100 C82 1.248 . S
O101 Tb80 2.440 . S
O101 C82 1.266 . S
O102 Tb80 2.658 1_455 S
O102 Tb81 2.325 . S
O102 C89 1.281 . S
O103 Tb80 2.409 . S
O103 C89 1.254 1_655 S
O104 Tb80 2.378 . S
O104 C90 1.236 . S
O105 Tb81 2.341 . S
O105 C90 1.266 1_455 S
O106 Tb81 2.484 . S
O106 C91 1.248 . S
O107 Tb81 2.440 . S
O107 C91 1.266 . S
O108 Tb80 2.325 . S
O108 Tb81 2.658 1_655 S
O108 C98 1.281 1_655 S
O109 Tb81 2.409 . S
O109 C98 1.254 . S
O110 Tb81 2.378 . S
O110 C99 1.236 . S
O111 Tb80 2.341 1_455 S
O111 C99 1.266 . S
H112 C84 0.929 . S
H113 C85 0.931 . S
H114 C87 0.930 . S
H115 C88 0.930 . S
H116 C93 0.929 . S
H117 C94 0.931 . S
H118 C96 0.930 . S
H119 C97 0.930 . S
Tb120 C122 2.809 . S
Tb120 O140 2.484 . S
Tb120 O141 2.440 . S
Tb120 O142 2.658 . S
Tb120 O143 2.409 . S
Tb120 O144 2.378 . S
Tb120 O148 2.325 . S
Tb120 O151 2.341 . S
Tb121 C131 2.809 1_455 S
Tb121 O142 2.325 . S
Tb121 O145 2.341 . S
Tb121 O146 2.484 . S
Tb121 O147 2.440 . S
Tb121 O148 2.658 . S
Tb121 O149 2.409 . S
Tb121 O150 2.378 . S
C122 Tb120 2.809 . S
C122 C123 1.514 . S
C122 O140 1.248 . S
C122 O141 1.266 . S
C123 C122 1.514 . S
C123 C124 1.359 . S
C123 C128 1.348 . S
C124 C123 1.359 . S
C124 C125 1.380 . S
C124 H152 0.929 . S
C125 C124 1.380 . S
C125 C126 1.347 . S
C125 H153 0.931 . S
C126 C125 1.347 . S
C126 C127 1.369 . S
C127 C126 1.369 . S
C127 C128 1.408 . S
C127 H154 0.930 . S
C128 C123 1.348 . S
C128 C127 1.408 . S
C128 H155 0.930 . S
C129 O142 1.281 . S
C129 O143 1.254 . S
C130 O144 1.236 . S
C130 O145 1.266 . S
C131 Tb121 2.809 1_655 S
C131 C132 1.514 . S
C131 O146 1.248 1_655 S
C131 O147 1.266 1_655 S
C132 C131 1.514 . S
C132 C133 1.359 . S
C132 C137 1.348 . S
C133 C132 1.359 . S
C133 C134 1.380 . S
C133 H156 0.929 . S
C134 C133 1.380 . S
C134 C135 1.347 . S
C134 H157 0.931 . S
C135 C134 1.347 . S
C135 C136 1.369 . S
C136 C135 1.369 . S
C136 C137 1.408 . S
C136 H158 0.930 . S
C137 C132 1.348 . S
C137 C136 1.408 . S
C137 H159 0.930 . S
C138 O148 1.281 . S
C138 O149 1.254 . S
C139 O150 1.236 . S
C139 O151 1.266 . S
O140 Tb120 2.484 . S
O140 C122 1.248 . S
O141 Tb120 2.440 . S
O141 C122 1.266 . S
O142 Tb120 2.658 . S
O142 Tb121 2.325 . S
O142 C129 1.281 . S
O143 Tb120 2.409 . S
O143 C129 1.254 . S
O144 Tb120 2.378 . S
O144 C130 1.236 . S
O145 Tb121 2.341 . S
O145 C130 1.266 . S
O146 Tb121 2.484 . S
O146 C131 1.248 1_455 S
O147 Tb121 2.440 . S
O147 C131 1.266 1_455 S
O148 Tb120 2.325 . S
O148 Tb121 2.658 . S
O148 C138 1.281 . S
O149 Tb121 2.409 . S
O149 C138 1.254 . S
O150 Tb121 2.378 . S
O150 C139 1.236 . S
O151 Tb120 2.341 . S
O151 C139 1.266 . S
H152 C124 0.929 . S
H153 C125 0.931 . S
H154 C127 0.930 . S
H155 C128 0.930 . S
H156 C133 0.929 . S
H157 C134 0.931 . S
H158 C136 0.930 . S
H159 C137 0.930 . S
Tb160 C162 2.809 . S
Tb160 O180 2.484 . S
Tb160 O181 2.440 . S
Tb160 O182 2.658 1_655 S
Tb160 O183 2.409 . S
Tb160 O184 2.378 . S
Tb160 O188 2.325 . S
Tb160 O191 2.341 . S
Tb161 C171 2.809 . S
Tb161 O182 2.325 . S
Tb161 O185 2.341 1_455 S
Tb161 O186 2.484 . S
Tb161 O187 2.440 . S
Tb161 O188 2.658 1_455 S
Tb161 O189 2.409 . S
Tb161 O190 2.378 . S
C162 Tb160 2.809 . S
C162 C163 1.514 . S
C162 O180 1.248 . S
C162 O181 1.266 . S
C163 C162 1.514 . S
C163 C164 1.359 . S
C163 C168 1.348 . S
C164 C163 1.359 . S
C164 C165 1.380 . S
C164 H192 0.929 . S
C165 C164 1.380 . S
C165 C166 1.347 . S
C165 H193 0.931 . S
C166 C165 1.347 . S
C166 C167 1.369 . S
C167 C166 1.369 . S
C167 C168 1.408 . S
C167 H194 0.930 . S
C168 C163 1.348 . S
C168 C167 1.408 . S
C168 H195 0.930 . S
C169 O182 1.281 1_655 S
C169 O183 1.254 . S
C170 O184 1.236 . S
C170 O185 1.266 . S
C171 Tb161 2.809 . S
C171 C172 1.514 . S
C171 O186 1.248 . S
C171 O187 1.266 . S
C172 C171 1.514 . S
C172 C173 1.359 . S
C172 C177 1.348 . S
C173 C172 1.359 . S
C173 C174 1.380 . S
C173 H196 0.929 . S
C174 C173 1.380 . S
C174 C175 1.347 . S
C174 H197 0.931 . S
C175 C174 1.347 . S
C175 C176 1.369 . S
C176 C175 1.369 . S
C176 C177 1.408 . S
C176 H198 0.930 . S
C177 C172 1.348 . S
C177 C176 1.408 . S
C177 H199 0.930 . S
C178 O188 1.281 . S
C178 O189 1.254 1_655 S
C179 O190 1.236 . S
C179 O191 1.266 1_455 S
O180 Tb160 2.484 . S
O180 C162 1.248 . S
O181 Tb160 2.440 . S
O181 C162 1.266 . S
O182 Tb160 2.658 1_455 S
O182 Tb161 2.325 . S
O182 C169 1.281 1_455 S
O183 Tb160 2.409 . S
O183 C169 1.254 . S
O184 Tb160 2.378 . S
O184 C170 1.236 . S
O185 Tb161 2.341 1_655 S
O185 C170 1.266 . S
O186 Tb161 2.484 . S
O186 C171 1.248 . S
O187 Tb161 2.440 . S
O187 C171 1.266 . S
O188 Tb160 2.325 . S
O188 Tb161 2.658 1_655 S
O188 C178 1.281 . S
O189 Tb161 2.409 . S
O189 C178 1.254 1_455 S
O190 Tb161 2.378 . S
O190 C179 1.236 . S
O191 Tb160 2.341 . S
O191 C179 1.266 1_655 S
H192 C164 0.929 . S
H193 C165 0.931 . S
H194 C167 0.930 . S
H195 C168 0.930 . S
H196 C173 0.929 . S
H197 C174 0.931 . S
H198 C176 0.930 . S
H199 C177 0.930 . S
Tb200 C202 2.809 1_655 S
Tb200 O220 2.484 . S
Tb200 O221 2.440 . S
Tb200 O222 2.658 . S
Tb200 O223 2.409 . S
Tb200 O224 2.378 . S
Tb200 O228 2.325 . S
Tb200 O231 2.341 . S
Tb201 C211 2.809 . S
Tb201 O222 2.325 . S
Tb201 O225 2.341 . S
Tb201 O226 2.484 . S
Tb201 O227 2.440 . S
Tb201 O228 2.658 . S
Tb201 O229 2.409 . S
Tb201 O230 2.378 . S
C202 Tb200 2.809 1_455 S
C202 C203 1.514 . S
C202 O220 1.248 1_455 S
C202 O221 1.266 1_455 S
C203 C202 1.514 . S
C203 C204 1.359 . S
C203 C208 1.348 . S
C204 C203 1.359 . S
C204 C205 1.380 . S
C204 H232 0.929 . S
C205 C204 1.380 . S
C205 C206 1.347 . S
C205 H233 0.931 . S
C206 C205 1.347 . S
C206 C207 1.369 . S
C207 C206 1.369 . S
C207 C208 1.408 . S
C207 H234 0.930 . S
C208 C203 1.348 . S
C208 C207 1.408 . S
C208 H235 0.930 . S
C209 O222 1.281 . S
C209 O223 1.254 . S
C210 O224 1.236 . S
C210 O225 1.266 . S
C211 Tb201 2.809 . S
C211 C212 1.514 . S
C211 O226 1.248 . S
C211 O227 1.266 . S
C212 C211 1.514 . S
C212 C213 1.359 . S
C212 C217 1.348 . S
C213 C212 1.359 . S
C213 C214 1.380 . S
C213 H236 0.929 . S
C214 C213 1.380 . S
C214 C215 1.347 . S
C214 H237 0.931 . S
C215 C214 1.347 . S
C215 C216 1.369 . S
C216 C215 1.369 . S
C216 C217 1.408 . S
C216 H238 0.930 . S
C217 C212 1.348 . S
C217 C216 1.408 . S
C217 H239 0.930 . S
C218 O228 1.281 . S
C218 O229 1.254 . S
C219 O230 1.236 . S
C219 O231 1.266 . S
O220 Tb200 2.484 . S
O220 C202 1.248 1_655 S
O221 Tb200 2.440 . S
O221 C202 1.266 1_655 S
O222 Tb200 2.658 . S
O222 Tb201 2.325 . S
O222 C209 1.281 . S
O223 Tb200 2.409 . S
O223 C209 1.254 . S
O224 Tb200 2.378 . S
O224 C210 1.236 . S
O225 Tb201 2.341 . S
O225 C210 1.266 . S
O226 Tb201 2.484 . S
O226 C211 1.248 . S
O227 Tb201 2.440 . S
O227 C211 1.266 . S
O228 Tb200 2.325 . S
O228 Tb201 2.658 . S
O228 C218 1.281 . S
O229 Tb201 2.409 . S
O229 C218 1.254 . S
O230 Tb201 2.378 . S
O230 C219 1.236 . S
O231 Tb200 2.341 . S
O231 C219 1.266 . S
H232 C204 0.929 . S
H233 C205 0.931 . S
H234 C207 0.930 . S
H235 C208 0.930 . S
H236 C213 0.929 . S
H237 C214 0.931 . S
H238 C216 0.930 . S
H239 C217 0.930 . S
Tb240 C242 2.809 . S
Tb240 O260 2.484 . S
Tb240 O261 2.440 . S
Tb240 O262 2.658 1_655 S
Tb240 O263 2.409 . S
Tb240 O264 2.378 . S
Tb240 O268 2.325 . S
Tb240 O271 2.341 . S
Tb241 C251 2.809 . S
Tb241 O262 2.325 . S
Tb241 O265 2.341 1_455 S
Tb241 O266 2.484 . S
Tb241 O267 2.440 . S
Tb241 O268 2.658 1_455 S
Tb241 O269 2.409 . S
Tb241 O270 2.378 . S
C242 Tb240 2.809 . S
C242 C243 1.514 . S
C242 O260 1.248 . S
C242 O261 1.266 . S
C243 C242 1.514 . S
C243 C244 1.359 . S
C243 C248 1.348 . S
C244 C243 1.359 . S
C244 C245 1.380 . S
C244 H272 0.929 . S
C245 C244 1.380 . S
C245 C246 1.347 . S
C245 H273 0.931 . S
C246 C245 1.347 . S
C246 C247 1.369 . S
C247 C246 1.369 . S
C247 C248 1.408 . S
C247 H274 0.930 . S
C248 C243 1.348 . S
C248 C247 1.408 . S
C248 H275 0.930 . S
C249 O262 1.281 1_655 S
C249 O263 1.254 . S
C250 O264 1.236 . S
C250 O265 1.266 . S
C251 Tb241 2.809 . S
C251 C252 1.514 . S
C251 O266 1.248 . S
C251 O267 1.266 . S
C252 C251 1.514 . S
C252 C253 1.359 . S
C252 C257 1.348 . S
C253 C252 1.359 . S
C253 C254 1.380 . S
C253 H276 0.929 . S
C254 C253 1.380 . S
C254 C255 1.347 . S
C254 H277 0.931 . S
C255 C254 1.347 . S
C255 C256 1.369 . S
C256 C255 1.369 . S
C256 C257 1.408 . S
C256 H278 0.930 . S
C257 C252 1.348 . S
C257 C256 1.408 . S
C257 H279 0.930 . S
C258 O268 1.281 . S
C258 O269 1.254 1_655 S
C259 O270 1.236 . S
C259 O271 1.266 1_455 S
O260 Tb240 2.484 . S
O260 C242 1.248 . S
O261 Tb240 2.440 . S
O261 C242 1.266 . S
O262 Tb240 2.658 1_455 S
O262 Tb241 2.325 . S
O262 C249 1.281 1_455 S
O263 Tb240 2.409 . S
O263 C249 1.254 . S
O264 Tb240 2.378 . S
O264 C250 1.236 . S
O265 Tb241 2.341 1_655 S
O265 C250 1.266 . S
O266 Tb241 2.484 . S
O266 C251 1.248 . S
O267 Tb241 2.440 . S
O267 C251 1.266 . S
O268 Tb240 2.325 . S
O268 Tb241 2.658 1_655 S
O268 C258 1.281 . S
O269 Tb241 2.409 . S
O269 C258 1.254 1_455 S
O270 Tb241 2.378 . S
O270 C259 1.236 . S
O271 Tb240 2.341 . S
O271 C259 1.266 1_655 S
H272 C244 0.929 . S
H273 C245 0.931 . S
H274 C247 0.930 . S
H275 C248 0.930 . S
H276 C253 0.929 . S
H277 C254 0.931 . S
H278 C256 0.930 . S
H279 C257 0.930 . S
Tb280 C282 2.809 1_655 S
Tb280 O300 2.484 . S
Tb280 O301 2.440 . S
Tb280 O302 2.658 . S
Tb280 O303 2.409 . S
Tb280 O304 2.378 . S
Tb280 O308 2.325 . S
Tb280 O311 2.341 . S
Tb281 C291 2.809 . S
Tb281 O302 2.325 . S
Tb281 O305 2.341 . S
Tb281 O306 2.484 . S
Tb281 O307 2.440 . S
Tb281 O308 2.658 . S
Tb281 O309 2.409 . S
Tb281 O310 2.378 . S
C282 Tb280 2.809 1_455 S
C282 C283 1.514 . S
C282 O300 1.248 1_455 S
C282 O301 1.266 1_455 S
C283 C282 1.514 . S
C283 C284 1.359 . S
C283 C288 1.348 . S
C284 C283 1.359 . S
C284 C285 1.380 . S
C284 H312 0.929 . S
C285 C284 1.380 . S
C285 C286 1.347 . S
C285 H313 0.931 . S
C286 C285 1.347 . S
C286 C287 1.369 . S
C287 C286 1.369 . S
C287 C288 1.408 . S
C287 H314 0.930 . S
C288 C283 1.348 . S
C288 C287 1.408 . S
C288 H315 0.930 . S
C289 O302 1.281 . S
C289 O303 1.254 . S
C290 O304 1.236 . S
C290 O305 1.266 . S
C291 Tb281 2.809 . S
C291 C292 1.514 . S
C291 O306 1.248 . S
C291 O307 1.266 . S
C292 C291 1.514 . S
C292 C293 1.359 . S
C292 C297 1.348 . S
C293 C292 1.359 . S
C293 C294 1.380 . S
C293 H316 0.929 . S
C294 C293 1.380 . S
C294 C295 1.347 . S
C294 H317 0.931 . S
C295 C294 1.347 . S
C295 C296 1.369 . S
C296 C295 1.369 . S
C296 C297 1.408 . S
C296 H318 0.930 . S
C297 C292 1.348 . S
C297 C296 1.408 . S
C297 H319 0.930 . S
C298 O308 1.281 . S
C298 O309 1.254 . S
C299 O310 1.236 . S
C299 O311 1.266 . S
O300 Tb280 2.484 . S
O300 C282 1.248 1_655 S
O301 Tb280 2.440 . S
O301 C282 1.266 1_655 S
O302 Tb280 2.658 . S
O302 Tb281 2.325 . S
O302 C289 1.281 . S
O303 Tb280 2.409 . S
O303 C289 1.254 . S
O304 Tb280 2.378 . S
O304 C290 1.236 . S
O305 Tb281 2.341 . S
O305 C290 1.266 . S
O306 Tb281 2.484 . S
O306 C291 1.248 . S
O307 Tb281 2.440 . S
O307 C291 1.266 . S
O308 Tb280 2.325 . S
O308 Tb281 2.658 . S
O308 C298 1.281 . S
O309 Tb281 2.409 . S
O309 C298 1.254 . S
O310 Tb281 2.378 . S
O310 C299 1.236 . S
O311 Tb280 2.341 . S
O311 C299 1.266 . S
H312 C284 0.929 . S
H313 C285 0.931 . S
H314 C287 0.930 . S
H315 C288 0.930 . S
H316 C293 0.929 . S
H317 C294 0.931 . S
H318 C296 0.930 . S
H319 C297 0.930 . S
Tb320 C322 2.809 . S
Tb320 O340 2.484 . S
Tb320 O341 2.440 . S
Tb320 O342 2.658 1_645 S
Tb320 O343 2.409 . S
Tb320 O344 2.378 1_545 S
Tb320 O348 2.325 1_545 S
Tb320 O351 2.341 1_655 S
Tb321 C331 2.809 . S
Tb321 O342 2.325 . S
Tb321 O345 2.341 . S
Tb321 O346 2.484 . S
Tb321 O347 2.440 . S
Tb321 O348 2.658 1_455 S
Tb321 O349 2.409 . S
Tb321 O350 2.378 1_565 S
C322 Tb320 2.809 . S
C322 C323 1.514 . S
C322 O340 1.248 . S
C322 O341 1.266 . S
C323 C322 1.514 . S
C323 C324 1.359 1_545 S
C323 C328 1.348 . S
C324 C323 1.359 1_565 S
C324 C325 1.380 . S
C324 H352 0.929 . S
C325 C324 1.380 . S
C325 C326 1.347 . S
C325 H353 0.931 . S
C326 C325 1.347 . S
C326 C327 1.369 1_565 S
C327 C326 1.369 1_545 S
C327 C328 1.408 . S
C327 H354 0.930 . S
C328 C323 1.348 . S
C328 C327 1.408 . S
C328 H355 0.930 . S
C329 O342 1.281 . S
C329 O343 1.254 1_465 S
C330 O344 1.236 . S
C330 O345 1.266 1_655 S
C331 Tb321 2.809 . S
C331 C332 1.514 . S
C331 O346 1.248 . S
C331 O347 1.266 . S
C332 C331 1.514 . S
C332 C333 1.359 . S
C332 C337 1.348 . S
C333 C332 1.359 . S
C333 C334 1.380 . S
C333 H356 0.929 . S
C334 C333 1.380 . S
C334 C335 1.347 . S
C334 H357 0.931 . S
C335 C334 1.347 . S
C335 C336 1.369 . S
C336 C335 1.369 . S
C336 C337 1.408 . S
C336 H358 0.930 . S
C337 C332 1.348 . S
C337 C336 1.408 . S
C337 H359 0.930 . S
C338 O348 1.281 1_455 S
C338 O349 1.254 . S
C339 O350 1.236 . S
C339 O351 1.266 . S
O340 Tb320 2.484 . S
O340 C322 1.248 . S
O341 Tb320 2.440 . S
O341 C322 1.266 . S
O342 Tb320 2.658 1_465 S
O342 Tb321 2.325 . S
O342 C329 1.281 . S
O343 Tb320 2.409 . S
O343 C329 1.254 1_645 S
O344 Tb320 2.378 1_565 S
O344 C330 1.236 . S
O345 Tb321 2.341 . S
O345 C330 1.266 1_455 S
O346 Tb321 2.484 . S
O346 C331 1.248 . S
O347 Tb321 2.440 . S
O347 C331 1.266 . S
O348 Tb320 2.325 1_565 S
O348 Tb321 2.658 1_655 S
O348 C338 1.281 1_655 S
O349 Tb321 2.409 . S
O349 C338 1.254 . S
O350 Tb321 2.378 1_545 S
O350 C339 1.236 . S
O351 Tb320 2.341 1_455 S
O351 C339 1.266 . S
H352 C324 0.929 . S
H353 C325 0.931 . S
H354 C327 0.930 . S
H355 C328 0.930 . S
H356 C333 0.929 . S
H357 C334 0.931 . S
H358 C336 0.930 . S
H359 C337 0.930 . S
Tb360 C362 2.809 . S
Tb360 O380 2.484 . S
Tb360 O381 2.440 . S
Tb360 O382 2.658 . S
Tb360 O383 2.409 . S
Tb360 O384 2.378 . S
Tb360 O388 2.325 . S
Tb360 O391 2.341 . S
Tb361 C371 2.809 1_455 S
Tb361 O382 2.325 . S
Tb361 O385 2.341 . S
Tb361 O386 2.484 . S
Tb361 O387 2.440 . S
Tb361 O388 2.658 . S
Tb361 O389 2.409 . S
Tb361 O390 2.378 . S
C362 Tb360 2.809 . S
C362 C363 1.514 . S
C362 O380 1.248 . S
C362 O381 1.266 . S
C363 C362 1.514 . S
C363 C364 1.359 . S
C363 C368 1.348 . S
C364 C363 1.359 . S
C364 C365 1.380 . S
C364 H392 0.929 . S
C365 C364 1.380 . S
C365 C366 1.347 . S
C365 H393 0.931 . S
C366 C365 1.347 . S
C366 C367 1.369 . S
C367 C366 1.369 . S
C367 C368 1.408 . S
C367 H394 0.930 . S
C368 C363 1.348 . S
C368 C367 1.408 . S
C368 H395 0.930 . S
C369 O382 1.281 . S
C369 O383 1.254 . S
C370 O384 1.236 . S
C370 O385 1.266 . S
C371 Tb361 2.809 1_655 S
C371 C372 1.514 . S
C371 O386 1.248 1_655 S
C371 O387 1.266 1_655 S
C372 C371 1.514 . S
C372 C373 1.359 . S
C372 C377 1.348 . S
C373 C372 1.359 . S
C373 C374 1.380 . S
C373 H396 0.929 . S
C374 C373 1.380 . S
C374 C375 1.347 . S
C374 H397 0.931 . S
C375 C374 1.347 . S
C375 C376 1.369 . S
C376 C375 1.369 . S
C376 C377 1.408 . S
C376 H398 0.930 . S
C377 C372 1.348 . S
C377 C376 1.408 . S
C377 H399 0.930 . S
C378 O388 1.281 . S
C378 O389 1.254 . S
C379 O390 1.236 . S
C379 O391 1.266 . S
O380 Tb360 2.484 . S
O380 C362 1.248 . S
O381 Tb360 2.440 . S
O381 C362 1.266 . S
O382 Tb360 2.658 . S
O382 Tb361 2.325 . S
O382 C369 1.281 . S
O383 Tb360 2.409 . S
O383 C369 1.254 . S
O384 Tb360 2.378 . S
O384 C370 1.236 . S
O385 Tb361 2.341 . S
O385 C370 1.266 . S
O386 Tb361 2.484 . S
O386 C371 1.248 1_455 S
O387 Tb361 2.440 . S
O387 C371 1.266 1_455 S
O388 Tb360 2.325 . S
O388 Tb361 2.658 . S
O388 C378 1.281 . S
O389 Tb361 2.409 . S
O389 C378 1.254 . S
O390 Tb361 2.378 . S
O390 C379 1.236 . S
O391 Tb360 2.341 . S
O391 C379 1.266 . S
H392 C364 0.929 . S
H393 C365 0.931 . S
H394 C367 0.930 . S
H395 C368 0.930 . S
H396 C373 0.929 . S
H397 C374 0.931 . S
H398 C376 0.930 . S
H399 C377 0.930 . S
Tb400 C402 2.809 . S
Tb400 O420 2.484 . S
Tb400 O421 2.440 . S
Tb400 O422 2.658 1_655 S
Tb400 O423 2.409 . S
Tb400 O424 2.378 . S
Tb400 O428 2.325 . S
Tb400 O431 2.341 1_655 S
Tb401 C411 2.809 . S
Tb401 O422 2.325 . S
Tb401 O425 2.341 . S
Tb401 O426 2.484 . S
Tb401 O427 2.440 . S
Tb401 O428 2.658 1_455 S
Tb401 O429 2.409 . S
Tb401 O430 2.378 . S
C402 Tb400 2.809 . S
C402 C403 1.514 . S
C402 O420 1.248 . S
C402 O421 1.266 . S
C403 C402 1.514 . S
C403 C404 1.359 . S
C403 C408 1.348 . S
C404 C403 1.359 . S
C404 C405 1.380 . S
C404 H432 0.929 . S
C405 C404 1.380 . S
C405 C406 1.347 . S
C405 H433 0.931 . S
C406 C405 1.347 . S
C406 C407 1.369 . S
C407 C406 1.369 . S
C407 C408 1.408 . S
C407 H434 0.930 . S
C408 C403 1.348 . S
C408 C407 1.408 . S
C408 H435 0.930 . S
C409 O422 1.281 . S
C409 O423 1.254 1_455 S
C410 O424 1.236 . S
C410 O425 1.266 1_655 S
C411 Tb401 2.809 . S
C411 C412 1.514 . S
C411 O426 1.248 . S
C411 O427 1.266 . S
C412 C411 1.514 . S
C412 C413 1.359 . S
C412 C417 1.348 . S
C413 C412 1.359 . S
C413 C414 1.380 . S
C413 H436 0.929 . S
C414 C413 1.380 . S
C414 C415 1.347 . S
C414 H437 0.931 . S
C415 C414 1.347 . S
C415 C416 1.369 . S
C416 C415 1.369 . S
C416 C417 1.408 . S
C416 H438 0.930 . S
C417 C412 1.348 . S
C417 C416 1.408 . S
C417 H439 0.930 . S
C418 O428 1.281 1_455 S
C418 O429 1.254 . S
C419 O430 1.236 . S
C419 O431 1.266 . S
O420 Tb400 2.484 . S
O420 C402 1.248 . S
O421 Tb400 2.440 . S
O421 C402 1.266 . S
O422 Tb400 2.658 1_455 S
O422 Tb401 2.325 . S
O422 C409 1.281 . S
O423 Tb400 2.409 . S
O423 C409 1.254 1_655 S
O424 Tb400 2.378 . S
O424 C410 1.236 . S
O425 Tb401 2.341 . S
O425 C410 1.266 1_455 S
O426 Tb401 2.484 . S
O426 C411 1.248 . S
O427 Tb401 2.440 . S
O427 C411 1.266 . S
O428 Tb400 2.325 . S
O428 Tb401 2.658 1_655 S
O428 C418 1.281 1_655 S
O429 Tb401 2.409 . S
O429 C418 1.254 . S
O430 Tb401 2.378 . S
O430 C419 1.236 . S
O431 Tb400 2.341 1_455 S
O431 C419 1.266 . S
H432 C404 0.929 . S
H433 C405 0.931 . S
H434 C407 0.930 . S
H435 C408 0.930 . S
H436 C413 0.929 . S
H437 C414 0.931 . S
H438 C416 0.930 . S
H439 C417 0.930 . S
Tb440 C442 2.809 . S
Tb440 O460 2.484 . S
Tb440 O461 2.440 . S
Tb440 O462 2.658 1_545 S
Tb440 O463 2.409 . S
Tb440 O464 2.378 1_545 S
Tb440 O468 2.325 1_545 S
Tb440 O471 2.341 . S
Tb441 C451 2.809 1_455 S
Tb441 O462 2.325 . S
Tb441 O465 2.341 . S
Tb441 O466 2.484 . S
Tb441 O467 2.440 . S
Tb441 O468 2.658 . S
Tb441 O469 2.409 . S
Tb441 O470 2.378 1_565 S
C442 Tb440 2.809 . S
C442 C443 1.514 . S
C442 O460 1.248 . S
C442 O461 1.266 . S
C443 C442 1.514 . S
C443 C444 1.359 1_545 S
C443 C448 1.348 . S
C444 C443 1.359 1_565 S
C444 C445 1.380 . S
C444 H472 0.929 . S
C445 C444 1.380 . S
C445 C446 1.347 . S
C445 H473 0.931 . S
C446 C445 1.347 . S
C446 C447 1.369 1_565 S
C447 C446 1.369 1_545 S
C447 C448 1.408 . S
C447 H474 0.930 . S
C448 C443 1.348 . S
C448 C447 1.408 . S
C448 H475 0.930 . S
C449 O462 1.281 . S
C449 O463 1.254 1_565 S
C450 O464 1.236 . S
C450 O465 1.266 . S
C451 Tb441 2.809 1_655 S
C451 C452 1.514 . S
C451 O466 1.248 1_655 S
C451 O467 1.266 1_655 S
C452 C451 1.514 . S
C452 C453 1.359 . S
C452 C457 1.348 . S
C453 C452 1.359 . S
C453 C454 1.380 . S
C453 H476 0.929 . S
C454 C453 1.380 . S
C454 C455 1.347 . S
C454 H477 0.931 . S
C455 C454 1.347 . S
C455 C456 1.369 . S
C456 C455 1.369 . S
C456 C457 1.408 . S
C456 H478 0.930 . S
C457 C452 1.348 . S
C457 C456 1.408 . S
C457 H479 0.930 . S
C458 O468 1.281 . S
C458 O469 1.254 . S
C459 O470 1.236 . S
C459 O471 1.266 . S
O460 Tb440 2.484 . S
O460 C442 1.248 . S
O461 Tb440 2.440 . S
O461 C442 1.266 . S
O462 Tb440 2.658 1_565 S
O462 Tb441 2.325 . S
O462 C449 1.281 . S
O463 Tb440 2.409 . S
O463 C449 1.254 1_545 S
O464 Tb440 2.378 1_565 S
O464 C450 1.236 . S
O465 Tb441 2.341 . S
O465 C450 1.266 . S
O466 Tb441 2.484 . S
O466 C451 1.248 1_455 S
O467 Tb441 2.440 . S
O467 C451 1.266 1_455 S
O468 Tb440 2.325 1_565 S
O468 Tb441 2.658 . S
O468 C458 1.281 . S
O469 Tb441 2.409 . S
O469 C458 1.254 . S
O470 Tb441 2.378 1_545 S
O470 C459 1.236 . S
O471 Tb440 2.341 . S
O471 C459 1.266 . S
H472 C444 0.929 . S
H473 C445 0.931 . S
H474 C447 0.930 . S
H475 C448 0.930 . S
H476 C453 0.929 . S
H477 C454 0.931 . S
H478 C456 0.930 . S
H479 C457 0.930 . S
Tb480 C482 2.809 . S
Tb480 O500 2.484 . S
Tb480 O501 2.440 . S
Tb480 O502 2.658 1_655 S
Tb480 O503 2.409 . S
Tb480 O504 2.378 1_545 S
Tb480 O508 2.325 . S
Tb480 O511 2.341 . S
Tb481 C491 2.809 . S
Tb481 O502 2.325 1_565 S
Tb481 O505 2.341 1_455 S
Tb481 O506 2.484 . S
Tb481 O507 2.440 . S
Tb481 O508 2.658 1_465 S
Tb481 O509 2.409 . S
Tb481 O510 2.378 1_565 S
C482 Tb480 2.809 . S
C482 C483 1.514 . S
C482 O500 1.248 . S
C482 O501 1.266 . S
C483 C482 1.514 . S
C483 C484 1.359 . S
C483 C488 1.348 . S
C484 C483 1.359 . S
C484 C485 1.380 . S
C484 H512 0.929 . S
C485 C484 1.380 . S
C485 C486 1.347 . S
C485 H513 0.931 . S
C486 C485 1.347 . S
C486 C487 1.369 . S
C487 C486 1.369 . S
C487 C488 1.408 . S
C487 H514 0.930 . S
C488 C483 1.348 . S
C488 C487 1.408 . S
C488 H515 0.930 . S
C489 O502 1.281 1_655 S
C489 O503 1.254 . S
C490 O504 1.236 . S
C490 O505 1.266 . S
C491 Tb481 2.809 . S
C491 C492 1.514 . S
C491 O506 1.248 . S
C491 O507 1.266 . S
C492 C491 1.514 . S
C492 C493 1.359 1_565 S
C492 C497 1.348 . S
C493 C492 1.359 1_545 S
C493 C494 1.380 . S
C493 H516 0.929 . S
C494 C493 1.380 . S
C494 C495 1.347 . S
C494 H517 0.931 . S
C495 C494 1.347 . S
C495 C496 1.369 1_545 S
C496 C495 1.369 1_565 S
C496 C497 1.408 . S
C496 H518 0.930 . S
C497 C492 1.348 . S
C497 C496 1.408 . S
C497 H519 0.930 . S
C498 O508 1.281 . S
C498 O509 1.254 1_645 S
C499 O510 1.236 . S
C499 O511 1.266 1_455 S
O500 Tb480 2.484 . S
O500 C482 1.248 . S
O501 Tb480 2.440 . S
O501 C482 1.266 . S
O502 Tb480 2.658 1_455 S
O502 Tb481 2.325 1_545 S
O502 C489 1.281 1_455 S
O503 Tb480 2.409 . S
O503 C489 1.254 . S
O504 Tb480 2.378 1_565 S
O504 C490 1.236 . S
O505 Tb481 2.341 1_655 S
O505 C490 1.266 . S
O506 Tb481 2.484 . S
O506 C491 1.248 . S
O507 Tb481 2.440 . S
O507 C491 1.266 . S
O508 Tb480 2.325 . S
O508 Tb481 2.658 1_645 S
O508 C498 1.281 . S
O509 Tb481 2.409 . S
O509 C498 1.254 1_465 S
O510 Tb481 2.378 1_545 S
O510 C499 1.236 . S
O511 Tb480 2.341 . S
O511 C499 1.266 1_655 S
H512 C484 0.929 . S
H513 C485 0.931 . S
H514 C487 0.930 . S
H515 C488 0.930 . S
H516 C493 0.929 . S
H517 C494 0.931 . S
H518 C496 0.930 . S
H519 C497 0.930 . S
Tb520 C522 2.809 1_655 S
Tb520 O540 2.484 . S
Tb520 O541 2.440 . S
Tb520 O542 2.658 . S
Tb520 O543 2.409 . S
Tb520 O544 2.378 . S
Tb520 O548 2.325 . S
Tb520 O551 2.341 . S
Tb521 C531 2.809 . S
Tb521 O542 2.325 . S
Tb521 O545 2.341 . S
Tb521 O546 2.484 . S
Tb521 O547 2.440 . S
Tb521 O548 2.658 . S
Tb521 O549 2.409 . S
Tb521 O550 2.378 . S
C522 Tb520 2.809 1_455 S
C522 C523 1.514 . S
C522 O540 1.248 1_455 S
C522 O541 1.266 1_455 S
C523 C522 1.514 . S
C523 C524 1.359 . S
C523 C528 1.348 . S
C524 C523 1.359 . S
C524 C525 1.380 . S
C524 H552 0.929 . S
C525 C524 1.380 . S
C525 C526 1.347 . S
C525 H553 0.931 . S
C526 C525 1.347 . S
C526 C527 1.369 . S
C527 C526 1.369 . S
C527 C528 1.408 . S
C527 H554 0.930 . S
C528 C523 1.348 . S
C528 C527 1.408 . S
C528 H555 0.930 . S
C529 O542 1.281 . S
C529 O543 1.254 . S
C530 O544 1.236 . S
C530 O545 1.266 . S
C531 Tb521 2.809 . S
C531 C532 1.514 . S
C531 O546 1.248 . S
C531 O547 1.266 . S
C532 C531 1.514 . S
C532 C533 1.359 . S
C532 C537 1.348 . S
C533 C532 1.359 . S
C533 C534 1.380 . S
C533 H556 0.929 . S
C534 C533 1.380 . S
C534 C535 1.347 . S
C534 H557 0.931 . S
C535 C534 1.347 . S
C535 C536 1.369 . S
C536 C535 1.369 . S
C536 C537 1.408 . S
C536 H558 0.930 . S
C537 C532 1.348 . S
C537 C536 1.408 . S
C537 H559 0.930 . S
C538 O548 1.281 . S
C538 O549 1.254 . S
C539 O550 1.236 . S
C539 O551 1.266 . S
O540 Tb520 2.484 . S
O540 C522 1.248 1_655 S
O541 Tb520 2.440 . S
O541 C522 1.266 1_655 S
O542 Tb520 2.658 . S
O542 Tb521 2.325 . S
O542 C529 1.281 . S
O543 Tb520 2.409 . S
O543 C529 1.254 . S
O544 Tb520 2.378 . S
O544 C530 1.236 . S
O545 Tb521 2.341 . S
O545 C530 1.266 . S
O546 Tb521 2.484 . S
O546 C531 1.248 . S
O547 Tb521 2.440 . S
O547 C531 1.266 . S
O548 Tb520 2.325 . S
O548 Tb521 2.658 . S
O548 C538 1.281 . S
O549 Tb521 2.409 . S
O549 C538 1.254 . S
O550 Tb521 2.378 . S
O550 C539 1.236 . S
O551 Tb520 2.341 . S
O551 C539 1.266 . S
H552 C524 0.929 . S
H553 C525 0.931 . S
H554 C527 0.930 . S
H555 C528 0.930 . S
H556 C533 0.929 . S
H557 C534 0.931 . S
H558 C536 0.930 . S
H559 C537 0.930 . S
Tb560 C562 2.809 . S
Tb560 O580 2.484 . S
Tb560 O581 2.440 . S
Tb560 O582 2.658 1_655 S
Tb560 O583 2.409 . S
Tb560 O584 2.378 . S
Tb560 O588 2.325 . S
Tb560 O591 2.341 . S
Tb561 C571 2.809 . S
Tb561 O582 2.325 . S
Tb561 O585 2.341 1_455 S
Tb561 O586 2.484 . S
Tb561 O587 2.440 . S
Tb561 O588 2.658 1_455 S
Tb561 O589 2.409 . S
Tb561 O590 2.378 . S
C562 Tb560 2.809 . S
C562 C563 1.514 . S
C562 O580 1.248 . S
C562 O581 1.266 . S
C563 C562 1.514 . S
C563 C564 1.359 . S
C563 C568 1.348 . S
C564 C563 1.359 . S
C564 C565 1.380 . S
C564 H592 0.929 . S
C565 C564 1.380 . S
C565 C566 1.347 . S
C565 H593 0.931 . S
C566 C565 1.347 . S
C566 C567 1.369 . S
C567 C566 1.369 . S
C567 C568 1.408 . S
C567 H594 0.930 . S
C568 C563 1.348 . S
C568 C567 1.408 . S
C568 H595 0.930 . S
C569 O582 1.281 1_655 S
C569 O583 1.254 . S
C570 O584 1.236 . S
C570 O585 1.266 . S
C571 Tb561 2.809 . S
C571 C572 1.514 . S
C571 O586 1.248 . S
C571 O587 1.266 . S
C572 C571 1.514 . S
C572 C573 1.359 . S
C572 C577 1.348 . S
C573 C572 1.359 . S
C573 C574 1.380 . S
C573 H596 0.929 . S
C574 C573 1.380 . S
C574 C575 1.347 . S
C574 H597 0.931 . S
C575 C574 1.347 . S
C575 C576 1.369 . S
C576 C575 1.369 . S
C576 C577 1.408 . S
C576 H598 0.930 . S
C577 C572 1.348 . S
C577 C576 1.408 . S
C577 H599 0.930 . S
C578 O588 1.281 . S
C578 O589 1.254 1_655 S
C579 O590 1.236 . S
C579 O591 1.266 1_455 S
O580 Tb560 2.484 . S
O580 C562 1.248 . S
O581 Tb560 2.440 . S
O581 C562 1.266 . S
O582 Tb560 2.658 1_455 S
O582 Tb561 2.325 . S
O582 C569 1.281 1_455 S
O583 Tb560 2.409 . S
O583 C569 1.254 . S
O584 Tb560 2.378 . S
O584 C570 1.236 . S
O585 Tb561 2.341 1_655 S
O585 C570 1.266 . S
O586 Tb561 2.484 . S
O586 C571 1.248 . S
O587 Tb561 2.440 . S
O587 C571 1.266 . S
O588 Tb560 2.325 . S
O588 Tb561 2.658 1_655 S
O588 C578 1.281 . S
O589 Tb561 2.409 . S
O589 C578 1.254 1_455 S
O590 Tb561 2.378 . S
O590 C579 1.236 . S
O591 Tb560 2.341 . S
O591 C579 1.266 1_655 S
H592 C564 0.929 . S
H593 C565 0.931 . S
H594 C567 0.930 . S
H595 C568 0.930 . S
H596 C573 0.929 . S
H597 C574 0.931 . S
H598 C576 0.930 . S
H599 C577 0.930 . S
Tb600 C602 2.809 1_655 S
Tb600 O620 2.484 . S
Tb600 O621 2.440 . S
Tb600 O622 2.658 . S
Tb600 O623 2.409 . S
Tb600 O624 2.378 1_545 S
Tb600 O628 2.325 . S
Tb600 O631 2.341 . S
Tb601 C611 2.809 . S
Tb601 O622 2.325 1_565 S
Tb601 O625 2.341 . S
Tb601 O626 2.484 . S
Tb601 O627 2.440 . S
Tb601 O628 2.658 1_565 S
Tb601 O629 2.409 . S
Tb601 O630 2.378 1_565 S
C602 Tb600 2.809 1_455 S
C602 C603 1.514 . S
C602 O620 1.248 1_455 S
C602 O621 1.266 1_455 S
C603 C602 1.514 . S
C603 C604 1.359 . S
C603 C608 1.348 . S
C604 C603 1.359 . S
C604 C605 1.380 . S
C604 H632 0.929 . S
C605 C604 1.380 . S
C605 C606 1.347 . S
C605 H633 0.931 . S
C606 C605 1.347 . S
C606 C607 1.369 . S
C607 C606 1.369 . S
C607 C608 1.408 . S
C607 H634 0.930 . S
C608 C603 1.348 . S
C608 C607 1.408 . S
C608 H635 0.930 . S
C609 O622 1.281 . S
C609 O623 1.254 . S
C610 O624 1.236 . S
C610 O625 1.266 . S
C611 Tb601 2.809 . S
C611 C612 1.514 . S
C611 O626 1.248 . S
C611 O627 1.266 . S
C612 C611 1.514 . S
C612 C613 1.359 1_565 S
C612 C617 1.348 . S
C613 C612 1.359 1_545 S
C613 C614 1.380 . S
C613 H636 0.929 . S
C614 C613 1.380 . S
C614 C615 1.347 . S
C614 H637 0.931 . S
C615 C614 1.347 . S
C615 C616 1.369 1_545 S
C616 C615 1.369 1_565 S
C616 C617 1.408 . S
C616 H638 0.930 . S
C617 C612 1.348 . S
C617 C616 1.408 . S
C617 H639 0.930 . S
C618 O628 1.281 . S
C618 O629 1.254 1_545 S
C619 O630 1.236 . S
C619 O631 1.266 . S
O620 Tb600 2.484 . S
O620 C602 1.248 1_655 S
O621 Tb600 2.440 . S
O621 C602 1.266 1_655 S
O622 Tb600 2.658 . S
O622 Tb601 2.325 1_545 S
O622 C609 1.281 . S
O623 Tb600 2.409 . S
O623 C609 1.254 . S
O624 Tb600 2.378 1_565 S
O624 C610 1.236 . S
O625 Tb601 2.341 . S
O625 C610 1.266 . S
O626 Tb601 2.484 . S
O626 C611 1.248 . S
O627 Tb601 2.440 . S
O627 C611 1.266 . S
O628 Tb600 2.325 . S
O628 Tb601 2.658 1_545 S
O628 C618 1.281 . S
O629 Tb601 2.409 . S
O629 C618 1.254 1_565 S
O630 Tb601 2.378 1_545 S
O630 C619 1.236 . S
O631 Tb600 2.341 . S
O631 C619 1.266 . S
H632 C604 0.929 . S
H633 C605 0.931 . S
H634 C607 0.930 . S
H635 C608 0.930 . S
H636 C613 0.929 . S
H637 C614 0.931 . S
H638 C616 0.930 . S
H639 C617 0.930 . S
Tb640 C642 2.809 . S
Tb640 O660 2.484 . S
Tb640 O661 2.440 . S
Tb640 O662 2.658 . S
Tb640 O663 2.409 . S
Tb640 O664 2.378 . S
Tb640 O668 2.325 . S
Tb640 O671 2.341 . S
Tb641 C651 2.809 . S
Tb641 O662 2.325 . S
Tb641 O665 2.341 . S
Tb641 O666 2.484 . S
Tb641 O667 2.440 . S
Tb641 O668 2.658 . S
Tb641 O669 2.409 . S
Tb641 O670 2.378 . S
C642 Tb640 2.809 . S
C642 C643 1.514 . S
C642 O660 1.248 . S
C642 O661 1.266 . S
C643 C642 1.514 . S
C643 C644 1.359 . S
C643 C648 1.348 . S
C644 C643 1.359 . S
C644 C645 1.380 . S
C644 H672 0.929 . S
C645 C644 1.380 . S
C645 C646 1.347 . S
C645 H673 0.931 . S
C646 C645 1.347 . S
C646 C647 1.369 . S
C647 C646 1.369 . S
C647 C648 1.408 . S
C647 H674 0.930 . S
C648 C643 1.348 . S
C648 C647 1.408 . S
C648 H675 0.930 . S
C649 O662 1.281 . S
C649 O663 1.254 . S
C650 O664 1.236 . S
C650 O665 1.266 . S
C651 Tb641 2.809 . S
C651 C652 1.514 . S
C651 O666 1.248 . S
C651 O667 1.266 . S
C652 C651 1.514 . S
C652 C653 1.359 . S
C652 C657 1.348 . S
C653 C652 1.359 . S
C653 C654 1.380 . S
C653 H676 0.929 . S
C654 C653 1.380 . S
C654 C655 1.347 . S
C654 H677 0.931 . S
C655 C654 1.347 . S
C655 C656 1.369 . S
C656 C655 1.369 . S
C656 C657 1.408 . S
C656 H678 0.930 . S
C657 C652 1.348 . S
C657 C656 1.408 . S
C657 H679 0.930 . S
C658 O668 1.281 . S
C658 O669 1.254 . S
C659 O670 1.236 . S
C659 O671 1.266 . S
O660 Tb640 2.484 . S
O660 C642 1.248 . S
O661 Tb640 2.440 . S
O661 C642 1.266 . S
O662 Tb640 2.658 . S
O662 Tb641 2.325 . S
O662 C649 1.281 . S
O663 Tb640 2.409 . S
O663 C649 1.254 . S
O664 Tb640 2.378 . S
O664 C650 1.236 . S
O665 Tb641 2.341 . S
O665 C650 1.266 . S
O666 Tb641 2.484 . S
O666 C651 1.248 . S
O667 Tb641 2.440 . S
O667 C651 1.266 . S
O668 Tb640 2.325 . S
O668 Tb641 2.658 . S
O668 C658 1.281 . S
O669 Tb641 2.409 . S
O669 C658 1.254 . S
O670 Tb641 2.378 . S
O670 C659 1.236 . S
O671 Tb640 2.341 . S
O671 C659 1.266 . S
H672 C644 0.929 . S
H673 C645 0.931 . S
H674 C647 0.930 . S
H675 C648 0.930 . S
H676 C653 0.929 . S
H677 C654 0.931 . S
H678 C656 0.930 . S
H679 C657 0.930 . S
Tb680 C682 2.809 . S
Tb680 O700 2.484 . S
Tb680 O701 2.440 . S
Tb680 O702 2.658 . S
Tb680 O703 2.409 . S
Tb680 O704 2.378 . S
Tb680 O708 2.325 . S
Tb680 O711 2.341 . S
Tb681 C691 2.809 . S
Tb681 O702 2.325 . S
Tb681 O705 2.341 . S
Tb681 O706 2.484 . S
Tb681 O707 2.440 . S
Tb681 O708 2.658 . S
Tb681 O709 2.409 . S
Tb681 O710 2.378 . S
C682 Tb680 2.809 . S
C682 C683 1.514 1_655 S
C682 O700 1.248 . S
C682 O701 1.266 . S
C683 C682 1.514 1_455 S
C683 C684 1.359 . S
C683 C688 1.348 . S
C684 C683 1.359 . S
C684 C685 1.380 . S
C684 H712 0.929 . S
C685 C684 1.380 . S
C685 C686 1.347 . S
C685 H713 0.931 . S
C686 C685 1.347 . S
C686 C687 1.369 . S
C687 C686 1.369 . S
C687 C688 1.408 . S
C687 H714 0.930 . S
C688 C683 1.348 . S
C688 C687 1.408 . S
C688 H715 0.930 . S
C689 O702 1.281 . S
C689 O703 1.254 . S
C690 O704 1.236 . S
C690 O705 1.266 . S
C691 Tb681 2.809 . S
C691 C692 1.514 . S
C691 O706 1.248 . S
C691 O707 1.266 . S
C692 C691 1.514 . S
C692 C693 1.359 . S
C692 C697 1.348 . S
C693 C692 1.359 . S
C693 C694 1.380 . S
C693 H716 0.929 . S
C694 C693 1.380 . S
C694 C695 1.347 . S
C694 H717 0.931 . S
C695 C694 1.347 . S
C695 C696 1.369 . S
C696 C695 1.369 . S
C696 C697 1.408 . S
C696 H718 0.930 . S
C697 C692 1.348 . S
C697 C696 1.408 . S
C697 H719 0.930 . S
C698 O708 1.281 . S
C698 O709 1.254 . S
C699 O710 1.236 . S
C699 O711 1.266 . S
O700 Tb680 2.484 . S
O700 C682 1.248 . S
O701 Tb680 2.440 . S
O701 C682 1.266 . S
O702 Tb680 2.658 . S
O702 Tb681 2.325 . S
O702 C689 1.281 . S
O703 Tb680 2.409 . S
O703 C689 1.254 . S
O704 Tb680 2.378 . S
O704 C690 1.236 . S
O705 Tb681 2.341 . S
O705 C690 1.266 . S
O706 Tb681 2.484 . S
O706 C691 1.248 . S
O707 Tb681 2.440 . S
O707 C691 1.266 . S
O708 Tb680 2.325 . S
O708 Tb681 2.658 . S
O708 C698 1.281 . S
O709 Tb681 2.409 . S
O709 C698 1.254 . S
O710 Tb681 2.378 . S
O710 C699 1.236 . S
O711 Tb680 2.341 . S
O711 C699 1.266 . S
H712 C684 0.929 . S
H713 C685 0.931 . S
H714 C687 0.930 . S
H715 C688 0.930 . S
H716 C693 0.929 . S
H717 C694 0.931 . S
H718 C696 0.930 . S
H719 C697 0.930 . S
Tb720 C722 2.809 . S
Tb720 O740 2.484 . S
Tb720 O741 2.440 . S
Tb720 O742 2.658 . S
Tb720 O743 2.409 . S
Tb720 O744 2.378 . S
Tb720 O748 2.325 . S
Tb720 O751 2.341 . S
Tb721 C731 2.809 . S
Tb721 O742 2.325 . S
Tb721 O745 2.341 . S
Tb721 O746 2.484 . S
Tb721 O747 2.440 . S
Tb721 O748 2.658 . S
Tb721 O749 2.409 . S
Tb721 O750 2.378 . S
C722 Tb720 2.809 . S
C722 C723 1.514 . S
C722 O740 1.248 . S
C722 O741 1.266 . S
C723 C722 1.514 . S
C723 C724 1.359 . S
C723 C728 1.348 . S
C724 C723 1.359 . S
C724 C725 1.380 . S
C724 H752 0.929 . S
C725 C724 1.380 . S
C725 C726 1.347 . S
C725 H753 0.931 . S
C726 C725 1.347 . S
C726 C727 1.369 . S
C727 C726 1.369 . S
C727 C728 1.408 . S
C727 H754 0.930 . S
C728 C723 1.348 . S
C728 C727 1.408 . S
C728 H755 0.930 . S
C729 O742 1.281 . S
C729 O743 1.254 . S
C730 O744 1.236 . S
C730 O745 1.266 . S
C731 Tb721 2.809 . S
C731 C732 1.514 . S
C731 O746 1.248 . S
C731 O747 1.266 . S
C732 C731 1.514 . S
C732 C733 1.359 . S
C732 C737 1.348 . S
C733 C732 1.359 . S
C733 C734 1.380 . S
C733 H756 0.929 . S
C734 C733 1.380 . S
C734 C735 1.347 . S
C734 H757 0.931 . S
C735 C734 1.347 . S
C735 C736 1.369 . S
C736 C735 1.369 . S
C736 C737 1.408 . S
C736 H758 0.930 . S
C737 C732 1.348 . S
C737 C736 1.408 . S
C737 H759 0.930 . S
C738 O748 1.281 . S
C738 O749 1.254 . S
C739 O750 1.236 . S
C739 O751 1.266 . S
O740 Tb720 2.484 . S
O740 C722 1.248 . S
O741 Tb720 2.440 . S
O741 C722 1.266 . S
O742 Tb720 2.658 . S
O742 Tb721 2.325 . S
O742 C729 1.281 . S
O743 Tb720 2.409 . S
O743 C729 1.254 . S
O744 Tb720 2.378 . S
O744 C730 1.236 . S
O745 Tb721 2.341 . S
O745 C730 1.266 . S
O746 Tb721 2.484 . S
O746 C731 1.248 . S
O747 Tb721 2.440 . S
O747 C731 1.266 . S
O748 Tb720 2.325 . S
O748 Tb721 2.658 . S
O748 C738 1.281 . S
O749 Tb721 2.409 . S
O749 C738 1.254 . S
O750 Tb721 2.378 . S
O750 C739 1.236 . S
O751 Tb720 2.341 . S
O751 C739 1.266 . S
H752 C724 0.929 . S
H753 C725 0.931 . S
H754 C727 0.930 . S
H755 C728 0.930 . S
H756 C733 0.929 . S
H757 C734 0.931 . S
H758 C736 0.930 . S
H759 C737 0.930 . S
Tb760 C762 2.809 . S
Tb760 O780 2.484 . S
Tb760 O781 2.440 . S
Tb760 O782 2.658 . S
Tb760 O783 2.409 . S
Tb760 O784 2.378 . S
Tb760 O788 2.325 . S
Tb760 O791 2.341 . S
Tb761 C771 2.809 . S
Tb761 O782 2.325 . S
Tb761 O785 2.341 . S
Tb761 O786 2.484 . S
Tb761 O787 2.440 . S
Tb761 O788 2.658 . S
Tb761 O789 2.409 . S
Tb761 O790 2.378 . S
C762 Tb760 2.809 . S
C762 C763 1.514 1_655 S
C762 O780 1.248 . S
C762 O781 1.266 . S
C763 C762 1.514 1_455 S
C763 C764 1.359 . S
C763 C768 1.348 . S
C764 C763 1.359 . S
C764 C765 1.380 . S
C764 H792 0.929 . S
C765 C764 1.380 . S
C765 C766 1.347 . S
C765 H793 0.931 . S
C766 C765 1.347 . S
C766 C767 1.369 . S
C767 C766 1.369 . S
C767 C768 1.408 . S
C767 H794 0.930 . S
C768 C763 1.348 . S
C768 C767 1.408 . S
C768 H795 0.930 . S
C769 O782 1.281 . S
C769 O783 1.254 . S
C770 O784 1.236 . S
C770 O785 1.266 . S
C771 Tb761 2.809 . S
C771 C772 1.514 . S
C771 O786 1.248 . S
C771 O787 1.266 . S
C772 C771 1.514 . S
C772 C773 1.359 . S
C772 C777 1.348 . S
C773 C772 1.359 . S
C773 C774 1.380 . S
C773 H796 0.929 . S
C774 C773 1.380 . S
C774 C775 1.347 . S
C774 H797 0.931 . S
C775 C774 1.347 . S
C775 C776 1.369 . S
C776 C775 1.369 . S
C776 C777 1.408 . S
C776 H798 0.930 . S
C777 C772 1.348 . S
C777 C776 1.408 . S
C777 H799 0.930 . S
C778 O788 1.281 . S
C778 O789 1.254 . S
C779 O790 1.236 . S
C779 O791 1.266 . S
O780 Tb760 2.484 . S
O780 C762 1.248 . S
O781 Tb760 2.440 . S
O781 C762 1.266 . S
O782 Tb760 2.658 . S
O782 Tb761 2.325 . S
O782 C769 1.281 . S
O783 Tb760 2.409 . S
O783 C769 1.254 . S
O784 Tb760 2.378 . S
O784 C770 1.236 . S
O785 Tb761 2.341 . S
O785 C770 1.266 . S
O786 Tb761 2.484 . S
O786 C771 1.248 . S
O787 Tb761 2.440 . S
O787 C771 1.266 . S
O788 Tb760 2.325 . S
O788 Tb761 2.658 . S
O788 C778 1.281 . S
O789 Tb761 2.409 . S
O789 C778 1.254 . S
O790 Tb761 2.378 . S
O790 C779 1.236 . S
O791 Tb760 2.341 . S
O791 C779 1.266 . S
H792 C764 0.929 . S
H793 C765 0.931 . S
H794 C767 0.930 . S
H795 C768 0.930 . S
H796 C773 0.929 . S
H797 C774 0.931 . S
H798 C776 0.930 . S
H799 C777 0.930 . S
Tb800 C802 2.809 . S
Tb800 O820 2.484 . S
Tb800 O821 2.440 . S
Tb800 O822 2.658 . S
Tb800 O823 2.409 . S
Tb800 O824 2.378 . S
Tb800 O828 2.325 . S
Tb800 O831 2.341 . S
Tb801 C811 2.809 . S
Tb801 O822 2.325 . S
Tb801 O825 2.341 . S
Tb801 O826 2.484 . S
Tb801 O827 2.440 . S
Tb801 O828 2.658 . S
Tb801 O829 2.409 . S
Tb801 O830 2.378 . S
C802 Tb800 2.809 . S
C802 C803 1.514 . S
C802 O820 1.248 . S
C802 O821 1.266 . S
C803 C802 1.514 . S
C803 C804 1.359 . S
C803 C808 1.348 . S
C804 C803 1.359 . S
C804 C805 1.380 . S
C804 H832 0.929 . S
C805 C804 1.380 . S
C805 C806 1.347 . S
C805 H833 0.931 . S
C806 C805 1.347 . S
C806 C807 1.369 . S
C807 C806 1.369 . S
C807 C808 1.408 . S
C807 H834 0.930 . S
C808 C803 1.348 . S
C808 C807 1.408 . S
C808 H835 0.930 . S
C809 O822 1.281 . S
C809 O823 1.254 . S
C810 O824 1.236 . S
C810 O825 1.266 . S
C811 Tb801 2.809 . S
C811 C812 1.514 . S
C811 O826 1.248 . S
C811 O827 1.266 . S
C812 C811 1.514 . S
C812 C813 1.359 . S
C812 C817 1.348 . S
C813 C812 1.359 . S
C813 C814 1.380 . S
C813 H836 0.929 . S
C814 C813 1.380 . S
C814 C815 1.347 . S
C814 H837 0.931 . S
C815 C814 1.347 . S
C815 C816 1.369 . S
C816 C815 1.369 . S
C816 C817 1.408 . S
C816 H838 0.930 . S
C817 C812 1.348 . S
C817 C816 1.408 . S
C817 H839 0.930 . S
C818 O828 1.281 . S
C818 O829 1.254 . S
C819 O830 1.236 . S
C819 O831 1.266 . S
O820 Tb800 2.484 . S
O820 C802 1.248 . S
O821 Tb800 2.440 . S
O821 C802 1.266 . S
O822 Tb800 2.658 . S
O822 Tb801 2.325 . S
O822 C809 1.281 . S
O823 Tb800 2.409 . S
O823 C809 1.254 . S
O824 Tb800 2.378 . S
O824 C810 1.236 . S
O825 Tb801 2.341 . S
O825 C810 1.266 . S
O826 Tb801 2.484 . S
O826 C811 1.248 . S
O827 Tb801 2.440 . S
O827 C811 1.266 . S
O828 Tb800 2.325 . S
O828 Tb801 2.658 . S
O828 C818 1.281 . S
O829 Tb801 2.409 . S
O829 C818 1.254 . S
O830 Tb801 2.378 . S
O830 C819 1.236 . S
O831 Tb800 2.341 . S
O831 C819 1.266 . S
H832 C804 0.929 . S
H833 C805 0.931 . S
H834 C807 0.930 . S
H835 C808 0.930 . S
H836 C813 0.929 . S
H837 C814 0.931 . S
H838 C816 0.930 . S
H839 C817 0.930 . S
Tb840 C842 2.809 . S
Tb840 O860 2.484 . S
Tb840 O861 2.440 . S
Tb840 O862 2.658 . S
Tb840 O863 2.409 . S
Tb840 O864 2.378 . S
Tb840 O868 2.325 . S
Tb840 O871 2.341 . S
Tb841 C851 2.809 . S
Tb841 O862 2.325 . S
Tb841 O865 2.341 . S
Tb841 O866 2.484 . S
Tb841 O867 2.440 . S
Tb841 O868 2.658 . S
Tb841 O869 2.409 . S
Tb841 O870 2.378 . S
C842 Tb840 2.809 . S
C842 C843 1.514 . S
C842 O860 1.248 . S
C842 O861 1.266 . S
C843 C842 1.514 . S
C843 C844 1.359 . S
C843 C848 1.348 . S
C844 C843 1.359 . S
C844 C845 1.380 . S
C844 H872 0.929 . S
C845 C844 1.380 . S
C845 C846 1.347 . S
C845 H873 0.931 . S
C846 C845 1.347 . S
C846 C847 1.369 . S
C847 C846 1.369 . S
C847 C848 1.408 . S
C847 H874 0.930 . S
C848 C843 1.348 . S
C848 C847 1.408 . S
C848 H875 0.930 . S
C849 O862 1.281 . S
C849 O863 1.254 . S
C850 O864 1.236 . S
C850 O865 1.266 . S
C851 Tb841 2.809 . S
C851 C852 1.514 1_455 S
C851 O866 1.248 . S
C851 O867 1.266 . S
C852 C851 1.514 1_655 S
C852 C853 1.359 . S
C852 C857 1.348 . S
C853 C852 1.359 . S
C853 C854 1.380 . S
C853 H876 0.929 . S
C854 C853 1.380 . S
C854 C855 1.347 . S
C854 H877 0.931 . S
C855 C854 1.347 . S
C855 C856 1.369 . S
C856 C855 1.369 . S
C856 C857 1.408 . S
C856 H878 0.930 . S
C857 C852 1.348 . S
C857 C856 1.408 . S
C857 H879 0.930 . S
C858 O868 1.281 . S
C858 O869 1.254 . S
C859 O870 1.236 . S
C859 O871 1.266 . S
O860 Tb840 2.484 . S
O860 C842 1.248 . S
O861 Tb840 2.440 . S
O861 C842 1.266 . S
O862 Tb840 2.658 . S
O862 Tb841 2.325 . S
O862 C849 1.281 . S
O863 Tb840 2.409 . S
O863 C849 1.254 . S
O864 Tb840 2.378 . S
O864 C850 1.236 . S
O865 Tb841 2.341 . S
O865 C850 1.266 . S
O866 Tb841 2.484 . S
O866 C851 1.248 . S
O867 Tb841 2.440 . S
O867 C851 1.266 . S
O868 Tb840 2.325 . S
O868 Tb841 2.658 . S
O868 C858 1.281 . S
O869 Tb841 2.409 . S
O869 C858 1.254 . S
O870 Tb841 2.378 . S
O870 C859 1.236 . S
O871 Tb840 2.341 . S
O871 C859 1.266 . S
H872 C844 0.929 . S
H873 C845 0.931 . S
H874 C847 0.930 . S
H875 C848 0.930 . S
H876 C853 0.929 . S
H877 C854 0.931 . S
H878 C856 0.930 . S
H879 C857 0.930 . S
Tb880 C882 2.809 . S
Tb880 O900 2.484 . S
Tb880 O901 2.440 . S
Tb880 O902 2.658 . S
Tb880 O903 2.409 . S
Tb880 O904 2.378 . S
Tb880 O908 2.325 . S
Tb880 O911 2.341 . S
Tb881 C891 2.809 . S
Tb881 O902 2.325 . S
Tb881 O905 2.341 . S
Tb881 O906 2.484 . S
Tb881 O907 2.440 . S
Tb881 O908 2.658 . S
Tb881 O909 2.409 . S
Tb881 O910 2.378 . S
C882 Tb880 2.809 . S
C882 C883 1.514 . S
C882 O900 1.248 . S
C882 O901 1.266 . S
C883 C882 1.514 . S
C883 C884 1.359 . S
C883 C888 1.348 . S
C884 C883 1.359 . S
C884 C885 1.380 . S
C884 H912 0.929 . S
C885 C884 1.380 . S
C885 C886 1.347 . S
C885 H913 0.931 . S
C886 C885 1.347 . S
C886 C887 1.369 . S
C887 C886 1.369 . S
C887 C888 1.408 . S
C887 H914 0.930 . S
C888 C883 1.348 . S
C888 C887 1.408 . S
C888 H915 0.930 . S
C889 O902 1.281 . S
C889 O903 1.254 . S
C890 O904 1.236 . S
C890 O905 1.266 . S
C891 Tb881 2.809 . S
C891 C892 1.514 . S
C891 O906 1.248 . S
C891 O907 1.266 . S
C892 C891 1.514 . S
C892 C893 1.359 . S
C892 C897 1.348 . S
C893 C892 1.359 . S
C893 C894 1.380 . S
C893 H916 0.929 . S
C894 C893 1.380 . S
C894 C895 1.347 . S
C894 H917 0.931 . S
C895 C894 1.347 . S
C895 C896 1.369 . S
C896 C895 1.369 . S
C896 C897 1.408 . S
C896 H918 0.930 . S
C897 C892 1.348 . S
C897 C896 1.408 . S
C897 H919 0.930 . S
C898 O908 1.281 . S
C898 O909 1.254 . S
C899 O910 1.236 . S
C899 O911 1.266 . S
O900 Tb880 2.484 . S
O900 C882 1.248 . S
O901 Tb880 2.440 . S
O901 C882 1.266 . S
O902 Tb880 2.658 . S
O902 Tb881 2.325 . S
O902 C889 1.281 . S
O903 Tb880 2.409 . S
O903 C889 1.254 . S
O904 Tb880 2.378 . S
O904 C890 1.236 . S
O905 Tb881 2.341 . S
O905 C890 1.266 . S
O906 Tb881 2.484 . S
O906 C891 1.248 . S
O907 Tb881 2.440 . S
O907 C891 1.266 . S
O908 Tb880 2.325 . S
O908 Tb881 2.658 . S
O908 C898 1.281 . S
O909 Tb881 2.409 . S
O909 C898 1.254 . S
O910 Tb881 2.378 . S
O910 C899 1.236 . S
O911 Tb880 2.341 . S
O911 C899 1.266 . S
H912 C884 0.929 . S
H913 C885 0.931 . S
H914 C887 0.930 . S
H915 C888 0.930 . S
H916 C893 0.929 . S
H917 C894 0.931 . S
H918 C896 0.930 . S
H919 C897 0.930 . S
Tb920 C922 2.809 . S
Tb920 O940 2.484 . S
Tb920 O941 2.440 . S
Tb920 O942 2.658 . S
Tb920 O943 2.409 . S
Tb920 O944 2.378 . S
Tb920 O948 2.325 . S
Tb920 O951 2.341 . S
Tb921 C931 2.809 . S
Tb921 O942 2.325 . S
Tb921 O945 2.341 . S
Tb921 O946 2.484 . S
Tb921 O947 2.440 . S
Tb921 O948 2.658 . S
Tb921 O949 2.409 . S
Tb921 O950 2.378 . S
C922 Tb920 2.809 . S
C922 C923 1.514 . S
C922 O940 1.248 . S
C922 O941 1.266 . S
C923 C922 1.514 . S
C923 C924 1.359 . S
C923 C928 1.348 . S
C924 C923 1.359 . S
C924 C925 1.380 . S
C924 H952 0.929 . S
C925 C924 1.380 . S
C925 C926 1.347 . S
C925 H953 0.931 . S
C926 C925 1.347 . S
C926 C927 1.369 . S
C927 C926 1.369 . S
C927 C928 1.408 . S
C927 H954 0.930 . S
C928 C923 1.348 . S
C928 C927 1.408 . S
C928 H955 0.930 . S
C929 O942 1.281 . S
C929 O943 1.254 . S
C930 O944 1.236 . S
C930 O945 1.266 . S
C931 Tb921 2.809 . S
C931 C932 1.514 1_455 S
C931 O946 1.248 . S
C931 O947 1.266 . S
C932 C931 1.514 1_655 S
C932 C933 1.359 . S
C932 C937 1.348 . S
C933 C932 1.359 . S
C933 C934 1.380 . S
C933 H956 0.929 . S
C934 C933 1.380 . S
C934 C935 1.347 . S
C934 H957 0.931 . S
C935 C934 1.347 . S
C935 C936 1.369 . S
C936 C935 1.369 . S
C936 C937 1.408 . S
C936 H958 0.930 . S
C937 C932 1.348 . S
C937 C936 1.408 . S
C937 H959 0.930 . S
C938 O948 1.281 . S
C938 O949 1.254 . S
C939 O950 1.236 . S
C939 O951 1.266 . S
O940 Tb920 2.484 . S
O940 C922 1.248 . S
O941 Tb920 2.440 . S
O941 C922 1.266 . S
O942 Tb920 2.658 . S
O942 Tb921 2.325 . S
O942 C929 1.281 . S
O943 Tb920 2.409 . S
O943 C929 1.254 . S
O944 Tb920 2.378 . S
O944 C930 1.236 . S
O945 Tb921 2.341 . S
O945 C930 1.266 . S
O946 Tb921 2.484 . S
O946 C931 1.248 . S
O947 Tb921 2.440 . S
O947 C931 1.266 . S
O948 Tb920 2.325 . S
O948 Tb921 2.658 . S
O948 C938 1.281 . S
O949 Tb921 2.409 . S
O949 C938 1.254 . S
O950 Tb921 2.378 . S
O950 C939 1.236 . S
O951 Tb920 2.341 . S
O951 C939 1.266 . S
H952 C924 0.929 . S
H953 C925 0.931 . S
H954 C927 0.930 . S
H955 C928 0.930 . S
H956 C933 0.929 . S
H957 C934 0.931 . S
H958 C936 0.930 . S
H959 C937 0.930 . S
Tb960 C962 2.809 . S
Tb960 O980 2.484 . S
Tb960 O981 2.440 . S
Tb960 O982 2.658 1_545 S
Tb960 O983 2.409 . S
Tb960 O984 2.378 1_545 S
Tb960 O988 2.325 1_545 S
Tb960 O991 2.341 . S
Tb961 C971 2.809 . S
Tb961 O982 2.325 . S
Tb961 O985 2.341 . S
Tb961 O986 2.484 . S
Tb961 O987 2.440 . S
Tb961 O988 2.658 . S
Tb961 O989 2.409 . S
Tb961 O990 2.378 1_565 S
C962 Tb960 2.809 . S
C962 C963 1.514 . S
C962 O980 1.248 . S
C962 O981 1.266 . S
C963 C962 1.514 . S
C963 C964 1.359 1_545 S
C963 C968 1.348 . S
C964 C963 1.359 1_565 S
C964 C965 1.380 . S
C964 H992 0.929 . S
C965 C964 1.380 . S
C965 C966 1.347 . S
C965 H993 0.931 . S
C966 C965 1.347 . S
C966 C967 1.369 1_565 S
C967 C966 1.369 1_545 S
C967 C968 1.408 . S
C967 H994 0.930 . S
C968 C963 1.348 . S
C968 C967 1.408 . S
C968 H995 0.930 . S
C969 O982 1.281 . S
C969 O983 1.254 1_565 S
C970 O984 1.236 . S
C970 O985 1.266 . S
C971 Tb961 2.809 . S
C971 C972 1.514 . S
C971 O986 1.248 . S
C971 O987 1.266 . S
C972 C971 1.514 . S
C972 C973 1.359 . S
C972 C977 1.348 . S
C973 C972 1.359 . S
C973 C974 1.380 . S
C973 H996 0.929 . S
C974 C973 1.380 . S
C974 C975 1.347 . S
C974 H997 0.931 . S
C975 C974 1.347 . S
C975 C976 1.369 . S
C976 C975 1.369 . S
C976 C977 1.408 . S
C976 H998 0.930 . S
C977 C972 1.348 . S
C977 C976 1.408 . S
C977 H999 0.930 . S
C978 O988 1.281 . S
C978 O989 1.254 . S
C979 O990 1.236 . S
C979 O991 1.266 . S
O980 Tb960 2.484 . S
O980 C962 1.248 . S
O981 Tb960 2.440 . S
O981 C962 1.266 . S
O982 Tb960 2.658 1_565 S
O982 Tb961 2.325 . S
O982 C969 1.281 . S
O983 Tb960 2.409 . S
O983 C969 1.254 1_545 S
O984 Tb960 2.378 1_565 S
O984 C970 1.236 . S
O985 Tb961 2.341 . S
O985 C970 1.266 . S
O986 Tb961 2.484 . S
O986 C971 1.248 . S
O987 Tb961 2.440 . S
O987 C971 1.266 . S
O988 Tb960 2.325 1_565 S
O988 Tb961 2.658 . S
O988 C978 1.281 . S
O989 Tb961 2.409 . S
O989 C978 1.254 . S
O990 Tb961 2.378 1_545 S
O990 C979 1.236 . S
O991 Tb960 2.341 . S
O991 C979 1.266 . S
H992 C964 0.929 . S
H993 C965 0.931 . S
H994 C967 0.930 . S
H995 C968 0.930 . S
H996 C973 0.929 . S
H997 C974 0.931 . S
H998 C976 0.930 . S
H999 C977 0.930 . S
Tb1000 C1002 2.809 . S
Tb1000 O1020 2.484 . S
Tb1000 O1021 2.440 . S
Tb1000 O1022 2.658 . S
Tb1000 O1023 2.409 . S
Tb1000 O1024 2.378 . S
Tb1000 O1028 2.325 . S
Tb1000 O1031 2.341 . S
Tb1001 C1011 2.809 . S
Tb1001 O1022 2.325 . S
Tb1001 O1025 2.341 . S
Tb1001 O1026 2.484 . S
Tb1001 O1027 2.440 . S
Tb1001 O1028 2.658 . S
Tb1001 O1029 2.409 . S
Tb1001 O1030 2.378 . S
C1002 Tb1000 2.809 . S
C1002 C1003 1.514 1_655 S
C1002 O1020 1.248 . S
C1002 O1021 1.266 . S
C1003 C1002 1.514 1_455 S
C1003 C1004 1.359 . S
C1003 C1008 1.348 . S
C1004 C1003 1.359 . S
C1004 C1005 1.380 . S
C1004 H1032 0.929 . S
C1005 C1004 1.380 . S
C1005 C1006 1.347 . S
C1005 H1033 0.931 . S
C1006 C1005 1.347 . S
C1006 C1007 1.369 . S
C1007 C1006 1.369 . S
C1007 C1008 1.408 . S
C1007 H1034 0.930 . S
C1008 C1003 1.348 . S
C1008 C1007 1.408 . S
C1008 H1035 0.930 . S
C1009 O1022 1.281 . S
C1009 O1023 1.254 . S
C1010 O1024 1.236 . S
C1010 O1025 1.266 . S
C1011 Tb1001 2.809 . S
C1011 C1012 1.514 . S
C1011 O1026 1.248 . S
C1011 O1027 1.266 . S
C1012 C1011 1.514 . S
C1012 C1013 1.359 . S
C1012 C1017 1.348 . S
C1013 C1012 1.359 . S
C1013 C1014 1.380 . S
C1013 H1036 0.929 . S
C1014 C1013 1.380 . S
C1014 C1015 1.347 . S
C1014 H1037 0.931 . S
C1015 C1014 1.347 . S
C1015 C1016 1.369 . S
C1016 C1015 1.369 . S
C1016 C1017 1.408 . S
C1016 H1038 0.930 . S
C1017 C1012 1.348 . S
C1017 C1016 1.408 . S
C1017 H1039 0.930 . S
C1018 O1028 1.281 . S
C1018 O1029 1.254 . S
C1019 O1030 1.236 . S
C1019 O1031 1.266 . S
O1020 Tb1000 2.484 . S
O1020 C1002 1.248 . S
O1021 Tb1000 2.440 . S
O1021 C1002 1.266 . S
O1022 Tb1000 2.658 . S
O1022 Tb1001 2.325 . S
O1022 C1009 1.281 . S
O1023 Tb1000 2.409 . S
O1023 C1009 1.254 . S
O1024 Tb1000 2.378 . S
O1024 C1010 1.236 . S
O1025 Tb1001 2.341 . S
O1025 C1010 1.266 . S
O1026 Tb1001 2.484 . S
O1026 C1011 1.248 . S
O1027 Tb1001 2.440 . S
O1027 C1011 1.266 . S
O1028 Tb1000 2.325 . S
O1028 Tb1001 2.658 . S
O1028 C1018 1.281 . S
O1029 Tb1001 2.409 . S
O1029 C1018 1.254 . S
O1030 Tb1001 2.378 . S
O1030 C1019 1.236 . S
O1031 Tb1000 2.341 . S
O1031 C1019 1.266 . S
H1032 C1004 0.929 . S
H1033 C1005 0.931 . S
H1034 C1007 0.930 . S
H1035 C1008 0.930 . S
H1036 C1013 0.929 . S
H1037 C1014 0.931 . S
H1038 C1016 0.930 . S
H1039 C1017 0.930 . S
Tb1040 C1042 2.809 . S
Tb1040 O1060 2.484 . S
Tb1040 O1061 2.440 . S
Tb1040 O1062 2.658 . S
Tb1040 O1063 2.409 . S
Tb1040 O1064 2.378 . S
Tb1040 O1068 2.325 . S
Tb1040 O1071 2.341 . S
Tb1041 C1051 2.809 . S
Tb1041 O1062 2.325 . S
Tb1041 O1065 2.341 . S
Tb1041 O1066 2.484 . S
Tb1041 O1067 2.440 . S
Tb1041 O1068 2.658 . S
Tb1041 O1069 2.409 . S
Tb1041 O1070 2.378 . S
C1042 Tb1040 2.809 . S
C1042 C1043 1.514 . S
C1042 O1060 1.248 . S
C1042 O1061 1.266 . S
C1043 C1042 1.514 . S
C1043 C1044 1.359 . S
C1043 C1048 1.348 . S
C1044 C1043 1.359 . S
C1044 C1045 1.380 . S
C1044 H1072 0.929 . S
C1045 C1044 1.380 . S
C1045 C1046 1.347 . S
C1045 H1073 0.931 . S
C1046 C1045 1.347 . S
C1046 C1047 1.369 . S
C1047 C1046 1.369 . S
C1047 C1048 1.408 . S
C1047 H1074 0.930 . S
C1048 C1043 1.348 . S
C1048 C1047 1.408 . S
C1048 H1075 0.930 . S
C1049 O1062 1.281 . S
C1049 O1063 1.254 . S
C1050 O1064 1.236 . S
C1050 O1065 1.266 . S
C1051 Tb1041 2.809 . S
C1051 C1052 1.514 . S
C1051 O1066 1.248 . S
C1051 O1067 1.266 . S
C1052 C1051 1.514 . S
C1052 C1053 1.359 . S
C1052 C1057 1.348 . S
C1053 C1052 1.359 . S
C1053 C1054 1.380 . S
C1053 H1076 0.929 . S
C1054 C1053 1.380 . S
C1054 C1055 1.347 . S
C1054 H1077 0.931 . S
C1055 C1054 1.347 . S
C1055 C1056 1.369 . S
C1056 C1055 1.369 . S
C1056 C1057 1.408 . S
C1056 H1078 0.930 . S
C1057 C1052 1.348 . S
C1057 C1056 1.408 . S
C1057 H1079 0.930 . S
C1058 O1068 1.281 . S
C1058 O1069 1.254 . S
C1059 O1070 1.236 . S
C1059 O1071 1.266 . S
O1060 Tb1040 2.484 . S
O1060 C1042 1.248 . S
O1061 Tb1040 2.440 . S
O1061 C1042 1.266 . S
O1062 Tb1040 2.658 . S
O1062 Tb1041 2.325 . S
O1062 C1049 1.281 . S
O1063 Tb1040 2.409 . S
O1063 C1049 1.254 . S
O1064 Tb1040 2.378 . S
O1064 C1050 1.236 . S
O1065 Tb1041 2.341 . S
O1065 C1050 1.266 . S
O1066 Tb1041 2.484 . S
O1066 C1051 1.248 . S
O1067 Tb1041 2.440 . S
O1067 C1051 1.266 . S
O1068 Tb1040 2.325 . S
O1068 Tb1041 2.658 . S
O1068 C1058 1.281 . S
O1069 Tb1041 2.409 . S
O1069 C1058 1.254 . S
O1070 Tb1041 2.378 . S
O1070 C1059 1.236 . S
O1071 Tb1040 2.341 . S
O1071 C1059 1.266 . S
H1072 C1044 0.929 . S
H1073 C1045 0.931 . S
H1074 C1047 0.930 . S
H1075 C1048 0.930 . S
H1076 C1053 0.929 . S
H1077 C1054 0.931 . S
H1078 C1056 0.930 . S
H1079 C1057 0.930 . S
Tb1080 C1082 2.809 . S
Tb1080 O1100 2.484 . S
Tb1080 O1101 2.440 . S
Tb1080 O1102 2.658 1_545 S
Tb1080 O1103 2.409 . S
Tb1080 O1104 2.378 1_545 S
Tb1080 O1108 2.325 1_545 S
Tb1080 O1111 2.341 . S
Tb1081 C1091 2.809 . S
Tb1081 O1102 2.325 . S
Tb1081 O1105 2.341 . S
Tb1081 O1106 2.484 . S
Tb1081 O1107 2.440 . S
Tb1081 O1108 2.658 . S
Tb1081 O1109 2.409 . S
Tb1081 O1110 2.378 1_565 S
C1082 Tb1080 2.809 . S
C1082 C1083 1.514 1_655 S
C1082 O1100 1.248 . S
C1082 O1101 1.266 . S
C1083 C1082 1.514 1_455 S
C1083 C1084 1.359 1_545 S
C1083 C1088 1.348 . S
C1084 C1083 1.359 1_565 S
C1084 C1085 1.380 . S
C1084 H1112 0.929 . S
C1085 C1084 1.380 . S
C1085 C1086 1.347 . S
C1085 H1113 0.931 . S
C1086 C1085 1.347 . S
C1086 C1087 1.369 1_565 S
C1087 C1086 1.369 1_545 S
C1087 C1088 1.408 . S
C1087 H1114 0.930 . S
C1088 C1083 1.348 . S
C1088 C1087 1.408 . S
C1088 H1115 0.930 . S
C1089 O1102 1.281 . S
C1089 O1103 1.254 1_565 S
C1090 O1104 1.236 . S
C1090 O1105 1.266 . S
C1091 Tb1081 2.809 . S
C1091 C1092 1.514 . S
C1091 O1106 1.248 . S
C1091 O1107 1.266 . S
C1092 C1091 1.514 . S
C1092 C1093 1.359 . S
C1092 C1097 1.348 . S
C1093 C1092 1.359 . S
C1093 C1094 1.380 . S
C1093 H1116 0.929 . S
C1094 C1093 1.380 . S
C1094 C1095 1.347 . S
C1094 H1117 0.931 . S
C1095 C1094 1.347 . S
C1095 C1096 1.369 . S
C1096 C1095 1.369 . S
C1096 C1097 1.408 . S
C1096 H1118 0.930 . S
C1097 C1092 1.348 . S
C1097 C1096 1.408 . S
C1097 H1119 0.930 . S
C1098 O1108 1.281 . S
C1098 O1109 1.254 . S
C1099 O1110 1.236 . S
C1099 O1111 1.266 . S
O1100 Tb1080 2.484 . S
O1100 C1082 1.248 . S
O1101 Tb1080 2.440 . S
O1101 C1082 1.266 . S
O1102 Tb1080 2.658 1_565 S
O1102 Tb1081 2.325 . S
O1102 C1089 1.281 . S
O1103 Tb1080 2.409 . S
O1103 C1089 1.254 1_545 S
O1104 Tb1080 2.378 1_565 S
O1104 C1090 1.236 . S
O1105 Tb1081 2.341 . S
O1105 C1090 1.266 . S
O1106 Tb1081 2.484 . S
O1106 C1091 1.248 . S
O1107 Tb1081 2.440 . S
O1107 C1091 1.266 . S
O1108 Tb1080 2.325 1_565 S
O1108 Tb1081 2.658 . S
O1108 C1098 1.281 . S
O1109 Tb1081 2.409 . S
O1109 C1098 1.254 . S
O1110 Tb1081 2.378 1_545 S
O1110 C1099 1.236 . S
O1111 Tb1080 2.341 . S
O1111 C1099 1.266 . S
H1112 C1084 0.929 . S
H1113 C1085 0.931 . S
H1114 C1087 0.930 . S
H1115 C1088 0.930 . S
H1116 C1093 0.929 . S
H1117 C1094 0.931 . S
H1118 C1096 0.930 . S
H1119 C1097 0.930 . S
Tb1120 C1122 2.809 . S
Tb1120 O1140 2.484 . S
Tb1120 O1141 2.440 . S
Tb1120 O1142 2.658 . S
Tb1120 O1143 2.409 . S
Tb1120 O1144 2.378 1_545 S
Tb1120 O1148 2.325 . S
Tb1120 O1151 2.341 . S
Tb1121 C1131 2.809 . S
Tb1121 O1142 2.325 1_565 S
Tb1121 O1145 2.341 . S
Tb1121 O1146 2.484 . S
Tb1121 O1147 2.440 . S
Tb1121 O1148 2.658 1_565 S
Tb1121 O1149 2.409 . S
Tb1121 O1150 2.378 1_565 S
C1122 Tb1120 2.809 . S
C1122 C1123 1.514 . S
C1122 O1140 1.248 . S
C1122 O1141 1.266 . S
C1123 C1122 1.514 . S
C1123 C1124 1.359 . S
C1123 C1128 1.348 . S
C1124 C1123 1.359 . S
C1124 C1125 1.380 . S
C1124 H1152 0.929 . S
C1125 C1124 1.380 . S
C1125 C1126 1.347 . S
C1125 H1153 0.931 . S
C1126 C1125 1.347 . S
C1126 C1127 1.369 . S
C1127 C1126 1.369 . S
C1127 C1128 1.408 . S
C1127 H1154 0.930 . S
C1128 C1123 1.348 . S
C1128 C1127 1.408 . S
C1128 H1155 0.930 . S
C1129 O1142 1.281 . S
C1129 O1143 1.254 . S
C1130 O1144 1.236 . S
C1130 O1145 1.266 . S
C1131 Tb1121 2.809 . S
C1131 C1132 1.514 . S
C1131 O1146 1.248 . S
C1131 O1147 1.266 . S
C1132 C1131 1.514 . S
C1132 C1133 1.359 1_565 S
C1132 C1137 1.348 . S
C1133 C1132 1.359 1_545 S
C1133 C1134 1.380 . S
C1133 H1156 0.929 . S
C1134 C1133 1.380 . S
C1134 C1135 1.347 . S
C1134 H1157 0.931 . S
C1135 C1134 1.347 . S
C1135 C1136 1.369 1_545 S
C1136 C1135 1.369 1_565 S
C1136 C1137 1.408 . S
C1136 H1158 0.930 . S
C1137 C1132 1.348 . S
C1137 C1136 1.408 . S
C1137 H1159 0.930 . S
C1138 O1148 1.281 . S
C1138 O1149 1.254 1_545 S
C1139 O1150 1.236 . S
C1139 O1151 1.266 . S
O1140 Tb1120 2.484 . S
O1140 C1122 1.248 . S
O1141 Tb1120 2.440 . S
O1141 C1122 1.266 . S
O1142 Tb1120 2.658 . S
O1142 Tb1121 2.325 1_545 S
O1142 C1129 1.281 . S
O1143 Tb1120 2.409 . S
O1143 C1129 1.254 . S
O1144 Tb1120 2.378 1_565 S
O1144 C1130 1.236 . S
O1145 Tb1121 2.341 . S
O1145 C1130 1.266 . S
O1146 Tb1121 2.484 . S
O1146 C1131 1.248 . S
O1147 Tb1121 2.440 . S
O1147 C1131 1.266 . S
O1148 Tb1120 2.325 . S
O1148 Tb1121 2.658 1_545 S
O1148 C1138 1.281 . S
O1149 Tb1121 2.409 . S
O1149 C1138 1.254 1_565 S
O1150 Tb1121 2.378 1_545 S
O1150 C1139 1.236 . S
O1151 Tb1120 2.341 . S
O1151 C1139 1.266 . S
H1152 C1124 0.929 . S
H1153 C1125 0.931 . S
H1154 C1127 0.930 . S
H1155 C1128 0.930 . S
H1156 C1133 0.929 . S
H1157 C1134 0.931 . S
H1158 C1136 0.930 . S
H1159 C1137 0.930 . S
Tb1160 C1162 2.809 . S
Tb1160 O1180 2.484 . S
Tb1160 O1181 2.440 . S
Tb1160 O1182 2.658 . S
Tb1160 O1183 2.409 . S
Tb1160 O1184 2.378 . S
Tb1160 O1188 2.325 . S
Tb1160 O1191 2.341 . S
Tb1161 C1171 2.809 . S
Tb1161 O1182 2.325 . S
Tb1161 O1185 2.341 . S
Tb1161 O1186 2.484 . S
Tb1161 O1187 2.440 . S
Tb1161 O1188 2.658 . S
Tb1161 O1189 2.409 . S
Tb1161 O1190 2.378 . S
C1162 Tb1160 2.809 . S
C1162 C1163 1.514 . S
C1162 O1180 1.248 . S
C1162 O1181 1.266 . S
C1163 C1162 1.514 . S
C1163 C1164 1.359 . S
C1163 C1168 1.348 . S
C1164 C1163 1.359 . S
C1164 C1165 1.380 . S
C1164 H1192 0.929 . S
C1165 C1164 1.380 . S
C1165 C1166 1.347 . S
C1165 H1193 0.931 . S
C1166 C1165 1.347 . S
C1166 C1167 1.369 . S
C1167 C1166 1.369 . S
C1167 C1168 1.408 . S
C1167 H1194 0.930 . S
C1168 C1163 1.348 . S
C1168 C1167 1.408 . S
C1168 H1195 0.930 . S
C1169 O1182 1.281 . S
C1169 O1183 1.254 . S
C1170 O1184 1.236 . S
C1170 O1185 1.266 . S
C1171 Tb1161 2.809 . S
C1171 C1172 1.514 1_455 S
C1171 O1186 1.248 . S
C1171 O1187 1.266 . S
C1172 C1171 1.514 1_655 S
C1172 C1173 1.359 . S
C1172 C1177 1.348 . S
C1173 C1172 1.359 . S
C1173 C1174 1.380 . S
C1173 H1196 0.929 . S
C1174 C1173 1.380 . S
C1174 C1175 1.347 . S
C1174 H1197 0.931 . S
C1175 C1174 1.347 . S
C1175 C1176 1.369 . S
C1176 C1175 1.369 . S
C1176 C1177 1.408 . S
C1176 H1198 0.930 . S
C1177 C1172 1.348 . S
C1177 C1176 1.408 . S
C1177 H1199 0.930 . S
C1178 O1188 1.281 . S
C1178 O1189 1.254 . S
C1179 O1190 1.236 . S
C1179 O1191 1.266 . S
O1180 Tb1160 2.484 . S
O1180 C1162 1.248 . S
O1181 Tb1160 2.440 . S
O1181 C1162 1.266 . S
O1182 Tb1160 2.658 . S
O1182 Tb1161 2.325 . S
O1182 C1169 1.281 . S
O1183 Tb1160 2.409 . S
O1183 C1169 1.254 . S
O1184 Tb1160 2.378 . S
O1184 C1170 1.236 . S
O1185 Tb1161 2.341 . S
O1185 C1170 1.266 . S
O1186 Tb1161 2.484 . S
O1186 C1171 1.248 . S
O1187 Tb1161 2.440 . S
O1187 C1171 1.266 . S
O1188 Tb1160 2.325 . S
O1188 Tb1161 2.658 . S
O1188 C1178 1.281 . S
O1189 Tb1161 2.409 . S
O1189 C1178 1.254 . S
O1190 Tb1161 2.378 . S
O1190 C1179 1.236 . S
O1191 Tb1160 2.341 . S
O1191 C1179 1.266 . S
H1192 C1164 0.929 . S
H1193 C1165 0.931 . S
H1194 C1167 0.930 . S
H1195 C1168 0.930 . S
H1196 C1173 0.929 . S
H1197 C1174 0.931 . S
H1198 C1176 0.930 . S
H1199 C1177 0.930 . S
Tb1200 C1202 2.809 . S
Tb1200 O1220 2.484 . S
Tb1200 O1221 2.440 . S
Tb1200 O1222 2.658 . S
Tb1200 O1223 2.409 . S
Tb1200 O1224 2.378 . S
Tb1200 O1228 2.325 . S
Tb1200 O1231 2.341 . S
Tb1201 C1211 2.809 . S
Tb1201 O1222 2.325 . S
Tb1201 O1225 2.341 . S
Tb1201 O1226 2.484 . S
Tb1201 O1227 2.440 . S
Tb1201 O1228 2.658 . S
Tb1201 O1229 2.409 . S
Tb1201 O1230 2.378 . S
C1202 Tb1200 2.809 . S
C1202 C1203 1.514 . S
C1202 O1220 1.248 . S
C1202 O1221 1.266 . S
C1203 C1202 1.514 . S
C1203 C1204 1.359 . S
C1203 C1208 1.348 . S
C1204 C1203 1.359 . S
C1204 C1205 1.380 . S
C1204 H1232 0.929 . S
C1205 C1204 1.380 . S
C1205 C1206 1.347 . S
C1205 H1233 0.931 . S
C1206 C1205 1.347 . S
C1206 C1207 1.369 . S
C1207 C1206 1.369 . S
C1207 C1208 1.408 . S
C1207 H1234 0.930 . S
C1208 C1203 1.348 . S
C1208 C1207 1.408 . S
C1208 H1235 0.930 . S
C1209 O1222 1.281 . S
C1209 O1223 1.254 . S
C1210 O1224 1.236 . S
C1210 O1225 1.266 . S
C1211 Tb1201 2.809 . S
C1211 C1212 1.514 . S
C1211 O1226 1.248 . S
C1211 O1227 1.266 . S
C1212 C1211 1.514 . S
C1212 C1213 1.359 . S
C1212 C1217 1.348 . S
C1213 C1212 1.359 . S
C1213 C1214 1.380 . S
C1213 H1236 0.929 . S
C1214 C1213 1.380 . S
C1214 C1215 1.347 . S
C1214 H1237 0.931 . S
C1215 C1214 1.347 . S
C1215 C1216 1.369 . S
C1216 C1215 1.369 . S
C1216 C1217 1.408 . S
C1216 H1238 0.930 . S
C1217 C1212 1.348 . S
C1217 C1216 1.408 . S
C1217 H1239 0.930 . S
C1218 O1228 1.281 . S
C1218 O1229 1.254 . S
C1219 O1230 1.236 . S
C1219 O1231 1.266 . S
O1220 Tb1200 2.484 . S
O1220 C1202 1.248 . S
O1221 Tb1200 2.440 . S
O1221 C1202 1.266 . S
O1222 Tb1200 2.658 . S
O1222 Tb1201 2.325 . S
O1222 C1209 1.281 . S
O1223 Tb1200 2.409 . S
O1223 C1209 1.254 . S
O1224 Tb1200 2.378 . S
O1224 C1210 1.236 . S
O1225 Tb1201 2.341 . S
O1225 C1210 1.266 . S
O1226 Tb1201 2.484 . S
O1226 C1211 1.248 . S
O1227 Tb1201 2.440 . S
O1227 C1211 1.266 . S
O1228 Tb1200 2.325 . S
O1228 Tb1201 2.658 . S
O1228 C1218 1.281 . S
O1229 Tb1201 2.409 . S
O1229 C1218 1.254 . S
O1230 Tb1201 2.378 . S
O1230 C1219 1.236 . S
O1231 Tb1200 2.341 . S
O1231 C1219 1.266 . S
H1232 C1204 0.929 . S
H1233 C1205 0.931 . S
H1234 C1207 0.930 . S
H1235 C1208 0.930 . S
H1236 C1213 0.929 . S
H1237 C1214 0.931 . S
H1238 C1216 0.930 . S
H1239 C1217 0.930 . S
Tb1240 C1242 2.809 . S
Tb1240 O1260 2.484 . S
Tb1240 O1261 2.440 . S
Tb1240 O1262 2.658 . S
Tb1240 O1263 2.409 . S
Tb1240 O1264 2.378 1_545 S
Tb1240 O1268 2.325 . S
Tb1240 O1271 2.341 . S
Tb1241 C1251 2.809 . S
Tb1241 O1262 2.325 1_565 S
Tb1241 O1265 2.341 . S
Tb1241 O1266 2.484 . S
Tb1241 O1267 2.440 . S
Tb1241 O1268 2.658 1_565 S
Tb1241 O1269 2.409 . S
Tb1241 O1270 2.378 1_565 S
C1242 Tb1240 2.809 . S
C1242 C1243 1.514 . S
C1242 O1260 1.248 . S
C1242 O1261 1.266 . S
C1243 C1242 1.514 . S
C1243 C1244 1.359 . S
C1243 C1248 1.348 . S
C1244 C1243 1.359 . S
C1244 C1245 1.380 . S
C1244 H1272 0.929 . S
C1245 C1244 1.380 . S
C1245 C1246 1.347 . S
C1245 H1273 0.931 . S
C1246 C1245 1.347 . S
C1246 C1247 1.369 . S
C1247 C1246 1.369 . S
C1247 C1248 1.408 . S
C1247 H1274 0.930 . S
C1248 C1243 1.348 . S
C1248 C1247 1.408 . S
C1248 H1275 0.930 . S
C1249 O1262 1.281 . S
C1249 O1263 1.254 . S
C1250 O1264 1.236 . S
C1250 O1265 1.266 . S
C1251 Tb1241 2.809 . S
C1251 C1252 1.514 1_455 S
C1251 O1266 1.248 . S
C1251 O1267 1.266 . S
C1252 C1251 1.514 1_655 S
C1252 C1253 1.359 1_565 S
C1252 C1257 1.348 . S
C1253 C1252 1.359 1_545 S
C1253 C1254 1.380 . S
C1253 H1276 0.929 . S
C1254 C1253 1.380 . S
C1254 C1255 1.347 . S
C1254 H1277 0.931 . S
C1255 C1254 1.347 . S
C1255 C1256 1.369 1_545 S
C1256 C1255 1.369 1_565 S
C1256 C1257 1.408 . S
C1256 H1278 0.930 . S
C1257 C1252 1.348 . S
C1257 C1256 1.408 . S
C1257 H1279 0.930 . S
C1258 O1268 1.281 . S
C1258 O1269 1.254 1_545 S
C1259 O1270 1.236 . S
C1259 O1271 1.266 . S
O1260 Tb1240 2.484 . S
O1260 C1242 1.248 . S
O1261 Tb1240 2.440 . S
O1261 C1242 1.266 . S
O1262 Tb1240 2.658 . S
O1262 Tb1241 2.325 1_545 S
O1262 C1249 1.281 . S
O1263 Tb1240 2.409 . S
O1263 C1249 1.254 . S
O1264 Tb1240 2.378 1_565 S
O1264 C1250 1.236 . S
O1265 Tb1241 2.341 . S
O1265 C1250 1.266 . S
O1266 Tb1241 2.484 . S
O1266 C1251 1.248 . S
O1267 Tb1241 2.440 . S
O1267 C1251 1.266 . S
O1268 Tb1240 2.325 . S
O1268 Tb1241 2.658 1_545 S
O1268 C1258 1.281 . S
O1269 Tb1241 2.409 . S
O1269 C1258 1.254 1_565 S
O1270 Tb1241 2.378 1_545 S
O1270 C1259 1.236 . S
O1271 Tb1240 2.341 . S
O1271 C1259 1.266 . S
H1272 C1244 0.929 . S
H1273 C1245 0.931 . S
H1274 C1247 0.930 . S
H1275 C1248 0.930 . S
H1276 C1253 0.929 . S
H1277 C1254 0.931 . S
H1278 C1256 0.930 . S
H1279 C1257 0.930 . S
C10 C1010 2.563 . S
C970 C50 2.563 . S
C1090 C90 2.563 . S
C130 C1050 2.563 . S
C179 C1179 2.563 . S
C219 C1139 2.563 . S
C259 C1259 2.563 . S
C1219 C299 2.563 . S
C330 C690 2.563 . S
C370 C650 2.563 . S
C410 C770 2.563 . S
C730 C450 2.563 . S
C499 C859 2.563 . S
C539 C819 2.563 . S
C939 C579 2.563 . S
C619 C899 2.563 . S
C9 C129 2.845 . S
C49 C89 2.846 . S
C298 C178 2.845 . S
C258 C218 2.846 . S
C329 C449 2.845 . S
C369 C409 2.846 . S
C498 C618 2.845 . S
C578 C538 2.846 . S
C649 C769 2.845 . S
C689 C729 2.846 . S
C938 C818 2.845 . S
C858 C898 2.846 . S
C1089 C969 2.845 . S
C1009 C1049 2.846 . S
C1258 C1138 2.845 . S
C1218 C1178 2.846 . S
C59 C19 1.711 . S
C99 C139 1.711 . S
C210 C170 1.711 . S
C290 C250 1.711 . S
C339 C379 1.711 . S
C419 C459 1.711 . S
C530 C490 1.711 . S
C570 C610 1.711 . S
C659 C699 1.711 . S
C779 C739 1.711 . S
C810 C850 1.711 . S
C890 C930 1.711 . S
C979 C1019 1.711 . S
C1059 C1099 1.711 . S
C1170 C1130 1.711 . S
C1210 C1250 1.711 . S
C6 C15 2.458 . S
C46 C55 2.457 . S
C86 C95 2.457 . S
C135 C126 2.458 . S
C166 C175 2.458 . S
C215 C206 2.457 . S
C246 C255 2.457 . S
C286 C295 2.458 . S
C335 C326 2.458 . S
C366 C375 2.457 . S
C406 C415 2.457 . S
C455 C446 2.458 . S
C486 C495 2.458 . S
C535 C526 2.457 . S
C575 C566 2.457 . S
C606 C615 2.458 . S
C646 C655 2.458 1_455 S
C695 C686 2.457 . S
C735 C726 2.457 1_655 S
C766 C775 2.458 . S
C815 C806 2.458 1_655 S
C855 C846 2.457 . S
C886 C895 2.457 1_455 S
C935 C926 2.458 . S
C975 C966 2.458 1_655 S
C1006 C1015 2.457 . S
C1055 C1046 2.457 1_655 S
C1095 C1086 2.458 . S
C1135 C1126 2.458 1_655 S
C1175 C1166 2.457 . S
C1206 C1215 2.457 1_455 S
C1246 C1255 2.458 . S
C18 C169 1.591 1_454 S
C1169 C58 1.589 1_556 S
C569 C98 1.589 1_655 S
C138 C929 1.592 . S
C209 C1018 1.589 1_556 S
C249 C418 1.589 1_655 S
C289 C778 1.592 . S
C338 C489 1.591 1_465 S
C849 C378 1.589 . S
C1249 C458 1.592 1_545 S
C529 C698 1.589 . S
C1098 C609 1.592 1_565 S
C658 C809 1.591 . S
C1209 C738 1.589 . S
C889 C1058 1.589 . S
C978 C1129 1.591 1_564 S
