# Generated by pormake.
# Topology fnu, (5)-cn, num edge types: 1
# Building blocks:
#     Node 0, Type 0, BuildingBlock: XOMCOT_clean_sbu_1, # of connection points: 5
#     Node 1, Type 0, BuildingBlock: XOMCOT_clean_sbu_1, # of connection points: 5
#     Node 2, Type 0, BuildingBlock: XOMCOT_clean_sbu_1, # of connection points: 5
#     Node 3, Type 0, BuildingBlock: XOMCOT_clean_sbu_1, # of connection points: 5
#     Node 4, Type 0, BuildingBlock: XOMCOT_clean_sbu_1, # of connection points: 5
#     Node 5, Type 0, BuildingBlock: XOMCOT_clean_sbu_1, # of connection points: 5
#     Edge 6, Type (0, 0), BuildingBlock: ZUJKAS_clean_linker_0, # of connection points: 2
#     Edge 7, Type (0, 0), BuildingBlock: ZUJKAS_clean_linker_0, # of connection points: 2
#     Edge 8, Type (0, 0), BuildingBlock: ZUJKAS_clean_linker_0, # of connection points: 2
#     Edge 9, Type (0, 0), BuildingBlock: ZUJKAS_clean_linker_0, # of connection points: 2
#     Edge 10, Type (0, 0), BuildingBlock: ZUJKAS_clean_linker_0, # of connection points: 2
#     Edge 11, Type (0, 0), BuildingBlock: ZUJKAS_clean_linker_0, # of connection points: 2
#     Edge 12, Type (0, 0), BuildingBlock: ZUJKAS_clean_linker_0, # of connection points: 2
#     Edge 13, Type (0, 0), BuildingBlock: ZUJKAS_clean_linker_0, # of connection points: 2
#     Edge 14, Type (0, 0), BuildingBlock: ZUJKAS_clean_linker_0, # of connection points: 2
#     Edge 15, Type (0, 0), BuildingBlock: ZUJKAS_clean_linker_0, # of connection points: 2
#     Edge 16, Type (0, 0), BuildingBlock: ZUJKAS_clean_linker_0, # of connection points: 2
#     Edge 17, Type (0, 0), BuildingBlock: ZUJKAS_clean_linker_0, # of connection points: 2
#     Edge 18, Type (0, 0), BuildingBlock: ZUJKAS_clean_linker_0, # of connection points: 2
#     Edge 19, Type (0, 0), BuildingBlock: ZUJKAS_clean_linker_0, # of connection points: 2
#     Edge 20, Type (0, 0), BuildingBlock: ZUJKAS_clean_linker_0, # of connection points: 2
# Relax obj value: 0.187
# Max RMSD: 0.139
# Mean RMSD: 0.139
data_MOF--net-fnu--node1-XOMCOT_clean_sbu_1--edge1-ZUJKAS_clean_linker_0
_symmetry_space_group_name_H-M    P1
_symmetry_Int_Tables_number       1
_symmetry_cell_setting            triclinic
loop_
_symmetry_equiv_pos_as_xyz
'x, y, z'
_cell_length_a     33.240022
_cell_length_b     35.289423
_cell_length_c     42.354857
_cell_angle_alpha  89.87521
_cell_angle_beta   96.127938
_cell_angle_gamma 122.05511
loop_
_atom_site_label
_atom_site_type_symbol
_atom_site_fract_x
_atom_site_fract_y
_atom_site_fract_z
_atom_type_partial_charge
C0 C 0.17416 0.09537 0.30062 0.0
C1 C 0.17961 0.09601 0.3333 0.0
N2 N 0.13653 0.0675 0.34266 0.0
N3 N 0.12808 0.06527 0.28907 0.0
C4 C 0.10602 0.05019 0.31547 0.0
H5 H 0.20172 0.11813 0.28669 0.0
Co6 Co 0.09609 0.0559 0.24759 0.0
C7 C 0.06566 0.10936 0.26176 0.0
O8 O 1.03583 0.07234 0.27468 0.0
N9 N 0.06299 0.04801 0.20805 0.0
C10 C 1.00224 1.02828 0.17055 0.0
C11 C 1.01531 1.0205 0.20063 0.0
C12 C 0.07827 0.07232 0.18255 0.0
N13 N 1.04201 0.06091 0.15935 0.0
O14 O 0.15777 0.08442 0.2293 0.0
H15 H 0.99158 0.99724 0.21647 0.0
H16 H 0.11494 0.09918 0.1815 0.0
O17 O 0.10232 0.11257 0.25213 0.0
C18 C 0.19081 0.07571 0.23265 0.0
O19 O 0.186 0.04363 0.2508 0.0
N20 N 0.08482 0.99729 0.24159 0.0
C21 C 1.041 0.90599 0.22315 0.0
C22 C 1.03464 0.91967 0.25228 0.0
C23 C 1.05595 0.96522 0.26066 0.0
C24 C 0.09307 0.9845 0.21369 0.0
C25 C 0.07195 0.93926 0.20423 0.0
H26 H 1.04548 0.97406 0.28109 0.0
H27 H 0.11267 1.00904 0.19707 0.0
H28 H 0.06772 0.02906 0.31482 0.0
H29 H 0.21221 0.11803 0.34891 0.0
H30 H 0.96642 1.01126 0.1579 0.0
H31 H 1.01121 0.89539 0.26782 0.0
H32 H 0.07709 0.93065 0.18112 0.0
C33 C 0.99004 1.01414 0.70302 0.0
C34 C 0.98449 1.00888 0.67043 0.0
N35 N 1.02049 1.00574 0.66181 0.0
N36 N 1.02882 1.01336 0.71524 0.0
C37 C 1.04682 1.00865 0.68939 0.0
H38 H 0.96865 1.02076 0.71685 0.0
Co39 Co 1.0568 0.02982 0.75788 0.0
C40 C 0.08759 0.11511 0.74672 0.0
O41 O 0.11732 0.10902 0.73269 0.0
N42 N 0.08549 0.04852 0.79911 0.0
C43 C 0.14185 0.08391 0.84005 0.0
C44 C 0.13192 0.06528 0.80956 0.0
C45 C 0.06796 0.05751 0.82326 0.0
N46 N 0.10156 0.07928 0.84851 0.0
O47 O 0.99282 0.99431 0.77268 0.0
H48 H 0.1575 0.06617 0.79531 0.0
H49 H 1.03167 0.0498 0.82177 0.0
O50 O 1.05176 0.08114 0.75662 0.0
C51 C 0.95594 0.95623 0.76222 0.0
O52 O 0.95845 0.93361 0.73871 0.0
N53 N 0.06729 0.98225 0.7605 0.0
C54 C 0.11169 0.9351 0.77813 0.0
C55 C 0.13056 0.96898 0.7567 0.0
C56 C 0.10817 0.99237 0.74858 0.0
C57 C 1.04773 0.9487 0.78092 0.0
C58 C 0.06872 0.9241 0.78939 0.0
H59 H 0.12663 1.02204 0.73553 0.0
H60 H 1.01853 0.94315 0.79326 0.0
H61 H 0.07988 1.00964 0.69046 0.0
H62 H 0.95793 1.0105 0.65435 0.0
H63 H 0.17658 0.10135 0.85421 0.0
H64 H 0.16455 0.98007 0.74831 0.0
H65 H 1.05286 0.89844 0.80615 0.0
C66 C 0.81711 0.45124 0.62946 0.0
C67 C 0.82401 0.45579 0.66214 0.0
N68 N 0.79135 0.4167 0.67318 0.0
N69 N 0.78082 0.40919 0.61978 0.0
C70 C 0.7656 0.38921 0.64699 0.0
H71 H 0.83643 0.47741 0.6137 0.0
Co72 Co 0.75212 0.38773 0.57797 0.0
C73 C 0.71913 0.44291 0.582 0.0
O74 O 0.69291 0.41193 0.60088 0.0
N75 N 0.72224 0.36655 0.53725 0.0
C76 C 0.6637 0.33035 0.49757 0.0
C77 C 0.67562 0.35029 0.52783 0.0
C78 C 0.7381 0.35657 0.51258 0.0
N79 N 0.70305 0.33394 0.48829 0.0
O80 O 0.81576 0.41618 0.56296 0.0
H81 H 0.65143 0.35102 0.54263 0.0
H82 H 0.77433 0.36448 0.51277 0.0
O83 O 0.75233 0.4413 0.57085 0.0
C84 C 0.85525 0.42111 0.57541 0.0
O85 O 0.8567 0.40295 0.60231 0.0
N86 N 0.74603 0.33196 0.58379 0.0
C87 C 0.70142 0.23957 0.57063 0.0
C88 C 0.6796 0.25682 0.58717 0.0
C89 C 0.70237 0.30301 0.59326 0.0
C90 C 0.7695 0.31562 0.56975 0.0
C91 C 0.74801 0.2695 0.56337 0.0
H92 H 0.68245 0.31606 0.60215 0.0
H93 H 0.80214 0.33744 0.55985 0.0
H94 H 0.73445 0.35604 0.64764 0.0
H95 H 0.85038 0.48595 0.67651 0.0
H96 H 0.62848 0.31298 0.48404 0.0
H97 H 0.64329 0.2354 0.59265 0.0
H98 H 0.76634 0.25775 0.55066 0.0
C99 C 0.66998 0.3639 0.03975 0.0
C100 C 0.66145 0.36061 0.00709 0.0
N101 N 0.69362 0.35406 0.99557 0.0
N102 N 0.70675 0.3585 0.04891 0.0
C103 C 0.7206 0.35301 0.02131 0.0
H104 H 0.65173 0.37161 0.05583 0.0
Co105 Co 0.73686 0.3675 0.09072 0.0
C106 C 0.77457 0.45489 0.08562 0.0
O107 O 0.8009 0.44649 0.06944 0.0
N108 N 0.76791 0.37795 0.13134 0.0
C109 C 0.82697 0.39529 0.16973 0.0
C110 C 0.81587 0.4006 0.13847 0.0
C111 C 0.75049 0.35979 0.15847 0.0
N112 N 0.78567 0.3695 0.18209 0.0
O113 O 0.67351 0.33386 0.10645 0.0
H114 H 0.84098 0.41783 0.12151 0.0
H115 H 0.71285 0.3373 0.16042 0.0
O116 O 0.73828 0.42196 0.09603 0.0
C117 C 0.63467 0.2979 0.095 0.0
O118 O 0.63427 0.27653 0.06947 0.0
N119 N 0.74178 0.31695 0.08662 0.0
C120 C 0.78925 0.27215 0.1021 0.0
C121 C 0.80668 0.30669 0.08116 0.0
C122 C 0.78293 0.32906 0.07426 0.0
C123 C 0.72207 0.28096 0.10508 0.0
C124 C 0.74506 0.25782 0.11279 0.0
H125 H 0.80113 0.36004 0.06254 0.0
H126 H 0.69221 0.27322 0.11749 0.0
H127 H 0.75085 0.34986 0.01978 0.0
H128 H 0.63546 0.36527 0.99296 0.0
H129 H 0.86245 0.40841 0.18217 0.0
H130 H 0.84066 0.31898 0.07233 0.0
H131 H 0.73077 0.23201 0.12961 0.0
C132 C 0.48864 0.7609 0.96688 0.0
C133 C 0.4954 0.76144 0.9995 0.0
N134 N 0.45823 0.72364 0.00874 0.0
N135 N 0.44791 0.72243 0.95531 0.0
C136 C 0.4301 0.70074 0.98157 0.0
H137 H 0.51059 0.78823 0.95266 0.0
Co138 Co 0.41745 0.71116 0.91327 0.0
C139 C 0.39128 0.7688 0.9264 0.0
O140 O 0.36312 0.73472 0.94253 0.0
N141 N 0.38643 0.70145 0.87276 0.0
C142 C 0.3282 0.68116 0.83317 0.0
C143 C 0.33951 0.67232 0.86334 0.0
C144 C 0.40288 0.7278 0.84834 0.0
N145 N 0.36812 0.71641 0.82396 0.0
O146 O 0.47983 0.73736 0.89656 0.0
H147 H 0.31464 0.64788 0.87809 0.0
H148 H 0.43928 0.75597 0.84902 0.0
O149 O 0.425 0.76862 0.91486 0.0
C150 C 0.51591 0.73417 0.90556 0.0
O151 O 0.51332 0.70815 0.92856 0.0
N152 N 0.40442 0.6522 0.91038 0.0
C153 C 0.3555 0.56019 0.89348 0.0
C154 C 0.34024 0.57682 0.91635 0.0
C155 C 0.36455 0.62282 0.92388 0.0
C156 C 0.42065 0.63655 0.88858 0.0
C157 C 0.39723 0.5906 0.88029 0.0
H158 H 0.34814 0.63528 0.93783 0.0
H159 H 0.44863 0.65925 0.87496 0.0
H160 H 0.39588 0.67 0.98118 0.0
H161 H 0.5236 0.78904 0.01523 0.0
H162 H 0.29293 0.66434 0.81973 0.0
H163 H 0.30787 0.55479 0.92685 0.0
H164 H 0.40937 0.5795 0.8617 0.0
C165 C 0.32252 0.69711 0.36968 0.0
C166 C 0.31552 0.68867 0.33726 0.0
N167 N 0.35219 0.68641 0.32892 0.0
N168 N 0.36291 0.69923 0.38202 0.0
C169 C 0.38036 0.69305 0.35643 0.0
H170 H 0.30069 0.70352 0.38321 0.0
Co171 Co 0.39243 0.71874 0.4241 0.0
C172 C 0.41937 0.80294 0.41151 0.0
O173 O 0.44888 0.7979 0.39633 0.0
N174 N 0.42266 0.74024 0.46464 0.0
C175 C 0.48089 0.78162 0.50348 0.0
C176 C 0.47047 0.76381 0.47269 0.0
C177 C 0.40463 0.74411 0.49056 0.0
N178 N 0.43933 0.76916 0.51452 0.0
O179 O 0.32944 0.68271 0.43998 0.0
H180 H 0.49609 0.76926 0.4567 0.0
H181 H 0.36707 0.73109 0.49132 0.0
O182 O 0.38465 0.76838 0.42179 0.0
C183 C 0.29363 0.64322 0.43131 0.0
O184 O 0.29683 0.61922 0.40917 0.0
N185 N 0.40557 0.67294 0.42795 0.0
C186 C 0.45179 0.62722 0.445 0.0
C187 C 0.46946 0.6608 0.42328 0.0
C188 C 0.44627 0.68357 0.41554 0.0
C189 C 0.38778 0.64033 0.44921 0.0
C190 C 0.40958 0.61633 0.45734 0.0
H191 H 0.46363 0.71285 0.40196 0.0
H192 H 0.35928 0.63494 0.46226 0.0
H193 H 0.41406 0.69527 0.3575 0.0
H194 H 0.28726 0.68717 0.32095 0.0
H195 H 0.51617 0.80248 0.51658 0.0
H196 H 0.50299 0.67192 0.41417 0.0
H197 H 0.39483 0.59112 0.47453 0.0
H198 H 0.22173 0.15304 0.2008 0.0
H199 H 0.29753 0.19761 0.17826 0.0
H200 H 0.33625 0.10282 0.20755 0.0
H201 H 0.26175 0.05907 0.23067 0.0
H202 H 0.41002 0.18698 0.22231 0.0
H203 H 0.33362 0.17207 0.09648 0.0
H204 H 0.31416 0.19579 0.12405 0.0
H205 H 0.29771 0.13851 0.12644 0.0
C206 C 0.24633 0.14162 0.20227 0.0
C207 C 0.23551 0.1024 0.21756 0.0
C208 C 0.2896 0.16703 0.18923 0.0
C209 C 0.3226 0.15341 0.19083 0.0
C210 C 0.3116 0.11419 0.20599 0.0
H211 H 0.55015 0.21821 0.07982 0.0
H212 H 0.47657 0.18749 0.10417 0.0
C213 C 0.26874 0.08907 0.21916 0.0
C214 C 0.36899 0.1798 0.17733 0.0
H215 H 0.41767 0.21712 0.10805 0.0
C216 C 0.41169 0.19376 0.19734 0.0
C217 C 0.3713 0.1884 0.14468 0.0
C218 C 0.32679 0.17262 0.12154 0.0
C219 C 0.45629 0.21514 0.1856 0.0
C220 C 0.45863 0.22389 0.15297 0.0
C221 C 0.41604 0.21072 0.13308 0.0
C222 C 0.50422 0.24367 0.13848 0.0
C223 C 0.50014 0.22636 0.20804 0.0
C224 C 0.54466 0.2858 0.14946 0.0
C225 C 0.58729 0.30341 0.1357 0.0
C226 C 0.59016 0.2795 0.11038 0.0
C227 C 0.54943 0.23763 0.09927 0.0
C228 C 0.50711 0.21999 0.11313 0.0
H229 H 0.49065 0.20755 0.2299 0.0
H230 H 0.52369 0.21884 0.19633 0.0
H231 H 0.52074 0.26265 0.21538 0.0
H232 H 0.54318 0.30527 0.1685 0.0
H233 H 0.61781 0.33589 0.14469 0.0
H234 H 0.99419 0.1156 0.28171 0.0
H235 H 0.9525 0.14828 0.25415 0.0
H236 H 1.05444 0.20004 0.18618 0.0
H237 H 0.096 0.16661 0.21337 0.0
H238 H 0.97702 0.23274 0.23833 0.0
H239 H 0.92749 0.12139 0.12977 0.0
H240 H 0.95335 0.11385 0.16706 0.0
H241 H 0.99064 0.15674 0.14207 0.0
C242 C 1.00837 0.1347 0.26126 0.0
C243 C 1.04827 0.13826 0.24965 0.0
C244 C 0.98438 0.15327 0.24547 0.0
C245 C 0.99961 0.17566 0.21764 0.0
C246 C 1.0414 0.18201 0.2072 0.0
H247 H 0.88514 0.32294 0.12203 0.0
H248 H 0.93605 0.29925 0.14881 0.0
C249 C 0.06554 0.16343 0.22305 0.0
C250 C 0.9702 0.19029 0.19905 0.0
H251 H 0.90284 0.17324 0.12743 0.0
C252 C 0.96099 0.21989 0.21404 0.0
C253 C 0.94848 0.17279 0.16753 0.0
C254 C 0.95501 0.13913 0.15068 0.0
C255 C 0.93107 0.23276 0.19834 0.0
C256 C 0.91025 0.21605 0.16661 0.0
C257 C 0.91908 0.18618 0.15167 0.0
C258 C 0.87946 0.22955 0.14859 0.0
C259 C 0.92116 0.26343 0.21606 0.0
C260 C 0.83087 0.19793 0.13864 0.0
C261 C 0.80151 0.21131 0.12291 0.0
C262 C 0.82042 0.25647 0.1165 0.0
C263 C 0.86943 0.28773 0.12594 0.0
C264 C 0.89857 0.27439 0.14167 0.0
H265 H 0.93001 0.26434 0.24221 0.0
H266 H 0.94337 0.29797 0.20837 0.0
H267 H 0.88299 0.25276 0.2108 0.0
H268 H 0.81547 0.16307 0.14363 0.0
H269 H 0.76402 0.1864 0.11592 0.0
H270 H 0.74095 0.48572 0.12922 0.0
H271 H 0.77914 0.56299 0.15161 0.0
H272 H 0.88862 0.60665 0.08954 0.0
H273 H 0.85029 0.53043 0.06662 0.0
H274 H 0.86779 0.61253 0.18401 0.0
H275 H 0.85804 0.7019 0.079 0.0
H276 H 0.82292 0.6416 0.07924 0.0
H277 H 0.88427 0.67021 0.07139 0.0
C278 C 0.77245 0.51202 0.11979 0.0
C279 C 0.79249 0.50187 0.09608 0.0
C280 C 0.79439 0.55612 0.13273 0.0
C281 C 0.83649 0.59082 0.12201 0.0
C282 C 0.8556 0.58082 0.0977 0.0
H283 H 0.06695 0.85921 0.18714 0.0
H284 H 1.01585 0.78229 0.16357 0.0
C285 C 0.8337 0.53699 0.08474 0.0
C286 C 0.86297 0.6367 0.13786 0.0
H287 H 0.91706 0.74753 0.12303 0.0
C288 C 0.87793 0.64199 0.17074 0.0
C289 C 0.87636 0.67525 0.12057 0.0
C290 C 0.85912 0.67196 0.08567 0.0
C291 C 0.90721 0.68473 0.18651 0.0
C292 C 0.92187 0.72308 0.16896 0.0
C293 C 0.90619 0.71794 0.13629 0.0
C294 C 0.95317 0.76894 0.18421 0.0
C295 C 0.92343 0.68883 0.22165 0.0
C296 C 0.93474 0.78673 0.20359 0.0
C297 C 0.96356 0.83077 0.21677 0.0
C298 C 1.01163 0.85796 0.211 0.0
C299 C 1.03011 0.83956 0.1919 0.0
C300 C 1.00105 0.79555 0.17851 0.0
H301 H 0.91386 0.65603 0.23105 0.0
H302 H 0.96279 0.71237 0.22653 0.0
H303 H 0.90641 0.70275 0.23474 0.0
H304 H 0.89769 0.76683 0.20795 0.0
H305 H 0.94753 0.84388 0.23063 0.0
H306 H 1.05994 0.14063 0.79711 0.0
H307 H 0.09847 0.21644 0.82217 0.0
H308 H 0.19106 0.26878 0.74856 0.0
H309 H 0.15274 0.19338 0.72337 0.0
H310 H 0.19701 0.26878 0.84498 0.0
H311 H 0.14712 0.35705 0.75602 0.0
H312 H 0.11492 0.2967 0.75613 0.0
H313 H 0.17065 0.32692 0.73964 0.0
C314 C 0.08746 0.16847 0.78571 0.0
C315 C 0.10314 0.16106 0.75814 0.0
C316 C 0.10972 0.21171 0.80022 0.0
C317 C 0.14744 0.2483 0.78713 0.0
C318 C 0.16155 0.2412 0.75881 0.0
H319 H 0.38293 0.50247 0.87703 0.0
H320 H 0.33157 0.42594 0.85254 0.0
C321 C 0.13964 0.19804 0.74446 0.0
C322 C 0.17494 0.29321 0.80435 0.0
H323 H 0.21176 0.40295 0.79638 0.0
C324 C 0.19992 0.29808 0.8345 0.0
C325 C 0.17855 0.33133 0.79069 0.0
C326 C 0.15105 0.32784 0.75896 0.0
C327 C 0.22935 0.34027 0.85103 0.0
C328 C 0.23429 0.37862 0.83686 0.0
C329 C 0.20835 0.37357 0.80706 0.0
C330 C 0.26555 0.42427 0.85271 0.0
C331 C 0.25466 0.34343 0.88359 0.0
C332 C 0.2456 0.44889 0.86055 0.0
C333 C 0.27477 0.49251 0.87436 0.0
C334 C 0.3247 0.51269 0.88053 0.0
C335 C 0.34466 0.48792 0.87265 0.0
C336 C 0.31533 0.44408 0.85889 0.0
H337 H 0.23839 0.31037 0.89418 0.0
H338 H 0.29263 0.35564 0.88161 0.0
H339 H 0.25387 0.36748 0.89998 0.0
H340 H 0.20736 0.4344 0.85575 0.0
H341 H 0.2582 0.51087 0.87937 0.0
H342 H 0.53194 0.78241 0.85203 0.0
H343 H 0.6059 0.82186 0.82691 0.0
H344 H 0.67527 0.78329 0.90019 0.0
H345 H 0.60169 0.74314 0.92484 0.0
H346 H 0.69649 0.89147 0.84814 0.0
H347 H 0.70084 0.74041 0.82109 0.0
H348 H 0.649 0.73717 0.83365 0.0
H349 H 0.69843 0.74814 0.86252 0.0
C350 C 0.56292 0.78222 0.86271 0.0
C351 C 0.5606 0.75911 0.89027 0.0
C352 C 0.60523 0.80487 0.84836 0.0
C353 C 0.64602 0.80486 0.86126 0.0
C354 C 0.64404 0.78283 0.88923 0.0
H355 H 0.94049 0.98331 0.81826 0.0
H356 H 0.86564 0.94837 0.84222 0.0
C357 C 0.60184 0.75999 0.90341 0.0
C358 C 0.69074 0.82782 0.84569 0.0
H359 H 0.77188 0.8107 0.81597 0.0
C360 C 0.71285 0.87378 0.84093 0.0
C361 C 0.7119 0.80471 0.83584 0.0
C362 C 0.68858 0.7548 0.83821 0.0
C363 C 0.75585 0.89732 0.82718 0.0
C364 C 0.77801 0.87454 0.81855 0.0
C365 C 0.75541 0.82844 0.82288 0.0
C366 C 0.82367 0.89714 0.80396 0.0
C367 C 0.77647 0.94612 0.82143 0.0
C368 C 0.82564 0.87956 0.77486 0.0
C369 C 0.86848 0.89897 0.76144 0.0
C370 C 0.91059 0.93665 0.77669 0.0
C371 C 0.90867 0.95454 0.80575 0.0
C372 C 0.86573 0.93475 0.81937 0.0
H373 H 0.74887 0.9549 0.82065 0.0
H374 H 0.80493 0.96705 0.84116 0.0
H375 H 0.79245 0.95473 0.79876 0.0
H376 H 0.79388 0.85059 0.76245 0.0
H377 H 0.86847 0.88434 0.73898 0.0
H378 H 0.12152 0.91355 0.83959 0.0
H379 H 0.17259 0.88777 0.86271 0.0
H380 H 0.21942 0.88939 0.77144 0.0
H381 H 0.16706 0.91383 0.7476 0.0
H382 H 0.17402 0.80731 0.84026 0.0
H383 H 0.34458 0.97161 0.83729 0.0
H384 H 0.28758 0.96692 0.83604 0.0
H385 H 0.30246 0.94977 0.80161 0.0
C386 C 0.14169 0.90749 0.82411 0.0
C387 C 0.13985 0.91572 0.79158 0.0
C388 C 0.17132 0.8932 0.83753 0.0
C389 C 0.2002 0.88729 0.81888 0.0
C390 C 0.19788 0.89443 0.78632 0.0
H391 H 0.4102 0.81344 0.87149 0.0
H392 H 0.36586 0.84454 0.8449 0.0
C393 C 0.16793 0.90843 0.77277 0.0
C394 C 0.23265 0.87362 0.83372 0.0
H395 H 0.35019 0.91251 0.85847 0.0
C396 C 0.21253 0.83022 0.84421 0.0
C397 C 0.28287 0.90354 0.83856 0.0
C398 C 0.30597 0.95072 0.828 0.0
C399 C 0.24131 0.81586 0.85948 0.0
C400 C 0.29152 0.84625 0.86534 0.0
C401 C 0.31173 0.88943 0.85425 0.0
C402 C 0.32321 0.83353 0.88314 0.0
C403 C 0.21763 0.76798 0.86873 0.0
C404 C 0.31583 0.81927 0.91412 0.0
C405 C 0.34083 0.80124 0.92925 0.0
C406 C 0.37436 0.79785 0.91392 0.0
C407 C 0.38473 0.81572 0.884 0.0
C408 C 0.35922 0.8333 0.86869 0.0
H409 H 0.18205 0.74612 0.8546 0.0
H410 H 0.24018 0.75411 0.86539 0.0
H411 H 0.21217 0.76676 0.89419 0.0
H412 H 0.28921 0.82034 0.92611 0.0
H413 H 0.33228 0.78803 0.95237 0.0
H414 H 0.938 0.4221 0.58853 0.0
H415 H 1.01112 0.46403 0.56356 0.0
H416 H 0.94654 0.51987 0.50182 0.0
H417 H 0.87222 0.4765 0.52608 0.0
H418 H 0.9943 0.49693 0.4692 0.0
H419 H 0.11255 0.59365 0.57851 0.0
H420 H 0.08272 0.53464 0.58332 0.0
H421 H 1.04831 0.56046 0.577 0.0
C422 C 0.93925 0.44337 0.56969 0.0
C423 C 0.89927 0.44617 0.5595 0.0
C424 C 0.9814 0.46771 0.55559 0.0
C425 C 0.9851 0.49626 0.53137 0.0
C426 C 0.94488 0.49849 0.52068 0.0
H427 H 0.26646 0.68599 0.47015 0.0
H428 H 0.19093 0.65322 0.49313 0.0
C429 C 0.90237 0.47364 0.53455 0.0
C430 C 1.03042 0.52251 0.51665 0.0
H431 H 0.15172 0.59196 0.53452 0.0
C432 C 1.02864 0.51806 0.4835 0.0
C433 C 0.07537 0.55103 0.53506 0.0
C434 C 0.07984 0.56065 0.57039 0.0
C435 C 0.07045 0.53979 0.46846 0.0
C436 C 0.11567 0.56567 0.48714 0.0
C437 C 0.1173 0.57158 0.52014 0.0
C438 C 0.16161 0.5859 0.47306 0.0
C439 C 0.06547 0.53509 0.43262 0.0
C440 C 0.17097 0.55902 0.45465 0.0
C441 C 0.21377 0.57773 0.44124 0.0
C442 C 0.24885 0.62372 0.44641 0.0
C443 C 0.24017 0.65048 0.46562 0.0
C444 C 0.19696 0.63176 0.47876 0.0
H445 H 1.0301 0.52822 0.42178 0.0
H446 H 0.0939 0.56577 0.42283 0.0
H447 H 0.06816 0.50639 0.42537 0.0
H448 H 0.14523 0.52333 0.45076 0.0
H449 H 0.21943 0.55595 0.42694 0.0
H450 H 0.66092 0.4639 0.60724 0.0
H451 H 0.62324 0.50162 0.58179 0.0
H452 H 0.70214 0.52552 0.50188 0.0
H453 H 0.74032 0.48785 0.52729 0.0
H454 H 0.6663 0.59258 0.55499 0.0
H455 H 0.55407 0.44732 0.46646 0.0
H456 H 0.58318 0.44273 0.50348 0.0
H457 H 0.61767 0.471 0.47183 0.0
C458 C 0.67097 0.4779 0.58452 0.0
C459 C 0.70346 0.47274 0.56922 0.0
C460 C 0.64937 0.49941 0.57001 0.0
C461 C 0.65944 0.51575 0.53981 0.0
C462 C 0.69363 0.51271 0.52511 0.0
H463 H 0.5043 0.60474 0.41234 0.0
H464 H 0.55743 0.58026 0.43427 0.0
C465 C 0.71566 0.49152 0.53976 0.0
C466 C 0.63189 0.53349 0.52318 0.0
H467 H 0.54052 0.50624 0.46426 0.0
C468 C 0.63903 0.57395 0.535 0.0
C469 C 0.59648 0.50907 0.49708 0.0
C470 C 0.58693 0.46496 0.48391 0.0
C471 C 0.61143 0.59062 0.52151 0.0
C472 C 0.57472 0.56539 0.49611 0.0
C473 C 0.56845 0.52543 0.4838 0.0
C474 C 0.54163 0.57926 0.48263 0.0
C475 C 0.62222 0.63531 0.53444 0.0
C476 C 0.51403 0.58563 0.5023 0.0
C477 C 0.48406 0.60007 0.48994 0.0
C478 C 0.48036 0.60784 0.45744 0.0
C479 C 0.50672 0.59975 0.43754 0.0
C480 C 0.53698 0.58556 0.45001 0.0
H481 H 0.65968 0.65629 0.54612 0.0
H482 H 0.61644 0.65413 0.51533 0.0
H483 H 0.5982 0.62975 0.55259 0.0
H484 H 0.51599 0.57983 0.52738 0.0
H485 H 0.46494 0.60643 0.50617 0.0
H486 H 0.39514 0.82511 0.46527 0.0
H487 H 0.43606 0.8992 0.49344 0.0
H488 H 0.52322 0.95677 0.41746 0.0
H489 H 0.4826 0.883 0.38921 0.0
H490 H 0.53591 0.94878 0.5132 0.0
H491 H 0.48372 0.04619 0.43546 0.0
H492 H 0.45014 0.98566 0.43304 0.0
H493 H 0.50416 1.01647 0.41468 0.0
C494 C 0.42189 0.85378 0.45404 0.0
C495 C 0.43548 0.84824 0.42488 0.0
C496 C 0.44551 0.89604 0.47032 0.0
C497 C 0.48248 0.93357 0.45747 0.0
C498 C 0.4943 0.92846 0.4276 0.0
H499 H 0.70144 0.20814 0.51162 0.0
H500 H 0.64871 0.13267 0.48672 0.0
C501 C 0.47106 0.88623 0.41148 0.0
C502 C 0.51196 0.97712 0.47641 0.0
H503 H 0.55191 0.08827 0.47434 0.0
C504 C 0.53902 0.97926 0.50496 0.0
C505 C 0.51614 1.0168 0.4655 0.0
C506 C 0.48668 1.01627 0.43564 0.0
C507 C 0.57156 1.0203 0.52227 0.0
C508 C 0.57642 0.06017 0.51104 0.0
C509 C 0.54844 0.05779 0.48287 0.0
C510 C 0.611 0.10494 0.5276 0.0
C511 C 0.60179 1.02075 0.55168 0.0
C512 C 0.60794 0.11447 0.55912 0.0
C513 C 0.63877 0.1576 0.57372 0.0
C514 C 0.673 0.19225 0.55699 0.0
C515 C 0.67644 0.18224 0.5256 0.0
C516 C 0.64582 0.13913 0.51112 0.0
H517 H 0.60302 0.9899 0.55222 0.0
H518 H 0.63895 0.05027 0.55318 0.0
H519 H 0.58618 1.02261 0.57307 0.0
H520 H 0.58084 0.08891 0.57217 0.0
H521 H 0.63512 0.16403 0.59791 0.0
H522 H 0.95894 0.97579 0.60725 0.0
H523 H 0.97932 0.98318 0.55286 0.0
H524 H 0.12825 0.04398 0.58902 0.0
H525 H 0.1085 0.03763 0.64341 0.0
H526 H 1.04477 0.0678 0.52787 0.0
H527 H 0.10149 0.9458 0.52086 0.0
H528 H 0.0649 0.94401 0.55016 0.0
H529 H 0.128 0.985 0.55509 0.0
C530 C 0.99602 0.99064 0.60369 0.0
C531 C 1.03202 1.0062 0.62983 0.0
C532 C 1.00755 0.99461 0.57259 0.0
C533 C 1.0552 1.01377 0.56698 0.0
C534 C 0.09113 1.02837 0.59288 0.0
H535 H 0.19668 0.08062 0.39602 0.0
H536 H 0.17734 0.0688 0.45066 0.0
C537 C 0.07969 1.02458 0.62403 0.0
C538 C 0.06762 1.0212 0.53405 0.0
H539 H 0.11405 0.99194 0.47762 0.0
C540 C 1.05972 0.0511 0.51678 0.0
C541 C 0.08753 0.99966 0.51989 0.0
C542 C 0.09574 0.96653 0.53728 0.0
C543 C 0.07172 0.06049 0.48573 0.0
C544 C 0.09103 0.03847 0.47132 0.0
C545 C 0.09916 1.00871 0.48869 0.0
C546 C 0.10265 0.04562 0.43813 0.0
C547 C 0.06464 0.0947 0.46899 0.0
C548 C 0.06699 0.03603 0.4129 0.0
C549 C 0.07803 0.04332 0.38169 0.0
C550 C 0.12495 0.05985 0.37493 0.0
C551 C 0.16041 0.06864 0.4003 0.0
C552 C 0.14934 0.06155 0.43155 0.0
H553 H 0.06315 0.11757 0.48615 0.0
H554 H 0.09383 0.11513 0.45429 0.0
H555 H 1.03022 0.07715 0.45309 0.0
H556 H 1.03049 1.02282 0.41734 0.0
H557 H 1.04973 0.03646 0.36304 0.0
H558 H 0.62664 0.32292 0.94399 0.0
H559 H 0.64043 0.32656 0.88807 0.0
H560 H 0.79198 0.39022 0.9171 0.0
H561 H 0.77833 0.38617 0.97281 0.0
H562 H 0.69133 0.39992 0.8565 0.0
H563 H 0.76876 0.29484 0.85251 0.0
H564 H 0.73861 0.29575 0.88524 0.0
H565 H 0.80013 0.33906 0.88332 0.0
C566 C 0.66281 0.33735 0.93838 0.0
C567 C 0.70133 0.35396 0.96277 0.0
C568 C 0.67064 0.3393 0.90648 0.0
C569 C 0.71715 0.35794 0.89842 0.0
C570 C 0.75565 0.37447 0.92275 0.0
H571 H 0.81773 0.47718 0.72296 0.0
H572 H 0.79938 0.46115 0.77735 0.0
C573 C 0.7478 0.3722 0.95461 0.0
C574 C 0.72584 0.36293 0.86462 0.0
H575 H 0.78014 0.34196 0.80915 0.0
C576 C 0.71034 0.38687 0.84605 0.0
C577 C 0.7501 0.34539 0.85089 0.0
C578 C 0.76491 0.31692 0.86893 0.0
C579 C 0.7196 0.39484 0.8144 0.0
C580 C 0.74616 0.37943 0.80123 0.0
C581 C 0.76041 0.35432 0.81946 0.0
C582 C 0.7595 0.3891 0.76857 0.0
C583 C 0.70039 0.4193 0.79531 0.0
C584 C 0.74504 0.35394 0.7459 0.0
C585 C 0.75632 0.36299 0.71482 0.0
C586 C 0.78227 0.40743 0.70577 0.0
C587 C 0.79788 0.44258 0.72891 0.0
C588 C 0.78685 0.43347 0.76001 0.0
H589 H 0.66958 0.41683 0.80535 0.0
H590 H 0.7289 0.45532 0.79587 0.0
H591 H 0.68884 0.40588 0.77011 0.0
H592 H 0.72438 0.31943 0.75213 0.0
H593 H 0.74457 0.33509 0.69791 0.0
H594 H 0.28786 0.64633 0.27623 0.0
H595 H 0.30515 0.64619 0.22151 0.0
H596 H 0.45629 0.72022 0.25433 0.0
H597 H 0.43943 0.72084 0.3089 0.0
H598 H 0.3586 0.72226 0.18861 0.0
H599 H 0.43978 0.61931 0.196 0.0
H600 H 0.40506 0.61997 0.22578 0.0
H601 H 0.46629 0.66493 0.22578 0.0
C602 C 0.32475 0.6624 0.27182 0.0
C603 C 0.3622 0.6835 0.29701 0.0
C604 C 0.33456 0.6621 0.24058 0.0
C605 C 0.38196 0.68264 0.23394 0.0
C606 C 0.41941 0.7032 0.25902 0.0
H607 H 0.52099 0.75098 0.06263 0.0
H608 H 0.50174 0.73937 0.11745 0.0
C609 C 0.40965 0.7035 0.29026 0.0
C610 C 0.39239 0.68542 0.20058 0.0
H611 H 0.44751 0.65889 0.14911 0.0
C612 C 0.37766 0.70807 0.17987 0.0
C613 C 0.41758 0.66715 0.18938 0.0
C614 C 0.43277 0.64112 0.21028 0.0
C615 C 0.38824 0.71373 0.14839 0.0
C616 C 0.41348 0.69552 0.13717 0.0
C617 C 0.42815 0.67277 0.15783 0.0
C618 C 0.42511 0.7001 0.10406 0.0
C619 C 0.37339 0.74017 0.12764 0.0
C620 C 0.38843 0.68097 0.07846 0.0
C621 C 0.39927 0.68778 0.0472 0.0
C622 C 0.44711 0.71367 0.0409 0.0
C623 C 0.48383 0.73145 0.06667 0.0
C624 C 0.47291 0.72462 0.09797 0.0
H625 H 0.36511 0.761 0.14193 0.0
H626 H 0.4019 0.76239 0.11298 0.0
H627 H 0.34074 0.71665 0.11131 0.0
H628 H 0.35131 0.66137 0.08269 0.0
H629 H 0.36998 0.67391 0.02811 0.0
H630 H 0.97649 0.07219 0.12433 0.0
H631 H 0.98055 0.0975 0.07009 0.0
H632 H 0.11906 0.11418 0.0709 0.0
H633 H 0.11572 0.09045 0.1251 0.0
H634 H 0.11436 0.18025 0.04012 0.0
H635 H 0.95644 1.01131 0.99751 0.0
H636 H 0.9475 0.04334 0.02563 0.0
H637 H 0.98581 1.02298 0.03772 0.0
C638 C 1.00788 0.0817 0.1129 0.0
C639 C 1.04557 0.07894 0.12866 0.0
C640 C 1.01018 0.09613 0.08202 0.0
C641 C 1.04972 0.10691 0.0663 0.0
C642 C 0.08826 0.10613 0.08262 0.0
H643 H 0.15596 0.09748 0.9054 0.0
H644 H 0.14155 0.11754 0.95607 0.0
C645 C 0.0863 0.09246 0.11356 0.0
C646 C 1.04988 0.11468 0.03201 0.0
H647 H 1.00091 0.05779 0.95942 0.0
C648 C 0.08893 0.15393 0.02236 0.0
C649 C 1.01643 0.08038 0.00888 0.0
C650 C 0.9743 0.03698 0.01779 0.0
C651 C 0.09751 0.15823 0.99047 0.0
C652 C 0.06624 0.1224 0.96792 0.0
C653 C 1.02481 0.08509 0.97698 0.0
C654 C 0.0796 0.11903 0.93644 0.0
C655 C 0.14122 0.19999 0.98142 0.0
C656 C 1.04963 0.11345 0.90864 0.0
C657 C 1.0579 0.10212 0.87951 0.0
C658 C 0.09578 0.09535 0.87786 0.0
C659 C 0.12677 0.10274 0.90568 0.0
C660 C 0.11871 0.11444 0.93469 0.0
H661 H 0.15235 0.22912 0.99807 0.0
H662 H 0.17126 0.1945 0.98259 0.0
H663 H 0.13467 0.20813 0.9568 0.0
H664 H 1.01905 0.11654 0.90965 0.0
H665 H 1.034 0.09785 0.85849 0.0
H666 H 0.71565 0.35348 0.21669 0.0
H667 H 0.70487 0.32495 0.26964 0.0
H668 H 0.82982 0.31653 0.27017 0.0
H669 H 0.84114 0.34589 0.21707 0.0
H670 H 0.69252 0.24579 0.29353 0.0
H671 H 0.86173 0.39784 0.34921 0.0
H672 H 0.83658 0.39593 0.30893 0.0
H673 H 0.86595 0.36606 0.31808 0.0
C674 C 0.74062 0.34529 0.22803 0.0
C675 C 0.77953 0.35238 0.21309 0.0
C676 C 0.73437 0.32885 0.25816 0.0
C677 C 0.76676 0.31897 0.27382 0.0
C678 C 0.80492 0.32467 0.25862 0.0
H679 H 0.76363 0.30676 0.47916 0.0
H680 H 0.77845 0.28772 0.42799 0.0
C681 C 0.81148 0.34162 0.22848 0.0
C682 C 0.7616 0.30586 0.30692 0.0
H683 H 0.80804 0.35003 0.38296 0.0
C684 C 0.71824 0.26793 0.3132 0.0
C685 C 0.79552 0.33456 0.33245 0.0
C686 C 0.8425 0.37603 0.32705 0.0
C687 C 0.70622 0.26006 0.34427 0.0
C688 C 0.73826 0.29111 0.36938 0.0
C689 C 0.7835 0.32644 0.36349 0.0
C690 C 0.72298 0.29275 0.40049 0.0
C691 C 0.65839 0.21995 0.34974 0.0
C692 C 0.68639 0.30117 0.4019 0.0
C693 C 0.67835 0.31274 0.43096 0.0
C694 C 0.70708 0.31645 0.45903 0.0
C695 C 0.7418 0.30535 0.45778 0.0
C696 C 0.74989 0.29386 0.42868 0.0
H697 H 0.64643 0.19204 0.33169 0.0
H698 H 0.65973 0.20794 0.37385 0.0
H699 H 0.63129 0.22939 0.34747 0.0
H700 H 0.66603 0.3016 0.3803 0.0
H701 H 0.65158 0.3213 0.4312 0.0
H702 H 0.49767 0.84674 0.5505 0.0
H703 H 0.48871 0.86365 0.60456 0.0
H704 H 0.3578 0.73407 0.60165 0.0
H705 H 0.36617 0.71756 0.54772 0.0
H706 H 0.35277 0.8014 0.63124 0.0
H707 H 0.5181 0.80472 0.67822 0.0
H708 H 0.52419 0.84448 0.64958 0.0
H709 H 0.4906 0.78571 0.63772 0.0
C710 C 0.467 0.82206 0.5615 0.0
C711 C 0.43294 0.78059 0.54527 0.0
C712 C 0.46184 0.83178 0.59222 0.0
C713 C 0.42299 0.79981 0.60719 0.0
C714 C 0.38797 0.75924 0.59045 0.0
H715 H 0.3138 0.67949 0.76733 0.0
H716 H 0.32731 0.71406 0.71651 0.0
C717 C 0.39282 0.74977 0.55971 0.0
C718 C 0.42022 0.80595 0.64118 0.0
H719 H 0.46928 0.80163 0.71491 0.0
C720 C 0.37874 0.80249 0.64966 0.0
C721 C 0.45441 0.80775 0.66513 0.0
C722 C 0.49924 0.81061 0.65739 0.0
C723 C 0.36886 0.79739 0.68128 0.0
C724 C 0.40115 0.79546 0.70471 0.0
C725 C 0.44458 0.80301 0.69672 0.0
C726 C 0.38765 0.77841 0.73614 0.0
C727 C 0.32298 0.79206 0.6891 0.0
C728 C 0.41697 0.80322 0.764 0.0
C729 C 0.40937 0.78344 0.79311 0.0
C730 C 0.3727 0.73833 0.79471 0.0
C731 C 0.34205 0.71431 0.76695 0.0
C732 C 0.34957 0.73415 0.7379 0.0
H733 H 0.31111 0.80939 0.67222 0.0
H734 H 0.29446 0.75593 0.68703 0.0
H735 H 0.3271 0.80544 0.71373 0.0
H736 H 0.44674 0.83733 0.76302 0.0
H737 H 0.43291 0.80323 0.81418 0.0
loop_
_geom_bond_atom_site_label_1
_geom_bond_atom_site_label_2
_geom_bond_distance
_geom_bond_site_symmetry_2
_ccdc_geom_bond_type
C0 C1 1.351 . S
C0 N3 1.368 . S
C0 H5 0.931 . S
C1 C0 1.351 . S
C1 N2 1.373 . S
C1 H29 0.930 . S
N2 C1 1.373 . S
N2 C4 1.340 . S
N3 C0 1.368 . S
N3 C4 1.321 . S
N3 Co6 2.135 . S
C4 N2 1.340 . S
C4 N3 1.321 . S
C4 H28 0.930 . S
H5 C0 0.931 . S
Co6 N3 2.135 . S
Co6 N9 2.121 . S
Co6 O14 2.055 . S
Co6 O17 2.039 . S
Co6 N20 2.140 1_445 S
C7 O8 1.227 . S
C7 O17 1.265 1_655 S
O8 C7 1.227 . S
N9 Co6 2.121 . S
N9 C11 1.375 1_455 S
N9 C12 1.313 . S
C10 C11 1.338 . S
C10 N13 1.377 1_655 S
C10 H30 0.930 . S
C11 N9 1.375 1_655 S
C11 C10 1.338 . S
C11 H15 0.931 . S
C12 N9 1.313 . S
C12 N13 1.344 . S
C12 H16 0.930 . S
N13 C10 1.377 1_455 S
N13 C12 1.344 . S
O14 Co6 2.055 . S
O14 C18 1.253 . S
H15 C11 0.931 . S
H16 C12 0.930 . S
O17 Co6 2.039 . S
O17 C7 1.265 1_455 S
C18 O14 1.253 . S
C18 O19 1.227 . S
O19 C18 1.227 . S
N20 Co6 2.140 1_665 S
N20 C23 1.346 . S
N20 C24 1.353 . S
C21 C22 1.387 . S
C21 C25 1.391 . S
C22 C21 1.387 . S
C22 C23 1.369 . S
C22 H31 0.929 . S
C23 N20 1.346 . S
C23 C22 1.369 . S
C23 H26 0.928 . S
C24 N20 1.353 . S
C24 C25 1.372 . S
C24 H27 0.922 1_655 S
C25 C21 1.391 . S
C25 C24 1.372 . S
C25 H32 0.930 . S
H26 C23 0.928 . S
H27 C24 0.922 1_455 S
H28 C4 0.930 . S
H29 C1 0.930 . S
H30 C10 0.930 . S
H31 C22 0.929 . S
H32 C25 0.930 . S
C33 C34 1.351 . S
C33 N36 1.368 1_565 S
C33 H38 0.931 . S
C34 C33 1.351 . S
C34 N35 1.373 1_565 S
C34 H62 0.930 . S
N35 C34 1.373 1_545 S
N35 C37 1.340 1_655 S
N36 C33 1.368 1_545 S
N36 C37 1.321 1_655 S
N36 Co39 2.135 . S
C37 N35 1.340 1_455 S
C37 N36 1.321 1_455 S
C37 H61 0.930 . S
H38 C33 0.931 . S
Co39 N36 2.135 . S
Co39 N42 2.121 1_655 S
Co39 O47 2.055 1_545 S
Co39 O50 2.039 1_655 S
Co39 N53 2.140 1_645 S
C40 O41 1.227 . S
C40 O50 1.265 . S
O41 C40 1.227 . S
N42 Co39 2.121 1_455 S
N42 C44 1.375 . S
N42 C45 1.313 1_455 S
C43 C44 1.338 . S
C43 N46 1.377 . S
C43 H63 0.930 . S
C44 N42 1.375 . S
C44 C43 1.338 . S
C44 H48 0.931 . S
C45 N42 1.313 1_655 S
C45 N46 1.344 1_655 S
C45 H49 0.930 1_545 S
N46 C43 1.377 . S
N46 C45 1.344 1_455 S
O47 Co39 2.055 1_565 S
O47 C51 1.253 . S
H48 C44 0.931 . S
H49 C45 0.930 1_565 S
O50 Co39 2.039 1_455 S
O50 C40 1.265 . S
C51 O47 1.253 . S
C51 O52 1.227 . S
O52 C51 1.227 . S
N53 Co39 2.140 1_465 S
N53 C56 1.346 . S
N53 C57 1.345 . S
C54 C55 1.387 . S
C54 C58 1.391 . S
C55 C54 1.387 . S
C55 C56 1.369 . S
C55 H64 0.929 . S
C56 N53 1.346 . S
C56 C55 1.369 . S
C56 H59 0.928 1_565 S
C57 N53 1.345 . S
C57 C58 1.371 . S
C57 H60 0.931 . S
C58 C54 1.391 . S
C58 C57 1.371 . S
C58 H65 0.930 . S
H59 C56 0.928 1_545 S
H60 C57 0.931 . S
H61 C37 0.930 . S
H62 C34 0.930 . S
H63 C43 0.930 . S
H64 C55 0.929 . S
H65 C58 0.930 . S
C66 C67 1.351 . S
C66 N69 1.368 . S
C66 H71 0.931 . S
C67 C66 1.351 . S
C67 N68 1.373 . S
C67 H95 0.930 . S
N68 C67 1.373 . S
N68 C70 1.340 . S
N69 C66 1.368 . S
N69 C70 1.321 . S
N69 Co72 2.135 . S
C70 N68 1.340 . S
C70 N69 1.321 . S
C70 H94 0.930 . S
H71 C66 0.931 . S
Co72 N69 2.135 . S
Co72 N75 2.121 . S
Co72 O80 2.055 . S
Co72 O83 2.039 . S
Co72 N86 2.140 . S
C73 O74 1.227 . S
C73 O83 1.265 . S
O74 C73 1.227 . S
N75 Co72 2.121 . S
N75 C77 1.375 . S
N75 C78 1.313 . S
C76 C77 1.338 . S
C76 N79 1.377 . S
C76 H96 0.930 . S
C77 N75 1.375 . S
C77 C76 1.338 . S
C77 H81 0.931 . S
C78 N75 1.313 . S
C78 N79 1.344 . S
C78 H82 0.930 . S
N79 C76 1.377 . S
N79 C78 1.344 . S
O80 Co72 2.055 . S
O80 C84 1.253 . S
H81 C77 0.931 . S
H82 C78 0.930 . S
O83 Co72 2.039 . S
O83 C73 1.265 . S
C84 O80 1.253 . S
C84 O85 1.227 . S
O85 C84 1.227 . S
N86 Co72 2.140 . S
N86 C89 1.346 . S
N86 C90 1.345 . S
C87 C88 1.387 . S
C87 C91 1.391 . S
C88 C87 1.387 . S
C88 C89 1.369 . S
C88 H97 0.929 . S
C89 N86 1.346 . S
C89 C88 1.369 . S
C89 H92 0.928 . S
C90 N86 1.345 . S
C90 C91 1.371 . S
C90 H93 0.931 . S
C91 C87 1.391 . S
C91 C90 1.371 . S
C91 H98 0.930 . S
H92 C89 0.928 . S
H93 C90 0.931 . S
H94 C70 0.930 . S
H95 C67 0.930 . S
H96 C76 0.930 . S
H97 C88 0.929 . S
H98 C91 0.930 . S
C99 C100 1.351 . S
C99 N102 1.368 . S
C99 H104 0.931 . S
C100 C99 1.351 . S
C100 N101 1.373 . S
C100 H128 0.930 . S
N101 C100 1.373 . S
N101 C103 1.340 . S
N102 C99 1.368 . S
N102 C103 1.321 . S
N102 Co105 2.135 . S
C103 N101 1.340 . S
C103 N102 1.321 . S
C103 H127 0.930 . S
H104 C99 0.931 . S
Co105 N102 2.135 . S
Co105 N108 2.121 . S
Co105 O113 2.055 . S
Co105 O116 2.039 . S
Co105 N119 2.140 . S
C106 O107 1.227 . S
C106 O116 1.265 . S
O107 C106 1.227 . S
N108 Co105 2.121 . S
N108 C110 1.375 . S
N108 C111 1.313 . S
C109 C110 1.338 . S
C109 N112 1.377 . S
C109 H129 0.930 . S
C110 N108 1.375 . S
C110 C109 1.338 . S
C110 H114 0.931 . S
C111 N108 1.313 . S
C111 N112 1.344 . S
C111 H115 0.930 . S
N112 C109 1.377 . S
N112 C111 1.344 . S
O113 Co105 2.055 . S
O113 C117 1.253 . S
H114 C110 0.931 . S
H115 C111 0.930 . S
O116 Co105 2.039 . S
O116 C106 1.265 . S
C117 O113 1.253 . S
C117 O118 1.227 . S
O118 C117 1.227 . S
N119 Co105 2.140 . S
N119 C122 1.346 . S
N119 C123 1.345 . S
C120 C121 1.387 . S
C120 C124 1.391 . S
C121 C120 1.387 . S
C121 C122 1.369 . S
C121 H130 0.929 . S
C122 N119 1.346 . S
C122 C121 1.369 . S
C122 H125 0.928 . S
C123 N119 1.345 . S
C123 C124 1.371 . S
C123 H126 0.931 . S
C124 C120 1.391 . S
C124 C123 1.371 . S
C124 H131 0.930 . S
H125 C122 0.928 . S
H126 C123 0.931 . S
H127 C103 0.930 . S
H128 C100 0.930 . S
H129 C109 0.930 . S
H130 C121 0.929 . S
H131 C124 0.930 . S
C132 C133 1.351 . S
C132 N135 1.368 . S
C132 H137 0.931 . S
C133 C132 1.351 . S
C133 N134 1.373 . S
C133 H161 0.930 . S
N134 C133 1.373 . S
N134 C136 1.340 . S
N135 C132 1.368 . S
N135 C136 1.321 . S
N135 Co138 2.135 . S
C136 N134 1.340 . S
C136 N135 1.321 . S
C136 H160 0.930 . S
H137 C132 0.931 . S
Co138 N135 2.135 . S
Co138 N141 2.121 . S
Co138 O146 2.055 . S
Co138 O149 2.039 . S
Co138 N152 2.140 . S
C139 O140 1.227 . S
C139 O149 1.265 . S
O140 C139 1.227 . S
N141 Co138 2.121 . S
N141 C143 1.375 . S
N141 C144 1.313 . S
C142 C143 1.338 . S
C142 N145 1.377 . S
C142 H162 0.930 . S
C143 N141 1.375 . S
C143 C142 1.338 . S
C143 H147 0.931 . S
C144 N141 1.313 . S
C144 N145 1.344 . S
C144 H148 0.930 . S
N145 C142 1.377 . S
N145 C144 1.344 . S
O146 Co138 2.055 . S
O146 C150 1.253 . S
H147 C143 0.931 . S
H148 C144 0.930 . S
O149 Co138 2.039 . S
O149 C139 1.265 . S
C150 O146 1.253 . S
C150 O151 1.227 . S
O151 C150 1.227 . S
N152 Co138 2.140 . S
N152 C155 1.346 . S
N152 C156 1.345 . S
C153 C154 1.387 . S
C153 C157 1.391 . S
C154 C153 1.387 . S
C154 C155 1.369 . S
C154 H163 0.929 . S
C155 N152 1.346 . S
C155 C154 1.369 . S
C155 H158 0.928 . S
C156 N152 1.345 . S
C156 C157 1.371 . S
C156 H159 0.931 . S
C157 C153 1.391 . S
C157 C156 1.371 . S
C157 H164 0.930 . S
H158 C155 0.928 . S
H159 C156 0.931 . S
H160 C136 0.930 . S
H161 C133 0.930 . S
H162 C142 0.930 . S
H163 C154 0.929 . S
H164 C157 0.930 . S
C165 C166 1.351 . S
C165 N168 1.368 . S
C165 H170 0.931 . S
C166 C165 1.351 . S
C166 N167 1.373 . S
C166 H194 0.930 . S
N167 C166 1.373 . S
N167 C169 1.340 . S
N168 C165 1.368 . S
N168 C169 1.321 . S
N168 Co171 2.135 . S
C169 N167 1.340 . S
C169 N168 1.321 . S
C169 H193 0.930 . S
H170 C165 0.931 . S
Co171 N168 2.135 . S
Co171 N174 2.121 . S
Co171 O179 2.055 . S
Co171 O182 2.039 . S
Co171 N185 2.140 . S
C172 O173 1.227 . S
C172 O182 1.265 . S
O173 C172 1.227 . S
N174 Co171 2.121 . S
N174 C176 1.375 . S
N174 C177 1.313 . S
C175 C176 1.338 . S
C175 N178 1.377 . S
C175 H195 0.930 . S
C176 N174 1.375 . S
C176 C175 1.338 . S
C176 H180 0.931 . S
C177 N174 1.313 . S
C177 N178 1.344 . S
C177 H181 0.930 . S
N178 C175 1.377 . S
N178 C177 1.344 . S
O179 Co171 2.055 . S
O179 C183 1.253 . S
H180 C176 0.931 . S
H181 C177 0.930 . S
O182 Co171 2.039 . S
O182 C172 1.265 . S
C183 O179 1.253 . S
C183 O184 1.227 . S
O184 C183 1.227 . S
N185 Co171 2.140 . S
N185 C188 1.346 . S
N185 C189 1.345 . S
C186 C187 1.387 . S
C186 C190 1.391 . S
C187 C186 1.387 . S
C187 C188 1.369 . S
C187 H196 0.929 . S
C188 N185 1.346 . S
C188 C187 1.369 . S
C188 H191 0.928 . S
C189 N185 1.345 . S
C189 C190 1.371 . S
C189 H192 0.931 . S
C190 C186 1.391 . S
C190 C189 1.371 . S
C190 H197 0.930 . S
H191 C188 0.928 . S
H192 C189 0.931 . S
H193 C169 0.930 . S
H194 C166 0.930 . S
H195 C175 0.930 . S
H196 C187 0.929 . S
H197 C190 0.930 . S
H198 C206 0.929 . S
H199 C208 0.930 . S
H200 C210 0.930 . S
H201 C213 0.929 . S
H202 C216 0.930 . S
H203 C218 0.960 . S
H204 C218 0.960 . S
H205 C218 0.960 . S
C206 H198 0.929 . S
C206 C207 1.377 . S
C206 C208 1.384 . S
C207 C206 1.377 . S
C207 C213 1.390 . S
C208 H199 0.930 . S
C208 C206 1.384 . S
C208 C209 1.372 . S
C209 C208 1.372 . S
C209 C210 1.400 . S
C209 C214 1.490 . S
C210 H200 0.930 . S
C210 C209 1.400 . S
C210 C213 1.386 . S
H211 C227 0.930 . S
H212 C228 0.931 . S
C213 H201 0.929 . S
C213 C207 1.390 . S
C213 C210 1.386 . S
C214 C209 1.490 . S
C214 C216 1.395 . S
C214 C217 1.403 . S
H215 C221 0.930 . S
C216 H202 0.930 . S
C216 C214 1.395 . S
C216 C219 1.403 . S
C217 C214 1.403 . S
C217 C218 1.524 . S
C217 C221 1.400 . S
C218 H203 0.960 . S
C218 H204 0.960 . S
C218 H205 0.960 . S
C218 C217 1.524 . S
C219 C216 1.403 . S
C219 C220 1.392 . S
C219 C223 1.495 . S
C220 C219 1.392 . S
C220 C221 1.385 . S
C220 C222 1.478 . S
C221 H215 0.930 . S
C221 C217 1.400 . S
C221 C220 1.385 . S
C222 C220 1.478 . S
C222 C224 1.381 . S
C222 C228 1.383 . S
C223 C219 1.495 . S
C223 H229 0.959 . S
C223 H230 0.961 . S
C223 H231 0.960 . S
C224 C222 1.381 . S
C224 C225 1.394 . S
C224 H232 0.930 . S
C225 C224 1.394 . S
C225 C226 1.383 . S
C225 H233 0.929 . S
C226 C225 1.383 . S
C226 C227 1.377 . S
C227 H211 0.930 . S
C227 C226 1.377 . S
C227 C228 1.379 . S
C228 H212 0.931 . S
C228 C222 1.383 . S
C228 C227 1.379 . S
H229 C223 0.959 . S
H230 C223 0.961 . S
H231 C223 0.960 . S
H232 C224 0.930 . S
H233 C225 0.929 . S
H234 C242 0.929 . S
H235 C244 0.930 . S
H236 C246 0.930 . S
H237 C249 0.929 . S
H238 C252 0.930 . S
H239 C254 0.960 . S
H240 C254 0.960 . S
H241 C254 0.960 . S
C242 H234 0.929 . S
C242 C243 1.377 . S
C242 C244 1.384 . S
C243 C242 1.377 . S
C243 C249 1.390 . S
C244 H235 0.930 . S
C244 C242 1.384 . S
C244 C245 1.372 . S
C245 C244 1.372 . S
C245 C246 1.400 . S
C245 C250 1.490 . S
C246 H236 0.930 . S
C246 C245 1.400 . S
C246 C249 1.386 . S
H247 C263 0.930 . S
H248 C264 0.931 . S
C249 H237 0.929 . S
C249 C243 1.390 . S
C249 C246 1.386 . S
C250 C245 1.490 . S
C250 C252 1.395 . S
C250 C253 1.403 . S
H251 C257 0.930 . S
C252 H238 0.930 . S
C252 C250 1.395 . S
C252 C255 1.403 . S
C253 C250 1.403 . S
C253 C254 1.524 . S
C253 C257 1.400 . S
C254 H239 0.960 . S
C254 H240 0.960 . S
C254 H241 0.960 . S
C254 C253 1.524 . S
C255 C252 1.403 . S
C255 C256 1.392 . S
C255 C259 1.495 . S
C256 C255 1.392 . S
C256 C257 1.385 . S
C256 C258 1.478 . S
C257 H251 0.930 . S
C257 C253 1.400 . S
C257 C256 1.385 . S
C258 C256 1.478 . S
C258 C260 1.381 . S
C258 C264 1.383 . S
C259 C255 1.495 . S
C259 H265 0.959 . S
C259 H266 0.961 . S
C259 H267 0.960 . S
C260 C258 1.381 . S
C260 C261 1.394 . S
C260 H268 0.930 . S
C261 C260 1.394 . S
C261 C262 1.383 . S
C261 H269 0.929 . S
C262 C261 1.383 . S
C262 C263 1.377 . S
C263 H247 0.930 . S
C263 C262 1.377 . S
C263 C264 1.379 . S
C264 H248 0.931 . S
C264 C258 1.383 . S
C264 C263 1.379 . S
H265 C259 0.959 . S
H266 C259 0.961 . S
H267 C259 0.960 . S
H268 C260 0.930 . S
H269 C261 0.929 . S
H270 C278 0.929 . S
H271 C280 0.930 . S
H272 C282 0.930 . S
H273 C285 0.929 . S
H274 C288 0.930 . S
H275 C290 0.960 . S
H276 C290 0.960 . S
H277 C290 0.960 . S
C278 H270 0.929 . S
C278 C279 1.377 . S
C278 C280 1.384 . S
C279 C278 1.377 . S
C279 C285 1.390 . S
C280 H271 0.930 . S
C280 C278 1.384 . S
C280 C281 1.372 . S
C281 C280 1.372 . S
C281 C282 1.400 . S
C281 C286 1.490 . S
C282 H272 0.930 . S
C282 C281 1.400 . S
C282 C285 1.386 . S
H283 C299 0.930 . S
H284 C300 0.931 . S
C285 H273 0.929 . S
C285 C279 1.390 . S
C285 C282 1.386 . S
C286 C281 1.490 . S
C286 C288 1.395 . S
C286 C289 1.403 . S
H287 C293 0.930 . S
C288 H274 0.930 . S
C288 C286 1.395 . S
C288 C291 1.403 . S
C289 C286 1.403 . S
C289 C290 1.524 . S
C289 C293 1.400 . S
C290 H275 0.960 . S
C290 H276 0.960 . S
C290 H277 0.960 . S
C290 C289 1.524 . S
C291 C288 1.403 . S
C291 C292 1.392 . S
C291 C295 1.495 . S
C292 C291 1.392 . S
C292 C293 1.385 . S
C292 C294 1.478 . S
C293 H287 0.930 . S
C293 C289 1.400 . S
C293 C292 1.385 . S
C294 C292 1.478 . S
C294 C296 1.381 . S
C294 C300 1.383 . S
C295 C291 1.495 . S
C295 H301 0.959 . S
C295 H302 0.961 . S
C295 H303 0.960 . S
C296 C294 1.381 . S
C296 C297 1.394 . S
C296 H304 0.930 . S
C297 C296 1.394 . S
C297 C298 1.383 . S
C297 H305 0.929 . S
C298 C297 1.383 . S
C298 C299 1.377 . S
C299 H283 0.930 . S
C299 C298 1.377 . S
C299 C300 1.379 . S
C300 H284 0.931 . S
C300 C294 1.383 . S
C300 C299 1.379 . S
H301 C295 0.959 . S
H302 C295 0.961 . S
H303 C295 0.960 . S
H304 C296 0.930 . S
H305 C297 0.929 . S
H306 C314 0.929 . S
H307 C316 0.930 . S
H308 C318 0.930 . S
H309 C321 0.929 . S
H310 C324 0.930 . S
H311 C326 0.960 . S
H312 C326 0.960 . S
H313 C326 0.960 . S
C314 H306 0.929 . S
C314 C315 1.377 . S
C314 C316 1.384 . S
C315 C314 1.377 . S
C315 C321 1.390 . S
C316 H307 0.930 . S
C316 C314 1.384 . S
C316 C317 1.372 . S
C317 C316 1.372 . S
C317 C318 1.400 . S
C317 C322 1.490 . S
C318 H308 0.930 . S
C318 C317 1.400 . S
C318 C321 1.386 . S
H319 C335 0.930 . S
H320 C336 0.931 . S
C321 H309 0.929 . S
C321 C315 1.390 . S
C321 C318 1.386 . S
C322 C317 1.490 . S
C322 C324 1.395 . S
C322 C325 1.403 . S
H323 C329 0.930 . S
C324 H310 0.930 . S
C324 C322 1.395 . S
C324 C327 1.403 . S
C325 C322 1.403 . S
C325 C326 1.524 . S
C325 C329 1.400 . S
C326 H311 0.960 . S
C326 H312 0.960 . S
C326 H313 0.960 . S
C326 C325 1.524 . S
C327 C324 1.403 . S
C327 C328 1.392 . S
C327 C331 1.495 . S
C328 C327 1.392 . S
C328 C329 1.385 . S
C328 C330 1.478 . S
C329 H323 0.930 . S
C329 C325 1.400 . S
C329 C328 1.385 . S
C330 C328 1.478 . S
C330 C332 1.381 . S
C330 C336 1.383 . S
C331 C327 1.495 . S
C331 H337 0.959 . S
C331 H338 0.961 . S
C331 H339 0.960 . S
C332 C330 1.381 . S
C332 C333 1.394 . S
C332 H340 0.930 . S
C333 C332 1.394 . S
C333 C334 1.383 . S
C333 H341 0.929 . S
C334 C333 1.383 . S
C334 C335 1.377 . S
C335 H319 0.930 . S
C335 C334 1.377 . S
C335 C336 1.379 . S
C336 H320 0.931 . S
C336 C330 1.383 . S
C336 C335 1.379 . S
H337 C331 0.959 . S
H338 C331 0.961 . S
H339 C331 0.960 . S
H340 C332 0.930 . S
H341 C333 0.929 . S
H342 C350 0.929 . S
H343 C352 0.930 . S
H344 C354 0.930 . S
H345 C357 0.929 . S
H346 C360 0.930 . S
H347 C362 0.960 . S
H348 C362 0.960 . S
H349 C362 0.960 . S
C350 H342 0.929 . S
C350 C351 1.377 . S
C350 C352 1.384 . S
C351 C350 1.377 . S
C351 C357 1.390 . S
C352 H343 0.930 . S
C352 C350 1.384 . S
C352 C353 1.372 . S
C353 C352 1.372 . S
C353 C354 1.400 . S
C353 C358 1.490 . S
C354 H344 0.930 . S
C354 C353 1.400 . S
C354 C357 1.386 . S
H355 C371 0.930 . S
H356 C372 0.931 . S
C357 H345 0.929 . S
C357 C351 1.390 . S
C357 C354 1.386 . S
C358 C353 1.490 . S
C358 C360 1.395 . S
C358 C361 1.403 . S
H359 C365 0.930 . S
C360 H346 0.930 . S
C360 C358 1.395 . S
C360 C363 1.403 . S
C361 C358 1.403 . S
C361 C362 1.524 . S
C361 C365 1.400 . S
C362 H347 0.960 . S
C362 H348 0.960 . S
C362 H349 0.960 . S
C362 C361 1.524 . S
C363 C360 1.403 . S
C363 C364 1.392 . S
C363 C367 1.495 . S
C364 C363 1.392 . S
C364 C365 1.385 . S
C364 C366 1.478 . S
C365 H359 0.930 . S
C365 C361 1.400 . S
C365 C364 1.385 . S
C366 C364 1.478 . S
C366 C368 1.381 . S
C366 C372 1.383 . S
C367 C363 1.495 . S
C367 H373 0.959 . S
C367 H374 0.961 . S
C367 H375 0.960 . S
C368 C366 1.381 . S
C368 C369 1.394 . S
C368 H376 0.930 . S
C369 C368 1.394 . S
C369 C370 1.383 . S
C369 H377 0.929 . S
C370 C369 1.383 . S
C370 C371 1.377 . S
C371 H355 0.930 . S
C371 C370 1.377 . S
C371 C372 1.379 . S
C372 H356 0.931 . S
C372 C366 1.383 . S
C372 C371 1.379 . S
H373 C367 0.959 . S
H374 C367 0.961 . S
H375 C367 0.960 . S
H376 C368 0.930 . S
H377 C369 0.929 . S
H378 C386 0.929 . S
H379 C388 0.930 . S
H380 C390 0.930 . S
H381 C393 0.929 . S
H382 C396 0.930 . S
H383 C398 0.960 . S
H384 C398 0.960 . S
H385 C398 0.960 . S
C386 H378 0.929 . S
C386 C387 1.377 . S
C386 C388 1.384 . S
C387 C386 1.377 . S
C387 C393 1.390 . S
C388 H379 0.930 . S
C388 C386 1.384 . S
C388 C389 1.372 . S
C389 C388 1.372 . S
C389 C390 1.400 . S
C389 C394 1.490 . S
C390 H380 0.930 . S
C390 C389 1.400 . S
C390 C393 1.386 . S
H391 C407 0.930 . S
H392 C408 0.931 . S
C393 H381 0.929 . S
C393 C387 1.390 . S
C393 C390 1.386 . S
C394 C389 1.490 . S
C394 C396 1.395 . S
C394 C397 1.403 . S
H395 C401 0.930 . S
C396 H382 0.930 . S
C396 C394 1.395 . S
C396 C399 1.403 . S
C397 C394 1.403 . S
C397 C398 1.524 . S
C397 C401 1.400 . S
C398 H383 0.960 . S
C398 H384 0.960 . S
C398 H385 0.960 . S
C398 C397 1.524 . S
C399 C396 1.403 . S
C399 C400 1.392 . S
C399 C403 1.495 . S
C400 C399 1.392 . S
C400 C401 1.385 . S
C400 C402 1.478 . S
C401 H395 0.930 . S
C401 C397 1.400 . S
C401 C400 1.385 . S
C402 C400 1.478 . S
C402 C404 1.381 . S
C402 C408 1.383 . S
C403 C399 1.495 . S
C403 H409 0.959 . S
C403 H410 0.961 . S
C403 H411 0.960 . S
C404 C402 1.381 . S
C404 C405 1.394 . S
C404 H412 0.930 . S
C405 C404 1.394 . S
C405 C406 1.383 . S
C405 H413 0.929 . S
C406 C405 1.383 . S
C406 C407 1.377 . S
C407 H391 0.930 . S
C407 C406 1.377 . S
C407 C408 1.379 . S
C408 H392 0.931 . S
C408 C402 1.383 . S
C408 C407 1.379 . S
H409 C403 0.959 . S
H410 C403 0.961 . S
H411 C403 0.960 . S
H412 C404 0.930 . S
H413 C405 0.929 . S
H414 C422 0.929 . S
H415 C424 0.930 . S
H416 C426 0.930 . S
H417 C429 0.929 . S
H418 C432 0.930 . S
H419 C434 0.960 . S
H420 C434 0.960 1_655 S
H421 C434 0.960 1_655 S
C422 H414 0.929 . S
C422 C423 1.377 . S
C422 C424 1.384 . S
C423 C422 1.377 . S
C423 C429 1.390 . S
C424 H415 0.930 . S
C424 C422 1.384 . S
C424 C425 1.372 . S
C425 C424 1.372 . S
C425 C426 1.400 . S
C425 C430 1.490 . S
C426 H416 0.930 . S
C426 C425 1.400 . S
C426 C429 1.386 . S
H427 C443 0.930 . S
H428 C444 0.931 . S
C429 H417 0.929 . S
C429 C423 1.390 . S
C429 C426 1.386 . S
C430 C425 1.490 . S
C430 C432 1.395 . S
C430 C433 1.403 1_655 S
H431 C437 0.930 . S
C432 H418 0.930 . S
C432 C430 1.395 . S
C432 C435 1.403 1_655 S
C433 C430 1.403 1_455 S
C433 C434 1.524 . S
C433 C437 1.400 . S
C434 H419 0.960 . S
C434 H420 0.960 1_455 S
C434 H421 0.960 1_455 S
C434 C433 1.524 . S
C435 C432 1.403 1_455 S
C435 C436 1.392 . S
C435 C439 1.495 . S
C436 C435 1.392 . S
C436 C437 1.385 . S
C436 C438 1.478 . S
C437 H431 0.930 . S
C437 C433 1.400 . S
C437 C436 1.385 . S
C438 C436 1.478 . S
C438 C440 1.381 . S
C438 C444 1.383 . S
C439 C435 1.495 . S
C439 H445 0.959 1_455 S
C439 H446 0.961 . S
C439 H447 0.960 . S
C440 C438 1.381 . S
C440 C441 1.394 . S
C440 H448 0.930 . S
C441 C440 1.394 . S
C441 C442 1.383 . S
C441 H449 0.929 . S
C442 C441 1.383 . S
C442 C443 1.377 . S
C443 H427 0.930 . S
C443 C442 1.377 . S
C443 C444 1.379 . S
C444 H428 0.931 . S
C444 C438 1.383 . S
C444 C443 1.379 . S
H445 C439 0.959 1_655 S
H446 C439 0.961 . S
H447 C439 0.960 . S
H448 C440 0.930 . S
H449 C441 0.929 . S
H450 C458 0.929 . S
H451 C460 0.930 . S
H452 C462 0.930 . S
H453 C465 0.929 . S
H454 C468 0.930 . S
H455 C470 0.960 . S
H456 C470 0.960 . S
H457 C470 0.960 . S
C458 H450 0.929 . S
C458 C459 1.377 . S
C458 C460 1.384 . S
C459 C458 1.377 . S
C459 C465 1.390 . S
C460 H451 0.930 . S
C460 C458 1.384 . S
C460 C461 1.372 . S
C461 C460 1.372 . S
C461 C462 1.400 . S
C461 C466 1.490 . S
C462 H452 0.930 . S
C462 C461 1.400 . S
C462 C465 1.386 . S
H463 C479 0.930 . S
H464 C480 0.931 . S
C465 H453 0.929 . S
C465 C459 1.390 . S
C465 C462 1.386 . S
C466 C461 1.490 . S
C466 C468 1.395 . S
C466 C469 1.403 . S
H467 C473 0.930 . S
C468 H454 0.930 . S
C468 C466 1.395 . S
C468 C471 1.403 . S
C469 C466 1.403 . S
C469 C470 1.524 . S
C469 C473 1.400 . S
C470 H455 0.960 . S
C470 H456 0.960 . S
C470 H457 0.960 . S
C470 C469 1.524 . S
C471 C468 1.403 . S
C471 C472 1.392 . S
C471 C475 1.495 . S
C472 C471 1.392 . S
C472 C473 1.385 . S
C472 C474 1.478 . S
C473 H467 0.930 . S
C473 C469 1.400 . S
C473 C472 1.385 . S
C474 C472 1.478 . S
C474 C476 1.381 . S
C474 C480 1.383 . S
C475 C471 1.495 . S
C475 H481 0.959 . S
C475 H482 0.961 . S
C475 H483 0.960 . S
C476 C474 1.381 . S
C476 C477 1.394 . S
C476 H484 0.930 . S
C477 C476 1.394 . S
C477 C478 1.383 . S
C477 H485 0.929 . S
C478 C477 1.383 . S
C478 C479 1.377 . S
C479 H463 0.930 . S
C479 C478 1.377 . S
C479 C480 1.379 . S
C480 H464 0.931 . S
C480 C474 1.383 . S
C480 C479 1.379 . S
H481 C475 0.959 . S
H482 C475 0.961 . S
H483 C475 0.960 . S
H484 C476 0.930 . S
H485 C477 0.929 . S
H486 C494 0.929 . S
H487 C496 0.930 . S
H488 C498 0.930 . S
H489 C501 0.929 . S
H490 C504 0.930 . S
H491 C506 0.960 . S
H492 C506 0.960 . S
H493 C506 0.960 . S
C494 H486 0.929 . S
C494 C495 1.377 . S
C494 C496 1.384 . S
C495 C494 1.377 . S
C495 C501 1.390 . S
C496 H487 0.930 . S
C496 C494 1.384 . S
C496 C497 1.372 . S
C497 C496 1.372 . S
C497 C498 1.400 . S
C497 C502 1.490 . S
C498 H488 0.930 . S
C498 C497 1.400 . S
C498 C501 1.386 . S
H499 C515 0.930 . S
H500 C516 0.931 . S
C501 H489 0.929 . S
C501 C495 1.390 . S
C501 C498 1.386 . S
C502 C497 1.490 . S
C502 C504 1.395 . S
C502 C505 1.403 . S
H503 C509 0.930 . S
C504 H490 0.930 . S
C504 C502 1.395 . S
C504 C507 1.403 1_565 S
C505 C502 1.403 . S
C505 C506 1.524 . S
C505 C509 1.400 1_565 S
C506 H491 0.960 . S
C506 H492 0.960 . S
C506 H493 0.960 . S
C506 C505 1.524 . S
C507 C504 1.403 1_545 S
C507 C508 1.392 . S
C507 C511 1.495 . S
C508 C507 1.392 . S
C508 C509 1.385 . S
C508 C510 1.478 . S
C509 H503 0.930 . S
C509 C505 1.400 1_545 S
C509 C508 1.385 . S
C510 C508 1.478 . S
C510 C512 1.381 . S
C510 C516 1.383 . S
C511 C507 1.495 . S
C511 H517 0.959 1_545 S
C511 H518 0.961 . S
C511 H519 0.960 . S
C512 C510 1.381 . S
C512 C513 1.394 . S
C512 H520 0.930 . S
C513 C512 1.394 . S
C513 C514 1.383 . S
C513 H521 0.929 . S
C514 C513 1.383 . S
C514 C515 1.377 . S
C515 H499 0.930 . S
C515 C514 1.377 . S
C515 C516 1.379 . S
C516 H500 0.931 . S
C516 C510 1.383 . S
C516 C515 1.379 . S
H517 C511 0.959 1_565 S
H518 C511 0.961 . S
H519 C511 0.960 . S
H520 C512 0.930 . S
H521 C513 0.929 . S
H522 C530 0.929 . S
H523 C532 0.930 . S
H524 C534 0.930 . S
H525 C537 0.929 . S
H526 C540 0.930 . S
H527 C542 0.960 . S
H528 C542 0.960 1_655 S
H529 C542 0.960 . S
C530 H522 0.929 . S
C530 C531 1.377 1_655 S
C530 C532 1.384 . S
C531 C530 1.377 1_455 S
C531 C537 1.390 . S
C532 H523 0.930 . S
C532 C530 1.384 . S
C532 C533 1.372 1_655 S
C533 C532 1.372 1_455 S
C533 C534 1.400 . S
C533 C538 1.490 . S
C534 H524 0.930 . S
C534 C533 1.400 . S
C534 C537 1.386 . S
H535 C551 0.930 . S
H536 C552 0.931 . S
C537 H525 0.929 . S
C537 C531 1.390 . S
C537 C534 1.386 . S
C538 C533 1.490 . S
C538 C540 1.395 . S
C538 C541 1.403 1_545 S
H539 C545 0.930 . S
C540 H526 0.930 . S
C540 C538 1.395 . S
C540 C543 1.403 . S
C541 C538 1.403 1_565 S
C541 C542 1.524 . S
C541 C545 1.400 . S
C542 H527 0.960 . S
C542 H528 0.960 1_455 S
C542 H529 0.960 . S
C542 C541 1.524 . S
C543 C540 1.403 . S
C543 C544 1.392 . S
C543 C547 1.495 . S
C544 C543 1.392 . S
C544 C545 1.385 1_545 S
C544 C546 1.478 . S
C545 H539 0.930 . S
C545 C541 1.400 . S
C545 C544 1.385 1_565 S
C546 C544 1.478 . S
C546 C548 1.381 1_455 S
C546 C552 1.383 . S
C547 C543 1.495 . S
C547 H553 0.959 . S
C547 H554 0.961 . S
C547 H555 0.960 1_455 S
C548 C546 1.381 1_655 S
C548 C549 1.394 . S
C548 H556 0.930 . S
C549 C548 1.394 . S
C549 C550 1.383 1_655 S
C549 H557 0.929 . S
C550 C549 1.383 1_455 S
C550 C551 1.377 . S
C551 H535 0.930 . S
C551 C550 1.377 . S
C551 C552 1.379 . S
C552 H536 0.931 . S
C552 C546 1.383 . S
C552 C551 1.379 . S
H553 C547 0.959 . S
H554 C547 0.961 . S
H555 C547 0.960 1_655 S
H556 C548 0.930 . S
H557 C549 0.929 . S
H558 C566 0.929 . S
H559 C568 0.930 . S
H560 C570 0.930 . S
H561 C573 0.929 . S
H562 C576 0.930 . S
H563 C578 0.960 . S
H564 C578 0.960 . S
H565 C578 0.960 . S
C566 H558 0.929 . S
C566 C567 1.377 . S
C566 C568 1.384 . S
C567 C566 1.377 . S
C567 C573 1.390 . S
C568 H559 0.930 . S
C568 C566 1.384 . S
C568 C569 1.372 . S
C569 C568 1.372 . S
C569 C570 1.400 . S
C569 C574 1.490 . S
C570 H560 0.930 . S
C570 C569 1.400 . S
C570 C573 1.386 . S
H571 C587 0.930 . S
H572 C588 0.931 . S
C573 H561 0.929 . S
C573 C567 1.390 . S
C573 C570 1.386 . S
C574 C569 1.490 . S
C574 C576 1.395 . S
C574 C577 1.403 . S
H575 C581 0.930 . S
C576 H562 0.930 . S
C576 C574 1.395 . S
C576 C579 1.403 . S
C577 C574 1.403 . S
C577 C578 1.524 . S
C577 C581 1.400 . S
C578 H563 0.960 . S
C578 H564 0.960 . S
C578 H565 0.960 . S
C578 C577 1.524 . S
C579 C576 1.403 . S
C579 C580 1.392 . S
C579 C583 1.495 . S
C580 C579 1.392 . S
C580 C581 1.385 . S
C580 C582 1.478 . S
C581 H575 0.930 . S
C581 C577 1.400 . S
C581 C580 1.385 . S
C582 C580 1.478 . S
C582 C584 1.381 . S
C582 C588 1.383 . S
C583 C579 1.495 . S
C583 H589 0.959 . S
C583 H590 0.961 . S
C583 H591 0.960 . S
C584 C582 1.381 . S
C584 C585 1.394 . S
C584 H592 0.930 . S
C585 C584 1.394 . S
C585 C586 1.383 . S
C585 H593 0.929 . S
C586 C585 1.383 . S
C586 C587 1.377 . S
C587 H571 0.930 . S
C587 C586 1.377 . S
C587 C588 1.379 . S
C588 H572 0.931 . S
C588 C582 1.383 . S
C588 C587 1.379 . S
H589 C583 0.959 . S
H590 C583 0.961 . S
H591 C583 0.960 . S
H592 C584 0.930 . S
H593 C585 0.929 . S
H594 C602 0.929 . S
H595 C604 0.930 . S
H596 C606 0.930 . S
H597 C609 0.929 . S
H598 C612 0.930 . S
H599 C614 0.960 . S
H600 C614 0.960 . S
H601 C614 0.960 . S
C602 H594 0.929 . S
C602 C603 1.377 . S
C602 C604 1.384 . S
C603 C602 1.377 . S
C603 C609 1.390 . S
C604 H595 0.930 . S
C604 C602 1.384 . S
C604 C605 1.372 . S
C605 C604 1.372 . S
C605 C606 1.400 . S
C605 C610 1.490 . S
C606 H596 0.930 . S
C606 C605 1.400 . S
C606 C609 1.386 . S
H607 C623 0.930 . S
H608 C624 0.931 . S
C609 H597 0.929 . S
C609 C603 1.390 . S
C609 C606 1.386 . S
C610 C605 1.490 . S
C610 C612 1.395 . S
C610 C613 1.403 . S
H611 C617 0.930 . S
C612 H598 0.930 . S
C612 C610 1.395 . S
C612 C615 1.403 . S
C613 C610 1.403 . S
C613 C614 1.524 . S
C613 C617 1.400 . S
C614 H599 0.960 . S
C614 H600 0.960 . S
C614 H601 0.960 . S
C614 C613 1.524 . S
C615 C612 1.403 . S
C615 C616 1.392 . S
C615 C619 1.495 . S
C616 C615 1.392 . S
C616 C617 1.385 . S
C616 C618 1.478 . S
C617 H611 0.930 . S
C617 C613 1.400 . S
C617 C616 1.385 . S
C618 C616 1.478 . S
C618 C620 1.381 . S
C618 C624 1.383 . S
C619 C615 1.495 . S
C619 H625 0.959 . S
C619 H626 0.961 . S
C619 H627 0.960 . S
C620 C618 1.381 . S
C620 C621 1.394 . S
C620 H628 0.930 . S
C621 C620 1.394 . S
C621 C622 1.383 . S
C621 H629 0.929 . S
C622 C621 1.383 . S
C622 C623 1.377 . S
C623 H607 0.930 . S
C623 C622 1.377 . S
C623 C624 1.379 . S
C624 H608 0.931 . S
C624 C618 1.383 . S
C624 C623 1.379 . S
H625 C619 0.959 . S
H626 C619 0.961 . S
H627 C619 0.960 . S
H628 C620 0.930 . S
H629 C621 0.929 . S
H630 C638 0.929 1_655 S
H631 C640 0.930 . S
H632 C642 0.930 . S
H633 C645 0.929 . S
H634 C648 0.930 . S
H635 C650 0.969 1_655 S
H636 C650 0.960 1_655 S
H637 C650 0.960 . S
C638 H630 0.929 1_455 S
C638 C639 1.377 . S
C638 C640 1.384 1_455 S
C639 C638 1.377 . S
C639 C645 1.390 . S
C640 H631 0.930 . S
C640 C638 1.384 1_655 S
C640 C641 1.372 1_655 S
C641 C640 1.372 1_455 S
C641 C642 1.400 . S
C641 C646 1.490 . S
C642 H632 0.930 . S
C642 C641 1.400 . S
C642 C645 1.386 . S
H643 C659 0.930 . S
H644 C660 0.931 . S
C645 H633 0.929 . S
C645 C639 1.390 . S
C645 C642 1.386 . S
C646 C641 1.490 . S
C646 C648 1.395 . S
C646 C649 1.403 1_545 S
H647 C653 0.935 1_655 S
C648 H634 0.930 . S
C648 C646 1.395 . S
C648 C651 1.403 1_554 S
C649 C646 1.403 1_565 S
C649 C650 1.524 . S
C649 C653 1.400 1_554 S
C650 H635 0.969 1_455 S
C650 H636 0.960 1_455 S
C650 H637 0.960 . S
C650 C649 1.524 . S
C651 C648 1.403 1_556 S
C651 C652 1.392 . S
C651 C655 1.495 . S
C652 C651 1.392 . S
C652 C653 1.385 1_545 S
C652 C654 1.478 . S
C653 H647 0.935 1_455 S
C653 C649 1.400 1_556 S
C653 C652 1.385 1_565 S
C654 C652 1.478 . S
C654 C656 1.381 1_455 S
C654 C660 1.383 . S
C655 C651 1.495 . S
C655 H661 0.959 . S
C655 H662 0.961 . S
C655 H663 0.960 1_455 S
C656 C654 1.381 1_655 S
C656 C657 1.394 . S
C656 H664 0.930 . S
C657 C656 1.394 . S
C657 C658 1.383 . S
C657 H665 0.929 . S
C658 C657 1.383 . S
C658 C659 1.377 1_655 S
C659 H643 0.930 . S
C659 C658 1.377 1_455 S
C659 C660 1.379 . S
C660 H644 0.931 . S
C660 C654 1.383 . S
C660 C659 1.379 . S
H661 C655 0.959 . S
H662 C655 0.961 . S
H663 C655 0.960 1_655 S
H664 C656 0.930 . S
H665 C657 0.929 . S
H666 C674 0.929 . S
H667 C676 0.930 . S
H668 C678 0.930 . S
H669 C681 0.929 . S
H670 C684 0.930 . S
H671 C686 0.960 . S
H672 C686 0.960 . S
H673 C686 0.960 . S
C674 H666 0.929 . S
C674 C675 1.377 . S
C674 C676 1.384 . S
C675 C674 1.377 . S
C675 C681 1.390 . S
C676 H667 0.930 . S
C676 C674 1.384 . S
C676 C677 1.372 . S
C677 C676 1.372 . S
C677 C678 1.400 . S
C677 C682 1.490 . S
C678 H668 0.930 . S
C678 C677 1.400 . S
C678 C681 1.386 . S
H679 C695 0.930 . S
H680 C696 0.931 . S
C681 H669 0.929 . S
C681 C675 1.390 . S
C681 C678 1.386 . S
C682 C677 1.490 . S
C682 C684 1.395 . S
C682 C685 1.403 . S
H683 C689 0.930 . S
C684 H670 0.930 . S
C684 C682 1.395 . S
C684 C687 1.403 . S
C685 C682 1.403 . S
C685 C686 1.524 . S
C685 C689 1.400 . S
C686 H671 0.960 . S
C686 H672 0.960 . S
C686 H673 0.960 . S
C686 C685 1.524 . S
C687 C684 1.403 . S
C687 C688 1.392 . S
C687 C691 1.495 . S
C688 C687 1.392 . S
C688 C689 1.385 . S
C688 C690 1.478 . S
C689 H683 0.930 . S
C689 C685 1.400 . S
C689 C688 1.385 . S
C690 C688 1.478 . S
C690 C692 1.381 . S
C690 C696 1.383 . S
C691 C687 1.495 . S
C691 H697 0.959 . S
C691 H698 0.961 . S
C691 H699 0.960 . S
C692 C690 1.381 . S
C692 C693 1.394 . S
C692 H700 0.930 . S
C693 C692 1.394 . S
C693 C694 1.383 . S
C693 H701 0.929 . S
C694 C693 1.383 . S
C694 C695 1.377 . S
C695 H679 0.930 . S
C695 C694 1.377 . S
C695 C696 1.379 . S
C696 H680 0.931 . S
C696 C690 1.383 . S
C696 C695 1.379 . S
H697 C691 0.959 . S
H698 C691 0.961 . S
H699 C691 0.960 . S
H700 C692 0.930 . S
H701 C693 0.929 . S
H702 C710 0.929 . S
H703 C712 0.930 . S
H704 C714 0.930 . S
H705 C717 0.929 . S
H706 C720 0.930 . S
H707 C722 0.960 . S
H708 C722 0.960 . S
H709 C722 0.960 . S
C710 H702 0.929 . S
C710 C711 1.377 . S
C710 C712 1.384 . S
C711 C710 1.377 . S
C711 C717 1.390 . S
C712 H703 0.930 . S
C712 C710 1.384 . S
C712 C713 1.372 . S
C713 C712 1.372 . S
C713 C714 1.400 . S
C713 C718 1.490 . S
C714 H704 0.930 . S
C714 C713 1.400 . S
C714 C717 1.386 . S
H715 C731 0.930 . S
H716 C732 0.931 . S
C717 H705 0.929 . S
C717 C711 1.390 . S
C717 C714 1.386 . S
C718 C713 1.490 . S
C718 C720 1.395 . S
C718 C721 1.403 . S
H719 C725 0.930 . S
C720 H706 0.930 . S
C720 C718 1.395 . S
C720 C723 1.403 . S
C721 C718 1.403 . S
C721 C722 1.524 . S
C721 C725 1.400 . S
C722 H707 0.960 . S
C722 H708 0.960 . S
C722 H709 0.960 . S
C722 C721 1.524 . S
C723 C720 1.403 . S
C723 C724 1.392 . S
C723 C727 1.495 . S
C724 C723 1.392 . S
C724 C725 1.385 . S
C724 C726 1.478 . S
C725 H719 0.930 . S
C725 C721 1.400 . S
C725 C724 1.385 . S
C726 C724 1.478 . S
C726 C728 1.381 . S
C726 C732 1.383 . S
C727 C723 1.495 . S
C727 H733 0.959 . S
C727 H734 0.961 . S
C727 H735 0.960 . S
C728 C726 1.381 . S
C728 C729 1.394 . S
C728 H736 0.930 . S
C729 C728 1.394 . S
C729 C730 1.383 . S
C729 H737 0.929 . S
C730 C729 1.383 . S
C730 C731 1.377 . S
C731 H715 0.930 . S
C731 C730 1.377 . S
C731 C732 1.379 . S
C732 H716 0.931 . S
C732 C726 1.383 . S
C732 C731 1.379 . S
H733 C727 0.959 . S
H734 C727 0.961 . S
H735 C727 0.960 . S
H736 C728 0.930 . S
H737 C729 0.929 . S
C207 C18 2.084 . S
C226 C117 2.070 . S
C243 C7 1.519 . S
C262 C120 1.503 . S
C279 C106 1.523 . S
C298 C21 1.523 . S
C315 C40 1.523 . S
C334 C153 1.519 . S
C351 C150 2.083 . S
C370 C51 2.087 . S
C387 C54 1.513 . S
C406 C139 1.526 . S
C423 C84 2.084 . S
C442 C183 2.090 . S
C459 C73 1.523 . S
C478 C186 1.514 . S
C495 C172 1.520 . S
C514 C87 1.513 . S
C531 N35 2.354 1_455 S
C550 N2 2.356 . S
C567 N101 2.357 1_556 S
C586 N68 2.361 . S
C603 N167 2.354 . S
C622 N134 2.356 1_554 S
C639 N13 1.010 . S
C658 N46 1.007 1_655 S
C675 N112 1.016 . S
C694 N79 1.008 . S
C711 N178 1.010 . S
C730 N145 1.005 . S
