# Generated by pormake.
# Topology uka, (4)-cn, num edge types: 1
# Building blocks:
#     Node 0, Type 0, BuildingBlock: GALJAG_clean_sbu_0, # of connection points: 4
#     Node 1, Type 0, BuildingBlock: GALJAG_clean_sbu_0, # of connection points: 4
#     Node 2, Type 0, BuildingBlock: GALJAG_clean_sbu_0, # of connection points: 4
#     Node 3, Type 0, BuildingBlock: GALJAG_clean_sbu_0, # of connection points: 4
#     Node 4, Type 0, BuildingBlock: GALJAG_clean_sbu_0, # of connection points: 4
#     Node 5, Type 0, BuildingBlock: GALJAG_clean_sbu_0, # of connection points: 4
#     Node 6, Type 0, BuildingBlock: GALJAG_clean_sbu_0, # of connection points: 4
#     Node 7, Type 0, BuildingBlock: GALJAG_clean_sbu_0, # of connection points: 4
#     Node 8, Type 0, BuildingBlock: GALJAG_clean_sbu_0, # of connection points: 4
#     Node 9, Type 0, BuildingBlock: GALJAG_clean_sbu_0, # of connection points: 4
#     Node 10, Type 0, BuildingBlock: GALJAG_clean_sbu_0, # of connection points: 4
#     Node 11, Type 0, BuildingBlock: GALJAG_clean_sbu_0, # of connection points: 4
#     Node 12, Type 0, BuildingBlock: GALJAG_clean_sbu_0, # of connection points: 4
#     Node 13, Type 0, BuildingBlock: GALJAG_clean_sbu_0, # of connection points: 4
#     Node 14, Type 0, BuildingBlock: GALJAG_clean_sbu_0, # of connection points: 4
#     Node 15, Type 0, BuildingBlock: GALJAG_clean_sbu_0, # of connection points: 4
#     Node 16, Type 0, BuildingBlock: GALJAG_clean_sbu_0, # of connection points: 4
#     Node 17, Type 0, BuildingBlock: GALJAG_clean_sbu_0, # of connection points: 4
#     Node 18, Type 0, BuildingBlock: GALJAG_clean_sbu_0, # of connection points: 4
#     Node 19, Type 0, BuildingBlock: GALJAG_clean_sbu_0, # of connection points: 4
#     Node 20, Type 0, BuildingBlock: GALJAG_clean_sbu_0, # of connection points: 4
#     Node 21, Type 0, BuildingBlock: GALJAG_clean_sbu_0, # of connection points: 4
#     Node 22, Type 0, BuildingBlock: GALJAG_clean_sbu_0, # of connection points: 4
#     Node 23, Type 0, BuildingBlock: GALJAG_clean_sbu_0, # of connection points: 4
#     Node 24, Type 0, BuildingBlock: GALJAG_clean_sbu_0, # of connection points: 4
#     Node 25, Type 0, BuildingBlock: GALJAG_clean_sbu_0, # of connection points: 4
#     Node 26, Type 0, BuildingBlock: GALJAG_clean_sbu_0, # of connection points: 4
#     Node 27, Type 0, BuildingBlock: GALJAG_clean_sbu_0, # of connection points: 4
#     Node 28, Type 0, BuildingBlock: GALJAG_clean_sbu_0, # of connection points: 4
#     Node 29, Type 0, BuildingBlock: GALJAG_clean_sbu_0, # of connection points: 4
#     Node 30, Type 0, BuildingBlock: GALJAG_clean_sbu_0, # of connection points: 4
#     Node 31, Type 0, BuildingBlock: GALJAG_clean_sbu_0, # of connection points: 4
#     Edge 32, Type (0, 0), BuildingBlock: TEMPAE_clean_linker_10, # of connection points: 2
#     Edge 33, Type (0, 0), BuildingBlock: TEMPAE_clean_linker_10, # of connection points: 2
#     Edge 34, Type (0, 0), BuildingBlock: TEMPAE_clean_linker_10, # of connection points: 2
#     Edge 35, Type (0, 0), BuildingBlock: TEMPAE_clean_linker_10, # of connection points: 2
#     Edge 36, Type (0, 0), BuildingBlock: TEMPAE_clean_linker_10, # of connection points: 2
#     Edge 37, Type (0, 0), BuildingBlock: TEMPAE_clean_linker_10, # of connection points: 2
#     Edge 38, Type (0, 0), BuildingBlock: TEMPAE_clean_linker_10, # of connection points: 2
#     Edge 39, Type (0, 0), BuildingBlock: TEMPAE_clean_linker_10, # of connection points: 2
#     Edge 40, Type (0, 0), BuildingBlock: TEMPAE_clean_linker_10, # of connection points: 2
#     Edge 41, Type (0, 0), BuildingBlock: TEMPAE_clean_linker_10, # of connection points: 2
#     Edge 42, Type (0, 0), BuildingBlock: TEMPAE_clean_linker_10, # of connection points: 2
#     Edge 43, Type (0, 0), BuildingBlock: TEMPAE_clean_linker_10, # of connection points: 2
#     Edge 44, Type (0, 0), BuildingBlock: TEMPAE_clean_linker_10, # of connection points: 2
#     Edge 45, Type (0, 0), BuildingBlock: TEMPAE_clean_linker_10, # of connection points: 2
#     Edge 46, Type (0, 0), BuildingBlock: TEMPAE_clean_linker_10, # of connection points: 2
#     Edge 47, Type (0, 0), BuildingBlock: TEMPAE_clean_linker_10, # of connection points: 2
#     Edge 48, Type (0, 0), BuildingBlock: TEMPAE_clean_linker_10, # of connection points: 2
#     Edge 49, Type (0, 0), BuildingBlock: TEMPAE_clean_linker_10, # of connection points: 2
#     Edge 50, Type (0, 0), BuildingBlock: TEMPAE_clean_linker_10, # of connection points: 2
#     Edge 51, Type (0, 0), BuildingBlock: TEMPAE_clean_linker_10, # of connection points: 2
#     Edge 52, Type (0, 0), BuildingBlock: TEMPAE_clean_linker_10, # of connection points: 2
#     Edge 53, Type (0, 0), BuildingBlock: TEMPAE_clean_linker_10, # of connection points: 2
#     Edge 54, Type (0, 0), BuildingBlock: TEMPAE_clean_linker_10, # of connection points: 2
#     Edge 55, Type (0, 0), BuildingBlock: TEMPAE_clean_linker_10, # of connection points: 2
#     Edge 56, Type (0, 0), BuildingBlock: TEMPAE_clean_linker_10, # of connection points: 2
#     Edge 57, Type (0, 0), BuildingBlock: TEMPAE_clean_linker_10, # of connection points: 2
#     Edge 58, Type (0, 0), BuildingBlock: TEMPAE_clean_linker_10, # of connection points: 2
#     Edge 59, Type (0, 0), BuildingBlock: TEMPAE_clean_linker_10, # of connection points: 2
#     Edge 60, Type (0, 0), BuildingBlock: TEMPAE_clean_linker_10, # of connection points: 2
#     Edge 61, Type (0, 0), BuildingBlock: TEMPAE_clean_linker_10, # of connection points: 2
#     Edge 62, Type (0, 0), BuildingBlock: TEMPAE_clean_linker_10, # of connection points: 2
#     Edge 63, Type (0, 0), BuildingBlock: TEMPAE_clean_linker_10, # of connection points: 2
#     Edge 64, Type (0, 0), BuildingBlock: TEMPAE_clean_linker_10, # of connection points: 2
#     Edge 65, Type (0, 0), BuildingBlock: TEMPAE_clean_linker_10, # of connection points: 2
#     Edge 66, Type (0, 0), BuildingBlock: TEMPAE_clean_linker_10, # of connection points: 2
#     Edge 67, Type (0, 0), BuildingBlock: TEMPAE_clean_linker_10, # of connection points: 2
#     Edge 68, Type (0, 0), BuildingBlock: TEMPAE_clean_linker_10, # of connection points: 2
#     Edge 69, Type (0, 0), BuildingBlock: TEMPAE_clean_linker_10, # of connection points: 2
#     Edge 70, Type (0, 0), BuildingBlock: TEMPAE_clean_linker_10, # of connection points: 2
#     Edge 71, Type (0, 0), BuildingBlock: TEMPAE_clean_linker_10, # of connection points: 2
#     Edge 72, Type (0, 0), BuildingBlock: TEMPAE_clean_linker_10, # of connection points: 2
#     Edge 73, Type (0, 0), BuildingBlock: TEMPAE_clean_linker_10, # of connection points: 2
#     Edge 74, Type (0, 0), BuildingBlock: TEMPAE_clean_linker_10, # of connection points: 2
#     Edge 75, Type (0, 0), BuildingBlock: TEMPAE_clean_linker_10, # of connection points: 2
#     Edge 76, Type (0, 0), BuildingBlock: TEMPAE_clean_linker_10, # of connection points: 2
#     Edge 77, Type (0, 0), BuildingBlock: TEMPAE_clean_linker_10, # of connection points: 2
#     Edge 78, Type (0, 0), BuildingBlock: TEMPAE_clean_linker_10, # of connection points: 2
#     Edge 79, Type (0, 0), BuildingBlock: TEMPAE_clean_linker_10, # of connection points: 2
#     Edge 80, Type (0, 0), BuildingBlock: TEMPAE_clean_linker_10, # of connection points: 2
#     Edge 81, Type (0, 0), BuildingBlock: TEMPAE_clean_linker_10, # of connection points: 2
#     Edge 82, Type (0, 0), BuildingBlock: TEMPAE_clean_linker_10, # of connection points: 2
#     Edge 83, Type (0, 0), BuildingBlock: TEMPAE_clean_linker_10, # of connection points: 2
#     Edge 84, Type (0, 0), BuildingBlock: TEMPAE_clean_linker_10, # of connection points: 2
#     Edge 85, Type (0, 0), BuildingBlock: TEMPAE_clean_linker_10, # of connection points: 2
#     Edge 86, Type (0, 0), BuildingBlock: TEMPAE_clean_linker_10, # of connection points: 2
#     Edge 87, Type (0, 0), BuildingBlock: TEMPAE_clean_linker_10, # of connection points: 2
#     Edge 88, Type (0, 0), BuildingBlock: TEMPAE_clean_linker_10, # of connection points: 2
#     Edge 89, Type (0, 0), BuildingBlock: TEMPAE_clean_linker_10, # of connection points: 2
#     Edge 90, Type (0, 0), BuildingBlock: TEMPAE_clean_linker_10, # of connection points: 2
#     Edge 91, Type (0, 0), BuildingBlock: TEMPAE_clean_linker_10, # of connection points: 2
#     Edge 92, Type (0, 0), BuildingBlock: TEMPAE_clean_linker_10, # of connection points: 2
#     Edge 93, Type (0, 0), BuildingBlock: TEMPAE_clean_linker_10, # of connection points: 2
#     Edge 94, Type (0, 0), BuildingBlock: TEMPAE_clean_linker_10, # of connection points: 2
#     Edge 95, Type (0, 0), BuildingBlock: TEMPAE_clean_linker_10, # of connection points: 2
# Relax obj value: 0.105
# Max RMSD: 0.149
# Mean RMSD: 0.149
data_MOF--net-uka--node1-GALJAG_clean_sbu_0--edge1-TEMPAE_clean_linker_10
_symmetry_space_group_name_H-M    P1
_symmetry_Int_Tables_number       1
_symmetry_cell_setting            triclinic
loop_
_symmetry_equiv_pos_as_xyz
'x, y, z'
_cell_length_a     57.274437
_cell_length_b     57.293317
_cell_length_c     47.28005
_cell_angle_alpha  89.981976
_cell_angle_beta   90.001857
_cell_angle_gamma 90.012456
loop_
_atom_site_label
_atom_site_type_symbol
_atom_site_fract_x
_atom_site_fract_y
_atom_site_fract_z
_atom_type_partial_charge
In0 In 0.13972 0.27074 0.27279 0.0
O1 O 0.17631 0.27523 0.2907 0.0
O2 O 0.17322 0.25991 0.24999 0.0
C3 C 0.11738 0.30211 0.30558 0.0
C4 C 0.12583 0.28448 0.22094 0.0
C5 C 0.12644 0.23048 0.29785 0.0
O6 O 0.13892 0.30367 0.30022 0.0
O7 O 0.1072 0.28519 0.29383 0.0
O8 O 0.11951 0.23615 0.27346 0.0
O9 O 0.14053 0.24467 0.30889 0.0
C10 C 0.18654 0.26637 0.26972 0.0
O11 O 0.12381 0.26368 0.22949 0.0
O12 O 0.13522 0.29826 0.23842 0.0
In13 In 0.0236 0.84049 0.50482 0.0
O14 O 0.02456 0.82128 0.46203 0.0
O15 O 0.99194 0.82579 0.4827 0.0
C16 C 0.06626 0.8272 0.52256 0.0
C17 C 0.01877 0.88528 0.4888 0.0
C18 C 0.00483 0.83251 0.55615 0.0
O19 O 0.05046 0.81269 0.51644 0.0
O20 O 0.06124 0.84807 0.51673 0.0
O21 O 0.01663 0.85056 0.55082 0.0
O22 O 0.00191 0.81898 0.53542 0.0
C23 C 0.00275 0.81782 0.46163 0.0
O24 O 0.00397 0.87492 0.50407 0.0
O25 O 0.03584 0.87288 0.48107 0.0
In26 In 0.35864 0.69019 0.77131 0.0
O27 O 0.37256 0.69778 0.72701 0.0
O28 O 0.3684 0.66225 0.73898 0.0
C29 C 0.36108 0.73284 0.79547 0.0
C30 C 0.31201 0.68516 0.7673 0.0
C31 C 0.38792 0.66876 0.80755 0.0
O32 O 0.37181 0.72803 0.77287 0.0
O33 O 0.34878 0.71646 0.80511 0.0
O34 O 0.36694 0.66235 0.80468 0.0
O35 O 0.39406 0.68528 0.79158 0.0
C36 C 0.37474 0.67658 0.72018 0.0
O37 O 0.32404 0.67402 0.78516 0.0
O38 O 0.32365 0.69803 0.75084 0.0
In39 In 0.52098 0.1256 -0.00042 0.0
O40 O 0.51888 0.08955 0.9799 0.0
O41 O 0.48691 0.10736 0.98761 0.0
C42 C 0.55692 0.11559 0.03468 0.0
C43 C 0.53737 0.15163 0.95615 0.0
C44 C 0.49318 0.14776 0.03698 0.0
O45 O 0.54011 0.10181 0.03072 0.0
O46 O 0.55658 0.13334 0.01894 0.0
O47 O 0.49425 0.15397 0.01136 0.0
O48 O 0.50522 0.13008 0.04303 0.0
C49 C 0.49685 0.08895 0.97918 0.0
O50 O 0.53202 0.16018 0.97983 0.0
O51 O 0.53413 0.12991 0.9541 0.0
In52 In 0.10897 0.74988 0.23347 0.0
O53 O 0.1446 0.74463 0.21385 0.0
O54 O 0.14314 0.75192 0.25803 0.0
C55 C 0.09018 0.72394 0.19165 0.0
C56 C 0.09162 0.73355 0.28276 0.0
C57 C 0.10008 0.79399 0.216 0.0
O58 O 0.11049 0.72034 0.20097 0.0
O59 O 0.07935 0.74028 0.2037 0.0
O60 O 0.08432 0.78035 0.22452 0.0
O61 O 0.12042 0.78585 0.21784 0.0
C62 C 0.1557 0.74799 0.23655 0.0
O63 O 0.09435 0.75507 0.27807 0.0
O64 O 0.09803 0.72041 0.26286 0.0
In65 In 0.52379 0.87622 0.47849 0.0
O66 O 0.52127 0.86216 0.52359 0.0
O67 O 0.55497 0.87036 0.50753 0.0
C68 C 0.48014 0.86318 0.46314 0.0
C69 C 0.52582 0.92288 0.48283 0.0
C70 C 0.54709 0.85776 0.43421 0.0
O71 O 0.49516 0.84882 0.47186 0.0
O72 O 0.48671 0.88411 0.46386 0.0
O73 O 0.53856 0.87803 0.4337 0.0
O74 O 0.5445 0.8471 0.45734 0.0
C75 C 0.54301 0.86285 0.52803 0.0
O76 O 0.53596 0.91181 0.46331 0.0
O77 O 0.51523 0.91036 0.50068 0.0
In78 In 0.35978 0.24465 0.73904 0.0
O79 O 0.37278 0.24639 0.78477 0.0
O80 O 0.36839 0.27826 0.76245 0.0
C81 C 0.37467 0.20216 0.72222 0.0
C82 C 0.3132 0.24192 0.74481 0.0
C83 C 0.3784 0.26675 0.69418 0.0
O84 O 0.38584 0.2144 0.73979 0.0
O85 O 0.35526 0.21061 0.71506 0.0
O86 O 0.35676 0.26702 0.69923 0.0
O87 O 0.39056 0.25609 0.71226 0.0
C88 C 0.37465 0.26834 0.78501 0.0
O89 O 0.323 0.2537 0.72566 0.0
O90 O 0.32696 0.23189 0.76181 0.0
In91 In 0.95837 0.13574 0.98882 0.0
O92 O 0.94147 0.10013 0.98278 0.0
O93 O 0.96986 0.10273 0.01164 0.0
C94 C 0.93966 0.14733 0.93845 0.0
C95 C 0.93982 0.15536 0.03556 0.0
C96 C 0.00121 0.15033 0.97307 0.0
O97 O 0.95068 0.12858 0.94245 0.0
O98 O 0.93693 0.15969 0.96031 0.0
O99 O 0.9848 0.16423 0.97869 0.0
O100 O 0.99649 0.12917 0.97759 0.0
C101 C 0.95512 0.08975 -0.00047 0.0
O102 O 0.96154 0.15342 0.03178 0.0
O103 O 0.92741 0.14727 0.01579 0.0
In104 In 0.8897 0.74946 0.74496 0.0
O105 O 0.85158 0.74474 0.75686 0.0
O106 O 0.86519 0.77935 0.75598 0.0
C107 C 0.88425 0.72811 0.69434 0.0
C108 C 0.90258 0.72581 0.79171 0.0
C109 C 0.92431 0.77813 0.72771 0.0
O110 O 0.87161 0.74491 0.70206 0.0
O111 O 0.89889 0.72154 0.71255 0.0
O112 O 0.90361 0.78501 0.73124 0.0
O113 O 0.92779 0.75718 0.73458 0.0
C114 C 0.84767 0.76632 0.75968 0.0
O115 O 0.9037 0.7478 0.79025 0.0
O116 O 0.89459 0.71599 0.7699 0.0
In117 In 0.00825 0.1067 0.46678 0.0
O118 O 0.00232 0.11753 0.51265 0.0
O119 O 0.03652 0.12121 0.49567 0.0
C120 C 0.96407 0.11745 0.45154 0.0
C121 C 0.01099 0.05977 0.46961 0.0
C122 C 0.03468 0.12772 0.42687 0.0
O123 O 0.97608 0.13014 0.46774 0.0
O124 O 0.974 0.09882 0.44408 0.0
O125 O 0.04025 0.10835 0.43762 0.0
O126 O 0.01606 0.13636 0.4364 0.0
C127 C 0.02316 0.12397 0.51663 0.0
O128 O 0.01115 0.07078 0.44654 0.0
O129 O 0.00951 0.07241 0.49138 0.0
In130 In 0.58998 0.22794 0.22798 0.0
O131 O 0.62304 0.22481 0.2544 0.0
O132 O 0.62496 0.2433 0.21535 0.0
C133 C 0.57299 0.24777 0.1806 0.0
C134 C 0.57113 0.24863 0.27382 0.0
C135 C 0.58323 0.1828 0.21316 0.0
O136 O 0.59435 0.24304 0.18377 0.0
O137 O 0.56027 0.24292 0.20158 0.0
O138 O 0.60312 0.19126 0.2178 0.0
O139 O 0.56663 0.19659 0.21827 0.0
C140 C 0.63556 0.23591 0.23698 0.0
O141 O 0.57392 0.22679 0.27232 0.0
O142 O 0.57769 0.25979 0.25226 0.0
In143 In 0.44367 0.87928 0.96782 0.0
O144 O 0.42859 0.91484 0.95555 0.0
O145 O 0.45183 0.9132 0.99055 0.0
C146 C 0.41965 0.85137 0.93233 0.0
C147 C 0.43309 0.86167 0.0192 0.0
C148 C 0.48539 0.87722 0.94143 0.0
O149 O 0.41316 0.87201 0.93756 0.0
O150 O 0.43767 0.84492 0.94549 0.0
O151 O 0.48106 0.86555 0.96348 0.0
O152 O 0.46892 0.89013 0.93328 0.0
C153 C 0.43964 0.92583 0.97444 0.0
O154 O 0.45383 0.86444 0.01081 0.0
O155 O 0.41764 0.86812 0.0018 0.0
In156 In 0.89675 0.27876 0.75286 0.0
O157 O 0.91196 0.27809 0.70826 0.0
O158 O 0.91023 0.31081 0.72926 0.0
C159 C 0.91132 0.23496 0.76343 0.0
C160 C 0.85056 0.28576 0.74673 0.0
C161 C 0.90845 0.29195 0.80556 0.0
O162 O 0.92523 0.2519 0.76085 0.0
O163 O 0.89034 0.23977 0.75775 0.0
O164 O 0.89079 0.27962 0.80016 0.0
O165 O 0.91982 0.29864 0.7841 0.0
C166 C 0.91588 0.29975 0.70722 0.0
O167 O 0.86305 0.29792 0.763 0.0
O168 O 0.86153 0.27062 0.73258 0.0
In169 In 0.49486 0.13859 0.51762 0.0
O170 O 0.50261 0.16045 0.47824 0.0
O171 O 0.46723 0.15229 0.48728 0.0
C172 C 0.53304 0.15055 0.54751 0.0
C173 C 0.50176 0.09552 0.49681 0.0
C174 C 0.46478 0.14452 0.56092 0.0
O175 O 0.52256 0.16489 0.53167 0.0
O176 O 0.52453 0.13027 0.54763 0.0
O177 O 0.47122 0.12458 0.55274 0.0
O178 O 0.47303 0.16127 0.54682 0.0
C179 C 0.48147 0.16246 0.47111 0.0
O180 O 0.48193 0.10252 0.50479 0.0
O181 O 0.51782 0.11052 0.49839 0.0
In182 In 0.62164 0.7129 0.26803 0.0
O183 O 0.65499 0.71997 0.29259 0.0
O184 O 0.65834 0.70885 0.24985 0.0
C185 C 0.60442 0.68507 0.30931 0.0
C186 C 0.61112 0.6968 0.21582 0.0
C187 C 0.60423 0.7556 0.28061 0.0
O188 O 0.62602 0.688 0.3057 0.0
O189 O 0.59174 0.69532 0.29145 0.0
O190 O 0.59155 0.73789 0.27711 0.0
O191 O 0.62559 0.75213 0.27595 0.0
C192 C 0.66848 0.7151 0.27234 0.0
O193 O 0.61267 0.71832 0.22133 0.0
O194 O 0.61508 0.6835 0.23656 0.0
In195 In 0.00803 0.8768 0.02025 0.0
O196 O 0.01269 0.91421 0.00549 0.0
O197 O 0.97812 0.90249 0.01431 0.0
C198 C 0.04716 0.87735 0.05228 0.0
C199 C 0.01793 0.85346 0.97198 0.0
C200 C 0.97739 0.85621 0.05578 0.0
O201 O 0.03234 0.89358 0.05288 0.0
O202 O 0.04303 0.86187 0.03406 0.0
O203 O 0.97678 0.85259 0.02942 0.0
O204 O 0.99281 0.87044 0.0636 0.0
C205 C 0.99124 0.91918 0.00703 0.0
O206 O 0.01609 0.84354 0.99567 0.0
O207 O 0.01419 0.87516 0.97241 0.0
In208 In 0.63185 0.80159 0.7648 0.0
O209 O 0.61777 0.79293 0.72084 0.0
O210 O 0.62146 0.82872 0.73194 0.0
C211 C 0.62962 0.75972 0.79091 0.0
C212 C 0.67832 0.80654 0.75935 0.0
C213 C 0.60342 0.82472 0.80039 0.0
O214 O 0.61797 0.76412 0.76885 0.0
O215 O 0.64269 0.77608 0.79899 0.0
O216 O 0.62434 0.83092 0.79645 0.0
O217 O 0.59693 0.80744 0.78589 0.0
C218 C 0.61527 0.814 0.71354 0.0
O219 O 0.6667 0.81754 0.77771 0.0
O220 O 0.66636 0.79372 0.74317 0.0
In221 In 0.47594 0.36751 0.99281 0.0
O222 O 0.47417 0.40625 0.9822 0.0
O223 O 0.50706 0.38926 0.97862 0.0
C224 C 0.44773 0.36806 0.03846 0.0
C225 C 0.45497 0.35169 0.9455 0.0
C226 C 0.50645 0.3394 0.01966 0.0
O227 O 0.46015 0.38537 0.03173 0.0
O228 O 0.44839 0.3514 0.02109 0.0
O229 O 0.49274 0.33182 0.00088 0.0
O230 O 0.50565 0.36115 0.0234 0.0
C231 C 0.49571 0.40808 0.97695 0.0
O232 O 0.47648 0.34874 0.95022 0.0
O233 O 0.44429 0.36318 0.96424 0.0
In234 In 0.85593 0.23009 0.26873 0.0
O235 O 0.81977 0.21424 0.26375 0.0
O236 O 0.82323 0.25088 0.25792 0.0
C237 C 0.87164 0.20043 0.30862 0.0
C238 C 0.87237 0.21684 0.21765 0.0
C239 C 0.87123 0.26879 0.29521 0.0
O240 O 0.85025 0.20526 0.30605 0.0
O241 O 0.88481 0.21023 0.29084 0.0
O242 O 0.88144 0.26053 0.27374 0.0
O243 O 0.85306 0.25794 0.30256 0.0
C244 C 0.80985 0.2334 0.25843 0.0
O245 O 0.86673 0.20263 0.2368 0.0
O246 O 0.86961 0.23806 0.2241 0.0
In247 In 0.97768 0.66224 0.49805 0.0
O248 O 0.97815 0.62592 0.5169 0.0
O249 O 0.97193 0.62879 0.47262 0.0
C250 C 0.00093 0.67725 0.54425 0.0
C251 C 0.00255 0.6752 0.45218 0.0
C252 C 0.93477 0.67917 0.51039 0.0
O253 O 0.00037 0.65607 0.53701 0.0
O254 O 0.99042 0.69092 0.52771 0.0
O255 O 0.95106 0.69178 0.50105 0.0
O256 O 0.93955 0.65774 0.51105 0.0
C257 C 0.97425 0.61556 0.49384 0.0
O258 O 0.9805 0.67496 0.45229 0.0
O259 O 0.0119 0.66879 0.47504 0.0
In260 In 0.6342 0.24769 0.74532 0.0
O261 O 0.60886 0.25296 0.78221 0.0
O262 O 0.63369 0.22545 0.78506 0.0
C263 C 0.61852 0.2813 0.71041 0.0
C264 C 0.67834 0.26026 0.75678 0.0
C265 C 0.62147 0.21294 0.71011 0.0
O266 O 0.60904 0.27744 0.73414 0.0
O267 O 0.63626 0.26902 0.70526 0.0
O268 O 0.64217 0.22037 0.7113 0.0
O269 O 0.60777 0.22213 0.72768 0.0
C270 C 0.61665 0.23588 0.79626 0.0
O271 O 0.67249 0.23939 0.75203 0.0
O272 O 0.66176 0.27479 0.75681 0.0
In273 In 0.02686 0.35297 0.99362 0.0
O274 O 0.06024 0.34375 0.01769 0.0
O275 O 0.02798 0.34178 0.03976 0.0
C276 C 0.98713 0.32927 0.98371 0.0
C277 C 0.02546 0.39973 -0.00201 0.0
C278 C 0.04184 0.34234 0.94128 0.0
O279 O 0.00647 0.31929 0.98761 0.0
O280 O 0.98747 0.35103 0.98777 0.0
O281 O 0.02686 0.35797 0.94605 0.0
O282 O 0.0504 0.33295 0.96317 0.0
C283 C 0.04985 0.3393 0.04062 0.0
O284 O 0.04037 0.38928 0.98299 0.0
O285 O 0.01181 0.38658 0.0116 0.0
In286 In 0.8873 0.73536 0.25325 0.0
O287 O 0.85092 0.75101 0.2545 0.0
O288 O 0.85687 0.71988 0.27801 0.0
C289 C 0.90283 0.76132 0.20951 0.0
C290 C 0.91119 0.7502 0.2992 0.0
C291 C 0.89161 0.69439 0.22584 0.0
O292 O 0.88267 0.76391 0.21985 0.0
O293 O 0.91514 0.74605 0.22159 0.0
O294 O 0.90721 0.70197 0.24238 0.0
O295 O 0.87365 0.70701 0.22419 0.0
C296 C 0.84245 0.73523 0.27008 0.0
O297 O 0.90858 0.7288 0.29369 0.0
O298 O 0.90146 0.7638 0.28191 0.0
In299 In 0.46743 0.61371 0.48573 0.0
O300 O 0.46974 0.62531 0.53198 0.0
O301 O 0.43603 0.62122 0.51394 0.0
C302 C 0.51148 0.62227 0.46779 0.0
C303 C 0.4652 0.56694 0.48807 0.0
C304 C 0.44591 0.63742 0.44392 0.0
O305 O 0.50059 0.63624 0.48365 0.0
O306 O 0.50067 0.60365 0.46259 0.0
O307 O 0.44417 0.61557 0.44653 0.0
O308 O 0.45764 0.6473 0.46303 0.0
C309 C 0.44791 0.62652 0.53547 0.0
O310 O 0.45494 0.5787 0.46919 0.0
O311 O 0.47604 0.57886 0.50634 0.0
In312 In 0.40721 0.25957 0.24545 0.0
O313 O 0.42297 0.26394 0.29 0.0
O314 O 0.42017 0.22986 0.27283 0.0
C315 C 0.41428 0.30206 0.22261 0.0
C316 C 0.36147 0.25769 0.25754 0.0
C317 C 0.42363 0.23667 0.19975 0.0
O318 O 0.43012 0.29144 0.23607 0.0
O319 O 0.39485 0.29176 0.22211 0.0
O320 O 0.40236 0.23616 0.20677 0.0
O321 O 0.43657 0.24826 0.21612 0.0
C322 C 0.42625 0.24233 0.29347 0.0
O323 O 0.3719 0.24133 0.24482 0.0
O324 O 0.37425 0.27465 0.26474 0.0
In325 In 0.55151 0.61871 0.9727 0.0
O326 O 0.5434 0.63355 0.01636 0.0
O327 O 0.57902 0.62746 0.00599 0.0
C328 C 0.50912 0.62171 0.94798 0.0
C329 C 0.55406 0.57201 0.97778 0.0
C330 C 0.57529 0.64599 0.93624 0.0
O331 O 0.51446 0.63386 0.96932 0.0
O332 O 0.5249 0.608 0.93979 0.0
O333 O 0.58123 0.62514 0.94112 0.0
O334 O 0.55801 0.65305 0.95036 0.0
C335 C 0.56448 0.63462 0.02411 0.0
O336 O 0.56484 0.58304 0.95869 0.0
O337 O 0.54295 0.58465 0.995 0.0
In338 In 0.11016 0.76128 0.75332 0.0
O339 O 0.08338 0.75942 0.78905 0.0
O340 O 0.10682 0.78823 0.78845 0.0
C341 C 0.08564 0.73468 0.71705 0.0
C342 C 0.14775 0.73798 0.77276 0.0
C343 C 0.1163 0.79357 0.71245 0.0
O344 O 0.07602 0.74491 0.73766 0.0
O345 O 0.10754 0.73662 0.71616 0.0
O346 O 0.13238 0.78007 0.72036 0.0
O347 O 0.0979 0.79221 0.72699 0.0
C348 C 0.08994 0.77819 0.80056 0.0
O349 O 0.14713 0.7599 0.77045 0.0
O350 O 0.12895 0.72773 0.76641 0.0
In351 In 0.97857 0.39367 0.47453 0.0
O352 O 0.95887 0.42818 0.47403 0.0
O353 O 0.99434 0.42863 0.48723 0.0
C354 C 0.95172 0.37065 0.43691 0.0
C355 C 0.96769 0.37715 0.52644 0.0
C356 C 0.01875 0.38467 0.44696 0.0
O357 O 0.95234 0.39265 0.43809 0.0
O358 O 0.96414 0.36042 0.4551 0.0
O359 O 0.01321 0.37433 0.46959 0.0
O360 O 0.00446 0.40006 0.439 0.0
C361 C 0.976 0.44017 0.48238 0.0
O362 O 0.98854 0.37982 0.51839 0.0
O363 O 0.95254 0.38311 0.50851 0.0
In364 In 0.3744 0.77777 0.25937 0.0
O365 O 0.39107 0.77262 0.21568 0.0
O366 O 0.38165 0.80698 0.22817 0.0
C367 C 0.38747 0.73845 0.28633 0.0
C368 C 0.32908 0.772 0.24701 0.0
C369 C 0.38896 0.80555 0.30172 0.0
O370 O 0.40034 0.74793 0.26786 0.0
O371 O 0.36806 0.7483 0.29001 0.0
O372 O 0.36771 0.80051 0.2982 0.0
O373 O 0.40257 0.7974 0.28322 0.0
C374 C 0.3902 0.79403 0.20929 0.0
O375 O 0.3369 0.79067 0.25763 0.0
O376 O 0.34423 0.75658 0.24196 0.0
In377 In 0.97349 0.61401 0.00882 0.0
O378 O 0.96547 0.57607 0.99748 0.0
O379 O 0.00098 0.58673 -0.00139 0.0
C380 C 0.94114 0.62196 0.04894 0.0
C381 C 0.95953 0.63412 0.96009 0.0
C382 C 0.00735 0.63329 0.04059 0.0
O383 O 0.94847 0.60166 0.0435 0.0
O384 O 0.94922 0.63775 0.03315 0.0
O385 O 0.00117 0.64204 0.01721 0.0
O386 O -0.00292 0.61459 0.04709 0.0
C387 C 0.98665 0.57031 0.99513 0.0
O388 O 0.98067 0.63368 0.96765 0.0
O389 O 0.94567 0.62387 0.97669 0.0
In390 In 0.09254 0.21363 0.74965 0.0
O391 O 0.07741 0.21752 0.70489 0.0
O392 O 0.08643 0.18362 0.71905 0.0
C393 C 0.06996 0.25235 0.76684 0.0
C394 C 0.13908 0.21874 0.74513 0.0
C395 C 0.08409 0.1906 0.79832 0.0
O396 O 0.09015 0.25291 0.75616 0.0
O397 O 0.06045 0.23249 0.76656 0.0
O398 O 0.10221 0.2027 0.79458 0.0
O399 O 0.07088 0.18923 0.77705 0.0
C400 C 0.0783 0.196 0.6994 0.0
O401 O 0.12953 0.19891 0.74664 0.0
O402 O 0.12514 0.23576 0.74509 0.0
In403 In 0.50163 0.34932 0.49964 0.0
O404 O 0.49361 0.33052 0.45797 0.0
O405 O 0.52886 0.33929 0.46681 0.0
C406 C 0.46494 0.33429 0.53012 0.0
C407 C 0.49259 0.39401 0.4859 0.0
C408 C 0.53262 0.33928 0.54089 0.0
O409 O 0.47354 0.32226 0.51027 0.0
O410 O 0.4744 0.35393 0.53371 0.0
O411 O 0.52788 0.35997 0.53374 0.0
O412 O 0.52246 0.32381 0.52648 0.0
C413 C 0.51462 0.32995 0.44994 0.0
O414 O 0.51292 0.38686 0.49142 0.0
O415 O 0.47701 0.37845 0.48629 0.0
C416 C 0.06886 0.1292 0.39386 0.0
C417 C 0.04893 0.13979 0.40534 0.0
C418 C 0.08284 0.14107 0.3741 0.0
C419 C 0.0768 0.16408 0.366 0.0
C420 C 0.05642 0.17462 0.37713 0.0
C421 C 0.04269 0.16229 0.39656 0.0
C422 C 0.10428 0.12921 0.36237 0.0
C423 C 0.04946 0.1992 0.36918 0.0
C424 C 0.12193 0.20821 0.34267 0.0
C425 C 0.11661 0.21066 0.31388 0.0
C426 C 0.10993 0.19213 0.35962 0.0
C427 C 0.09241 0.17795 0.34736 0.0
C428 C 0.08814 0.17916 0.31789 0.0
C429 C 0.10021 0.19566 0.30148 0.0
C430 C 0.11488 0.19152 0.39099 0.0
C431 C 0.06988 0.16401 0.30401 0.0
H432 H 0.07364 0.11173 0.40047 0.0
H433 H 0.02726 0.17053 0.40531 0.0
H434 H 0.10424 0.13008 0.33892 0.0
H435 H 0.12017 0.13843 0.36979 0.0
H436 H 0.10545 0.11063 0.36894 0.0
H437 H 0.0327 0.20455 0.37906 0.0
H438 H 0.06326 0.21161 0.37594 0.0
H439 H 0.04773 0.20075 0.34589 0.0
H440 H 0.13465 0.2197 0.35236 0.0
H441 H 0.09616 0.19741 0.27918 0.0
H442 H 0.11766 0.17332 0.39821 0.0
H443 H 0.0996 0.1985 0.40269 0.0
H444 H 0.13047 0.20205 0.39674 0.0
H445 H 0.07161 0.14564 0.31113 0.0
H446 H 0.0711 0.16454 0.28056 0.0
H447 H 0.05224 0.17011 0.31028 0.0
C448 C 0.09861 0.83965 0.55429 0.0
C449 C 0.08496 0.82157 0.54298 0.0
C450 C 0.10977 0.83703 0.58052 0.0
C451 C 0.10719 0.81584 0.59554 0.0
C452 C 0.09611 0.79657 0.58241 0.0
C453 C 0.08516 0.79966 0.55615 0.0
C454 C 0.12198 0.85778 0.59346 0.0
C455 C 0.09344 0.77346 0.59746 0.0
C456 C 0.13541 0.80136 0.66593 0.0
C457 C 0.11661 0.80501 0.68446 0.0
C458 C 0.1333 0.80633 0.63695 0.0
C459 C 0.11188 0.81502 0.62642 0.0
C460 C 0.09361 0.82062 0.64547 0.0
C461 C 0.09627 0.81567 0.6743 0.0
C462 C 0.15331 0.80049 0.61744 0.0
C463 C 0.07046 0.83005 0.63518 0.0
H464 H 0.09881 0.85657 0.54401 0.0
H465 H 0.07487 0.78552 0.54738 0.0
H466 H 0.11008 0.86633 0.60882 0.0
H467 H 0.13787 0.85231 0.60512 0.0
H468 H 0.12694 0.87085 0.57718 0.0
H469 H 0.08791 0.75936 0.58279 0.0
H470 H 0.11004 0.76821 0.6077 0.0
H471 H 0.08006 0.77515 0.61432 0.0
H472 H 0.15122 0.79316 0.67367 0.0
H473 H 0.08172 0.81861 0.68853 0.0
H474 H 0.15515 0.81377 0.6005 0.0
H475 H 0.14986 0.78345 0.60712 0.0
H476 H 0.17009 0.79915 0.62912 0.0
H477 H 0.07318 0.84513 0.62085 0.0
H478 H 0.05904 0.83565 0.6529 0.0
H479 H 0.06116 0.81634 0.62299 0.0
C480 C 0.4155 0.81291 0.90852 0.0
C481 C 0.40801 0.83606 0.91151 0.0
C482 C 0.40573 0.79822 0.88804 0.0
C483 C 0.38805 0.80691 0.86995 0.0
C484 C 0.38022 0.83022 0.87297 0.0
C485 C 0.39028 0.84455 0.89383 0.0
C486 C 0.41446 0.7734 0.88568 0.0
C487 C 0.36145 0.84005 0.854 0.0
C488 C 0.38231 0.77042 0.80353 0.0
C489 C 0.36488 0.7546 0.81161 0.0
C490 C 0.38894 0.78876 0.82153 0.0
C491 C 0.37786 0.79122 0.84816 0.0
C492 C 0.35907 0.77635 0.85542 0.0
C493 C 0.3528 0.75821 0.83704 0.0
C494 C 0.40893 0.8044 0.81293 0.0
C495 C 0.34675 0.77842 0.88355 0.0
H496 H 0.42918 0.80623 0.92214 0.0
H497 H 0.38452 0.86249 0.89599 0.0
H498 H 0.39977 0.76101 0.88867 0.0
H499 H 0.42171 0.77033 0.86425 0.0
H500 H 0.42819 0.76934 0.90152 0.0
H501 H 0.35706 0.85841 0.85935 0.0
H502 H 0.36726 0.83933 0.83163 0.0
H503 H 0.34538 0.82931 0.85564 0.0
H504 H 0.39162 0.76777 0.78383 0.0
H505 H 0.33916 0.74615 0.84329 0.0
H506 H 0.42461 0.79994 0.82561 0.0
H507 H 0.40466 0.82295 0.81723 0.0
H508 H 0.41335 0.80248 0.79018 0.0
H509 H 0.35857 0.77237 0.90064 0.0
H510 H 0.33053 0.76779 0.88431 0.0
H511 H 0.34224 0.79687 0.88806 0.0
C512 C 0.41802 0.21092 0.15765 0.0
C513 C 0.43273 0.22484 0.17428 0.0
C514 C 0.42664 0.19916 0.1338 0.0
C515 C 0.45049 0.20143 0.12647 0.0
C516 C 0.46531 0.2159 0.14282 0.0
C517 C 0.45622 0.22745 0.16655 0.0
C518 C 0.41035 0.18387 0.11686 0.0
C519 C 0.49085 0.2188 0.13561 0.0
C520 C 0.47949 0.15201 0.0866 0.0
C521 C 0.48055 0.16095 0.05901 0.0
C522 C 0.46948 0.16492 0.1086 0.0
C523 C 0.46035 0.18738 0.10292 0.0
C524 C 0.46105 0.19641 0.07504 0.0
C525 C 0.47111 0.18302 0.05332 0.0
C526 C 0.46904 0.15467 0.13805 0.0
C527 C 0.45169 0.22041 0.06831 0.0
H528 H 0.39982 0.20897 0.16347 0.0
H529 H 0.46761 0.23838 0.17919 0.0
H530 H 0.41088 0.1889 0.0942 0.0
H531 H 0.41612 0.16542 0.11827 0.0
H532 H 0.39201 0.185 0.1244 0.0
H533 H 0.5 0.23054 0.15065 0.0
H534 H 0.4997 0.20158 0.13581 0.0
H535 H 0.49268 0.22606 0.11398 0.0
H536 H 0.48685 0.13498 0.09115 0.0
H537 H 0.4721 0.19006 0.03208 0.0
H538 H 0.45076 0.15334 0.14564 0.0
H539 H 0.4785 0.1663 0.15291 0.0
H540 H 0.47713 0.13706 0.13895 0.0
H541 H 0.43337 0.22202 0.07569 0.0
H542 H 0.45232 0.22433 0.04531 0.0
H543 H 0.46208 0.23379 0.07969 0.0
C544 C 0.07209 0.81911 0.18987 0.0
C545 C 0.0949 0.81517 0.19938 0.0
C546 C 0.06769 0.83471 0.1677 0.0
C547 C 0.08655 0.84698 0.15519 0.0
C548 C 0.10916 0.84516 0.16703 0.0
C549 C 0.11314 0.82904 0.18887 0.0
C550 C 0.04323 0.8362 0.15583 0.0
C551 C 0.12953 0.85865 0.1551 0.0
C552 C 0.07583 0.8521 0.07696 0.0
C553 C 0.0638 0.87334 0.07563 0.0
C554 C 0.08529 0.84416 0.1025 0.0
C555 C 0.08305 0.85808 0.12711 0.0
C556 C 0.07371 0.88087 0.12499 0.0
C557 C 0.06398 0.88821 0.09921 0.0
C558 C 0.09533 0.81979 0.10372 0.0
C559 C 0.07198 0.89664 0.15044 0.0
H560 H 0.0579 0.80858 0.1981 0.0
H561 H 0.1308 0.82628 0.19645 0.0
H562 H 0.03787 0.85468 0.15329 0.0
H563 H 0.04278 0.82798 0.13458 0.0
H564 H 0.03023 0.82725 0.1695 0.0
H565 H 0.14385 0.86032 0.17084 0.0
H566 H 0.13653 0.84934 0.13637 0.0
H567 H 0.12411 0.87635 0.1482 0.0
H568 H 0.07603 0.84067 0.05868 0.0
H569 H 0.05498 0.90484 0.09821 0.0
H570 H 0.08333 0.80827 0.11578 0.0
H571 H 0.11236 0.81982 0.11486 0.0
H572 H 0.09786 0.81217 0.08233 0.0
H573 H 0.05631 0.89187 0.16295 0.0
H574 H 0.07031 0.91524 0.14409 0.0
H575 H 0.08746 0.89471 0.16436 0.0
C576 C 0.42117 0.8245 0.3284 0.0
C577 C 0.39772 0.8177 0.32709 0.0
C578 C 0.43077 0.83322 0.35348 0.0
C579 C 0.41658 0.83504 0.37793 0.0
C580 C 0.39263 0.82911 0.37646 0.0
C581 C 0.38343 0.82053 0.35094 0.0
C582 C 0.45636 0.83966 0.35406 0.0
C583 C 0.377 0.83078 0.40208 0.0
C584 C 0.45468 0.83214 0.44284 0.0
C585 C 0.45905 0.85589 0.44751 0.0
C586 C 0.43896 0.82498 0.42181 0.0
C587 C 0.42751 0.84203 0.40512 0.0
C588 C 0.42998 0.86596 0.41184 0.0
C589 C 0.44572 0.87262 0.43308 0.0
C590 C 0.43642 0.79925 0.41566 0.0
C591 C 0.41787 0.88465 0.39478 0.0
H592 H 0.43223 0.82242 0.30996 0.0
H593 H 0.3653 0.81518 0.35002 0.0
H594 H 0.45859 0.85773 0.36203 0.0
H595 H 0.46585 0.82787 0.36871 0.0
H596 H 0.46462 0.83841 0.33285 0.0
H597 H 0.35828 0.82862 0.39652 0.0
H598 H 0.38184 0.81695 0.41743 0.0
H599 H 0.37933 0.84781 0.41286 0.0
H600 H 0.46476 0.81913 0.45416 0.0
H601 H 0.44885 0.89103 0.43681 0.0
H602 H 0.44621 0.79491 0.39609 0.0
H603 H 0.41785 0.79465 0.41201 0.0
H604 H 0.44331 0.78829 0.43316 0.0
H605 H 0.42691 0.88669 0.37417 0.0
H606 H 0.41806 0.90178 0.40579 0.0
H607 H 0.39951 0.87974 0.3903 0.0
C608 C 0.40997 0.17965 0.70801 0.0
C609 C 0.38589 0.18352 0.70548 0.0
C610 C 0.42239 0.1684 0.68638 0.0
C611 C 0.41036 0.16089 0.66185 0.0
C612 C 0.3857 0.16215 0.66091 0.0
C613 C 0.37372 0.17342 0.68285 0.0
C614 C 0.44865 0.16699 0.68844 0.0
C615 C 0.37216 0.15408 0.63532 0.0
C616 C 0.4424 0.17077 0.59286 0.0
C617 C 0.44982 0.14819 0.58595 0.0
C618 C 0.42934 0.17497 0.61736 0.0
C619 C 0.42362 0.15612 0.63549 0.0
C620 C 0.43076 0.1332 0.62846 0.0
C621 C 0.44378 0.12949 0.60367 0.0
C622 C 0.42193 0.19971 0.62398 0.0
C623 C 0.42505 0.11274 0.64735 0.0
H624 H 0.41945 0.18721 0.72561 0.0
H625 H 0.35504 0.1761 0.68096 0.0
H626 H 0.45511 0.15001 0.68035 0.0
H627 H 0.45652 0.18095 0.67524 0.0
H628 H 0.45482 0.1693 0.71054 0.0
H629 H 0.35327 0.15207 0.64004 0.0
H630 H 0.37409 0.16715 0.61814 0.0
H631 H 0.37901 0.13723 0.62731 0.0
H632 H 0.44701 0.18527 0.57921 0.0
H633 H 0.44958 0.11201 0.59843 0.0
H634 H 0.42961 0.20532 0.64442 0.0
H635 H 0.40266 0.20062 0.62618 0.0
H636 H 0.4274 0.21229 0.60736 0.0
H637 H 0.43383 0.11495 0.6681 0.0
H638 H 0.43068 0.09586 0.63803 0.0
H639 H 0.406 0.112 0.65147 0.0
C640 C 0.09136 0.18559 0.85009 0.0
C641 C 0.07715 0.18173 0.82639 0.0
C642 C 0.08338 0.1803 0.87744 0.0
C643 C 0.06064 0.17113 0.881 0.0
C644 C 0.0466 0.16636 0.85701 0.0
C645 C 0.05508 0.17163 0.82999 0.0
C646 C 0.09885 0.18551 0.9025 0.0
C647 C 0.02216 0.15664 0.85992 0.0
C648 C 0.03693 0.14051 0.94552 0.0
C649 C 0.02147 0.15746 0.95583 0.0
C650 C 0.0516 0.14536 0.92251 0.0
C651 C 0.05066 0.16765 0.90965 0.0
C652 C 0.03698 0.18554 0.92197 0.0
C653 C 0.02258 0.18023 0.94506 0.0
C654 C 0.06628 0.12596 0.91028 0.0
C655 C 0.03565 0.20962 0.90902 0.0
H656 H 0.10843 0.19346 0.84739 0.0
H657 H 0.04401 0.16867 0.81174 0.0
H658 H 0.09177 0.20072 0.91421 0.0
H659 H 0.09913 0.17051 0.91735 0.0
H660 H 0.11704 0.18957 0.89602 0.0
H661 H 0.01395 0.15297 0.8391 0.0
H662 H 0.02245 0.14027 0.87243 0.0
H663 H 0.01099 0.1693 0.87144 0.0
H664 H 0.0363 0.12292 0.95396 0.0
H665 H 0.01079 0.19347 0.9531 0.0
H666 H 0.08379 0.13248 0.90412 0.0
H667 H 0.05772 0.11913 0.89092 0.0
H668 H 0.06843 0.11129 0.92543 0.0
H669 H 0.05332 0.21613 0.90356 0.0
H670 H 0.02715 0.22237 0.92341 0.0
H671 H 0.02537 0.20881 0.88914 0.0
C672 C 0.00428 0.83873 0.60851 0.0
C673 C 0.99568 0.82714 0.58454 0.0
C674 C 0.99591 0.83322 0.63564 0.0
C675 C 0.97839 0.81598 0.63863 0.0
C676 C 0.96976 0.80422 0.61444 0.0
C677 C 0.97866 0.80983 0.58773 0.0
C678 C 0.0059 0.84566 0.66104 0.0
C679 C 0.95097 0.78578 0.61666 0.0
C680 C 0.96305 0.78158 0.70402 0.0
C681 C 0.94147 0.79158 0.71105 0.0
C682 C 0.97667 0.79082 0.68204 0.0
C683 C 0.96833 0.81036 0.66675 0.0
C684 C 0.94781 0.82195 0.67579 0.0
C685 C 0.93466 0.81245 0.69799 0.0
C686 C -0.00131 0.77823 0.67339 0.0
C687 C 0.93838 0.84288 0.66012 0.0
H688 H 0.01775 0.85188 0.60609 0.0
H689 H 0.97208 0.80078 0.56923 0.0
H690 H 0.99173 0.85385 0.67356 0.0
H691 H 0.01474 0.83286 0.67503 0.0
H692 H 0.0187 0.85935 0.65498 0.0
H693 H 0.9457 0.77897 0.59563 0.0
H694 H 0.95728 0.77097 0.62969 0.0
H695 H 0.9353 0.79307 0.62726 0.0
H696 H 0.96853 0.76555 0.71426 0.0
H697 H 0.91809 0.82038 0.70351 0.0
H698 H 0.01267 0.79079 0.6677 0.0
H699 H 0.99502 0.76744 0.65443 0.0
H700 H 0.0052 0.76654 0.69041 0.0
H701 H 0.95251 0.85552 0.65538 0.0
H702 H 0.92449 0.85196 0.67229 0.0
H703 H 0.93088 0.8371 0.63963 0.0
C704 C 0.9351 0.14892 0.44223 0.0
C705 C 0.94255 0.12592 0.43777 0.0
C706 C 0.91906 0.15945 0.42383 0.0
C707 C 0.9103 0.14658 0.40058 0.0
C708 C 0.91568 0.12257 0.398 0.0
C709 C 0.93183 0.1125 0.41666 0.0
C710 C 0.91357 0.18504 0.42752 0.0
C711 C 0.90635 0.10812 0.37382 0.0
C712 C 0.86618 0.17603 0.35214 0.0
C713 C 0.88092 0.1854 0.33134 0.0
C714 C 0.87532 0.16287 0.37467 0.0
C715 C 0.89971 0.15919 0.37633 0.0
C716 C 0.91456 0.16824 0.35503 0.0
C717 C 0.90497 0.18119 0.33281 0.0
C718 C 0.859 0.15339 0.39695 0.0
C719 C 0.94071 0.16467 0.35596 0.0
H720 H 0.94313 0.1593 0.45875 0.0
H721 H 0.9373 0.09459 0.41336 0.0
H722 H 0.92363 0.19533 0.41179 0.0
H723 H 0.89477 0.18848 0.42375 0.0
H724 H 0.91824 0.19137 0.449 0.0
H725 H 0.90823 0.08912 0.37793 0.0
H726 H 0.88768 0.11208 0.36983 0.0
H727 H 0.91619 0.11242 0.35428 0.0
H728 H 0.84755 0.17927 0.35106 0.0
H729 H 0.91643 0.18836 0.31675 0.0
H730 H 0.86221 0.16244 0.41731 0.0
H731 H 0.86233 0.13454 0.40048 0.0
H732 H 0.84037 0.15578 0.3911 0.0
H733 H 0.94797 0.17264 0.37546 0.0
H734 H 0.9497 0.1725 0.33742 0.0
H735 H 0.94482 0.14576 0.35659 0.0
C736 C 0.58376 0.13491 0.06846 0.0
C737 C 0.57063 0.11519 0.06113 0.0
C738 C 0.58898 0.1397 0.09679 0.0
C739 C 0.5814 0.12403 0.1181 0.0
C740 C 0.5715 0.10234 0.11033 0.0
C741 C 0.56601 0.09822 0.08181 0.0
C742 C 0.59991 0.16295 0.10405 0.0
C743 C 0.56444 0.08458 0.13226 0.0
C744 C 0.59943 0.14748 0.18933 0.0
C745 C 0.58021 0.16179 0.19548 0.0
C746 C 0.59916 0.13261 0.16573 0.0
C747 C 0.5795 0.13268 0.14763 0.0
C748 C 0.55912 0.14508 0.15565 0.0
C749 C 0.55963 0.15921 0.17981 0.0
C750 C 0.62076 0.11866 0.15882 0.0
C751 C 0.53765 0.14563 0.13705 0.0
H752 H 0.58776 0.14788 0.05248 0.0
H753 H 0.55624 0.08268 0.0762 0.0
H754 H 0.58665 0.17434 0.11419 0.0
H755 H 0.61441 0.16061 0.1193 0.0
H756 H 0.60678 0.17208 0.08505 0.0
H757 H 0.56373 0.06674 0.12307 0.0
H758 H 0.5767 0.08457 0.15043 0.0
H759 H 0.54679 0.08891 0.14038 0.0
H760 H 0.61529 0.14915 0.20169 0.0
H761 H 0.54465 0.17008 0.18463 0.0
H762 H 0.63224 0.12907 0.14476 0.0
H763 H 0.61632 0.10218 0.14773 0.0
H764 H 0.63079 0.11445 0.17828 0.0
H765 H 0.54177 0.15468 0.11689 0.0
H766 H 0.52283 0.15488 0.14726 0.0
H767 H 0.53198 0.12766 0.13174 0.0
C768 C 0.52257 0.85616 0.93089 0.0
C769 C 0.50677 0.87405 0.92443 0.0
C770 C 0.54068 0.85045 0.91214 0.0
C771 C 0.54298 0.86297 0.88645 0.0
C772 C 0.52811 0.88214 0.88087 0.0
C773 C 0.51015 0.88744 0.89994 0.0
C774 C 0.55629 0.82996 0.9189 0.0
C775 C 0.53008 0.89601 0.85381 0.0
C776 C 0.59641 0.85259 0.84034 0.0
C777 C 0.58791 0.83575 0.82144 0.0
C778 C 0.58197 0.86183 0.86162 0.0
C779 C 0.55858 0.85404 0.86384 0.0
C780 C 0.54986 0.83737 0.84444 0.0
C781 C 0.56464 0.82842 0.82352 0.0
C782 C 0.59181 0.87958 0.88196 0.0
C783 C 0.52496 0.82871 0.84598 0.0
H784 H 0.52008 0.84584 0.94988 0.0
H785 H 0.49809 0.90144 0.89498 0.0
H786 H 0.55184 0.81513 0.90479 0.0
H787 H 0.57485 0.83447 0.91505 0.0
H788 H 0.55434 0.8241 0.94118 0.0
H789 H 0.51949 0.91225 0.85448 0.0
H790 H 0.54853 0.90072 0.84953 0.0
H791 H 0.52391 0.8852 0.83583 0.0
H792 H 0.61443 0.85822 0.83884 0.0
H793 H 0.55798 0.81543 0.80893 0.0
H794 H 0.59139 0.87247 0.90379 0.0
H795 H 0.58091 0.89559 0.88185 0.0
H796 H 0.61008 0.88445 0.87673 0.0
H797 H 0.5218 0.82024 0.86674 0.0
H798 H 0.52083 0.81597 0.82899 0.0
H799 H 0.51267 0.84362 0.84424 0.0
C800 C 0.9001 0.19848 0.78859 0.0
C801 C 0.91764 0.21401 0.77996 0.0
C802 C 0.9036 0.18354 0.81171 0.0
C803 C 0.92515 0.18417 0.82632 0.0
C804 C 0.94379 0.19779 0.8156 0.0
C805 C 0.93981 0.21254 0.79242 0.0
C806 C 0.88344 0.16893 0.8222 0.0
C807 C 0.96719 0.19865 0.83031 0.0
C808 C 0.92423 0.17801 0.9061 0.0
C809 C 0.93334 0.15554 0.90985 0.0
C810 C 0.92106 0.1873 0.87894 0.0
C811 C 0.92702 0.17369 0.85496 0.0
C812 C 0.93545 0.15068 0.85859 0.0
C813 C 0.93856 0.14188 0.88604 0.0
C814 C 0.91212 0.21201 0.87598 0.0
C815 C 0.94205 0.1357 0.83357 0.0
H816 H 0.88297 0.19938 0.77888 0.0
H817 H 0.95352 0.22436 0.7857 0.0
H818 H 0.88943 0.15121 0.82826 0.0
H819 H 0.87587 0.17721 0.84134 0.0
H820 H 0.86945 0.16729 0.80605 0.0
H821 H 0.9808 0.20695 0.81691 0.0
H822 H 0.96556 0.2089 0.85013 0.0
H823 H 0.97309 0.18086 0.83617 0.0
H824 H 0.92029 0.18867 0.92442 0.0
H825 H 0.94574 0.12453 0.88885 0.0
H826 H 0.89663 0.21241 0.8619 0.0
H827 H 0.92575 0.22314 0.86614 0.0
H828 H 0.90723 0.2198 0.89666 0.0
H829 H 0.92805 0.13599 0.81735 0.0
H830 H 0.94542 0.1173 0.83978 0.0
H831 H 0.95808 0.14279 0.82358 0.0
C832 C 0.5893 0.19131 0.68668 0.0
C833 C 0.61282 0.19799 0.687 0.0
C834 C 0.5793 0.18139 0.66251 0.0
C835 C 0.59323 0.17796 0.63813 0.0
C836 C 0.61737 0.18314 0.63896 0.0
C837 C 0.62693 0.19317 0.66347 0.0
C838 C 0.55348 0.17592 0.66255 0.0
C839 C 0.63279 0.17943 0.61347 0.0
C840 C 0.56313 0.1404 0.5835 0.0
C841 C 0.55193 0.15739 0.56701 0.0
C842 C 0.57816 0.14681 0.60558 0.0
C843 C 0.58183 0.17074 0.61135 0.0
C844 C 0.57189 0.18792 0.59345 0.0
C845 C 0.55707 0.18101 0.57139 0.0
C846 C 0.58875 0.128 0.62389 0.0
C847 C 0.57547 0.21365 0.59887 0.0
H848 H 0.57837 0.19489 0.70489 0.0
H849 H 0.64514 0.19833 0.66364 0.0
H850 H 0.54435 0.18763 0.64748 0.0
H851 H 0.55045 0.15773 0.65543 0.0
H852 H 0.5455 0.17816 0.68379 0.0
H853 H 0.65162 0.181 0.61883 0.0
H854 H 0.62963 0.162 0.60402 0.0
H855 H 0.62856 0.19267 0.59712 0.0
H856 H 0.55938 0.12209 0.57997 0.0
H857 H 0.54852 0.19418 0.55859 0.0
H858 H 0.57953 0.12747 0.64452 0.0
H859 H 0.6074 0.13179 0.62826 0.0
H860 H 0.5874 0.11048 0.61395 0.0
H861 H 0.5657 0.21883 0.61815 0.0
H862 H 0.56926 0.22454 0.58093 0.0
H863 H 0.59418 0.21753 0.60266 0.0
C864 C 0.61137 0.7931 0.30593 0.0
C865 C 0.59553 0.77682 0.29486 0.0
C866 C 0.60412 0.80981 0.32576 0.0
C867 C 0.58049 0.81024 0.3345 0.0
C868 C 0.56404 0.79537 0.32127 0.0
C869 C 0.57179 0.77877 0.30161 0.0
C870 C 0.62215 0.82551 0.33919 0.0
C871 C 0.53861 0.79553 0.32968 0.0
C872 C 0.56682 0.82409 0.41104 0.0
C873 C 0.55757 0.84665 0.40906 0.0
C874 C 0.57489 0.81236 0.38696 0.0
C875 C 0.57364 0.82346 0.36022 0.0
C876 C 0.56496 0.84652 0.35818 0.0
C877 C 0.55702 0.85788 0.38268 0.0
C878 C 0.58415 0.7878 0.39007 0.0
C879 C 0.56336 0.85888 0.33004 0.0
H880 H 0.62975 0.79174 0.30068 0.0
H881 H 0.55944 0.76636 0.29291 0.0
H882 H 0.61546 0.84361 0.3411 0.0
H883 H 0.62604 0.81916 0.36086 0.0
H884 H 0.6387 0.82581 0.32694 0.0
H885 H 0.52761 0.7855 0.31462 0.0
H886 H 0.5367 0.78764 0.35099 0.0
H887 H 0.5319 0.81366 0.33089 0.0
H888 H 0.56731 0.81537 0.43138 0.0
H889 H 0.54983 0.87532 0.38105 0.0
H890 H 0.60195 0.78657 0.38095 0.0
H891 H 0.57284 0.77549 0.37819 0.0
H892 H 0.58486 0.78206 0.4125 0.0
H893 H 0.58032 0.85801 0.31877 0.0
H894 H 0.55825 0.87748 0.33239 0.0
H895 H 0.55023 0.85002 0.31652 0.0
C896 C 0.89797 0.79293 0.17346 0.0
C897 C 0.91145 0.77493 0.18512 0.0
C898 C 0.90642 0.80634 0.1508 0.0
C899 C 0.92883 0.80153 0.13957 0.0
C900 C 0.94223 0.78295 0.15081 0.0
C901 C 0.93339 0.76991 0.17348 0.0
C902 C 0.89169 0.82607 0.1394 0.0
C903 C 0.9662 0.77724 0.13939 0.0
C904 C 0.94842 0.82503 0.0682 0.0
C905 C 0.96272 0.84366 0.07649 0.0
C906 C 0.93656 0.81154 0.08847 0.0
C907 C 0.93911 0.81691 0.11755 0.0
C908 C 0.95282 0.83627 0.12587 0.0
C909 C 0.96444 0.84939 0.10525 0.0
C910 C 0.92207 0.791 0.07887 0.0
C911 C 0.95601 0.84258 0.15666 0.0
H912 H 0.88095 0.7968 0.18233 0.0
H913 H 0.94381 0.75588 0.18228 0.0
H914 H 0.90048 0.84297 0.14361 0.0
H915 H 0.88977 0.82443 0.11613 0.0
H916 H 0.87404 0.82651 0.14911 0.0
H917 H 0.97371 0.7613 0.14923 0.0
H918 H 0.96541 0.77463 0.11616 0.0
H919 H 0.97823 0.79206 0.1434 0.0
H920 H 0.94708 0.82054 0.04599 0.0
H921 H 0.97543 0.86382 0.11179 0.0
H922 H 0.9044 0.79179 0.08842 0.0
H923 H 0.93032 0.77455 0.08615 0.0
H924 H 0.92028 0.79032 0.05548 0.0
H925 H 0.93879 0.84445 0.16716 0.0
H926 H 0.96594 0.85908 0.15945 0.0
H927 H 0.96555 0.82839 0.16768 0.0
C928 C 0.60295 0.6514 0.89566 0.0
C929 C 0.58649 0.66073 0.91448 0.0
C930 C 0.61226 0.66506 0.87366 0.0
C931 C 0.60497 0.68854 0.87062 0.0
C932 C 0.58868 0.69811 0.88992 0.0
C933 C 0.57962 0.68408 0.91155 0.0
C934 C 0.62958 0.65431 0.85345 0.0
C935 C 0.58058 0.72314 0.88757 0.0
C936 C 0.63954 0.73525 0.83275 0.0
C937 C 0.6261 0.73856 0.80828 0.0
C938 C 0.63383 0.71784 0.8524 0.0
C939 C 0.6142 0.70343 0.84743 0.0
C940 C 0.60163 0.70555 0.82175 0.0
C941 C 0.60774 0.72314 0.80242 0.0
C942 C 0.64777 0.71609 0.87943 0.0
C943 C 0.58068 0.69038 0.8156 0.0
H944 H 0.60821 0.63331 0.89778 0.0
H945 H 0.56692 0.69139 0.92605 0.0
H946 H 0.62235 0.65451 0.83168 0.0
H947 H 0.64591 0.66473 0.85309 0.0
H948 H 0.63396 0.63602 0.85918 0.0
H949 H 0.56803 0.72795 0.90451 0.0
H950 H 0.59578 0.73511 0.88875 0.0
H951 H 0.57206 0.726 0.86678 0.0
H952 H 0.6539 0.74701 0.83727 0.0
H953 H 0.59736 0.72558 0.78348 0.0
H954 H 0.65202 0.69762 0.88425 0.0
H955 H 0.63719 0.7229 0.89728 0.0
H956 H 0.66428 0.72623 0.87835 0.0
H957 H 0.58468 0.6718 0.8201 0.0
H958 H 0.57484 0.69197 0.79328 0.0
H959 H 0.56602 0.69558 0.82958 0.0
C960 C 0.57825 0.26161 0.13096 0.0
C961 C 0.5637 0.25834 0.15447 0.0
C962 C 0.56994 0.27261 0.10645 0.0
C963 C 0.5466 0.28068 0.1056 0.0
C964 C 0.5316 0.27668 0.12892 0.0
C965 C 0.54033 0.26548 0.15308 0.0
C966 C 0.58632 0.27626 0.08182 0.0
C967 C 0.50657 0.28499 0.12877 0.0
C968 C 0.53217 0.3338 0.06142 0.0
C969 C 0.5196 0.32397 0.03895 0.0
C970 C 0.54155 0.31978 0.08284 0.0
C971 C 0.53851 0.29529 0.08159 0.0
C972 C 0.52684 0.28512 0.05824 0.0
C973 C 0.51741 0.29963 0.03718 0.0
C974 C 0.5537 0.33131 0.10753 0.0
C975 C 0.52346 0.25904 0.0561 0.0
H976 H 0.59627 0.25587 0.13185 0.0
H977 H 0.52898 0.26282 0.17114 0.0
H978 H 0.5781 0.27012 0.06192 0.0
H979 H 0.58997 0.29517 0.07927 0.0
H980 H 0.60318 0.26698 0.08474 0.0
H981 H 0.49715 0.28037 0.14854 0.0
H982 H 0.5061 0.30422 0.12611 0.0
H983 H 0.49708 0.27725 0.1106 0.0
H984 H 0.53387 0.3526 0.06294 0.0
H985 H 0.50762 0.29197 0.0199 0.0
H986 H 0.57133 0.32372 0.11054 0.0
H987 H 0.54365 0.32805 0.12721 0.0
H988 H 0.5555 0.35048 0.10465 0.0
H989 H 0.54009 0.24976 0.06042 0.0
H990 H 0.51695 0.25371 0.03492 0.0
H991 H 0.51063 0.25325 0.07222 0.0
C992 C 0.86887 0.2959 0.33629 0.0
C993 C 0.88102 0.28794 0.31242 0.0
C994 C 0.87924 0.31153 0.35531 0.0
C995 C 0.90231 0.31935 0.35033 0.0
C996 C 0.91417 0.31241 0.32543 0.0
C997 C 0.90335 0.29677 0.30671 0.0
C998 C 0.86598 0.31861 0.38156 0.0
C999 C 0.93877 0.32046 0.31937 0.0
C1000 C 0.92595 0.3697 0.39417 0.0
C1001 C 0.93845 0.35775 0.41517 0.0
C1002 C 0.91409 0.35747 0.3728 0.0
C1003 C 0.9148 0.33278 0.37254 0.0
C1004 C 0.9273 0.32066 0.39379 0.0
C1005 C 0.93897 0.33331 0.41484 0.0
C1006 C 0.90092 0.37093 0.35046 0.0
C1007 C 0.92843 0.29432 0.39427 0.0
H1008 H 0.85154 0.28922 0.34072 0.0
H1009 H 0.91278 0.2907 0.28825 0.0
H1010 H 0.87429 0.31062 0.40042 0.0
H1011 H 0.8666 0.33782 0.38439 0.0
H1012 H 0.84742 0.31301 0.38082 0.0
H1013 H 0.94458 0.31557 0.29775 0.0
H1014 H 0.94015 0.33967 0.32173 0.0
H1015 H 0.95091 0.31247 0.33489 0.0
H1016 H 0.92558 0.38862 0.3943 0.0
H1017 H 0.94866 0.32399 0.43099 0.0
H1018 H 0.88225 0.36573 0.35058 0.0
H1019 H 0.90795 0.36669 0.32921 0.0
H1020 H 0.90204 0.3901 0.3537 0.0
H1021 H 0.91056 0.28695 0.39583 0.0
H1022 H 0.93896 0.28759 0.41224 0.0
H1023 H 0.93618 0.2878 0.37427 0.0
C1024 C 0.90308 0.70562 0.65574 0.0
C1025 C 0.88418 0.71899 0.66516 0.0
C1026 C 0.90541 0.6997 0.62717 0.0
C1027 C 0.88807 0.70686 0.60759 0.0
C1028 C 0.86817 0.71913 0.61726 0.0
C1029 C 0.86662 0.72536 0.64596 0.0
C1030 C 0.92711 0.6868 0.61778 0.0
C1031 C 0.84905 0.72661 0.59728 0.0
C1032 C 0.91711 0.71213 0.53682 0.0
C1033 C 0.91559 0.68893 0.52757 0.0
C1034 C 0.90578 0.71924 0.56163 0.0
C1035 C 0.89224 0.70288 0.57695 0.0
C1036 C 0.88755 0.68072 0.56504 0.0
C1037 C 0.8995 0.67388 0.5405 0.0
C1038 C 0.91099 0.74315 0.57343 0.0
C1039 C 0.87225 0.66322 0.58003 0.0
H1040 H 0.91673 0.70073 0.67048 0.0
H1041 H 0.85192 0.73567 0.65321 0.0
H1042 H 0.92223 0.6705 0.60659 0.0
H1043 H 0.93718 0.69775 0.60274 0.0
H1044 H 0.93869 0.68219 0.63579 0.0
H1045 H 0.83239 0.72977 0.60871 0.0
H1046 H 0.8542 0.74313 0.58675 0.0
H1047 H 0.84601 0.71335 0.58058 0.0
H1048 H 0.92925 0.72398 0.52664 0.0
H1049 H 0.89789 0.65604 0.53307 0.0
H1050 H 0.92301 0.74139 0.59172 0.0
H1051 H 0.8948 0.7516 0.58116 0.0
H1052 H 0.91932 0.75473 0.55749 0.0
H1053 H 0.88238 0.65474 0.5972 0.0
H1054 H 0.86602 0.64941 0.56537 0.0
H1055 H 0.85693 0.67192 0.58981 0.0
C1056 C 0.55015 0.3102 0.5738 0.0
C1057 C 0.54729 0.33354 0.56563 0.0
C1058 C 0.56247 0.30437 0.59841 0.0
C1059 C 0.57229 0.32233 0.6152 0.0
C1060 C 0.56981 0.34593 0.60684 0.0
C1061 C 0.55728 0.35127 0.58213 0.0
C1062 C 0.56476 0.27897 0.60657 0.0
C1063 C 0.58017 0.36549 0.62415 0.0
C1064 C 0.58468 0.30343 0.69057 0.0
C1065 C 0.60797 0.29622 0.68838 0.0
C1066 C 0.5731 0.31331 0.66727 0.0
C1067 C 0.58524 0.31612 0.64137 0.0
C1068 C 0.60924 0.31047 0.63977 0.0
C1069 C 0.6203 0.30052 0.66329 0.0
C1070 C 0.54749 0.31916 0.66979 0.0
C1071 C 0.62285 0.3134 0.61264 0.0
H1072 H 0.54241 0.29643 0.56117 0.0
H1073 H 0.55504 0.36935 0.57593 0.0
H1074 H 0.58346 0.27394 0.60718 0.0
H1075 H 0.55752 0.2761 0.62806 0.0
H1076 H 0.55554 0.26721 0.59158 0.0
H1077 H 0.57712 0.38288 0.61443 0.0
H1078 H 0.57246 0.36543 0.64568 0.0
H1079 H 0.59925 0.36285 0.62661 0.0
H1080 H 0.57508 0.30009 0.70992 0.0
H1081 H 0.63839 0.29511 0.66157 0.0
H1082 H 0.53712 0.30642 0.65736 0.0
H1083 H 0.54392 0.33673 0.66095 0.0
H1084 H 0.54136 0.31866 0.69208 0.0
H1085 H 0.61686 0.3003 0.59696 0.0
H1086 H 0.64192 0.31108 0.61591 0.0
H1087 H 0.61973 0.33092 0.6034 0.0
C1088 C 0.97295 0.29699 0.95314 0.0
C1089 C 0.96842 0.31816 0.967 0.0
C1090 C 0.95994 0.29036 0.92935 0.0
C1091 C 0.94181 0.30511 0.91965 0.0
C1092 C 0.93525 0.32485 0.93579 0.0
C1093 C 0.94871 0.33119 0.95933 0.0
C1094 C 0.96738 0.26903 0.91287 0.0
C1095 C 0.91571 0.34075 0.92643 0.0
C1096 C 0.93581 0.31023 0.8401 0.0
C1097 C 0.91615 0.29639 0.83484 0.0
C1098 C 0.94415 0.31332 0.86772 0.0
C1099 C 0.93258 0.30219 0.89055 0.0
C1100 C 0.91264 0.28829 0.88539 0.0
C1101 C 0.90461 0.2856 0.85756 0.0
C1102 C 0.96555 0.32827 0.87239 0.0
C1103 C 0.90003 0.27604 0.90919 0.0
H1104 H 0.98809 0.28673 0.95908 0.0
H1105 H 0.94498 0.34744 0.97017 0.0
H1106 H 0.952 0.25901 0.90539 0.0
H1107 H 0.97738 0.2746 0.89393 0.0
H1108 H 0.97866 0.2573 0.92566 0.0
H1109 H 0.91011 0.3527 0.94364 0.0
H1110 H 0.92173 0.35147 0.90829 0.0
H1111 H 0.90039 0.33049 0.91925 0.0
H1112 H 0.94484 0.31846 0.82259 0.0
H1113 H 0.88951 0.27468 0.85355 0.0
H1114 H 0.97978 0.31757 0.88164 0.0
H1115 H 0.9616 0.34244 0.88763 0.0
H1116 H 0.97198 0.33627 0.85246 0.0
H1117 H 0.91212 0.26394 0.92019 0.0
H1118 H 0.88471 0.26592 0.90159 0.0
H1119 H 0.894 0.28898 0.92503 0.0
C1120 C 0.922 0.65093 0.08028 0.0
C1121 C 0.92754 0.6276 0.07456 0.0
C1122 C 0.91353 0.65764 0.1068 0.0
C1123 C 0.91024 0.64052 0.12805 0.0
C1124 C 0.9141 0.61668 0.12174 0.0
C1125 C 0.92286 0.61048 0.09501 0.0
C1126 C 0.90954 0.68328 0.1126 0.0
C1127 C 0.91031 0.59791 0.14364 0.0
C1128 C 0.91854 0.66803 0.19972 0.0
C1129 C 0.89569 0.67512 0.20578 0.0
C1130 C 0.92339 0.65478 0.1755 0.0
C1131 C 0.90485 0.64823 0.1573 0.0
C1132 C 0.88152 0.65306 0.16515 0.0
C1133 C 0.87721 0.66666 0.18924 0.0
C1134 C 0.94854 0.64995 0.1679 0.0
C1135 C 0.86125 0.6458 0.14676 0.0
H1136 H 0.92544 0.66422 0.06448 0.0
H1137 H 0.92708 0.59239 0.09064 0.0
H1138 H 0.8917 0.68612 0.12103 0.0
H1139 H 0.92208 0.68942 0.12887 0.0
H1140 H 0.91176 0.69419 0.09335 0.0
H1141 H 0.90963 0.58025 0.13396 0.0
H1142 H 0.92487 0.59825 0.1591 0.0
H1143 H 0.89388 0.60098 0.15552 0.0
H1144 H 0.93287 0.67446 0.21253 0.0
H1145 H 0.85946 0.67187 0.19411 0.0
H1146 H 0.95379 0.66137 0.15002 0.0
H1147 H 0.95075 0.6316 0.16093 0.0
H1148 H 0.96054 0.65329 0.18592 0.0
H1149 H 0.85994 0.65782 0.12843 0.0
H1150 H 0.84446 0.64638 0.1585 0.0
H1151 H 0.86387 0.62791 0.13835 0.0
C1152 C 0.5703 0.66984 0.33613 0.0
C1153 C 0.59452 0.67267 0.33394 0.0
C1154 C 0.56021 0.6603 0.36049 0.0
C1155 C 0.5747 0.65344 0.38331 0.0
C1156 C 0.59924 0.65569 0.38099 0.0
C1157 C 0.60889 0.66528 0.35624 0.0
C1158 C 0.53394 0.65804 0.36203 0.0
C1159 C 0.61519 0.64857 0.40489 0.0
C1160 C 0.54009 0.6522 0.45132 0.0
C1161 C 0.53252 0.62895 0.45163 0.0
C1162 C 0.55565 0.66011 0.43047 0.0
C1163 C 0.56374 0.64433 0.40959 0.0
C1164 C 0.55801 0.62038 0.41162 0.0
C1165 C 0.54246 0.61296 0.43268 0.0
C1166 C 0.56163 0.68575 0.42926 0.0
C1167 C 0.56644 0.60295 0.38997 0.0
H1168 H 0.55913 0.67552 0.31894 0.0
H1169 H 0.62764 0.66756 0.35468 0.0
H1170 H 0.52901 0.63966 0.36639 0.0
H1171 H 0.52711 0.66882 0.37968 0.0
H1172 H 0.52523 0.66365 0.34216 0.0
H1173 H 0.63392 0.64985 0.39896 0.0
H1174 H 0.61203 0.65996 0.42347 0.0
H1175 H 0.61141 0.6304 0.41155 0.0
H1176 H 0.53256 0.66462 0.46603 0.0
H1177 H 0.53685 0.59488 0.43301 0.0
H1178 H 0.55166 0.6941 0.41186 0.0
H1179 H 0.58047 0.68827 0.42473 0.0
H1180 H 0.55727 0.69485 0.44932 0.0
H1181 H 0.5566 0.60545 0.36997 0.0
H1182 H 0.56383 0.58467 0.39716 0.0
H1183 H 0.58521 0.60562 0.3852 0.0
C1184 C 0.42751 0.34376 0.07433 0.0
C1185 C 0.43727 0.3653 0.06681 0.0
C1186 C 0.4225 0.33848 0.10257 0.0
C1187 C 0.42693 0.35536 0.12379 0.0
C1188 C 0.43489 0.37787 0.11607 0.0
C1189 C 0.44017 0.38254 0.08759 0.0
C1190 C 0.41407 0.3142 0.10984 0.0
C1191 C 0.43918 0.39653 0.13796 0.0
C1192 C 0.40041 0.33458 0.19213 0.0
C1193 C 0.41905 0.32173 0.20339 0.0
C1194 C 0.40335 0.34811 0.16767 0.0
C1195 C 0.42528 0.34825 0.15395 0.0
C1196 C 0.44472 0.33733 0.16697 0.0
C1197 C 0.4414 0.32437 0.19181 0.0
C1198 C 0.38241 0.36021 0.155 0.0
C1199 C 0.46842 0.33706 0.15299 0.0
H1200 H 0.42513 0.3304 0.05834 0.0
H1201 H 0.44765 0.39927 0.08186 0.0
H1202 H 0.42748 0.30508 0.12269 0.0
H1203 H 0.3979 0.31511 0.12269 0.0
H1204 H 0.41045 0.30353 0.09071 0.0
H1205 H 0.44004 0.41417 0.12826 0.0
H1206 H 0.42531 0.39644 0.15435 0.0
H1207 H 0.45605 0.3931 0.14871 0.0
H1208 H 0.38314 0.33276 0.20128 0.0
H1209 H 0.45585 0.31446 0.20049 0.0
H1210 H 0.37523 0.34936 0.13761 0.0
H1211 H 0.38738 0.37736 0.1459 0.0
H1212 H 0.36841 0.36289 0.17092 0.0
H1213 H 0.46761 0.32624 0.13354 0.0
H1214 H 0.48215 0.3298 0.16707 0.0
H1215 H 0.47358 0.35494 0.14655 0.0
C1216 C 0.48275 0.61036 0.90849 0.0
C1217 C 0.48735 0.62488 0.93171 0.0
C1218 C 0.46437 0.61524 0.88985 0.0
C1219 C 0.45027 0.63512 0.89457 0.0
C1220 C 0.45381 0.64893 0.91906 0.0
C1221 C 0.47237 0.64363 0.9374 0.0
C1222 C 0.46113 0.60003 0.86406 0.0
C1223 C 0.43902 0.67019 0.92489 0.0
C1224 C 0.42723 0.66612 0.82959 0.0
C1225 C 0.40384 0.65897 0.82906 0.0
C1226 C 0.44245 0.65838 0.85078 0.0
C1227 C 0.43405 0.64316 0.87207 0.0
C1228 C 0.41051 0.63564 0.87152 0.0
C1229 C 0.39564 0.64361 0.84991 0.0
C1230 C 0.4675 0.66666 0.85046 0.0
C1231 C 0.40099 0.61946 0.89393 0.0
H1232 H 0.49416 0.5957 0.90414 0.0
H1233 H 0.4758 0.65483 0.9554 0.0
H1234 H 0.44246 0.59546 0.86122 0.0
H1235 H 0.46674 0.60977 0.84494 0.0
H1236 H 0.47147 0.58366 0.86537 0.0
H1237 H 0.4419 0.67717 0.94653 0.0
H1238 H 0.44336 0.68408 0.9094 0.0
H1239 H 0.42022 0.66602 0.92232 0.0
H1240 H 0.43366 0.67799 0.81352 0.0
H1241 H 0.37752 0.63815 0.84964 0.0
H1242 H 0.47949 0.65148 0.8494 0.0
H1243 H 0.47147 0.67621 0.8703 0.0
H1244 H 0.47127 0.67836 0.83227 0.0
H1245 H 0.41137 0.60312 0.89454 0.0
H1246 H 0.38238 0.61492 0.89022 0.0
H1247 H 0.40257 0.62777 0.91503 0.0
C1248 C 0.08393 0.71864 0.66828 0.0
C1249 C 0.07235 0.72413 0.69355 0.0
C1250 C 0.07154 0.71112 0.64444 0.0
C1251 C 0.04702 0.70856 0.64606 0.0
C1252 C 0.03522 0.71371 0.67164 0.0
C1253 C 0.04805 0.72158 0.69511 0.0
C1254 C 0.08465 0.7064 0.61731 0.0
C1255 C 0.00904 0.71133 0.67397 0.0
C1256 C 0.01448 0.70922 0.57614 0.0
C1257 C 0.01227 0.6853 0.57052 0.0
C1258 C 0.02518 0.71712 0.60104 0.0
C1259 C 0.03384 0.70064 0.62078 0.0
C1260 C 0.03115 0.67647 0.6155 0.0
C1261 C 0.0205 0.66908 0.59034 0.0
C1262 C 0.02801 0.7431 0.60537 0.0
C1263 C 0.03983 0.6584 0.63625 0.0
H1264 H 0.10268 0.7209 0.6668 0.0
H1265 H 0.03902 0.72605 0.71452 0.0
H1266 H 0.08247 0.68786 0.61112 0.0
H1267 H 0.07739 0.71723 0.59996 0.0
H1268 H 0.10361 0.71019 0.61924 0.0
H1269 H 0.00244 0.71648 0.69516 0.0
H1270 H 0.00041 0.72235 0.65775 0.0
H1271 H 0.00386 0.69299 0.66978 0.0
H1272 H 0.00812 0.72184 0.56088 0.0
H1273 H 0.01859 0.65057 0.58621 0.0
H1274 H 0.0452 0.74854 0.59682 0.0
H1275 H 0.02748 0.74798 0.62804 0.0
H1276 H 0.0143 0.75307 0.59396 0.0
H1277 H 0.05912 0.65952 0.63803 0.0
H1278 H 0.03509 0.64036 0.62983 0.0
H1279 H 0.0325 0.66184 0.65756 0.0
C1280 C 0.05122 0.35708 0.43593 0.0
C1281 C 0.03844 0.37713 0.42898 0.0
C1282 C 0.06683 0.34715 0.41648 0.0
C1283 C 0.06968 0.35759 0.38954 0.0
C1284 C 0.05819 0.37883 0.3833 0.0
C1285 C 0.04266 0.38835 0.40311 0.0
C1286 C 0.0789 0.32456 0.424 0.0
C1287 C 0.06093 0.3906 0.35492 0.0
C1288 C 0.1176 0.33411 0.34167 0.0
C1289 C 0.10518 0.31777 0.32549 0.0
C1290 C 0.10626 0.34761 0.36233 0.0
C1291 C 0.082 0.34465 0.36676 0.0
C1292 C 0.06931 0.32866 0.34988 0.0
C1293 C 0.08106 0.31541 0.32949 0.0
C1294 C 0.12031 0.36454 0.3799 0.0
C1295 C 0.04336 0.32511 0.3538 0.0
H1296 H 0.04812 0.34841 0.45597 0.0
H1297 H 0.03295 0.40397 0.39772 0.0
H1298 H 0.07109 0.31008 0.41161 0.0
H1299 H 0.0977 0.32542 0.41847 0.0
H1300 H 0.07724 0.32034 0.44685 0.0
H1301 H 0.0537 0.4086 0.35494 0.0
H1302 H 0.07958 0.39138 0.34868 0.0
H1303 H 0.0516 0.3803 0.33857 0.0
H1304 H 0.13627 0.33595 0.33865 0.0
H1305 H 0.07137 0.30286 0.31698 0.0
H1306 H 0.1204 0.35875 0.4023 0.0
H1307 H 0.11219 0.38211 0.37933 0.0
H1308 H 0.13866 0.36598 0.37249 0.0
H1309 H 0.03981 0.31853 0.37545 0.0
H1310 H 0.03597 0.31252 0.33833 0.0
H1311 H 0.03405 0.34199 0.35149 0.0
C1312 C 0.43704 0.67475 0.41911 0.0
C1313 C 0.43639 0.6503 0.41946 0.0
C1314 C 0.42912 0.68731 0.39555 0.0
C1315 C 0.42057 0.67511 0.37165 0.0
C1316 C 0.41996 0.65041 0.37182 0.0
C1317 C 0.42777 0.63828 0.39583 0.0
C1318 C 0.42979 0.71367 0.39631 0.0
C1319 C 0.41114 0.63684 0.34662 0.0
C1320 C 0.37991 0.71056 0.32554 0.0
C1321 C 0.39526 0.71929 0.30498 0.0
C1322 C 0.38772 0.69527 0.34663 0.0
C1323 C 0.41143 0.68841 0.34705 0.0
C1324 C 0.42671 0.69601 0.32534 0.0
C1325 C 0.41843 0.71145 0.30453 0.0
C1326 C 0.37088 0.68762 0.36942 0.0
C1327 C 0.45206 0.68881 0.32496 0.0
H1328 H 0.44375 0.6841 0.4373 0.0
H1329 H 0.42746 0.61936 0.39593 0.0
H1330 H 0.44052 0.72039 0.37855 0.0
H1331 H 0.4119 0.72076 0.39361 0.0
H1332 H 0.4371 0.72048 0.41645 0.0
H1333 H 0.41239 0.61768 0.34984 0.0
H1334 H 0.39265 0.64141 0.34238 0.0
H1335 H 0.4213 0.64161 0.32749 0.0
H1336 H 0.36193 0.71646 0.32592 0.0
H1337 H 0.43035 0.71814 0.28866 0.0
H1338 H 0.37606 0.69553 0.38991 0.0
H1339 H 0.37146 0.6684 0.37209 0.0
H1340 H 0.35262 0.69287 0.3647 0.0
H1341 H 0.46135 0.69717 0.34287 0.0
H1342 H 0.46089 0.69392 0.30498 0.0
H1343 H 0.45367 0.66964 0.32771 0.0
C1344 C 0.02609 0.6362 0.08788 0.0
C1345 C 0.02329 0.64512 0.06046 0.0
C1346 C 0.03861 0.64857 0.10841 0.0
C1347 C 0.04882 0.67026 0.10124 0.0
C1348 C 0.04703 0.67884 0.07322 0.0
C1349 C 0.03414 0.66619 0.05314 0.0
C1350 C 0.03993 0.63895 0.13812 0.0
C1351 C 0.05794 0.7018 0.06478 0.0
C1352 C 0.05628 0.7134 0.16125 0.0
C1353 C 0.07985 0.71038 0.16827 0.0
C1354 C 0.04606 0.70065 0.13922 0.0
C1355 C 0.05984 0.68466 0.12365 0.0
C1356 C 0.08376 0.68178 0.13034 0.0
C1357 C 0.09347 0.69461 0.15273 0.0
C1358 C 0.0204 0.704 0.13292 0.0
C1359 C 0.09899 0.66502 0.11402 0.0
H1360 H 0.0177 0.61992 0.09367 0.0
H1361 H 0.03205 0.67311 0.03195 0.0
H1362 H 0.05833 0.63837 0.14543 0.0
H1363 H 0.03027 0.65061 0.15275 0.0
H1364 H 0.0324 0.62113 0.13975 0.0
H1365 H 0.05687 0.70492 0.04163 0.0
H1366 H 0.0489 0.7163 0.07582 0.0
H1367 H 0.07654 0.70232 0.0713 0.0
H1368 H 0.04569 0.72559 0.17322 0.0
H1369 H 0.11175 0.69235 0.158 0.0
H1370 H 0.01093 0.68731 0.13613 0.0
H1371 H 0.01798 0.70912 0.11049 0.0
H1372 H 0.01229 0.71754 0.14657 0.0
H1373 H 0.0924 0.64695 0.1167 0.0
H1374 H 0.11749 0.66561 0.12104 0.0
H1375 H 0.09825 0.66912 0.0911 0.0
C1376 C 0.07467 0.29154 0.78886 0.0
C1377 C 0.061 0.27155 0.78461 0.0
C1378 C 0.07029 0.30657 0.81167 0.0
C1379 C 0.0518 0.30141 0.83051 0.0
C1380 C 0.03647 0.28264 0.82456 0.0
C1381 C 0.04124 0.26793 0.80158 0.0
C1382 C 0.08684 0.32659 0.81707 0.0
C1383 C 0.01629 0.27682 0.84389 0.0
C1384 C 0.0608 0.31413 0.9084 0.0
C1385 C 0.04648 0.33364 0.91243 0.0
C1386 C 0.06297 0.30378 0.88167 0.0
C1387 C 0.05058 0.31327 0.8584 0.0
C1388 C 0.03665 0.3334 0.86214 0.0
C1389 C 0.03475 0.34337 0.88916 0.0
C1390 C 0.07792 0.28221 0.87855 0.0
C1391 C 0.02345 0.34412 0.83774 0.0
H1392 H 0.08986 0.29453 0.77567 0.0
H1393 H 0.0305 0.25259 0.79827 0.0
H1394 H 0.07717 0.34248 0.82353 0.0
H1395 H 0.0988 0.32188 0.83464 0.0
H1396 H 0.09755 0.33074 0.79813 0.0
H1397 H 0.0044 0.26361 0.83448 0.0
H1398 H 0.0231 0.26983 0.86418 0.0
H1399 H 0.00605 0.29273 0.84885 0.0
H1400 H 0.06978 0.30648 0.92633 0.0
H1401 H 0.02358 0.35843 0.89219 0.0
H1402 H 0.09116 0.28489 0.86174 0.0
H1403 H 0.06689 0.2672 0.87209 0.0
H1404 H 0.08707 0.27756 0.89849 0.0
H1405 H 0.03591 0.35003 0.82127 0.0
H1406 H 0.01266 0.35926 0.84441 0.0
H1407 H 0.0119 0.33091 0.82781 0.0
C1408 C 0.43993 0.30192 0.54863 0.0
C1409 C 0.44726 0.32523 0.54999 0.0
C1410 C 0.42613 0.29226 0.57023 0.0
C1411 C 0.41971 0.30629 0.59362 0.0
C1412 C 0.42589 0.33019 0.59417 0.0
C1413 C 0.43954 0.33938 0.57229 0.0
C1414 C 0.41964 0.26675 0.56882 0.0
C1415 C 0.41943 0.3457 0.61879 0.0
C1416 C 0.37447 0.28605 0.64698 0.0
C1417 C 0.38873 0.27711 0.66851 0.0
C1418 C 0.38424 0.2952 0.62211 0.0
C1419 C 0.40881 0.29556 0.61895 0.0
C1420 C 0.42325 0.28648 0.64061 0.0
C1421 C 0.41302 0.27728 0.66509 0.0
C1422 C 0.36835 0.30452 0.59928 0.0
C1423 C 0.44956 0.2867 0.63809 0.0
H1424 H 0.4458 0.29094 0.53137 0.0
H1425 H 0.44506 0.35747 0.57334 0.0
H1426 H 0.42987 0.25688 0.58477 0.0
H1427 H 0.4009 0.26429 0.57394 0.0
H1428 H 0.42317 0.25912 0.54765 0.0
H1429 H 0.4236 0.36434 0.61469 0.0
H1430 H 0.40053 0.3442 0.62357 0.0
H1431 H 0.42911 0.34002 0.63792 0.0
H1432 H 0.35565 0.28573 0.64947 0.0
H1433 H 0.42411 0.27028 0.68163 0.0
H1434 H 0.37199 0.29555 0.57896 0.0
H1435 H 0.37176 0.32338 0.59595 0.0
H1436 H 0.3496 0.30218 0.60458 0.0
H1437 H 0.45504 0.27702 0.61889 0.0
H1438 H 0.45825 0.27874 0.65675 0.0
H1439 H 0.45586 0.30491 0.63579 0.0
C1440 C 0.32423 0.27922 0.26437 0.0
C1441 C 0.33598 0.25791 0.26157 0.0
C1442 C 0.29982 0.28002 0.26593 0.0
C1443 C 0.28694 0.25893 0.26546 0.0
C1444 C 0.29877 0.2373 0.26351 0.0
C1445 C 0.3232 0.23706 0.26116 0.0
C1446 C 0.28779 0.30345 0.26734 0.0
C1447 C 0.28563 0.21445 0.26373 0.0
C1448 C 0.2251 0.26297 0.29363 0.0
C1449 C 0.21209 0.26369 0.26855 0.0
C1450 C 0.24946 0.26063 0.29295 0.0
C1451 C 0.26105 0.25966 0.26654 0.0
C1452 C 0.24795 0.26033 0.24114 0.0
C1453 C 0.22354 0.26201 0.24247 0.0
C1454 C 0.26279 0.25935 0.32046 0.0
C1455 C 0.25975 0.25988 0.21258 0.0
H1456 H 0.33411 0.29537 0.2644 0.0
H1457 H 0.33233 0.22057 0.25908 0.0
H1458 H 0.2758 0.30543 0.24905 0.0
H1459 H 0.27704 0.30461 0.2868 0.0
H1460 H 0.30037 0.31821 0.26722 0.0
H1461 H 0.29753 0.19913 0.26366 0.0
H1462 H 0.27428 0.21344 0.28271 0.0
H1463 H 0.2741 0.21336 0.24493 0.0
H1464 H 0.21619 0.26403 0.31382 0.0
H1465 H 0.21344 0.26264 0.22308 0.0
H1466 H 0.27438 0.27477 0.32252 0.0
H1467 H 0.2741 0.24362 0.3207 0.0
H1468 H 0.25103 0.25875 0.33913 0.0
H1469 H 0.27167 0.27507 0.2106 0.0
H1470 H 0.24702 0.2604 0.19486 0.0
H1471 H 0.27053 0.24391 0.21046 0.0
C1472 C 0.99606 0.92234 0.487 0.0
C1473 C 0.01705 0.9104 0.48235 0.0
C1474 C 0.99465 0.94657 0.48323 0.0
C1475 C 0.01485 0.95914 0.47514 0.0
C1476 C 0.03597 0.94709 0.4698 0.0
C1477 C 0.03676 0.92278 0.47324 0.0
C1478 C 0.9717 0.95878 0.48858 0.0
C1479 C 0.05794 0.95996 0.46148 0.0
C1480 C 0.00819 0.0207 0.44661 0.0
C1481 C 0.0122 0.03409 0.47095 0.0
C1482 C 0.00888 0.99625 0.44765 0.0
C1483 C 0.01413 0.98501 0.47354 0.0
C1484 C 0.01849 -0.00153 0.4981 0.0
C1485 C 0.01726 0.02288 0.49655 0.0
C1486 C 0.00375 0.98244 0.42117 0.0
C1487 C 0.02448 0.9871 0.52599 0.0
H1488 H 0.98075 0.91276 0.4939 0.0
H1489 H 0.05306 0.91359 0.46977 0.0
H1490 H 0.9734 0.97054 0.50709 0.0
H1491 H 0.96694 0.96976 0.47012 0.0
H1492 H 0.95726 0.94629 0.49272 0.0
H1493 H 0.07268 0.94792 0.45702 0.0
H1494 H 0.05472 0.97081 0.44245 0.0
H1495 H 0.06319 0.97195 0.47878 0.0
H1496 H 0.00415 0.02935 0.42681 0.0
H1497 H 0.02047 0.03322 0.51536 0.0
H1498 H 0.9886 0.97075 0.42483 0.0
H1499 H 0.01887 0.97119 0.4158 0.0
H1500 H -0.00014 0.99385 0.40277 0.0
H1501 H 0.00987 0.97576 0.53296 0.0
H1502 H 0.02806 9e-05 0.54287 0.0
H1503 H 0.04007 0.97579 0.52347 0.0
C1504 C 0.27417 0.67854 0.79233 0.0
C1505 C 0.28626 0.68585 0.76809 0.0
C1506 C 0.25024 0.68324 0.79551 0.0
C1507 C 0.23821 0.69529 0.77381 0.0
C1508 C 0.25001 0.70109 0.74843 0.0
C1509 C 0.27393 0.69643 0.74596 0.0
C1510 C 0.23829 0.67678 0.82287 0.0
C1511 C 0.23772 0.71359 0.72456 0.0
C1512 C 0.17237 0.70205 0.77006 0.0
C1513 C 0.16977 0.72541 0.77832 0.0
C1514 C 0.19446 0.69139 0.76997 0.0
C1515 C 0.21423 0.70439 0.77863 0.0
C1516 C 0.21134 0.72738 0.78905 0.0
C1517 C 0.18915 0.73766 0.7886 0.0
C1518 C 0.19684 0.66685 0.75874 0.0
C1519 C 0.23192 0.7417 0.79897 0.0
H1520 H 0.28365 0.67037 0.80952 0.0
H1521 H 0.2832 0.70192 0.7271 0.0
H1522 H 0.23538 0.69278 0.8356 0.0
H1523 H 0.22094 0.66887 0.81873 0.0
H1524 H 0.24886 0.66438 0.83561 0.0
H1525 H 0.24864 0.71455 0.70517 0.0
H1526 H 0.2211 0.70466 0.71929 0.0
H1527 H 0.23335 0.73164 0.73124 0.0
H1528 H 0.15741 0.69253 0.76205 0.0
H1529 H 0.18716 0.75567 0.79522 0.0
H1530 H 0.2085 0.65632 0.77245 0.0
H1531 H 0.20484 0.66742 0.73737 0.0
H1532 H 0.17967 0.65792 0.7571 0.0
H1533 H 0.24266 0.73157 0.81415 0.0
H1534 H 0.22641 0.75824 0.80927 0.0
H1535 H 0.2432 0.74607 0.78063 0.0
C1536 C 0.46048 0.06484 0.98062 0.0
C1537 C 0.48395 0.06728 0.97268 0.0
C1538 C 0.44933 0.04302 0.97931 0.0
C1539 C 0.46195 0.02334 0.96964 0.0
C1540 C 0.48512 0.02611 0.95974 0.0
C1541 C 0.49588 0.04804 0.9615 0.0
C1542 C 0.4246 0.04077 0.99001 0.0
C1543 C 0.49909 0.00563 0.94888 0.0
C1544 C 0.4517 0.96259 -0.00168 0.0
C1545 C 0.44109 0.95155 0.97523 0.0
C1546 C 0.45719 0.98641 0.99743 0.0
C1547 C 0.45215 -0.00056 0.97271 0.0
C1548 C 0.44008 0.98873 0.95003 0.0
C1549 C 0.43458 0.96486 0.95162 0.0
C1550 C 0.46972 -0.00274 0.02228 0.0
C1551 C 0.43439 0.00203 0.92335 0.0
H1552 H 0.45119 0.07969 0.9893 0.0
H1553 H 0.51397 0.04989 0.95514 0.0
H1554 H 0.41391 0.03017 0.97527 0.0
H1555 H 0.4247 0.03164 0.01071 0.0
H1556 H 0.41613 0.05805 0.99285 0.0
H1557 H 0.51594 0.01112 0.93933 0.0
H1558 H 0.50283 0.99346 0.96657 0.0
H1559 H 0.48894 0.99583 0.9328 0.0
H1560 H 0.4566 0.95238 0.01671 0.0
H1561 H 0.42639 0.95637 0.93369 0.0
H1562 H 0.46119 0.01387 0.02847 0.0
H1563 H 0.48797 0.0014 0.0162 0.0
H1564 H 0.47012 0.98548 0.04095 0.0
H1565 H 0.4268 0.01934 0.92845 0.0
H1566 H 0.422 0.99235 0.90961 0.0
H1567 H 0.45069 0.00514 0.91123 0.0
C1568 C 0.19402 0.75094 0.21203 0.0
C1569 C 0.18138 0.74911 0.23732 0.0
C1570 C 0.21829 0.754 0.21232 0.0
C1571 C 0.23016 0.75485 0.23853 0.0
C1572 C 0.21758 0.75221 0.26411 0.0
C1573 C 0.19325 0.74957 0.26321 0.0
C1574 C 0.23111 0.75704 0.18464 0.0
C1575 C 0.22976 0.75261 0.29244 0.0
C1576 C 0.29559 0.74499 0.23957 0.0
C1577 C 0.30394 0.76782 0.24288 0.0
C1578 C 0.27157 0.74048 0.238 0.0
C1579 C 0.25565 0.75932 0.23926 0.0
C1580 C 0.26404 0.78248 0.24174 0.0
C1581 C 0.28813 0.78644 0.2438 0.0
C1582 C 0.26322 0.71554 0.23575 0.0
C1583 C 0.24755 0.80304 0.24261 0.0
H1584 H 0.18486 0.75069 0.19197 0.0
H1585 H 0.1835 0.74805 0.28278 0.0
H1586 H 0.23935 0.77456 0.18394 0.0
H1587 H 0.24532 0.74398 0.18284 0.0
H1588 H 0.21937 0.75521 0.16607 0.0
H1589 H 0.21763 0.74892 0.31022 0.0
H1590 H 0.24403 0.73952 0.29281 0.0
H1591 H 0.23782 0.76998 0.29593 0.0
H1592 H 0.30781 0.73054 0.23906 0.0
H1593 H 0.29459 0.80411 0.24627 0.0
H1594 H 0.25206 0.71339 0.21676 0.0
H1595 H 0.25236 0.71112 0.25443 0.0
H1596 H 0.27791 0.70292 0.23447 0.0
H1597 H 0.23599 0.80284 0.22378 0.0
H1598 H 0.25695 0.82 0.24324 0.0
H1599 H 0.23619 0.8018 0.26155 0.0
C1600 C 0.52802 0.96134 0.45846 0.0
C1601 C 0.52473 0.94854 0.48341 0.0
C1602 C 0.5249 0.98561 0.45809 0.0
C1603 C 0.51892 -0.00271 0.48343 0.0
C1604 C 0.51635 0.9845 0.50888 0.0
C1605 C 0.519 0.96019 0.50848 0.0
C1606 C 0.5273 -0.00136 0.43047 0.0
C1607 C 0.5105 0.99645 0.53645 0.0
C1608 C 0.52926 0.06227 0.49111 0.0
C1609 C 0.50642 0.07095 0.48959 0.0
C1610 C 0.5337 0.03833 0.48837 0.0
C1611 C 0.51489 0.02286 0.48341 0.0
C1612 C 0.49195 0.03172 0.48027 0.0
C1613 C 0.48795 0.05569 0.48373 0.0
C1614 C 0.55833 0.02947 0.49229 0.0
C1615 C 0.47154 0.01579 0.4743 0.0
H1616 H 0.53223 0.95227 0.43899 0.0
H1617 H 0.51653 0.95027 0.52778 0.0
H1618 H 0.51044 0.00706 0.42503 0.0
H1619 H 0.54047 0.01273 0.43252 0.0
H1620 H 0.53249 0.98701 0.41276 0.0
H1621 H 0.51038 0.98413 0.5546 0.0
H1622 H 0.52336 0.01048 0.54084 0.0
H1623 H 0.49306 0.00477 0.53494 0.0
H1624 H 0.54356 0.07404 0.49581 0.0
H1625 H 0.47029 0.06243 0.48241 0.0
H1626 H 0.56348 0.01822 0.47426 0.0
H1627 H 0.55924 0.01861 0.5117 0.0
H1628 H 0.57119 0.04391 0.49423 0.0
H1629 H 0.4755 0.00425 0.45607 0.0
H1630 H 0.45529 0.02566 0.46965 0.0
H1631 H 0.46831 0.0044 0.49287 0.0
C1632 C 0.17412 0.24359 0.75279 0.0
C1633 C 0.1646 0.22197 0.7451 0.0
C1634 C 0.19834 0.24688 0.75392 0.0
C1635 C 0.21334 0.22823 0.74657 0.0
C1636 C 0.20382 0.2064 0.73856 0.0
C1637 C 0.1795 0.20344 0.73823 0.0
C1638 C 0.20786 0.27028 0.76306 0.0
C1639 C 0.21931 0.18628 0.73 0.0
C1640 C 0.27417 0.24446 0.72204 0.0
C1641 C 0.28765 0.23897 0.74586 0.0
C1642 C 0.25 0.24078 0.7219 0.0
C1643 C 0.239 0.23185 0.74641 0.0
C1644 C 0.25247 0.22661 0.77072 0.0
C1645 C 0.27674 0.23 0.77005 0.0
C1646 C 0.23627 0.24622 0.69542 0.0
C1647 C 0.24123 0.2175 0.79742 0.0
H1648 H 0.1626 0.25788 0.7584 0.0
H1649 H 0.17212 0.18672 0.73227 0.0
H1650 H 0.21991 0.26801 0.78124 0.0
H1651 H 0.21808 0.27821 0.74559 0.0
H1652 H 0.19383 0.28264 0.76926 0.0
H1653 H 0.20913 0.17047 0.72426 0.0
H1654 H 0.23022 0.19141 0.71162 0.0
H1655 H 0.23136 0.18178 0.74754 0.0
H1656 H 0.28259 0.25122 0.7032 0.0
H1657 H 0.28716 0.22579 0.7885 0.0
H1658 H 0.22295 0.25976 0.69995 0.0
H1659 H 0.22684 0.23039 0.68818 0.0
H1660 H 0.24758 0.25252 0.67792 0.0
H1661 H 0.22774 0.22997 0.80487 0.0
H1662 H 0.25411 0.21476 0.81468 0.0
H1663 H 0.23229 0.20071 0.79308 0.0
C1664 C 0.96825 0.05365 0.02426 0.0
C1665 C 0.95569 0.06412 0.00224 0.0
C1666 C 0.97149 0.02941 0.02507 0.0
C1667 C 0.96234 0.01542 0.003 0.0
C1668 C 0.94886 0.02581 0.9813 0.0
C1669 C 0.94551 0.05007 0.98132 0.0
C1670 C 0.98554 0.01889 0.04891 0.0
C1671 C 0.9391 0.01151 0.95723 0.0
C1672 C 0.99651 0.95989 0.98976 0.0
C1673 C 0.98254 0.94318 0.0032 0.0
C1674 C 0.98961 0.98334 0.98854 0.0
C1675 C 0.96846 0.99026 0.00159 0.0
C1676 C 0.95396 0.97333 0.01451 0.0
C1677 C 0.96109 0.9499 0.01492 0.0
C1678 C 0.00532 0.00082 0.97404 0.0
C1679 C 0.93147 0.98012 0.02899 0.0
H1680 H 0.97602 0.06449 0.04053 0.0
H1681 H 0.93588 0.05815 0.96418 0.0
H1682 H 0.976 0.00396 0.0584 0.0
H1683 H 0.0023 0.01208 0.04056 0.0
H1684 H 0.98943 0.03179 0.0658 0.0
H1685 H 0.92737 0.02189 0.94337 0.0
H1686 H 0.95367 0.00462 0.9442 0.0
H1687 H 0.92927 0.99628 0.96546 0.0
H1688 H 0.01306 0.95469 0.98056 0.0
H1689 H 0.95032 0.93701 0.02549 0.0
H1690 H 0.01242 0.01323 0.98987 0.0
H1691 H 0.99523 0.01115 0.9584 0.0
H1692 H 0.02019 0.99233 0.96301 0.0
H1693 H 0.93541 0.99131 0.04754 0.0
H1694 H 0.92142 0.96468 0.03635 0.0
H1695 H 0.92032 0.99048 0.0145 0.0
C1696 C 0.8187 0.79872 0.75642 0.0
C1697 C 0.82391 0.77561 0.76384 0.0
C1698 C 0.79557 0.80682 0.75648 0.0
C1699 C 0.77738 0.79151 0.76463 0.0
C1700 C 0.78275 0.76854 0.77363 0.0
C1701 C 0.80594 0.7608 0.77286 0.0
C1702 C 0.79049 0.83131 0.74642 0.0
C1703 C 0.76387 0.75183 0.783 0.0
C1704 C 0.71665 0.81303 0.7831 0.0
C1705 C 0.70406 0.80623 0.75905 0.0
C1706 C 0.74081 0.80921 0.78487 0.0
C1707 C 0.75258 0.79871 0.76184 0.0
C1708 C 0.74015 0.79321 0.73682 0.0
C1709 C 0.71597 0.79684 0.73583 0.0
C1710 C 0.75342 0.81509 0.81198 0.0
C1711 C 0.75219 0.78244 0.71158 0.0
H1712 H 0.83257 0.81018 0.74928 0.0
H1713 H 0.80997 0.74295 0.77876 0.0
H1714 H 0.78094 0.83056 0.72602 0.0
H1715 H 0.77912 0.84054 0.76174 0.0
H1716 H 0.80669 0.84168 0.74331 0.0
H1717 H 0.77114 0.73536 0.79173 0.0
H1718 H 0.7527 0.7601 0.79935 0.0
H1719 H 0.75248 0.74745 0.76477 0.0
H1720 H 0.70744 0.82021 0.80115 0.0
H1721 H 0.70627 0.79171 0.71714 0.0
H1722 H 0.76957 0.82512 0.80748 0.0
H1723 H 0.75873 0.79872 0.82276 0.0
H1724 H 0.74235 0.82538 0.8267 0.0
H1725 H 0.76796 0.79265 0.70588 0.0
H1726 H 0.74056 0.78147 0.69281 0.0
H1727 H 0.758 0.7645 0.71694 0.0
C1728 C 0.675 0.2442 0.21727 0.0
C1729 C 0.66097 0.23856 0.24058 0.0
C1730 C 0.69938 0.24465 0.21965 0.0
C1731 C 0.70987 0.23978 0.2461 0.0
C1732 C 0.69572 0.23502 0.26997 0.0
C1733 C 0.67139 0.23423 0.26685 0.0
C1734 C 0.71393 0.24943 0.19364 0.0
C1735 C 0.70631 0.23021 0.29864 0.0
C1736 C 0.77129 0.21532 0.24802 0.0
C1737 C 0.78446 0.23527 0.25419 0.0
C1738 C 0.74701 0.21666 0.24481 0.0
C1739 C 0.73565 0.23839 0.24847 0.0
C1740 C 0.74888 0.25862 0.25467 0.0
C1741 C 0.77322 0.25685 0.25717 0.0
C1742 C 0.73351 0.1948 0.23764 0.0
C1743 C 0.73729 0.28199 0.25919 0.0
H1744 H 0.66695 0.24745 0.19689 0.0
H1745 H 0.66053 0.23001 0.28492 0.0
H1746 H 0.72623 0.26401 0.19766 0.0
H1747 H 0.72457 0.23381 0.1885 0.0
H1748 H 0.70305 0.25387 0.17495 0.0
H1749 H 0.69285 0.22864 0.31546 0.0
H1750 H 0.71645 0.21373 0.29791 0.0
H1751 H 0.71861 0.24437 0.30449 0.0
H1752 H 0.78 0.19864 0.24558 0.0
H1753 H 0.7834 0.27227 0.26214 0.0
H1754 H 0.7231 0.19759 0.21814 0.0
H1755 H 0.72107 0.19067 0.25492 0.0
H1756 H 0.7451 0.17948 0.23438 0.0
H1757 H 0.72709 0.28695 0.24017 0.0
H1758 H 0.75011 0.29605 0.26375 0.0
H1759 H 0.72483 0.28084 0.27711 0.0
C1760 C 0.71003 0.28948 0.74981 0.0
C1761 C 0.70299 0.26729 0.75893 0.0
C1762 C 0.7338 0.29519 0.7478 0.0
C1763 C 0.75077 0.27849 0.75582 0.0
C1764 C 0.74364 0.25651 0.76647 0.0
C1765 C 0.71981 0.25105 0.7675 0.0
C1766 C 0.74076 0.3186 0.7358 0.0
C1767 C 0.7612 0.23848 0.77598 0.0
C1768 C 0.81181 0.27728 0.72504 0.0
C1769 C 0.82487 0.287 0.7471 0.0
C1770 C 0.78742 0.27567 0.72693 0.0
C1771 C 0.77601 0.28336 0.75183 0.0
C1772 C 0.78908 0.29395 0.77374 0.0
C1773 C 0.81337 0.2959 0.77095 0.0
C1774 C 0.77398 0.26485 0.70278 0.0
C1775 C 0.77762 0.30192 0.80083 0.0
H1776 H 0.69699 0.30195 0.74289 0.0
H1777 H 0.71432 0.23392 0.77465 0.0
H1778 H 0.7532 0.32754 0.75013 0.0
H1779 H 0.7498 0.31602 0.71528 0.0
H1780 H 0.72547 0.33019 0.73231 0.0
H1781 H 0.75274 0.22311 0.78601 0.0
H1782 H 0.77151 0.23235 0.75756 0.0
H1783 H 0.77363 0.24628 0.7913 0.0
H1784 H 0.8207 0.2705 0.70653 0.0
H1785 H 0.82349 0.30327 0.78815 0.0
H1786 H 0.75891 0.27604 0.69695 0.0
H1787 H 0.76692 0.24767 0.70943 0.0
H1788 H 0.78505 0.26222 0.68376 0.0
H1789 H 0.76243 0.3133 0.7962 0.0
H1790 H 0.7899 0.31157 0.81476 0.0
H1791 H 0.77096 0.28651 0.81255 0.0
C1792 C 0.80779 0.71303 0.28744 0.0
C1793 C 0.81717 0.73346 0.27572 0.0
C1794 C 0.78355 0.70982 0.28925 0.0
C1795 C 0.76843 0.72754 0.27929 0.0
C1796 C 0.77783 0.74868 0.26876 0.0
C1797 C 0.80211 0.75135 0.26701 0.0
C1798 C 0.77415 0.68703 0.30058 0.0
C1799 C 0.76224 0.7681 0.25825 0.0
C1800 C 0.70845 0.71089 0.25193 0.0
C1801 C 0.69409 0.71735 0.2746 0.0
C1802 C 0.73273 0.71376 0.25342 0.0
C1803 C 0.74284 0.72344 0.27811 0.0
C1804 C 0.72846 0.72973 0.30121 0.0
C1805 C 0.70423 0.72655 0.2992 0.0
C1806 C 0.74754 0.70673 0.2284 0.0
C1807 C 0.73862 0.7402 0.3278 0.0
H1808 H 0.81938 0.69913 0.29416 0.0
H1809 H 0.8093 0.76722 0.25805 0.0
H1810 H 0.76094 0.69033 0.31726 0.0
H1811 H 0.7653 0.67734 0.28332 0.0
H1812 H 0.78813 0.67579 0.30949 0.0
H1813 H 0.77225 0.7841 0.25284 0.0
H1814 H 0.75269 0.76222 0.23912 0.0
H1815 H 0.749 0.77258 0.27449 0.0
H1816 H 0.70068 0.70373 0.23291 0.0
H1817 H 0.69318 0.7316 0.31678 0.0
H1818 H 0.76109 0.69405 0.23514 0.0
H1819 H 0.75674 0.72225 0.21983 0.0
H1820 H 0.73705 0.69876 0.21116 0.0
H1821 H 0.75206 0.72839 0.33679 0.0
H1822 H 0.72512 0.7435 0.34418 0.0
H1823 H 0.7474 0.75695 0.32273 0.0
C1824 C 0.49375 0.45065 0.96629 0.0
C1825 C 0.50715 0.43087 0.97249 0.0
C1826 C 0.50398 0.47288 0.96538 0.0
C1827 C 0.52808 0.47538 0.97138 0.0
C1828 C 0.54186 0.45536 0.97668 0.0
C1829 C 0.53125 0.43327 0.97692 0.0
C1830 C 0.48878 0.49379 0.95906 0.0
C1831 C 0.56753 0.45735 0.98353 0.0
C1832 C 0.55472 0.53395 0.95227 0.0
C1833 C 0.55146 0.54641 0.97748 0.0
C1834 C 0.54804 0.51044 0.95019 0.0
C1835 C 0.53831 0.49912 0.97406 0.0
C1836 C 0.53652 0.51121 9e-05 0.0
C1837 C 0.5429 0.53481 0.0014 0.0
C1838 C 0.54997 0.49821 0.92201 0.0
C1839 C 0.52675 0.49959 0.0262 0.0
H1840 H 0.47514 0.44882 0.96272 0.0
H1841 H 0.54164 0.418 0.98188 0.0
H1842 H 0.48739 0.50491 0.97819 0.0
H1843 H 0.49676 0.50456 0.94211 0.0
H1844 H 0.4709 0.48868 0.95238 0.0
H1845 H 0.5762 0.44003 0.98468 0.0
H1846 H 0.5766 0.46813 0.96743 0.0
H1847 H 0.5697 0.46626 0.00421 0.0
H1848 H 0.56119 0.54293 0.93367 0.0
H1849 H 0.54048 0.54441 0.02095 0.0
H1850 H 0.53222 0.49528 0.91328 0.0
H1851 H 0.55828 0.48086 0.92453 0.0
H1852 H 0.5602 0.50853 0.90643 0.0
H1853 H 0.50787 0.49608 0.02316 0.0
H1854 H 0.52889 0.51056 0.0454 0.0
H1855 H 0.53547 0.48256 0.02986 0.0
C1856 C 0.99549 0.4787 0.48911 0.0
C1857 C 0.97497 0.4658 0.48505 0.0
C1858 C 0.99493 0.50314 0.49039 0.0
C1859 C 0.97329 0.5149 0.4879 0.0
C1860 C 0.95246 0.50194 0.48424 0.0
C1861 C 0.95357 0.47752 0.48268 0.0
C1862 C 0.01752 0.5164 0.49409 0.0
C1863 C 0.92904 0.51389 0.48193 0.0
C1864 C 0.97093 0.57657 0.51677 0.0
C1865 C 0.97296 0.58989 0.49202 0.0
C1866 C 0.97049 0.55213 0.51567 0.0
C1867 C 0.9725 0.54078 0.48921 0.0
C1868 C 0.97435 0.55415 0.46411 0.0
C1869 C 0.97437 0.57861 0.4658 0.0
C1870 C 0.96812 0.53846 0.54284 0.0
C1871 C 0.9768 0.54262 0.43555 0.0
H1872 H 0.01207 0.4697 0.49082 0.0
H1873 H 0.93766 0.46758 0.47961 0.0
H1874 H 0.02009 0.52855 0.47607 0.0
H1875 H 0.01678 0.52711 0.51361 0.0
H1876 H 0.03289 0.50463 0.49543 0.0
H1877 H 0.91444 0.50124 0.47972 0.0
H1878 H 0.92588 0.52477 0.50095 0.0
H1879 H 0.9289 0.52573 0.46336 0.0
H1880 H 0.96969 0.58526 0.53708 0.0
H1881 H 0.97603 0.58889 0.44665 0.0
H1882 H 0.98396 0.52768 0.54627 0.0
H1883 H 0.95305 0.52634 0.54144 0.0
H1884 H 0.96566 0.54996 0.56152 0.0
H1885 H 0.99287 0.5318 0.43513 0.0
H1886 H 0.97771 0.55552 0.41803 0.0
H1887 H 0.96182 0.53077 0.43168 0.0
C1888 C 0.02997 0.43807 0.97384 0.0
C1889 C 0.02265 0.42527 0.99749 0.0
C1890 C 0.02513 0.462 0.97161 0.0
C1891 C 0.01326 0.4734 0.99392 0.0
C1892 C 0.00664 0.46068 0.01834 0.0
C1893 C 0.01112 0.43665 0.01964 0.0
C1894 C 0.03197 0.47488 0.94499 0.0
C1895 C 0.9945 0.47238 0.04289 0.0
C1896 C 0.0166 0.53923 0.0006 0.0
C1897 C 0.99419 0.54589 0.9918 0.0
C1898 C 0.02322 0.51568 0.00094 0.0
C1899 C 0.00723 0.49852 0.99159 0.0
C1900 C 0.98498 0.50528 0.98138 0.0
C1901 C 0.9786 0.52892 0.98197 0.0
C1902 C 0.0469 0.5091 0.01253 0.0
C1903 C 0.9677 0.4875 0.97054 0.0
H1904 H 0.03866 0.42919 0.95655 0.0
H1905 H 0.00552 0.42672 0.03796 0.0
H1906 H 0.01608 0.48165 0.93435 0.0
H1907 H 0.04306 0.49014 0.95026 0.0
H1908 H 0.04159 0.46357 0.92988 0.0
H1909 H 0.99191 0.46033 0.06104 0.0
H1910 H 0.00482 0.48763 0.05018 0.0
H1911 H 0.9772 0.47899 0.03605 0.0
H1912 H 0.02863 0.55234 0.00842 0.0
H1913 H 0.96131 0.53409 0.97506 0.0
H1914 H 0.05655 0.49825 0.99703 0.0
H1915 H 0.04468 0.49847 0.03197 0.0
H1916 H 0.05767 0.52464 0.01776 0.0
H1917 H 0.97606 0.47615 0.95445 0.0
H1918 H 0.95204 0.49579 0.96101 0.0
H1919 H 0.96195 0.47608 0.98817 0.0
C1920 C 0.50485 0.43508 0.47672 0.0
C1921 C 0.48707 0.41897 0.48238 0.0
C1922 C 0.50017 0.45911 0.47612 0.0
C1923 C 0.47729 0.46714 0.48198 0.0
C1924 C 0.45916 0.45088 0.48708 0.0
C1925 C 0.46423 0.42694 0.48691 0.0
C1926 C 0.51983 0.47592 0.46994 0.0
C1927 C 0.43465 0.4588 0.49388 0.0
C1928 C 0.47342 0.52867 0.51113 0.0
C1929 C 0.46634 0.54125 0.48723 0.0
C1930 C 0.47634 0.50439 0.50992 0.0
C1931 C 0.4726 0.49257 0.484 0.0
C1932 C 0.46512 0.50517 0.4599 0.0
C1933 C 0.46182 0.52937 0.4619 0.0
C1934 C 0.48384 0.49145 0.53623 0.0
C1935 C 0.46138 0.49322 0.4318 0.0
H1936 H 0.52249 0.42892 0.47311 0.0
H1937 H 0.45048 0.4145 0.49152 0.0
H1938 H 0.51472 0.48807 0.45274 0.0
H1939 H 0.52352 0.48662 0.48897 0.0
H1940 H 0.53614 0.4668 0.46366 0.0
H1941 H 0.42235 0.44393 0.49614 0.0
H1942 H 0.43471 0.46887 0.51393 0.0
H1943 H 0.42805 0.4706 0.47708 0.0
H1944 H 0.47683 0.53785 0.53075 0.0
H1945 H 0.45653 0.53911 0.44332 0.0
H1946 H 0.50139 0.48373 0.53294 0.0
H1947 H 0.47161 0.47687 0.54061 0.0
H1948 H 0.48453 0.50299 0.55509 0.0
H1949 H 0.47807 0.4855 0.42441 0.0
H1950 H 0.45487 0.50542 0.41532 0.0
H1951 H 0.4487 0.47871 0.43409 0.0
C1952 C 0.05031 0.33074 0.09234 0.0
C1953 C 0.06219 0.33162 0.06644 0.0
C1954 C 0.06161 0.32328 0.11705 0.0
C1955 C 0.08529 0.31626 0.11577 0.0
C1956 C 0.09739 0.31711 0.08967 0.0
C1957 C 0.08572 0.32493 0.06531 0.0
C1958 C 0.04818 0.32286 0.14454 0.0
C1959 C 0.12257 0.30955 0.08744 0.0
C1960 C 0.11863 0.31582 0.1852 0.0
C1961 C 0.11691 0.29231 0.19316 0.0
C1962 C 0.1089 0.32378 0.15971 0.0
C1963 C 0.09721 0.30781 0.14177 0.0
C1964 C 0.09595 0.28394 0.14936 0.0
C1965 C 0.10581 0.27647 0.17499 0.0
C1966 C 0.11059 0.34937 0.15234 0.0
C1967 C 0.08369 0.26638 0.13074 0.0
H1968 H 0.03215 0.33599 0.09333 0.0
H1969 H 0.09493 0.32551 0.0453 0.0
H1970 H 0.04752 0.30479 0.15295 0.0
H1971 H 0.05719 0.33377 0.16056 0.0
H1972 H 0.03002 0.32934 0.14205 0.0
H1973 H 0.12952 0.3114 0.06562 0.0
H1974 H 0.13355 0.32007 0.10197 0.0
H1975 H 0.12428 0.29104 0.09402 0.0
H1976 H 0.12723 0.32814 0.19915 0.0
H1977 H 0.10446 0.25826 0.18102 0.0
H1978 H 0.09284 0.35711 0.1516 0.0
H1979 H 0.11842 0.35157 0.13105 0.0
H1980 H 0.12123 0.3593 0.16787 0.0
H1981 H 0.06487 0.27078 0.12925 0.0
H1982 H 0.08535 0.24827 0.13892 0.0
H1983 H 0.09094 0.26701 0.109 0.0
C1984 C 0.93538 0.74346 0.34266 0.0
C1985 C 0.92497 0.75893 0.32344 0.0
C1986 C 0.94865 0.75185 0.36552 0.0
C1987 C 0.95168 0.77621 0.369 0.0
C1988 C 0.9412 0.79186 0.34965 0.0
C1989 C 0.92798 0.78303 0.32713 0.0
C1990 C 0.95924 0.73472 0.38612 0.0
C1991 C 0.9438 0.81797 0.35284 0.0
C1992 C 0.96649 0.80089 0.44115 0.0
C1993 C 0.99035 0.80589 0.43832 0.0
C1994 C 0.95384 0.79071 0.419 0.0
C1995 C 0.96531 0.78548 0.39329 0.0
C1996 C 0.98949 0.79014 0.39039 0.0
C1997 C 0.00181 0.80017 0.41306 0.0
C1998 C 0.92804 0.78619 0.42286 0.0
C1999 C 0.00214 0.78506 0.36307 0.0
H2000 H 0.9331 0.72482 0.33991 0.0
H2001 H 0.91999 0.79508 0.31233 0.0
H2002 H 0.97844 0.73716 0.38698 0.0
H2003 H 0.95245 0.73801 0.40772 0.0
H2004 H 0.95533 0.71633 0.38039 0.0
H2005 H 0.9348 0.82775 0.33572 0.0
H2006 H 0.9365 0.82361 0.37347 0.0
H2007 H 0.96255 0.82283 0.35271 0.0
H2008 H 0.95754 0.80518 0.46068 0.0
H2009 H 0.02025 0.80401 0.41078 0.0
H2010 H 0.92393 0.76769 0.4181 0.0
H2011 H 0.91793 0.79708 0.40781 0.0
H2012 H 0.92203 0.79018 0.44467 0.0
H2013 H 0.00054 0.76626 0.35782 0.0
H2014 H 0.02092 0.78979 0.36414 0.0
H2015 H 0.99402 0.79496 0.34547 0.0
C2016 C 0.38832 0.64538 0.68701 0.0
C2017 C 0.38469 0.66912 0.69272 0.0
C2018 C 0.3985 0.63811 0.66146 0.0
C2019 C 0.40514 0.65499 0.6411 0.0
C2020 C 0.40131 0.67897 0.64665 0.0
C2021 C 0.39117 0.68575 0.67241 0.0
C2022 C 0.40234 0.61238 0.65635 0.0
C2023 C 0.40806 0.69749 0.62543 0.0
C2024 C 0.4509 0.63866 0.58622 0.0
C2025 C 0.43704 0.63367 0.56253 0.0
C2026 C 0.44075 0.64555 0.61195 0.0
C2027 C 0.41616 0.64756 0.61401 0.0
C2028 C 0.40209 0.64254 0.59015 0.0
C2029 C 0.4127 0.63562 0.56472 0.0
C2030 C 0.45634 0.65068 0.63694 0.0
C2031 C 0.37582 0.64453 0.59146 0.0
H2032 H 0.3834 0.63244 0.70265 0.0
H2033 H 0.38841 0.70413 0.6767 0.0
H2034 H 0.39311 0.60687 0.63683 0.0
H2035 H 0.4212 0.60889 0.65308 0.0
H2036 H 0.39607 0.60147 0.67424 0.0
H2037 H 0.40364 0.71535 0.63281 0.0
H2038 H 0.4271 0.69666 0.62124 0.0
H2039 H 0.39902 0.69428 0.60504 0.0
H2040 H 0.46972 0.63716 0.58467 0.0
H2041 H 0.40188 0.63181 0.54648 0.0
H2042 H 0.45165 0.63916 0.65493 0.0
H2043 H 0.45371 0.66895 0.64404 0.0
H2044 H 0.47512 0.64815 0.63194 0.0
H2045 H 0.36886 0.6328 0.60812 0.0
H2046 H 0.36737 0.64 0.57103 0.0
H2047 H 0.37077 0.66261 0.59726 0.0
C2048 C 0.58186 0.23226 0.82784 0.0
C2049 C 0.60531 0.22704 0.8222 0.0
C2050 C 0.56998 0.22137 0.85025 0.0
C2051 C 0.58203 0.20527 0.8677 0.0
C2052 C 0.60603 0.20085 0.86289 0.0
C2053 C 0.6173 0.2116 0.84 0.0
C2054 C 0.54432 0.22628 0.85446 0.0
C2055 C 0.61962 0.18421 0.8814 0.0
C2056 C 0.55657 0.18811 0.93897 0.0
C2057 C 0.54763 0.16582 0.93318 0.0
C2058 C 0.56761 0.20129 0.9178 0.0
C2059 C 0.56936 0.19212 0.89009 0.0
C2060 C 0.55976 0.16988 0.88397 0.0
C2061 C 0.54921 0.1569 0.90567 0.0
C2062 C 0.57796 0.22473 0.92527 0.0
C2063 C 0.56094 0.15967 0.85456 0.0
H2064 H 0.57249 0.24406 0.81396 0.0
H2065 H 0.63547 0.20761 0.83573 0.0
H2066 H 0.53413 0.21013 0.8505 0.0
H2067 H 0.5409 0.2316 0.87662 0.0
H2068 H 0.53783 0.24019 0.8401 0.0
H2069 H 0.63855 0.18415 0.87626 0.0
H2070 H 0.61746 0.18895 0.904 0.0
H2071 H 0.61277 0.16624 0.87871 0.0
H2072 H 0.55547 0.19503 0.96027 0.0
H2073 H 0.54222 0.13972 0.90111 0.0
H2074 H 0.57078 0.23848 0.91123 0.0
H2075 H 0.59713 0.22434 0.9219 0.0
H2076 H 0.57449 0.2297 0.94759 0.0
H2077 H 0.55341 0.17209 0.83903 0.0
H2078 H 0.55143 0.14282 0.85292 0.0
H2079 H 0.57942 0.15673 0.84852 0.0
C2080 C 0.00547 0.68885 0.40205 0.0
C2081 C 0.01646 0.6827 0.42746 0.0
C2082 C 0.01855 0.69644 0.37869 0.0
C2083 C 0.04316 0.69806 0.38093 0.0
C2084 C 0.05437 0.69155 0.40639 0.0
C2085 C 0.04087 0.68394 0.42937 0.0
C2086 C 0.00603 0.70308 0.35174 0.0
C2087 C 0.08059 0.69271 0.40942 0.0
C2088 C 0.07684 0.70036 0.31189 0.0
C2089 C 0.08069 0.72441 0.30882 0.0
C2090 C 0.06513 0.69146 0.33561 0.0
C2091 C 0.05706 0.707 0.35671 0.0
C2092 C 0.06148 0.73122 0.35412 0.0
C2093 C 0.07324 0.73966 0.33016 0.0
C2094 C 0.0609 0.6655 0.33775 0.0
C2095 C 0.0536 0.74822 0.37657 0.0
H2096 H 0.98662 0.68781 0.40044 0.0
H2097 H 0.04946 0.67912 0.44895 0.0
H2098 H 0.00762 0.72218 0.34831 0.0
H2099 H 0.01413 0.69432 0.33327 0.0
H2100 H 0.98723 0.69839 0.35231 0.0
H2101 H 0.08664 0.68627 0.43034 0.0
H2102 H 0.08905 0.68215 0.39263 0.0
H2103 H 0.08663 0.71096 0.40671 0.0
H2104 H 0.08262 0.68848 0.29549 0.0
H2105 H 0.07631 0.75824 0.32797 0.0
H2106 H 0.04187 0.66192 0.33709 0.0
H2107 H 0.06752 0.65879 0.35825 0.0
H2108 H 0.06944 0.65566 0.32036 0.0
H2109 H 0.03461 0.74624 0.3805 0.0
H2110 H 0.05729 0.76662 0.37068 0.0
H2111 H 0.06264 0.74437 0.39677 0.0
C2112 C 0.59983 0.8041 0.6655 0.0
C2113 C 0.60526 0.82097 0.68595 0.0
C2114 C 0.58984 0.8105 0.63951 0.0
C2115 C 0.58503 0.83431 0.63394 0.0
C2116 C 0.59053 0.85141 0.6545 0.0
C2117 C 0.60065 0.84453 0.68022 0.0
C2118 C 0.58436 0.79178 0.61802 0.0
C2119 C 0.58556 0.87695 0.64941 0.0
C2120 C 0.57805 0.85446 0.55783 0.0
C2121 C 0.55369 0.85541 0.55506 0.0
C2122 C 0.58848 0.84742 0.58331 0.0
C2123 C 0.5742 0.84137 0.60663 0.0
C2124 C 0.54959 0.84231 0.60395 0.0
C2125 C 0.53962 0.84925 0.57815 0.0
C2126 C 0.61478 0.8465 0.58529 0.0
C2127 C 0.53379 0.83614 0.62841 0.0
H2128 H 0.60337 0.78586 0.66982 0.0
H2129 H 0.60475 0.85765 0.69598 0.0
H2130 H 0.56538 0.79173 0.61332 0.0
H2131 H 0.59361 0.79551 0.5979 0.0
H2132 H 0.58947 0.77411 0.62545 0.0
H2133 H 0.59087 0.88806 0.66756 0.0
H2134 H 0.59494 0.88301 0.63024 0.0
H2135 H 0.56663 0.87953 0.64552 0.0
H2136 H 0.58901 0.85914 0.54002 0.0
H2137 H 0.52079 0.84999 0.57612 0.0
H2138 H 0.62047 0.82865 0.59125 0.0
H2139 H 0.62095 0.85851 0.6021 0.0
H2140 H 0.62338 0.85138 0.56508 0.0
H2141 H 0.53724 0.81799 0.63542 0.0
H2142 H 0.51501 0.83772 0.62285 0.0
H2143 H 0.53749 0.84776 0.64663 0.0
C2144 C 0.39009 0.26999 0.83446 0.0
C2145 C 0.38482 0.28138 0.80901 0.0
C2146 C 0.401 0.28196 0.85676 0.0
C2147 C 0.40698 0.30579 0.85336 0.0
C2148 C 0.40144 0.31743 0.82783 0.0
C2149 C 0.39031 0.30511 0.80601 0.0
C2150 C 0.40639 0.26903 0.88382 0.0
C2151 C 0.4077 0.34277 0.82334 0.0
C2152 C 0.41841 0.34185 0.91931 0.0
C2153 C 0.44285 0.34117 0.92102 0.0
C2154 C 0.4065 0.33053 0.8973 0.0
C2155 C 0.41936 0.31843 0.87638 0.0
C2156 C 0.44407 0.31813 0.87764 0.0
C2157 C 0.45552 0.32943 0.90004 0.0
C2158 C 0.38015 0.33113 0.89676 0.0
C2159 C 0.45839 0.30562 0.85553 0.0
H2160 H 0.38585 0.25166 0.83688 0.0
H2161 H 0.38637 0.31398 0.78633 0.0
H2162 H 0.42553 0.2687 0.88738 0.0
H2163 H 0.39841 0.27821 0.90208 0.0
H2164 H 0.39986 0.25077 0.88345 0.0
H2165 H 0.40183 0.34937 0.80241 0.0
H2166 H 0.39969 0.35369 0.84011 0.0
H2167 H 0.42689 0.34504 0.82489 0.0
H2168 H 0.40852 0.35083 0.93554 0.0
H2169 H 0.47442 0.32887 0.90126 0.0
H2170 H 0.37316 0.3131 0.89828 0.0
H2171 H 0.37394 0.33853 0.87642 0.0
H2172 H 0.37276 0.34165 0.91435 0.0
H2173 H 0.45416 0.28672 0.85573 0.0
H2174 H 0.47746 0.30771 0.85902 0.0
H2175 H 0.45402 0.31234 0.83417 0.0
C2176 C 0.88599 0.18519 0.18554 0.0
C2177 C 0.8818 0.209 0.19015 0.0
C2178 C 0.89528 0.17725 0.15987 0.0
C2179 C 0.90041 0.1935 0.1382 0.0
C2180 C 0.89608 0.21757 0.14262 0.0
C2181 C 0.88686 0.22506 0.16863 0.0
C2182 C 0.89976 0.15146 0.15604 0.0
C2183 C 0.90125 0.23537 0.11992 0.0
C2184 C 0.94437 0.17371 0.08315 0.0
C2185 C 0.92975 0.16606 0.06125 0.0
C2186 C 0.93507 0.18321 0.10806 0.0
C2187 C 0.91055 0.18517 0.11108 0.0
C2188 C 0.89572 0.17794 0.08878 0.0
C2189 C 0.9055 0.16842 0.06413 0.0
C2190 C 0.95144 0.19064 0.13142 0.0
C2191 C 0.8695 0.17983 0.0912 0.0
H2192 H 0.88215 0.1727 0.20212 0.0
H2193 H 0.88363 0.24348 0.17211 0.0
H2194 H 0.88984 0.14484 0.13756 0.0
H2195 H 0.91855 0.14843 0.15167 0.0
H2196 H 0.89472 0.14111 0.17495 0.0
H2197 H 0.89654 0.25337 0.12652 0.0
H2198 H 0.9201 0.23497 0.11454 0.0
H2199 H 0.89147 0.23101 0.10037 0.0
H2200 H 0.96314 0.17198 0.081 0.0
H2201 H 0.89413 0.16263 0.0472 0.0
H2202 H 0.94837 0.17977 0.15049 0.0
H2203 H 0.948 0.20903 0.13743 0.0
H2204 H 0.97008 0.18897 0.12523 0.0
H2205 H 0.8632 0.16846 0.1086 0.0
H2206 H 0.86048 0.17466 0.07137 0.0
H2207 H 0.86444 0.19799 0.09654 0.0
C2208 C 0.92741 0.65041 0.93047 0.0
C2209 C 0.95136 0.6468 0.93475 0.0
C2210 C 0.9193 0.66344 0.90736 0.0
C2211 C 0.93555 0.67285 0.88789 0.0
C2212 C 0.95975 0.669 0.89188 0.0
C2213 C 0.96739 0.65612 0.9154 0.0
C2214 C 0.89338 0.66736 0.90395 0.0
C2215 C 0.97755 0.67851 0.87134 0.0
C2216 C 0.91302 0.68808 0.81473 0.0
C2217 C 0.91072 0.7124 0.81651 0.0
C2218 C 0.92131 0.67503 0.83771 0.0
C2219 C 0.92715 0.68656 0.86322 0.0
C2220 C 0.9247 0.7111 0.86523 0.0
C2221 C 0.91664 0.72377 0.84174 0.0
C2222 C 0.92393 0.64892 0.83466 0.0
C2223 C 0.93048 0.72395 0.89221 0.0
H2224 H 0.91495 0.64336 0.94548 0.0
H2225 H 0.98592 0.65337 0.91865 0.0
H2226 H 0.88956 0.68635 0.90379 0.0
H2227 H 0.88739 0.66019 0.8834 0.0
H2228 H 0.88308 0.65907 0.92115 0.0
H2229 H 0.99569 0.67362 0.8772 0.0
H2230 H 0.97389 0.67188 0.84974 0.0
H2231 H 0.97634 0.69782 0.87049 0.0
H2232 H 0.90859 0.67923 0.79519 0.0
H2233 H 0.91486 0.74257 0.84319 0.0
H2234 H 0.91278 0.63987 0.85041 0.0
H2235 H 0.94225 0.64375 0.83897 0.0
H2236 H 0.91906 0.6427 0.81321 0.0
H2237 H 0.91972 0.71707 0.90985 0.0
H2238 H 0.92742 0.74304 0.89039 0.0
H2239 H 0.94904 0.72102 0.8979 0.0
C2240 C 0.07186 0.16173 0.66786 0.0
C2241 C 0.07026 0.18587 0.67235 0.0
C2242 C 0.06414 0.15165 0.64252 0.0
C2243 C 0.05458 0.16605 0.62114 0.0
C2244 C 0.05295 0.19046 0.62551 0.0
C2245 C 0.06082 0.20009 0.65111 0.0
C2246 C 0.06618 0.12556 0.63864 0.0
C2247 C 0.04286 0.20636 0.60316 0.0
C2248 C 0.05429 0.14232 0.54618 0.0
C2249 C 0.03119 0.13451 0.54345 0.0
C2250 C 0.06208 0.15281 0.57127 0.0
C2251 C 0.04639 0.15551 0.59418 0.0
C2252 C 0.02305 0.14767 0.59154 0.0
C2253 C 0.01572 0.13727 0.56617 0.0
C2254 C 0.0871 0.16095 0.5733 0.0
C2255 C 0.00585 0.1502 0.61555 0.0
H2256 H 0.07913 0.15064 0.68422 0.0
H2257 H 0.05954 0.21876 0.65451 0.0
H2258 H 0.04868 0.1179 0.63473 0.0
H2259 H 0.07711 0.12165 0.61985 0.0
H2260 H 0.07401 0.11681 0.65735 0.0
H2261 H 0.04283 0.22495 0.60985 0.0
H2262 H 0.05308 0.20478 0.58332 0.0
H2263 H 0.02468 0.20106 0.59825 0.0
H2264 H 0.0663 0.1403 0.52864 0.0
H2265 H -0.00217 0.13131 0.56413 0.0
H2266 H 0.09609 0.15169 0.59079 0.0
H2267 H 0.08765 0.17987 0.57827 0.0
H2268 H 0.09697 0.15789 0.55342 0.0
H2269 H 0.01226 0.1406 0.63439 0.0
H2270 H 0.98825 0.14348 0.60997 0.0
H2271 H 0.00424 0.16883 0.62163 0.0
C2272 C 0.54595 0.31816 0.41621 0.0
C2273 C 0.52218 0.31878 0.42328 0.0
C2274 C 0.55364 0.30708 0.39147 0.0
C2275 C 0.53715 0.29639 0.37334 0.0
C2276 C 0.51308 0.29731 0.38007 0.0
C2277 C 0.50587 0.3084 0.40508 0.0
C2278 C 0.57944 0.30671 0.38483 0.0
C2279 C 0.495 0.28624 0.36108 0.0
C2280 C 0.55562 0.2842 0.29769 0.0
C2281 C 0.56157 0.26048 0.29902 0.0
C2282 C 0.54734 0.29604 0.32163 0.0
C2283 C 0.54517 0.28391 0.34756 0.0
C2284 C 0.55107 0.25993 0.349 0.0
C2285 C 0.55906 0.24844 0.32463 0.0
C2286 C 0.54122 0.32161 0.31926 0.0
C2287 C 0.54966 0.24661 0.37649 0.0
H2288 H 0.55863 0.3262 0.43017 0.0
H2289 H 0.48747 0.30882 0.41045 0.0
H2290 H 0.58575 0.28842 0.3839 0.0
H2291 H 0.58264 0.31461 0.36376 0.0
H2292 H 0.58993 0.3163 0.40081 0.0
H2293 H 0.47694 0.2909 0.36746 0.0
H2294 H 0.49763 0.29173 0.33881 0.0
H2295 H 0.49691 0.26699 0.36177 0.0
H2296 H 0.55749 0.29357 0.27789 0.0
H2297 H 0.56384 0.23016 0.3258 0.0
H2298 H 0.55244 0.33198 0.3337 0.0
H2299 H 0.52286 0.32447 0.32588 0.0
H2300 H 0.54345 0.32837 0.29741 0.0
H2301 H 0.56324 0.25313 0.39123 0.0
H2302 H 0.55241 0.22759 0.37342 0.0
H2303 H 0.53251 0.24947 0.38679 0.0
C2304 C 0.4042 0.8459 0.05394 0.0
C2305 C 0.42737 0.85133 0.04702 0.0
C2306 C 0.39856 0.83585 0.08015 0.0
C2307 C 0.41651 0.83132 0.10001 0.0
C2308 C 0.43995 0.83673 0.09312 0.0
C2309 C 0.44511 0.84658 0.06665 0.0
C2310 C 0.37337 0.8302 0.08666 0.0
C2311 C 0.45954 0.83235 0.11383 0.0
C2312 C 0.39852 0.82754 0.17715 0.0
C2313 C 0.39791 0.80335 0.18164 0.0
C2314 C 0.4049 0.83685 0.15082 0.0
C2315 C 0.41062 0.8216 0.12833 0.0
C2316 C 0.41028 0.79714 0.13279 0.0
C2317 C 0.40401 0.7883 0.15947 0.0
C2318 C 0.40525 0.86303 0.14699 0.0
C2319 C 0.41616 0.78034 0.10927 0.0
H2320 H 0.39043 0.84942 0.03879 0.0
H2321 H 0.46306 0.85074 0.0614 0.0
H2322 H 0.37161 0.81145 0.09215 0.0
H2323 H 0.36747 0.8404 0.10527 0.0
H2324 H 0.36159 0.83411 0.06859 0.0
H2325 H 0.47687 0.83719 0.10505 0.0
H2326 H 0.45654 0.84255 0.13343 0.0
H2327 H 0.45992 0.81365 0.1199 0.0
H2328 H 0.3939 0.83928 0.19424 0.0
H2329 H 0.40352 0.76959 0.16283 0.0
H2330 H 0.39241 0.86819 0.13058 0.0
H2331 H 0.42271 0.86874 0.13953 0.0
H2332 H 0.40107 0.87249 0.16686 0.0
H2333 H 0.40372 0.78265 0.0915 0.0
H2334 H 0.41551 0.76185 0.11632 0.0
H2335 H 0.43388 0.78406 0.10094 0.0
C2336 C 0.93777 0.36381 0.5612 0.0
C2337 C 0.96133 0.36699 0.55416 0.0
C2338 C 0.93128 0.35326 0.58678 0.0
C2339 C 0.94878 0.34572 0.60584 0.0
C2340 C 0.97262 0.3492 0.59908 0.0
C2341 C 0.97862 0.35979 0.57326 0.0
C2342 C 0.90566 0.34986 0.59321 0.0
C2343 C 0.99175 0.34145 0.61892 0.0
C2344 C 0.92928 0.33554 0.68165 0.0
C2345 C 0.92562 0.31134 0.68188 0.0
C2346 C 0.93744 0.34691 0.65726 0.0
C2347 C 0.94199 0.33375 0.63253 0.0
C2348 C 0.93885 0.30923 0.63286 0.0
C2349 C 0.93071 0.29832 0.65755 0.0
C2350 C 0.94064 0.37306 0.65775 0.0
C2351 C 0.94352 0.29459 0.60691 0.0
H2352 H 0.92431 0.36934 0.54652 0.0
H2353 H 0.99687 0.36221 0.56792 0.0
H2354 H 0.9018 0.33097 0.5955 0.0
H2355 H 0.90118 0.35835 0.61357 0.0
H2356 H 0.89422 0.35714 0.57641 0.0
H2357 H 0.0094 0.34609 0.61096 0.0
H2358 H 0.98928 0.34955 0.64002 0.0
H2359 H 0.99091 0.32226 0.62189 0.0
H2360 H 0.92545 0.34568 0.70044 0.0
H2361 H 0.92797 0.2796 0.65763 0.0
H2362 H 0.9283 0.38134 0.6427 0.0
H2363 H 0.95855 0.3777 0.65079 0.0
H2364 H 0.93762 0.38057 0.6791 0.0
H2365 H 0.93139 0.29974 0.58971 0.0
H2366 H 0.94132 0.27563 0.61106 0.0
H2367 H 0.96153 0.2977 0.59914 0.0
C2368 C 0.43996 0.2079 0.32091 0.0
C2369 C 0.43567 0.23198 0.31975 0.0
C2370 C 0.44784 0.19727 0.34582 0.0
C2371 C 0.45144 0.21103 0.37026 0.0
C2372 C 0.44733 0.2354 0.36924 0.0
C2373 C 0.43962 0.24565 0.34387 0.0
C2374 C 0.45196 0.17122 0.34607 0.0
C2375 C 0.45084 0.25053 0.39503 0.0
C2376 C 0.45003 0.17875 0.44033 0.0
C2377 C 0.47388 0.1756 0.44584 0.0
C2378 C 0.44248 0.19074 0.41614 0.0
C2379 C 0.4592 0.1997 0.39694 0.0
C2380 C 0.4833 0.1968 0.40256 0.0
C2381 C 0.49037 0.18483 0.42701 0.0
C2382 C 0.41662 0.19342 0.41083 0.0
C2383 C 0.50159 0.20581 0.38237 0.0
H2384 H 0.43699 0.19723 0.30232 0.0
H2385 H 0.43632 0.26427 0.34307 0.0
H2386 H 0.47018 0.1674 0.35252 0.0
H2387 H 0.4403 0.16282 0.36182 0.0
H2388 H 0.44874 0.1631 0.3251 0.0
H2389 H 0.44539 0.26888 0.39133 0.0
H2390 H 0.44072 0.24352 0.41314 0.0
H2391 H 0.46952 0.25032 0.40126 0.0
H2392 H 0.43721 0.17171 0.45489 0.0
H2393 H 0.50882 0.18242 0.43117 0.0
H2394 H 0.41175 0.18416 0.39108 0.0
H2395 H 0.41218 0.2121 0.40783 0.0
H2396 H 0.40591 0.18636 0.42845 0.0
H2397 H 0.50046 0.19619 0.36206 0.0
H2398 H 0.51952 0.20375 0.39094 0.0
H2399 H 0.49843 0.2245 0.37764 0.0
C2400 C 0.59529 0.64604 0.059 0.0
C2401 C 0.57158 0.64375 0.05211 0.0
C2402 C 0.60225 0.65488 0.08539 0.0
C2403 C 0.58509 0.66147 0.10542 0.0
C2404 C 0.56113 0.65917 0.09858 0.0
C2405 C 0.55466 0.65038 0.07198 0.0
C2406 C 0.62797 0.65716 0.09186 0.0
C2407 C 0.54231 0.66591 0.1194 0.0
C2408 C 0.60196 0.66379 0.18311 0.0
C2409 C 0.60488 0.68782 0.18746 0.0
C2410 C 0.5956 0.65498 0.1565 0.0
C2411 C 0.59218 0.67057 0.13364 0.0
C2412 C 0.5953 0.69485 0.13784 0.0
C2413 C 0.60157 0.70319 0.16473 0.0
C2414 C 0.59236 0.62899 0.15291 0.0
C2415 C 0.59191 0.71202 0.11395 0.0
H2416 H 0.60845 0.641 0.0437 0.0
H2417 H 0.53631 0.64865 0.06678 0.0
H2418 H 0.63222 0.67557 0.09702 0.0
H2419 H 0.63245 0.6465 0.11068 0.0
H2420 H 0.63911 0.65149 0.0739 0.0
H2421 H 0.52448 0.66308 0.11081 0.0
H2422 H 0.54422 0.65556 0.1391 0.0
H2423 H 0.54416 0.68458 0.12524 0.0
H2424 H 0.60447 0.65181 0.20061 0.0
H2425 H 0.60383 0.72179 0.16796 0.0
H2426 H 0.60423 0.62238 0.13619 0.0
H2427 H 0.57424 0.62522 0.14598 0.0
H2428 H 0.59585 0.6192 0.17275 0.0
H2429 H 0.60371 0.70761 0.09612 0.0
H2430 H 0.59539 0.7303 0.12057 0.0
H2431 H 0.57376 0.7109 0.10588 0.0
C2432 C 0.09012 0.80449 0.84256 0.0
C2433 C 0.07844 0.78803 0.82584 0.0
C2434 C 0.07936 0.81433 0.86639 0.0
C2435 C 0.05613 0.80798 0.87323 0.0
C2436 C 0.04419 0.79146 0.85629 0.0
C2437 C 0.05561 0.78145 0.83296 0.0
C2438 C 0.09287 0.83149 0.88428 0.0
C2439 C 0.01926 0.78462 0.86258 0.0
C2440 C 0.03638 0.81902 0.94872 0.0
C2441 C 0.02575 0.84098 0.94633 0.0
C2442 C 0.04596 0.80786 0.92499 0.0
C2443 C 0.04445 0.81872 0.89815 0.0
C2444 C 0.03288 0.84045 0.89544 0.0
C2445 C 0.02388 0.85145 0.91964 0.0
C2446 C 0.05851 0.78489 0.92885 0.0
C2447 C 0.03049 0.85235 0.86709 0.0
H2448 H 0.10782 0.80951 0.83716 0.0
H2449 H 0.04648 0.76885 0.81991 0.0
H2450 H 0.08395 0.84867 0.88424 0.0
H2451 H 0.09349 0.82535 0.90653 0.0
H2452 H 0.11104 0.83396 0.87662 0.0
H2453 H 0.01236 0.77172 0.84715 0.0
H2454 H 0.01801 0.77704 0.88411 0.0
H2455 H 0.00794 0.80033 0.86217 0.0
H2456 H 0.03797 0.81091 0.96935 0.0
H2457 H 0.01557 0.86838 0.91771 0.0
H2458 H 0.07721 0.787 0.92326 0.0
H2459 H 0.05113 0.77152 0.91444 0.0
H2460 H 0.05734 0.77831 0.95091 0.0
H2461 H 0.04798 0.8575 0.85918 0.0
H2462 H 0.01935 0.86819 0.8682 0.0
H2463 H 0.02287 0.84013 0.85139 0.0
loop_
_geom_bond_atom_site_label_1
_geom_bond_atom_site_label_2
_geom_bond_distance
_geom_bond_site_symmetry_2
_ccdc_geom_bond_type
In0 O1 2.294 . S
In0 O2 2.326 . S
In0 O6 2.266 . S
In0 O7 2.326 . S
In0 O8 2.266 . S
In0 O9 2.326 . S
In0 O11 2.294 . S
In0 O12 2.326 . S
O1 In0 2.294 . S
O1 C10 1.240 . S
O2 In0 2.326 . S
O2 C10 1.252 . S
C3 O6 1.252 . S
C3 O7 1.260 . S
C4 O11 1.240 . S
C4 O12 1.252 . S
C5 O8 1.252 . S
C5 O9 1.260 . S
O6 In0 2.266 . S
O6 C3 1.252 . S
O7 In0 2.326 . S
O7 C3 1.260 . S
O8 In0 2.266 . S
O8 C5 1.252 . S
O9 In0 2.326 . S
O9 C5 1.260 . S
C10 O1 1.240 . S
C10 O2 1.252 . S
O11 In0 2.294 . S
O11 C4 1.240 . S
O12 In0 2.326 . S
O12 C4 1.252 . S
In13 O14 2.294 . S
In13 O15 2.326 . S
In13 O19 2.266 . S
In13 O20 2.326 . S
In13 O21 2.266 . S
In13 O22 2.326 . S
In13 O24 2.294 . S
In13 O25 2.326 . S
O14 In13 2.294 . S
O14 C23 1.240 . S
O15 In13 2.326 . S
O15 C23 1.252 . S
C16 O19 1.252 . S
C16 O20 1.260 . S
C17 O24 1.240 . S
C17 O25 1.252 . S
C18 O21 1.252 . S
C18 O22 1.260 . S
O19 In13 2.266 . S
O19 C16 1.252 . S
O20 In13 2.326 . S
O20 C16 1.260 . S
O21 In13 2.266 . S
O21 C18 1.252 . S
O22 In13 2.326 . S
O22 C18 1.260 . S
C23 O14 1.240 . S
C23 O15 1.252 . S
O24 In13 2.294 . S
O24 C17 1.240 . S
O25 In13 2.326 . S
O25 C17 1.252 . S
In26 O27 2.294 . S
In26 O28 2.326 . S
In26 O32 2.266 . S
In26 O33 2.326 . S
In26 O34 2.266 . S
In26 O35 2.326 . S
In26 O37 2.294 . S
In26 O38 2.326 . S
O27 In26 2.294 . S
O27 C36 1.240 . S
O28 In26 2.326 . S
O28 C36 1.252 . S
C29 O32 1.252 . S
C29 O33 1.260 . S
C30 O37 1.240 . S
C30 O38 1.252 . S
C31 O34 1.252 . S
C31 O35 1.260 . S
O32 In26 2.266 . S
O32 C29 1.252 . S
O33 In26 2.326 . S
O33 C29 1.260 . S
O34 In26 2.266 . S
O34 C31 1.252 . S
O35 In26 2.326 . S
O35 C31 1.260 . S
C36 O27 1.240 . S
C36 O28 1.252 . S
O37 In26 2.294 . S
O37 C30 1.240 . S
O38 In26 2.326 . S
O38 C30 1.252 . S
In39 O40 2.294 . S
In39 O41 2.326 . S
In39 O45 2.266 . S
In39 O46 2.326 . S
In39 O47 2.266 . S
In39 O48 2.326 . S
In39 O50 2.294 1_554 S
In39 O51 2.326 1_554 S
O40 In39 2.294 . S
O40 C49 1.240 . S
O41 In39 2.326 . S
O41 C49 1.252 . S
C42 O45 1.252 . S
C42 O46 1.260 . S
C43 O50 1.240 . S
C43 O51 1.252 . S
C44 O47 1.252 . S
C44 O48 1.260 . S
O45 In39 2.266 . S
O45 C42 1.252 . S
O46 In39 2.326 . S
O46 C42 1.260 . S
O47 In39 2.266 . S
O47 C44 1.252 . S
O48 In39 2.326 . S
O48 C44 1.260 . S
C49 O40 1.240 . S
C49 O41 1.252 . S
O50 In39 2.294 1_556 S
O50 C43 1.240 . S
O51 In39 2.326 1_556 S
O51 C43 1.252 . S
In52 O53 2.294 . S
In52 O54 2.326 . S
In52 O58 2.266 . S
In52 O59 2.326 . S
In52 O60 2.266 . S
In52 O61 2.326 . S
In52 O63 2.294 . S
In52 O64 2.326 . S
O53 In52 2.294 . S
O53 C62 1.240 . S
O54 In52 2.326 . S
O54 C62 1.252 . S
C55 O58 1.252 . S
C55 O59 1.260 . S
C56 O63 1.240 . S
C56 O64 1.252 . S
C57 O60 1.252 . S
C57 O61 1.260 . S
O58 In52 2.266 . S
O58 C55 1.252 . S
O59 In52 2.326 . S
O59 C55 1.260 . S
O60 In52 2.266 . S
O60 C57 1.252 . S
O61 In52 2.326 . S
O61 C57 1.260 . S
C62 O53 1.240 . S
C62 O54 1.252 . S
O63 In52 2.294 . S
O63 C56 1.240 . S
O64 In52 2.326 . S
O64 C56 1.252 . S
In65 O66 2.294 . S
In65 O67 2.326 . S
In65 O71 2.266 . S
In65 O72 2.326 . S
In65 O73 2.266 . S
In65 O74 2.326 . S
In65 O76 2.294 . S
In65 O77 2.326 . S
O66 In65 2.294 . S
O66 C75 1.240 . S
O67 In65 2.326 . S
O67 C75 1.252 . S
C68 O71 1.252 . S
C68 O72 1.260 . S
C69 O76 1.240 . S
C69 O77 1.252 . S
C70 O73 1.252 . S
C70 O74 1.260 . S
O71 In65 2.266 . S
O71 C68 1.252 . S
O72 In65 2.326 . S
O72 C68 1.260 . S
O73 In65 2.266 . S
O73 C70 1.252 . S
O74 In65 2.326 . S
O74 C70 1.260 . S
C75 O66 1.240 . S
C75 O67 1.252 . S
O76 In65 2.294 . S
O76 C69 1.240 . S
O77 In65 2.326 . S
O77 C69 1.252 . S
In78 O79 2.294 . S
In78 O80 2.326 . S
In78 O84 2.266 . S
In78 O85 2.326 . S
In78 O86 2.266 . S
In78 O87 2.326 . S
In78 O89 2.294 . S
In78 O90 2.326 . S
O79 In78 2.294 . S
O79 C88 1.240 . S
O80 In78 2.326 . S
O80 C88 1.252 . S
C81 O84 1.252 . S
C81 O85 1.260 . S
C82 O89 1.240 . S
C82 O90 1.252 . S
C83 O86 1.252 . S
C83 O87 1.260 . S
O84 In78 2.266 . S
O84 C81 1.252 . S
O85 In78 2.326 . S
O85 C81 1.260 . S
O86 In78 2.266 . S
O86 C83 1.252 . S
O87 In78 2.326 . S
O87 C83 1.260 . S
C88 O79 1.240 . S
C88 O80 1.252 . S
O89 In78 2.294 . S
O89 C82 1.240 . S
O90 In78 2.326 . S
O90 C82 1.252 . S
In91 O92 2.294 . S
In91 O93 2.326 . S
In91 O97 2.266 . S
In91 O98 2.326 . S
In91 O99 2.266 . S
In91 O100 2.326 . S
In91 O102 2.294 1_556 S
In91 O103 2.326 1_556 S
O92 In91 2.294 . S
O92 C101 1.240 . S
O93 In91 2.326 . S
O93 C101 1.252 . S
C94 O97 1.252 . S
C94 O98 1.260 . S
C95 O102 1.240 . S
C95 O103 1.252 . S
C96 O99 1.252 . S
C96 O100 1.260 . S
O97 In91 2.266 . S
O97 C94 1.252 . S
O98 In91 2.326 . S
O98 C94 1.260 . S
O99 In91 2.266 . S
O99 C96 1.252 . S
O100 In91 2.326 . S
O100 C96 1.260 . S
C101 O92 1.240 . S
C101 O93 1.252 . S
O102 In91 2.294 1_554 S
O102 C95 1.240 . S
O103 In91 2.326 1_554 S
O103 C95 1.252 . S
In104 O105 2.294 . S
In104 O106 2.326 . S
In104 O110 2.266 . S
In104 O111 2.326 . S
In104 O112 2.266 . S
In104 O113 2.326 . S
In104 O115 2.294 . S
In104 O116 2.326 . S
O105 In104 2.294 . S
O105 C114 1.240 . S
O106 In104 2.326 . S
O106 C114 1.252 . S
C107 O110 1.252 . S
C107 O111 1.260 . S
C108 O115 1.240 . S
C108 O116 1.252 . S
C109 O112 1.252 . S
C109 O113 1.260 . S
O110 In104 2.266 . S
O110 C107 1.252 . S
O111 In104 2.326 . S
O111 C107 1.260 . S
O112 In104 2.266 . S
O112 C109 1.252 . S
O113 In104 2.326 . S
O113 C109 1.260 . S
C114 O105 1.240 . S
C114 O106 1.252 . S
O115 In104 2.294 . S
O115 C108 1.240 . S
O116 In104 2.326 . S
O116 C108 1.252 . S
In117 O118 2.294 . S
In117 O119 2.326 . S
In117 O123 2.266 . S
In117 O124 2.326 . S
In117 O125 2.266 . S
In117 O126 2.326 . S
In117 O128 2.294 . S
In117 O129 2.326 . S
O118 In117 2.294 . S
O118 C127 1.240 . S
O119 In117 2.326 . S
O119 C127 1.252 . S
C120 O123 1.252 . S
C120 O124 1.260 . S
C121 O128 1.240 . S
C121 O129 1.252 . S
C122 O125 1.252 . S
C122 O126 1.260 . S
O123 In117 2.266 . S
O123 C120 1.252 . S
O124 In117 2.326 . S
O124 C120 1.260 . S
O125 In117 2.266 . S
O125 C122 1.252 . S
O126 In117 2.326 . S
O126 C122 1.260 . S
C127 O118 1.240 . S
C127 O119 1.252 . S
O128 In117 2.294 . S
O128 C121 1.240 . S
O129 In117 2.326 . S
O129 C121 1.252 . S
In130 O131 2.294 . S
In130 O132 2.326 . S
In130 O136 2.266 . S
In130 O137 2.326 . S
In130 O138 2.266 . S
In130 O139 2.326 . S
In130 O141 2.294 . S
In130 O142 2.326 . S
O131 In130 2.294 . S
O131 C140 1.240 . S
O132 In130 2.326 . S
O132 C140 1.252 . S
C133 O136 1.252 . S
C133 O137 1.260 . S
C134 O141 1.240 . S
C134 O142 1.252 . S
C135 O138 1.252 . S
C135 O139 1.260 . S
O136 In130 2.266 . S
O136 C133 1.252 . S
O137 In130 2.326 . S
O137 C133 1.260 . S
O138 In130 2.266 . S
O138 C135 1.252 . S
O139 In130 2.326 . S
O139 C135 1.260 . S
C140 O131 1.240 . S
C140 O132 1.252 . S
O141 In130 2.294 . S
O141 C134 1.240 . S
O142 In130 2.326 . S
O142 C134 1.252 . S
In143 O144 2.294 . S
In143 O145 2.326 . S
In143 O149 2.266 . S
In143 O150 2.326 . S
In143 O151 2.266 . S
In143 O152 2.326 . S
In143 O154 2.294 1_556 S
In143 O155 2.326 1_556 S
O144 In143 2.294 . S
O144 C153 1.240 . S
O145 In143 2.326 . S
O145 C153 1.252 . S
C146 O149 1.252 . S
C146 O150 1.260 . S
C147 O154 1.240 . S
C147 O155 1.252 . S
C148 O151 1.252 . S
C148 O152 1.260 . S
O149 In143 2.266 . S
O149 C146 1.252 . S
O150 In143 2.326 . S
O150 C146 1.260 . S
O151 In143 2.266 . S
O151 C148 1.252 . S
O152 In143 2.326 . S
O152 C148 1.260 . S
C153 O144 1.240 . S
C153 O145 1.252 . S
O154 In143 2.294 1_554 S
O154 C147 1.240 . S
O155 In143 2.326 1_554 S
O155 C147 1.252 . S
In156 O157 2.294 . S
In156 O158 2.326 . S
In156 O162 2.266 . S
In156 O163 2.326 . S
In156 O164 2.266 . S
In156 O165 2.326 . S
In156 O167 2.294 . S
In156 O168 2.326 . S
O157 In156 2.294 . S
O157 C166 1.240 . S
O158 In156 2.326 . S
O158 C166 1.252 . S
C159 O162 1.252 . S
C159 O163 1.260 . S
C160 O167 1.240 . S
C160 O168 1.252 . S
C161 O164 1.252 . S
C161 O165 1.260 . S
O162 In156 2.266 . S
O162 C159 1.252 . S
O163 In156 2.326 . S
O163 C159 1.260 . S
O164 In156 2.266 . S
O164 C161 1.252 . S
O165 In156 2.326 . S
O165 C161 1.260 . S
C166 O157 1.240 . S
C166 O158 1.252 . S
O167 In156 2.294 . S
O167 C160 1.240 . S
O168 In156 2.326 . S
O168 C160 1.252 . S
In169 O170 2.294 . S
In169 O171 2.326 . S
In169 O175 2.266 . S
In169 O176 2.326 . S
In169 O177 2.266 . S
In169 O178 2.326 . S
In169 O180 2.294 . S
In169 O181 2.326 . S
O170 In169 2.294 . S
O170 C179 1.240 . S
O171 In169 2.326 . S
O171 C179 1.252 . S
C172 O175 1.252 . S
C172 O176 1.260 . S
C173 O180 1.240 . S
C173 O181 1.252 . S
C174 O177 1.252 . S
C174 O178 1.260 . S
O175 In169 2.266 . S
O175 C172 1.252 . S
O176 In169 2.326 . S
O176 C172 1.260 . S
O177 In169 2.266 . S
O177 C174 1.252 . S
O178 In169 2.326 . S
O178 C174 1.260 . S
C179 O170 1.240 . S
C179 O171 1.252 . S
O180 In169 2.294 . S
O180 C173 1.240 . S
O181 In169 2.326 . S
O181 C173 1.252 . S
In182 O183 2.294 . S
In182 O184 2.326 . S
In182 O188 2.266 . S
In182 O189 2.326 . S
In182 O190 2.266 . S
In182 O191 2.326 . S
In182 O193 2.294 . S
In182 O194 2.326 . S
O183 In182 2.294 . S
O183 C192 1.240 . S
O184 In182 2.326 . S
O184 C192 1.252 . S
C185 O188 1.252 . S
C185 O189 1.260 . S
C186 O193 1.240 . S
C186 O194 1.252 . S
C187 O190 1.252 . S
C187 O191 1.260 . S
O188 In182 2.266 . S
O188 C185 1.252 . S
O189 In182 2.326 . S
O189 C185 1.260 . S
O190 In182 2.266 . S
O190 C187 1.252 . S
O191 In182 2.326 . S
O191 C187 1.260 . S
C192 O183 1.240 . S
C192 O184 1.252 . S
O193 In182 2.294 . S
O193 C186 1.240 . S
O194 In182 2.326 . S
O194 C186 1.252 . S
In195 O196 2.294 . S
In195 O197 2.326 . S
In195 O201 2.266 . S
In195 O202 2.326 . S
In195 O203 2.266 . S
In195 O204 2.326 . S
In195 O206 2.294 1_554 S
In195 O207 2.326 1_554 S
O196 In195 2.294 . S
O196 C205 1.240 . S
O197 In195 2.326 . S
O197 C205 1.252 . S
C198 O201 1.252 . S
C198 O202 1.260 . S
C199 O206 1.240 . S
C199 O207 1.252 . S
C200 O203 1.252 . S
C200 O204 1.260 . S
O201 In195 2.266 . S
O201 C198 1.252 . S
O202 In195 2.326 . S
O202 C198 1.260 . S
O203 In195 2.266 . S
O203 C200 1.252 . S
O204 In195 2.326 . S
O204 C200 1.260 . S
C205 O196 1.240 . S
C205 O197 1.252 . S
O206 In195 2.294 1_556 S
O206 C199 1.240 . S
O207 In195 2.326 1_556 S
O207 C199 1.252 . S
In208 O209 2.294 . S
In208 O210 2.326 . S
In208 O214 2.266 . S
In208 O215 2.326 . S
In208 O216 2.266 . S
In208 O217 2.326 . S
In208 O219 2.294 . S
In208 O220 2.326 . S
O209 In208 2.294 . S
O209 C218 1.240 . S
O210 In208 2.326 . S
O210 C218 1.252 . S
C211 O214 1.252 . S
C211 O215 1.260 . S
C212 O219 1.240 . S
C212 O220 1.252 . S
C213 O216 1.252 . S
C213 O217 1.260 . S
O214 In208 2.266 . S
O214 C211 1.252 . S
O215 In208 2.326 . S
O215 C211 1.260 . S
O216 In208 2.266 . S
O216 C213 1.252 . S
O217 In208 2.326 . S
O217 C213 1.260 . S
C218 O209 1.240 . S
C218 O210 1.252 . S
O219 In208 2.294 . S
O219 C212 1.240 . S
O220 In208 2.326 . S
O220 C212 1.252 . S
In221 O222 2.294 . S
In221 O223 2.326 . S
In221 O227 2.266 . S
In221 O228 2.326 . S
In221 O229 2.266 . S
In221 O230 2.326 . S
In221 O232 2.294 1_554 S
In221 O233 2.326 1_554 S
O222 In221 2.294 . S
O222 C231 1.240 . S
O223 In221 2.326 . S
O223 C231 1.252 . S
C224 O227 1.252 . S
C224 O228 1.260 . S
C225 O232 1.240 . S
C225 O233 1.252 . S
C226 O229 1.252 . S
C226 O230 1.260 . S
O227 In221 2.266 . S
O227 C224 1.252 . S
O228 In221 2.326 . S
O228 C224 1.260 . S
O229 In221 2.266 . S
O229 C226 1.252 . S
O230 In221 2.326 . S
O230 C226 1.260 . S
C231 O222 1.240 . S
C231 O223 1.252 . S
O232 In221 2.294 1_556 S
O232 C225 1.240 . S
O233 In221 2.326 1_556 S
O233 C225 1.252 . S
In234 O235 2.294 . S
In234 O236 2.326 . S
In234 O240 2.266 . S
In234 O241 2.326 . S
In234 O242 2.266 . S
In234 O243 2.326 . S
In234 O245 2.294 . S
In234 O246 2.326 . S
O235 In234 2.294 . S
O235 C244 1.240 . S
O236 In234 2.326 . S
O236 C244 1.252 . S
C237 O240 1.252 . S
C237 O241 1.260 . S
C238 O245 1.240 . S
C238 O246 1.252 . S
C239 O242 1.252 . S
C239 O243 1.260 . S
O240 In234 2.266 . S
O240 C237 1.252 . S
O241 In234 2.326 . S
O241 C237 1.260 . S
O242 In234 2.266 . S
O242 C239 1.252 . S
O243 In234 2.326 . S
O243 C239 1.260 . S
C244 O235 1.240 . S
C244 O236 1.252 . S
O245 In234 2.294 . S
O245 C238 1.240 . S
O246 In234 2.326 . S
O246 C238 1.252 . S
In247 O248 2.294 . S
In247 O249 2.326 . S
In247 O253 2.266 . S
In247 O254 2.326 . S
In247 O255 2.266 . S
In247 O256 2.326 . S
In247 O258 2.294 . S
In247 O259 2.326 . S
O248 In247 2.294 . S
O248 C257 1.240 . S
O249 In247 2.326 . S
O249 C257 1.252 . S
C250 O253 1.252 . S
C250 O254 1.260 . S
C251 O258 1.240 . S
C251 O259 1.252 . S
C252 O255 1.252 . S
C252 O256 1.260 . S
O253 In247 2.266 . S
O253 C250 1.252 . S
O254 In247 2.326 . S
O254 C250 1.260 . S
O255 In247 2.266 . S
O255 C252 1.252 . S
O256 In247 2.326 . S
O256 C252 1.260 . S
C257 O248 1.240 . S
C257 O249 1.252 . S
O258 In247 2.294 . S
O258 C251 1.240 . S
O259 In247 2.326 . S
O259 C251 1.252 . S
In260 O261 2.294 . S
In260 O262 2.326 . S
In260 O266 2.266 . S
In260 O267 2.326 . S
In260 O268 2.266 . S
In260 O269 2.326 . S
In260 O271 2.294 . S
In260 O272 2.326 . S
O261 In260 2.294 . S
O261 C270 1.240 . S
O262 In260 2.326 . S
O262 C270 1.252 . S
C263 O266 1.252 . S
C263 O267 1.260 . S
C264 O271 1.240 . S
C264 O272 1.252 . S
C265 O268 1.252 . S
C265 O269 1.260 . S
O266 In260 2.266 . S
O266 C263 1.252 . S
O267 In260 2.326 . S
O267 C263 1.260 . S
O268 In260 2.266 . S
O268 C265 1.252 . S
O269 In260 2.326 . S
O269 C265 1.260 . S
C270 O261 1.240 . S
C270 O262 1.252 . S
O271 In260 2.294 . S
O271 C264 1.240 . S
O272 In260 2.326 . S
O272 C264 1.252 . S
In273 O274 2.294 1_556 S
In273 O275 2.326 1_556 S
In273 O279 2.266 . S
In273 O280 2.326 . S
In273 O281 2.266 . S
In273 O282 2.326 . S
In273 O284 2.294 . S
In273 O285 2.326 . S
O274 In273 2.294 1_554 S
O274 C283 1.240 . S
O275 In273 2.326 1_554 S
O275 C283 1.252 . S
C276 O279 1.252 . S
C276 O280 1.260 . S
C277 O284 1.240 . S
C277 O285 1.252 . S
C278 O281 1.252 . S
C278 O282 1.260 . S
O279 In273 2.266 . S
O279 C276 1.252 . S
O280 In273 2.326 . S
O280 C276 1.260 . S
O281 In273 2.266 . S
O281 C278 1.252 . S
O282 In273 2.326 . S
O282 C278 1.260 . S
C283 O274 1.240 . S
C283 O275 1.252 . S
O284 In273 2.294 . S
O284 C277 1.240 . S
O285 In273 2.326 . S
O285 C277 1.252 . S
In286 O287 2.294 . S
In286 O288 2.326 . S
In286 O292 2.266 . S
In286 O293 2.326 . S
In286 O294 2.266 . S
In286 O295 2.326 . S
In286 O297 2.294 . S
In286 O298 2.326 . S
O287 In286 2.294 . S
O287 C296 1.240 . S
O288 In286 2.326 . S
O288 C296 1.252 . S
C289 O292 1.252 . S
C289 O293 1.260 . S
C290 O297 1.240 . S
C290 O298 1.252 . S
C291 O294 1.252 . S
C291 O295 1.260 . S
O292 In286 2.266 . S
O292 C289 1.252 . S
O293 In286 2.326 . S
O293 C289 1.260 . S
O294 In286 2.266 . S
O294 C291 1.252 . S
O295 In286 2.326 . S
O295 C291 1.260 . S
C296 O287 1.240 . S
C296 O288 1.252 . S
O297 In286 2.294 . S
O297 C290 1.240 . S
O298 In286 2.326 . S
O298 C290 1.252 . S
In299 O300 2.294 . S
In299 O301 2.326 . S
In299 O305 2.266 . S
In299 O306 2.326 . S
In299 O307 2.266 . S
In299 O308 2.326 . S
In299 O310 2.294 . S
In299 O311 2.326 . S
O300 In299 2.294 . S
O300 C309 1.240 . S
O301 In299 2.326 . S
O301 C309 1.252 . S
C302 O305 1.252 . S
C302 O306 1.260 . S
C303 O310 1.240 . S
C303 O311 1.252 . S
C304 O307 1.252 . S
C304 O308 1.260 . S
O305 In299 2.266 . S
O305 C302 1.252 . S
O306 In299 2.326 . S
O306 C302 1.260 . S
O307 In299 2.266 . S
O307 C304 1.252 . S
O308 In299 2.326 . S
O308 C304 1.260 . S
C309 O300 1.240 . S
C309 O301 1.252 . S
O310 In299 2.294 . S
O310 C303 1.240 . S
O311 In299 2.326 . S
O311 C303 1.252 . S
In312 O313 2.294 . S
In312 O314 2.326 . S
In312 O318 2.266 . S
In312 O319 2.326 . S
In312 O320 2.266 . S
In312 O321 2.326 . S
In312 O323 2.294 . S
In312 O324 2.326 . S
O313 In312 2.294 . S
O313 C322 1.240 . S
O314 In312 2.326 . S
O314 C322 1.252 . S
C315 O318 1.252 . S
C315 O319 1.260 . S
C316 O323 1.240 . S
C316 O324 1.252 . S
C317 O320 1.252 . S
C317 O321 1.260 . S
O318 In312 2.266 . S
O318 C315 1.252 . S
O319 In312 2.326 . S
O319 C315 1.260 . S
O320 In312 2.266 . S
O320 C317 1.252 . S
O321 In312 2.326 . S
O321 C317 1.260 . S
C322 O313 1.240 . S
C322 O314 1.252 . S
O323 In312 2.294 . S
O323 C316 1.240 . S
O324 In312 2.326 . S
O324 C316 1.252 . S
In325 O326 2.294 1_556 S
In325 O327 2.326 1_556 S
In325 O331 2.266 . S
In325 O332 2.326 . S
In325 O333 2.266 . S
In325 O334 2.326 . S
In325 O336 2.294 . S
In325 O337 2.326 . S
O326 In325 2.294 1_554 S
O326 C335 1.240 . S
O327 In325 2.326 1_554 S
O327 C335 1.252 . S
C328 O331 1.252 . S
C328 O332 1.260 . S
C329 O336 1.240 . S
C329 O337 1.252 . S
C330 O333 1.252 . S
C330 O334 1.260 . S
O331 In325 2.266 . S
O331 C328 1.252 . S
O332 In325 2.326 . S
O332 C328 1.260 . S
O333 In325 2.266 . S
O333 C330 1.252 . S
O334 In325 2.326 . S
O334 C330 1.260 . S
C335 O326 1.240 . S
C335 O327 1.252 . S
O336 In325 2.294 . S
O336 C329 1.240 . S
O337 In325 2.326 . S
O337 C329 1.252 . S
In338 O339 2.294 . S
In338 O340 2.326 . S
In338 O344 2.266 . S
In338 O345 2.326 . S
In338 O346 2.266 . S
In338 O347 2.326 . S
In338 O349 2.294 . S
In338 O350 2.326 . S
O339 In338 2.294 . S
O339 C348 1.240 . S
O340 In338 2.326 . S
O340 C348 1.252 . S
C341 O344 1.252 . S
C341 O345 1.260 . S
C342 O349 1.240 . S
C342 O350 1.252 . S
C343 O346 1.252 . S
C343 O347 1.260 . S
O344 In338 2.266 . S
O344 C341 1.252 . S
O345 In338 2.326 . S
O345 C341 1.260 . S
O346 In338 2.266 . S
O346 C343 1.252 . S
O347 In338 2.326 . S
O347 C343 1.260 . S
C348 O339 1.240 . S
C348 O340 1.252 . S
O349 In338 2.294 . S
O349 C342 1.240 . S
O350 In338 2.326 . S
O350 C342 1.252 . S
In351 O352 2.294 . S
In351 O353 2.326 . S
In351 O357 2.266 . S
In351 O358 2.326 . S
In351 O359 2.266 . S
In351 O360 2.326 . S
In351 O362 2.294 . S
In351 O363 2.326 . S
O352 In351 2.294 . S
O352 C361 1.240 . S
O353 In351 2.326 . S
O353 C361 1.252 . S
C354 O357 1.252 . S
C354 O358 1.260 . S
C355 O362 1.240 . S
C355 O363 1.252 . S
C356 O359 1.252 . S
C356 O360 1.260 . S
O357 In351 2.266 . S
O357 C354 1.252 . S
O358 In351 2.326 . S
O358 C354 1.260 . S
O359 In351 2.266 . S
O359 C356 1.252 . S
O360 In351 2.326 . S
O360 C356 1.260 . S
C361 O352 1.240 . S
C361 O353 1.252 . S
O362 In351 2.294 . S
O362 C355 1.240 . S
O363 In351 2.326 . S
O363 C355 1.252 . S
In364 O365 2.294 . S
In364 O366 2.326 . S
In364 O370 2.266 . S
In364 O371 2.326 . S
In364 O372 2.266 . S
In364 O373 2.326 . S
In364 O375 2.294 . S
In364 O376 2.326 . S
O365 In364 2.294 . S
O365 C374 1.240 . S
O366 In364 2.326 . S
O366 C374 1.252 . S
C367 O370 1.252 . S
C367 O371 1.260 . S
C368 O375 1.240 . S
C368 O376 1.252 . S
C369 O372 1.252 . S
C369 O373 1.260 . S
O370 In364 2.266 . S
O370 C367 1.252 . S
O371 In364 2.326 . S
O371 C367 1.260 . S
O372 In364 2.266 . S
O372 C369 1.252 . S
O373 In364 2.326 . S
O373 C369 1.260 . S
C374 O365 1.240 . S
C374 O366 1.252 . S
O375 In364 2.294 . S
O375 C368 1.240 . S
O376 In364 2.326 . S
O376 C368 1.252 . S
In377 O378 2.294 . S
In377 O379 2.326 . S
In377 O383 2.266 . S
In377 O384 2.326 . S
In377 O385 2.266 . S
In377 O386 2.326 . S
In377 O388 2.294 1_554 S
In377 O389 2.326 1_554 S
O378 In377 2.294 . S
O378 C387 1.240 . S
O379 In377 2.326 . S
O379 C387 1.252 . S
C380 O383 1.252 . S
C380 O384 1.260 . S
C381 O388 1.240 . S
C381 O389 1.252 . S
C382 O385 1.252 . S
C382 O386 1.260 . S
O383 In377 2.266 . S
O383 C380 1.252 . S
O384 In377 2.326 . S
O384 C380 1.260 . S
O385 In377 2.266 . S
O385 C382 1.252 . S
O386 In377 2.326 . S
O386 C382 1.260 . S
C387 O378 1.240 . S
C387 O379 1.252 . S
O388 In377 2.294 1_556 S
O388 C381 1.240 . S
O389 In377 2.326 1_556 S
O389 C381 1.252 . S
In390 O391 2.294 . S
In390 O392 2.326 . S
In390 O396 2.266 . S
In390 O397 2.326 . S
In390 O398 2.266 . S
In390 O399 2.326 . S
In390 O401 2.294 . S
In390 O402 2.326 . S
O391 In390 2.294 . S
O391 C400 1.240 . S
O392 In390 2.326 . S
O392 C400 1.252 . S
C393 O396 1.252 . S
C393 O397 1.260 . S
C394 O401 1.240 . S
C394 O402 1.252 . S
C395 O398 1.252 . S
C395 O399 1.260 . S
O396 In390 2.266 . S
O396 C393 1.252 . S
O397 In390 2.326 . S
O397 C393 1.260 . S
O398 In390 2.266 . S
O398 C395 1.252 . S
O399 In390 2.326 . S
O399 C395 1.260 . S
C400 O391 1.240 . S
C400 O392 1.252 . S
O401 In390 2.294 . S
O401 C394 1.240 . S
O402 In390 2.326 . S
O402 C394 1.252 . S
In403 O404 2.294 . S
In403 O405 2.326 . S
In403 O409 2.266 . S
In403 O410 2.326 . S
In403 O411 2.266 . S
In403 O412 2.326 . S
In403 O414 2.294 . S
In403 O415 2.326 . S
O404 In403 2.294 . S
O404 C413 1.240 . S
O405 In403 2.326 . S
O405 C413 1.252 . S
C406 O409 1.252 . S
C406 O410 1.260 . S
C407 O414 1.240 . S
C407 O415 1.252 . S
C408 O411 1.252 . S
C408 O412 1.260 . S
O409 In403 2.266 . S
O409 C406 1.252 . S
O410 In403 2.326 . S
O410 C406 1.260 . S
O411 In403 2.266 . S
O411 C408 1.252 . S
O412 In403 2.326 . S
O412 C408 1.260 . S
C413 O404 1.240 . S
C413 O405 1.252 . S
O414 In403 2.294 . S
O414 C407 1.240 . S
O415 In403 2.326 . S
O415 C407 1.252 . S
C416 C417 1.391 . S
C416 C418 1.394 . S
C416 H432 0.931 . S
C417 C416 1.391 . S
C417 C421 1.376 . S
C418 C416 1.394 . S
C418 C419 1.369 . S
C418 C422 1.531 . S
C419 C418 1.369 . S
C419 C420 1.410 . S
C419 C427 1.503 . S
C420 C419 1.410 . S
C420 C421 1.392 . S
C420 C423 1.511 . S
C421 C417 1.376 . S
C421 C420 1.392 . S
C421 H433 0.929 . S
C422 C418 1.531 . S
C422 H434 0.960 . S
C422 H435 0.962 . S
C422 H436 0.960 . S
C423 C420 1.511 . S
C423 H437 0.961 . S
C423 H438 0.961 . S
C423 H439 0.961 . S
C424 C425 1.370 . S
C424 C426 1.363 . S
C424 H440 0.931 . S
C425 C424 1.370 . S
C425 C429 1.408 . S
C426 C424 1.363 . S
C426 C427 1.370 . S
C426 C430 1.524 . S
C427 C419 1.503 . S
C427 C426 1.370 . S
C427 C428 1.403 . S
C428 C427 1.403 . S
C428 C429 1.404 . S
C428 C431 1.539 . S
C429 C425 1.408 . S
C429 C428 1.404 . S
C429 H441 0.930 . S
C430 C426 1.524 . S
C430 H442 0.956 . S
C430 H443 0.961 . S
C430 H444 0.961 . S
C431 C428 1.539 . S
C431 H445 0.958 . S
C431 H446 0.961 . S
C431 H447 0.960 . S
H432 C416 0.931 . S
H433 C421 0.929 . S
H434 C422 0.960 . S
H435 C422 0.962 . S
H436 C422 0.960 . S
H437 C423 0.961 . S
H438 C423 0.961 . S
H439 C423 0.961 . S
H440 C424 0.931 . S
H441 C429 0.930 . S
H442 C430 0.956 . S
H443 C430 0.961 . S
H444 C430 0.961 . S
H445 C431 0.958 . S
H446 C431 0.961 . S
H447 C431 0.960 . S
C448 C449 1.391 1_455 S
C448 C450 1.394 . S
C448 H464 0.931 . S
C449 C448 1.391 1_655 S
C449 C453 1.376 . S
C450 C448 1.394 . S
C450 C451 1.369 . S
C450 C454 1.531 . S
C451 C450 1.369 . S
C451 C452 1.410 . S
C451 C459 1.503 . S
C452 C451 1.410 . S
C452 C453 1.392 1_455 S
C452 C455 1.511 . S
C453 C449 1.376 . S
C453 C452 1.392 1_655 S
C453 H465 0.929 . S
C454 C450 1.531 . S
C454 H466 0.960 . S
C454 H467 0.962 . S
C454 H468 0.960 . S
C455 C452 1.511 . S
C455 H469 0.957 . S
C455 H470 0.961 . S
C455 H471 0.961 . S
C456 C457 1.370 . S
C456 C458 1.363 . S
C456 H472 0.931 . S
C457 C456 1.370 . S
C457 C461 1.408 . S
C458 C456 1.363 . S
C458 C459 1.370 . S
C458 C462 1.524 . S
C459 C451 1.503 . S
C459 C458 1.370 . S
C459 C460 1.403 . S
C460 C459 1.403 . S
C460 C461 1.404 . S
C460 C463 1.539 . S
C461 C457 1.408 . S
C461 C460 1.404 . S
C461 H473 0.930 . S
C462 C458 1.524 . S
C462 H474 0.956 . S
C462 H475 0.961 . S
C462 H476 0.961 . S
C463 C460 1.539 . S
C463 H477 0.958 . S
C463 H478 0.961 . S
C463 H479 0.960 . S
H464 C448 0.931 . S
H465 C453 0.929 . S
H466 C454 0.960 . S
H467 C454 0.962 . S
H468 C454 0.960 . S
H469 C455 0.957 . S
H470 C455 0.961 . S
H471 C455 0.961 . S
H472 C456 0.931 . S
H473 C461 0.930 . S
H474 C462 0.956 . S
H475 C462 0.961 . S
H476 C462 0.961 . S
H477 C463 0.958 . S
H478 C463 0.961 . S
H479 C463 0.960 . S
C480 C481 1.391 . S
C480 C482 1.394 . S
C480 H496 0.931 . S
C481 C480 1.391 . S
C481 C485 1.376 . S
C482 C480 1.394 . S
C482 C483 1.369 . S
C482 C486 1.531 . S
C483 C482 1.369 . S
C483 C484 1.410 . S
C483 C491 1.503 . S
C484 C483 1.410 . S
C484 C485 1.392 . S
C484 C487 1.511 . S
C485 C481 1.376 . S
C485 C484 1.392 . S
C485 H497 0.929 . S
C486 C482 1.531 . S
C486 H498 0.960 . S
C486 H499 0.962 . S
C486 H500 0.960 . S
C487 C484 1.511 . S
C487 H501 0.961 . S
C487 H502 0.961 . S
C487 H503 0.961 . S
C488 C489 1.370 . S
C488 C490 1.363 . S
C488 H504 0.931 . S
C489 C488 1.370 . S
C489 C493 1.408 . S
C490 C488 1.363 . S
C490 C491 1.370 . S
C490 C494 1.524 . S
C491 C483 1.503 . S
C491 C490 1.370 . S
C491 C492 1.403 . S
C492 C491 1.403 . S
C492 C493 1.404 . S
C492 C495 1.539 . S
C493 C489 1.408 . S
C493 C492 1.404 . S
C493 H505 0.930 . S
C494 C490 1.524 . S
C494 H506 0.956 . S
C494 H507 0.961 . S
C494 H508 0.961 . S
C495 C492 1.539 . S
C495 H509 0.958 . S
C495 H510 0.961 . S
C495 H511 0.960 . S
H496 C480 0.931 . S
H497 C485 0.929 . S
H498 C486 0.960 . S
H499 C486 0.962 . S
H500 C486 0.960 . S
H501 C487 0.961 . S
H502 C487 0.961 . S
H503 C487 0.961 . S
H504 C488 0.931 . S
H505 C493 0.930 . S
H506 C494 0.956 . S
H507 C494 0.961 . S
H508 C494 0.961 . S
H509 C495 0.958 . S
H510 C495 0.961 . S
H511 C495 0.960 . S
C512 C513 1.391 . S
C512 C514 1.394 . S
C512 H528 0.931 . S
C513 C512 1.391 . S
C513 C517 1.376 . S
C514 C512 1.394 . S
C514 C515 1.369 . S
C514 C518 1.531 . S
C515 C514 1.369 . S
C515 C516 1.410 . S
C515 C523 1.503 . S
C516 C515 1.410 . S
C516 C517 1.392 . S
C516 C519 1.511 . S
C517 C513 1.376 . S
C517 C516 1.392 . S
C517 H529 0.929 . S
C518 C514 1.531 . S
C518 H530 0.960 . S
C518 H531 0.962 . S
C518 H532 0.960 . S
C519 C516 1.511 . S
C519 H533 0.961 . S
C519 H534 0.961 . S
C519 H535 0.961 . S
C520 C521 1.370 . S
C520 C522 1.363 . S
C520 H536 0.931 . S
C521 C520 1.370 . S
C521 C525 1.408 . S
C522 C520 1.363 . S
C522 C523 1.370 . S
C522 C526 1.524 . S
C523 C515 1.503 . S
C523 C522 1.370 . S
C523 C524 1.403 . S
C524 C523 1.403 . S
C524 C525 1.404 . S
C524 C527 1.539 . S
C525 C521 1.408 . S
C525 C524 1.404 . S
C525 H537 0.930 . S
C526 C522 1.524 . S
C526 H538 0.956 . S
C526 H539 0.961 . S
C526 H540 0.961 . S
C527 C524 1.539 . S
C527 H541 0.958 . S
C527 H542 0.961 . S
C527 H543 0.960 . S
H528 C512 0.931 . S
H529 C517 0.929 . S
H530 C518 0.960 . S
H531 C518 0.962 . S
H532 C518 0.960 . S
H533 C519 0.961 . S
H534 C519 0.961 . S
H535 C519 0.961 . S
H536 C520 0.931 . S
H537 C525 0.930 . S
H538 C526 0.956 . S
H539 C526 0.961 . S
H540 C526 0.961 . S
H541 C527 0.958 . S
H542 C527 0.961 . S
H543 C527 0.960 . S
C544 C545 1.391 . S
C544 C546 1.394 . S
C544 H560 0.931 . S
C545 C544 1.391 . S
C545 C549 1.376 . S
C546 C544 1.394 . S
C546 C547 1.369 . S
C546 C550 1.531 . S
C547 C546 1.369 . S
C547 C548 1.410 . S
C547 C555 1.503 . S
C548 C547 1.410 . S
C548 C549 1.392 . S
C548 C551 1.511 . S
C549 C545 1.376 . S
C549 C548 1.392 . S
C549 H561 0.929 . S
C550 C546 1.531 . S
C550 H562 0.960 . S
C550 H563 0.962 . S
C550 H564 0.960 . S
C551 C548 1.511 . S
C551 H565 0.961 . S
C551 H566 0.961 . S
C551 H567 0.961 . S
C552 C553 1.370 . S
C552 C554 1.363 . S
C552 H568 0.931 . S
C553 C552 1.370 . S
C553 C557 1.408 . S
C554 C552 1.363 . S
C554 C555 1.370 . S
C554 C558 1.524 . S
C555 C547 1.503 . S
C555 C554 1.370 . S
C555 C556 1.403 . S
C556 C555 1.403 . S
C556 C557 1.404 . S
C556 C559 1.539 . S
C557 C553 1.408 . S
C557 C556 1.404 . S
C557 H569 0.930 . S
C558 C554 1.524 . S
C558 H570 0.956 . S
C558 H571 0.961 . S
C558 H572 0.961 . S
C559 C556 1.539 . S
C559 H573 0.958 . S
C559 H574 0.961 . S
C559 H575 0.960 . S
H560 C544 0.931 . S
H561 C549 0.929 . S
H562 C550 0.960 . S
H563 C550 0.962 . S
H564 C550 0.960 . S
H565 C551 0.961 . S
H566 C551 0.961 . S
H567 C551 0.961 . S
H568 C552 0.931 . S
H569 C557 0.930 . S
H570 C558 0.956 . S
H571 C558 0.961 . S
H572 C558 0.961 . S
H573 C559 0.958 . S
H574 C559 0.961 . S
H575 C559 0.960 . S
C576 C577 1.391 . S
C576 C578 1.394 . S
C576 H592 0.931 . S
C577 C576 1.391 . S
C577 C581 1.376 . S
C578 C576 1.394 . S
C578 C579 1.369 . S
C578 C582 1.531 . S
C579 C578 1.369 . S
C579 C580 1.410 . S
C579 C587 1.503 . S
C580 C579 1.410 . S
C580 C581 1.392 . S
C580 C583 1.511 . S
C581 C577 1.376 . S
C581 C580 1.392 . S
C581 H593 0.929 . S
C582 C578 1.531 . S
C582 H594 0.960 . S
C582 H595 0.962 . S
C582 H596 0.960 . S
C583 C580 1.511 . S
C583 H597 0.961 . S
C583 H598 0.961 . S
C583 H599 0.961 . S
C584 C585 1.370 . S
C584 C586 1.363 . S
C584 H600 0.931 . S
C585 C584 1.370 . S
C585 C589 1.408 . S
C586 C584 1.363 . S
C586 C587 1.370 . S
C586 C590 1.524 . S
C587 C579 1.503 . S
C587 C586 1.370 . S
C587 C588 1.403 . S
C588 C587 1.403 . S
C588 C589 1.404 . S
C588 C591 1.539 . S
C589 C585 1.408 . S
C589 C588 1.404 . S
C589 H601 0.930 . S
C590 C586 1.524 . S
C590 H602 0.956 . S
C590 H603 0.961 . S
C590 H604 0.961 . S
C591 C588 1.539 . S
C591 H605 0.958 . S
C591 H606 0.961 . S
C591 H607 0.960 . S
H592 C576 0.931 . S
H593 C581 0.929 . S
H594 C582 0.960 . S
H595 C582 0.962 . S
H596 C582 0.960 . S
H597 C583 0.961 . S
H598 C583 0.961 . S
H599 C583 0.961 . S
H600 C584 0.931 . S
H601 C589 0.930 . S
H602 C590 0.956 . S
H603 C590 0.961 . S
H604 C590 0.961 . S
H605 C591 0.958 . S
H606 C591 0.961 . S
H607 C591 0.960 . S
C608 C609 1.391 . S
C608 C610 1.394 . S
C608 H624 0.931 . S
C609 C608 1.391 . S
C609 C613 1.376 . S
C610 C608 1.394 . S
C610 C611 1.369 . S
C610 C614 1.531 . S
C611 C610 1.369 . S
C611 C612 1.410 . S
C611 C619 1.503 . S
C612 C611 1.410 . S
C612 C613 1.392 . S
C612 C615 1.511 . S
C613 C609 1.376 . S
C613 C612 1.392 . S
C613 H625 0.929 . S
C614 C610 1.531 . S
C614 H626 0.960 . S
C614 H627 0.962 . S
C614 H628 0.960 . S
C615 C612 1.511 . S
C615 H629 0.961 . S
C615 H630 0.961 . S
C615 H631 0.961 . S
C616 C617 1.370 . S
C616 C618 1.363 . S
C616 H632 0.931 . S
C617 C616 1.370 . S
C617 C621 1.408 . S
C618 C616 1.363 . S
C618 C619 1.370 . S
C618 C622 1.524 . S
C619 C611 1.503 . S
C619 C618 1.370 . S
C619 C620 1.403 . S
C620 C619 1.403 . S
C620 C621 1.404 . S
C620 C623 1.539 . S
C621 C617 1.408 . S
C621 C620 1.404 . S
C621 H633 0.930 . S
C622 C618 1.524 . S
C622 H634 0.956 . S
C622 H635 0.961 . S
C622 H636 0.961 . S
C623 C620 1.539 . S
C623 H637 0.958 . S
C623 H638 0.961 . S
C623 H639 0.960 . S
H624 C608 0.931 . S
H625 C613 0.929 . S
H626 C614 0.960 . S
H627 C614 0.962 . S
H628 C614 0.960 . S
H629 C615 0.961 . S
H630 C615 0.961 . S
H631 C615 0.961 . S
H632 C616 0.931 . S
H633 C621 0.930 . S
H634 C622 0.956 . S
H635 C622 0.961 . S
H636 C622 0.961 . S
H637 C623 0.958 . S
H638 C623 0.961 . S
H639 C623 0.960 . S
C640 C641 1.391 . S
C640 C642 1.394 . S
C640 H656 0.931 . S
C641 C640 1.391 . S
C641 C645 1.376 . S
C642 C640 1.394 . S
C642 C643 1.369 . S
C642 C646 1.531 . S
C643 C642 1.369 . S
C643 C644 1.410 . S
C643 C651 1.503 . S
C644 C643 1.410 . S
C644 C645 1.392 . S
C644 C647 1.511 . S
C645 C641 1.376 . S
C645 C644 1.392 . S
C645 H657 0.929 . S
C646 C642 1.531 . S
C646 H658 0.960 . S
C646 H659 0.962 . S
C646 H660 0.960 . S
C647 C644 1.511 . S
C647 H661 0.961 . S
C647 H662 0.961 . S
C647 H663 0.961 . S
C648 C649 1.346 1_455 S
C648 C650 1.363 . S
C648 H664 0.931 . S
C649 C648 1.346 1_655 S
C649 C653 1.408 1_655 S
C650 C648 1.363 . S
C650 C651 1.370 . S
C650 C654 1.524 . S
C651 C643 1.503 . S
C651 C650 1.370 . S
C651 C652 1.403 . S
C652 C651 1.403 . S
C652 C653 1.401 . S
C652 C655 1.539 . S
C653 C649 1.408 1_455 S
C653 C652 1.401 . S
C653 H665 0.932 1_455 S
C654 C650 1.524 . S
C654 H666 0.956 . S
C654 H667 0.961 . S
C654 H668 0.961 . S
C655 C652 1.539 . S
C655 H669 0.958 . S
C655 H670 0.961 . S
C655 H671 0.960 . S
H656 C640 0.931 . S
H657 C645 0.929 . S
H658 C646 0.960 . S
H659 C646 0.962 . S
H660 C646 0.960 . S
H661 C647 0.961 . S
H662 C647 0.961 . S
H663 C647 0.961 . S
H664 C648 0.931 . S
H665 C653 0.932 1_655 S
H666 C654 0.956 . S
H667 C654 0.961 . S
H668 C654 0.961 . S
H669 C655 0.958 . S
H670 C655 0.961 . S
H671 C655 0.960 . S
C672 C673 1.391 . S
C672 C674 1.394 . S
C672 H688 0.931 . S
C673 C672 1.391 . S
C673 C677 1.376 . S
C674 C672 1.394 . S
C674 C675 1.369 . S
C674 C678 1.531 . S
C675 C674 1.369 . S
C675 C676 1.410 . S
C675 C683 1.503 . S
C676 C675 1.410 . S
C676 C677 1.392 . S
C676 C679 1.511 . S
C677 C673 1.376 . S
C677 C676 1.392 . S
C677 H689 0.929 . S
C678 C674 1.531 . S
C678 H690 0.960 . S
C678 H691 0.962 . S
C678 H692 0.960 . S
C679 C676 1.511 . S
C679 H693 0.961 . S
C679 H694 0.961 . S
C679 H695 0.961 . S
C680 C681 1.370 . S
C680 C682 1.363 . S
C680 H696 0.931 . S
C681 C680 1.370 . S
C681 C685 1.408 . S
C682 C680 1.363 . S
C682 C683 1.370 . S
C682 C686 1.524 . S
C683 C675 1.503 . S
C683 C682 1.370 . S
C683 C684 1.403 . S
C684 C683 1.403 . S
C684 C685 1.404 . S
C684 C687 1.539 . S
C685 C681 1.408 . S
C685 C684 1.404 . S
C685 H697 0.930 . S
C686 C682 1.524 . S
C686 H698 0.956 . S
C686 H699 0.961 . S
C686 H700 0.961 . S
C687 C684 1.539 . S
C687 H701 0.958 . S
C687 H702 0.961 . S
C687 H703 0.960 . S
H688 C672 0.931 . S
H689 C677 0.929 . S
H690 C678 0.960 . S
H691 C678 0.962 . S
H692 C678 0.960 . S
H693 C679 0.961 . S
H694 C679 0.961 . S
H695 C679 0.961 . S
H696 C680 0.931 . S
H697 C685 0.930 . S
H698 C686 0.956 . S
H699 C686 0.961 . S
H700 C686 0.961 . S
H701 C687 0.958 . S
H702 C687 0.961 . S
H703 C687 0.960 . S
C704 C705 1.391 1_655 S
C704 C706 1.394 . S
C704 H720 0.931 . S
C705 C704 1.391 1_455 S
C705 C709 1.376 1_455 S
C706 C704 1.394 . S
C706 C707 1.369 . S
C706 C710 1.531 . S
C707 C706 1.369 . S
C707 C708 1.410 . S
C707 C715 1.503 . S
C708 C707 1.410 . S
C708 C709 1.392 . S
C708 C711 1.511 . S
C709 C705 1.376 1_655 S
C709 C708 1.392 . S
C709 H721 0.929 1_655 S
C710 C706 1.531 . S
C710 H722 0.960 . S
C710 H723 0.962 . S
C710 H724 0.960 . S
C711 C708 1.511 . S
C711 H725 0.961 . S
C711 H726 0.961 . S
C711 H727 0.961 . S
C712 C713 1.370 . S
C712 C714 1.363 . S
C712 H728 0.931 . S
C713 C712 1.370 . S
C713 C717 1.408 . S
C714 C712 1.363 . S
C714 C715 1.370 . S
C714 C718 1.524 . S
C715 C707 1.503 . S
C715 C714 1.370 . S
C715 C716 1.403 . S
C716 C715 1.403 . S
C716 C717 1.404 . S
C716 C719 1.539 . S
C717 C713 1.408 . S
C717 C716 1.404 . S
C717 H729 0.930 . S
C718 C714 1.524 . S
C718 H730 0.956 . S
C718 H731 0.961 . S
C718 H732 0.961 . S
C719 C716 1.539 . S
C719 H733 0.958 . S
C719 H734 0.961 . S
C719 H735 0.960 . S
H720 C704 0.931 . S
H721 C709 0.929 1_455 S
H722 C710 0.960 . S
H723 C710 0.962 . S
H724 C710 0.960 . S
H725 C711 0.961 . S
H726 C711 0.961 . S
H727 C711 0.961 . S
H728 C712 0.931 . S
H729 C717 0.930 . S
H730 C718 0.956 . S
H731 C718 0.961 . S
H732 C718 0.961 . S
H733 C719 0.958 . S
H734 C719 0.961 . S
H735 C719 0.960 . S
C736 C737 1.391 . S
C736 C738 1.394 . S
C736 H752 0.931 . S
C737 C736 1.391 . S
C737 C741 1.376 . S
C738 C736 1.394 . S
C738 C739 1.369 . S
C738 C742 1.531 . S
C739 C738 1.369 . S
C739 C740 1.410 . S
C739 C747 1.503 . S
C740 C739 1.410 . S
C740 C741 1.392 . S
C740 C743 1.511 . S
C741 C737 1.376 . S
C741 C740 1.392 . S
C741 H753 0.929 . S
C742 C738 1.531 . S
C742 H754 0.960 . S
C742 H755 0.962 . S
C742 H756 0.960 . S
C743 C740 1.511 . S
C743 H757 0.961 . S
C743 H758 0.961 . S
C743 H759 0.961 . S
C744 C745 1.370 . S
C744 C746 1.363 . S
C744 H760 0.931 . S
C745 C744 1.370 . S
C745 C749 1.408 . S
C746 C744 1.363 . S
C746 C747 1.370 . S
C746 C750 1.524 . S
C747 C739 1.503 . S
C747 C746 1.370 . S
C747 C748 1.403 . S
C748 C747 1.403 . S
C748 C749 1.404 . S
C748 C751 1.539 . S
C749 C745 1.408 . S
C749 C748 1.404 . S
C749 H761 0.930 . S
C750 C746 1.524 . S
C750 H762 0.956 . S
C750 H763 0.961 . S
C750 H764 0.961 . S
C751 C748 1.539 . S
C751 H765 0.958 . S
C751 H766 0.961 . S
C751 H767 0.960 . S
H752 C736 0.931 . S
H753 C741 0.929 . S
H754 C742 0.960 . S
H755 C742 0.962 . S
H756 C742 0.960 . S
H757 C743 0.961 . S
H758 C743 0.961 . S
H759 C743 0.961 . S
H760 C744 0.931 . S
H761 C749 0.930 . S
H762 C750 0.956 . S
H763 C750 0.961 . S
H764 C750 0.961 . S
H765 C751 0.958 . S
H766 C751 0.961 . S
H767 C751 0.960 . S
C768 C769 1.391 . S
C768 C770 1.394 . S
C768 H784 0.931 . S
C769 C768 1.391 . S
C769 C773 1.376 . S
C770 C768 1.394 . S
C770 C771 1.369 . S
C770 C774 1.531 . S
C771 C770 1.369 . S
C771 C772 1.410 . S
C771 C779 1.503 . S
C772 C771 1.410 . S
C772 C773 1.392 . S
C772 C775 1.511 . S
C773 C769 1.376 . S
C773 C772 1.392 . S
C773 H785 0.929 . S
C774 C770 1.531 . S
C774 H786 0.960 . S
C774 H787 0.962 . S
C774 H788 0.960 . S
C775 C772 1.511 . S
C775 H789 0.961 . S
C775 H790 0.961 . S
C775 H791 0.961 . S
C776 C777 1.370 . S
C776 C778 1.363 . S
C776 H792 0.931 . S
C777 C776 1.370 . S
C777 C781 1.408 . S
C778 C776 1.363 . S
C778 C779 1.370 . S
C778 C782 1.524 . S
C779 C771 1.503 . S
C779 C778 1.370 . S
C779 C780 1.403 . S
C780 C779 1.403 . S
C780 C781 1.404 . S
C780 C783 1.539 . S
C781 C777 1.408 . S
C781 C780 1.404 . S
C781 H793 0.930 . S
C782 C778 1.524 . S
C782 H794 0.956 . S
C782 H795 0.961 . S
C782 H796 0.961 . S
C783 C780 1.539 . S
C783 H797 0.958 . S
C783 H798 0.961 . S
C783 H799 0.960 . S
H784 C768 0.931 . S
H785 C773 0.929 . S
H786 C774 0.960 . S
H787 C774 0.962 . S
H788 C774 0.960 . S
H789 C775 0.961 . S
H790 C775 0.961 . S
H791 C775 0.961 . S
H792 C776 0.931 . S
H793 C781 0.930 . S
H794 C782 0.956 . S
H795 C782 0.961 . S
H796 C782 0.961 . S
H797 C783 0.958 . S
H798 C783 0.961 . S
H799 C783 0.960 . S
C800 C801 1.391 . S
C800 C802 1.394 . S
C800 H816 0.931 . S
C801 C800 1.391 . S
C801 C805 1.376 . S
C802 C800 1.394 . S
C802 C803 1.369 . S
C802 C806 1.531 . S
C803 C802 1.369 . S
C803 C804 1.410 . S
C803 C811 1.503 . S
C804 C803 1.410 . S
C804 C805 1.392 . S
C804 C807 1.511 . S
C805 C801 1.376 . S
C805 C804 1.392 . S
C805 H817 0.929 . S
C806 C802 1.531 . S
C806 H818 0.960 . S
C806 H819 0.962 . S
C806 H820 0.960 . S
C807 C804 1.511 . S
C807 H821 0.961 . S
C807 H822 0.961 . S
C807 H823 0.961 . S
C808 C809 1.370 . S
C808 C810 1.363 . S
C808 H824 0.931 . S
C809 C808 1.370 . S
C809 C813 1.408 . S
C810 C808 1.363 . S
C810 C811 1.370 . S
C810 C814 1.524 . S
C811 C803 1.503 . S
C811 C810 1.370 . S
C811 C812 1.403 . S
C812 C811 1.403 . S
C812 C813 1.404 . S
C812 C815 1.539 . S
C813 C809 1.408 . S
C813 C812 1.404 . S
C813 H825 0.930 . S
C814 C810 1.524 . S
C814 H826 0.956 . S
C814 H827 0.961 . S
C814 H828 0.961 . S
C815 C812 1.539 . S
C815 H829 0.958 . S
C815 H830 0.961 . S
C815 H831 0.960 . S
H816 C800 0.931 . S
H817 C805 0.929 . S
H818 C806 0.960 . S
H819 C806 0.962 . S
H820 C806 0.960 . S
H821 C807 0.961 . S
H822 C807 0.961 . S
H823 C807 0.961 . S
H824 C808 0.931 . S
H825 C813 0.930 . S
H826 C814 0.956 . S
H827 C814 0.961 . S
H828 C814 0.961 . S
H829 C815 0.958 . S
H830 C815 0.961 . S
H831 C815 0.960 . S
C832 C833 1.391 . S
C832 C834 1.394 . S
C832 H848 0.931 . S
C833 C832 1.391 . S
C833 C837 1.376 . S
C834 C832 1.394 . S
C834 C835 1.369 . S
C834 C838 1.531 . S
C835 C834 1.369 . S
C835 C836 1.410 . S
C835 C843 1.503 . S
C836 C835 1.410 . S
C836 C837 1.392 . S
C836 C839 1.511 . S
C837 C833 1.376 . S
C837 C836 1.392 . S
C837 H849 0.929 . S
C838 C834 1.531 . S
C838 H850 0.960 . S
C838 H851 0.962 . S
C838 H852 0.960 . S
C839 C836 1.511 . S
C839 H853 0.961 . S
C839 H854 0.961 . S
C839 H855 0.961 . S
C840 C841 1.370 . S
C840 C842 1.363 . S
C840 H856 0.931 . S
C841 C840 1.370 . S
C841 C845 1.408 . S
C842 C840 1.363 . S
C842 C843 1.370 . S
C842 C846 1.524 . S
C843 C835 1.503 . S
C843 C842 1.370 . S
C843 C844 1.403 . S
C844 C843 1.403 . S
C844 C845 1.404 . S
C844 C847 1.539 . S
C845 C841 1.408 . S
C845 C844 1.404 . S
C845 H857 0.930 . S
C846 C842 1.524 . S
C846 H858 0.956 . S
C846 H859 0.961 . S
C846 H860 0.961 . S
C847 C844 1.539 . S
C847 H861 0.958 . S
C847 H862 0.961 . S
C847 H863 0.960 . S
H848 C832 0.931 . S
H849 C837 0.929 . S
H850 C838 0.960 . S
H851 C838 0.962 . S
H852 C838 0.960 . S
H853 C839 0.961 . S
H854 C839 0.961 . S
H855 C839 0.961 . S
H856 C840 0.931 . S
H857 C845 0.930 . S
H858 C846 0.956 . S
H859 C846 0.961 . S
H860 C846 0.961 . S
H861 C847 0.958 . S
H862 C847 0.961 . S
H863 C847 0.960 . S
C864 C865 1.391 . S
C864 C866 1.394 . S
C864 H880 0.931 . S
C865 C864 1.391 . S
C865 C869 1.376 . S
C866 C864 1.394 . S
C866 C867 1.369 . S
C866 C870 1.531 . S
C867 C866 1.369 . S
C867 C868 1.410 . S
C867 C875 1.503 . S
C868 C867 1.410 . S
C868 C869 1.392 . S
C868 C871 1.511 . S
C869 C865 1.376 . S
C869 C868 1.392 . S
C869 H881 0.929 . S
C870 C866 1.531 . S
C870 H882 0.960 . S
C870 H883 0.962 . S
C870 H884 0.960 . S
C871 C868 1.511 . S
C871 H885 0.961 . S
C871 H886 0.961 . S
C871 H887 0.961 . S
C872 C873 1.370 . S
C872 C874 1.363 . S
C872 H888 0.931 . S
C873 C872 1.370 . S
C873 C877 1.408 . S
C874 C872 1.363 . S
C874 C875 1.370 . S
C874 C878 1.524 . S
C875 C867 1.503 . S
C875 C874 1.370 . S
C875 C876 1.403 . S
C876 C875 1.403 . S
C876 C877 1.404 . S
C876 C879 1.539 . S
C877 C873 1.408 . S
C877 C876 1.404 . S
C877 H889 0.930 . S
C878 C874 1.524 . S
C878 H890 0.956 . S
C878 H891 0.961 . S
C878 H892 0.961 . S
C879 C876 1.539 . S
C879 H893 0.958 . S
C879 H894 0.961 . S
C879 H895 0.960 . S
H880 C864 0.931 . S
H881 C869 0.929 . S
H882 C870 0.960 . S
H883 C870 0.962 . S
H884 C870 0.960 . S
H885 C871 0.961 . S
H886 C871 0.961 . S
H887 C871 0.961 . S
H888 C872 0.931 . S
H889 C877 0.930 . S
H890 C878 0.956 . S
H891 C878 0.961 . S
H892 C878 0.961 . S
H893 C879 0.958 . S
H894 C879 0.961 . S
H895 C879 0.960 . S
C896 C897 1.391 . S
C896 C898 1.394 . S
C896 H912 0.931 . S
C897 C896 1.391 . S
C897 C901 1.376 . S
C898 C896 1.394 . S
C898 C899 1.369 . S
C898 C902 1.531 . S
C899 C898 1.369 . S
C899 C900 1.410 . S
C899 C907 1.503 . S
C900 C899 1.410 . S
C900 C901 1.392 . S
C900 C903 1.511 . S
C901 C897 1.376 . S
C901 C900 1.392 . S
C901 H913 0.929 . S
C902 C898 1.531 . S
C902 H914 0.960 . S
C902 H915 0.962 . S
C902 H916 0.960 . S
C903 C900 1.511 . S
C903 H917 0.961 . S
C903 H918 0.961 . S
C903 H919 0.961 . S
C904 C905 1.358 1_655 S
C904 C906 1.363 . S
C904 H920 0.931 . S
C905 C904 1.358 1_455 S
C905 C909 1.403 1_455 S
C906 C904 1.363 . S
C906 C907 1.370 . S
C906 C910 1.524 . S
C907 C899 1.503 . S
C907 C906 1.370 . S
C907 C908 1.403 . S
C908 C907 1.403 . S
C908 C909 1.404 . S
C908 C911 1.539 . S
C909 C905 1.403 1_655 S
C909 C908 1.404 . S
C909 H921 0.930 1_655 S
C910 C906 1.524 . S
C910 H922 0.956 . S
C910 H923 0.961 . S
C910 H924 0.961 . S
C911 C908 1.539 . S
C911 H925 0.958 . S
C911 H926 0.961 . S
C911 H927 0.960 . S
H912 C896 0.931 . S
H913 C901 0.929 . S
H914 C902 0.960 . S
H915 C902 0.962 . S
H916 C902 0.960 . S
H917 C903 0.961 . S
H918 C903 0.961 . S
H919 C903 0.961 . S
H920 C904 0.931 . S
H921 C909 0.930 1_455 S
H922 C910 0.956 . S
H923 C910 0.961 . S
H924 C910 0.961 . S
H925 C911 0.958 . S
H926 C911 0.961 . S
H927 C911 0.960 . S
C928 C929 1.391 . S
C928 C930 1.394 . S
C928 H944 0.931 . S
C929 C928 1.391 . S
C929 C933 1.376 . S
C930 C928 1.394 . S
C930 C931 1.369 . S
C930 C934 1.531 . S
C931 C930 1.369 . S
C931 C932 1.410 . S
C931 C939 1.503 . S
C932 C931 1.410 . S
C932 C933 1.392 . S
C932 C935 1.511 . S
C933 C929 1.376 . S
C933 C932 1.392 . S
C933 H945 0.929 . S
C934 C930 1.531 . S
C934 H946 0.960 . S
C934 H947 0.962 . S
C934 H948 0.960 . S
C935 C932 1.511 . S
C935 H949 0.961 . S
C935 H950 0.961 . S
C935 H951 0.961 . S
C936 C937 1.370 . S
C936 C938 1.363 . S
C936 H952 0.931 . S
C937 C936 1.370 . S
C937 C941 1.408 . S
C938 C936 1.363 . S
C938 C939 1.370 . S
C938 C942 1.524 . S
C939 C931 1.503 . S
C939 C938 1.370 . S
C939 C940 1.403 . S
C940 C939 1.403 . S
C940 C941 1.404 . S
C940 C943 1.539 . S
C941 C937 1.408 . S
C941 C940 1.404 . S
C941 H953 0.930 . S
C942 C938 1.524 . S
C942 H954 0.956 . S
C942 H955 0.961 . S
C942 H956 0.961 . S
C943 C940 1.539 . S
C943 H957 0.958 . S
C943 H958 0.961 . S
C943 H959 0.960 . S
H944 C928 0.931 . S
H945 C933 0.929 . S
H946 C934 0.960 . S
H947 C934 0.962 . S
H948 C934 0.960 . S
H949 C935 0.961 . S
H950 C935 0.961 . S
H951 C935 0.961 . S
H952 C936 0.931 . S
H953 C941 0.930 . S
H954 C942 0.956 . S
H955 C942 0.961 . S
H956 C942 0.961 . S
H957 C943 0.958 . S
H958 C943 0.961 . S
H959 C943 0.960 . S
C960 C961 1.391 . S
C960 C962 1.394 . S
C960 H976 0.931 . S
C961 C960 1.391 . S
C961 C965 1.376 . S
C962 C960 1.394 . S
C962 C963 1.369 . S
C962 C966 1.531 . S
C963 C962 1.369 . S
C963 C964 1.410 . S
C963 C971 1.503 . S
C964 C963 1.410 . S
C964 C965 1.392 . S
C964 C967 1.511 . S
C965 C961 1.376 . S
C965 C964 1.392 . S
C965 H977 0.929 . S
C966 C962 1.531 . S
C966 H978 0.960 . S
C966 H979 0.962 . S
C966 H980 0.960 . S
C967 C964 1.511 . S
C967 H981 0.961 . S
C967 H982 0.961 . S
C967 H983 0.961 . S
C968 C969 1.370 . S
C968 C970 1.363 . S
C968 H984 0.931 . S
C969 C968 1.370 . S
C969 C973 1.408 . S
C970 C968 1.363 . S
C970 C971 1.370 . S
C970 C974 1.524 . S
C971 C963 1.503 . S
C971 C970 1.370 . S
C971 C972 1.403 . S
C972 C971 1.403 . S
C972 C973 1.404 . S
C972 C975 1.539 . S
C973 C969 1.408 . S
C973 C972 1.404 . S
C973 H985 0.930 . S
C974 C970 1.524 . S
C974 H986 0.956 . S
C974 H987 0.961 . S
C974 H988 0.961 . S
C975 C972 1.539 . S
C975 H989 0.958 . S
C975 H990 0.961 . S
C975 H991 0.960 . S
H976 C960 0.931 . S
H977 C965 0.929 . S
H978 C966 0.960 . S
H979 C966 0.962 . S
H980 C966 0.960 . S
H981 C967 0.961 . S
H982 C967 0.961 . S
H983 C967 0.961 . S
H984 C968 0.931 . S
H985 C973 0.930 . S
H986 C974 0.956 . S
H987 C974 0.961 . S
H988 C974 0.961 . S
H989 C975 0.958 . S
H990 C975 0.961 . S
H991 C975 0.960 . S
C992 C993 1.391 . S
C992 C994 1.394 . S
C992 H1008 0.931 . S
C993 C992 1.391 . S
C993 C997 1.376 . S
C994 C992 1.394 . S
C994 C995 1.369 . S
C994 C998 1.531 . S
C995 C994 1.369 . S
C995 C996 1.410 . S
C995 C1003 1.503 . S
C996 C995 1.410 . S
C996 C997 1.392 . S
C996 C999 1.511 . S
C997 C993 1.376 . S
C997 C996 1.392 . S
C997 H1009 0.929 . S
C998 C994 1.531 . S
C998 H1010 0.960 . S
C998 H1011 0.962 . S
C998 H1012 0.960 . S
C999 C996 1.511 . S
C999 H1013 0.961 . S
C999 H1014 0.961 . S
C999 H1015 0.961 . S
C1000 C1001 1.370 . S
C1000 C1002 1.363 . S
C1000 H1016 0.931 . S
C1001 C1000 1.370 . S
C1001 C1005 1.408 . S
C1002 C1000 1.363 . S
C1002 C1003 1.370 . S
C1002 C1006 1.524 . S
C1003 C995 1.503 . S
C1003 C1002 1.370 . S
C1003 C1004 1.403 . S
C1004 C1003 1.403 . S
C1004 C1005 1.404 . S
C1004 C1007 1.539 . S
C1005 C1001 1.408 . S
C1005 C1004 1.404 . S
C1005 H1017 0.930 . S
C1006 C1002 1.524 . S
C1006 H1018 0.956 . S
C1006 H1019 0.961 . S
C1006 H1020 0.961 . S
C1007 C1004 1.539 . S
C1007 H1021 0.958 . S
C1007 H1022 0.961 . S
C1007 H1023 0.960 . S
H1008 C992 0.931 . S
H1009 C997 0.929 . S
H1010 C998 0.960 . S
H1011 C998 0.962 . S
H1012 C998 0.960 . S
H1013 C999 0.961 . S
H1014 C999 0.961 . S
H1015 C999 0.961 . S
H1016 C1000 0.931 . S
H1017 C1005 0.930 . S
H1018 C1006 0.956 . S
H1019 C1006 0.961 . S
H1020 C1006 0.961 . S
H1021 C1007 0.958 . S
H1022 C1007 0.961 . S
H1023 C1007 0.960 . S
C1024 C1025 1.391 . S
C1024 C1026 1.394 . S
C1024 H1040 0.931 . S
C1025 C1024 1.391 . S
C1025 C1029 1.376 . S
C1026 C1024 1.394 . S
C1026 C1027 1.369 . S
C1026 C1030 1.531 . S
C1027 C1026 1.369 . S
C1027 C1028 1.410 . S
C1027 C1035 1.503 . S
C1028 C1027 1.410 . S
C1028 C1029 1.392 . S
C1028 C1031 1.511 . S
C1029 C1025 1.376 . S
C1029 C1028 1.392 . S
C1029 H1041 0.929 . S
C1030 C1026 1.531 . S
C1030 H1042 0.960 . S
C1030 H1043 0.962 . S
C1030 H1044 0.960 . S
C1031 C1028 1.511 . S
C1031 H1045 0.961 . S
C1031 H1046 0.961 . S
C1031 H1047 0.961 . S
C1032 C1033 1.371 1_655 S
C1032 C1034 1.363 . S
C1032 H1048 0.931 1_655 S
C1033 C1032 1.371 1_455 S
C1033 C1037 1.411 1_455 S
C1034 C1032 1.363 . S
C1034 C1035 1.370 . S
C1034 C1038 1.524 . S
C1035 C1027 1.503 . S
C1035 C1034 1.370 . S
C1035 C1036 1.403 . S
C1036 C1035 1.403 . S
C1036 C1037 1.404 . S
C1036 C1039 1.539 . S
C1037 C1033 1.411 1_655 S
C1037 C1036 1.404 . S
C1037 H1049 0.930 . S
C1038 C1034 1.524 . S
C1038 H1050 0.956 . S
C1038 H1051 0.961 . S
C1038 H1052 0.961 . S
C1039 C1036 1.539 . S
C1039 H1053 0.958 . S
C1039 H1054 0.961 . S
C1039 H1055 0.960 . S
H1040 C1024 0.931 . S
H1041 C1029 0.929 . S
H1042 C1030 0.960 . S
H1043 C1030 0.962 . S
H1044 C1030 0.960 . S
H1045 C1031 0.961 . S
H1046 C1031 0.961 . S
H1047 C1031 0.961 . S
H1048 C1032 0.931 1_455 S
H1049 C1037 0.930 . S
H1050 C1038 0.956 . S
H1051 C1038 0.961 . S
H1052 C1038 0.961 . S
H1053 C1039 0.958 . S
H1054 C1039 0.961 . S
H1055 C1039 0.960 . S
C1056 C1057 1.391 . S
C1056 C1058 1.394 . S
C1056 H1072 0.931 . S
C1057 C1056 1.391 . S
C1057 C1061 1.376 . S
C1058 C1056 1.394 . S
C1058 C1059 1.369 . S
C1058 C1062 1.531 . S
C1059 C1058 1.369 . S
C1059 C1060 1.410 . S
C1059 C1067 1.503 . S
C1060 C1059 1.410 . S
C1060 C1061 1.392 . S
C1060 C1063 1.511 . S
C1061 C1057 1.376 . S
C1061 C1060 1.392 . S
C1061 H1073 0.929 . S
C1062 C1058 1.531 . S
C1062 H1074 0.960 . S
C1062 H1075 0.962 . S
C1062 H1076 0.960 . S
C1063 C1060 1.511 . S
C1063 H1077 0.961 . S
C1063 H1078 0.961 . S
C1063 H1079 0.961 . S
C1064 C1065 1.370 . S
C1064 C1066 1.363 . S
C1064 H1080 0.931 . S
C1065 C1064 1.370 . S
C1065 C1069 1.408 . S
C1066 C1064 1.363 . S
C1066 C1067 1.370 . S
C1066 C1070 1.524 . S
C1067 C1059 1.503 . S
C1067 C1066 1.370 . S
C1067 C1068 1.403 . S
C1068 C1067 1.403 . S
C1068 C1069 1.404 . S
C1068 C1071 1.539 . S
C1069 C1065 1.408 . S
C1069 C1068 1.404 . S
C1069 H1081 0.930 . S
C1070 C1066 1.524 . S
C1070 H1082 0.956 . S
C1070 H1083 0.961 . S
C1070 H1084 0.961 . S
C1071 C1068 1.539 . S
C1071 H1085 0.958 . S
C1071 H1086 0.961 . S
C1071 H1087 0.960 . S
H1072 C1056 0.931 . S
H1073 C1061 0.929 . S
H1074 C1062 0.960 . S
H1075 C1062 0.962 . S
H1076 C1062 0.960 . S
H1077 C1063 0.961 . S
H1078 C1063 0.961 . S
H1079 C1063 0.961 . S
H1080 C1064 0.931 . S
H1081 C1069 0.930 . S
H1082 C1070 0.956 . S
H1083 C1070 0.961 . S
H1084 C1070 0.961 . S
H1085 C1071 0.958 . S
H1086 C1071 0.961 . S
H1087 C1071 0.960 . S
C1088 C1089 1.391 . S
C1088 C1090 1.416 . S
C1088 H1104 0.909 1_655 S
C1089 C1088 1.391 . S
C1089 C1093 1.393 . S
C1090 C1088 1.416 . S
C1090 C1091 1.369 . S
C1090 C1094 1.531 . S
C1091 C1090 1.369 . S
C1091 C1092 1.410 . S
C1091 C1099 1.503 . S
C1092 C1091 1.410 . S
C1092 C1093 1.392 . S
C1092 C1095 1.511 . S
C1093 C1089 1.393 . S
C1093 C1092 1.392 . S
C1093 H1105 0.929 . S
C1094 C1090 1.531 . S
C1094 H1106 0.960 . S
C1094 H1107 0.962 . S
C1094 H1108 0.960 . S
C1095 C1092 1.511 . S
C1095 H1109 0.961 . S
C1095 H1110 0.961 . S
C1095 H1111 0.961 . S
C1096 C1097 1.370 . S
C1096 C1098 1.363 . S
C1096 H1112 0.931 . S
C1097 C1096 1.370 . S
C1097 C1101 1.408 . S
C1098 C1096 1.363 . S
C1098 C1099 1.370 . S
C1098 C1102 1.524 . S
C1099 C1091 1.503 . S
C1099 C1098 1.370 . S
C1099 C1100 1.403 . S
C1100 C1099 1.403 . S
C1100 C1101 1.404 . S
C1100 C1103 1.539 . S
C1101 C1097 1.408 . S
C1101 C1100 1.404 . S
C1101 H1113 0.930 . S
C1102 C1098 1.524 . S
C1102 H1114 0.956 . S
C1102 H1115 0.961 . S
C1102 H1116 0.961 . S
C1103 C1100 1.539 . S
C1103 H1117 0.958 . S
C1103 H1118 0.961 . S
C1103 H1119 0.960 . S
H1104 C1088 0.909 1_455 S
H1105 C1093 0.929 . S
H1106 C1094 0.960 . S
H1107 C1094 0.962 . S
H1108 C1094 0.960 . S
H1109 C1095 0.961 . S
H1110 C1095 0.961 . S
H1111 C1095 0.961 . S
H1112 C1096 0.931 . S
H1113 C1101 0.930 . S
H1114 C1102 0.956 . S
H1115 C1102 0.961 . S
H1116 C1102 0.961 . S
H1117 C1103 0.958 . S
H1118 C1103 0.961 . S
H1119 C1103 0.960 . S
C1120 C1121 1.391 . S
C1120 C1122 1.394 . S
C1120 H1136 0.931 . S
C1121 C1120 1.391 . S
C1121 C1125 1.376 . S
C1122 C1120 1.394 . S
C1122 C1123 1.369 . S
C1122 C1126 1.531 . S
C1123 C1122 1.369 . S
C1123 C1124 1.410 . S
C1123 C1131 1.503 . S
C1124 C1123 1.410 . S
C1124 C1125 1.392 . S
C1124 C1127 1.511 . S
C1125 C1121 1.376 . S
C1125 C1124 1.392 . S
C1125 H1137 0.929 . S
C1126 C1122 1.531 . S
C1126 H1138 0.960 . S
C1126 H1139 0.962 . S
C1126 H1140 0.960 . S
C1127 C1124 1.511 . S
C1127 H1141 0.961 . S
C1127 H1142 0.961 . S
C1127 H1143 0.961 . S
C1128 C1129 1.370 . S
C1128 C1130 1.363 . S
C1128 H1144 0.931 . S
C1129 C1128 1.370 . S
C1129 C1133 1.408 . S
C1130 C1128 1.363 . S
C1130 C1131 1.370 . S
C1130 C1134 1.524 . S
C1131 C1123 1.503 . S
C1131 C1130 1.370 . S
C1131 C1132 1.403 . S
C1132 C1131 1.403 . S
C1132 C1133 1.404 . S
C1132 C1135 1.539 . S
C1133 C1129 1.408 . S
C1133 C1132 1.404 . S
C1133 H1145 0.930 . S
C1134 C1130 1.524 . S
C1134 H1146 0.956 . S
C1134 H1147 0.961 . S
C1134 H1148 0.961 . S
C1135 C1132 1.539 . S
C1135 H1149 0.958 . S
C1135 H1150 0.961 . S
C1135 H1151 0.960 . S
H1136 C1120 0.931 . S
H1137 C1125 0.929 . S
H1138 C1126 0.960 . S
H1139 C1126 0.962 . S
H1140 C1126 0.960 . S
H1141 C1127 0.961 . S
H1142 C1127 0.961 . S
H1143 C1127 0.961 . S
H1144 C1128 0.931 . S
H1145 C1133 0.930 . S
H1146 C1134 0.956 . S
H1147 C1134 0.961 . S
H1148 C1134 0.961 . S
H1149 C1135 0.958 . S
H1150 C1135 0.961 . S
H1151 C1135 0.960 . S
C1152 C1153 1.391 . S
C1152 C1154 1.394 . S
C1152 H1168 0.931 . S
C1153 C1152 1.391 . S
C1153 C1157 1.376 . S
C1154 C1152 1.394 . S
C1154 C1155 1.369 . S
C1154 C1158 1.531 . S
C1155 C1154 1.369 . S
C1155 C1156 1.410 . S
C1155 C1163 1.503 . S
C1156 C1155 1.410 . S
C1156 C1157 1.392 . S
C1156 C1159 1.511 . S
C1157 C1153 1.376 . S
C1157 C1156 1.392 . S
C1157 H1169 0.929 . S
C1158 C1154 1.531 . S
C1158 H1170 0.960 . S
C1158 H1171 0.962 . S
C1158 H1172 0.960 . S
C1159 C1156 1.511 . S
C1159 H1173 0.961 . S
C1159 H1174 0.961 . S
C1159 H1175 0.961 . S
C1160 C1161 1.370 . S
C1160 C1162 1.363 . S
C1160 H1176 0.931 . S
C1161 C1160 1.370 . S
C1161 C1165 1.408 . S
C1162 C1160 1.363 . S
C1162 C1163 1.370 . S
C1162 C1166 1.524 . S
C1163 C1155 1.503 . S
C1163 C1162 1.370 . S
C1163 C1164 1.403 . S
C1164 C1163 1.403 . S
C1164 C1165 1.404 . S
C1164 C1167 1.539 . S
C1165 C1161 1.408 . S
C1165 C1164 1.404 . S
C1165 H1177 0.930 . S
C1166 C1162 1.524 . S
C1166 H1178 0.956 . S
C1166 H1179 0.961 . S
C1166 H1180 0.961 . S
C1167 C1164 1.539 . S
C1167 H1181 0.958 . S
C1167 H1182 0.961 . S
C1167 H1183 0.960 . S
H1168 C1152 0.931 . S
H1169 C1157 0.929 . S
H1170 C1158 0.960 . S
H1171 C1158 0.962 . S
H1172 C1158 0.960 . S
H1173 C1159 0.961 . S
H1174 C1159 0.961 . S
H1175 C1159 0.961 . S
H1176 C1160 0.931 . S
H1177 C1165 0.930 . S
H1178 C1166 0.956 . S
H1179 C1166 0.961 . S
H1180 C1166 0.961 . S
H1181 C1167 0.958 . S
H1182 C1167 0.961 . S
H1183 C1167 0.960 . S
C1184 C1185 1.391 . S
C1184 C1186 1.394 . S
C1184 H1200 0.931 . S
C1185 C1184 1.391 . S
C1185 C1189 1.376 . S
C1186 C1184 1.394 . S
C1186 C1187 1.369 . S
C1186 C1190 1.531 . S
C1187 C1186 1.369 . S
C1187 C1188 1.410 . S
C1187 C1195 1.503 . S
C1188 C1187 1.410 . S
C1188 C1189 1.392 . S
C1188 C1191 1.511 . S
C1189 C1185 1.376 . S
C1189 C1188 1.392 . S
C1189 H1201 0.929 . S
C1190 C1186 1.531 . S
C1190 H1202 0.960 . S
C1190 H1203 0.962 . S
C1190 H1204 0.960 . S
C1191 C1188 1.511 . S
C1191 H1205 0.961 . S
C1191 H1206 0.961 . S
C1191 H1207 0.961 . S
C1192 C1193 1.370 . S
C1192 C1194 1.363 . S
C1192 H1208 0.931 . S
C1193 C1192 1.370 . S
C1193 C1197 1.408 . S
C1194 C1192 1.363 . S
C1194 C1195 1.370 . S
C1194 C1198 1.524 . S
C1195 C1187 1.503 . S
C1195 C1194 1.370 . S
C1195 C1196 1.403 . S
C1196 C1195 1.403 . S
C1196 C1197 1.404 . S
C1196 C1199 1.539 . S
C1197 C1193 1.408 . S
C1197 C1196 1.404 . S
C1197 H1209 0.930 . S
C1198 C1194 1.524 . S
C1198 H1210 0.956 . S
C1198 H1211 0.961 . S
C1198 H1212 0.961 . S
C1199 C1196 1.539 . S
C1199 H1213 0.958 . S
C1199 H1214 0.961 . S
C1199 H1215 0.960 . S
H1200 C1184 0.931 . S
H1201 C1189 0.929 . S
H1202 C1190 0.960 . S
H1203 C1190 0.962 . S
H1204 C1190 0.960 . S
H1205 C1191 0.961 . S
H1206 C1191 0.961 . S
H1207 C1191 0.961 . S
H1208 C1192 0.931 . S
H1209 C1197 0.930 . S
H1210 C1198 0.956 . S
H1211 C1198 0.961 . S
H1212 C1198 0.961 . S
H1213 C1199 0.958 . S
H1214 C1199 0.961 . S
H1215 C1199 0.960 . S
C1216 C1217 1.391 . S
C1216 C1218 1.394 . S
C1216 H1232 0.931 . S
C1217 C1216 1.391 . S
C1217 C1221 1.376 . S
C1218 C1216 1.394 . S
C1218 C1219 1.369 . S
C1218 C1222 1.531 . S
C1219 C1218 1.369 . S
C1219 C1220 1.410 . S
C1219 C1227 1.503 . S
C1220 C1219 1.410 . S
C1220 C1221 1.392 . S
C1220 C1223 1.511 . S
C1221 C1217 1.376 . S
C1221 C1220 1.392 . S
C1221 H1233 0.929 . S
C1222 C1218 1.531 . S
C1222 H1234 0.960 . S
C1222 H1235 0.962 . S
C1222 H1236 0.960 . S
C1223 C1220 1.511 . S
C1223 H1237 0.961 . S
C1223 H1238 0.961 . S
C1223 H1239 0.961 . S
C1224 C1225 1.370 . S
C1224 C1226 1.363 . S
C1224 H1240 0.931 . S
C1225 C1224 1.370 . S
C1225 C1229 1.408 . S
C1226 C1224 1.363 . S
C1226 C1227 1.370 . S
C1226 C1230 1.524 . S
C1227 C1219 1.503 . S
C1227 C1226 1.370 . S
C1227 C1228 1.403 . S
C1228 C1227 1.403 . S
C1228 C1229 1.404 . S
C1228 C1231 1.539 . S
C1229 C1225 1.408 . S
C1229 C1228 1.404 . S
C1229 H1241 0.930 . S
C1230 C1226 1.524 . S
C1230 H1242 0.956 . S
C1230 H1243 0.961 . S
C1230 H1244 0.961 . S
C1231 C1228 1.539 . S
C1231 H1245 0.958 . S
C1231 H1246 0.961 . S
C1231 H1247 0.960 . S
H1232 C1216 0.931 . S
H1233 C1221 0.929 . S
H1234 C1222 0.960 . S
H1235 C1222 0.962 . S
H1236 C1222 0.960 . S
H1237 C1223 0.961 . S
H1238 C1223 0.961 . S
H1239 C1223 0.961 . S
H1240 C1224 0.931 . S
H1241 C1229 0.930 . S
H1242 C1230 0.956 . S
H1243 C1230 0.961 . S
H1244 C1230 0.961 . S
H1245 C1231 0.958 . S
H1246 C1231 0.961 . S
H1247 C1231 0.960 . S
C1248 C1249 1.391 . S
C1248 C1250 1.394 . S
C1248 H1264 0.931 . S
C1249 C1248 1.391 . S
C1249 C1253 1.376 . S
C1250 C1248 1.394 . S
C1250 C1251 1.369 . S
C1250 C1254 1.531 . S
C1251 C1250 1.369 . S
C1251 C1252 1.410 . S
C1251 C1259 1.503 . S
C1252 C1251 1.410 . S
C1252 C1253 1.392 . S
C1252 C1255 1.511 . S
C1253 C1249 1.376 . S
C1253 C1252 1.392 . S
C1253 H1265 0.929 . S
C1254 C1250 1.531 . S
C1254 H1266 0.960 . S
C1254 H1267 0.962 . S
C1254 H1268 0.960 . S
C1255 C1252 1.511 . S
C1255 H1269 0.961 . S
C1255 H1270 0.961 . S
C1255 H1271 0.961 . S
C1256 C1257 1.370 . S
C1256 C1258 1.363 . S
C1256 H1272 0.931 . S
C1257 C1256 1.370 . S
C1257 C1261 1.408 . S
C1258 C1256 1.363 . S
C1258 C1259 1.370 . S
C1258 C1262 1.524 . S
C1259 C1251 1.503 . S
C1259 C1258 1.370 . S
C1259 C1260 1.403 . S
C1260 C1259 1.403 . S
C1260 C1261 1.404 . S
C1260 C1263 1.539 . S
C1261 C1257 1.408 . S
C1261 C1260 1.404 . S
C1261 H1273 0.930 . S
C1262 C1258 1.524 . S
C1262 H1274 0.956 . S
C1262 H1275 0.961 . S
C1262 H1276 0.961 . S
C1263 C1260 1.539 . S
C1263 H1277 0.958 . S
C1263 H1278 0.961 . S
C1263 H1279 0.960 . S
H1264 C1248 0.931 . S
H1265 C1253 0.929 . S
H1266 C1254 0.960 . S
H1267 C1254 0.962 . S
H1268 C1254 0.960 . S
H1269 C1255 0.961 . S
H1270 C1255 0.961 . S
H1271 C1255 0.961 . S
H1272 C1256 0.931 . S
H1273 C1261 0.930 . S
H1274 C1262 0.956 . S
H1275 C1262 0.961 . S
H1276 C1262 0.961 . S
H1277 C1263 0.958 . S
H1278 C1263 0.961 . S
H1279 C1263 0.960 . S
C1280 C1281 1.391 . S
C1280 C1282 1.394 1_655 S
C1280 H1296 0.931 . S
C1281 C1280 1.391 . S
C1281 C1285 1.376 1_655 S
C1282 C1280 1.394 1_455 S
C1282 C1283 1.369 . S
C1282 C1286 1.531 . S
C1283 C1282 1.369 . S
C1283 C1284 1.410 . S
C1283 C1291 1.503 . S
C1284 C1283 1.410 . S
C1284 C1285 1.392 . S
C1284 C1287 1.511 . S
C1285 C1281 1.376 1_455 S
C1285 C1284 1.392 . S
C1285 H1297 0.929 . S
C1286 C1282 1.531 . S
C1286 H1298 0.960 . S
C1286 H1299 0.962 . S
C1286 H1300 0.960 1_455 S
C1287 C1284 1.511 . S
C1287 H1301 0.961 . S
C1287 H1302 0.961 . S
C1287 H1303 0.961 . S
C1288 C1289 1.370 . S
C1288 C1290 1.363 . S
C1288 H1304 0.931 . S
C1289 C1288 1.370 . S
C1289 C1293 1.408 . S
C1290 C1288 1.363 . S
C1290 C1291 1.370 . S
C1290 C1294 1.524 . S
C1291 C1283 1.503 . S
C1291 C1290 1.370 . S
C1291 C1292 1.403 . S
C1292 C1291 1.403 . S
C1292 C1293 1.404 . S
C1292 C1295 1.539 . S
C1293 C1289 1.408 . S
C1293 C1292 1.404 . S
C1293 H1305 0.930 . S
C1294 C1290 1.524 . S
C1294 H1306 0.956 . S
C1294 H1307 0.961 . S
C1294 H1308 0.961 . S
C1295 C1292 1.539 . S
C1295 H1309 0.958 . S
C1295 H1310 0.961 . S
C1295 H1311 0.960 . S
H1296 C1280 0.931 . S
H1297 C1285 0.929 . S
H1298 C1286 0.960 . S
H1299 C1286 0.962 . S
H1300 C1286 0.960 1_655 S
H1301 C1287 0.961 . S
H1302 C1287 0.961 . S
H1303 C1287 0.961 . S
H1304 C1288 0.931 . S
H1305 C1293 0.930 . S
H1306 C1294 0.956 . S
H1307 C1294 0.961 . S
H1308 C1294 0.961 . S
H1309 C1295 0.958 . S
H1310 C1295 0.961 . S
H1311 C1295 0.960 . S
C1312 C1313 1.391 . S
C1312 C1314 1.394 . S
C1312 H1328 0.931 . S
C1313 C1312 1.391 . S
C1313 C1317 1.376 . S
C1314 C1312 1.394 . S
C1314 C1315 1.369 . S
C1314 C1318 1.531 . S
C1315 C1314 1.369 . S
C1315 C1316 1.410 . S
C1315 C1323 1.503 . S
C1316 C1315 1.410 . S
C1316 C1317 1.392 . S
C1316 C1319 1.511 . S
C1317 C1313 1.376 . S
C1317 C1316 1.392 . S
C1317 H1329 0.929 . S
C1318 C1314 1.531 . S
C1318 H1330 0.960 . S
C1318 H1331 0.962 . S
C1318 H1332 0.960 . S
C1319 C1316 1.511 . S
C1319 H1333 0.961 . S
C1319 H1334 0.961 . S
C1319 H1335 0.961 . S
C1320 C1321 1.370 . S
C1320 C1322 1.363 . S
C1320 H1336 0.931 . S
C1321 C1320 1.370 . S
C1321 C1325 1.408 . S
C1322 C1320 1.363 . S
C1322 C1323 1.370 . S
C1322 C1326 1.524 . S
C1323 C1315 1.503 . S
C1323 C1322 1.370 . S
C1323 C1324 1.403 . S
C1324 C1323 1.403 . S
C1324 C1325 1.404 . S
C1324 C1327 1.539 . S
C1325 C1321 1.408 . S
C1325 C1324 1.404 . S
C1325 H1337 0.930 . S
C1326 C1322 1.524 . S
C1326 H1338 0.956 . S
C1326 H1339 0.961 . S
C1326 H1340 0.961 . S
C1327 C1324 1.539 . S
C1327 H1341 0.958 . S
C1327 H1342 0.961 . S
C1327 H1343 0.960 . S
H1328 C1312 0.931 . S
H1329 C1317 0.929 . S
H1330 C1318 0.960 . S
H1331 C1318 0.962 . S
H1332 C1318 0.960 . S
H1333 C1319 0.961 . S
H1334 C1319 0.961 . S
H1335 C1319 0.961 . S
H1336 C1320 0.931 . S
H1337 C1325 0.930 . S
H1338 C1326 0.956 . S
H1339 C1326 0.961 . S
H1340 C1326 0.961 . S
H1341 C1327 0.958 . S
H1342 C1327 0.961 . S
H1343 C1327 0.960 . S
C1344 C1345 1.390 1_655 S
C1344 C1346 1.394 1_655 S
C1344 H1360 0.931 . S
C1345 C1344 1.390 1_455 S
C1345 C1349 1.383 . S
C1346 C1344 1.394 1_455 S
C1346 C1347 1.369 . S
C1346 C1350 1.531 . S
C1347 C1346 1.369 . S
C1347 C1348 1.410 . S
C1347 C1355 1.503 . S
C1348 C1347 1.410 . S
C1348 C1349 1.392 . S
C1348 C1351 1.511 . S
C1349 C1345 1.383 . S
C1349 C1348 1.392 . S
C1349 H1361 0.929 . S
C1350 C1346 1.531 . S
C1350 H1362 0.960 . S
C1350 H1363 0.962 . S
C1350 H1364 0.960 . S
C1351 C1348 1.511 . S
C1351 H1365 0.961 . S
C1351 H1366 0.961 . S
C1351 H1367 0.961 . S
C1352 C1353 1.370 . S
C1352 C1354 1.363 . S
C1352 H1368 0.931 . S
C1353 C1352 1.370 . S
C1353 C1357 1.408 . S
C1354 C1352 1.363 . S
C1354 C1355 1.370 . S
C1354 C1358 1.524 . S
C1355 C1347 1.503 . S
C1355 C1354 1.370 . S
C1355 C1356 1.403 . S
C1356 C1355 1.403 . S
C1356 C1357 1.404 . S
C1356 C1359 1.539 . S
C1357 C1353 1.408 . S
C1357 C1356 1.404 . S
C1357 H1369 0.930 . S
C1358 C1354 1.524 . S
C1358 H1370 0.956 . S
C1358 H1371 0.961 . S
C1358 H1372 0.961 . S
C1359 C1356 1.539 . S
C1359 H1373 0.958 . S
C1359 H1374 0.961 . S
C1359 H1375 0.960 . S
H1360 C1344 0.931 . S
H1361 C1349 0.929 . S
H1362 C1350 0.960 . S
H1363 C1350 0.962 . S
H1364 C1350 0.960 . S
H1365 C1351 0.961 . S
H1366 C1351 0.961 . S
H1367 C1351 0.961 . S
H1368 C1352 0.931 . S
H1369 C1357 0.930 . S
H1370 C1358 0.956 . S
H1371 C1358 0.961 . S
H1372 C1358 0.961 . S
H1373 C1359 0.958 . S
H1374 C1359 0.961 . S
H1375 C1359 0.960 . S
C1376 C1377 1.391 . S
C1376 C1378 1.394 . S
C1376 H1392 0.931 . S
C1377 C1376 1.391 . S
C1377 C1381 1.376 . S
C1378 C1376 1.394 . S
C1378 C1379 1.369 . S
C1378 C1382 1.531 . S
C1379 C1378 1.369 . S
C1379 C1380 1.410 . S
C1379 C1387 1.503 . S
C1380 C1379 1.410 . S
C1380 C1381 1.392 . S
C1380 C1383 1.511 . S
C1381 C1377 1.376 . S
C1381 C1380 1.392 . S
C1381 H1393 0.929 . S
C1382 C1378 1.531 . S
C1382 H1394 0.960 . S
C1382 H1395 0.962 . S
C1382 H1396 0.960 . S
C1383 C1380 1.511 . S
C1383 H1397 0.961 . S
C1383 H1398 0.961 . S
C1383 H1399 0.961 . S
C1384 C1385 1.370 . S
C1384 C1386 1.363 . S
C1384 H1400 0.931 . S
C1385 C1384 1.370 . S
C1385 C1389 1.408 . S
C1386 C1384 1.363 . S
C1386 C1387 1.370 . S
C1386 C1390 1.524 . S
C1387 C1379 1.503 . S
C1387 C1386 1.370 . S
C1387 C1388 1.403 . S
C1388 C1387 1.403 . S
C1388 C1389 1.404 . S
C1388 C1391 1.539 . S
C1389 C1385 1.408 . S
C1389 C1388 1.404 . S
C1389 H1401 0.930 . S
C1390 C1386 1.524 . S
C1390 H1402 0.956 . S
C1390 H1403 0.961 . S
C1390 H1404 0.961 . S
C1391 C1388 1.539 . S
C1391 H1405 0.958 . S
C1391 H1406 0.961 . S
C1391 H1407 0.960 . S
H1392 C1376 0.931 . S
H1393 C1381 0.929 . S
H1394 C1382 0.960 . S
H1395 C1382 0.962 . S
H1396 C1382 0.960 . S
H1397 C1383 0.961 . S
H1398 C1383 0.961 . S
H1399 C1383 0.961 . S
H1400 C1384 0.931 . S
H1401 C1389 0.930 . S
H1402 C1390 0.956 . S
H1403 C1390 0.961 . S
H1404 C1390 0.961 . S
H1405 C1391 0.958 . S
H1406 C1391 0.961 . S
H1407 C1391 0.960 . S
C1408 C1409 1.391 . S
C1408 C1410 1.394 . S
C1408 H1424 0.931 . S
C1409 C1408 1.391 . S
C1409 C1413 1.376 . S
C1410 C1408 1.394 . S
C1410 C1411 1.369 . S
C1410 C1414 1.531 . S
C1411 C1410 1.369 . S
C1411 C1412 1.410 . S
C1411 C1419 1.503 . S
C1412 C1411 1.410 . S
C1412 C1413 1.392 . S
C1412 C1415 1.511 . S
C1413 C1409 1.376 . S
C1413 C1412 1.392 . S
C1413 H1425 0.929 . S
C1414 C1410 1.531 . S
C1414 H1426 0.960 . S
C1414 H1427 0.962 . S
C1414 H1428 0.960 . S
C1415 C1412 1.511 . S
C1415 H1429 0.961 . S
C1415 H1430 0.961 . S
C1415 H1431 0.961 . S
C1416 C1417 1.370 . S
C1416 C1418 1.363 . S
C1416 H1432 0.931 . S
C1417 C1416 1.370 . S
C1417 C1421 1.408 . S
C1418 C1416 1.363 . S
C1418 C1419 1.370 . S
C1418 C1422 1.524 . S
C1419 C1411 1.503 . S
C1419 C1418 1.370 . S
C1419 C1420 1.403 . S
C1420 C1419 1.403 . S
C1420 C1421 1.404 . S
C1420 C1423 1.539 . S
C1421 C1417 1.408 . S
C1421 C1420 1.404 . S
C1421 H1433 0.930 . S
C1422 C1418 1.524 . S
C1422 H1434 0.956 . S
C1422 H1435 0.961 . S
C1422 H1436 0.961 . S
C1423 C1420 1.539 . S
C1423 H1437 0.958 . S
C1423 H1438 0.961 . S
C1423 H1439 0.960 . S
H1424 C1408 0.931 . S
H1425 C1413 0.929 . S
H1426 C1414 0.960 . S
H1427 C1414 0.962 . S
H1428 C1414 0.960 . S
H1429 C1415 0.961 . S
H1430 C1415 0.961 . S
H1431 C1415 0.961 . S
H1432 C1416 0.931 . S
H1433 C1421 0.930 . S
H1434 C1422 0.956 . S
H1435 C1422 0.961 . S
H1436 C1422 0.961 . S
H1437 C1423 0.958 . S
H1438 C1423 0.961 . S
H1439 C1423 0.960 . S
C1440 C1441 1.391 . S
C1440 C1442 1.394 . S
C1440 H1456 0.931 . S
C1441 C1440 1.391 . S
C1441 C1445 1.376 . S
C1442 C1440 1.394 . S
C1442 C1443 1.369 . S
C1442 C1446 1.531 . S
C1443 C1442 1.369 . S
C1443 C1444 1.410 . S
C1443 C1451 1.503 . S
C1444 C1443 1.410 . S
C1444 C1445 1.392 . S
C1444 C1447 1.511 . S
C1445 C1441 1.376 . S
C1445 C1444 1.392 . S
C1445 H1457 0.929 . S
C1446 C1442 1.531 . S
C1446 H1458 0.960 . S
C1446 H1459 0.962 . S
C1446 H1460 0.960 . S
C1447 C1444 1.511 . S
C1447 H1461 0.961 . S
C1447 H1462 0.961 . S
C1447 H1463 0.961 . S
C1448 C1449 1.370 . S
C1448 C1450 1.363 . S
C1448 H1464 0.931 . S
C1449 C1448 1.370 . S
C1449 C1453 1.408 . S
C1450 C1448 1.363 . S
C1450 C1451 1.370 . S
C1450 C1454 1.524 . S
C1451 C1443 1.503 . S
C1451 C1450 1.370 . S
C1451 C1452 1.403 . S
C1452 C1451 1.403 . S
C1452 C1453 1.404 . S
C1452 C1455 1.539 . S
C1453 C1449 1.408 . S
C1453 C1452 1.404 . S
C1453 H1465 0.930 . S
C1454 C1450 1.524 . S
C1454 H1466 0.956 . S
C1454 H1467 0.961 . S
C1454 H1468 0.961 . S
C1455 C1452 1.539 . S
C1455 H1469 0.958 . S
C1455 H1470 0.961 . S
C1455 H1471 0.960 . S
H1456 C1440 0.931 . S
H1457 C1445 0.929 . S
H1458 C1446 0.960 . S
H1459 C1446 0.962 . S
H1460 C1446 0.960 . S
H1461 C1447 0.961 . S
H1462 C1447 0.961 . S
H1463 C1447 0.961 . S
H1464 C1448 0.931 . S
H1465 C1453 0.930 . S
H1466 C1454 0.956 . S
H1467 C1454 0.961 . S
H1468 C1454 0.961 . S
H1469 C1455 0.958 . S
H1470 C1455 0.961 . S
H1471 C1455 0.960 . S
C1472 C1473 1.391 . S
C1472 C1474 1.394 . S
C1472 H1488 0.931 . S
C1473 C1472 1.391 . S
C1473 C1477 1.376 . S
C1474 C1472 1.394 . S
C1474 C1475 1.369 . S
C1474 C1478 1.531 1_565 S
C1475 C1474 1.369 . S
C1475 C1476 1.410 1_655 S
C1475 C1483 1.503 1_665 S
C1476 C1475 1.410 1_455 S
C1476 C1477 1.392 1_455 S
C1476 C1479 1.511 . S
C1477 C1473 1.376 . S
C1477 C1476 1.392 1_655 S
C1477 H1489 0.929 . S
C1478 C1474 1.531 1_545 S
C1478 H1490 0.960 . S
C1478 H1491 0.962 . S
C1478 H1492 0.960 . S
C1479 C1476 1.511 . S
C1479 H1493 0.961 . S
C1479 H1494 0.961 . S
C1479 H1495 0.961 . S
C1480 C1481 1.370 . S
C1480 C1482 1.363 . S
C1480 H1496 0.931 . S
C1481 C1480 1.370 . S
C1481 C1485 1.408 . S
C1482 C1480 1.363 . S
C1482 C1483 1.370 . S
C1482 C1486 1.524 1_455 S
C1483 C1475 1.503 1_445 S
C1483 C1482 1.370 . S
C1483 C1484 1.403 . S
C1484 C1483 1.403 . S
C1484 C1485 1.404 . S
C1484 C1487 1.539 . S
C1485 C1481 1.408 . S
C1485 C1484 1.404 . S
C1485 H1497 0.930 . S
C1486 C1482 1.524 1_655 S
C1486 H1498 0.956 . S
C1486 H1499 0.961 1_545 S
C1486 H1500 0.961 . S
C1487 C1484 1.539 . S
C1487 H1501 0.958 . S
C1487 H1502 0.961 . S
C1487 H1503 0.960 1_545 S
H1488 C1472 0.931 . S
H1489 C1477 0.929 . S
H1490 C1478 0.960 . S
H1491 C1478 0.962 . S
H1492 C1478 0.960 . S
H1493 C1479 0.961 . S
H1494 C1479 0.961 . S
H1495 C1479 0.961 . S
H1496 C1480 0.931 . S
H1497 C1485 0.930 . S
H1498 C1486 0.956 . S
H1499 C1486 0.961 1_565 S
H1500 C1486 0.961 . S
H1501 C1487 0.958 . S
H1502 C1487 0.961 . S
H1503 C1487 0.960 1_565 S
C1504 C1505 1.391 . S
C1504 C1506 1.394 . S
C1504 H1520 0.931 . S
C1505 C1504 1.391 . S
C1505 C1509 1.376 . S
C1506 C1504 1.394 . S
C1506 C1507 1.369 . S
C1506 C1510 1.531 . S
C1507 C1506 1.369 . S
C1507 C1508 1.410 . S
C1507 C1515 1.503 . S
C1508 C1507 1.410 . S
C1508 C1509 1.392 . S
C1508 C1511 1.511 . S
C1509 C1505 1.376 . S
C1509 C1508 1.392 . S
C1509 H1521 0.929 . S
C1510 C1506 1.531 . S
C1510 H1522 0.960 . S
C1510 H1523 0.962 . S
C1510 H1524 0.960 . S
C1511 C1508 1.511 . S
C1511 H1525 0.961 . S
C1511 H1526 0.961 . S
C1511 H1527 0.961 . S
C1512 C1513 1.370 . S
C1512 C1514 1.363 . S
C1512 H1528 0.931 . S
C1513 C1512 1.370 . S
C1513 C1517 1.408 . S
C1514 C1512 1.363 . S
C1514 C1515 1.370 . S
C1514 C1518 1.524 . S
C1515 C1507 1.503 . S
C1515 C1514 1.370 . S
C1515 C1516 1.403 . S
C1516 C1515 1.403 . S
C1516 C1517 1.404 . S
C1516 C1519 1.539 . S
C1517 C1513 1.408 . S
C1517 C1516 1.404 . S
C1517 H1529 0.930 . S
C1518 C1514 1.524 . S
C1518 H1530 0.956 . S
C1518 H1531 0.961 . S
C1518 H1532 0.961 . S
C1519 C1516 1.539 . S
C1519 H1533 0.958 . S
C1519 H1534 0.961 . S
C1519 H1535 0.960 . S
H1520 C1504 0.931 . S
H1521 C1509 0.929 . S
H1522 C1510 0.960 . S
H1523 C1510 0.962 . S
H1524 C1510 0.960 . S
H1525 C1511 0.961 . S
H1526 C1511 0.961 . S
H1527 C1511 0.961 . S
H1528 C1512 0.931 . S
H1529 C1517 0.930 . S
H1530 C1518 0.956 . S
H1531 C1518 0.961 . S
H1532 C1518 0.961 . S
H1533 C1519 0.958 . S
H1534 C1519 0.961 . S
H1535 C1519 0.960 . S
C1536 C1537 1.391 1_556 S
C1536 C1538 1.394 . S
C1536 H1552 0.931 . S
C1537 C1536 1.391 1_554 S
C1537 C1541 1.376 . S
C1538 C1536 1.394 . S
C1538 C1539 1.385 . S
C1538 C1542 1.531 . S
C1539 C1538 1.385 . S
C1539 C1540 1.389 1_556 S
C1539 C1547 1.507 1_545 S
C1540 C1539 1.389 1_554 S
C1540 C1541 1.392 . S
C1540 C1543 1.511 1_545 S
C1541 C1537 1.376 . S
C1541 C1540 1.392 . S
C1541 H1553 0.929 . S
C1542 C1538 1.531 . S
C1542 H1554 0.960 . S
C1542 H1555 0.962 . S
C1542 H1556 0.960 . S
C1543 C1540 1.511 1_565 S
C1543 H1557 0.961 . S
C1543 H1558 0.961 . S
C1543 H1559 0.961 . S
C1544 C1545 1.371 . S
C1544 C1546 1.363 1_556 S
C1544 H1560 0.930 1_556 S
C1545 C1544 1.371 . S
C1545 C1549 1.408 . S
C1546 C1544 1.363 1_554 S
C1546 C1547 1.370 1_554 S
C1546 C1550 1.524 1_565 S
C1547 C1539 1.507 1_565 S
C1547 C1546 1.370 1_556 S
C1547 C1548 1.403 . S
C1548 C1547 1.403 . S
C1548 C1549 1.404 . S
C1548 C1551 1.539 . S
C1549 C1545 1.408 . S
C1549 C1548 1.404 . S
C1549 H1561 0.930 . S
C1550 C1546 1.524 1_545 S
C1550 H1562 0.956 . S
C1550 H1563 0.961 . S
C1550 H1564 0.961 . S
C1551 C1548 1.539 . S
C1551 H1565 0.958 . S
C1551 H1566 0.961 . S
C1551 H1567 0.960 . S
H1552 C1536 0.931 . S
H1553 C1541 0.929 . S
H1554 C1542 0.960 . S
H1555 C1542 0.962 . S
H1556 C1542 0.960 . S
H1557 C1543 0.961 . S
H1558 C1543 0.961 . S
H1559 C1543 0.961 . S
H1560 C1544 0.930 1_554 S
H1561 C1549 0.930 . S
H1562 C1550 0.956 . S
H1563 C1550 0.961 . S
H1564 C1550 0.961 . S
H1565 C1551 0.958 . S
H1566 C1551 0.961 . S
H1567 C1551 0.960 . S
C1568 C1569 1.391 . S
C1568 C1570 1.394 . S
C1568 H1584 0.931 . S
C1569 C1568 1.391 . S
C1569 C1573 1.376 . S
C1570 C1568 1.394 . S
C1570 C1571 1.369 . S
C1570 C1574 1.531 . S
C1571 C1570 1.369 . S
C1571 C1572 1.410 . S
C1571 C1579 1.503 . S
C1572 C1571 1.410 . S
C1572 C1573 1.392 . S
C1572 C1575 1.511 . S
C1573 C1569 1.376 . S
C1573 C1572 1.392 . S
C1573 H1585 0.929 . S
C1574 C1570 1.531 . S
C1574 H1586 0.960 . S
C1574 H1587 0.962 . S
C1574 H1588 0.960 . S
C1575 C1572 1.511 . S
C1575 H1589 0.961 . S
C1575 H1590 0.961 . S
C1575 H1591 0.961 . S
C1576 C1577 1.370 . S
C1576 C1578 1.363 . S
C1576 H1592 0.931 . S
C1577 C1576 1.370 . S
C1577 C1581 1.408 . S
C1578 C1576 1.363 . S
C1578 C1579 1.370 . S
C1578 C1582 1.524 . S
C1579 C1571 1.503 . S
C1579 C1578 1.370 . S
C1579 C1580 1.403 . S
C1580 C1579 1.403 . S
C1580 C1581 1.404 . S
C1580 C1583 1.539 . S
C1581 C1577 1.408 . S
C1581 C1580 1.404 . S
C1581 H1593 0.930 . S
C1582 C1578 1.524 . S
C1582 H1594 0.956 . S
C1582 H1595 0.961 . S
C1582 H1596 0.961 . S
C1583 C1580 1.539 . S
C1583 H1597 0.958 . S
C1583 H1598 0.961 . S
C1583 H1599 0.960 . S
H1584 C1568 0.931 . S
H1585 C1573 0.929 . S
H1586 C1574 0.960 . S
H1587 C1574 0.962 . S
H1588 C1574 0.960 . S
H1589 C1575 0.961 . S
H1590 C1575 0.961 . S
H1591 C1575 0.961 . S
H1592 C1576 0.931 . S
H1593 C1581 0.930 . S
H1594 C1582 0.956 . S
H1595 C1582 0.961 . S
H1596 C1582 0.961 . S
H1597 C1583 0.958 . S
H1598 C1583 0.961 . S
H1599 C1583 0.960 . S
C1600 C1601 1.391 . S
C1600 C1602 1.394 . S
C1600 H1616 0.931 . S
C1601 C1600 1.391 . S
C1601 C1605 1.376 . S
C1602 C1600 1.394 . S
C1602 C1603 1.369 . S
C1602 C1606 1.531 . S
C1603 C1602 1.369 . S
C1603 C1604 1.410 . S
C1603 C1611 1.503 1_565 S
C1604 C1603 1.410 . S
C1604 C1605 1.392 . S
C1604 C1607 1.511 . S
C1605 C1601 1.376 . S
C1605 C1604 1.392 . S
C1605 H1617 0.929 . S
C1606 C1602 1.531 . S
C1606 H1618 0.960 . S
C1606 H1619 0.962 . S
C1606 H1620 0.960 . S
C1607 C1604 1.511 . S
C1607 H1621 0.961 . S
C1607 H1622 0.961 1_565 S
C1607 H1623 0.961 . S
C1608 C1609 1.370 . S
C1608 C1610 1.363 . S
C1608 H1624 0.931 . S
C1609 C1608 1.370 . S
C1609 C1613 1.408 . S
C1610 C1608 1.363 . S
C1610 C1611 1.370 . S
C1610 C1614 1.524 . S
C1611 C1603 1.503 1_545 S
C1611 C1610 1.370 . S
C1611 C1612 1.403 . S
C1612 C1611 1.403 . S
C1612 C1613 1.404 . S
C1612 C1615 1.539 1_545 S
C1613 C1609 1.408 . S
C1613 C1612 1.404 . S
C1613 H1625 0.930 . S
C1614 C1610 1.524 . S
C1614 H1626 0.956 . S
C1614 H1627 0.961 . S
C1614 H1628 0.961 . S
C1615 C1612 1.539 1_565 S
C1615 H1629 0.958 . S
C1615 H1630 0.961 . S
C1615 H1631 0.960 . S
H1616 C1600 0.931 . S
H1617 C1605 0.929 . S
H1618 C1606 0.960 . S
H1619 C1606 0.962 . S
H1620 C1606 0.960 . S
H1621 C1607 0.961 . S
H1622 C1607 0.961 1_545 S
H1623 C1607 0.961 . S
H1624 C1608 0.931 . S
H1625 C1613 0.930 . S
H1626 C1614 0.956 . S
H1627 C1614 0.961 . S
H1628 C1614 0.961 . S
H1629 C1615 0.958 . S
H1630 C1615 0.961 . S
H1631 C1615 0.960 . S
C1632 C1633 1.391 . S
C1632 C1634 1.394 . S
C1632 H1648 0.931 . S
C1633 C1632 1.391 . S
C1633 C1637 1.376 . S
C1634 C1632 1.394 . S
C1634 C1635 1.369 . S
C1634 C1638 1.531 . S
C1635 C1634 1.369 . S
C1635 C1636 1.410 . S
C1635 C1643 1.503 . S
C1636 C1635 1.410 . S
C1636 C1637 1.392 . S
C1636 C1639 1.511 . S
C1637 C1633 1.376 . S
C1637 C1636 1.392 . S
C1637 H1649 0.929 . S
C1638 C1634 1.531 . S
C1638 H1650 0.960 . S
C1638 H1651 0.962 . S
C1638 H1652 0.960 . S
C1639 C1636 1.511 . S
C1639 H1653 0.961 . S
C1639 H1654 0.961 . S
C1639 H1655 0.961 . S
C1640 C1641 1.370 . S
C1640 C1642 1.363 . S
C1640 H1656 0.931 . S
C1641 C1640 1.370 . S
C1641 C1645 1.408 . S
C1642 C1640 1.363 . S
C1642 C1643 1.370 . S
C1642 C1646 1.524 . S
C1643 C1635 1.503 . S
C1643 C1642 1.370 . S
C1643 C1644 1.403 . S
C1644 C1643 1.403 . S
C1644 C1645 1.404 . S
C1644 C1647 1.539 . S
C1645 C1641 1.408 . S
C1645 C1644 1.404 . S
C1645 H1657 0.930 . S
C1646 C1642 1.524 . S
C1646 H1658 0.956 . S
C1646 H1659 0.961 . S
C1646 H1660 0.961 . S
C1647 C1644 1.539 . S
C1647 H1661 0.958 . S
C1647 H1662 0.961 . S
C1647 H1663 0.960 . S
H1648 C1632 0.931 . S
H1649 C1637 0.929 . S
H1650 C1638 0.960 . S
H1651 C1638 0.962 . S
H1652 C1638 0.960 . S
H1653 C1639 0.961 . S
H1654 C1639 0.961 . S
H1655 C1639 0.961 . S
H1656 C1640 0.931 . S
H1657 C1645 0.930 . S
H1658 C1646 0.956 . S
H1659 C1646 0.961 . S
H1660 C1646 0.961 . S
H1661 C1647 0.958 . S
H1662 C1647 0.961 . S
H1663 C1647 0.960 . S
C1664 C1665 1.391 1_554 S
C1664 C1666 1.394 . S
C1664 H1680 0.931 . S
C1665 C1664 1.391 1_556 S
C1665 C1669 1.376 . S
C1666 C1664 1.394 . S
C1666 C1667 1.369 1_554 S
C1666 C1670 1.531 . S
C1667 C1666 1.369 1_556 S
C1667 C1668 1.410 . S
C1667 C1675 1.503 1_646 S
C1668 C1667 1.410 . S
C1668 C1669 1.392 . S
C1668 C1671 1.511 1_545 S
C1669 C1665 1.376 . S
C1669 C1668 1.392 . S
C1669 H1681 0.929 . S
C1670 C1666 1.531 . S
C1670 H1682 0.999 . S
C1670 H1683 0.962 1_655 S
C1670 H1684 0.960 . S
C1671 C1668 1.511 1_565 S
C1671 H1685 0.961 1_565 S
C1671 H1686 0.929 1_655 S
C1671 H1687 0.961 . S
C1672 C1673 1.370 . S
C1672 C1674 1.363 . S
C1672 H1688 0.931 . S
C1673 C1672 1.370 . S
C1673 C1677 1.408 . S
C1674 C1672 1.363 . S
C1674 C1675 1.370 . S
C1674 C1678 1.524 1_564 S
C1675 C1667 1.503 1_464 S
C1675 C1674 1.370 . S
C1675 C1676 1.403 1_455 S
C1676 C1675 1.403 1_655 S
C1676 C1677 1.404 1_655 S
C1676 C1679 1.539 . S
C1677 C1673 1.408 . S
C1677 C1676 1.404 1_455 S
C1677 H1689 0.930 . S
C1678 C1674 1.524 1_546 S
C1678 H1690 0.956 1_556 S
C1678 H1691 0.961 . S
C1678 H1692 0.961 . S
C1679 C1676 1.539 . S
C1679 H1693 0.958 . S
C1679 H1694 0.961 . S
C1679 H1695 0.957 . S
H1680 C1664 0.931 . S
H1681 C1669 0.929 . S
H1682 C1670 0.999 . S
H1683 C1670 0.962 1_455 S
H1684 C1670 0.960 . S
H1685 C1671 0.961 1_545 S
H1686 C1671 0.929 1_455 S
H1687 C1671 0.961 . S
H1688 C1672 0.931 . S
H1689 C1677 0.930 . S
H1690 C1678 0.956 1_554 S
H1691 C1678 0.961 . S
H1692 C1678 0.961 . S
H1693 C1679 0.958 . S
H1694 C1679 0.961 . S
H1695 C1679 0.957 . S
C1696 C1697 1.391 . S
C1696 C1698 1.394 . S
C1696 H1712 0.931 . S
C1697 C1696 1.391 . S
C1697 C1701 1.376 . S
C1698 C1696 1.394 . S
C1698 C1699 1.369 . S
C1698 C1702 1.531 . S
C1699 C1698 1.369 . S
C1699 C1700 1.410 . S
C1699 C1707 1.503 . S
C1700 C1699 1.410 . S
C1700 C1701 1.392 . S
C1700 C1703 1.511 . S
C1701 C1697 1.376 . S
C1701 C1700 1.392 . S
C1701 H1713 0.929 . S
C1702 C1698 1.531 . S
C1702 H1714 0.960 . S
C1702 H1715 0.962 . S
C1702 H1716 0.960 . S
C1703 C1700 1.511 . S
C1703 H1717 0.961 . S
C1703 H1718 0.961 . S
C1703 H1719 0.961 . S
C1704 C1705 1.370 . S
C1704 C1706 1.363 . S
C1704 H1720 0.931 . S
C1705 C1704 1.370 . S
C1705 C1709 1.408 . S
C1706 C1704 1.363 . S
C1706 C1707 1.370 . S
C1706 C1710 1.524 . S
C1707 C1699 1.503 . S
C1707 C1706 1.370 . S
C1707 C1708 1.403 . S
C1708 C1707 1.403 . S
C1708 C1709 1.404 . S
C1708 C1711 1.539 . S
C1709 C1705 1.408 . S
C1709 C1708 1.404 . S
C1709 H1721 0.930 . S
C1710 C1706 1.524 . S
C1710 H1722 0.956 . S
C1710 H1723 0.961 . S
C1710 H1724 0.961 . S
C1711 C1708 1.539 . S
C1711 H1725 0.958 . S
C1711 H1726 0.961 . S
C1711 H1727 0.960 . S
H1712 C1696 0.931 . S
H1713 C1701 0.929 . S
H1714 C1702 0.960 . S
H1715 C1702 0.962 . S
H1716 C1702 0.960 . S
H1717 C1703 0.961 . S
H1718 C1703 0.961 . S
H1719 C1703 0.961 . S
H1720 C1704 0.931 . S
H1721 C1709 0.930 . S
H1722 C1710 0.956 . S
H1723 C1710 0.961 . S
H1724 C1710 0.961 . S
H1725 C1711 0.958 . S
H1726 C1711 0.961 . S
H1727 C1711 0.960 . S
C1728 C1729 1.391 . S
C1728 C1730 1.394 . S
C1728 H1744 0.931 . S
C1729 C1728 1.391 . S
C1729 C1733 1.376 . S
C1730 C1728 1.394 . S
C1730 C1731 1.369 . S
C1730 C1734 1.531 . S
C1731 C1730 1.369 . S
C1731 C1732 1.410 . S
C1731 C1739 1.503 . S
C1732 C1731 1.410 . S
C1732 C1733 1.392 . S
C1732 C1735 1.511 . S
C1733 C1729 1.376 . S
C1733 C1732 1.392 . S
C1733 H1745 0.929 . S
C1734 C1730 1.531 . S
C1734 H1746 0.960 . S
C1734 H1747 0.962 . S
C1734 H1748 0.960 . S
C1735 C1732 1.511 . S
C1735 H1749 0.961 . S
C1735 H1750 0.961 . S
C1735 H1751 0.961 . S
C1736 C1737 1.370 . S
C1736 C1738 1.363 . S
C1736 H1752 0.931 . S
C1737 C1736 1.370 . S
C1737 C1741 1.408 . S
C1738 C1736 1.363 . S
C1738 C1739 1.370 . S
C1738 C1742 1.524 . S
C1739 C1731 1.503 . S
C1739 C1738 1.370 . S
C1739 C1740 1.403 . S
C1740 C1739 1.403 . S
C1740 C1741 1.404 . S
C1740 C1743 1.539 . S
C1741 C1737 1.408 . S
C1741 C1740 1.404 . S
C1741 H1753 0.930 . S
C1742 C1738 1.524 . S
C1742 H1754 0.956 . S
C1742 H1755 0.961 . S
C1742 H1756 0.961 . S
C1743 C1740 1.539 . S
C1743 H1757 0.958 . S
C1743 H1758 0.961 . S
C1743 H1759 0.960 . S
H1744 C1728 0.931 . S
H1745 C1733 0.929 . S
H1746 C1734 0.960 . S
H1747 C1734 0.962 . S
H1748 C1734 0.960 . S
H1749 C1735 0.961 . S
H1750 C1735 0.961 . S
H1751 C1735 0.961 . S
H1752 C1736 0.931 . S
H1753 C1741 0.930 . S
H1754 C1742 0.956 . S
H1755 C1742 0.961 . S
H1756 C1742 0.961 . S
H1757 C1743 0.958 . S
H1758 C1743 0.961 . S
H1759 C1743 0.960 . S
C1760 C1761 1.391 . S
C1760 C1762 1.394 . S
C1760 H1776 0.931 . S
C1761 C1760 1.391 . S
C1761 C1765 1.376 . S
C1762 C1760 1.394 . S
C1762 C1763 1.369 . S
C1762 C1766 1.531 . S
C1763 C1762 1.369 . S
C1763 C1764 1.410 . S
C1763 C1771 1.503 . S
C1764 C1763 1.410 . S
C1764 C1765 1.392 . S
C1764 C1767 1.511 . S
C1765 C1761 1.376 . S
C1765 C1764 1.392 . S
C1765 H1777 0.929 . S
C1766 C1762 1.531 . S
C1766 H1778 0.960 . S
C1766 H1779 0.962 . S
C1766 H1780 0.960 . S
C1767 C1764 1.511 . S
C1767 H1781 0.961 . S
C1767 H1782 0.961 . S
C1767 H1783 0.961 . S
C1768 C1769 1.370 . S
C1768 C1770 1.363 . S
C1768 H1784 0.931 . S
C1769 C1768 1.370 . S
C1769 C1773 1.408 . S
C1770 C1768 1.363 . S
C1770 C1771 1.370 . S
C1770 C1774 1.524 . S
C1771 C1763 1.503 . S
C1771 C1770 1.370 . S
C1771 C1772 1.403 . S
C1772 C1771 1.403 . S
C1772 C1773 1.404 . S
C1772 C1775 1.539 . S
C1773 C1769 1.408 . S
C1773 C1772 1.404 . S
C1773 H1785 0.930 . S
C1774 C1770 1.524 . S
C1774 H1786 0.956 . S
C1774 H1787 0.961 . S
C1774 H1788 0.961 . S
C1775 C1772 1.539 . S
C1775 H1789 0.958 . S
C1775 H1790 0.961 . S
C1775 H1791 0.960 . S
H1776 C1760 0.931 . S
H1777 C1765 0.929 . S
H1778 C1766 0.960 . S
H1779 C1766 0.962 . S
H1780 C1766 0.960 . S
H1781 C1767 0.961 . S
H1782 C1767 0.961 . S
H1783 C1767 0.961 . S
H1784 C1768 0.931 . S
H1785 C1773 0.930 . S
H1786 C1774 0.956 . S
H1787 C1774 0.961 . S
H1788 C1774 0.961 . S
H1789 C1775 0.958 . S
H1790 C1775 0.961 . S
H1791 C1775 0.960 . S
C1792 C1793 1.391 . S
C1792 C1794 1.394 . S
C1792 H1808 0.931 . S
C1793 C1792 1.391 . S
C1793 C1797 1.376 . S
C1794 C1792 1.394 . S
C1794 C1795 1.369 . S
C1794 C1798 1.531 . S
C1795 C1794 1.369 . S
C1795 C1796 1.410 . S
C1795 C1803 1.503 . S
C1796 C1795 1.410 . S
C1796 C1797 1.392 . S
C1796 C1799 1.511 . S
C1797 C1793 1.376 . S
C1797 C1796 1.392 . S
C1797 H1809 0.929 . S
C1798 C1794 1.531 . S
C1798 H1810 0.960 . S
C1798 H1811 0.962 . S
C1798 H1812 0.960 . S
C1799 C1796 1.511 . S
C1799 H1813 0.961 . S
C1799 H1814 0.961 . S
C1799 H1815 0.961 . S
C1800 C1801 1.370 . S
C1800 C1802 1.363 . S
C1800 H1816 0.931 . S
C1801 C1800 1.370 . S
C1801 C1805 1.408 . S
C1802 C1800 1.363 . S
C1802 C1803 1.370 . S
C1802 C1806 1.524 . S
C1803 C1795 1.503 . S
C1803 C1802 1.370 . S
C1803 C1804 1.403 . S
C1804 C1803 1.403 . S
C1804 C1805 1.404 . S
C1804 C1807 1.539 . S
C1805 C1801 1.408 . S
C1805 C1804 1.404 . S
C1805 H1817 0.930 . S
C1806 C1802 1.524 . S
C1806 H1818 0.956 . S
C1806 H1819 0.961 . S
C1806 H1820 0.961 . S
C1807 C1804 1.539 . S
C1807 H1821 0.958 . S
C1807 H1822 0.961 . S
C1807 H1823 0.960 . S
H1808 C1792 0.931 . S
H1809 C1797 0.929 . S
H1810 C1798 0.960 . S
H1811 C1798 0.962 . S
H1812 C1798 0.960 . S
H1813 C1799 0.961 . S
H1814 C1799 0.961 . S
H1815 C1799 0.961 . S
H1816 C1800 0.931 . S
H1817 C1805 0.930 . S
H1818 C1806 0.956 . S
H1819 C1806 0.961 . S
H1820 C1806 0.961 . S
H1821 C1807 0.958 . S
H1822 C1807 0.961 . S
H1823 C1807 0.960 . S
C1824 C1825 1.391 . S
C1824 C1826 1.394 . S
C1824 H1840 0.931 . S
C1825 C1824 1.391 . S
C1825 C1829 1.376 . S
C1826 C1824 1.394 . S
C1826 C1827 1.369 . S
C1826 C1830 1.531 . S
C1827 C1826 1.369 . S
C1827 C1828 1.410 . S
C1827 C1835 1.503 . S
C1828 C1827 1.410 . S
C1828 C1829 1.392 . S
C1828 C1831 1.511 . S
C1829 C1825 1.376 . S
C1829 C1828 1.392 . S
C1829 H1841 0.929 . S
C1830 C1826 1.531 . S
C1830 H1842 0.960 . S
C1830 H1843 0.962 1_554 S
C1830 H1844 0.960 . S
C1831 C1828 1.511 . S
C1831 H1845 0.961 . S
C1831 H1846 0.961 . S
C1831 H1847 0.961 . S
C1832 C1833 1.370 . S
C1832 C1834 1.363 . S
C1832 H1848 0.931 . S
C1833 C1832 1.370 . S
C1833 C1837 1.408 1_556 S
C1834 C1832 1.363 . S
C1834 C1835 1.370 1_556 S
C1834 C1838 1.524 . S
C1835 C1827 1.503 . S
C1835 C1834 1.370 1_554 S
C1835 C1836 1.403 . S
C1836 C1835 1.403 . S
C1836 C1837 1.404 . S
C1836 C1839 1.539 . S
C1837 C1833 1.408 1_554 S
C1837 C1836 1.404 . S
C1837 H1849 0.930 . S
C1838 C1834 1.524 . S
C1838 H1850 0.956 . S
C1838 H1851 0.961 . S
C1838 H1852 0.961 . S
C1839 C1836 1.539 . S
C1839 H1853 0.958 . S
C1839 H1854 0.961 . S
C1839 H1855 0.960 . S
H1840 C1824 0.931 . S
H1841 C1829 0.929 . S
H1842 C1830 0.960 . S
H1843 C1830 0.962 1_556 S
H1844 C1830 0.960 . S
H1845 C1831 0.961 . S
H1846 C1831 0.961 . S
H1847 C1831 0.961 . S
H1848 C1832 0.931 . S
H1849 C1837 0.930 . S
H1850 C1838 0.956 . S
H1851 C1838 0.961 . S
H1852 C1838 0.961 . S
H1853 C1839 0.958 . S
H1854 C1839 0.961 . S
H1855 C1839 0.960 . S
C1856 C1857 1.391 . S
C1856 C1858 1.392 . S
C1856 H1872 0.931 . S
C1857 C1856 1.391 . S
C1857 C1861 1.376 . S
C1858 C1856 1.392 . S
C1858 C1859 1.368 . S
C1858 C1862 1.533 1_655 S
C1859 C1858 1.368 . S
C1859 C1860 1.410 . S
C1859 C1867 1.503 1_655 S
C1860 C1859 1.410 . S
C1860 C1861 1.392 . S
C1860 C1863 1.511 . S
C1861 C1857 1.376 . S
C1861 C1860 1.392 . S
C1861 H1873 0.929 . S
C1862 C1858 1.533 1_455 S
C1862 H1874 0.960 . S
C1862 H1875 0.962 . S
C1862 H1876 0.960 . S
C1863 C1860 1.511 . S
C1863 H1877 0.961 . S
C1863 H1878 0.961 . S
C1863 H1879 0.961 . S
C1864 C1865 1.370 . S
C1864 C1866 1.363 . S
C1864 H1880 0.931 . S
C1865 C1864 1.370 . S
C1865 C1869 1.408 . S
C1866 C1864 1.363 . S
C1866 C1867 1.370 . S
C1866 C1870 1.524 . S
C1867 C1859 1.503 1_455 S
C1867 C1866 1.370 . S
C1867 C1868 1.403 . S
C1868 C1867 1.403 . S
C1868 C1869 1.404 . S
C1868 C1871 1.539 1_455 S
C1869 C1865 1.408 . S
C1869 C1868 1.404 . S
C1869 H1881 0.930 . S
C1870 C1866 1.524 . S
C1870 H1882 0.956 . S
C1870 H1883 0.976 . S
C1870 H1884 0.961 . S
C1871 C1868 1.539 1_655 S
C1871 H1885 0.958 1_655 S
C1871 H1886 0.961 . S
C1871 H1887 0.960 . S
H1872 C1856 0.931 . S
H1873 C1861 0.929 . S
H1874 C1862 0.960 . S
H1875 C1862 0.962 . S
H1876 C1862 0.960 . S
H1877 C1863 0.961 . S
H1878 C1863 0.961 . S
H1879 C1863 0.961 . S
H1880 C1864 0.931 . S
H1881 C1869 0.930 . S
H1882 C1870 0.956 . S
H1883 C1870 0.976 . S
H1884 C1870 0.961 . S
H1885 C1871 0.958 1_455 S
H1886 C1871 0.961 . S
H1887 C1871 0.960 . S
C1888 C1889 1.391 . S
C1888 C1890 1.394 . S
C1888 H1904 0.931 . S
C1889 C1888 1.391 . S
C1889 C1893 1.376 1_556 S
C1890 C1888 1.394 . S
C1890 C1891 1.369 . S
C1890 C1894 1.531 . S
C1891 C1890 1.369 . S
C1891 C1892 1.410 1_556 S
C1891 C1899 1.499 1_456 S
C1892 C1891 1.410 1_554 S
C1892 C1893 1.392 . S
C1892 C1895 1.511 1_455 S
C1893 C1889 1.376 1_554 S
C1893 C1892 1.392 . S
C1893 H1905 0.929 . S
C1894 C1890 1.531 . S
C1894 H1906 0.941 1_455 S
C1894 H1907 0.962 . S
C1894 H1908 0.960 . S
C1895 C1892 1.511 1_655 S
C1895 H1909 0.961 . S
C1895 H1910 0.961 . S
C1895 H1911 0.961 . S
C1896 C1897 1.370 . S
C1896 C1898 1.376 . S
C1896 H1912 0.931 . S
C1897 C1896 1.370 . S
C1897 C1901 1.408 1_554 S
C1898 C1896 1.376 . S
C1898 C1899 1.391 . S
C1898 C1902 1.502 1_655 S
C1899 C1891 1.499 1_654 S
C1899 C1898 1.391 . S
C1899 C1900 1.397 1_554 S
C1900 C1899 1.397 1_556 S
C1900 C1901 1.404 . S
C1900 C1903 1.539 . S
C1901 C1897 1.408 1_556 S
C1901 C1900 1.404 . S
C1901 H1913 0.930 . S
C1902 C1898 1.502 1_455 S
C1902 H1914 0.956 . S
C1902 H1915 0.961 . S
C1902 H1916 0.961 . S
C1903 C1900 1.539 . S
C1903 H1917 0.958 . S
C1903 H1918 0.961 . S
C1903 H1919 0.960 . S
H1904 C1888 0.931 . S
H1905 C1893 0.929 . S
H1906 C1894 0.941 1_655 S
H1907 C1894 0.962 . S
H1908 C1894 0.960 . S
H1909 C1895 0.961 . S
H1910 C1895 0.961 . S
H1911 C1895 0.961 . S
H1912 C1896 0.931 . S
H1913 C1901 0.930 . S
H1914 C1902 0.956 . S
H1915 C1902 0.961 . S
H1916 C1902 0.961 . S
H1917 C1903 0.958 . S
H1918 C1903 0.961 . S
H1919 C1903 0.960 . S
C1920 C1921 1.391 . S
C1920 C1922 1.394 . S
C1920 H1936 0.931 . S
C1921 C1920 1.391 . S
C1921 C1925 1.376 . S
C1922 C1920 1.394 . S
C1922 C1923 1.369 . S
C1922 C1926 1.531 . S
C1923 C1922 1.369 . S
C1923 C1924 1.410 . S
C1923 C1931 1.503 . S
C1924 C1923 1.410 . S
C1924 C1925 1.392 . S
C1924 C1927 1.511 . S
C1925 C1921 1.376 . S
C1925 C1924 1.392 . S
C1925 H1937 0.929 . S
C1926 C1922 1.531 . S
C1926 H1938 0.960 . S
C1926 H1939 0.962 . S
C1926 H1940 0.960 . S
C1927 C1924 1.511 . S
C1927 H1941 0.961 . S
C1927 H1942 0.961 . S
C1927 H1943 0.961 . S
C1928 C1929 1.370 . S
C1928 C1930 1.363 . S
C1928 H1944 0.931 . S
C1929 C1928 1.370 . S
C1929 C1933 1.408 . S
C1930 C1928 1.363 . S
C1930 C1931 1.370 . S
C1930 C1934 1.524 . S
C1931 C1923 1.503 . S
C1931 C1930 1.370 . S
C1931 C1932 1.403 . S
C1932 C1931 1.403 . S
C1932 C1933 1.404 . S
C1932 C1935 1.539 . S
C1933 C1929 1.408 . S
C1933 C1932 1.404 . S
C1933 H1945 0.930 . S
C1934 C1930 1.524 . S
C1934 H1946 0.956 . S
C1934 H1947 0.961 . S
C1934 H1948 0.961 . S
C1935 C1932 1.539 . S
C1935 H1949 0.958 . S
C1935 H1950 0.961 . S
C1935 H1951 0.960 . S
H1936 C1920 0.931 . S
H1937 C1925 0.929 . S
H1938 C1926 0.960 . S
H1939 C1926 0.962 . S
H1940 C1926 0.960 . S
H1941 C1927 0.961 . S
H1942 C1927 0.961 . S
H1943 C1927 0.961 . S
H1944 C1928 0.931 . S
H1945 C1933 0.930 . S
H1946 C1934 0.956 . S
H1947 C1934 0.961 . S
H1948 C1934 0.961 . S
H1949 C1935 0.958 . S
H1950 C1935 0.961 . S
H1951 C1935 0.960 . S
C1952 C1953 1.391 . S
C1952 C1954 1.394 . S
C1952 H1968 0.931 . S
C1953 C1952 1.391 . S
C1953 C1957 1.376 . S
C1954 C1952 1.394 . S
C1954 C1955 1.369 . S
C1954 C1958 1.531 . S
C1955 C1954 1.369 . S
C1955 C1956 1.410 . S
C1955 C1963 1.503 . S
C1956 C1955 1.410 . S
C1956 C1957 1.392 . S
C1956 C1959 1.511 . S
C1957 C1953 1.376 . S
C1957 C1956 1.392 . S
C1957 H1969 0.929 . S
C1958 C1954 1.531 . S
C1958 H1970 0.960 . S
C1958 H1971 0.962 . S
C1958 H1972 0.960 . S
C1959 C1956 1.511 . S
C1959 H1973 0.961 . S
C1959 H1974 0.961 . S
C1959 H1975 0.961 . S
C1960 C1961 1.370 . S
C1960 C1962 1.363 . S
C1960 H1976 0.931 . S
C1961 C1960 1.370 . S
C1961 C1965 1.408 . S
C1962 C1960 1.363 . S
C1962 C1963 1.370 . S
C1962 C1966 1.524 . S
C1963 C1955 1.503 . S
C1963 C1962 1.370 . S
C1963 C1964 1.403 . S
C1964 C1963 1.403 . S
C1964 C1965 1.404 . S
C1964 C1967 1.539 . S
C1965 C1961 1.408 . S
C1965 C1964 1.404 . S
C1965 H1977 0.930 . S
C1966 C1962 1.524 . S
C1966 H1978 0.956 . S
C1966 H1979 0.961 . S
C1966 H1980 0.961 . S
C1967 C1964 1.539 . S
C1967 H1981 0.958 . S
C1967 H1982 0.961 . S
C1967 H1983 0.960 . S
H1968 C1952 0.931 . S
H1969 C1957 0.929 . S
H1970 C1958 0.960 . S
H1971 C1958 0.962 . S
H1972 C1958 0.960 . S
H1973 C1959 0.961 . S
H1974 C1959 0.961 . S
H1975 C1959 0.961 . S
H1976 C1960 0.931 . S
H1977 C1965 0.930 . S
H1978 C1966 0.956 . S
H1979 C1966 0.961 . S
H1980 C1966 0.961 . S
H1981 C1967 0.958 . S
H1982 C1967 0.961 . S
H1983 C1967 0.960 . S
C1984 C1985 1.391 . S
C1984 C1986 1.394 . S
C1984 H2000 0.931 . S
C1985 C1984 1.391 . S
C1985 C1989 1.376 . S
C1986 C1984 1.394 . S
C1986 C1987 1.369 . S
C1986 C1990 1.531 . S
C1987 C1986 1.369 . S
C1987 C1988 1.410 . S
C1987 C1995 1.503 . S
C1988 C1987 1.410 . S
C1988 C1989 1.392 . S
C1988 C1991 1.511 . S
C1989 C1985 1.376 . S
C1989 C1988 1.392 . S
C1989 H2001 0.929 . S
C1990 C1986 1.531 . S
C1990 H2002 0.960 . S
C1990 H2003 0.962 . S
C1990 H2004 0.960 . S
C1991 C1988 1.511 . S
C1991 H2005 0.961 . S
C1991 H2006 0.961 . S
C1991 H2007 0.961 . S
C1992 C1993 1.370 . S
C1992 C1994 1.363 . S
C1992 H2008 0.931 . S
C1993 C1992 1.370 . S
C1993 C1997 1.408 . S
C1994 C1992 1.363 . S
C1994 C1995 1.370 . S
C1994 C1998 1.524 . S
C1995 C1987 1.503 . S
C1995 C1994 1.370 . S
C1995 C1996 1.403 . S
C1996 C1995 1.403 . S
C1996 C1997 1.404 . S
C1996 C1999 1.539 . S
C1997 C1993 1.408 . S
C1997 C1996 1.404 . S
C1997 H2009 0.930 . S
C1998 C1994 1.524 . S
C1998 H2010 0.956 . S
C1998 H2011 0.961 . S
C1998 H2012 0.961 . S
C1999 C1996 1.539 . S
C1999 H2013 0.958 . S
C1999 H2014 0.961 . S
C1999 H2015 0.960 . S
H2000 C1984 0.931 . S
H2001 C1989 0.929 . S
H2002 C1990 0.960 . S
H2003 C1990 0.962 . S
H2004 C1990 0.960 . S
H2005 C1991 0.961 . S
H2006 C1991 0.961 . S
H2007 C1991 0.961 . S
H2008 C1992 0.931 . S
H2009 C1997 0.930 . S
H2010 C1998 0.956 . S
H2011 C1998 0.961 . S
H2012 C1998 0.961 . S
H2013 C1999 0.958 . S
H2014 C1999 0.961 . S
H2015 C1999 0.960 . S
C2016 C2017 1.391 . S
C2016 C2018 1.394 . S
C2016 H2032 0.931 . S
C2017 C2016 1.391 . S
C2017 C2021 1.376 . S
C2018 C2016 1.394 . S
C2018 C2019 1.369 . S
C2018 C2022 1.531 . S
C2019 C2018 1.369 . S
C2019 C2020 1.410 . S
C2019 C2027 1.503 . S
C2020 C2019 1.410 . S
C2020 C2021 1.392 . S
C2020 C2023 1.511 . S
C2021 C2017 1.376 . S
C2021 C2020 1.392 . S
C2021 H2033 0.929 . S
C2022 C2018 1.531 . S
C2022 H2034 0.960 . S
C2022 H2035 0.962 . S
C2022 H2036 0.960 . S
C2023 C2020 1.511 . S
C2023 H2037 0.961 . S
C2023 H2038 0.961 . S
C2023 H2039 0.961 . S
C2024 C2025 1.370 . S
C2024 C2026 1.363 . S
C2024 H2040 0.931 . S
C2025 C2024 1.370 . S
C2025 C2029 1.408 . S
C2026 C2024 1.363 . S
C2026 C2027 1.370 . S
C2026 C2030 1.524 . S
C2027 C2019 1.503 . S
C2027 C2026 1.370 . S
C2027 C2028 1.403 . S
C2028 C2027 1.403 . S
C2028 C2029 1.404 . S
C2028 C2031 1.539 . S
C2029 C2025 1.408 . S
C2029 C2028 1.404 . S
C2029 H2041 0.930 . S
C2030 C2026 1.524 . S
C2030 H2042 0.956 . S
C2030 H2043 0.961 . S
C2030 H2044 0.961 . S
C2031 C2028 1.539 . S
C2031 H2045 0.958 . S
C2031 H2046 0.961 . S
C2031 H2047 0.960 . S
H2032 C2016 0.931 . S
H2033 C2021 0.929 . S
H2034 C2022 0.960 . S
H2035 C2022 0.962 . S
H2036 C2022 0.960 . S
H2037 C2023 0.961 . S
H2038 C2023 0.961 . S
H2039 C2023 0.961 . S
H2040 C2024 0.931 . S
H2041 C2029 0.930 . S
H2042 C2030 0.956 . S
H2043 C2030 0.961 . S
H2044 C2030 0.961 . S
H2045 C2031 0.958 . S
H2046 C2031 0.961 . S
H2047 C2031 0.960 . S
C2048 C2049 1.391 . S
C2048 C2050 1.394 . S
C2048 H2064 0.931 . S
C2049 C2048 1.391 . S
C2049 C2053 1.376 . S
C2050 C2048 1.394 . S
C2050 C2051 1.369 . S
C2050 C2054 1.531 . S
C2051 C2050 1.369 . S
C2051 C2052 1.410 . S
C2051 C2059 1.503 . S
C2052 C2051 1.410 . S
C2052 C2053 1.392 . S
C2052 C2055 1.511 . S
C2053 C2049 1.376 . S
C2053 C2052 1.392 . S
C2053 H2065 0.929 . S
C2054 C2050 1.531 . S
C2054 H2066 0.960 . S
C2054 H2067 0.962 . S
C2054 H2068 0.960 . S
C2055 C2052 1.511 . S
C2055 H2069 0.961 . S
C2055 H2070 0.961 . S
C2055 H2071 0.961 . S
C2056 C2057 1.370 . S
C2056 C2058 1.363 . S
C2056 H2072 0.931 . S
C2057 C2056 1.370 . S
C2057 C2061 1.408 . S
C2058 C2056 1.363 . S
C2058 C2059 1.370 . S
C2058 C2062 1.524 . S
C2059 C2051 1.503 . S
C2059 C2058 1.370 . S
C2059 C2060 1.403 . S
C2060 C2059 1.403 . S
C2060 C2061 1.404 . S
C2060 C2063 1.539 . S
C2061 C2057 1.408 . S
C2061 C2060 1.404 . S
C2061 H2073 0.930 . S
C2062 C2058 1.524 . S
C2062 H2074 0.956 . S
C2062 H2075 0.961 . S
C2062 H2076 0.961 . S
C2063 C2060 1.539 . S
C2063 H2077 0.958 . S
C2063 H2078 0.961 . S
C2063 H2079 0.960 . S
H2064 C2048 0.931 . S
H2065 C2053 0.929 . S
H2066 C2054 0.960 . S
H2067 C2054 0.962 . S
H2068 C2054 0.960 . S
H2069 C2055 0.961 . S
H2070 C2055 0.961 . S
H2071 C2055 0.961 . S
H2072 C2056 0.931 . S
H2073 C2061 0.930 . S
H2074 C2062 0.956 . S
H2075 C2062 0.961 . S
H2076 C2062 0.961 . S
H2077 C2063 0.958 . S
H2078 C2063 0.961 . S
H2079 C2063 0.960 . S
C2080 C2081 1.391 . S
C2080 C2082 1.394 . S
C2080 H2096 0.931 . S
C2081 C2080 1.391 . S
C2081 C2085 1.376 . S
C2082 C2080 1.394 . S
C2082 C2083 1.369 . S
C2082 C2086 1.531 . S
C2083 C2082 1.369 . S
C2083 C2084 1.410 . S
C2083 C2091 1.503 . S
C2084 C2083 1.410 . S
C2084 C2085 1.392 . S
C2084 C2087 1.511 . S
C2085 C2081 1.376 . S
C2085 C2084 1.392 . S
C2085 H2097 0.929 . S
C2086 C2082 1.531 . S
C2086 H2098 0.960 . S
C2086 H2099 0.962 . S
C2086 H2100 0.960 . S
C2087 C2084 1.511 . S
C2087 H2101 0.961 . S
C2087 H2102 0.961 . S
C2087 H2103 0.961 . S
C2088 C2089 1.370 . S
C2088 C2090 1.363 . S
C2088 H2104 0.931 . S
C2089 C2088 1.370 . S
C2089 C2093 1.408 . S
C2090 C2088 1.363 . S
C2090 C2091 1.370 . S
C2090 C2094 1.524 . S
C2091 C2083 1.503 . S
C2091 C2090 1.370 . S
C2091 C2092 1.403 . S
C2092 C2091 1.403 . S
C2092 C2093 1.404 . S
C2092 C2095 1.539 . S
C2093 C2089 1.408 . S
C2093 C2092 1.404 . S
C2093 H2105 0.930 . S
C2094 C2090 1.524 . S
C2094 H2106 0.956 . S
C2094 H2107 0.961 . S
C2094 H2108 0.961 . S
C2095 C2092 1.539 . S
C2095 H2109 0.958 . S
C2095 H2110 0.961 . S
C2095 H2111 0.960 . S
H2096 C2080 0.931 . S
H2097 C2085 0.929 . S
H2098 C2086 0.960 . S
H2099 C2086 0.962 . S
H2100 C2086 0.960 . S
H2101 C2087 0.961 . S
H2102 C2087 0.961 . S
H2103 C2087 0.961 . S
H2104 C2088 0.931 . S
H2105 C2093 0.930 . S
H2106 C2094 0.956 . S
H2107 C2094 0.961 . S
H2108 C2094 0.961 . S
H2109 C2095 0.958 . S
H2110 C2095 0.961 . S
H2111 C2095 0.960 . S
C2112 C2113 1.391 . S
C2112 C2114 1.394 . S
C2112 H2128 0.931 . S
C2113 C2112 1.391 . S
C2113 C2117 1.376 . S
C2114 C2112 1.394 . S
C2114 C2115 1.369 . S
C2114 C2118 1.531 . S
C2115 C2114 1.369 . S
C2115 C2116 1.410 . S
C2115 C2123 1.503 . S
C2116 C2115 1.410 . S
C2116 C2117 1.392 . S
C2116 C2119 1.511 . S
C2117 C2113 1.376 . S
C2117 C2116 1.392 . S
C2117 H2129 0.929 . S
C2118 C2114 1.531 . S
C2118 H2130 0.960 . S
C2118 H2131 0.962 . S
C2118 H2132 0.960 . S
C2119 C2116 1.511 . S
C2119 H2133 0.961 . S
C2119 H2134 0.961 . S
C2119 H2135 0.961 . S
C2120 C2121 1.370 . S
C2120 C2122 1.363 . S
C2120 H2136 0.931 . S
C2121 C2120 1.370 . S
C2121 C2125 1.408 . S
C2122 C2120 1.363 . S
C2122 C2123 1.370 . S
C2122 C2126 1.524 . S
C2123 C2115 1.503 . S
C2123 C2122 1.370 . S
C2123 C2124 1.403 . S
C2124 C2123 1.403 . S
C2124 C2125 1.404 . S
C2124 C2127 1.539 . S
C2125 C2121 1.408 . S
C2125 C2124 1.404 . S
C2125 H2137 0.930 . S
C2126 C2122 1.524 . S
C2126 H2138 0.956 . S
C2126 H2139 0.961 . S
C2126 H2140 0.961 . S
C2127 C2124 1.539 . S
C2127 H2141 0.958 . S
C2127 H2142 0.961 . S
C2127 H2143 0.960 . S
H2128 C2112 0.931 . S
H2129 C2117 0.929 . S
H2130 C2118 0.960 . S
H2131 C2118 0.962 . S
H2132 C2118 0.960 . S
H2133 C2119 0.961 . S
H2134 C2119 0.961 . S
H2135 C2119 0.961 . S
H2136 C2120 0.931 . S
H2137 C2125 0.930 . S
H2138 C2126 0.956 . S
H2139 C2126 0.961 . S
H2140 C2126 0.961 . S
H2141 C2127 0.958 . S
H2142 C2127 0.961 . S
H2143 C2127 0.960 . S
C2144 C2145 1.391 . S
C2144 C2146 1.394 . S
C2144 H2160 0.931 . S
C2145 C2144 1.391 . S
C2145 C2149 1.376 . S
C2146 C2144 1.394 . S
C2146 C2147 1.369 . S
C2146 C2150 1.531 . S
C2147 C2146 1.369 . S
C2147 C2148 1.410 . S
C2147 C2155 1.503 . S
C2148 C2147 1.410 . S
C2148 C2149 1.392 . S
C2148 C2151 1.511 . S
C2149 C2145 1.376 . S
C2149 C2148 1.392 . S
C2149 H2161 0.929 . S
C2150 C2146 1.531 . S
C2150 H2162 0.960 . S
C2150 H2163 0.962 . S
C2150 H2164 0.960 . S
C2151 C2148 1.511 . S
C2151 H2165 0.961 . S
C2151 H2166 0.961 . S
C2151 H2167 0.961 . S
C2152 C2153 1.370 . S
C2152 C2154 1.363 . S
C2152 H2168 0.931 . S
C2153 C2152 1.370 . S
C2153 C2157 1.408 . S
C2154 C2152 1.363 . S
C2154 C2155 1.370 . S
C2154 C2158 1.524 . S
C2155 C2147 1.503 . S
C2155 C2154 1.370 . S
C2155 C2156 1.403 . S
C2156 C2155 1.403 . S
C2156 C2157 1.404 . S
C2156 C2159 1.539 . S
C2157 C2153 1.408 . S
C2157 C2156 1.404 . S
C2157 H2169 0.930 . S
C2158 C2154 1.524 . S
C2158 H2170 0.956 . S
C2158 H2171 0.961 . S
C2158 H2172 0.961 . S
C2159 C2156 1.539 . S
C2159 H2173 0.958 . S
C2159 H2174 0.961 . S
C2159 H2175 0.960 . S
H2160 C2144 0.931 . S
H2161 C2149 0.929 . S
H2162 C2150 0.960 . S
H2163 C2150 0.962 . S
H2164 C2150 0.960 . S
H2165 C2151 0.961 . S
H2166 C2151 0.961 . S
H2167 C2151 0.961 . S
H2168 C2152 0.931 . S
H2169 C2157 0.930 . S
H2170 C2158 0.956 . S
H2171 C2158 0.961 . S
H2172 C2158 0.961 . S
H2173 C2159 0.958 . S
H2174 C2159 0.961 . S
H2175 C2159 0.960 . S
C2176 C2177 1.391 . S
C2176 C2178 1.394 . S
C2176 H2192 0.931 . S
C2177 C2176 1.391 . S
C2177 C2181 1.376 . S
C2178 C2176 1.394 . S
C2178 C2179 1.369 . S
C2178 C2182 1.531 . S
C2179 C2178 1.369 . S
C2179 C2180 1.410 . S
C2179 C2187 1.503 . S
C2180 C2179 1.410 . S
C2180 C2181 1.392 . S
C2180 C2183 1.511 . S
C2181 C2177 1.376 . S
C2181 C2180 1.392 . S
C2181 H2193 0.929 . S
C2182 C2178 1.531 . S
C2182 H2194 0.960 . S
C2182 H2195 0.962 . S
C2182 H2196 0.960 . S
C2183 C2180 1.511 . S
C2183 H2197 0.961 . S
C2183 H2198 0.961 . S
C2183 H2199 0.961 . S
C2184 C2185 1.370 . S
C2184 C2186 1.363 . S
C2184 H2200 0.931 . S
C2185 C2184 1.370 . S
C2185 C2189 1.408 . S
C2186 C2184 1.363 . S
C2186 C2187 1.370 . S
C2186 C2190 1.524 . S
C2187 C2179 1.503 . S
C2187 C2186 1.370 . S
C2187 C2188 1.403 . S
C2188 C2187 1.403 . S
C2188 C2189 1.404 . S
C2188 C2191 1.539 . S
C2189 C2185 1.408 . S
C2189 C2188 1.404 . S
C2189 H2201 0.930 . S
C2190 C2186 1.524 . S
C2190 H2202 0.956 . S
C2190 H2203 0.961 . S
C2190 H2204 0.961 . S
C2191 C2188 1.539 . S
C2191 H2205 0.958 . S
C2191 H2206 0.961 . S
C2191 H2207 0.960 . S
H2192 C2176 0.931 . S
H2193 C2181 0.929 . S
H2194 C2182 0.960 . S
H2195 C2182 0.962 . S
H2196 C2182 0.960 . S
H2197 C2183 0.961 . S
H2198 C2183 0.961 . S
H2199 C2183 0.961 . S
H2200 C2184 0.931 . S
H2201 C2189 0.930 . S
H2202 C2190 0.956 . S
H2203 C2190 0.961 . S
H2204 C2190 0.961 . S
H2205 C2191 0.958 . S
H2206 C2191 0.961 . S
H2207 C2191 0.960 . S
C2208 C2209 1.391 . S
C2208 C2210 1.394 . S
C2208 H2224 0.931 . S
C2209 C2208 1.391 . S
C2209 C2213 1.376 . S
C2210 C2208 1.394 . S
C2210 C2211 1.369 . S
C2210 C2214 1.531 . S
C2211 C2210 1.369 . S
C2211 C2212 1.410 . S
C2211 C2219 1.503 . S
C2212 C2211 1.410 . S
C2212 C2213 1.392 . S
C2212 C2215 1.511 . S
C2213 C2209 1.376 . S
C2213 C2212 1.392 . S
C2213 H2225 0.929 . S
C2214 C2210 1.531 . S
C2214 H2226 0.960 . S
C2214 H2227 0.962 . S
C2214 H2228 0.960 . S
C2215 C2212 1.511 . S
C2215 H2229 0.961 . S
C2215 H2230 0.961 . S
C2215 H2231 0.961 . S
C2216 C2217 1.370 . S
C2216 C2218 1.363 . S
C2216 H2232 0.931 . S
C2217 C2216 1.370 . S
C2217 C2221 1.408 . S
C2218 C2216 1.363 . S
C2218 C2219 1.370 . S
C2218 C2222 1.524 . S
C2219 C2211 1.503 . S
C2219 C2218 1.370 . S
C2219 C2220 1.403 . S
C2220 C2219 1.403 . S
C2220 C2221 1.404 . S
C2220 C2223 1.539 . S
C2221 C2217 1.408 . S
C2221 C2220 1.404 . S
C2221 H2233 0.930 . S
C2222 C2218 1.524 . S
C2222 H2234 0.956 . S
C2222 H2235 0.961 . S
C2222 H2236 0.961 . S
C2223 C2220 1.539 . S
C2223 H2237 0.958 . S
C2223 H2238 0.961 . S
C2223 H2239 0.960 . S
H2224 C2208 0.931 . S
H2225 C2213 0.929 . S
H2226 C2214 0.960 . S
H2227 C2214 0.962 . S
H2228 C2214 0.960 . S
H2229 C2215 0.961 . S
H2230 C2215 0.961 . S
H2231 C2215 0.961 . S
H2232 C2216 0.931 . S
H2233 C2221 0.930 . S
H2234 C2222 0.956 . S
H2235 C2222 0.961 . S
H2236 C2222 0.961 . S
H2237 C2223 0.958 . S
H2238 C2223 0.961 . S
H2239 C2223 0.960 . S
C2240 C2241 1.391 . S
C2240 C2242 1.394 . S
C2240 H2256 0.931 . S
C2241 C2240 1.391 . S
C2241 C2245 1.376 . S
C2242 C2240 1.394 . S
C2242 C2243 1.369 . S
C2242 C2246 1.531 . S
C2243 C2242 1.369 . S
C2243 C2244 1.410 . S
C2243 C2251 1.503 . S
C2244 C2243 1.410 . S
C2244 C2245 1.392 . S
C2244 C2247 1.511 . S
C2245 C2241 1.376 . S
C2245 C2244 1.392 . S
C2245 H2257 0.929 . S
C2246 C2242 1.531 . S
C2246 H2258 0.960 . S
C2246 H2259 0.962 . S
C2246 H2260 0.960 . S
C2247 C2244 1.511 . S
C2247 H2261 0.961 . S
C2247 H2262 0.961 . S
C2247 H2263 0.961 . S
C2248 C2249 1.370 . S
C2248 C2250 1.363 . S
C2248 H2264 0.931 . S
C2249 C2248 1.370 . S
C2249 C2253 1.408 . S
C2250 C2248 1.363 . S
C2250 C2251 1.370 . S
C2250 C2254 1.524 . S
C2251 C2243 1.503 . S
C2251 C2250 1.370 . S
C2251 C2252 1.403 . S
C2252 C2251 1.403 . S
C2252 C2253 1.404 . S
C2252 C2255 1.539 . S
C2253 C2249 1.408 . S
C2253 C2252 1.404 . S
C2253 H2265 0.930 . S
C2254 C2250 1.524 . S
C2254 H2266 0.956 . S
C2254 H2267 0.961 . S
C2254 H2268 0.961 . S
C2255 C2252 1.539 . S
C2255 H2269 0.958 . S
C2255 H2270 0.961 . S
C2255 H2271 0.960 . S
H2256 C2240 0.931 . S
H2257 C2245 0.929 . S
H2258 C2246 0.960 . S
H2259 C2246 0.962 . S
H2260 C2246 0.960 . S
H2261 C2247 0.961 . S
H2262 C2247 0.961 . S
H2263 C2247 0.961 . S
H2264 C2248 0.931 . S
H2265 C2253 0.930 . S
H2266 C2254 0.956 . S
H2267 C2254 0.961 . S
H2268 C2254 0.961 . S
H2269 C2255 0.958 . S
H2270 C2255 0.961 . S
H2271 C2255 0.960 . S
C2272 C2273 1.391 . S
C2272 C2274 1.394 . S
C2272 H2288 0.931 . S
C2273 C2272 1.391 . S
C2273 C2277 1.376 . S
C2274 C2272 1.394 . S
C2274 C2275 1.369 . S
C2274 C2278 1.531 . S
C2275 C2274 1.369 . S
C2275 C2276 1.410 . S
C2275 C2283 1.503 . S
C2276 C2275 1.410 . S
C2276 C2277 1.392 . S
C2276 C2279 1.511 . S
C2277 C2273 1.376 . S
C2277 C2276 1.392 . S
C2277 H2289 0.929 . S
C2278 C2274 1.531 . S
C2278 H2290 0.960 . S
C2278 H2291 0.962 . S
C2278 H2292 0.960 . S
C2279 C2276 1.511 . S
C2279 H2293 0.961 . S
C2279 H2294 0.961 . S
C2279 H2295 0.961 . S
C2280 C2281 1.370 . S
C2280 C2282 1.363 . S
C2280 H2296 0.931 . S
C2281 C2280 1.370 . S
C2281 C2285 1.408 . S
C2282 C2280 1.363 . S
C2282 C2283 1.370 . S
C2282 C2286 1.524 . S
C2283 C2275 1.503 . S
C2283 C2282 1.370 . S
C2283 C2284 1.403 . S
C2284 C2283 1.403 . S
C2284 C2285 1.404 . S
C2284 C2287 1.539 . S
C2285 C2281 1.408 . S
C2285 C2284 1.404 . S
C2285 H2297 0.930 . S
C2286 C2282 1.524 . S
C2286 H2298 0.956 . S
C2286 H2299 0.961 . S
C2286 H2300 0.961 . S
C2287 C2284 1.539 . S
C2287 H2301 0.958 . S
C2287 H2302 0.961 . S
C2287 H2303 0.960 . S
H2288 C2272 0.931 . S
H2289 C2277 0.929 . S
H2290 C2278 0.960 . S
H2291 C2278 0.962 . S
H2292 C2278 0.960 . S
H2293 C2279 0.961 . S
H2294 C2279 0.961 . S
H2295 C2279 0.961 . S
H2296 C2280 0.931 . S
H2297 C2285 0.930 . S
H2298 C2286 0.956 . S
H2299 C2286 0.961 . S
H2300 C2286 0.961 . S
H2301 C2287 0.958 . S
H2302 C2287 0.961 . S
H2303 C2287 0.960 . S
C2304 C2305 1.391 . S
C2304 C2306 1.394 . S
C2304 H2320 0.931 . S
C2305 C2304 1.391 . S
C2305 C2309 1.376 . S
C2306 C2304 1.394 . S
C2306 C2307 1.369 . S
C2306 C2310 1.531 . S
C2307 C2306 1.369 . S
C2307 C2308 1.410 . S
C2307 C2315 1.503 . S
C2308 C2307 1.410 . S
C2308 C2309 1.392 . S
C2308 C2311 1.511 . S
C2309 C2305 1.376 . S
C2309 C2308 1.392 . S
C2309 H2321 0.929 . S
C2310 C2306 1.531 . S
C2310 H2322 0.960 . S
C2310 H2323 0.962 . S
C2310 H2324 0.960 . S
C2311 C2308 1.511 . S
C2311 H2325 0.961 . S
C2311 H2326 0.961 . S
C2311 H2327 0.961 . S
C2312 C2313 1.370 . S
C2312 C2314 1.363 . S
C2312 H2328 0.931 . S
C2313 C2312 1.370 . S
C2313 C2317 1.408 . S
C2314 C2312 1.363 . S
C2314 C2315 1.370 . S
C2314 C2318 1.524 . S
C2315 C2307 1.503 . S
C2315 C2314 1.370 . S
C2315 C2316 1.403 . S
C2316 C2315 1.403 . S
C2316 C2317 1.404 . S
C2316 C2319 1.539 . S
C2317 C2313 1.408 . S
C2317 C2316 1.404 . S
C2317 H2329 0.930 . S
C2318 C2314 1.524 . S
C2318 H2330 0.956 . S
C2318 H2331 0.961 . S
C2318 H2332 0.961 . S
C2319 C2316 1.539 . S
C2319 H2333 0.958 . S
C2319 H2334 0.961 . S
C2319 H2335 0.960 . S
H2320 C2304 0.931 . S
H2321 C2309 0.929 . S
H2322 C2310 0.960 . S
H2323 C2310 0.962 . S
H2324 C2310 0.960 . S
H2325 C2311 0.961 . S
H2326 C2311 0.961 . S
H2327 C2311 0.961 . S
H2328 C2312 0.931 . S
H2329 C2317 0.930 . S
H2330 C2318 0.956 . S
H2331 C2318 0.961 . S
H2332 C2318 0.961 . S
H2333 C2319 0.958 . S
H2334 C2319 0.961 . S
H2335 C2319 0.960 . S
C2336 C2337 1.391 . S
C2336 C2338 1.394 . S
C2336 H2352 0.931 . S
C2337 C2336 1.391 . S
C2337 C2341 1.376 . S
C2338 C2336 1.394 . S
C2338 C2339 1.369 . S
C2338 C2342 1.531 . S
C2339 C2338 1.369 . S
C2339 C2340 1.410 . S
C2339 C2347 1.503 . S
C2340 C2339 1.410 . S
C2340 C2341 1.392 . S
C2340 C2343 1.511 . S
C2341 C2337 1.376 . S
C2341 C2340 1.392 . S
C2341 H2353 0.929 . S
C2342 C2338 1.531 . S
C2342 H2354 0.960 . S
C2342 H2355 0.962 . S
C2342 H2356 0.960 . S
C2343 C2340 1.511 . S
C2343 H2357 0.961 . S
C2343 H2358 0.961 . S
C2343 H2359 0.961 . S
C2344 C2345 1.370 . S
C2344 C2346 1.363 . S
C2344 H2360 0.931 . S
C2345 C2344 1.370 . S
C2345 C2349 1.408 . S
C2346 C2344 1.363 . S
C2346 C2347 1.370 . S
C2346 C2350 1.524 . S
C2347 C2339 1.503 . S
C2347 C2346 1.370 . S
C2347 C2348 1.403 . S
C2348 C2347 1.403 . S
C2348 C2349 1.404 . S
C2348 C2351 1.539 . S
C2349 C2345 1.408 . S
C2349 C2348 1.404 . S
C2349 H2361 0.930 . S
C2350 C2346 1.524 . S
C2350 H2362 0.956 . S
C2350 H2363 0.961 . S
C2350 H2364 0.961 . S
C2351 C2348 1.539 . S
C2351 H2365 0.958 . S
C2351 H2366 0.961 . S
C2351 H2367 0.960 . S
H2352 C2336 0.931 . S
H2353 C2341 0.929 . S
H2354 C2342 0.960 . S
H2355 C2342 0.962 . S
H2356 C2342 0.960 . S
H2357 C2343 0.961 . S
H2358 C2343 0.961 . S
H2359 C2343 0.961 . S
H2360 C2344 0.931 . S
H2361 C2349 0.930 . S
H2362 C2350 0.956 . S
H2363 C2350 0.961 . S
H2364 C2350 0.961 . S
H2365 C2351 0.958 . S
H2366 C2351 0.961 . S
H2367 C2351 0.960 . S
C2368 C2369 1.391 . S
C2368 C2370 1.394 . S
C2368 H2384 0.931 . S
C2369 C2368 1.391 . S
C2369 C2373 1.376 . S
C2370 C2368 1.394 . S
C2370 C2371 1.369 . S
C2370 C2374 1.531 . S
C2371 C2370 1.369 . S
C2371 C2372 1.410 . S
C2371 C2379 1.503 . S
C2372 C2371 1.410 . S
C2372 C2373 1.392 . S
C2372 C2375 1.511 . S
C2373 C2369 1.376 . S
C2373 C2372 1.392 . S
C2373 H2385 0.929 . S
C2374 C2370 1.531 . S
C2374 H2386 0.960 . S
C2374 H2387 0.962 . S
C2374 H2388 0.960 . S
C2375 C2372 1.511 . S
C2375 H2389 0.961 . S
C2375 H2390 0.961 . S
C2375 H2391 0.961 . S
C2376 C2377 1.370 . S
C2376 C2378 1.363 . S
C2376 H2392 0.931 . S
C2377 C2376 1.370 . S
C2377 C2381 1.408 . S
C2378 C2376 1.363 . S
C2378 C2379 1.370 . S
C2378 C2382 1.524 . S
C2379 C2371 1.503 . S
C2379 C2378 1.370 . S
C2379 C2380 1.403 . S
C2380 C2379 1.403 . S
C2380 C2381 1.404 . S
C2380 C2383 1.539 . S
C2381 C2377 1.408 . S
C2381 C2380 1.404 . S
C2381 H2393 0.930 . S
C2382 C2378 1.524 . S
C2382 H2394 0.956 . S
C2382 H2395 0.961 . S
C2382 H2396 0.961 . S
C2383 C2380 1.539 . S
C2383 H2397 0.958 . S
C2383 H2398 0.961 . S
C2383 H2399 0.960 . S
H2384 C2368 0.931 . S
H2385 C2373 0.929 . S
H2386 C2374 0.960 . S
H2387 C2374 0.962 . S
H2388 C2374 0.960 . S
H2389 C2375 0.961 . S
H2390 C2375 0.961 . S
H2391 C2375 0.961 . S
H2392 C2376 0.931 . S
H2393 C2381 0.930 . S
H2394 C2382 0.956 . S
H2395 C2382 0.961 . S
H2396 C2382 0.961 . S
H2397 C2383 0.958 . S
H2398 C2383 0.961 . S
H2399 C2383 0.960 . S
C2400 C2401 1.391 . S
C2400 C2402 1.394 . S
C2400 H2416 0.931 . S
C2401 C2400 1.391 . S
C2401 C2405 1.376 . S
C2402 C2400 1.394 . S
C2402 C2403 1.369 . S
C2402 C2406 1.531 . S
C2403 C2402 1.369 . S
C2403 C2404 1.410 . S
C2403 C2411 1.503 . S
C2404 C2403 1.410 . S
C2404 C2405 1.392 . S
C2404 C2407 1.511 . S
C2405 C2401 1.376 . S
C2405 C2404 1.392 . S
C2405 H2417 0.929 . S
C2406 C2402 1.531 . S
C2406 H2418 0.960 . S
C2406 H2419 0.962 . S
C2406 H2420 0.960 . S
C2407 C2404 1.511 . S
C2407 H2421 0.961 . S
C2407 H2422 0.961 . S
C2407 H2423 0.961 . S
C2408 C2409 1.370 . S
C2408 C2410 1.363 . S
C2408 H2424 0.931 . S
C2409 C2408 1.370 . S
C2409 C2413 1.408 . S
C2410 C2408 1.363 . S
C2410 C2411 1.370 . S
C2410 C2414 1.524 . S
C2411 C2403 1.503 . S
C2411 C2410 1.370 . S
C2411 C2412 1.403 . S
C2412 C2411 1.403 . S
C2412 C2413 1.404 . S
C2412 C2415 1.539 . S
C2413 C2409 1.408 . S
C2413 C2412 1.404 . S
C2413 H2425 0.930 . S
C2414 C2410 1.524 . S
C2414 H2426 0.956 . S
C2414 H2427 0.961 . S
C2414 H2428 0.961 . S
C2415 C2412 1.539 . S
C2415 H2429 0.958 . S
C2415 H2430 0.961 . S
C2415 H2431 0.960 . S
H2416 C2400 0.931 . S
H2417 C2405 0.929 . S
H2418 C2406 0.960 . S
H2419 C2406 0.962 . S
H2420 C2406 0.960 . S
H2421 C2407 0.961 . S
H2422 C2407 0.961 . S
H2423 C2407 0.961 . S
H2424 C2408 0.931 . S
H2425 C2413 0.930 . S
H2426 C2414 0.956 . S
H2427 C2414 0.961 . S
H2428 C2414 0.961 . S
H2429 C2415 0.958 . S
H2430 C2415 0.961 . S
H2431 C2415 0.960 . S
C2432 C2433 1.391 . S
C2432 C2434 1.394 . S
C2432 H2448 0.931 . S
C2433 C2432 1.391 . S
C2433 C2437 1.376 . S
C2434 C2432 1.394 . S
C2434 C2435 1.369 . S
C2434 C2438 1.531 . S
C2435 C2434 1.369 . S
C2435 C2436 1.410 . S
C2435 C2443 1.503 . S
C2436 C2435 1.410 . S
C2436 C2437 1.392 . S
C2436 C2439 1.511 . S
C2437 C2433 1.376 . S
C2437 C2436 1.392 . S
C2437 H2449 0.929 . S
C2438 C2434 1.531 . S
C2438 H2450 0.960 . S
C2438 H2451 0.962 . S
C2438 H2452 0.960 . S
C2439 C2436 1.511 . S
C2439 H2453 0.961 . S
C2439 H2454 0.961 . S
C2439 H2455 0.961 . S
C2440 C2441 1.370 . S
C2440 C2442 1.363 . S
C2440 H2456 0.931 . S
C2441 C2440 1.370 . S
C2441 C2445 1.408 . S
C2442 C2440 1.363 . S
C2442 C2443 1.370 . S
C2442 C2446 1.524 . S
C2443 C2435 1.503 . S
C2443 C2442 1.370 . S
C2443 C2444 1.403 . S
C2444 C2443 1.403 . S
C2444 C2445 1.404 . S
C2444 C2447 1.539 . S
C2445 C2441 1.408 . S
C2445 C2444 1.404 . S
C2445 H2457 0.930 . S
C2446 C2442 1.524 . S
C2446 H2458 0.956 . S
C2446 H2459 0.961 . S
C2446 H2460 0.961 . S
C2447 C2444 1.539 . S
C2447 H2461 0.958 . S
C2447 H2462 0.961 . S
C2447 H2463 0.960 . S
H2448 C2432 0.931 . S
H2449 C2437 0.929 . S
H2450 C2438 0.960 . S
H2451 C2438 0.962 . S
H2452 C2438 0.960 . S
H2453 C2439 0.961 . S
H2454 C2439 0.961 . S
H2455 C2439 0.961 . S
H2456 C2440 0.931 . S
H2457 C2445 0.930 . S
H2458 C2446 0.956 . S
H2459 C2446 0.961 . S
H2460 C2446 0.961 . S
H2461 C2447 0.958 . S
H2462 C2447 0.961 . S
H2463 C2447 0.960 . S
C417 C122 1.049 . S
C425 C5 1.102 . S
C449 C16 1.086 . S
C457 C343 1.073 . S
C481 C146 1.059 . S
C489 C29 1.095 . S
C513 C317 1.026 . S
C521 C44 1.099 . S
C545 C57 1.093 . S
C553 C198 1.086 . S
C577 C369 1.106 . S
C585 C68 1.096 . S
C609 C81 1.093 . S
C617 C174 1.086 . S
C641 C395 1.027 . S
C649 C96 1.125 . S
C673 C18 1.097 . S
C681 C109 1.098 . S
C705 C120 1.096 . S
C713 C237 1.055 . S
C737 C42 1.030 . S
C745 C135 1.099 . S
C769 C148 1.099 . S
C777 C213 1.053 . S
C801 C159 1.104 . S
C809 C94 1.064 . S
C833 C265 1.029 . S
C841 C172 1.101 . S
C865 C187 1.103 . S
C873 C70 1.066 . S
C897 C289 1.094 . S
C905 C200 1.112 . S
C929 C330 1.061 . S
C937 C211 1.102 . S
C961 C133 1.082 . S
C969 C226 1.100 . S
C993 C239 1.093 . S
C1001 C354 1.057 . S
C1025 C107 1.106 . S
C1033 C252 1.092 . S
C1057 C408 1.074 . S
C1065 C263 1.095 . S
C1089 C276 1.085 1_655 S
C1097 C161 1.070 . S
C1121 C380 1.103 . S
C1129 C291 1.095 . S
C1153 C185 1.043 . S
C1161 C302 1.096 . S
C1185 C224 1.081 . S
C1193 C315 1.100 . S
C1217 C328 1.087 . S
C1225 C31 1.083 . S
C1249 C341 1.103 . S
C1257 C250 1.068 . S
C1281 C356 1.087 . S
C1289 C3 1.076 . S
C1313 C304 1.027 . S
C1321 C367 1.101 . S
C1345 C382 1.083 1_455 S
C1353 C55 1.086 . S
C1377 C393 1.104 . S
C1385 C278 1.057 . S
C1409 C406 1.101 . S
C1417 C83 1.052 . S
C1441 C316 1.531 . S
C1449 C10 1.523 . S
C1473 C17 1.510 . S
C1481 C121 1.536 . S
C1505 C30 1.499 . S
C1513 C342 1.539 . S
C1537 C49 1.549 . S
C1545 C153 1.518 . S
C1569 C62 1.514 . S
C1577 C368 1.530 . S
C1601 C69 1.500 . S
C1609 C173 1.538 . S
C1633 C394 1.512 . S
C1641 C82 1.531 . S
C1665 C101 1.551 . S
C1673 C205 1.517 . S
C1697 C114 1.508 . S
C1705 C212 1.533 . S
C1729 C140 1.545 . S
C1737 C244 1.518 . S
C1761 C264 1.515 . S
C1769 C160 1.530 . S
C1793 C296 1.518 . S
C1801 C192 1.528 . S
C1825 C231 1.527 . S
C1833 C329 1.529 . S
C1857 C361 1.537 . S
C1865 C257 1.522 . S
C1889 C277 1.500 . S
C1897 C387 1.539 . S
C1921 C407 1.535 . S
C1929 C303 1.526 . S
C1953 C283 1.994 . S
C1961 C4 1.997 . S
C1985 C290 1.991 . S
C1993 C23 1.998 . S
C2017 C36 1.999 . S
C2025 C309 1.999 . S
C2049 C270 1.994 . S
C2057 C43 2.001 . S
C2081 C251 1.990 . S
C2089 C56 1.999 . S
C2113 C218 1.991 . S
C2121 C75 2.001 . S
C2145 C88 1.991 . S
C2153 C225 1.998 . S
C2177 C238 1.993 . S
C2185 C95 2.001 . S
C2209 C381 1.989 . S
C2217 C108 1.999 . S
C2241 C400 1.991 . S
C2249 C127 2.001 . S
C2273 C413 1.991 . S
C2281 C134 1.998 . S
C2305 C147 1.990 . S
C2313 C374 1.998 . S
C2337 C355 1.990 . S
C2345 C166 1.998 . S
C2369 C322 1.990 . S
C2377 C179 1.998 . S
C2401 C335 1.990 . S
C2409 C186 1.998 . S
C2433 C348 1.992 . S
C2441 C199 2.001 . S
