# Generated by pormake.
# Topology ukb, (4)-cn, num edge types: 1
# Building blocks:
#     Node 0, Type 0, BuildingBlock: CEKHIL_clean_sbu_0, # of connection points: 4
#     Node 1, Type 0, BuildingBlock: CEKHIL_clean_sbu_0, # of connection points: 4
#     Node 2, Type 0, BuildingBlock: CEKHIL_clean_sbu_0, # of connection points: 4
#     Node 3, Type 0, BuildingBlock: CEKHIL_clean_sbu_0, # of connection points: 4
#     Node 4, Type 0, BuildingBlock: CEKHIL_clean_sbu_0, # of connection points: 4
#     Node 5, Type 0, BuildingBlock: CEKHIL_clean_sbu_0, # of connection points: 4
#     Node 6, Type 0, BuildingBlock: CEKHIL_clean_sbu_0, # of connection points: 4
#     Node 7, Type 0, BuildingBlock: CEKHIL_clean_sbu_0, # of connection points: 4
#     Node 8, Type 0, BuildingBlock: CEKHIL_clean_sbu_0, # of connection points: 4
#     Node 9, Type 0, BuildingBlock: CEKHIL_clean_sbu_0, # of connection points: 4
#     Node 10, Type 0, BuildingBlock: CEKHIL_clean_sbu_0, # of connection points: 4
#     Node 11, Type 0, BuildingBlock: CEKHIL_clean_sbu_0, # of connection points: 4
#     Node 12, Type 0, BuildingBlock: CEKHIL_clean_sbu_0, # of connection points: 4
#     Node 13, Type 0, BuildingBlock: CEKHIL_clean_sbu_0, # of connection points: 4
#     Node 14, Type 0, BuildingBlock: CEKHIL_clean_sbu_0, # of connection points: 4
#     Node 15, Type 0, BuildingBlock: CEKHIL_clean_sbu_0, # of connection points: 4
#     Edge 16, Type (0, 0), BuildingBlock: XUDNAN_clean_linker_2, # of connection points: 2
#     Edge 17, Type (0, 0), BuildingBlock: XUDNAN_clean_linker_2, # of connection points: 2
#     Edge 18, Type (0, 0), BuildingBlock: XUDNAN_clean_linker_2, # of connection points: 2
#     Edge 19, Type (0, 0), BuildingBlock: XUDNAN_clean_linker_2, # of connection points: 2
#     Edge 20, Type (0, 0), BuildingBlock: XUDNAN_clean_linker_2, # of connection points: 2
#     Edge 21, Type (0, 0), BuildingBlock: XUDNAN_clean_linker_2, # of connection points: 2
#     Edge 22, Type (0, 0), BuildingBlock: XUDNAN_clean_linker_2, # of connection points: 2
#     Edge 23, Type (0, 0), BuildingBlock: XUDNAN_clean_linker_2, # of connection points: 2
#     Edge 24, Type (0, 0), BuildingBlock: XUDNAN_clean_linker_2, # of connection points: 2
#     Edge 25, Type (0, 0), BuildingBlock: XUDNAN_clean_linker_2, # of connection points: 2
#     Edge 26, Type (0, 0), BuildingBlock: XUDNAN_clean_linker_2, # of connection points: 2
#     Edge 27, Type (0, 0), BuildingBlock: XUDNAN_clean_linker_2, # of connection points: 2
#     Edge 28, Type (0, 0), BuildingBlock: XUDNAN_clean_linker_2, # of connection points: 2
#     Edge 29, Type (0, 0), BuildingBlock: XUDNAN_clean_linker_2, # of connection points: 2
#     Edge 30, Type (0, 0), BuildingBlock: XUDNAN_clean_linker_2, # of connection points: 2
#     Edge 31, Type (0, 0), BuildingBlock: XUDNAN_clean_linker_2, # of connection points: 2
#     Edge 32, Type (0, 0), BuildingBlock: XUDNAN_clean_linker_2, # of connection points: 2
#     Edge 33, Type (0, 0), BuildingBlock: XUDNAN_clean_linker_2, # of connection points: 2
#     Edge 34, Type (0, 0), BuildingBlock: XUDNAN_clean_linker_2, # of connection points: 2
#     Edge 35, Type (0, 0), BuildingBlock: XUDNAN_clean_linker_2, # of connection points: 2
#     Edge 36, Type (0, 0), BuildingBlock: XUDNAN_clean_linker_2, # of connection points: 2
#     Edge 37, Type (0, 0), BuildingBlock: XUDNAN_clean_linker_2, # of connection points: 2
#     Edge 38, Type (0, 0), BuildingBlock: XUDNAN_clean_linker_2, # of connection points: 2
#     Edge 39, Type (0, 0), BuildingBlock: XUDNAN_clean_linker_2, # of connection points: 2
#     Edge 40, Type (0, 0), BuildingBlock: XUDNAN_clean_linker_2, # of connection points: 2
#     Edge 41, Type (0, 0), BuildingBlock: XUDNAN_clean_linker_2, # of connection points: 2
#     Edge 42, Type (0, 0), BuildingBlock: XUDNAN_clean_linker_2, # of connection points: 2
#     Edge 43, Type (0, 0), BuildingBlock: XUDNAN_clean_linker_2, # of connection points: 2
#     Edge 44, Type (0, 0), BuildingBlock: XUDNAN_clean_linker_2, # of connection points: 2
#     Edge 45, Type (0, 0), BuildingBlock: XUDNAN_clean_linker_2, # of connection points: 2
#     Edge 46, Type (0, 0), BuildingBlock: XUDNAN_clean_linker_2, # of connection points: 2
#     Edge 47, Type (0, 0), BuildingBlock: XUDNAN_clean_linker_2, # of connection points: 2
# Relax obj value: 0.092
# Max RMSD: 0.049
# Mean RMSD: 0.049
data_MOF--net-ukb--node1-CEKHIL_clean_sbu_0--edge1-XUDNAN_clean_linker_2
_symmetry_space_group_name_H-M    P1
_symmetry_Int_Tables_number       1
_symmetry_cell_setting            triclinic
loop_
_symmetry_equiv_pos_as_xyz
'x, y, z'
_cell_length_a     43.555124
_cell_length_b     43.555482
_cell_length_c     37.344024
_cell_angle_alpha  89.964557
_cell_angle_beta   90.000645
_cell_angle_gamma 89.984186
loop_
_atom_site_label
_atom_site_type_symbol
_atom_site_fract_x
_atom_site_fract_y
_atom_site_fract_z
_atom_type_partial_charge
Co0 Co 0.5413 0.17481 0.1792 0.0
O1 O 0.51744 0.13745 0.1808 0.0
O2 O 0.51936 0.17238 0.22389 0.0
C3 C 0.52839 0.18913 0.12327 0.0
O4 O 0.56161 0.21635 0.18719 0.0
Co5 Co 0.59567 0.1831 0.12687 0.0
O6 O 0.59246 0.22707 0.1406 0.0
C7 C 0.6045 0.14584 0.19191 0.0
C8 C 0.50859 0.14638 0.21235 0.0
C9 C 0.57876 0.23489 0.16932 0.0
O10 O 0.57727 0.15331 0.2019 0.0
O11 O 0.61572 0.15371 0.16154 0.0
O12 O 0.50996 0.19437 0.14993 0.0
O13 O 0.55239 0.17269 0.1305 0.0
Co14 Co 0.32191 0.53278 0.68236 0.0
O15 O 0.35846 0.50792 0.68462 0.0
O16 O 0.32477 0.51315 0.72865 0.0
C17 C 0.30635 0.51721 0.62789 0.0
O18 O 0.28129 0.55502 0.6895 0.0
Co19 Co 0.31466 0.58369 0.62448 0.0
O20 O 0.2715 0.58504 0.64175 0.0
C21 C 0.35553 0.59381 0.68611 0.0
C22 C 0.35011 0.5009 0.71698 0.0
C23 C 0.26352 0.57275 0.67131 0.0
O24 O 0.34508 0.56945 0.70124 0.0
O25 O 0.3487 0.60183 0.6541 0.0
O26 O 0.30052 0.50046 0.65587 0.0
O27 O 0.32367 0.5408 0.63309 0.0
Co28 Co 0.97382 0.3203 0.17607 0.0
O29 O 0.99394 0.35849 0.16666 0.0
O30 O 0.99869 0.33202 0.21705 0.0
C31 C 0.98526 0.29927 0.12262 0.0
O32 O 0.95731 0.27919 0.19391 0.0
Co33 Co 0.91834 0.30064 0.12863 0.0
O34 O 0.92687 0.25995 0.15056 0.0
C35 C 0.91105 0.34949 0.18252 0.0
C36 C 0.00652 0.35579 0.19794 0.0
C37 C 0.94178 0.25713 0.17976 0.0
O38 O 0.93721 0.34262 0.19631 0.0
O39 O 0.90079 0.33763 0.15352 0.0
O40 O 0.00531 0.29879 0.14836 0.0
O41 O 0.96044 0.31445 0.12908 0.0
Co42 Co 0.17442 0.97373 0.67178 0.0
O43 O 0.13533 0.99475 0.67282 0.0
O44 O 0.17108 0.99729 0.715 0.0
C45 C 0.18702 0.9851 0.61505 0.0
O46 O 0.21755 0.9574 0.68015 0.0
Co47 Co 0.18695 0.9178 0.62323 0.0
O48 O 0.23007 0.92095 0.64028 0.0
C49 C 0.14909 0.90971 0.68771 0.0
C50 C 0.14418 0.00562 0.70356 0.0
C51 C 0.23695 0.93858 0.66628 0.0
O52 O 0.15591 0.93729 0.697 0.0
O53 O 0.15713 0.89817 0.6576 0.0
O54 O 0.19106 0.00513 0.64039 0.0
O55 O 0.1727 0.96019 0.62399 0.0
Co56 Co 0.53113 0.31887 0.83848 0.0
O57 O 0.50954 0.35505 0.85433 0.0
O58 O 0.50421 0.3335 0.80098 0.0
C59 C 0.52339 0.29122 0.8888 0.0
O60 O 0.54787 0.28111 0.81284 0.0
Co61 Co 0.58981 0.29584 0.87594 0.0
O62 O 0.58394 0.25832 0.84656 0.0
C63 C 0.59409 0.34835 0.82638 0.0
C64 C 0.49623 0.35503 0.82321 0.0
C65 C 0.56645 0.25876 0.81923 0.0
O66 O 0.56552 0.34475 0.81876 0.0
O67 O 0.60786 0.33241 0.85034 0.0
O68 O 0.50225 0.29308 0.86435 0.0
O69 O 0.54744 0.30812 0.88365 0.0
Co70 Co 0.18611 0.52807 0.33973 0.0
O71 O 0.14918 0.50334 0.34148 0.0
O72 O 0.1809 0.50693 0.29521 0.0
C73 C 0.20569 0.51522 0.39331 0.0
O74 O 0.22652 0.54865 0.32734 0.0
Co75 Co 0.19824 0.58242 0.39016 0.0
O76 O 0.23997 0.58355 0.36855 0.0
C77 C 0.15483 0.59081 0.33088 0.0
C78 C 0.15595 0.49552 0.30879 0.0
C79 C 0.24573 0.56795 0.34051 0.0
O80 O 0.16198 0.56374 0.32003 0.0
O81 O 0.1654 0.60229 0.35993 0.0
O82 O 0.20882 0.49711 0.36589 0.0
O83 O 0.18789 0.53878 0.38866 0.0
Co84 Co 0.96273 0.18323 0.83286 0.0
O85 O 0.98355 0.14561 0.84342 0.0
O86 O 0.98576 0.1697 0.79119 0.0
C87 C 0.97676 0.20661 0.8841 0.0
O88 O 0.9452 0.2234 0.81339 0.0
Co89 Co 0.90967 0.20532 0.88229 0.0
O90 O 0.91696 0.24492 0.85726 0.0
C91 C 0.89924 0.15464 0.83136 0.0
C92 C 0.9948 0.14703 0.81136 0.0
C93 C 0.9303 0.24617 0.82691 0.0
O94 O 0.92529 0.16004 0.8164 0.0
O95 O 0.89009 0.16817 0.85988 0.0
O96 O 0.99538 0.20602 0.85696 0.0
O97 O 0.95165 0.19121 0.88032 0.0
Co98 Co 0.32259 0.97085 0.33685 0.0
O99 O 0.35865 0.99266 0.35211 0.0
O100 O 0.3392 0.99439 0.29734 0.0
C101 C 0.29354 0.98303 0.38469 0.0
O102 O 0.28525 0.95271 0.31178 0.0
Co103 Co 0.29714 0.91611 0.38125 0.0
O104 O 0.2613 0.91953 0.34851 0.0
C105 C 0.35268 0.90792 0.33734 0.0
C106 C 0.36006 0.00361 0.31983 0.0
C107 C 0.26266 0.93477 0.31938 0.0
O108 O 0.34813 0.93425 0.32266 0.0
O109 O 0.33682 0.89782 0.36371 0.0
O110 O 0.29658 0.00236 0.35841 0.0
O111 O 0.31014 0.95854 0.38265 0.0
Co112 Co 0.46403 0.82893 0.82739 0.0
O113 O 0.48718 0.86701 0.82853 0.0
O114 O 0.49214 0.83011 0.78805 0.0
C115 C 0.46704 0.81711 0.88622 0.0
O116 O 0.44666 0.78679 0.81657 0.0
Co117 Co 0.40274 0.81756 0.8674 0.0
O118 O 0.40551 0.77457 0.84958 0.0
C119 C 0.40478 0.85949 0.80563 0.0
C120 C 0.50011 0.85714 0.79926 0.0
C121 C 0.42577 0.76773 0.82632 0.0
O122 O 0.4315 0.84934 0.79695 0.0
O123 O 0.39098 0.85218 0.83464 0.0
O124 O 0.49006 0.81099 0.86512 0.0
O125 O 0.44475 0.83214 0.87179 0.0
Co126 Co 0.68269 0.47326 0.31917 0.0
O127 O 0.64363 0.49453 0.31981 0.0
O128 O 0.67765 0.49612 0.27563 0.0
C129 C 0.69773 0.48494 0.37516 0.0
O130 O 0.72513 0.4567 0.30821 0.0
Co131 Co 0.69832 0.418 0.36777 0.0
O132 O 0.74052 0.42114 0.3477 0.0
C133 C 0.6575 0.4089 0.3058 0.0
C134 C 0.6512 0.50461 0.28819 0.0
C135 C 0.74552 0.43825 0.32065 0.0
O136 O 0.66314 0.43656 0.29575 0.0
O137 O 0.66735 0.39775 0.3354 0.0
O138 O 0.70079 0.50483 0.34942 0.0
O139 O 0.68311 0.46003 0.36715 0.0
Co140 Co 0.02813 0.6815 0.82348 0.0
O141 O 0.00431 0.64409 0.82253 0.0
O142 O 0.00529 0.67904 0.77941 0.0
C143 C 0.01627 0.69545 0.87988 0.0
O144 O 0.04842 0.72303 0.81488 0.0
Co145 Co 0.08314 0.69016 0.87524 0.0
O146 O 0.08051 0.73388 0.86029 0.0
C147 C 0.09099 0.65248 0.81025 0.0
C148 C 0.99477 0.65301 0.79124 0.0
C149 C 0.06636 0.74149 0.83178 0.0
O150 O 0.06382 0.66007 0.80006 0.0
O151 O 0.1022 0.66026 0.84064 0.0
O152 O 0.99727 0.70097 0.85382 0.0
O153 O 0.04011 0.67923 0.8717 0.0
Co154 Co 0.83237 0.02627 0.33184 0.0
O155 O 0.86918 1.00134 0.33204 0.0
O156 O 0.83648 0.00522 0.28682 0.0
C157 C 0.81493 0.01299 0.38645 0.0
O158 O 0.79182 0.04792 0.32138 0.0
Co159 Co 0.82252 0.07987 0.38509 0.0
O160 O 0.77943 0.07844 0.36768 0.0
C161 C 0.86407 0.08861 0.32371 0.0
C162 C 0.86169 0.99361 0.29957 0.0
C163 C 0.77284 0.06542 0.33813 0.0
O164 O 0.85612 0.06204 0.3119 0.0
O165 O 0.85476 0.09932 0.35374 0.0
O166 O 0.81046 0.99499 0.35918 0.0
O167 O 0.83231 0.03654 0.38066 0.0
Co168 Co 0.46691 0.68438 0.17072 0.0
O169 O 0.48648 0.647 0.15514 0.0
O170 O 0.49808 0.67256 0.20468 0.0
C171 C 0.46723 0.70838 0.117 0.0
O172 O 0.45324 0.72387 0.19521 0.0
Co173 Co 0.40364 0.70545 0.14081 0.0
O174 O 0.41278 0.74429 0.16643 0.0
C175 C 0.40639 0.65565 0.1941 0.0
C176 C 0.5031 0.64915 0.18394 0.0
C177 C 0.43367 0.74561 0.19024 0.0
O178 O 0.43535 0.66004 0.19846 0.0
O179 O 0.3901 0.66977 0.17084 0.0
O180 O 0.49183 0.70824 0.13673 0.0
O181 O 0.44472 0.69197 0.12874 0.0
Co182 Co 0.81471 0.47096 0.66706 0.0
O183 O 0.8516 0.49263 0.65458 0.0
O184 O 0.82753 0.4969 0.70659 0.0
C185 C 0.79026 0.48076 0.61503 0.0
O186 O 0.77531 0.45344 0.68866 0.0
Co187 Co 0.79449 0.41376 0.62454 0.0
O188 O 0.75429 0.422 0.64769 0.0
C189 C 0.84355 0.40757 0.67839 0.0
C190 C 0.85 0.50541 0.68587 0.0
C191 C 0.75279 0.43727 0.6767 0.0
O192 O 0.83937 0.43584 0.68707 0.0
O193 O 0.82916 0.39464 0.65256 0.0
O194 O 0.79059 0.50091 0.64064 0.0
O195 O 0.80675 0.45644 0.6204 0.0
Co196 Co 0.04159 0.81473 0.16814 0.0
O197 O 0.02115 0.85248 0.15646 0.0
O198 O 0.01887 0.82974 0.20939 0.0
C199 C 0.02721 0.7899 0.11776 0.0
O200 O 0.05857 0.77484 0.18916 0.0
Co201 Co 0.09432 0.7905 0.11961 0.0
O202 O 0.08673 0.75177 0.1463 0.0
C203 C 0.10562 0.84247 0.16849 0.0
C204 C 0.01014 0.85217 0.1887 0.0
C205 C 0.07331 0.75154 0.17664 0.0
O206 O 0.07946 0.83791 0.18362 0.0
O207 O 0.11453 0.82794 0.14054 0.0
O208 O 0.00862 0.79167 0.14488 0.0
O209 O 0.05247 0.80514 0.12088 0.0
Co210 Co 0.67826 0.03519 0.66481 0.0
O211 O 0.6406 0.01485 0.65221 0.0
O212 O 0.66267 0.01272 0.70563 0.0
C213 C 0.70447 0.02128 0.61525 0.0
O214 O 0.71739 0.05146 0.68747 0.0
Co215 Co 0.70478 0.08836 0.61906 0.0
O216 O 0.74163 0.08374 0.65003 0.0
C217 C 0.65158 0.0997 0.66602 0.0
C218 C 0.64047 0.0041 0.68466 0.0
C219 C 0.74051 0.06838 0.67908 0.0
O220 O 0.65511 0.07305 0.68031 0.0
O221 O 0.66705 0.10897 0.63892 0.0
O222 O 0.70166 0.00235 0.64195 0.0
O223 O 0.68931 0.04668 0.61802 0.0
H224 H 0.46848 0.10178 0.18986 0.0
H225 H 0.50158 0.14872 0.28478 0.0
H226 H 0.46761 0.11674 0.32241 0.0
H227 H 0.38947 0.09658 0.21921 0.0
H228 H 0.38327 0.05937 0.1994 0.0
H229 H 0.41077 0.08537 0.17995 0.0
H230 H 0.45304 0.04375 0.18541 0.0
H231 H 0.42568 0.01765 0.20496 0.0
H232 H 0.46072 0.02659 0.22843 0.0
H233 H 0.43184 0.07857 0.34981 0.0
H234 H 0.39312 0.03944 0.36522 0.0
H235 H 0.38037 0.01927 0.25239 0.0
C236 C 0.46859 0.10523 0.21858 0.0
C237 C 0.48776 0.12756 0.23451 0.0
C238 C 0.48704 0.13174 0.27208 0.0
C239 C 0.46791 0.11364 0.29366 0.0
C240 C 0.44934 0.09178 0.27717 0.0
C241 C 0.4492 0.08773 0.24048 0.0
C242 C 0.42624 0.0633 0.22952 0.0
C243 C 0.40094 0.07698 0.20561 0.0
C244 C 0.44239 0.03622 0.21099 0.0
C245 C 0.41371 0.05406 0.26583 0.0
C246 C 0.42762 0.07061 0.29293 0.0
C247 C 0.42062 0.06563 0.32884 0.0
C248 C 0.39868 0.04328 0.33731 0.0
C249 C 0.38367 0.02645 0.31 0.0
C250 C 0.3913 0.03199 0.27379 0.0
H251 H 0.39386 0.4601 0.69468 0.0
H252 H 0.34865 0.49492 0.78989 0.0
H253 H 0.38133 0.46145 0.82753 0.0
H254 H 0.39998 0.38155 0.72555 0.0
H255 H 0.43681 0.37538 0.70475 0.0
H256 H 0.41015 0.40236 0.68552 0.0
H257 H 0.45147 0.44505 0.68883 0.0
H258 H 0.47824 0.41824 0.70817 0.0
H259 H 0.46946 0.45354 0.73116 0.0
H260 H 0.42082 0.42615 0.85476 0.0
H261 H 0.46111 0.38822 0.86953 0.0
H262 H 0.47818 0.3739 0.75632 0.0
C263 C 0.39085 0.46068 0.72346 0.0
C264 C 0.36888 0.48022 0.73946 0.0
C265 C 0.36535 0.4801 0.77714 0.0
C266 C 0.38385 0.46124 0.7987 0.0
C267 C 0.40544 0.44237 0.78209 0.0
C268 C 0.40874 0.44164 0.7453 0.0
C269 C 0.43312 0.41875 0.73408 0.0
C270 C 0.41917 0.39298 0.71112 0.0
C271 C 0.45964 0.43487 0.7144 0.0
C272 C 0.44324 0.40689 0.77033 0.0
C273 C 0.4272 0.42104 0.79769 0.0
C274 C 0.43332 0.41472 0.83356 0.0
C275 C 0.45631 0.39325 0.84168 0.0
C276 C 0.47257 0.37804 0.81406 0.0
C277 C 0.46585 0.38495 0.77795 0.0
H278 H 0.02489 0.37092 0.26673 0.0
H279 H 0.04173 0.39049 0.1544 0.0
H280 H 0.08202 0.42728 0.17108 0.0
H281 H 0.03449 0.4495 0.2965 0.0
H282 H 0.05293 0.43929 0.33805 0.0
H283 H 0.02592 0.4133 0.3177 0.0
H284 H 0.06699 0.37027 0.31801 0.0
H285 H 0.09414 0.39614 0.33834 0.0
H286 H 0.10364 0.37703 0.297 0.0
H287 H 0.121 0.46048 0.19863 0.0
H288 H 0.15477 0.49208 0.23642 0.0
H289 H 0.11159 0.4547 0.33177 0.0
C290 C 0.0372 0.38293 0.24578 0.0
C291 C 0.03029 0.37783 0.20928 0.0
C292 C 0.04656 0.39416 0.18253 0.0
C293 C 0.06959 0.41502 0.19169 0.0
C294 C 0.07584 0.41966 0.22777 0.0
C295 C 0.06001 0.40444 0.25451 0.0
C296 C 0.07078 0.41487 0.29123 0.0
C297 C 0.04446 0.43015 0.3121 0.0
C298 C 0.08472 0.38797 0.31238 0.0
C299 C 0.09518 0.43811 0.28073 0.0
C300 C 0.09781 0.44014 0.24395 0.0
C301 C 0.11911 0.45929 0.22749 0.0
C302 C 0.13825 0.47706 0.2492 0.0
C303 C 0.13572 0.47588 0.28696 0.0
C304 C 0.11383 0.45618 0.30294 0.0
H305 H 0.09498 0.04031 0.68101 0.0
H306 H 0.14923 0.0171 0.77475 0.0
H307 H 0.11658 0.05066 0.81178 0.0
H308 H 0.08431 0.12032 0.70419 0.0
H309 H 0.04562 0.12221 0.68719 0.0
H310 H 0.0727 0.09573 0.66781 0.0
H311 H 0.03538 0.05067 0.68022 0.0
H312 H 0.00818 0.077 0.69966 0.0
H313 H 0.02147 0.04443 0.72511 0.0
H314 H 0.07748 0.08426 0.83908 0.0
H315 H 0.03595 0.12001 0.85506 0.0
H316 H 0.00837 0.12531 0.74353 0.0
C317 C 0.09986 0.04229 0.70935 0.0
C318 C 0.1245 0.02601 0.72513 0.0
C319 C 0.13048 0.02939 0.76216 0.0
C320 C 0.11204 0.04832 0.78342 0.0
C321 C 0.08795 0.06402 0.76714 0.0
C322 C 0.08194 0.06157 0.73094 0.0
C323 C 0.05501 0.08175 0.72025 0.0
C324 C 0.06502 0.10647 0.69327 0.0
C325 C 0.02844 0.0623 0.70544 0.0
C326 C 0.04682 0.09576 0.75619 0.0
C327 C 0.06598 0.08482 0.78282 0.0
C328 C 0.06245 0.0932 0.81848 0.0
C329 C 0.03872 0.1134 0.82728 0.0
C330 C 0.01909 0.12542 0.8005 0.0
C331 C 0.02329 0.11664 0.76442 0.0
H332 H 0.53754 0.90509 0.8207 0.0
H333 H 0.50816 0.85304 0.72771 0.0
H334 H 0.53959 0.88605 0.68879 0.0
H335 H 0.54071 0.97953 0.77865 0.0
H336 H 0.57526 0.9915 0.80124 0.0
H337 H 0.54975 0.96442 0.82235 0.0
H338 H 0.59456 0.92574 0.82925 0.0
H339 H 0.62024 0.95277 0.80835 0.0
H340 H 0.61633 0.9146 0.7903 0.0
H341 H 0.57159 0.92554 0.65945 0.0
H342 H 0.60803 0.96601 0.64158 0.0
H343 H 0.62104 0.99061 0.75319 0.0
C344 C 0.53782 0.90074 0.79216 0.0
C345 C 0.52036 0.87661 0.77715 0.0
C346 C 0.52148 0.87132 0.73977 0.0
C347 C 0.53912 0.89004 0.71739 0.0
C348 C 0.55596 0.91368 0.73284 0.0
C349 C 0.55599 0.91886 0.76936 0.0
C350 C 0.57745 0.94509 0.77888 0.0
C351 C 0.55972 0.97171 0.79631 0.0
C352 C 0.6037 0.93387 0.80313 0.0
C353 C 0.58916 0.95387 0.74197 0.0
C354 C 0.57602 0.93567 0.71585 0.0
C355 C 0.58227 0.93981 0.67962 0.0
C356 C 0.60287 0.96295 0.66974 0.0
C357 C 0.61739 0.9813 0.696 0.0
C358 C 0.6104 0.97672 0.7326 0.0
H359 H 0.52392 0.63293 0.25048 0.0
H360 H 0.5344 0.61254 0.13745 0.0
H361 H 0.57377 0.57355 0.15202 0.0
H362 H 0.60283 0.62331 0.27642 0.0
H363 H 0.59391 0.60497 0.31843 0.0
H364 H 0.56732 0.63197 0.29908 0.0
H365 H 0.52429 0.59095 0.3013 0.0
H366 H 0.55074 0.56382 0.32065 0.0
H367 H 0.53036 0.55425 0.28016 0.0
H368 H 0.61342 0.53873 0.17859 0.0
H369 H 0.6477 0.50667 0.21572 0.0
H370 H 0.60843 0.54626 0.31194 0.0
C371 C 0.53466 0.62034 0.22884 0.0
C372 C 0.52644 0.62584 0.19281 0.0
C373 C 0.54049 0.60862 0.1652 0.0
C374 C 0.56288 0.58653 0.17322 0.0
C375 C 0.57048 0.5816 0.20901 0.0
C376 C 0.55654 0.5977 0.23644 0.0
C377 C 0.56804 0.58705 0.2727 0.0
C378 C 0.58398 0.6134 0.29284 0.0
C379 C 0.54179 0.57319 0.29501 0.0
C380 C 0.59085 0.56266 0.26135 0.0
C381 C 0.59214 0.56019 0.22447 0.0
C382 C 0.6124 0.54021 0.20749 0.0
C383 C 0.63182 0.5222 0.22877 0.0
C384 C 0.63046 0.52389 0.26659 0.0
C385 C 0.60959 0.54427 0.28307 0.0
H386 H 0.95756 0.60603 0.81428 0.0
H387 H 0.98391 0.65751 0.71958 0.0
H388 H 0.94949 0.62537 0.68283 0.0
H389 H 0.95169 0.53211 0.77256 0.0
H390 H 0.91842 0.52038 0.7978 0.0
H391 H 0.94525 0.54726 0.81685 0.0
H392 H 0.90114 0.58618 0.82715 0.0
H393 H 0.87415 0.5594 0.80817 0.0
H394 H 0.87736 0.59759 0.78993 0.0
H395 H 0.91484 0.58622 0.65593 0.0
H396 H 0.87834 0.54494 0.64083 0.0
H397 H 0.87105 0.52073 0.75322 0.0
C398 C 0.95605 0.61051 0.78581 0.0
C399 C 0.9735 0.63416 0.76968 0.0
C400 C 0.97072 0.63954 0.73245 0.0
C401 C 0.9513 0.62137 0.71136 0.0
C402 C 0.93451 0.59818 0.728 0.0
C403 C 0.93635 0.59289 0.76441 0.0
C404 C 0.91528 0.56683 0.77558 0.0
C405 C 0.93377 0.54006 0.79164 0.0
C406 C 0.89051 0.57819 0.80176 0.0
C407 C 0.9015 0.55818 0.73969 0.0
C408 C 0.91324 0.57639 0.71261 0.0
C409 C 0.90524 0.57201 0.67691 0.0
C410 C 0.8846 0.54844 0.6686 0.0
C411 C 0.8718 0.52985 0.69589 0.0
C412 C 0.88023 0.53491 0.73193 0.0
H413 H 0.90602 0.95271 0.322 0.0
H414 H 0.86208 0.9897 0.22697 0.0
H415 H 0.89591 0.95812 0.18895 0.0
H416 H 0.9827 0.9479 0.28668 0.0
H417 H 0.99154 0.91186 0.30807 0.0
H418 H 0.96425 0.9377 0.32823 0.0
H419 H 0.92331 0.89457 0.32871 0.0
H420 H 0.9505 0.86856 0.30869 0.0
H421 H 0.91389 0.87516 0.28753 0.0
H422 H 0.93542 0.92476 0.16121 0.0
H423 H 0.97549 0.88754 0.14476 0.0
H424 H 0.99239 0.86875 0.25725 0.0
C425 C 0.90359 0.95412 0.29318 0.0
C426 C 0.88153 0.97374 0.27736 0.0
C427 C 0.87876 0.97477 0.23962 0.0
C428 C 0.89794 0.95701 0.2178 0.0
C429 C 0.91951 0.93801 0.23415 0.0
C430 C 0.92224 0.93606 0.27093 0.0
C431 C 0.94676 0.91294 0.28143 0.0
C432 C 0.97286 0.92854 0.30234 0.0
C433 C 0.93277 0.88622 0.30285 0.0
C434 C 0.95753 0.90245 0.24476 0.0
C435 C 0.94163 0.91754 0.21797 0.0
C436 C 0.94788 0.91262 0.18191 0.0
C437 C 0.9708 0.8915 0.17287 0.0
C438 C 0.98701 0.87519 0.19971 0.0
C439 C 0.98023 0.88075 0.23618 0.0
H440 H 0.58524 0.25065 0.23961 0.0
H441 H 0.58776 0.28801 0.132 0.0
H442 H 0.60284 0.33863 0.15639 0.0
H443 H 0.559 0.32074 0.28673 0.0
H444 H 0.58379 0.31376 0.32452 0.0
H445 H 0.56872 0.28194 0.29918 0.0
H446 H 0.62402 0.26199 0.28849 0.0
H447 H 0.63925 0.29373 0.31363 0.0
H448 H 0.65206 0.2871 0.26839 0.0
H449 H 0.62082 0.38393 0.19198 0.0
H450 H 0.64416 0.41966 0.23523 0.0
H451 H 0.63315 0.35171 0.31948 0.0
C452 C 0.58816 0.26975 0.22133 0.0
C453 C 0.5849 0.2657 0.18401 0.0
C454 C 0.58995 0.29083 0.16071 0.0
C455 C 0.59838 0.31962 0.17433 0.0
C456 C 0.60198 0.32275 0.21125 0.0
C457 C 0.59722 0.29844 0.23443 0.0
C458 C 0.60586 0.30692 0.27247 0.0
C459 C 0.57766 0.30578 0.29718 0.0
C460 C 0.63184 0.28621 0.28655 0.0
C461 C 0.61677 0.3396 0.26697 0.0
C462 C 0.61376 0.34847 0.2316 0.0
C463 C 0.62311 0.37731 0.21979 0.0
C464 C 0.63634 0.39747 0.24463 0.0
C465 C 0.64059 0.38853 0.28083 0.0
C466 C 0.63023 0.3593 0.29207 0.0
H467 H 0.24761 0.57838 0.74173 0.0
H468 H 0.21114 0.58554 0.63396 0.0
H469 H 0.16098 0.60184 0.65856 0.0
H470 H 0.17674 0.55258 0.7865 0.0
H471 H 0.18397 0.57562 0.82569 0.0
H472 H 0.21565 0.56083 0.79987 0.0
H473 H 0.23702 0.61599 0.79236 0.0
H474 H 0.20546 0.63093 0.81807 0.0
H475 H 0.21272 0.64544 0.77366 0.0
H476 H 0.11591 0.61999 0.69466 0.0
H477 H 0.08037 0.64235 0.73888 0.0
H478 H 0.14726 0.62584 0.82304 0.0
C479 C 0.22883 0.58272 0.72339 0.0
C480 C 0.23303 0.58041 0.68601 0.0
C481 C 0.20827 0.58712 0.66272 0.0
C482 C 0.17971 0.59622 0.67645 0.0
C483 C 0.17643 0.59873 0.71347 0.0
C484 C 0.20037 0.59236 0.73661 0.0
C485 C 0.19178 0.59962 0.77499 0.0
C486 C 0.19205 0.57042 0.79812 0.0
C487 C 0.213 0.62447 0.79067 0.0
C488 C 0.15944 0.61156 0.76977 0.0
C489 C 0.15083 0.61034 0.73418 0.0
C490 C 0.12232 0.62089 0.72264 0.0
C491 C 0.10226 0.63353 0.74803 0.0
C492 C 0.11097 0.63592 0.78453 0.0
C493 C 0.13982 0.62432 0.79543 0.0
H494 H 0.88189 0.14863 0.33483 0.0
H495 H 0.88928 0.07342 0.25889 0.0
H496 H 0.91619 0.10746 0.21673 0.0
H497 H 0.86492 0.20519 0.27318 0.0
H498 H 0.88675 0.2353 0.29432 0.0
H499 H 0.87187 0.20417 0.32076 0.0
H500 H 0.92663 0.19218 0.34402 0.0
H501 H 0.94172 0.2234 0.31764 0.0
H502 H 0.95716 0.18526 0.31244 0.0
H503 H 0.93491 0.15074 0.17943 0.0
H504 H 0.9463 0.20045 0.15041 0.0
H505 H 0.92959 0.24753 0.25074 0.0
C506 C 0.88981 0.13908 0.30971 0.0
C507 C 0.88339 0.10826 0.3003 0.0
C508 C 0.89384 0.09689 0.26687 0.0
C509 C 0.90929 0.11603 0.24271 0.0
C510 C 0.91453 0.14643 0.25244 0.0
C511 C 0.90543 0.15786 0.28528 0.0
C512 C 0.91188 0.19201 0.28798 0.0
C513 C 0.88208 0.21023 0.29443 0.0
C514 C 0.93577 0.19859 0.31726 0.0
C515 C 0.92489 0.19817 0.25102 0.0
C516 C 0.92641 0.17147 0.23108 0.0
C517 C 0.9346 0.17168 0.19501 0.0
C518 C 0.94094 0.19995 0.17874 0.0
C519 C 0.93938 0.22754 0.19861 0.0
C520 C 0.93189 0.22658 0.23536 0.0
H521 H 0.27834 0.89122 0.65997 0.0
H522 H 0.26441 0.97928 0.71187 0.0
H523 H 0.31203 0.97179 0.74636 0.0
H524 H 0.30096 0.85247 0.73482 0.0
H525 H 0.32943 0.82858 0.71358 0.0
H526 H 0.29777 0.84323 0.6879 0.0
H527 H 0.3357 0.86787 0.64282 0.0
H528 H 0.3676 0.85318 0.66842 0.0
H529 H 0.36499 0.89366 0.65885 0.0
H530 H 0.35523 0.95138 0.78233 0.0
H531 H 0.39147 0.91924 0.81695 0.0
H532 H 0.3789 0.84486 0.74157 0.0
C533 C 0.28584 0.90938 0.67771 0.0
C534 C 0.26768 0.93592 0.68306 0.0
C535 C 0.27791 0.95878 0.70725 0.0
C536 C 0.30505 0.95482 0.72684 0.0
C537 C 0.3219 0.92798 0.7218 0.0
C538 C 0.31286 0.90571 0.69763 0.0
C539 C 0.33315 0.8775 0.70027 0.0
C540 C 0.31419 0.84877 0.70972 0.0
C541 C 0.35145 0.87279 0.66552 0.0
C542 C 0.35406 0.88681 0.73083 0.0
C543 C 0.34748 0.91625 0.74245 0.0
C544 C 0.36125 0.92869 0.77286 0.0
C545 C 0.38176 0.91036 0.79233 0.0
C546 C 0.38841 0.88012 0.78115 0.0
C547 C 0.37495 0.86841 0.74967 0.0
H548 H 0.59438 0.20263 0.82747 0.0
H549 H 0.54716 0.25947 0.74938 0.0
H550 H 0.55914 0.22164 0.70227 0.0
H551 H 0.65506 0.18114 0.77388 0.0
H552 H 0.65788 0.14222 0.79 0.0
H553 H 0.64229 0.17163 0.81846 0.0
H554 H 0.59249 0.13987 0.82668 0.0
H555 H 0.60802 0.11019 0.79834 0.0
H556 H 0.57143 0.12729 0.78781 0.0
H557 H 0.5834 0.18225 0.66224 0.0
H558 H 0.61443 0.14165 0.63324 0.0
H559 H 0.64281 0.10849 0.73757 0.0
C560 C 0.58596 0.20682 0.80063 0.0
C561 C 0.56985 0.23408 0.79217 0.0
C562 C 0.55937 0.23871 0.75664 0.0
C563 C 0.56609 0.21735 0.72964 0.0
C564 C 0.58278 0.19117 0.7387 0.0
C565 C 0.59209 0.18554 0.77347 0.0
C566 C 0.61114 0.15648 0.77579 0.0
C567 C 0.6435 0.1633 0.79038 0.0
C568 C 0.59478 0.13201 0.7985 0.0
C569 C 0.61213 0.14733 0.73669 0.0
C570 C 0.59558 0.1676 0.71572 0.0
C571 C 0.59576 0.16575 0.67844 0.0
C572 C 0.6135 0.14274 0.66219 0.0
C573 C 0.63046 0.12169 0.68323 0.0
C574 C 0.62928 0.12374 0.72093 0.0
H575 H 0.37806 0.67019 0.25623 0.0
H576 H 0.39671 0.59469 0.18414 0.0
H577 H 0.36176 0.56133 0.21928 0.0
H578 H 0.3687 0.62263 0.34006 0.0
H579 H 0.33817 0.64695 0.3561 0.0
H580 H 0.36851 0.66294 0.32906 0.0
H581 H 0.32806 0.68397 0.28448 0.0
H582 H 0.29769 0.66786 0.31109 0.0
H583 H 0.30093 0.65788 0.2644 0.0
H584 H 0.31936 0.53921 0.25624 0.0
H585 H 0.27373 0.52897 0.29348 0.0
H586 H 0.28301 0.61878 0.34257 0.0
C587 C 0.37553 0.64628 0.24881 0.0
C588 C 0.39031 0.63454 0.21818 0.0
C589 C 0.38591 0.60363 0.20809 0.0
C590 C 0.36614 0.58465 0.22785 0.0
C591 C 0.35122 0.59705 0.25759 0.0
C592 C 0.35596 0.62707 0.26831 0.0
C593 C 0.33501 0.63566 0.29912 0.0
C594 C 0.35372 0.64244 0.3331 0.0
C595 C 0.31419 0.66294 0.28915 0.0
C596 C 0.31677 0.60626 0.30303 0.0
C597 C 0.32674 0.58416 0.27912 0.0
C598 C 0.31176 0.55608 0.27557 0.0
C599 C 0.28576 0.55056 0.29671 0.0
C600 C 0.27493 0.573 0.32111 0.0
C601 C 0.29108 0.60095 0.3247 0.0
H602 H 0.85917 0.34645 0.67052 0.0
H603 H 0.87458 0.42595 0.73845 0.0
H604 H 0.90411 0.39388 0.78027 0.0
H605 H 0.8466 0.29401 0.73832 0.0
H606 H 0.86619 0.26225 0.71745 0.0
H607 H 0.84965 0.29203 0.69022 0.0
H608 H 0.90242 0.30145 0.66012 0.0
H609 H 0.91915 0.27156 0.68728 0.0
H610 H 0.93548 0.30959 0.68757 0.0
H611 H 0.92473 0.35247 0.81916 0.0
H612 H 0.9378 0.30438 0.85089 0.0
H613 H 0.91234 0.25176 0.75704 0.0
C614 C 0.86933 0.3573 0.69375 0.0
C615 C 0.86443 0.38882 0.70105 0.0
C616 C 0.87794 0.40194 0.73204 0.0
C617 C 0.89487 0.3839 0.75602 0.0
C618 C 0.89859 0.35283 0.74849 0.0
C619 C 0.88659 0.33965 0.71788 0.0
C620 C 0.8923 0.30529 0.71737 0.0
C621 C 0.86188 0.28736 0.71576 0.0
C622 C 0.91361 0.29646 0.68623 0.0
C623 C 0.90821 0.30107 0.75316 0.0
C624 C 0.91176 0.32888 0.77054 0.0
C625 C 0.92287 0.33066 0.80548 0.0
C626 C 0.93016 0.3033 0.8233 0.0
C627 C 0.92668 0.27462 0.80603 0.0
C628 C 0.91615 0.27354 0.77031 0.0
H629 H 0.11416 0.8532 0.23988 0.0
H630 H 0.14724 0.87918 0.13464 0.0
H631 H 0.18743 0.9113 0.16256 0.0
H632 H 0.13187 0.92647 0.28699 0.0
H633 H 0.14428 0.90671 0.32687 0.0
H634 H 0.11502 0.89004 0.29881 0.0
H635 H 0.1474 0.84036 0.29308 0.0
H636 H 0.17672 0.85686 0.32095 0.0
H637 H 0.18634 0.84281 0.27696 0.0
H638 H 0.22655 0.93687 0.20161 0.0
H639 H 0.26388 0.95103 0.24844 0.0
H640 H 0.207 0.90602 0.32828 0.0
C641 C 0.12931 0.86641 0.22279 0.0
C642 C 0.1274 0.86415 0.18515 0.0
C643 C 0.14826 0.88083 0.16356 0.0
C644 C 0.17104 0.89922 0.17917 0.0
C645 C 0.17279 0.90044 0.21641 0.0
C646 C 0.15257 0.88438 0.23796 0.0
C647 C 0.16159 0.88671 0.27705 0.0
C648 C 0.13671 0.90349 0.2987 0.0
C649 C 0.16843 0.85479 0.29292 0.0
C650 C 0.19047 0.9059 0.27401 0.0
C651 C 0.19616 0.91414 0.2389 0.0
C652 C 0.22219 0.93081 0.22925 0.0
C653 C 0.24327 0.93877 0.25609 0.0
C654 C 0.23846 0.92963 0.29209 0.0
C655 C 0.21137 0.91344 0.30107 0.0
H656 H 0.34213 0.61831 0.75126 0.0
H657 H 0.41064 0.61807 0.66717 0.0
H658 H 0.4401 0.65793 0.69956 0.0
H659 H 0.34003 0.69743 0.75985 0.0
H660 H 0.33392 0.69818 0.80758 0.0
H661 H 0.32141 0.66562 0.78185 0.0
H662 H 0.35347 0.62946 0.82231 0.0
H663 H 0.36606 0.66198 0.84831 0.0
H664 H 0.39391 0.63664 0.82828 0.0
H665 H 0.45934 0.70048 0.73754 0.0
H666 H 0.46529 0.7462 0.77533 0.0
H667 H 0.3822 0.7219 0.83322 0.0
C668 C 0.36388 0.62603 0.74042 0.0
C669 C 0.37468 0.61483 0.70727 0.0
C670 C 0.40241 0.6262 0.69285 0.0
C671 C 0.41927 0.64868 0.71112 0.0
C672 C 0.40776 0.65979 0.74346 0.0
C673 C 0.38058 0.64904 0.75791 0.0
C674 C 0.37121 0.66773 0.7904 0.0
C675 C 0.33979 0.68315 0.78455 0.0
C676 C 0.37117 0.64775 0.82434 0.0
C677 C 0.39692 0.69116 0.79137 0.0
C678 C 0.41809 0.68564 0.76455 0.0
C679 C 0.44307 0.7049 0.75882 0.0
C680 C 0.44618 0.73092 0.78049 0.0
C681 C 0.42416 0.73784 0.80731 0.0
C682 C 0.39957 0.71722 0.81321 0.0
H683 H 0.89174 0.34642 0.25178 0.0
H684 H 0.88445 0.40042 0.15472 0.0
H685 H 0.84675 0.43454 0.18422 0.0
H686 H 0.81391 0.34547 0.26884 0.0
H687 H 0.81671 0.34712 0.31696 0.0
H688 H 0.8476 0.33094 0.29122 0.0
H689 H 0.88572 0.36921 0.32023 0.0
H690 H 0.85486 0.38555 0.34616 0.0
H691 H 0.87805 0.40984 0.31795 0.0
H692 H 0.80669 0.4592 0.22133 0.0
H693 H 0.76307 0.47014 0.26099 0.0
H694 H 0.79328 0.39795 0.33326 0.0
C695 C 0.88285 0.36608 0.23732 0.0
C696 C 0.89124 0.37141 0.20138 0.0
C697 C 0.87841 0.39641 0.18248 0.0
C698 C 0.85719 0.41593 0.19907 0.0
C699 C 0.84882 0.40979 0.23439 0.0
C700 C 0.86104 0.38533 0.25326 0.0
C701 C 0.84493 0.38122 0.28895 0.0
C702 C 0.82989 0.3493 0.29162 0.0
C703 C 0.86723 0.38679 0.32017 0.0
C704 C 0.82108 0.40649 0.28661 0.0
C705 C 0.82434 0.42316 0.25534 0.0
C706 C 0.80407 0.44654 0.24609 0.0
C707 C 0.77927 0.45252 0.26886 0.0
C708 C 0.77457 0.43485 0.30031 0.0
C709 C 0.7963 0.41205 0.30964 0.0
H710 H 0.07193 0.75558 0.7608 0.0
H711 H 0.07809 0.79503 0.86713 0.0
H712 H 0.09522 0.8443 0.84085 0.0
H713 H 0.13989 0.78817 0.7293 0.0
H714 H 0.1266 0.79456 0.68419 0.0
H715 H 0.11031 0.76408 0.71058 0.0
H716 H 0.05585 0.78648 0.70068 0.0
H717 H 0.07197 0.817 0.67402 0.0
H718 H 0.04826 0.82596 0.71217 0.0
H719 H 0.11486 0.88787 0.80354 0.0
H720 H 0.13855 0.92181 0.7586 0.0
H721 H 0.12274 0.8529 0.67658 0.0
C722 C 0.07603 0.7749 0.77841 0.0
C723 C 0.07321 0.77179 0.81593 0.0
C724 C 0.07987 0.79714 0.83829 0.0
C725 C 0.08951 0.82518 0.8236 0.0
C726 C 0.09271 0.82733 0.78653 0.0
C727 C 0.0863 0.80284 0.76422 0.0
C728 C 0.09465 0.81015 0.72573 0.0
C729 C 0.11933 0.78793 0.71164 0.0
C730 C 0.06597 0.80989 0.70174 0.0
C731 C 0.10725 0.84236 0.72997 0.0
C732 C 0.10539 0.85202 0.76515 0.0
C733 C 0.11626 0.88063 0.77587 0.0
C734 C 0.1297 0.89976 0.75006 0.0
C735 C 0.13262 0.89008 0.71395 0.0
C736 C 0.12089 0.86105 0.70389 0.0
H737 H 0.66237 0.12141 0.18118 0.0
H738 H 0.59154 0.13293 0.26204 0.0
H739 H 0.62562 0.10981 0.3071 0.0
H740 H 0.69193 0.04737 0.21589 0.0
H741 H 0.73116 0.05691 0.20528 0.0
H742 H 0.7003 0.07213 0.17844 0.0
H743 H 0.72005 0.12735 0.19003 0.0
H744 H 0.75086 0.11234 0.21695 0.0
H745 H 0.72494 0.14043 0.23547 0.0
H746 H 0.66914 0.0914 0.34498 0.0
H747 H 0.71839 0.07542 0.37216 0.0
H748 H 0.76021 0.07272 0.26681 0.0
C749 C 0.65381 0.11863 0.20821 0.0
C750 C 0.62419 0.1291 0.21791 0.0
C751 C 0.61404 0.12509 0.25372 0.0
C752 C 0.63324 0.11195 0.27963 0.0
C753 C 0.66245 0.10246 0.26934 0.0
C754 C 0.6726 0.10522 0.23442 0.0
C755 C 0.70547 0.09415 0.2308 0.0
C756 C 0.70731 0.06596 0.20614 0.0
C757 C 0.72656 0.12012 0.21754 0.0
C758 C 0.71245 0.08561 0.26932 0.0
C759 C 0.68728 0.0906 0.2911 0.0
C760 C 0.68882 0.0868 0.32813 0.0
C761 C 0.71686 0.07783 0.34334 0.0
C762 C 0.74287 0.07243 0.32151 0.0
C763 C 0.74044 0.07596 0.284 0.0
H764 H 0.40822 0.8023 0.1795 0.0
H765 H 0.45655 0.74745 0.25847 0.0
H766 H 0.44727 0.78754 0.30391 0.0
H767 H 0.43365 0.87939 0.21507 0.0
H768 H 0.39692 0.8963 0.20475 0.0
H769 H 0.41188 0.86577 0.17722 0.0
H770 H 0.36208 0.8345 0.18781 0.0
H771 H 0.3471 0.86471 0.21549 0.0
H772 H 0.3501 0.82625 0.23303 0.0
H773 H 0.42361 0.82791 0.34293 0.0
H774 H 0.39161 0.86817 0.37116 0.0
H775 H 0.36207 0.89881 0.26628 0.0
C776 C 0.41763 0.79913 0.20609 0.0
C777 C 0.4331 0.77177 0.21547 0.0
C778 C 0.44488 0.76835 0.25059 0.0
C779 C 0.43969 0.79099 0.27661 0.0
C780 C 0.42333 0.81721 0.26682 0.0
C781 C 0.41307 0.8217 0.23217 0.0
C782 C 0.39406 0.85069 0.22915 0.0
C783 C 0.41009 0.87445 0.20513 0.0
C784 C 0.36142 0.84359 0.21559 0.0
C785 C 0.39383 0.86094 0.26785 0.0
C786 C 0.41099 0.84143 0.28918 0.0
C787 C 0.41095 0.84394 0.32642 0.0
C788 C 0.39266 0.86673 0.34223 0.0
C789 C 0.37503 0.88689 0.32078 0.0
C790 C 0.37622 0.88435 0.28316 0.0
H791 H 0.74839 0.41859 0.74625 0.0
H792 H 0.69424 0.44609 0.65441 0.0
H793 H 0.64661 0.43311 0.68717 0.0
H794 H 0.70658 0.3533 0.76386 0.0
H795 H 0.70938 0.35496 0.81198 0.0
H796 H 0.73865 0.37237 0.78477 0.0
H797 H 0.72995 0.42445 0.81668 0.0
H798 H 0.70069 0.40712 0.84422 0.0
H799 H 0.69194 0.4408 0.81807 0.0
H800 H 0.60571 0.41211 0.72676 0.0
H801 H 0.57441 0.38144 0.76831 0.0
H802 H 0.65523 0.36405 0.83349 0.0
C803 C 0.72638 0.42295 0.73373 0.0
C804 C 0.7247 0.43405 0.69828 0.0
C805 C 0.69575 0.43813 0.68185 0.0
C806 C 0.66866 0.43089 0.70027 0.0
C807 C 0.671 0.41921 0.73494 0.0
C808 C 0.69911 0.41513 0.75151 0.0
C809 C 0.69549 0.39831 0.78686 0.0
C810 C 0.71359 0.36794 0.78683 0.0
C811 C 0.70508 0.41891 0.81832 0.0
C812 C 0.66113 0.39269 0.78696 0.0
C813 C 0.64739 0.4056 0.75719 0.0
C814 C 0.61615 0.40219 0.75039 0.0
C815 C 0.59854 0.38464 0.77422 0.0
C816 C 0.61226 0.3702 0.8043 0.0
C817 C 0.64392 0.37489 0.81096 0.0
H818 H 0.14082 0.65257 0.33702 0.0
H819 H 0.12429 0.57234 0.27065 0.0
H820 H 0.0961 0.60438 0.22758 0.0
H821 H 0.06588 0.69133 0.31776 0.0
H822 H 0.08325 0.72888 0.31716 0.0
H823 H 0.09891 0.69914 0.34537 0.0
H824 H 0.15217 0.70645 0.31568 0.0
H825 H 0.13668 0.73609 0.2874 0.0
H826 H 0.15558 0.70338 0.26769 0.0
H827 H 0.07652 0.64537 0.18761 0.0
H828 H 0.06467 0.69303 0.15445 0.0
H829 H 0.09093 0.74705 0.24692 0.0
C830 C 0.13064 0.64159 0.31389 0.0
C831 C 0.13487 0.60983 0.30738 0.0
C832 C 0.12151 0.59655 0.27639 0.0
C833 C 0.1053 0.61456 0.25173 0.0
C834 C 0.10224 0.64583 0.25847 0.0
C835 C 0.11421 0.65927 0.28894 0.0
C836 C 0.10941 0.6938 0.28838 0.0
C837 C 0.08809 0.70388 0.31899 0.0
C838 C 0.1403 0.71093 0.28986 0.0
C839 C 0.09393 0.69772 0.25225 0.0
C840 C 0.08986 0.66966 0.23561 0.0
C841 C 0.07886 0.66741 0.20067 0.0
C842 C 0.07225 0.69454 0.18203 0.0
C843 C 0.07632 0.7235 0.19847 0.0
C844 C 0.08672 0.72509 0.23425 0.0
H845 H 0.88949 0.14789 0.75967 0.0
H846 H 0.85966 0.11475 0.86347 0.0
H847 H 0.81981 0.0831 0.83418 0.0
H848 H 0.81638 0.15857 0.72609 0.0
H849 H 0.82508 0.1476 0.68068 0.0
H850 H 0.85479 0.163 0.70884 0.0
H851 H 0.88809 0.11464 0.69765 0.0
H852 H 0.85845 0.09908 0.66926 0.0
H853 H 0.8724 0.07715 0.70684 0.0
H854 H 0.78044 0.05916 0.79456 0.0
H855 H 0.74193 0.04746 0.74827 0.0
H856 H 0.7955 0.09857 0.67027 0.0
C857 C 0.87517 0.13319 0.77605 0.0
C858 C 0.87785 0.13327 0.81371 0.0
C859 C 0.85803 0.11473 0.83452 0.0
C860 C 0.83548 0.09659 0.81812 0.0
C861 C 0.83291 0.09754 0.78093 0.0
C862 C 0.85212 0.11547 0.76013 0.0
C863 C 0.84209 0.11542 0.72128 0.0
C864 C 0.8341 0.14808 0.7085 0.0
C865 C 0.86673 0.10069 0.69735 0.0
C866 C 0.81375 0.09538 0.72367 0.0
C867 C 0.80928 0.08476 0.75815 0.0
C868 C 0.78385 0.06707 0.76737 0.0
C869 C 0.76207 0.06056 0.74082 0.0
C870 C 0.76559 0.07212 0.70555 0.0
C871 C 0.79215 0.08926 0.69688 0.0
H872 H 0.57004 0.20864 0.0728 0.0
H873 H 0.47255 0.19858 0.09323 0.0
H874 H 0.46104 0.22081 0.03384 0.0
H875 H 0.56324 0.28232 0.03128 0.0
H876 H 0.59352 0.27588 0.99925 0.0
H877 H 0.59429 0.25649 0.04185 0.0
H878 H 0.59767 0.20402 0.00941 0.0
H879 H 0.59684 0.22326 0.96668 0.0
H880 H 0.56892 0.19395 0.97673 0.0
H881 H 0.46 0.24372 0.9726 0.0
H882 H 0.46904 0.27106 0.91571 0.0
H883 H 0.56705 0.27093 0.93669 0.0
C884 C 0.54633 0.21079 0.06448 0.0
C885 C 0.52212 0.20159 0.08727 0.0
C886 C 0.49136 0.20539 0.07599 0.0
C887 C 0.48462 0.21787 0.0423 0.0
C888 C 0.50893 0.22696 0.02051 0.0
C889 C 0.53916 0.22402 0.03126 0.0
C890 C 0.56079 0.23788 0.0038 0.0
C891 C 0.57903 0.26474 0.02001 0.0
C892 C 0.58233 0.21331 0.98823 0.0
C893 C 0.53798 0.24903 0.97597 0.0
C894 C 0.50824 0.24198 0.98595 0.0
C895 C 0.48316 0.24948 0.96454 0.0
C896 C 0.48854 0.26492 0.93223 0.0
C897 C 0.5187 0.27321 0.92191 0.0
C898 C 0.54374 0.26502 0.94405 0.0
H899 H 0.19707 0.54223 0.45915 0.0
H900 H 0.25446 0.47692 0.40236 0.0
H901 H 0.28514 0.46878 0.45704 0.0
H902 H 0.2558 0.57675 0.51153 0.0
H903 H 0.23275 0.58036 0.55142 0.0
H904 H 0.21468 0.58051 0.50806 0.0
H905 H 0.17993 0.53517 0.5275 0.0
H906 H 0.19799 0.53491 0.57092 0.0
H907 H 0.19728 0.50044 0.54425 0.0
H908 H 0.3109 0.46906 0.51701 0.0
H909 H 0.32971 0.47791 0.57885 0.0
H910 H 0.255 0.54161 0.59729 0.0
C911 C 0.21604 0.52617 0.45832 0.0
C912 C 0.2234 0.51019 0.42655 0.0
C913 C 0.24831 0.48928 0.42648 0.0
C914 C 0.26589 0.48449 0.45739 0.0
C915 C 0.25806 0.50053 0.48831 0.0
C916 C 0.23364 0.52081 0.48914 0.0
C917 C 0.23022 0.53515 0.52591 0.0
C918 C 0.23358 0.57028 0.5241 0.0
C919 C 0.19953 0.52586 0.54316 0.0
C920 C 0.25707 0.52045 0.5452 0.0
C921 C 0.27268 0.50035 0.5231 0.0
C922 C 0.29871 0.48452 0.53468 0.0
C923 C 0.30919 0.48959 0.56971 0.0
C924 C 0.29365 0.51027 0.59247 0.0
C925 C 0.26719 0.52568 0.58023 0.0
H926 H 0.94211 0.27983 0.07493 0.0
H927 H 0.04045 0.28527 0.09197 0.0
H928 H 0.04927 0.2635 0.03155 0.0
H929 H 0.94386 0.20696 0.02847 0.0
H930 H 0.91286 0.21718 0.99878 0.0
H931 H 0.91472 0.23359 0.04298 0.0
H932 H 0.91292 0.28818 0.01531 0.0
H933 H 0.9114 0.27194 0.97101 0.0
H934 H 0.94115 0.29901 0.98233 0.0
H935 H 0.04694 0.24393 0.96778 0.0
H936 H 0.03382 0.22175 0.90869 0.0
H937 H 0.93709 0.22593 0.93588 0.0
C938 C 0.96549 0.27636 0.06598 0.0
C939 C 0.99064 0.28436 0.08784 0.0
C940 C 0.02091 0.27918 0.07549 0.0
C941 C 0.02612 0.26702 0.04122 0.0
C942 C 1.00076 0.25974 0.02008 0.0
C943 C 0.97106 0.2637 0.03226 0.0
C944 C 0.94778 0.25298 0.00495 0.0
C945 C 0.92869 0.22607 0.01968 0.0
C946 C 0.9271 0.27962 0.99268 0.0
C947 C 0.969 0.24266 0.97527 0.0
C948 C 0.99946 0.24709 0.98427 0.0
C949 C 0.02318 0.24009 0.96058 0.0
C950 C 0.01553 0.22769 0.92707 0.0
C951 C 0.9845 0.22203 0.91797 0.0
C952 C 0.96102 0.22981 0.94232 0.0
H953 H 0.27193 0.94142 0.43341 0.0
H954 H 0.27017 0.03822 0.40598 0.0
H955 H 0.24017 0.04899 0.46078 0.0
H956 H 0.19365 0.93875 0.47054 0.0
H957 H 0.20419 0.9117 0.50497 0.0
H958 H 0.22412 0.91155 0.46267 0.0
H959 H 0.27595 0.91793 0.49592 0.0
H960 H 0.25621 0.91831 0.53825 0.0
H961 H 0.28105 0.94975 0.5262 0.0
H962 H 0.21573 0.04982 0.52161 0.0
H963 H 0.19385 0.04007 0.58166 0.0
H964 H 0.20791 0.9423 0.56725 0.0
C965 C 0.26491 0.96483 0.43874 0.0
C966 C 0.27341 0.98905 0.41563 0.0
C967 C 0.26376 0.01935 0.42335 0.0
C968 C 0.24679 0.02568 0.4544 0.0
C969 C 0.23921 1.00134 0.47698 0.0
C970 C 0.24751 0.97144 0.46924 0.0
C971 C 0.23678 0.94952 0.49815 0.0
C972 C 0.21328 0.92652 0.48318 0.0
C973 C 0.26413 0.93291 0.51566 0.0
C974 C 0.22185 0.97185 0.52385 0.0
C975 C 0.22366 1.00165 0.51121 0.0
C976 C 0.21361 0.02654 0.53147 0.0
C977 C 0.20137 0.02082 0.56553 0.0
C978 C 0.19887 0.99045 0.57868 0.0
C979 C 0.20896 0.96567 0.55742 0.0
H980 H 0.50972 0.78506 0.92747 0.0
H981 H 0.41666 0.82115 0.9283 0.0
H982 H 0.4082 0.79893 0.98763 0.0
H983 H 0.49352 0.71435 0.97182 0.0
H984 H 0.5279 0.71387 0.99869 0.0
H985 H 0.52777 0.7333 0.9561 0.0
H986 H 0.54566 0.78346 0.9869 0.0
H987 H 0.5459 0.76414 0.0296 0.0
H988 H 0.52375 0.79875 0.02377 0.0
H989 H 0.40715 0.76954 0.04312 0.0
H990 H 0.41533 0.73759 0.0963 0.0
H991 H 0.5103 0.7232 0.06543 0.0
C992 C 0.4877 0.78841 0.94034 0.0
C993 C 0.46377 0.80464 0.92293 0.0
C994 C 0.43532 0.80866 0.94074 0.0
C995 C 0.43022 0.79616 0.97461 0.0
C996 C 0.45395 0.78006 0.99085 0.0
C997 C 0.48229 0.77642 0.97479 0.0
C998 C 0.5036 0.75789 0.99882 0.0
C999 C 0.51379 0.72808 0.98024 0.0
C1000 C 0.53137 0.77722 0.01046 0.0
C1001 C 0.48242 0.75128 0.0303 0.0
C1002 C 0.45388 0.76424 0.02473 0.0
C1003 C 0.42957 0.75975 0.04826 0.0
C1004 C 0.43444 0.74148 0.07844 0.0
C1005 C 0.46356 0.72839 0.08538 0.0
C1006 C 0.488 0.73357 0.06113 0.0
H1007 H 0.77212 0.43921 0.56373 0.0
H1008 H 0.77339 0.53647 0.58883 0.0
H1009 H 0.74995 0.54802 0.5302 0.0
H1010 H 0.78916 0.44556 0.4704 0.0
H1011 H 0.76326 0.41548 0.45679 0.0
H1012 H 0.78024 0.41462 0.50076 0.0
H1013 H 0.72615 0.41181 0.52946 0.0
H1014 H 0.709 0.41248 0.48556 0.0
H1015 H 0.69799 0.44066 0.51848 0.0
H1016 H 0.72978 0.5494 0.46747 0.0
H1017 H 0.70873 0.54004 0.40695 0.0
H1018 H 0.71644 0.44183 0.4241 0.0
C1019 C 0.76734 0.4629 0.55685 0.0
C1020 C 0.77469 0.48698 0.58067 0.0
C1021 C 0.76787 0.51767 0.57098 0.0
C1022 C 0.75467 0.52448 0.5377 0.0
C1023 C 0.74793 0.50029 0.51465 0.0
C1024 C 0.75356 0.47007 0.52395 0.0
C1025 C 0.74332 0.4484 0.49452 0.0
C1026 C 0.77063 0.42993 0.47975 0.0
C1027 C 0.71758 0.42708 0.5078 0.0
C1028 C 0.73145 0.4712 0.46712 0.0
C1029 C 0.73468 0.50102 0.47913 0.0
C1030 C 0.72675 0.52614 0.45792 0.0
C1031 C 0.71494 0.52063 0.42359 0.0
C1032 C 0.71069 0.49027 0.41112 0.0
C1033 C 0.71902 0.46528 0.43322 0.0
H1034 H 0.06664 0.76775 0.06694 0.0
H1035 H 0.97002 0.77456 0.09392 0.0
H1036 H 0.9565 0.75023 0.03617 0.0
H1037 H 0.06021 0.7836 0.97434 0.0
H1038 H 0.08886 0.75613 0.96069 0.0
H1039 H 0.09097 0.77341 0.0044 0.0
H1040 H 0.09134 0.71951 0.03384 0.0
H1041 H 0.08947 0.70203 0.99018 0.0
H1042 H 0.06106 0.69271 0.02355 0.0
H1043 H 0.95362 0.72971 0.97301 0.0
H1044 H 0.96172 0.70869 0.91213 0.0
H1045 H 0.06019 0.71108 0.92893 0.0
C1046 C 0.04266 0.76389 0.06078 0.0
C1047 C 0.01932 0.77312 0.08471 0.0
C1048 C 0.98822 0.76753 0.07593 0.0
C1049 C 0.98033 0.75385 0.04317 0.0
C1050 C 0.00388 0.74539 0.0199 0.0
C1051 C 0.03443 0.74968 0.02858 0.0
C1052 C 0.05534 0.73815 0.9991 0.0
C1053 C 0.075 0.76439 0.98373 0.0
C1054 C 0.07549 0.71151 0.01247 0.0
C1055 C 0.03178 0.72721 0.97218 0.0
C1056 C 0.00222 0.73191 0.98449 0.0
C1057 C 0.97665 0.72544 0.96334 0.0
C1058 C 0.98144 0.71366 0.92881 0.0
C1059 C 0.01152 0.70798 0.91613 0.0
C1060 C 0.03694 0.71472 0.93821 0.0
H1061 H 0.73064 0.06126 0.56758 0.0
H1062 H 0.7191 0.96429 0.59037 0.0
H1063 H 0.74667 0.95138 0.53443 0.0
H1064 H 0.72131 0.05764 0.47312 0.0
H1065 H 0.75058 0.08565 0.46337 0.0
H1066 H 0.73009 0.08727 0.50521 0.0
H1067 H 0.78155 0.0851 0.54001 0.0
H1068 H 0.80222 0.08367 0.49825 0.0
H1069 H 0.80806 0.05417 0.53143 0.0
H1070 H 0.7716 0.94934 0.4734 0.0
H1071 H 0.79755 0.95818 0.41529 0.0
H1072 H 0.79719 0.05621 0.43545 0.0
C1073 C 0.73406 0.03732 0.56083 0.0
C1074 C 0.72263 0.01372 0.58307 0.0
C1075 C 0.72777 0.98268 0.57365 0.0
C1076 C 0.74329 0.97515 0.54191 0.0
C1077 C 0.75402 0.99896 0.52032 0.0
C1078 C 0.75011 0.02941 0.52969 0.0
C1079 C 0.7645 0.05061 0.50224 0.0
C1080 C 0.74017 0.07152 0.48497 0.0
C1081 C 0.79064 0.0695 0.51899 0.0
C1082 C 0.77671 0.02734 0.4757 0.0
C1083 C 0.77008 0.99769 0.48637 0.0
C1084 C 0.77737 0.97243 0.46507 0.0
C1085 C 0.79197 0.97765 0.43211 0.0
C1086 C 0.79964 0.0078 0.42118 0.0
C1087 C 0.79204 0.03288 0.44341 0.0
loop_
_geom_bond_atom_site_label_1
_geom_bond_atom_site_label_2
_geom_bond_distance
_geom_bond_site_symmetry_2
_ccdc_geom_bond_type
Co0 O1 2.216 . S
Co0 O2 2.091 . S
Co0 O4 2.004 . S
Co0 O10 2.021 . S
Co0 O12 2.137 . S
Co0 O13 2.244 . S
O1 Co0 2.216 . S
O1 C8 1.247 . S
O2 Co0 2.091 . S
O2 C8 1.261 . S
C3 O12 1.247 . S
C3 O13 1.272 . S
O4 Co0 2.004 . S
O4 C9 1.259 . S
Co5 O6 2.061 . S
Co5 O11 2.052 . S
Co5 O13 2.135 . S
O6 Co5 2.061 . S
O6 C9 1.235 . S
C7 O10 1.238 . S
C7 O11 1.241 . S
C8 O1 1.247 . S
C8 O2 1.261 . S
C9 O4 1.259 . S
C9 O6 1.235 . S
O10 Co0 2.021 . S
O10 C7 1.238 . S
O11 Co5 2.052 . S
O11 C7 1.241 . S
O12 Co0 2.137 . S
O12 C3 1.247 . S
O13 Co0 2.244 . S
O13 C3 1.272 . S
O13 Co5 2.135 . S
Co14 O15 2.216 . S
Co14 O16 2.091 . S
Co14 O18 2.004 . S
Co14 O24 2.021 . S
Co14 O26 2.137 . S
Co14 O27 2.244 . S
O15 Co14 2.216 . S
O15 C22 1.247 . S
O16 Co14 2.091 . S
O16 C22 1.261 . S
C17 O26 1.247 . S
C17 O27 1.272 . S
O18 Co14 2.004 . S
O18 C23 1.259 . S
Co19 O20 2.061 . S
Co19 O25 2.052 . S
Co19 O27 2.135 . S
O20 Co19 2.061 . S
O20 C23 1.235 . S
C21 O24 1.238 . S
C21 O25 1.241 . S
C22 O15 1.247 . S
C22 O16 1.261 . S
C23 O18 1.259 . S
C23 O20 1.235 . S
O24 Co14 2.021 . S
O24 C21 1.238 . S
O25 Co19 2.052 . S
O25 C21 1.241 . S
O26 Co14 2.137 . S
O26 C17 1.247 . S
O27 Co14 2.244 . S
O27 C17 1.272 . S
O27 Co19 2.135 . S
Co28 O29 2.216 1_655 S
Co28 O30 2.091 1_655 S
Co28 O32 2.004 . S
Co28 O38 2.021 . S
Co28 O40 2.137 1_655 S
Co28 O41 2.244 . S
O29 Co28 2.216 1_455 S
O29 C36 1.247 . S
O30 Co28 2.091 1_455 S
O30 C36 1.261 . S
C31 O40 1.247 1_655 S
C31 O41 1.272 . S
O32 Co28 2.004 . S
O32 C37 1.259 . S
Co33 O34 2.061 . S
Co33 O39 2.052 . S
Co33 O41 2.135 . S
O34 Co33 2.061 . S
O34 C37 1.235 . S
C35 O38 1.238 . S
C35 O39 1.241 . S
C36 O29 1.247 . S
C36 O30 1.261 . S
C37 O32 1.259 . S
C37 O34 1.235 . S
O38 Co28 2.021 . S
O38 C35 1.238 . S
O39 Co33 2.052 . S
O39 C35 1.241 . S
O40 Co28 2.137 1_455 S
O40 C31 1.247 1_455 S
O41 Co28 2.244 . S
O41 C31 1.272 . S
O41 Co33 2.135 . S
Co42 O43 2.216 1_565 S
Co42 O44 2.091 1_565 S
Co42 O46 2.004 . S
Co42 O52 2.021 . S
Co42 O54 2.137 1_565 S
Co42 O55 2.244 . S
O43 Co42 2.216 1_545 S
O43 C50 1.247 . S
O44 Co42 2.091 1_545 S
O44 C50 1.261 . S
C45 O54 1.247 1_565 S
C45 O55 1.272 . S
O46 Co42 2.004 . S
O46 C51 1.259 . S
Co47 O48 2.061 . S
Co47 O53 2.052 . S
Co47 O55 2.135 . S
O48 Co47 2.061 . S
O48 C51 1.235 . S
C49 O52 1.238 . S
C49 O53 1.241 . S
C50 O43 1.247 . S
C50 O44 1.261 . S
C51 O46 1.259 . S
C51 O48 1.235 . S
O52 Co42 2.021 . S
O52 C49 1.238 . S
O53 Co47 2.052 . S
O53 C49 1.241 . S
O54 Co42 2.137 1_545 S
O54 C45 1.247 1_545 S
O55 Co42 2.244 . S
O55 C45 1.272 . S
O55 Co47 2.135 . S
Co56 O57 2.216 . S
Co56 O58 2.091 . S
Co56 O60 2.004 . S
Co56 O66 2.021 . S
Co56 O68 2.137 . S
Co56 O69 2.244 . S
O57 Co56 2.216 . S
O57 C64 1.247 . S
O58 Co56 2.091 . S
O58 C64 1.261 . S
C59 O68 1.247 . S
C59 O69 1.272 . S
O60 Co56 2.004 . S
O60 C65 1.259 . S
Co61 O62 2.061 . S
Co61 O67 2.052 . S
Co61 O69 2.135 . S
O62 Co61 2.061 . S
O62 C65 1.235 . S
C63 O66 1.238 . S
C63 O67 1.241 . S
C64 O57 1.247 . S
C64 O58 1.261 . S
C65 O60 1.259 . S
C65 O62 1.235 . S
O66 Co56 2.021 . S
O66 C63 1.238 . S
O67 Co61 2.052 . S
O67 C63 1.241 . S
O68 Co56 2.137 . S
O68 C59 1.247 . S
O69 Co56 2.244 . S
O69 C59 1.272 . S
O69 Co61 2.135 . S
Co70 O71 2.216 . S
Co70 O72 2.091 . S
Co70 O74 2.004 . S
Co70 O80 2.021 . S
Co70 O82 2.137 . S
Co70 O83 2.244 . S
O71 Co70 2.216 . S
O71 C78 1.247 . S
O72 Co70 2.091 . S
O72 C78 1.261 . S
C73 O82 1.247 . S
C73 O83 1.272 . S
O74 Co70 2.004 . S
O74 C79 1.259 . S
Co75 O76 2.061 . S
Co75 O81 2.052 . S
Co75 O83 2.135 . S
O76 Co75 2.061 . S
O76 C79 1.235 . S
C77 O80 1.238 . S
C77 O81 1.241 . S
C78 O71 1.247 . S
C78 O72 1.261 . S
C79 O74 1.259 . S
C79 O76 1.235 . S
O80 Co70 2.021 . S
O80 C77 1.238 . S
O81 Co75 2.052 . S
O81 C77 1.241 . S
O82 Co70 2.137 . S
O82 C73 1.247 . S
O83 Co70 2.244 . S
O83 C73 1.272 . S
O83 Co75 2.135 . S
Co84 O85 2.216 1_655 S
Co84 O86 2.091 1_655 S
Co84 O88 2.004 . S
Co84 O94 2.021 . S
Co84 O96 2.137 1_655 S
Co84 O97 2.244 . S
O85 Co84 2.216 1_455 S
O85 C92 1.247 . S
O86 Co84 2.091 1_455 S
O86 C92 1.261 . S
C87 O96 1.247 1_655 S
C87 O97 1.272 . S
O88 Co84 2.004 . S
O88 C93 1.259 . S
Co89 O90 2.061 . S
Co89 O95 2.052 . S
Co89 O97 2.135 . S
O90 Co89 2.061 . S
O90 C93 1.235 . S
C91 O94 1.238 . S
C91 O95 1.241 . S
C92 O85 1.247 . S
C92 O86 1.261 . S
C93 O88 1.259 . S
C93 O90 1.235 . S
O94 Co84 2.021 . S
O94 C91 1.238 . S
O95 Co89 2.052 . S
O95 C91 1.241 . S
O96 Co84 2.137 1_455 S
O96 C87 1.247 1_455 S
O97 Co84 2.244 . S
O97 C87 1.272 . S
O97 Co89 2.135 . S
Co98 O99 2.216 1_565 S
Co98 O100 2.091 1_565 S
Co98 O102 2.004 . S
Co98 O108 2.021 . S
Co98 O110 2.137 1_565 S
Co98 O111 2.244 . S
O99 Co98 2.216 1_545 S
O99 C106 1.247 . S
O100 Co98 2.091 1_545 S
O100 C106 1.261 . S
C101 O110 1.247 1_565 S
C101 O111 1.272 . S
O102 Co98 2.004 . S
O102 C107 1.259 . S
Co103 O104 2.061 . S
Co103 O109 2.052 . S
Co103 O111 2.135 . S
O104 Co103 2.061 . S
O104 C107 1.235 . S
C105 O108 1.238 . S
C105 O109 1.241 . S
C106 O99 1.247 . S
C106 O100 1.261 . S
C107 O102 1.259 . S
C107 O104 1.235 . S
O108 Co98 2.021 . S
O108 C105 1.238 . S
O109 Co103 2.052 . S
O109 C105 1.241 . S
O110 Co98 2.137 1_545 S
O110 C101 1.247 1_545 S
O111 Co98 2.244 . S
O111 C101 1.272 . S
O111 Co103 2.135 . S
Co112 O113 2.216 . S
Co112 O114 2.091 . S
Co112 O116 2.004 . S
Co112 O122 2.021 . S
Co112 O124 2.137 . S
Co112 O125 2.244 . S
O113 Co112 2.216 . S
O113 C120 1.247 . S
O114 Co112 2.091 . S
O114 C120 1.261 . S
C115 O124 1.247 . S
C115 O125 1.272 . S
O116 Co112 2.004 . S
O116 C121 1.259 . S
Co117 O118 2.061 . S
Co117 O123 2.052 . S
Co117 O125 2.135 . S
O118 Co117 2.061 . S
O118 C121 1.235 . S
C119 O122 1.238 . S
C119 O123 1.241 . S
C120 O113 1.247 . S
C120 O114 1.261 . S
C121 O116 1.259 . S
C121 O118 1.235 . S
O122 Co112 2.021 . S
O122 C119 1.238 . S
O123 Co117 2.052 . S
O123 C119 1.241 . S
O124 Co112 2.137 . S
O124 C115 1.247 . S
O125 Co112 2.244 . S
O125 C115 1.272 . S
O125 Co117 2.135 . S
Co126 O127 2.216 . S
Co126 O128 2.091 . S
Co126 O130 2.004 . S
Co126 O136 2.021 . S
Co126 O138 2.137 . S
Co126 O139 2.244 . S
O127 Co126 2.216 . S
O127 C134 1.247 . S
O128 Co126 2.091 . S
O128 C134 1.261 . S
C129 O138 1.247 . S
C129 O139 1.272 . S
O130 Co126 2.004 . S
O130 C135 1.259 . S
Co131 O132 2.061 . S
Co131 O137 2.052 . S
Co131 O139 2.135 . S
O132 Co131 2.061 . S
O132 C135 1.235 . S
C133 O136 1.238 . S
C133 O137 1.241 . S
C134 O127 1.247 . S
C134 O128 1.261 . S
C135 O130 1.259 . S
C135 O132 1.235 . S
O136 Co126 2.021 . S
O136 C133 1.238 . S
O137 Co131 2.052 . S
O137 C133 1.241 . S
O138 Co126 2.137 . S
O138 C129 1.247 . S
O139 Co126 2.244 . S
O139 C129 1.272 . S
O139 Co131 2.135 . S
Co140 O141 2.216 1_455 S
Co140 O142 2.091 1_455 S
Co140 O144 2.004 . S
Co140 O150 2.021 . S
Co140 O152 2.137 1_455 S
Co140 O153 2.244 . S
O141 Co140 2.216 1_655 S
O141 C148 1.247 . S
O142 Co140 2.091 1_655 S
O142 C148 1.261 . S
C143 O152 1.247 1_455 S
C143 O153 1.272 . S
O144 Co140 2.004 . S
O144 C149 1.259 . S
Co145 O146 2.061 . S
Co145 O151 2.052 . S
Co145 O153 2.135 . S
O146 Co145 2.061 . S
O146 C149 1.235 . S
C147 O150 1.238 . S
C147 O151 1.241 . S
C148 O141 1.247 . S
C148 O142 1.261 . S
C149 O144 1.259 . S
C149 O146 1.235 . S
O150 Co140 2.021 . S
O150 C147 1.238 . S
O151 Co145 2.052 . S
O151 C147 1.241 . S
O152 Co140 2.137 1_655 S
O152 C143 1.247 1_655 S
O153 Co140 2.244 . S
O153 C143 1.272 . S
O153 Co145 2.135 . S
Co154 O155 2.216 1_545 S
Co154 O156 2.091 1_545 S
Co154 O158 2.004 . S
Co154 O164 2.021 . S
Co154 O166 2.137 1_545 S
Co154 O167 2.244 . S
O155 Co154 2.216 1_565 S
O155 C162 1.247 . S
O156 Co154 2.091 1_565 S
O156 C162 1.261 . S
C157 O166 1.247 1_545 S
C157 O167 1.272 . S
O158 Co154 2.004 . S
O158 C163 1.259 . S
Co159 O160 2.061 . S
Co159 O165 2.052 . S
Co159 O167 2.135 . S
O160 Co159 2.061 . S
O160 C163 1.235 . S
C161 O164 1.238 . S
C161 O165 1.241 . S
C162 O155 1.247 . S
C162 O156 1.261 . S
C163 O158 1.259 . S
C163 O160 1.235 . S
O164 Co154 2.021 . S
O164 C161 1.238 . S
O165 Co159 2.052 . S
O165 C161 1.241 . S
O166 Co154 2.137 1_565 S
O166 C157 1.247 1_565 S
O167 Co154 2.244 . S
O167 C157 1.272 . S
O167 Co159 2.135 . S
Co168 O169 2.216 . S
Co168 O170 2.091 . S
Co168 O172 2.004 . S
Co168 O178 2.021 . S
Co168 O180 2.137 . S
Co168 O181 2.244 . S
O169 Co168 2.216 . S
O169 C176 1.247 . S
O170 Co168 2.091 . S
O170 C176 1.261 . S
C171 O180 1.247 . S
C171 O181 1.272 . S
O172 Co168 2.004 . S
O172 C177 1.259 . S
Co173 O174 2.061 . S
Co173 O179 2.052 . S
Co173 O181 2.135 . S
O174 Co173 2.061 . S
O174 C177 1.235 . S
C175 O178 1.238 . S
C175 O179 1.241 . S
C176 O169 1.247 . S
C176 O170 1.261 . S
C177 O172 1.259 . S
C177 O174 1.235 . S
O178 Co168 2.021 . S
O178 C175 1.238 . S
O179 Co173 2.052 . S
O179 C175 1.241 . S
O180 Co168 2.137 . S
O180 C171 1.247 . S
O181 Co168 2.244 . S
O181 C171 1.272 . S
O181 Co173 2.135 . S
Co182 O183 2.216 . S
Co182 O184 2.091 . S
Co182 O186 2.004 . S
Co182 O192 2.021 . S
Co182 O194 2.137 . S
Co182 O195 2.244 . S
O183 Co182 2.216 . S
O183 C190 1.247 . S
O184 Co182 2.091 . S
O184 C190 1.261 . S
C185 O194 1.247 . S
C185 O195 1.272 . S
O186 Co182 2.004 . S
O186 C191 1.259 . S
Co187 O188 2.061 . S
Co187 O193 2.052 . S
Co187 O195 2.135 . S
O188 Co187 2.061 . S
O188 C191 1.235 . S
C189 O192 1.238 . S
C189 O193 1.241 . S
C190 O183 1.247 . S
C190 O184 1.261 . S
C191 O186 1.259 . S
C191 O188 1.235 . S
O192 Co182 2.021 . S
O192 C189 1.238 . S
O193 Co187 2.052 . S
O193 C189 1.241 . S
O194 Co182 2.137 . S
O194 C185 1.247 . S
O195 Co182 2.244 . S
O195 C185 1.272 . S
O195 Co187 2.135 . S
Co196 O197 2.216 1_455 S
Co196 O198 2.091 1_455 S
Co196 O200 2.004 . S
Co196 O206 2.021 . S
Co196 O208 2.137 1_455 S
Co196 O209 2.244 . S
O197 Co196 2.216 1_655 S
O197 C204 1.247 . S
O198 Co196 2.091 1_655 S
O198 C204 1.261 . S
C199 O208 1.247 1_455 S
C199 O209 1.272 . S
O200 Co196 2.004 . S
O200 C205 1.259 . S
Co201 O202 2.061 . S
Co201 O207 2.052 . S
Co201 O209 2.135 . S
O202 Co201 2.061 . S
O202 C205 1.235 . S
C203 O206 1.238 . S
C203 O207 1.241 . S
C204 O197 1.247 . S
C204 O198 1.261 . S
C205 O200 1.259 . S
C205 O202 1.235 . S
O206 Co196 2.021 . S
O206 C203 1.238 . S
O207 Co201 2.052 . S
O207 C203 1.241 . S
O208 Co196 2.137 1_655 S
O208 C199 1.247 1_655 S
O209 Co196 2.244 . S
O209 C199 1.272 . S
O209 Co201 2.135 . S
Co210 O211 2.216 1_545 S
Co210 O212 2.091 1_545 S
Co210 O214 2.004 . S
Co210 O220 2.021 . S
Co210 O222 2.137 1_545 S
Co210 O223 2.244 . S
O211 Co210 2.216 1_565 S
O211 C218 1.247 . S
O212 Co210 2.091 1_565 S
O212 C218 1.261 . S
C213 O222 1.247 1_545 S
C213 O223 1.272 . S
O214 Co210 2.004 . S
O214 C219 1.259 . S
Co215 O216 2.061 . S
Co215 O221 2.052 . S
Co215 O223 2.135 . S
O216 Co215 2.061 . S
O216 C219 1.235 . S
C217 O220 1.238 . S
C217 O221 1.241 . S
C218 O211 1.247 . S
C218 O212 1.261 . S
C219 O214 1.259 . S
C219 O216 1.235 . S
O220 Co210 2.021 . S
O220 C217 1.238 . S
O221 Co215 2.052 . S
O221 C217 1.241 . S
O222 Co210 2.137 1_565 S
O222 C213 1.247 1_565 S
O223 Co210 2.244 . S
O223 C213 1.272 . S
O223 Co215 2.135 . S
H224 C236 0.930 . S
H225 C238 0.930 . S
H226 C239 0.930 . S
H227 C243 0.959 . S
H228 C243 0.959 . S
H229 C243 0.961 . S
H230 C244 0.960 . S
H231 C244 0.961 . S
H232 C244 0.959 . S
H233 C247 0.929 . S
H234 C248 0.931 . S
H235 C250 0.930 . S
C236 H224 0.930 . S
C236 C237 1.399 . S
C236 C241 1.399 . S
C237 C236 1.399 . S
C237 C238 1.376 . S
C238 H225 0.930 . S
C238 C237 1.376 . S
C238 C239 1.388 . S
C239 H226 0.930 . S
C239 C238 1.388 . S
C239 C240 1.390 . S
C240 C239 1.390 . S
C240 C241 1.394 . S
C240 C246 1.465 . S
C241 C236 1.399 . S
C241 C240 1.394 . S
C241 C242 1.516 . S
C242 C241 1.516 . S
C242 C243 1.502 . S
C242 C244 1.561 . S
C242 C245 1.526 . S
C243 H227 0.959 . S
C243 H228 0.959 . S
C243 H229 0.961 . S
C243 C242 1.502 . S
C244 H230 0.960 . S
C244 H231 0.961 . S
C244 H232 0.959 . S
C244 C242 1.561 . S
C245 C242 1.526 . S
C245 C246 1.396 . S
C245 C250 1.390 . S
C246 C240 1.465 . S
C246 C245 1.396 . S
C246 C247 1.399 . S
C247 H233 0.929 . S
C247 C246 1.399 . S
C247 C248 1.385 . S
C248 H234 0.931 . S
C248 C247 1.385 . S
C248 C249 1.389 . S
C249 C248 1.389 . S
C249 C250 1.387 . S
C250 H235 0.930 . S
C250 C245 1.390 . S
C250 C249 1.387 . S
H251 C263 0.930 . S
H252 C265 0.930 . S
H253 C266 0.930 . S
H254 C270 0.959 . S
H255 C270 0.959 . S
H256 C270 0.961 . S
H257 C271 0.960 . S
H258 C271 0.961 . S
H259 C271 0.959 . S
H260 C274 0.929 . S
H261 C275 0.931 . S
H262 C277 0.930 . S
C263 H251 0.930 . S
C263 C264 1.399 . S
C263 C268 1.399 . S
C264 C263 1.399 . S
C264 C265 1.376 . S
C265 H252 0.930 . S
C265 C264 1.376 . S
C265 C266 1.388 . S
C266 H253 0.930 . S
C266 C265 1.388 . S
C266 C267 1.390 . S
C267 C266 1.390 . S
C267 C268 1.394 . S
C267 C273 1.465 . S
C268 C263 1.399 . S
C268 C267 1.394 . S
C268 C269 1.516 . S
C269 C268 1.516 . S
C269 C270 1.502 . S
C269 C271 1.561 . S
C269 C272 1.526 . S
C270 H254 0.959 . S
C270 H255 0.959 . S
C270 H256 0.961 . S
C270 C269 1.502 . S
C271 H257 0.960 . S
C271 H258 0.961 . S
C271 H259 0.959 . S
C271 C269 1.561 . S
C272 C269 1.526 . S
C272 C273 1.396 . S
C272 C277 1.390 . S
C273 C267 1.465 . S
C273 C272 1.396 . S
C273 C274 1.399 . S
C274 H260 0.929 . S
C274 C273 1.399 . S
C274 C275 1.385 . S
C275 H261 0.931 . S
C275 C274 1.385 . S
C275 C276 1.389 . S
C276 C275 1.389 . S
C276 C277 1.387 . S
C277 H262 0.930 . S
C277 C272 1.390 . S
C277 C276 1.387 . S
H278 C290 0.930 . S
H279 C292 0.930 . S
H280 C293 0.930 . S
H281 C297 0.959 . S
H282 C297 0.959 . S
H283 C297 0.961 . S
H284 C298 0.960 . S
H285 C298 0.961 . S
H286 C298 0.959 . S
H287 C301 0.929 . S
H288 C302 0.931 . S
H289 C304 0.930 . S
C290 H278 0.930 . S
C290 C291 1.399 . S
C290 C295 1.399 . S
C291 C290 1.399 . S
C291 C292 1.376 . S
C292 H279 0.930 . S
C292 C291 1.376 . S
C292 C293 1.388 . S
C293 H280 0.930 . S
C293 C292 1.388 . S
C293 C294 1.390 . S
C294 C293 1.390 . S
C294 C295 1.394 . S
C294 C300 1.465 . S
C295 C290 1.399 . S
C295 C294 1.394 . S
C295 C296 1.516 . S
C296 C295 1.516 . S
C296 C297 1.502 . S
C296 C298 1.561 . S
C296 C299 1.526 . S
C297 H281 0.959 . S
C297 H282 0.959 . S
C297 H283 0.961 . S
C297 C296 1.502 . S
C298 H284 0.960 . S
C298 H285 0.961 . S
C298 H286 0.959 . S
C298 C296 1.561 . S
C299 C296 1.526 . S
C299 C300 1.396 . S
C299 C304 1.390 . S
C300 C294 1.465 . S
C300 C299 1.396 . S
C300 C301 1.399 . S
C301 H287 0.929 . S
C301 C300 1.399 . S
C301 C302 1.385 . S
C302 H288 0.931 . S
C302 C301 1.385 . S
C302 C303 1.389 . S
C303 C302 1.389 . S
C303 C304 1.387 . S
C304 H289 0.930 . S
C304 C299 1.390 . S
C304 C303 1.387 . S
H305 C317 0.930 . S
H306 C319 0.930 . S
H307 C320 0.930 . S
H308 C324 0.959 . S
H309 C324 0.959 . S
H310 C324 0.961 . S
H311 C325 0.960 . S
H312 C325 0.961 . S
H313 C325 0.959 . S
H314 C328 0.929 . S
H315 C329 0.931 . S
H316 C331 0.930 . S
C317 H305 0.930 . S
C317 C318 1.399 . S
C317 C322 1.399 . S
C318 C317 1.399 . S
C318 C319 1.376 . S
C319 H306 0.930 . S
C319 C318 1.376 . S
C319 C320 1.388 . S
C320 H307 0.930 . S
C320 C319 1.388 . S
C320 C321 1.390 . S
C321 C320 1.390 . S
C321 C322 1.394 . S
C321 C327 1.465 . S
C322 C317 1.399 . S
C322 C321 1.394 . S
C322 C323 1.516 . S
C323 C322 1.516 . S
C323 C324 1.502 . S
C323 C325 1.561 . S
C323 C326 1.526 . S
C324 H308 0.959 . S
C324 H309 0.959 . S
C324 H310 0.961 . S
C324 C323 1.502 . S
C325 H311 0.960 . S
C325 H312 0.961 . S
C325 H313 0.959 . S
C325 C323 1.561 . S
C326 C323 1.526 . S
C326 C327 1.396 . S
C326 C331 1.390 . S
C327 C321 1.465 . S
C327 C326 1.396 . S
C327 C328 1.399 . S
C328 H314 0.929 . S
C328 C327 1.399 . S
C328 C329 1.385 . S
C329 H315 0.931 . S
C329 C328 1.385 . S
C329 C330 1.389 . S
C330 C329 1.389 . S
C330 C331 1.387 . S
C331 H316 0.930 . S
C331 C326 1.390 . S
C331 C330 1.387 . S
H332 C344 0.930 . S
H333 C346 0.930 . S
H334 C347 0.930 . S
H335 C351 0.959 . S
H336 C351 0.959 . S
H337 C351 0.961 . S
H338 C352 0.960 . S
H339 C352 0.961 . S
H340 C352 0.959 . S
H341 C355 0.929 . S
H342 C356 0.931 . S
H343 C358 0.930 . S
C344 H332 0.930 . S
C344 C345 1.399 . S
C344 C349 1.399 . S
C345 C344 1.399 . S
C345 C346 1.376 . S
C346 H333 0.930 . S
C346 C345 1.376 . S
C346 C347 1.388 . S
C347 H334 0.930 . S
C347 C346 1.388 . S
C347 C348 1.390 . S
C348 C347 1.390 . S
C348 C349 1.394 . S
C348 C354 1.465 . S
C349 C344 1.399 . S
C349 C348 1.394 . S
C349 C350 1.516 . S
C350 C349 1.516 . S
C350 C351 1.502 . S
C350 C352 1.561 . S
C350 C353 1.526 . S
C351 H335 0.959 . S
C351 H336 0.959 . S
C351 H337 0.961 . S
C351 C350 1.502 . S
C352 H338 0.960 . S
C352 H339 0.961 . S
C352 H340 0.959 . S
C352 C350 1.561 . S
C353 C350 1.526 . S
C353 C354 1.396 . S
C353 C358 1.390 . S
C354 C348 1.465 . S
C354 C353 1.396 . S
C354 C355 1.399 . S
C355 H341 0.929 . S
C355 C354 1.399 . S
C355 C356 1.385 . S
C356 H342 0.931 . S
C356 C355 1.385 . S
C356 C357 1.389 . S
C357 C356 1.389 . S
C357 C358 1.387 . S
C358 H343 0.930 . S
C358 C353 1.390 . S
C358 C357 1.387 . S
H359 C371 0.930 . S
H360 C373 0.930 . S
H361 C374 0.930 . S
H362 C378 0.959 . S
H363 C378 0.959 . S
H364 C378 0.961 . S
H365 C379 0.960 . S
H366 C379 0.961 . S
H367 C379 0.959 . S
H368 C382 0.929 . S
H369 C383 0.931 . S
H370 C385 0.930 . S
C371 H359 0.930 . S
C371 C372 1.399 . S
C371 C376 1.399 . S
C372 C371 1.399 . S
C372 C373 1.376 . S
C373 H360 0.930 . S
C373 C372 1.376 . S
C373 C374 1.388 . S
C374 H361 0.930 . S
C374 C373 1.388 . S
C374 C375 1.390 . S
C375 C374 1.390 . S
C375 C376 1.394 . S
C375 C381 1.465 . S
C376 C371 1.399 . S
C376 C375 1.394 . S
C376 C377 1.516 . S
C377 C376 1.516 . S
C377 C378 1.502 . S
C377 C379 1.561 . S
C377 C380 1.526 . S
C378 H362 0.959 . S
C378 H363 0.959 . S
C378 H364 0.961 . S
C378 C377 1.502 . S
C379 H365 0.960 . S
C379 H366 0.961 . S
C379 H367 0.959 . S
C379 C377 1.561 . S
C380 C377 1.526 . S
C380 C381 1.396 . S
C380 C385 1.390 . S
C381 C375 1.465 . S
C381 C380 1.396 . S
C381 C382 1.399 . S
C382 H368 0.929 . S
C382 C381 1.399 . S
C382 C383 1.385 . S
C383 H369 0.931 . S
C383 C382 1.385 . S
C383 C384 1.389 . S
C384 C383 1.389 . S
C384 C385 1.387 . S
C385 H370 0.930 . S
C385 C380 1.390 . S
C385 C384 1.387 . S
H386 C398 0.930 . S
H387 C400 0.930 . S
H388 C401 0.930 . S
H389 C405 0.959 . S
H390 C405 0.959 . S
H391 C405 0.961 . S
H392 C406 0.960 . S
H393 C406 0.961 . S
H394 C406 0.959 . S
H395 C409 0.929 . S
H396 C410 0.931 . S
H397 C412 0.930 . S
C398 H386 0.930 . S
C398 C399 1.399 . S
C398 C403 1.399 . S
C399 C398 1.399 . S
C399 C400 1.376 . S
C400 H387 0.930 . S
C400 C399 1.376 . S
C400 C401 1.388 . S
C401 H388 0.930 . S
C401 C400 1.388 . S
C401 C402 1.390 . S
C402 C401 1.390 . S
C402 C403 1.394 . S
C402 C408 1.465 . S
C403 C398 1.399 . S
C403 C402 1.394 . S
C403 C404 1.516 . S
C404 C403 1.516 . S
C404 C405 1.502 . S
C404 C406 1.561 . S
C404 C407 1.526 . S
C405 H389 0.959 . S
C405 H390 0.959 . S
C405 H391 0.961 . S
C405 C404 1.502 . S
C406 H392 0.960 . S
C406 H393 0.961 . S
C406 H394 0.959 . S
C406 C404 1.561 . S
C407 C404 1.526 . S
C407 C408 1.396 . S
C407 C412 1.390 . S
C408 C402 1.465 . S
C408 C407 1.396 . S
C408 C409 1.399 . S
C409 H395 0.929 . S
C409 C408 1.399 . S
C409 C410 1.385 . S
C410 H396 0.931 . S
C410 C409 1.385 . S
C410 C411 1.389 . S
C411 C410 1.389 . S
C411 C412 1.387 . S
C412 H397 0.930 . S
C412 C407 1.390 . S
C412 C411 1.387 . S
H413 C425 0.930 . S
H414 C427 0.930 . S
H415 C428 0.930 . S
H416 C432 0.959 . S
H417 C432 0.959 . S
H418 C432 0.961 . S
H419 C433 0.960 . S
H420 C433 0.961 . S
H421 C433 0.959 . S
H422 C436 0.929 . S
H423 C437 0.931 . S
H424 C439 0.930 . S
C425 H413 0.930 . S
C425 C426 1.399 . S
C425 C430 1.399 . S
C426 C425 1.399 . S
C426 C427 1.376 . S
C427 H414 0.930 . S
C427 C426 1.376 . S
C427 C428 1.388 . S
C428 H415 0.930 . S
C428 C427 1.388 . S
C428 C429 1.390 . S
C429 C428 1.390 . S
C429 C430 1.394 . S
C429 C435 1.465 . S
C430 C425 1.399 . S
C430 C429 1.394 . S
C430 C431 1.516 . S
C431 C430 1.516 . S
C431 C432 1.502 . S
C431 C433 1.561 . S
C431 C434 1.526 . S
C432 H416 0.959 . S
C432 H417 0.959 . S
C432 H418 0.961 . S
C432 C431 1.502 . S
C433 H419 0.960 . S
C433 H420 0.961 . S
C433 H421 0.959 . S
C433 C431 1.561 . S
C434 C431 1.526 . S
C434 C435 1.396 . S
C434 C439 1.390 . S
C435 C429 1.465 . S
C435 C434 1.396 . S
C435 C436 1.399 . S
C436 H422 0.929 . S
C436 C435 1.399 . S
C436 C437 1.385 . S
C437 H423 0.931 . S
C437 C436 1.385 . S
C437 C438 1.389 . S
C438 C437 1.389 . S
C438 C439 1.387 . S
C439 H424 0.930 . S
C439 C434 1.390 . S
C439 C438 1.387 . S
H440 C452 0.930 . S
H441 C454 0.930 . S
H442 C455 0.930 . S
H443 C459 0.959 . S
H444 C459 0.959 . S
H445 C459 0.961 . S
H446 C460 0.960 . S
H447 C460 0.961 . S
H448 C460 0.959 . S
H449 C463 0.929 . S
H450 C464 0.931 . S
H451 C466 0.930 . S
C452 H440 0.930 . S
C452 C453 1.399 . S
C452 C457 1.399 . S
C453 C452 1.399 . S
C453 C454 1.376 . S
C454 H441 0.930 . S
C454 C453 1.376 . S
C454 C455 1.388 . S
C455 H442 0.930 . S
C455 C454 1.388 . S
C455 C456 1.390 . S
C456 C455 1.390 . S
C456 C457 1.394 . S
C456 C462 1.465 . S
C457 C452 1.399 . S
C457 C456 1.394 . S
C457 C458 1.516 . S
C458 C457 1.516 . S
C458 C459 1.502 . S
C458 C460 1.561 . S
C458 C461 1.526 . S
C459 H443 0.959 . S
C459 H444 0.959 . S
C459 H445 0.961 . S
C459 C458 1.502 . S
C460 H446 0.960 . S
C460 H447 0.961 . S
C460 H448 0.959 . S
C460 C458 1.561 . S
C461 C458 1.526 . S
C461 C462 1.396 . S
C461 C466 1.390 . S
C462 C456 1.465 . S
C462 C461 1.396 . S
C462 C463 1.399 . S
C463 H449 0.929 . S
C463 C462 1.399 . S
C463 C464 1.385 . S
C464 H450 0.931 . S
C464 C463 1.385 . S
C464 C465 1.389 . S
C465 C464 1.389 . S
C465 C466 1.387 . S
C466 H451 0.930 . S
C466 C461 1.390 . S
C466 C465 1.387 . S
H467 C479 0.930 . S
H468 C481 0.930 . S
H469 C482 0.930 . S
H470 C486 0.959 . S
H471 C486 0.959 . S
H472 C486 0.961 . S
H473 C487 0.960 . S
H474 C487 0.961 . S
H475 C487 0.959 . S
H476 C490 0.929 . S
H477 C491 0.931 . S
H478 C493 0.930 . S
C479 H467 0.930 . S
C479 C480 1.399 . S
C479 C484 1.399 . S
C480 C479 1.399 . S
C480 C481 1.376 . S
C481 H468 0.930 . S
C481 C480 1.376 . S
C481 C482 1.388 . S
C482 H469 0.930 . S
C482 C481 1.388 . S
C482 C483 1.390 . S
C483 C482 1.390 . S
C483 C484 1.394 . S
C483 C489 1.465 . S
C484 C479 1.399 . S
C484 C483 1.394 . S
C484 C485 1.516 . S
C485 C484 1.516 . S
C485 C486 1.502 . S
C485 C487 1.561 . S
C485 C488 1.526 . S
C486 H470 0.959 . S
C486 H471 0.959 . S
C486 H472 0.961 . S
C486 C485 1.502 . S
C487 H473 0.960 . S
C487 H474 0.961 . S
C487 H475 0.959 . S
C487 C485 1.561 . S
C488 C485 1.526 . S
C488 C489 1.396 . S
C488 C493 1.390 . S
C489 C483 1.465 . S
C489 C488 1.396 . S
C489 C490 1.399 . S
C490 H476 0.929 . S
C490 C489 1.399 . S
C490 C491 1.385 . S
C491 H477 0.931 . S
C491 C490 1.385 . S
C491 C492 1.389 . S
C492 C491 1.389 . S
C492 C493 1.387 . S
C493 H478 0.930 . S
C493 C488 1.390 . S
C493 C492 1.387 . S
H494 C506 0.930 . S
H495 C508 0.930 . S
H496 C509 0.930 . S
H497 C513 0.959 . S
H498 C513 0.959 . S
H499 C513 0.961 . S
H500 C514 0.960 . S
H501 C514 0.961 . S
H502 C514 0.959 . S
H503 C517 0.929 . S
H504 C518 0.931 . S
H505 C520 0.930 . S
C506 H494 0.930 . S
C506 C507 1.399 . S
C506 C511 1.399 . S
C507 C506 1.399 . S
C507 C508 1.376 . S
C508 H495 0.930 . S
C508 C507 1.376 . S
C508 C509 1.388 . S
C509 H496 0.930 . S
C509 C508 1.388 . S
C509 C510 1.390 . S
C510 C509 1.390 . S
C510 C511 1.394 . S
C510 C516 1.465 . S
C511 C506 1.399 . S
C511 C510 1.394 . S
C511 C512 1.516 . S
C512 C511 1.516 . S
C512 C513 1.502 . S
C512 C514 1.561 . S
C512 C515 1.526 . S
C513 H497 0.959 . S
C513 H498 0.959 . S
C513 H499 0.961 . S
C513 C512 1.502 . S
C514 H500 0.960 . S
C514 H501 0.961 . S
C514 H502 0.959 . S
C514 C512 1.561 . S
C515 C512 1.526 . S
C515 C516 1.396 . S
C515 C520 1.390 . S
C516 C510 1.465 . S
C516 C515 1.396 . S
C516 C517 1.399 . S
C517 H503 0.929 . S
C517 C516 1.399 . S
C517 C518 1.385 . S
C518 H504 0.931 . S
C518 C517 1.385 . S
C518 C519 1.389 . S
C519 C518 1.389 . S
C519 C520 1.387 . S
C520 H505 0.930 . S
C520 C515 1.390 . S
C520 C519 1.387 . S
H521 C533 0.930 . S
H522 C535 0.930 . S
H523 C536 0.930 . S
H524 C540 0.959 . S
H525 C540 0.959 . S
H526 C540 0.961 . S
H527 C541 0.960 . S
H528 C541 0.961 . S
H529 C541 0.959 . S
H530 C544 0.929 . S
H531 C545 0.931 . S
H532 C547 0.930 . S
C533 H521 0.930 . S
C533 C534 1.399 . S
C533 C538 1.399 . S
C534 C533 1.399 . S
C534 C535 1.376 . S
C535 H522 0.930 . S
C535 C534 1.376 . S
C535 C536 1.388 . S
C536 H523 0.930 . S
C536 C535 1.388 . S
C536 C537 1.390 . S
C537 C536 1.390 . S
C537 C538 1.394 . S
C537 C543 1.465 . S
C538 C533 1.399 . S
C538 C537 1.394 . S
C538 C539 1.516 . S
C539 C538 1.516 . S
C539 C540 1.502 . S
C539 C541 1.561 . S
C539 C542 1.526 . S
C540 H524 0.959 . S
C540 H525 0.959 . S
C540 H526 0.961 . S
C540 C539 1.502 . S
C541 H527 0.960 . S
C541 H528 0.961 . S
C541 H529 0.959 . S
C541 C539 1.561 . S
C542 C539 1.526 . S
C542 C543 1.396 . S
C542 C547 1.390 . S
C543 C537 1.465 . S
C543 C542 1.396 . S
C543 C544 1.399 . S
C544 H530 0.929 . S
C544 C543 1.399 . S
C544 C545 1.385 . S
C545 H531 0.931 . S
C545 C544 1.385 . S
C545 C546 1.389 . S
C546 C545 1.389 . S
C546 C547 1.387 . S
C547 H532 0.930 . S
C547 C542 1.390 . S
C547 C546 1.387 . S
H548 C560 0.930 . S
H549 C562 0.930 . S
H550 C563 0.930 . S
H551 C567 0.959 . S
H552 C567 0.959 . S
H553 C567 0.961 . S
H554 C568 0.960 . S
H555 C568 0.961 . S
H556 C568 0.959 . S
H557 C571 0.929 . S
H558 C572 0.931 . S
H559 C574 0.930 . S
C560 H548 0.930 . S
C560 C561 1.399 . S
C560 C565 1.399 . S
C561 C560 1.399 . S
C561 C562 1.376 . S
C562 H549 0.930 . S
C562 C561 1.376 . S
C562 C563 1.388 . S
C563 H550 0.930 . S
C563 C562 1.388 . S
C563 C564 1.390 . S
C564 C563 1.390 . S
C564 C565 1.394 . S
C564 C570 1.465 . S
C565 C560 1.399 . S
C565 C564 1.394 . S
C565 C566 1.516 . S
C566 C565 1.516 . S
C566 C567 1.502 . S
C566 C568 1.561 . S
C566 C569 1.526 . S
C567 H551 0.959 . S
C567 H552 0.959 . S
C567 H553 0.961 . S
C567 C566 1.502 . S
C568 H554 0.960 . S
C568 H555 0.961 . S
C568 H556 0.959 . S
C568 C566 1.561 . S
C569 C566 1.526 . S
C569 C570 1.396 . S
C569 C574 1.390 . S
C570 C564 1.465 . S
C570 C569 1.396 . S
C570 C571 1.399 . S
C571 H557 0.929 . S
C571 C570 1.399 . S
C571 C572 1.385 . S
C572 H558 0.931 . S
C572 C571 1.385 . S
C572 C573 1.389 . S
C573 C572 1.389 . S
C573 C574 1.387 . S
C574 H559 0.930 . S
C574 C569 1.390 . S
C574 C573 1.387 . S
H575 C587 0.930 . S
H576 C589 0.930 . S
H577 C590 0.930 . S
H578 C594 0.959 . S
H579 C594 0.959 . S
H580 C594 0.961 . S
H581 C595 0.960 . S
H582 C595 0.961 . S
H583 C595 0.959 . S
H584 C598 0.929 . S
H585 C599 0.931 . S
H586 C601 0.930 . S
C587 H575 0.930 . S
C587 C588 1.399 . S
C587 C592 1.399 . S
C588 C587 1.399 . S
C588 C589 1.376 . S
C589 H576 0.930 . S
C589 C588 1.376 . S
C589 C590 1.388 . S
C590 H577 0.930 . S
C590 C589 1.388 . S
C590 C591 1.390 . S
C591 C590 1.390 . S
C591 C592 1.394 . S
C591 C597 1.465 . S
C592 C587 1.399 . S
C592 C591 1.394 . S
C592 C593 1.516 . S
C593 C592 1.516 . S
C593 C594 1.502 . S
C593 C595 1.561 . S
C593 C596 1.526 . S
C594 H578 0.959 . S
C594 H579 0.959 . S
C594 H580 0.961 . S
C594 C593 1.502 . S
C595 H581 0.960 . S
C595 H582 0.961 . S
C595 H583 0.959 . S
C595 C593 1.561 . S
C596 C593 1.526 . S
C596 C597 1.396 . S
C596 C601 1.390 . S
C597 C591 1.465 . S
C597 C596 1.396 . S
C597 C598 1.399 . S
C598 H584 0.929 . S
C598 C597 1.399 . S
C598 C599 1.385 . S
C599 H585 0.931 . S
C599 C598 1.385 . S
C599 C600 1.389 . S
C600 C599 1.389 . S
C600 C601 1.387 . S
C601 H586 0.930 . S
C601 C596 1.390 . S
C601 C600 1.387 . S
H602 C614 0.930 . S
H603 C616 0.930 . S
H604 C617 0.930 . S
H605 C621 0.959 . S
H606 C621 0.959 . S
H607 C621 0.961 . S
H608 C622 0.960 . S
H609 C622 0.961 . S
H610 C622 0.959 . S
H611 C625 0.929 . S
H612 C626 0.931 . S
H613 C628 0.930 . S
C614 H602 0.930 . S
C614 C615 1.399 . S
C614 C619 1.399 . S
C615 C614 1.399 . S
C615 C616 1.376 . S
C616 H603 0.930 . S
C616 C615 1.376 . S
C616 C617 1.388 . S
C617 H604 0.930 . S
C617 C616 1.388 . S
C617 C618 1.390 . S
C618 C617 1.390 . S
C618 C619 1.394 . S
C618 C624 1.465 . S
C619 C614 1.399 . S
C619 C618 1.394 . S
C619 C620 1.516 . S
C620 C619 1.516 . S
C620 C621 1.502 . S
C620 C622 1.561 . S
C620 C623 1.526 . S
C621 H605 0.959 . S
C621 H606 0.959 . S
C621 H607 0.961 . S
C621 C620 1.502 . S
C622 H608 0.960 . S
C622 H609 0.961 . S
C622 H610 0.959 . S
C622 C620 1.561 . S
C623 C620 1.526 . S
C623 C624 1.396 . S
C623 C628 1.390 . S
C624 C618 1.465 . S
C624 C623 1.396 . S
C624 C625 1.399 . S
C625 H611 0.929 . S
C625 C624 1.399 . S
C625 C626 1.385 . S
C626 H612 0.931 . S
C626 C625 1.385 . S
C626 C627 1.389 . S
C627 C626 1.389 . S
C627 C628 1.387 . S
C628 H613 0.930 . S
C628 C623 1.390 . S
C628 C627 1.387 . S
H629 C641 0.930 . S
H630 C643 0.930 . S
H631 C644 0.930 . S
H632 C648 0.959 . S
H633 C648 0.959 . S
H634 C648 0.961 . S
H635 C649 0.960 . S
H636 C649 0.961 . S
H637 C649 0.959 . S
H638 C652 0.929 . S
H639 C653 0.931 . S
H640 C655 0.930 . S
C641 H629 0.930 . S
C641 C642 1.399 . S
C641 C646 1.399 . S
C642 C641 1.399 . S
C642 C643 1.376 . S
C643 H630 0.930 . S
C643 C642 1.376 . S
C643 C644 1.388 . S
C644 H631 0.930 . S
C644 C643 1.388 . S
C644 C645 1.390 . S
C645 C644 1.390 . S
C645 C646 1.394 . S
C645 C651 1.465 . S
C646 C641 1.399 . S
C646 C645 1.394 . S
C646 C647 1.516 . S
C647 C646 1.516 . S
C647 C648 1.502 . S
C647 C649 1.561 . S
C647 C650 1.526 . S
C648 H632 0.959 . S
C648 H633 0.959 . S
C648 H634 0.961 . S
C648 C647 1.502 . S
C649 H635 0.960 . S
C649 H636 0.961 . S
C649 H637 0.959 . S
C649 C647 1.561 . S
C650 C647 1.526 . S
C650 C651 1.396 . S
C650 C655 1.390 . S
C651 C645 1.465 . S
C651 C650 1.396 . S
C651 C652 1.399 . S
C652 H638 0.929 . S
C652 C651 1.399 . S
C652 C653 1.385 . S
C653 H639 0.931 . S
C653 C652 1.385 . S
C653 C654 1.389 . S
C654 C653 1.389 . S
C654 C655 1.387 . S
C655 H640 0.930 . S
C655 C650 1.390 . S
C655 C654 1.387 . S
H656 C668 0.930 . S
H657 C670 0.930 . S
H658 C671 0.930 . S
H659 C675 0.959 . S
H660 C675 0.959 . S
H661 C675 0.961 . S
H662 C676 0.960 . S
H663 C676 0.961 . S
H664 C676 0.959 . S
H665 C679 0.929 . S
H666 C680 0.931 . S
H667 C682 0.930 . S
C668 H656 0.930 . S
C668 C669 1.399 . S
C668 C673 1.399 . S
C669 C668 1.399 . S
C669 C670 1.376 . S
C670 H657 0.930 . S
C670 C669 1.376 . S
C670 C671 1.388 . S
C671 H658 0.930 . S
C671 C670 1.388 . S
C671 C672 1.390 . S
C672 C671 1.390 . S
C672 C673 1.394 . S
C672 C678 1.465 . S
C673 C668 1.399 . S
C673 C672 1.394 . S
C673 C674 1.516 . S
C674 C673 1.516 . S
C674 C675 1.502 . S
C674 C676 1.561 . S
C674 C677 1.526 . S
C675 H659 0.959 . S
C675 H660 0.959 . S
C675 H661 0.961 . S
C675 C674 1.502 . S
C676 H662 0.960 . S
C676 H663 0.961 . S
C676 H664 0.959 . S
C676 C674 1.561 . S
C677 C674 1.526 . S
C677 C678 1.396 . S
C677 C682 1.390 . S
C678 C672 1.465 . S
C678 C677 1.396 . S
C678 C679 1.399 . S
C679 H665 0.929 . S
C679 C678 1.399 . S
C679 C680 1.385 . S
C680 H666 0.931 . S
C680 C679 1.385 . S
C680 C681 1.389 . S
C681 C680 1.389 . S
C681 C682 1.387 . S
C682 H667 0.930 . S
C682 C677 1.390 . S
C682 C681 1.387 . S
H683 C695 0.930 . S
H684 C697 0.930 . S
H685 C698 0.930 . S
H686 C702 0.959 . S
H687 C702 0.959 . S
H688 C702 0.961 . S
H689 C703 0.960 . S
H690 C703 0.961 . S
H691 C703 0.959 . S
H692 C706 0.929 . S
H693 C707 0.931 . S
H694 C709 0.930 . S
C695 H683 0.930 . S
C695 C696 1.399 . S
C695 C700 1.399 . S
C696 C695 1.399 . S
C696 C697 1.376 . S
C697 H684 0.930 . S
C697 C696 1.376 . S
C697 C698 1.388 . S
C698 H685 0.930 . S
C698 C697 1.388 . S
C698 C699 1.390 . S
C699 C698 1.390 . S
C699 C700 1.394 . S
C699 C705 1.465 . S
C700 C695 1.399 . S
C700 C699 1.394 . S
C700 C701 1.516 . S
C701 C700 1.516 . S
C701 C702 1.502 . S
C701 C703 1.561 . S
C701 C704 1.526 . S
C702 H686 0.959 . S
C702 H687 0.959 . S
C702 H688 0.961 . S
C702 C701 1.502 . S
C703 H689 0.960 . S
C703 H690 0.961 . S
C703 H691 0.959 . S
C703 C701 1.561 . S
C704 C701 1.526 . S
C704 C705 1.396 . S
C704 C709 1.390 . S
C705 C699 1.465 . S
C705 C704 1.396 . S
C705 C706 1.399 . S
C706 H692 0.929 . S
C706 C705 1.399 . S
C706 C707 1.385 . S
C707 H693 0.931 . S
C707 C706 1.385 . S
C707 C708 1.389 . S
C708 C707 1.389 . S
C708 C709 1.387 . S
C709 H694 0.930 . S
C709 C704 1.390 . S
C709 C708 1.387 . S
H710 C722 0.930 . S
H711 C724 0.930 . S
H712 C725 0.930 . S
H713 C729 0.959 . S
H714 C729 0.959 . S
H715 C729 0.961 . S
H716 C730 0.960 . S
H717 C730 0.961 . S
H718 C730 0.959 . S
H719 C733 0.929 . S
H720 C734 0.931 . S
H721 C736 0.930 . S
C722 H710 0.930 . S
C722 C723 1.399 . S
C722 C727 1.399 . S
C723 C722 1.399 . S
C723 C724 1.376 . S
C724 H711 0.930 . S
C724 C723 1.376 . S
C724 C725 1.388 . S
C725 H712 0.930 . S
C725 C724 1.388 . S
C725 C726 1.390 . S
C726 C725 1.390 . S
C726 C727 1.394 . S
C726 C732 1.465 . S
C727 C722 1.399 . S
C727 C726 1.394 . S
C727 C728 1.516 . S
C728 C727 1.516 . S
C728 C729 1.502 . S
C728 C730 1.561 . S
C728 C731 1.526 . S
C729 H713 0.959 . S
C729 H714 0.959 . S
C729 H715 0.961 . S
C729 C728 1.502 . S
C730 H716 0.960 . S
C730 H717 0.961 . S
C730 H718 0.959 . S
C730 C728 1.561 . S
C731 C728 1.526 . S
C731 C732 1.396 . S
C731 C736 1.390 . S
C732 C726 1.465 . S
C732 C731 1.396 . S
C732 C733 1.399 . S
C733 H719 0.929 . S
C733 C732 1.399 . S
C733 C734 1.385 . S
C734 H720 0.931 . S
C734 C733 1.385 . S
C734 C735 1.389 . S
C735 C734 1.389 . S
C735 C736 1.387 . S
C736 H721 0.930 . S
C736 C731 1.390 . S
C736 C735 1.387 . S
H737 C749 0.930 . S
H738 C751 0.930 . S
H739 C752 0.930 . S
H740 C756 0.959 . S
H741 C756 0.959 . S
H742 C756 0.961 . S
H743 C757 0.960 . S
H744 C757 0.961 . S
H745 C757 0.959 . S
H746 C760 0.929 . S
H747 C761 0.931 . S
H748 C763 0.930 . S
C749 H737 0.930 . S
C749 C750 1.399 . S
C749 C754 1.399 . S
C750 C749 1.399 . S
C750 C751 1.376 . S
C751 H738 0.930 . S
C751 C750 1.376 . S
C751 C752 1.388 . S
C752 H739 0.930 . S
C752 C751 1.388 . S
C752 C753 1.390 . S
C753 C752 1.390 . S
C753 C754 1.394 . S
C753 C759 1.465 . S
C754 C749 1.399 . S
C754 C753 1.394 . S
C754 C755 1.516 . S
C755 C754 1.516 . S
C755 C756 1.502 . S
C755 C757 1.561 . S
C755 C758 1.526 . S
C756 H740 0.959 . S
C756 H741 0.959 . S
C756 H742 0.961 . S
C756 C755 1.502 . S
C757 H743 0.960 . S
C757 H744 0.961 . S
C757 H745 0.959 . S
C757 C755 1.561 . S
C758 C755 1.526 . S
C758 C759 1.396 . S
C758 C763 1.390 . S
C759 C753 1.465 . S
C759 C758 1.396 . S
C759 C760 1.399 . S
C760 H746 0.929 . S
C760 C759 1.399 . S
C760 C761 1.385 . S
C761 H747 0.931 . S
C761 C760 1.385 . S
C761 C762 1.389 . S
C762 C761 1.389 . S
C762 C763 1.387 . S
C763 H748 0.930 . S
C763 C758 1.390 . S
C763 C762 1.387 . S
H764 C776 0.930 . S
H765 C778 0.930 . S
H766 C779 0.930 . S
H767 C783 0.959 . S
H768 C783 0.959 . S
H769 C783 0.961 . S
H770 C784 0.960 . S
H771 C784 0.961 . S
H772 C784 0.959 . S
H773 C787 0.929 . S
H774 C788 0.931 . S
H775 C790 0.930 . S
C776 H764 0.930 . S
C776 C777 1.399 . S
C776 C781 1.399 . S
C777 C776 1.399 . S
C777 C778 1.376 . S
C778 H765 0.930 . S
C778 C777 1.376 . S
C778 C779 1.388 . S
C779 H766 0.930 . S
C779 C778 1.388 . S
C779 C780 1.390 . S
C780 C779 1.390 . S
C780 C781 1.394 . S
C780 C786 1.465 . S
C781 C776 1.399 . S
C781 C780 1.394 . S
C781 C782 1.516 . S
C782 C781 1.516 . S
C782 C783 1.502 . S
C782 C784 1.561 . S
C782 C785 1.526 . S
C783 H767 0.959 . S
C783 H768 0.959 . S
C783 H769 0.961 . S
C783 C782 1.502 . S
C784 H770 0.960 . S
C784 H771 0.961 . S
C784 H772 0.959 . S
C784 C782 1.561 . S
C785 C782 1.526 . S
C785 C786 1.396 . S
C785 C790 1.390 . S
C786 C780 1.465 . S
C786 C785 1.396 . S
C786 C787 1.399 . S
C787 H773 0.929 . S
C787 C786 1.399 . S
C787 C788 1.385 . S
C788 H774 0.931 . S
C788 C787 1.385 . S
C788 C789 1.389 . S
C789 C788 1.389 . S
C789 C790 1.387 . S
C790 H775 0.930 . S
C790 C785 1.390 . S
C790 C789 1.387 . S
H791 C803 0.930 . S
H792 C805 0.930 . S
H793 C806 0.930 . S
H794 C810 0.959 . S
H795 C810 0.959 . S
H796 C810 0.961 . S
H797 C811 0.960 . S
H798 C811 0.961 . S
H799 C811 0.959 . S
H800 C814 0.929 . S
H801 C815 0.931 . S
H802 C817 0.930 . S
C803 H791 0.930 . S
C803 C804 1.399 . S
C803 C808 1.399 . S
C804 C803 1.399 . S
C804 C805 1.376 . S
C805 H792 0.930 . S
C805 C804 1.376 . S
C805 C806 1.388 . S
C806 H793 0.930 . S
C806 C805 1.388 . S
C806 C807 1.390 . S
C807 C806 1.390 . S
C807 C808 1.394 . S
C807 C813 1.465 . S
C808 C803 1.399 . S
C808 C807 1.394 . S
C808 C809 1.516 . S
C809 C808 1.516 . S
C809 C810 1.502 . S
C809 C811 1.561 . S
C809 C812 1.526 . S
C810 H794 0.959 . S
C810 H795 0.959 . S
C810 H796 0.961 . S
C810 C809 1.502 . S
C811 H797 0.960 . S
C811 H798 0.961 . S
C811 H799 0.959 . S
C811 C809 1.561 . S
C812 C809 1.526 . S
C812 C813 1.396 . S
C812 C817 1.390 . S
C813 C807 1.465 . S
C813 C812 1.396 . S
C813 C814 1.399 . S
C814 H800 0.929 . S
C814 C813 1.399 . S
C814 C815 1.385 . S
C815 H801 0.931 . S
C815 C814 1.385 . S
C815 C816 1.389 . S
C816 C815 1.389 . S
C816 C817 1.387 . S
C817 H802 0.930 . S
C817 C812 1.390 . S
C817 C816 1.387 . S
H818 C830 0.930 . S
H819 C832 0.930 . S
H820 C833 0.930 . S
H821 C837 0.959 . S
H822 C837 0.959 . S
H823 C837 0.961 . S
H824 C838 0.960 . S
H825 C838 0.961 . S
H826 C838 0.959 . S
H827 C841 0.929 . S
H828 C842 0.931 . S
H829 C844 0.930 . S
C830 H818 0.930 . S
C830 C831 1.399 . S
C830 C835 1.399 . S
C831 C830 1.399 . S
C831 C832 1.376 . S
C832 H819 0.930 . S
C832 C831 1.376 . S
C832 C833 1.388 . S
C833 H820 0.930 . S
C833 C832 1.388 . S
C833 C834 1.390 . S
C834 C833 1.390 . S
C834 C835 1.394 . S
C834 C840 1.465 . S
C835 C830 1.399 . S
C835 C834 1.394 . S
C835 C836 1.516 . S
C836 C835 1.516 . S
C836 C837 1.502 . S
C836 C838 1.561 . S
C836 C839 1.526 . S
C837 H821 0.959 . S
C837 H822 0.959 . S
C837 H823 0.961 . S
C837 C836 1.502 . S
C838 H824 0.960 . S
C838 H825 0.961 . S
C838 H826 0.959 . S
C838 C836 1.561 . S
C839 C836 1.526 . S
C839 C840 1.396 . S
C839 C844 1.390 . S
C840 C834 1.465 . S
C840 C839 1.396 . S
C840 C841 1.399 . S
C841 H827 0.929 . S
C841 C840 1.399 . S
C841 C842 1.385 . S
C842 H828 0.931 . S
C842 C841 1.385 . S
C842 C843 1.389 . S
C843 C842 1.389 . S
C843 C844 1.387 . S
C844 H829 0.930 . S
C844 C839 1.390 . S
C844 C843 1.387 . S
H845 C857 0.930 . S
H846 C859 0.930 . S
H847 C860 0.930 . S
H848 C864 0.959 . S
H849 C864 0.959 . S
H850 C864 0.961 . S
H851 C865 0.960 . S
H852 C865 0.961 . S
H853 C865 0.959 . S
H854 C868 0.929 . S
H855 C869 0.931 . S
H856 C871 0.930 . S
C857 H845 0.930 . S
C857 C858 1.399 . S
C857 C862 1.399 . S
C858 C857 1.399 . S
C858 C859 1.376 . S
C859 H846 0.930 . S
C859 C858 1.376 . S
C859 C860 1.388 . S
C860 H847 0.930 . S
C860 C859 1.388 . S
C860 C861 1.390 . S
C861 C860 1.390 . S
C861 C862 1.394 . S
C861 C867 1.465 . S
C862 C857 1.399 . S
C862 C861 1.394 . S
C862 C863 1.516 . S
C863 C862 1.516 . S
C863 C864 1.502 . S
C863 C865 1.561 . S
C863 C866 1.526 . S
C864 H848 0.959 . S
C864 H849 0.959 . S
C864 H850 0.961 . S
C864 C863 1.502 . S
C865 H851 0.960 . S
C865 H852 0.961 . S
C865 H853 0.959 . S
C865 C863 1.561 . S
C866 C863 1.526 . S
C866 C867 1.396 . S
C866 C871 1.390 . S
C867 C861 1.465 . S
C867 C866 1.396 . S
C867 C868 1.399 . S
C868 H854 0.929 . S
C868 C867 1.399 . S
C868 C869 1.385 . S
C869 H855 0.931 . S
C869 C868 1.385 . S
C869 C870 1.389 . S
C870 C869 1.389 . S
C870 C871 1.387 . S
C871 H856 0.930 . S
C871 C866 1.390 . S
C871 C870 1.387 . S
H872 C884 0.930 . S
H873 C886 0.930 . S
H874 C887 0.930 . S
H875 C891 0.959 . S
H876 C891 0.959 . S
H877 C891 0.961 1_554 S
H878 C892 0.960 1_554 S
H879 C892 0.961 . S
H880 C892 0.959 . S
H881 C895 0.929 . S
H882 C896 0.931 . S
H883 C898 0.930 . S
C884 H872 0.930 . S
C884 C885 1.399 . S
C884 C889 1.399 . S
C885 C884 1.399 . S
C885 C886 1.376 . S
C886 H873 0.930 . S
C886 C885 1.376 . S
C886 C887 1.388 . S
C887 H874 0.930 . S
C887 C886 1.388 . S
C887 C888 1.390 . S
C888 C887 1.390 . S
C888 C889 1.394 . S
C888 C894 1.465 1_554 S
C889 C884 1.399 . S
C889 C888 1.394 . S
C889 C890 1.516 1_554 S
C890 C889 1.516 1_556 S
C890 C891 1.502 . S
C890 C892 1.561 . S
C890 C893 1.526 . S
C891 H875 0.959 . S
C891 H876 0.959 . S
C891 H877 0.961 1_556 S
C891 C890 1.502 . S
C892 H878 0.960 1_556 S
C892 H879 0.961 . S
C892 H880 0.959 . S
C892 C890 1.561 . S
C893 C890 1.526 . S
C893 C894 1.396 . S
C893 C898 1.390 . S
C894 C888 1.465 1_556 S
C894 C893 1.396 . S
C894 C895 1.399 . S
C895 H881 0.929 . S
C895 C894 1.399 . S
C895 C896 1.385 . S
C896 H882 0.931 . S
C896 C895 1.385 . S
C896 C897 1.389 . S
C897 C896 1.389 . S
C897 C898 1.387 . S
C898 H883 0.930 . S
C898 C893 1.390 . S
C898 C897 1.387 . S
H899 C911 0.930 . S
H900 C913 0.930 . S
H901 C914 0.930 . S
H902 C918 0.959 . S
H903 C918 0.959 . S
H904 C918 0.961 . S
H905 C919 0.960 . S
H906 C919 0.961 . S
H907 C919 0.959 . S
H908 C922 0.929 . S
H909 C923 0.931 . S
H910 C925 0.930 . S
C911 H899 0.930 . S
C911 C912 1.399 . S
C911 C916 1.399 . S
C912 C911 1.399 . S
C912 C913 1.376 . S
C913 H900 0.930 . S
C913 C912 1.376 . S
C913 C914 1.388 . S
C914 H901 0.930 . S
C914 C913 1.388 . S
C914 C915 1.390 . S
C915 C914 1.390 . S
C915 C916 1.394 . S
C915 C921 1.465 . S
C916 C911 1.399 . S
C916 C915 1.394 . S
C916 C917 1.516 . S
C917 C916 1.516 . S
C917 C918 1.502 . S
C917 C919 1.561 . S
C917 C920 1.526 . S
C918 H902 0.959 . S
C918 H903 0.959 . S
C918 H904 0.961 . S
C918 C917 1.502 . S
C919 H905 0.960 . S
C919 H906 0.961 . S
C919 H907 0.959 . S
C919 C917 1.561 . S
C920 C917 1.526 . S
C920 C921 1.396 . S
C920 C925 1.390 . S
C921 C915 1.465 . S
C921 C920 1.396 . S
C921 C922 1.399 . S
C922 H908 0.929 . S
C922 C921 1.399 . S
C922 C923 1.385 . S
C923 H909 0.931 . S
C923 C922 1.385 . S
C923 C924 1.389 . S
C924 C923 1.389 . S
C924 C925 1.387 . S
C925 H910 0.930 . S
C925 C920 1.390 . S
C925 C924 1.387 . S
H926 C938 0.930 . S
H927 C940 0.930 . S
H928 C941 0.930 . S
H929 C945 0.959 . S
H930 C945 0.959 . S
H931 C945 0.961 1_554 S
H932 C946 0.960 1_554 S
H933 C946 0.961 . S
H934 C946 0.959 1_455 S
H935 C949 0.929 . S
H936 C950 0.931 . S
H937 C952 0.930 . S
C938 H926 0.930 . S
C938 C939 1.399 . S
C938 C943 1.399 . S
C939 C938 1.399 . S
C939 C940 1.376 1_655 S
C940 H927 0.930 . S
C940 C939 1.376 1_455 S
C940 C941 1.388 . S
C941 H928 0.930 . S
C941 C940 1.388 . S
C941 C942 1.390 . S
C942 C941 1.390 . S
C942 C943 1.394 1_455 S
C942 C948 1.465 1_554 S
C943 C938 1.399 . S
C943 C942 1.394 1_655 S
C943 C944 1.516 1_554 S
C944 C943 1.516 1_556 S
C944 C945 1.502 . S
C944 C946 1.561 . S
C944 C947 1.526 . S
C945 H929 0.959 . S
C945 H930 0.959 . S
C945 H931 0.961 1_556 S
C945 C944 1.502 . S
C946 H932 0.960 1_556 S
C946 H933 0.961 . S
C946 H934 0.959 1_655 S
C946 C944 1.561 . S
C947 C944 1.526 . S
C947 C948 1.396 1_655 S
C947 C952 1.390 . S
C948 C942 1.465 1_556 S
C948 C947 1.396 1_455 S
C948 C949 1.399 . S
C949 H935 0.929 . S
C949 C948 1.399 . S
C949 C950 1.385 . S
C950 H936 0.931 . S
C950 C949 1.385 . S
C950 C951 1.389 1_455 S
C951 C950 1.389 1_655 S
C951 C952 1.387 . S
C952 H937 0.930 . S
C952 C947 1.390 . S
C952 C951 1.387 . S
H953 C965 0.930 . S
H954 C967 0.930 . S
H955 C968 0.930 . S
H956 C972 0.959 . S
H957 C972 0.959 . S
H958 C972 0.961 . S
H959 C973 0.960 . S
H960 C973 0.961 . S
H961 C973 0.959 . S
H962 C976 0.929 . S
H963 C977 0.931 . S
H964 C979 0.930 . S
C965 H953 0.930 . S
C965 C966 1.399 . S
C965 C970 1.399 . S
C966 C965 1.399 . S
C966 C967 1.376 1_565 S
C967 H954 0.930 . S
C967 C966 1.376 1_545 S
C967 C968 1.388 . S
C968 H955 0.930 . S
C968 C967 1.388 . S
C968 C969 1.390 . S
C969 C968 1.390 . S
C969 C970 1.394 1_545 S
C969 C975 1.465 . S
C970 C965 1.399 . S
C970 C969 1.394 1_565 S
C970 C971 1.516 . S
C971 C970 1.516 . S
C971 C972 1.502 . S
C971 C973 1.561 . S
C971 C974 1.526 . S
C972 H956 0.959 . S
C972 H957 0.959 . S
C972 H958 0.961 . S
C972 C971 1.502 . S
C973 H959 0.960 . S
C973 H960 0.961 . S
C973 H961 0.959 . S
C973 C971 1.561 . S
C974 C971 1.526 . S
C974 C975 1.396 1_565 S
C974 C979 1.390 . S
C975 C969 1.465 . S
C975 C974 1.396 1_545 S
C975 C976 1.399 . S
C976 H962 0.929 . S
C976 C975 1.399 . S
C976 C977 1.385 . S
C977 H963 0.931 . S
C977 C976 1.385 . S
C977 C978 1.389 1_545 S
C978 C977 1.389 1_565 S
C978 C979 1.387 . S
C979 H964 0.930 . S
C979 C974 1.390 . S
C979 C978 1.387 . S
H980 C992 0.930 . S
H981 C994 0.930 . S
H982 C995 0.930 . S
H983 C999 0.959 1_556 S
H984 C999 0.959 . S
H985 C999 0.961 1_556 S
H986 C1000 0.960 1_556 S
H987 C1000 0.961 . S
H988 C1000 0.959 . S
H989 C1003 0.929 . S
H990 C1004 0.931 . S
H991 C1006 0.930 . S
C992 H980 0.930 . S
C992 C993 1.399 . S
C992 C997 1.399 . S
C993 C992 1.399 . S
C993 C994 1.376 . S
C994 H981 0.930 . S
C994 C993 1.376 . S
C994 C995 1.388 . S
C995 H982 0.930 . S
C995 C994 1.388 . S
C995 C996 1.390 . S
C996 C995 1.390 . S
C996 C997 1.394 . S
C996 C1002 1.465 1_556 S
C997 C992 1.399 . S
C997 C996 1.394 . S
C997 C998 1.516 1_556 S
C998 C997 1.516 1_554 S
C998 C999 1.502 . S
C998 C1000 1.561 . S
C998 C1001 1.526 . S
C999 H983 0.959 1_554 S
C999 H984 0.959 . S
C999 H985 0.961 1_554 S
C999 C998 1.502 . S
C1000 H986 0.960 1_554 S
C1000 H987 0.961 . S
C1000 H988 0.959 . S
C1000 C998 1.561 . S
C1001 C998 1.526 . S
C1001 C1002 1.396 . S
C1001 C1006 1.390 . S
C1002 C996 1.465 1_554 S
C1002 C1001 1.396 . S
C1002 C1003 1.399 . S
C1003 H989 0.929 . S
C1003 C1002 1.399 . S
C1003 C1004 1.385 . S
C1004 H990 0.931 . S
C1004 C1003 1.385 . S
C1004 C1005 1.389 . S
C1005 C1004 1.389 . S
C1005 C1006 1.387 . S
C1006 H991 0.930 . S
C1006 C1001 1.390 . S
C1006 C1005 1.387 . S
H1007 C1019 0.930 . S
H1008 C1021 0.930 . S
H1009 C1022 0.930 . S
H1010 C1026 0.959 . S
H1011 C1026 0.959 . S
H1012 C1026 0.961 . S
H1013 C1027 0.960 . S
H1014 C1027 0.961 . S
H1015 C1027 0.959 . S
H1016 C1030 0.929 . S
H1017 C1031 0.931 . S
H1018 C1033 0.930 . S
C1019 H1007 0.930 . S
C1019 C1020 1.399 . S
C1019 C1024 1.399 . S
C1020 C1019 1.399 . S
C1020 C1021 1.376 . S
C1021 H1008 0.930 . S
C1021 C1020 1.376 . S
C1021 C1022 1.388 . S
C1022 H1009 0.930 . S
C1022 C1021 1.388 . S
C1022 C1023 1.390 . S
C1023 C1022 1.390 . S
C1023 C1024 1.394 . S
C1023 C1029 1.465 . S
C1024 C1019 1.399 . S
C1024 C1023 1.394 . S
C1024 C1025 1.516 . S
C1025 C1024 1.516 . S
C1025 C1026 1.502 . S
C1025 C1027 1.561 . S
C1025 C1028 1.526 . S
C1026 H1010 0.959 . S
C1026 H1011 0.959 . S
C1026 H1012 0.961 . S
C1026 C1025 1.502 . S
C1027 H1013 0.960 . S
C1027 H1014 0.961 . S
C1027 H1015 0.959 . S
C1027 C1025 1.561 . S
C1028 C1025 1.526 . S
C1028 C1029 1.396 . S
C1028 C1033 1.390 . S
C1029 C1023 1.465 . S
C1029 C1028 1.396 . S
C1029 C1030 1.399 . S
C1030 H1016 0.929 . S
C1030 C1029 1.399 . S
C1030 C1031 1.385 . S
C1031 H1017 0.931 . S
C1031 C1030 1.385 . S
C1031 C1032 1.389 . S
C1032 C1031 1.389 . S
C1032 C1033 1.387 . S
C1033 H1018 0.930 . S
C1033 C1028 1.390 . S
C1033 C1032 1.387 . S
H1034 C1046 0.930 . S
H1035 C1048 0.930 . S
H1036 C1049 0.930 . S
H1037 C1053 0.959 . S
H1038 C1053 0.959 1_556 S
H1039 C1053 0.961 . S
H1040 C1054 0.958 1_455 S
H1041 C1054 0.961 1_456 S
H1042 C1054 0.959 . S
H1043 C1057 0.929 . S
H1044 C1058 0.931 . S
H1045 C1060 0.930 . S
C1046 H1034 0.930 . S
C1046 C1047 1.399 . S
C1046 C1051 1.399 . S
C1047 C1046 1.399 . S
C1047 C1048 1.376 1_455 S
C1048 H1035 0.930 . S
C1048 C1047 1.376 1_655 S
C1048 C1049 1.388 . S
C1049 H1036 0.930 . S
C1049 C1048 1.388 . S
C1049 C1050 1.390 . S
C1050 C1049 1.390 . S
C1050 C1051 1.394 1_655 S
C1050 C1056 1.465 1_554 S
C1051 C1046 1.399 . S
C1051 C1050 1.394 1_455 S
C1051 C1052 1.516 . S
C1052 C1051 1.516 . S
C1052 C1053 1.502 . S
C1052 C1054 1.561 1_455 S
C1052 C1055 1.526 1_554 S
C1053 H1037 0.959 . S
C1053 H1038 0.959 1_554 S
C1053 H1039 0.961 . S
C1053 C1052 1.502 . S
C1054 H1040 0.958 1_655 S
C1054 H1041 0.961 1_654 S
C1054 H1042 0.959 . S
C1054 C1052 1.561 1_655 S
C1055 C1052 1.526 1_556 S
C1055 C1056 1.396 1_455 S
C1055 C1060 1.390 . S
C1056 C1050 1.465 1_556 S
C1056 C1055 1.396 1_655 S
C1056 C1057 1.399 . S
C1057 H1043 0.929 . S
C1057 C1056 1.399 . S
C1057 C1058 1.385 . S
C1058 H1044 0.931 . S
C1058 C1057 1.385 . S
C1058 C1059 1.389 1_655 S
C1059 C1058 1.389 1_455 S
C1059 C1060 1.387 . S
C1060 H1045 0.930 . S
C1060 C1055 1.390 . S
C1060 C1059 1.387 . S
H1061 C1073 0.930 . S
H1062 C1075 0.930 . S
H1063 C1076 0.930 . S
H1064 C1080 0.959 . S
H1065 C1080 0.959 . S
H1066 C1080 0.961 . S
H1067 C1081 0.960 . S
H1068 C1081 0.961 . S
H1069 C1081 0.959 . S
H1070 C1084 0.929 . S
H1071 C1085 0.931 . S
H1072 C1087 0.930 . S
C1073 H1061 0.930 . S
C1073 C1074 1.399 . S
C1073 C1078 1.399 . S
C1074 C1073 1.399 . S
C1074 C1075 1.376 1_545 S
C1075 H1062 0.930 . S
C1075 C1074 1.376 1_565 S
C1075 C1076 1.388 . S
C1076 H1063 0.930 . S
C1076 C1075 1.388 . S
C1076 C1077 1.390 . S
C1077 C1076 1.390 . S
C1077 C1078 1.394 1_565 S
C1077 C1083 1.465 . S
C1078 C1073 1.399 . S
C1078 C1077 1.394 1_545 S
C1078 C1079 1.516 . S
C1079 C1078 1.516 . S
C1079 C1080 1.502 . S
C1079 C1081 1.561 . S
C1079 C1082 1.526 . S
C1080 H1064 0.959 . S
C1080 H1065 0.959 . S
C1080 H1066 0.961 . S
C1080 C1079 1.502 . S
C1081 H1067 0.960 . S
C1081 H1068 0.961 . S
C1081 H1069 0.959 . S
C1081 C1079 1.561 . S
C1082 C1079 1.526 . S
C1082 C1083 1.396 1_545 S
C1082 C1087 1.390 . S
C1083 C1077 1.465 . S
C1083 C1082 1.396 1_565 S
C1083 C1084 1.399 . S
C1084 H1070 0.929 . S
C1084 C1083 1.399 . S
C1084 C1085 1.385 . S
C1085 H1071 0.931 . S
C1085 C1084 1.385 . S
C1085 C1086 1.389 1_565 S
C1086 C1085 1.389 1_545 S
C1086 C1087 1.387 . S
C1087 H1072 0.930 . S
C1087 C1082 1.390 . S
C1087 C1086 1.387 . S
C237 C8 1.305 . S
C249 C106 1.315 . S
C264 C22 1.317 . S
C276 C64 1.322 . S
C291 C36 1.316 . S
C303 C78 1.306 . S
C318 C50 1.317 . S
C330 C92 1.322 . S
C345 C120 1.317 . S
C357 C218 1.320 . S
C372 C176 1.307 . S
C384 C134 1.305 . S
C399 C148 1.321 . S
C411 C190 1.321 . S
C426 C162 1.315 . S
C438 C204 1.319 . S
C453 C9 1.423 . S
C465 C133 1.470 . S
C480 C23 1.382 . S
C492 C147 1.451 . S
C507 C161 1.466 . S
C519 C37 1.396 . S
C534 C51 1.455 . S
C546 C119 1.451 . S
C561 C65 1.458 . S
C573 C217 1.419 . S
C588 C175 1.402 . S
C600 C79 1.432 . S
C615 C189 1.444 . S
C627 C93 1.381 . S
C642 C203 1.402 . S
C654 C107 1.423 . S
C669 C21 1.431 . S
C681 C121 1.454 . S
C696 C35 1.424 . S
C708 C135 1.448 . S
C723 C149 1.447 . S
C735 C49 1.470 . S
C750 C7 1.405 . S
C762 C163 1.389 . S
C777 C177 1.408 . S
C789 C105 1.403 . S
C804 C191 1.425 . S
C816 C63 1.468 . S
C831 C77 1.431 . S
C843 C205 1.383 . S
C858 C91 1.433 . S
C870 C219 1.455 . S
C885 C3 1.606 . S
C897 C59 1.601 . S
C912 C73 1.602 . S
C924 C17 1.596 . S
C939 C31 1.606 . S
C951 C87 1.603 . S
C966 C101 1.602 . S
C978 C45 1.607 . S
C993 C115 1.593 . S
C1005 C171 1.593 . S
C1020 C185 1.606 . S
C1032 C129 1.606 . S
C1047 C199 1.604 . S
C1059 C143 1.605 . S
C1074 C213 1.606 . S
C1086 C157 1.605 . S
