# Generated by pormake.
# Topology snp, (6)-cn, num edge types: 1
# Building blocks:
#     Node 0, Type 0, BuildingBlock: HISSIN_clean_sbu_0, # of connection points: 6
#     Node 1, Type 0, BuildingBlock: HISSIN_clean_sbu_0, # of connection points: 6
#     Node 2, Type 0, BuildingBlock: HISSIN_clean_sbu_0, # of connection points: 6
#     Node 3, Type 0, BuildingBlock: HISSIN_clean_sbu_0, # of connection points: 6
#     Edge 4, Type (0, 0), BuildingBlock: XUDNAN_clean_linker_2, # of connection points: 2
#     Edge 5, Type (0, 0), BuildingBlock: XUDNAN_clean_linker_2, # of connection points: 2
#     Edge 6, Type (0, 0), BuildingBlock: XUDNAN_clean_linker_2, # of connection points: 2
#     Edge 7, Type (0, 0), BuildingBlock: XUDNAN_clean_linker_2, # of connection points: 2
#     Edge 8, Type (0, 0), BuildingBlock: XUDNAN_clean_linker_2, # of connection points: 2
#     Edge 9, Type (0, 0), BuildingBlock: XUDNAN_clean_linker_2, # of connection points: 2
#     Edge 10, Type (0, 0), BuildingBlock: XUDNAN_clean_linker_2, # of connection points: 2
#     Edge 11, Type (0, 0), BuildingBlock: XUDNAN_clean_linker_2, # of connection points: 2
#     Edge 12, Type (0, 0), BuildingBlock: XUDNAN_clean_linker_2, # of connection points: 2
#     Edge 13, Type (0, 0), BuildingBlock: XUDNAN_clean_linker_2, # of connection points: 2
#     Edge 14, Type (0, 0), BuildingBlock: XUDNAN_clean_linker_2, # of connection points: 2
#     Edge 15, Type (0, 0), BuildingBlock: XUDNAN_clean_linker_2, # of connection points: 2
# Relax obj value: 0.716
# Max RMSD: 0.184
# Mean RMSD: 0.184
data_MOF--net-snp--node1-HISSIN_clean_sbu_0--edge1-XUDNAN_clean_linker_2
_symmetry_space_group_name_H-M    P1
_symmetry_Int_Tables_number       1
_symmetry_cell_setting            triclinic
loop_
_symmetry_equiv_pos_as_xyz
'x, y, z'
_cell_length_a     24.383784
_cell_length_b     24.256234
_cell_length_c     28.150114
_cell_angle_alpha  87.96889
_cell_angle_beta   89.815289
_cell_angle_gamma 123.28054
loop_
_atom_site_label
_atom_site_type_symbol
_atom_site_fract_x
_atom_site_fract_y
_atom_site_fract_z
_atom_type_partial_charge
Eu0 Eu 0.20176 0.96077 0.31061 0.0
Eu1 Eu 0.31556 0.11737 0.29003 0.0
C2 C 0.35703 0.01956 0.32078 0.0
C3 C 0.13344 0.79404 0.36897 0.0
C4 C 0.1601 0.75915 0.35244 0.0
C5 C 0.16199 0.78102 0.44917 0.0
C6 C 0.19254 0.74067 0.38344 0.0
C7 C 0.13012 0.8 0.41816 0.0
C8 C 0.19785 0.75589 0.43152 0.0
C9 C 0.12315 0.83542 0.33493 0.0
O10 O 0.30385 0.07434 0.21525 0.0
O11 O 0.22568 0.96335 0.23115 0.0
C12 C 0.26558 0.01276 0.20078 0.0
O13 O 0.16031 -0.00584 0.25365 0.0
O14 O 0.41159 0.20316 0.30733 0.0
O15 O 0.34895 0.21438 0.25901 0.0
O16 O 0.21542 0.09635 0.28104 0.0
C17 C 0.17886 0.05593 0.24863 0.0
O18 O 0.17855 0.01715 0.36306 0.0
O19 O 0.28221 0.10872 0.36867 0.0
O20 O 0.36941 0.06755 0.29102 0.0
O21 O 0.11719 0.88121 0.35235 0.0
O22 O 0.16234 0.85779 0.29762 0.0
O23 O 0.298 -0.01965 0.3404 0.0
C24 C 0.46179 0.28028 0.24276 0.0
C25 C 0.50976 0.34685 0.24935 0.0
C26 C 0.50612 0.29038 1.16363 0.0
C27 C 0.55451 0.38584 0.21238 0.0
C28 C 0.46242 0.25151 0.20073 0.0
C29 C 0.55077 0.35885 1.16807 0.0
C30 C 0.40709 0.24247 0.27711 0.0
C31 C 0.22091 0.07121 0.38535 0.0
H32 H 0.16195 0.75229 0.31478 0.0
H33 H 0.16478 0.79332 0.48608 0.0
H34 H 0.2189 0.72054 0.369 0.0
H35 H 0.10875 0.82531 0.4323 0.0
H36 H 0.51037 0.36947 0.28202 0.0
H37 H 0.50043 0.26724 1.13023 0.0
H38 H 0.58908 0.43793 0.21749 0.0
H39 H 0.42598 0.19987 0.19531 0.0
Eu40 Eu 0.00259 0.24633 0.74901 0.0
Eu41 Eu 0.13575 0.25791 0.7844 0.0
C42 C 0.13878 0.39123 0.75623 0.0
C43 C 0.88725 0.29283 0.69794 0.0
C44 C 0.92264 0.36086 0.70578 0.0
C45 C 0.8309 0.30964 0.63392 0.0
C46 C 0.91293 0.40305 0.67725 0.0
C47 C 0.84015 0.26747 0.66268 0.0
C48 C 0.86833 0.37827 0.64006 0.0
C49 C 0.89985 0.24796 0.72517 0.0
O50 O 0.09987 0.2771 0.85307 0.0
O51 O 0.9933 0.23503 0.83196 0.0
C52 C 0.03819 0.25423 0.86514 0.0
O53 O 0.9664 0.1417 0.76626 0.0
O54 O 0.23683 0.29276 0.76633 0.0
O55 O 0.18991 0.22959 0.82968 0.0
O56 O 0.05032 0.16066 0.81452 0.0
C57 C 0.98904 0.12408 0.80139 0.0
O58 O 0.04718 0.2356 0.67946 0.0
O59 O 0.11834 0.21214 0.71177 0.0
O60 O 0.16931 0.36563 0.77574 0.0
O61 O 0.92134 0.21814 0.70112 0.0
O62 O 0.92999 0.26906 0.76506 0.0
O63 O 0.0791 0.35437 0.74068 0.0
C64 C 0.30563 0.30306 0.82938 0.0
C65 C 0.32373 0.26932 0.86002 0.0
C66 C 0.40661 0.40653 0.84664 0.0
C67 C 0.38215 0.30377 0.88439 0.0
C68 C 0.34769 0.37193 0.82244 0.0
C69 C 0.42422 0.37285 0.87822 0.0
C70 C 0.24392 0.26465 0.80402 0.0
C71 C 0.08826 0.21618 0.67443 0.0
H72 H 0.95905 0.38181 0.73305 0.0
H73 H 0.79707 0.28861 0.60507 0.0
H74 H 0.94197 0.45541 0.68307 0.0
H75 H 0.81212 0.21519 0.6562 0.0
H76 H 0.29213 0.21618 0.86561 0.0
H77 H 0.43794 0.45966 0.84111 0.0
H78 H 0.39302 0.27625 0.90938 0.0
H79 H 0.33495 0.39909 0.79865 0.0
Eu80 Eu 0.92972 0.13355 0.31957 0.0
Eu81 Eu 0.84375 -0.01396 0.28405 0.0
C82 C 0.77617 0.04915 0.33294 0.0
C83 C 0.99562 0.31062 0.3556 0.0
C84 C 0.95531 0.32022 0.32576 0.0
C85 C 0.02108 0.40584 0.39895 0.0
C86 C 0.94644 0.37167 0.33349 0.0
C87 C 0.03041 0.35524 0.39078 0.0
C88 C 0.97673 0.41327 0.37179 0.0
C89 C 0.99613 0.25053 0.35502 0.0
O90 O 0.85427 0.04913 0.21537 0.0
O91 O 0.91085 0.15398 0.24389 0.0
C92 C 0.88515 0.11439 0.20797 0.0
O93 O 0.00022 0.12454 0.27309 0.0
O94 O 0.74828 0.90903 0.2586 0.0
O95 O 0.81909 0.8856 0.28015 0.0
O96 O 0.92834 0.03135 0.23314 0.0
C97 C 0.98477 0.08776 0.2358 0.0
O98 O 0.93299 0.06909 0.3811 0.0
O99 O 0.90876 -0.02037 0.33989 0.0
O100 O 0.78562 0.00134 0.33817 0.0
O101 O 0.9465 0.19855 0.3769 0.0
O102 O 0.01209 0.23681 0.31503 0.0
O103 O 0.82505 0.10698 0.31698 0.0
C104 C 0.74628 0.82262 0.2211 0.0
C105 C 0.77807 0.85011 1.17688 0.0
C106 C 0.692 0.71313 0.1904 0.0
C107 C 0.76752 0.80905 1.13968 0.0
C108 C 0.70244 0.75422 0.22748 0.0
C109 C 0.72534 0.74007 1.14644 0.0
C110 C 0.76192 0.86393 0.26186 0.0
C111 C 0.93077 0.01361 0.37865 0.0
H112 H 0.92817 0.28603 0.2982 0.0
H113 H 0.04471 0.43516 0.42941 0.0
H114 H 0.91287 0.37625 0.31128 0.0
H115 H 0.0616 0.34834 0.41418 0.0
H116 H 0.81247 0.90297 1.17165 0.0
H117 H 0.65891 0.66022 0.19637 0.0
H118 H 0.79456 0.8311 1.10637 0.0
H119 H 0.67767 0.73248 0.26157 0.0
Eu120 Eu 0.19907 0.94941 0.75408 0.0
Eu121 Eu 0.08247 0.80184 0.76224 0.0
C122 C 0.21122 0.83109 0.73044 0.0
C123 C 0.36535 0.07057 0.7072 0.0
C124 C 0.40338 0.04809 0.72646 0.0
C125 C 0.40074 0.06406 0.628 0.0
C126 C 0.43385 0.02734 0.69661 0.0
C127 C 0.36934 0.08397 0.65785 0.0
C128 C 0.42822 0.0305 0.64722 0.0
C129 C 0.30949 0.06174 0.73567 0.0
O130 O 0.13372 0.83136 0.83763 0.0
O131 O 0.1833 0.94332 0.83249 0.0
C132 C 0.16373 0.88968 0.85854 0.0
O133 O 0.11329 0.95264 0.78509 0.0
O134 O 0.04391 0.70384 0.79556 0.0
O135 O -0.00042 0.71379 0.7324 0.0
O136 O 0.03434 0.84116 0.79856 0.0
C137 C 0.05501 0.90265 0.80163 0.0
O138 O 0.15331 0.92765 0.68032 0.0
O139 O 0.04934 0.84631 0.70353 0.0
O140 O 0.15854 0.81835 0.71007 0.0
O141 O 0.25603 0.04318 0.71253 0.0
O142 O 0.29627 0.02781 0.77581 0.0
O143 O 0.23462 0.87886 0.75995 0.0
C144 C 0.92942 0.64598 0.79515 0.0
C145 C 0.90465 0.68521 0.80261 0.0
C146 C 0.84754 0.56314 0.85141 0.0
C147 C 0.85537 0.66618 0.83644 0.0
C148 C 0.89916 0.58369 0.81838 0.0
C149 C 0.82742 0.60586 0.86297 0.0
C150 C 0.99232 0.67591 0.76909 0.0
C151 C 0.09004 0.89264 0.67168 0.0
H152 H 0.40291 0.03866 0.76441 0.0
H153 H 0.39565 0.06684 0.58991 0.0
H154 H 0.45487 0.00167 0.71213 0.0
H155 H 0.34157 0.10227 0.64192 0.0
H156 H 0.92647 0.73315 0.78457 0.0
H157 H 0.82599 0.51523 0.8694 0.0
H158 H 0.84369 0.7021 0.84366 0.0
H159 H 0.91733 0.55243 0.81269 0.0
H160 H 0.09424 0.21077 0.21775 0.0
H161 H 0.95576 0.03175 1.14913 0.0
H162 H 0.03054 0.0659 1.08119 0.0
H163 H 0.22356 0.32644 1.11248 0.0
H164 H 0.22035 0.26405 1.07784 0.0
H165 H 0.28852 0.31188 1.11557 0.0
H166 H 0.21017 0.31359 0.20231 0.0
H167 H 0.27577 0.30018 0.20468 0.0
H168 H 0.19836 0.24219 0.23409 0.0
H169 H 0.11049 0.0371 1.09352 0.0
H170 H 0.12317 -0.01016 1.16714 0.0
H171 H 0.24503 0.18433 0.22051 0.0
C172 C 0.08086 0.1798 0.18762 0.0
C173 C 0.02407 0.11552 0.19106 0.0
C174 C 0.00261 0.07857 1.14978 0.0
C175 C 0.04424 0.0992 1.10998 0.0
C176 C 0.10959 0.15087 1.11501 0.0
C177 C 0.12507 0.19862 1.14853 0.0
C178 C 0.19821 0.23752 1.15512 0.0
C179 C 0.23461 0.28765 1.11272 0.0
C180 C 0.22177 0.27524 0.20189 0.0
C181 C 0.20565 0.17989 1.15162 0.0
C182 C 0.16065 0.13621 1.11893 0.0
C183 C 0.14236 0.07021 1.12014 0.0
C184 C 0.14816 0.04292 1.16277 0.0
C185 C 0.18105 0.08379 0.20063 0.0
C186 C 0.21704 0.15267 0.19224 0.0
H187 H 0.93589 0.86368 0.77449 0.0
H188 H 0.0685 0.94689 0.89013 0.0
H189 H 0.98439 0.94816 0.93717 0.0
H190 H 0.89634 0.93406 0.74588 0.0
H191 H 0.8102 0.90369 0.74658 0.0
H192 H 0.83542 0.84682 0.74514 0.0
H193 H 0.76772 0.78265 0.82044 0.0
H194 H 0.73704 0.83551 0.81742 0.0
H195 H 0.77011 0.82631 0.8716 0.0
H196 H 0.93721 0.00923 0.9443 0.0
H197 H 0.99402 0.11194 0.89699 0.0
H198 H 0.87734 0.01264 0.77667 0.0
C199 C 0.94572 0.88202 0.81006 0.0
C200 C 0.00925 0.91122 0.82762 0.0
C201 C 0.02138 0.93017 0.87479 0.0
C202 C 0.97247 0.92785 0.90227 0.0
C203 C 0.91309 0.91026 0.8811 0.0
C204 C 0.89745 0.88245 0.83668 0.0
C205 C 0.84441 0.88853 0.81509 0.0
C206 C 0.84702 0.89386 0.75992 0.0
C207 C 0.77596 0.82985 0.83224 0.0
C208 C 0.86078 0.9503 0.83942 0.0
C209 C 0.88586 0.95075 0.88454 0.0
C210 C 0.92133 0.00939 0.90848 0.0
C211 C 0.95478 0.06792 0.8811 0.0
C212 C 0.94234 0.06757 0.83243 0.0
C213 C 0.88832 0.01111 0.81371 0.0
H214 H 0.73275 0.13193 0.31585 0.0
H215 H 0.66679 0.93357 0.36742 0.0
H216 H 0.55323 0.9055 0.37391 0.0
H217 H 0.61904 0.14894 0.39047 0.0
H218 H 0.60657 0.19413 0.34432 0.0
H219 H 0.68344 0.20001 0.34689 0.0
H220 H 0.67021 0.16345 0.26002 0.0
H221 H 0.59328 0.15726 0.25728 0.0
H222 H 0.59693 0.08708 0.2443 0.0
H223 H 0.4443 0.89593 0.36818 0.0
H224 H 0.35095 0.90905 0.35613 0.0
H225 H 0.48836 0.11291 0.3087 0.0
C226 C 0.69469 0.08298 0.32925 0.0
C227 C 0.70914 0.03518 0.34126 0.0
C228 C 0.65737 -0.02865 0.3581 0.0
C229 C 0.59246 0.95474 0.36189 0.0
C230 C 0.57967 0.00251 0.3489 0.0
C231 C 0.62945 0.06552 0.33331 0.0
C232 C 0.60227 0.10706 0.32013 0.0
C233 C 0.62945 0.16602 0.35238 0.0
C234 C 0.61652 0.13004 0.2673 0.0
C235 C 0.52953 0.05734 0.33001 0.0
C236 C 0.51732 -0.00267 0.34674 0.0
C237 C 0.45337 0.94322 0.35643 0.0
C238 C 0.40066 0.95093 0.34946 0.0
C239 C 0.41214 0.01186 0.33198 0.0
C240 C 0.47767 0.06558 0.32238 0.0
H241 H 0.08805 0.45646 0.71506 0.0
H242 H 0.25817 0.4916 0.79113 0.0
H243 H 0.30168 0.61151 0.78985 0.0
H244 H 0.16253 0.59508 0.63931 0.0
H245 H 0.09979 0.61266 0.64379 0.0
H246 H 0.07867 0.52914 0.65153 0.0
H247 H 0.02827 0.51143 0.73659 0.0
H248 H 0.03911 0.59047 0.72578 0.0
H249 H 0.07173 0.57508 0.77826 0.0
H250 H 0.3198 0.72971 0.78537 0.0
H251 H 0.31224 0.82785 0.77427 0.0
H252 H 0.13227 0.7083 0.69792 0.0
C253 C 0.1349 0.48892 0.73118 0.0
C254 C 0.16969 0.46414 0.75304 0.0
C255 C 0.23064 0.50921 0.77384 0.0
C256 C 0.2556 0.57745 0.77341 0.0
C257 C 0.21906 0.59979 0.75204 0.0
C258 C 0.15995 0.55622 0.73133 0.0
C259 C 0.12768 0.59026 0.71228 0.0
C260 C 0.11662 0.58143 0.65855 0.0
C261 C 0.06289 0.56537 0.73981 0.0
C262 C 0.1789 0.66065 0.72353 0.0
C263 C 0.23067 0.66581 0.74766 0.0
C264 C 0.27987 0.72603 0.7658 0.0
C265 C 0.2753 0.78157 0.75942 0.0
C266 C 0.22229 0.77648 0.73469 0.0
C267 C 0.17445 0.71508 0.71618 0.0
H268 H 0.17705 0.18096 0.64896 0.0
H269 H 0.03101 0.20956 0.5877 0.0
H270 H 0.05094 0.17907 0.5095 0.0
H271 H 0.29022 0.24537 0.54326 0.0
H272 H 0.31269 0.18628 0.55178 0.0
H273 H 0.28897 0.21313 0.60223 0.0
H274 H 0.20217 0.09239 0.6257 0.0
H275 H 0.22097 0.06307 0.57413 0.0
H276 H 0.13869 0.04234 0.58504 0.0
H277 H 0.08371 0.13961 0.43654 0.0
H278 H 0.12829 0.1006 0.37695 0.0
H279 H 0.25614 0.09853 0.48239 0.0
C280 C 0.14932 0.1813 0.61915 0.0
C281 C 0.10179 0.19808 0.62572 0.0
C282 C 0.06743 0.19738 0.5848 0.0
C283 C 0.07879 0.18021 0.53972 0.0
C284 C 0.12535 0.16367 0.53476 0.0
C285 C 0.16057 0.16466 0.57345 0.0
C286 C 0.20719 0.1438 0.55857 0.0
C287 C 0.27904 0.20053 0.56431 0.0
C288 C 0.19141 0.0817 0.58757 0.0
C289 C 0.19181 0.12942 0.50582 0.0
C290 C 0.14428 0.14126 0.49299 0.0
C291 C 0.1212 0.13085 0.44655 0.0
C292 C 0.14688 0.10829 0.41265 0.0
C293 C 0.19594 0.09587 0.42407 0.0
C294 C 0.21889 0.10737 0.47177 0.0
H295 H 0.92088 0.15621 0.91519 0.0
H296 H 0.11326 0.33207 0.93666 0.0
H297 H 0.09022 0.31806 1.02321 0.0
H298 H 0.83275 0.17385 1.0149 0.0
H299 H 0.78451 0.08709 1.03188 0.0
H300 H 0.81189 0.11358 0.97086 0.0
H301 H 0.86346 0.04646 0.9733 0.0
H302 H 0.84118 0.02189 1.03495 0.0
H303 H 0.92599 0.06376 1.01574 0.0
H304 H 0.04596 0.28794 1.10807 0.0
H305 H 0.99301 0.23643 0.18533 0.0
H306 H 0.83422 0.06747 1.11546 0.0
C307 C 0.95798 0.19217 0.93804 0.0
C308 C 0.01923 0.2462 0.918 0.0
C309 C 0.06611 0.29087 0.95009 0.0
C310 C 0.05331 0.2832 0.9997 0.0
C311 C 0.99355 0.22936 1.01815 0.0
C312 C 0.94688 0.18371 0.98851 0.0
C313 C 0.8888 0.12774 1.01878 0.0
C314 C 0.82573 0.12542 1.00848 0.0
C315 C 0.87943 0.061 1.01016 0.0
C316 C 0.91063 0.14862 1.06974 0.0
C317 C 0.97039 0.20863 1.06799 0.0
C318 C -0.00046 0.24061 1.10956 0.0
C319 C 0.96823 0.21057 1.15382 0.0
C320 C 0.90868 0.14694 1.15795 0.0
C321 C 0.8795 0.11579 1.11453 0.0
H322 H 0.99172 0.91735 0.64874 0.0
H323 H 0.13885 0.89396 0.58408 0.0
H324 H 0.11114 0.91712 0.5046 0.0
H325 H 0.87271 0.85015 0.54814 0.0
H326 H 0.85069 0.90939 0.55457 0.0
H327 H 0.87551 0.88196 0.6056 0.0
H328 H 0.95959 0.0015 0.62089 0.0
H329 H 0.94552 0.0343 0.56718 0.0
H330 H 0.02594 0.05119 0.57911 0.0
H331 H 0.06324 0.93788 0.42997 0.0
H332 H 0.01407 -0.02772 0.36879 0.0
H333 H 0.90878 0.00083 0.47916 0.0
C334 C 0.01707 0.91564 0.61775 0.0
C335 C 0.06705 0.90215 0.62337 0.0
C336 C 0.10008 0.903 0.58143 0.0
C337 C 0.08443 0.91609 0.53577 0.0
C338 C 0.03582 0.92979 0.53144 0.0
C339 C 0.00283 0.9302 0.57136 0.0
C340 C 0.95625 0.95158 0.55658 0.0
C341 C 0.88453 0.8949 0.56685 0.0
C342 C 0.97268 0.01338 0.58237 0.0
C343 C 0.9701 0.96558 0.50258 0.0
C344 C 0.01411 0.94967 0.48885 0.0
C345 C 0.02979 0.95162 0.44068 0.0
C346 C 0.00122 -0.02882 0.40584 0.0
C347 C 0.95842 -0.00875 0.41826 0.0
C348 C 0.94273 -0.01201 0.46789 0.0
H349 H 0.09699 0.83988 0.94982 0.0
H350 H 0.28874 -0.02625 0.88299 0.0
H351 H 0.33439 0.01799 0.96069 0.0
H352 H 0.10877 0.95166 1.03561 0.0
H353 H 0.06905 0.89183 1.08451 0.0
H354 H 0.04961 0.86623 1.02419 0.0
H355 H 0.08007 0.78063 1.03893 0.0
H356 H 0.09843 0.80485 1.09961 0.0
H357 H 0.15944 0.80692 1.06185 0.0
H358 H 0.3589 0.05848 1.04525 0.0
H359 H 0.36264 0.07971 1.13095 0.0
H360 H 0.16023 0.91476 1.14898 0.0
C361 C 0.14902 0.87678 0.95176 0.0
C362 C 0.18923 0.90195 0.9092 0.0
C363 C 0.2566 0.95239 0.91424 0.0
C364 C 0.2832 -0.02151 0.9586 0.0
C365 C 0.24263 0.95416 0.99933 0.0
C366 C 0.17716 0.90343 0.99672 0.0
C367 C 0.14503 0.88726 1.04671 0.0
C368 C 0.08981 0.89997 1.04781 0.0
C369 C 0.1192 0.81564 1.06272 0.0
C370 C 0.20243 0.93636 1.07729 0.0
C371 C 0.25793 -0.02466 1.04882 0.0
C372 C 0.31586 0.02717 1.06789 0.0
C373 C 0.31763 0.03912 1.11697 0.0
C374 C 0.26248 -0.00121 1.14789 0.0
C375 C 0.20407 0.94628 1.12712 0.0
H376 H 0.71233 0.75253 1.05073 0.0
H377 H 0.73186 0.63175 1.1579 0.0
H378 H 0.73922 0.56775 1.09499 0.0
H379 H 0.62065 0.62872 0.96108 0.0
H380 H 0.66905 0.68592 0.91264 0.0
H381 H 0.65516 0.71542 0.96631 0.0
H382 H 0.77964 0.79571 0.97245 0.0
H383 H 0.79673 0.76452 0.92128 0.0
H384 H 0.83146 0.76425 0.97733 0.0
H385 H 0.76701 0.53347 1.02183 0.0
H386 H 0.81046 0.52983 0.94456 0.0
H387 H 0.75245 0.65703 0.88274 0.0
C388 C 0.71606 0.71126 1.06095 0.0
C389 C 0.72062 0.69643 1.10911 0.0
C390 C 0.72702 0.64308 1.1212 0.0
C391 C 0.7315 0.60665 1.08574 0.0
C392 C 0.72773 0.62308 1.03851 0.0
C393 C 0.71956 0.67374 1.02604 0.0
C394 C 0.7263 0.68745 0.97282 0.0
C395 C 0.66404 0.67879 0.952 0.0
C396 C 0.78703 0.75709 0.96028 0.0
C397 C 0.73697 0.63488 0.95727 0.0
C398 C 0.73957 0.59961 0.99572 0.0
C399 C 0.76289 0.55898 0.99111 0.0
C400 C 0.78701 0.55673 0.94646 0.0
C401 C 0.78607 0.5936 0.90648 0.0
C402 C 0.75601 0.62917 0.91198 0.0
H403 H 0.19644 0.72184 0.52529 0.0
H404 H 0.32462 0.81312 0.40124 0.0
H405 H 0.41836 0.87902 0.45239 0.0
H406 H 0.23607 0.84282 0.57611 0.0
H407 H 0.2403 0.82436 0.63766 0.0
H408 H 0.1907 0.7584 0.59956 0.0
H409 H 0.25069 0.70124 0.61729 0.0
H410 H 0.30052 0.76268 0.65946 0.0
H411 H 0.33876 0.74622 0.61226 0.0
H412 H 0.47757 0.96724 0.50795 0.0
H413 H 0.50348 0.05087 0.56713 0.0
H414 H 0.34649 0.90041 0.65945 0.0
C415 C 0.24523 0.75234 0.50928 0.0
C416 C 0.2531 0.76416 0.45962 0.0
C417 C 0.31722 0.80417 0.43933 0.0
C418 C 0.371 0.84197 0.46817 0.0
C419 C 0.36019 0.83692 0.51717 0.0
C420 C 0.29943 0.79018 0.53789 0.0
C421 C 0.29695 0.80291 0.58979 0.0
C422 C 0.23755 0.80737 0.60136 0.0
C423 C 0.29667 0.75008 0.62161 0.0
C424 C 0.36144 0.86876 0.59311 0.0
C425 C 0.39832 0.88707 0.55124 0.0
C426 C 0.45155 0.95209 0.542 0.0
C427 C 0.46603 -0.00052 0.57562 0.0
C428 C 0.42833 -0.0189 0.61827 0.0
C429 C 0.37779 0.91451 0.62794 0.0
H430 H 0.50892 0.33784 0.90596 0.0
H431 H 0.46533 0.48688 0.92296 0.0
H432 H 0.53552 0.52636 0.99195 0.0
H433 H 0.47785 0.28743 1.01563 0.0
H434 H 0.5377 0.26647 1.0239 0.0
H435 H 0.50967 0.26791 0.9656 0.0
H436 H 0.62889 0.35008 0.93629 0.0
H437 H 0.65862 0.35115 0.99511 0.0
H438 H 0.67941 0.42701 0.96466 0.0
H439 H 0.57446 0.52599 1.06924 0.0
H440 H 0.56981 0.47983 1.14848 0.0
H441 H 0.59591 0.33381 1.0873 0.0
C442 C 0.51715 0.38109 0.92284 0.0
C443 C 0.48175 0.40926 0.90902 0.0
C444 C 0.49293 0.46526 0.93206 0.0
C445 C 0.53342 0.48852 0.9713 0.0
C446 C 0.56359 0.45636 0.98662 0.0
C447 C 0.55655 0.40399 0.96271 0.0
C448 C 0.57832 0.36658 0.99278 0.0
C449 C 0.52257 0.29287 0.99991 0.0
C450 C 0.64002 0.37421 0.97094 0.0
C451 C 0.5932 0.40249 1.03872 0.0
C452 C 0.58634 0.45539 1.03385 0.0
C453 C 0.58222 0.48623 1.07327 0.0
C454 C 0.58013 0.4597 1.11862 0.0
C455 C 0.58136 0.40214 1.12431 0.0
C456 C 0.5943 0.37748 1.084 0.0
H457 H 0.04529 0.52835 0.41935 0.0
H458 H 0.85179 0.38751 0.36824 0.0
H459 H 0.80304 0.41612 0.42985 0.0
H460 H 0.0242 0.47161 0.51667 0.0
H461 H 0.06527 0.54146 0.55422 0.0
H462 H 0.08865 0.55227 0.49304 0.0
H463 H 0.06609 0.64392 0.48262 0.0
H464 H 0.04275 0.63317 0.54479 0.0
H465 H 0.98762 0.62857 0.50022 0.0
H466 H 0.77126 0.40883 0.51088 0.0
H467 H 0.76359 0.36363 0.59162 0.0
H468 H 0.97408 0.49286 0.60272 0.0
C469 C 0.99278 0.50573 0.42037 0.0
C470 C 0.95257 0.45348 0.39042 0.0
C471 C 0.88447 0.42719 0.39082 0.0
C472 C 0.85597 0.44332 0.42633 0.0
C473 C 0.89574 0.48478 0.46174 0.0
C474 C 0.96367 0.51767 0.45825 0.0
C475 C 0.99406 0.54168 0.50633 0.0
C476 C 0.04581 0.52549 0.5182 0.0
C477 C 0.02433 0.61624 0.50864 0.0
C478 C 0.93299 0.50332 0.53825 0.0
C479 C 0.8767 0.47708 0.51179 0.0
C480 C 0.81489 0.4302 0.53189 0.0
C481 C 0.81094 0.40402 0.57779 0.0
C482 C 0.86861 0.42351 0.60277 0.0
C483 C 0.92931 0.4777 0.58447 0.0
loop_
_geom_bond_atom_site_label_1
_geom_bond_atom_site_label_2
_geom_bond_distance
_geom_bond_site_symmetry_2
_ccdc_geom_bond_type
Eu0 C9 2.828 . S
Eu0 O11 2.392 . S
Eu0 O13 2.418 . S
Eu0 O18 2.373 . S
Eu0 O21 2.488 . S
Eu0 O22 2.471 . S
Eu0 O23 2.349 . S
Eu1 O10 2.373 . S
Eu1 O14 2.488 . S
Eu1 O15 2.471 . S
Eu1 O16 2.349 . S
Eu1 O19 2.392 . S
Eu1 O20 2.418 . S
Eu1 C30 2.828 1_554 S
C2 O20 1.244 . S
C2 O23 1.265 . S
C3 C4 1.379 . S
C3 C7 1.373 1_545 S
C3 C9 1.505 . S
C4 C3 1.379 . S
C4 C6 1.369 . S
C4 H32 0.930 . S
C5 C7 1.383 . S
C5 C8 1.382 . S
C5 H33 0.930 . S
C6 C4 1.369 . S
C6 C8 1.392 1_545 S
C6 H34 0.930 . S
C7 C3 1.373 1_565 S
C7 C5 1.383 . S
C7 H35 0.931 . S
C8 C5 1.382 . S
C8 C6 1.392 1_565 S
C9 Eu0 2.828 . S
C9 C3 1.505 . S
C9 O21 1.249 . S
C9 O22 1.244 . S
O10 Eu1 2.373 . S
O10 C12 1.258 . S
O11 Eu0 2.392 . S
O11 C12 1.242 . S
C12 O10 1.258 . S
C12 O11 1.242 . S
O13 Eu0 2.418 . S
O13 C17 1.244 . S
O14 Eu1 2.488 . S
O14 C30 1.249 1_554 S
O15 Eu1 2.471 . S
O15 C30 1.244 1_554 S
O16 Eu1 2.349 . S
O16 C17 1.265 . S
C17 O13 1.244 . S
C17 O16 1.265 . S
O18 Eu0 2.373 . S
O18 C31 1.258 . S
O19 Eu1 2.392 . S
O19 C31 1.242 . S
O20 Eu1 2.418 . S
O20 C2 1.244 . S
O21 Eu0 2.488 . S
O21 C9 1.249 . S
O22 Eu0 2.471 . S
O22 C9 1.244 . S
O23 Eu0 2.349 . S
O23 C2 1.265 . S
C24 C25 1.379 . S
C24 C28 1.373 . S
C24 C30 1.505 . S
C25 C24 1.379 . S
C25 C27 1.369 . S
C25 H36 0.930 . S
C26 C28 1.383 . S
C26 C29 1.382 . S
C26 H37 0.930 . S
C27 C25 1.369 . S
C27 C29 1.392 . S
C27 H38 0.930 . S
C28 C24 1.373 . S
C28 C26 1.383 . S
C28 H39 0.931 . S
C29 C26 1.382 . S
C29 C27 1.392 . S
C30 Eu1 2.828 1_556 S
C30 O14 1.249 1_556 S
C30 O15 1.244 1_556 S
C30 C24 1.505 . S
C31 O18 1.258 . S
C31 O19 1.242 . S
H32 C4 0.930 . S
H33 C5 0.930 . S
H34 C6 0.930 . S
H35 C7 0.931 . S
H36 C25 0.930 . S
H37 C26 0.930 . S
H38 C27 0.930 . S
H39 C28 0.931 . S
Eu40 C49 2.828 . S
Eu40 O51 2.392 . S
Eu40 O53 2.418 . S
Eu40 O58 2.373 . S
Eu40 O61 2.488 . S
Eu40 O62 2.471 . S
Eu40 O63 2.349 . S
Eu41 O50 2.373 . S
Eu41 O54 2.488 . S
Eu41 O55 2.471 . S
Eu41 O56 2.349 . S
Eu41 O59 2.392 . S
Eu41 O60 2.418 . S
Eu41 C70 2.828 . S
C42 O60 1.244 . S
C42 O63 1.265 . S
C43 C44 1.379 . S
C43 C47 1.373 1_455 S
C43 C49 1.505 . S
C44 C43 1.379 . S
C44 C46 1.369 . S
C44 H72 0.930 . S
C45 C47 1.383 . S
C45 C48 1.382 . S
C45 H73 0.930 . S
C46 C44 1.369 . S
C46 C48 1.392 1_455 S
C46 H74 0.930 . S
C47 C43 1.373 1_655 S
C47 C45 1.383 . S
C47 H75 0.931 . S
C48 C45 1.382 . S
C48 C46 1.392 1_655 S
C49 Eu40 2.828 . S
C49 C43 1.505 . S
C49 O61 1.249 . S
C49 O62 1.244 . S
O50 Eu41 2.373 . S
O50 C52 1.258 . S
O51 Eu40 2.392 . S
O51 C52 1.242 . S
C52 O50 1.258 . S
C52 O51 1.242 . S
O53 Eu40 2.418 . S
O53 C57 1.244 . S
O54 Eu41 2.488 . S
O54 C70 1.249 . S
O55 Eu41 2.471 . S
O55 C70 1.244 . S
O56 Eu41 2.349 . S
O56 C57 1.265 . S
C57 O53 1.244 . S
C57 O56 1.265 . S
O58 Eu40 2.373 . S
O58 C71 1.258 . S
O59 Eu41 2.392 . S
O59 C71 1.242 . S
O60 Eu41 2.418 . S
O60 C42 1.244 . S
O61 Eu40 2.488 . S
O61 C49 1.249 . S
O62 Eu40 2.471 . S
O62 C49 1.244 . S
O63 Eu40 2.349 . S
O63 C42 1.265 . S
C64 C65 1.379 . S
C64 C68 1.373 . S
C64 C70 1.505 . S
C65 C64 1.379 . S
C65 C67 1.369 . S
C65 H76 0.930 . S
C66 C68 1.383 . S
C66 C69 1.382 . S
C66 H77 0.930 . S
C67 C65 1.369 . S
C67 C69 1.392 . S
C67 H78 0.930 . S
C68 C64 1.373 . S
C68 C66 1.383 . S
C68 H79 0.931 . S
C69 C66 1.382 . S
C69 C67 1.392 . S
C70 Eu41 2.828 . S
C70 O54 1.249 . S
C70 O55 1.244 . S
C70 C64 1.505 . S
C71 O58 1.258 . S
C71 O59 1.242 . S
H72 C44 0.930 . S
H73 C45 0.930 . S
H74 C46 0.930 . S
H75 C47 0.931 . S
H76 C65 0.930 . S
H77 C66 0.930 . S
H78 C67 0.930 . S
H79 C68 0.931 . S
Eu80 C89 2.828 . S
Eu80 O91 2.392 . S
Eu80 O93 2.418 . S
Eu80 O98 2.373 1_545 S
Eu80 O101 2.488 . S
Eu80 O102 2.471 . S
Eu80 O103 2.349 . S
Eu81 O90 2.373 1_565 S
Eu81 O94 2.488 . S
Eu81 O95 2.471 . S
Eu81 O96 2.349 . S
Eu81 O99 2.392 . S
Eu81 O100 2.418 . S
Eu81 C110 2.828 1_554 S
C82 O100 1.244 . S
C82 O103 1.265 1_565 S
C83 C84 1.379 . S
C83 C87 1.373 . S
C83 C89 1.505 . S
C84 C83 1.379 . S
C84 C86 1.369 . S
C84 H112 0.930 . S
C85 C87 1.383 . S
C85 C88 1.382 . S
C85 H113 0.930 . S
C86 C84 1.369 . S
C86 C88 1.392 . S
C86 H114 0.930 . S
C87 C83 1.373 . S
C87 C85 1.383 . S
C87 H115 0.931 . S
C88 C85 1.382 . S
C88 C86 1.392 . S
C89 Eu80 2.828 . S
C89 C83 1.505 . S
C89 O101 1.249 . S
C89 O102 1.244 . S
O90 Eu81 2.373 1_545 S
O90 C92 1.258 . S
O91 Eu80 2.392 . S
O91 C92 1.242 . S
C92 O90 1.258 . S
C92 O91 1.242 . S
O93 Eu80 2.418 . S
O93 C97 1.244 . S
O94 Eu81 2.488 . S
O94 C110 1.249 1_554 S
O95 Eu81 2.471 . S
O95 C110 1.244 1_554 S
O96 Eu81 2.349 . S
O96 C97 1.265 1_565 S
C97 O93 1.244 . S
C97 O96 1.265 1_545 S
O98 Eu80 2.373 1_565 S
O98 C111 1.258 . S
O99 Eu81 2.392 . S
O99 C111 1.242 . S
O100 Eu81 2.418 . S
O100 C82 1.244 . S
O101 Eu80 2.488 . S
O101 C89 1.249 . S
O102 Eu80 2.471 . S
O102 C89 1.244 . S
O103 Eu80 2.349 . S
O103 C82 1.265 1_545 S
C104 C105 1.379 . S
C104 C108 1.373 . S
C104 C110 1.505 . S
C105 C104 1.379 . S
C105 C107 1.369 . S
C105 H116 0.930 . S
C106 C108 1.383 . S
C106 C109 1.382 . S
C106 H117 0.930 . S
C107 C105 1.369 . S
C107 C109 1.392 . S
C107 H118 0.930 . S
C108 C104 1.373 . S
C108 C106 1.383 . S
C108 H119 0.931 . S
C109 C106 1.382 . S
C109 C107 1.392 . S
C110 Eu81 2.828 1_556 S
C110 O94 1.249 1_556 S
C110 O95 1.244 1_556 S
C110 C104 1.505 . S
C111 O98 1.258 . S
C111 O99 1.242 . S
H112 C84 0.930 . S
H113 C85 0.930 . S
H114 C86 0.930 . S
H115 C87 0.931 . S
H116 C105 0.930 . S
H117 C106 0.930 . S
H118 C107 0.930 . S
H119 C108 0.931 . S
Eu120 C129 2.828 . S
Eu120 O131 2.392 . S
Eu120 O133 2.418 . S
Eu120 O138 2.373 1_455 S
Eu120 O141 2.488 . S
Eu120 O142 2.471 . S
Eu120 O143 2.349 . S
Eu121 O130 2.373 1_655 S
Eu121 O134 2.488 . S
Eu121 O135 2.471 . S
Eu121 O136 2.349 . S
Eu121 O139 2.392 . S
Eu121 O140 2.418 . S
Eu121 C150 2.828 . S
C122 O140 1.244 . S
C122 O143 1.265 1_655 S
C123 C124 1.379 . S
C123 C127 1.373 . S
C123 C129 1.505 . S
C124 C123 1.379 . S
C124 C126 1.369 . S
C124 H152 0.930 . S
C125 C127 1.383 . S
C125 C128 1.382 . S
C125 H153 0.930 . S
C126 C124 1.369 . S
C126 C128 1.392 . S
C126 H154 0.930 . S
C127 C123 1.373 . S
C127 C125 1.383 . S
C127 H155 0.931 . S
C128 C125 1.382 . S
C128 C126 1.392 . S
C129 Eu120 2.828 . S
C129 C123 1.505 . S
C129 O141 1.249 . S
C129 O142 1.244 . S
O130 Eu121 2.373 1_455 S
O130 C132 1.258 . S
O131 Eu120 2.392 . S
O131 C132 1.242 . S
C132 O130 1.258 . S
C132 O131 1.242 . S
O133 Eu120 2.418 . S
O133 C137 1.244 . S
O134 Eu121 2.488 . S
O134 C150 1.249 . S
O135 Eu121 2.471 . S
O135 C150 1.244 . S
O136 Eu121 2.349 . S
O136 C137 1.265 1_655 S
C137 O133 1.244 . S
C137 O136 1.265 1_455 S
O138 Eu120 2.373 1_655 S
O138 C151 1.258 . S
O139 Eu121 2.392 . S
O139 C151 1.242 . S
O140 Eu121 2.418 . S
O140 C122 1.244 . S
O141 Eu120 2.488 . S
O141 C129 1.249 . S
O142 Eu120 2.471 . S
O142 C129 1.244 . S
O143 Eu120 2.349 . S
O143 C122 1.265 1_455 S
C144 C145 1.379 . S
C144 C148 1.373 . S
C144 C150 1.505 . S
C145 C144 1.379 . S
C145 C147 1.369 . S
C145 H156 0.930 . S
C146 C148 1.383 . S
C146 C149 1.382 . S
C146 H157 0.930 . S
C147 C145 1.369 . S
C147 C149 1.392 . S
C147 H158 0.930 . S
C148 C144 1.373 . S
C148 C146 1.383 . S
C148 H159 0.931 . S
C149 C146 1.382 . S
C149 C147 1.392 . S
C150 Eu121 2.828 . S
C150 O134 1.249 . S
C150 O135 1.244 . S
C150 C144 1.505 . S
C151 O138 1.258 . S
C151 O139 1.242 . S
H152 C124 0.930 . S
H153 C125 0.930 . S
H154 C126 0.930 . S
H155 C127 0.931 . S
H156 C145 0.930 . S
H157 C146 0.930 . S
H158 C147 0.930 . S
H159 C148 0.931 . S
H160 C172 0.930 . S
H161 C174 0.930 . S
H162 C175 0.922 1_565 S
H163 C179 0.959 . S
H164 C179 0.959 . S
H165 C179 0.961 . S
H166 C180 0.960 . S
H167 C180 0.961 . S
H168 C180 0.959 . S
H169 C183 0.929 . S
H170 C184 0.931 . S
H171 C186 0.930 . S
C172 H160 0.930 . S
C172 C173 1.399 1_545 S
C172 C177 1.399 1_655 S
C173 C172 1.399 1_565 S
C173 C174 1.376 . S
C174 H161 0.930 . S
C174 C173 1.376 . S
C174 C175 1.392 1_665 S
C175 H162 0.922 1_545 S
C175 C174 1.392 1_445 S
C175 C176 1.395 . S
C176 C175 1.395 . S
C176 C177 1.394 . S
C176 C182 1.465 . S
C177 C172 1.399 1_455 S
C177 C176 1.394 . S
C177 C178 1.516 . S
C178 C177 1.516 . S
C178 C179 1.502 . S
C178 C180 1.561 . S
C178 C181 1.526 . S
C179 H163 0.959 . S
C179 H164 0.959 . S
C179 H165 0.961 . S
C179 C178 1.502 . S
C180 H166 0.960 . S
C180 H167 0.961 . S
C180 H168 0.959 . S
C180 C178 1.561 . S
C181 C178 1.526 . S
C181 C182 1.396 . S
C181 C186 1.390 . S
C182 C176 1.465 . S
C182 C181 1.396 . S
C182 C183 1.399 . S
C183 H169 0.929 . S
C183 C182 1.399 . S
C183 C184 1.385 . S
C184 H170 0.931 . S
C184 C183 1.385 . S
C184 C185 1.389 . S
C185 C184 1.389 . S
C185 C186 1.387 . S
C186 H171 0.930 . S
C186 C181 1.390 . S
C186 C185 1.387 . S
H187 C199 0.930 . S
H188 C201 0.930 . S
H189 C202 0.930 . S
H190 C206 0.959 . S
H191 C206 0.959 . S
H192 C206 0.961 . S
H193 C207 0.960 . S
H194 C207 0.961 . S
H195 C207 0.959 . S
H196 C210 0.929 . S
H197 C211 0.931 . S
H198 C213 0.930 . S
C199 H187 0.930 . S
C199 C200 1.396 1_455 S
C199 C204 1.399 1_565 S
C200 C199 1.396 1_655 S
C200 C201 1.383 . S
C201 H188 0.930 . S
C201 C200 1.383 . S
C201 C202 1.388 1_665 S
C202 H189 0.930 . S
C202 C201 1.388 1_445 S
C202 C203 1.390 . S
C203 C202 1.390 . S
C203 C204 1.394 . S
C203 C209 1.465 . S
C204 C199 1.399 1_545 S
C204 C203 1.394 . S
C204 C205 1.516 . S
C205 C204 1.516 . S
C205 C206 1.502 . S
C205 C207 1.561 . S
C205 C208 1.526 . S
C206 H190 0.959 . S
C206 H191 0.959 . S
C206 H192 0.961 . S
C206 C205 1.502 . S
C207 H193 0.960 . S
C207 H194 0.961 . S
C207 H195 0.959 . S
C207 C205 1.561 . S
C208 C205 1.526 . S
C208 C209 1.396 . S
C208 C213 1.390 . S
C209 C203 1.465 . S
C209 C208 1.396 . S
C209 C210 1.399 . S
C210 H196 0.929 . S
C210 C209 1.399 . S
C210 C211 1.385 . S
C211 H197 0.931 . S
C211 C210 1.385 . S
C211 C212 1.389 . S
C212 C211 1.389 . S
C212 C213 1.387 . S
C213 H198 0.930 . S
C213 C208 1.390 . S
C213 C212 1.387 . S
H214 C226 0.930 1_565 S
H215 C228 0.930 . S
H216 C229 0.930 . S
H217 C233 0.959 . S
H218 C233 0.970 . S
H219 C233 0.961 . S
H220 C234 0.960 . S
H221 C234 0.961 . S
H222 C234 0.959 . S
H223 C237 0.929 . S
H224 C238 0.931 . S
H225 C240 0.930 . S
C226 H214 0.930 1_545 S
C226 C227 1.399 . S
C226 C231 1.399 . S
C227 C226 1.399 . S
C227 C228 1.376 . S
C228 H215 0.930 . S
C228 C227 1.376 . S
C228 C229 1.388 . S
C229 H216 0.930 . S
C229 C228 1.388 . S
C229 C230 1.390 . S
C230 C229 1.390 . S
C230 C231 1.394 . S
C230 C236 1.465 . S
C231 C226 1.399 . S
C231 C230 1.394 . S
C231 C232 1.516 . S
C232 C231 1.516 . S
C232 C233 1.502 1_545 S
C232 C234 1.561 . S
C232 C235 1.526 . S
C233 H217 0.959 . S
C233 H218 0.970 . S
C233 H219 0.961 . S
C233 C232 1.502 1_565 S
C234 H220 0.960 . S
C234 H221 0.961 . S
C234 H222 0.959 . S
C234 C232 1.561 . S
C235 C232 1.526 . S
C235 C236 1.396 . S
C235 C240 1.390 . S
C236 C230 1.465 . S
C236 C235 1.396 . S
C236 C237 1.399 . S
C237 H223 0.929 . S
C237 C236 1.399 . S
C237 C238 1.385 . S
C238 H224 0.931 . S
C238 C237 1.385 . S
C238 C239 1.389 . S
C239 C238 1.389 . S
C239 C240 1.387 . S
C240 H225 0.930 . S
C240 C235 1.390 . S
C240 C239 1.387 . S
H241 C253 0.930 . S
H242 C255 0.930 . S
H243 C256 0.930 . S
H244 C260 0.959 . S
H245 C260 0.959 . S
H246 C260 0.961 . S
H247 C261 0.960 . S
H248 C261 0.961 . S
H249 C261 0.959 . S
H250 C264 0.929 1_655 S
H251 C265 0.931 . S
H252 C267 0.930 . S
C253 H241 0.930 . S
C253 C254 1.399 . S
C253 C258 1.399 . S
C254 C253 1.399 . S
C254 C255 1.376 . S
C255 H242 0.930 . S
C255 C254 1.376 . S
C255 C256 1.388 . S
C256 H243 0.930 . S
C256 C255 1.388 . S
C256 C257 1.390 . S
C257 C256 1.390 . S
C257 C258 1.394 . S
C257 C263 1.465 . S
C258 C253 1.399 . S
C258 C257 1.394 . S
C258 C259 1.516 . S
C259 C258 1.516 . S
C259 C260 1.502 . S
C259 C261 1.561 . S
C259 C262 1.526 . S
C260 H244 0.959 . S
C260 H245 0.959 . S
C260 H246 0.961 . S
C260 C259 1.502 . S
C261 H247 0.960 . S
C261 H248 0.961 . S
C261 H249 0.959 . S
C261 C259 1.561 . S
C262 C259 1.526 . S
C262 C263 1.396 . S
C262 C267 1.390 . S
C263 C257 1.465 . S
C263 C262 1.396 . S
C263 C264 1.399 . S
C264 H250 0.929 1_455 S
C264 C263 1.399 . S
C264 C265 1.385 1_455 S
C265 H251 0.931 . S
C265 C264 1.385 1_655 S
C265 C266 1.389 . S
C266 C265 1.389 . S
C266 C267 1.387 1_655 S
C267 H252 0.930 . S
C267 C262 1.390 . S
C267 C266 1.387 1_455 S
H268 C280 0.930 . S
H269 C282 0.930 . S
H270 C283 0.930 . S
H271 C287 0.959 . S
H272 C287 0.959 . S
H273 C287 0.961 . S
H274 C288 0.960 . S
H275 C288 0.961 . S
H276 C288 0.959 . S
H277 C291 0.929 . S
H278 C292 0.931 . S
H279 C294 0.930 . S
C280 H268 0.930 . S
C280 C281 1.399 . S
C280 C285 1.399 . S
C281 C280 1.399 . S
C281 C282 1.376 . S
C282 H269 0.930 . S
C282 C281 1.376 . S
C282 C283 1.388 . S
C283 H270 0.930 . S
C283 C282 1.388 . S
C283 C284 1.390 . S
C284 C283 1.390 . S
C284 C285 1.394 . S
C284 C290 1.465 . S
C285 C280 1.399 . S
C285 C284 1.394 . S
C285 C286 1.516 . S
C286 C285 1.516 . S
C286 C287 1.502 . S
C286 C288 1.561 . S
C286 C289 1.526 . S
C287 H271 0.959 . S
C287 H272 0.959 . S
C287 H273 0.961 . S
C287 C286 1.502 . S
C288 H274 0.960 . S
C288 H275 0.961 . S
C288 H276 0.959 . S
C288 C286 1.561 . S
C289 C286 1.526 . S
C289 C290 1.396 . S
C289 C294 1.390 . S
C290 C284 1.465 . S
C290 C289 1.396 . S
C290 C291 1.399 . S
C291 H277 0.929 . S
C291 C290 1.399 . S
C291 C292 1.385 . S
C292 H278 0.931 . S
C292 C291 1.385 . S
C292 C293 1.389 . S
C293 C292 1.389 . S
C293 C294 1.387 . S
C294 H279 0.930 . S
C294 C289 1.390 . S
C294 C293 1.387 . S
H295 C307 0.930 1_655 S
H296 C309 0.930 . S
H297 C310 0.930 . S
H298 C314 0.959 . S
H299 C314 0.959 . S
H300 C314 0.961 . S
H301 C315 0.960 . S
H302 C315 0.961 . S
H303 C315 0.959 1_455 S
H304 C318 0.929 1_455 S
H305 C319 0.931 . S
H306 C321 0.930 . S
C307 H295 0.930 1_455 S
C307 C308 1.399 . S
C307 C312 1.399 1_455 S
C308 C307 1.399 . S
C308 C309 1.376 . S
C309 H296 0.930 . S
C309 C308 1.376 . S
C309 C310 1.388 . S
C310 H297 0.930 . S
C310 C309 1.388 . S
C310 C311 1.390 . S
C311 C310 1.390 . S
C311 C312 1.394 1_455 S
C311 C317 1.465 1_455 S
C312 C307 1.399 1_655 S
C312 C311 1.394 1_655 S
C312 C313 1.516 . S
C313 C312 1.516 . S
C313 C314 1.502 . S
C313 C315 1.561 . S
C313 C316 1.526 . S
C314 H298 0.959 . S
C314 H299 0.959 . S
C314 H300 0.961 . S
C314 C313 1.502 . S
C315 H301 0.960 . S
C315 H302 0.961 . S
C315 H303 0.959 1_655 S
C315 C313 1.561 . S
C316 C313 1.526 . S
C316 C317 1.396 . S
C316 C321 1.390 . S
C317 C311 1.465 1_655 S
C317 C316 1.396 . S
C317 C318 1.399 . S
C318 H304 0.929 1_655 S
C318 C317 1.399 . S
C318 C319 1.385 . S
C319 H305 0.931 . S
C319 C318 1.385 . S
C319 C320 1.389 . S
C320 C319 1.389 . S
C320 C321 1.387 . S
C321 H306 0.930 . S
C321 C316 1.390 . S
C321 C320 1.387 . S
H322 C334 0.930 . S
H323 C336 0.930 . S
H324 C337 0.930 . S
H325 C341 0.959 . S
H326 C341 0.959 1_545 S
H327 C341 0.961 . S
H328 C342 0.960 1_455 S
H329 C342 0.961 . S
H330 C342 0.959 . S
H331 C345 0.929 . S
H332 C346 0.931 . S
H333 C348 0.930 . S
C334 H322 0.930 . S
C334 C335 1.399 . S
C334 C339 1.399 . S
C335 C334 1.399 . S
C335 C336 1.376 . S
C336 H323 0.930 . S
C336 C335 1.376 . S
C336 C337 1.388 . S
C337 H324 0.930 . S
C337 C336 1.388 . S
C337 C338 1.390 . S
C338 C337 1.390 . S
C338 C339 1.394 . S
C338 C344 1.465 . S
C339 C334 1.399 . S
C339 C338 1.394 . S
C339 C340 1.516 . S
C340 C339 1.516 . S
C340 C341 1.502 . S
C340 C342 1.561 . S
C340 C343 1.526 . S
C341 H325 0.959 . S
C341 H326 0.959 1_565 S
C341 H327 0.961 . S
C341 C340 1.502 . S
C342 H328 0.960 1_655 S
C342 H329 0.961 . S
C342 H330 0.959 . S
C342 C340 1.561 . S
C343 C340 1.526 . S
C343 C344 1.396 . S
C343 C348 1.390 . S
C344 C338 1.465 . S
C344 C343 1.396 . S
C344 C345 1.399 . S
C345 H331 0.929 . S
C345 C344 1.399 . S
C345 C346 1.385 . S
C346 H332 0.931 . S
C346 C345 1.385 . S
C346 C347 1.389 . S
C347 C346 1.389 . S
C347 C348 1.387 . S
C348 H333 0.930 . S
C348 C343 1.390 . S
C348 C347 1.387 . S
H349 C361 0.930 . S
H350 C363 0.930 1_545 S
H351 C364 0.930 . S
H352 C368 0.959 . S
H353 C368 0.959 . S
H354 C368 0.961 . S
H355 C369 0.960 . S
H356 C369 0.961 . S
H357 C369 0.959 . S
H358 C372 0.929 . S
H359 C373 0.931 . S
H360 C375 0.930 . S
C361 H349 0.930 . S
C361 C362 1.399 . S
C361 C366 1.399 . S
C362 C361 1.399 . S
C362 C363 1.376 . S
C363 H350 0.930 1_565 S
C363 C362 1.376 . S
C363 C364 1.388 1_565 S
C364 H351 0.930 . S
C364 C363 1.388 1_545 S
C364 C365 1.390 1_545 S
C365 C364 1.390 1_565 S
C365 C366 1.394 . S
C365 C371 1.465 1_565 S
C366 C361 1.399 . S
C366 C365 1.394 . S
C366 C367 1.516 . S
C367 C366 1.516 . S
C367 C368 1.502 . S
C367 C369 1.561 . S
C367 C370 1.526 . S
C368 H352 0.959 . S
C368 H353 0.959 . S
C368 H354 0.961 . S
C368 C367 1.502 . S
C369 H355 0.960 . S
C369 H356 0.961 . S
C369 H357 0.959 . S
C369 C367 1.561 . S
C370 C367 1.526 . S
C370 C371 1.396 1_565 S
C370 C375 1.390 . S
C371 C365 1.465 1_545 S
C371 C370 1.396 1_545 S
C371 C372 1.399 . S
C372 H358 0.929 . S
C372 C371 1.399 . S
C372 C373 1.385 . S
C373 H359 0.931 . S
C373 C372 1.385 . S
C373 C374 1.389 . S
C374 C373 1.389 . S
C374 C375 1.387 1_545 S
C375 H360 0.930 . S
C375 C370 1.390 . S
C375 C374 1.387 1_565 S
H376 C388 0.930 . S
H377 C390 0.930 . S
H378 C391 0.930 . S
H379 C395 0.959 . S
H380 C395 0.959 . S
H381 C395 0.961 . S
H382 C396 0.960 . S
H383 C396 0.961 . S
H384 C396 0.959 . S
H385 C399 0.929 . S
H386 C400 0.931 . S
H387 C402 0.930 . S
C388 H376 0.930 . S
C388 C389 1.399 . S
C388 C393 1.399 . S
C389 C388 1.399 . S
C389 C390 1.376 . S
C390 H377 0.930 . S
C390 C389 1.376 . S
C390 C391 1.388 . S
C391 H378 0.930 . S
C391 C390 1.388 . S
C391 C392 1.390 . S
C392 C391 1.390 . S
C392 C393 1.394 . S
C392 C398 1.465 . S
C393 C388 1.399 . S
C393 C392 1.394 . S
C393 C394 1.516 . S
C394 C393 1.516 . S
C394 C395 1.502 . S
C394 C396 1.561 . S
C394 C397 1.526 . S
C395 H379 0.959 . S
C395 H380 0.959 . S
C395 H381 0.961 . S
C395 C394 1.502 . S
C396 H382 0.960 . S
C396 H383 0.961 . S
C396 H384 0.959 . S
C396 C394 1.561 . S
C397 C394 1.526 . S
C397 C398 1.396 . S
C397 C402 1.390 . S
C398 C392 1.465 . S
C398 C397 1.396 . S
C398 C399 1.399 . S
C399 H385 0.929 . S
C399 C398 1.399 . S
C399 C400 1.385 . S
C400 H386 0.931 . S
C400 C399 1.385 . S
C400 C401 1.389 . S
C401 C400 1.389 . S
C401 C402 1.387 . S
C402 H387 0.930 . S
C402 C397 1.390 . S
C402 C401 1.387 . S
H403 C415 0.930 . S
H404 C417 0.930 . S
H405 C418 0.930 . S
H406 C422 0.959 . S
H407 C422 0.959 . S
H408 C422 0.961 . S
H409 C423 0.960 . S
H410 C423 0.961 . S
H411 C423 0.959 . S
H412 C426 0.929 1_545 S
H413 C427 0.931 . S
H414 C429 0.930 . S
C415 H403 0.930 . S
C415 C416 1.399 1_565 S
C415 C420 1.399 . S
C416 C415 1.399 1_545 S
C416 C417 1.376 . S
C417 H404 0.930 . S
C417 C416 1.376 . S
C417 C418 1.388 . S
C418 H405 0.930 . S
C418 C417 1.388 . S
C418 C419 1.390 1_545 S
C419 C418 1.390 1_565 S
C419 C420 1.394 . S
C419 C425 1.465 . S
C420 C415 1.399 . S
C420 C419 1.394 . S
C420 C421 1.516 . S
C421 C420 1.516 . S
C421 C422 1.502 . S
C421 C423 1.561 . S
C421 C424 1.526 . S
C422 H406 0.959 . S
C422 H407 0.959 . S
C422 H408 0.961 . S
C422 C421 1.502 . S
C423 H409 0.960 . S
C423 H410 0.961 . S
C423 H411 0.959 . S
C423 C421 1.561 . S
C424 C421 1.526 . S
C424 C425 1.396 . S
C424 C429 1.390 . S
C425 C419 1.465 . S
C425 C424 1.396 . S
C425 C426 1.399 . S
C426 H412 0.929 1_565 S
C426 C425 1.399 . S
C426 C427 1.385 . S
C427 H413 0.931 . S
C427 C426 1.385 . S
C427 C428 1.389 . S
C428 C427 1.389 . S
C428 C429 1.387 . S
C429 H414 0.930 . S
C429 C424 1.390 . S
C429 C428 1.387 . S
H430 C442 0.930 . S
H431 C444 0.930 . S
H432 C445 0.930 . S
H433 C449 0.959 . S
H434 C449 0.959 . S
H435 C449 0.961 . S
H436 C450 0.960 . S
H437 C450 0.961 . S
H438 C450 0.959 . S
H439 C453 0.929 . S
H440 C454 0.931 . S
H441 C456 0.930 . S
C442 H430 0.930 . S
C442 C443 1.399 . S
C442 C447 1.399 . S
C443 C442 1.399 . S
C443 C444 1.376 . S
C444 H431 0.930 . S
C444 C443 1.376 . S
C444 C445 1.388 . S
C445 H432 0.930 . S
C445 C444 1.388 . S
C445 C446 1.390 . S
C446 C445 1.390 . S
C446 C447 1.394 . S
C446 C452 1.465 . S
C447 C442 1.399 . S
C447 C446 1.394 . S
C447 C448 1.516 . S
C448 C447 1.516 . S
C448 C449 1.502 . S
C448 C450 1.561 . S
C448 C451 1.526 . S
C449 H433 0.959 . S
C449 H434 0.959 . S
C449 H435 0.961 . S
C449 C448 1.502 . S
C450 H436 0.960 . S
C450 H437 0.961 . S
C450 H438 0.959 . S
C450 C448 1.561 . S
C451 C448 1.526 . S
C451 C452 1.396 . S
C451 C456 1.390 . S
C452 C446 1.465 . S
C452 C451 1.396 . S
C452 C453 1.399 . S
C453 H439 0.929 . S
C453 C452 1.399 . S
C453 C454 1.385 . S
C454 H440 0.931 . S
C454 C453 1.385 . S
C454 C455 1.389 . S
C455 C454 1.389 . S
C455 C456 1.387 . S
C456 H441 0.930 . S
C456 C451 1.390 . S
C456 C455 1.387 . S
H457 C469 0.930 . S
H458 C471 0.930 . S
H459 C472 0.930 . S
H460 C476 0.959 . S
H461 C476 0.959 . S
H462 C476 0.961 . S
H463 C477 0.960 . S
H464 C477 0.961 1_455 S
H465 C477 0.959 . S
H466 C480 0.929 . S
H467 C481 0.931 . S
H468 C483 0.930 . S
C469 H457 0.930 . S
C469 C470 1.399 . S
C469 C474 1.399 . S
C470 C469 1.399 . S
C470 C471 1.376 . S
C471 H458 0.930 . S
C471 C470 1.376 . S
C471 C472 1.388 . S
C472 H459 0.930 . S
C472 C471 1.388 . S
C472 C473 1.390 . S
C473 C472 1.390 . S
C473 C474 1.394 . S
C473 C479 1.465 . S
C474 C469 1.399 . S
C474 C473 1.394 . S
C474 C475 1.516 . S
C475 C474 1.516 . S
C475 C476 1.502 1_655 S
C475 C477 1.561 . S
C475 C478 1.526 . S
C476 H460 0.959 . S
C476 H461 0.959 . S
C476 H462 0.961 . S
C476 C475 1.502 1_455 S
C477 H463 0.960 . S
C477 H464 0.961 1_655 S
C477 H465 0.959 . S
C477 C475 1.561 . S
C478 C475 1.526 . S
C478 C479 1.396 . S
C478 C483 1.390 1_655 S
C479 C473 1.465 . S
C479 C478 1.396 . S
C479 C480 1.399 . S
C480 H466 0.929 . S
C480 C479 1.399 . S
C480 C481 1.385 . S
C481 H467 0.931 . S
C481 C480 1.385 . S
C481 C482 1.389 1_655 S
C482 C481 1.389 1_455 S
C482 C483 1.387 . S
C483 H468 0.930 . S
C483 C478 1.390 1_455 S
C483 C482 1.387 . S
C173 C97 0.745 1_565 S
C185 C17 0.561 . S
C200 C137 0.723 1_655 S
C212 C57 0.599 . S
C227 C82 1.204 1_545 S
C239 C2 1.236 . S
C254 C42 1.203 . S
C266 C122 1.233 . S
C281 C71 4.683 . S
C293 C31 4.676 . S
C308 C52 4.456 . S
C320 C92 4.455 1_556 S
C335 C151 4.691 . S
C347 C111 4.690 . S
C362 C132 4.450 . S
C374 C12 4.451 1_556 S
C389 C109 0.802 . S
C401 C149 0.936 . S
C416 C8 1.216 1_545 S
C428 C128 1.130 . S
C443 C69 0.897 . S
C455 C29 0.830 . S
C470 C88 1.227 . S
C482 C48 1.140 1_455 S
