# Generated by pormake.
# Topology wjg, (4)-cn, num edge types: 1
# Building blocks:
#     Node 0, Type 0, BuildingBlock: ICAMEG_clean_sbu_1, # of connection points: 4
#     Node 1, Type 0, BuildingBlock: ICAMEG_clean_sbu_1, # of connection points: 4
#     Node 2, Type 0, BuildingBlock: ICAMEG_clean_sbu_1, # of connection points: 4
#     Node 3, Type 0, BuildingBlock: ICAMEG_clean_sbu_1, # of connection points: 4
#     Node 4, Type 0, BuildingBlock: ICAMEG_clean_sbu_1, # of connection points: 4
#     Node 5, Type 0, BuildingBlock: ICAMEG_clean_sbu_1, # of connection points: 4
#     Node 6, Type 0, BuildingBlock: ICAMEG_clean_sbu_1, # of connection points: 4
#     Node 7, Type 0, BuildingBlock: ICAMEG_clean_sbu_1, # of connection points: 4
#     Node 8, Type 0, BuildingBlock: ICAMEG_clean_sbu_1, # of connection points: 4
#     Node 9, Type 0, BuildingBlock: ICAMEG_clean_sbu_1, # of connection points: 4
#     Node 10, Type 0, BuildingBlock: ICAMEG_clean_sbu_1, # of connection points: 4
#     Node 11, Type 0, BuildingBlock: ICAMEG_clean_sbu_1, # of connection points: 4
#     Edge 12, Type (0, 0), BuildingBlock: UVAHIK_clean_linker_0, # of connection points: 2
#     Edge 13, Type (0, 0), BuildingBlock: UVAHIK_clean_linker_0, # of connection points: 2
#     Edge 14, Type (0, 0), BuildingBlock: UVAHIK_clean_linker_0, # of connection points: 2
#     Edge 15, Type (0, 0), BuildingBlock: UVAHIK_clean_linker_0, # of connection points: 2
#     Edge 16, Type (0, 0), BuildingBlock: UVAHIK_clean_linker_0, # of connection points: 2
#     Edge 17, Type (0, 0), BuildingBlock: UVAHIK_clean_linker_0, # of connection points: 2
#     Edge 18, Type (0, 0), BuildingBlock: UVAHIK_clean_linker_0, # of connection points: 2
#     Edge 19, Type (0, 0), BuildingBlock: UVAHIK_clean_linker_0, # of connection points: 2
#     Edge 20, Type (0, 0), BuildingBlock: UVAHIK_clean_linker_0, # of connection points: 2
#     Edge 21, Type (0, 0), BuildingBlock: UVAHIK_clean_linker_0, # of connection points: 2
#     Edge 22, Type (0, 0), BuildingBlock: UVAHIK_clean_linker_0, # of connection points: 2
#     Edge 23, Type (0, 0), BuildingBlock: UVAHIK_clean_linker_0, # of connection points: 2
#     Edge 24, Type (0, 0), BuildingBlock: UVAHIK_clean_linker_0, # of connection points: 2
#     Edge 25, Type (0, 0), BuildingBlock: UVAHIK_clean_linker_0, # of connection points: 2
#     Edge 26, Type (0, 0), BuildingBlock: UVAHIK_clean_linker_0, # of connection points: 2
#     Edge 27, Type (0, 0), BuildingBlock: UVAHIK_clean_linker_0, # of connection points: 2
#     Edge 28, Type (0, 0), BuildingBlock: UVAHIK_clean_linker_0, # of connection points: 2
#     Edge 29, Type (0, 0), BuildingBlock: UVAHIK_clean_linker_0, # of connection points: 2
#     Edge 30, Type (0, 0), BuildingBlock: UVAHIK_clean_linker_0, # of connection points: 2
#     Edge 31, Type (0, 0), BuildingBlock: UVAHIK_clean_linker_0, # of connection points: 2
#     Edge 32, Type (0, 0), BuildingBlock: UVAHIK_clean_linker_0, # of connection points: 2
#     Edge 33, Type (0, 0), BuildingBlock: UVAHIK_clean_linker_0, # of connection points: 2
#     Edge 34, Type (0, 0), BuildingBlock: UVAHIK_clean_linker_0, # of connection points: 2
#     Edge 35, Type (0, 0), BuildingBlock: UVAHIK_clean_linker_0, # of connection points: 2
# Relax obj value: 0.335
# Max RMSD: 0.121
# Mean RMSD: 0.117
data_MOF--net-wjg--node1-ICAMEG_clean_sbu_1--edge1-UVAHIK_clean_linker_0
_symmetry_space_group_name_H-M    P1
_symmetry_Int_Tables_number       1
_symmetry_cell_setting            triclinic
loop_
_symmetry_equiv_pos_as_xyz
'x, y, z'
_cell_length_a     41.884418
_cell_length_b     41.669839
_cell_length_c     55.007646
_cell_angle_alpha  90.012226
_cell_angle_beta   89.983593
_cell_angle_gamma 120.15657
loop_
_atom_site_label
_atom_site_type_symbol
_atom_site_fract_x
_atom_site_fract_y
_atom_site_fract_z
_atom_type_partial_charge
Co0 Co 0.20006 0.45098 0.32149 0.0
Co1 Co 0.10902 0.38319 0.32931 0.0
O2 O 0.14771 0.42913 0.31483 0.0
C3 C 0.18801 0.51343 0.33363 0.0
O4 O 0.16149 0.49126 0.34848 0.0
C5 C 0.10219 0.37052 0.27683 0.0
O6 O 0.1378 0.38279 0.2774 0.0
O7 O 0.13642 0.35653 0.32269 0.0
O8 O 0.19603 0.40129 0.32212 0.0
H9 H 0.05689 0.2697 0.38232 0.0
H10 H 0.17585 0.47843 0.2797 0.0
O11 O 0.20546 0.50143 0.32115 0.0
H12 H 0.2532 0.43199 0.24435 0.0
H13 H 0.33434 0.54736 0.31181 0.0
H14 H 0.24484 0.43339 0.35483 0.0
H15 H 0.24327 0.42993 0.28866 0.0
H16 H 0.26771 0.51784 0.30301 0.0
O17 O 0.08492 0.36793 0.2965 0.0
H18 H 0.10635 0.32791 0.36451 0.0
H19 H 0.02737 0.34015 0.32334 0.0
H20 H 0.31123 0.46182 0.36404 0.0
H21 H 0.18527 0.48128 0.23531 0.0
H22 H 0.35649 0.51922 0.34245 0.0
H23 H 0.22407 0.45781 0.21736 0.0
O24 O 0.19069 0.44702 0.35706 0.0
H25 H 0.05589 0.46455 0.30909 0.0
H26 H 0.07174 0.39097 0.37318 0.0
H27 H 0.03864 0.4245 0.38257 0.0
H28 H 0.03047 0.46155 0.35037 0.0
H29 H 0.08905 0.43083 0.30054 0.0
H30 H 0.97704 0.28189 0.34054 0.0
H31 H 0.99168 0.24635 0.37034 0.0
O32 O 0.13343 0.39787 0.36202 0.0
C33 C 0.17076 0.36724 0.322 0.0
C34 C 0.05014 0.28503 0.36944 0.0
C35 C 0.00533 0.29184 0.34596 0.0
N36 N 0.06969 0.3376 0.34315 0.0
C37 C 0.07802 0.31808 0.35938 0.0
C38 C 0.03393 0.32477 0.33626 0.0
C39 C 0.01356 0.27192 0.36269 0.0
C40 C 0.19312 0.46857 0.27204 0.0
N41 N 0.20915 0.45423 0.28676 0.0
C42 C 0.19822 0.4701 0.24689 0.0
C43 C 0.21994 0.45686 0.23683 0.0
C44 C 0.23627 0.44234 0.25196 0.0
C45 C 0.2305 0.44119 0.27703 0.0
C46 C 0.3149 0.52228 0.32128 0.0
C47 C 0.26439 0.45821 0.34523 0.0
C48 C 0.27714 0.50547 0.3164 0.0
N49 N 0.25246 0.47369 0.3282 0.0
C50 C 0.30194 0.47425 0.35058 0.0
C51 C 0.32731 0.50648 0.33847 0.0
C52 C 0.1644 0.42336 0.37038 0.0
C53 C 0.05917 0.44841 0.32325 0.0
C54 C 0.06838 0.40712 0.35909 0.0
C55 C 0.04955 0.42598 0.3645 0.0
C56 C 0.04496 0.44675 0.34642 0.0
N57 N 0.08211 0.40877 0.3363 0.0
C58 C 0.07781 0.42915 0.31849 0.0
Co59 Co 0.74666 0.19063 0.66038 0.0
Co60 Co 0.73475 0.10294 0.66317 0.0
O61 O 0.72224 0.13893 0.6504 0.0
C62 C 0.66874 0.17055 0.66964 0.0
O63 O 0.66549 0.14513 0.68515 0.0
C64 C 0.7419 0.10026 0.6102 0.0
O65 O 0.76261 0.13652 0.61142 0.0
O66 O 0.78829 0.13666 0.65662 0.0
O67 O 0.79532 0.19302 0.6633 0.0
H68 H 0.80655 0.05968 0.71299 0.0
H69 H 0.70165 0.16778 0.61537 0.0
O70 O 0.6986 0.1898 0.65781 0.0
H71 H 0.82737 0.26095 0.58928 0.0
H72 H 0.7709 0.32177 0.65699 0.0
H73 H 0.80085 0.23539 0.69862 0.0
H74 H 0.81373 0.24401 0.63255 0.0
H75 H 0.74185 0.25633 0.6441 0.0
O76 O 0.72833 0.08146 0.6296 0.0
H77 H 0.79081 0.10549 0.69732 0.0
H78 H 0.70459 0.02223 0.65454 0.0
H79 H 0.8308 0.30066 0.71197 0.0
H80 H 0.714 0.18414 0.57193 0.0
H81 H 0.81587 0.34436 0.69109 0.0
H82 H 0.77728 0.23093 0.55864 0.0
O83 O 0.73683 0.17577 0.69503 0.0
H84 H 0.59938 0.03643 0.64313 0.0
H85 H 0.69199 0.05855 0.70614 0.0
H86 H 0.62583 0.01779 0.71524 0.0
H87 H 0.57902 0.00644 0.68358 0.0
H88 H 0.66581 0.07723 0.63487 0.0
H89 H 0.71959 0.97555 0.66956 0.0
H90 H 0.7708 0.99417 0.69909 0.0
O91 O 0.74174 0.12441 0.69685 0.0
C92 C 0.80834 0.17149 0.66008 0.0
C93 C 0.78408 0.05119 0.70021 0.0
C94 C 0.73531 0.00398 0.6758 0.0
N95 N 0.74656 0.06643 0.67526 0.0
C96 C 0.77495 0.07698 0.69135 0.0
C97 C 0.72698 0.03054 0.66733 0.0
C98 C 0.76404 0.01445 0.69238 0.0
C99 C 0.72915 0.18849 0.60975 0.0
N100 N 0.75688 0.20504 0.62648 0.0
C101 C 0.73602 0.19751 0.58512 0.0
C102 C 0.77155 0.22371 0.57767 0.0
C103 C 0.79967 0.24054 0.59485 0.0
C104 C 0.79181 0.23078 0.61932 0.0
C105 C 0.77776 0.30304 0.66617 0.0
C106 C 0.7945 0.25432 0.68929 0.0
C107 C 0.76138 0.26595 0.65896 0.0
N108 N 0.77007 0.2422 0.67037 0.0
C109 C 0.81142 0.29121 0.697 0.0
C110 C 0.80298 0.31569 0.6853 0.0
C111 C 0.73959 0.15098 0.7069 0.0
C112 C 0.61952 0.04108 0.65705 0.0
C113 C 0.67178 0.05383 0.69229 0.0
C114 C 0.63436 0.03066 0.69754 0.0
C115 C 0.60812 0.02429 0.67976 0.0
N116 N 0.68275 0.07007 0.66994 0.0
C117 C 0.65718 0.06405 0.65245 0.0
Co118 Co 0.62344 0.72699 0.00057 0.0
Co119 Co 0.568 0.76254 0.98342 0.0
O120 O 0.58365 0.72597 0.9816 0.0
C121 C 0.64579 0.73265 0.94967 0.0
O122 O 0.63738 0.75896 0.94845 0.0
C123 C 0.49906 0.69269 0.99547 0.0
O124 O 0.5168 0.68675 0.01295 0.0
O125 O 0.56751 0.76067 0.01965 0.0
O126 O 0.60446 0.73835 0.03088 0.0
H127 H 0.57057 0.87701 0.01495 0.0
H128 H 0.57662 0.66229 0.96899 0.0
O129 O 0.64284 0.71635 0.96989 0.0
H130 H 0.55949 0.61187 0.0521 0.0
H131 H 0.70951 0.68053 0.02321 0.0
H132 H 0.67246 0.77337 0.04061 0.0
H133 H 0.60112 0.67865 0.04443 0.0
H134 H 0.65916 0.68072 3e-05 0.0
O135 O 0.51538 0.72155 0.9822 0.0
H136 H 0.59126 0.83119 0.01197 0.0
H137 H 0.50866 0.77039 0.95909 0.0
H138 H 0.72273 0.77403 0.06435 0.0
H139 H 0.53495 0.5953 0.97581 0.0
H140 H 0.74156 0.72736 0.05569 0.0
H141 H 0.52613 0.5697 0.01763 0.0
O142 O 0.6567 0.78134 0.99537 0.0
H143 H 0.54287 0.708 0.89935 0.0
H144 H 0.59839 0.82387 0.947 0.0
H145 H 0.60209 0.82707 0.90223 0.0
H146 H 0.5742 0.76881 0.8781 0.0
H147 H 0.5401 0.70611 0.94415 0.0
H148 H 0.48689 0.8154 0.96164 0.0
H149 H 0.51802 0.86925 0.98966 0.0
O150 O 0.62013 0.80403 0.98443 0.0
C151 C 0.58354 0.75168 0.03582 0.0
C152 C 0.55687 0.85373 0.0026 0.0
C153 C 0.50987 0.81912 0.97271 0.0
N154 N 0.5514 0.79834 0.98522 0.0
C155 C 0.56854 0.82777 0.00078 0.0
C156 C 0.52227 0.79369 0.97139 0.0
C157 C 0.52736 0.84934 0.98843 0.0
C158 C 0.57315 0.65131 0.98721 0.0
N159 N 0.59146 0.67429 0.00627 0.0
C160 C 0.54942 0.61337 0.99097 0.0
C161 C 0.54445 0.59904 0.01444 0.0
C162 C 0.56314 0.62268 0.0338 0.0
C163 C 0.58662 0.66047 0.02935 0.0
C164 C 0.70153 0.70098 0.02716 0.0
C165 C 0.68037 0.75287 0.03682 0.0
C166 C 0.67312 0.70129 0.01406 0.0
N167 N 0.6628 0.72692 0.01905 0.0
C168 C 0.70892 0.75343 0.05028 0.0
C169 C 0.71949 0.72725 0.0454 0.0
C170 C 0.65163 0.80806 0.98952 0.0
C171 C 0.55506 0.73357 0.90966 0.0
C172 C 0.58629 0.79843 0.93662 0.0
C173 C 0.58837 0.8004 0.91128 0.0
C174 C 0.57269 0.76771 0.89775 0.0
N175 N 0.56903 0.76486 0.94817 0.0
C176 C 0.55345 0.73268 0.93503 0.0
Co177 Co 0.80995 0.55128 0.33099 0.0
Co178 Co 0.89863 0.62593 0.33367 0.0
O179 O 0.8618 0.57677 0.32183 0.0
C180 C 0.79905 0.47941 0.34818 0.0
O181 O 0.79028 0.48771 0.36922 0.0
C182 C 0.90063 0.6328 0.28065 0.0
O183 O 0.86463 0.61761 0.28208 0.0
O184 O 0.86628 0.64689 0.32622 0.0
O185 O 0.8089 0.59862 0.33111 0.0
H186 H 0.94484 0.7447 0.38056 0.0
H187 H 0.83313 0.52443 0.28831 0.0
O188 O 0.80986 0.50293 0.33086 0.0
H189 H 0.74395 0.55828 0.25641 0.0
H190 H 0.67755 0.44738 0.32722 0.0
H191 H 0.7657 0.56516 0.36709 0.0
H192 H 0.75913 0.56463 0.30009 0.0
H193 H 0.74311 0.48099 0.31508 0.0
O194 O 0.91968 0.63885 0.29996 0.0
H195 H 0.89802 0.68243 0.36624 0.0
H196 H 0.97911 0.67462 0.32444 0.0
H197 H 0.70037 0.53254 0.37973 0.0
H198 H 0.81844 0.51728 0.24453 0.0
H199 H 0.65579 0.47319 0.35974 0.0
H200 H 0.77367 0.53441 0.2283 0.0
O201 O 0.82404 0.55924 0.36583 0.0
H202 H 0.96272 0.55384 0.31608 0.0
H203 H 0.94241 0.62852 0.37708 0.0
H204 H 0.98235 0.60263 0.3872 0.0
H205 H 0.99282 0.5651 0.35654 0.0
H206 H 0.92272 0.57998 0.3068 0.0
H207 H 0.02677 0.73695 0.33814 0.0
H208 H 0.00975 0.77235 0.36649 0.0
O209 O 0.87745 0.61376 0.3674 0.0
C210 C 0.83148 0.63314 0.328 0.0
C211 C 0.95263 0.72948 0.3683 0.0
C212 C 0.99861 0.72516 0.34446 0.0
N213 N 0.93593 0.67476 0.34476 0.0
C214 C 0.92627 0.69416 0.3602 0.0
C215 C 0.9715 0.68991 0.33674 0.0
C216 C 0.98904 0.745 0.36037 0.0
C217 C 0.81324 0.53147 0.28144 0.0
N218 N 0.79681 0.54466 0.29678 0.0
C219 C 0.80519 0.52756 0.25661 0.0
C220 C 0.78012 0.53724 0.24751 0.0
C221 C 0.76346 0.55067 0.26327 0.0
C222 C 0.77223 0.55428 0.28798 0.0
C223 C 0.69669 0.47327 0.33602 0.0
C224 C 0.74644 0.53944 0.35822 0.0
C225 C 0.73383 0.49244 0.32921 0.0
N226 N 0.75818 0.52515 0.34026 0.0
C227 C 0.70949 0.52106 0.36549 0.0
C228 C 0.6845 0.48775 0.35428 0.0
C229 C 0.84948 0.58654 0.37754 0.0
C230 C 0.95843 0.57022 0.32957 0.0
C231 C 0.94668 0.61205 0.36369 0.0
C232 C 0.9694 0.59755 0.3695 0.0
C233 C 0.97529 0.57652 0.35228 0.0
N234 N 0.9304 0.6059 0.34133 0.0
C235 C 0.9359 0.58518 0.32439 0.0
Co236 Co 0.25359 0.80209 0.66081 0.0
Co237 Co 0.26388 0.88923 0.66388 0.0
O238 O 0.27775 0.85405 0.65147 0.0
C239 C 0.33122 0.82329 0.6726 0.0
O240 O 0.33278 0.84761 0.68844 0.0
C241 C 0.2581 0.89202 0.61082 0.0
O242 O 0.23806 0.8557 0.6119 0.0
O243 O 0.21067 0.8548 0.65673 0.0
O244 O 0.20429 0.79847 0.66198 0.0
H245 H 0.18877 0.92998 0.71237 0.0
H246 H 0.3019 0.82739 0.61729 0.0
O247 O 0.30234 0.80419 0.65983 0.0
H248 H 0.17915 0.73293 0.58729 0.0
H249 H 0.23264 0.67216 0.65714 0.0
H250 H 0.19679 0.75527 0.69718 0.0
H251 H 0.18925 0.74853 0.63091 0.0
H252 H 0.2614 0.7379 0.64503 0.0
O253 O 0.27084 0.91082 0.63032 0.0
H254 H 0.2062 0.88518 0.69716 0.0
H255 H 0.29287 0.96977 0.65536 0.0
H256 H 0.16709 0.68965 0.70971 0.0
H257 H 0.29308 0.81241 0.57354 0.0
H258 H 0.18498 0.6476 0.68963 0.0
H259 H 0.23131 0.76497 0.55827 0.0
O260 O 0.2605 0.81581 0.69574 0.0
H261 H 0.39982 0.95822 0.6455 0.0
H262 H 0.30485 0.93368 0.70727 0.0
H263 H 0.37056 0.97541 0.71716 0.0
H264 H 0.41855 0.98798 0.68613 0.0
H265 H 0.33382 0.91645 0.63644 0.0
H266 H 0.27619 0.01546 0.66994 0.0
H267 H 0.2239 0.99566 0.69874 0.0
O268 O 0.2563 0.8676 0.69747 0.0
C269 C 0.19088 0.8197 0.65901 0.0
C270 C 0.21171 0.93899 0.69991 0.0
C271 C 0.26075 0.98695 0.67606 0.0
N272 N 0.25078 0.92497 0.67563 0.0
C273 C 0.2218 0.91377 0.69132 0.0
C274 C 0.27003 0.96096 0.66785 0.0
C275 C 0.23141 0.97582 0.69223 0.0
C276 C 0.27505 0.80641 0.61081 0.0
N277 N 0.24618 0.78873 0.62664 0.0
C278 C 0.27018 0.79817 0.58601 0.0
C279 C 0.23549 0.7716 0.57745 0.0
C280 C 0.20621 0.75363 0.59372 0.0
C281 C 0.21208 0.76263 0.6184 0.0
C282 C 0.2245 0.69017 0.66596 0.0
C283 C 0.20449 0.73707 0.68821 0.0
C284 C 0.24071 0.72742 0.6592 0.0
N285 N 0.23042 0.75028 0.67017 0.0
C286 C 0.18768 0.69997 0.69544 0.0
C287 C 0.19777 0.67641 0.68419 0.0
C288 C 0.25757 0.84058 0.70754 0.0
C289 C 0.37916 0.95305 0.65915 0.0
C290 C 0.32559 0.93893 0.6937 0.0
C291 C 0.36274 0.96264 0.69939 0.0
C292 C 0.38965 0.9697 0.68196 0.0
N293 N 0.31552 0.92283 0.67125 0.0
C294 C 0.34174 0.92952 0.6541 0.0
Co295 Co 0.37146 0.27585 -0.00069 0.0
Co296 Co 0.43712 0.2501 0.99229 0.0
O297 O 0.41607 0.28101 0.98437 0.0
C298 C 0.35653 0.26803 0.94699 0.0
O299 O 0.36699 0.24318 0.94776 0.0
C300 C 0.50226 0.32512 -8e-05 0.0
O301 O 0.48288 0.33235 0.01544 0.0
O302 O 0.43669 0.26059 0.02749 0.0
O303 O 0.38656 0.26676 0.03213 0.0
H304 H 0.44876 0.15352 0.03986 0.0
H305 H 0.41945 0.34211 0.96932 0.0
O306 O 0.35579 0.28423 0.9665 0.0
H307 H 0.41721 0.39064 0.05069 0.0
H308 H 0.2738 0.31106 0.01087 0.0
H309 H 0.31673 0.22524 0.03551 0.0
H310 H 0.38187 0.32335 0.04247 0.0
H311 H 0.3305 0.31656 0.99318 0.0
O312 O 0.48777 0.2941 0.98887 0.0
H313 H 0.42127 0.19188 0.02907 0.0
H314 H 0.50064 0.24439 0.97299 0.0
H315 H 0.26008 0.21893 0.05382 0.0
H316 H 0.45496 0.40961 0.9767 0.0
H317 H 0.23828 0.26206 0.04151 0.0
H318 H 0.45402 0.43427 0.01765 0.0
O319 O 0.34349 0.22126 0.99358 0.0
H320 H 0.4602 0.28333 0.90372 0.0
H321 H 0.41157 0.18097 0.96321 0.0
H322 H 0.40931 0.16693 0.91947 0.0
H323 H 0.43375 0.21833 0.88939 0.0
H324 H 0.46165 0.2961 0.94762 0.0
H325 H 0.52918 0.2068 0.98331 0.0
H326 H 0.50311 0.16086 0.0169 0.0
O327 O 0.38722 0.20535 0.99587 0.0
C328 C 0.41298 0.26312 0.04071 0.0
C329 C 0.46027 0.17333 0.02512 0.0
C330 C 0.50543 0.20326 0.99339 0.0
N331 N 0.45905 0.22002 0.00023 0.0
C332 C 0.44474 0.19504 0.01887 0.0
C333 C 0.48917 0.22449 0.98765 0.0
C334 C 0.49079 0.17749 0.01224 0.0
C335 C 0.41867 0.35266 0.98713 0.0
N336 N 0.39844 0.32886 0.0054 0.0
C337 C 0.43894 0.39089 0.99123 0.0
C338 C 0.43843 0.4047 0.01422 0.0
C339 C 0.4178 0.38024 0.03277 0.0
C340 C 0.39791 0.34217 0.02802 0.0
C341 C 0.28309 0.29218 0.01645 0.0
C342 C 0.30759 0.24431 0.03023 0.0
C343 C 0.31513 0.29513 0.00647 0.0
N344 N 0.32711 0.27152 0.01354 0.0
C345 C 0.27541 0.24051 0.04058 0.0
C346 C 0.26317 0.26468 0.03364 0.0
C347 C 0.35353 0.19707 0.99496 0.0
C348 C 0.44959 0.26071 0.91665 0.0
C349 C 0.42222 0.20348 0.95023 0.0
C350 C 0.42093 0.19537 0.92549 0.0
C351 C 0.43468 0.22422 0.90862 0.0
N352 N 0.43688 0.23934 0.95796 0.0
C353 C 0.45049 0.26779 0.94153 0.0
Co354 Co 0.5637 0.81499 0.33644 0.0
Co355 Co 0.63164 0.9054 0.32623 0.0
O356 O 0.58784 0.8678 0.34314 0.0
C357 C 0.50043 0.82769 0.33086 0.0
O358 O 0.5187 0.85191 0.31367 0.0
C359 C 0.65168 0.91453 0.37783 0.0
O360 O 0.64005 0.87884 0.3774 0.0
O361 O 0.65789 0.87701 0.3308 0.0
O362 O 0.61186 0.81754 0.33061 0.0
H363 H 0.73588 0.95327 0.26603 0.0
H364 H 0.54576 0.841 0.38186 0.0
O365 O 0.51469 0.81114 0.34198 0.0
H366 H 0.59531 0.7615 0.40837 0.0
H367 H 0.46739 0.68115 0.35018 0.0
H368 H 0.57292 0.76817 0.29961 0.0
H369 H 0.58908 0.77087 0.36474 0.0
H370 H 0.50002 0.74835 0.35873 0.0
O371 O 0.65146 0.93101 0.35833 0.0
H372 H 0.68029 0.90521 0.28707 0.0
H373 H 0.67703 0.98757 0.33075 0.0
H374 H 0.54128 0.70118 0.29054 0.0
H375 H 0.55125 0.83214 0.42568 0.0
H376 H 0.48809 0.65716 0.31592 0.0
H377 H 0.57633 0.79227 0.43917 0.0
O378 O 0.56137 0.824 0.30126 0.0
H379 H 0.55581 0.96209 0.35236 0.0
H380 H 0.61933 0.94195 0.28361 0.0
H381 H 0.58611 0.97609 0.2769 0.0
H382 H 0.55412 0.98642 0.31145 0.0
H383 H 0.58912 0.92785 0.35821 0.0
H384 H 0.7328 0.03653 0.31033 0.0
H385 H 0.7625 0.01948 0.27764 0.0
O386 O 0.61204 0.87955 0.29416 0.0
C387 C 0.64592 0.84225 0.32995 0.0
C388 C 0.72313 0.96106 0.28019 0.0
C389 C 0.72143 0.00779 0.30508 0.0
N390 N 0.67531 0.94364 0.30997 0.0
C391 C 0.69159 0.93398 0.29212 0.0
C392 C 0.68993 0.97995 0.31661 0.0
C393 C 0.73807 0.9982 0.28673 0.0
C394 C 0.55626 0.82323 0.3876 0.0
N395 N 0.56688 0.8063 0.37077 0.0
C396 C 0.55948 0.81847 0.41243 0.0
C397 C 0.57361 0.79615 0.41999 0.0
C398 C 0.5843 0.7789 0.40271 0.0
C399 C 0.58076 0.78436 0.37803 0.0
C400 C 0.4906 0.70004 0.33903 0.0
C401 C 0.54999 0.74917 0.31086 0.0
C402 C 0.50915 0.73812 0.34376 0.0
N403 N 0.53859 0.76212 0.32983 0.0
C404 C 0.53209 0.71128 0.30558 0.0
C405 C 0.50223 0.6866 0.31981 0.0
C406 C 0.58413 0.84919 0.28688 0.0
C407 C 0.56974 0.95786 0.33718 0.0
C408 C 0.60539 0.94625 0.29871 0.0
C409 C 0.58669 0.96566 0.29482 0.0
C410 C 0.56876 0.97146 0.31422 0.0
N411 N 0.60634 0.93312 0.32131 0.0
C412 C 0.58875 0.93861 0.3404 0.0
Co413 Co 0.72964 0.54467 0.66359 0.0
Co414 Co 0.72217 0.62293 0.66629 0.0
O415 O 0.70696 0.5721 0.67623 0.0
C416 C 0.66477 0.47473 0.64779 0.0
O417 O 0.6789 0.48361 0.62586 0.0
C418 C 0.7272 0.62605 0.71955 0.0
O419 O 0.74615 0.60894 0.71734 0.0
O420 O 0.77484 0.63988 0.67344 0.0
O421 O 0.7792 0.5907 0.66157 0.0
H422 H 0.80076 0.74431 0.62334 0.0
H423 H 0.68551 0.51821 0.70885 0.0
O424 O 0.68032 0.49752 0.66529 0.0
H425 H 0.81068 0.54592 0.73167 0.0
H426 H 0.75199 0.43664 0.65951 0.0
H427 H 0.78123 0.55651 0.62312 0.0
H428 H 0.79668 0.55439 0.68942 0.0
H429 H 0.72479 0.47251 0.67617 0.0
O430 O 0.7151 0.63423 0.70066 0.0
H431 H 0.78145 0.67999 0.63516 0.0
H432 H 0.69483 0.67462 0.67835 0.0
H433 H 0.80913 0.52163 0.60595 0.0
H434 H 0.6982 0.50891 0.75126 0.0
H435 H 0.79454 0.46121 0.62416 0.0
H436 H 0.76121 0.52295 0.76292 0.0
O437 O 0.71932 0.55417 0.63007 0.0
H438 H 0.58597 0.55651 0.68371 0.0
H439 H 0.68291 0.63218 0.62407 0.0
H440 H 0.61776 0.61086 0.61434 0.0
H441 H 0.56879 0.57285 0.64431 0.0
H442 H 0.65144 0.57815 0.69261 0.0
H443 H 0.7134 0.73902 0.66717 0.0
H444 H 0.76661 0.77424 0.63939 0.0
O445 O 0.73027 0.61271 0.63172 0.0
C446 C 0.79366 0.6248 0.66747 0.0
C447 C 0.77742 0.72919 0.63537 0.0
C448 C 0.72842 0.72624 0.66 0.0
N449 N 0.73678 0.67343 0.65718 0.0
C450 C 0.76627 0.69271 0.64205 0.0
C451 C 0.71807 0.68982 0.66629 0.0
C452 C 0.75828 0.74599 0.64441 0.0
C453 C 0.71287 0.5239 0.71372 0.0
N454 N 0.74024 0.53659 0.69664 0.0
C455 C 0.71994 0.51878 0.73779 0.0
C456 C 0.75532 0.52674 0.74433 0.0
C457 C 0.7831 0.53967 0.72681 0.0
C458 C 0.77503 0.54451 0.70292 0.0
C459 C 0.75866 0.46299 0.65146 0.0
C460 C 0.77492 0.53037 0.63125 0.0
C461 C 0.74338 0.48345 0.66083 0.0
N462 N 0.75166 0.51675 0.65076 0.0
C463 C 0.79073 0.51069 0.62141 0.0
C464 C 0.78252 0.47678 0.63162 0.0
C465 C 0.72574 0.5843 0.61991 0.0
C466 C 0.60707 0.57313 0.67052 0.0
C467 C 0.66173 0.61549 0.63716 0.0
C468 C 0.6249 0.60359 0.63157 0.0
C469 C 0.59744 0.58228 0.64841 0.0
N470 N 0.67095 0.60655 0.65894 0.0
C471 C 0.64418 0.58555 0.67549 0.0
Co472 Co 0.09806 0.73059 0.9974 0.0
Co473 Co 0.18864 0.75577 0.00934 0.0
O474 O 0.13574 0.72331 0.01313 0.0
C475 C 0.08693 0.73346 0.04958 0.0
O476 O 0.12251 0.75719 0.0501 0.0
C477 C 0.17937 0.68316 0.99426 0.0
O478 O 0.15398 0.67947 0.9787 0.0
O479 O 0.18342 0.75464 0.97336 0.0
O480 O 0.1254 0.7424 0.96572 0.0
H481 H 0.3033 0.86416 0.97496 0.0
H482 H 0.07625 0.66144 0.0251 0.0
O483 O 0.0711 0.71956 0.02934 0.0
H484 H 0.03339 0.62098 0.94121 0.0
H485 H 0.96692 0.69813 0.98144 0.0
H486 H 0.09788 0.78454 0.96227 0.0
H487 H 0.06503 0.68739 0.95208 0.0
H488 H 0.01603 0.69037 0.00038 0.0
O489 O 0.19512 0.71148 0.00804 0.0
H490 H 0.23617 0.82341 0.98047 0.0
H491 H 0.25473 0.75579 0.02956 0.0
H492 H 0.04969 0.79317 0.94275 0.0
H493 H 0.04447 0.59473 0.01508 0.0
H494 H 0.98366 0.74975 0.95231 0.0
H495 H 0.02285 0.57414 0.97286 0.0
O496 O 0.12427 0.78459 0.00524 0.0
H497 H 0.16367 0.69921 0.09279 0.0
H498 H 0.22781 0.81582 0.04609 0.0
H499 H 0.23222 0.81784 0.09083 0.0
H500 H 0.19996 0.75922 0.11449 0.0
H501 H 0.15977 0.69852 0.04803 0.0
H502 H 0.32206 0.79561 0.02441 0.0
H503 H 0.34675 0.85034 0.99703 0.0
O504 O 0.18359 0.80076 0.01067 0.0
C505 C 0.15783 0.7506 0.95885 0.0
C506 C 0.29289 0.84047 0.98701 0.0
C507 C 0.30341 0.80197 0.01474 0.0
N508 N 0.24156 0.78747 0.00549 0.0
C509 C 0.25491 0.81737 0.99026 0.0
C510 C 0.26526 0.77949 0.01755 0.0
C511 C 0.31725 0.83268 -0.00062 0.0
C512 C 0.06666 0.65267 0.00674 0.0
N513 N 0.07227 0.67824 0.98923 0.0
C514 C 0.0488 0.61487 0.00115 0.0
C515 C 0.03672 0.60334 0.97745 0.0
C516 C 0.04263 0.62961 0.95968 0.0
C517 C 0.06063 0.66717 0.96593 0.0
C518 C 0.99558 0.71716 0.97707 0.0
C519 C 0.06919 0.76536 0.96635 0.0
C520 C 0.0235 0.71294 0.98777 0.0
N521 N 0.05973 0.73674 0.98221 0.0
C522 C 0.04204 0.77047 0.95532 0.0
C523 C 0.005 0.74613 0.96072 0.0
C524 C 0.15798 0.8087 0.00912 0.0
C525 C 0.17792 0.72493 0.08268 0.0
C526 C 0.21365 0.79022 0.05626 0.0
C527 C 0.21631 0.79152 0.08159 0.0
C528 C 0.19824 0.75862 0.09484 0.0
N529 N 0.19361 0.75709 0.04446 0.0
C530 C 0.17593 0.7247 0.05733 0.0
Co531 Co 0.43458 0.18539 0.34016 0.0
Co532 Co 0.36405 0.09612 0.32881 0.0
O533 O 0.41058 0.13193 0.34412 0.0
C534 C 0.49512 0.17235 0.32442 0.0
O535 O 0.47311 0.14891 0.30792 0.0
C536 C 0.35079 0.08486 0.38119 0.0
O537 O 0.36483 0.12095 0.38201 0.0
O538 O 0.33988 0.12532 0.33748 0.0
O539 O 0.3864 0.18396 0.3415 0.0
H540 H 0.2523 0.05424 0.2758 0.0
H541 H 0.45966 0.15372 0.37892 0.0
O542 O 0.48365 0.18829 0.33884 0.0
H543 H 0.4206 0.23246 0.42152 0.0
H544 H 0.53525 0.31726 0.35494 0.0
H545 H 0.41929 0.23618 0.31115 0.0
H546 H 0.41778 0.22772 0.3768 0.0
H547 H 0.50335 0.24931 0.3602 0.0
O548 O 0.34749 0.06894 0.36075 0.0
H549 H 0.31117 0.10007 0.29478 0.0
H550 H 0.31748 0.01388 0.3316 0.0
H551 H 0.4501 0.304 0.30553 0.0
H552 H 0.46323 0.15788 0.42366 0.0
H553 H 0.50852 0.34503 0.32752 0.0
H554 H 0.44344 0.19734 0.44526 0.0
O555 O 0.42993 0.18001 0.3042 0.0
H556 H 0.43896 0.03449 0.34428 0.0
H557 H 0.36974 0.06138 0.28293 0.0
H558 H 0.40014 0.02611 0.27103 0.0
H559 H 0.43498 0.01239 0.30185 0.0
H560 H 0.4084 0.06991 0.35534 0.0
H561 H 0.25849 0.96709 0.31319 0.0
H562 H 0.22559 0.9872 0.28499 0.0
O563 O 0.38018 0.12363 0.2971 0.0
C564 C 0.35213 0.15985 0.34074 0.0
C565 C 0.26645 0.04512 0.28797 0.0
C566 C 0.26991 0.99621 0.30899 0.0
N567 N 0.31791 0.0596 0.31404 0.0
C568 C 0.29987 0.07093 0.29869 0.0
C569 C 0.30325 0.02281 0.31938 0.0
C570 C 0.25146 0.00751 0.29316 0.0
C571 C 0.45139 0.17127 0.38817 0.0
N572 N 0.43864 0.19055 0.37525 0.0
C573 C 0.45332 0.17339 0.41352 0.0
C574 C 0.44216 0.19549 0.42563 0.0
C575 C 0.42931 0.21517 0.41232 0.0
C576 C 0.4277 0.21233 0.38699 0.0
C577 C 0.50977 0.29968 0.3453 0.0
C578 C 0.44458 0.25387 0.3209 0.0
C579 C 0.49162 0.26118 0.34817 0.0
N580 N 0.45932 0.23883 0.33615 0.0
C581 C 0.46196 0.29224 0.31759 0.0
C582 C 0.49475 0.31524 0.32992 0.0
C583 C 0.40632 0.15524 0.28995 0.0
C584 C 0.42377 0.0402 0.33071 0.0
C585 C 0.38495 0.05559 0.29642 0.0
C586 C 0.40203 0.03555 0.28959 0.0
C587 C 0.42156 0.02785 0.30689 0.0
N588 N 0.38712 0.06748 0.31984 0.0
C589 C 0.4063 0.06013 0.33689 0.0
Co590 Co 0.26947 0.45156 0.66279 0.0
Co591 Co 0.27777 0.37353 0.66086 0.0
O592 O 0.2928 0.42342 0.67276 0.0
C593 C 0.33349 0.52236 0.64727 0.0
O594 O 0.31779 0.51503 0.62577 0.0
C595 C 0.27274 0.36635 0.71398 0.0
O596 O 0.25322 0.38298 0.71275 0.0
O597 O 0.22498 0.35555 0.6684 0.0
O598 O 0.2198 0.40573 0.66111 0.0
H599 H 0.19985 0.25582 0.61402 0.0
H600 H 0.31641 0.47504 0.70692 0.0
O601 O 0.31895 0.49853 0.66433 0.0
H602 H 0.19296 0.4461 0.73506 0.0
H603 H 0.24719 0.55968 0.66582 0.0
H604 H 0.21533 0.44212 0.62472 0.0
H605 H 0.20425 0.44042 0.69169 0.0
H606 H 0.27543 0.52293 0.6789 0.0
O607 O 0.28497 0.35964 0.69455 0.0
H608 H 0.21887 0.31902 0.62836 0.0
H609 H 0.30534 0.3212 0.66996 0.0
H610 H 0.18632 0.47791 0.61112 0.0
H611 H 0.30642 0.48149 0.75041 0.0
H612 H 0.20223 0.53717 0.63172 0.0
H613 H 0.24429 0.46682 0.76474 0.0
O614 O 0.27763 0.44413 0.62825 0.0
H615 H 0.41397 0.4391 0.67822 0.0
H616 H 0.31726 0.36802 0.6174 0.0
H617 H 0.38248 0.39044 0.60718 0.0
H618 H 0.43134 0.42615 0.63774 0.0
H619 H 0.34844 0.41643 0.6876 0.0
H620 H 0.28707 0.25788 0.65624 0.0
H621 H 0.23407 0.22483 0.62798 0.0
O622 O 0.26979 0.38663 0.62706 0.0
C623 C 0.20575 0.37106 0.66503 0.0
C624 C 0.2231 0.26999 0.62625 0.0
C625 C 0.27201 0.27113 0.64997 0.0
N626 N 0.26343 0.32392 0.64975 0.0
C627 C 0.23408 0.30584 0.63435 0.0
C628 C 0.28219 0.30694 0.65771 0.0
C629 C 0.24228 0.25261 0.63411 0.0
C630 C 0.28942 0.46909 0.71297 0.0
N631 N 0.26103 0.45763 0.69675 0.0
C632 C 0.28388 0.47259 0.73764 0.0
C633 C 0.24899 0.46428 0.74567 0.0
C634 C 0.22017 0.45263 0.72903 0.0
C635 C 0.22671 0.44937 0.7045 0.0
C636 C 0.23995 0.53385 0.65675 0.0
C637 C 0.22223 0.46776 0.63387 0.0
C638 C 0.25581 0.5129 0.66409 0.0
N639 N 0.2468 0.48023 0.65271 0.0
C640 C 0.20578 0.48796 0.62605 0.0
C641 C 0.21474 0.52121 0.63761 0.0
C642 C 0.27295 0.41557 0.61671 0.0
C643 C 0.39293 0.42349 0.66477 0.0
C644 C 0.33839 0.3837 0.63075 0.0
C645 C 0.37525 0.39624 0.62488 0.0
C646 C 0.40265 0.41625 0.64205 0.0
N647 N 0.32906 0.39077 0.65312 0.0
C648 C 0.35577 0.4105 0.67001 0.0
Co649 Co 0.89788 0.27154 0.99579 0.0
Co650 Co 0.8062 0.24086 0.00839 0.0
O651 O 0.85864 0.27566 0.01194 0.0
C652 C 0.90987 0.26873 0.04785 0.0
O653 O 0.8747 0.24352 0.04841 0.0
C654 C 0.8104 0.31145 0.99341 0.0
O655 O 0.83367 0.31528 0.97613 0.0
O656 O 0.81104 0.24226 0.97233 0.0
O657 O 0.8702 0.25876 0.96425 0.0
H658 H 0.69439 0.12892 0.97435 0.0
H659 H 0.91588 0.33922 0.02414 0.0
O660 O 0.92519 0.28345 0.02763 0.0
H661 H 0.95692 0.38258 0.94039 0.0
H662 H 0.03098 0.31204 0.97915 0.0
H663 H 0.90152 0.22027 0.9599 0.0
H664 H 0.92876 0.3162 0.95072 0.0
H665 H 0.97986 0.31582 -0.00139 0.0
O666 O 0.79704 0.28357 0.00761 0.0
H667 H 0.76108 0.17247 0.97957 0.0
H668 H 0.73841 0.23675 0.02907 0.0
H669 H 0.95172 0.21561 0.93985 0.0
H670 H 0.94414 0.40588 0.01465 0.0
H671 H 0.01702 0.26174 0.94945 0.0
H672 H 0.96484 0.42793 0.97251 0.0
O673 O 0.87445 0.21761 0.00316 0.0
H674 H 0.82947 0.29665 0.09205 0.0
H675 H 0.76974 0.18017 0.04501 0.0
H676 H 0.76573 0.17765 0.08977 0.0
H677 H 0.79575 0.23621 0.11359 0.0
H678 H 0.83308 0.29785 0.04728 0.0
H679 H 0.67147 0.19408 0.02422 0.0
H680 H 0.64908 0.13961 0.99677 0.0
O681 O 0.81429 0.19758 0.00939 0.0
C682 C 0.83709 0.24821 0.95762 0.0
C683 C 0.70381 0.15248 0.98643 0.0
C684 C 0.69094 0.18908 0.01439 0.0
N685 N 0.75362 0.20691 0.00477 0.0
C686 C 0.74153 0.17716 0.98951 0.0
C687 C 0.72887 0.21318 0.01702 0.0
C688 C 0.6784 0.15852 -0.001 0.0
C689 C 0.92508 0.34865 0.0058 0.0
N690 N 0.92091 0.32391 0.98804 0.0
C691 C 0.94094 0.3864 0.00052 0.0
C692 C 0.95251 0.39875 0.97686 0.0
C693 C 0.94806 0.37332 0.95883 0.0
C694 C 0.93204 0.33577 0.96478 0.0
C695 C 0.00265 0.29184 0.97476 0.0
C696 C 0.92985 0.24061 0.96401 0.0
C697 C 0.97361 0.2938 0.98575 0.0
N698 N 0.93778 0.26851 0.98019 0.0
C699 C 0.95817 0.23775 0.95268 0.0
C700 C 0.99479 0.26362 0.9581 0.0
C701 C 0.84141 0.19193 0.0073 0.0
C702 C 0.8162 0.27095 0.08187 0.0
C703 C 0.78296 0.20574 0.05525 0.0
C704 C 0.78051 0.20416 0.08059 0.0
C705 C 0.79732 0.23703 0.09395 0.0
N706 N 0.80158 0.23911 0.04354 0.0
C707 C 0.81802 0.27146 0.05651 0.0
C708 C 0.20241 0.57149 0.35585 0.0
C709 C 0.20262 0.55381 0.33416 0.0
C710 C 0.22434 0.61008 0.35803 0.0
C711 C 0.28396 0.69799 0.32512 0.0
H712 H 0.35612 0.71304 0.37447 0.0
C713 C 0.43733 0.80364 0.31415 0.0
C714 C 0.46077 0.81357 0.33435 0.0
C715 C 0.39918 0.78103 0.31706 0.0
C716 C 0.33601 0.71029 0.36106 0.0
H717 H 0.22255 0.56251 0.29703 0.0
H718 H 0.26012 0.62977 0.30066 0.0
H719 H 0.29757 0.65592 0.37392 0.0
H720 H 0.46312 0.8116 0.37356 0.0
H721 H 0.39644 0.77472 0.37898 0.0
H722 H 0.3227 0.75214 0.31191 0.0
C723 C 0.24338 0.61403 0.31602 0.0
C724 C 0.30225 0.67718 0.36075 0.0
C725 C 0.22208 0.57551 0.31399 0.0
C726 C 0.44543 0.80392 0.35769 0.0
C727 C 0.40723 0.78236 0.36071 0.0
C728 C 0.31753 0.73159 0.32572 0.0
C729 C 0.24612 0.63149 0.33839 0.0
C730 C 0.27662 0.67002 0.34216 0.0
C731 C 0.3837 0.76865 0.34035 0.0
C732 C 0.34481 0.73747 0.34299 0.0
H733 H 0.18773 0.55538 0.37169 0.0
H734 H 0.22601 0.62295 0.37545 0.0
H735 H 0.26447 0.69317 0.31068 0.0
H736 H 0.44866 0.81053 0.29593 0.0
H737 H 0.38239 0.77104 0.30084 0.0
C738 C 0.63767 0.19969 0.648 0.0
C739 C 0.64117 0.18263 0.66903 0.0
C740 C 0.61902 0.21954 0.64882 0.0
C741 C 0.61169 0.2803 0.69079 0.0
H742 H 0.55784 0.29419 0.63848 0.0
C743 C 0.62826 0.42288 0.67723 0.0
C744 C 0.63776 0.43535 0.65314 0.0
C745 C 0.61063 0.38491 0.68255 0.0
C746 C 0.57282 0.29072 0.65332 0.0
H747 H 0.62565 0.17048 0.70693 0.0
H748 H 0.59376 0.20622 0.70853 0.0
H749 H 0.55943 0.23649 0.64104 0.0
H750 H 0.6324 0.41755 0.61555 0.0
H751 H 0.60321 0.35219 0.62472 0.0
H752 H 0.62833 0.3355 0.70182 0.0
C753 C 0.60506 0.20376 0.69138 0.0
C754 C 0.57343 0.25752 0.65486 0.0
C755 C 0.62315 0.18322 0.69042 0.0
C756 C 0.62592 0.40898 0.63436 0.0
C757 C 0.60873 0.37119 0.63966 0.0
C758 C 0.6116 0.31367 0.68904 0.0
C759 C 0.6041 0.22328 0.6708 0.0
C760 C 0.59429 0.25273 0.67297 0.0
C761 C 0.60251 0.35871 0.66391 0.0
C762 C 0.59374 0.32009 0.66955 0.0
H763 H 0.65131 0.1996 0.63128 0.0
H764 H 0.61907 0.23457 0.63274 0.0
H765 H 0.62829 0.27755 0.70484 0.0
H766 H 0.63655 0.44246 0.69213 0.0
H767 H 0.60535 0.3763 0.70139 0.0
C768 C 0.44312 0.66218 0.9694 0.0
C769 C 0.45894 0.66853 0.99262 0.0
C770 C 0.4049 0.64528 0.9667 0.0
C771 C 0.31554 0.60393 0.00183 0.0
H772 H 0.29321 0.65773 0.95368 0.0
C773 C 0.21359 0.65551 0.01363 0.0
C774 C 0.195 0.65842 0.99326 0.0
C775 C 0.2362 0.63999 0.01145 0.0
C776 C 0.29854 0.64162 0.96682 0.0
H777 H 0.44759 0.66046 0.03119 0.0
H778 H 0.38111 0.63308 0.02676 0.0
H779 H 0.35299 0.66238 0.95338 0.0
H780 H 0.1828 0.64452 0.95515 0.0
H781 H 0.22312 0.61798 0.95119 0.0
H782 H 0.26167 0.58616 0.01648 0.0
C783 C 0.39769 0.63973 0.01044 0.0
C784 C 0.33303 0.64419 0.96667 0.0
C785 C 0.43591 0.65566 0.01307 0.0
C786 C 0.19681 0.64258 0.97114 0.0
C787 C 0.21995 0.62753 0.96886 0.0
C788 C 0.28115 0.60189 0.00221 0.0
C789 C 0.38177 0.63563 0.98723 0.0
C790 C 0.34259 0.62649 0.98469 0.0
C791 C 0.24105 0.62757 0.98876 0.0
C792 C 0.27285 0.62176 0.98518 0.0
H793 H 0.46044 0.67149 0.95333 0.0
H794 H 0.39372 0.64146 0.9485 0.0
H795 H 0.32144 0.58911 0.01563 0.0
H796 H 0.21246 0.66734 0.03094 0.0
H797 H 0.2523 0.64068 0.02706 0.0
C798 C 0.5558 0.20083 0.34541 0.0
C799 C 0.53504 0.18557 0.32417 0.0
C800 C 0.59424 0.22128 0.34442 0.0
C801 C 0.6621 0.28542 0.30292 0.0
H802 H 0.72877 0.29885 0.35587 0.0
C803 C 0.78656 0.42823 0.31887 0.0
C804 C 0.78732 0.44017 0.34289 0.0
C805 C 0.76705 0.39037 0.31319 0.0
C806 C 0.71066 0.29542 0.34081 0.0
H807 H 0.5381 0.17708 0.28557 0.0
H808 H 0.60567 0.21363 0.28373 0.0
H809 H 0.67045 0.24038 0.35205 0.0
H810 H 0.77186 0.42166 0.38011 0.0
H811 H 0.73737 0.35627 0.37025 0.0
H812 H 0.7003 0.34125 0.29282 0.0
C813 C 0.59209 0.20954 0.30116 0.0
C814 C 0.67736 0.26186 0.33858 0.0
C815 C 0.55349 0.18851 0.30223 0.0
C816 C 0.77145 0.41345 0.36138 0.0
C817 C 0.75186 0.37572 0.3557 0.0
C818 C 0.69517 0.31904 0.30527 0.0
C819 C 0.61273 0.22734 0.32209 0.0
C820 C 0.65192 0.25727 0.32033 0.0
C821 C 0.74785 0.36378 0.33139 0.0
C822 C 0.71894 0.32517 0.32501 0.0
H823 H 0.54222 0.19881 0.36258 0.0
H824 H 0.60922 0.2349 0.36084 0.0
H825 H 0.64299 0.28291 0.28876 0.0
H826 H 0.79888 0.4481 0.30421 0.0
H827 H 0.76522 0.3821 0.29434 0.0
C828 C 0.36492 0.79674 0.65123 0.0
C829 C 0.35957 0.81224 0.6724 0.0
C830 C 0.38412 0.77745 0.65215 0.0
C831 C 0.38993 0.7152 0.69375 0.0
H832 H 0.44458 0.70281 0.64127 0.0
C833 C 0.37138 0.57256 0.6774 0.0
C834 C 0.3614 0.56123 0.65316 0.0
C835 C 0.38987 0.61031 0.68342 0.0
C836 C 0.42946 0.7059 0.65618 0.0
H837 H 0.37254 0.82244 0.71075 0.0
H838 H 0.40551 0.78776 0.71251 0.0
H839 H 0.44357 0.76072 0.64483 0.0
H840 H 0.36692 0.58068 0.61598 0.0
H841 H 0.39778 0.64576 0.62638 0.0
H842 H 0.37267 0.65948 0.70383 0.0
C843 C 0.39514 0.79092 0.69517 0.0
C844 C 0.42913 0.73919 0.65829 0.0
C845 C 0.37645 0.81087 0.69414 0.0
C846 C 0.37372 0.5884 0.63488 0.0
C847 C 0.39187 0.62599 0.64089 0.0
C848 C 0.38982 0.68178 0.69146 0.0
C849 C 0.3978 0.77275 0.67438 0.0
C850 C 0.40782 0.7434 0.67637 0.0
C851 C 0.39849 0.63741 0.66535 0.0
C852 C 0.40791 0.67594 0.67185 0.0
H853 H 0.35221 0.79749 0.63424 0.0
H854 H 0.38535 0.76348 0.63587 0.0
H855 H 0.373 0.71746 0.70777 0.0
H856 H 0.36272 0.55232 0.69192 0.0
H857 H 0.39537 0.6181 0.70239 0.0
C858 C 0.78851 0.34695 0.01761 0.0
C859 C 0.79542 0.3366 0.99483 0.0
C860 C 0.76765 0.36449 0.01944 0.0
C861 C 0.71576 0.39973 0.98234 0.0
H862 H 0.64578 0.35581 0.03527 0.0
C863 C 0.5612 0.34779 0.97737 0.0
C864 C 0.54264 0.34942 -0.00182 0.0
C865 C 0.59944 0.36306 0.9776 0.0
C866 C 0.66554 0.36919 0.02071 0.0
H867 H 0.78798 0.33804 0.95603 0.0
H868 H 0.74961 0.36644 0.9591 0.0
H869 H 0.70062 0.35064 0.03495 0.0
H870 H 0.54964 0.37104 0.03482 0.0
H871 H 0.61668 0.39713 0.03543 0.0
H872 H 0.67806 0.41502 0.96715 0.0
C873 C 0.76127 0.36256 0.97563 0.0
C874 C 0.6973 0.36633 0.02049 0.0
C875 C 0.78315 0.34605 0.97379 0.0
C876 C 0.56329 0.36945 0.01852 0.0
C877 C 0.60158 0.38424 0.0189 0.0
C878 C 0.6835 0.40196 0.98236 0.0
C879 C 0.75199 0.37069 -0.00142 0.0
C880 C 0.72231 0.38042 0.0009 0.0
C881 C 0.61974 0.37977 -0.00121 0.0
C882 C 0.65755 0.38565 0.00119 0.0
H883 H 0.7981 0.34022 0.03408 0.0
H884 H 0.76234 0.37148 0.03737 0.0
H885 H 0.73473 0.41178 0.96725 0.0
H886 H 0.54589 0.33265 0.96139 0.0
H887 H 0.61259 0.35893 0.96191 0.0
C888 C 0.15628 0.30076 0.3228 0.0
C889 C 0.18235 0.33903 0.3229 0.0
C890 C 0.16757 0.27463 0.32629 0.0
C891 C 0.23926 0.26546 0.35656 0.0
H892 H 0.22527 0.19042 0.3093 0.0
C893 C 0.33839 0.21052 0.34929 0.0
C894 C 0.32556 0.17327 0.34313 0.0
C895 C 0.31439 0.22445 0.34977 0.0
C896 C 0.22866 0.21061 0.32297 0.0
H897 H 0.2409 0.37954 0.32585 0.0
H898 H 0.26012 0.33415 0.33231 0.0
H899 H 0.19438 0.22663 0.30349 0.0
H900 H 0.277 0.1212 0.33311 0.0
H901 H 0.23483 0.14584 0.33397 0.0
H902 H 0.27404 0.25038 0.37583 0.0
C903 C 0.23103 0.32446 0.32962 0.0
C904 C 0.21109 0.23134 0.31957 0.0
C905 C 0.21994 0.35042 0.3258 0.0
C906 C 0.28779 0.15002 0.33799 0.0
C907 C 0.26366 0.16412 0.33835 0.0
C908 C 0.25646 0.24462 0.36007 0.0
C909 C 0.20496 0.28645 0.33032 0.0
C910 C 0.21747 0.25986 0.33588 0.0
C911 C 0.27684 0.2016 0.34408 0.0
C912 C 0.25261 0.21804 0.34281 0.0
H913 H 0.12712 0.29103 0.32059 0.0
H914 H 0.14706 0.24536 0.32666 0.0
H915 H 0.24408 0.28698 0.36956 0.0
H916 H 0.36726 0.22935 0.35327 0.0
H917 H 0.32563 0.25363 0.3538 0.0
C918 C 0.86739 0.17365 0.64829 0.0
C919 C 0.84879 0.18812 0.66152 0.0
C920 C 0.90601 0.19109 0.64918 0.0
C921 C 0.98767 0.22441 0.66208 0.0
H922 H 0.03982 0.3316 0.66795 0.0
C923 C 0.14678 0.31255 0.67558 0.0
C924 C 0.16504 0.34786 0.66472 0.0
C925 C 0.10814 0.29125 0.67527 0.0
C926 C 0.02588 0.30172 0.66597 0.0
H927 H 0.8556 0.2305 0.68726 0.0
H928 H 0.92211 0.25968 0.68971 0.0
H929 H 0.97325 0.29785 0.66635 0.0
H930 H 0.15717 0.38775 0.64412 0.0
H931 H 0.09057 0.35043 0.64276 0.0
H932 H 0.04087 0.22885 0.66044 0.0
C933 C 0.9075 0.2361 0.67769 0.0
C934 C 0.98745 0.28217 0.66552 0.0
C935 C 0.86923 0.21924 0.6764 0.0
C936 C 0.144 0.36098 0.65306 0.0
C937 C 0.10564 0.33956 0.65239 0.0
C938 C 0.02637 0.24413 0.66217 0.0
C939 C 0.92658 0.22288 0.66369 0.0
C940 C 0.96772 0.24324 0.66374 0.0
C941 C 0.08708 0.30466 0.66381 0.0
C942 C 0.04596 0.28309 0.66407 0.0
H943 H 0.85222 0.1496 0.63672 0.0
H944 H 0.91972 0.18024 0.63802 0.0
H945 H 0.97346 0.19443 0.66091 0.0
H946 H 0.16228 0.30166 0.68467 0.0
H947 H 0.09482 0.26466 0.68444 0.0
C948 C 0.80107 0.12596 0.0202 0.0
C949 C 0.83369 0.15328 0.00907 0.0
C950 C 0.79192 0.08884 0.01993 0.0
C951 C 0.7874 0.01374 0.02489 0.0
H952 H 0.77933 0.97493 0.95967 0.0
C953 C 0.71341 0.85648 0.00527 0.0
C954 C 0.68364 0.84613 0.98926 0.0
C955 C 0.74102 0.89375 0.00741 0.0
C956 C 0.782 0.98545 0.97801 0.0
H957 H 0.88287 0.16314 0.98955 0.0
H958 H 0.86615 0.0978 0.98851 0.0
H959 H 0.8114 0.04208 0.96619 0.0
H960 H 0.66072 0.86611 0.96181 0.0
H961 H 0.70914 0.93082 0.96519 0.0
H962 H 0.75655 0.95711 0.03656 0.0
C963 C 0.84801 0.10544 -0.00234 0.0
C964 C 0.80048 0.02379 0.98177 0.0
C965 C 0.85755 0.14277 -0.00169 0.0
C966 C 0.68316 0.87328 0.97441 0.0
C967 C 0.71105 0.91029 0.97621 0.0
C968 C 0.76939 0.97541 0.02119 0.0
C969 C 0.81487 0.07812 0.0082 0.0
C970 C 0.80213 0.03822 0.00511 0.0
C971 C 0.73968 0.92103 0.99317 0.0
C972 C 0.76537 0.96096 0.9976 0.0
H973 H 0.78215 0.13309 0.02869 0.0
H974 H 0.76597 0.06826 0.02795 0.0
H975 H 0.78849 0.02425 0.04307 0.0
H976 H 0.71442 0.83612 0.01699 0.0
H977 H 0.76286 0.90141 0.02062 0.0
C978 C 0.66604 0.80407 0.3077 0.0
C979 C 0.67221 0.82914 0.32654 0.0
C980 C 0.68784 0.78772 0.30559 0.0
C981 C 0.77212 0.78902 0.32909 0.0
H982 H 0.71569 0.68506 0.31121 0.0
C983 C 0.77955 0.64542 0.33422 0.0
C984 C 0.81615 0.65829 0.32691 0.0
C985 C 0.76472 0.66874 0.33352 0.0
C986 C 0.73188 0.71395 0.31647 0.0
H987 H 0.70651 0.85816 0.35746 0.0
H988 H 0.74393 0.82811 0.35461 0.0
H989 H 0.68597 0.7219 0.31144 0.0
H990 H 0.86603 0.70604 0.31327 0.0
H991 H 0.83958 0.7466 0.3113 0.0
H992 H 0.81759 0.78009 0.33537 0.0
C993 C 0.72291 0.82178 0.341 0.0
C994 C 0.71496 0.73539 0.31617 0.0
C995 C 0.70148 0.83888 0.34275 0.0
C996 C 0.8377 0.69525 0.319 0.0
C997 C 0.82263 0.71857 0.31803 0.0
C998 C 0.78904 0.76733 0.32966 0.0
C999 C 0.71566 0.79522 0.32273 0.0
C1000 C 0.73475 0.77321 0.32248 0.0
C1001 C 0.78584 0.70546 0.32514 0.0
C1002 C 0.76895 0.72941 0.32357 0.0
H1003 H 0.64388 0.79667 0.29478 0.0
H1004 H 0.68221 0.76843 0.2908 0.0
H1005 H 0.78832 0.81812 0.33384 0.0
H1006 H 0.76227 0.61732 0.34075 0.0
H1007 H 0.73662 0.65793 0.33975 0.0
C1008 C 0.12844 0.76642 0.66862 0.0
C1009 C 0.15018 0.80234 0.65912 0.0
C1010 C 0.09014 0.74968 0.66929 0.0
C1011 C 0.01038 0.71052 0.65578 0.0
H1012 H 0.96023 0.76558 0.66868 0.0
C1013 C 0.85334 0.63878 0.64884 0.0
C1014 C 0.83418 0.64803 0.66577 0.0
C1015 C 0.8916 0.66001 0.64697 0.0
C1016 C 0.9738 0.74972 0.6653 0.0
H1017 H 0.14862 0.849 0.64296 0.0
H1018 H 0.08123 0.81902 0.64321 0.0
H1019 H 0.0276 0.79796 0.66819 0.0
H1020 H 0.83988 0.68719 0.69371 0.0
H1021 H 0.90734 0.7235 0.69135 0.0
H1022 H 0.95718 0.66207 0.65419 0.0
C1023 C 0.09401 0.80416 0.65068 0.0
C1024 C 0.01246 0.7684 0.66465 0.0
C1025 C 0.13262 0.82125 0.65036 0.0
C1026 C 0.85406 0.67941 0.68056 0.0
C1027 C 0.89265 0.70033 0.67904 0.0
C1028 C 0.97197 0.69185 0.65679 0.0
C1029 C 0.0723 0.76803 0.66005 0.0
C1030 C 0.03123 0.74894 0.66 0.0
C1031 C 0.91194 0.6906 0.66238 0.0
C1032 C 0.95306 0.71112 0.66147 0.0
H1033 H 0.14097 0.75121 0.67589 0.0
H1034 H 0.07455 0.72231 0.67729 0.0
H1035 H 0.02369 0.69461 0.65165 0.0
H1036 H 0.83869 0.61526 0.63678 0.0
H1037 H 0.90521 0.65229 0.63336 0.0
C1038 C 0.2872 0.14505 0.99405 0.0
C1039 C 0.32504 0.15733 0.99698 0.0
C1040 C 0.26069 0.10754 0.99748 0.0
C1041 C 0.24695 0.02578 0.03035 0.0
H1042 H 0.18338 0.96513 0.97791 0.0
C1043 C 0.20396 0.87414 0.02002 0.0
C1044 C 0.16844 0.84814 0.01176 0.0
C1045 C 0.21511 0.91168 0.02123 0.0
C1046 C 0.20024 0.98178 0.99296 0.0
H1047 H 0.36449 0.13953 0.00544 0.0
H1048 H 0.31853 0.07496 0.01175 0.0
H1049 H 0.2178 0.0329 0.9738 0.0
H1050 H 0.11653 0.84134 -0.00141 0.0
H1051 H 0.13643 0.90756 0.00051 0.0
H1052 H 0.23081 0.97503 0.04918 0.0
C1053 C 0.30937 0.09425 0.00687 0.0
C1054 C 0.21991 0.02048 0.99057 0.0
C1055 C 0.33571 0.1313 0.00309 0.0
C1056 C 0.14405 0.86063 0.00512 0.0
C1057 C 0.15543 0.89849 0.00612 0.0
C1058 C 0.22722 0.98731 0.0328 0.0
C1059 C 0.27168 0.08207 0.00435 0.0
C1060 C 0.24461 0.04257 0.00883 0.0
C1061 C 0.19117 0.92437 0.0141 0.0
C1062 C 0.205 0.96483 0.01369 0.0
H1063 H 0.27806 0.16438 0.98931 0.0
H1064 H 0.2317 0.09859 0.99531 0.0
H1065 H 0.2655 0.04238 0.0448 0.0
H1066 H 0.22358 0.86568 0.0252 0.0
H1067 H 0.24308 0.93098 0.02702 0.0
C1068 C 0.96946 0.30276 0.07105 0.0
C1069 C 0.93082 0.28037 0.07088 0.0
C1070 C 0.98878 0.31302 0.0931 0.0
C1071 C 0.02063 0.34728 0.1425 0.0
H1072 H 0.98671 0.27549 0.19504 0.0
C1073 C 0.10285 0.3698 0.23142 0.0
C1074 C 0.08267 0.36067 0.25325 0.0
C1075 C 0.0847 0.36066 0.20903 0.0
C1076 C 0.99628 0.29593 0.18061 0.0
H1077 H 0.88205 0.25202 0.09368 0.0
H1078 H 0.91545 0.27052 0.13185 0.0
H1079 H 0.95515 0.25809 0.15597 0.0
H1080 H 0.02764 0.33495 0.26873 0.0
H1081 H 0.99587 0.3187 0.22952 0.0
H1082 H 0.06215 0.3849 0.16721 0.0
C1083 C 0.93107 0.27937 0.11508 0.0
C1084 C 0.97819 0.28602 0.15821 0.0
C1085 C 0.91188 0.26893 0.09313 0.0
C1086 C 0.04394 0.34227 0.25222 0.0
C1087 C 0.02576 0.33283 0.2298 0.0
C1088 C 0.0389 0.3571 0.16488 0.0
C1089 C 0.96977 0.30129 0.11538 0.0
C1090 C 0.98995 0.31164 0.13892 0.0
C1091 C 0.04598 0.34193 0.20799 0.0
C1092 C 0.02676 0.33158 0.1842 0.0
H1093 H 0.98481 0.31197 0.05418 0.0
H1094 H 0.01862 0.32964 0.09266 0.0
H1095 H 0.03011 0.36786 0.12817 0.0
H1096 H 0.13275 0.38414 0.23157 0.0
H1097 H 0.10098 0.36774 0.19253 0.0
C1098 C 0.71532 0.04264 0.58463 0.0
C1099 C 0.73355 0.08153 0.58625 0.0
C1100 C 0.70718 0.02509 0.56195 0.0
C1101 C 0.73238 0.04251 0.49649 0.0
H1102 H 0.63939 0.95093 0.48772 0.0
C1103 C 0.67809 0.97344 0.40225 0.0
C1104 C 0.66281 0.93473 0.40127 0.0
C1105 C 0.68745 0.99199 0.42463 0.0
C1106 C 0.66561 0.97633 0.48993 0.0
H1107 H 0.75723 0.1325 0.56528 0.0
H1108 H 0.74241 0.10194 0.52582 0.0
H1109 H 0.65411 0.9819 0.52708 0.0
H1110 H 0.64549 0.88521 0.42304 0.0
H1111 H 0.66173 0.91752 0.46188 0.0
H1112 H 0.74353 0.03699 0.45915 0.0
C1113 C 0.73507 0.08493 0.54203 0.0
C1114 C 0.67413 0.99406 0.51253 0.0
C1115 C 0.74342 0.10248 0.56469 0.0
C1116 C 0.65725 0.91505 0.4231 0.0
C1117 C 0.66631 0.93352 0.44542 0.0
C1118 C 0.72373 0.02487 0.47382 0.0
C1119 C 0.71683 0.046 0.54034 0.0
C1120 C 0.7077 0.0273 0.51616 0.0
C1121 C 0.68138 0.97216 0.44647 0.0
C1122 C 0.69034 0.99148 0.47034 0.0
H1123 H 0.70748 0.02569 0.6009 0.0
H1124 H 0.69363 0.9951 0.56139 0.0
H1125 H 0.75872 0.06775 0.49868 0.0
H1126 H 0.68266 0.98938 0.38576 0.0
H1127 H 0.69877 0.02176 0.42488 0.0
C1128 C 0.6689 0.69529 0.92764 0.0
C1129 C 0.65685 0.72126 0.92719 0.0
C1130 C 0.67887 0.68474 0.90603 0.0
C1131 C 0.70573 0.7154 0.84212 0.0
H1132 H 0.67522 0.61219 0.83023 0.0
C1133 C 0.70563 0.65987 0.74643 0.0
C1134 C 0.72017 0.63613 0.74394 0.0
C1135 C 0.69968 0.66999 0.76946 0.0
C1136 C 0.68426 0.64117 0.83342 0.0
H1137 H 0.6452 0.756 0.90366 0.0
H1138 H 0.6618 0.73723 0.86631 0.0
H1139 H 0.66212 0.6305 0.86954 0.0
H1140 H 0.73927 0.60384 0.76369 0.0
H1141 H 0.7286 0.62143 0.80396 0.0
H1142 H 0.72708 0.72594 0.80585 0.0
C1143 C 0.66452 0.72562 0.88327 0.0
C1144 C 0.67686 0.65169 0.85594 0.0
C1145 C 0.65476 0.73624 0.90476 0.0
C1146 C 0.72817 0.62232 0.76499 0.0
C1147 C 0.72189 0.6322 0.78805 0.0
C1148 C 0.71286 0.70486 0.81961 0.0
C1149 C 0.67687 0.6999 0.88359 0.0
C1150 C 0.68705 0.68887 0.86043 0.0
C1151 C 0.70784 0.65636 0.79051 0.0
C1152 C 0.70179 0.66758 0.8149 0.0
H1153 H 0.67075 0.68324 0.94465 0.0
H1154 H 0.68851 0.66503 0.90693 0.0
H1155 H 0.71474 0.74441 0.84513 0.0
H1156 H 0.69911 0.67093 0.73058 0.0
H1157 H 0.68837 0.68829 0.7708 0.0
C1158 C 0.08501 0.73441 0.09485 0.0
C1159 C 0.06602 0.72247 0.07265 0.0
C1160 C 0.06587 0.72437 0.11683 0.0
C1161 C 0.01851 0.71813 0.15979 0.0
H1162 H 0.93707 0.61813 0.17001 0.0
C1163 C 0.95752 0.66296 0.25475 0.0
C1164 C 0.91884 0.64257 0.25661 0.0
C1165 C 0.97455 0.6725 0.23197 0.0
C1166 C 0.95954 0.64627 0.16733 0.0
H1167 H 0.01197 0.69041 0.05609 0.0
H1168 H 0.97829 0.67326 0.09465 0.0
H1169 H 0.96812 0.63524 0.1306 0.0
H1170 H 0.8677 0.61572 0.23602 0.0
H1171 H 0.89753 0.63244 0.1963 0.0
H1172 H 0.01026 0.72901 0.19658 0.0
C1173 C 0.00812 0.69007 0.09499 0.0
C1174 C 0.97726 0.65609 0.14475 0.0
C1175 C 0.02737 0.70003 0.07291 0.0
C1176 C 0.89758 0.63158 0.23522 0.0
C1177 C 0.91464 0.64093 0.21245 0.0
C1178 C 0.00094 0.70826 0.18235 0.0
C1179 C 0.0272 0.70228 0.1172 0.0
C1180 C 0.00716 0.69207 0.14078 0.0
C1181 C 0.95329 0.66165 0.21058 0.0
C1182 C 0.97143 0.67217 0.18643 0.0
H1183 H 0.11484 0.75139 0.09535 0.0
H1184 H 0.08151 0.73361 0.13358 0.0
H1185 H 0.04095 0.7463 0.15721 0.0
H1186 H 0.97466 0.67175 0.27088 0.0
H1187 H 0.00443 0.68811 0.23109 0.0
C1188 C 0.34733 0.08207 0.42652 0.0
C1189 C 0.33979 0.06337 0.40413 0.0
C1190 C 0.33723 0.06236 0.44835 0.0
C1191 C 0.31289 0.97175 0.47546 0.0
H1192 H 0.27516 0.00583 0.52778 0.0
C1193 C 0.2559 0.89008 0.5653 0.0
C1194 C 0.26641 0.9109 0.58693 0.0
C1195 C 0.26392 0.90778 0.5427 0.0
C1196 C 0.28597 0.99617 0.51343 0.0
H1197 H 0.31584 0.0092 0.38713 0.0
H1198 H 0.29769 0.97459 0.42539 0.0
H1199 H 0.29013 0.03773 0.48875 0.0
H1200 H 0.29369 0.9667 0.60175 0.0
H1201 H 0.30771 0.99757 0.56228 0.0
H1202 H 0.30861 0.93011 0.50024 0.0
C1203 C 0.31182 0.00461 0.426 0.0
C1204 C 0.29457 0.01445 0.49104 0.0
C1205 C 0.32204 0.02441 0.40408 0.0
C1206 C 0.28511 0.94983 0.58544 0.0
C1207 C 0.29296 0.96752 0.56283 0.0
C1208 C 0.30415 0.95337 0.49786 0.0
C1209 C 0.31921 0.02339 0.4484 0.0
C1210 C 0.30847 0.00271 0.47184 0.0
C1211 C 0.28247 0.9467 0.5412 0.0
C1212 C 0.29088 0.96557 0.51717 0.0
H1213 H 0.3613 0.11209 0.42728 0.0
H1214 H 0.34404 0.07778 0.46523 0.0
H1215 H 0.32396 0.96226 0.46118 0.0
H1216 H 0.24153 0.86003 0.56579 0.0
H1217 H 0.25515 0.89094 0.52639 0.0
C1218 C 0.33222 0.30165 0.92212 0.0
C1219 C 0.34692 0.2779 0.92335 0.0
C1220 C 0.32355 0.31105 0.89964 0.0
C1221 C 0.32785 0.34344 0.8494 0.0
H1222 H 0.28545 0.26919 0.7985 0.0
C1223 C 0.27187 0.3679 0.75946 0.0
C1224 C 0.28096 0.35606 0.73795 0.0
C1225 C 0.27976 0.35846 0.78215 0.0
C1226 C 0.2976 0.29031 0.81246 0.0
H1227 H 0.36449 0.24579 0.9019 0.0
H1228 H 0.35003 0.26265 0.86284 0.0
H1229 H 0.29876 0.25233 0.83809 0.0
H1230 H 0.30553 0.32503 0.7234 0.0
H1231 H 0.31922 0.30847 0.76305 0.0
H1232 H 0.32634 0.3813 0.82373 0.0
C1233 C 0.3444 0.27341 0.8792 0.0
C1234 C 0.30528 0.28069 0.83515 0.0
C1235 C 0.35288 0.26389 0.90164 0.0
C1236 C 0.2981 0.33453 0.73962 0.0
C1237 C 0.30577 0.32488 0.76233 0.0
C1238 C 0.31999 0.353 0.82673 0.0
C1239 C 0.32956 0.29706 0.87789 0.0
C1240 C 0.32065 0.30716 0.85389 0.0
C1241 C 0.29672 0.33678 0.78384 0.0
C1242 C 0.30489 0.32658 0.80798 0.0
H1243 H 0.32724 0.31285 0.93853 0.0
H1244 H 0.31174 0.32896 0.89933 0.0
H1245 H 0.34023 0.36469 0.86326 0.0
H1246 H 0.25874 0.38462 0.75882 0.0
H1247 H 0.27213 0.36774 0.79838 0.0
C1248 C 0.15073 0.39184 0.411 0.0
C1249 C 0.17165 0.42376 0.39675 0.0
C1250 C 0.1609 0.39046 0.43501 0.0
C1251 C 0.21323 0.44772 0.48696 0.0
H1252 H 0.2255 0.36442 0.50462 0.0
C1253 C 0.28204 0.44817 0.57705 0.0
C1254 C 0.26682 0.41484 0.59022 0.0
C1255 C 0.27158 0.44843 0.553 0.0
C1256 C 0.22176 0.38763 0.50015 0.0
H1257 H 0.21853 0.4799 0.39701 0.0
H1258 H 0.23566 0.47766 0.43908 0.0
H1259 H 0.20196 0.36649 0.4644 0.0
H1260 H 0.22974 0.35538 0.58824 0.0
H1261 H 0.21066 0.35583 0.54644 0.0
H1262 H 0.23208 0.46862 0.5227 0.0
C1263 C 0.21166 0.45363 0.43155 0.0
C1264 C 0.20831 0.38879 0.4771 0.0
C1265 C 0.20186 0.45485 0.40744 0.0
C1266 C 0.24219 0.38148 0.57848 0.0
C1267 C 0.23125 0.38178 0.55448 0.0
C1268 C 0.22621 0.44636 0.5101 0.0
C1269 C 0.19177 0.42116 0.44538 0.0
C1270 C 0.20419 0.41899 0.47024 0.0
C1271 C 0.24514 0.41542 0.54163 0.0
C1272 C 0.23103 0.41648 0.51695 0.0
H1273 H 0.12734 0.36738 0.40335 0.0
H1274 H 0.14489 0.36522 0.4454 0.0
H1275 H 0.20994 0.47112 0.48221 0.0
H1276 H 0.30147 0.47425 0.5855 0.0
H1277 H 0.28378 0.47471 0.54349 0.0
C1278 C 0.84878 0.23149 0.91616 0.0
C1279 C 0.8278 0.24075 0.9315 0.0
C1280 C 0.83809 0.22106 0.89206 0.0
C1281 C 0.75682 0.18878 0.85068 0.0
H1282 H 0.83027 0.20914 0.80096 0.0
C1283 C 0.73078 0.17591 0.74618 0.0
C1284 C 0.74383 0.15541 0.73357 0.0
C1285 C 0.73865 0.18394 0.77088 0.0
C1286 C 0.8095 0.20308 0.81475 0.0
H1287 H 0.78004 0.2479 0.93328 0.0
H1288 H 0.76248 0.23169 0.89094 0.0
H1289 H 0.85005 0.23084 0.84234 0.0
H1290 H 0.77465 0.12657 0.7371 0.0
H1291 H 0.78917 0.14152 0.78014 0.0
H1292 H 0.71645 0.16244 0.82245 0.0
C1293 C 0.78634 0.23091 0.8977 0.0
C1294 C 0.82075 0.21533 0.83852 0.0
C1295 C 0.79661 0.24059 0.92197 0.0
C1296 C 0.76402 0.14222 0.74633 0.0
C1297 C 0.77255 0.15095 0.77088 0.0
C1298 C 0.74565 0.17723 0.82675 0.0
C1299 C 0.80658 0.22039 0.88248 0.0
C1300 C 0.79458 0.20817 0.85691 0.0
C1301 C 0.76035 0.17228 0.78326 0.0
C1302 C 0.77189 0.18406 0.80865 0.0
H1303 H 0.87278 0.23101 0.92299 0.0
H1304 H 0.85411 0.21256 0.88119 0.0
H1305 H 0.73572 0.18197 0.86431 0.0
H1306 H 0.71511 0.1864 0.73684 0.0
H1307 H 0.72903 0.20052 0.78006 0.0
C1308 C 0.60488 0.86644 0.24349 0.0
C1309 C 0.57938 0.84123 0.26039 0.0
C1310 C 0.60261 0.85689 0.21889 0.0
C1311 C 0.56756 0.7746 0.17951 0.0
H1312 H 0.58591 0.84421 0.12725 0.0
C1313 C 0.55991 0.77745 0.06788 0.0
C1314 C 0.57892 0.75872 0.06169 0.0
C1315 C 0.55803 0.78677 0.09205 0.0
C1316 C 0.58044 0.82435 0.14163 0.0
H1317 H 0.53051 0.78671 0.26428 0.0
H1318 H 0.52656 0.77039 0.22153 0.0
H1319 H 0.5855 0.86286 0.16931 0.0
H1320 H 0.61015 0.73444 0.07634 0.0
H1321 H 0.60671 0.75063 0.11845 0.0
H1322 H 0.56241 0.73607 0.15188 0.0
C1323 C 0.54863 0.79729 0.22737 0.0
C1324 C 0.58057 0.83517 0.16573 0.0
C1325 C 0.55079 0.80683 0.25189 0.0
C1326 C 0.59521 0.74877 0.08038 0.0
C1327 C 0.59314 0.75794 0.10457 0.0
C1328 C 0.56764 0.76387 0.15544 0.0
C1329 C 0.57488 0.8219 0.21065 0.0
C1330 C 0.57414 0.81041 0.18495 0.0
C1331 C 0.57491 0.77743 0.11064 0.0
C1332 C 0.57413 0.78862 0.13622 0.0
H1333 H 0.62728 0.89315 0.24934 0.0
H1334 H 0.62338 0.8764 0.20648 0.0
H1335 H 0.56295 0.755 0.1939 0.0
H1336 H 0.547 0.78559 0.05403 0.0
H1337 H 0.54334 0.80133 0.09617 0.0
C1338 C 0.81774 0.55624 0.41642 0.0
C1339 C 0.84397 0.58818 0.404 0.0
C1340 C 0.80837 0.55844 0.44042 0.0
C1341 C 0.8029 0.62247 0.48292 0.0
H1342 H 0.78597 0.54665 0.53029 0.0
C1343 C 0.75757 0.62258 0.5831 0.0
C1344 C 0.73366 0.58775 0.59354 0.0
C1345 C 0.77154 0.625 0.55963 0.0
C1346 C 0.79011 0.56779 0.51718 0.0
H1347 H 0.88194 0.6474 0.40751 0.0
H1348 H 0.86525 0.6512 0.44962 0.0
H1349 H 0.81294 0.54688 0.49105 0.0
H1350 H 0.70308 0.52848 0.58671 0.0
H1351 H 0.72649 0.53275 0.54574 0.0
H1352 H 0.77932 0.64293 0.50895 0.0
C1353 C 0.85195 0.6245 0.44056 0.0
C1354 C 0.8058 0.56804 0.49478 0.0
C1355 C 0.8617 0.62222 0.41654 0.0
C1356 C 0.72185 0.55569 0.57937 0.0
C1357 C 0.73556 0.55812 0.55593 0.0
C1358 C 0.78699 0.62214 0.50537 0.0
C1359 C 0.82476 0.59268 0.45259 0.0
C1360 C 0.81184 0.59501 0.47726 0.0
C1361 C 0.76165 0.59265 0.54614 0.0
C1362 C 0.77982 0.59436 0.52258 0.0
H1363 H 0.80354 0.52959 0.40741 0.0
H1364 H 0.7871 0.53349 0.44913 0.0
H1365 H 0.80692 0.64339 0.46965 0.0
H1366 H 0.76734 0.64781 0.59357 0.0
H1367 H 0.79157 0.65204 0.5526 0.0
C1368 C 0.19633 0.7543 0.92297 0.0
C1369 C 0.16693 0.75732 0.93269 0.0
C1370 C 0.20655 0.76306 0.89862 0.0
C1371 C 0.2378 0.80365 0.85137 0.0
H1372 H 0.16534 0.78799 0.80197 0.0
C1373 C 0.26358 0.81395 0.74696 0.0
C1374 C 0.25248 0.83593 0.73418 0.0
C1375 C 0.25523 0.8063 0.77164 0.0
C1376 C 0.18585 0.79272 0.81566 0.0
H1377 H 0.12506 0.77173 0.92445 0.0
H1378 H 0.14376 0.78852 0.88241 0.0
H1379 H 0.14517 0.76807 0.84357 0.0
H1380 H 0.22459 0.86776 0.73742 0.0
H1381 H 0.20927 0.85355 0.78042 0.0
H1382 H 0.27817 0.82692 0.82288 0.0
C1383 C 0.15833 0.77828 0.89324 0.0
C1384 C 0.17439 0.78149 0.83956 0.0
C1385 C 0.14765 0.76881 0.91746 0.0
C1386 C 0.23368 0.85087 0.74675 0.0
C1387 C 0.22468 0.84258 0.77129 0.0
C1388 C 0.24912 0.81418 0.82734 0.0
C1389 C 0.1881 0.77577 0.88349 0.0
C1390 C 0.20021 0.78697 0.85782 0.0
C1391 C 0.23501 0.81988 0.78385 0.0
C1392 C 0.22326 0.80902 0.80933 0.0
H1393 H 0.21151 0.74518 0.9342 0.0
H1394 H 0.22898 0.75981 0.89172 0.0
H1395 H 0.25868 0.80912 0.8649 0.0
H1396 H 0.27817 0.80211 0.73779 0.0
H1397 H 0.2634 0.78866 0.78097 0.0
C1398 C 0.37662 0.14837 0.24931 0.0
C1399 C 0.40849 0.16465 0.26383 0.0
C1400 C 0.37795 0.15992 0.22528 0.0
C1401 C 0.43707 0.23804 0.18309 0.0
H1402 H 0.37053 0.16981 0.1345 0.0
C1403 C 0.44714 0.2642 0.07843 0.0
C1404 C 0.41433 0.25809 0.06726 0.0
C1405 C 0.44727 0.25517 0.10291 0.0
C1406 C 0.38911 0.18916 0.14797 0.0
H1407 H 0.46713 0.20464 0.26425 0.0
H1408 H 0.46998 0.22337 0.22205 0.0
H1409 H 0.37003 0.14748 0.17551 0.0
H1410 H 0.35616 0.23846 0.07321 0.0
H1411 H 0.35634 0.2218 0.11578 0.0
H1412 H 0.45707 0.27923 0.15488 0.0
C1413 C 0.44352 0.2028 0.22937 0.0
C1414 C 0.38874 0.17649 0.17155 0.0
C1415 C 0.44201 0.19179 0.25356 0.0
C1416 C 0.38192 0.2437 0.08127 0.0
C1417 C 0.38191 0.23393 0.10558 0.0
C1418 C 0.43794 0.25047 0.15934 0.0
C1419 C 0.41138 0.18752 0.21497 0.0
C1420 C 0.41253 0.20079 0.18955 0.0
C1421 C 0.41446 0.23914 0.1165 0.0
C1422 C 0.41376 0.2262 0.14165 0.0
H1423 H 0.3503 0.12764 0.25675 0.0
H1424 H 0.35242 0.14785 0.21508 0.0
H1425 H 0.45528 0.25791 0.19643 0.0
H1426 H 0.47255 0.27527 0.06813 0.0
H1427 H 0.47269 0.25937 0.11097 0.0
loop_
_geom_bond_atom_site_label_1
_geom_bond_atom_site_label_2
_geom_bond_distance
_geom_bond_site_symmetry_2
_ccdc_geom_bond_type
Co0 O2 2.143 . S
Co0 O8 2.074 . S
Co0 O11 2.093 . S
Co0 O24 2.097 . S
Co0 N41 2.151 . S
Co0 N49 2.214 . S
Co1 O2 2.160 . S
Co1 O7 2.058 . S
Co1 O17 2.057 . S
Co1 O32 2.037 . S
Co1 N36 2.145 . S
Co1 N57 2.257 . S
O2 Co0 2.143 . S
O2 Co1 2.160 . S
C3 O4 1.278 . S
C3 O11 1.224 . S
O4 C3 1.278 . S
C5 O6 1.245 . S
C5 O17 1.232 . S
O6 C5 1.245 . S
O7 Co1 2.058 . S
O7 C33 1.269 . S
O8 Co0 2.074 . S
O8 C33 1.257 . S
H9 C34 0.930 . S
H10 C40 0.930 . S
O11 Co0 2.093 . S
O11 C3 1.224 . S
H12 C44 0.929 . S
H13 C46 0.930 . S
H14 C47 0.930 . S
H15 C45 0.929 . S
H16 C48 0.928 . S
O17 Co1 2.057 . S
O17 C5 1.232 . S
H18 C37 0.929 . S
H19 C38 0.929 . S
H20 C50 0.931 . S
H21 C42 0.929 . S
H22 C51 0.930 . S
H23 C43 0.931 . S
O24 Co0 2.097 . S
O24 C52 1.214 . S
H25 C53 0.929 . S
H26 C54 0.929 . S
H27 C55 0.930 . S
H28 C56 0.929 . S
H29 C58 0.930 . S
H30 C35 0.930 . S
H31 C39 0.930 . S
O32 Co1 2.037 . S
O32 C52 1.234 . S
C33 O7 1.269 . S
C33 O8 1.257 . S
C34 H9 0.930 . S
C34 C37 1.388 1_655 S
C34 C39 1.418 . S
C35 H30 0.930 . S
C35 C38 1.404 . S
C35 C39 1.353 . S
N36 Co1 2.145 . S
N36 C37 1.397 . S
N36 C38 1.334 1_455 S
C37 H18 0.929 . S
C37 C34 1.388 1_455 S
C37 N36 1.397 . S
C38 H19 0.929 . S
C38 C35 1.404 . S
C38 N36 1.334 1_655 S
C39 H31 0.930 . S
C39 C34 1.418 . S
C39 C35 1.353 . S
C40 H10 0.930 . S
C40 N41 1.330 . S
C40 C42 1.446 . S
N41 Co0 2.151 . S
N41 C40 1.330 . S
N41 C45 1.418 . S
C42 H21 0.929 . S
C42 C40 1.446 . S
C42 C43 1.332 . S
C43 H23 0.931 . S
C43 C42 1.332 . S
C43 C44 1.267 . S
C44 H12 0.929 . S
C44 C43 1.267 . S
C44 C45 1.251 . S
C45 H15 0.929 . S
C45 N41 1.418 . S
C45 C44 1.251 . S
C46 H13 0.930 . S
C46 C48 1.406 . S
C46 C51 1.261 . S
C47 H14 0.930 . S
C47 N49 1.325 . S
C47 C50 1.357 . S
C48 H16 0.928 . S
C48 C46 1.406 . S
C48 N49 1.261 . S
N49 Co0 2.214 . S
N49 C47 1.325 . S
N49 C48 1.261 . S
C50 H20 0.931 . S
C50 C47 1.357 . S
C50 C51 1.312 . S
C51 H22 0.930 . S
C51 C46 1.261 . S
C51 C50 1.312 . S
C52 O24 1.214 . S
C52 O32 1.234 . S
C53 H25 0.929 . S
C53 C56 1.391 . S
C53 C58 1.391 . S
C54 H26 0.929 . S
C54 C55 1.390 . S
C54 N57 1.391 . S
C55 H27 0.930 . S
C55 C54 1.390 . S
C55 C56 1.392 . S
C56 H28 0.929 . S
C56 C53 1.391 . S
C56 C55 1.392 . S
N57 Co1 2.257 . S
N57 C54 1.391 . S
N57 C58 1.388 . S
C58 H29 0.930 . S
C58 C53 1.391 . S
C58 N57 1.388 . S
Co59 O61 2.143 . S
Co59 O67 2.074 . S
Co59 O70 2.093 . S
Co59 O83 2.097 . S
Co59 N100 2.151 . S
Co59 N108 2.214 . S
Co60 O61 2.160 . S
Co60 O66 2.058 . S
Co60 O76 2.057 . S
Co60 O91 2.037 . S
Co60 N95 2.145 . S
Co60 N116 2.257 . S
O61 Co59 2.143 . S
O61 Co60 2.160 . S
C62 O63 1.278 . S
C62 O70 1.224 . S
O63 C62 1.278 . S
C64 O65 1.245 . S
C64 O76 1.232 . S
O65 C64 1.245 . S
O66 Co60 2.058 . S
O66 C92 1.269 . S
O67 Co59 2.074 . S
O67 C92 1.257 . S
H68 C93 0.930 . S
H69 C99 0.930 . S
O70 Co59 2.093 . S
O70 C62 1.224 . S
H71 C103 0.929 . S
H72 C105 0.930 . S
H73 C106 0.930 . S
H74 C104 0.929 . S
H75 C107 0.928 . S
O76 Co60 2.057 . S
O76 C64 1.232 . S
H77 C96 0.929 . S
H78 C97 0.929 . S
H79 C109 0.931 . S
H80 C101 0.929 . S
H81 C110 0.930 . S
H82 C102 0.931 . S
O83 Co59 2.097 . S
O83 C111 1.214 . S
H84 C112 0.929 . S
H85 C113 0.929 . S
H86 C114 0.930 . S
H87 C115 0.929 . S
H88 C117 0.930 . S
H89 C94 0.930 . S
H90 C98 0.930 . S
O91 Co60 2.037 . S
O91 C111 1.234 . S
C92 O66 1.269 . S
C92 O67 1.257 . S
C93 H68 0.930 . S
C93 C96 1.388 1_565 S
C93 C98 1.418 . S
C94 H89 0.930 . S
C94 C97 1.404 . S
C94 C98 1.353 . S
N95 Co60 2.145 . S
N95 C96 1.397 . S
N95 C97 1.334 1_545 S
C96 H77 0.929 . S
C96 C93 1.388 1_545 S
C96 N95 1.397 . S
C97 H78 0.929 . S
C97 C94 1.404 . S
C97 N95 1.334 1_565 S
C98 H90 0.930 . S
C98 C93 1.418 . S
C98 C94 1.353 . S
C99 H69 0.930 . S
C99 N100 1.330 . S
C99 C101 1.446 . S
N100 Co59 2.151 . S
N100 C99 1.330 . S
N100 C104 1.418 . S
C101 H80 0.929 . S
C101 C99 1.446 . S
C101 C102 1.332 . S
C102 H82 0.931 . S
C102 C101 1.332 . S
C102 C103 1.267 . S
C103 H71 0.929 . S
C103 C102 1.267 . S
C103 C104 1.251 . S
C104 H74 0.929 . S
C104 N100 1.418 . S
C104 C103 1.251 . S
C105 H72 0.930 . S
C105 C107 1.406 . S
C105 C110 1.261 . S
C106 H73 0.930 . S
C106 N108 1.325 . S
C106 C109 1.357 . S
C107 H75 0.928 . S
C107 C105 1.406 . S
C107 N108 1.261 . S
N108 Co59 2.214 . S
N108 C106 1.325 . S
N108 C107 1.261 . S
C109 H79 0.931 . S
C109 C106 1.357 . S
C109 C110 1.312 . S
C110 H81 0.930 . S
C110 C105 1.261 . S
C110 C109 1.312 . S
C111 O83 1.214 . S
C111 O91 1.234 . S
C112 H84 0.929 . S
C112 C115 1.391 . S
C112 C117 1.391 . S
C113 H85 0.929 . S
C113 C114 1.390 . S
C113 N116 1.391 . S
C114 H86 0.930 . S
C114 C113 1.390 . S
C114 C115 1.392 . S
C115 H87 0.929 . S
C115 C112 1.391 . S
C115 C114 1.392 . S
N116 Co60 2.257 . S
N116 C113 1.391 . S
N116 C117 1.388 . S
C117 H88 0.930 . S
C117 C112 1.391 . S
C117 N116 1.388 . S
Co118 O120 2.143 1_554 S
Co118 O126 2.074 . S
Co118 O129 2.093 1_554 S
Co118 O142 2.097 1_554 S
Co118 N159 2.151 . S
Co118 N167 2.214 . S
Co119 O120 2.160 1_554 S
Co119 O125 2.058 . S
Co119 O135 2.057 . S
Co119 O150 2.037 . S
Co119 N154 2.145 . S
Co119 N175 2.257 1_554 S
O120 Co118 2.143 1_556 S
O120 Co119 2.160 1_556 S
C121 O122 1.278 . S
C121 O129 1.224 . S
O122 C121 1.278 . S
C123 O124 1.245 . S
C123 O135 1.232 1_556 S
O124 C123 1.245 . S
O125 Co119 2.058 . S
O125 C151 1.269 . S
O126 Co118 2.074 . S
O126 C151 1.257 . S
H127 C152 0.930 . S
H128 C158 0.930 . S
O129 Co118 2.093 1_556 S
O129 C121 1.224 . S
H130 C162 0.929 . S
H131 C164 0.930 . S
H132 C165 0.930 . S
H133 C163 0.929 . S
H134 C166 0.928 1_556 S
O135 Co119 2.057 . S
O135 C123 1.232 1_554 S
H136 C155 0.929 . S
H137 C156 0.929 . S
H138 C168 0.931 . S
H139 C160 0.929 1_556 S
H140 C169 0.930 . S
H141 C161 0.931 . S
O142 Co118 2.097 1_556 S
O142 C170 1.217 . S
H143 C171 0.929 . S
H144 C172 0.929 . S
H145 C173 0.930 . S
H146 C174 0.929 . S
H147 C176 0.930 . S
H148 C153 0.930 . S
H149 C157 0.930 . S
O150 Co119 2.037 . S
O150 C170 1.231 1_554 S
C151 O125 1.269 . S
C151 O126 1.257 . S
C152 H127 0.930 . S
C152 C155 1.388 . S
C152 C157 1.418 . S
C153 H148 0.930 . S
C153 C156 1.404 . S
C153 C157 1.353 . S
N154 Co119 2.145 . S
N154 C155 1.397 . S
N154 C156 1.334 . S
C155 H136 0.929 . S
C155 C152 1.388 . S
C155 N154 1.397 . S
C156 H137 0.929 . S
C156 C153 1.404 . S
C156 N154 1.334 . S
C157 H149 0.930 . S
C157 C152 1.418 . S
C157 C153 1.353 . S
C158 H128 0.930 . S
C158 N159 1.330 1_556 S
C158 C160 1.446 1_556 S
N159 Co118 2.151 . S
N159 C158 1.330 1_554 S
N159 C163 1.418 . S
C160 H139 0.929 1_554 S
C160 C158 1.446 1_554 S
C160 C161 1.332 . S
C161 H141 0.931 . S
C161 C160 1.332 . S
C161 C162 1.267 . S
C162 H130 0.929 . S
C162 C161 1.267 . S
C162 C163 1.251 . S
C163 H133 0.929 . S
C163 N159 1.418 . S
C163 C162 1.251 . S
C164 H131 0.930 . S
C164 C166 1.406 . S
C164 C169 1.261 . S
C165 H132 0.930 . S
C165 N167 1.325 . S
C165 C168 1.357 . S
C166 H134 0.928 1_554 S
C166 C164 1.406 . S
C166 N167 1.261 . S
N167 Co118 2.214 . S
N167 C165 1.325 . S
N167 C166 1.261 . S
C168 H138 0.931 . S
C168 C165 1.357 . S
C168 C169 1.312 . S
C169 H140 0.930 . S
C169 C164 1.261 . S
C169 C168 1.312 . S
C170 O142 1.217 . S
C170 O150 1.231 1_556 S
C171 H143 0.929 . S
C171 C174 1.391 . S
C171 C176 1.391 . S
C172 H144 0.929 . S
C172 C173 1.390 . S
C172 N175 1.391 . S
C173 H145 0.930 . S
C173 C172 1.390 . S
C173 C174 1.392 . S
C174 H146 0.929 . S
C174 C171 1.391 . S
C174 C173 1.392 . S
N175 Co119 2.257 1_556 S
N175 C172 1.391 . S
N175 C176 1.388 . S
C176 H147 0.930 . S
C176 C171 1.391 . S
C176 N175 1.388 . S
Co177 O179 2.143 . S
Co177 O185 2.074 . S
Co177 O188 2.093 . S
Co177 O201 2.097 . S
Co177 N218 2.151 . S
Co177 N226 2.214 . S
Co178 O179 2.160 . S
Co178 O184 2.058 . S
Co178 O194 2.057 . S
Co178 O209 2.037 . S
Co178 N213 2.145 . S
Co178 N234 2.257 . S
O179 Co177 2.143 . S
O179 Co178 2.160 . S
C180 O181 1.278 . S
C180 O188 1.224 . S
O181 C180 1.278 . S
C182 O183 1.245 . S
C182 O194 1.232 . S
O183 C182 1.245 . S
O184 Co178 2.058 . S
O184 C210 1.269 . S
O185 Co177 2.074 . S
O185 C210 1.257 . S
H186 C211 0.930 . S
H187 C217 0.930 . S
O188 Co177 2.093 . S
O188 C180 1.224 . S
H189 C221 0.929 . S
H190 C223 0.930 . S
H191 C224 0.930 . S
H192 C222 0.929 . S
H193 C225 0.928 . S
O194 Co178 2.057 . S
O194 C182 1.232 . S
H195 C214 0.929 . S
H196 C215 0.929 . S
H197 C227 0.931 . S
H198 C219 0.929 . S
H199 C228 0.930 . S
H200 C220 0.931 . S
O201 Co177 2.097 . S
O201 C229 1.214 . S
H202 C230 0.929 . S
H203 C231 0.929 . S
H204 C232 0.930 . S
H205 C233 0.929 . S
H206 C235 0.930 . S
H207 C212 0.930 . S
H208 C216 0.930 . S
O209 Co178 2.037 . S
O209 C229 1.234 . S
C210 O184 1.269 . S
C210 O185 1.257 . S
C211 H186 0.930 . S
C211 C214 1.388 1_455 S
C211 C216 1.418 . S
C212 H207 0.930 . S
C212 C215 1.404 . S
C212 C216 1.353 . S
N213 Co178 2.145 . S
N213 C214 1.397 . S
N213 C215 1.334 1_655 S
C214 H195 0.929 . S
C214 C211 1.388 1_655 S
C214 N213 1.397 . S
C215 H196 0.929 . S
C215 C212 1.404 . S
C215 N213 1.334 1_455 S
C216 H208 0.930 . S
C216 C211 1.418 . S
C216 C212 1.353 . S
C217 H187 0.930 . S
C217 N218 1.330 . S
C217 C219 1.446 . S
N218 Co177 2.151 . S
N218 C217 1.330 . S
N218 C222 1.418 . S
C219 H198 0.929 . S
C219 C217 1.446 . S
C219 C220 1.332 . S
C220 H200 0.931 . S
C220 C219 1.332 . S
C220 C221 1.267 . S
C221 H189 0.929 . S
C221 C220 1.267 . S
C221 C222 1.251 . S
C222 H192 0.929 . S
C222 N218 1.418 . S
C222 C221 1.251 . S
C223 H190 0.930 . S
C223 C225 1.406 . S
C223 C228 1.261 . S
C224 H191 0.930 . S
C224 N226 1.325 . S
C224 C227 1.357 . S
C225 H193 0.928 . S
C225 C223 1.406 . S
C225 N226 1.261 . S
N226 Co177 2.214 . S
N226 C224 1.325 . S
N226 C225 1.261 . S
C227 H197 0.931 . S
C227 C224 1.357 . S
C227 C228 1.312 . S
C228 H199 0.930 . S
C228 C223 1.261 . S
C228 C227 1.312 . S
C229 O201 1.214 . S
C229 O209 1.234 . S
C230 H202 0.929 . S
C230 C233 1.391 . S
C230 C235 1.391 . S
C231 H203 0.929 . S
C231 C232 1.390 . S
C231 N234 1.391 . S
C232 H204 0.930 . S
C232 C231 1.390 . S
C232 C233 1.392 . S
C233 H205 0.929 . S
C233 C230 1.391 . S
C233 C232 1.392 . S
N234 Co178 2.257 . S
N234 C231 1.391 . S
N234 C235 1.388 . S
C235 H206 0.930 . S
C235 C230 1.391 . S
C235 N234 1.388 . S
Co236 O238 2.143 . S
Co236 O244 2.074 . S
Co236 O247 2.093 . S
Co236 O260 2.097 . S
Co236 N277 2.151 . S
Co236 N285 2.214 . S
Co237 O238 2.160 . S
Co237 O243 2.058 . S
Co237 O253 2.057 . S
Co237 O268 2.037 . S
Co237 N272 2.145 . S
Co237 N293 2.257 . S
O238 Co236 2.143 . S
O238 Co237 2.160 . S
C239 O240 1.278 . S
C239 O247 1.224 . S
O240 C239 1.278 . S
C241 O242 1.245 . S
C241 O253 1.232 . S
O242 C241 1.245 . S
O243 Co237 2.058 . S
O243 C269 1.269 . S
O244 Co236 2.074 . S
O244 C269 1.257 . S
H245 C270 0.930 . S
H246 C276 0.930 . S
O247 Co236 2.093 . S
O247 C239 1.224 . S
H248 C280 0.929 . S
H249 C282 0.930 . S
H250 C283 0.930 . S
H251 C281 0.929 . S
H252 C284 0.928 . S
O253 Co237 2.057 . S
O253 C241 1.232 . S
H254 C273 0.929 . S
H255 C274 0.929 . S
H256 C286 0.931 . S
H257 C278 0.929 . S
H258 C287 0.930 . S
H259 C279 0.931 . S
O260 Co236 2.097 . S
O260 C288 1.214 . S
H261 C289 0.929 . S
H262 C290 0.929 . S
H263 C291 0.930 . S
H264 C292 0.929 . S
H265 C294 0.930 . S
H266 C271 0.930 . S
H267 C275 0.930 . S
O268 Co237 2.037 . S
O268 C288 1.234 . S
C269 O243 1.269 . S
C269 O244 1.257 . S
C270 H245 0.930 . S
C270 C273 1.388 1_545 S
C270 C275 1.418 . S
C271 H266 0.930 . S
C271 C274 1.404 . S
C271 C275 1.353 . S
N272 Co237 2.145 . S
N272 C273 1.397 . S
N272 C274 1.334 1_565 S
C273 H254 0.929 . S
C273 C270 1.388 1_565 S
C273 N272 1.397 . S
C274 H255 0.929 . S
C274 C271 1.404 . S
C274 N272 1.334 1_545 S
C275 H267 0.930 . S
C275 C270 1.418 . S
C275 C271 1.353 . S
C276 H246 0.930 . S
C276 N277 1.330 . S
C276 C278 1.446 . S
N277 Co236 2.151 . S
N277 C276 1.330 . S
N277 C281 1.418 . S
C278 H257 0.929 . S
C278 C276 1.446 . S
C278 C279 1.332 . S
C279 H259 0.931 . S
C279 C278 1.332 . S
C279 C280 1.267 . S
C280 H248 0.929 . S
C280 C279 1.267 . S
C280 C281 1.251 . S
C281 H251 0.929 . S
C281 N277 1.418 . S
C281 C280 1.251 . S
C282 H249 0.930 . S
C282 C284 1.406 . S
C282 C287 1.261 . S
C283 H250 0.930 . S
C283 N285 1.325 . S
C283 C286 1.357 . S
C284 H252 0.928 . S
C284 C282 1.406 . S
C284 N285 1.261 . S
N285 Co236 2.214 . S
N285 C283 1.325 . S
N285 C284 1.261 . S
C286 H256 0.931 . S
C286 C283 1.357 . S
C286 C287 1.312 . S
C287 H258 0.930 . S
C287 C282 1.261 . S
C287 C286 1.312 . S
C288 O260 1.214 . S
C288 O268 1.234 . S
C289 H261 0.929 . S
C289 C292 1.391 . S
C289 C294 1.391 . S
C290 H262 0.929 . S
C290 C291 1.390 . S
C290 N293 1.391 . S
C291 H263 0.930 . S
C291 C290 1.390 . S
C291 C292 1.392 . S
C292 H264 0.929 . S
C292 C289 1.391 . S
C292 C291 1.392 . S
N293 Co237 2.257 . S
N293 C290 1.391 . S
N293 C294 1.388 . S
C294 H265 0.930 . S
C294 C289 1.391 . S
C294 N293 1.388 . S
Co295 O297 2.143 1_554 S
Co295 O303 2.074 . S
Co295 O306 2.093 1_554 S
Co295 O319 2.097 1_554 S
Co295 N336 2.151 . S
Co295 N344 2.214 . S
Co296 O297 2.160 1_554 S
Co296 O302 2.058 . S
Co296 O312 2.057 . S
Co296 O327 2.037 . S
Co296 N331 2.145 . S
Co296 N352 2.257 1_554 S
O297 Co295 2.143 1_556 S
O297 Co296 2.160 1_556 S
C298 O299 1.278 . S
C298 O306 1.224 . S
O299 C298 1.278 . S
C300 O301 1.245 . S
C300 O312 1.232 1_556 S
O301 C300 1.245 . S
O302 Co296 2.058 . S
O302 C328 1.269 . S
O303 Co295 2.074 . S
O303 C328 1.257 . S
H304 C329 0.930 . S
H305 C335 0.930 . S
O306 Co295 2.093 1_556 S
O306 C298 1.224 . S
H307 C339 0.929 . S
H308 C341 0.930 . S
H309 C342 0.930 . S
H310 C340 0.929 . S
H311 C343 0.928 1_556 S
O312 Co296 2.057 . S
O312 C300 1.232 1_554 S
H313 C332 0.929 . S
H314 C333 0.929 . S
H315 C345 0.931 . S
H316 C337 0.929 1_556 S
H317 C346 0.930 . S
H318 C338 0.931 . S
O319 Co295 2.097 1_556 S
O319 C347 1.217 . S
H320 C348 0.929 . S
H321 C349 0.929 . S
H322 C350 0.930 . S
H323 C351 0.929 . S
H324 C353 0.930 . S
H325 C330 0.930 . S
H326 C334 0.930 . S
O327 Co296 2.037 . S
O327 C347 1.231 1_554 S
C328 O302 1.269 . S
C328 O303 1.257 . S
C329 H304 0.930 . S
C329 C332 1.388 . S
C329 C334 1.418 . S
C330 H325 0.930 . S
C330 C333 1.404 . S
C330 C334 1.353 . S
N331 Co296 2.145 . S
N331 C332 1.397 . S
N331 C333 1.334 . S
C332 H313 0.929 . S
C332 C329 1.388 . S
C332 N331 1.397 . S
C333 H314 0.929 . S
C333 C330 1.404 . S
C333 N331 1.334 . S
C334 H326 0.930 . S
C334 C329 1.418 . S
C334 C330 1.353 . S
C335 H305 0.930 . S
C335 N336 1.330 1_556 S
C335 C337 1.446 1_556 S
N336 Co295 2.151 . S
N336 C335 1.330 1_554 S
N336 C340 1.418 . S
C337 H316 0.929 1_554 S
C337 C335 1.446 1_554 S
C337 C338 1.332 . S
C338 H318 0.931 . S
C338 C337 1.332 . S
C338 C339 1.267 . S
C339 H307 0.929 . S
C339 C338 1.267 . S
C339 C340 1.251 . S
C340 H310 0.929 . S
C340 N336 1.418 . S
C340 C339 1.251 . S
C341 H308 0.930 . S
C341 C343 1.406 . S
C341 C346 1.261 . S
C342 H309 0.930 . S
C342 N344 1.325 . S
C342 C345 1.357 . S
C343 H311 0.928 1_554 S
C343 C341 1.406 . S
C343 N344 1.261 . S
N344 Co295 2.214 . S
N344 C342 1.325 . S
N344 C343 1.261 . S
C345 H315 0.931 . S
C345 C342 1.357 . S
C345 C346 1.312 . S
C346 H317 0.930 . S
C346 C341 1.261 . S
C346 C345 1.312 . S
C347 O319 1.217 . S
C347 O327 1.231 1_556 S
C348 H320 0.929 . S
C348 C351 1.391 . S
C348 C353 1.391 . S
C349 H321 0.929 . S
C349 C350 1.390 . S
C349 N352 1.391 . S
C350 H322 0.930 . S
C350 C349 1.390 . S
C350 C351 1.392 . S
C351 H323 0.929 . S
C351 C348 1.391 . S
C351 C350 1.392 . S
N352 Co296 2.257 1_556 S
N352 C349 1.391 . S
N352 C353 1.388 . S
C353 H324 0.930 . S
C353 C348 1.391 . S
C353 N352 1.388 . S
Co354 O356 2.143 . S
Co354 O362 2.074 . S
Co354 O365 2.093 . S
Co354 O378 2.097 . S
Co354 N395 2.151 . S
Co354 N403 2.214 . S
Co355 O356 2.160 . S
Co355 O361 2.058 . S
Co355 O371 2.057 . S
Co355 O386 2.037 . S
Co355 N390 2.145 . S
Co355 N411 2.257 . S
O356 Co354 2.143 . S
O356 Co355 2.160 . S
C357 O358 1.278 . S
C357 O365 1.224 . S
O358 C357 1.278 . S
C359 O360 1.245 . S
C359 O371 1.232 . S
O360 C359 1.245 . S
O361 Co355 2.058 . S
O361 C387 1.269 . S
O362 Co354 2.074 . S
O362 C387 1.257 . S
H363 C388 0.930 . S
H364 C394 0.930 . S
O365 Co354 2.093 . S
O365 C357 1.224 . S
H366 C398 0.929 . S
H367 C400 0.930 . S
H368 C401 0.930 . S
H369 C399 0.929 . S
H370 C402 0.928 . S
O371 Co355 2.057 . S
O371 C359 1.232 . S
H372 C391 0.929 . S
H373 C392 0.929 . S
H374 C404 0.931 . S
H375 C396 0.929 . S
H376 C405 0.930 . S
H377 C397 0.931 . S
O378 Co354 2.097 . S
O378 C406 1.214 . S
H379 C407 0.929 . S
H380 C408 0.929 . S
H381 C409 0.930 . S
H382 C410 0.929 . S
H383 C412 0.930 . S
H384 C389 0.930 . S
H385 C393 0.930 . S
O386 Co355 2.037 . S
O386 C406 1.234 . S
C387 O361 1.269 . S
C387 O362 1.257 . S
C388 H363 0.930 . S
C388 C391 1.388 1_545 S
C388 C393 1.418 . S
C389 H384 0.930 . S
C389 C392 1.404 . S
C389 C393 1.353 . S
N390 Co355 2.145 . S
N390 C391 1.397 . S
N390 C392 1.334 1_565 S
C391 H372 0.929 . S
C391 C388 1.388 1_565 S
C391 N390 1.397 . S
C392 H373 0.929 . S
C392 C389 1.404 . S
C392 N390 1.334 1_545 S
C393 H385 0.930 . S
C393 C388 1.418 . S
C393 C389 1.353 . S
C394 H364 0.930 . S
C394 N395 1.330 . S
C394 C396 1.446 . S
N395 Co354 2.151 . S
N395 C394 1.330 . S
N395 C399 1.418 . S
C396 H375 0.929 . S
C396 C394 1.446 . S
C396 C397 1.332 . S
C397 H377 0.931 . S
C397 C396 1.332 . S
C397 C398 1.267 . S
C398 H366 0.929 . S
C398 C397 1.267 . S
C398 C399 1.251 . S
C399 H369 0.929 . S
C399 N395 1.418 . S
C399 C398 1.251 . S
C400 H367 0.930 . S
C400 C402 1.406 . S
C400 C405 1.261 . S
C401 H368 0.930 . S
C401 N403 1.325 . S
C401 C404 1.357 . S
C402 H370 0.928 . S
C402 C400 1.406 . S
C402 N403 1.261 . S
N403 Co354 2.214 . S
N403 C401 1.325 . S
N403 C402 1.261 . S
C404 H374 0.931 . S
C404 C401 1.357 . S
C404 C405 1.312 . S
C405 H376 0.930 . S
C405 C400 1.261 . S
C405 C404 1.312 . S
C406 O378 1.214 . S
C406 O386 1.234 . S
C407 H379 0.929 . S
C407 C410 1.391 . S
C407 C412 1.391 . S
C408 H380 0.929 . S
C408 C409 1.390 . S
C408 N411 1.391 . S
C409 H381 0.930 . S
C409 C408 1.390 . S
C409 C410 1.392 . S
C410 H382 0.929 . S
C410 C407 1.391 . S
C410 C409 1.392 . S
N411 Co355 2.257 . S
N411 C408 1.391 . S
N411 C412 1.388 . S
C412 H383 0.930 . S
C412 C407 1.391 . S
C412 N411 1.388 . S
Co413 O415 2.143 . S
Co413 O421 2.074 . S
Co413 O424 2.093 . S
Co413 O437 2.097 . S
Co413 N454 2.151 . S
Co413 N462 2.214 . S
Co414 O415 2.160 . S
Co414 O420 2.058 . S
Co414 O430 2.057 . S
Co414 O445 2.037 . S
Co414 N449 2.145 . S
Co414 N470 2.257 . S
O415 Co413 2.143 . S
O415 Co414 2.160 . S
C416 O417 1.278 . S
C416 O424 1.224 . S
O417 C416 1.278 . S
C418 O419 1.245 . S
C418 O430 1.232 . S
O419 C418 1.245 . S
O420 Co414 2.058 . S
O420 C446 1.269 . S
O421 Co413 2.074 . S
O421 C446 1.257 . S
H422 C447 0.930 . S
H423 C453 0.930 . S
O424 Co413 2.093 . S
O424 C416 1.224 . S
H425 C457 0.929 . S
H426 C459 0.930 . S
H427 C460 0.930 . S
H428 C458 0.929 . S
H429 C461 0.928 . S
O430 Co414 2.057 . S
O430 C418 1.232 . S
H431 C450 0.929 . S
H432 C451 0.929 . S
H433 C463 0.931 . S
H434 C455 0.929 . S
H435 C464 0.930 . S
H436 C456 0.931 . S
O437 Co413 2.097 . S
O437 C465 1.214 . S
H438 C466 0.929 . S
H439 C467 0.929 . S
H440 C468 0.930 . S
H441 C469 0.929 . S
H442 C471 0.930 . S
H443 C448 0.930 . S
H444 C452 0.930 . S
O445 Co414 2.037 . S
O445 C465 1.234 . S
C446 O420 1.269 . S
C446 O421 1.257 . S
C447 H422 0.930 . S
C447 C450 1.388 . S
C447 C452 1.418 . S
C448 H443 0.930 . S
C448 C451 1.404 . S
C448 C452 1.353 . S
N449 Co414 2.145 . S
N449 C450 1.397 . S
N449 C451 1.334 . S
C450 H431 0.929 . S
C450 C447 1.388 . S
C450 N449 1.397 . S
C451 H432 0.929 . S
C451 C448 1.404 . S
C451 N449 1.334 . S
C452 H444 0.930 . S
C452 C447 1.418 . S
C452 C448 1.353 . S
C453 H423 0.930 . S
C453 N454 1.330 . S
C453 C455 1.446 . S
N454 Co413 2.151 . S
N454 C453 1.330 . S
N454 C458 1.418 . S
C455 H434 0.929 . S
C455 C453 1.446 . S
C455 C456 1.332 . S
C456 H436 0.931 . S
C456 C455 1.332 . S
C456 C457 1.267 . S
C457 H425 0.929 . S
C457 C456 1.267 . S
C457 C458 1.251 . S
C458 H428 0.929 . S
C458 N454 1.418 . S
C458 C457 1.251 . S
C459 H426 0.930 . S
C459 C461 1.406 . S
C459 C464 1.261 . S
C460 H427 0.930 . S
C460 N462 1.325 . S
C460 C463 1.357 . S
C461 H429 0.928 . S
C461 C459 1.406 . S
C461 N462 1.261 . S
N462 Co413 2.214 . S
N462 C460 1.325 . S
N462 C461 1.261 . S
C463 H433 0.931 . S
C463 C460 1.357 . S
C463 C464 1.312 . S
C464 H435 0.930 . S
C464 C459 1.261 . S
C464 C463 1.312 . S
C465 O437 1.214 . S
C465 O445 1.234 . S
C466 H438 0.929 . S
C466 C469 1.391 . S
C466 C471 1.391 . S
C467 H439 0.929 . S
C467 C468 1.390 . S
C467 N470 1.391 . S
C468 H440 0.930 . S
C468 C467 1.390 . S
C468 C469 1.392 . S
C469 H441 0.929 . S
C469 C466 1.391 . S
C469 C468 1.392 . S
N470 Co414 2.257 . S
N470 C467 1.391 . S
N470 C471 1.388 . S
C471 H442 0.930 . S
C471 C466 1.391 . S
C471 N470 1.388 . S
Co472 O474 2.143 1_556 S
Co472 O480 2.074 . S
Co472 O483 2.093 1_556 S
Co472 O496 2.097 1_556 S
Co472 N513 2.151 . S
Co472 N521 2.214 . S
Co473 O474 2.160 1_556 S
Co473 O479 2.058 . S
Co473 O489 2.057 . S
Co473 O504 2.037 . S
Co473 N508 2.145 . S
Co473 N529 2.257 1_556 S
O474 Co472 2.143 1_554 S
O474 Co473 2.160 1_554 S
C475 O476 1.278 . S
C475 O483 1.224 . S
O476 C475 1.278 . S
C477 O478 1.245 . S
C477 O489 1.232 1_554 S
O478 C477 1.245 . S
O479 Co473 2.058 . S
O479 C505 1.269 . S
O480 Co472 2.074 . S
O480 C505 1.257 . S
H481 C506 0.930 . S
H482 C512 0.930 . S
O483 Co472 2.093 1_554 S
O483 C475 1.224 . S
H484 C516 0.929 . S
H485 C518 0.930 . S
H486 C519 0.930 . S
H487 C517 0.929 . S
H488 C520 0.928 1_554 S
O489 Co473 2.057 . S
O489 C477 1.232 1_556 S
H490 C509 0.929 . S
H491 C510 0.929 . S
H492 C522 0.931 . S
H493 C514 0.929 1_554 S
H494 C523 0.930 . S
H495 C515 0.931 . S
O496 Co472 2.097 1_554 S
O496 C524 1.217 . S
H497 C525 0.929 . S
H498 C526 0.929 . S
H499 C527 0.930 . S
H500 C528 0.929 . S
H501 C530 0.930 . S
H502 C507 0.930 . S
H503 C511 0.930 . S
O504 Co473 2.037 . S
O504 C524 1.231 1_556 S
C505 O479 1.269 . S
C505 O480 1.257 . S
C506 H481 0.930 . S
C506 C509 1.388 . S
C506 C511 1.418 . S
C507 H502 0.930 . S
C507 C510 1.404 . S
C507 C511 1.353 . S
N508 Co473 2.145 . S
N508 C509 1.397 . S
N508 C510 1.334 . S
C509 H490 0.929 . S
C509 C506 1.388 . S
C509 N508 1.397 . S
C510 H491 0.929 . S
C510 C507 1.404 . S
C510 N508 1.334 . S
C511 H503 0.930 . S
C511 C506 1.418 . S
C511 C507 1.353 . S
C512 H482 0.930 . S
C512 N513 1.330 1_554 S
C512 C514 1.446 1_554 S
N513 Co472 2.151 . S
N513 C512 1.330 1_556 S
N513 C517 1.418 . S
C514 H493 0.929 1_556 S
C514 C512 1.446 1_556 S
C514 C515 1.332 1_455 S
C515 H495 0.931 . S
C515 C514 1.332 1_655 S
C515 C516 1.267 . S
C516 H484 0.929 . S
C516 C515 1.267 . S
C516 C517 1.251 1_655 S
C517 H487 0.929 . S
C517 N513 1.418 . S
C517 C516 1.251 1_455 S
C518 H485 0.930 . S
C518 C520 1.406 . S
C518 C523 1.261 . S
C519 H486 0.930 . S
C519 N521 1.325 . S
C519 C522 1.357 . S
C520 H488 0.928 1_556 S
C520 C518 1.406 . S
C520 N521 1.261 1_655 S
N521 Co472 2.214 . S
N521 C519 1.325 . S
N521 C520 1.261 1_455 S
C522 H492 0.931 . S
C522 C519 1.357 . S
C522 C523 1.312 1_455 S
C523 H494 0.930 . S
C523 C518 1.261 . S
C523 C522 1.312 1_655 S
C524 O496 1.217 . S
C524 O504 1.231 1_554 S
C525 H497 0.929 . S
C525 C528 1.391 . S
C525 C530 1.391 . S
C526 H498 0.929 . S
C526 C527 1.390 . S
C526 N529 1.391 . S
C527 H499 0.930 . S
C527 C526 1.390 . S
C527 C528 1.392 . S
C528 H500 0.929 . S
C528 C525 1.391 . S
C528 C527 1.392 . S
N529 Co473 2.257 1_554 S
N529 C526 1.391 . S
N529 C530 1.388 . S
C530 H501 0.930 . S
C530 C525 1.391 . S
C530 N529 1.388 . S
Co531 O533 2.143 . S
Co531 O539 2.074 . S
Co531 O542 2.093 . S
Co531 O555 2.097 . S
Co531 N572 2.151 . S
Co531 N580 2.214 . S
Co532 O533 2.160 . S
Co532 O538 2.058 . S
Co532 O548 2.057 . S
Co532 O563 2.037 . S
Co532 N567 2.145 . S
Co532 N588 2.257 . S
O533 Co531 2.143 . S
O533 Co532 2.160 . S
C534 O535 1.278 . S
C534 O542 1.224 . S
O535 C534 1.278 . S
C536 O537 1.245 . S
C536 O548 1.232 . S
O537 C536 1.245 . S
O538 Co532 2.058 . S
O538 C564 1.269 . S
O539 Co531 2.074 . S
O539 C564 1.257 . S
H540 C565 0.930 . S
H541 C571 0.930 . S
O542 Co531 2.093 . S
O542 C534 1.224 . S
H543 C575 0.929 . S
H544 C577 0.930 . S
H545 C578 0.930 . S
H546 C576 0.929 . S
H547 C579 0.928 . S
O548 Co532 2.057 . S
O548 C536 1.232 . S
H549 C568 0.929 . S
H550 C569 0.929 . S
H551 C581 0.931 . S
H552 C573 0.929 . S
H553 C582 0.930 . S
H554 C574 0.931 . S
O555 Co531 2.097 . S
O555 C583 1.214 . S
H556 C584 0.929 . S
H557 C585 0.929 . S
H558 C586 0.930 . S
H559 C587 0.929 . S
H560 C589 0.930 . S
H561 C566 0.930 . S
H562 C570 0.930 . S
O563 Co532 2.037 . S
O563 C583 1.234 . S
C564 O538 1.269 . S
C564 O539 1.257 . S
C565 H540 0.930 . S
C565 C568 1.388 1_565 S
C565 C570 1.418 . S
C566 H561 0.930 . S
C566 C569 1.404 . S
C566 C570 1.353 . S
N567 Co532 2.145 . S
N567 C568 1.397 . S
N567 C569 1.334 1_545 S
C568 H549 0.929 . S
C568 C565 1.388 1_545 S
C568 N567 1.397 . S
C569 H550 0.929 . S
C569 C566 1.404 . S
C569 N567 1.334 1_565 S
C570 H562 0.930 . S
C570 C565 1.418 . S
C570 C566 1.353 . S
C571 H541 0.930 . S
C571 N572 1.330 . S
C571 C573 1.446 . S
N572 Co531 2.151 . S
N572 C571 1.330 . S
N572 C576 1.418 . S
C573 H552 0.929 . S
C573 C571 1.446 . S
C573 C574 1.332 . S
C574 H554 0.931 . S
C574 C573 1.332 . S
C574 C575 1.267 . S
C575 H543 0.929 . S
C575 C574 1.267 . S
C575 C576 1.251 . S
C576 H546 0.929 . S
C576 N572 1.418 . S
C576 C575 1.251 . S
C577 H544 0.930 . S
C577 C579 1.406 . S
C577 C582 1.261 . S
C578 H545 0.930 . S
C578 N580 1.325 . S
C578 C581 1.357 . S
C579 H547 0.928 . S
C579 C577 1.406 . S
C579 N580 1.261 . S
N580 Co531 2.214 . S
N580 C578 1.325 . S
N580 C579 1.261 . S
C581 H551 0.931 . S
C581 C578 1.357 . S
C581 C582 1.312 . S
C582 H553 0.930 . S
C582 C577 1.261 . S
C582 C581 1.312 . S
C583 O555 1.214 . S
C583 O563 1.234 . S
C584 H556 0.929 . S
C584 C587 1.391 . S
C584 C589 1.391 . S
C585 H557 0.929 . S
C585 C586 1.390 . S
C585 N588 1.391 . S
C586 H558 0.930 . S
C586 C585 1.390 . S
C586 C587 1.392 . S
C587 H559 0.929 . S
C587 C584 1.391 . S
C587 C586 1.392 . S
N588 Co532 2.257 . S
N588 C585 1.391 . S
N588 C589 1.388 . S
C589 H560 0.930 . S
C589 C584 1.391 . S
C589 N588 1.388 . S
Co590 O592 2.143 . S
Co590 O598 2.074 . S
Co590 O601 2.093 . S
Co590 O614 2.097 . S
Co590 N631 2.151 . S
Co590 N639 2.214 . S
Co591 O592 2.160 . S
Co591 O597 2.058 . S
Co591 O607 2.057 . S
Co591 O622 2.037 . S
Co591 N626 2.145 . S
Co591 N647 2.257 . S
O592 Co590 2.143 . S
O592 Co591 2.160 . S
C593 O594 1.278 . S
C593 O601 1.224 . S
O594 C593 1.278 . S
C595 O596 1.245 . S
C595 O607 1.232 . S
O596 C595 1.245 . S
O597 Co591 2.058 . S
O597 C623 1.269 . S
O598 Co590 2.074 . S
O598 C623 1.257 . S
H599 C624 0.930 . S
H600 C630 0.930 . S
O601 Co590 2.093 . S
O601 C593 1.224 . S
H602 C634 0.929 . S
H603 C636 0.930 . S
H604 C637 0.930 . S
H605 C635 0.929 . S
H606 C638 0.928 . S
O607 Co591 2.057 . S
O607 C595 1.232 . S
H608 C627 0.929 . S
H609 C628 0.929 . S
H610 C640 0.931 . S
H611 C632 0.929 . S
H612 C641 0.930 . S
H613 C633 0.931 . S
O614 Co590 2.097 . S
O614 C642 1.214 . S
H615 C643 0.929 . S
H616 C644 0.929 . S
H617 C645 0.930 . S
H618 C646 0.929 . S
H619 C648 0.930 . S
H620 C625 0.930 . S
H621 C629 0.930 . S
O622 Co591 2.037 . S
O622 C642 1.234 . S
C623 O597 1.269 . S
C623 O598 1.257 . S
C624 H599 0.930 . S
C624 C627 1.388 . S
C624 C629 1.418 . S
C625 H620 0.930 . S
C625 C628 1.404 . S
C625 C629 1.353 . S
N626 Co591 2.145 . S
N626 C627 1.397 . S
N626 C628 1.334 . S
C627 H608 0.929 . S
C627 C624 1.388 . S
C627 N626 1.397 . S
C628 H609 0.929 . S
C628 C625 1.404 . S
C628 N626 1.334 . S
C629 H621 0.930 . S
C629 C624 1.418 . S
C629 C625 1.353 . S
C630 H600 0.930 . S
C630 N631 1.330 . S
C630 C632 1.446 . S
N631 Co590 2.151 . S
N631 C630 1.330 . S
N631 C635 1.418 . S
C632 H611 0.929 . S
C632 C630 1.446 . S
C632 C633 1.332 . S
C633 H613 0.931 . S
C633 C632 1.332 . S
C633 C634 1.267 . S
C634 H602 0.929 . S
C634 C633 1.267 . S
C634 C635 1.251 . S
C635 H605 0.929 . S
C635 N631 1.418 . S
C635 C634 1.251 . S
C636 H603 0.930 . S
C636 C638 1.406 . S
C636 C641 1.261 . S
C637 H604 0.930 . S
C637 N639 1.325 . S
C637 C640 1.357 . S
C638 H606 0.928 . S
C638 C636 1.406 . S
C638 N639 1.261 . S
N639 Co590 2.214 . S
N639 C637 1.325 . S
N639 C638 1.261 . S
C640 H610 0.931 . S
C640 C637 1.357 . S
C640 C641 1.312 . S
C641 H612 0.930 . S
C641 C636 1.261 . S
C641 C640 1.312 . S
C642 O614 1.214 . S
C642 O622 1.234 . S
C643 H615 0.929 . S
C643 C646 1.391 . S
C643 C648 1.391 . S
C644 H616 0.929 . S
C644 C645 1.390 . S
C644 N647 1.391 . S
C645 H617 0.930 . S
C645 C644 1.390 . S
C645 C646 1.392 . S
C646 H618 0.929 . S
C646 C643 1.391 . S
C646 C645 1.392 . S
N647 Co591 2.257 . S
N647 C644 1.391 . S
N647 C648 1.388 . S
C648 H619 0.930 . S
C648 C643 1.391 . S
C648 N647 1.388 . S
Co649 O651 2.143 1_556 S
Co649 O657 2.074 . S
Co649 O660 2.093 1_556 S
Co649 O673 2.097 1_556 S
Co649 N690 2.151 . S
Co649 N698 2.214 . S
Co650 O651 2.160 1_556 S
Co650 O656 2.058 . S
Co650 O666 2.057 . S
Co650 O681 2.037 . S
Co650 N685 2.145 . S
Co650 N706 2.257 1_556 S
O651 Co649 2.143 1_554 S
O651 Co650 2.160 1_554 S
C652 O653 1.278 . S
C652 O660 1.224 . S
O653 C652 1.278 . S
C654 O655 1.245 . S
C654 O666 1.232 1_554 S
O655 C654 1.245 . S
O656 Co650 2.058 . S
O656 C682 1.269 . S
O657 Co649 2.074 . S
O657 C682 1.257 . S
H658 C683 0.930 . S
H659 C689 0.930 . S
O660 Co649 2.093 1_554 S
O660 C652 1.224 . S
H661 C693 0.929 . S
H662 C695 0.930 . S
H663 C696 0.930 . S
H664 C694 0.929 . S
H665 C697 0.928 1_554 S
O666 Co650 2.057 . S
O666 C654 1.232 1_556 S
H667 C686 0.929 . S
H668 C687 0.929 . S
H669 C699 0.931 . S
H670 C691 0.929 1_554 S
H671 C700 0.930 . S
H672 C692 0.931 . S
O673 Co649 2.097 1_554 S
O673 C701 1.217 . S
H674 C702 0.929 . S
H675 C703 0.929 . S
H676 C704 0.930 . S
H677 C705 0.929 . S
H678 C707 0.930 . S
H679 C684 0.930 . S
H680 C688 0.930 . S
O681 Co650 2.037 . S
O681 C701 1.231 1_556 S
C682 O656 1.269 . S
C682 O657 1.257 . S
C683 H658 0.930 . S
C683 C686 1.388 . S
C683 C688 1.418 . S
C684 H679 0.930 . S
C684 C687 1.404 . S
C684 C688 1.353 . S
N685 Co650 2.145 . S
N685 C686 1.397 . S
N685 C687 1.334 . S
C686 H667 0.929 . S
C686 C683 1.388 . S
C686 N685 1.397 . S
C687 H668 0.929 . S
C687 C684 1.404 . S
C687 N685 1.334 . S
C688 H680 0.930 . S
C688 C683 1.418 . S
C688 C684 1.353 . S
C689 H659 0.930 . S
C689 N690 1.330 1_554 S
C689 C691 1.446 1_554 S
N690 Co649 2.151 . S
N690 C689 1.330 1_556 S
N690 C694 1.418 . S
C691 H670 0.929 1_556 S
C691 C689 1.446 1_556 S
C691 C692 1.332 1_655 S
C692 H672 0.931 . S
C692 C691 1.332 1_455 S
C692 C693 1.267 . S
C693 H661 0.929 . S
C693 C692 1.267 . S
C693 C694 1.251 1_455 S
C694 H664 0.929 . S
C694 N690 1.418 . S
C694 C693 1.251 1_655 S
C695 H662 0.930 . S
C695 C697 1.406 . S
C695 C700 1.261 . S
C696 H663 0.930 . S
C696 N698 1.325 . S
C696 C699 1.357 . S
C697 H665 0.928 1_556 S
C697 C695 1.406 . S
C697 N698 1.261 1_455 S
N698 Co649 2.214 . S
N698 C696 1.325 . S
N698 C697 1.261 1_655 S
C699 H669 0.931 . S
C699 C696 1.357 . S
C699 C700 1.312 1_655 S
C700 H671 0.930 . S
C700 C695 1.261 . S
C700 C699 1.312 1_455 S
C701 O673 1.217 . S
C701 O681 1.231 1_554 S
C702 H674 0.929 . S
C702 C705 1.391 . S
C702 C707 1.391 . S
C703 H675 0.929 . S
C703 C704 1.390 . S
C703 N706 1.391 . S
C704 H676 0.930 . S
C704 C703 1.390 . S
C704 C705 1.392 . S
C705 H677 0.929 . S
C705 C702 1.391 . S
C705 C704 1.392 . S
N706 Co650 2.257 1_554 S
N706 C703 1.391 . S
N706 C707 1.388 . S
C707 H678 0.930 . S
C707 C702 1.391 . S
C707 N706 1.388 . S
C708 C709 1.349 . S
C708 C710 1.327 . S
C708 H733 0.950 . S
C709 C708 1.349 . S
C709 C725 1.349 . S
C710 C708 1.327 . S
C710 C729 1.429 . S
C710 H734 0.950 . S
C711 C728 1.574 . S
C711 C730 1.368 . S
C711 H735 0.949 . S
H712 C716 0.949 . S
C713 C714 1.349 . S
C713 C715 1.327 . S
C713 H736 0.950 . S
C714 C713 1.349 . S
C714 C726 1.349 . S
C715 C713 1.327 . S
C715 C731 1.429 . S
C715 H737 0.950 . S
C716 H712 0.949 . S
C716 C724 1.574 . S
C716 C732 1.368 . S
H717 C725 0.950 . S
H718 C723 0.950 . S
H719 C724 0.949 . S
H720 C726 0.950 . S
H721 C727 0.950 . S
H722 C728 0.949 . S
C723 H718 0.950 . S
C723 C725 1.327 . S
C723 C729 1.429 . S
C724 C716 1.574 . S
C724 H719 0.949 . S
C724 C730 1.368 . S
C725 C709 1.349 . S
C725 H717 0.950 . S
C725 C723 1.327 . S
C726 C714 1.349 . S
C726 H720 0.950 . S
C726 C727 1.327 . S
C727 H721 0.950 . S
C727 C726 1.327 . S
C727 C731 1.429 . S
C728 C711 1.574 . S
C728 H722 0.949 . S
C728 C732 1.368 . S
C729 C710 1.429 . S
C729 C723 1.429 . S
C729 C730 1.523 . S
C730 C711 1.368 . S
C730 C724 1.368 . S
C730 C729 1.523 . S
C731 C715 1.429 . S
C731 C727 1.429 . S
C731 C732 1.523 . S
C732 C716 1.368 . S
C732 C728 1.368 . S
C732 C731 1.523 . S
H733 C708 0.950 . S
H734 C710 0.950 . S
H735 C711 0.949 . S
H736 C713 0.950 . S
H737 C715 0.950 . S
C738 C739 1.349 . S
C738 C740 1.327 . S
C738 H763 0.950 . S
C739 C738 1.349 . S
C739 C755 1.349 . S
C740 C738 1.327 . S
C740 C759 1.429 . S
C740 H764 0.950 . S
C741 C758 1.574 . S
C741 C760 1.368 . S
C741 H765 0.949 . S
H742 C746 0.949 . S
C743 C744 1.349 . S
C743 C745 1.327 . S
C743 H766 0.950 . S
C744 C743 1.349 . S
C744 C756 1.349 . S
C745 C743 1.327 . S
C745 C761 1.429 . S
C745 H767 0.950 . S
C746 H742 0.949 . S
C746 C754 1.574 . S
C746 C762 1.368 . S
H747 C755 0.950 . S
H748 C753 0.950 . S
H749 C754 0.949 . S
H750 C756 0.950 . S
H751 C757 0.950 . S
H752 C758 0.949 . S
C753 H748 0.950 . S
C753 C755 1.327 . S
C753 C759 1.429 . S
C754 C746 1.574 . S
C754 H749 0.949 . S
C754 C760 1.368 . S
C755 C739 1.349 . S
C755 H747 0.950 . S
C755 C753 1.327 . S
C756 C744 1.349 . S
C756 H750 0.950 . S
C756 C757 1.327 . S
C757 H751 0.950 . S
C757 C756 1.327 . S
C757 C761 1.429 . S
C758 C741 1.574 . S
C758 H752 0.949 . S
C758 C762 1.368 . S
C759 C740 1.429 . S
C759 C753 1.429 . S
C759 C760 1.523 . S
C760 C741 1.368 . S
C760 C754 1.368 . S
C760 C759 1.523 . S
C761 C745 1.429 . S
C761 C757 1.429 . S
C761 C762 1.523 . S
C762 C746 1.368 . S
C762 C758 1.368 . S
C762 C761 1.523 . S
H763 C738 0.950 . S
H764 C740 0.950 . S
H765 C741 0.949 . S
H766 C743 0.950 . S
H767 C745 0.950 . S
C768 C769 1.349 . S
C768 C770 1.327 . S
C768 H793 0.950 . S
C769 C768 1.349 . S
C769 C785 1.349 1_556 S
C770 C768 1.327 . S
C770 C789 1.429 . S
C770 H794 0.950 . S
C771 C788 1.574 . S
C771 C790 1.349 1_554 S
C771 H795 0.949 . S
H772 C776 0.949 . S
C773 C774 1.349 . S
C773 C775 1.327 . S
C773 H796 0.950 . S
C774 C773 1.349 . S
C774 C786 1.349 1_554 S
C775 C773 1.327 . S
C775 C791 1.429 . S
C775 H797 0.950 . S
C776 H772 0.949 . S
C776 C784 1.574 . S
C776 C792 1.355 1_556 S
H777 C785 0.950 . S
H778 C783 0.950 . S
H779 C784 0.949 . S
H780 C786 0.950 . S
H781 C787 0.950 . S
H782 C788 0.949 . S
C783 H778 0.950 . S
C783 C785 1.327 . S
C783 C789 1.429 1_554 S
C784 C776 1.574 . S
C784 H779 0.949 . S
C784 C790 1.387 . S
C785 C769 1.349 1_554 S
C785 H777 0.950 . S
C785 C783 1.327 . S
C786 C774 1.349 1_556 S
C786 H780 0.950 . S
C786 C787 1.327 . S
C787 H781 0.950 . S
C787 C786 1.327 . S
C787 C791 1.429 1_556 S
C788 C771 1.574 . S
C788 H782 0.949 . S
C788 C792 1.381 . S
C789 C770 1.429 . S
C789 C783 1.429 1_556 S
C789 C790 1.524 . S
C790 C771 1.349 1_556 S
C790 C784 1.387 . S
C790 C789 1.524 . S
C791 C775 1.429 . S
C791 C787 1.429 1_554 S
C791 C792 1.524 . S
C792 C776 1.355 1_554 S
C792 C788 1.381 . S
C792 C791 1.524 . S
H793 C768 0.950 . S
H794 C770 0.950 . S
H795 C771 0.949 . S
H796 C773 0.950 . S
H797 C775 0.950 . S
C798 C799 1.349 . S
C798 C800 1.327 . S
C798 H823 0.950 . S
C799 C798 1.349 . S
C799 C815 1.349 . S
C800 C798 1.327 . S
C800 C819 1.429 . S
C800 H824 0.950 . S
C801 C818 1.574 . S
C801 C820 1.368 . S
C801 H825 0.949 . S
H802 C806 0.949 . S
C803 C804 1.349 . S
C803 C805 1.327 . S
C803 H826 0.950 . S
C804 C803 1.349 . S
C804 C816 1.349 . S
C805 C803 1.327 . S
C805 C821 1.429 . S
C805 H827 0.950 . S
C806 H802 0.949 . S
C806 C814 1.574 . S
C806 C822 1.368 . S
H807 C815 0.950 . S
H808 C813 0.950 . S
H809 C814 0.949 . S
H810 C816 0.950 . S
H811 C817 0.950 . S
H812 C818 0.949 . S
C813 H808 0.950 . S
C813 C815 1.327 . S
C813 C819 1.429 . S
C814 C806 1.574 . S
C814 H809 0.949 . S
C814 C820 1.368 . S
C815 C799 1.349 . S
C815 H807 0.950 . S
C815 C813 1.327 . S
C816 C804 1.349 . S
C816 H810 0.950 . S
C816 C817 1.327 . S
C817 H811 0.950 . S
C817 C816 1.327 . S
C817 C821 1.429 . S
C818 C801 1.574 . S
C818 H812 0.949 . S
C818 C822 1.368 . S
C819 C800 1.429 . S
C819 C813 1.429 . S
C819 C820 1.523 . S
C820 C801 1.368 . S
C820 C814 1.368 . S
C820 C819 1.523 . S
C821 C805 1.429 . S
C821 C817 1.429 . S
C821 C822 1.523 . S
C822 C806 1.368 . S
C822 C818 1.368 . S
C822 C821 1.523 . S
H823 C798 0.950 . S
H824 C800 0.950 . S
H825 C801 0.949 . S
H826 C803 0.950 . S
H827 C805 0.950 . S
C828 C829 1.349 . S
C828 C830 1.327 . S
C828 H853 0.950 . S
C829 C828 1.349 . S
C829 C845 1.349 . S
C830 C828 1.327 . S
C830 C849 1.429 . S
C830 H854 0.950 . S
C831 C848 1.574 . S
C831 C850 1.368 . S
C831 H855 0.949 . S
H832 C836 0.949 . S
C833 C834 1.349 . S
C833 C835 1.327 . S
C833 H856 0.950 . S
C834 C833 1.349 . S
C834 C846 1.349 . S
C835 C833 1.327 . S
C835 C851 1.429 . S
C835 H857 0.950 . S
C836 H832 0.949 . S
C836 C844 1.574 . S
C836 C852 1.368 . S
H837 C845 0.950 . S
H838 C843 0.950 . S
H839 C844 0.949 . S
H840 C846 0.950 . S
H841 C847 0.950 . S
H842 C848 0.949 . S
C843 H838 0.950 . S
C843 C845 1.327 . S
C843 C849 1.429 . S
C844 C836 1.574 . S
C844 H839 0.949 . S
C844 C850 1.368 . S
C845 C829 1.349 . S
C845 H837 0.950 . S
C845 C843 1.327 . S
C846 C834 1.349 . S
C846 H840 0.950 . S
C846 C847 1.327 . S
C847 H841 0.950 . S
C847 C846 1.327 . S
C847 C851 1.429 . S
C848 C831 1.574 . S
C848 H842 0.949 . S
C848 C852 1.368 . S
C849 C830 1.429 . S
C849 C843 1.429 . S
C849 C850 1.523 . S
C850 C831 1.368 . S
C850 C844 1.368 . S
C850 C849 1.523 . S
C851 C835 1.429 . S
C851 C847 1.429 . S
C851 C852 1.523 . S
C852 C836 1.368 . S
C852 C848 1.368 . S
C852 C851 1.523 . S
H853 C828 0.950 . S
H854 C830 0.950 . S
H855 C831 0.949 . S
H856 C833 0.950 . S
H857 C835 0.950 . S
C858 C859 1.349 . S
C858 C860 1.327 . S
C858 H883 0.950 . S
C859 C858 1.349 . S
C859 C875 1.349 1_554 S
C860 C858 1.327 . S
C860 C879 1.429 . S
C860 H884 0.950 . S
C861 C878 1.574 . S
C861 C880 1.351 1_556 S
C861 H885 0.949 . S
H862 C866 0.949 . S
C863 C864 1.349 . S
C863 C865 1.327 . S
C863 H886 0.950 . S
C864 C863 1.349 . S
C864 C876 1.349 1_556 S
C865 C863 1.327 . S
C865 C881 1.429 . S
C865 H887 0.950 . S
C866 H862 0.949 . S
C866 C874 1.574 . S
C866 C882 1.357 1_554 S
H867 C875 0.950 . S
H868 C873 0.950 . S
H869 C874 0.949 . S
H870 C876 0.950 . S
H871 C877 0.950 . S
H872 C878 0.949 . S
C873 H868 0.950 . S
C873 C875 1.327 . S
C873 C879 1.429 1_556 S
C874 C866 1.574 . S
C874 H869 0.949 . S
C874 C880 1.385 . S
C875 C859 1.349 1_556 S
C875 H867 0.950 . S
C875 C873 1.327 . S
C876 C864 1.349 1_554 S
C876 H870 0.950 . S
C876 C877 1.327 . S
C877 H871 0.950 . S
C877 C876 1.327 . S
C877 C881 1.429 1_554 S
C878 C861 1.574 . S
C878 H872 0.949 . S
C878 C882 1.380 . S
C879 C860 1.429 . S
C879 C873 1.429 1_554 S
C879 C880 1.524 . S
C880 C861 1.351 1_554 S
C880 C874 1.385 . S
C880 C879 1.524 . S
C881 C865 1.429 . S
C881 C877 1.429 1_556 S
C881 C882 1.524 . S
C882 C866 1.357 1_556 S
C882 C878 1.380 . S
C882 C881 1.524 . S
H883 C858 0.950 . S
H884 C860 0.950 . S
H885 C861 0.949 . S
H886 C863 0.950 . S
H887 C865 0.950 . S
C888 C889 1.349 . S
C888 C890 1.327 . S
C888 H913 0.950 . S
C889 C888 1.349 . S
C889 C905 1.349 . S
C890 C888 1.327 . S
C890 C909 1.429 . S
C890 H914 0.950 . S
C891 C908 1.574 . S
C891 C910 1.368 . S
C891 H915 0.949 . S
H892 C896 0.949 . S
C893 C894 1.349 . S
C893 C895 1.327 . S
C893 H916 0.950 . S
C894 C893 1.349 . S
C894 C906 1.349 . S
C895 C893 1.327 . S
C895 C911 1.429 . S
C895 H917 0.950 . S
C896 H892 0.949 . S
C896 C904 1.574 . S
C896 C912 1.368 . S
H897 C905 0.950 . S
H898 C903 0.950 . S
H899 C904 0.949 . S
H900 C906 0.950 . S
H901 C907 0.950 . S
H902 C908 0.949 . S
C903 H898 0.950 . S
C903 C905 1.327 . S
C903 C909 1.429 . S
C904 C896 1.574 . S
C904 H899 0.949 . S
C904 C910 1.368 . S
C905 C889 1.349 . S
C905 H897 0.950 . S
C905 C903 1.327 . S
C906 C894 1.349 . S
C906 H900 0.950 . S
C906 C907 1.327 . S
C907 H901 0.950 . S
C907 C906 1.327 . S
C907 C911 1.429 . S
C908 C891 1.574 . S
C908 H902 0.949 . S
C908 C912 1.368 . S
C909 C890 1.429 . S
C909 C903 1.429 . S
C909 C910 1.523 . S
C910 C891 1.368 . S
C910 C904 1.368 . S
C910 C909 1.523 . S
C911 C895 1.429 . S
C911 C907 1.429 . S
C911 C912 1.523 . S
C912 C896 1.368 . S
C912 C908 1.368 . S
C912 C911 1.523 . S
H913 C888 0.950 . S
H914 C890 0.950 . S
H915 C891 0.949 . S
H916 C893 0.950 . S
H917 C895 0.950 . S
C918 C919 1.349 . S
C918 C920 1.327 . S
C918 H943 0.950 . S
C919 C918 1.349 . S
C919 C935 1.349 . S
C920 C918 1.327 . S
C920 C939 1.429 . S
C920 H944 0.950 . S
C921 C938 1.574 1_655 S
C921 C940 1.368 . S
C921 H945 0.949 . S
H922 C926 0.949 . S
C923 C924 1.349 . S
C923 C925 1.327 . S
C923 H946 0.950 . S
C924 C923 1.349 . S
C924 C936 1.349 . S
C925 C923 1.327 . S
C925 C941 1.429 . S
C925 H947 0.950 . S
C926 H922 0.949 . S
C926 C934 1.574 1_455 S
C926 C942 1.368 . S
H927 C935 0.950 . S
H928 C933 0.950 . S
H929 C934 0.949 . S
H930 C936 0.950 . S
H931 C937 0.950 . S
H932 C938 0.949 . S
C933 H928 0.950 . S
C933 C935 1.327 . S
C933 C939 1.429 . S
C934 C926 1.574 1_655 S
C934 H929 0.949 . S
C934 C940 1.368 . S
C935 C919 1.349 . S
C935 H927 0.950 . S
C935 C933 1.327 . S
C936 C924 1.349 . S
C936 H930 0.950 . S
C936 C937 1.327 . S
C937 H931 0.950 . S
C937 C936 1.327 . S
C937 C941 1.429 . S
C938 C921 1.574 1_455 S
C938 H932 0.949 . S
C938 C942 1.368 . S
C939 C920 1.429 . S
C939 C933 1.429 . S
C939 C940 1.523 . S
C940 C921 1.368 . S
C940 C934 1.368 . S
C940 C939 1.523 . S
C941 C925 1.429 . S
C941 C937 1.429 . S
C941 C942 1.523 . S
C942 C926 1.368 . S
C942 C938 1.368 . S
C942 C941 1.523 . S
H943 C918 0.950 . S
H944 C920 0.950 . S
H945 C921 0.949 . S
H946 C923 0.950 . S
H947 C925 0.950 . S
C948 C949 1.360 . S
C948 C950 1.327 . S
C948 H973 0.950 . S
C949 C948 1.360 . S
C949 C965 1.338 1_556 S
C950 C948 1.327 . S
C950 C969 1.430 . S
C950 H974 0.950 . S
C951 C968 1.574 1_545 S
C951 C970 1.372 1_554 S
C951 H975 0.949 . S
H952 C956 0.949 . S
C953 C954 1.368 . S
C953 C955 1.327 . S
C953 H976 0.950 . S
C954 C953 1.368 . S
C954 C966 1.330 1_554 S
C955 C953 1.327 . S
C955 C971 1.438 . S
C955 H977 0.950 . S
C956 H952 0.949 . S
C956 C964 1.574 1_565 S
C956 C972 1.364 1_556 S
H957 C965 0.950 . S
H958 C963 0.950 . S
H959 C964 0.949 . S
H960 C966 0.950 . S
H961 C967 0.950 . S
H962 C968 0.949 . S
C963 H958 0.950 . S
C963 C965 1.327 . S
C963 C969 1.427 1_554 S
C964 C956 1.574 1_545 S
C964 H959 0.949 . S
C964 C970 1.365 . S
C965 C949 1.338 1_554 S
C965 H957 0.950 . S
C965 C963 1.327 . S
C966 C954 1.330 1_556 S
C966 H960 0.950 . S
C966 C967 1.327 . S
C967 H961 0.950 . S
C967 C966 1.327 . S
C967 C971 1.419 1_556 S
C968 C951 1.574 1_565 S
C968 H962 0.949 . S
C968 C972 1.373 . S
C969 C950 1.430 . S
C969 C963 1.427 1_556 S
C969 C970 1.523 . S
C970 C951 1.372 1_556 S
C970 C964 1.365 . S
C970 C969 1.523 . S
C971 C955 1.438 . S
C971 C967 1.419 1_554 S
C971 C972 1.523 . S
C972 C956 1.364 1_554 S
C972 C968 1.373 . S
C972 C971 1.523 . S
H973 C948 0.950 . S
H974 C950 0.950 . S
H975 C951 0.949 . S
H976 C953 0.950 . S
H977 C955 0.950 . S
C978 C979 1.349 . S
C978 C980 1.327 . S
C978 H1003 0.950 . S
C979 C978 1.349 . S
C979 C995 1.349 . S
C980 C978 1.327 . S
C980 C999 1.429 . S
C980 H1004 0.950 . S
C981 C998 1.574 . S
C981 C1000 1.368 . S
C981 H1005 0.949 . S
H982 C986 0.949 . S
C983 C984 1.349 . S
C983 C985 1.327 . S
C983 H1006 0.950 . S
C984 C983 1.349 . S
C984 C996 1.349 . S
C985 C983 1.327 . S
C985 C1001 1.429 . S
C985 H1007 0.950 . S
C986 H982 0.949 . S
C986 C994 1.574 . S
C986 C1002 1.368 . S
H987 C995 0.950 . S
H988 C993 0.950 . S
H989 C994 0.949 . S
H990 C996 0.950 . S
H991 C997 0.950 . S
H992 C998 0.949 . S
C993 H988 0.950 . S
C993 C995 1.327 . S
C993 C999 1.429 . S
C994 C986 1.574 . S
C994 H989 0.949 . S
C994 C1000 1.368 . S
C995 C979 1.349 . S
C995 H987 0.950 . S
C995 C993 1.327 . S
C996 C984 1.349 . S
C996 H990 0.950 . S
C996 C997 1.327 . S
C997 H991 0.950 . S
C997 C996 1.327 . S
C997 C1001 1.429 . S
C998 C981 1.574 . S
C998 H992 0.949 . S
C998 C1002 1.368 . S
C999 C980 1.429 . S
C999 C993 1.429 . S
C999 C1000 1.523 . S
C1000 C981 1.368 . S
C1000 C994 1.368 . S
C1000 C999 1.523 . S
C1001 C985 1.429 . S
C1001 C997 1.429 . S
C1001 C1002 1.523 . S
C1002 C986 1.368 . S
C1002 C998 1.368 . S
C1002 C1001 1.523 . S
H1003 C978 0.950 . S
H1004 C980 0.950 . S
H1005 C981 0.949 . S
H1006 C983 0.950 . S
H1007 C985 0.950 . S
C1008 C1009 1.349 . S
C1008 C1010 1.327 . S
C1008 H1033 0.950 . S
C1009 C1008 1.349 . S
C1009 C1025 1.349 . S
C1010 C1008 1.327 . S
C1010 C1029 1.429 . S
C1010 H1034 0.950 . S
C1011 C1028 1.574 1_455 S
C1011 C1030 1.368 . S
C1011 H1035 0.949 . S
H1012 C1016 0.949 . S
C1013 C1014 1.349 . S
C1013 C1015 1.327 . S
C1013 H1036 0.950 . S
C1014 C1013 1.349 . S
C1014 C1026 1.349 . S
C1015 C1013 1.327 . S
C1015 C1031 1.429 . S
C1015 H1037 0.950 . S
C1016 H1012 0.949 . S
C1016 C1024 1.574 1_655 S
C1016 C1032 1.368 . S
H1017 C1025 0.950 . S
H1018 C1023 0.950 . S
H1019 C1024 0.949 . S
H1020 C1026 0.950 . S
H1021 C1027 0.950 . S
H1022 C1028 0.949 . S
C1023 H1018 0.950 . S
C1023 C1025 1.327 . S
C1023 C1029 1.429 . S
C1024 C1016 1.574 1_455 S
C1024 H1019 0.949 . S
C1024 C1030 1.368 . S
C1025 C1009 1.349 . S
C1025 H1017 0.950 . S
C1025 C1023 1.327 . S
C1026 C1014 1.349 . S
C1026 H1020 0.950 . S
C1026 C1027 1.327 . S
C1027 H1021 0.950 . S
C1027 C1026 1.327 . S
C1027 C1031 1.429 . S
C1028 C1011 1.574 1_655 S
C1028 H1022 0.949 . S
C1028 C1032 1.368 . S
C1029 C1010 1.429 . S
C1029 C1023 1.429 . S
C1029 C1030 1.523 . S
C1030 C1011 1.368 . S
C1030 C1024 1.368 . S
C1030 C1029 1.523 . S
C1031 C1015 1.429 . S
C1031 C1027 1.429 . S
C1031 C1032 1.523 . S
C1032 C1016 1.368 . S
C1032 C1028 1.368 . S
C1032 C1031 1.523 . S
H1033 C1008 0.950 . S
H1034 C1010 0.950 . S
H1035 C1011 0.949 . S
H1036 C1013 0.950 . S
H1037 C1015 0.950 . S
C1038 C1039 1.338 1_556 S
C1038 C1040 1.327 . S
C1038 H1063 0.950 . S
C1039 C1038 1.338 1_554 S
C1039 C1055 1.360 . S
C1040 C1038 1.327 . S
C1040 C1059 1.427 1_556 S
C1040 H1064 0.950 . S
C1041 C1058 1.574 1_545 S
C1041 C1060 1.365 . S
C1041 H1065 0.949 . S
H1042 C1046 0.949 . S
C1043 C1044 1.330 1_554 S
C1043 C1045 1.327 . S
C1043 H1066 0.950 . S
C1044 C1043 1.330 1_556 S
C1044 C1056 1.368 . S
C1045 C1043 1.327 . S
C1045 C1061 1.419 1_554 S
C1045 H1067 0.950 . S
C1046 H1042 0.949 . S
C1046 C1054 1.574 1_565 S
C1046 C1062 1.373 . S
H1047 C1055 0.950 . S
H1048 C1053 0.950 . S
H1049 C1054 0.949 . S
H1050 C1056 0.950 . S
H1051 C1057 0.950 . S
H1052 C1058 0.949 . S
C1053 H1048 0.950 . S
C1053 C1055 1.327 . S
C1053 C1059 1.430 . S
C1054 C1046 1.574 1_545 S
C1054 H1049 0.949 . S
C1054 C1060 1.372 1_556 S
C1055 C1039 1.360 . S
C1055 H1047 0.950 . S
C1055 C1053 1.327 . S
C1056 C1044 1.368 . S
C1056 H1050 0.950 . S
C1056 C1057 1.327 . S
C1057 H1051 0.950 . S
C1057 C1056 1.327 . S
C1057 C1061 1.438 . S
C1058 C1041 1.574 1_565 S
C1058 H1052 0.949 . S
C1058 C1062 1.363 1_554 S
C1059 C1040 1.427 1_554 S
C1059 C1053 1.430 . S
C1059 C1060 1.523 . S
C1060 C1041 1.365 . S
C1060 C1054 1.372 1_554 S
C1060 C1059 1.523 . S
C1061 C1045 1.419 1_556 S
C1061 C1057 1.438 . S
C1061 C1062 1.523 . S
C1062 C1046 1.373 . S
C1062 C1058 1.363 1_556 S
C1062 C1061 1.523 . S
H1063 C1038 0.950 . S
H1064 C1040 0.950 . S
H1065 C1041 0.949 . S
H1066 C1043 0.950 . S
H1067 C1045 0.950 . S
C1068 C1069 1.349 . S
C1068 C1070 1.327 . S
C1068 H1093 0.950 . S
C1069 C1068 1.349 . S
C1069 C1085 1.349 . S
C1070 C1068 1.327 . S
C1070 C1089 1.429 . S
C1070 H1094 0.950 . S
C1071 C1088 1.574 1_655 S
C1071 C1090 1.368 . S
C1071 H1095 0.949 . S
H1072 C1076 0.937 1_455 S
C1073 C1074 1.349 . S
C1073 C1075 1.327 . S
C1073 H1096 0.950 . S
C1074 C1073 1.349 . S
C1074 C1086 1.349 . S
C1075 C1073 1.327 . S
C1075 C1091 1.429 . S
C1075 H1097 0.950 . S
C1076 H1072 0.937 1_655 S
C1076 C1084 1.574 . S
C1076 C1092 1.368 1_655 S
H1077 C1085 0.950 . S
H1078 C1083 0.950 . S
H1079 C1084 0.949 . S
H1080 C1086 0.950 . S
H1081 C1087 0.950 . S
H1082 C1088 0.949 . S
C1083 H1078 0.950 . S
C1083 C1085 1.327 . S
C1083 C1089 1.429 . S
C1084 C1076 1.574 . S
C1084 H1079 0.949 . S
C1084 C1090 1.368 . S
C1085 C1069 1.349 . S
C1085 H1077 0.950 . S
C1085 C1083 1.327 . S
C1086 C1074 1.349 . S
C1086 H1080 0.950 . S
C1086 C1087 1.327 . S
C1087 H1081 0.950 . S
C1087 C1086 1.327 . S
C1087 C1091 1.429 . S
C1088 C1071 1.574 1_455 S
C1088 H1082 0.949 . S
C1088 C1092 1.368 . S
C1089 C1070 1.429 . S
C1089 C1083 1.429 . S
C1089 C1090 1.523 . S
C1090 C1071 1.368 . S
C1090 C1084 1.368 . S
C1090 C1089 1.523 . S
C1091 C1075 1.429 . S
C1091 C1087 1.429 . S
C1091 C1092 1.523 . S
C1092 C1076 1.368 1_455 S
C1092 C1088 1.368 . S
C1092 C1091 1.523 . S
H1093 C1068 0.950 . S
H1094 C1070 0.950 . S
H1095 C1071 0.949 . S
H1096 C1073 0.950 . S
H1097 C1075 0.950 . S
C1098 C1099 1.349 . S
C1098 C1100 1.332 . S
C1098 H1123 0.950 1_545 S
C1099 C1098 1.349 . S
C1099 C1115 1.349 . S
C1100 C1098 1.332 . S
C1100 C1119 1.433 . S
C1100 H1124 0.941 1_545 S
C1101 C1118 1.574 . S
C1101 C1120 1.368 . S
C1101 H1125 0.949 . S
H1102 C1106 0.949 . S
C1103 C1104 1.349 . S
C1103 C1105 1.332 . S
C1103 H1126 0.950 1_565 S
C1104 C1103 1.349 . S
C1104 C1116 1.349 . S
C1105 C1103 1.332 . S
C1105 C1121 1.433 . S
C1105 H1127 0.941 1_565 S
C1106 H1102 0.949 . S
C1106 C1114 1.574 . S
C1106 C1122 1.368 . S
H1107 C1115 0.950 . S
H1108 C1113 0.950 . S
H1109 C1114 0.949 . S
H1110 C1116 0.950 . S
H1111 C1117 0.950 . S
H1112 C1118 0.949 . S
C1113 H1108 0.950 . S
C1113 C1115 1.327 . S
C1113 C1119 1.429 . S
C1114 C1106 1.574 . S
C1114 H1109 0.949 . S
C1114 C1120 1.368 1_565 S
C1115 C1099 1.349 . S
C1115 H1107 0.950 . S
C1115 C1113 1.327 . S
C1116 C1104 1.349 . S
C1116 H1110 0.950 . S
C1116 C1117 1.327 . S
C1117 H1111 0.950 . S
C1117 C1116 1.327 . S
C1117 C1121 1.429 . S
C1118 C1101 1.574 . S
C1118 H1112 0.949 . S
C1118 C1122 1.368 1_545 S
C1119 C1100 1.433 . S
C1119 C1113 1.429 . S
C1119 C1120 1.523 . S
C1120 C1101 1.368 . S
C1120 C1114 1.368 1_545 S
C1120 C1119 1.523 . S
C1121 C1105 1.433 . S
C1121 C1117 1.429 . S
C1121 C1122 1.523 . S
C1122 C1106 1.368 . S
C1122 C1118 1.368 1_565 S
C1122 C1121 1.523 . S
H1123 C1098 0.950 1_565 S
H1124 C1100 0.941 1_565 S
H1125 C1101 0.949 . S
H1126 C1103 0.950 1_545 S
H1127 C1105 0.941 1_545 S
C1128 C1129 1.349 . S
C1128 C1130 1.327 . S
C1128 H1153 0.950 . S
C1129 C1128 1.349 . S
C1129 C1145 1.349 . S
C1130 C1128 1.327 . S
C1130 C1149 1.429 . S
C1130 H1154 0.950 . S
C1131 C1148 1.574 . S
C1131 C1150 1.368 . S
C1131 H1155 0.949 . S
H1132 C1136 0.949 . S
C1133 C1134 1.349 . S
C1133 C1135 1.327 . S
C1133 H1156 0.950 . S
C1134 C1133 1.349 . S
C1134 C1146 1.349 . S
C1135 C1133 1.327 . S
C1135 C1151 1.429 . S
C1135 H1157 0.950 . S
C1136 H1132 0.949 . S
C1136 C1144 1.574 . S
C1136 C1152 1.368 . S
H1137 C1145 0.950 . S
H1138 C1143 0.950 . S
H1139 C1144 0.949 . S
H1140 C1146 0.950 . S
H1141 C1147 0.950 . S
H1142 C1148 0.949 . S
C1143 H1138 0.950 . S
C1143 C1145 1.327 . S
C1143 C1149 1.429 . S
C1144 C1136 1.574 . S
C1144 H1139 0.949 . S
C1144 C1150 1.368 . S
C1145 C1129 1.349 . S
C1145 H1137 0.950 . S
C1145 C1143 1.327 . S
C1146 C1134 1.349 . S
C1146 H1140 0.950 . S
C1146 C1147 1.327 . S
C1147 H1141 0.950 . S
C1147 C1146 1.327 . S
C1147 C1151 1.429 . S
C1148 C1131 1.574 . S
C1148 H1142 0.949 . S
C1148 C1152 1.368 . S
C1149 C1130 1.429 . S
C1149 C1143 1.429 . S
C1149 C1150 1.523 . S
C1150 C1131 1.368 . S
C1150 C1144 1.368 . S
C1150 C1149 1.523 . S
C1151 C1135 1.429 . S
C1151 C1147 1.429 . S
C1151 C1152 1.523 . S
C1152 C1136 1.368 . S
C1152 C1148 1.368 . S
C1152 C1151 1.523 . S
H1153 C1128 0.950 . S
H1154 C1130 0.950 . S
H1155 C1131 0.949 . S
H1156 C1133 0.950 . S
H1157 C1135 0.950 . S
C1158 C1159 1.349 . S
C1158 C1160 1.327 . S
C1158 H1183 0.950 . S
C1159 C1158 1.349 . S
C1159 C1175 1.349 . S
C1160 C1158 1.327 . S
C1160 C1179 1.429 . S
C1160 H1184 0.950 . S
C1161 C1178 1.574 1_455 S
C1161 C1180 1.368 . S
C1161 H1185 0.949 . S
H1162 C1166 0.949 . S
C1163 C1164 1.349 . S
C1163 C1165 1.327 . S
C1163 H1186 0.950 . S
C1164 C1163 1.349 . S
C1164 C1176 1.349 . S
C1165 C1163 1.327 . S
C1165 C1181 1.429 . S
C1165 H1187 0.950 . S
C1166 H1162 0.949 . S
C1166 C1174 1.574 1_655 S
C1166 C1182 1.368 . S
H1167 C1175 0.950 . S
H1168 C1173 0.950 . S
H1169 C1174 0.949 . S
H1170 C1176 0.950 . S
H1171 C1177 0.950 . S
H1172 C1178 0.949 . S
C1173 H1168 0.950 . S
C1173 C1175 1.327 . S
C1173 C1179 1.429 . S
C1174 C1166 1.574 1_455 S
C1174 H1169 0.949 . S
C1174 C1180 1.368 . S
C1175 C1159 1.349 . S
C1175 H1167 0.950 . S
C1175 C1173 1.327 . S
C1176 C1164 1.349 . S
C1176 H1170 0.950 . S
C1176 C1177 1.327 . S
C1177 H1171 0.950 . S
C1177 C1176 1.327 . S
C1177 C1181 1.429 . S
C1178 C1161 1.574 1_655 S
C1178 H1172 0.949 . S
C1178 C1182 1.368 . S
C1179 C1160 1.429 . S
C1179 C1173 1.429 . S
C1179 C1180 1.523 . S
C1180 C1161 1.368 . S
C1180 C1174 1.368 . S
C1180 C1179 1.523 . S
C1181 C1165 1.429 . S
C1181 C1177 1.429 . S
C1181 C1182 1.523 . S
C1182 C1166 1.368 . S
C1182 C1178 1.368 . S
C1182 C1181 1.523 . S
H1183 C1158 0.950 . S
H1184 C1160 0.950 . S
H1185 C1161 0.949 . S
H1186 C1163 0.950 . S
H1187 C1165 0.950 . S
C1188 C1189 1.349 . S
C1188 C1190 1.327 . S
C1188 H1213 0.950 . S
C1189 C1188 1.349 . S
C1189 C1205 1.349 . S
C1190 C1188 1.327 . S
C1190 C1209 1.429 . S
C1190 H1214 0.950 . S
C1191 C1208 1.574 . S
C1191 C1210 1.368 1_565 S
C1191 H1215 0.949 . S
H1192 C1196 0.949 . S
C1193 C1194 1.349 . S
C1193 C1195 1.327 . S
C1193 H1216 0.950 . S
C1194 C1193 1.349 . S
C1194 C1206 1.349 . S
C1195 C1193 1.327 . S
C1195 C1211 1.429 . S
C1195 H1217 0.950 . S
C1196 H1192 0.949 . S
C1196 C1204 1.574 . S
C1196 C1212 1.368 1_545 S
H1197 C1205 0.951 1_565 S
H1198 C1203 0.950 1_565 S
H1199 C1204 0.949 . S
H1200 C1206 0.951 1_545 S
H1201 C1207 0.950 1_545 S
H1202 C1208 0.949 . S
C1203 H1198 0.950 1_545 S
C1203 C1205 1.327 . S
C1203 C1209 1.429 . S
C1204 C1196 1.574 . S
C1204 H1199 0.949 . S
C1204 C1210 1.368 . S
C1205 C1189 1.349 . S
C1205 H1197 0.951 1_545 S
C1205 C1203 1.327 . S
C1206 C1194 1.349 . S
C1206 H1200 0.951 1_565 S
C1206 C1207 1.327 . S
C1207 H1201 0.950 1_565 S
C1207 C1206 1.327 . S
C1207 C1211 1.429 . S
C1208 C1191 1.574 . S
C1208 H1202 0.949 . S
C1208 C1212 1.368 . S
C1209 C1190 1.429 . S
C1209 C1203 1.429 . S
C1209 C1210 1.523 . S
C1210 C1191 1.368 1_545 S
C1210 C1204 1.368 . S
C1210 C1209 1.523 . S
C1211 C1195 1.429 . S
C1211 C1207 1.429 . S
C1211 C1212 1.523 . S
C1212 C1196 1.368 1_565 S
C1212 C1208 1.368 . S
C1212 C1211 1.523 . S
H1213 C1188 0.950 . S
H1214 C1190 0.950 . S
H1215 C1191 0.949 . S
H1216 C1193 0.950 . S
H1217 C1195 0.950 . S
C1218 C1219 1.349 . S
C1218 C1220 1.327 . S
C1218 H1243 0.950 . S
C1219 C1218 1.349 . S
C1219 C1235 1.349 . S
C1220 C1218 1.327 . S
C1220 C1239 1.429 . S
C1220 H1244 0.950 . S
C1221 C1238 1.574 . S
C1221 C1240 1.368 . S
C1221 H1245 0.949 . S
H1222 C1226 0.949 . S
C1223 C1224 1.349 . S
C1223 C1225 1.327 . S
C1223 H1246 0.950 . S
C1224 C1223 1.349 . S
C1224 C1236 1.349 . S
C1225 C1223 1.327 . S
C1225 C1241 1.429 . S
C1225 H1247 0.950 . S
C1226 H1222 0.949 . S
C1226 C1234 1.574 . S
C1226 C1242 1.368 . S
H1227 C1235 0.950 . S
H1228 C1233 0.950 . S
H1229 C1234 0.949 . S
H1230 C1236 0.950 . S
H1231 C1237 0.950 . S
H1232 C1238 0.949 . S
C1233 H1228 0.950 . S
C1233 C1235 1.327 . S
C1233 C1239 1.429 . S
C1234 C1226 1.574 . S
C1234 H1229 0.949 . S
C1234 C1240 1.368 . S
C1235 C1219 1.349 . S
C1235 H1227 0.950 . S
C1235 C1233 1.327 . S
C1236 C1224 1.349 . S
C1236 H1230 0.950 . S
C1236 C1237 1.327 . S
C1237 H1231 0.950 . S
C1237 C1236 1.327 . S
C1237 C1241 1.429 . S
C1238 C1221 1.574 . S
C1238 H1232 0.949 . S
C1238 C1242 1.368 . S
C1239 C1220 1.429 . S
C1239 C1233 1.429 . S
C1239 C1240 1.523 . S
C1240 C1221 1.368 . S
C1240 C1234 1.368 . S
C1240 C1239 1.523 . S
C1241 C1225 1.429 . S
C1241 C1237 1.429 . S
C1241 C1242 1.523 . S
C1242 C1226 1.368 . S
C1242 C1238 1.368 . S
C1242 C1241 1.523 . S
H1243 C1218 0.950 . S
H1244 C1220 0.950 . S
H1245 C1221 0.949 . S
H1246 C1223 0.950 . S
H1247 C1225 0.950 . S
C1248 C1249 1.349 . S
C1248 C1250 1.327 . S
C1248 H1273 0.950 . S
C1249 C1248 1.349 . S
C1249 C1265 1.349 . S
C1250 C1248 1.327 . S
C1250 C1269 1.429 . S
C1250 H1274 0.950 . S
C1251 C1268 1.574 . S
C1251 C1270 1.368 . S
C1251 H1275 0.949 . S
H1252 C1256 0.949 . S
C1253 C1254 1.349 . S
C1253 C1255 1.327 . S
C1253 H1276 0.950 . S
C1254 C1253 1.349 . S
C1254 C1266 1.349 . S
C1255 C1253 1.327 . S
C1255 C1271 1.429 . S
C1255 H1277 0.950 . S
C1256 H1252 0.949 . S
C1256 C1264 1.574 . S
C1256 C1272 1.368 . S
H1257 C1265 0.950 . S
H1258 C1263 0.950 . S
H1259 C1264 0.949 . S
H1260 C1266 0.950 . S
H1261 C1267 0.950 . S
H1262 C1268 0.949 . S
C1263 H1258 0.950 . S
C1263 C1265 1.327 . S
C1263 C1269 1.429 . S
C1264 C1256 1.574 . S
C1264 H1259 0.949 . S
C1264 C1270 1.368 . S
C1265 C1249 1.349 . S
C1265 H1257 0.950 . S
C1265 C1263 1.327 . S
C1266 C1254 1.349 . S
C1266 H1260 0.950 . S
C1266 C1267 1.327 . S
C1267 H1261 0.950 . S
C1267 C1266 1.327 . S
C1267 C1271 1.429 . S
C1268 C1251 1.574 . S
C1268 H1262 0.949 . S
C1268 C1272 1.368 . S
C1269 C1250 1.429 . S
C1269 C1263 1.429 . S
C1269 C1270 1.523 . S
C1270 C1251 1.368 . S
C1270 C1264 1.368 . S
C1270 C1269 1.523 . S
C1271 C1255 1.429 . S
C1271 C1267 1.429 . S
C1271 C1272 1.523 . S
C1272 C1256 1.368 . S
C1272 C1268 1.368 . S
C1272 C1271 1.523 . S
H1273 C1248 0.950 . S
H1274 C1250 0.950 . S
H1275 C1251 0.949 . S
H1276 C1253 0.950 . S
H1277 C1255 0.950 . S
C1278 C1279 1.349 . S
C1278 C1280 1.327 . S
C1278 H1303 0.950 . S
C1279 C1278 1.349 . S
C1279 C1295 1.349 . S
C1280 C1278 1.327 . S
C1280 C1299 1.429 . S
C1280 H1304 0.950 . S
C1281 C1298 1.574 . S
C1281 C1300 1.368 . S
C1281 H1305 0.949 . S
H1282 C1286 0.949 . S
C1283 C1284 1.349 . S
C1283 C1285 1.327 . S
C1283 H1306 0.950 . S
C1284 C1283 1.349 . S
C1284 C1296 1.349 . S
C1285 C1283 1.327 . S
C1285 C1301 1.429 . S
C1285 H1307 0.950 . S
C1286 H1282 0.949 . S
C1286 C1294 1.574 . S
C1286 C1302 1.368 . S
H1287 C1295 0.950 . S
H1288 C1293 0.950 . S
H1289 C1294 0.949 . S
H1290 C1296 0.950 . S
H1291 C1297 0.950 . S
H1292 C1298 0.949 . S
C1293 H1288 0.950 . S
C1293 C1295 1.327 . S
C1293 C1299 1.429 . S
C1294 C1286 1.574 . S
C1294 H1289 0.949 . S
C1294 C1300 1.368 . S
C1295 C1279 1.349 . S
C1295 H1287 0.950 . S
C1295 C1293 1.327 . S
C1296 C1284 1.349 . S
C1296 H1290 0.950 . S
C1296 C1297 1.327 . S
C1297 H1291 0.950 . S
C1297 C1296 1.327 . S
C1297 C1301 1.429 . S
C1298 C1281 1.574 . S
C1298 H1292 0.949 . S
C1298 C1302 1.368 . S
C1299 C1280 1.429 . S
C1299 C1293 1.429 . S
C1299 C1300 1.523 . S
C1300 C1281 1.368 . S
C1300 C1294 1.368 . S
C1300 C1299 1.523 . S
C1301 C1285 1.429 . S
C1301 C1297 1.429 . S
C1301 C1302 1.523 . S
C1302 C1286 1.368 . S
C1302 C1298 1.368 . S
C1302 C1301 1.523 . S
H1303 C1278 0.950 . S
H1304 C1280 0.950 . S
H1305 C1281 0.949 . S
H1306 C1283 0.950 . S
H1307 C1285 0.950 . S
C1308 C1309 1.349 . S
C1308 C1310 1.327 . S
C1308 H1333 0.950 . S
C1309 C1308 1.349 . S
C1309 C1325 1.349 . S
C1310 C1308 1.327 . S
C1310 C1329 1.429 . S
C1310 H1334 0.950 . S
C1311 C1328 1.574 . S
C1311 C1330 1.368 . S
C1311 H1335 0.949 . S
H1312 C1316 0.949 . S
C1313 C1314 1.349 . S
C1313 C1315 1.327 . S
C1313 H1336 0.950 . S
C1314 C1313 1.349 . S
C1314 C1326 1.349 . S
C1315 C1313 1.327 . S
C1315 C1331 1.429 . S
C1315 H1337 0.950 . S
C1316 H1312 0.949 . S
C1316 C1324 1.574 . S
C1316 C1332 1.368 . S
H1317 C1325 0.950 . S
H1318 C1323 0.950 . S
H1319 C1324 0.949 . S
H1320 C1326 0.950 . S
H1321 C1327 0.950 . S
H1322 C1328 0.949 . S
C1323 H1318 0.950 . S
C1323 C1325 1.327 . S
C1323 C1329 1.429 . S
C1324 C1316 1.574 . S
C1324 H1319 0.949 . S
C1324 C1330 1.368 . S
C1325 C1309 1.349 . S
C1325 H1317 0.950 . S
C1325 C1323 1.327 . S
C1326 C1314 1.349 . S
C1326 H1320 0.950 . S
C1326 C1327 1.327 . S
C1327 H1321 0.950 . S
C1327 C1326 1.327 . S
C1327 C1331 1.429 . S
C1328 C1311 1.574 . S
C1328 H1322 0.949 . S
C1328 C1332 1.368 . S
C1329 C1310 1.429 . S
C1329 C1323 1.429 . S
C1329 C1330 1.523 . S
C1330 C1311 1.368 . S
C1330 C1324 1.368 . S
C1330 C1329 1.523 . S
C1331 C1315 1.429 . S
C1331 C1327 1.429 . S
C1331 C1332 1.523 . S
C1332 C1316 1.368 . S
C1332 C1328 1.368 . S
C1332 C1331 1.523 . S
H1333 C1308 0.950 . S
H1334 C1310 0.950 . S
H1335 C1311 0.949 . S
H1336 C1313 0.950 . S
H1337 C1315 0.950 . S
C1338 C1339 1.349 . S
C1338 C1340 1.327 . S
C1338 H1363 0.950 . S
C1339 C1338 1.349 . S
C1339 C1355 1.349 . S
C1340 C1338 1.327 . S
C1340 C1359 1.429 . S
C1340 H1364 0.950 . S
C1341 C1358 1.574 . S
C1341 C1360 1.368 . S
C1341 H1365 0.949 . S
H1342 C1346 0.949 . S
C1343 C1344 1.349 . S
C1343 C1345 1.327 . S
C1343 H1366 0.950 . S
C1344 C1343 1.349 . S
C1344 C1356 1.349 . S
C1345 C1343 1.327 . S
C1345 C1361 1.429 . S
C1345 H1367 0.950 . S
C1346 H1342 0.949 . S
C1346 C1354 1.574 . S
C1346 C1362 1.368 . S
H1347 C1355 0.950 . S
H1348 C1353 0.950 . S
H1349 C1354 0.949 . S
H1350 C1356 0.950 . S
H1351 C1357 0.950 . S
H1352 C1358 0.949 . S
C1353 H1348 0.950 . S
C1353 C1355 1.327 . S
C1353 C1359 1.429 . S
C1354 C1346 1.574 . S
C1354 H1349 0.949 . S
C1354 C1360 1.368 . S
C1355 C1339 1.349 . S
C1355 H1347 0.950 . S
C1355 C1353 1.327 . S
C1356 C1344 1.349 . S
C1356 H1350 0.950 . S
C1356 C1357 1.327 . S
C1357 H1351 0.950 . S
C1357 C1356 1.327 . S
C1357 C1361 1.429 . S
C1358 C1341 1.574 . S
C1358 H1352 0.949 . S
C1358 C1362 1.368 . S
C1359 C1340 1.429 . S
C1359 C1353 1.429 . S
C1359 C1360 1.523 . S
C1360 C1341 1.368 . S
C1360 C1354 1.368 . S
C1360 C1359 1.523 . S
C1361 C1345 1.429 . S
C1361 C1357 1.429 . S
C1361 C1362 1.523 . S
C1362 C1346 1.368 . S
C1362 C1358 1.368 . S
C1362 C1361 1.523 . S
H1363 C1338 0.950 . S
H1364 C1340 0.950 . S
H1365 C1341 0.949 . S
H1366 C1343 0.950 . S
H1367 C1345 0.950 . S
C1368 C1369 1.349 . S
C1368 C1370 1.327 . S
C1368 H1393 0.950 . S
C1369 C1368 1.349 . S
C1369 C1385 1.349 . S
C1370 C1368 1.327 . S
C1370 C1389 1.429 . S
C1370 H1394 0.950 . S
C1371 C1388 1.574 . S
C1371 C1390 1.368 . S
C1371 H1395 0.949 . S
H1372 C1376 0.949 . S
C1373 C1374 1.349 . S
C1373 C1375 1.327 . S
C1373 H1396 0.950 . S
C1374 C1373 1.349 . S
C1374 C1386 1.349 . S
C1375 C1373 1.327 . S
C1375 C1391 1.429 . S
C1375 H1397 0.950 . S
C1376 H1372 0.949 . S
C1376 C1384 1.574 . S
C1376 C1392 1.368 . S
H1377 C1385 0.950 . S
H1378 C1383 0.950 . S
H1379 C1384 0.949 . S
H1380 C1386 0.950 . S
H1381 C1387 0.950 . S
H1382 C1388 0.949 . S
C1383 H1378 0.950 . S
C1383 C1385 1.327 . S
C1383 C1389 1.429 . S
C1384 C1376 1.574 . S
C1384 H1379 0.949 . S
C1384 C1390 1.368 . S
C1385 C1369 1.349 . S
C1385 H1377 0.950 . S
C1385 C1383 1.327 . S
C1386 C1374 1.349 . S
C1386 H1380 0.950 . S
C1386 C1387 1.327 . S
C1387 H1381 0.950 . S
C1387 C1386 1.327 . S
C1387 C1391 1.429 . S
C1388 C1371 1.574 . S
C1388 H1382 0.949 . S
C1388 C1392 1.368 . S
C1389 C1370 1.429 . S
C1389 C1383 1.429 . S
C1389 C1390 1.523 . S
C1390 C1371 1.368 . S
C1390 C1384 1.368 . S
C1390 C1389 1.523 . S
C1391 C1375 1.429 . S
C1391 C1387 1.429 . S
C1391 C1392 1.523 . S
C1392 C1376 1.368 . S
C1392 C1388 1.368 . S
C1392 C1391 1.523 . S
H1393 C1368 0.950 . S
H1394 C1370 0.950 . S
H1395 C1371 0.949 . S
H1396 C1373 0.950 . S
H1397 C1375 0.950 . S
C1398 C1399 1.349 . S
C1398 C1400 1.327 . S
C1398 H1423 0.950 . S
C1399 C1398 1.349 . S
C1399 C1415 1.349 . S
C1400 C1398 1.327 . S
C1400 C1419 1.429 . S
C1400 H1424 0.950 . S
C1401 C1418 1.574 . S
C1401 C1420 1.368 . S
C1401 H1425 0.949 . S
H1402 C1406 0.949 . S
C1403 C1404 1.349 . S
C1403 C1405 1.327 . S
C1403 H1426 0.950 . S
C1404 C1403 1.349 . S
C1404 C1416 1.349 . S
C1405 C1403 1.327 . S
C1405 C1421 1.429 . S
C1405 H1427 0.950 . S
C1406 H1402 0.949 . S
C1406 C1414 1.574 . S
C1406 C1422 1.368 . S
H1407 C1415 0.950 . S
H1408 C1413 0.950 . S
H1409 C1414 0.949 . S
H1410 C1416 0.950 . S
H1411 C1417 0.950 . S
H1412 C1418 0.949 . S
C1413 H1408 0.950 . S
C1413 C1415 1.327 . S
C1413 C1419 1.429 . S
C1414 C1406 1.574 . S
C1414 H1409 0.949 . S
C1414 C1420 1.368 . S
C1415 C1399 1.349 . S
C1415 H1407 0.950 . S
C1415 C1413 1.327 . S
C1416 C1404 1.349 . S
C1416 H1410 0.950 . S
C1416 C1417 1.327 . S
C1417 H1411 0.950 . S
C1417 C1416 1.327 . S
C1417 C1421 1.429 . S
C1418 C1401 1.574 . S
C1418 H1412 0.949 . S
C1418 C1422 1.368 . S
C1419 C1400 1.429 . S
C1419 C1413 1.429 . S
C1419 C1420 1.523 . S
C1420 C1401 1.368 . S
C1420 C1414 1.368 . S
C1420 C1419 1.523 . S
C1421 C1405 1.429 . S
C1421 C1417 1.429 . S
C1421 C1422 1.523 . S
C1422 C1406 1.368 . S
C1422 C1418 1.368 . S
C1422 C1421 1.523 . S
H1423 C1398 0.950 . S
H1424 C1400 0.950 . S
H1425 C1401 0.949 . S
H1426 C1403 0.950 . S
H1427 C1405 0.950 . S
C709 C3 1.708 . S
C714 C357 1.715 . S
C739 C62 1.715 . S
C744 C416 1.708 . S
C769 C123 1.610 . S
C774 C477 1.610 . S
C799 C534 1.715 . S
C804 C180 1.708 . S
C829 C239 1.715 . S
C834 C593 1.708 . S
C859 C654 1.610 . S
C864 C300 1.610 . S
C889 C33 1.429 . S
C894 C564 1.432 . S
C919 C92 1.432 . S
C924 C623 1.429 . S
C949 C701 1.328 1_556 S
C954 C170 1.328 1_554 S
C979 C387 1.432 . S
C984 C210 1.429 . S
C1009 C269 1.432 . S
C1014 C446 1.429 . S
C1039 C347 1.328 1_554 S
C1044 C524 1.328 1_556 S
C1069 C652 1.528 . S
C1074 C5 1.525 . S
C1099 C64 1.783 . S
C1104 C359 1.783 . S
C1129 C121 1.528 . S
C1134 C418 1.525 . S
C1159 C475 1.528 . S
C1164 C182 1.525 . S
C1189 C536 1.783 . S
C1194 C241 1.783 . S
C1219 C298 1.528 . S
C1224 C595 1.525 . S
C1249 C52 0.909 . S
C1254 C642 0.909 . S
C1279 C682 1.138 . S
C1284 C111 1.154 . S
C1309 C406 1.148 . S
C1314 C151 1.143 . S
C1339 C229 0.909 . S
C1344 C465 0.909 . S
C1369 C505 1.138 . S
C1374 C288 1.154 . S
C1399 C583 1.148 . S
C1404 C328 1.143 . S
