# Generated by pormake.
# Topology rac, (4)-cn, num edge types: 1
# Building blocks:
#     Node 0, Type 0, BuildingBlock: KUFVIS_clean_sbu_0, # of connection points: 4
#     Node 1, Type 0, BuildingBlock: KUFVIS_clean_sbu_0, # of connection points: 4
#     Node 2, Type 0, BuildingBlock: KUFVIS_clean_sbu_0, # of connection points: 4
#     Node 3, Type 0, BuildingBlock: KUFVIS_clean_sbu_0, # of connection points: 4
#     Node 4, Type 0, BuildingBlock: KUFVIS_clean_sbu_0, # of connection points: 4
#     Node 5, Type 0, BuildingBlock: KUFVIS_clean_sbu_0, # of connection points: 4
#     Node 6, Type 0, BuildingBlock: KUFVIS_clean_sbu_0, # of connection points: 4
#     Node 7, Type 0, BuildingBlock: KUFVIS_clean_sbu_0, # of connection points: 4
#     Edge 8, Type (0, 0), BuildingBlock: EYOCIG_clean_linker_4, # of connection points: 2
#     Edge 9, Type (0, 0), BuildingBlock: EYOCIG_clean_linker_4, # of connection points: 2
#     Edge 10, Type (0, 0), BuildingBlock: EYOCIG_clean_linker_4, # of connection points: 2
#     Edge 11, Type (0, 0), BuildingBlock: EYOCIG_clean_linker_4, # of connection points: 2
#     Edge 12, Type (0, 0), BuildingBlock: EYOCIG_clean_linker_4, # of connection points: 2
#     Edge 13, Type (0, 0), BuildingBlock: EYOCIG_clean_linker_4, # of connection points: 2
#     Edge 14, Type (0, 0), BuildingBlock: EYOCIG_clean_linker_4, # of connection points: 2
#     Edge 15, Type (0, 0), BuildingBlock: EYOCIG_clean_linker_4, # of connection points: 2
#     Edge 16, Type (0, 0), BuildingBlock: EYOCIG_clean_linker_4, # of connection points: 2
#     Edge 17, Type (0, 0), BuildingBlock: EYOCIG_clean_linker_4, # of connection points: 2
#     Edge 18, Type (0, 0), BuildingBlock: EYOCIG_clean_linker_4, # of connection points: 2
#     Edge 19, Type (0, 0), BuildingBlock: EYOCIG_clean_linker_4, # of connection points: 2
#     Edge 20, Type (0, 0), BuildingBlock: EYOCIG_clean_linker_4, # of connection points: 2
#     Edge 21, Type (0, 0), BuildingBlock: EYOCIG_clean_linker_4, # of connection points: 2
#     Edge 22, Type (0, 0), BuildingBlock: EYOCIG_clean_linker_4, # of connection points: 2
#     Edge 23, Type (0, 0), BuildingBlock: EYOCIG_clean_linker_4, # of connection points: 2
# Relax obj value: 0.200
# Max RMSD: 0.073
# Mean RMSD: 0.073
data_MOF--net-rac--node1-KUFVIS_clean_sbu_0--edge1-EYOCIG_clean_linker_4
_symmetry_space_group_name_H-M    P1
_symmetry_Int_Tables_number       1
_symmetry_cell_setting            triclinic
loop_
_symmetry_equiv_pos_as_xyz
'x, y, z'
_cell_length_a     31.064433
_cell_length_b     17.507836
_cell_length_c     28.811844
_cell_angle_alpha  89.993191
_cell_angle_beta   89.985493
_cell_angle_gamma 90.001272
loop_
_atom_site_label
_atom_site_type_symbol
_atom_site_fract_x
_atom_site_fract_y
_atom_site_fract_z
_atom_type_partial_charge
Mn0 Mn 0.3972 0.27437 0.04685 0.0
Mn1 Mn 0.30086 0.25438 0.10069 0.0
C2 C 0.33764 0.33564 0.01931 0.0
C3 C 0.45962 0.34946 0.03563 0.0
C4 C 0.33876 0.13371 0.03783 0.0
O5 O 0.41457 0.23723 0.11112 0.0
O6 O 0.34857 0.23079 0.14477 0.0
C7 C 0.2943 0.35351 0.18213 0.0
N8 N 0.28353 0.3405 0.13692 0.0
C9 C 0.22178 0.4233 0.14362 0.0
C10 C 0.23251 0.4374 0.18997 0.0
C11 C 0.26841 0.40106 0.20956 0.0
C12 C 0.24718 0.37122 0.11881 0.0
H13 H 0.3211 0.32451 0.19812 0.0
C14 C 0.38986 0.22802 0.14618 0.0
O15 O 0.45843 0.27855 0.02216 0.0
O16 O 0.42666 0.37391 0.0582 0.0
N17 N 0.25434 0.28094 0.06014 0.0
C18 C 0.24227 0.24755 0.01942 0.0
C19 C 0.20633 0.2757 0.99537 0.0
C20 C 0.18262 0.33678 0.01387 0.0
C21 C 0.1954 0.36966 0.05602 0.0
C22 C 0.2326 0.34133 0.07745 0.0
H23 H 0.26006 0.20013 1.00515 0.0
O24 O 0.36939 0.32001 0.99181 0.0
O25 O 0.34075 0.31305 0.06209 0.0
O26 O 0.37421 0.16671 0.02679 0.0
O27 O 0.31178 0.16158 0.06595 0.0
C28 C 0.17188 0.42778 0.07829 0.0
C29 C 0.18462 0.45363 0.12252 0.0
H30 H 0.21277 0.47452 0.21124 0.0
H31 H 0.27629 0.4101 0.24574 0.0
H32 H 0.19662 0.24977 0.96293 0.0
H33 H 0.15433 0.35727 0.99576 0.0
H34 H 0.14282 0.45029 0.0627 0.0
H35 H 0.16487 0.49502 0.14062 0.0
Mn36 Mn 0.16137 0.70396 0.04658 0.0
Mn37 Mn 0.25769 0.72362 0.10043 0.0
C38 C 0.22089 0.6426 0.01901 0.0
C39 C 0.09891 0.62901 0.03532 0.0
C40 C 0.2199 0.84454 0.03767 0.0
O41 O 0.14399 0.74099 0.11089 0.0
O42 O 0.20998 0.74721 0.14453 0.0
C43 C 0.26413 0.62425 0.18177 0.0
N44 N 0.27494 0.63737 0.13658 0.0
C45 C 0.33663 0.55442 0.14321 0.0
C46 C 0.32586 0.54021 0.18954 0.0
C47 C 0.28998 0.57658 0.20917 0.0
C48 C 0.31128 0.60662 0.11844 0.0
H49 H 0.23734 0.65327 0.19779 0.0
C50 C 0.16869 0.75006 0.14595 0.0
O51 O 0.10015 0.69995 0.02189 0.0
O52 O 0.13185 0.60445 0.05787 0.0
N53 N 0.3042 0.69707 0.05985 0.0
C54 C 0.3163 0.73053 0.01915 0.0
C55 C 0.35224 0.70237 0.99508 0.0
C56 C 0.37591 0.64122 0.01354 0.0
C57 C 0.3631 0.60826 0.05566 0.0
C58 C 0.3259 0.6366 0.07711 0.0
H59 H 0.29854 0.77801 1.00491 0.0
O60 O 0.18918 0.65839 0.9915 0.0
O61 O 0.21777 0.66514 0.06179 0.0
O62 O 0.18443 0.81163 0.02661 0.0
O63 O 0.24684 0.81654 0.06577 0.0
C64 C 0.38658 0.55007 0.0779 0.0
C65 C 0.37379 0.5241 0.12209 0.0
H66 H 0.34558 0.50301 0.21079 0.0
H67 H 0.28209 0.56748 0.24535 0.0
H68 H 0.36197 0.72836 0.96265 0.0
H69 H 0.4042 0.62073 0.99541 0.0
H70 H 0.41564 0.52759 0.06229 0.0
H71 H 0.39351 0.48263 0.14017 0.0
Mn72 Mn 0.39703 0.20388 0.46696 0.0
Mn73 Mn 0.30073 0.22376 0.41309 0.0
C74 C 0.33747 0.14254 0.49449 0.0
C75 C 0.45946 0.12885 0.47817 0.0
C76 C 0.33856 0.3445 0.47593 0.0
O77 O 0.41443 0.24103 0.40269 0.0
O78 O 0.34845 0.24734 0.36901 0.0
C79 C 0.29424 0.12452 0.3317 0.0
N80 N 0.28344 0.13759 0.3769 0.0
C81 C 0.22172 0.05472 0.37023 0.0
C82 C 0.23248 0.04055 0.32389 0.0
C83 C 0.26838 0.07691 0.30428 0.0
C84 C 0.24708 0.10686 0.39502 0.0
H85 H 0.32105 0.15353 0.3157 0.0
C86 C 0.38975 0.25017 0.36762 0.0
O87 O 0.45824 0.19975 0.49165 0.0
O88 O 0.42652 0.10436 0.45561 0.0
N89 N 0.25419 0.19721 0.45365 0.0
C90 C 0.24209 0.23063 0.49436 0.0
C91 C 0.20614 0.20249 0.51841 0.0
C92 C 0.18245 0.14138 0.49993 0.0
C93 C 0.19526 0.10846 0.4578 0.0
C94 C 0.23247 0.13679 0.43636 0.0
H95 H 0.25987 0.27807 0.50862 0.0
O96 O 0.36919 0.15821 0.522 0.0
O97 O 0.34061 0.16515 0.45171 0.0
O98 O 0.374 0.31153 0.487 0.0
O99 O 0.31161 0.3166 0.4478 0.0
C100 C 0.17177 0.05031 0.43554 0.0
C101 C 0.18455 0.0244 0.39133 0.0
H102 H 0.21276 0.00339 0.30263 0.0
H103 H 0.27628 0.06784 0.26811 0.0
H104 H 0.19641 0.22844 0.55085 0.0
H105 H 0.15415 0.1209 0.51804 0.0
H106 H 0.1427 0.02781 0.45114 0.0
H107 H 0.16482 0.98297 0.37324 0.0
Mn108 Mn 0.16121 0.77421 0.46674 0.0
Mn109 Mn 0.25757 0.7544 0.41296 0.0
C110 C 0.22072 0.83556 0.49432 0.0
C111 C 0.09876 0.84924 0.47791 0.0
C112 C 0.21971 0.63363 0.4758 0.0
O113 O 0.14388 0.73706 0.40246 0.0
O114 O 0.2099 0.73073 0.36886 0.0
C115 C 0.26406 0.85366 0.33156 0.0
N116 N 0.27486 0.84058 0.37675 0.0
C117 C 0.33655 0.92352 0.37008 0.0
C118 C 0.3258 0.93768 0.32373 0.0
C119 C 0.28991 0.90132 0.30414 0.0
C120 C 0.31119 0.87134 0.39487 0.0
H121 H 0.23726 0.82464 0.31555 0.0
C122 C 0.16861 0.72789 0.36742 0.0
O123 O 0.09997 0.77833 0.49139 0.0
O124 O 0.13173 0.87372 0.45536 0.0
N125 N 0.30406 0.78101 0.45352 0.0
C126 C 0.31614 0.74763 0.49425 0.0
C127 C 0.35206 0.77583 0.51831 0.0
C128 C 0.37575 0.83695 0.49981 0.0
C129 C 0.36296 0.86983 0.45766 0.0
C130 C 0.32578 0.84145 0.43623 0.0
H131 H 0.29837 0.70018 0.50852 0.0
O132 O 0.18897 0.81987 0.52181 0.0
O133 O 0.21764 0.81297 0.45154 0.0
O134 O 0.18424 0.66657 0.48681 0.0
O135 O 0.24669 0.66156 0.44769 0.0
C136 C 0.38645 0.928 0.43539 0.0
C137 C 0.37369 0.95388 0.39118 0.0
H138 H 0.34551 0.97487 0.30247 0.0
H139 H 0.28201 0.91041 0.26796 0.0
H140 H 0.36178 0.74991 0.55075 0.0
H141 H 0.40403 0.85748 0.51793 0.0
H142 H 0.4155 0.95052 0.45099 0.0
H143 H 0.39342 -0.00466 0.37309 0.0
Mn144 Mn 0.66132 0.70412 0.9668 0.0
Mn145 Mn 0.75759 0.72399 0.91282 0.0
C146 C 0.72089 0.64283 0.99428 0.0
C147 C 0.59889 0.62907 0.97812 0.0
C148 C 0.71978 0.84478 0.97566 0.0
O149 O 0.64388 0.74119 0.90252 0.0
O150 O 0.70984 0.7475 0.86878 0.0
C151 C 0.76407 0.6247 0.83145 0.0
N152 N 0.77488 0.63779 0.87664 0.0
C153 C 0.8366 0.55494 0.86994 0.0
C154 C 0.82584 0.54076 0.82361 0.0
C155 C 0.78994 0.5771 0.80402 0.0
C156 C 0.81124 0.60709 0.89474 0.0
H157 H 0.73726 0.6537 0.81546 0.0
C158 C 0.66855 0.7503 0.86743 0.0
O159 O 0.60011 0.7 0.99156 0.0
O160 O 0.63183 0.60458 0.95553 0.0
N161 N 0.80414 0.6975 0.95334 0.0
C162 C 0.81626 0.73097 0.99403 0.0
C163 C 0.85222 0.70285 0.01806 0.0
C164 C 0.8759 0.64172 0.99958 0.0
C165 C 0.86308 0.60875 0.95747 0.0
C166 C 0.82586 0.63706 0.93606 0.0
H167 H 0.79849 0.77842 0.00828 0.0
O168 O 0.68919 0.65853 0.02183 0.0
O169 O 0.71774 0.66541 0.9515 0.0
O170 O 0.68435 0.8118 0.98677 0.0
O171 O 0.74672 0.81686 0.9475 0.0
C172 C 0.88656 0.55058 0.93521 0.0
C173 C 0.87378 0.52464 0.89103 0.0
H174 H 0.84556 0.50361 0.80234 0.0
H175 H 0.78204 0.56802 0.76785 0.0
H176 H 0.86196 0.72884 0.05047 0.0
H177 H 0.90421 0.62126 0.01767 0.0
H178 H 0.91564 0.5281 0.9508 0.0
H179 H 0.89351 0.4832 0.87293 0.0
Mn180 Mn 0.8972 0.2745 0.96657 0.0
Mn181 Mn 0.80091 0.25464 0.91269 0.0
C182 C 0.83766 0.33584 0.99408 0.0
C183 C 0.95964 0.34952 0.97781 0.0
C184 C 0.83871 0.13389 0.97555 0.0
O185 O 0.91461 0.23736 0.9023 0.0
O186 O 0.84864 0.23105 0.86862 0.0
C187 C 0.79442 0.35383 0.83127 0.0
N188 N 0.78363 0.3408 0.87647 0.0
C189 C 0.7219 0.42364 0.86978 0.0
C190 C 0.73265 0.43775 0.82342 0.0
C191 C 0.76855 0.40141 0.80383 0.0
C192 C 0.74727 0.37153 0.89458 0.0
H193 H 0.82123 0.32482 0.81527 0.0
C194 C 0.88994 0.22823 0.86723 0.0
O195 O 0.95841 0.27861 0.99128 0.0
O196 O 0.9267 0.37401 0.95523 0.0
N197 N 0.75438 0.2812 0.95324 0.0
C198 C 0.74229 0.24782 0.99397 0.0
C199 C 0.70635 0.27601 0.01803 0.0
C200 C 0.68267 0.33711 0.99953 0.0
C201 C 0.69546 0.36999 0.95738 0.0
C202 C 0.73267 0.34163 0.93594 0.0
H203 H 0.76007 0.20038 0.00824 0.0
O204 O 0.86937 0.32016 0.0216 0.0
O205 O 0.84079 0.31324 0.9513 0.0
O206 O 0.87416 0.16685 0.98662 0.0
O207 O 0.81178 0.1618 0.94741 0.0
C208 C 0.67197 0.42813 0.9351 0.0
C209 C 0.68474 0.45399 0.89088 0.0
H210 H 0.71292 0.47488 0.80215 0.0
H211 H 0.77645 0.41045 0.76765 0.0
H212 H 0.69663 0.25008 0.05048 0.0
H213 H 0.65438 0.35763 0.01765 0.0
H214 H 0.64291 0.45065 0.9507 0.0
H215 H 0.665 0.49541 0.87277 0.0
Mn216 Mn 0.66129 0.77442 0.54672 0.0
Mn217 Mn 0.75756 0.75459 0.60065 0.0
C218 C 0.72083 0.83589 0.51928 0.0
C219 C 0.59883 0.84936 0.53549 0.0
C220 C 0.71985 0.63391 0.53768 0.0
O221 O 0.64386 0.73712 0.61095 0.0
O222 O 0.70982 0.73082 0.64466 0.0
C223 C 0.76386 0.85374 0.6821 0.0
N224 N 0.77476 0.84072 0.63693 0.0
C225 C 0.83646 0.92361 0.64376 0.0
C226 C 0.82562 0.93767 0.6901 0.0
C227 C 0.78967 0.90132 0.7096 0.0
C228 C 0.81114 0.87151 0.61889 0.0
H229 H 0.73703 0.82472 0.69803 0.0
C230 C 0.66853 0.72794 0.64603 0.0
O231 O 0.60009 0.77848 0.52198 0.0
O232 O 0.63174 0.87387 0.5581 0.0
N233 N 0.80412 0.78131 0.56016 0.0
C234 C 0.81627 0.74802 0.51943 0.0
C235 C 0.85223 0.77628 0.49545 0.0
C236 C 0.87589 0.83735 0.51403 0.0
C237 C 0.86303 0.87013 0.55618 0.0
C238 C 0.8258 0.84171 0.57754 0.0
H239 H 0.79852 0.7006 0.5051 0.0
O240 O 0.68914 0.82022 0.49173 0.0
O241 O 0.71768 0.8132 0.56203 0.0
O242 O 0.68439 0.66684 0.52662 0.0
O243 O 0.74677 0.6618 0.56585 0.0
C244 C 0.88648 0.92824 0.57853 0.0
C245 C 0.87365 0.95401 0.62275 0.0
H246 H 0.84531 0.97477 0.71142 0.0
H247 H 0.7817 0.91036 0.74576 0.0
H248 H 0.86201 0.75043 0.463 0.0
H249 H 0.9042 0.85792 0.49597 0.0
H250 H 0.91556 0.9508 0.56299 0.0
H251 H 0.89334 -0.00459 0.6409 0.0
Mn252 Mn 0.89721 0.2042 0.54651 0.0
Mn253 Mn 0.80096 0.22424 0.60049 0.0
C254 C 0.83762 0.14292 0.51908 0.0
C255 C 0.9596 0.12905 0.53523 0.0
C256 C 0.83879 0.34489 0.53755 0.0
O257 O 0.91468 0.24137 0.61074 0.0
O258 O 0.84873 0.2478 0.64449 0.0
C259 C 0.79452 0.12503 0.68192 0.0
N260 N 0.78368 0.1381 0.63674 0.0
C261 C 0.72196 0.05525 0.64351 0.0
C262 C 0.73275 0.04111 0.68984 0.0
C263 C 0.76867 0.07743 0.70939 0.0
C264 C 0.74731 0.10738 0.61868 0.0
H265 H 0.82135 0.15402 0.69788 0.0
C266 C 0.89002 0.25057 0.64583 0.0
O267 O 0.95841 0.19995 0.52172 0.0
O268 O 0.92666 0.10465 0.55785 0.0
N269 N 0.75439 0.19771 0.56002 0.0
C270 C 0.74226 0.23111 0.51931 0.0
C271 C 0.7063 0.20296 0.49531 0.0
C272 C 0.68262 0.14185 0.51384 0.0
C273 C 0.69545 0.10895 0.55596 0.0
C274 C 0.73267 0.13729 0.57734 0.0
H275 H 0.76003 0.27855 0.50502 0.0
O276 O 0.86932 0.15854 0.49152 0.0
O277 O 0.84079 0.16557 0.56184 0.0
O278 O 0.87421 0.31187 0.52645 0.0
O279 O 0.81185 0.31704 0.56573 0.0
C280 C 0.67198 0.05079 0.57826 0.0
C281 C 0.68478 0.02491 0.62246 0.0
H282 H 0.71303 0.00398 0.71114 0.0
H283 H 0.7766 0.06836 0.74555 0.0
H284 H 0.69654 0.2289 0.46288 0.0
H285 H 0.65431 0.12136 0.49576 0.0
H286 H 0.64291 0.02825 0.56269 0.0
H287 H 0.66507 0.98347 0.64058 0.0
C288 C 0.29699 0.01541 0.00717 0.0
C289 C 0.32322 0.06523 0.01533 0.0
C290 C 0.26171 0.9629 0.00714 0.0
C291 C 0.23547 0.91307 0.01525 0.0
C292 C 0.26149 0.51534 0.50647 0.0
C293 C 0.23526 0.56515 0.4983 0.0
C294 C 0.29676 0.46283 0.50651 0.0
C295 C 0.323 0.413 0.49839 0.0
C296 C 0.76161 0.9631 1.00622 0.0
C297 C 0.73536 0.91328 0.99811 0.0
C298 C 0.79689 0.0156 1.00619 0.0
C299 C 0.82313 0.06541 0.99804 0.0
C300 C 0.76171 0.51571 0.50698 0.0
C301 C 0.73547 0.56549 0.51516 0.0
C302 C 0.797 0.4632 0.50694 0.0
C303 C 0.82323 0.41338 0.51506 0.0
C304 C 0.41643 0.23385 0.23259 0.0
C305 C 0.40873 0.2304 0.19163 0.0
C306 C 0.4164 0.24434 0.28122 0.0
C307 C 0.40865 0.2478 0.32218 0.0
C308 C 0.14206 0.73368 0.28099 0.0
C309 C 0.14976 0.73024 0.32196 0.0
C310 C 0.14208 0.74417 0.23237 0.0
C311 C 0.14981 0.74766 0.1914 0.0
C312 C 0.64188 0.74428 0.78105 0.0
C313 C 0.64963 0.74783 0.822 0.0
C314 C 0.64187 0.73373 0.73243 0.0
C315 C 0.6496 0.73027 0.69146 0.0
C316 C 0.91666 0.24467 0.73222 0.0
C317 C 0.90895 0.24817 0.69126 0.0
C318 C 0.91662 0.23413 0.78084 0.0
C319 C 0.90886 0.23064 0.82179 0.0
C320 C 0.51643 0.45654 0.01231 0.0
C321 C 0.49253 0.40346 0.02122 0.0
C322 C 0.54208 0.52204 1.00149 0.0
C323 C 0.56598 0.57511 0.99256 0.0
C324 C 0.04208 0.52204 0.01197 0.0
C325 C 0.06599 0.5751 0.02089 0.0
C326 C 1.01644 0.45655 1.00115 0.0
C327 C 0.99254 0.40348 0.99223 0.0
C328 C 0.54197 0.95634 0.51221 0.0
C329 C 0.5659 0.90329 0.5211 0.0
C330 C 0.5163 0.02182 0.50144 0.0
C331 C 0.49239 0.07489 0.49255 0.0
C332 C 1.01635 0.02189 0.51193 0.0
C333 C 0.99248 0.07502 0.52082 0.0
C334 C 0.04196 0.95633 0.50116 0.0
C335 C 0.06585 0.90322 0.49229 0.0
C336 C 0.26797 0.52331 1.00087 0.0
C337 C 0.24609 0.57785 0.00823 0.0
C338 C 0.29042 0.45469 1.00099 0.0
C339 C 0.31235 0.40027 0.00852 0.0
C340 C 0.29031 0.02335 0.51264 0.0
C341 C 0.31222 0.07784 0.50524 0.0
C342 C 0.26786 0.95473 0.51259 0.0
C343 C 0.24596 0.90024 0.50511 0.0
C344 C 0.76805 0.52363 0.01239 0.0
C345 C 0.74614 0.57813 1.00501 0.0
C346 C 0.7905 0.45501 0.01231 0.0
C347 C 0.8124 0.40053 1.00484 0.0
C348 C 0.76797 0.95511 0.50112 0.0
C349 C 0.74608 0.9006 0.50856 0.0
C350 C 0.79042 0.02373 0.50105 0.0
C351 C 0.81234 0.07822 0.50841 0.0
loop_
_geom_bond_atom_site_label_1
_geom_bond_atom_site_label_2
_geom_bond_distance
_geom_bond_site_symmetry_2
_ccdc_geom_bond_type
Mn0 O5 2.095 . S
Mn0 O15 2.162 1_554 S
Mn0 O16 2.297 . S
Mn0 O24 2.385 1_554 S
Mn0 O25 2.209 . S
Mn0 O26 2.094 . S
Mn1 O6 2.121 . S
Mn1 N8 2.257 . S
Mn1 N17 2.282 . S
Mn1 O25 2.215 . S
Mn1 O27 2.117 . S
C2 O24 1.234 1_554 S
C2 O25 1.283 . S
C3 O15 1.281 1_554 S
C3 O16 1.236 . S
C4 O26 1.240 . S
C4 O27 1.264 . S
O5 Mn0 2.095 . S
O5 C14 1.250 . S
O6 Mn1 2.121 . S
O6 C14 1.258 . S
C7 N8 1.326 . S
C7 C11 1.460 . S
C7 H13 0.929 . S
N8 Mn1 2.257 . S
N8 C7 1.326 . S
N8 C12 1.362 . S
C9 C10 1.258 . S
C9 C12 1.431 . S
C9 C29 1.449 . S
C10 C9 1.258 . S
C10 C11 1.477 . S
C10 H30 0.931 . S
C11 C7 1.460 . S
C11 C10 1.477 . S
C11 H31 0.930 . S
C12 N8 1.362 . S
C12 C9 1.431 . S
C12 C22 1.476 . S
H13 C7 0.929 . S
C14 O5 1.250 . S
C14 O6 1.258 . S
O15 Mn0 2.162 1_556 S
O15 C3 1.281 1_556 S
O16 Mn0 2.297 . S
O16 C3 1.236 . S
N17 Mn1 2.282 . S
N17 C18 1.328 . S
N17 C22 1.318 . S
C18 N17 1.328 . S
C18 C19 1.457 1_554 S
C18 H23 0.929 . S
C19 C18 1.457 1_556 S
C19 C20 1.291 1_556 S
C19 H32 0.931 . S
C20 C19 1.291 1_554 S
C20 C21 1.373 . S
C20 H33 0.938 . S
C21 C20 1.373 . S
C21 C22 1.396 . S
C21 C28 1.403 . S
C22 C12 1.476 . S
C22 N17 1.318 . S
C22 C21 1.396 . S
H23 C18 0.929 . S
O24 Mn0 2.385 1_556 S
O24 C2 1.234 1_556 S
O25 Mn0 2.209 . S
O25 Mn1 2.215 . S
O25 C2 1.283 . S
O26 Mn0 2.094 . S
O26 C4 1.240 . S
O27 Mn1 2.117 . S
O27 C4 1.264 . S
C28 C21 1.403 . S
C28 C29 1.399 . S
C28 H34 0.929 . S
C29 C9 1.449 . S
C29 C28 1.399 . S
C29 H35 0.930 . S
H30 C10 0.931 . S
H31 C11 0.930 . S
H32 C19 0.931 . S
H33 C20 0.938 . S
H34 C28 0.929 . S
H35 C29 0.930 . S
Mn36 O41 2.095 . S
Mn36 O51 2.162 1_554 S
Mn36 O52 2.297 . S
Mn36 O60 2.385 1_554 S
Mn36 O61 2.209 . S
Mn36 O62 2.094 . S
Mn37 O42 2.121 . S
Mn37 N44 2.257 . S
Mn37 N53 2.282 . S
Mn37 O61 2.215 . S
Mn37 O63 2.117 . S
C38 O60 1.234 1_554 S
C38 O61 1.283 . S
C39 O51 1.281 1_554 S
C39 O52 1.236 . S
C40 O62 1.240 . S
C40 O63 1.264 . S
O41 Mn36 2.095 . S
O41 C50 1.250 . S
O42 Mn37 2.121 . S
O42 C50 1.258 . S
C43 N44 1.326 . S
C43 C47 1.460 . S
C43 H49 0.929 . S
N44 Mn37 2.257 . S
N44 C43 1.326 . S
N44 C48 1.362 . S
C45 C46 1.258 . S
C45 C48 1.431 . S
C45 C65 1.449 . S
C46 C45 1.258 . S
C46 C47 1.477 . S
C46 H66 0.931 . S
C47 C43 1.460 . S
C47 C46 1.477 . S
C47 H67 0.930 . S
C48 N44 1.362 . S
C48 C45 1.431 . S
C48 C58 1.476 . S
H49 C43 0.929 . S
C50 O41 1.250 . S
C50 O42 1.258 . S
O51 Mn36 2.162 1_556 S
O51 C39 1.281 1_556 S
O52 Mn36 2.297 . S
O52 C39 1.236 . S
N53 Mn37 2.282 . S
N53 C54 1.328 . S
N53 C58 1.318 . S
C54 N53 1.328 . S
C54 C55 1.457 1_554 S
C54 H59 0.929 . S
C55 C54 1.457 1_556 S
C55 C56 1.291 1_556 S
C55 H68 0.931 . S
C56 C55 1.291 1_554 S
C56 C57 1.373 . S
C56 H69 0.938 . S
C57 C56 1.373 . S
C57 C58 1.396 . S
C57 C64 1.403 . S
C58 C48 1.476 . S
C58 N53 1.318 . S
C58 C57 1.396 . S
H59 C54 0.929 . S
O60 Mn36 2.385 1_556 S
O60 C38 1.234 1_556 S
O61 Mn36 2.209 . S
O61 Mn37 2.215 . S
O61 C38 1.283 . S
O62 Mn36 2.094 . S
O62 C40 1.240 . S
O63 Mn37 2.117 . S
O63 C40 1.264 . S
C64 C57 1.403 . S
C64 C65 1.399 . S
C64 H70 0.929 . S
C65 C45 1.449 . S
C65 C64 1.399 . S
C65 H71 0.930 . S
H66 C46 0.931 . S
H67 C47 0.930 . S
H68 C55 0.931 . S
H69 C56 0.938 . S
H70 C64 0.929 . S
H71 C65 0.930 . S
Mn72 O77 2.095 . S
Mn72 O87 2.162 . S
Mn72 O88 2.297 . S
Mn72 O96 2.385 . S
Mn72 O97 2.209 . S
Mn72 O98 2.094 . S
Mn73 O78 2.121 . S
Mn73 N80 2.257 . S
Mn73 N89 2.282 . S
Mn73 O97 2.215 . S
Mn73 O99 2.117 . S
C74 O96 1.234 . S
C74 O97 1.283 . S
C75 O87 1.281 . S
C75 O88 1.236 . S
C76 O98 1.240 . S
C76 O99 1.264 . S
O77 Mn72 2.095 . S
O77 C86 1.250 . S
O78 Mn73 2.121 . S
O78 C86 1.258 . S
C79 N80 1.326 . S
C79 C83 1.460 . S
C79 H85 0.929 . S
N80 Mn73 2.257 . S
N80 C79 1.326 . S
N80 C84 1.362 . S
C81 C82 1.258 . S
C81 C84 1.431 . S
C81 C101 1.449 . S
C82 C81 1.258 . S
C82 C83 1.477 . S
C82 H102 0.931 . S
C83 C79 1.460 . S
C83 C82 1.477 . S
C83 H103 0.930 . S
C84 N80 1.362 . S
C84 C81 1.431 . S
C84 C94 1.476 . S
H85 C79 0.929 . S
C86 O77 1.250 . S
C86 O78 1.258 . S
O87 Mn72 2.162 . S
O87 C75 1.281 . S
O88 Mn72 2.297 . S
O88 C75 1.236 . S
N89 Mn73 2.282 . S
N89 C90 1.328 . S
N89 C94 1.318 . S
C90 N89 1.328 . S
C90 C91 1.457 . S
C90 H95 0.929 . S
C91 C90 1.457 . S
C91 C92 1.291 . S
C91 H104 0.931 . S
C92 C91 1.291 . S
C92 C93 1.373 . S
C92 H105 0.929 . S
C93 C92 1.373 . S
C93 C94 1.396 . S
C93 C100 1.403 . S
C94 C84 1.476 . S
C94 N89 1.318 . S
C94 C93 1.396 . S
H95 C90 0.929 . S
O96 Mn72 2.385 . S
O96 C74 1.234 . S
O97 Mn72 2.209 . S
O97 Mn73 2.215 . S
O97 C74 1.283 . S
O98 Mn72 2.094 . S
O98 C76 1.240 . S
O99 Mn73 2.117 . S
O99 C76 1.264 . S
C100 C93 1.403 . S
C100 C101 1.399 . S
C100 H106 0.929 . S
C101 C81 1.449 . S
C101 C100 1.399 . S
C101 H107 0.930 . S
H102 C82 0.931 . S
H103 C83 0.930 . S
H104 C91 0.931 . S
H105 C92 0.929 . S
H106 C100 0.929 . S
H107 C101 0.930 . S
Mn108 O113 2.095 . S
Mn108 O123 2.162 . S
Mn108 O124 2.297 . S
Mn108 O132 2.385 . S
Mn108 O133 2.209 . S
Mn108 O134 2.094 . S
Mn109 O114 2.121 . S
Mn109 N116 2.257 . S
Mn109 N125 2.282 . S
Mn109 O133 2.215 . S
Mn109 O135 2.117 . S
C110 O132 1.234 . S
C110 O133 1.283 . S
C111 O123 1.281 . S
C111 O124 1.236 . S
C112 O134 1.240 . S
C112 O135 1.264 . S
O113 Mn108 2.095 . S
O113 C122 1.250 . S
O114 Mn109 2.121 . S
O114 C122 1.258 . S
C115 N116 1.326 . S
C115 C119 1.460 . S
C115 H121 0.929 . S
N116 Mn109 2.257 . S
N116 C115 1.326 . S
N116 C120 1.362 . S
C117 C118 1.258 . S
C117 C120 1.431 . S
C117 C137 1.449 . S
C118 C117 1.258 . S
C118 C119 1.477 . S
C118 H138 0.931 . S
C119 C115 1.460 . S
C119 C118 1.477 . S
C119 H139 0.930 . S
C120 N116 1.362 . S
C120 C117 1.431 . S
C120 C130 1.476 . S
H121 C115 0.929 . S
C122 O113 1.250 . S
C122 O114 1.258 . S
O123 Mn108 2.162 . S
O123 C111 1.281 . S
O124 Mn108 2.297 . S
O124 C111 1.236 . S
N125 Mn109 2.282 . S
N125 C126 1.328 . S
N125 C130 1.318 . S
C126 N125 1.328 . S
C126 C127 1.457 . S
C126 H131 0.929 . S
C127 C126 1.457 . S
C127 C128 1.291 . S
C127 H140 0.931 . S
C128 C127 1.291 . S
C128 C129 1.373 . S
C128 H141 0.929 . S
C129 C128 1.373 . S
C129 C130 1.396 . S
C129 C136 1.403 . S
C130 C120 1.476 . S
C130 N125 1.318 . S
C130 C129 1.396 . S
H131 C126 0.929 . S
O132 Mn108 2.385 . S
O132 C110 1.234 . S
O133 Mn108 2.209 . S
O133 Mn109 2.215 . S
O133 C110 1.283 . S
O134 Mn108 2.094 . S
O134 C112 1.240 . S
O135 Mn109 2.117 . S
O135 C112 1.264 . S
C136 C129 1.403 . S
C136 C137 1.399 . S
C136 H142 0.929 . S
C137 C117 1.449 . S
C137 C136 1.399 . S
C137 H143 0.930 . S
H138 C118 0.931 . S
H139 C119 0.930 . S
H140 C127 0.931 . S
H141 C128 0.929 . S
H142 C136 0.929 . S
H143 C137 0.930 . S
Mn144 O149 2.095 . S
Mn144 O159 2.162 1_556 S
Mn144 O160 2.297 . S
Mn144 O168 2.385 1_556 S
Mn144 O169 2.209 . S
Mn144 O170 2.094 . S
Mn145 O150 2.121 . S
Mn145 N152 2.257 . S
Mn145 N161 2.282 . S
Mn145 O169 2.215 . S
Mn145 O171 2.117 . S
C146 O168 1.234 1_556 S
C146 O169 1.283 . S
C147 O159 1.281 1_556 S
C147 O160 1.236 . S
C148 O170 1.240 . S
C148 O171 1.264 . S
O149 Mn144 2.095 . S
O149 C158 1.250 . S
O150 Mn145 2.121 . S
O150 C158 1.258 . S
C151 N152 1.326 . S
C151 C155 1.460 . S
C151 H157 0.929 . S
N152 Mn145 2.257 . S
N152 C151 1.326 . S
N152 C156 1.362 . S
C153 C154 1.258 . S
C153 C156 1.431 . S
C153 C173 1.449 . S
C154 C153 1.258 . S
C154 C155 1.477 . S
C154 H174 0.931 . S
C155 C151 1.460 . S
C155 C154 1.477 . S
C155 H175 0.930 . S
C156 N152 1.362 . S
C156 C153 1.431 . S
C156 C166 1.476 . S
H157 C151 0.929 . S
C158 O149 1.250 . S
C158 O150 1.258 . S
O159 Mn144 2.162 1_554 S
O159 C147 1.281 1_554 S
O160 Mn144 2.297 . S
O160 C147 1.236 . S
N161 Mn145 2.282 . S
N161 C162 1.328 . S
N161 C166 1.318 . S
C162 N161 1.328 . S
C162 C163 1.457 1_556 S
C162 H167 0.929 . S
C163 C162 1.457 1_554 S
C163 C164 1.291 1_554 S
C163 H176 0.931 . S
C164 C163 1.291 1_556 S
C164 C165 1.373 . S
C164 H177 0.938 . S
C165 C164 1.373 . S
C165 C166 1.396 . S
C165 C172 1.403 . S
C166 C156 1.476 . S
C166 N161 1.318 . S
C166 C165 1.396 . S
H167 C162 0.929 . S
O168 Mn144 2.385 1_554 S
O168 C146 1.234 1_554 S
O169 Mn144 2.209 . S
O169 Mn145 2.215 . S
O169 C146 1.283 . S
O170 Mn144 2.094 . S
O170 C148 1.240 . S
O171 Mn145 2.117 . S
O171 C148 1.264 . S
C172 C165 1.403 . S
C172 C173 1.399 . S
C172 H178 0.929 . S
C173 C153 1.449 . S
C173 C172 1.399 . S
C173 H179 0.930 . S
H174 C154 0.931 . S
H175 C155 0.930 . S
H176 C163 0.931 . S
H177 C164 0.938 . S
H178 C172 0.929 . S
H179 C173 0.930 . S
Mn180 O185 2.095 . S
Mn180 O195 2.162 1_556 S
Mn180 O196 2.297 . S
Mn180 O204 2.385 1_556 S
Mn180 O205 2.209 . S
Mn180 O206 2.094 . S
Mn181 O186 2.121 . S
Mn181 N188 2.257 . S
Mn181 N197 2.282 . S
Mn181 O205 2.215 . S
Mn181 O207 2.117 . S
C182 O204 1.234 1_556 S
C182 O205 1.283 . S
C183 O195 1.281 1_556 S
C183 O196 1.236 . S
C184 O206 1.240 . S
C184 O207 1.264 . S
O185 Mn180 2.095 . S
O185 C194 1.250 . S
O186 Mn181 2.121 . S
O186 C194 1.258 . S
C187 N188 1.326 . S
C187 C191 1.460 . S
C187 H193 0.929 . S
N188 Mn181 2.257 . S
N188 C187 1.326 . S
N188 C192 1.362 . S
C189 C190 1.258 . S
C189 C192 1.431 . S
C189 C209 1.449 . S
C190 C189 1.258 . S
C190 C191 1.477 . S
C190 H210 0.931 . S
C191 C187 1.460 . S
C191 C190 1.477 . S
C191 H211 0.930 . S
C192 N188 1.362 . S
C192 C189 1.431 . S
C192 C202 1.476 . S
H193 C187 0.929 . S
C194 O185 1.250 . S
C194 O186 1.258 . S
O195 Mn180 2.162 1_554 S
O195 C183 1.281 1_554 S
O196 Mn180 2.297 . S
O196 C183 1.236 . S
N197 Mn181 2.282 . S
N197 C198 1.328 . S
N197 C202 1.318 . S
C198 N197 1.328 . S
C198 C199 1.457 1_556 S
C198 H203 0.929 . S
C199 C198 1.457 1_554 S
C199 C200 1.291 1_554 S
C199 H212 0.931 . S
C200 C199 1.291 1_556 S
C200 C201 1.373 . S
C200 H213 0.938 . S
C201 C200 1.373 . S
C201 C202 1.396 . S
C201 C208 1.403 . S
C202 C192 1.476 . S
C202 N197 1.318 . S
C202 C201 1.396 . S
H203 C198 0.929 . S
O204 Mn180 2.385 1_554 S
O204 C182 1.234 1_554 S
O205 Mn180 2.209 . S
O205 Mn181 2.215 . S
O205 C182 1.283 . S
O206 Mn180 2.094 . S
O206 C184 1.240 . S
O207 Mn181 2.117 . S
O207 C184 1.264 . S
C208 C201 1.403 . S
C208 C209 1.399 . S
C208 H214 0.929 . S
C209 C189 1.449 . S
C209 C208 1.399 . S
C209 H215 0.930 . S
H210 C190 0.931 . S
H211 C191 0.930 . S
H212 C199 0.931 . S
H213 C200 0.938 . S
H214 C208 0.929 . S
H215 C209 0.930 . S
Mn216 O221 2.095 . S
Mn216 O231 2.162 . S
Mn216 O232 2.297 . S
Mn216 O240 2.385 . S
Mn216 O241 2.209 . S
Mn216 O242 2.094 . S
Mn217 O222 2.121 . S
Mn217 N224 2.257 . S
Mn217 N233 2.282 . S
Mn217 O241 2.215 . S
Mn217 O243 2.117 . S
C218 O240 1.234 . S
C218 O241 1.283 . S
C219 O231 1.281 . S
C219 O232 1.236 . S
C220 O242 1.240 . S
C220 O243 1.264 . S
O221 Mn216 2.095 . S
O221 C230 1.250 . S
O222 Mn217 2.121 . S
O222 C230 1.258 . S
C223 N224 1.326 . S
C223 C227 1.460 . S
C223 H229 0.929 . S
N224 Mn217 2.257 . S
N224 C223 1.326 . S
N224 C228 1.362 . S
C225 C226 1.258 . S
C225 C228 1.431 . S
C225 C245 1.449 . S
C226 C225 1.258 . S
C226 C227 1.477 . S
C226 H246 0.931 . S
C227 C223 1.460 . S
C227 C226 1.477 . S
C227 H247 0.930 . S
C228 N224 1.362 . S
C228 C225 1.431 . S
C228 C238 1.476 . S
H229 C223 0.929 . S
C230 O221 1.250 . S
C230 O222 1.258 . S
O231 Mn216 2.162 . S
O231 C219 1.281 . S
O232 Mn216 2.297 . S
O232 C219 1.236 . S
N233 Mn217 2.282 . S
N233 C234 1.328 . S
N233 C238 1.318 . S
C234 N233 1.328 . S
C234 C235 1.457 . S
C234 H239 0.929 . S
C235 C234 1.457 . S
C235 C236 1.291 . S
C235 H248 0.931 . S
C236 C235 1.291 . S
C236 C237 1.373 . S
C236 H249 0.929 . S
C237 C236 1.373 . S
C237 C238 1.396 . S
C237 C244 1.403 . S
C238 C228 1.476 . S
C238 N233 1.318 . S
C238 C237 1.396 . S
H239 C234 0.929 . S
O240 Mn216 2.385 . S
O240 C218 1.234 . S
O241 Mn216 2.209 . S
O241 Mn217 2.215 . S
O241 C218 1.283 . S
O242 Mn216 2.094 . S
O242 C220 1.240 . S
O243 Mn217 2.117 . S
O243 C220 1.264 . S
C244 C237 1.403 . S
C244 C245 1.399 . S
C244 H250 0.929 . S
C245 C225 1.449 . S
C245 C244 1.399 . S
C245 H251 0.930 . S
H246 C226 0.931 . S
H247 C227 0.930 . S
H248 C235 0.931 . S
H249 C236 0.929 . S
H250 C244 0.929 . S
H251 C245 0.930 . S
Mn252 O257 2.095 . S
Mn252 O267 2.162 . S
Mn252 O268 2.297 . S
Mn252 O276 2.385 . S
Mn252 O277 2.209 . S
Mn252 O278 2.094 . S
Mn253 O258 2.121 . S
Mn253 N260 2.257 . S
Mn253 N269 2.282 . S
Mn253 O277 2.215 . S
Mn253 O279 2.117 . S
C254 O276 1.234 . S
C254 O277 1.283 . S
C255 O267 1.281 . S
C255 O268 1.236 . S
C256 O278 1.240 . S
C256 O279 1.264 . S
O257 Mn252 2.095 . S
O257 C266 1.250 . S
O258 Mn253 2.121 . S
O258 C266 1.258 . S
C259 N260 1.326 . S
C259 C263 1.460 . S
C259 H265 0.929 . S
N260 Mn253 2.257 . S
N260 C259 1.326 . S
N260 C264 1.362 . S
C261 C262 1.258 . S
C261 C264 1.431 . S
C261 C281 1.449 . S
C262 C261 1.258 . S
C262 C263 1.477 . S
C262 H282 0.931 . S
C263 C259 1.460 . S
C263 C262 1.477 . S
C263 H283 0.930 . S
C264 N260 1.362 . S
C264 C261 1.431 . S
C264 C274 1.476 . S
H265 C259 0.929 . S
C266 O257 1.250 . S
C266 O258 1.258 . S
O267 Mn252 2.162 . S
O267 C255 1.281 . S
O268 Mn252 2.297 . S
O268 C255 1.236 . S
N269 Mn253 2.282 . S
N269 C270 1.328 . S
N269 C274 1.318 . S
C270 N269 1.328 . S
C270 C271 1.457 . S
C270 H275 0.929 . S
C271 C270 1.457 . S
C271 C272 1.291 . S
C271 H284 0.931 . S
C272 C271 1.291 . S
C272 C273 1.373 . S
C272 H285 0.929 . S
C273 C272 1.373 . S
C273 C274 1.396 . S
C273 C280 1.403 . S
C274 C264 1.476 . S
C274 N269 1.318 . S
C274 C273 1.396 . S
H275 C270 0.929 . S
O276 Mn252 2.385 . S
O276 C254 1.234 . S
O277 Mn252 2.209 . S
O277 Mn253 2.215 . S
O277 C254 1.283 . S
O278 Mn252 2.094 . S
O278 C256 1.240 . S
O279 Mn253 2.117 . S
O279 C256 1.264 . S
C280 C273 1.403 . S
C280 C281 1.399 . S
C280 H286 0.929 . S
C281 C261 1.449 . S
C281 C280 1.399 . S
C281 H287 0.930 . S
H282 C262 0.931 . S
H283 C263 0.930 . S
H284 C271 0.931 . S
H285 C272 0.929 . S
H286 C280 0.929 . S
H287 C281 0.930 . S
C288 C289 1.170 . S
C288 C290 1.380 1_545 S
C289 C288 1.170 . S
C290 C288 1.380 1_565 S
C290 C291 1.170 . S
C291 C290 1.170 . S
C292 C293 1.170 . S
C292 C294 1.380 . S
C293 C292 1.170 . S
C294 C292 1.380 . S
C294 C295 1.170 . S
C295 C294 1.170 . S
C296 C297 1.170 . S
C296 C298 1.380 1_565 S
C297 C296 1.170 . S
C298 C296 1.380 1_545 S
C298 C299 1.170 . S
C299 C298 1.170 . S
C300 C301 1.170 . S
C300 C302 1.380 . S
C301 C300 1.170 . S
C302 C300 1.380 . S
C302 C303 1.170 . S
C303 C302 1.170 . S
C304 C305 1.170 . S
C304 C306 1.380 . S
C305 C304 1.170 . S
C306 C304 1.380 . S
C306 C307 1.170 . S
C307 C306 1.170 . S
C308 C309 1.170 . S
C308 C310 1.380 . S
C309 C308 1.170 . S
C310 C308 1.380 . S
C310 C311 1.170 . S
C311 C310 1.170 . S
C312 C313 1.170 . S
C312 C314 1.380 . S
C313 C312 1.170 . S
C314 C312 1.380 . S
C314 C315 1.170 . S
C315 C314 1.170 . S
C316 C317 1.170 . S
C316 C318 1.380 . S
C317 C316 1.170 . S
C318 C316 1.380 . S
C318 C319 1.170 . S
C319 C318 1.170 . S
C320 C321 1.170 . S
C320 C322 1.380 . S
C321 C320 1.170 . S
C322 C320 1.380 . S
C322 C323 1.170 1_554 S
C323 C322 1.170 1_556 S
C324 C325 1.171 . S
C324 C326 1.380 1_455 S
C325 C324 1.171 . S
C326 C324 1.380 1_655 S
C326 C327 1.170 . S
C327 C326 1.170 . S
C328 C329 1.170 . S
C328 C330 1.380 1_565 S
C329 C328 1.170 . S
C330 C328 1.380 1_545 S
C330 C331 1.170 . S
C331 C330 1.170 . S
C332 C333 1.170 . S
C332 C334 1.380 1_645 S
C333 C332 1.170 . S
C334 C332 1.380 1_465 S
C334 C335 1.170 . S
C335 C334 1.170 . S
C336 C337 1.170 . S
C336 C338 1.380 . S
C337 C336 1.170 . S
C338 C336 1.380 . S
C338 C339 1.170 . S
C339 C338 1.170 . S
C340 C341 1.170 . S
C340 C342 1.380 1_545 S
C341 C340 1.170 . S
C342 C340 1.380 1_565 S
C342 C343 1.170 . S
C343 C342 1.170 . S
C344 C345 1.170 . S
C344 C346 1.380 . S
C345 C344 1.170 . S
C346 C344 1.380 . S
C346 C347 1.170 . S
C347 C346 1.170 . S
C348 C349 1.170 . S
C348 C350 1.380 1_565 S
C349 C348 1.170 . S
C350 C348 1.380 1_545 S
C350 C351 1.170 . S
C351 C350 1.170 . S
C289 C4 1.477 . S
C291 C40 1.451 . S
C293 C112 1.495 . S
C295 C76 1.490 . S
C297 C148 1.460 . S
C299 C184 1.478 . S
C301 C220 1.453 . S
C303 C256 1.499 . S
C305 C14 1.503 . S
C307 C86 1.493 . S
C309 C122 1.504 . S
C311 C50 1.493 . S
C313 C158 1.497 . S
C315 C230 1.493 . S
C317 C266 1.510 . S
C319 C194 1.500 . S
C321 C3 1.497 . S
C323 C147 1.536 . S
C325 C39 1.530 1_556 S
C327 C183 1.497 . S
C329 C219 1.536 . S
C331 C75 1.497 . S
C333 C255 1.529 . S
C335 C111 1.515 . S
C337 C38 1.182 . S
C339 C2 1.178 . S
C341 C74 1.181 . S
C343 C110 1.181 . S
C345 C146 1.180 . S
C347 C182 1.181 . S
C349 C218 1.176 . S
C351 C254 1.176 . S
