# Generated by pormake.
# Topology npo, (4)-cn, num edge types: 1
# Building blocks:
#     Node 0, Type 0, BuildingBlock: UXUYUI_clean_sbu_0, # of connection points: 4
#     Node 1, Type 0, BuildingBlock: UXUYUI_clean_sbu_0, # of connection points: 4
#     Node 2, Type 0, BuildingBlock: UXUYUI_clean_sbu_0, # of connection points: 4
#     Node 3, Type 0, BuildingBlock: UXUYUI_clean_sbu_0, # of connection points: 4
#     Node 4, Type 0, BuildingBlock: UXUYUI_clean_sbu_0, # of connection points: 4
#     Node 5, Type 0, BuildingBlock: UXUYUI_clean_sbu_0, # of connection points: 4
#     Edge 6, Type (0, 0), BuildingBlock: CIFDUS_clean_linker_0, # of connection points: 2
#     Edge 7, Type (0, 0), BuildingBlock: CIFDUS_clean_linker_0, # of connection points: 2
#     Edge 8, Type (0, 0), BuildingBlock: CIFDUS_clean_linker_0, # of connection points: 2
#     Edge 9, Type (0, 0), BuildingBlock: CIFDUS_clean_linker_0, # of connection points: 2
#     Edge 10, Type (0, 0), BuildingBlock: CIFDUS_clean_linker_0, # of connection points: 2
#     Edge 11, Type (0, 0), BuildingBlock: CIFDUS_clean_linker_0, # of connection points: 2
#     Edge 12, Type (0, 0), BuildingBlock: CIFDUS_clean_linker_0, # of connection points: 2
#     Edge 13, Type (0, 0), BuildingBlock: CIFDUS_clean_linker_0, # of connection points: 2
#     Edge 14, Type (0, 0), BuildingBlock: CIFDUS_clean_linker_0, # of connection points: 2
#     Edge 15, Type (0, 0), BuildingBlock: CIFDUS_clean_linker_0, # of connection points: 2
#     Edge 16, Type (0, 0), BuildingBlock: CIFDUS_clean_linker_0, # of connection points: 2
#     Edge 17, Type (0, 0), BuildingBlock: CIFDUS_clean_linker_0, # of connection points: 2
# Relax obj value: 0.320
# Max RMSD: 0.247
# Mean RMSD: 0.247
data_MOF--net-npo--node1-UXUYUI_clean_sbu_0--edge1-CIFDUS_clean_linker_0
_symmetry_space_group_name_H-M    P1
_symmetry_Int_Tables_number       1
_symmetry_cell_setting            triclinic
loop_
_symmetry_equiv_pos_as_xyz
'x, y, z'
_cell_length_a     56.166623
_cell_length_b     56.150684
_cell_length_c     34.93223
_cell_angle_alpha  90.093997
_cell_angle_beta   90.023607
_cell_angle_gamma 120.00774
loop_
_atom_site_label
_atom_site_type_symbol
_atom_site_fract_x
_atom_site_fract_y
_atom_site_fract_z
_atom_type_partial_charge
Li0 Li 0.54335 0.11892 0.24673 0.0
Li1 Li 0.58591 0.11794 0.25051 0.0
Li2 Li 0.54909 0.08624 0.20936 0.0
Li3 Li 0.54459 0.08098 0.27698 0.0
C4 C 0.58578 0.15427 0.19754 0.0
N5 N 0.61736 0.2098 0.18199 0.0
C6 C 0.59251 0.17362 0.22682 0.0
C7 C 0.59511 0.16317 0.16036 0.0
C8 C 0.60849 0.20159 0.21839 0.0
C9 C 0.61105 0.19133 0.15307 0.0
C10 C 0.57523 0.12206 0.32838 0.0
C11 C 0.60296 0.11251 0.3715 0.0
N12 N 0.59741 0.12543 0.40015 0.0
C13 C 0.56978 0.13522 0.35824 0.0
C14 C 0.59194 0.11059 0.33502 0.0
C15 C 0.58121 0.13673 0.39433 0.0
C16 C 0.51778 0.14378 0.28462 0.0
N17 N 0.52765 0.14192 0.24994 0.0
C18 C 0.52015 0.17707 0.22457 0.0
C19 C 0.52814 0.15739 0.21975 0.0
C20 C 0.51131 0.1806 0.2607 0.0
C21 C 0.50935 0.16302 0.29065 0.0
H22 H 0.51731 0.1309 0.30792 0.0
H23 H 0.53588 0.15535 0.19235 0.0
C24 C 0.64101 0.13788 0.22862 0.0
N25 N 0.62467 0.14123 0.25419 0.0
C26 C 0.6691 0.15712 0.22683 0.0
C27 C 0.66301 0.18219 0.27863 0.0
C28 C 0.63513 0.16267 0.27921 0.0
C29 C 0.6803 0.17987 0.25172 0.0
H30 H 0.632 0.12086 0.20864 0.0
H31 H 0.62166 0.16546 0.29841 0.0
C32 C 0.49545 0.07624 0.21782 0.0
N33 N 0.45278 0.07025 0.17175 0.0
C34 C 0.46824 0.05792 0.22806 0.0
C35 C 0.50098 0.09154 0.18414 0.0
C36 C 0.44695 0.05517 0.20439 0.0
C37 C 0.47912 0.08821 0.16124 0.0
C38 C 0.56495 0.05103 0.23972 0.0
C39 C 0.53728 0.03044 0.23971 0.0
C40 C 0.58531 0.04394 0.23473 0.0
C41 C 0.53045 0.00306 0.23468 0.0
C42 C 0.57765 0.01632 0.22981 0.0
N43 N 0.55061 -0.00338 0.22988 0.0
C44 C 0.56159 0.08003 0.13408 0.0
C45 C 0.51753 0.04492 0.15408 0.0
C46 C 0.5572 0.06858 0.09749 0.0
N47 N 0.54179 0.06824 0.16128 0.0
C48 C 0.51221 0.03284 0.11784 0.0
C49 C 0.53213 0.0448 0.08893 0.0
H50 H 0.58071 0.09852 0.14079 0.0
H51 H 0.50222 0.03583 0.17635 0.0
C52 C 0.50893 0.05808 0.33775 0.0
N53 N 0.53026 0.0577 0.32004 0.0
C54 C 0.49946 0.04509 0.37295 0.0
C55 C 0.53357 0.03083 0.37043 0.0
C56 C 0.54253 0.04428 0.33535 0.0
C57 C 0.5121 0.0316 0.38997 0.0
H58 H 0.49997 0.06937 0.32509 0.0
H59 H 0.55998 0.045 0.32119 0.0
O60 O 0.57044 0.1267 0.20504 0.0
O61 O 0.56368 0.11991 0.29312 0.0
O62 O 0.5164 0.07901 0.24089 0.0
O63 O 0.57231 0.07806 0.24433 0.0
H64 H 0.58546 0.16718 0.25577 0.0
H65 H 0.59009 0.14846 0.13736 0.0
H66 H 0.61385 0.21677 0.24078 0.0
H67 H 0.61842 0.19851 0.12442 0.0
H68 H 0.61588 0.10368 0.37705 0.0
H69 H 0.55684 0.14415 0.35362 0.0
H70 H 0.59626 0.10018 0.31231 0.0
H71 H 0.57716 0.14685 0.41771 0.0
H72 H 0.52231 0.1903 0.20074 0.0
H73 H 0.50216 0.16464 0.31876 0.0
H74 H 0.68176 0.15464 0.20563 0.0
H75 H 0.67062 0.19974 0.29768 0.0
H76 H 0.46364 0.04593 0.25405 0.0
H77 H 0.52186 0.10573 0.17557 0.0
H78 H 0.42578 0.04106 0.21196 0.0
H79 H 0.48311 0.0999 0.13509 0.0
H80 H 0.5212 0.03545 0.24361 0.0
H81 H 0.60683 0.05966 0.23463 0.0
H82 H 0.50912 0.98693 0.23461 0.0
H83 H 0.5932 0.01054 0.22591 0.0
H84 H 0.57301 0.07852 0.07594 0.0
H85 H 0.49279 0.01428 0.11255 0.0
H86 H 0.48272 0.04596 0.38701 0.0
H87 H 0.54409 0.02097 0.3829 0.0
Li88 Li 0.45864 0.55004 0.78646 0.0
Li89 Li 0.46235 0.5883 0.74937 0.0
Li90 Li 0.41732 0.54498 0.75379 0.0
Li91 Li 0.45494 0.5483 0.71431 0.0
C92 C 0.42727 0.56678 0.83059 0.0
N93 N 0.40243 0.55777 0.9015 0.0
C94 C 0.43337 0.58894 0.85487 0.0
C95 C 0.40831 0.5401 0.84223 0.0
C96 C 0.42068 0.58395 0.89066 0.0
C97 C 0.39601 0.53594 0.8782 0.0
C98 C 0.51175 0.59611 0.74743 0.0
C99 C 0.54762 0.63499 0.71386 0.0
N100 N 0.56092 0.6453 0.74764 0.0
C101 C 0.52583 0.60698 0.78179 0.0
C102 C 0.52276 0.6101 0.71314 0.0
C103 C 0.55065 0.63191 0.7813 0.0
C104 C 0.47475 0.51747 0.82809 0.0
N105 N 0.4715 0.53986 0.83 0.0
C106 C 0.48442 0.54661 0.89592 0.0
C107 C 0.4768 0.55483 0.86271 0.0
C108 C 0.48709 0.52308 0.89517 0.0
C109 C 0.48264 0.50867 0.86059 0.0
H110 H 0.47069 0.50618 0.8015 0.0
H111 H 0.47496 0.57307 0.86311 0.0
C112 C 0.47854 0.6403 0.71686 0.0
N113 N 0.47911 0.62725 0.74924 0.0
C114 C 0.48841 0.66854 0.71725 0.0
C115 C 0.49979 0.66953 0.78421 0.0
C116 C 0.48988 0.64125 0.78241 0.0
C117 C 0.49865 0.6834 0.75146 0.0
H118 H 0.46955 0.6287 0.69105 0.0
H119 H 0.49013 0.63031 0.80771 0.0
C120 C 0.41463 0.49193 0.75533 0.0
N121 N 0.3794 0.43578 0.76056 0.0
C122 C 0.40386 0.47608 0.72221 0.0
C123 C 0.40783 0.47907 0.79111 0.0
C124 C 0.38598 0.44777 0.72544 0.0
C125 C 0.3899 0.45071 0.79316 0.0
C126 C 0.42844 0.56866 0.67107 0.0
C127 C 0.40104 0.55422 0.659 0.0
C128 C 0.44929 0.58276 0.64419 0.0
C129 C 0.39497 0.55396 0.62015 0.0
C130 C 0.44238 0.58197 0.60561 0.0
N131 N 0.41559 0.5677 0.59449 0.0
C132 C 0.37111 0.54809 0.77344 0.0
C133 C 0.3597 0.50543 0.74464 0.0
C134 C 0.3434 0.54004 0.77709 0.0
N135 N 0.37872 0.53075 0.75775 0.0
C136 C 0.33167 0.4966 0.7474 0.0
C137 C 0.32327 0.51402 0.76387 0.0
H138 H 0.38665 0.56837 0.78275 0.0
H139 H 0.36617 0.49227 0.7314 0.0
C140 C 0.48957 0.53992 0.66482 0.0
N141 N 0.46363 0.53555 0.66885 0.0
C142 C 0.49741 0.53255 0.63092 0.0
C143 C 0.45161 0.51612 0.60613 0.0
C144 C 0.44454 0.52328 0.64074 0.0
C145 C 0.47845 0.52088 0.60066 0.0
H146 H 0.50426 0.5494 0.68784 0.0
H147 H 0.42393 0.51965 0.64475 0.0
O148 O 0.43968 0.57134 0.79553 0.0
O149 O 0.48709 0.5721 0.74746 0.0
O150 O 0.43253 0.51965 0.75261 0.0
O151 O 0.43471 0.56907 0.70901 0.0
H152 H 0.44781 0.60977 0.84622 0.0
H153 H 0.40286 0.52286 0.82347 0.0
H154 H 0.4253 0.6009 0.90979 0.0
H155 H 0.3813 0.51537 0.88753 0.0
H156 H 0.55632 0.64613 0.68756 0.0
H157 H 0.51754 0.59641 0.80858 0.0
H158 H 0.51213 0.60192 0.68631 0.0
H159 H 0.56171 0.64066 0.8077 0.0
H160 H 0.48821 0.55854 0.92192 0.0
H161 H 0.4845 0.4904 0.85898 0.0
H162 H 0.48671 0.67835 0.69154 0.0
H163 H 0.50764 0.68031 0.81109 0.0
H164 H 0.40898 0.48552 0.69431 0.0
H165 H 0.41645 0.49072 0.81709 0.0
H166 H 0.37734 0.43534 0.70002 0.0
H167 H 0.38442 0.44055 0.82067 0.0
H168 H 0.38462 0.54331 0.67936 0.0
H169 H 0.47063 0.59381 0.65292 0.0
H170 H 0.37386 0.54281 0.61041 0.0
H171 H 0.45833 0.59261 0.58449 0.0
H172 H 0.33781 0.55435 0.78915 0.0
H173 H 0.31676 0.47644 0.7367 0.0
H174 H 0.51813 0.53604 0.62852 0.0
H175 H 0.43631 0.5076 0.58365 0.0
Li176 Li 0.86874 0.45963 0.23281 0.0
Li177 Li 0.90623 0.46212 0.27152 0.0
Li178 Li 0.90374 0.45276 0.20049 0.0
Li179 Li 0.87296 0.41774 0.2459 0.0
C180 C 0.91355 0.51188 0.21828 0.0
N181 N 0.92295 0.56357 0.19873 0.0
C182 C 0.92244 0.53261 0.24597 0.0
C183 C 0.90998 0.51763 0.18049 0.0
C184 C 0.92694 0.55855 0.23557 0.0
C185 C 0.91468 0.54383 0.17122 0.0
C186 C 0.86263 0.4449 0.31969 0.0
C187 C 0.86622 0.43666 0.38664 0.0
N188 N 0.85636 0.45363 0.39599 0.0
C189 C 0.85228 0.46206 0.32997 0.0
C190 C 0.86942 0.43188 0.34823 0.0
C191 C 0.84934 0.46627 0.3687 0.0
C192 C 0.81778 0.45181 0.21212 0.0
N193 N 0.84244 0.47127 0.22641 0.0
C194 C 0.82605 0.50304 0.23288 0.0
C195 C 0.84691 0.49653 0.23693 0.0
C196 C 0.80046 0.48334 0.21785 0.0
C197 C 0.79652 0.45749 0.20728 0.0
H198 H 0.81446 0.43162 0.20507 0.0
H199 H 0.86633 0.51138 0.24937 0.0
C200 C 0.9493 0.47309 0.32255 0.0
N201 N 0.92937 0.47932 0.3146 0.0
C202 C 0.96426 0.48214 0.35657 0.0
C203 C 0.93865 0.5048 0.3729 0.0
C204 C 0.92439 0.49552 0.33839 0.0
C205 C 0.95851 0.49763 0.38278 0.0
H206 H 0.95313 0.4605 0.30291 0.0
H207 H 0.90858 0.50037 0.33132 0.0
C208 C 0.85346 0.42411 0.16111 0.0
N209 N 0.83381 0.4135 0.08683 0.0
C210 C 0.8427 0.39772 0.14566 0.0
C211 C 0.85375 0.44496 0.13899 0.0
C212 C 0.833 0.3928 0.10799 0.0
C213 C 0.84384 0.43924 0.10146 0.0
C214 C 0.91822 0.41413 0.2484 0.0
C215 C 0.92621 0.4037 0.21774 0.0
C216 C 0.91474 0.40234 0.28464 0.0
C217 C 0.9301 0.38127 0.22372 0.0
C218 C 0.91879 0.37993 0.28947 0.0
N219 N 0.92629 0.36993 0.25915 0.0
C220 C 0.94387 0.4837 0.14437 0.0
C221 C 0.9145 0.43662 0.12934 0.0
C222 C 0.95658 0.48827 0.10865 0.0
N223 N 0.92291 0.45831 0.15364 0.0
C224 C 0.92646 0.44027 0.0933 0.0
C225 C 0.94757 0.46644 0.08242 0.0
H226 H 0.95042 0.50051 0.16446 0.0
H227 H 0.89838 0.41647 0.1379 0.0
C228 C 0.83394 0.3706 0.28454 0.0
N229 N 0.8521 0.37927 0.25505 0.0
C230 C 0.81634 0.3426 0.29066 0.0
C231 C 0.83667 0.33284 0.23625 0.0
C232 C 0.85397 0.3611 0.23123 0.0
C233 C 0.81724 0.3233 0.26597 0.0
H234 H 0.83242 0.38543 0.30253 0.0
H235 H 0.86832 0.36855 0.20764 0.0
O236 O 0.90907 0.48635 0.22802 0.0
O237 O 0.86586 0.44072 0.28188 0.0
O238 O 0.86324 0.42932 0.19789 0.0
O239 O 0.91405 0.43591 0.24301 0.0
H240 H 0.92575 0.52872 0.27519 0.0
H241 H 0.90394 0.50218 0.15843 0.0
H242 H 0.93363 0.57471 0.25679 0.0
H243 H 0.91188 0.5485 0.1421 0.0
H244 H 0.87159 0.42688 0.409 0.0
H245 H 0.84674 0.47215 0.30832 0.0
H246 H 0.87718 0.41833 0.34083 0.0
H247 H 0.84151 0.47963 0.37705 0.0
H248 H 0.82982 0.52316 0.24161 0.0
H249 H 0.77688 0.44147 0.19649 0.0
H250 H 0.97985 0.47668 0.36253 0.0
H251 H 0.93335 0.5165 0.39226 0.0
H252 H 0.84199 0.38123 0.16245 0.0
H253 H 0.86121 0.46525 0.1508 0.0
H254 H 0.82482 0.37252 0.09559 0.0
H255 H 0.84403 0.45523 0.08401 0.0
H256 H 0.92933 0.41276 0.18961 0.0
H257 H 0.90888 0.41035 0.30876 0.0
H258 H 0.93614 0.3729 0.2002 0.0
H259 H 0.91599 0.3705 0.31732 0.0
H260 H 0.97279 0.50877 0.10129 0.0
H261 H 0.91933 0.42279 0.0742 0.0
H262 H 0.80128 0.33623 0.3134 0.0
H263 H 0.83809 0.31865 0.21662 0.0
Li264 Li 0.44696 0.9084 0.70751 0.0
Li265 Li 0.4494 0.91541 0.77831 0.0
Li266 Li 0.45394 0.87761 0.74893 0.0
Li267 Li 0.41072 0.87708 0.74798 0.0
C268 C 0.50197 0.92297 0.72348 0.0
N269 N 0.54887 0.93313 0.68439 0.0
C270 C 0.52786 0.94221 0.7376 0.0
C271 C 0.49991 0.90887 0.68951 0.0
C272 C 0.55134 0.94706 0.71741 0.0
C273 C 0.52386 0.9143 0.67016 0.0
C274 C 0.39863 0.91518 0.73751 0.0
C275 C 0.35832 0.91248 0.76619 0.0
N276 N 0.34681 0.90893 0.73086 0.0
C277 C 0.38649 0.91166 0.70147 0.0
C278 C 0.38453 0.91573 0.77015 0.0
C279 C 0.36024 0.90849 0.69872 0.0
C280 C 0.442 0.91013 0.6284 0.0
N281 N 0.45587 0.92567 0.65922 0.0
C282 C 0.48359 0.96416 0.6192 0.0
C283 C 0.47621 0.95226 0.65548 0.0
C284 C 0.46998 0.94839 0.58672 0.0
C285 C 0.44883 0.9211 0.59164 0.0
H286 H 0.42575 0.88912 0.63242 0.0
H287 H 0.48695 0.96402 0.68062 0.0
C288 C 0.47793 0.9365 0.84583 0.0
N289 N 0.46224 0.94027 0.81967 0.0
C290 C 0.48597 0.95196 0.87945 0.0
C291 C 0.46213 0.97542 0.85803 0.0
C292 C 0.45453 0.95946 0.82473 0.0
C293 C 0.47777 0.9715 0.88614 0.0
H294 H 0.48341 0.9208 0.84104 0.0
H295 H 0.44196 0.96188 0.80336 0.0
C296 C 0.41599 0.84033 0.69799 0.0
N297 N 0.39203 0.78458 0.68367 0.0
C298 C 0.40426 0.82143 0.72785 0.0
C299 C 0.41557 0.83085 0.66083 0.0
C300 C 0.39222 0.79335 0.72005 0.0
C301 C 0.40336 0.80259 0.65418 0.0
C302 C 0.4191 0.86526 0.82685 0.0
C303 C 0.41477 0.83945 0.83782 0.0
C304 C 0.41116 0.87973 0.85144 0.0
C305 C 0.40218 0.82837 0.87289 0.0
C306 C 0.39866 0.86796 0.88628 0.0
N307 N 0.39444 0.84272 0.89619 0.0
C308 C 0.47834 0.853 0.79122 0.0
C309 C 0.47415 0.84278 0.72487 0.0
C310 C 0.48739 0.83432 0.7981 0.0
N311 N 0.4712 0.85621 0.75525 0.0
C312 C 0.48292 0.8238 0.73044 0.0
C313 C 0.48899 0.8188 0.76761 0.0
H314 H 0.47603 0.8642 0.81477 0.0
H315 H 0.46862 0.84591 0.69648 0.0
C316 C 0.35916 0.84245 0.71454 0.0
N317 N 0.37147 0.85312 0.74878 0.0
C318 C 0.33156 0.82196 0.71298 0.0
C319 C 0.32906 0.82549 0.78161 0.0
C320 C 0.35676 0.8458 0.78183 0.0
C321 C 0.31638 0.8126 0.74702 0.0
H322 H 0.3711 0.84908 0.68848 0.0
H323 H 0.36649 0.85517 0.80852 0.0
O324 O 0.47884 0.91804 0.74301 0.0
O325 O 0.42394 0.91749 0.74085 0.0
O326 O 0.4282 0.86801 0.70492 0.0
O327 O 0.43196 0.87667 0.79293 0.0
H328 H 0.52977 0.95327 0.7639 0.0
H329 H 0.48005 0.8939 0.67814 0.0
H330 H 0.57152 0.96191 0.728 0.0
H331 H 0.52257 0.90355 0.64382 0.0
H332 H 0.34708 0.91268 0.79122 0.0
H333 H 0.39711 0.91107 0.67596 0.0
H334 H 0.3936 0.91831 0.79827 0.0
H335 H 0.35051 0.90558 0.67103 0.0
H336 H 0.50015 0.98523 0.6165 0.0
H337 H 0.4376 0.90842 0.56734 0.0
H338 H 0.49764 0.94794 0.90058 0.0
H339 H 0.45561 0.99045 0.86191 0.0
H340 H 0.4043 0.82834 0.75667 0.0
H341 H 0.42478 0.84517 0.6374 0.0
H342 H 0.38302 0.77852 0.74291 0.0
H343 H 0.40295 0.79499 0.62557 0.0
H344 H 0.42113 0.82808 0.81953 0.0
H345 H 0.41417 0.89963 0.8435 0.0
H346 H 0.39863 0.80838 0.88163 0.0
H347 H 0.39225 0.87886 0.90542 0.0
H348 H 0.49228 0.83148 0.82712 0.0
H349 H 0.4835 0.81215 0.70608 0.0
H350 H 0.3227 0.8126 0.68564 0.0
H351 H 0.31792 0.81938 0.80842 0.0
Li352 Li 0.53002 0.44936 0.2838 0.0
Li353 Li 0.52973 0.41113 0.25036 0.0
Li354 Li 0.5712 0.4566 0.25271 0.0
Li355 Li 0.5315 0.4481 0.21444 0.0
C356 C 0.5499 0.42858 0.33396 0.0
N357 N 0.54356 0.42301 0.41247 0.0
C358 C 0.53184 0.40298 0.35002 0.0
C359 C 0.56484 0.45131 0.35786 0.0
C360 C 0.52893 0.40059 0.38978 0.0
C361 C 0.56129 0.44809 0.39747 0.0
C362 C 0.47961 0.42129 0.23126 0.0
C363 C 0.44668 0.40578 0.17961 0.0
N364 N 0.43692 0.42202 0.19303 0.0
C365 C 0.46923 0.43777 0.24461 0.0
C366 C 0.46821 0.40508 0.19859 0.0
C367 C 0.44762 0.43785 0.22487 0.0
C368 C 0.52559 0.48487 0.33745 0.0
N369 N 0.51574 0.45825 0.3271 0.0
C370 C 0.48745 0.44242 0.38277 0.0
C371 C 0.49646 0.43716 0.3483 0.0
C372 C 0.49793 0.46972 0.39508 0.0
C373 C 0.51682 0.49112 0.37143 0.0
H374 H 0.54053 0.50123 0.31962 0.0
H375 H 0.48878 0.41618 0.33899 0.0
C376 C 0.53669 0.36667 0.26548 0.0
N377 N 0.51784 0.37309 0.25236 0.0
C378 C 0.5307 0.33946 0.26591 0.0
C379 C 0.48573 0.32576 0.23989 0.0
C380 C 0.49259 0.35338 0.24007 0.0
C381 C 0.505 0.31858 0.25279 0.0
H382 H 0.55662 0.38287 0.27492 0.0
H383 H 0.47799 0.35912 0.22991 0.0
C384 C 0.5762 0.50498 0.24487 0.0
N385 N 0.62332 0.55543 0.23571 0.0
C386 C 0.58379 0.51682 0.20853 0.0
C387 C 0.59253 0.51884 0.27655 0.0
C388 C 0.60769 0.54234 0.20451 0.0
C389 C 0.6163 0.5443 0.27132 0.0
C390 C 0.5593 0.41203 0.19227 0.0
C391 C 0.5835 0.4116 0.20007 0.0
C392 C 0.5388 0.39112 0.16994 0.0
C393 C 0.58677 0.39024 0.18544 0.0
C394 C 0.54282 0.37008 0.15594 0.0
N395 N 0.56652 0.37008 0.16391 0.0
C396 C 0.6229 0.47213 0.28549 0.0
C397 C 0.62444 0.48684 0.22152 0.0
C398 C 0.65105 0.4815 0.28491 0.0
N399 N 0.61018 0.47457 0.2539 0.0
C400 C 0.65265 0.49657 0.21968 0.0
C401 C 0.66617 0.49328 0.25135 0.0
H402 H 0.61098 0.46163 0.31049 0.0
H403 H 0.61365 0.48791 0.19652 0.0
C404 C 0.51297 0.47768 0.17075 0.0
N405 N 0.52058 0.45824 0.16882 0.0
C406 C 0.50556 0.4862 0.13757 0.0
C407 C 0.51358 0.4542 0.10121 0.0
C408 C 0.52109 0.44652 0.13503 0.0
C409 C 0.5059 0.47448 0.10211 0.0
H410 H 0.51304 0.48682 0.19807 0.0
H411 H 0.52747 0.43132 0.13427 0.0
O412 O 0.55265 0.43146 0.29505 0.0
O413 O 0.50121 0.42147 0.24961 0.0
O414 O 0.55309 0.47982 0.24935 0.0
O415 O 0.55541 0.43243 0.2071 0.0
H416 H 0.51991 0.3852 0.33202 0.0
H417 H 0.57874 0.47131 0.34594 0.0
H418 H 0.51493 0.38094 0.40258 0.0
H419 H 0.57255 0.46555 0.41626 0.0
H420 H 0.43781 0.39352 0.15412 0.0
H421 H 0.47791 0.45058 0.2697 0.0
H422 H 0.47625 0.39248 0.18758 0.0
H423 H 0.43945 0.4506 0.23477 0.0
H424 H 0.4731 0.42522 0.40007 0.0
H425 H 0.52492 0.51249 0.37917 0.0
H426 H 0.54635 0.33491 0.27544 0.0
H427 H 0.46564 0.31024 0.22974 0.0
H428 H 0.57159 0.5063 0.18362 0.0
H429 H 0.58708 0.5099 0.30482 0.0
H430 H 0.61388 0.55169 0.17654 0.0
H431 H 0.62919 0.55518 0.29556 0.0
H432 H 0.59949 0.42737 0.21759 0.0
H433 H 0.51968 0.39073 0.16428 0.0
H434 H 0.60535 0.38961 0.19139 0.0
H435 H 0.52701 0.35364 0.13896 0.0
H436 H 0.66048 0.47803 0.30971 0.0
H437 H 0.66354 0.50564 0.19331 0.0
H438 H 0.50021 0.5022 0.13962 0.0
H439 H 0.51375 0.44428 0.07468 0.0
Li440 Li 0.08102 0.52992 0.77249 0.0
Li441 Li 0.11336 0.52522 0.73073 0.0
Li442 Li 0.11685 0.57102 0.73932 0.0
Li443 Li 0.08054 0.53472 0.70057 0.0
C444 C 0.13161 0.55745 0.81329 0.0
N445 N 0.1525 0.57769 0.88524 0.0
C446 C 0.1465 0.54757 0.83314 0.0
C447 C 0.12765 0.57787 0.82986 0.0
C448 C 0.1568 0.55798 0.86954 0.0
C449 C 0.1383 0.58779 0.86628 0.0
C450 C 0.07026 0.47638 0.72914 0.0
C451 C 0.07246 0.44133 0.69193 0.0
N452 N 0.06715 0.4258 0.72404 0.0
C453 C 0.06462 0.46002 0.76172 0.0
C454 C 0.07402 0.46692 0.6939 0.0
C455 C 0.0632 0.43452 0.75857 0.0
C456 C 0.03772 0.51918 0.82393 0.0
N457 N 0.06087 0.5176 0.8187 0.0
C458 C 0.05872 0.5021 0.88287 0.0
C459 C 0.07107 0.50859 0.84691 0.0
C460 C 0.03544 0.50459 0.88967 0.0
C461 C 0.02457 0.51273 0.85945 0.0
H462 H 0.02992 0.52616 0.80082 0.0
H463 H 0.08908 0.50683 0.84164 0.0
C464 C 0.15218 0.51427 0.69627 0.0
N465 N 0.13529 0.50836 0.72693 0.0
C466 C 0.17198 0.50622 0.69576 0.0
C467 C 0.15591 0.48519 0.75777 0.0
C468 C 0.13632 0.49356 0.75699 0.0
C469 C 0.17459 0.49225 0.72735 0.0
H470 H 0.15136 0.52657 0.67316 0.0
H471 H 0.12284 0.48946 0.78122 0.0
C472 C 0.07011 0.57756 0.74759 0.0
N473 N 0.05665 0.6181 0.75965 0.0
C474 C 0.06432 0.58955 0.71656 0.0
C475 C 0.06858 0.58591 0.7848 0.0
C476 C 0.05768 0.61008 0.72322 0.0
C477 C 0.06189 0.60652 0.79029 0.0
C478 C 0.12569 0.56115 0.65462 0.0
C479 C 0.13682 0.5887 0.64407 0.0
C480 C 0.11942 0.54117 0.62641 0.0
C481 C 0.14119 0.59575 0.60534 0.0
C482 C 0.12405 0.54905 0.58799 0.0
N483 N 0.13473 0.57595 0.57835 0.0
C484 C 0.16874 0.61313 0.7545 0.0
C485 C 0.13873 0.63029 0.74098 0.0
C486 C 0.19048 0.63963 0.7609 0.0
N487 N 0.14343 0.6089 0.74524 0.0
C488 C 0.16004 0.65729 0.74684 0.0
C489 C 0.18624 0.66213 0.7573 0.0
H490 H 0.17199 0.59577 0.75704 0.0
H491 H 0.11863 0.62658 0.73299 0.0
C492 C 0.03745 0.50096 0.6503 0.0
N493 N 0.05814 0.52716 0.65615 0.0
C494 C 0.0223 0.49386 0.61634 0.0
C495 C 0.04964 0.54099 0.59541 0.0
C496 C 0.06397 0.54723 0.62997 0.0
C497 C 0.02869 0.5139 0.58793 0.0
H498 H 0.03304 0.48543 0.67174 0.0
H499 H 0.08037 0.56795 0.63527 0.0
O500 O 0.12125 0.54734 0.77767 0.0
O501 O 0.07221 0.50159 0.73177 0.0
O502 O 0.07639 0.55722 0.74154 0.0
O503 O 0.12121 0.55387 0.6924 0.0
H504 H 0.15001 0.53196 0.82066 0.0
H505 H 0.11679 0.58621 0.81457 0.0
H506 H 0.16824 0.5504 0.8853 0.0
H507 H 0.13535 0.60359 0.87941 0.0
H508 H 0.07548 0.43381 0.66488 0.0
H509 H 0.06156 0.46699 0.78918 0.0
H510 H 0.07825 0.47929 0.6684 0.0
H511 H 0.059 0.4217 0.78358 0.0
H512 H 0.06738 0.49535 0.90519 0.0
H513 H 0.00668 0.51497 0.86359 0.0
H514 H 0.18626 0.51251 0.67203 0.0
H515 H 0.15718 0.47434 0.78259 0.0
H516 H 0.06507 0.58321 0.68764 0.0
H517 H 0.07228 0.57648 0.80929 0.0
H518 H 0.05333 0.61963 0.69943 0.0
H519 H 0.06075 0.61322 0.81894 0.0
H520 H 0.14188 0.60444 0.66551 0.0
H521 H 0.11082 0.51977 0.63406 0.0
H522 H 0.14967 0.61697 0.59675 0.0
H523 H 0.1191 0.53378 0.56585 0.0
H524 H 0.21051 0.6425 0.76809 0.0
H525 H 0.156 0.67413 0.7437 0.0
H526 H 0.00594 0.47284 0.61229 0.0
H527 H 0.05564 0.55711 0.57433 0.0
H528 H 0.48714 0.20124 0.21351 0.0
H529 H 0.52615 0.2135 0.32405 0.0
H530 H 0.52449 0.25559 0.33312 0.0
H531 H 0.51643 0.29135 0.30714 0.0
H532 H 0.48058 0.28124 0.19485 0.0
H533 H 0.47639 0.23588 0.18911 0.0
C534 C 0.49521 0.21308 0.23963 0.0
C535 C 0.50689 0.2042 0.26791 0.0
C536 C 0.49492 0.23778 0.24428 0.0
C537 C 0.51672 0.21954 0.30194 0.0
C538 C 0.51605 0.24382 0.30704 0.0
C539 C 0.50762 0.27917 0.28146 0.0
C540 C 0.49914 0.28976 0.2513 0.0
C541 C 0.50588 0.25348 0.278 0.0
C542 C 0.48716 0.27349 0.21856 0.0
C543 C 0.48496 0.24766 0.21514 0.0
H544 H 0.28501 0.49059 0.70751 0.0
H545 H 0.29572 0.5199 0.82399 0.0
H546 H 0.24904 0.51256 0.82426 0.0
H547 H 0.20739 0.50269 0.7892 0.0
H548 H 0.19681 0.4745 0.67216 0.0
H549 H 0.24117 0.47619 0.67442 0.0
C550 C 0.27689 0.49479 0.7332 0.0
C551 C 0.29384 0.50601 0.76556 0.0
C552 C 0.25017 0.49091 0.73295 0.0
C553 C 0.28317 0.51164 0.79854 0.0
C554 C 0.25649 0.50739 0.79874 0.0
C555 C 0.21441 0.49618 0.76451 0.0
C556 C 0.19888 0.48856 0.73053 0.0
C557 C 0.24009 0.49773 0.76579 0.0
C558 C 0.20853 0.48068 0.69854 0.0
C559 C 0.23388 0.48167 0.69982 0.0
H560 H 0.71735 0.20757 0.3082 0.0
H561 H 0.7074 0.20371 0.18547 0.0
H562 H 0.75124 0.24636 0.17875 0.0
H563 H 0.78877 0.28785 0.20829 0.0
H564 H 0.79805 0.29256 0.33117 0.0
H565 H 0.75795 0.2466 0.33732 0.0
C566 C 0.72498 0.21593 0.27997 0.0
C567 C 0.70903 0.20267 0.24744 0.0
C568 C 0.74985 0.24081 0.27638 0.0
C569 C 0.71935 0.21342 0.21098 0.0
C570 C 0.7443 0.23796 0.20713 0.0
C571 C 0.7825 0.27855 0.23635 0.0
C572 C 0.79617 0.29375 0.26925 0.0
C573 C 0.75924 0.25228 0.2397 0.0
C574 C 0.78756 0.28147 0.30544 0.0
C575 C 0.76468 0.25518 0.30898 0.0
H576 H 0.51872 0.80262 0.72387 0.0
H577 H 0.47021 0.78244 0.82713 0.0
H578 H 0.47247 0.7405 0.83402 0.0
H579 H 0.48272 0.7066 0.80623 0.0
H580 H 0.52847 0.72492 0.7008 0.0
H581 H 0.53246 0.77034 0.69896 0.0
C582 C 0.50876 0.78912 0.74799 0.0
C583 C 0.49413 0.79565 0.77471 0.0
C584 C 0.50933 0.7645 0.75114 0.0
C585 C 0.48187 0.77819 0.80628 0.0
C586 C 0.48289 0.75399 0.81007 0.0
C587 C 0.49418 0.7208 0.78338 0.0
C588 C 0.50516 0.7124 0.75359 0.0
C589 C 0.49584 0.74655 0.78208 0.0
C590 C 0.51959 0.73086 0.72384 0.0
C591 C 0.52187 0.75679 0.72279 0.0
H592 H 0.68912 0.48162 0.19122 0.0
H593 H 0.70747 0.51686 0.30469 0.0
H594 H 0.75219 0.51936 0.30284 0.0
H595 H 0.7838 0.50703 0.2715 0.0
H596 H 0.76483 0.47134 0.15832 0.0
H597 H 0.72273 0.47394 0.1573 0.0
C598 C 0.70316 0.49055 0.21517 0.0
C599 C 0.69489 0.49891 0.24812 0.0
C600 C 0.72862 0.49161 0.21409 0.0
C601 C 0.7132 0.50995 0.27917 0.0
C602 C 0.73878 0.51142 0.27811 0.0
C603 C 0.77076 0.50041 0.24629 0.0
C604 C 0.77725 0.48876 0.21519 0.0
C605 C 0.74638 0.50163 0.24611 0.0
C606 C 0.76002 0.48 0.18285 0.0
C607 C 0.73599 0.48151 0.18222 0.0
H608 H 0.29602 0.77049 0.79756 0.0
H609 H 0.27453 0.79865 0.69537 0.0
H610 H 0.23117 0.75503 0.69098 0.0
H611 H 0.2012 0.70754 0.71351 0.0
H612 H 0.22333 0.67993 0.81565 0.0
H613 H 0.26449 0.72494 0.82304 0.0
C614 C 0.28159 0.76742 0.77482 0.0
C615 C 0.28855 0.7878 0.7468 0.0
C616 C 0.25691 0.7423 0.77231 0.0
C617 C 0.26981 0.78317 0.71708 0.0
C618 C 0.245 0.75827 0.7146 0.0
C619 C 0.2148 0.71158 0.73774 0.0
C620 C 0.20941 0.69038 0.76377 0.0
C621 C 0.2386 0.73746 0.74163 0.0
C622 C 0.2273 0.6958 0.79488 0.0
C623 C 0.25078 0.72153 0.79919 0.0
H624 H 0.52613 0.99415 0.92533 0.0
H625 H 0.44418 0.9825 0.93006 0.0
H626 H 0.45403 0.00476 0.99273 0.0
H627 H 0.48535 0.02607 0.04715 0.0
H628 H 0.56683 0.03656 0.04327 0.0
H629 H 0.55768 0.01609 0.97934 0.0
C630 C 0.51039 -0.0036 0.94014 0.0
C631 C 0.48445 0.98662 0.92305 0.0
C632 C 0.51607 0.00889 0.97636 0.0
C633 C 0.46444 0.99014 0.94232 0.0
C634 C 0.46997 0.00266 0.97831 0.0
C635 C 0.50102 0.02369 0.03239 0.0
C636 C 0.52666 0.03267 0.04998 0.0
C637 C 0.4956 0.01184 -0.00424 0.0
C638 C 0.54699 0.02997 0.03022 0.0
C639 C 0.54174 0.01817 0.99376 0.0
H640 H 0.53018 0.51031 0.44546 0.0
H641 H 0.44745 0.44257 0.42994 0.0
H642 H 0.4348 0.45136 0.49292 0.0
H643 H 0.44709 0.47822 0.55215 0.0
H644 H 0.52843 0.54897 0.56462 0.0
H645 H 0.54171 0.53877 0.50312 0.0
C646 C 0.50922 0.49771 0.45545 0.0
C647 C 0.48986 0.47577 0.43282 0.0
C648 C 0.50186 0.50325 0.49133 0.0
C649 C 0.46298 0.45932 0.44686 0.0
C650 C 0.45564 0.46443 0.48283 0.0
C651 C 0.46762 0.49173 0.54131 0.0
C652 C 0.48668 0.51432 0.56333 0.0
C653 C 0.47491 0.48634 0.50528 0.0
C654 C 0.5134 0.53109 0.54891 0.0
C655 C 0.52098 0.52547 0.51346 0.0
H656 H 0.98122 0.47552 0.90831 0.0
H657 H 0.06219 0.52249 0.95785 0.0
H658 H 0.04221 0.51479 0.02185 0.0
H659 H 0.00172 0.49491 0.06375 0.0
H660 H 0.92073 0.44794 0.01432 0.0
H661 H 0.9407 0.45542 0.95029 0.0
C662 C 0.99444 0.48418 0.93313 0.0
C663 C 0.0231 0.49952 0.92839 0.0
C664 C 0.98283 0.47965 0.96984 0.0
C665 C 0.04005 0.51033 0.96082 0.0
C666 C 0.02866 0.50607 -0.00261 0.0
C667 C 0.98847 0.48648 0.0389 0.0
C668 C 0.95983 0.47094 0.04371 0.0
C669 C 8e-05 0.4908 0.00223 0.0
C670 C 0.94289 0.45976 0.01135 0.0
C671 C 0.95426 0.46413 0.97474 0.0
H672 H 0.50287 0.98171 0.4141 0.0
H673 H 0.50303 0.0548 0.45272 0.0
H674 H 0.49016 0.03561 0.51706 0.0
H675 H 0.47901 -0.0019 0.56244 0.0
H676 H 0.4786 0.9249 0.52385 0.0
H677 H 0.49146 0.94406 0.45944 0.0
C678 C 0.50019 0.99344 0.43669 0.0
C679 C 0.50382 0.01957 0.42871 0.0
C680 C 0.49276 0.98227 0.47358 0.0
C681 C 0.5 0.03447 0.45808 0.0
C682 C 0.4928 0.02359 0.49491 0.0
C683 C 0.48193 0.98647 0.53994 0.0
C684 C 0.47792 0.96019 0.54782 0.0
C685 C 0.48917 -0.00246 0.50299 0.0
C686 C 0.48136 0.9451 0.51834 0.0
C687 C 0.48881 0.95608 0.48158 0.0
H688 H 0.46325 0.51618 0.96459 0.0
H689 H 0.52592 0.50796 0.90476 0.0
H690 H 0.53734 0.49225 0.96365 0.0
H691 H 0.53004 0.48182 0.03218 0.0
H692 H 0.46578 0.48798 0.09126 0.0
H693 H 0.45488 0.50418 0.0327 0.0
C694 C 0.47951 0.51108 0.96458 0.0
C695 C 0.49386 0.51334 0.9306 0.0
C696 C 0.48577 0.50189 -0.00165 0.0
C697 C 0.51455 0.50624 0.93064 0.0
C698 C 0.52112 0.49737 0.96427 0.0
C699 C 0.51337 0.48631 0.0322 0.0
C700 C 0.49882 0.48372 0.0662 0.0
C701 C 0.50687 0.49514 -0.00172 0.0
C702 C 0.47765 0.49019 0.06573 0.0
C703 C 0.47125 0.49928 0.03218 0.0
H704 H 0.01401 0.54458 0.54356 0.0
H705 H 0.01151 0.46644 0.54692 0.0
H706 H 0.98919 0.45449 0.48452 0.0
H707 H 0.97092 0.46628 0.42869 0.0
H708 H 0.97648 0.54571 0.42286 0.0
H709 H -0.00268 0.55712 0.48647 0.0
C710 C 0.00889 0.52505 0.53055 0.0
C711 C 0.01441 0.50645 0.55021 0.0
C712 C -0.00333 0.51853 0.49412 0.0
C713 C 0.00707 0.481 0.533 0.0
C714 C 0.99453 0.47421 0.49705 0.0
C715 C 0.97707 0.48628 0.44098 0.0
C716 C 0.97217 0.50511 0.42086 0.0
C717 C 0.98937 0.49287 0.4773 0.0
C718 C 0.9797 0.53067 0.4378 0.0
C719 C 0.99174 0.53728 0.47413 0.0
loop_
_geom_bond_atom_site_label_1
_geom_bond_atom_site_label_2
_geom_bond_distance
_geom_bond_site_symmetry_2
_ccdc_geom_bond_type
Li0 N17 1.990 . S
Li0 O60 1.956 . S
Li0 O61 1.970 . S
Li0 O62 1.961 . S
Li1 N25 1.990 . S
Li1 O60 1.970 . S
Li1 O61 1.956 . S
Li1 O63 1.961 . S
Li2 N47 1.990 . S
Li2 O60 1.961 . S
Li2 O62 1.956 . S
Li2 O63 1.970 . S
Li3 N53 1.990 . S
Li3 O61 1.961 . S
Li3 O62 1.970 . S
Li3 O63 1.956 . S
C4 C6 1.348 . S
C4 C7 1.356 . S
C4 O60 1.325 . S
N5 C8 1.314 . S
N5 C9 1.279 . S
C6 C4 1.348 . S
C6 C8 1.353 . S
C6 H64 0.929 . S
C7 C4 1.356 . S
C7 C9 1.358 . S
C7 H65 0.930 . S
C8 N5 1.314 . S
C8 C6 1.353 . S
C8 H66 0.930 . S
C9 N5 1.279 . S
C9 C7 1.358 . S
C9 H67 0.930 . S
C10 C13 1.348 . S
C10 C14 1.356 . S
C10 O61 1.325 . S
C11 N12 1.279 . S
C11 C14 1.358 . S
C11 H68 0.930 . S
N12 C11 1.279 . S
N12 C15 1.314 . S
C13 C10 1.348 . S
C13 C15 1.353 . S
C13 H69 0.929 . S
C14 C10 1.356 . S
C14 C11 1.358 . S
C14 H70 0.930 . S
C15 N12 1.314 . S
C15 C13 1.353 . S
C15 H71 0.930 . S
C16 N17 1.314 . S
C16 C21 1.353 . S
C16 H22 0.930 . S
N17 Li0 1.990 . S
N17 C16 1.314 . S
N17 C19 1.279 . S
C18 C19 1.358 . S
C18 C20 1.356 . S
C18 H72 0.930 . S
C19 N17 1.279 . S
C19 C18 1.358 . S
C19 H23 0.930 . S
C20 C18 1.356 . S
C20 C21 1.348 . S
C21 C16 1.353 . S
C21 C20 1.348 . S
C21 H73 0.929 . S
H22 C16 0.930 . S
H23 C19 0.930 . S
C24 N25 1.314 . S
C24 C26 1.353 . S
C24 H30 0.930 . S
N25 Li1 1.990 . S
N25 C24 1.314 . S
N25 C28 1.279 . S
C26 C24 1.353 . S
C26 C29 1.348 . S
C26 H74 0.929 . S
C27 C28 1.358 . S
C27 C29 1.356 . S
C27 H75 0.930 . S
C28 N25 1.279 . S
C28 C27 1.358 . S
C28 H31 0.930 . S
C29 C26 1.348 . S
C29 C27 1.356 . S
H30 C24 0.930 . S
H31 C28 0.930 . S
C32 C34 1.348 . S
C32 C35 1.356 . S
C32 O62 1.325 . S
N33 C36 1.314 . S
N33 C37 1.279 . S
C34 C32 1.348 . S
C34 C36 1.353 . S
C34 H76 0.929 . S
C35 C32 1.356 . S
C35 C37 1.358 . S
C35 H77 0.930 . S
C36 N33 1.314 . S
C36 C34 1.353 . S
C36 H78 0.930 . S
C37 N33 1.279 . S
C37 C35 1.358 . S
C37 H79 0.930 . S
C38 C39 1.348 . S
C38 C40 1.356 . S
C38 O63 1.325 . S
C39 C38 1.348 . S
C39 C41 1.353 . S
C39 H80 0.929 . S
C40 C38 1.356 . S
C40 C42 1.358 . S
C40 H81 0.930 . S
C41 C39 1.353 . S
C41 N43 1.314 . S
C41 H82 0.930 . S
C42 C40 1.358 . S
C42 N43 1.279 . S
C42 H83 0.930 . S
N43 C41 1.314 . S
N43 C42 1.279 . S
C44 C46 1.353 . S
C44 N47 1.314 . S
C44 H50 0.930 . S
C45 N47 1.279 . S
C45 C48 1.358 . S
C45 H51 0.930 . S
C46 C44 1.353 . S
C46 C49 1.348 . S
C46 H84 0.929 . S
N47 Li2 1.990 . S
N47 C44 1.314 . S
N47 C45 1.279 . S
C48 C45 1.358 . S
C48 C49 1.356 . S
C48 H85 0.930 . S
C49 C46 1.348 . S
C49 C48 1.356 . S
H50 C44 0.930 . S
H51 C45 0.930 . S
C52 N53 1.314 . S
C52 C54 1.353 . S
C52 H58 0.930 . S
N53 Li3 1.990 . S
N53 C52 1.314 . S
N53 C56 1.279 . S
C54 C52 1.353 . S
C54 C57 1.348 . S
C54 H86 0.929 . S
C55 C56 1.358 . S
C55 C57 1.356 . S
C55 H87 0.930 . S
C56 N53 1.279 . S
C56 C55 1.358 . S
C56 H59 0.930 . S
C57 C54 1.348 . S
C57 C55 1.356 . S
H58 C52 0.930 . S
H59 C56 0.930 . S
O60 Li0 1.956 . S
O60 Li1 1.970 . S
O60 Li2 1.961 . S
O60 C4 1.325 . S
O61 Li0 1.970 . S
O61 Li1 1.956 . S
O61 Li3 1.961 . S
O61 C10 1.325 . S
O62 Li0 1.961 . S
O62 Li2 1.956 . S
O62 Li3 1.970 . S
O62 C32 1.325 . S
O63 Li1 1.961 . S
O63 Li2 1.970 . S
O63 Li3 1.956 . S
O63 C38 1.325 . S
H64 C6 0.929 . S
H65 C7 0.930 . S
H66 C8 0.930 . S
H67 C9 0.930 . S
H68 C11 0.930 . S
H69 C13 0.929 . S
H70 C14 0.930 . S
H71 C15 0.930 . S
H72 C18 0.930 . S
H73 C21 0.929 . S
H74 C26 0.929 . S
H75 C27 0.930 . S
H76 C34 0.929 . S
H77 C35 0.930 . S
H78 C36 0.930 . S
H79 C37 0.930 . S
H80 C39 0.929 . S
H81 C40 0.930 . S
H82 C41 0.930 . S
H83 C42 0.930 . S
H84 C46 0.929 . S
H85 C48 0.930 . S
H86 C54 0.929 . S
H87 C55 0.930 . S
Li88 N105 1.990 . S
Li88 O148 1.956 . S
Li88 O149 1.970 . S
Li88 O150 1.961 . S
Li89 N113 1.990 . S
Li89 O148 1.970 . S
Li89 O149 1.956 . S
Li89 O151 1.961 . S
Li90 N135 1.990 . S
Li90 O148 1.961 . S
Li90 O150 1.956 . S
Li90 O151 1.970 . S
Li91 N141 1.990 . S
Li91 O149 1.961 . S
Li91 O150 1.970 . S
Li91 O151 1.956 . S
C92 C94 1.348 . S
C92 C95 1.356 . S
C92 O148 1.325 . S
N93 C96 1.314 . S
N93 C97 1.279 . S
C94 C92 1.348 . S
C94 C96 1.353 . S
C94 H152 0.929 . S
C95 C92 1.356 . S
C95 C97 1.358 . S
C95 H153 0.930 . S
C96 N93 1.314 . S
C96 C94 1.353 . S
C96 H154 0.930 . S
C97 N93 1.279 . S
C97 C95 1.358 . S
C97 H155 0.930 . S
C98 C101 1.348 . S
C98 C102 1.356 . S
C98 O149 1.325 . S
C99 N100 1.279 . S
C99 C102 1.358 . S
C99 H156 0.930 . S
N100 C99 1.279 . S
N100 C103 1.314 . S
C101 C98 1.348 . S
C101 C103 1.353 . S
C101 H157 0.929 . S
C102 C98 1.356 . S
C102 C99 1.358 . S
C102 H158 0.930 . S
C103 N100 1.314 . S
C103 C101 1.353 . S
C103 H159 0.930 . S
C104 N105 1.314 . S
C104 C109 1.353 . S
C104 H110 0.930 . S
N105 Li88 1.990 . S
N105 C104 1.314 . S
N105 C107 1.279 . S
C106 C107 1.358 . S
C106 C108 1.356 . S
C106 H160 0.930 . S
C107 N105 1.279 . S
C107 C106 1.358 . S
C107 H111 0.930 . S
C108 C106 1.356 . S
C108 C109 1.348 . S
C109 C104 1.353 . S
C109 C108 1.348 . S
C109 H161 0.929 . S
H110 C104 0.930 . S
H111 C107 0.930 . S
C112 N113 1.314 . S
C112 C114 1.353 . S
C112 H118 0.930 . S
N113 Li89 1.990 . S
N113 C112 1.314 . S
N113 C116 1.279 . S
C114 C112 1.353 . S
C114 C117 1.348 . S
C114 H162 0.929 . S
C115 C116 1.358 . S
C115 C117 1.356 . S
C115 H163 0.930 . S
C116 N113 1.279 . S
C116 C115 1.358 . S
C116 H119 0.930 . S
C117 C114 1.348 . S
C117 C115 1.356 . S
H118 C112 0.930 . S
H119 C116 0.930 . S
C120 C122 1.348 . S
C120 C123 1.356 . S
C120 O150 1.325 . S
N121 C124 1.314 . S
N121 C125 1.279 . S
C122 C120 1.348 . S
C122 C124 1.353 . S
C122 H164 0.929 . S
C123 C120 1.356 . S
C123 C125 1.358 . S
C123 H165 0.930 . S
C124 N121 1.314 . S
C124 C122 1.353 . S
C124 H166 0.930 . S
C125 N121 1.279 . S
C125 C123 1.358 . S
C125 H167 0.930 . S
C126 C127 1.348 . S
C126 C128 1.356 . S
C126 O151 1.325 . S
C127 C126 1.348 . S
C127 C129 1.353 . S
C127 H168 0.929 . S
C128 C126 1.356 . S
C128 C130 1.358 . S
C128 H169 0.930 . S
C129 C127 1.353 . S
C129 N131 1.314 . S
C129 H170 0.930 . S
C130 C128 1.358 . S
C130 N131 1.279 . S
C130 H171 0.930 . S
N131 C129 1.314 . S
N131 C130 1.279 . S
C132 C134 1.353 . S
C132 N135 1.314 . S
C132 H138 0.930 . S
C133 N135 1.279 . S
C133 C136 1.358 . S
C133 H139 0.930 . S
C134 C132 1.353 . S
C134 C137 1.348 . S
C134 H172 0.929 . S
N135 Li90 1.990 . S
N135 C132 1.314 . S
N135 C133 1.279 . S
C136 C133 1.358 . S
C136 C137 1.356 . S
C136 H173 0.930 . S
C137 C134 1.348 . S
C137 C136 1.356 . S
H138 C132 0.930 . S
H139 C133 0.930 . S
C140 N141 1.314 . S
C140 C142 1.353 . S
C140 H146 0.930 . S
N141 Li91 1.990 . S
N141 C140 1.314 . S
N141 C144 1.279 . S
C142 C140 1.353 . S
C142 C145 1.348 . S
C142 H174 0.929 . S
C143 C144 1.358 . S
C143 C145 1.356 . S
C143 H175 0.930 . S
C144 N141 1.279 . S
C144 C143 1.358 . S
C144 H147 0.930 . S
C145 C142 1.348 . S
C145 C143 1.356 . S
H146 C140 0.930 . S
H147 C144 0.930 . S
O148 Li88 1.956 . S
O148 Li89 1.970 . S
O148 Li90 1.961 . S
O148 C92 1.325 . S
O149 Li88 1.970 . S
O149 Li89 1.956 . S
O149 Li91 1.961 . S
O149 C98 1.325 . S
O150 Li88 1.961 . S
O150 Li90 1.956 . S
O150 Li91 1.970 . S
O150 C120 1.325 . S
O151 Li89 1.961 . S
O151 Li90 1.970 . S
O151 Li91 1.956 . S
O151 C126 1.325 . S
H152 C94 0.929 . S
H153 C95 0.930 . S
H154 C96 0.930 . S
H155 C97 0.930 . S
H156 C99 0.930 . S
H157 C101 0.929 . S
H158 C102 0.930 . S
H159 C103 0.930 . S
H160 C106 0.930 . S
H161 C109 0.929 . S
H162 C114 0.929 . S
H163 C115 0.930 . S
H164 C122 0.929 . S
H165 C123 0.930 . S
H166 C124 0.930 . S
H167 C125 0.930 . S
H168 C127 0.929 . S
H169 C128 0.930 . S
H170 C129 0.930 . S
H171 C130 0.930 . S
H172 C134 0.929 . S
H173 C136 0.930 . S
H174 C142 0.929 . S
H175 C143 0.930 . S
Li176 N193 1.990 . S
Li176 O236 1.956 . S
Li176 O237 1.970 . S
Li176 O238 1.961 . S
Li177 N201 1.990 . S
Li177 O236 1.970 . S
Li177 O237 1.956 . S
Li177 O239 1.961 . S
Li178 N223 1.990 . S
Li178 O236 1.961 . S
Li178 O238 1.956 . S
Li178 O239 1.970 . S
Li179 N229 1.990 . S
Li179 O237 1.961 . S
Li179 O238 1.970 . S
Li179 O239 1.956 . S
C180 C182 1.348 . S
C180 C183 1.356 . S
C180 O236 1.325 . S
N181 C184 1.314 . S
N181 C185 1.279 . S
C182 C180 1.348 . S
C182 C184 1.353 . S
C182 H240 0.929 . S
C183 C180 1.356 . S
C183 C185 1.358 . S
C183 H241 0.930 . S
C184 N181 1.314 . S
C184 C182 1.353 . S
C184 H242 0.930 . S
C185 N181 1.279 . S
C185 C183 1.358 . S
C185 H243 0.930 . S
C186 C189 1.348 . S
C186 C190 1.356 . S
C186 O237 1.325 . S
C187 N188 1.279 . S
C187 C190 1.358 . S
C187 H244 0.930 . S
N188 C187 1.279 . S
N188 C191 1.314 . S
C189 C186 1.348 . S
C189 C191 1.353 . S
C189 H245 0.929 . S
C190 C186 1.356 . S
C190 C187 1.358 . S
C190 H246 0.930 . S
C191 N188 1.314 . S
C191 C189 1.353 . S
C191 H247 0.930 . S
C192 N193 1.314 . S
C192 C197 1.353 . S
C192 H198 0.930 . S
N193 Li176 1.990 . S
N193 C192 1.314 . S
N193 C195 1.279 . S
C194 C195 1.358 . S
C194 C196 1.356 . S
C194 H248 0.930 . S
C195 N193 1.279 . S
C195 C194 1.358 . S
C195 H199 0.930 . S
C196 C194 1.356 . S
C196 C197 1.348 . S
C197 C192 1.353 . S
C197 C196 1.348 . S
C197 H249 0.929 . S
H198 C192 0.930 . S
H199 C195 0.930 . S
C200 N201 1.314 . S
C200 C202 1.353 . S
C200 H206 0.930 . S
N201 Li177 1.990 . S
N201 C200 1.314 . S
N201 C204 1.279 . S
C202 C200 1.353 . S
C202 C205 1.348 . S
C202 H250 0.929 . S
C203 C204 1.358 . S
C203 C205 1.356 . S
C203 H251 0.930 . S
C204 N201 1.279 . S
C204 C203 1.358 . S
C204 H207 0.930 . S
C205 C202 1.348 . S
C205 C203 1.356 . S
H206 C200 0.930 . S
H207 C204 0.930 . S
C208 C210 1.348 . S
C208 C211 1.356 . S
C208 O238 1.325 . S
N209 C212 1.314 . S
N209 C213 1.279 . S
C210 C208 1.348 . S
C210 C212 1.353 . S
C210 H252 0.929 . S
C211 C208 1.356 . S
C211 C213 1.358 . S
C211 H253 0.930 . S
C212 N209 1.314 . S
C212 C210 1.353 . S
C212 H254 0.930 . S
C213 N209 1.279 . S
C213 C211 1.358 . S
C213 H255 0.930 . S
C214 C215 1.348 . S
C214 C216 1.356 . S
C214 O239 1.325 . S
C215 C214 1.348 . S
C215 C217 1.353 . S
C215 H256 0.929 . S
C216 C214 1.356 . S
C216 C218 1.358 . S
C216 H257 0.930 . S
C217 C215 1.353 . S
C217 N219 1.314 . S
C217 H258 0.930 . S
C218 C216 1.358 . S
C218 N219 1.279 . S
C218 H259 0.930 . S
N219 C217 1.314 . S
N219 C218 1.279 . S
C220 C222 1.353 . S
C220 N223 1.314 . S
C220 H226 0.930 . S
C221 N223 1.279 . S
C221 C224 1.358 . S
C221 H227 0.930 . S
C222 C220 1.353 . S
C222 C225 1.348 . S
C222 H260 0.929 . S
N223 Li178 1.990 . S
N223 C220 1.314 . S
N223 C221 1.279 . S
C224 C221 1.358 . S
C224 C225 1.356 . S
C224 H261 0.930 . S
C225 C222 1.348 . S
C225 C224 1.356 . S
H226 C220 0.930 . S
H227 C221 0.930 . S
C228 N229 1.314 . S
C228 C230 1.353 . S
C228 H234 0.930 . S
N229 Li179 1.990 . S
N229 C228 1.314 . S
N229 C232 1.279 . S
C230 C228 1.353 . S
C230 C233 1.348 . S
C230 H262 0.929 . S
C231 C232 1.358 . S
C231 C233 1.356 . S
C231 H263 0.930 . S
C232 N229 1.279 . S
C232 C231 1.358 . S
C232 H235 0.930 . S
C233 C230 1.348 . S
C233 C231 1.356 . S
H234 C228 0.930 . S
H235 C232 0.930 . S
O236 Li176 1.956 . S
O236 Li177 1.970 . S
O236 Li178 1.961 . S
O236 C180 1.325 . S
O237 Li176 1.970 . S
O237 Li177 1.956 . S
O237 Li179 1.961 . S
O237 C186 1.325 . S
O238 Li176 1.961 . S
O238 Li178 1.956 . S
O238 Li179 1.970 . S
O238 C208 1.325 . S
O239 Li177 1.961 . S
O239 Li178 1.970 . S
O239 Li179 1.956 . S
O239 C214 1.325 . S
H240 C182 0.929 . S
H241 C183 0.930 . S
H242 C184 0.930 . S
H243 C185 0.930 . S
H244 C187 0.930 . S
H245 C189 0.929 . S
H246 C190 0.930 . S
H247 C191 0.930 . S
H248 C194 0.930 . S
H249 C197 0.929 . S
H250 C202 0.929 . S
H251 C203 0.930 . S
H252 C210 0.929 . S
H253 C211 0.930 . S
H254 C212 0.930 . S
H255 C213 0.930 . S
H256 C215 0.929 . S
H257 C216 0.930 . S
H258 C217 0.930 . S
H259 C218 0.930 . S
H260 C222 0.929 . S
H261 C224 0.930 . S
H262 C230 0.929 . S
H263 C231 0.930 . S
Li264 N281 1.990 . S
Li264 O324 1.956 . S
Li264 O325 1.970 . S
Li264 O326 1.961 . S
Li265 N289 1.990 . S
Li265 O324 1.970 . S
Li265 O325 1.956 . S
Li265 O327 1.961 . S
Li266 N311 1.990 . S
Li266 O324 1.961 . S
Li266 O326 1.956 . S
Li266 O327 1.970 . S
Li267 N317 1.990 . S
Li267 O325 1.961 . S
Li267 O326 1.970 . S
Li267 O327 1.956 . S
C268 C270 1.348 . S
C268 C271 1.356 . S
C268 O324 1.325 . S
N269 C272 1.314 . S
N269 C273 1.279 . S
C270 C268 1.348 . S
C270 C272 1.353 . S
C270 H328 0.929 . S
C271 C268 1.356 . S
C271 C273 1.358 . S
C271 H329 0.930 . S
C272 N269 1.314 . S
C272 C270 1.353 . S
C272 H330 0.930 . S
C273 N269 1.279 . S
C273 C271 1.358 . S
C273 H331 0.930 . S
C274 C277 1.348 . S
C274 C278 1.356 . S
C274 O325 1.325 . S
C275 N276 1.279 . S
C275 C278 1.358 . S
C275 H332 0.930 . S
N276 C275 1.279 . S
N276 C279 1.314 . S
C277 C274 1.348 . S
C277 C279 1.353 . S
C277 H333 0.929 . S
C278 C274 1.356 . S
C278 C275 1.358 . S
C278 H334 0.930 . S
C279 N276 1.314 . S
C279 C277 1.353 . S
C279 H335 0.930 . S
C280 N281 1.314 . S
C280 C285 1.353 . S
C280 H286 0.930 . S
N281 Li264 1.990 . S
N281 C280 1.314 . S
N281 C283 1.279 . S
C282 C283 1.358 . S
C282 C284 1.356 . S
C282 H336 0.930 . S
C283 N281 1.279 . S
C283 C282 1.358 . S
C283 H287 0.930 . S
C284 C282 1.356 . S
C284 C285 1.348 . S
C285 C280 1.353 . S
C285 C284 1.348 . S
C285 H337 0.929 . S
H286 C280 0.930 . S
H287 C283 0.930 . S
C288 N289 1.314 . S
C288 C290 1.353 . S
C288 H294 0.930 . S
N289 Li265 1.990 . S
N289 C288 1.314 . S
N289 C292 1.279 . S
C290 C288 1.353 . S
C290 C293 1.348 . S
C290 H338 0.929 . S
C291 C292 1.358 . S
C291 C293 1.356 . S
C291 H339 0.930 . S
C292 N289 1.279 . S
C292 C291 1.358 . S
C292 H295 0.930 . S
C293 C290 1.348 . S
C293 C291 1.356 . S
H294 C288 0.930 . S
H295 C292 0.930 . S
C296 C298 1.348 . S
C296 C299 1.356 . S
C296 O326 1.325 . S
N297 C300 1.314 . S
N297 C301 1.279 . S
C298 C296 1.348 . S
C298 C300 1.353 . S
C298 H340 0.929 . S
C299 C296 1.356 . S
C299 C301 1.358 . S
C299 H341 0.930 . S
C300 N297 1.314 . S
C300 C298 1.353 . S
C300 H342 0.930 . S
C301 N297 1.279 . S
C301 C299 1.358 . S
C301 H343 0.930 . S
C302 C303 1.348 . S
C302 C304 1.356 . S
C302 O327 1.325 . S
C303 C302 1.348 . S
C303 C305 1.353 . S
C303 H344 0.929 . S
C304 C302 1.356 . S
C304 C306 1.358 . S
C304 H345 0.930 . S
C305 C303 1.353 . S
C305 N307 1.314 . S
C305 H346 0.930 . S
C306 C304 1.358 . S
C306 N307 1.279 . S
C306 H347 0.930 . S
N307 C305 1.314 . S
N307 C306 1.279 . S
C308 C310 1.353 . S
C308 N311 1.314 . S
C308 H314 0.930 . S
C309 N311 1.279 . S
C309 C312 1.358 . S
C309 H315 0.930 . S
C310 C308 1.353 . S
C310 C313 1.348 . S
C310 H348 0.929 . S
N311 Li266 1.990 . S
N311 C308 1.314 . S
N311 C309 1.279 . S
C312 C309 1.358 . S
C312 C313 1.356 . S
C312 H349 0.930 . S
C313 C310 1.348 . S
C313 C312 1.356 . S
H314 C308 0.930 . S
H315 C309 0.930 . S
C316 N317 1.314 . S
C316 C318 1.353 . S
C316 H322 0.930 . S
N317 Li267 1.990 . S
N317 C316 1.314 . S
N317 C320 1.279 . S
C318 C316 1.353 . S
C318 C321 1.348 . S
C318 H350 0.929 . S
C319 C320 1.358 . S
C319 C321 1.356 . S
C319 H351 0.930 . S
C320 N317 1.279 . S
C320 C319 1.358 . S
C320 H323 0.930 . S
C321 C318 1.348 . S
C321 C319 1.356 . S
H322 C316 0.930 . S
H323 C320 0.930 . S
O324 Li264 1.956 . S
O324 Li265 1.970 . S
O324 Li266 1.961 . S
O324 C268 1.325 . S
O325 Li264 1.970 . S
O325 Li265 1.956 . S
O325 Li267 1.961 . S
O325 C274 1.325 . S
O326 Li264 1.961 . S
O326 Li266 1.956 . S
O326 Li267 1.970 . S
O326 C296 1.325 . S
O327 Li265 1.961 . S
O327 Li266 1.970 . S
O327 Li267 1.956 . S
O327 C302 1.325 . S
H328 C270 0.929 . S
H329 C271 0.930 . S
H330 C272 0.930 . S
H331 C273 0.930 . S
H332 C275 0.930 . S
H333 C277 0.929 . S
H334 C278 0.930 . S
H335 C279 0.930 . S
H336 C282 0.930 . S
H337 C285 0.929 . S
H338 C290 0.929 . S
H339 C291 0.930 . S
H340 C298 0.929 . S
H341 C299 0.930 . S
H342 C300 0.930 . S
H343 C301 0.930 . S
H344 C303 0.929 . S
H345 C304 0.930 . S
H346 C305 0.930 . S
H347 C306 0.930 . S
H348 C310 0.929 . S
H349 C312 0.930 . S
H350 C318 0.929 . S
H351 C319 0.930 . S
Li352 N369 1.990 . S
Li352 O412 1.956 . S
Li352 O413 1.970 . S
Li352 O414 1.961 . S
Li353 N377 1.990 . S
Li353 O412 1.970 . S
Li353 O413 1.956 . S
Li353 O415 1.961 . S
Li354 N399 1.990 . S
Li354 O412 1.961 . S
Li354 O414 1.956 . S
Li354 O415 1.970 . S
Li355 N405 1.990 . S
Li355 O413 1.961 . S
Li355 O414 1.970 . S
Li355 O415 1.956 . S
C356 C358 1.348 . S
C356 C359 1.356 . S
C356 O412 1.325 . S
N357 C360 1.314 . S
N357 C361 1.279 . S
C358 C356 1.348 . S
C358 C360 1.353 . S
C358 H416 0.929 . S
C359 C356 1.356 . S
C359 C361 1.358 . S
C359 H417 0.930 . S
C360 N357 1.314 . S
C360 C358 1.353 . S
C360 H418 0.930 . S
C361 N357 1.279 . S
C361 C359 1.358 . S
C361 H419 0.930 . S
C362 C365 1.348 . S
C362 C366 1.356 . S
C362 O413 1.325 . S
C363 N364 1.279 . S
C363 C366 1.358 . S
C363 H420 0.930 . S
N364 C363 1.279 . S
N364 C367 1.314 . S
C365 C362 1.348 . S
C365 C367 1.353 . S
C365 H421 0.929 . S
C366 C362 1.356 . S
C366 C363 1.358 . S
C366 H422 0.930 . S
C367 N364 1.314 . S
C367 C365 1.353 . S
C367 H423 0.930 . S
C368 N369 1.314 . S
C368 C373 1.353 . S
C368 H374 0.930 . S
N369 Li352 1.990 . S
N369 C368 1.314 . S
N369 C371 1.279 . S
C370 C371 1.358 . S
C370 C372 1.356 . S
C370 H424 0.930 . S
C371 N369 1.279 . S
C371 C370 1.358 . S
C371 H375 0.930 . S
C372 C370 1.356 . S
C372 C373 1.348 . S
C373 C368 1.353 . S
C373 C372 1.348 . S
C373 H425 0.929 . S
H374 C368 0.930 . S
H375 C371 0.930 . S
C376 N377 1.314 . S
C376 C378 1.353 . S
C376 H382 0.930 . S
N377 Li353 1.990 . S
N377 C376 1.314 . S
N377 C380 1.279 . S
C378 C376 1.353 . S
C378 C381 1.348 . S
C378 H426 0.929 . S
C379 C380 1.358 . S
C379 C381 1.356 . S
C379 H427 0.930 . S
C380 N377 1.279 . S
C380 C379 1.358 . S
C380 H383 0.930 . S
C381 C378 1.348 . S
C381 C379 1.356 . S
H382 C376 0.930 . S
H383 C380 0.930 . S
C384 C386 1.348 . S
C384 C387 1.356 . S
C384 O414 1.325 . S
N385 C388 1.314 . S
N385 C389 1.279 . S
C386 C384 1.348 . S
C386 C388 1.353 . S
C386 H428 0.929 . S
C387 C384 1.356 . S
C387 C389 1.358 . S
C387 H429 0.930 . S
C388 N385 1.314 . S
C388 C386 1.353 . S
C388 H430 0.930 . S
C389 N385 1.279 . S
C389 C387 1.358 . S
C389 H431 0.930 . S
C390 C391 1.348 . S
C390 C392 1.356 . S
C390 O415 1.325 . S
C391 C390 1.348 . S
C391 C393 1.353 . S
C391 H432 0.929 . S
C392 C390 1.356 . S
C392 C394 1.358 . S
C392 H433 0.930 . S
C393 C391 1.353 . S
C393 N395 1.314 . S
C393 H434 0.930 . S
C394 C392 1.358 . S
C394 N395 1.279 . S
C394 H435 0.930 . S
N395 C393 1.314 . S
N395 C394 1.279 . S
C396 C398 1.353 . S
C396 N399 1.314 . S
C396 H402 0.930 . S
C397 N399 1.279 . S
C397 C400 1.358 . S
C397 H403 0.930 . S
C398 C396 1.353 . S
C398 C401 1.348 . S
C398 H436 0.929 . S
N399 Li354 1.990 . S
N399 C396 1.314 . S
N399 C397 1.279 . S
C400 C397 1.358 . S
C400 C401 1.356 . S
C400 H437 0.930 . S
C401 C398 1.348 . S
C401 C400 1.356 . S
H402 C396 0.930 . S
H403 C397 0.930 . S
C404 N405 1.314 . S
C404 C406 1.353 . S
C404 H410 0.930 . S
N405 Li355 1.990 . S
N405 C404 1.314 . S
N405 C408 1.279 . S
C406 C404 1.353 . S
C406 C409 1.348 . S
C406 H438 0.929 . S
C407 C408 1.358 . S
C407 C409 1.356 . S
C407 H439 0.930 . S
C408 N405 1.279 . S
C408 C407 1.358 . S
C408 H411 0.930 . S
C409 C406 1.348 . S
C409 C407 1.356 . S
H410 C404 0.930 . S
H411 C408 0.930 . S
O412 Li352 1.956 . S
O412 Li353 1.970 . S
O412 Li354 1.961 . S
O412 C356 1.325 . S
O413 Li352 1.970 . S
O413 Li353 1.956 . S
O413 Li355 1.961 . S
O413 C362 1.325 . S
O414 Li352 1.961 . S
O414 Li354 1.956 . S
O414 Li355 1.970 . S
O414 C384 1.325 . S
O415 Li353 1.961 . S
O415 Li354 1.970 . S
O415 Li355 1.956 . S
O415 C390 1.325 . S
H416 C358 0.929 . S
H417 C359 0.930 . S
H418 C360 0.930 . S
H419 C361 0.930 . S
H420 C363 0.930 . S
H421 C365 0.929 . S
H422 C366 0.930 . S
H423 C367 0.930 . S
H424 C370 0.930 . S
H425 C373 0.929 . S
H426 C378 0.929 . S
H427 C379 0.930 . S
H428 C386 0.929 . S
H429 C387 0.930 . S
H430 C388 0.930 . S
H431 C389 0.930 . S
H432 C391 0.929 . S
H433 C392 0.930 . S
H434 C393 0.930 . S
H435 C394 0.930 . S
H436 C398 0.929 . S
H437 C400 0.930 . S
H438 C406 0.929 . S
H439 C407 0.930 . S
Li440 N457 1.990 . S
Li440 O500 1.956 . S
Li440 O501 1.970 . S
Li440 O502 1.961 . S
Li441 N465 1.990 . S
Li441 O500 1.970 . S
Li441 O501 1.956 . S
Li441 O503 1.961 . S
Li442 N487 1.990 . S
Li442 O500 1.961 . S
Li442 O502 1.956 . S
Li442 O503 1.970 . S
Li443 N493 1.990 . S
Li443 O501 1.961 . S
Li443 O502 1.970 . S
Li443 O503 1.956 . S
C444 C446 1.348 . S
C444 C447 1.356 . S
C444 O500 1.325 . S
N445 C448 1.314 . S
N445 C449 1.279 . S
C446 C444 1.348 . S
C446 C448 1.353 . S
C446 H504 0.929 . S
C447 C444 1.356 . S
C447 C449 1.358 . S
C447 H505 0.930 . S
C448 N445 1.314 . S
C448 C446 1.353 . S
C448 H506 0.930 . S
C449 N445 1.279 . S
C449 C447 1.358 . S
C449 H507 0.930 . S
C450 C453 1.348 . S
C450 C454 1.356 . S
C450 O501 1.325 . S
C451 N452 1.279 . S
C451 C454 1.358 . S
C451 H508 0.930 . S
N452 C451 1.279 . S
N452 C455 1.314 . S
C453 C450 1.348 . S
C453 C455 1.353 . S
C453 H509 0.929 . S
C454 C450 1.356 . S
C454 C451 1.358 . S
C454 H510 0.930 . S
C455 N452 1.314 . S
C455 C453 1.353 . S
C455 H511 0.930 . S
C456 N457 1.314 . S
C456 C461 1.353 . S
C456 H462 0.930 . S
N457 Li440 1.990 . S
N457 C456 1.314 . S
N457 C459 1.279 . S
C458 C459 1.358 . S
C458 C460 1.356 . S
C458 H512 0.930 . S
C459 N457 1.279 . S
C459 C458 1.358 . S
C459 H463 0.930 . S
C460 C458 1.356 . S
C460 C461 1.348 . S
C461 C456 1.353 . S
C461 C460 1.348 . S
C461 H513 0.929 . S
H462 C456 0.930 . S
H463 C459 0.930 . S
C464 N465 1.314 . S
C464 C466 1.353 . S
C464 H470 0.930 . S
N465 Li441 1.990 . S
N465 C464 1.314 . S
N465 C468 1.279 . S
C466 C464 1.353 . S
C466 C469 1.348 . S
C466 H514 0.929 . S
C467 C468 1.358 . S
C467 C469 1.356 . S
C467 H515 0.930 . S
C468 N465 1.279 . S
C468 C467 1.358 . S
C468 H471 0.930 . S
C469 C466 1.348 . S
C469 C467 1.356 . S
H470 C464 0.930 . S
H471 C468 0.930 . S
C472 C474 1.348 . S
C472 C475 1.356 . S
C472 O502 1.325 . S
N473 C476 1.314 . S
N473 C477 1.279 . S
C474 C472 1.348 . S
C474 C476 1.353 . S
C474 H516 0.929 . S
C475 C472 1.356 . S
C475 C477 1.358 . S
C475 H517 0.930 . S
C476 N473 1.314 . S
C476 C474 1.353 . S
C476 H518 0.930 . S
C477 N473 1.279 . S
C477 C475 1.358 . S
C477 H519 0.930 . S
C478 C479 1.348 . S
C478 C480 1.356 . S
C478 O503 1.325 . S
C479 C478 1.348 . S
C479 C481 1.353 . S
C479 H520 0.929 . S
C480 C478 1.356 . S
C480 C482 1.358 . S
C480 H521 0.930 . S
C481 C479 1.353 . S
C481 N483 1.314 . S
C481 H522 0.930 . S
C482 C480 1.358 . S
C482 N483 1.279 . S
C482 H523 0.930 . S
N483 C481 1.314 . S
N483 C482 1.279 . S
C484 C486 1.353 . S
C484 N487 1.314 . S
C484 H490 0.930 . S
C485 N487 1.279 . S
C485 C488 1.358 . S
C485 H491 0.930 . S
C486 C484 1.353 . S
C486 C489 1.348 . S
C486 H524 0.929 . S
N487 Li442 1.990 . S
N487 C484 1.314 . S
N487 C485 1.279 . S
C488 C485 1.358 . S
C488 C489 1.356 . S
C488 H525 0.930 . S
C489 C486 1.348 . S
C489 C488 1.356 . S
H490 C484 0.930 . S
H491 C485 0.930 . S
C492 N493 1.314 . S
C492 C494 1.353 . S
C492 H498 0.930 . S
N493 Li443 1.990 . S
N493 C492 1.314 . S
N493 C496 1.279 . S
C494 C492 1.353 . S
C494 C497 1.348 . S
C494 H526 0.929 . S
C495 C496 1.358 . S
C495 C497 1.356 . S
C495 H527 0.930 . S
C496 N493 1.279 . S
C496 C495 1.358 . S
C496 H499 0.930 . S
C497 C494 1.348 . S
C497 C495 1.356 . S
H498 C492 0.930 . S
H499 C496 0.930 . S
O500 Li440 1.956 . S
O500 Li441 1.970 . S
O500 Li442 1.961 . S
O500 C444 1.325 . S
O501 Li440 1.970 . S
O501 Li441 1.956 . S
O501 Li443 1.961 . S
O501 C450 1.325 . S
O502 Li440 1.961 . S
O502 Li442 1.956 . S
O502 Li443 1.970 . S
O502 C472 1.325 . S
O503 Li441 1.961 . S
O503 Li442 1.970 . S
O503 Li443 1.956 . S
O503 C478 1.325 . S
H504 C446 0.929 . S
H505 C447 0.930 . S
H506 C448 0.930 . S
H507 C449 0.930 . S
H508 C451 0.930 . S
H509 C453 0.929 . S
H510 C454 0.930 . S
H511 C455 0.930 . S
H512 C458 0.930 . S
H513 C461 0.929 . S
H514 C466 0.929 . S
H515 C467 0.930 . S
H516 C474 0.929 . S
H517 C475 0.930 . S
H518 C476 0.930 . S
H519 C477 0.930 . S
H520 C479 0.929 . S
H521 C480 0.930 . S
H522 C481 0.930 . S
H523 C482 0.930 . S
H524 C486 0.929 . S
H525 C488 0.930 . S
H526 C494 0.929 . S
H527 C495 0.930 . S
H528 C534 0.930 . S
H529 C537 0.930 . S
H530 C538 0.930 . S
H531 C539 0.930 . S
H532 C542 0.930 . S
H533 C543 0.930 . S
C534 H528 0.930 . S
C534 C535 1.355 . S
C534 C536 1.415 . S
C535 C534 1.355 . S
C535 C537 1.419 . S
C536 C534 1.415 . S
C536 C541 1.425 . S
C536 C543 1.409 . S
C537 H529 0.930 . S
C537 C535 1.419 . S
C537 C538 1.362 . S
C538 H530 0.930 . S
C538 C537 1.362 . S
C538 C541 1.409 . S
C539 H531 0.930 . S
C539 C540 1.355 . S
C539 C541 1.415 . S
C540 C539 1.355 . S
C540 C542 1.419 . S
C541 C536 1.425 . S
C541 C538 1.409 . S
C541 C539 1.415 . S
C542 H532 0.930 . S
C542 C540 1.419 . S
C542 C543 1.362 . S
C543 H533 0.930 . S
C543 C536 1.409 . S
C543 C542 1.362 . S
H544 C550 0.930 . S
H545 C553 0.930 . S
H546 C554 0.930 . S
H547 C555 0.930 . S
H548 C558 0.930 . S
H549 C559 0.930 . S
C550 H544 0.930 . S
C550 C551 1.355 . S
C550 C552 1.415 . S
C551 C550 1.355 . S
C551 C553 1.419 . S
C552 C550 1.415 . S
C552 C557 1.425 . S
C552 C559 1.409 . S
C553 H545 0.930 . S
C553 C551 1.419 . S
C553 C554 1.362 . S
C554 H546 0.930 . S
C554 C553 1.362 . S
C554 C557 1.409 . S
C555 H547 0.930 . S
C555 C556 1.355 . S
C555 C557 1.415 . S
C556 C555 1.355 . S
C556 C558 1.419 . S
C557 C552 1.425 . S
C557 C554 1.409 . S
C557 C555 1.415 . S
C558 H548 0.930 . S
C558 C556 1.419 . S
C558 C559 1.362 . S
C559 H549 0.930 . S
C559 C552 1.409 . S
C559 C558 1.362 . S
H560 C566 0.930 . S
H561 C569 0.930 . S
H562 C570 0.930 . S
H563 C571 0.930 . S
H564 C574 0.930 . S
H565 C575 0.930 . S
C566 H560 0.930 . S
C566 C567 1.355 . S
C566 C568 1.415 . S
C567 C566 1.355 . S
C567 C569 1.419 . S
C568 C566 1.415 . S
C568 C573 1.425 . S
C568 C575 1.409 . S
C569 H561 0.930 . S
C569 C567 1.419 . S
C569 C570 1.362 . S
C570 H562 0.930 . S
C570 C569 1.362 . S
C570 C573 1.409 . S
C571 H563 0.930 . S
C571 C572 1.355 . S
C571 C573 1.415 . S
C572 C571 1.355 . S
C572 C574 1.419 . S
C573 C568 1.425 . S
C573 C570 1.409 . S
C573 C571 1.415 . S
C574 H564 0.930 . S
C574 C572 1.419 . S
C574 C575 1.362 . S
C575 H565 0.930 . S
C575 C568 1.409 . S
C575 C574 1.362 . S
H576 C582 0.930 . S
H577 C585 0.930 . S
H578 C586 0.930 . S
H579 C587 0.930 . S
H580 C590 0.930 . S
H581 C591 0.930 . S
C582 H576 0.930 . S
C582 C583 1.355 . S
C582 C584 1.415 . S
C583 C582 1.355 . S
C583 C585 1.419 . S
C584 C582 1.415 . S
C584 C589 1.425 . S
C584 C591 1.409 . S
C585 H577 0.930 . S
C585 C583 1.419 . S
C585 C586 1.362 . S
C586 H578 0.930 . S
C586 C585 1.362 . S
C586 C589 1.409 . S
C587 H579 0.930 . S
C587 C588 1.355 . S
C587 C589 1.415 . S
C588 C587 1.355 . S
C588 C590 1.419 . S
C589 C584 1.425 . S
C589 C586 1.409 . S
C589 C587 1.415 . S
C590 H580 0.930 . S
C590 C588 1.419 . S
C590 C591 1.362 . S
C591 H581 0.930 . S
C591 C584 1.409 . S
C591 C590 1.362 . S
H592 C598 0.930 . S
H593 C601 0.930 . S
H594 C602 0.930 . S
H595 C603 0.930 . S
H596 C606 0.930 . S
H597 C607 0.930 . S
C598 H592 0.930 . S
C598 C599 1.355 . S
C598 C600 1.415 . S
C599 C598 1.355 . S
C599 C601 1.419 . S
C600 C598 1.415 . S
C600 C605 1.425 . S
C600 C607 1.409 . S
C601 H593 0.930 . S
C601 C599 1.419 . S
C601 C602 1.362 . S
C602 H594 0.930 . S
C602 C601 1.362 . S
C602 C605 1.409 . S
C603 H595 0.930 . S
C603 C604 1.355 . S
C603 C605 1.415 . S
C604 C603 1.355 . S
C604 C606 1.419 . S
C605 C600 1.425 . S
C605 C602 1.409 . S
C605 C603 1.415 . S
C606 H596 0.930 . S
C606 C604 1.419 . S
C606 C607 1.362 . S
C607 H597 0.930 . S
C607 C600 1.409 . S
C607 C606 1.362 . S
H608 C614 0.930 . S
H609 C617 0.930 . S
H610 C618 0.930 . S
H611 C619 0.930 . S
H612 C622 0.930 . S
H613 C623 0.930 . S
C614 H608 0.930 . S
C614 C615 1.355 . S
C614 C616 1.415 . S
C615 C614 1.355 . S
C615 C617 1.419 . S
C616 C614 1.415 . S
C616 C621 1.425 . S
C616 C623 1.409 . S
C617 H609 0.930 . S
C617 C615 1.419 . S
C617 C618 1.362 . S
C618 H610 0.930 . S
C618 C617 1.362 . S
C618 C621 1.409 . S
C619 H611 0.930 . S
C619 C620 1.355 . S
C619 C621 1.415 . S
C620 C619 1.355 . S
C620 C622 1.419 . S
C621 C616 1.425 . S
C621 C618 1.409 . S
C621 C619 1.415 . S
C622 H612 0.930 . S
C622 C620 1.419 . S
C622 C623 1.362 . S
C623 H613 0.930 . S
C623 C616 1.409 . S
C623 C622 1.362 . S
H624 C630 0.930 1_545 S
H625 C633 0.930 . S
H626 C634 0.930 1_554 S
H627 C635 0.930 1_565 S
H628 C638 0.930 . S
H629 C639 0.930 1_556 S
C630 H624 0.930 1_565 S
C630 C631 1.355 . S
C630 C632 1.415 1_565 S
C631 C630 1.355 . S
C631 C633 1.419 . S
C632 C630 1.415 1_545 S
C632 C637 1.425 1_546 S
C632 C639 1.409 1_556 S
C633 H625 0.930 . S
C633 C631 1.419 . S
C633 C634 1.362 . S
C634 H626 0.930 1_556 S
C634 C633 1.362 . S
C634 C637 1.409 1_556 S
C635 H627 0.930 1_545 S
C635 C636 1.355 . S
C635 C637 1.415 1_545 S
C636 C635 1.355 . S
C636 C638 1.419 . S
C637 C632 1.425 1_564 S
C637 C634 1.409 1_554 S
C637 C635 1.415 1_565 S
C638 H628 0.930 . S
C638 C636 1.419 . S
C638 C639 1.362 . S
C639 H629 0.930 1_554 S
C639 C632 1.409 1_554 S
C639 C638 1.362 . S
H640 C646 0.930 . S
H641 C649 0.930 . S
H642 C650 0.930 . S
H643 C651 0.930 . S
H644 C654 0.930 . S
H645 C655 0.930 . S
C646 H640 0.930 . S
C646 C647 1.355 . S
C646 C648 1.415 . S
C647 C646 1.355 . S
C647 C649 1.419 . S
C648 C646 1.415 . S
C648 C653 1.425 . S
C648 C655 1.409 . S
C649 H641 0.930 . S
C649 C647 1.419 . S
C649 C650 1.362 . S
C650 H642 0.930 . S
C650 C649 1.362 . S
C650 C653 1.409 . S
C651 H643 0.930 . S
C651 C652 1.355 . S
C651 C653 1.415 . S
C652 C651 1.355 . S
C652 C654 1.419 . S
C653 C648 1.425 . S
C653 C650 1.409 . S
C653 C651 1.415 . S
C654 H644 0.930 . S
C654 C652 1.419 . S
C654 C655 1.362 . S
C655 H645 0.930 . S
C655 C648 1.409 . S
C655 C654 1.362 . S
H656 C662 0.930 . S
H657 C665 0.930 . S
H658 C666 0.923 1_554 S
H659 C667 0.930 . S
H660 C670 0.930 . S
H661 C671 0.930 . S
C662 H656 0.930 . S
C662 C663 1.355 1_655 S
C662 C664 1.415 . S
C663 C662 1.355 1_455 S
C663 C665 1.419 . S
C664 C662 1.415 . S
C664 C669 1.425 1_656 S
C664 C671 1.409 . S
C665 H657 0.930 . S
C665 C663 1.419 . S
C665 C666 1.373 . S
C666 H658 0.923 1_556 S
C666 C665 1.373 . S
C666 C669 1.406 1_556 S
C667 H659 0.930 . S
C667 C668 1.355 1_455 S
C667 C669 1.415 . S
C668 C667 1.355 1_655 S
C668 C670 1.419 . S
C669 C664 1.425 1_454 S
C669 C666 1.406 1_554 S
C669 C667 1.415 . S
C670 H660 0.930 . S
C670 C668 1.419 . S
C670 C671 1.362 1_554 S
C671 H661 0.930 . S
C671 C664 1.409 . S
C671 C670 1.362 1_556 S
H672 C678 0.930 . S
H673 C681 0.930 . S
H674 C682 0.930 . S
H675 C683 0.930 . S
H676 C686 0.930 . S
H677 C687 0.930 . S
C678 H672 0.930 . S
C678 C679 1.355 1_565 S
C678 C680 1.415 . S
C679 C678 1.355 1_545 S
C679 C681 1.419 . S
C680 C678 1.415 . S
C680 C685 1.425 1_565 S
C680 C687 1.409 . S
C681 H673 0.930 . S
C681 C679 1.419 . S
C681 C682 1.362 . S
C682 H674 0.930 . S
C682 C681 1.362 . S
C682 C685 1.409 . S
C683 H675 0.930 . S
C683 C684 1.355 1_545 S
C683 C685 1.415 . S
C684 C683 1.355 1_565 S
C684 C686 1.419 . S
C685 C680 1.425 1_545 S
C685 C682 1.409 . S
C685 C683 1.415 . S
C686 H676 0.930 . S
C686 C684 1.419 . S
C686 C687 1.362 . S
C687 H677 0.930 . S
C687 C680 1.409 . S
C687 C686 1.362 . S
H688 C694 0.930 . S
H689 C697 0.930 . S
H690 C698 0.930 . S
H691 C699 0.930 . S
H692 C702 0.930 . S
H693 C703 0.930 . S
C694 H688 0.930 . S
C694 C695 1.355 . S
C694 C696 1.415 1_556 S
C695 C694 1.355 . S
C695 C697 1.419 . S
C696 C694 1.415 1_554 S
C696 C701 1.425 . S
C696 C703 1.409 . S
C697 H689 0.930 . S
C697 C695 1.419 . S
C697 C698 1.362 . S
C698 H690 0.930 . S
C698 C697 1.362 . S
C698 C701 1.409 1_556 S
C699 H691 0.930 . S
C699 C700 1.355 . S
C699 C701 1.415 . S
C700 C699 1.355 . S
C700 C702 1.419 . S
C701 C696 1.425 . S
C701 C698 1.409 1_554 S
C701 C699 1.415 . S
C702 H692 0.930 . S
C702 C700 1.419 . S
C702 C703 1.362 . S
C703 H693 0.930 . S
C703 C696 1.409 . S
C703 C702 1.362 . S
H704 C710 0.930 . S
H705 C713 0.930 . S
H706 C714 0.930 . S
H707 C715 0.930 . S
H708 C718 0.930 . S
H709 C719 0.930 . S
C710 H704 0.930 . S
C710 C711 1.355 . S
C710 C712 1.415 1_455 S
C711 C710 1.355 . S
C711 C713 1.419 . S
C712 C710 1.415 1_655 S
C712 C717 1.417 1_655 S
C712 C719 1.407 . S
C713 H705 0.930 . S
C713 C711 1.419 . S
C713 C714 1.362 . S
C714 H706 0.930 . S
C714 C713 1.362 . S
C714 C717 1.423 . S
C715 H707 0.930 . S
C715 C716 1.355 . S
C715 C717 1.410 1_655 S
C716 C715 1.355 . S
C716 C718 1.419 . S
C717 C712 1.417 1_455 S
C717 C714 1.423 . S
C717 C715 1.410 1_455 S
C718 H708 0.930 . S
C718 C716 1.419 . S
C718 C719 1.362 . S
C719 H709 0.930 . S
C719 C712 1.407 . S
C719 C718 1.362 . S
C535 C20 0.918 . S
C540 C381 1.005 . S
C551 C137 0.936 . S
C556 C469 0.993 . S
C567 C29 0.969 . S
C572 C233 0.958 . S
C583 C313 0.926 . S
C588 C117 0.998 . S
C599 C401 0.945 . S
C604 C196 0.984 . S
C615 C321 0.998 . S
C620 C489 0.928 . S
C631 C293 1.269 . S
C636 C49 1.273 . S
C647 C372 1.289 . S
C652 C145 1.285 . S
C663 C460 1.273 . S
C668 C225 1.275 . S
C679 C57 1.275 . S
C684 C284 1.271 . S
C695 C108 1.305 . S
C700 C409 1.302 . S
C711 C497 1.292 . S
C716 C205 1.296 . S
