# Generated by pormake.
# Topology uol, (4)-cn, num edge types: 1
# Building blocks:
#     Node 0, Type 0, BuildingBlock: CEKHIL_clean_sbu_0, # of connection points: 4
#     Node 1, Type 0, BuildingBlock: CEKHIL_clean_sbu_0, # of connection points: 4
#     Node 2, Type 0, BuildingBlock: CEKHIL_clean_sbu_0, # of connection points: 4
#     Node 3, Type 0, BuildingBlock: CEKHIL_clean_sbu_0, # of connection points: 4
#     Node 4, Type 0, BuildingBlock: CEKHIL_clean_sbu_0, # of connection points: 4
#     Node 5, Type 0, BuildingBlock: CEKHIL_clean_sbu_0, # of connection points: 4
#     Node 6, Type 0, BuildingBlock: CEKHIL_clean_sbu_0, # of connection points: 4
#     Node 7, Type 0, BuildingBlock: CEKHIL_clean_sbu_0, # of connection points: 4
#     Node 8, Type 0, BuildingBlock: CEKHIL_clean_sbu_0, # of connection points: 4
#     Node 9, Type 0, BuildingBlock: CEKHIL_clean_sbu_0, # of connection points: 4
#     Node 10, Type 0, BuildingBlock: CEKHIL_clean_sbu_0, # of connection points: 4
#     Node 11, Type 0, BuildingBlock: CEKHIL_clean_sbu_0, # of connection points: 4
#     Edge 12, Type (0, 0), BuildingBlock: TEMPAE_clean_linker_10, # of connection points: 2
#     Edge 13, Type (0, 0), BuildingBlock: TEMPAE_clean_linker_10, # of connection points: 2
#     Edge 14, Type (0, 0), BuildingBlock: TEMPAE_clean_linker_10, # of connection points: 2
#     Edge 15, Type (0, 0), BuildingBlock: TEMPAE_clean_linker_10, # of connection points: 2
#     Edge 16, Type (0, 0), BuildingBlock: TEMPAE_clean_linker_10, # of connection points: 2
#     Edge 17, Type (0, 0), BuildingBlock: TEMPAE_clean_linker_10, # of connection points: 2
#     Edge 18, Type (0, 0), BuildingBlock: TEMPAE_clean_linker_10, # of connection points: 2
#     Edge 19, Type (0, 0), BuildingBlock: TEMPAE_clean_linker_10, # of connection points: 2
#     Edge 20, Type (0, 0), BuildingBlock: TEMPAE_clean_linker_10, # of connection points: 2
#     Edge 21, Type (0, 0), BuildingBlock: TEMPAE_clean_linker_10, # of connection points: 2
#     Edge 22, Type (0, 0), BuildingBlock: TEMPAE_clean_linker_10, # of connection points: 2
#     Edge 23, Type (0, 0), BuildingBlock: TEMPAE_clean_linker_10, # of connection points: 2
#     Edge 24, Type (0, 0), BuildingBlock: TEMPAE_clean_linker_10, # of connection points: 2
#     Edge 25, Type (0, 0), BuildingBlock: TEMPAE_clean_linker_10, # of connection points: 2
#     Edge 26, Type (0, 0), BuildingBlock: TEMPAE_clean_linker_10, # of connection points: 2
#     Edge 27, Type (0, 0), BuildingBlock: TEMPAE_clean_linker_10, # of connection points: 2
#     Edge 28, Type (0, 0), BuildingBlock: TEMPAE_clean_linker_10, # of connection points: 2
#     Edge 29, Type (0, 0), BuildingBlock: TEMPAE_clean_linker_10, # of connection points: 2
#     Edge 30, Type (0, 0), BuildingBlock: TEMPAE_clean_linker_10, # of connection points: 2
#     Edge 31, Type (0, 0), BuildingBlock: TEMPAE_clean_linker_10, # of connection points: 2
#     Edge 32, Type (0, 0), BuildingBlock: TEMPAE_clean_linker_10, # of connection points: 2
#     Edge 33, Type (0, 0), BuildingBlock: TEMPAE_clean_linker_10, # of connection points: 2
#     Edge 34, Type (0, 0), BuildingBlock: TEMPAE_clean_linker_10, # of connection points: 2
#     Edge 35, Type (0, 0), BuildingBlock: TEMPAE_clean_linker_10, # of connection points: 2
# Relax obj value: 0.131
# Max RMSD: 0.171
# Mean RMSD: 0.171
data_MOF--net-uol--node1-CEKHIL_clean_sbu_0--edge1-TEMPAE_clean_linker_10
_symmetry_space_group_name_H-M    P1
_symmetry_Int_Tables_number       1
_symmetry_cell_setting            triclinic
loop_
_symmetry_equiv_pos_as_xyz
'x, y, z'
_cell_length_a     33.001387
_cell_length_b     33.03163
_cell_length_c     65.620618
_cell_angle_alpha  90.00113
_cell_angle_beta   90.008009
_cell_angle_gamma 119.96679
loop_
_atom_site_label
_atom_site_type_symbol
_atom_site_fract_x
_atom_site_fract_y
_atom_site_fract_z
_atom_type_partial_charge
Co0 Co 0.16016 0.35777 0.08636 0.0
O1 O 0.13861 0.39461 0.07242 0.0
O2 O 0.18313 0.41732 0.10001 0.0
C3 C 0.18342 0.33589 0.05824 0.0
O4 O 0.19021 0.32992 0.10447 0.0
Co5 Co 0.11235 0.25136 0.07856 0.0
O6 O 0.16466 0.25559 0.09515 0.0
C7 C 0.06639 0.28771 0.10547 0.0
C8 C 0.16121 0.42674 0.08596 0.0
C9 C 0.19092 0.2914 0.10593 0.0
O10 O 0.10252 0.32886 0.10415 0.0
O11 O 0.06176 0.25282 0.09507 0.0
O12 O 0.21073 0.37603 0.06671 0.0
O13 O 0.14183 0.31228 0.06578 0.0
Co14 Co 0.80016 0.16122 0.25262 0.0
O15 O 0.73968 0.13181 0.2396 0.0
O16 O 0.75917 0.17824 0.26651 0.0
C17 C 0.84274 0.18675 0.22368 0.0
O18 O 0.85873 0.19887 0.27001 0.0
Co19 Co 0.87159 0.12778 0.24486 0.0
O20 O 0.91585 0.18589 0.2593 0.0
C21 C 0.79501 0.07728 0.27455 0.0
C22 C 0.72771 0.15273 0.25307 0.0
C23 C 0.90132 0.20738 0.27059 0.0
O24 O 0.77955 0.10554 0.27119 0.0
O25 O 0.83016 0.07942 0.26528 0.0
O26 O 0.82488 0.21014 0.23185 0.0
O27 O 0.83109 0.14708 0.23215 0.0
Co28 Co 0.64289 0.8005 0.41778 0.0
O29 O 0.60585 0.74179 0.4041 0.0
O30 O 0.5838 0.76395 0.43179 0.0
C31 C 0.6638 0.84526 0.38956 0.0
O32 O 0.67102 0.85857 0.43571 0.0
Co33 Co 0.7492 0.85937 0.40937 0.0
O34 O 0.74523 0.90732 0.42615 0.0
C35 C 0.71407 0.77821 0.43685 0.0
C36 C 0.57412 0.73234 0.41785 0.0
C37 C 0.70962 0.89775 0.43709 0.0
O38 O 0.67265 0.77255 0.43549 0.0
O39 O 0.74872 0.80837 0.4263 0.0
O40 O 0.62375 0.8322 0.3982 0.0
O41 O 0.68782 0.82756 0.39696 0.0
Co42 Co 0.83614 0.63857 0.58573 0.0
O43 O 0.8628 0.60503 0.57274 0.0
O44 O 0.81615 0.57998 0.59965 0.0
C45 C 0.81216 0.6573 0.55681 0.0
O46 O 0.80109 0.66266 0.60292 0.0
Co47 Co 0.87728 0.7445 0.57764 0.0
O48 O 0.82209 0.73585 0.59331 0.0
C49 C 0.92628 0.71364 0.60574 0.0
C50 C 0.84054 0.57244 0.58616 0.0
C51 C 0.79717 0.6995 0.60403 0.0
O52 O 0.89219 0.67132 0.6043 0.0
O53 O 0.92884 0.74728 0.59504 0.0
O54 O 0.78711 0.6164 0.56505 0.0
O55 O 0.85251 0.68367 0.56513 0.0
Co56 Co 0.19724 0.83843 0.75171 0.0
O57 O 0.25734 0.8656 0.73852 0.0
O58 O 0.23657 0.81884 0.76535 0.0
C59 C 0.15373 0.81453 0.723 0.0
O60 O 0.13844 0.80301 0.7691 0.0
Co61 Co 0.13176 0.87934 0.74417 0.0
O62 O 0.08584 0.82389 0.75985 0.0
C63 C 0.21223 0.92829 0.77193 0.0
C64 C 0.2683 0.84366 0.75187 0.0
C65 C 0.0976 0.79897 0.7704 0.0
O66 O 0.22049 0.89422 0.7704 0.0
O67 O 0.18095 0.93089 0.76137 0.0
O68 O 0.17023 0.78965 0.73088 0.0
O69 O 0.16772 0.85469 0.73145 0.0
Co70 Co 0.35439 0.19593 0.91878 0.0
O71 O 0.38665 0.25622 0.90569 0.0
O72 O 0.41306 0.23553 0.93242 0.0
C73 C 0.33571 0.15321 0.88988 0.0
O74 O 0.33237 0.1373 0.93617 0.0
Co75 Co 0.24878 0.12672 0.91141 0.0
O76 O 0.26127 0.08151 0.92586 0.0
C77 C 0.27753 0.2035 0.94126 0.0
C78 C 0.41976 0.26715 0.91895 0.0
C79 C 0.29748 0.09523 0.93695 0.0
O80 O 0.32097 0.21804 0.9376 0.0
O81 O 0.24377 0.16881 0.93211 0.0
O82 O 0.37703 0.17005 0.89785 0.0
O83 O 0.30858 0.16589 0.89848 0.0
Co84 Co 0.64191 0.84246 0.74554 0.0
O85 O 0.60881 0.87004 0.7583 0.0
O86 O 0.58394 0.8238 0.73128 0.0
C87 C 0.65923 0.81757 0.77461 0.0
O88 O 0.66502 0.80638 0.72841 0.0
Co89 Co 0.74723 0.87943 0.75411 0.0
O90 O 0.73674 0.82346 0.73871 0.0
C91 C 0.71977 0.92955 0.72479 0.0
C92 C 0.57647 0.84835 0.74469 0.0
C93 C 0.70068 0.80037 0.72758 0.0
O94 O 0.67632 0.89862 0.72711 0.0
O95 O 0.75282 0.92941 0.73498 0.0
O96 O 0.61833 0.79329 0.76622 0.0
O97 O 0.68651 0.85764 0.76631 0.0
Co98 Co 0.79695 0.6375 0.91156 0.0
O99 O 0.73689 0.60352 0.92463 0.0
O100 O 0.75826 0.57908 0.89746 0.0
C101 C 0.84033 0.65614 0.94032 0.0
O102 O 0.856 0.66237 0.89424 0.0
Co103 Co 0.86041 0.74354 0.92003 0.0
O104 O 0.90694 0.7361 0.90374 0.0
C105 C 0.78029 0.71218 0.89218 0.0
C106 C 0.72636 0.57132 0.911 0.0
C107 C 0.89621 0.69993 0.893 0.0
O108 O 0.77313 0.6702 0.89325 0.0
O109 O 0.81071 0.7458 0.9031 0.0
O110 O 0.82441 0.61531 0.93198 0.0
O111 O 0.82573 0.68226 0.93228 0.0
Co112 Co 0.15627 0.79803 0.07871 0.0
O113 O 0.1336 0.73864 0.09194 0.0
O114 O 0.17953 0.76204 0.06479 0.0
C115 C 0.17867 0.84136 0.10739 0.0
O116 O 0.18776 0.85688 0.06132 0.0
Co117 Co 0.10954 0.85759 0.08687 0.0
O118 O 0.1624 0.90587 0.07061 0.0
C119 C 0.06382 0.77708 0.059 0.0
C120 C 0.15695 0.72993 0.07845 0.0
C121 C 0.18891 0.89632 0.05999 0.0
O122 O 0.09947 0.77118 0.06037 0.0
O123 O 0.05926 0.80698 0.06971 0.0
O124 O 0.20595 0.82849 0.09889 0.0
O125 O 0.13747 0.82442 0.09949 0.0
Co126 Co 0.35289 0.15124 0.24673 0.0
O127 O 0.38597 0.12366 0.25954 0.0
O128 O 0.41079 0.16971 0.23246 0.0
C129 C 0.33571 0.17647 0.27573 0.0
O130 O 0.32978 0.18723 0.22951 0.0
Co131 Co 0.24765 0.11476 0.2552 0.0
O132 O 0.25888 0.17159 0.24036 0.0
C133 C 0.27493 0.06587 0.22519 0.0
C134 C 0.41824 0.14518 0.24588 0.0
C135 C 0.29458 0.19402 0.22897 0.0
O136 O 0.31851 0.0951 0.22833 0.0
O137 O 0.24158 0.06691 0.23468 0.0
O138 O 0.37659 0.20054 0.2673 0.0
O139 O 0.30827 0.13629 0.26751 0.0
Co140 Co 0.19888 0.35977 0.41205 0.0
O141 O 0.25919 0.39436 0.4249 0.0
O142 O 0.23644 0.41847 0.39804 0.0
C143 C 0.15639 0.34045 0.44105 0.0
O144 O 0.13942 0.33467 0.39504 0.0
Co145 Co 0.13589 0.25357 0.42032 0.0
O146 O 0.0889 0.26056 0.40416 0.0
C147 C 0.2161 0.28581 0.39241 0.0
C148 C 0.2687 0.42675 0.41147 0.0
C149 C 0.09936 0.29701 0.39368 0.0
O150 O 0.22284 0.32767 0.39342 0.0
O151 O 0.18602 0.25216 0.40342 0.0
O152 O 0.17154 0.38126 0.43281 0.0
O153 O 0.17102 0.31466 0.43269 0.0
Co154 Co 0.84141 0.1991 0.57894 0.0
O155 O 0.86521 0.2585 0.59232 0.0
O156 O 0.82049 0.23679 0.56478 0.0
C157 C 0.81677 0.15522 0.60736 0.0
O158 O 0.80951 0.14059 0.56129 0.0
Co159 Co 0.88591 0.13741 0.58761 0.0
O160 O 0.83301 0.09032 0.57101 0.0
C161 C 0.93374 0.21786 0.55985 0.0
C162 C 0.84329 0.26847 0.57858 0.0
C163 C 0.80763 0.10077 0.56004 0.0
O164 O 0.89871 0.22474 0.56106 0.0
O165 O 0.93726 0.18738 0.57059 0.0
O166 O 0.79087 0.16977 0.59885 0.0
O167 O 0.85807 0.17109 0.59977 0.0
C168 C 0.12849 0.64991 0.09239 0.0
C169 C 0.15831 0.68582 0.07912 0.0
C170 C 0.12975 0.60817 0.09372 0.0
C171 C 0.16194 0.60231 0.08161 0.0
C172 C 0.19227 0.63848 0.06821 0.0
C173 C 0.18992 0.67977 0.06704 0.0
C174 C 0.09638 0.57021 0.10798 0.0
C175 C 0.22721 0.63356 0.05515 0.0
C176 C 0.19032 0.50875 0.09817 0.0
C177 C 0.16182 0.47184 0.08506 0.0
C178 C 0.19126 0.55173 0.09704 0.0
C179 C 0.16275 0.55769 0.08258 0.0
C180 C 0.13389 0.52048 0.06935 0.0
C181 C 0.13391 0.47813 0.07071 0.0
C182 C 0.22263 0.59072 0.11134 0.0
C183 C 0.10263 0.52524 0.05388 0.0
H184 H 0.10387 0.65428 0.10174 0.0
H185 H 0.21321 0.7075 0.05684 0.0
H186 H 0.07377 0.53785 0.09924 0.0
H187 H 0.11624 0.56172 0.11917 0.0
H188 H 0.07366 0.58038 0.11643 0.0
H189 H 0.24908 0.66533 0.04589 0.0
H190 H 0.25053 0.6266 0.0649 0.0
H191 H 0.20868 0.6033 0.04472 0.0
H192 H 0.21208 0.50416 0.10923 0.0
H193 H 0.1117 0.44976 0.06053 0.0
H194 H 0.20127 0.60032 0.1211 0.0
H195 H 0.24685 0.62228 0.10248 0.0
H196 H 0.24359 0.58095 0.12132 0.0
H197 H 0.07747 0.53295 0.06173 0.0
H198 H 0.08261 0.49312 0.04458 0.0
H199 H 0.12384 0.55493 0.04349 0.0
C200 C 0.6711 0.17712 0.26517 0.0
C201 C 0.68101 0.14888 0.25258 0.0
C202 C 0.62776 0.17544 0.26408 0.0
C203 C 0.59336 0.14449 0.25017 0.0
C204 C 0.60286 0.11524 0.23769 0.0
C205 C 0.64662 0.11793 0.23899 0.0
C206 C 0.61904 0.20733 0.27758 0.0
C207 C 0.56695 0.08143 0.22283 0.0
C208 C 0.4675 0.11363 0.25988 0.0
C209 C 0.46218 0.14331 0.2462 0.0
C210 C 0.50972 0.11309 0.2611 0.0
C211 C 0.54772 0.14326 0.24847 0.0
C212 C 0.54236 0.17286 0.23444 0.0
C213 C 0.4996 0.17239 0.23342 0.0
C214 C 0.51386 0.08065 0.27609 0.0
C215 C 0.58211 0.20565 0.22077 0.0
H216 H 0.69753 0.20119 0.27568 0.0
H217 H 0.65396 0.09587 0.22924 0.0
H218 H 0.61203 0.23092 0.26805 0.0
H219 H 0.5876 0.18644 0.28713 0.0
H220 H 0.64916 0.22899 0.28774 0.0
H221 H 0.57923 0.06006 0.21468 0.0
H222 H 0.53402 0.0576 0.23097 0.0
H223 H 0.55853 0.10087 0.2114 0.0
H224 H 0.43869 0.09093 0.26976 0.0
H225 H 0.49579 0.19549 0.22285 0.0
H226 H 0.54144 0.1013 0.28747 0.0
H227 H 0.5245 0.05788 0.26806 0.0
H228 H 0.48055 0.05818 0.2843 0.0
H229 H 0.61232 0.23055 0.23016 0.0
H230 H 0.57208 0.22589 0.21047 0.0
H231 H 0.594 0.18566 0.21135 0.0
C232 C 0.52302 0.65269 0.40346 0.0
C233 C 0.52917 0.68765 0.41733 0.0
C234 C 0.48066 0.61025 0.40238 0.0
C235 C 0.44329 0.60265 0.41538 0.0
C236 C 0.44921 0.6378 0.42942 0.0
C237 C 0.49221 0.67986 0.43029 0.0
C238 C 0.47596 0.57348 0.38736 0.0
C239 C 0.41004 0.63101 0.44344 0.0
C240 C 0.32083 0.50903 0.39961 0.0
C241 C 0.31361 0.47147 0.41203 0.0
C242 C 0.36269 0.55213 0.40068 0.0
C243 C 0.39827 0.5576 0.41439 0.0
C244 C 0.39128 0.51966 0.42684 0.0
C245 C 0.34899 0.47714 0.42556 0.0
C246 C 0.36881 0.59186 0.38722 0.0
C247 C 0.42856 0.52391 0.44146 0.0
H248 H 0.55148 0.65836 0.39343 0.0
H249 H 0.49671 0.7068 0.441 0.0
H250 H 0.46735 0.54076 0.39555 0.0
H251 H 0.44681 0.56512 0.37664 0.0
H252 H 0.50843 0.58479 0.3784 0.0
H253 H 0.42003 0.66194 0.4533 0.0
H254 H 0.37887 0.62411 0.43436 0.0
H255 H 0.39967 0.6001 0.45332 0.0
H256 H 0.29354 0.50495 0.38919 0.0
H257 H 0.3437 0.44825 0.4352 0.0
H258 H 0.39941 0.60283 0.37706 0.0
H259 H 0.37591 0.62252 0.39671 0.0
H260 H 0.33749 0.58222 0.37766 0.0
H261 H 0.46111 0.533 0.43299 0.0
H262 H 0.41762 0.49112 0.4501 0.0
H263 H 0.43711 0.55255 0.45248 0.0
C264 C 0.81163 0.49015 0.59767 0.0
C265 C 0.84187 0.52833 0.58552 0.0
C266 C 0.81133 0.44753 0.59642 0.0
C267 C 0.84232 0.44319 0.58283 0.0
C268 C 0.87331 0.48183 0.57072 0.0
C269 C 0.87257 0.52383 0.57215 0.0
C270 C 0.77764 0.40703 0.60952 0.0
C271 C 0.90727 0.47879 0.55624 0.0
C272 C 0.87217 0.348 0.59323 0.0
C273 C 0.84369 0.31349 0.57912 0.0
C274 C 0.87221 0.39041 0.59452 0.0
C275 C 0.84281 0.39845 0.58147 0.0
C276 C 0.81412 0.36386 0.56712 0.0
C277 C 0.81503 0.32182 0.56606 0.0
C278 C 0.90367 0.42658 0.60988 0.0
C279 C 0.7822 0.37115 0.553 0.0
H280 H 0.7877 0.49334 0.60797 0.0
H281 H 0.89614 0.55324 0.56274 0.0
H282 H 0.7545 0.37676 0.59974 0.0
H283 H 0.79721 0.3958 0.61958 0.0
H284 H 0.75551 0.41593 0.61915 0.0
H285 H 0.92931 0.51213 0.548 0.0
H286 H 0.93051 0.46945 0.56474 0.0
H287 H 0.8879 0.45077 0.54487 0.0
H288 H 0.89454 0.3419 0.60335 0.0
H289 H 0.79286 0.29525 0.55516 0.0
H290 H 0.88238 0.43405 0.62068 0.0
H291 H 0.92771 0.45982 0.60201 0.0
H292 H 0.92489 0.41515 0.61872 0.0
H293 H 0.75725 0.37714 0.56203 0.0
H294 H 0.76201 0.34082 0.54274 0.0
H295 H 0.80297 0.40275 0.54353 0.0
C296 C 0.52701 0.87949 0.75883 0.0
C297 C 0.53242 0.85001 0.74507 0.0
C298 C 0.48474 0.8799 0.7601 0.0
C299 C 0.4468 0.84985 0.74742 0.0
C300 C 0.4522 0.82038 0.73333 0.0
C301 C 0.49502 0.82095 0.73227 0.0
C302 C 0.48055 0.91222 0.77515 0.0
C303 C 0.41252 0.78775 0.71958 0.0
C304 C 0.32356 0.81732 0.76385 0.0
C305 C 0.3144 0.84618 0.75131 0.0
C306 C 0.36655 0.81823 0.76278 0.0
C307 C 0.40133 0.84902 0.74896 0.0
C308 C 0.39251 0.87875 0.7365 0.0
C309 C 0.34911 0.87683 0.73776 0.0
C310 C 0.37457 0.78585 0.77627 0.0
C311 C 0.42882 0.91239 0.72172 0.0
H312 H 0.5558 0.90215 0.76874 0.0
H313 H 0.49889 0.79799 0.72164 0.0
H314 H 0.47044 0.9354 0.76711 0.0
H315 H 0.45258 0.89151 0.78636 0.0
H316 H 0.51369 0.93428 0.78355 0.0
H317 H 0.42247 0.76733 0.70936 0.0
H318 H 0.3821 0.76302 0.72892 0.0
H319 H 0.40098 0.80792 0.71009 0.0
H320 H 0.29687 0.79348 0.77432 0.0
H321 H 0.34237 0.89938 0.72806 0.0
H322 H 0.40584 0.80638 0.78597 0.0
H323 H 0.38155 0.76225 0.76674 0.0
H324 H 0.34414 0.76423 0.78628 0.0
H325 H 0.46164 0.93607 0.72996 0.0
H326 H 0.41691 0.93393 0.71346 0.0
H327 H 0.43729 0.89281 0.71038 0.0
C328 C 0.46836 0.34739 0.90442 0.0
C329 C 0.46377 0.31272 0.91812 0.0
C330 C 0.51048 0.39006 0.90283 0.0
C331 C 0.54907 0.39813 0.91512 0.0
C332 C 0.54457 0.36337 0.92906 0.0
C333 C 0.5019 0.32116 0.93045 0.0
C334 C 0.51373 0.42644 0.88795 0.0
C335 C 0.58498 0.37061 0.94238 0.0
C336 C 0.67157 0.49012 0.89849 0.0
C337 C 0.68049 0.52757 0.91136 0.0
C338 C 0.62882 0.44783 0.89946 0.0
C339 C 0.59411 0.44307 0.91352 0.0
C340 C 0.60265 0.48108 0.92627 0.0
C341 C 0.64576 0.52276 0.92509 0.0
C342 C 0.62105 0.40801 0.88566 0.0
C343 C 0.56639 0.47758 0.94131 0.0
H344 H 0.43901 0.34115 0.89486 0.0
H345 H 0.49867 0.29447 0.94101 0.0
H346 H 0.52338 0.45946 0.89612 0.0
H347 H 0.54165 0.43432 0.87662 0.0
H348 H 0.48034 0.41499 0.87969 0.0
H349 H 0.57586 0.34007 0.95236 0.0
H350 H 0.61525 0.37704 0.93274 0.0
H351 H 0.59635 0.40192 0.95211 0.0
H352 H 0.69827 0.49357 0.88788 0.0
H353 H 0.6523 0.55161 0.93503 0.0
H354 H 0.58935 0.397 0.87621 0.0
H355 H 0.61496 0.37741 0.89495 0.0
H356 H 0.65125 0.41751 0.87539 0.0
H357 H 0.53323 0.46807 0.93328 0.0
H358 H 0.57796 0.51077 0.94972 0.0
H359 H 0.55867 0.44948 0.95252 0.0
C360 C 0.3253 0.24178 0.19694 0.0
C361 C 0.29173 0.22354 0.21256 0.0
C362 C 0.31768 0.26122 0.17928 0.0
C363 C 0.27533 0.26193 0.17712 0.0
C364 C 0.2431 0.24691 0.19348 0.0
C365 C 0.25186 0.2283 0.21102 0.0
C366 C 0.3535 0.27807 0.1624 0.0
C367 C 0.19747 0.24702 0.19187 0.0
C368 C 0.24724 0.32386 0.13536 0.0
C369 C 0.21946 0.28647 0.12225 0.0
C370 C 0.26854 0.31731 0.15265 0.0
C371 C 0.26139 0.27224 0.15705 0.0
C372 C 0.23583 0.23513 0.14321 0.0
C373 C 0.2155 0.24277 0.12596 0.0
C374 C 0.29649 0.35801 0.16677 0.0
C375 C 0.22727 0.18644 0.14731 0.0
H376 H 0.35645 0.23875 0.198 0.0
H377 H 0.22591 0.21499 0.22306 0.0
H378 H 0.341 0.25165 0.15004 0.0
H379 H 0.35849 0.31115 0.15577 0.0
H380 H 0.38782 0.28369 0.16784 0.0
H381 H 0.17813 0.23806 0.20655 0.0
H382 H 0.2038 0.28176 0.18686 0.0
H383 H 0.17489 0.22116 0.18023 0.0
H384 H 0.25101 0.35792 0.13257 0.0
H385 H 0.19456 0.21366 0.11589 0.0
H386 H 0.32908 0.35883 0.17167 0.0
H387 H 0.27569 0.35407 0.18066 0.0
H388 H 0.3058 0.39194 0.15949 0.0
H389 H 0.26076 0.18738 0.15041 0.0
H390 H 0.20962 0.1623 0.13435 0.0
H391 H 0.205 0.17197 0.16106 0.0
C392 C 0.91587 0.25238 0.3033 0.0
C393 C 0.93298 0.23746 0.28707 0.0
C394 C 0.94252 0.27127 0.32112 0.0
C395 C 0.98696 0.27479 0.32278 0.0
C396 C 0.00599 0.26371 0.30577 0.0
C397 C 0.97896 0.24558 0.28811 0.0
C398 C 0.9216 0.28409 0.33868 0.0
C399 C 0.05328 0.267 0.30682 0.0
C400 C 0.07449 0.33258 0.36586 0.0
C401 C 0.06593 0.29358 0.37765 0.0
C402 C 0.04687 0.32775 0.34868 0.0
C403 C 0.01054 0.2828 0.34295 0.0
C404 C 6e-05 0.24384 0.35546 0.0
C405 C 0.02753 0.24979 0.37271 0.0
C406 C 0.05823 0.37036 0.33609 0.0
C407 C 0.9618 0.19516 0.34989 0.0
H408 H 0.88063 0.24681 0.30263 0.0
H409 H 0.99297 0.235 0.27557 0.0
H410 H 0.90829 0.25587 0.35026 0.0
H411 H 0.94839 0.31671 0.34615 0.0
H412 H 0.89204 0.28879 0.33367 0.0
H413 H 0.06499 0.26155 0.29171 0.0
H414 H 0.08001 0.30159 0.31276 0.0
H415 H 0.05153 0.24008 0.31748 0.0
H416 H 0.10371 0.36668 0.36963 0.0
H417 H 0.02027 0.21938 0.38171 0.0
H418 H 0.02578 0.36979 0.33118 0.0
H419 H 0.07733 0.37056 0.32215 0.0
H420 H 0.08048 0.40323 0.34461 0.0
H421 H 0.92836 0.19467 0.34732 0.0
H422 H 0.95621 0.16909 0.36187 0.0
H423 H 0.97101 0.18414 0.33546 0.0
C424 C 0.75915 0.08136 0.52815 0.0
C425 C 0.77938 0.06774 0.54358 0.0
C426 C 0.74001 0.05381 0.5106 0.0
C427 C 0.74139 0.01188 0.50841 0.0
C428 C 0.75865 0.99634 0.52457 0.0
C429 C 0.77721 0.02431 0.54196 0.0
C430 C 0.72108 0.07112 0.49388 0.0
C431 C 0.7606 0.95173 0.52292 0.0
C432 C 0.67826 0.92061 0.46724 0.0
C433 C 0.71491 0.93104 0.45353 0.0
C434 C 0.68542 0.9483 0.48463 0.0
C435 C 0.73036 0.98701 0.48849 0.0
C436 C 0.76665 -0.0007 0.47411 0.0
C437 C 0.75843 0.97138 0.45679 0.0
C438 C 0.64561 0.93463 0.4994 0.0
C439 C 0.81514 0.04034 0.47761 0.0
H440 H 0.76027 0.11464 0.52926 0.0
H441 H 0.79212 0.01303 0.55387 0.0
H442 H 0.74642 0.08468 0.48109 0.0
H443 H 0.68774 0.04219 0.48783 0.0
H444 H 0.71509 0.09961 0.49924 0.0
H445 H 0.77111 0.94244 0.53749 0.0
H446 H 0.72609 0.92227 0.51829 0.0
H447 H 0.78623 0.95579 0.511 0.0
H448 H 0.64436 0.88979 0.46483 0.0
H449 H 0.78695 0.98015 0.44627 0.0
H450 H 0.64367 0.96578 0.50427 0.0
H451 H 0.65169 0.91913 0.51324 0.0
H452 H 0.61142 0.90866 0.49271 0.0
H453 H 0.81336 0.07234 0.48091 0.0
H454 H 0.83849 0.04727 0.46429 0.0
H455 H 0.83111 0.03336 0.49106 0.0
C456 C 0.74459 0.66679 0.63464 0.0
C457 C 0.76726 0.70263 0.6202 0.0
C458 C 0.72407 0.67348 0.65217 0.0
C459 C 0.72685 0.71718 0.65544 0.0
C460 C 0.74639 0.75203 0.64016 0.0
C461 C 0.76599 0.7442 0.62271 0.0
C462 C 0.70228 0.63493 0.66781 0.0
C463 C 0.75007 0.79916 0.64296 0.0
C464 C 0.66641 0.74714 0.69723 0.0
C465 C 0.70317 0.77051 0.71122 0.0
C466 C 0.67221 0.72621 0.67962 0.0
C467 C 0.71597 0.72947 0.67577 0.0
C468 C 0.75197 0.75013 0.69052 0.0
C469 C 0.74498 0.76992 0.7081 0.0
C470 C 0.63246 0.7032 0.66457 0.0
C471 C 0.7993 0.75455 0.68705 0.0
H472 H 0.7448 0.63428 0.6328 0.0
H473 H 0.78273 0.77196 0.61157 0.0
H474 H 0.72682 0.64314 0.68075 0.0
H475 H 0.66958 0.63194 0.67397 0.0
H476 H 0.69432 0.60065 0.66134 0.0
H477 H 0.76242 0.82088 0.62895 0.0
H478 H 0.71571 0.79492 0.64734 0.0
H479 H 0.77499 0.81834 0.65548 0.0
H480 H 0.63376 0.74685 0.69955 0.0
H481 H 0.77354 0.78736 0.71885 0.0
H482 H 0.62965 0.67058 0.65845 0.0
H483 H 0.63916 0.7271 0.65153 0.0
H484 H 0.59849 0.69486 0.67156 0.0
H485 H 0.79534 0.72012 0.6831 0.0
H486 H 0.82236 0.76849 0.70063 0.0
H487 H 0.81691 0.77841 0.67403 0.0
C488 C 0.97032 0.74693 0.87338 0.0
C489 C 0.92952 0.70387 0.87678 0.0
C490 C -0.00201 0.75446 0.85604 0.0
C491 C 0.98517 0.71782 0.84181 0.0
C492 C 0.94628 0.67314 0.84593 0.0
C493 C 0.91864 0.66676 0.86329 0.0
C494 C 0.03911 0.80275 0.85227 0.0
C495 C 0.93225 0.63282 0.83144 0.0
C496 C 0.0206 0.7651 0.78835 0.0
C497 C 0.06476 0.76886 0.78657 0.0
C498 C 0.99284 0.74548 0.80571 0.0
C499 C 0.00923 0.72855 0.82167 0.0
C500 C 0.05172 0.72827 0.8192 0.0
C501 C 0.07916 0.74865 0.80171 0.0
C502 C 0.94768 0.7464 0.80765 0.0
C503 C 0.06981 0.7094 0.83561 0.0
H504 H 0.97951 0.77582 0.88373 0.0
H505 H 0.88752 0.63318 0.86583 0.0
H506 H 0.07102 0.80078 0.84893 0.0
H507 H 0.03191 0.8184 0.83876 0.0
H508 H 0.0464 0.82646 0.86548 0.0
H509 H 0.90754 0.59882 0.83863 0.0
H510 H 0.91493 0.63758 0.8179 0.0
H511 H 0.96342 0.63152 0.82601 0.0
H512 H 0.00865 0.77987 0.77665 0.0
H513 H 0.11295 0.75087 0.80045 0.0
H514 H 0.95151 0.77175 0.81966 0.0
H515 H 0.91873 0.71164 0.81231 0.0
H516 H 0.93773 0.75667 0.79318 0.0
H517 H 0.08442 0.73496 0.84829 0.0
H518 H 0.09781 0.70308 0.82982 0.0
H519 H 0.0411 0.6763 0.84195 0.0
C520 C 0.24898 0.92188 0.03206 0.0
C521 C 0.21831 0.92997 0.04394 0.0
C522 C 0.27146 0.94964 0.01491 0.0
C523 C 0.26244 0.98581 0.00935 0.0
C524 C 0.23377 0.99587 0.02196 0.0
C525 C 0.21239 0.96812 0.03915 0.0
C526 C 0.30278 0.93862 0.00216 0.0
C527 C 0.2231 0.03408 0.01658 0.0
C528 C 0.32723 0.08041 0.96978 0.0
C529 C 0.29536 0.06349 0.95349 0.0
C530 C 0.31906 0.05385 0.98764 0.0
C531 C 0.27795 0.00964 0.98925 0.0
C532 C 0.24792 0.9908 0.97221 0.0
C533 C 0.25717 0.01779 0.95452 0.0
C534 C 0.35261 0.07461 0.00527 0.0
C535 C 0.20377 0.94371 0.97321 0.0
H536 H 0.25429 0.89286 0.03573 0.0
H537 H 0.18907 0.975 0.04824 0.0
H538 H 0.28412 0.92039 0.98804 0.0
H539 H 0.33485 0.97117 0.99755 0.0
H540 H 0.31309 0.91578 0.01042 0.0
H541 H 0.20279 0.03956 0.02869 0.0
H542 H 0.25596 0.06753 0.01396 0.0
H543 H 0.2026 0.0249 0.00223 0.0
H544 H 0.3571 0.11548 0.96913 0.0
H545 H 0.23268 0.00397 0.94193 0.0
H546 H 0.35843 0.0478 0.01273 0.0
H547 H 0.33751 0.08778 0.01684 0.0
H548 H 0.38689 0.1042 0.00036 0.0
H549 H 0.21146 0.91681 0.97912 0.0
H550 H 0.1866 0.93217 0.95809 0.0
H551 H 0.17867 0.94559 0.98389 0.0
C552 C 0.24183 0.31981 0.04173 0.0
C553 C 0.1988 0.31844 0.04101 0.0
C554 C 0.25624 0.30205 0.02556 0.0
C555 C 0.22779 0.28457 0.00795 0.0
C556 C 0.1849 0.28458 0.00697 0.0
C557 C 0.17041 0.30055 0.02375 0.0
C558 C 0.30116 0.30077 0.02757 0.0
C559 C 0.15434 0.26779 0.98822 0.0
C560 C 0.28409 0.27337 0.95918 0.0
C561 C 0.26559 0.22497 0.95816 0.0
C562 C 0.27168 0.29337 0.9752 0.0
C563 C 0.24173 0.26432 0.9909 0.0
C564 C 0.22423 0.21551 0.99016 0.0
C565 C 0.23564 0.19636 0.97357 0.0
C566 C 0.28974 0.34532 0.9751 0.0
C567 C 0.19368 0.1835 0.00694 0.0
H568 H 0.2635 0.33342 0.05523 0.0
H569 H 0.1373 0.3 0.02322 0.0
H570 H 0.29371 0.26418 0.02625 0.0
H571 H 0.32549 0.32092 0.01505 0.0
H572 H 0.31898 0.31529 0.04235 0.0
H573 H 0.12416 0.27381 0.98925 0.0
H574 H 0.17518 0.28599 0.9745 0.0
H575 H 0.14074 0.22987 0.98601 0.0
H576 H 0.30723 0.29533 0.94718 0.0
H577 H 0.22192 0.15893 0.97284 0.0
H578 H 0.31061 0.36158 0.98903 0.0
H579 H 0.25989 0.3519 0.97523 0.0
H580 H 0.31186 0.36283 0.96157 0.0
H581 H 0.21106 0.19624 0.02193 0.0
H582 H 0.18589 0.14694 0.00479 0.0
H583 H 0.16013 0.18355 0.00749 0.0
C584 C 0.8752 0.23857 0.19316 0.0
C585 C 0.87503 0.2047 0.2061 0.0
C586 C 0.90465 0.25475 0.17603 0.0
C587 C 0.93548 0.2375 0.17208 0.0
C588 C 0.93604 0.20397 0.18536 0.0
C589 C 0.90537 0.18753 0.20205 0.0
C590 C 0.90226 0.28968 0.16198 0.0
C591 C 0.96911 0.18546 0.18197 0.0
C592 C 0.9853 0.24054 0.11954 0.0
C593 C 0.03074 0.27887 0.12125 0.0
C594 C 0.95309 0.22815 0.1356 0.0
C595 C 0.96702 0.25402 0.154 0.0
C596 C 0.0123 0.29372 0.15555 0.0
C597 C 0.04343 0.30598 0.13906 0.0
C598 C 0.90474 0.1863 0.13314 0.0
C599 C 0.02882 0.32173 0.17501 0.0
H600 H 0.85153 0.25168 0.19619 0.0
H601 H 0.90555 0.16155 0.21208 0.0
H602 H 0.93701 0.32183 0.16099 0.0
H603 H 0.89284 0.27494 0.14637 0.0
H604 H 0.87621 0.29944 0.16712 0.0
H605 H 0.96657 0.16101 0.19418 0.0
H606 H 0.9614 0.1669 0.16715 0.0
H607 H 0.0057 0.21486 0.18129 0.0
H608 H 0.97517 0.21962 0.10576 0.0
H609 H 0.07861 0.33541 0.14058 0.0
H610 H 0.87782 0.19533 0.13769 0.0
H611 H 0.9008 0.15771 0.1433 0.0
H612 H 0.89773 0.17305 0.11723 0.0
H613 H 0.00362 0.33267 0.18 0.0
H614 H 0.06385 0.35337 0.17331 0.0
H615 H 0.03069 0.29964 0.1873 0.0
C616 C 0.80253 0.04193 0.30661 0.0
C617 C 0.77385 0.04299 0.29114 0.0
C618 C 0.78356 0.01047 0.32291 0.0
C619 C 0.73495 0.97801 0.32328 0.0
C620 C 0.70587 0.97862 0.3075 0.0
C621 C 0.72561 0.01189 0.2918 0.0
C622 C 0.81552 0.01223 0.33979 0.0
C623 C 0.65419 0.94356 0.30699 0.0
C624 C 0.70035 0.86975 0.35534 0.0
C625 C 0.68113 0.87875 0.37257 0.0
C626 C 0.71629 0.90093 0.33883 0.0
C627 C 0.71491 0.94306 0.34005 0.0
C628 C 0.69611 0.95253 0.35763 0.0
C629 C 0.67844 0.91966 0.37353 0.0
C630 C 0.73452 0.88875 0.32007 0.0
C631 C 0.69586 0.99789 0.35991 0.0
H632 H 0.83982 0.06654 0.30616 0.0
H633 H 0.7036 0.01285 0.27975 0.0
H634 H 0.80197 0.0158 0.35476 0.0
H635 H 0.81652 0.97918 0.34015 0.0
H636 H 0.85184 0.04175 0.33793 0.0
H637 H 0.63668 0.94799 0.29341 0.0
H638 H 0.64875 0.90758 0.30692 0.0
H639 H 0.63698 0.94699 0.32087 0.0
H640 H 0.70195 0.83778 0.35462 0.0
H641 H 0.66384 0.92658 0.387 0.0
H642 H 0.77235 0.914 0.31816 0.0
H643 H 0.7164 0.89128 0.30629 0.0
H644 H 0.7296 0.85297 0.32088 0.0
H645 H 0.73216 0.02775 0.35887 0.0
H646 H 0.68055 0.0001 0.37466 0.0
H647 H 0.67562 0.00183 0.34736 0.0
C648 C 0.81431 0.71979 0.53462 0.0
C649 C 0.79579 0.67223 0.5389 0.0
C650 C 0.79893 0.73434 0.51764 0.0
C651 C 0.76519 0.70046 0.50434 0.0
C652 C 0.74684 0.65235 0.50848 0.0
C653 C 0.7619 0.63882 0.52588 0.0
C654 C 0.81854 0.78597 0.51404 0.0
C655 C 0.71171 0.61523 0.49441 0.0
C656 C 0.69683 0.73929 0.47089 0.0
C657 C 0.7235 0.75253 0.45294 0.0
C658 C 0.70947 0.72143 0.48762 0.0
C659 C 0.74906 0.7156 0.48618 0.0
C660 C 0.77462 0.72654 0.46771 0.0
C661 C 0.76191 0.74547 0.4514 0.0
C662 C 0.68184 0.71105 0.50715 0.0
C663 C 0.81627 0.7196 0.46539 0.0
H664 H 0.84033 0.74568 0.54472 0.0
H665 H 0.7478 0.60198 0.52908 0.0
H666 H 0.83699 0.79615 0.49918 0.0
H667 H 0.78966 0.79395 0.51332 0.0
H668 H 0.84337 0.80774 0.52618 0.0
H669 H 0.7017 0.57937 0.49953 0.0
H670 H 0.67968 0.61809 0.49346 0.0
H671 H 0.7264 0.62048 0.47879 0.0
H672 H 0.6674 0.74512 0.47228 0.0
H673 H 0.78251 0.75544 0.43754 0.0
H674 H 0.70453 0.73483 0.51936 0.0
H675 H 0.66997 0.67481 0.51224 0.0
H676 H 0.65076 0.71546 0.5055 0.0
H677 H 0.84496 0.7442 0.47552 0.0
H678 H 0.82955 0.7255 0.44948 0.0
H679 H 0.8069 0.68367 0.47005 0.0
C680 C 0.08795 0.81235 0.70332 0.0
C681 C 0.12097 0.79785 0.70561 0.0
C682 C 0.05647 0.79659 0.68688 0.0
C683 C 0.05924 0.76695 0.67201 0.0
C684 C 0.09302 0.75272 0.67414 0.0
C685 C 0.12297 0.76772 0.69113 0.0
C686 C 0.0201 0.81148 0.6855 0.0
C687 C 0.098 0.72229 0.65833 0.0
C688 C 0.95217 0.69582 0.63877 0.0
C689 C 0.96232 0.72487 0.62167 0.0
C690 C 0.98372 0.70869 0.65512 0.0
C691 C 0.02688 0.75118 0.6542 0.0
C692 C 0.03821 0.77963 0.63661 0.0
C693 C 0.00561 0.76639 0.62065 0.0
C694 C 0.96999 0.67776 0.67375 0.0
C695 C 0.08431 0.82467 0.63483 0.0
H696 H 0.08615 0.83538 0.71459 0.0
H697 H 0.1488 0.75681 0.69282 0.0
H698 H 0.02553 0.83217 0.67142 0.0
H699 H 0.98464 0.78025 0.68455 0.0
H700 H 0.02124 0.83286 0.69879 0.0
H701 H 0.12657 0.71499 0.66206 0.0
H702 H 0.0648 0.68858 0.65694 0.0
H703 H 0.10528 0.73962 0.64321 0.0
H704 H 0.91868 0.66386 0.63977 0.0
H705 H 0.01387 0.78889 0.60745 0.0
H706 H 0.96736 0.69694 0.6871 0.0
H707 H 0.99719 0.66847 0.67731 0.0
H708 H 0.93596 0.64501 0.67177 0.0
H709 H 0.08604 0.85003 0.64637 0.0
H710 H 0.08938 0.8408 0.61951 0.0
H711 H 0.11371 0.81829 0.63795 0.0
C712 C 0.27312 0.08753 0.86984 0.0
C713 C 0.32042 0.12093 0.87234 0.0
C714 C 0.25812 0.05651 0.85327 0.0
C715 C 0.29104 0.06011 0.83848 0.0
C716 C 0.33883 0.09424 0.84082 0.0
C717 C 0.35308 0.12375 0.85794 0.0
C718 C 0.20706 0.01976 0.85165 0.0
C719 C 0.37474 0.10006 0.82509 0.0
C720 C 0.25632 0.95401 0.80486 0.0
C721 C 0.23717 0.96422 0.78786 0.0
C722 C 0.27488 0.98533 0.82128 0.0
C723 C 0.27514 0.0283 0.82051 0.0
C724 C 0.2579 0.03976 0.80298 0.0
C725 C 0.2387 0.0074 0.78696 0.0
C726 C 0.29223 0.97147 0.83982 0.0
C727 C 0.25853 0.08568 0.80139 0.0
H728 H 0.24788 0.0851 0.88105 0.0
H729 H 0.38965 0.14987 0.85979 0.0
H730 H 0.19186 0.02535 0.83758 0.0
H731 H 0.20336 0.98454 0.85053 0.0
H732 H 0.18639 0.02022 0.86492 0.0
H733 H 0.41039 0.12872 0.82903 0.0
H734 H 0.37572 0.06713 0.82354 0.0
H735 H 0.36487 0.10767 0.81 0.0
H736 H 0.255 0.9206 0.80576 0.0
H737 H 0.22429 0.01572 0.77382 0.0
H738 H 0.27001 0.96803 0.85315 0.0
H739 H 0.32846 -0.00105 0.84357 0.0
H740 H 0.29166 0.93784 0.83764 0.0
H741 H 0.23446 0.08685 0.81286 0.0
H742 H 0.24771 0.09104 0.78605 0.0
H743 H 0.29409 0.11516 0.80471 0.0
C744 C 0.64065 0.76571 0.80505 0.0
C745 C 0.67404 0.80007 0.79219 0.0
C746 C 0.65434 0.74966 0.8221 0.0
C747 C 0.70253 0.76751 0.82602 0.0
C748 C 0.73633 0.80171 0.81286 0.0
C749 C 0.72166 0.81804 0.79628 0.0
C750 C 0.6173 0.71403 0.83604 0.0
C751 C 0.78802 0.82084 0.81621 0.0
C752 C 0.74872 0.7617 0.87839 0.0
C753 C 0.7554 0.72319 0.87625 0.0
C754 C 0.72949 0.77522 0.86248 0.0
C755 C 0.71789 0.75043 0.8438 0.0
C756 C 0.72356 0.71086 0.84173 0.0
C757 C 0.74169 0.69738 0.85808 0.0
C758 C 0.7228 0.81684 0.86547 0.0
C759 C 0.71259 0.68409 0.82194 0.0
H760 H 0.60378 0.75201 0.80201 0.0
H761 H 0.74757 0.84443 0.78631 0.0
H762 H 0.61996 0.68187 0.8365 0.0
H763 H 0.62288 0.72797 0.8518 0.0
H764 H 0.58138 0.70446 0.83113 0.0
H765 H 0.80971 0.84611 0.8042 0.0
H766 H 0.79859 0.83862 0.83121 0.0
H767 H 0.79579 0.7918 0.81646 0.0
H768 H 0.75899 0.78161 0.89244 0.0
H769 H 0.74718 0.66785 0.85624 0.0
H770 H 0.68673 0.80777 0.86113 0.0
H771 H 0.74718 0.84586 0.85542 0.0
H772 H 0.72923 0.82948 0.88147 0.0
H773 H 0.67619 0.67249 0.81714 0.0
H774 H 0.717 0.65295 0.82309 0.0
H775 H 0.73607 0.70725 0.80976 0.0
C776 C 0.9011 0.71891 0.96233 0.0
C777 C 0.87261 0.67132 0.95793 0.0
C778 C 0.93198 0.73366 0.97899 0.0
C779 C 0.93345 0.69995 0.99186 0.0
C780 C 0.90433 0.6518 0.98758 0.0
C781 C 0.87471 0.63809 0.9705 0.0
C782 C 0.96322 0.78535 0.98275 0.0
C783 C 0.90402 0.61479 0.00119 0.0
C784 C 0.04211 0.73987 0.02456 0.0
C785 C 0.02867 0.75179 0.04286 0.0
C786 C 0.01124 0.72225 0.00793 0.0
C787 C 0.96543 0.71526 0.00981 0.0
C788 C 0.95091 0.72499 0.0286 0.0
C789 C 0.98289 0.74373 0.0448 0.0
C790 C 0.02841 0.71322 0.98805 0.0
C791 C 0.90197 0.71683 0.03142 0.0
H792 H 0.89976 0.74469 0.95258 0.0
H793 H 0.85246 0.60122 0.96721 0.0
H794 H 0.95518 0.79485 0.99782 0.0
H795 H 0.00037 0.79418 0.98308 0.0
H796 H 0.95908 0.80702 0.97089 0.0
H797 H 0.8787 0.57885 0.99596 0.0
H798 H 0.93938 0.61868 0.0017 0.0
H799 H 0.89488 0.6192 0.017 0.0
H800 H 0.07761 0.74652 0.02287 0.0
H801 H 0.97225 0.75269 0.05894 0.0
H802 H 0.02834 0.73703 0.97614 0.0
H803 H 0.0046 0.67696 0.98282 0.0
H804 H 0.06435 0.71862 0.98931 0.0
H805 H 0.89681 0.74118 0.02157 0.0
H806 H 0.8949 0.72213 0.04746 0.0
H807 H 0.87585 0.68077 0.02671 0.0
C808 C 0.23865 0.91309 0.12511 0.0
C809 C 0.1939 0.87359 0.12485 0.0
C810 C 0.25317 0.9447 0.14148 0.0
C811 C 0.22288 0.93533 0.15833 0.0
C812 C 0.17811 0.89456 0.15834 0.0
C813 C 0.16375 0.86471 0.14135 0.0
C814 C 0.30032 0.98872 0.14048 0.0
C815 C 0.14543 0.88244 0.17629 0.0
C816 C 0.27685 -0.00077 0.20807 0.0
C817 C 0.26226 0.03236 0.20832 0.0
C818 C 0.26372 0.96682 0.19202 0.0
C819 C 0.2371 0.96912 0.17554 0.0
C820 C 0.2235 0.00356 0.17558 0.0
C821 C 0.23551 0.03418 0.19218 0.0
C822 C 0.27753 0.92964 0.19286 0.0
C823 C 0.1966 0.00837 0.15801 0.0
H824 H 0.26173 0.91996 0.11221 0.0
H825 H 0.12929 0.8338 0.14116 0.0
H826 H 0.29578 0.01977 0.14148 0.0
H827 H 0.32219 0.99028 0.15362 0.0
H828 H 0.31942 0.99105 0.12619 0.0
H829 H 0.11354 0.8476 0.1746 0.0
H830 H 0.16366 0.88267 0.19054 0.0
H831 H 0.13455 0.90905 0.17801 0.0
H832 H 0.29751 -0.002 0.22065 0.0
H833 H 0.22479 0.06033 0.19236 0.0
H834 H 0.29962 0.93289 0.17953 0.0
H835 H 0.24579 0.89451 0.19206 0.0
H836 H 0.29708 0.93183 0.20698 0.0
H837 H 0.21539 0.01212 0.14348 0.0
H838 H 0.19146 0.03896 0.1598 0.0
H839 H 0.16178 0.97643 0.15674 0.0
C840 C 0.27349 0.17647 0.29743 0.0
C841 C 0.32106 0.19458 0.29315 0.0
C842 C 0.25907 0.1936 0.31381 0.0
C843 C 0.29307 0.22883 0.32656 0.0
C844 C 0.3412 0.24686 0.32244 0.0
C845 C 0.35461 0.22993 0.30561 0.0
C846 C 0.20741 0.17417 0.3174 0.0
C847 C 0.37847 0.2836 0.33594 0.0
C848 C 0.25378 0.29963 0.35811 0.0
C849 C 0.24104 0.27476 0.37654 0.0
C850 C 0.27163 0.28564 0.34183 0.0
C851 C 0.27799 0.24655 0.34421 0.0
C852 C 0.26744 0.2228 0.36313 0.0
C853 C 0.2485 0.23679 0.37897 0.0
C854 C 0.28156 0.31133 0.32179 0.0
C855 C 0.27487 0.18174 0.36646 0.0
H856 H 0.24744 0.14933 0.28777 0.0
H857 H 0.39145 0.24379 0.30242 0.0
H858 H 0.19748 0.15719 0.33258 0.0
H859 H 0.19925 0.20294 0.31738 0.0
H860 H 0.18552 0.14814 0.30566 0.0
H861 H 0.41433 0.29338 0.33087 0.0
H862 H 0.37527 0.31546 0.3361 0.0
H863 H 0.37366 0.27058 0.35185 0.0
H864 H 0.24767 0.32872 0.35606 0.0
H865 H 0.23898 0.21762 0.39322 0.0
H866 H 0.25771 0.28738 0.30989 0.0
H867 H 0.31783 0.32299 0.31676 0.0
H868 H 0.27683 0.3423 0.3227 0.0
H869 H 0.25038 0.15205 0.35673 0.0
H870 H 0.26918 0.16993 0.38259 0.0
H871 H 0.31091 0.19101 0.36195 0.0
C872 C 0.09584 0.27715 0.46286 0.0
C873 C 0.12483 0.32486 0.45886 0.0
C874 C 0.0654 0.26199 0.47965 0.0
C875 C 0.065 0.29538 0.49309 0.0
C876 C 0.09482 0.34363 0.48928 0.0
C877 C 0.1239 0.3578 0.47203 0.0
C878 C 0.03332 0.21023 0.48289 0.0
C879 C 0.09629 0.38026 0.50352 0.0
C880 C 0.9566 0.25632 0.52574 0.0
C881 C 0.96926 0.24279 0.54382 0.0
C882 C 0.98766 0.27412 0.50921 0.0
C883 C 0.03291 0.27964 0.51098 0.0
C884 C 0.04668 0.26816 0.52954 0.0
C885 C 0.01447 0.24926 0.54565 0.0
C886 C 0.97127 0.28501 0.48954 0.0
C887 C 0.09505 0.27474 0.53222 0.0
H888 H 0.09632 0.25163 0.45263 0.0
H889 H 0.14661 0.39475 0.46906 0.0
H890 H 0.04087 0.19958 0.4978 0.0
H891 H 0.9964 0.20216 0.48328 0.0
H892 H 0.03701 0.18888 0.47074 0.0
H893 H 0.12256 0.41627 0.49877 0.0
H894 H 0.06146 0.3776 0.50414 0.0
H895 H 0.10477 0.37424 0.5192 0.0
H896 H 0.92154 0.25092 0.52412 0.0
H897 H 0.0245 0.23905 0.55962 0.0
H898 H 0.9711 0.26183 0.47725 0.0
H899 H 0.99568 0.32151 0.48479 0.0
H900 H 0.93557 0.28022 0.49085 0.0
H901 H 0.09952 0.25054 0.52198 0.0
H902 H 0.10165 0.26809 0.54813 0.0
H903 H 0.12193 0.31084 0.52792 0.0
C904 C 0.70044 0.97696 0.70088 0.0
C905 C 0.73288 0.96515 0.70853 0.0
C906 C 0.71231 0.00896 0.68473 0.0
C907 C 0.75729 0.02874 0.67577 0.0
C908 C 0.79015 0.017 0.68347 0.0
C909 C 0.77772 0.98576 0.69986 0.0
C910 C 0.67666 0.02132 0.67716 0.0
C911 C 0.8382 0.03669 0.67414 0.0
C912 C 0.77686 0.07471 0.62142 0.0
C913 C 0.80018 0.12295 0.6247 0.0
C914 C 0.76173 0.04349 0.63794 0.0
C915 C 0.77011 0.06123 0.65812 0.0
C916 C 0.79302 0.11015 0.66139 0.0
C917 C 0.80792 0.1405 0.64457 0.0
C918 C 0.73771 0.99164 0.63381 0.0
C919 C 0.80248 0.13043 0.68263 0.0
H920 H 0.66578 0.96126 0.70753 0.0
H921 H 0.80286 0.97643 0.70549 0.0
H922 H 0.69145 0.05974 0.67771 0.0
H923 H 0.66788 0.01045 0.66102 0.0
H924 H 0.64392 0.00435 0.68627 0.0
H925 H 0.85971 0.02409 0.68194 0.0
H926 H 0.83498 0.02671 0.65782 0.0
H927 H 0.85704 0.07541 0.67482 0.0
H928 H 0.77087 0.06147 0.60594 0.0
H929 H 0.82593 0.178 0.64693 0.0
H930 H 0.70315 0.97362 0.64147 0.0
H931 H 0.75885 0.97704 0.6402 0.0
H932 H 0.73251 0.98353 0.61726 0.0
H933 H 0.76951 0.11493 0.69153 0.0
H934 H 0.81826 0.16904 0.68254 0.0
H935 H 0.82665 0.1216 0.69065 0.0
loop_
_geom_bond_atom_site_label_1
_geom_bond_atom_site_label_2
_geom_bond_distance
_geom_bond_site_symmetry_2
_ccdc_geom_bond_type
Co0 O1 2.216 . S
Co0 O2 2.091 . S
Co0 O4 2.004 . S
Co0 O10 2.021 . S
Co0 O12 2.137 . S
Co0 O13 2.244 . S
O1 Co0 2.216 . S
O1 C8 1.247 . S
O2 Co0 2.091 . S
O2 C8 1.261 . S
C3 O12 1.247 . S
C3 O13 1.272 . S
O4 Co0 2.004 . S
O4 C9 1.259 . S
Co5 O6 2.061 . S
Co5 O11 2.052 . S
Co5 O13 2.135 . S
O6 Co5 2.061 . S
O6 C9 1.235 . S
C7 O10 1.238 . S
C7 O11 1.241 . S
C8 O1 1.247 . S
C8 O2 1.261 . S
C9 O4 1.259 . S
C9 O6 1.235 . S
O10 Co0 2.021 . S
O10 C7 1.238 . S
O11 Co5 2.052 . S
O11 C7 1.241 . S
O12 Co0 2.137 . S
O12 C3 1.247 . S
O13 Co0 2.244 . S
O13 C3 1.272 . S
O13 Co5 2.135 . S
Co14 O15 2.216 . S
Co14 O16 2.091 . S
Co14 O18 2.004 . S
Co14 O24 2.021 . S
Co14 O26 2.137 . S
Co14 O27 2.244 . S
O15 Co14 2.216 . S
O15 C22 1.247 . S
O16 Co14 2.091 . S
O16 C22 1.261 . S
C17 O26 1.247 . S
C17 O27 1.272 . S
O18 Co14 2.004 . S
O18 C23 1.259 . S
Co19 O20 2.061 . S
Co19 O25 2.052 . S
Co19 O27 2.135 . S
O20 Co19 2.061 . S
O20 C23 1.235 . S
C21 O24 1.238 . S
C21 O25 1.241 . S
C22 O15 1.247 . S
C22 O16 1.261 . S
C23 O18 1.259 . S
C23 O20 1.235 . S
O24 Co14 2.021 . S
O24 C21 1.238 . S
O25 Co19 2.052 . S
O25 C21 1.241 . S
O26 Co14 2.137 . S
O26 C17 1.247 . S
O27 Co14 2.244 . S
O27 C17 1.272 . S
O27 Co19 2.135 . S
Co28 O29 2.216 . S
Co28 O30 2.091 . S
Co28 O32 2.004 . S
Co28 O38 2.021 . S
Co28 O40 2.137 . S
Co28 O41 2.244 . S
O29 Co28 2.216 . S
O29 C36 1.247 . S
O30 Co28 2.091 . S
O30 C36 1.261 . S
C31 O40 1.247 . S
C31 O41 1.272 . S
O32 Co28 2.004 . S
O32 C37 1.259 . S
Co33 O34 2.061 . S
Co33 O39 2.052 . S
Co33 O41 2.135 . S
O34 Co33 2.061 . S
O34 C37 1.235 . S
C35 O38 1.238 . S
C35 O39 1.241 . S
C36 O29 1.247 . S
C36 O30 1.261 . S
C37 O32 1.259 . S
C37 O34 1.235 . S
O38 Co28 2.021 . S
O38 C35 1.238 . S
O39 Co33 2.052 . S
O39 C35 1.241 . S
O40 Co28 2.137 . S
O40 C31 1.247 . S
O41 Co28 2.244 . S
O41 C31 1.272 . S
O41 Co33 2.135 . S
Co42 O43 2.216 . S
Co42 O44 2.091 . S
Co42 O46 2.004 . S
Co42 O52 2.021 . S
Co42 O54 2.137 . S
Co42 O55 2.244 . S
O43 Co42 2.216 . S
O43 C50 1.247 . S
O44 Co42 2.091 . S
O44 C50 1.261 . S
C45 O54 1.247 . S
C45 O55 1.272 . S
O46 Co42 2.004 . S
O46 C51 1.259 . S
Co47 O48 2.061 . S
Co47 O53 2.052 . S
Co47 O55 2.135 . S
O48 Co47 2.061 . S
O48 C51 1.235 . S
C49 O52 1.238 . S
C49 O53 1.241 . S
C50 O43 1.247 . S
C50 O44 1.261 . S
C51 O46 1.259 . S
C51 O48 1.235 . S
O52 Co42 2.021 . S
O52 C49 1.238 . S
O53 Co47 2.052 . S
O53 C49 1.241 . S
O54 Co42 2.137 . S
O54 C45 1.247 . S
O55 Co42 2.244 . S
O55 C45 1.272 . S
O55 Co47 2.135 . S
Co56 O57 2.216 . S
Co56 O58 2.091 . S
Co56 O60 2.004 . S
Co56 O66 2.021 . S
Co56 O68 2.137 . S
Co56 O69 2.244 . S
O57 Co56 2.216 . S
O57 C64 1.247 . S
O58 Co56 2.091 . S
O58 C64 1.261 . S
C59 O68 1.247 . S
C59 O69 1.272 . S
O60 Co56 2.004 . S
O60 C65 1.259 . S
Co61 O62 2.061 . S
Co61 O67 2.052 . S
Co61 O69 2.135 . S
O62 Co61 2.061 . S
O62 C65 1.235 . S
C63 O66 1.238 . S
C63 O67 1.241 . S
C64 O57 1.247 . S
C64 O58 1.261 . S
C65 O60 1.259 . S
C65 O62 1.235 . S
O66 Co56 2.021 . S
O66 C63 1.238 . S
O67 Co61 2.052 . S
O67 C63 1.241 . S
O68 Co56 2.137 . S
O68 C59 1.247 . S
O69 Co56 2.244 . S
O69 C59 1.272 . S
O69 Co61 2.135 . S
Co70 O71 2.216 . S
Co70 O72 2.091 . S
Co70 O74 2.004 . S
Co70 O80 2.021 . S
Co70 O82 2.137 . S
Co70 O83 2.244 . S
O71 Co70 2.216 . S
O71 C78 1.247 . S
O72 Co70 2.091 . S
O72 C78 1.261 . S
C73 O82 1.247 . S
C73 O83 1.272 . S
O74 Co70 2.004 . S
O74 C79 1.259 . S
Co75 O76 2.061 . S
Co75 O81 2.052 . S
Co75 O83 2.135 . S
O76 Co75 2.061 . S
O76 C79 1.235 . S
C77 O80 1.238 . S
C77 O81 1.241 . S
C78 O71 1.247 . S
C78 O72 1.261 . S
C79 O74 1.259 . S
C79 O76 1.235 . S
O80 Co70 2.021 . S
O80 C77 1.238 . S
O81 Co75 2.052 . S
O81 C77 1.241 . S
O82 Co70 2.137 . S
O82 C73 1.247 . S
O83 Co70 2.244 . S
O83 C73 1.272 . S
O83 Co75 2.135 . S
Co84 O85 2.216 . S
Co84 O86 2.091 . S
Co84 O88 2.004 . S
Co84 O94 2.021 . S
Co84 O96 2.137 . S
Co84 O97 2.244 . S
O85 Co84 2.216 . S
O85 C92 1.247 . S
O86 Co84 2.091 . S
O86 C92 1.261 . S
C87 O96 1.247 . S
C87 O97 1.272 . S
O88 Co84 2.004 . S
O88 C93 1.259 . S
Co89 O90 2.061 . S
Co89 O95 2.052 . S
Co89 O97 2.135 . S
O90 Co89 2.061 . S
O90 C93 1.235 . S
C91 O94 1.238 . S
C91 O95 1.241 . S
C92 O85 1.247 . S
C92 O86 1.261 . S
C93 O88 1.259 . S
C93 O90 1.235 . S
O94 Co84 2.021 . S
O94 C91 1.238 . S
O95 Co89 2.052 . S
O95 C91 1.241 . S
O96 Co84 2.137 . S
O96 C87 1.247 . S
O97 Co84 2.244 . S
O97 C87 1.272 . S
O97 Co89 2.135 . S
Co98 O99 2.216 . S
Co98 O100 2.091 . S
Co98 O102 2.004 . S
Co98 O108 2.021 . S
Co98 O110 2.137 . S
Co98 O111 2.244 . S
O99 Co98 2.216 . S
O99 C106 1.247 . S
O100 Co98 2.091 . S
O100 C106 1.261 . S
C101 O110 1.247 . S
C101 O111 1.272 . S
O102 Co98 2.004 . S
O102 C107 1.259 . S
Co103 O104 2.061 . S
Co103 O109 2.052 . S
Co103 O111 2.135 . S
O104 Co103 2.061 . S
O104 C107 1.235 . S
C105 O108 1.238 . S
C105 O109 1.241 . S
C106 O99 1.247 . S
C106 O100 1.261 . S
C107 O102 1.259 . S
C107 O104 1.235 . S
O108 Co98 2.021 . S
O108 C105 1.238 . S
O109 Co103 2.052 . S
O109 C105 1.241 . S
O110 Co98 2.137 . S
O110 C101 1.247 . S
O111 Co98 2.244 . S
O111 C101 1.272 . S
O111 Co103 2.135 . S
Co112 O113 2.216 . S
Co112 O114 2.091 . S
Co112 O116 2.004 . S
Co112 O122 2.021 . S
Co112 O124 2.137 . S
Co112 O125 2.244 . S
O113 Co112 2.216 . S
O113 C120 1.247 . S
O114 Co112 2.091 . S
O114 C120 1.261 . S
C115 O124 1.247 . S
C115 O125 1.272 . S
O116 Co112 2.004 . S
O116 C121 1.259 . S
Co117 O118 2.061 . S
Co117 O123 2.052 . S
Co117 O125 2.135 . S
O118 Co117 2.061 . S
O118 C121 1.235 . S
C119 O122 1.238 . S
C119 O123 1.241 . S
C120 O113 1.247 . S
C120 O114 1.261 . S
C121 O116 1.259 . S
C121 O118 1.235 . S
O122 Co112 2.021 . S
O122 C119 1.238 . S
O123 Co117 2.052 . S
O123 C119 1.241 . S
O124 Co112 2.137 . S
O124 C115 1.247 . S
O125 Co112 2.244 . S
O125 C115 1.272 . S
O125 Co117 2.135 . S
Co126 O127 2.216 . S
Co126 O128 2.091 . S
Co126 O130 2.004 . S
Co126 O136 2.021 . S
Co126 O138 2.137 . S
Co126 O139 2.244 . S
O127 Co126 2.216 . S
O127 C134 1.247 . S
O128 Co126 2.091 . S
O128 C134 1.261 . S
C129 O138 1.247 . S
C129 O139 1.272 . S
O130 Co126 2.004 . S
O130 C135 1.259 . S
Co131 O132 2.061 . S
Co131 O137 2.052 . S
Co131 O139 2.135 . S
O132 Co131 2.061 . S
O132 C135 1.235 . S
C133 O136 1.238 . S
C133 O137 1.241 . S
C134 O127 1.247 . S
C134 O128 1.261 . S
C135 O130 1.259 . S
C135 O132 1.235 . S
O136 Co126 2.021 . S
O136 C133 1.238 . S
O137 Co131 2.052 . S
O137 C133 1.241 . S
O138 Co126 2.137 . S
O138 C129 1.247 . S
O139 Co126 2.244 . S
O139 C129 1.272 . S
O139 Co131 2.135 . S
Co140 O141 2.216 . S
Co140 O142 2.091 . S
Co140 O144 2.004 . S
Co140 O150 2.021 . S
Co140 O152 2.137 . S
Co140 O153 2.244 . S
O141 Co140 2.216 . S
O141 C148 1.247 . S
O142 Co140 2.091 . S
O142 C148 1.261 . S
C143 O152 1.247 . S
C143 O153 1.272 . S
O144 Co140 2.004 . S
O144 C149 1.259 . S
Co145 O146 2.061 . S
Co145 O151 2.052 . S
Co145 O153 2.135 . S
O146 Co145 2.061 . S
O146 C149 1.235 . S
C147 O150 1.238 . S
C147 O151 1.241 . S
C148 O141 1.247 . S
C148 O142 1.261 . S
C149 O144 1.259 . S
C149 O146 1.235 . S
O150 Co140 2.021 . S
O150 C147 1.238 . S
O151 Co145 2.052 . S
O151 C147 1.241 . S
O152 Co140 2.137 . S
O152 C143 1.247 . S
O153 Co140 2.244 . S
O153 C143 1.272 . S
O153 Co145 2.135 . S
Co154 O155 2.216 . S
Co154 O156 2.091 . S
Co154 O158 2.004 . S
Co154 O164 2.021 . S
Co154 O166 2.137 . S
Co154 O167 2.244 . S
O155 Co154 2.216 . S
O155 C162 1.247 . S
O156 Co154 2.091 . S
O156 C162 1.261 . S
C157 O166 1.247 . S
C157 O167 1.272 . S
O158 Co154 2.004 . S
O158 C163 1.259 . S
Co159 O160 2.061 . S
Co159 O165 2.052 . S
Co159 O167 2.135 . S
O160 Co159 2.061 . S
O160 C163 1.235 . S
C161 O164 1.238 . S
C161 O165 1.241 . S
C162 O155 1.247 . S
C162 O156 1.261 . S
C163 O158 1.259 . S
C163 O160 1.235 . S
O164 Co154 2.021 . S
O164 C161 1.238 . S
O165 Co159 2.052 . S
O165 C161 1.241 . S
O166 Co154 2.137 . S
O166 C157 1.247 . S
O167 Co154 2.244 . S
O167 C157 1.272 . S
O167 Co159 2.135 . S
C168 C169 1.391 . S
C168 C170 1.394 . S
C168 H184 0.931 . S
C169 C168 1.391 . S
C169 C173 1.376 . S
C170 C168 1.394 . S
C170 C171 1.369 . S
C170 C174 1.531 . S
C171 C170 1.369 . S
C171 C172 1.410 . S
C171 C179 1.503 . S
C172 C171 1.410 . S
C172 C173 1.392 . S
C172 C175 1.511 . S
C173 C169 1.376 . S
C173 C172 1.392 . S
C173 H185 0.929 . S
C174 C170 1.531 . S
C174 H186 0.960 . S
C174 H187 0.962 . S
C174 H188 0.960 . S
C175 C172 1.511 . S
C175 H189 0.961 . S
C175 H190 0.961 . S
C175 H191 0.961 . S
C176 C177 1.370 . S
C176 C178 1.363 . S
C176 H192 0.931 . S
C177 C176 1.370 . S
C177 C181 1.408 . S
C178 C176 1.363 . S
C178 C179 1.370 . S
C178 C182 1.524 . S
C179 C171 1.503 . S
C179 C178 1.370 . S
C179 C180 1.403 . S
C180 C179 1.403 . S
C180 C181 1.404 . S
C180 C183 1.539 . S
C181 C177 1.408 . S
C181 C180 1.404 . S
C181 H193 0.930 . S
C182 C178 1.524 . S
C182 H194 0.956 . S
C182 H195 0.961 . S
C182 H196 0.961 . S
C183 C180 1.539 . S
C183 H197 0.958 . S
C183 H198 0.961 . S
C183 H199 0.960 . S
H184 C168 0.931 . S
H185 C173 0.929 . S
H186 C174 0.960 . S
H187 C174 0.962 . S
H188 C174 0.960 . S
H189 C175 0.961 . S
H190 C175 0.961 . S
H191 C175 0.961 . S
H192 C176 0.931 . S
H193 C181 0.930 . S
H194 C182 0.956 . S
H195 C182 0.961 . S
H196 C182 0.961 . S
H197 C183 0.958 . S
H198 C183 0.961 . S
H199 C183 0.960 . S
C200 C201 1.391 . S
C200 C202 1.394 . S
C200 H216 0.931 . S
C201 C200 1.391 . S
C201 C205 1.376 . S
C202 C200 1.394 . S
C202 C203 1.369 . S
C202 C206 1.531 . S
C203 C202 1.369 . S
C203 C204 1.410 . S
C203 C211 1.503 . S
C204 C203 1.410 . S
C204 C205 1.392 . S
C204 C207 1.511 . S
C205 C201 1.376 . S
C205 C204 1.392 . S
C205 H217 0.929 . S
C206 C202 1.531 . S
C206 H218 0.960 . S
C206 H219 0.962 . S
C206 H220 0.960 . S
C207 C204 1.511 . S
C207 H221 0.961 . S
C207 H222 0.961 . S
C207 H223 0.961 . S
C208 C209 1.370 . S
C208 C210 1.363 . S
C208 H224 0.931 . S
C209 C208 1.370 . S
C209 C213 1.408 . S
C210 C208 1.363 . S
C210 C211 1.370 . S
C210 C214 1.524 . S
C211 C203 1.503 . S
C211 C210 1.370 . S
C211 C212 1.403 . S
C212 C211 1.403 . S
C212 C213 1.404 . S
C212 C215 1.539 . S
C213 C209 1.408 . S
C213 C212 1.404 . S
C213 H225 0.930 . S
C214 C210 1.524 . S
C214 H226 0.956 . S
C214 H227 0.961 . S
C214 H228 0.961 . S
C215 C212 1.539 . S
C215 H229 0.958 . S
C215 H230 0.961 . S
C215 H231 0.960 . S
H216 C200 0.931 . S
H217 C205 0.929 . S
H218 C206 0.960 . S
H219 C206 0.962 . S
H220 C206 0.960 . S
H221 C207 0.961 . S
H222 C207 0.961 . S
H223 C207 0.961 . S
H224 C208 0.931 . S
H225 C213 0.930 . S
H226 C214 0.956 . S
H227 C214 0.961 . S
H228 C214 0.961 . S
H229 C215 0.958 . S
H230 C215 0.961 . S
H231 C215 0.960 . S
C232 C233 1.391 . S
C232 C234 1.394 . S
C232 H248 0.931 . S
C233 C232 1.391 . S
C233 C237 1.376 . S
C234 C232 1.394 . S
C234 C235 1.369 . S
C234 C238 1.531 . S
C235 C234 1.369 . S
C235 C236 1.410 . S
C235 C243 1.503 . S
C236 C235 1.410 . S
C236 C237 1.392 . S
C236 C239 1.511 . S
C237 C233 1.376 . S
C237 C236 1.392 . S
C237 H249 0.929 . S
C238 C234 1.531 . S
C238 H250 0.960 . S
C238 H251 0.962 . S
C238 H252 0.960 . S
C239 C236 1.511 . S
C239 H253 0.961 . S
C239 H254 0.961 . S
C239 H255 0.961 . S
C240 C241 1.370 . S
C240 C242 1.363 . S
C240 H256 0.931 . S
C241 C240 1.370 . S
C241 C245 1.408 . S
C242 C240 1.363 . S
C242 C243 1.370 . S
C242 C246 1.524 . S
C243 C235 1.503 . S
C243 C242 1.370 . S
C243 C244 1.403 . S
C244 C243 1.403 . S
C244 C245 1.404 . S
C244 C247 1.539 . S
C245 C241 1.408 . S
C245 C244 1.404 . S
C245 H257 0.930 . S
C246 C242 1.524 . S
C246 H258 0.956 . S
C246 H259 0.961 . S
C246 H260 0.961 . S
C247 C244 1.539 . S
C247 H261 0.958 . S
C247 H262 0.961 . S
C247 H263 0.960 . S
H248 C232 0.931 . S
H249 C237 0.929 . S
H250 C238 0.960 . S
H251 C238 0.962 . S
H252 C238 0.960 . S
H253 C239 0.961 . S
H254 C239 0.961 . S
H255 C239 0.961 . S
H256 C240 0.931 . S
H257 C245 0.930 . S
H258 C246 0.956 . S
H259 C246 0.961 . S
H260 C246 0.961 . S
H261 C247 0.958 . S
H262 C247 0.961 . S
H263 C247 0.960 . S
C264 C265 1.391 . S
C264 C266 1.394 . S
C264 H280 0.931 . S
C265 C264 1.391 . S
C265 C269 1.376 . S
C266 C264 1.394 . S
C266 C267 1.369 . S
C266 C270 1.531 . S
C267 C266 1.369 . S
C267 C268 1.410 . S
C267 C275 1.503 . S
C268 C267 1.410 . S
C268 C269 1.392 . S
C268 C271 1.511 . S
C269 C265 1.376 . S
C269 C268 1.392 . S
C269 H281 0.929 . S
C270 C266 1.531 . S
C270 H282 0.960 . S
C270 H283 0.962 . S
C270 H284 0.960 . S
C271 C268 1.511 . S
C271 H285 0.961 . S
C271 H286 0.961 . S
C271 H287 0.961 . S
C272 C273 1.370 . S
C272 C274 1.363 . S
C272 H288 0.931 . S
C273 C272 1.370 . S
C273 C277 1.408 . S
C274 C272 1.363 . S
C274 C275 1.370 . S
C274 C278 1.524 . S
C275 C267 1.503 . S
C275 C274 1.370 . S
C275 C276 1.403 . S
C276 C275 1.403 . S
C276 C277 1.404 . S
C276 C279 1.539 . S
C277 C273 1.408 . S
C277 C276 1.404 . S
C277 H289 0.930 . S
C278 C274 1.524 . S
C278 H290 0.956 . S
C278 H291 0.961 . S
C278 H292 0.961 . S
C279 C276 1.539 . S
C279 H293 0.958 . S
C279 H294 0.961 . S
C279 H295 0.960 . S
H280 C264 0.931 . S
H281 C269 0.929 . S
H282 C270 0.960 . S
H283 C270 0.962 . S
H284 C270 0.960 . S
H285 C271 0.961 . S
H286 C271 0.961 . S
H287 C271 0.961 . S
H288 C272 0.931 . S
H289 C277 0.930 . S
H290 C278 0.956 . S
H291 C278 0.961 . S
H292 C278 0.961 . S
H293 C279 0.958 . S
H294 C279 0.961 . S
H295 C279 0.960 . S
C296 C297 1.391 . S
C296 C298 1.394 . S
C296 H312 0.931 . S
C297 C296 1.391 . S
C297 C301 1.376 . S
C298 C296 1.394 . S
C298 C299 1.369 . S
C298 C302 1.531 . S
C299 C298 1.369 . S
C299 C300 1.410 . S
C299 C307 1.503 . S
C300 C299 1.410 . S
C300 C301 1.392 . S
C300 C303 1.511 . S
C301 C297 1.376 . S
C301 C300 1.392 . S
C301 H313 0.929 . S
C302 C298 1.531 . S
C302 H314 0.960 . S
C302 H315 0.962 . S
C302 H316 0.960 . S
C303 C300 1.511 . S
C303 H317 0.961 . S
C303 H318 0.961 . S
C303 H319 0.961 . S
C304 C305 1.370 . S
C304 C306 1.363 . S
C304 H320 0.931 . S
C305 C304 1.370 . S
C305 C309 1.408 . S
C306 C304 1.363 . S
C306 C307 1.370 . S
C306 C310 1.524 . S
C307 C299 1.503 . S
C307 C306 1.370 . S
C307 C308 1.403 . S
C308 C307 1.403 . S
C308 C309 1.404 . S
C308 C311 1.539 . S
C309 C305 1.408 . S
C309 C308 1.404 . S
C309 H321 0.930 . S
C310 C306 1.524 . S
C310 H322 0.956 . S
C310 H323 0.961 . S
C310 H324 0.961 . S
C311 C308 1.539 . S
C311 H325 0.958 . S
C311 H326 0.961 . S
C311 H327 0.960 . S
H312 C296 0.931 . S
H313 C301 0.929 . S
H314 C302 0.960 . S
H315 C302 0.962 . S
H316 C302 0.960 . S
H317 C303 0.961 . S
H318 C303 0.961 . S
H319 C303 0.961 . S
H320 C304 0.931 . S
H321 C309 0.930 . S
H322 C310 0.956 . S
H323 C310 0.961 . S
H324 C310 0.961 . S
H325 C311 0.958 . S
H326 C311 0.961 . S
H327 C311 0.960 . S
C328 C329 1.391 . S
C328 C330 1.394 . S
C328 H344 0.931 . S
C329 C328 1.391 . S
C329 C333 1.376 . S
C330 C328 1.394 . S
C330 C331 1.369 . S
C330 C334 1.531 . S
C331 C330 1.369 . S
C331 C332 1.410 . S
C331 C339 1.503 . S
C332 C331 1.410 . S
C332 C333 1.392 . S
C332 C335 1.511 . S
C333 C329 1.376 . S
C333 C332 1.392 . S
C333 H345 0.929 . S
C334 C330 1.531 . S
C334 H346 0.960 . S
C334 H347 0.962 . S
C334 H348 0.960 . S
C335 C332 1.511 . S
C335 H349 0.961 . S
C335 H350 0.961 . S
C335 H351 0.961 . S
C336 C337 1.370 . S
C336 C338 1.363 . S
C336 H352 0.931 . S
C337 C336 1.370 . S
C337 C341 1.408 . S
C338 C336 1.363 . S
C338 C339 1.370 . S
C338 C342 1.524 . S
C339 C331 1.503 . S
C339 C338 1.370 . S
C339 C340 1.403 . S
C340 C339 1.403 . S
C340 C341 1.404 . S
C340 C343 1.539 . S
C341 C337 1.408 . S
C341 C340 1.404 . S
C341 H353 0.930 . S
C342 C338 1.524 . S
C342 H354 0.956 . S
C342 H355 0.961 . S
C342 H356 0.961 . S
C343 C340 1.539 . S
C343 H357 0.958 . S
C343 H358 0.961 . S
C343 H359 0.960 . S
H344 C328 0.931 . S
H345 C333 0.929 . S
H346 C334 0.960 . S
H347 C334 0.962 . S
H348 C334 0.960 . S
H349 C335 0.961 . S
H350 C335 0.961 . S
H351 C335 0.961 . S
H352 C336 0.931 . S
H353 C341 0.930 . S
H354 C342 0.956 . S
H355 C342 0.961 . S
H356 C342 0.961 . S
H357 C343 0.958 . S
H358 C343 0.961 . S
H359 C343 0.960 . S
C360 C361 1.391 . S
C360 C362 1.394 . S
C360 H376 0.931 . S
C361 C360 1.391 . S
C361 C365 1.376 . S
C362 C360 1.394 . S
C362 C363 1.369 . S
C362 C366 1.531 . S
C363 C362 1.369 . S
C363 C364 1.410 . S
C363 C371 1.503 . S
C364 C363 1.410 . S
C364 C365 1.392 . S
C364 C367 1.511 . S
C365 C361 1.376 . S
C365 C364 1.392 . S
C365 H377 0.929 . S
C366 C362 1.531 . S
C366 H378 0.960 . S
C366 H379 0.962 . S
C366 H380 0.960 . S
C367 C364 1.511 . S
C367 H381 0.961 . S
C367 H382 0.961 . S
C367 H383 0.961 . S
C368 C369 1.370 . S
C368 C370 1.363 . S
C368 H384 0.931 . S
C369 C368 1.370 . S
C369 C373 1.408 . S
C370 C368 1.363 . S
C370 C371 1.370 . S
C370 C374 1.524 . S
C371 C363 1.503 . S
C371 C370 1.370 . S
C371 C372 1.403 . S
C372 C371 1.403 . S
C372 C373 1.404 . S
C372 C375 1.539 . S
C373 C369 1.408 . S
C373 C372 1.404 . S
C373 H385 0.930 . S
C374 C370 1.524 . S
C374 H386 0.956 . S
C374 H387 0.961 . S
C374 H388 0.961 . S
C375 C372 1.539 . S
C375 H389 0.958 . S
C375 H390 0.961 . S
C375 H391 0.960 . S
H376 C360 0.931 . S
H377 C365 0.929 . S
H378 C366 0.960 . S
H379 C366 0.962 . S
H380 C366 0.960 . S
H381 C367 0.961 . S
H382 C367 0.961 . S
H383 C367 0.961 . S
H384 C368 0.931 . S
H385 C373 0.930 . S
H386 C374 0.956 . S
H387 C374 0.961 . S
H388 C374 0.961 . S
H389 C375 0.958 . S
H390 C375 0.961 . S
H391 C375 0.960 . S
C392 C393 1.391 . S
C392 C394 1.394 . S
C392 H408 0.931 . S
C393 C392 1.391 . S
C393 C397 1.376 . S
C394 C392 1.394 . S
C394 C395 1.369 . S
C394 C398 1.531 . S
C395 C394 1.369 . S
C395 C396 1.410 . S
C395 C403 1.503 1_655 S
C396 C395 1.410 . S
C396 C397 1.392 . S
C396 C399 1.511 1_655 S
C397 C393 1.376 . S
C397 C396 1.392 . S
C397 H409 0.929 . S
C398 C394 1.531 . S
C398 H410 0.960 . S
C398 H411 0.962 . S
C398 H412 0.960 . S
C399 C396 1.511 1_455 S
C399 H413 0.961 . S
C399 H414 0.961 . S
C399 H415 0.961 . S
C400 C401 1.370 . S
C400 C402 1.363 . S
C400 H416 0.931 . S
C401 C400 1.370 . S
C401 C405 1.408 . S
C402 C400 1.363 . S
C402 C403 1.370 . S
C402 C406 1.524 . S
C403 C395 1.503 1_455 S
C403 C402 1.370 . S
C403 C404 1.403 . S
C404 C403 1.403 . S
C404 C405 1.404 . S
C404 C407 1.539 . S
C405 C401 1.408 . S
C405 C404 1.404 . S
C405 H417 0.930 . S
C406 C402 1.524 . S
C406 H418 0.956 1_455 S
C406 H419 0.961 . S
C406 H420 0.961 . S
C407 C404 1.539 . S
C407 H421 0.958 . S
C407 H422 0.961 . S
C407 H423 0.960 . S
H408 C392 0.931 . S
H409 C397 0.929 . S
H410 C398 0.960 . S
H411 C398 0.962 . S
H412 C398 0.960 . S
H413 C399 0.961 . S
H414 C399 0.961 . S
H415 C399 0.961 . S
H416 C400 0.931 . S
H417 C405 0.930 . S
H418 C406 0.956 1_655 S
H419 C406 0.961 . S
H420 C406 0.961 . S
H421 C407 0.958 . S
H422 C407 0.961 . S
H423 C407 0.960 . S
C424 C425 1.391 . S
C424 C426 1.394 . S
C424 H440 0.931 . S
C425 C424 1.391 . S
C425 C429 1.376 . S
C426 C424 1.394 . S
C426 C427 1.369 . S
C426 C430 1.531 . S
C427 C426 1.369 . S
C427 C428 1.410 . S
C427 C435 1.503 1_545 S
C428 C427 1.410 . S
C428 C429 1.392 . S
C428 C431 1.511 1_545 S
C429 C425 1.376 . S
C429 C428 1.392 . S
C429 H441 0.929 . S
C430 C426 1.531 . S
C430 H442 0.960 . S
C430 H443 0.962 . S
C430 H444 0.960 . S
C431 C428 1.511 1_565 S
C431 H445 0.961 . S
C431 H446 0.961 . S
C431 H447 0.961 . S
C432 C433 1.370 . S
C432 C434 1.363 . S
C432 H448 0.931 . S
C433 C432 1.370 . S
C433 C437 1.408 . S
C434 C432 1.363 . S
C434 C435 1.370 . S
C434 C438 1.524 . S
C435 C427 1.503 1_565 S
C435 C434 1.370 . S
C435 C436 1.403 . S
C436 C435 1.403 . S
C436 C437 1.404 . S
C436 C439 1.539 . S
C437 C433 1.408 . S
C437 C436 1.404 . S
C437 H449 0.930 . S
C438 C434 1.524 . S
C438 H450 0.956 1_565 S
C438 H451 0.961 . S
C438 H452 0.961 . S
C439 C436 1.539 . S
C439 H453 0.958 1_565 S
C439 H454 0.961 . S
C439 H455 0.960 1_565 S
H440 C424 0.931 . S
H441 C429 0.929 . S
H442 C430 0.960 . S
H443 C430 0.962 . S
H444 C430 0.960 . S
H445 C431 0.961 . S
H446 C431 0.961 . S
H447 C431 0.961 . S
H448 C432 0.931 . S
H449 C437 0.930 . S
H450 C438 0.956 1_545 S
H451 C438 0.961 . S
H452 C438 0.961 . S
H453 C439 0.958 1_545 S
H454 C439 0.961 . S
H455 C439 0.960 1_545 S
C456 C457 1.391 . S
C456 C458 1.394 . S
C456 H472 0.931 . S
C457 C456 1.391 . S
C457 C461 1.376 . S
C458 C456 1.394 . S
C458 C459 1.369 . S
C458 C462 1.531 . S
C459 C458 1.369 . S
C459 C460 1.410 . S
C459 C467 1.503 . S
C460 C459 1.410 . S
C460 C461 1.392 . S
C460 C463 1.511 . S
C461 C457 1.376 . S
C461 C460 1.392 . S
C461 H473 0.929 . S
C462 C458 1.531 . S
C462 H474 0.960 . S
C462 H475 0.962 . S
C462 H476 0.960 . S
C463 C460 1.511 . S
C463 H477 0.961 . S
C463 H478 0.961 . S
C463 H479 0.961 . S
C464 C465 1.370 . S
C464 C466 1.363 . S
C464 H480 0.931 . S
C465 C464 1.370 . S
C465 C469 1.408 . S
C466 C464 1.363 . S
C466 C467 1.370 . S
C466 C470 1.524 . S
C467 C459 1.503 . S
C467 C466 1.370 . S
C467 C468 1.403 . S
C468 C467 1.403 . S
C468 C469 1.404 . S
C468 C471 1.539 . S
C469 C465 1.408 . S
C469 C468 1.404 . S
C469 H481 0.930 . S
C470 C466 1.524 . S
C470 H482 0.956 . S
C470 H483 0.961 . S
C470 H484 0.961 . S
C471 C468 1.539 . S
C471 H485 0.958 . S
C471 H486 0.961 . S
C471 H487 0.960 . S
H472 C456 0.931 . S
H473 C461 0.929 . S
H474 C462 0.960 . S
H475 C462 0.962 . S
H476 C462 0.960 . S
H477 C463 0.961 . S
H478 C463 0.961 . S
H479 C463 0.961 . S
H480 C464 0.931 . S
H481 C469 0.930 . S
H482 C470 0.956 . S
H483 C470 0.961 . S
H484 C470 0.961 . S
H485 C471 0.958 . S
H486 C471 0.961 . S
H487 C471 0.960 . S
C488 C489 1.391 . S
C488 C490 1.394 . S
C488 H504 0.931 . S
C489 C488 1.391 . S
C489 C493 1.376 . S
C490 C488 1.394 . S
C490 C491 1.369 . S
C490 C494 1.531 . S
C491 C490 1.369 . S
C491 C492 1.410 . S
C491 C499 1.503 1_655 S
C492 C491 1.410 . S
C492 C493 1.392 . S
C492 C495 1.511 . S
C493 C489 1.376 . S
C493 C492 1.392 . S
C493 H505 0.929 . S
C494 C490 1.531 . S
C494 H506 0.960 1_655 S
C494 H507 0.962 . S
C494 H508 0.960 . S
C495 C492 1.511 . S
C495 H509 0.961 . S
C495 H510 0.961 . S
C495 H511 0.942 1_655 S
C496 C497 1.370 . S
C496 C498 1.363 . S
C496 H512 0.931 . S
C497 C496 1.370 . S
C497 C501 1.408 . S
C498 C496 1.363 . S
C498 C499 1.370 . S
C498 C502 1.524 1_455 S
C499 C491 1.503 1_455 S
C499 C498 1.370 . S
C499 C500 1.403 . S
C500 C499 1.403 . S
C500 C501 1.404 . S
C500 C503 1.539 . S
C501 C497 1.408 . S
C501 C500 1.404 . S
C501 H513 0.930 . S
C502 C498 1.524 1_655 S
C502 H514 0.956 . S
C502 H515 0.961 . S
C502 H516 0.961 . S
C503 C500 1.539 . S
C503 H517 0.958 . S
C503 H518 0.961 . S
C503 H519 0.960 . S
H504 C488 0.931 . S
H505 C493 0.929 . S
H506 C494 0.960 1_455 S
H507 C494 0.962 . S
H508 C494 0.960 . S
H509 C495 0.961 . S
H510 C495 0.961 . S
H511 C495 0.942 1_455 S
H512 C496 0.931 . S
H513 C501 0.930 . S
H514 C502 0.956 . S
H515 C502 0.961 . S
H516 C502 0.961 . S
H517 C503 0.958 . S
H518 C503 0.961 . S
H519 C503 0.960 . S
C520 C521 1.391 . S
C520 C522 1.394 . S
C520 H536 0.931 . S
C521 C520 1.391 . S
C521 C525 1.376 . S
C522 C520 1.394 . S
C522 C523 1.369 . S
C522 C526 1.527 1_554 S
C523 C522 1.369 . S
C523 C524 1.410 . S
C523 C531 1.503 1_564 S
C524 C523 1.410 . S
C524 C525 1.392 . S
C524 C527 1.511 . S
C525 C521 1.376 . S
C525 C524 1.392 . S
C525 H537 0.929 . S
C526 C522 1.527 1_556 S
C526 H538 0.970 . S
C526 H539 0.954 1_556 S
C526 H540 0.962 . S
C527 C524 1.511 . S
C527 H541 0.961 . S
C527 H542 0.961 1_565 S
C527 H543 0.961 1_554 S
C528 C529 1.370 . S
C528 C530 1.363 1_556 S
C528 H544 0.931 . S
C529 C528 1.370 . S
C529 C533 1.408 . S
C530 C528 1.363 1_554 S
C530 C531 1.370 1_554 S
C530 C534 1.524 . S
C531 C523 1.503 1_546 S
C531 C530 1.370 1_556 S
C531 C532 1.403 . S
C532 C531 1.403 . S
C532 C533 1.404 . S
C532 C535 1.539 1_545 S
C533 C529 1.408 . S
C533 C532 1.404 . S
C533 H545 0.930 . S
C534 C530 1.524 . S
C534 H546 0.956 . S
C534 H547 0.961 . S
C534 H548 0.961 . S
C535 C532 1.539 1_565 S
C535 H549 0.958 . S
C535 H550 0.961 . S
C535 H551 0.960 . S
H536 C520 0.931 . S
H537 C525 0.929 . S
H538 C526 0.970 . S
H539 C526 0.954 1_554 S
H540 C526 0.962 . S
H541 C527 0.961 . S
H542 C527 0.961 1_545 S
H543 C527 0.961 1_556 S
H544 C528 0.931 . S
H545 C533 0.930 . S
H546 C534 0.956 . S
H547 C534 0.961 . S
H548 C534 0.961 . S
H549 C535 0.958 . S
H550 C535 0.961 . S
H551 C535 0.960 . S
C552 C553 1.391 . S
C552 C554 1.394 . S
C552 H568 0.931 . S
C553 C552 1.391 . S
C553 C557 1.376 . S
C554 C552 1.394 . S
C554 C555 1.369 . S
C554 C558 1.531 . S
C555 C554 1.369 . S
C555 C556 1.410 . S
C555 C563 1.503 . S
C556 C555 1.410 . S
C556 C557 1.392 . S
C556 C559 1.511 1_554 S
C557 C553 1.376 . S
C557 C556 1.392 . S
C557 H569 0.929 . S
C558 C554 1.531 . S
C558 H570 0.960 . S
C558 H571 0.962 . S
C558 H572 0.960 . S
C559 C556 1.511 1_556 S
C559 H573 0.961 . S
C559 H574 0.961 . S
C559 H575 0.961 . S
C560 C561 1.370 . S
C560 C562 1.363 . S
C560 H576 0.931 . S
C561 C560 1.370 . S
C561 C565 1.408 . S
C562 C560 1.363 . S
C562 C563 1.370 1_556 S
C562 C566 1.524 1_556 S
C563 C555 1.503 . S
C563 C562 1.370 1_554 S
C563 C564 1.387 1_554 S
C564 C563 1.387 1_556 S
C564 C565 1.449 . S
C564 C567 1.516 1_556 S
C565 C561 1.408 . S
C565 C564 1.449 . S
C565 H577 0.930 . S
C566 C562 1.524 1_554 S
C566 H578 0.956 . S
C566 H579 0.961 . S
C566 H580 0.961 1_554 S
C567 C564 1.516 1_554 S
C567 H581 0.958 . S
C567 H582 0.961 1_554 S
C567 H583 0.960 . S
H568 C552 0.931 . S
H569 C557 0.929 . S
H570 C558 0.960 . S
H571 C558 0.962 . S
H572 C558 0.960 . S
H573 C559 0.961 . S
H574 C559 0.961 . S
H575 C559 0.961 . S
H576 C560 0.931 . S
H577 C565 0.930 . S
H578 C566 0.956 . S
H579 C566 0.961 . S
H580 C566 0.961 1_556 S
H581 C567 0.958 . S
H582 C567 0.961 1_556 S
H583 C567 0.960 . S
C584 C585 1.391 . S
C584 C586 1.394 . S
C584 H600 0.931 . S
C585 C584 1.391 . S
C585 C589 1.376 . S
C586 C584 1.394 . S
C586 C587 1.369 . S
C586 C590 1.531 . S
C587 C586 1.369 . S
C587 C588 1.410 . S
C587 C595 1.503 . S
C588 C587 1.410 . S
C588 C589 1.392 . S
C588 C591 1.511 . S
C589 C585 1.376 . S
C589 C588 1.392 . S
C589 H601 0.929 . S
C590 C586 1.531 . S
C590 H602 0.960 . S
C590 H603 0.962 . S
C590 H604 0.960 . S
C591 C588 1.511 . S
C591 H605 0.961 . S
C591 H606 0.961 1_655 S
C591 H607 0.961 1_655 S
C592 C593 1.370 1_655 S
C592 C594 1.363 . S
C592 H608 0.931 . S
C593 C592 1.370 1_455 S
C593 C597 1.408 . S
C594 C592 1.363 . S
C594 C595 1.370 . S
C594 C598 1.524 . S
C595 C587 1.503 . S
C595 C594 1.370 . S
C595 C596 1.403 . S
C596 C595 1.403 . S
C596 C597 1.404 1_655 S
C596 C599 1.539 . S
C597 C593 1.408 . S
C597 C596 1.404 1_455 S
C597 H609 0.930 . S
C598 C594 1.524 . S
C598 H610 0.956 . S
C598 H611 0.961 . S
C598 H612 0.961 . S
C599 C596 1.539 . S
C599 H613 0.958 . S
C599 H614 0.961 1_655 S
C599 H615 0.960 . S
H600 C584 0.931 . S
H601 C589 0.929 . S
H602 C590 0.960 . S
H603 C590 0.962 . S
H604 C590 0.960 . S
H605 C591 0.961 . S
H606 C591 0.961 1_455 S
H607 C591 0.961 1_455 S
H608 C592 0.931 . S
H609 C597 0.930 . S
H610 C598 0.956 . S
H611 C598 0.961 . S
H612 C598 0.961 . S
H613 C599 0.958 . S
H614 C599 0.961 1_455 S
H615 C599 0.960 . S
C616 C617 1.391 . S
C616 C618 1.394 1_545 S
C616 H632 0.931 . S
C617 C616 1.391 . S
C617 C621 1.376 1_545 S
C618 C616 1.394 1_565 S
C618 C619 1.369 . S
C618 C622 1.531 . S
C619 C618 1.369 . S
C619 C620 1.410 . S
C619 C627 1.503 . S
C620 C619 1.410 . S
C620 C621 1.392 . S
C620 C623 1.511 . S
C621 C617 1.376 1_565 S
C621 C620 1.392 . S
C621 H633 0.929 . S
C622 C618 1.531 . S
C622 H634 0.960 . S
C622 H635 0.962 . S
C622 H636 0.960 1_565 S
C623 C620 1.511 . S
C623 H637 0.961 . S
C623 H638 0.961 . S
C623 H639 0.961 . S
C624 C625 1.370 . S
C624 C626 1.363 . S
C624 H640 0.931 . S
C625 C624 1.370 . S
C625 C629 1.408 . S
C626 C624 1.363 . S
C626 C627 1.370 . S
C626 C630 1.524 . S
C627 C619 1.503 . S
C627 C626 1.370 . S
C627 C628 1.403 . S
C628 C627 1.403 . S
C628 C629 1.404 . S
C628 C631 1.539 . S
C629 C625 1.408 . S
C629 C628 1.404 . S
C629 H641 0.930 . S
C630 C626 1.524 . S
C630 H642 0.956 . S
C630 H643 0.961 . S
C630 H644 0.961 . S
C631 C628 1.539 . S
C631 H645 0.958 1_565 S
C631 H646 0.961 . S
C631 H647 0.960 . S
H632 C616 0.931 . S
H633 C621 0.929 . S
H634 C622 0.960 . S
H635 C622 0.962 . S
H636 C622 0.960 1_545 S
H637 C623 0.961 . S
H638 C623 0.961 . S
H639 C623 0.961 . S
H640 C624 0.931 . S
H641 C629 0.930 . S
H642 C630 0.956 . S
H643 C630 0.961 . S
H644 C630 0.961 . S
H645 C631 0.958 1_545 S
H646 C631 0.961 . S
H647 C631 0.960 . S
C648 C649 1.391 . S
C648 C650 1.394 . S
C648 H664 0.931 . S
C649 C648 1.391 . S
C649 C653 1.376 . S
C650 C648 1.394 . S
C650 C651 1.369 . S
C650 C654 1.531 . S
C651 C650 1.369 . S
C651 C652 1.410 . S
C651 C659 1.503 . S
C652 C651 1.410 . S
C652 C653 1.392 . S
C652 C655 1.511 . S
C653 C649 1.376 . S
C653 C652 1.392 . S
C653 H665 0.929 . S
C654 C650 1.531 . S
C654 H666 0.960 . S
C654 H667 0.962 . S
C654 H668 0.960 . S
C655 C652 1.511 . S
C655 H669 0.961 . S
C655 H670 0.961 . S
C655 H671 0.961 . S
C656 C657 1.370 . S
C656 C658 1.363 . S
C656 H672 0.931 . S
C657 C656 1.370 . S
C657 C661 1.408 . S
C658 C656 1.363 . S
C658 C659 1.370 . S
C658 C662 1.524 . S
C659 C651 1.503 . S
C659 C658 1.370 . S
C659 C660 1.403 . S
C660 C659 1.403 . S
C660 C661 1.404 . S
C660 C663 1.539 . S
C661 C657 1.408 . S
C661 C660 1.404 . S
C661 H673 0.930 . S
C662 C658 1.524 . S
C662 H674 0.956 . S
C662 H675 0.961 . S
C662 H676 0.961 . S
C663 C660 1.539 . S
C663 H677 0.958 . S
C663 H678 0.961 . S
C663 H679 0.960 . S
H664 C648 0.931 . S
H665 C653 0.929 . S
H666 C654 0.960 . S
H667 C654 0.962 . S
H668 C654 0.960 . S
H669 C655 0.961 . S
H670 C655 0.961 . S
H671 C655 0.961 . S
H672 C656 0.931 . S
H673 C661 0.930 . S
H674 C662 0.956 . S
H675 C662 0.961 . S
H676 C662 0.961 . S
H677 C663 0.958 . S
H678 C663 0.961 . S
H679 C663 0.960 . S
C680 C681 1.391 . S
C680 C682 1.394 . S
C680 H696 0.931 . S
C681 C680 1.391 . S
C681 C685 1.376 . S
C682 C680 1.394 . S
C682 C683 1.369 . S
C682 C686 1.531 . S
C683 C682 1.369 . S
C683 C684 1.410 . S
C683 C691 1.503 . S
C684 C683 1.410 . S
C684 C685 1.392 . S
C684 C687 1.511 . S
C685 C681 1.376 . S
C685 C684 1.392 . S
C685 H697 0.929 . S
C686 C682 1.531 . S
C686 H698 0.960 1_455 S
C686 H699 0.965 1_455 S
C686 H700 0.954 1_455 S
C687 C684 1.511 . S
C687 H701 0.961 . S
C687 H702 0.961 . S
C687 H703 0.961 . S
C688 C689 1.370 1_455 S
C688 C690 1.363 . S
C688 H704 0.940 1_455 S
C689 C688 1.370 1_655 S
C689 C693 1.408 . S
C690 C688 1.363 . S
C690 C691 1.370 . S
C690 C694 1.524 . S
C691 C683 1.503 . S
C691 C690 1.370 . S
C691 C692 1.403 . S
C692 C691 1.403 . S
C692 C693 1.404 1_455 S
C692 C695 1.539 . S
C693 C689 1.408 . S
C693 C692 1.404 1_655 S
C693 H705 0.930 . S
C694 C690 1.524 . S
C694 H706 0.956 . S
C694 H707 0.961 . S
C694 H708 0.961 . S
C695 C692 1.539 . S
C695 H709 0.958 . S
C695 H710 0.961 . S
C695 H711 0.960 . S
H696 C680 0.931 . S
H697 C685 0.929 . S
H698 C686 0.960 1_655 S
H699 C686 0.965 1_655 S
H700 C686 0.954 1_655 S
H701 C687 0.961 . S
H702 C687 0.961 . S
H703 C687 0.961 . S
H704 C688 0.940 1_655 S
H705 C693 0.930 . S
H706 C694 0.956 . S
H707 C694 0.961 . S
H708 C694 0.961 . S
H709 C695 0.958 . S
H710 C695 0.961 . S
H711 C695 0.960 . S
C712 C713 1.391 . S
C712 C714 1.394 . S
C712 H728 0.931 . S
C713 C712 1.391 . S
C713 C717 1.376 . S
C714 C712 1.394 . S
C714 C715 1.369 . S
C714 C718 1.531 . S
C715 C714 1.369 . S
C715 C716 1.410 . S
C715 C723 1.503 . S
C716 C715 1.410 . S
C716 C717 1.392 . S
C716 C719 1.511 . S
C717 C713 1.376 . S
C717 C716 1.392 . S
C717 H729 0.929 . S
C718 C714 1.531 . S
C718 H730 0.960 1_545 S
C718 H731 0.962 1_545 S
C718 H732 0.961 1_545 S
C719 C716 1.511 . S
C719 H733 0.961 . S
C719 H734 0.961 . S
C719 H735 0.961 . S
C720 C721 1.370 1_545 S
C720 C722 1.363 . S
C720 H736 0.931 1_545 S
C721 C720 1.370 1_565 S
C721 C725 1.408 . S
C722 C720 1.363 . S
C722 C723 1.370 . S
C722 C726 1.524 . S
C723 C715 1.503 . S
C723 C722 1.370 . S
C723 C724 1.403 . S
C724 C723 1.403 . S
C724 C725 1.404 1_545 S
C724 C727 1.539 . S
C725 C721 1.408 . S
C725 C724 1.404 1_565 S
C725 H737 0.930 . S
C726 C722 1.524 . S
C726 H738 0.956 . S
C726 H739 0.961 . S
C726 H740 0.961 . S
C727 C724 1.539 . S
C727 H741 0.958 . S
C727 H742 0.961 . S
C727 H743 0.960 . S
H728 C712 0.931 . S
H729 C717 0.929 . S
H730 C718 0.960 1_565 S
H731 C718 0.962 1_565 S
H732 C718 0.961 1_565 S
H733 C719 0.961 . S
H734 C719 0.961 . S
H735 C719 0.961 . S
H736 C720 0.931 1_565 S
H737 C725 0.930 . S
H738 C726 0.956 . S
H739 C726 0.961 . S
H740 C726 0.961 . S
H741 C727 0.958 . S
H742 C727 0.961 . S
H743 C727 0.960 . S
C744 C745 1.391 . S
C744 C746 1.394 . S
C744 H760 0.931 . S
C745 C744 1.391 . S
C745 C749 1.376 . S
C746 C744 1.394 . S
C746 C747 1.369 . S
C746 C750 1.531 . S
C747 C746 1.369 . S
C747 C748 1.410 . S
C747 C755 1.503 . S
C748 C747 1.410 . S
C748 C749 1.392 . S
C748 C751 1.511 . S
C749 C745 1.376 . S
C749 C748 1.392 . S
C749 H761 0.929 . S
C750 C746 1.531 . S
C750 H762 0.960 . S
C750 H763 0.962 . S
C750 H764 0.960 . S
C751 C748 1.511 . S
C751 H765 0.961 . S
C751 H766 0.961 . S
C751 H767 0.961 . S
C752 C753 1.370 . S
C752 C754 1.363 . S
C752 H768 0.931 . S
C753 C752 1.370 . S
C753 C757 1.408 . S
C754 C752 1.363 . S
C754 C755 1.370 . S
C754 C758 1.524 . S
C755 C747 1.503 . S
C755 C754 1.370 . S
C755 C756 1.403 . S
C756 C755 1.403 . S
C756 C757 1.404 . S
C756 C759 1.539 . S
C757 C753 1.408 . S
C757 C756 1.404 . S
C757 H769 0.930 . S
C758 C754 1.524 . S
C758 H770 0.956 . S
C758 H771 0.961 . S
C758 H772 0.961 . S
C759 C756 1.539 . S
C759 H773 0.958 . S
C759 H774 0.961 . S
C759 H775 0.960 . S
H760 C744 0.931 . S
H761 C749 0.929 . S
H762 C750 0.960 . S
H763 C750 0.962 . S
H764 C750 0.960 . S
H765 C751 0.961 . S
H766 C751 0.961 . S
H767 C751 0.961 . S
H768 C752 0.931 . S
H769 C757 0.930 . S
H770 C758 0.956 . S
H771 C758 0.961 . S
H772 C758 0.961 . S
H773 C759 0.958 . S
H774 C759 0.961 . S
H775 C759 0.960 . S
C776 C777 1.391 . S
C776 C778 1.394 . S
C776 H792 0.931 . S
C777 C776 1.391 . S
C777 C781 1.376 . S
C778 C776 1.394 . S
C778 C779 1.369 . S
C778 C782 1.531 . S
C779 C778 1.369 . S
C779 C780 1.410 . S
C779 C787 1.503 . S
C780 C779 1.410 . S
C780 C781 1.392 . S
C780 C783 1.511 . S
C781 C777 1.376 . S
C781 C780 1.392 . S
C781 H793 0.929 . S
C782 C778 1.531 . S
C782 H794 0.960 . S
C782 H795 0.962 . S
C782 H796 0.960 . S
C783 C780 1.511 . S
C783 H797 0.961 . S
C783 H798 0.961 . S
C783 H799 0.961 1_556 S
C784 C785 1.370 . S
C784 C786 1.363 1_454 S
C784 H800 0.931 . S
C785 C784 1.370 . S
C785 C789 1.408 1_455 S
C786 C784 1.363 1_656 S
C786 C787 1.370 . S
C786 C790 1.524 . S
C787 C779 1.503 . S
C787 C786 1.370 . S
C787 C788 1.403 1_556 S
C788 C787 1.403 1_554 S
C788 C789 1.404 . S
C788 C791 1.539 . S
C789 C785 1.408 1_655 S
C789 C788 1.404 . S
C789 H801 0.930 . S
C790 C786 1.524 . S
C790 H802 0.956 1_655 S
C790 H803 0.961 . S
C790 H804 0.961 1_655 S
C791 C788 1.539 . S
C791 H805 0.958 . S
C791 H806 0.961 . S
C791 H807 0.960 . S
H792 C776 0.931 . S
H793 C781 0.929 . S
H794 C782 0.960 . S
H795 C782 0.962 . S
H796 C782 0.960 . S
H797 C783 0.961 . S
H798 C783 0.961 . S
H799 C783 0.961 1_554 S
H800 C784 0.931 . S
H801 C789 0.930 . S
H802 C790 0.956 1_455 S
H803 C790 0.961 . S
H804 C790 0.961 1_455 S
H805 C791 0.958 . S
H806 C791 0.961 . S
H807 C791 0.960 . S
C808 C809 1.391 . S
C808 C810 1.394 . S
C808 H824 0.931 . S
C809 C808 1.391 . S
C809 C813 1.376 . S
C810 C808 1.394 . S
C810 C811 1.369 . S
C810 C814 1.531 . S
C811 C810 1.369 . S
C811 C812 1.410 . S
C811 C819 1.503 . S
C812 C811 1.410 . S
C812 C813 1.392 . S
C812 C815 1.511 . S
C813 C809 1.376 . S
C813 C812 1.392 . S
C813 H825 0.929 . S
C814 C810 1.531 . S
C814 H826 0.960 1_565 S
C814 H827 0.962 . S
C814 H828 0.960 . S
C815 C812 1.511 . S
C815 H829 0.961 . S
C815 H830 0.961 . S
C815 H831 0.961 . S
C816 C817 1.370 1_565 S
C816 C818 1.363 . S
C816 H832 0.931 . S
C817 C816 1.370 1_545 S
C817 C821 1.408 . S
C818 C816 1.363 . S
C818 C819 1.370 . S
C818 C822 1.524 . S
C819 C811 1.503 . S
C819 C818 1.370 . S
C819 C820 1.403 . S
C820 C819 1.403 . S
C820 C821 1.404 1_565 S
C820 C823 1.539 1_565 S
C821 C817 1.408 . S
C821 C820 1.404 1_545 S
C821 H833 0.930 . S
C822 C818 1.524 . S
C822 H834 0.956 . S
C822 H835 0.961 . S
C822 H836 0.961 . S
C823 C820 1.539 1_545 S
C823 H837 0.958 . S
C823 H838 0.961 . S
C823 H839 0.960 1_545 S
H824 C808 0.931 . S
H825 C813 0.929 . S
H826 C814 0.960 1_545 S
H827 C814 0.962 . S
H828 C814 0.960 . S
H829 C815 0.961 . S
H830 C815 0.961 . S
H831 C815 0.961 . S
H832 C816 0.931 . S
H833 C821 0.930 . S
H834 C822 0.956 . S
H835 C822 0.961 . S
H836 C822 0.961 . S
H837 C823 0.958 . S
H838 C823 0.961 . S
H839 C823 0.960 1_565 S
C840 C841 1.391 . S
C840 C842 1.394 . S
C840 H856 0.931 . S
C841 C840 1.391 . S
C841 C845 1.376 . S
C842 C840 1.394 . S
C842 C843 1.369 . S
C842 C846 1.531 . S
C843 C842 1.369 . S
C843 C844 1.410 . S
C843 C851 1.503 . S
C844 C843 1.410 . S
C844 C845 1.392 . S
C844 C847 1.511 . S
C845 C841 1.376 . S
C845 C844 1.392 . S
C845 H857 0.929 . S
C846 C842 1.531 . S
C846 H858 0.960 . S
C846 H859 0.962 . S
C846 H860 0.960 . S
C847 C844 1.511 . S
C847 H861 0.961 . S
C847 H862 0.961 . S
C847 H863 0.961 . S
C848 C849 1.370 . S
C848 C850 1.363 . S
C848 H864 0.931 . S
C849 C848 1.370 . S
C849 C853 1.408 . S
C850 C848 1.363 . S
C850 C851 1.370 . S
C850 C854 1.524 . S
C851 C843 1.503 . S
C851 C850 1.370 . S
C851 C852 1.403 . S
C852 C851 1.403 . S
C852 C853 1.404 . S
C852 C855 1.539 . S
C853 C849 1.408 . S
C853 C852 1.404 . S
C853 H865 0.930 . S
C854 C850 1.524 . S
C854 H866 0.956 . S
C854 H867 0.961 . S
C854 H868 0.961 . S
C855 C852 1.539 . S
C855 H869 0.958 . S
C855 H870 0.961 . S
C855 H871 0.960 . S
H856 C840 0.931 . S
H857 C845 0.929 . S
H858 C846 0.960 . S
H859 C846 0.962 . S
H860 C846 0.960 . S
H861 C847 0.961 . S
H862 C847 0.961 . S
H863 C847 0.961 . S
H864 C848 0.931 . S
H865 C853 0.930 . S
H866 C854 0.956 . S
H867 C854 0.961 . S
H868 C854 0.961 . S
H869 C855 0.958 . S
H870 C855 0.961 . S
H871 C855 0.960 . S
C872 C873 1.391 . S
C872 C874 1.394 . S
C872 H888 0.931 . S
C873 C872 1.391 . S
C873 C877 1.376 . S
C874 C872 1.394 . S
C874 C875 1.369 . S
C874 C878 1.531 . S
C875 C874 1.369 . S
C875 C876 1.410 . S
C875 C883 1.503 . S
C876 C875 1.410 . S
C876 C877 1.392 . S
C876 C879 1.511 . S
C877 C873 1.376 . S
C877 C876 1.392 . S
C877 H889 0.929 . S
C878 C874 1.531 . S
C878 H890 0.960 . S
C878 H891 0.962 1_455 S
C878 H892 0.960 . S
C879 C876 1.511 . S
C879 H893 0.961 . S
C879 H894 0.961 . S
C879 H895 0.961 . S
C880 C881 1.370 . S
C880 C882 1.363 1_655 S
C880 H896 0.931 . S
C881 C880 1.370 . S
C881 C885 1.408 1_655 S
C882 C880 1.363 1_455 S
C882 C883 1.370 . S
C882 C886 1.524 . S
C883 C875 1.503 . S
C883 C882 1.370 . S
C883 C884 1.403 . S
C884 C883 1.403 . S
C884 C885 1.404 . S
C884 C887 1.539 . S
C885 C881 1.408 1_455 S
C885 C884 1.404 . S
C885 H897 0.930 . S
C886 C882 1.524 . S
C886 H898 0.956 . S
C886 H899 0.961 . S
C886 H900 0.961 1_455 S
C887 C884 1.539 . S
C887 H901 0.958 . S
C887 H902 0.961 . S
C887 H903 0.960 . S
H888 C872 0.931 . S
H889 C877 0.929 . S
H890 C878 0.960 . S
H891 C878 0.962 1_655 S
H892 C878 0.960 . S
H893 C879 0.961 . S
H894 C879 0.961 . S
H895 C879 0.961 . S
H896 C880 0.931 . S
H897 C885 0.930 . S
H898 C886 0.956 . S
H899 C886 0.961 . S
H900 C886 0.961 1_655 S
H901 C887 0.958 . S
H902 C887 0.961 . S
H903 C887 0.960 . S
C904 C905 1.391 1_545 S
C904 C906 1.394 . S
C904 H920 0.931 . S
C905 C904 1.391 1_565 S
C905 C909 1.376 . S
C906 C904 1.394 . S
C906 C907 1.369 . S
C906 C910 1.531 . S
C907 C906 1.369 . S
C907 C908 1.410 . S
C907 C915 1.503 . S
C908 C907 1.410 . S
C908 C909 1.392 1_545 S
C908 C911 1.511 . S
C909 C905 1.376 . S
C909 C908 1.392 1_565 S
C909 H921 0.929 . S
C910 C906 1.531 . S
C910 H922 0.960 . S
C910 H923 0.962 . S
C910 H924 0.960 . S
C911 C908 1.511 . S
C911 H925 0.961 1_545 S
C911 H926 0.961 . S
C911 H927 0.961 . S
C912 C913 1.370 . S
C912 C914 1.363 . S
C912 H928 0.931 . S
C913 C912 1.370 . S
C913 C917 1.408 . S
C914 C912 1.363 . S
C914 C915 1.370 . S
C914 C918 1.524 . S
C915 C907 1.503 . S
C915 C914 1.370 . S
C915 C916 1.403 . S
C916 C915 1.403 . S
C916 C917 1.404 . S
C916 C919 1.539 . S
C917 C913 1.408 . S
C917 C916 1.404 . S
C917 H929 0.930 . S
C918 C914 1.524 . S
C918 H930 0.956 . S
C918 H931 0.961 1_545 S
C918 H932 0.961 . S
C919 C916 1.539 . S
C919 H933 0.958 . S
C919 H934 0.961 . S
C919 H935 0.960 . S
H920 C904 0.931 . S
H921 C909 0.929 . S
H922 C910 0.960 . S
H923 C910 0.962 . S
H924 C910 0.960 . S
H925 C911 0.961 1_565 S
H926 C911 0.961 . S
H927 C911 0.961 . S
H928 C912 0.931 . S
H929 C917 0.930 . S
H930 C918 0.956 . S
H931 C918 0.961 1_565 S
H932 C918 0.961 . S
H933 C919 0.958 . S
H934 C919 0.961 . S
H935 C919 0.960 . S
C169 C120 1.289 . S
C177 C8 1.296 . S
C201 C22 1.292 . S
C209 C134 1.294 . S
C233 C36 1.292 . S
C241 C148 1.297 . S
C265 C50 1.295 . S
C273 C162 1.295 . S
C297 C92 1.293 . S
C305 C64 1.297 . S
C329 C78 1.290 . S
C337 C106 1.296 . S
C361 C135 0.954 . S
C369 C9 0.942 . S
C393 C23 0.915 . S
C401 C149 0.944 . S
C425 C163 0.922 . S
C433 C37 0.940 . S
C457 C51 0.918 . S
C465 C93 0.941 . S
C489 C107 0.944 . S
C497 C65 0.968 . S
C521 C121 0.969 . S
C529 C79 0.946 . S
C553 C3 1.444 . S
C561 C77 1.382 . S
C585 C17 1.407 . S
C593 C7 1.402 . S
C617 C21 1.390 . S
C625 C31 1.426 . S
C649 C45 1.453 . S
C657 C35 1.396 . S
C681 C59 1.449 . S
C689 C49 1.384 . S
C713 C73 1.450 . S
C721 C63 1.384 . S
C745 C87 1.409 . S
C753 C105 1.396 . S
C777 C101 1.453 . S
C785 C119 1.397 . S
C809 C115 1.442 . S
C817 C133 1.382 . S
C841 C129 1.449 . S
C849 C147 1.401 . S
C873 C143 1.454 . S
C881 C161 1.392 . S
C905 C91 1.398 . S
C913 C157 1.443 . S
