# Generated by pormake.
# Topology uoh, (4)-cn, num edge types: 1
# Building blocks:
#     Node 0, Type 0, BuildingBlock: ICAMEG_clean_sbu_1, # of connection points: 4
#     Node 1, Type 0, BuildingBlock: ICAMEG_clean_sbu_1, # of connection points: 4
#     Node 2, Type 0, BuildingBlock: ICAMEG_clean_sbu_1, # of connection points: 4
#     Node 3, Type 0, BuildingBlock: ICAMEG_clean_sbu_1, # of connection points: 4
#     Node 4, Type 0, BuildingBlock: ICAMEG_clean_sbu_1, # of connection points: 4
#     Node 5, Type 0, BuildingBlock: ICAMEG_clean_sbu_1, # of connection points: 4
#     Node 6, Type 0, BuildingBlock: ICAMEG_clean_sbu_1, # of connection points: 4
#     Node 7, Type 0, BuildingBlock: ICAMEG_clean_sbu_1, # of connection points: 4
#     Node 8, Type 0, BuildingBlock: ICAMEG_clean_sbu_1, # of connection points: 4
#     Node 9, Type 0, BuildingBlock: ICAMEG_clean_sbu_1, # of connection points: 4
#     Node 10, Type 0, BuildingBlock: ICAMEG_clean_sbu_1, # of connection points: 4
#     Node 11, Type 0, BuildingBlock: ICAMEG_clean_sbu_1, # of connection points: 4
#     Node 12, Type 0, BuildingBlock: ICAMEG_clean_sbu_1, # of connection points: 4
#     Node 13, Type 0, BuildingBlock: ICAMEG_clean_sbu_1, # of connection points: 4
#     Node 14, Type 0, BuildingBlock: ICAMEG_clean_sbu_1, # of connection points: 4
#     Node 15, Type 0, BuildingBlock: ICAMEG_clean_sbu_1, # of connection points: 4
#     Node 16, Type 0, BuildingBlock: ICAMEG_clean_sbu_1, # of connection points: 4
#     Node 17, Type 0, BuildingBlock: ICAMEG_clean_sbu_1, # of connection points: 4
#     Node 18, Type 0, BuildingBlock: ICAMEG_clean_sbu_1, # of connection points: 4
#     Node 19, Type 0, BuildingBlock: ICAMEG_clean_sbu_1, # of connection points: 4
#     Node 20, Type 0, BuildingBlock: ICAMEG_clean_sbu_1, # of connection points: 4
#     Node 21, Type 0, BuildingBlock: ICAMEG_clean_sbu_1, # of connection points: 4
#     Node 22, Type 0, BuildingBlock: ICAMEG_clean_sbu_1, # of connection points: 4
#     Node 23, Type 0, BuildingBlock: ICAMEG_clean_sbu_1, # of connection points: 4
#     Node 24, Type 0, BuildingBlock: ICAMEG_clean_sbu_1, # of connection points: 4
#     Node 25, Type 0, BuildingBlock: ICAMEG_clean_sbu_1, # of connection points: 4
#     Node 26, Type 0, BuildingBlock: ICAMEG_clean_sbu_1, # of connection points: 4
#     Node 27, Type 0, BuildingBlock: ICAMEG_clean_sbu_1, # of connection points: 4
#     Node 28, Type 0, BuildingBlock: ICAMEG_clean_sbu_1, # of connection points: 4
#     Node 29, Type 0, BuildingBlock: ICAMEG_clean_sbu_1, # of connection points: 4
#     Node 30, Type 0, BuildingBlock: ICAMEG_clean_sbu_1, # of connection points: 4
#     Node 31, Type 0, BuildingBlock: ICAMEG_clean_sbu_1, # of connection points: 4
#     Node 32, Type 0, BuildingBlock: ICAMEG_clean_sbu_1, # of connection points: 4
#     Node 33, Type 0, BuildingBlock: ICAMEG_clean_sbu_1, # of connection points: 4
#     Node 34, Type 0, BuildingBlock: ICAMEG_clean_sbu_1, # of connection points: 4
#     Node 35, Type 0, BuildingBlock: ICAMEG_clean_sbu_1, # of connection points: 4
#     Edge 36, Type (0, 0), BuildingBlock: OJICUG_clean_linker_0, # of connection points: 2
#     Edge 37, Type (0, 0), BuildingBlock: OJICUG_clean_linker_0, # of connection points: 2
#     Edge 38, Type (0, 0), BuildingBlock: OJICUG_clean_linker_0, # of connection points: 2
#     Edge 39, Type (0, 0), BuildingBlock: OJICUG_clean_linker_0, # of connection points: 2
#     Edge 40, Type (0, 0), BuildingBlock: OJICUG_clean_linker_0, # of connection points: 2
#     Edge 41, Type (0, 0), BuildingBlock: OJICUG_clean_linker_0, # of connection points: 2
#     Edge 42, Type (0, 0), BuildingBlock: OJICUG_clean_linker_0, # of connection points: 2
#     Edge 43, Type (0, 0), BuildingBlock: OJICUG_clean_linker_0, # of connection points: 2
#     Edge 44, Type (0, 0), BuildingBlock: OJICUG_clean_linker_0, # of connection points: 2
#     Edge 45, Type (0, 0), BuildingBlock: OJICUG_clean_linker_0, # of connection points: 2
#     Edge 46, Type (0, 0), BuildingBlock: OJICUG_clean_linker_0, # of connection points: 2
#     Edge 47, Type (0, 0), BuildingBlock: OJICUG_clean_linker_0, # of connection points: 2
#     Edge 48, Type (0, 0), BuildingBlock: OJICUG_clean_linker_0, # of connection points: 2
#     Edge 49, Type (0, 0), BuildingBlock: OJICUG_clean_linker_0, # of connection points: 2
#     Edge 50, Type (0, 0), BuildingBlock: OJICUG_clean_linker_0, # of connection points: 2
#     Edge 51, Type (0, 0), BuildingBlock: OJICUG_clean_linker_0, # of connection points: 2
#     Edge 52, Type (0, 0), BuildingBlock: OJICUG_clean_linker_0, # of connection points: 2
#     Edge 53, Type (0, 0), BuildingBlock: OJICUG_clean_linker_0, # of connection points: 2
#     Edge 54, Type (0, 0), BuildingBlock: OJICUG_clean_linker_0, # of connection points: 2
#     Edge 55, Type (0, 0), BuildingBlock: OJICUG_clean_linker_0, # of connection points: 2
#     Edge 56, Type (0, 0), BuildingBlock: OJICUG_clean_linker_0, # of connection points: 2
#     Edge 57, Type (0, 0), BuildingBlock: OJICUG_clean_linker_0, # of connection points: 2
#     Edge 58, Type (0, 0), BuildingBlock: OJICUG_clean_linker_0, # of connection points: 2
#     Edge 59, Type (0, 0), BuildingBlock: OJICUG_clean_linker_0, # of connection points: 2
#     Edge 60, Type (0, 0), BuildingBlock: OJICUG_clean_linker_0, # of connection points: 2
#     Edge 61, Type (0, 0), BuildingBlock: OJICUG_clean_linker_0, # of connection points: 2
#     Edge 62, Type (0, 0), BuildingBlock: OJICUG_clean_linker_0, # of connection points: 2
#     Edge 63, Type (0, 0), BuildingBlock: OJICUG_clean_linker_0, # of connection points: 2
#     Edge 64, Type (0, 0), BuildingBlock: OJICUG_clean_linker_0, # of connection points: 2
#     Edge 65, Type (0, 0), BuildingBlock: OJICUG_clean_linker_0, # of connection points: 2
#     Edge 66, Type (0, 0), BuildingBlock: OJICUG_clean_linker_0, # of connection points: 2
#     Edge 67, Type (0, 0), BuildingBlock: OJICUG_clean_linker_0, # of connection points: 2
#     Edge 68, Type (0, 0), BuildingBlock: OJICUG_clean_linker_0, # of connection points: 2
#     Edge 69, Type (0, 0), BuildingBlock: OJICUG_clean_linker_0, # of connection points: 2
#     Edge 70, Type (0, 0), BuildingBlock: OJICUG_clean_linker_0, # of connection points: 2
#     Edge 71, Type (0, 0), BuildingBlock: OJICUG_clean_linker_0, # of connection points: 2
#     Edge 72, Type (0, 0), BuildingBlock: OJICUG_clean_linker_0, # of connection points: 2
#     Edge 73, Type (0, 0), BuildingBlock: OJICUG_clean_linker_0, # of connection points: 2
#     Edge 74, Type (0, 0), BuildingBlock: OJICUG_clean_linker_0, # of connection points: 2
#     Edge 75, Type (0, 0), BuildingBlock: OJICUG_clean_linker_0, # of connection points: 2
#     Edge 76, Type (0, 0), BuildingBlock: OJICUG_clean_linker_0, # of connection points: 2
#     Edge 77, Type (0, 0), BuildingBlock: OJICUG_clean_linker_0, # of connection points: 2
#     Edge 78, Type (0, 0), BuildingBlock: OJICUG_clean_linker_0, # of connection points: 2
#     Edge 79, Type (0, 0), BuildingBlock: OJICUG_clean_linker_0, # of connection points: 2
#     Edge 80, Type (0, 0), BuildingBlock: OJICUG_clean_linker_0, # of connection points: 2
#     Edge 81, Type (0, 0), BuildingBlock: OJICUG_clean_linker_0, # of connection points: 2
#     Edge 82, Type (0, 0), BuildingBlock: OJICUG_clean_linker_0, # of connection points: 2
#     Edge 83, Type (0, 0), BuildingBlock: OJICUG_clean_linker_0, # of connection points: 2
#     Edge 84, Type (0, 0), BuildingBlock: OJICUG_clean_linker_0, # of connection points: 2
#     Edge 85, Type (0, 0), BuildingBlock: OJICUG_clean_linker_0, # of connection points: 2
#     Edge 86, Type (0, 0), BuildingBlock: OJICUG_clean_linker_0, # of connection points: 2
#     Edge 87, Type (0, 0), BuildingBlock: OJICUG_clean_linker_0, # of connection points: 2
#     Edge 88, Type (0, 0), BuildingBlock: OJICUG_clean_linker_0, # of connection points: 2
#     Edge 89, Type (0, 0), BuildingBlock: OJICUG_clean_linker_0, # of connection points: 2
#     Edge 90, Type (0, 0), BuildingBlock: OJICUG_clean_linker_0, # of connection points: 2
#     Edge 91, Type (0, 0), BuildingBlock: OJICUG_clean_linker_0, # of connection points: 2
#     Edge 92, Type (0, 0), BuildingBlock: OJICUG_clean_linker_0, # of connection points: 2
#     Edge 93, Type (0, 0), BuildingBlock: OJICUG_clean_linker_0, # of connection points: 2
#     Edge 94, Type (0, 0), BuildingBlock: OJICUG_clean_linker_0, # of connection points: 2
#     Edge 95, Type (0, 0), BuildingBlock: OJICUG_clean_linker_0, # of connection points: 2
#     Edge 96, Type (0, 0), BuildingBlock: OJICUG_clean_linker_0, # of connection points: 2
#     Edge 97, Type (0, 0), BuildingBlock: OJICUG_clean_linker_0, # of connection points: 2
#     Edge 98, Type (0, 0), BuildingBlock: OJICUG_clean_linker_0, # of connection points: 2
#     Edge 99, Type (0, 0), BuildingBlock: OJICUG_clean_linker_0, # of connection points: 2
#     Edge 100, Type (0, 0), BuildingBlock: OJICUG_clean_linker_0, # of connection points: 2
#     Edge 101, Type (0, 0), BuildingBlock: OJICUG_clean_linker_0, # of connection points: 2
#     Edge 102, Type (0, 0), BuildingBlock: OJICUG_clean_linker_0, # of connection points: 2
#     Edge 103, Type (0, 0), BuildingBlock: OJICUG_clean_linker_0, # of connection points: 2
#     Edge 104, Type (0, 0), BuildingBlock: OJICUG_clean_linker_0, # of connection points: 2
#     Edge 105, Type (0, 0), BuildingBlock: OJICUG_clean_linker_0, # of connection points: 2
#     Edge 106, Type (0, 0), BuildingBlock: OJICUG_clean_linker_0, # of connection points: 2
#     Edge 107, Type (0, 0), BuildingBlock: OJICUG_clean_linker_0, # of connection points: 2
# Relax obj value: 0.038
# Max RMSD: 0.081
# Mean RMSD: 0.081
data_MOF--net-uoh--node1-ICAMEG_clean_sbu_1--edge1-OJICUG_clean_linker_0
_symmetry_space_group_name_H-M    P1
_symmetry_Int_Tables_number       1
_symmetry_cell_setting            triclinic
loop_
_symmetry_equiv_pos_as_xyz
'x, y, z'
_cell_length_a     70.935775
_cell_length_b     70.951978
_cell_length_c     22.45561
_cell_angle_alpha  90.006837
_cell_angle_beta   89.998103
_cell_angle_gamma 119.98999
loop_
_atom_site_label
_atom_site_type_symbol
_atom_site_fract_x
_atom_site_fract_y
_atom_site_fract_z
_atom_type_partial_charge
Co0 Co 0.24686 0.12182 0.22139 0.0
Co1 Co 0.25856 0.17372 0.18772 0.0
O2 O 0.24358 0.14731 0.23659 0.0
C3 C 0.2549 0.12959 0.3496 0.0
O4 O 0.26758 0.15018 0.33605 0.0
C5 C 0.21374 0.16793 0.21153 0.0
O6 O 0.20493 0.14675 0.21609 0.0
O7 O 0.24494 0.15624 0.11431 0.0
O8 O 0.2486 0.1272 0.13387 0.0
H9 H 0.30146 0.21737 0.01048 0.0
H10 H 0.20999 0.11593 0.29689 0.0
O11 O 0.24527 0.11566 0.30871 0.0
H12 H 0.17636 0.06687 0.12549 0.0
H13 H 0.23048 0.04483 0.25358 0.0
H14 H 0.27538 0.11307 0.14331 0.0
H15 H 0.21628 0.08942 0.13347 0.0
H16 H 0.22596 0.0767 0.27029 0.0
O17 O 0.23384 0.17973 0.19843 0.0
H18 H 0.28309 0.18473 0.07389 0.0
H19 H 0.2653 0.2187 0.19667 0.0
H20 H 0.28034 0.08157 0.12494 0.0
H21 H 0.17 0.09342 0.29112 0.0
H22 H 0.25778 0.04712 0.18028 0.0
H23 H 0.15293 0.06872 0.20482 0.0
O24 O 0.27915 0.14017 0.22616 0.0
H25 H 0.25922 0.19683 0.39982 0.0
H26 H 0.30401 0.20684 0.22186 0.0
H27 H 0.32151 0.22745 0.31324 0.0
H28 H 0.29907 0.22256 0.40304 0.0
H29 H 0.24243 0.1763 0.30785 0.0
H30 H 0.28332 0.25166 0.1343 0.0
H31 H 0.30165 0.25116 0.04054 0.0
O32 O 0.28422 0.16954 0.17566 0.0
C33 C 0.24595 0.13952 0.09761 0.0
C34 C 0.29354 0.2178 0.05124 0.0
C35 C 0.28333 0.23703 0.12069 0.0
N36 N 0.2731 0.19977 0.13897 0.0
C37 C 0.28311 0.19936 0.08739 0.0
C38 C 0.27307 0.21828 0.15571 0.0
C39 C 0.29363 0.23675 0.06811 0.0
C40 C 0.20269 0.10506 0.2595 0.0
N41 N 0.21545 0.10397 0.21565 0.0
C42 C 0.18003 0.09243 0.25634 0.0
C43 C 0.17047 0.07861 0.20785 0.0
C44 C 0.1836 0.07758 0.16329 0.0
C45 C 0.20619 0.09047 0.16792 0.0
C46 C 0.24035 0.05972 0.22903 0.0
C47 C 0.26538 0.0981 0.16721 0.0
C48 C 0.23787 0.07783 0.23832 0.0
N49 N 0.25021 0.09666 0.20724 0.0
C50 C 0.26831 0.08033 0.15678 0.0
C51 C 0.25567 0.06101 0.1879 0.0
C52 C 0.29126 0.15761 0.19722 0.0
C53 C 0.26916 0.19919 0.36089 0.0
C54 C 0.29412 0.20454 0.26078 0.0
C55 C 0.30413 0.21632 0.31237 0.0
C56 C 0.29152 0.21358 0.36271 0.0
N57 N 0.27216 0.19046 0.25926 0.0
C58 C 0.25971 0.18771 0.3085 0.0
Co59 Co 0.88155 0.12487 0.22116 0.0
Co60 Co 0.82934 0.08583 0.18705 0.0
O61 O 0.85539 0.0968 0.23695 0.0
C62 C 0.87347 0.12646 0.34867 0.0
O63 O 0.8531 0.11943 0.33419 0.0
C64 C 0.83424 0.04632 0.20735 0.0
O65 O 0.85532 0.05768 0.19823 0.0
O66 O 0.8469 0.08848 0.11464 0.0
O67 O 0.87651 0.12079 0.13366 0.0
H68 H 0.78693 0.08524 0.00702 0.0
H69 H 0.88498 0.09294 0.29882 0.0
O70 O 0.8874 0.12981 0.30851 0.0
H71 H 0.9349 0.10579 0.13118 0.0
H72 H 0.95938 0.1835 0.25386 0.0
H73 H 0.89207 0.162 0.14057 0.0
H74 H 0.91397 0.12495 0.1363 0.0
H75 H 0.92651 0.14791 0.27141 0.0
O76 O 0.82249 0.05513 0.20152 0.0
H77 H 0.8193 0.09914 0.07145 0.0
H78 H 0.78395 0.04828 0.19566 0.0
H79 H 0.9246 0.19766 0.1213 0.0
H80 H 0.90578 0.07361 0.29581 0.0
H81 H 0.95858 0.20862 0.17815 0.0
H82 H 0.93092 0.07995 0.21143 0.0
O83 O 0.86412 0.13987 0.22317 0.0
H84 H 0.80495 0.06562 0.39931 0.0
H85 H 0.79715 0.09988 0.21703 0.0
H86 H 0.7765 0.09831 0.30698 0.0
H87 H 0.78029 0.08104 0.39896 0.0
H88 H 0.82555 0.06782 0.30865 0.0
H89 H 0.75124 0.03374 0.13234 0.0
H90 H 0.75257 0.05231 0.03735 0.0
O91 O 0.83462 0.11591 0.17229 0.0
C92 C 0.86402 0.10579 0.09768 0.0
C93 C 0.78614 0.07702 0.04835 0.0
C94 C 0.76611 0.04811 0.11864 0.0
N95 N 0.80354 0.07458 0.13739 0.0
C96 C 0.80442 0.08483 0.08508 0.0
C97 C 0.78472 0.05637 0.15423 0.0
C98 C 0.76687 0.05854 0.06537 0.0
C99 C 0.89605 0.09594 0.26228 0.0
N100 N 0.89835 0.11013 0.21799 0.0
C101 C 0.90771 0.08488 0.26068 0.0
C102 C 0.92179 0.08842 0.21327 0.0
C103 C 0.92402 0.1029 0.1682 0.0
C104 C 0.91207 0.11365 0.17125 0.0
C105 C 0.9447 0.17888 0.22865 0.0
C106 C 0.90684 0.16656 0.16517 0.0
C107 C 0.92602 0.15876 0.23843 0.0
N108 N 0.90746 0.15276 0.2065 0.0
C109 C 0.92519 0.18682 0.15421 0.0
C110 C 0.94424 0.19297 0.18617 0.0
C111 C 0.84689 0.13488 0.19351 0.0
C112 C 0.8031 0.07312 0.35944 0.0
C113 C 0.79899 0.09243 0.25692 0.0
C114 C 0.78719 0.09152 0.30768 0.0
C115 C 0.7893 0.08181 0.35925 0.0
N116 N 0.81252 0.08388 0.25743 0.0
C117 C 0.81464 0.0743 0.30783 0.0
Co118 Co 0.87876 0.75773 0.22143 0.0
Co119 Co 0.91788 0.74463 0.18718 0.0
O120 O 0.90685 0.75963 0.23728 0.0
C121 C 0.87695 0.74778 0.34886 0.0
O122 O 0.88402 0.73449 0.33424 0.0
C123 C 0.95747 0.78897 0.20863 0.0
O124 O 0.94605 0.79872 0.2013 0.0
O125 O 0.91526 0.75963 0.11491 0.0
O126 O 0.88294 0.75694 0.13391 0.0
H127 H 0.91856 0.70313 0.00654 0.0
H128 H 0.91053 0.79293 0.2998 0.0
O129 O 0.87369 0.75847 0.30881 0.0
H130 H 0.89794 0.83032 0.13255 0.0
H131 H 0.82007 0.77687 0.25422 0.0
H132 H 0.84171 0.73128 0.14039 0.0
H133 H 0.87881 0.79023 0.13697 0.0
H134 H 0.85565 0.77955 0.27192 0.0
O135 O 0.94862 0.76845 0.20173 0.0
H136 H 0.90465 0.72152 0.07121 0.0
H137 H 0.95531 0.7366 0.19582 0.0
H138 H 0.80607 0.7282 0.12098 0.0
H139 H 0.92981 0.83305 0.2975 0.0
H140 H 0.79504 0.75112 0.17809 0.0
H141 H 0.9236 0.85201 0.21332 0.0
O142 O 0.86374 0.72529 0.22291 0.0
H143 H 0.93788 0.74017 0.39945 0.0
H144 H 0.90377 0.69837 0.21672 0.0
H145 H 0.90522 0.67917 0.30654 0.0
H146 H 0.92241 0.7001 0.39875 0.0
H147 H 0.93581 0.75869 0.3089 0.0
H148 H 0.96986 0.7185 0.13226 0.0
H149 H 0.9514 0.70152 0.03694 0.0
O150 O 0.8878 0.71987 0.17215 0.0
C151 C 0.89795 0.75946 0.09795 0.0
C152 C 0.92674 0.71045 0.04799 0.0
C153 C 0.95554 0.7191 0.11851 0.0
N154 N 0.92913 0.73013 0.13733 0.0
C155 C 0.91893 0.72088 0.08486 0.0
C156 C 0.94727 0.7294 0.15423 0.0
C157 C 0.94517 0.70956 0.06505 0.0
C158 C 0.90758 0.80106 0.26334 0.0
N159 N 0.89349 0.78926 0.21876 0.0
C160 C 0.91862 0.82378 0.26214 0.0
C161 C 0.91515 0.83441 0.21485 0.0
C162 C 0.90077 0.82225 0.16948 0.0
C163 C 0.89004 0.79956 0.17214 0.0
C164 C 0.82472 0.76686 0.2289 0.0
C165 C 0.83711 0.74143 0.16512 0.0
C166 C 0.84484 0.76828 0.23875 0.0
N167 N 0.85088 0.75578 0.20668 0.0
C168 C 0.81687 0.73956 0.15407 0.0
C169 C 0.81069 0.7524 0.18617 0.0
C170 C 0.86878 0.71312 0.19307 0.0
C171 C 0.93042 0.73088 0.35948 0.0
C172 C 0.91119 0.7076 0.2567 0.0
C173 C 0.91203 0.69664 0.30739 0.0
C174 C 0.9217 0.70839 0.35909 0.0
N175 N 0.91977 0.72967 0.2574 0.0
C176 C 0.92931 0.7413 0.30793 0.0
Co177 Co 0.12319 0.24656 0.27495 0.0
Co178 Co 0.17524 0.259 0.30809 0.0
O179 O 0.14904 0.24414 0.25871 0.0
C180 C 0.1309 0.25568 0.14699 0.0
O181 O 0.15138 0.26881 0.16083 0.0
C182 C 0.1698 0.21424 0.28977 0.0
O183 O 0.14895 0.20467 0.30229 0.0
O184 O 0.15777 0.24433 0.38088 0.0
O185 O 0.12847 0.24766 0.36236 0.0
H186 H 0.21853 0.30069 0.48718 0.0
H187 H 0.11913 0.21074 0.19814 0.0
O188 O 0.11705 0.24546 0.18765 0.0
H189 H 0.06927 0.17474 0.36664 0.0
H190 H 0.04563 0.22858 0.24377 0.0
H191 H 0.11348 0.27381 0.35541 0.0
H192 H 0.09065 0.21478 0.36053 0.0
H193 H 0.07808 0.22514 0.22577 0.0
O194 O 0.18164 0.23486 0.29312 0.0
H195 H 0.18593 0.28253 0.4235 0.0
H196 H 0.22032 0.26603 0.29855 0.0
H197 H 0.0814 0.27768 0.37511 0.0
H198 H 0.0979 0.17065 0.20219 0.0
H199 H 0.04714 0.25494 0.31909 0.0
H200 H 0.07279 0.15239 0.28698 0.0
O201 O 0.14103 0.27896 0.27232 0.0
H202 H 0.19899 0.26265 0.09536 0.0
H203 H 0.20777 0.30505 0.27763 0.0
H204 H 0.22834 0.32388 0.18734 0.0
H205 H 0.22405 0.30265 0.09536 0.0
H206 H 0.17849 0.24451 0.18636 0.0
H207 H 0.25324 0.28389 0.36112 0.0
H208 H 0.25251 0.30146 0.4561 0.0
O209 O 0.17039 0.28407 0.32315 0.0
C210 C 0.14086 0.24491 0.39815 0.0
C211 C 0.21906 0.29312 0.44585 0.0
C212 C 0.23854 0.28367 0.37514 0.0
N213 N 0.20121 0.27328 0.35721 0.0
C214 C 0.20065 0.28283 0.40953 0.0
C215 C 0.21981 0.27352 0.33997 0.0
C216 C 0.23812 0.29353 0.42841 0.0
C217 C 0.10808 0.20291 0.23488 0.0
N218 N 0.10602 0.21508 0.27882 0.0
C219 C 0.09617 0.1802 0.23706 0.0
C220 C 0.08211 0.16997 0.2847 0.0
C221 C 0.08014 0.1825 0.32943 0.0
C222 C 0.09232 0.20517 0.32581 0.0
C223 C 0.06044 0.23852 0.26862 0.0
C224 C 0.0986 0.26374 0.33118 0.0
C225 C 0.07887 0.23666 0.25859 0.0
N226 N 0.09759 0.24907 0.29005 0.0
C227 C 0.0805 0.26606 0.34238 0.0
C228 C 0.06129 0.25331 0.31089 0.0
C229 C 0.15831 0.29102 0.30206 0.0
C230 C 0.20106 0.27208 0.13522 0.0
C231 C 0.20572 0.29569 0.23775 0.0
C232 C 0.21747 0.30645 0.18679 0.0
C233 C 0.21508 0.29452 0.13522 0.0
N234 N 0.19197 0.27367 0.23742 0.0
C235 C 0.18958 0.26187 0.18702 0.0
Co236 Co 0.75779 0.87762 0.27671 0.0
Co237 Co 0.74511 0.9171 0.31059 0.0
O238 O 0.76029 0.90602 0.26127 0.0
C239 C 0.74903 0.87678 0.14882 0.0
O240 O 0.73597 0.88421 0.1628 0.0
C241 C 0.78967 0.9564 0.2885 0.0
O242 O 0.79895 0.94439 0.28943 0.0
O243 O 0.75935 0.91385 0.38355 0.0
O244 O 0.75636 0.88142 0.36423 0.0
H245 H 0.70248 0.91738 0.48909 0.0
H246 H 0.79392 0.90911 0.20011 0.0
O247 O 0.75912 0.87293 0.18937 0.0
H248 H 0.8293 0.8952 0.37006 0.0
H249 H 0.77596 0.81824 0.24433 0.0
H250 H 0.73025 0.84032 0.35579 0.0
H251 H 0.78928 0.87683 0.36336 0.0
H252 H 0.77941 0.85417 0.22721 0.0
O253 O 0.76933 0.94788 0.29849 0.0
H254 H 0.72115 0.90353 0.42527 0.0
H255 H 0.7374 0.95472 0.30166 0.0
H256 H 0.72637 0.80432 0.3746 0.0
H257 H 0.83399 0.9276 0.20463 0.0
H258 H 0.74935 0.79307 0.31867 0.0
H259 H 0.85194 0.92073 0.29019 0.0
O260 O 0.72541 0.86304 0.27312 0.0
H261 H 0.74291 0.93863 0.09847 0.0
H262 H 0.69924 0.90369 0.27797 0.0
H263 H 0.68102 0.906 0.18706 0.0
H264 H 0.7029 0.92362 0.09649 0.0
H265 H 0.76043 0.93568 0.19002 0.0
H266 H 0.71905 0.96922 0.36441 0.0
H267 H 0.70134 0.95046 0.45879 0.0
O268 O 0.71995 0.88708 0.32368 0.0
C269 C 0.75885 0.89637 0.40036 0.0
C270 C 0.71013 0.92569 0.44806 0.0
C271 C 0.71945 0.95481 0.37813 0.0
N272 N 0.73039 0.9283 0.35974 0.0
C273 C 0.72073 0.91792 0.41168 0.0
C274 C 0.7299 0.94657 0.34289 0.0
C275 C 0.7095 0.94426 0.43105 0.0
C276 C 0.80161 0.90587 0.23716 0.0
N277 N 0.78927 0.89186 0.2813 0.0
C278 C 0.82431 0.91646 0.23962 0.0
C279 C 0.83436 0.91263 0.28769 0.0
C280 C 0.82167 0.89832 0.33256 0.0
C281 C 0.79902 0.88804 0.32864 0.0
C282 C 0.76591 0.82299 0.26914 0.0
C283 C 0.74043 0.83563 0.33162 0.0
C284 C 0.76778 0.84331 0.25961 0.0
N285 N 0.75524 0.84946 0.29104 0.0
C286 C 0.7381 0.81518 0.34231 0.0
C287 C 0.75098 0.80887 0.31086 0.0
C288 C 0.71315 0.86813 0.30227 0.0
C289 C 0.73321 0.931 0.13773 0.0
C290 C 0.70888 0.9113 0.2387 0.0
C291 C 0.69847 0.91262 0.18739 0.0
C292 C 0.71076 0.92253 0.13661 0.0
N293 N 0.73092 0.91964 0.2395 0.0
C294 C 0.74306 0.9294 0.18986 0.0
Co295 Co 0.1262 0.88115 0.27694 0.0
Co296 Co 0.08698 0.82897 0.31139 0.0
O297 O 0.09802 0.85503 0.26138 0.0
C298 C 0.12776 0.87284 0.14958 0.0
O299 O 0.12059 0.85247 0.16431 0.0
C300 C 0.04755 0.83396 0.2892 0.0
O301 O 0.05937 0.85523 0.29258 0.0
O302 O 0.08987 0.8466 0.38378 0.0
O303 O 0.12213 0.87625 0.36447 0.0
H304 H 0.08654 0.78674 0.49162 0.0
H305 H 0.09462 0.88491 0.1985 0.0
O306 O 0.13116 0.88685 0.18954 0.0
H307 H 0.10743 0.93484 0.36612 0.0
H308 H 0.18507 0.95883 0.24347 0.0
H309 H 0.16332 0.89167 0.35764 0.0
H310 H 0.1263 0.91361 0.36163 0.0
H311 H 0.1494 0.92602 0.22615 0.0
O312 O 0.05618 0.82217 0.29799 0.0
H313 H 0.10038 0.81904 0.42702 0.0
H314 H 0.04954 0.78353 0.30286 0.0
H315 H 0.19906 0.92413 0.37666 0.0
H316 H 0.07562 0.90604 0.20082 0.0
H317 H 0.21014 0.95804 0.31938 0.0
H318 H 0.08193 0.93117 0.28519 0.0
O319 O 0.14114 0.86366 0.27525 0.0
H320 H 0.06628 0.8046 0.09932 0.0
H321 H 0.10084 0.79668 0.28083 0.0
H322 H 0.09903 0.77602 0.19068 0.0
H323 H 0.08162 0.77987 0.09909 0.0
H324 H 0.06872 0.82521 0.19017 0.0
H325 H 0.03505 0.75088 0.36637 0.0
H326 H 0.05363 0.75233 0.46143 0.0
O327 O 0.11706 0.83411 0.32565 0.0
C328 C 0.10718 0.86376 0.40056 0.0
C329 C 0.0783 0.78589 0.45029 0.0
C330 C 0.04939 0.76578 0.38004 0.0
N331 N 0.07579 0.80321 0.36116 0.0
C332 C 0.08607 0.80414 0.41347 0.0
C333 C 0.05762 0.78436 0.34436 0.0
C334 C 0.05983 0.7666 0.43335 0.0
C335 C 0.09762 0.89598 0.23504 0.0
N336 N 0.11161 0.89809 0.27973 0.0
C337 C 0.08674 0.90783 0.23625 0.0
C338 C 0.09026 0.9219 0.28366 0.0
C339 C 0.10455 0.92394 0.32911 0.0
C340 C 0.11512 0.91182 0.32644 0.0
C341 C 0.18039 0.94417 0.26887 0.0
C342 C 0.16794 0.9064 0.33284 0.0
C343 C 0.16022 0.92554 0.25923 0.0
N344 N 0.15416 0.90701 0.29139 0.0
C345 C 0.18824 0.92471 0.34367 0.0
C346 C 0.19445 0.94372 0.31146 0.0
C347 C 0.13608 0.8464 0.30482 0.0
C348 C 0.07384 0.80272 0.13903 0.0
C349 C 0.09331 0.79854 0.24112 0.0
C350 C 0.09228 0.78673 0.19024 0.0
C351 C 0.08248 0.78888 0.13889 0.0
N352 N 0.0848 0.81209 0.24094 0.0
C353 C 0.07515 0.81425 0.19075 0.0
Co354 Co 0.75812 0.88102 0.77668 0.0
Co355 Co 0.74504 0.82879 0.81095 0.0
O356 O 0.76015 0.85487 0.76108 0.0
C357 C 0.74842 0.8728 0.64924 0.0
O358 O 0.73518 0.85242 0.66383 0.0
C359 C 0.78941 0.83366 0.78852 0.0
O360 O 0.79889 0.85494 0.79128 0.0
O361 O 0.75975 0.84636 0.88344 0.0
O362 O 0.7572 0.87604 0.86421 0.0
H363 H 0.70307 0.78651 0.99092 0.0
H364 H 0.79354 0.88482 0.69845 0.0
O365 O 0.75896 0.88678 0.68931 0.0
H366 H 0.8305 0.93457 0.86649 0.0
H367 H 0.77705 0.95874 0.74352 0.0
H368 H 0.73148 0.89152 0.85725 0.0
H369 H 0.79041 0.91337 0.86171 0.0
H370 H 0.77988 0.92592 0.72613 0.0
O371 O 0.76901 0.82192 0.79771 0.0
H372 H 0.72164 0.81884 0.92647 0.0
H373 H 0.73692 0.78331 0.80226 0.0
H374 H 0.72823 0.92399 0.87635 0.0
H375 H 0.83366 0.90592 0.70107 0.0
H376 H 0.75114 0.95794 0.81928 0.0
H377 H 0.85239 0.93097 0.78565 0.0
O378 O 0.7257 0.86357 0.77471 0.0
H379 H 0.7415 0.80452 0.59882 0.0
H380 H 0.69891 0.79659 0.78008 0.0
H381 H 0.6801 0.77599 0.6898 0.0
H382 H 0.70143 0.77985 0.59833 0.0
H383 H 0.75962 0.82506 0.68979 0.0
H384 H 0.71866 0.75062 0.86562 0.0
H385 H 0.70149 0.75207 0.96063 0.0
O386 O 0.72014 0.83398 0.82508 0.0
C387 C 0.75963 0.86353 0.90025 0.0
C388 C 0.71048 0.78566 0.94962 0.0
C389 C 0.71926 0.76554 0.87934 0.0
N390 N 0.73039 0.803 0.8606 0.0
C391 C 0.72102 0.80393 0.91288 0.0
C392 C 0.72966 0.78413 0.84375 0.0
C393 C 0.70961 0.76635 0.93262 0.0
C394 C 0.80157 0.89585 0.73509 0.0
N395 N 0.78965 0.89792 0.77973 0.0
C396 C 0.8243 0.90768 0.73647 0.0
C397 C 0.8348 0.9217 0.78399 0.0
C398 C 0.82252 0.92371 0.8294 0.0
C399 C 0.79983 0.91161 0.82656 0.0
C400 C 0.76704 0.94408 0.76883 0.0
C401 C 0.74162 0.90626 0.83255 0.0
C402 C 0.76855 0.92543 0.75915 0.0
N403 N 0.75605 0.90689 0.79119 0.0
C404 C 0.73966 0.92459 0.84342 0.0
C405 C 0.7525 0.94361 0.81134 0.0
C406 C 0.71344 0.8463 0.80418 0.0
C407 C 0.73204 0.80263 0.63847 0.0
C408 C 0.70831 0.79845 0.74042 0.0
C409 C 0.69757 0.78668 0.68947 0.0
C410 C 0.70955 0.78883 0.63819 0.0
N411 N 0.73038 0.81197 0.74039 0.0
C412 C 0.74223 0.81413 0.69026 0.0
Co413 Co 0.12349 0.87761 0.77695 0.0
Co414 Co 0.17568 0.91691 0.81086 0.0
O415 O 0.14945 0.90595 0.76151 0.0
C416 C 0.13129 0.8768 0.64894 0.0
O417 O 0.15179 0.88418 0.66271 0.0
C418 C 0.17058 0.95632 0.78945 0.0
O419 O 0.14929 0.94443 0.79176 0.0
O420 O 0.1582 0.91376 0.88379 0.0
O421 O 0.12874 0.88136 0.86447 0.0
H422 H 0.21844 0.91698 0.98944 0.0
H423 H 0.11906 0.90929 0.70069 0.0
O424 O 0.11741 0.87296 0.68964 0.0
H425 H 0.06979 0.89546 0.87069 0.0
H426 H 0.04583 0.81847 0.74473 0.0
H427 H 0.11361 0.84023 0.85586 0.0
H428 H 0.09127 0.8769 0.86371 0.0
H429 H 0.07839 0.85434 0.72762 0.0
O430 O 0.18238 0.94772 0.79859 0.0
H431 H 0.18595 0.90326 0.92557 0.0
H432 H 0.22109 0.95441 0.80201 0.0
H433 H 0.08141 0.80429 0.87465 0.0
H434 H 0.09766 0.92798 0.7055 0.0
H435 H 0.04718 0.7932 0.81889 0.0
H436 H 0.07286 0.92115 0.79108 0.0
O437 O 0.14118 0.86291 0.77317 0.0
H438 H 0.19954 0.93838 0.59878 0.0
H439 H 0.20799 0.90329 0.77837 0.0
H440 H 0.22851 0.90549 0.68753 0.0
H441 H 0.22439 0.92318 0.59691 0.0
H442 H 0.17908 0.93553 0.69027 0.0
H443 H 0.25391 0.96879 0.86481 0.0
H444 H 0.25275 0.94998 0.9592 0.0
O445 O 0.17068 0.88684 0.824 0.0
C446 C 0.14121 0.8963 0.9006 0.0
C447 C 0.21916 0.92531 0.94841 0.0
C448 C 0.23906 0.95441 0.87851 0.0
N449 N 0.20158 0.92802 0.86006 0.0
C450 C 0.20081 0.91762 0.912 0.0
C451 C 0.22038 0.94624 0.84324 0.0
C452 C 0.2384 0.94384 0.93143 0.0
C453 C 0.10813 0.90607 0.73775 0.0
N454 N 0.10636 0.89197 0.78173 0.0
C455 C 0.09613 0.91677 0.74037 0.0
C456 C 0.08225 0.91296 0.78846 0.0
C457 C 0.08054 0.89857 0.83317 0.0
C458 C 0.09281 0.88817 0.82909 0.0
C459 C 0.06062 0.82315 0.76947 0.0
C460 C 0.09874 0.83561 0.83176 0.0
C461 C 0.07911 0.84343 0.75995 0.0
N462 N 0.09781 0.8495 0.79129 0.0
C463 C 0.08057 0.8152 0.84244 0.0
C464 C 0.06139 0.80898 0.81109 0.0
C465 C 0.1585 0.86792 0.8024 0.0
C466 C 0.20155 0.93071 0.63806 0.0
C467 C 0.20601 0.91092 0.73908 0.0
C468 C 0.21774 0.91219 0.6878 0.0
C469 C 0.21545 0.92214 0.637 0.0
N470 N 0.1924 0.91936 0.73981 0.0
C471 C 0.19009 0.92916 0.69015 0.0
Co472 Co 0.12607 0.24587 0.77492 0.0
Co473 Co 0.08698 0.25908 0.80837 0.0
O474 O 0.098 0.24395 0.75882 0.0
C475 C 0.12778 0.25541 0.64721 0.0
O476 O 0.12072 0.26874 0.66144 0.0
C477 C 0.0474 0.21462 0.78898 0.0
O478 O 0.05872 0.2049 0.799 0.0
O479 O 0.08961 0.24429 0.88109 0.0
O480 O 0.12192 0.24692 0.86239 0.0
H481 H 0.08628 0.30114 0.98769 0.0
H482 H 0.09414 0.21047 0.69739 0.0
O483 O 0.13109 0.24486 0.68756 0.0
H484 H 0.10686 0.17354 0.86562 0.0
H485 H 0.18471 0.2266 0.74325 0.0
H486 H 0.16316 0.27255 0.85558 0.0
H487 H 0.12608 0.21361 0.86015 0.0
H488 H 0.14913 0.22388 0.72528 0.0
O489 O 0.05627 0.23521 0.79387 0.0
H490 H 0.10022 0.28258 0.92378 0.0
H491 H 0.04942 0.26689 0.79914 0.0
H492 H 0.19881 0.27569 0.87526 0.0
H493 H 0.07474 0.17035 0.70075 0.0
H494 H 0.20979 0.25259 0.8189 0.0
H495 H 0.08102 0.15163 0.78542 0.0
O496 O 0.1411 0.27831 0.77272 0.0
H497 H 0.0669 0.26298 0.5958 0.0
H498 H 0.10108 0.30527 0.77783 0.0
H499 H 0.09958 0.32423 0.68755 0.0
H500 H 0.08235 0.30306 0.5957 0.0
H501 H 0.06902 0.2447 0.6868 0.0
H502 H 0.03485 0.28516 0.86195 0.0
H503 H 0.05336 0.30253 0.95688 0.0
O504 O 0.11707 0.28389 0.82316 0.0
C505 C 0.10692 0.2445 0.89826 0.0
C506 C 0.07808 0.29366 0.94638 0.0
C507 C 0.04921 0.28467 0.87585 0.0
N508 N 0.0757 0.27369 0.85766 0.0
C509 C 0.08592 0.28314 0.90994 0.0
C510 C 0.0575 0.27428 0.84056 0.0
C511 C 0.05961 0.29442 0.9291 0.0
C512 C 0.09711 0.20243 0.73406 0.0
N513 N 0.11131 0.21436 0.77831 0.0
C514 C 0.08602 0.17971 0.73586 0.0
C515 C 0.08952 0.16922 0.78343 0.0
C516 C 0.104 0.1815 0.82847 0.0
C517 C 0.11479 0.20419 0.82522 0.0
C518 C 0.18008 0.2367 0.76825 0.0
C519 C 0.16774 0.26233 0.83119 0.0
C520 C 0.15996 0.23525 0.75824 0.0
N521 N 0.15395 0.24785 0.7899 0.0
C522 C 0.18799 0.26423 0.84239 0.0
C523 C 0.19414 0.25128 0.8107 0.0
C524 C 0.13608 0.29057 0.80225 0.0
C525 C 0.07438 0.27238 0.63561 0.0
C526 C 0.09365 0.29593 0.738 0.0
C527 C 0.09278 0.30676 0.68705 0.0
C528 C 0.08309 0.29487 0.63555 0.0
N529 N 0.08508 0.27386 0.73774 0.0
C530 C 0.07553 0.2621 0.68741 0.0
Co531 Co 0.88131 0.75669 0.7214 0.0
Co532 Co 0.82912 0.74377 0.68783 0.0
O533 O 0.85531 0.75896 0.73724 0.0
C534 C 0.87369 0.74802 0.84954 0.0
O535 O 0.85319 0.73485 0.83597 0.0
C536 C 0.8341 0.78827 0.70799 0.0
O537 O 0.85526 0.79794 0.7004 0.0
O538 O 0.84658 0.75836 0.61501 0.0
O539 O 0.87598 0.75527 0.63393 0.0
H540 H 0.78632 0.70144 0.50887 0.0
H541 H 0.88537 0.79265 0.79763 0.0
O542 O 0.8875 0.7581 0.8087 0.0
H543 H 0.93477 0.82838 0.62812 0.0
H544 H 0.95907 0.77541 0.75281 0.0
H545 H 0.89123 0.72934 0.64201 0.0
H546 H 0.91355 0.78835 0.635 0.0
H547 H 0.92646 0.7786 0.77039 0.0
O548 O 0.82235 0.76774 0.70153 0.0
H549 H 0.81883 0.72009 0.57272 0.0
H550 H 0.78374 0.73597 0.69689 0.0
H551 H 0.92349 0.72572 0.62274 0.0
H552 H 0.90647 0.83274 0.79288 0.0
H553 H 0.95774 0.74888 0.67833 0.0
H554 H 0.93135 0.85086 0.70755 0.0
O555 O 0.86367 0.72429 0.72486 0.0
H556 H 0.80516 0.74053 0.90017 0.0
H557 H 0.79691 0.6977 0.7192 0.0
H558 H 0.77641 0.67903 0.80971 0.0
H559 H 0.78042 0.70048 0.90103 0.0
H560 H 0.82562 0.75851 0.80899 0.0
H561 H 0.7509 0.71763 0.63414 0.0
H562 H 0.75203 0.70011 0.53947 0.0
O563 O 0.83425 0.71884 0.6737 0.0
C564 C 0.86353 0.75785 0.59796 0.0
C565 C 0.78562 0.70899 0.55005 0.0
C566 C 0.76575 0.7181 0.62032 0.0
N567 N 0.80321 0.7291 0.63859 0.0
C568 C 0.80398 0.71957 0.58645 0.0
C569 C 0.78443 0.72854 0.65558 0.0
C570 C 0.76639 0.70827 0.56722 0.0
C571 C 0.89632 0.80042 0.76068 0.0
N572 N 0.89831 0.78818 0.71683 0.0
C573 C 0.90816 0.82312 0.75809 0.0
C574 C 0.92208 0.83328 0.71015 0.0
C575 C 0.924 0.82068 0.66554 0.0
C576 C 0.91189 0.79802 0.66959 0.0
C577 C 0.94427 0.76529 0.72814 0.0
C578 C 0.90611 0.73959 0.66604 0.0
C579 C 0.92574 0.767 0.73793 0.0
N580 N 0.90702 0.75436 0.70669 0.0
C581 C 0.92431 0.73742 0.65509 0.0
C582 C 0.94351 0.7504 0.68635 0.0
C583 C 0.84641 0.71206 0.69527 0.0
C584 C 0.80321 0.73101 0.86059 0.0
C585 C 0.79885 0.70716 0.7588 0.0
C586 C 0.78713 0.69649 0.80988 0.0
C587 C 0.78937 0.70854 0.86108 0.0
N588 N 0.81242 0.72921 0.75864 0.0
C589 C 0.81466 0.74113 0.80869 0.0
Co590 Co 0.24674 0.12476 0.72144 0.0
Co591 Co 0.25998 0.0858 0.68673 0.0
O592 O 0.245 0.09676 0.73716 0.0
C593 C 0.25687 0.12661 0.84877 0.0
O594 O 0.27026 0.11965 0.83404 0.0
C595 C 0.2157 0.04625 0.70818 0.0
O596 O 0.20595 0.05764 0.7 0.0
O597 O 0.24478 0.08832 0.61476 0.0
O598 O 0.24736 0.12056 0.63394 0.0
H599 H 0.30123 0.08518 0.50544 0.0
H600 H 0.21174 0.09288 0.80009 0.0
O601 O 0.24613 0.12981 0.80882 0.0
H602 H 0.1739 0.10534 0.63372 0.0
H603 H 0.22747 0.1833 0.75511 0.0
H604 H 0.27287 0.16175 0.63999 0.0
H605 H 0.21401 0.1246 0.63763 0.0
H606 H 0.22493 0.14778 0.77258 0.0
O607 O 0.23623 0.05508 0.70161 0.0
H608 H 0.2829 0.09905 0.57051 0.0
H609 H 0.26805 0.04839 0.69489 0.0
H610 H 0.27581 0.19734 0.6208 0.0
H611 H 0.1716 0.07346 0.79829 0.0
H612 H 0.25299 0.20832 0.67857 0.0
H613 H 0.15242 0.07961 0.71456 0.0
O614 O 0.27918 0.13988 0.72251 0.0
H615 H 0.26497 0.06594 0.89878 0.0
H616 H 0.30634 0.10002 0.71546 0.0
H617 H 0.32578 0.09867 0.80489 0.0
H618 H 0.30507 0.08149 0.89739 0.0
H619 H 0.24621 0.06792 0.80862 0.0
H620 H 0.28609 0.03389 0.63092 0.0
H621 H 0.30292 0.05237 0.53552 0.0
O622 O 0.28466 0.11591 0.67144 0.0
C623 C 0.24477 0.10554 0.59795 0.0
C624 C 0.29398 0.077 0.54694 0.0
C625 C 0.28546 0.0482 0.61732 0.0
N626 N 0.27443 0.07458 0.63656 0.0
C627 C 0.28359 0.08479 0.58403 0.0
C628 C 0.27519 0.05645 0.65327 0.0
C629 C 0.29491 0.05858 0.56382 0.0
C630 C 0.2035 0.0958 0.76382 0.0
N631 N 0.2152 0.10993 0.71921 0.0
C632 C 0.18078 0.08469 0.76291 0.0
C633 C 0.17003 0.08812 0.71586 0.0
C634 C 0.18207 0.10254 0.67046 0.0
C635 C 0.20478 0.11334 0.67282 0.0
C636 C 0.23745 0.17867 0.72951 0.0
C637 C 0.26277 0.16633 0.66502 0.0
C638 C 0.2361 0.15859 0.73924 0.0
N639 N 0.24856 0.15258 0.70684 0.0
C640 C 0.26456 0.18654 0.65409 0.0
C641 C 0.25177 0.1927 0.68656 0.0
C642 C 0.29137 0.13491 0.69248 0.0
C643 C 0.27417 0.0734 0.85868 0.0
C644 C 0.2972 0.09261 0.75557 0.0
C645 C 0.3083 0.09183 0.80604 0.0
C646 C 0.29667 0.08216 0.85791 0.0
N647 N 0.27513 0.084 0.75666 0.0
C648 C 0.26361 0.07446 0.80735 0.0
Co649 Co 0.87823 0.12186 0.72115 0.0
Co650 Co 0.91778 0.174 0.68736 0.0
O651 O 0.90664 0.14776 0.73673 0.0
C652 C 0.87726 0.12973 0.84909 0.0
O653 O 0.88474 0.15023 0.8352 0.0
C654 C 0.95716 0.16886 0.71005 0.0
O655 O 0.94516 0.14756 0.70989 0.0
O656 O 0.91458 0.15651 0.61443 0.0
O657 O 0.88213 0.12709 0.63363 0.0
H658 H 0.91819 0.21687 0.50864 0.0
H659 H 0.90964 0.11721 0.79809 0.0
O660 O 0.87344 0.11583 0.80848 0.0
H661 H 0.89587 0.06791 0.62827 0.0
H662 H 0.81879 0.04434 0.75327 0.0
H663 H 0.84101 0.11211 0.6417 0.0
H664 H 0.87752 0.08958 0.63465 0.0
H665 H 0.85472 0.0768 0.77061 0.0
O666 O 0.94859 0.18061 0.69963 0.0
H667 H 0.9043 0.18437 0.57249 0.0
H668 H 0.95538 0.21935 0.69642 0.0
H669 H 0.80501 0.08001 0.62267 0.0
H670 H 0.92811 0.0956 0.79391 0.0
H671 H 0.7937 0.04579 0.67866 0.0
H672 H 0.92132 0.07078 0.70841 0.0
O673 O 0.86364 0.13966 0.72445 0.0
H674 H 0.93911 0.19774 0.89958 0.0
H675 H 0.90433 0.20646 0.71972 0.0
H676 H 0.90654 0.22697 0.81057 0.0
H677 H 0.92408 0.22272 0.90133 0.0
H678 H 0.93626 0.17728 0.80808 0.0
H679 H 0.96993 0.25218 0.63364 0.0
H680 H 0.95124 0.2511 0.53907 0.0
O681 O 0.88776 0.16915 0.67401 0.0
C682 C 0.8971 0.13954 0.59756 0.0
C683 C 0.92647 0.21755 0.54974 0.0
C684 C 0.95552 0.23735 0.61985 0.0
N685 N 0.92901 0.19992 0.63818 0.0
C686 C 0.91868 0.19919 0.58614 0.0
C687 C 0.94726 0.21868 0.65511 0.0
C688 C 0.94502 0.23674 0.56683 0.0
C689 C 0.90643 0.10628 0.76107 0.0
N690 N 0.89247 0.10462 0.71679 0.0
C691 C 0.91702 0.09416 0.75879 0.0
C692 C 0.91322 0.08027 0.71076 0.0
C693 C 0.89897 0.07867 0.66574 0.0
C694 C 0.88869 0.09105 0.66948 0.0
C695 C 0.82357 0.05913 0.72843 0.0
C696 C 0.83629 0.09724 0.6659 0.0
C697 C 0.84389 0.07757 0.73809 0.0
N698 N 0.85008 0.09627 0.70664 0.0
C699 C 0.81584 0.07913 0.65509 0.0
C700 C 0.80949 0.05995 0.68656 0.0
C701 C 0.86877 0.15699 0.69516 0.0
C702 C 0.93152 0.1998 0.86024 0.0
C703 C 0.9119 0.20443 0.75906 0.0
C704 C 0.91317 0.21615 0.81034 0.0
C705 C 0.92304 0.21378 0.86123 0.0
N706 N 0.92026 0.19074 0.75839 0.0
C707 C 0.92997 0.18836 0.80814 0.0
Co708 Co 0.91359 0.45544 0.55354 0.0
Co709 Co 0.92642 0.50761 0.5194 0.0
O710 O 0.91123 0.48142 0.5689 0.0
C711 C 0.92256 0.46343 0.68133 0.0
O712 O 0.93566 0.48389 0.66722 0.0
C713 C 0.8819 0.50251 0.54124 0.0
O714 O 0.87256 0.48121 0.53984 0.0
O715 O 0.9121 0.49009 0.44653 0.0
O716 O 0.91492 0.46057 0.46601 0.0
H717 H 0.969 0.55028 0.3406 0.0
H718 H 0.87763 0.45108 0.6304 0.0
O719 O 0.91235 0.4495 0.64089 0.0
H720 H 0.84186 0.40164 0.46097 0.0
H721 H 0.89514 0.37783 0.58631 0.0
H722 H 0.94091 0.44542 0.47425 0.0
H723 H 0.8819 0.42314 0.46728 0.0
H724 H 0.89187 0.41042 0.60335 0.0
O725 O 0.90227 0.51429 0.5316 0.0
H726 H 0.95031 0.51784 0.40463 0.0
H727 H 0.93425 0.55299 0.52807 0.0
H728 H 0.94461 0.41319 0.45553 0.0
H729 H 0.83754 0.42966 0.62627 0.0
H730 H 0.9216 0.37906 0.51175 0.0
H731 H 0.8194 0.40478 0.54097 0.0
O732 O 0.94598 0.4731 0.55679 0.0
H733 H 0.92886 0.53154 0.73143 0.0
H734 H 0.97235 0.53999 0.55171 0.0
H735 H 0.99067 0.56054 0.64248 0.0
H736 H 0.96889 0.55643 0.73317 0.0
H737 H 0.91123 0.51104 0.64 0.0
H738 H 0.95262 0.58577 0.46511 0.0
H739 H 0.97024 0.58457 0.3707 0.0
O740 O 0.95152 0.50264 0.50623 0.0
C741 C 0.91249 0.47305 0.42982 0.0
C742 C 0.96139 0.55101 0.38164 0.0
C743 C 0.95217 0.57092 0.45147 0.0
N744 N 0.94117 0.53348 0.47008 0.0
C745 C 0.95078 0.53269 0.41813 0.0
C746 C 0.94171 0.55227 0.48684 0.0
C747 C 0.96207 0.57024 0.39854 0.0
C748 C 0.86985 0.44012 0.59346 0.0
N749 N 0.88209 0.43831 0.54926 0.0
C750 C 0.84715 0.42811 0.59122 0.0
C751 C 0.83698 0.41418 0.5433 0.0
C752 C 0.84958 0.41243 0.49836 0.0
C753 C 0.87224 0.42471 0.50206 0.0
C754 C 0.90519 0.39258 0.56137 0.0
C755 C 0.93072 0.4306 0.49857 0.0
C756 C 0.90343 0.41109 0.57085 0.0
N757 N 0.91599 0.42974 0.53926 0.0
C758 C 0.93294 0.41241 0.48792 0.0
C759 C 0.92004 0.39328 0.51953 0.0
C760 C 0.95826 0.49042 0.52757 0.0
C761 C 0.93852 0.53354 0.69212 0.0
C762 C 0.96275 0.53801 0.59103 0.0
C763 C 0.97322 0.54976 0.64226 0.0
C764 C 0.96098 0.54747 0.69311 0.0
N765 N 0.9407 0.52438 0.59036 0.0
C766 C 0.9286 0.52207 0.64006 0.0
Co767 Co 0.54794 0.45843 0.55384 0.0
Co768 Co 0.49575 0.41931 0.51989 0.0
O769 O 0.52189 0.43022 0.56946 0.0
C770 C 0.54016 0.45947 0.6818 0.0
O771 O 0.5197 0.45225 0.66799 0.0
C772 C 0.50069 0.37978 0.53984 0.0
O773 O 0.52185 0.39126 0.53218 0.0
O774 O 0.51325 0.42219 0.44719 0.0
O775 O 0.54272 0.4546 0.46635 0.0
H776 H 0.45316 0.4191 0.34074 0.0
H777 H 0.55183 0.42643 0.63006 0.0
O778 O 0.55401 0.46314 0.64115 0.0
H779 H 0.60139 0.44008 0.46094 0.0
H780 H 0.62572 0.5173 0.58598 0.0
H781 H 0.55805 0.49576 0.47451 0.0
H782 H 0.58024 0.45898 0.46768 0.0
H783 H 0.59303 0.48154 0.60326 0.0
O784 O 0.48894 0.38857 0.53344 0.0
H785 H 0.48559 0.43285 0.40483 0.0
H786 H 0.45035 0.38177 0.52852 0.0
H787 H 0.59038 0.5316 0.45555 0.0
H788 H 0.57287 0.40737 0.62545 0.0
H789 H 0.62455 0.54257 0.51149 0.0
H790 H 0.59782 0.41411 0.54032 0.0
O791 O 0.53037 0.47326 0.55723 0.0
H792 H 0.47158 0.39845 0.73202 0.0
H793 H 0.46354 0.43321 0.55115 0.0
H794 H 0.44294 0.43131 0.64153 0.0
H795 H 0.44685 0.41379 0.7328 0.0
H796 H 0.49212 0.40098 0.64097 0.0
H797 H 0.41758 0.36737 0.46551 0.0
H798 H 0.41882 0.38612 0.37095 0.0
O799 O 0.50094 0.44942 0.50596 0.0
C800 C 0.53027 0.43961 0.43029 0.0
C801 C 0.4524 0.41079 0.38187 0.0
C802 C 0.43244 0.38175 0.45185 0.0
N803 N 0.46989 0.40816 0.47048 0.0
C804 C 0.47072 0.41852 0.41841 0.0
C805 C 0.45109 0.38994 0.48726 0.0
C806 C 0.43315 0.39229 0.39882 0.0
C807 C 0.56282 0.42961 0.5932 0.0
N808 N 0.56489 0.44388 0.54938 0.0
C809 C 0.57462 0.4187 0.59069 0.0
C810 C 0.58859 0.42246 0.54286 0.0
C811 C 0.59058 0.43701 0.49828 0.0
C812 C 0.57851 0.44762 0.50224 0.0
C813 C 0.61095 0.51267 0.56117 0.0
C814 C 0.57289 0.50034 0.4987 0.0
C815 C 0.59238 0.49245 0.57079 0.0
N816 N 0.57371 0.48645 0.53936 0.0
C817 C 0.59113 0.52069 0.48792 0.0
C818 C 0.61028 0.52685 0.51937 0.0
C819 C 0.51312 0.46832 0.5277 0.0
C820 C 0.46967 0.40605 0.69247 0.0
C821 C 0.46544 0.42565 0.59073 0.0
C822 C 0.45366 0.42456 0.64174 0.0
C823 C 0.45584 0.4147 0.69291 0.0
N824 N 0.47899 0.41714 0.59062 0.0
C825 C 0.48118 0.40743 0.64063 0.0
Co826 Co 0.54546 0.09066 0.55404 0.0
Co827 Co 0.58463 0.07766 0.5196 0.0
O828 O 0.57362 0.0927 0.56966 0.0
C829 C 0.54395 0.08111 0.68168 0.0
O830 O 0.55114 0.06788 0.66741 0.0
C831 C 0.62419 0.12209 0.54016 0.0
O832 O 0.61277 0.13182 0.53202 0.0
O833 O 0.58185 0.09253 0.44723 0.0
O834 O 0.54949 0.08969 0.46654 0.0
H835 H 0.58515 0.0359 0.33936 0.0
H836 H 0.57736 0.12611 0.63154 0.0
O837 O 0.54054 0.0916 0.6414 0.0
H838 H 0.5642 0.16295 0.4639 0.0
H839 H 0.48662 0.10957 0.58695 0.0
H840 H 0.5083 0.0639 0.47368 0.0
H841 H 0.54518 0.12288 0.46915 0.0
H842 H 0.52231 0.11246 0.60432 0.0
O843 O 0.61536 0.10155 0.53385 0.0
H844 H 0.57127 0.05434 0.40395 0.0
H845 H 0.6222 0.06985 0.52795 0.0
H846 H 0.47253 0.06058 0.45461 0.0
H847 H 0.59655 0.16623 0.6284 0.0
H848 H 0.46149 0.08354 0.51145 0.0
H849 H 0.59005 0.1849 0.54403 0.0
O850 O 0.53056 0.05824 0.55615 0.0
H851 H 0.60503 0.07358 0.7317 0.0
H852 H 0.57069 0.03147 0.54955 0.0
H853 H 0.57237 0.01243 0.63946 0.0
H854 H 0.58968 0.03352 0.73137 0.0
H855 H 0.60273 0.09193 0.64109 0.0
H856 H 0.63673 0.0517 0.46446 0.0
H857 H 0.61811 0.03448 0.3695 0.0
O858 O 0.55455 0.05282 0.50497 0.0
C859 C 0.56447 0.09225 0.43043 0.0
C860 C 0.59339 0.04332 0.38067 0.0
C861 C 0.62235 0.05221 0.45084 0.0
N862 N 0.59587 0.06315 0.46978 0.0
C863 C 0.58559 0.05378 0.41749 0.0
C864 C 0.61409 0.06254 0.48652 0.0
C865 C 0.6119 0.04254 0.39758 0.0
C866 C 0.57429 0.13413 0.595 0.0
N867 N 0.56009 0.12217 0.55077 0.0
C868 C 0.58527 0.15684 0.59332 0.0
C869 C 0.58164 0.16731 0.54592 0.0
C870 C 0.56715 0.155 0.50092 0.0
C871 C 0.55648 0.13232 0.50404 0.0
C872 C 0.49127 0.09953 0.56175 0.0
C873 C 0.50369 0.07406 0.49828 0.0
C874 C 0.51146 0.10108 0.57142 0.0
N875 N 0.5175 0.08855 0.53951 0.0
C876 C 0.48338 0.07206 0.48743 0.0
C877 C 0.47718 0.08493 0.51938 0.0
C878 C 0.53557 0.04605 0.5263 0.0
C879 C 0.59752 0.06422 0.69186 0.0
C880 C 0.57816 0.04077 0.58941 0.0
C881 C 0.57913 0.0299 0.64015 0.0
C882 C 0.58886 0.04174 0.69168 0.0
N883 N 0.58667 0.06283 0.58991 0.0
C884 C 0.59627 0.07454 0.64028 0.0
Co885 Co 0.7897 0.57905 0.60799 0.0
Co886 Co 0.84192 0.59221 0.64214 0.0
O887 O 0.8159 0.57721 0.59208 0.0
C888 C 0.79781 0.58905 0.48058 0.0
O889 O 0.81817 0.6024 0.49521 0.0
C890 C 0.83712 0.54784 0.6214 0.0
O891 O 0.81603 0.53809 0.63031 0.0
O892 O 0.82434 0.57721 0.71445 0.0
O893 O 0.79467 0.57983 0.69549 0.0
H894 H 0.88422 0.63375 0.8226 0.0
H895 H 0.7864 0.54391 0.52964 0.0
O896 O 0.78388 0.57833 0.52061 0.0
H897 H 0.73637 0.50641 0.69676 0.0
H898 H 0.71185 0.55983 0.57528 0.0
H899 H 0.77905 0.60543 0.68916 0.0
H900 H 0.75725 0.54651 0.69235 0.0
H901 H 0.74477 0.55721 0.55751 0.0
O902 O 0.84883 0.56839 0.62735 0.0
H903 H 0.85189 0.61537 0.75803 0.0
H904 H 0.88734 0.60011 0.63345 0.0
H905 H 0.74647 0.60847 0.70864 0.0
H906 H 0.76565 0.50378 0.53194 0.0
H907 H 0.71253 0.58554 0.65151 0.0
H908 H 0.74046 0.48477 0.61605 0.0
O909 O 0.80708 0.61149 0.60658 0.0
H910 H 0.86635 0.59673 0.42979 0.0
H911 H 0.87408 0.63848 0.61267 0.0
H912 H 0.89472 0.65771 0.52286 0.0
H913 H 0.89096 0.6368 0.43058 0.0
H914 H 0.84576 0.57818 0.52033 0.0
H915 H 0.92002 0.6182 0.6969 0.0
H916 H 0.91862 0.63526 0.79215 0.0
O917 O 0.8366 0.61696 0.65727 0.0
C918 C 0.80718 0.57734 0.73144 0.0
C919 C 0.88505 0.6264 0.78116 0.0
C920 C 0.90513 0.61765 0.71066 0.0
N921 N 0.8677 0.60669 0.69191 0.0
C922 C 0.86679 0.61598 0.74436 0.0
C923 C 0.88654 0.60736 0.675 0.0
C924 C 0.90434 0.62723 0.76408 0.0
C925 C 0.7753 0.53575 0.56607 0.0
N926 N 0.77294 0.54753 0.61061 0.0
C927 C 0.76367 0.51303 0.56727 0.0
C928 C 0.74957 0.50237 0.61452 0.0
C929 C 0.74728 0.5145 0.65985 0.0
C930 C 0.75919 0.5372 0.6572 0.0
C931 C 0.72651 0.56985 0.60062 0.0
C932 C 0.76431 0.59529 0.66442 0.0
C933 C 0.74521 0.56845 0.59072 0.0
N934 N 0.76375 0.58096 0.6228 0.0
C935 C 0.74593 0.59713 0.67551 0.0
C936 C 0.7269 0.58428 0.64339 0.0
C937 C 0.8243 0.62369 0.63637 0.0
C938 C 0.86819 0.60601 0.46979 0.0
C939 C 0.87226 0.62926 0.57266 0.0
C940 C 0.88406 0.64024 0.52197 0.0
C941 C 0.88196 0.6285 0.47023 0.0
N942 N 0.85876 0.60719 0.5719 0.0
C943 C 0.85666 0.59557 0.52133 0.0
Co944 Co 0.42444 0.21096 0.60856 0.0
Co945 Co 0.41151 0.25029 0.64191 0.0
O946 O 0.4268 0.23928 0.59283 0.0
C947 C 0.41573 0.20999 0.48058 0.0
O948 O 0.40259 0.21733 0.49446 0.0
C949 C 0.45601 0.28973 0.62022 0.0
O950 O 0.46544 0.27786 0.62242 0.0
O951 O 0.42581 0.24721 0.71501 0.0
O952 O 0.42293 0.21481 0.69609 0.0
H953 H 0.36877 0.25054 0.82017 0.0
H954 H 0.46052 0.24255 0.53203 0.0
O955 O 0.42585 0.20622 0.52122 0.0
H956 H 0.49602 0.22901 0.70238 0.0
H957 H 0.44308 0.15187 0.57705 0.0
H958 H 0.39696 0.17364 0.68767 0.0
H959 H 0.45599 0.21042 0.69547 0.0
H960 H 0.44632 0.18769 0.55956 0.0
O961 O 0.43562 0.2811 0.6295 0.0
H962 H 0.38756 0.23676 0.75661 0.0
H963 H 0.40356 0.28775 0.6325 0.0
H964 H 0.3933 0.13775 0.70685 0.0
H965 H 0.5006 0.26126 0.53675 0.0
H966 H 0.41648 0.12666 0.65135 0.0
H967 H 0.51861 0.25458 0.62252 0.0
O968 O 0.39205 0.19623 0.60486 0.0
H969 H 0.40918 0.27152 0.42956 0.0
H970 H 0.36558 0.2366 0.60918 0.0
H971 H 0.3473 0.23869 0.51816 0.0
H972 H 0.36913 0.25631 0.42752 0.0
H973 H 0.42677 0.26879 0.52124 0.0
H974 H 0.38508 0.30218 0.69498 0.0
H975 H 0.36744 0.28349 0.78949 0.0
O976 O 0.38646 0.22024 0.65523 0.0
C977 C 0.42531 0.22976 0.73207 0.0
C978 C 0.37639 0.25883 0.77908 0.0
C979 C 0.38557 0.28783 0.70887 0.0
N980 N 0.39668 0.26144 0.69085 0.0
C981 C 0.38706 0.25109 0.74286 0.0
C982 C 0.3961 0.27963 0.67378 0.0
C983 C 0.37566 0.27732 0.76186 0.0
C984 C 0.46824 0.23939 0.56917 0.0
N985 N 0.45593 0.22535 0.61329 0.0
C986 C 0.49094 0.25011 0.57174 0.0
C987 C 0.50103 0.24638 0.61993 0.0
C988 C 0.48836 0.23205 0.66479 0.0
C989 C 0.4657 0.22164 0.66075 0.0
C990 C 0.43295 0.15655 0.60168 0.0
C991 C 0.40724 0.16902 0.6637 0.0
C992 C 0.4347 0.17681 0.59195 0.0
N993 N 0.42204 0.18288 0.62316 0.0
C994 C 0.40503 0.14863 0.67459 0.0
C995 C 0.41802 0.14241 0.64338 0.0
C996 C 0.37974 0.20128 0.63396 0.0
C997 C 0.39949 0.26389 0.46885 0.0
C998 C 0.37521 0.2442 0.56989 0.0
C999 C 0.36476 0.2454 0.51851 0.0
C1000 C 0.37702 0.25531 0.46769 0.0
N1001 N 0.39727 0.25266 0.57072 0.0
C1002 C 0.40939 0.26241 0.52104 0.0
Co1003 Co 0.79314 0.2144 0.60913 0.0
Co1004 Co 0.75367 0.16227 0.64313 0.0
O1005 O 0.7648 0.18845 0.5935 0.0
C1006 C 0.79434 0.2064 0.48137 0.0
O1007 O 0.78695 0.18594 0.49553 0.0
C1008 C 0.71429 0.1674 0.62049 0.0
O1009 O 0.72622 0.18869 0.62219 0.0
O1010 O 0.75673 0.17983 0.71584 0.0
O1011 O 0.78915 0.20929 0.69665 0.0
H1012 H 0.75312 0.11964 0.82256 0.0
H1013 H 0.76169 0.21877 0.53163 0.0
O1014 O 0.79802 0.22034 0.52178 0.0
H1015 H 0.77516 0.26832 0.70065 0.0
H1016 H 0.85245 0.29196 0.57665 0.0
H1017 H 0.8303 0.22438 0.6891 0.0
H1018 H 0.79366 0.24677 0.69497 0.0
H1019 H 0.8166 0.2594 0.55925 0.0
O1020 O 0.72287 0.15562 0.63026 0.0
H1021 H 0.76704 0.15206 0.75839 0.0
H1022 H 0.71611 0.1169 0.63421 0.0
H1023 H 0.86621 0.25658 0.70819 0.0
H1024 H 0.74306 0.24024 0.53512 0.0
H1025 H 0.8775 0.2907 0.65177 0.0
H1026 H 0.7497 0.26518 0.62021 0.0
O1027 O 0.80782 0.19669 0.60644 0.0
H1028 H 0.73265 0.13829 0.43094 0.0
H1029 H 0.76725 0.12985 0.61162 0.0
H1030 H 0.76521 0.10926 0.52109 0.0
H1031 H 0.74776 0.11337 0.42992 0.0
H1032 H 0.73532 0.15882 0.52214 0.0
H1033 H 0.70153 0.08414 0.6973 0.0
H1034 H 0.72012 0.08535 0.79215 0.0
O1035 O 0.78369 0.16721 0.65697 0.0
C1036 C 0.77417 0.19684 0.73271 0.0
C1037 C 0.74487 0.1189 0.78133 0.0
C1038 C 0.71591 0.09899 0.71107 0.0
N1039 N 0.7424 0.13641 0.69256 0.0
C1040 C 0.75269 0.13721 0.74475 0.0
C1041 C 0.72419 0.11763 0.67564 0.0
C1042 C 0.72635 0.09967 0.76426 0.0
C1043 C 0.76483 0.22976 0.56847 0.0
N1044 N 0.7788 0.23157 0.61291 0.0
C1045 C 0.75416 0.2418 0.57035 0.0
C1046 C 0.75787 0.25576 0.61816 0.0
C1047 C 0.77213 0.25751 0.66334 0.0
C1048 C 0.78249 0.2452 0.66 0.0
C1049 C 0.84768 0.27721 0.60168 0.0
C1050 C 0.835 0.2392 0.6647 0.0
C1051 C 0.82741 0.25872 0.592 0.0
N1052 N 0.82123 0.24007 0.62369 0.0
C1053 C 0.8554 0.25737 0.67555 0.0
C1054 C 0.86173 0.2765 0.64383 0.0
C1055 C 0.8027 0.17939 0.63592 0.0
C1056 C 0.74021 0.13628 0.47046 0.0
C1057 C 0.75972 0.13182 0.57209 0.0
C1058 C 0.75855 0.12005 0.521 0.0
C1059 C 0.74873 0.12235 0.46988 0.0
N1060 N 0.75132 0.14547 0.57236 0.0
C1061 C 0.74165 0.14778 0.52239 0.0
Co1062 Co 0.42434 0.21446 0.10854 0.0
Co1063 Co 0.41104 0.16219 0.1424 0.0
O1064 O 0.42603 0.18819 0.09235 0.0
C1065 C 0.41423 0.20633 0.98119 0.0
O1066 O 0.40081 0.186 0.99586 0.0
C1067 C 0.45532 0.16683 0.12136 0.0
O1068 O 0.4651 0.18792 0.13044 0.0
O1069 O 0.42623 0.17974 0.21457 0.0
O1070 O 0.4237 0.20948 0.19601 0.0
H1071 H 0.36966 0.12001 0.32315 0.0
H1072 H 0.4593 0.21757 0.02967 0.0
O1073 O 0.42497 0.22026 0.0212 0.0
H1074 H 0.49723 0.26753 0.1966 0.0
H1075 H 0.4439 0.2924 0.07611 0.0
H1076 H 0.39824 0.2253 0.19026 0.0
H1077 H 0.45712 0.24682 0.19262 0.0
H1078 H 0.44628 0.25936 0.05801 0.0
O1079 O 0.43475 0.15516 0.12717 0.0
H1080 H 0.38811 0.15234 0.25863 0.0
H1081 H 0.40288 0.1167 0.1334 0.0
H1082 H 0.39545 0.258 0.21009 0.0
H1083 H 0.49944 0.23814 0.03154 0.0
H1084 H 0.41841 0.29188 0.15282 0.0
H1085 H 0.51867 0.2633 0.11555 0.0
O1086 O 0.39187 0.19722 0.10755 0.0
H1087 H 0.40602 0.1377 0.92995 0.0
H1088 H 0.36465 0.13024 0.11341 0.0
H1089 H 0.34519 0.10968 0.02372 0.0
H1090 H 0.3659 0.1133 0.93115 0.0
H1091 H 0.4248 0.15821 0.02037 0.0
H1092 H 0.38472 0.08402 0.19679 0.0
H1093 H 0.36787 0.08552 0.29235 0.0
O1094 O 0.3864 0.16767 0.15802 0.0
C1095 C 0.42623 0.19694 0.23174 0.0
C1096 C 0.37692 0.11914 0.28159 0.0
C1097 C 0.38539 0.09895 0.21071 0.0
N1098 N 0.39654 0.13643 0.19219 0.0
C1099 C 0.38738 0.1374 0.24481 0.0
C1100 C 0.39572 0.11754 0.17508 0.0
C1101 C 0.37593 0.0998 0.2643 0.0
C1102 C 0.46755 0.22865 0.06606 0.0
N1103 N 0.45589 0.23109 0.11079 0.0
C1104 C 0.49028 0.24018 0.06702 0.0
C1105 C 0.50106 0.25427 0.11421 0.0
C1106 C 0.48904 0.25663 0.15973 0.0
C1107 C 0.46633 0.24482 0.15732 0.0
C1108 C 0.43387 0.27776 0.10151 0.0
C1109 C 0.4084 0.24002 0.16546 0.0
C1110 C 0.43513 0.259 0.09142 0.0
N1111 N 0.4226 0.24049 0.12358 0.0
C1112 C 0.4067 0.25847 0.17674 0.0
C1113 C 0.41956 0.27746 0.14455 0.0
C1114 C 0.3797 0.18003 0.13748 0.0
C1115 C 0.39682 0.13592 0.97008 0.0
C1116 C 0.37378 0.132 0.07326 0.0
C1117 C 0.36268 0.12025 0.02265 0.0
C1118 C 0.37431 0.12227 0.97074 0.0
N1119 N 0.39587 0.14539 0.07228 0.0
C1120 C 0.40739 0.14741 0.02155 0.0
Co1121 Co 0.79005 0.21123 0.10913 0.0
Co1122 Co 0.84227 0.25029 0.14318 0.0
O1123 O 0.81618 0.23936 0.09341 0.0
C1124 C 0.798 0.20985 0.98142 0.0
O1125 O 0.81841 0.21697 0.99562 0.0
C1126 C 0.83741 0.28984 0.12264 0.0
O1127 O 0.81625 0.27839 0.1303 0.0
O1128 O 0.82473 0.24755 0.21571 0.0
O1129 O 0.79517 0.21521 0.19664 0.0
H1130 H 0.88469 0.25066 0.32291 0.0
H1131 H 0.7864 0.24316 0.03198 0.0
O1132 O 0.7841 0.20638 0.02179 0.0
H1133 H 0.73668 0.23004 0.20033 0.0
H1134 H 0.71223 0.15252 0.0767 0.0
H1135 H 0.77969 0.17401 0.1892 0.0
H1136 H 0.75771 0.211 0.19457 0.0
H1137 H 0.74504 0.18817 0.05924 0.0
O1138 O 0.84914 0.28103 0.12921 0.0
H1139 H 0.85231 0.23687 0.2586 0.0
H1140 H 0.8877 0.28777 0.13455 0.0
H1141 H 0.74723 0.13829 0.20836 0.0
H1142 H 0.76549 0.26237 0.03561 0.0
H1143 H 0.71317 0.12734 0.15191 0.0
H1144 H 0.74046 0.25589 0.12034 0.0
O1145 O 0.80752 0.19628 0.10655 0.0
H1146 H 0.86657 0.27078 0.93098 0.0
H1147 H 0.87443 0.23627 0.11263 0.0
H1148 H 0.89504 0.23795 0.02248 0.0
H1149 H 0.89122 0.25535 0.93081 0.0
H1150 H 0.84601 0.26846 0.02183 0.0
H1151 H 0.92043 0.3022 0.19776 0.0
H1152 H 0.91908 0.28356 0.29262 0.0
O1153 O 0.837 0.22019 0.15756 0.0
C1154 C 0.80765 0.23019 0.23265 0.0
C1155 C 0.88549 0.25891 0.28165 0.0
C1156 C 0.90554 0.28785 0.21146 0.0
N1157 N 0.86809 0.26147 0.19276 0.0
C1158 C 0.8672 0.25117 0.24499 0.0
C1159 C 0.88692 0.27965 0.17593 0.0
C1160 C 0.90478 0.27738 0.26465 0.0
C1161 C 0.77538 0.24009 0.06867 0.0
N1162 N 0.7732 0.2259 0.11283 0.0
C1163 C 0.76365 0.25109 0.07063 0.0
C1164 C 0.74964 0.24747 0.11824 0.0
C1165 C 0.74752 0.23299 0.16316 0.0
C1166 C 0.75953 0.22231 0.15975 0.0
C1167 C 0.72695 0.15714 0.10174 0.0
C1168 C 0.76489 0.16945 0.16478 0.0
C1169 C 0.74558 0.1773 0.09201 0.0
N1170 N 0.76419 0.18329 0.12372 0.0
C1171 C 0.74658 0.14916 0.17568 0.0
C1172 C 0.72749 0.14301 0.14394 0.0
C1173 C 0.82476 0.20125 0.13616 0.0
C1174 C 0.86843 0.26323 0.97071 0.0
C1175 C 0.87257 0.24377 0.07288 0.0
C1176 C 0.88436 0.24474 0.022 0.0
C1177 C 0.88222 0.25453 0.97061 0.0
N1178 N 0.85906 0.25233 0.07266 0.0
C1179 C 0.85692 0.26197 0.02243 0.0
Co1180 Co 0.79324 0.58014 0.10802 0.0
Co1181 Co 0.75376 0.59275 0.14157 0.0
O1182 O 0.7649 0.57767 0.0922 0.0
C1183 C 0.7942 0.58868 0.97981 0.0
O1184 O 0.78674 0.60176 0.99328 0.0
C1185 C 0.71439 0.5481 0.12205 0.0
O1186 O 0.72592 0.53851 0.13052 0.0
O1187 O 0.75676 0.57826 0.21443 0.0
O1188 O 0.78935 0.5816 0.19549 0.0
H1189 H 0.75302 0.63502 0.32034 0.0
H1190 H 0.76142 0.54402 0.03213 0.0
O1191 O 0.79803 0.5787 0.02072 0.0
H1192 H 0.77557 0.50867 0.20172 0.0
H1193 H 0.85267 0.56195 0.07664 0.0
H1194 H 0.83049 0.60774 0.18724 0.0
H1195 H 0.79416 0.54869 0.19455 0.0
H1196 H 0.81673 0.55846 0.05915 0.0
O1197 O 0.7231 0.56864 0.12786 0.0
H1198 H 0.76706 0.61652 0.25657 0.0
H1199 H 0.71595 0.60018 0.13253 0.0
H1200 H 0.86649 0.61166 0.20642 0.0
H1201 H 0.74265 0.50394 0.03718 0.0
H1202 H 0.87779 0.58864 0.15092 0.0
H1203 H 0.74965 0.48602 0.12254 0.0
O1204 O 0.80781 0.61252 0.10437 0.0
H1205 H 0.73289 0.59576 0.92924 0.0
H1206 H 0.76734 0.63874 0.1101 0.0
H1207 H 0.76533 0.6573 0.01956 0.0
H1208 H 0.74797 0.63578 0.9283 0.0
H1209 H 0.73554 0.57789 0.02045 0.0
H1210 H 0.70126 0.61837 0.19522 0.0
H1211 H 0.71988 0.63604 0.28979 0.0
O1212 O 0.78376 0.61782 0.15565 0.0
C1213 C 0.77429 0.57892 0.23148 0.0
C1214 C 0.74477 0.6274 0.27921 0.0
C1215 C 0.71571 0.61804 0.20902 0.0
N1216 N 0.74238 0.6073 0.19076 0.0
C1217 C 0.75266 0.61691 0.24284 0.0
C1218 C 0.72407 0.60769 0.1738 0.0
C1219 C 0.72617 0.62796 0.26206 0.0
C1220 C 0.7647 0.53633 0.06909 0.0
N1221 N 0.77895 0.54867 0.1128 0.0
C1222 C 0.75396 0.51364 0.07185 0.0
C1223 C 0.75787 0.50359 0.11981 0.0
C1224 C 0.77239 0.51629 0.16428 0.0
C1225 C 0.78282 0.53894 0.16007 0.0
C1226 C 0.8479 0.57201 0.10127 0.0
C1227 C 0.8352 0.59755 0.16326 0.0
C1228 C 0.82758 0.57013 0.09153 0.0
N1229 N 0.82139 0.5827 0.12271 0.0
C1230 C 0.85565 0.59989 0.17415 0.0
C1231 C 0.86199 0.58699 0.14295 0.0
C1232 C 0.80271 0.6247 0.13399 0.0
C1233 C 0.74043 0.60531 0.96879 0.0
C1234 C 0.75986 0.62926 0.07052 0.0
C1235 C 0.7587 0.63986 0.01942 0.0
C1236 C 0.74893 0.62777 0.96825 0.0
N1237 N 0.7515 0.60722 0.07072 0.0
C1238 C 0.74187 0.59526 0.02071 0.0
Co1239 Co 0.54797 0.09044 0.05404 0.0
Co1240 Co 0.49579 0.07762 0.01989 0.0
O1241 O 0.52198 0.09281 0.06946 0.0
C1242 C 0.54016 0.08163 0.18207 0.0
O1243 O 0.51966 0.06857 0.16831 0.0
C1244 C 0.50079 0.1221 0.04173 0.0
O1245 O 0.52209 0.13151 0.04008 0.0
O1246 O 0.51332 0.09198 0.94702 0.0
O1247 O 0.54278 0.08906 0.96653 0.0
H1248 H 0.45316 0.0351 0.84094 0.0
H1249 H 0.55233 0.12643 0.13073 0.0
O1250 O 0.55402 0.09175 0.14138 0.0
H1251 H 0.6017 0.16211 0.96112 0.0
H1252 H 0.62563 0.10894 0.08635 0.0
H1253 H 0.55791 0.06304 0.97485 0.0
H1254 H 0.58024 0.12208 0.96764 0.0
H1255 H 0.59304 0.11221 0.10355 0.0
O1256 O 0.48905 0.10173 0.03222 0.0
H1257 H 0.4856 0.0538 0.90501 0.0
H1258 H 0.45036 0.06971 0.02858 0.0
H1259 H 0.59014 0.05934 0.95597 0.0
H1260 H 0.5737 0.16651 0.12639 0.0
H1261 H 0.62433 0.08241 0.01191 0.0
H1262 H 0.59855 0.1846 0.041 0.0
O1263 O 0.53028 0.05805 0.05742 0.0
H1264 H 0.47183 0.07504 0.23195 0.0
H1265 H 0.46344 0.03167 0.05202 0.0
H1266 H 0.44289 0.01329 0.14274 0.0
H1267 H 0.44698 0.03501 0.23354 0.0
H1268 H 0.49232 0.09273 0.14057 0.0
H1269 H 0.41758 0.05132 0.96559 0.0
H1270 H 0.41882 0.03376 0.8711 0.0
O1271 O 0.5008 0.05257 0.00662 0.0
C1272 C 0.53034 0.09153 0.93031 0.0
C1273 C 0.45241 0.04268 0.88202 0.0
C1274 C 0.43245 0.0518 0.95193 0.0
N1275 N 0.46992 0.06287 0.97053 0.0
C1276 C 0.47073 0.05329 0.91853 0.0
C1277 C 0.4511 0.06228 0.98731 0.0
C1278 C 0.43315 0.04195 0.89895 0.0
C1279 C 0.56328 0.13418 0.09376 0.0
N1280 N 0.56509 0.12193 0.04963 0.0
C1281 C 0.57526 0.15688 0.0914 0.0
C1282 C 0.58917 0.16702 0.04342 0.0
C1283 C 0.59092 0.15441 -0.00144 0.0
C1284 C 0.57867 0.13175 0.00238 0.0
C1285 C 0.61085 0.09885 0.06153 0.0
C1286 C 0.57276 0.07326 -0.00095 0.0
C1287 C 0.59234 0.10062 0.0711 0.0
N1288 N 0.57366 0.08802 0.03967 0.0
C1289 C 0.59095 0.07103 0.98831 0.0
C1290 C 0.61011 0.08396 0.01976 0.0
C1291 C 0.51297 0.04579 0.02806 0.0
C1292 C 0.46984 0.06541 0.19259 0.0
C1293 C 0.4654 0.04125 0.09138 0.0
C1294 C 0.45366 0.03075 0.14259 0.0
C1295 C 0.45593 0.04295 0.1935 0.0
N1296 N 0.47901 0.0633 0.09081 0.0
C1297 C 0.48131 0.07536 0.14057 0.0
Co1298 Co 0.91367 0.45846 0.05356 0.0
Co1299 Co 0.92655 0.41919 0.01908 0.0
O1300 O 0.91148 0.4302 0.069 0.0
C1301 C 0.92307 0.45971 0.18118 0.0
O1302 O 0.93622 0.45243 0.16685 0.0
C1303 C 0.88213 0.37978 0.0414 0.0
O1304 O 0.87269 0.39164 0.0388 0.0
O1305 O 0.91192 0.42218 0.9466 0.0
O1306 O 0.91472 0.45451 0.96602 0.0
H1307 H 0.96854 0.41886 0.83912 0.0
H1308 H 0.87804 0.42686 0.13121 0.0
O1309 O 0.91269 0.4633 0.14092 0.0
H1310 H 0.84155 0.44014 0.96284 0.0
H1311 H 0.89506 0.51749 0.08675 0.0
H1312 H 0.94061 0.49566 0.97351 0.0
H1313 H 0.88162 0.45884 0.96818 0.0
H1314 H 0.89199 0.48173 0.10392 0.0
O1315 O 0.90252 0.38839 0.0321 0.0
H1316 H 0.95002 0.43266 0.90366 0.0
H1317 H 0.93453 0.38172 0.02752 0.0
H1318 H 0.9441 0.53149 0.95464 0.0
H1319 H 0.83793 0.40803 0.12804 0.0
H1320 H 0.9212 0.54262 0.01146 0.0
H1321 H 0.81943 0.41458 0.04328 0.0
O1322 O 0.94608 0.47326 0.05599 0.0
H1323 H 0.92989 0.3982 0.23106 0.0
H1324 H 0.97264 0.43291 0.05007 0.0
H1325 H 0.99135 0.43093 0.14032 0.0
H1326 H 0.96994 0.41343 0.23165 0.0
H1327 H 0.91187 0.40081 0.14012 0.0
H1328 H 0.95274 0.36726 0.96406 0.0
H1329 H 0.96999 0.38591 0.86919 0.0
O1330 O 0.95153 0.44924 0.00519 0.0
C1331 C 0.91219 0.43955 0.92988 0.0
C1332 C 0.96109 0.41059 0.88037 0.0
C1333 C 0.9522 0.38161 0.95044 0.0
N1334 N 0.94117 0.40801 0.96936 0.0
C1335 C 0.95058 0.41834 0.91715 0.0
C1336 C 0.94182 0.38982 0.98609 0.0
C1337 C 0.96189 0.3921 0.89724 0.0
C1338 C 0.8701 0.42996 0.09451 0.0
N1339 N 0.88215 0.44399 0.05008 0.0
C1340 C 0.84739 0.41918 0.09281 0.0
C1341 C 0.83702 0.42283 0.04519 0.0
C1342 C 0.84943 0.43715 0.0 0.0
C1343 C 0.87211 0.44763 0.00316 0.0
C1344 C 0.90507 0.5128 0.06155 0.0
C1345 C 0.93047 0.5003 0.9981 0.0
C1346 C 0.90342 0.49257 0.07111 0.0
N1347 N 0.91592 0.48649 0.0392 0.0
C1348 C 0.93258 0.52065 0.98736 0.0
C1349 C 0.91974 0.52689 0.01931 0.0
C1350 C 0.9583 0.46821 0.02645 0.0
C1351 C 0.93939 0.40578 0.19146 0.0
C1352 C 0.9632 0.42535 0.08966 0.0
C1353 C 0.97389 0.42422 0.1406 0.0
C1354 C 0.96186 0.41437 0.19181 0.0
N1355 N 0.94114 0.41689 0.08964 0.0
C1356 C 0.92925 0.4072 0.13969 0.0
Co1357 Co 0.54542 0.45491 0.05386 0.0
Co1358 Co 0.58473 0.50708 0.01949 0.0
O1359 O 0.57369 0.48097 0.06935 0.0
C1360 C 0.544 0.46312 0.18136 0.0
O1361 O 0.55127 0.48352 0.1668 0.0
C1362 C 0.62422 0.50217 0.04241 0.0
O1363 O 0.61236 0.48087 0.04121 0.0
O1364 O 0.58172 0.48948 0.94694 0.0
O1365 O 0.54942 0.45989 0.96632 0.0
H1366 H 0.58507 0.54943 0.83962 0.0
H1367 H 0.57692 0.45084 0.13192 0.0
O1368 O 0.54052 0.44913 0.14126 0.0
H1369 H 0.56384 0.40112 0.9636 0.0
H1370 H 0.48639 0.37729 0.08705 0.0
H1371 H 0.50825 0.44461 0.9736 0.0
H1372 H 0.54515 0.42251 0.9686 0.0
H1373 H 0.52214 0.40999 0.10431 0.0
O1374 O 0.61556 0.51386 0.03235 0.0
H1375 H 0.57126 0.51709 0.90409 0.0
H1376 H 0.62217 0.55253 0.0281 0.0
H1377 H 0.47243 0.41225 0.95463 0.0
H1378 H 0.59573 0.42954 0.1291 0.0
H1379 H 0.46129 0.37826 0.01156 0.0
H1380 H 0.58928 0.40451 0.04437 0.0
O1381 O 0.53058 0.47249 0.05603 0.0
H1382 H 0.60569 0.53128 0.23156 0.0
H1383 H 0.57102 0.53944 0.05064 0.0
H1384 H 0.57299 0.56008 0.14099 0.0
H1385 H 0.59047 0.55611 0.23229 0.0
H1386 H 0.60309 0.51071 0.14052 0.0
H1387 H 0.63664 0.58521 0.96471 0.0
H1388 H 0.618 0.58381 0.86979 0.0
O1389 O 0.55467 0.50202 0.00562 0.0
C1390 C 0.56436 0.47237 0.93018 0.0
C1391 C 0.59334 0.55025 0.88088 0.0
C1392 C 0.62229 0.57032 0.95104 0.0
N1393 N 0.5959 0.53288 0.96984 0.0
C1394 C 0.58558 0.53198 0.91762 0.0
C1395 C 0.61408 0.55172 0.98664 0.0
C1396 C 0.61182 0.56953 0.89782 0.0
C1397 C 0.57386 0.43982 0.09522 0.0
N1398 N 0.5599 0.43787 0.05061 0.0
C1399 C 0.58463 0.42787 0.09372 0.0
C1400 C 0.58104 0.41386 0.04612 0.0
C1401 C 0.56678 0.41197 0.00075 0.0
C1402 C 0.55631 0.42419 0.00371 0.0
C1403 C 0.49109 0.39197 0.0618 0.0
C1404 C 0.50361 0.42984 0.99823 0.0
C1405 C 0.5113 0.41055 0.07141 0.0
N1406 N 0.5174 0.42913 0.03944 0.0
C1407 C 0.48326 0.41159 0.98744 0.0
C1408 C 0.47701 0.39253 0.01944 0.0
C1409 C 0.53566 0.48978 0.02658 0.0
C1410 C 0.59811 0.53322 0.19198 0.0
C1411 C 0.57857 0.53753 0.09022 0.0
C1412 C 0.5797 0.54933 0.14121 0.0
C1413 C 0.58953 0.54711 0.1924 0.0
N1414 N 0.58703 0.52393 0.09011 0.0
C1415 C 0.59671 0.5217 0.14015 0.0
Co1416 Co 0.58028 0.78908 0.88741 0.0
Co1417 Co 0.59303 0.84125 0.85358 0.0
O1418 O 0.5778 0.81499 0.90285 0.0
C1419 C 0.58895 0.79692 0.01539 0.0
O1420 O 0.602 0.81741 0.00156 0.0
C1421 C 0.54846 0.8361 0.87543 0.0
O1422 O 0.53916 0.8148 0.87461 0.0
O1423 O 0.57883 0.82379 0.78053 0.0
O1424 O 0.58176 0.79433 0.7999 0.0
H1425 H 0.63581 0.88415 0.6753 0.0
H1426 H 0.54413 0.78448 0.96386 0.0
O1427 O 0.5789 0.78302 0.97474 0.0
H1428 H 0.5088 0.73525 0.79376 0.0
H1429 H 0.56201 0.7115 0.91964 0.0
H1430 H 0.60785 0.77929 0.80844 0.0
H1431 H 0.54882 0.75685 0.80062 0.0
H1432 H 0.55859 0.744 0.93677 0.0
O1433 O 0.56882 0.84788 0.86554 0.0
H1434 H 0.61706 0.85164 0.73903 0.0
H1435 H 0.60078 0.8866 0.86252 0.0
H1436 H 0.61171 0.74715 0.78963 0.0
H1437 H 0.50405 0.76295 0.95918 0.0
H1438 H 0.58866 0.71293 0.84543 0.0
H1439 H 0.48614 0.73817 0.87355 0.0
O1440 O 0.61266 0.80682 0.89112 0.0
H1441 H 0.59511 0.86495 0.0657 0.0
H1442 H 0.63889 0.87365 0.88643 0.0
H1443 H 0.65705 0.89414 0.97742 0.0
H1444 H 0.63513 0.88989 0.06789 0.0
H1445 H 0.57764 0.84452 0.97406 0.0
H1446 H 0.6192 0.91946 0.79986 0.0
H1447 H 0.63696 0.91839 0.70558 0.0
O1448 O 0.61818 0.83636 0.84061 0.0
C1449 C 0.57932 0.80681 0.76374 0.0
C1450 C 0.62813 0.88483 0.71629 0.0
C1451 C 0.61879 0.90463 0.78615 0.0
N1452 N 0.6078 0.86718 0.80449 0.0
C1453 C 0.6175 0.86646 0.75261 0.0
C1454 C 0.6083 0.88594 0.82134 0.0
C1455 C 0.62877 0.90403 0.73328 0.0
C1456 C 0.53645 0.77357 0.92677 0.0
N1457 N 0.5488 0.77188 0.88269 0.0
C1458 C 0.51375 0.76149 0.92422 0.0
C1459 C 0.50371 0.74762 0.87611 0.0
C1460 C 0.51642 0.74599 0.83129 0.0
C1461 C 0.53907 0.75833 0.83531 0.0
C1462 C 0.57209 0.72629 0.89488 0.0
C1463 C 0.59764 0.76442 0.83255 0.0
C1464 C 0.57023 0.74475 0.90441 0.0
N1465 N 0.58281 0.76346 0.87306 0.0
C1466 C 0.59995 0.74629 0.82186 0.0
C1467 C 0.58704 0.7271 0.85324 0.0
C1468 C 0.62495 0.82416 0.86198 0.0
C1469 C 0.60483 0.86701 0.02649 0.0
C1470 C 0.62922 0.87162 0.92565 0.0
C1471 C 0.6396 0.88333 0.97701 0.0
C1472 C 0.62729 0.88096 0.02773 0.0
N1473 N 0.60718 0.85796 0.92474 0.0
C1474 C 0.595 0.85558 0.97431 0.0
Co1475 Co 0.21518 0.7914 0.88798 0.0
Co1476 Co 0.16295 0.75245 0.85349 0.0
O1477 O 0.18892 0.76339 0.9037 0.0
C1478 C 0.20689 0.79325 0.01523 0.0
O1479 O 0.18656 0.78631 0.00037 0.0
C1480 C 0.16773 0.71289 0.87427 0.0
O1481 O 0.18886 0.72429 0.86587 0.0
O1482 O 0.18058 0.75503 0.78131 0.0
O1483 O 0.2103 0.78724 0.80046 0.0
H1484 H 0.12087 0.75191 0.67277 0.0
H1485 H 0.21834 0.7595 0.96646 0.0
O1486 O 0.22086 0.79642 0.97538 0.0
H1487 H 0.2685 0.77194 0.79972 0.0
H1488 H 0.29303 0.84986 0.92143 0.0
H1489 H 0.22601 0.82846 0.80684 0.0
H1490 H 0.24767 0.79122 0.8039 0.0
H1491 H 0.26003 0.81436 0.93891 0.0
O1492 O 0.15601 0.72171 0.86808 0.0
H1493 H 0.15313 0.76576 0.73758 0.0
H1494 H 0.1175 0.71499 0.8618 0.0
H1495 H 0.25866 0.86404 0.78763 0.0
H1496 H 0.23904 0.74006 0.9644 0.0
H1497 H 0.2925 0.87494 0.84513 0.0
H1498 H 0.2643 0.7462 0.88048 0.0
O1499 O 0.19786 0.80653 0.88925 0.0
H1500 H 0.13831 0.73239 0.06562 0.0
H1501 H 0.1308 0.7666 0.88285 0.0
H1502 H 0.11008 0.76514 0.97255 0.0
H1503 H 0.11373 0.7479 0.06477 0.0
H1504 H 0.15897 0.73447 0.97519 0.0
H1505 H 0.08489 0.70051 0.7981 0.0
H1506 H 0.08641 0.71905 0.7029 0.0
O1507 O 0.16832 0.78255 0.83852 0.0
C1508 C 0.1978 0.77227 0.76445 0.0
C1509 C 0.11998 0.7437 0.71418 0.0
C1510 C 0.0998 0.71484 0.78447 0.0
N1511 N 0.13722 0.74124 0.80353 0.0
C1512 C 0.1382 0.75148 0.75112 0.0
C1513 C 0.11835 0.72308 0.82028 0.0
C1514 C 0.10067 0.72525 0.73109 0.0
C1515 C 0.22946 0.76242 0.93011 0.0
N1516 N 0.23188 0.77656 0.88554 0.0
C1517 C 0.24107 0.75129 0.92905 0.0
C1518 C 0.25521 0.75472 0.8819 0.0
C1519 C 0.25756 0.76915 0.83654 0.0
C1520 C 0.24567 0.77996 0.83906 0.0
C1521 C 0.27841 0.84526 0.89594 0.0
C1522 C 0.2407 0.83301 0.83174 0.0
C1523 C 0.25967 0.82519 0.90567 0.0
N1524 N 0.24118 0.81922 0.8734 0.0
C1525 C 0.25913 0.85321 0.8208 0.0
C1526 C 0.2781 0.85933 0.85312 0.0
C1527 C 0.18065 0.80155 0.8595 0.0
C1528 C 0.13652 0.73988 0.02564 0.0
C1529 C 0.13257 0.75916 0.92284 0.0
C1530 C 0.12073 0.75832 0.97347 0.0
C1531 C 0.12277 0.74862 0.02517 0.0
N1532 N 0.14605 0.75056 0.92363 0.0
C1533 C 0.14809 0.741 0.97417 0.0
Co1534 Co 0.21251 0.42345 0.88921 0.0
Co1535 Co 0.25161 0.41031 0.85555 0.0
O1536 O 0.24061 0.42542 0.90519 0.0
C1537 C 0.21103 0.4141 0.01696 0.0
O1538 O 0.21813 0.40078 0.00283 0.0
C1539 C 0.29112 0.45477 0.87513 0.0
O1540 O 0.27978 0.46446 0.86514 0.0
O1541 O 0.24896 0.42514 0.78295 0.0
O1542 O 0.21661 0.42239 0.80175 0.0
H1543 H 0.25231 0.36833 0.67605 0.0
H1544 H 0.24448 0.45893 0.96652 0.0
O1545 O 0.20757 0.42451 0.97653 0.0
H1546 H 0.23152 0.49571 0.79835 0.0
H1547 H 0.1538 0.44261 0.9212 0.0
H1548 H 0.17538 0.3967 0.80873 0.0
H1549 H 0.21236 0.45564 0.80395 0.0
H1550 H 0.18943 0.4454 0.93896 0.0
O1551 O 0.2823 0.43419 0.87006 0.0
H1552 H 0.23837 0.38686 0.74008 0.0
H1553 H 0.2892 0.40254 0.86459 0.0
H1554 H 0.13969 0.39349 0.78927 0.0
H1555 H 0.2638 0.49905 0.96303 0.0
H1556 H 0.12869 0.41657 0.84569 0.0
H1557 H 0.2574 0.51769 0.87839 0.0
O1558 O 0.19753 0.39103 0.89152 0.0
H1559 H 0.27179 0.40635 0.06799 0.0
H1560 H 0.23754 0.36412 0.88593 0.0
H1561 H 0.23908 0.34513 0.97611 0.0
H1562 H 0.25634 0.36628 0.06798 0.0
H1563 H 0.26962 0.42466 0.97711 0.0
H1564 H 0.30378 0.3843 0.80166 0.0
H1565 H 0.28524 0.36695 0.70673 0.0
O1566 O 0.22153 0.38549 0.84077 0.0
C1567 C 0.23163 0.4249 0.76586 0.0
C1568 C 0.26051 0.3758 0.71735 0.0
C1569 C 0.28941 0.38479 0.78781 0.0
N1570 N 0.26291 0.39574 0.80615 0.0
C1571 C 0.25268 0.38631 0.75386 0.0
C1572 C 0.28112 0.39516 0.82318 0.0
C1573 C 0.279 0.37505 0.73457 0.0
C1574 C 0.24145 0.46694 0.92987 0.0
N1575 N 0.22722 0.45497 0.8857 0.0
C1576 C 0.25251 0.48965 0.92799 0.0
C1577 C 0.24893 0.5001 0.88044 0.0
C1578 C 0.23443 0.48778 0.83549 0.0
C1579 C 0.22368 0.46509 0.83882 0.0
C1580 C 0.15844 0.43252 0.89617 0.0
C1581 C 0.1708 0.40692 0.83315 0.0
C1582 C 0.17858 0.43402 0.90607 0.0
N1583 N 0.1846 0.42142 0.87437 0.0
C1584 C 0.15052 0.40498 0.82208 0.0
C1585 C 0.14436 0.41791 0.8538 0.0
C1586 C 0.20254 0.37879 0.86186 0.0
C1587 C 0.2643 0.39696 0.02817 0.0
C1588 C 0.24499 0.37344 0.92577 0.0
C1589 C 0.24588 0.3626 0.97667 0.0
C1590 C 0.25559 0.37448 0.02818 0.0
N1591 N 0.25354 0.39551 0.9261 0.0
C1592 C 0.26312 0.40726 0.97644 0.0
Co1593 Co 0.45625 0.91273 0.94148 0.0
Co1594 Co 0.50851 0.92593 0.97525 0.0
O1595 O 0.48244 0.91087 0.9254 0.0
C1596 C 0.46419 0.92247 0.81389 0.0
O1597 O 0.48457 0.93582 0.82825 0.0
C1598 C 0.50373 0.88155 0.95495 0.0
O1599 O 0.48267 0.87179 0.96443 0.0
O1600 O 0.491 0.91095 0.04768 0.0
O1601 O 0.46134 0.91362 0.02895 0.0
H1602 H 0.55097 0.96761 0.15536 0.0
H1603 H 0.45288 0.87748 0.86347 0.0
O1604 O 0.45031 0.91187 0.85413 0.0
H1605 H 0.40306 0.84021 0.03114 0.0
H1606 H 0.37834 0.89343 0.90945 0.0
H1607 H 0.44571 0.93923 0.02248 0.0
H1608 H 0.4239 0.8803 0.02625 0.0
H1609 H 0.41125 0.89079 0.89148 0.0
O1610 O 0.51542 0.90212 0.96043 0.0
H1611 H 0.51857 0.94916 0.09104 0.0
H1612 H 0.55393 0.93385 0.96627 0.0
H1613 H 0.41315 0.94228 0.04217 0.0
H1614 H 0.43217 0.83735 0.86625 0.0
H1615 H 0.37913 0.91925 0.98546 0.0
H1616 H 0.40708 0.81846 0.95063 0.0
O1617 O 0.47363 0.94517 0.93972 0.0
H1618 H 0.53278 0.93033 0.76279 0.0
H1619 H 0.5406 0.97219 0.9455 0.0
H1620 H 0.56117 0.99137 0.85555 0.0
H1621 H 0.55737 0.97041 0.76335 0.0
H1622 H 0.51227 0.91183 0.85346 0.0
H1623 H 0.58667 0.952 0.02948 0.0
H1624 H 0.58534 0.96913 0.1247 0.0
O1625 O 0.50317 0.95068 0.99037 0.0
C1626 C 0.47387 0.91111 0.0648 0.0
C1627 C 0.55176 0.96024 0.11394 0.0
C1628 C 0.57178 0.95145 0.04333 0.0
N1629 N 0.53433 0.94046 0.02483 0.0
C1630 C 0.53346 0.94978 0.07727 0.0
C1631 C 0.55316 0.94112 0.0078 0.0
C1632 C 0.57104 0.96107 0.09673 0.0
C1633 C 0.44184 0.86937 0.90002 0.0
N1634 N 0.43951 0.88121 0.94444 0.0
C1635 C 0.43022 0.84665 0.90149 0.0
C1636 C 0.41618 0.83606 0.9489 0.0
C1637 C 0.41392 0.84825 0.99411 0.0
C1638 C 0.42582 0.87095 0.99119 0.0
C1639 C 0.39304 0.90349 0.9346 0.0
C1640 C 0.43093 0.92904 0.99793 0.0
C1641 C 0.41173 0.90209 0.92459 0.0
N1642 N 0.43032 0.91465 0.95644 0.0
C1643 C 0.41256 0.93089 0.00914 0.0
C1644 C 0.39349 0.91798 0.97726 0.0
C1645 C 0.49086 0.95739 0.96945 0.0
C1646 C 0.53464 0.93963 0.80275 0.0
C1647 C 0.53876 0.96295 0.90552 0.0
C1648 C 0.55052 0.9739 0.85475 0.0
C1649 C 0.54839 0.96212 0.80306 0.0
N1650 N 0.52528 0.94088 0.90489 0.0
C1651 C 0.52315 0.92923 0.85436 0.0
Co1652 Co 0.09154 0.5441 0.94282 0.0
Co1653 Co 0.07864 0.58341 0.97679 0.0
O1654 O 0.09383 0.5724 0.92726 0.0
C1655 C 0.08247 0.54296 0.81502 0.0
O1656 O 0.06934 0.55029 0.82912 0.0
C1657 C 0.1231 0.62285 0.95479 0.0
O1658 O 0.13253 0.61099 0.95687 0.0
O1659 O 0.09309 0.58035 0.04959 0.0
O1660 O 0.09026 0.54799 0.03035 0.0
H1661 H 0.03623 0.58364 0.15587 0.0
H1662 H 0.1274 0.57569 0.86572 0.0
O1663 O 0.09273 0.53931 0.85546 0.0
H1664 H 0.16339 0.56227 0.03506 0.0
H1665 H 0.11016 0.48504 0.91041 0.0
H1666 H 0.06433 0.50683 0.02238 0.0
H1667 H 0.12334 0.54363 0.02895 0.0
H1668 H 0.11332 0.52083 0.89312 0.0
O1669 O 0.10271 0.61422 0.96418 0.0
H1670 H 0.05491 0.56987 0.09181 0.0
H1671 H 0.07067 0.62087 0.96792 0.0
H1672 H 0.06074 0.47097 0.04137 0.0
H1673 H 0.1675 0.59446 0.86964 0.0
H1674 H 0.08378 0.45986 0.98519 0.0
H1675 H 0.18575 0.58784 0.95489 0.0
O1676 O 0.05914 0.52933 0.93976 0.0
H1677 H 0.07586 0.60456 0.76464 0.0
H1678 H 0.03264 0.56972 0.94486 0.0
H1679 H 0.01417 0.57178 0.8542 0.0
H1680 H 0.03581 0.58935 0.76326 0.0
H1681 H 0.09364 0.60187 0.85597 0.0
H1682 H 0.0523 0.63529 0.03089 0.0
H1683 H 0.03484 0.61659 0.12554 0.0
O1684 O 0.05362 0.55335 0.99031 0.0
C1685 C 0.09271 0.56294 0.06644 0.0
C1686 C 0.04377 0.59193 0.11472 0.0
C1687 C 0.05282 0.62093 0.04463 0.0
N1688 N 0.0639 0.59455 0.02613 0.0
C1689 C 0.05438 0.5842 0.07821 0.0
C1690 C 0.06328 0.61274 0.00926 0.0
C1691 C 0.04301 0.61042 0.0977 0.0
C1692 C 0.13522 0.57256 0.90263 0.0
N1693 N 0.12305 0.55853 0.94691 0.0
C1694 C 0.15793 0.5833 0.90476 0.0
C1695 C 0.16816 0.57961 0.95266 0.0
C1696 C 0.15563 0.56529 0.99768 0.0
C1697 C 0.13296 0.55485 0.99409 0.0
C1698 C 0.10009 0.48972 0.93534 0.0
C1699 C 0.07453 0.5022 0.99809 0.0
C1700 C 0.10179 0.50997 0.92571 0.0
N1701 N 0.08922 0.51604 0.95727 0.0
C1702 C 0.07237 0.48183 0.00888 0.0
C1703 C 0.08529 0.4756 0.97729 0.0
C1704 C 0.04687 0.53439 0.96905 0.0
C1705 C 0.06626 0.59695 0.80406 0.0
C1706 C 0.04218 0.5773 0.90544 0.0
C1707 C 0.03163 0.57849 0.85426 0.0
C1708 C 0.04378 0.58837 0.80327 0.0
N1709 N 0.06424 0.58576 0.9059 0.0
C1710 C 0.07626 0.59549 0.85606 0.0
Co1711 Co 0.46012 0.54742 0.94356 0.0
Co1712 Co 0.42058 0.49529 0.97722 0.0
O1713 O 0.43166 0.52158 0.92807 0.0
C1714 C 0.4608 0.53969 0.81544 0.0
O1715 O 0.45328 0.51916 0.82906 0.0
C1716 C 0.38122 0.5005 0.95499 0.0
O1717 O 0.39324 0.52179 0.95506 0.0
O1718 O 0.42387 0.51273 0.05032 0.0
O1719 O 0.45635 0.54211 0.03106 0.0
H1720 H 0.42035 0.45225 0.15531 0.0
H1721 H 0.42864 0.55226 0.86739 0.0
O1722 O 0.46477 0.55356 0.85626 0.0
H1723 H 0.44275 0.60135 0.03796 0.0
H1724 H 0.5196 0.62495 0.91172 0.0
H1725 H 0.49745 0.55701 0.02236 0.0
H1726 H 0.46103 0.57963 0.03071 0.0
H1727 H 0.48362 0.59255 0.89451 0.0
O1728 O 0.38977 0.48873 0.96536 0.0
H1729 H 0.43416 0.48481 0.09174 0.0
H1730 H 0.38295 0.44996 0.96809 0.0
H1731 H 0.53351 0.58905 0.04125 0.0
H1732 H 0.41023 0.57392 0.87245 0.0
H1733 H 0.54479 0.62335 0.98574 0.0
H1734 H 0.4172 0.59862 0.95833 0.0
O1735 O 0.47465 0.52959 0.93955 0.0
H1736 H 0.39894 0.47171 0.76503 0.0
H1737 H 0.43396 0.46284 0.94417 0.0
H1738 H 0.4316 0.44238 0.85309 0.0
H1739 H 0.41394 0.44671 0.76269 0.0
H1740 H 0.40194 0.49211 0.85675 0.0
H1741 H 0.36847 0.41707 0.03059 0.0
H1742 H 0.38726 0.41805 0.12486 0.0
O1743 O 0.45059 0.5001 0.99015 0.0
C1744 C 0.44138 0.52966 0.06716 0.0
C1745 C 0.41202 0.45161 0.11432 0.0
C1746 C 0.38289 0.43188 0.04438 0.0
N1747 N 0.40938 0.46933 0.02621 0.0
C1748 C 0.41977 0.47001 0.07809 0.0
C1749 C 0.39111 0.45059 0.00928 0.0
C1750 C 0.39345 0.43243 0.09724 0.0
C1751 C 0.43192 0.56314 0.90458 0.0
N1752 N 0.44593 0.56472 0.94859 0.0
C1753 C 0.42138 0.57529 0.90734 0.0
C1754 C 0.42526 0.58912 0.95559 0.0
C1755 C 0.43958 0.59064 0.00033 0.0
C1756 C 0.44981 0.57823 0.99609 0.0
C1757 C 0.51484 0.61012 0.93636 0.0
C1758 C 0.50216 0.57191 0.99837 0.0
C1759 C 0.49449 0.59171 0.92678 0.0
N1760 N 0.48832 0.57297 0.95797 0.0
C1761 C 0.52264 0.58999 0.0091 0.0
C1762 C 0.52897 0.60922 0.97789 0.0
C1763 C 0.46955 0.51224 0.96871 0.0
C1764 C 0.40659 0.46961 0.80422 0.0
C1765 C 0.42633 0.46491 0.90499 0.0
C1766 C 0.42498 0.45321 0.85357 0.0
C1767 C 0.41505 0.45562 0.80289 0.0
N1768 N 0.41799 0.4786 0.90599 0.0
C1769 C 0.40821 0.48103 0.85645 0.0
Co1770 Co 0.09146 0.54721 0.44285 0.0
Co1771 Co 0.07834 0.495 0.47679 0.0
O1772 O 0.09344 0.52108 0.42705 0.0
C1773 C 0.08199 0.5392 0.31522 0.0
O1774 O 0.06868 0.51881 0.32954 0.0
C1775 C 0.12287 0.5 0.45766 0.0
O1776 O 0.13251 0.52104 0.46749 0.0
O1777 O 0.09313 0.51252 0.54934 0.0
O1778 O 0.09042 0.54213 0.53033 0.0
H1779 H 0.03633 0.45244 0.65636 0.0
H1780 H 0.12693 0.55067 0.36556 0.0
O1781 O 0.09247 0.55311 0.3555 0.0
H1782 H 0.16376 0.60055 0.53346 0.0
H1783 H 0.11057 0.62501 0.4103 0.0
H1784 H 0.06471 0.55764 0.52318 0.0
H1785 H 0.12367 0.57961 0.52794 0.0
H1786 H 0.11338 0.59218 0.3928 0.0
O1787 O 0.10227 0.48823 0.46255 0.0
H1788 H 0.05484 0.48486 0.59216 0.0
H1789 H 0.07063 0.44967 0.46809 0.0
H1790 H 0.06148 0.59012 0.54238 0.0
H1791 H 0.16706 0.57148 0.36898 0.0
H1792 H 0.08453 0.62414 0.48574 0.0
H1793 H 0.18573 0.59659 0.45348 0.0
O1794 O 0.05903 0.52976 0.44057 0.0
H1795 H 0.07452 0.47074 0.26454 0.0
H1796 H 0.03217 0.46282 0.44632 0.0
H1797 H 0.01324 0.4422 0.35617 0.0
H1798 H 0.03445 0.44605 0.26445 0.0
H1799 H 0.09277 0.49129 0.35539 0.0
H1800 H 0.05241 0.41691 0.53119 0.0
H1801 H 0.03502 0.41814 0.62599 0.0
O1802 O 0.05348 0.50023 0.49132 0.0
C1803 C 0.09291 0.52963 0.5663 0.0
C1804 C 0.04382 0.45169 0.61512 0.0
C1805 C 0.05287 0.43176 0.54491 0.0
N1806 N 0.06377 0.46917 0.5263 0.0
C1807 C 0.05431 0.47 0.57851 0.0
C1808 C 0.06323 0.45039 0.50944 0.0
C1809 C 0.0431 0.43246 0.59807 0.0
C1810 C 0.13495 0.56173 0.40215 0.0
N1811 N 0.12299 0.56402 0.44629 0.0
C1812 C 0.15767 0.5734 0.40399 0.0
C1813 C 0.16813 0.58746 0.45147 0.0
C1814 C 0.15581 0.58967 0.49638 0.0
C1815 C 0.13312 0.57773 0.4931 0.0
C1816 C 0.10049 0.61031 0.43542 0.0
C1817 C 0.07492 0.57242 0.49867 0.0
C1818 C 0.102 0.59167 0.42568 0.0
N1819 N 0.08942 0.57308 0.45749 0.0
C1820 C 0.07296 0.59074 0.50959 0.0
C1821 C 0.08588 0.60981 0.47775 0.0
C1822 C 0.04677 0.51252 0.47017 0.0
C1823 C 0.06511 0.46886 0.30429 0.0
C1824 C 0.04152 0.46468 0.40654 0.0
C1825 C 0.03071 0.4529 0.35566 0.0
C1826 C 0.04262 0.45505 0.30423 0.0
N1827 N 0.06359 0.47822 0.40627 0.0
C1828 C 0.07537 0.48037 0.35601 0.0
Co1829 Co 0.45639 0.54489 0.44351 0.0
Co1830 Co 0.50865 0.58385 0.47802 0.0
O1831 O 0.48263 0.57295 0.42792 0.0
C1832 C 0.46469 0.54317 0.31626 0.0
O1833 O 0.48502 0.55015 0.33114 0.0
C1834 C 0.50388 0.6234 0.45643 0.0
O1835 O 0.48264 0.6118 0.46205 0.0
O1836 O 0.49104 0.58114 0.55033 0.0
O1837 O 0.46129 0.54897 0.53105 0.0
H1838 H 0.55072 0.58412 0.65844 0.0
H1839 H 0.453 0.57669 0.36512 0.0
O1840 O 0.45069 0.53994 0.3561 0.0
H1841 H 0.40305 0.5642 0.53241 0.0
H1842 H 0.37854 0.48643 0.41003 0.0
H1843 H 0.44561 0.50775 0.52428 0.0
H1844 H 0.42398 0.54504 0.52799 0.0
H1845 H 0.41152 0.52196 0.39266 0.0
O1846 O 0.5156 0.61464 0.46416 0.0
H1847 H 0.51845 0.57039 0.59372 0.0
H1848 H 0.55416 0.62117 0.46963 0.0
H1849 H 0.41297 0.47215 0.54337 0.0
H1850 H 0.43218 0.596 0.36738 0.0
H1851 H 0.37911 0.46129 0.48604 0.0
H1852 H 0.40703 0.58985 0.45159 0.0
O1853 O 0.47371 0.52978 0.44191 0.0
H1854 H 0.53314 0.60424 0.26592 0.0
H1855 H 0.54077 0.56973 0.4479 0.0
H1856 H 0.56142 0.57133 0.35792 0.0
H1857 H 0.55771 0.58872 0.26609 0.0
H1858 H 0.51255 0.60202 0.35662 0.0
H1859 H 0.58679 0.63555 0.53325 0.0
H1860 H 0.58522 0.61693 0.62834 0.0
O1861 O 0.5033 0.55373 0.49248 0.0
C1862 C 0.47382 0.56389 0.56712 0.0
C1863 C 0.55162 0.59237 0.6171 0.0
C1864 C 0.57185 0.62124 0.54688 0.0
N1865 N 0.53439 0.59495 0.52788 0.0
C1866 C 0.53339 0.58466 0.58021 0.0
C1867 C 0.55329 0.61308 0.51113 0.0
C1868 C 0.57096 0.61078 0.6002 0.0
C1869 C 0.44193 0.57376 0.40158 0.0
N1870 N 0.43964 0.55969 0.4462 0.0
C1871 C 0.43025 0.58482 0.40276 0.0
C1872 C 0.41617 0.58138 0.45008 0.0
C1873 C 0.41395 0.56702 0.49547 0.0
C1874 C 0.4259 0.55627 0.49283 0.0
C1875 C 0.39317 0.49101 0.43545 0.0
C1876 C 0.4309 0.50322 0.49946 0.0
C1877 C 0.4119 0.5111 0.42578 0.0
N1878 N 0.4304 0.51704 0.45797 0.0
C1879 C 0.41249 0.483 0.51033 0.0
C1880 C 0.3935 0.47691 0.4781 0.0
C1881 C 0.49096 0.53474 0.47144 0.0
C1882 C 0.53496 0.5967 0.30573 0.0
C1883 C 0.53898 0.57724 0.40809 0.0
C1884 C 0.55078 0.57816 0.3573 0.0
C1885 C 0.54871 0.58794 0.30581 0.0
N1886 N 0.52551 0.58586 0.40768 0.0
C1887 C 0.52343 0.5955 0.35736 0.0
Co1888 Co 0.45956 0.91297 0.44151 0.0
Co1889 Co 0.4203 0.92593 0.47487 0.0
O1890 O 0.43135 0.91077 0.42553 0.0
C1891 C 0.46083 0.92192 0.31354 0.0
O1892 O 0.45359 0.93514 0.32738 0.0
C1893 C 0.38079 0.88137 0.45565 0.0
O1894 O 0.39216 0.87169 0.46532 0.0
O1895 O 0.42311 0.91131 0.54773 0.0
O1896 O 0.45557 0.9143 0.52897 0.0
H1897 H 0.41963 0.96823 0.65365 0.0
H1898 H 0.42763 0.87714 0.36503 0.0
O1899 O 0.46442 0.91168 0.35419 0.0
H1900 H 0.4411 0.84113 0.53422 0.0
H1901 H 0.51853 0.89414 0.41021 0.0
H1902 H 0.49678 0.94019 0.52123 0.0
H1903 H 0.46003 0.88118 0.52762 0.0
H1904 H 0.48278 0.89105 0.39246 0.0
O1905 O 0.38961 0.90195 0.46077 0.0
H1906 H 0.43359 0.94964 0.58996 0.0
H1907 H 0.38262 0.93355 0.46563 0.0
H1908 H 0.5326 0.9437 0.54067 0.0
H1909 H 0.40852 0.83704 0.36952 0.0
H1910 H 0.54368 0.92055 0.48498 0.0
H1911 H 0.41518 0.81879 0.45468 0.0
O1912 O 0.47436 0.94538 0.43838 0.0
H1913 H 0.39981 0.92928 0.26237 0.0
H1914 H 0.43417 0.97201 0.44366 0.0
H1915 H 0.43242 0.99073 0.35315 0.0
H1916 H 0.41509 0.96933 0.26167 0.0
H1917 H 0.4022 0.91125 0.35355 0.0
H1918 H 0.36802 0.95184 0.52823 0.0
H1919 H 0.38661 0.96943 0.6229 0.0
O1920 O 0.45036 0.95086 0.48924 0.0
C1921 C 0.44054 0.91178 0.56488 0.0
C1922 C 0.4114 0.96065 0.61246 0.0
C1923 C 0.38242 0.95143 0.54211 0.0
N1924 N 0.40898 0.94054 0.524 0.0
C1925 C 0.41924 0.95011 0.57615 0.0
C1926 C 0.39073 0.94103 0.50693 0.0
C1927 C 0.39286 0.9613 0.59521 0.0
C1928 C 0.43077 0.86931 0.40191 0.0
N1929 N 0.44501 0.88148 0.4458 0.0
C1930 C 0.41983 0.8466 0.40435 0.0
C1931 C 0.42355 0.83637 0.45219 0.0
C1932 C 0.43808 0.8489 0.49686 0.0
C1933 C 0.4487 0.87157 0.49297 0.0
C1934 C 0.51386 0.90426 0.43493 0.0
C1935 C 0.5014 0.92994 0.49715 0.0
C1936 C 0.49364 0.9026 0.42504 0.0
N1937 N 0.48757 0.91523 0.45635 0.0
C1938 C 0.52174 0.93205 0.5082 0.0
C1939 C 0.52796 0.91908 0.47688 0.0
C1940 C 0.46933 0.95762 0.4679 0.0
C1941 C 0.40733 0.93878 0.30201 0.0
C1942 C 0.4267 0.96258 0.40398 0.0
C1943 C 0.42569 0.97327 0.35291 0.0
C1944 C 0.41594 0.96125 0.30162 0.0
N1945 N 0.41823 0.94052 0.40405 0.0
C1946 C 0.40862 0.92864 0.35392 0.0
Co1947 Co 0.21605 0.42399 0.38923 0.0
Co1948 Co 0.16388 0.41138 0.35538 0.0
O1949 O 0.1901 0.42641 0.40492 0.0
C1950 C 0.20803 0.41471 0.51695 0.0
O1951 O 0.18757 0.40166 0.50272 0.0
C1952 C 0.16893 0.45583 0.37865 0.0
O1953 O 0.19023 0.46519 0.3784 0.0
O1954 O 0.18141 0.42581 0.2826 0.0
O1955 O 0.21091 0.42288 0.3017 0.0
H1956 H 0.12115 0.36927 0.17608 0.0
H1957 H 0.22051 0.45979 0.46699 0.0
O1958 O 0.22198 0.425 0.4766 0.0
H1959 H 0.26999 0.49589 0.29787 0.0
H1960 H 0.29362 0.4422 0.42154 0.0
H1961 H 0.22599 0.39682 0.30913 0.0
H1962 H 0.24839 0.45584 0.30338 0.0
H1963 H 0.26106 0.44549 0.43908 0.0
O1964 O 0.15723 0.43552 0.36807 0.0
H1965 H 0.15361 0.38778 0.24013 0.0
H1966 H 0.11849 0.40353 0.36452 0.0
H1967 H 0.25819 0.3931 0.28989 0.0
H1968 H 0.24204 0.49987 0.46368 0.0
H1969 H 0.29234 0.41592 0.34629 0.0
H1970 H 0.26695 0.51818 0.37854 0.0
O1971 O 0.19831 0.39159 0.39182 0.0
H1972 H 0.14008 0.40854 0.56771 0.0
H1973 H 0.13145 0.36541 0.38711 0.0
H1974 H 0.11094 0.34692 0.47778 0.0
H1975 H 0.11515 0.36853 0.56892 0.0
H1976 H 0.16053 0.42634 0.47637 0.0
H1977 H 0.08569 0.38533 0.30155 0.0
H1978 H 0.08686 0.36796 0.20665 0.0
O1979 O 0.16879 0.3863 0.34159 0.0
C1980 C 0.19842 0.42539 0.26567 0.0
C1981 C 0.12043 0.37677 0.21733 0.0
C1982 C 0.10054 0.38581 0.2877 0.0
N1983 N 0.13799 0.39677 0.30605 0.0
C1984 C 0.13877 0.38728 0.25383 0.0
C1985 C 0.1192 0.39618 0.32307 0.0
C1986 C 0.10121 0.37605 0.23449 0.0
C1987 C 0.23148 0.46763 0.43012 0.0
N1988 N 0.23324 0.45549 0.38556 0.0
C1989 C 0.24356 0.49034 0.42834 0.0
C1990 C 0.2575 0.5006 0.38051 0.0
C1991 C 0.2592 0.4881 0.33519 0.0
C1992 C 0.24685 0.46543 0.33844 0.0
C1993 C 0.27886 0.43222 0.39652 0.0
C1994 C 0.24082 0.40692 0.33353 0.0
C1995 C 0.26036 0.434 0.40629 0.0
N1996 N 0.24171 0.42155 0.37461 0.0
C1997 C 0.25899 0.40469 0.32259 0.0
C1998 C 0.27813 0.41748 0.35429 0.0
C1999 C 0.18097 0.37944 0.36246 0.0
C2000 C 0.13803 0.39896 0.5282 0.0
C2001 C 0.13346 0.37494 0.42661 0.0
C2002 C 0.12174 0.36438 0.47779 0.0
C2003 C 0.12409 0.37651 0.52889 0.0
N2004 N 0.14712 0.39698 0.42624 0.0
C2005 C 0.14948 0.40898 0.47619 0.0
Co2006 Co 0.57992 0.79192 0.38745 0.0
Co2007 Co 0.59307 0.75286 0.35292 0.0
O2008 O 0.57799 0.7638 0.40304 0.0
C2009 C 0.5897 0.79349 0.5149 0.0
O2010 O 0.60297 0.78639 0.50032 0.0
C2011 C 0.54875 0.71332 0.37484 0.0
O2012 O 0.53912 0.72494 0.36973 0.0
O2013 O 0.57817 0.7556 0.28064 0.0
O2014 O 0.58081 0.78787 0.29992 0.0
H2015 H 0.6348 0.75251 0.17239 0.0
H2016 H 0.54461 0.76016 0.46557 0.0
O2017 O 0.5791 0.79686 0.47483 0.0
H2018 H 0.50744 0.77293 0.29801 0.0
H2019 H 0.56082 0.8506 0.42074 0.0
H2020 H 0.60647 0.82906 0.30684 0.0
H2021 H 0.54753 0.79196 0.30273 0.0
H2022 H 0.55808 0.81499 0.43809 0.0
O2023 O 0.56921 0.72207 0.36675 0.0
H2024 H 0.61629 0.76627 0.23714 0.0
H2025 H 0.60123 0.71551 0.36129 0.0
H2026 H 0.60962 0.86475 0.28779 0.0
H2027 H 0.50448 0.74099 0.463 0.0
H2028 H 0.58667 0.87572 0.34494 0.0
H2029 H 0.48564 0.74728 0.37866 0.0
O2030 O 0.61236 0.80693 0.38928 0.0
H2031 H 0.59715 0.73239 0.56495 0.0
H2032 H 0.6393 0.7669 0.38298 0.0
H2033 H 0.65834 0.76524 0.47291 0.0
H2034 H 0.63724 0.74785 0.56473 0.0
H2035 H 0.57879 0.73468 0.47431 0.0
H2036 H 0.61945 0.7011 0.29764 0.0
H2037 H 0.63647 0.71969 0.2025 0.0
O2038 O 0.61787 0.78296 0.33843 0.0
C2039 C 0.57831 0.7729 0.26385 0.0
C2040 C 0.62746 0.74427 0.21375 0.0
C2041 C 0.61881 0.71541 0.284 0.0
N2042 N 0.60767 0.74172 0.30302 0.0
C2043 C 0.61695 0.752 0.25066 0.0
C2044 C 0.60844 0.72359 0.31977 0.0
C2045 C 0.62838 0.72585 0.23065 0.0
C2046 C 0.53652 0.76315 0.42905 0.0
N2047 N 0.54839 0.77723 0.38452 0.0
C2048 C 0.5138 0.75217 0.42769 0.0
C2049 C 0.50324 0.75568 0.3803 0.0
C2050 C 0.51546 0.77006 0.335 0.0
C2051 C 0.53816 0.78073 0.33782 0.0
C2052 C 0.57085 0.84597 0.3954 0.0
C2053 C 0.59631 0.83364 0.33158 0.0
C2054 C 0.56939 0.82583 0.40506 0.0
N2055 N 0.58192 0.81983 0.37297 0.0
C2056 C 0.59822 0.8539 0.32074 0.0
C2057 C 0.58536 0.86006 0.35286 0.0
C2058 C 0.62459 0.80194 0.35956 0.0
C2059 C 0.60652 0.73994 0.52514 0.0
C2060 C 0.62999 0.75939 0.4228 0.0
C2061 C 0.64087 0.75844 0.47355 0.0
C2062 C 0.62901 0.74865 0.52503 0.0
N2063 N 0.60792 0.75082 0.42323 0.0
C2064 C 0.59619 0.74117 0.47354 0.0
Co2065 Co 0.21162 0.78881 0.38794 0.0
Co2066 Co 0.25123 0.84093 0.35436 0.0
O2067 O 0.24011 0.81461 0.40342 0.0
C2068 C 0.211 0.79648 0.51614 0.0
O2069 O 0.21858 0.81703 0.50262 0.0
C2070 C 0.29057 0.83566 0.37657 0.0
O2071 O 0.27852 0.81437 0.37683 0.0
O2072 O 0.24786 0.8235 0.28117 0.0
O2073 O 0.21534 0.79418 0.30044 0.0
H2074 H 0.25149 0.88408 0.17651 0.0
H2075 H 0.24306 0.78383 0.46385 0.0
O2076 O 0.20698 0.78262 0.47524 0.0
H2077 H 0.22874 0.7348 0.29299 0.0
H2078 H 0.15199 0.71134 0.41966 0.0
H2079 H 0.17426 0.77937 0.30936 0.0
H2080 H 0.21057 0.75661 0.30054 0.0
H2081 H 0.18803 0.74366 0.43681 0.0
O2082 O 0.28204 0.84743 0.36605 0.0
H2083 H 0.23763 0.85149 0.24 0.0
H2084 H 0.28893 0.88622 0.36352 0.0
H2085 H 0.13815 0.74741 0.29054 0.0
H2086 H 0.26136 0.76207 0.4585 0.0
H2087 H 0.1268 0.71306 0.34588 0.0
H2088 H 0.25429 0.73739 0.37248 0.0
O2089 O 0.19716 0.80671 0.3922 0.0
H2090 H 0.27301 0.86441 0.56654 0.0
H2091 H 0.23796 0.87344 0.38769 0.0
H2092 H 0.24043 0.8939 0.47886 0.0
H2093 H 0.25811 0.8895 0.56911 0.0
H2094 H 0.2699 0.84401 0.47474 0.0
H2095 H 0.30345 0.91913 0.30109 0.0
H2096 H 0.28464 0.91823 0.20693 0.0
O2097 O 0.22122 0.83618 0.3416 0.0
C2098 C 0.23031 0.80661 0.26431 0.0
C2099 C 0.25983 0.88469 0.21745 0.0
C2100 C 0.289 0.90435 0.28732 0.0
N2101 N 0.26245 0.86691 0.30546 0.0
C2102 C 0.25205 0.86628 0.25364 0.0
C2103 C 0.28075 0.88562 0.32238 0.0
C2104 C 0.27843 0.90383 0.23452 0.0
C2105 C 0.23973 0.77296 0.4266 0.0
N2106 N 0.22572 0.77145 0.38267 0.0
C2107 C 0.25022 0.76075 0.42367 0.0
C2108 C 0.24627 0.74694 0.37534 0.0
C2109 C 0.23196 0.7455 0.33069 0.0
C2110 C 0.22178 0.75796 0.33509 0.0
C2111 C 0.15678 0.72618 0.3951 0.0
C2112 C 0.16953 0.76444 0.33327 0.0
C2113 C 0.17716 0.74455 0.40465 0.0
N2114 N 0.18337 0.76332 0.37354 0.0
C2115 C 0.14902 0.74641 0.32258 0.0
C2116 C 0.14266 0.72716 0.3537 0.0
C2117 C 0.20227 0.82407 0.36309 0.0
C2118 C 0.26536 0.86655 0.52742 0.0
C2119 C 0.24559 0.87134 0.42681 0.0
C2120 C 0.24701 0.88304 0.47827 0.0
C2121 C 0.25695 0.88058 0.52888 0.0
N2122 N 0.25389 0.8576 0.42568 0.0
C2123 C 0.26367 0.85513 0.47515 0.0
C2124 C 0.24597 0.144 0.92879 0.0
C2125 C 0.25338 0.12969 0.91191 0.0
H2126 H 0.23795 0.15859 0.00102 0.0
C2127 C 0.25714 0.118 0.95591 0.0
H2128 H 0.2429 0.15318 0.89549 0.0
C2129 C 0.25375 0.12062 0.01567 0.0
C2130 C 0.24701 0.13541 0.03326 0.0
H2131 H 0.26256 0.10666 0.94416 0.0
H2132 H 0.25697 0.11131 0.04812 0.0
C2133 C 0.24306 0.14703 0.98907 0.0
C2134 C 0.85887 0.10155 0.9289 0.0
C2135 C 0.87428 0.12292 0.91201 0.0
H2136 H 0.84326 0.07922 0.00119 0.0
C2137 C 0.88712 0.13787 0.95582 0.0
H2138 H 0.84882 0.08967 0.89568 0.0
C2139 C 0.88443 0.13176 0.01548 0.0
C2140 C 0.86841 0.11068 0.03325 0.0
H2141 H 0.89935 0.15434 0.94398 0.0
H2142 H 0.89463 0.14393 0.04778 0.0
C2143 C 0.85576 0.09553 0.98915 0.0
C2144 C 0.87194 0.75385 0.01576 0.0
C2145 C 0.89303 0.75887 0.03349 0.0
H2146 H 0.84928 0.746 0.94436 0.0
C2147 C 0.9081 0.76116 0.98938 0.0
H2148 H 0.85983 0.75205 0.04804 0.0
C2149 C 0.902 0.75806 0.92917 0.0
C2150 C 0.8806 0.75209 0.91237 0.0
H2151 H 0.9244 0.76493 0.00139 0.0
H2152 H 0.91381 0.75971 0.89596 0.0
C2153 C 0.86574 0.75022 0.95616 0.0
C2154 C 0.14888 0.2424 0.50669 0.0
C2155 C 0.13662 0.24553 0.46267 0.0
H2156 H 0.15551 0.24286 0.60023 0.0
C2157 C 0.12104 0.2512 0.48061 0.0
H2158 H 0.16104 0.23812 0.49452 0.0
C2159 C 0.11838 0.25453 0.54037 0.0
C2160 C 0.13079 0.25172 0.58415 0.0
H2161 H 0.11115 0.25369 0.4484 0.0
H2162 H 0.10648 0.25921 0.55231 0.0
C2163 C 0.14579 0.24522 0.56706 0.0
C2164 C 0.76157 0.90685 0.50881 0.0
C2165 C 0.7581 0.89137 0.46474 0.0
H2166 H 0.76142 0.91311 0.60233 0.0
C2167 C 0.75204 0.87002 0.48252 0.0
H2168 H 0.76615 0.92337 0.49672 0.0
C2169 C 0.74875 0.86405 0.5423 0.0
C2170 C 0.75195 0.87938 0.58614 0.0
H2171 H 0.74924 0.85758 0.45019 0.0
H2172 H 0.74381 0.84741 0.55419 0.0
C2173 C 0.75877 0.90095 0.56913 0.0
C2174 C 0.10304 0.85855 0.56927 0.0
C2175 C 0.12445 0.87392 0.58608 0.0
H2176 H 0.08065 0.84302 0.49706 0.0
C2177 C 0.13938 0.88678 0.54228 0.0
H2178 H 0.09118 0.84848 0.60249 0.0
C2179 C 0.13322 0.88415 0.48265 0.0
C2180 C 0.11211 0.86816 0.46495 0.0
H2181 H 0.15586 0.89898 0.55409 0.0
H2182 H 0.14537 0.89436 0.45032 0.0
C2183 C 0.09698 0.8555 0.50906 0.0
C2184 C 0.75065 0.88662 0.04212 0.0
C2185 C 0.75285 0.87383 0.08589 0.0
H2186 H 0.75199 0.89408 0.95014 0.0
C2187 C 0.75887 0.85846 0.06897 0.0
H2188 H 0.74636 0.89881 0.054 0.0
C2189 C 0.76175 0.85535 0.00871 0.0
C2190 C 0.75916 0.86795 0.96465 0.0
H2191 H 0.76076 0.84845 0.10216 0.0
H2192 H 0.76561 0.84288 0.99665 0.0
C2193 C 0.75404 0.88393 0.98243 0.0
C2194 C 0.14566 0.90096 0.0694 0.0
C2195 C 0.13091 0.87939 0.08644 0.0
H2196 H 0.16078 0.92335 0.99697 0.0
C2197 C 0.11887 0.86403 0.04257 0.0
H2198 H 0.15511 0.91315 0.10262 0.0
C2199 C 0.12164 0.86996 0.98276 0.0
C2200 C 0.13692 0.89132 0.96499 0.0
H2201 H 0.10718 0.84739 0.05446 0.0
H2202 H 0.11207 0.8575 0.95042 0.0
C2203 C 0.14885 0.90683 0.00906 0.0
C2204 C 0.09666 0.24269 0.00679 0.0
C2205 C 0.11182 0.24517 0.96277 0.0
H2206 H 0.09078 0.24387 0.10024 0.0
C2207 C 0.13294 0.25035 0.98064 0.0
H2208 H 0.08032 0.23879 0.99468 0.0
C2209 C 0.13905 0.25389 0.04031 0.0
C2210 C 0.12408 0.25178 0.08405 0.0
H2211 H 0.14513 0.25232 0.94842 0.0
H2212 H 0.15554 0.25821 0.0522 0.0
C2213 C 0.10267 0.2457 0.06708 0.0
C2214 C 0.88587 0.74796 0.45586 0.0
C2215 C 0.87379 0.75123 0.412 0.0
H2216 H 0.89274 0.7483 0.54796 0.0
C2217 C 0.859 0.75801 0.42906 0.0
H2218 H 0.89759 0.74304 0.44396 0.0
C2219 C 0.85582 0.7607 0.48943 0.0
C2220 C 0.86779 0.75717 0.5335 0.0
H2221 H 0.84953 0.7607 0.39585 0.0
H2222 H 0.84386 0.76526 0.50155 0.0
C2223 C 0.88312 0.75115 0.51566 0.0
C2224 C 0.24928 0.1312 0.51589 0.0
C2225 C 0.24493 0.11033 0.53356 0.0
H2226 H 0.25629 0.15368 0.4445 0.0
C2227 C 0.24292 0.09539 0.48938 0.0
H2228 H 0.25082 0.14319 0.54825 0.0
C2229 C 0.24569 0.10144 0.42916 0.0
C2230 C 0.25103 0.12266 0.41241 0.0
H2231 H 0.23966 0.07925 0.50134 0.0
H2232 H 0.24431 0.08976 0.39589 0.0
C2233 C 0.25256 0.13736 0.45626 0.0
C2234 C 0.90758 0.14734 0.48909 0.0
C2235 C 0.89212 0.13529 0.53315 0.0
H2236 H 0.91381 0.15381 0.39556 0.0
C2237 C 0.87077 0.11996 0.51535 0.0
H2238 H 0.92409 0.15931 0.50118 0.0
C2239 C 0.86479 0.1173 0.45558 0.0
C2240 C 0.8801 0.12948 0.41175 0.0
H2241 H 0.85835 0.11028 0.54766 0.0
H2242 H 0.84815 0.10559 0.44369 0.0
C2243 C 0.90166 0.14426 0.42876 0.0
C2244 C 0.9129 0.47777 0.26103 0.0
C2245 C 0.91945 0.46279 0.2442 0.0
H2246 H 0.9057 0.49304 0.33324 0.0
C2247 C 0.92231 0.45047 0.28813 0.0
H2248 H 0.91051 0.48743 0.22774 0.0
C2249 C 0.91896 0.45319 0.34784 0.0
C2250 C 0.9132 0.46872 0.36546 0.0
H2251 H 0.92704 0.43859 0.27636 0.0
H2252 H 0.9215 0.44339 0.38024 0.0
C2253 C 0.91005 0.48091 0.32129 0.0
C2254 C 0.52584 0.43499 0.26143 0.0
C2255 C 0.54081 0.4565 0.24445 0.0
H2256 H 0.51047 0.41264 0.33384 0.0
C2257 C 0.553 0.47177 0.28834 0.0
H2258 H 0.51627 0.42288 0.22819 0.0
C2259 C 0.55017 0.46582 0.34813 0.0
C2260 C 0.53464 0.44454 0.36589 0.0
H2261 H 0.56487 0.48837 0.27649 0.0
H2262 H 0.55987 0.47822 0.38047 0.0
C2263 C 0.52258 0.42911 0.32178 0.0
C2264 C 0.57458 0.0943 0.32174 0.0
C2265 C 0.55949 0.09174 0.36605 0.0
H2266 H 0.58032 0.09329 0.22814 0.0
C2267 C 0.53835 0.08664 0.34857 0.0
H2268 H 0.59093 0.09813 0.33355 0.0
C2269 C 0.53216 0.08325 0.28896 0.0
C2270 C 0.54706 0.08543 0.24493 0.0
H2271 H 0.52622 0.08463 0.38103 0.0
H2272 H 0.51566 0.07898 0.27735 0.0
C2273 C 0.56848 0.09142 0.26154 0.0
C2274 C 0.81568 0.57575 0.84003 0.0
C2275 C 0.80281 0.57788 0.7959 0.0
H2276 H 0.82288 0.57732 0.93346 0.0
C2277 C 0.7866 0.5827 0.81361 0.0
H2278 H 0.82833 0.57213 0.82805 0.0
C2279 C 0.784 0.58631 0.87319 0.0
C2280 C 0.79708 0.58461 0.917 0.0
H2281 H 0.77621 0.58435 0.78132 0.0
H2282 H 0.77164 0.59038 0.88497 0.0
C2283 C 0.81265 0.57883 0.90023 0.0
C2284 C 0.418 0.20337 0.81451 0.0
C2285 C 0.42436 0.22478 0.79654 0.0
H2286 H 0.40938 0.18076 0.88635 0.0
C2287 C 0.42792 0.24033 0.84045 0.0
H2288 H 0.41511 0.19087 0.78231 0.0
C2289 C 0.42495 0.23447 0.90082 0.0
C2290 C 0.41785 0.21286 0.91802 0.0
H2291 H 0.43272 0.2569 0.82821 0.0
H2292 H 0.4277 0.2467 0.9339 0.0
C2293 C 0.41454 0.19744 0.87432 0.0
C2294 C 0.80041 0.2167 0.81488 0.0
C2295 C 0.77914 0.20113 0.79712 0.0
H2296 H 0.82305 0.23121 0.88644 0.0
C2297 C 0.7638 0.18886 0.84121 0.0
H2298 H 0.81274 0.22658 0.78256 0.0
C2299 C 0.76977 0.19191 0.90149 0.0
C2300 C 0.79129 0.20689 0.91842 0.0
H2301 H 0.74734 0.17671 0.82916 0.0
H2302 H 0.75773 0.18217 0.93471 0.0
C2303 C 0.80646 0.21933 0.87459 0.0
C2304 C 0.41769 0.22013 0.37407 0.0
C2305 C 0.41963 0.20712 0.41764 0.0
H2306 H 0.41922 0.22782 0.28223 0.0
C2307 C 0.42543 0.1916 0.40048 0.0
H2308 H 0.4136 0.23244 0.38614 0.0
C2309 C 0.42828 0.18854 0.34014 0.0
C2310 C 0.42591 0.20133 0.29626 0.0
H2311 H 0.42713 0.18142 0.43353 0.0
H2312 H 0.43192 0.17593 0.32786 0.0
C2313 C 0.42108 0.21749 0.31434 0.0
C2314 C 0.8126 0.23456 0.40146 0.0
C2315 C 0.79738 0.21313 0.41838 0.0
H2316 H 0.82808 0.25691 0.32912 0.0
C2317 C 0.78477 0.19805 0.37455 0.0
H2318 H 0.82248 0.24653 0.43468 0.0
C2319 C 0.78748 0.20411 0.31484 0.0
C2320 C 0.8033 0.22528 0.29707 0.0
H2321 H 0.7727 0.18153 0.38639 0.0
H2322 H 0.77746 0.19184 0.28253 0.0
C2323 C 0.81574 0.24053 0.34117 0.0
C2324 C 0.76961 0.57868 0.4004 0.0
C2325 C 0.79121 0.58562 0.41743 0.0
H2326 H 0.74718 0.57129 0.32794 0.0
C2327 C 0.8066 0.58905 0.37354 0.0
H2328 H 0.7574 0.57586 0.43363 0.0
C2329 C 0.80066 0.58585 0.31373 0.0
C2330 C 0.77926 0.57965 0.29593 0.0
H2331 H 0.82327 0.59409 0.3854 0.0
H2332 H 0.81315 0.58881 0.28142 0.0
C2333 C 0.76373 0.57598 0.34003 0.0
C2334 C 0.55302 0.08174 0.78874 0.0
C2335 C 0.54079 0.08467 0.74469 0.0
H2336 H 0.55997 0.08245 0.88091 0.0
C2337 C 0.52581 0.09125 0.76141 0.0
H2338 H 0.56489 0.07699 0.77708 0.0
C2339 C 0.52259 0.09404 0.82166 0.0
C2340 C 0.5347 0.09082 0.86595 0.0
H2341 H 0.51621 0.09369 0.72803 0.0
H2342 H 0.51047 0.09842 0.83352 0.0
C2343 C 0.55023 0.08503 0.84844 0.0
C2344 C 0.92135 0.47175 0.78818 0.0
C2345 C 0.91886 0.45669 0.74428 0.0
H2346 H 0.92031 0.47793 0.88025 0.0
C2347 C 0.91264 0.43524 0.7611 0.0
H2348 H 0.9258 0.48828 0.77639 0.0
C2349 C 0.90984 0.42925 0.82136 0.0
C2350 C 0.9127 0.4445 0.86552 0.0
H2351 H 0.91053 0.42328 0.72782 0.0
H2352 H 0.9058 0.41287 0.83332 0.0
C2353 C 0.91804 0.46568 0.84787 0.0
C2354 C 0.56846 0.47756 0.76145 0.0
C2355 C 0.547 0.46235 0.74468 0.0
H2356 H 0.59092 0.49292 0.8336 0.0
C2357 C 0.53201 0.44963 0.78853 0.0
H2358 H 0.58037 0.48752 0.72819 0.0
C2359 C 0.53817 0.45222 0.84815 0.0
C2360 C 0.55936 0.46804 0.8658 0.0
H2361 H 0.51547 0.43756 0.77676 0.0
H2362 H 0.52597 0.44212 0.88051 0.0
C2363 C 0.57453 0.48057 0.82165 0.0
C2364 C 0.5766 0.81451 0.65524 0.0
C2365 C 0.58009 0.80254 0.69937 0.0
H2366 H 0.57671 0.82085 0.56167 0.0
C2367 C 0.58616 0.78725 0.68167 0.0
H2368 H 0.572 0.82646 0.66726 0.0
C2369 C 0.58943 0.78452 0.6219 0.0
C2370 C 0.5862 0.79661 0.57799 0.0
H2371 H 0.58898 0.77764 0.71405 0.0
H2372 H 0.59439 0.77282 0.61008 0.0
C2373 C 0.57938 0.81137 0.59493 0.0
C2374 C 0.22121 0.80432 0.62274 0.0
C2375 C 0.2081 0.78955 0.57894 0.0
H2376 H 0.22894 0.81017 0.71464 0.0
C2377 C 0.19246 0.76825 0.59571 0.0
H2378 H 0.23362 0.82072 0.61095 0.0
C2379 C 0.18937 0.76215 0.6559 0.0
C2380 C 0.20225 0.77714 0.70003 0.0
H2381 H 0.1822 0.75651 0.56248 0.0
H2382 H 0.17666 0.74593 0.66788 0.0
C2383 C 0.21854 0.79813 0.68233 0.0
C2384 C 0.23615 0.42448 0.59702 0.0
C2385 C 0.21473 0.41834 0.57999 0.0
H2386 H 0.25843 0.43121 0.6695 0.0
C2387 C 0.19964 0.41586 0.62376 0.0
H2388 H 0.24814 0.42658 0.56385 0.0
C2389 C 0.20564 0.41913 0.68351 0.0
C2390 C 0.22679 0.42441 0.70139 0.0
H2391 H 0.18313 0.41147 0.61183 0.0
H2392 H 0.19336 0.41689 0.71575 0.0
C2393 C 0.24207 0.42723 0.65736 0.0
C2394 C 0.4822 0.9091 0.17332 0.0
C2395 C 0.46953 0.91161 0.1293 0.0
H2396 H 0.4892 0.9102 0.26678 0.0
C2397 C 0.45353 0.91669 0.1472 0.0
H2398 H 0.49469 0.90528 0.16119 0.0
C2399 C 0.45089 0.92014 0.20689 0.0
C2400 C 0.46375 0.91803 0.25061 0.0
H2401 H 0.4433 0.91866 0.11499 0.0
H2402 H 0.43868 0.9244 0.21881 0.0
C2403 C 0.47913 0.91202 0.23362 0.0
C2404 C 0.09517 0.57334 0.17493 0.0
C2405 C 0.092 0.55796 0.13085 0.0
H2406 H 0.09469 0.57948 0.26843 0.0
C2407 C 0.08619 0.53666 0.14862 0.0
H2408 H 0.09956 0.58981 0.16286 0.0
C2409 C 0.0828 0.53065 0.20835 0.0
C2410 C 0.08567 0.54587 0.25218 0.0
H2411 H 0.08363 0.5243 0.1163 0.0
H2412 H 0.07803 0.51404 0.22022 0.0
C2413 C 0.09229 0.5674 0.23522 0.0
C2414 C 0.46778 0.549 0.14938 0.0
C2415 C 0.44636 0.53393 0.13155 0.0
H2416 H 0.49035 0.56332 0.22116 0.0
C2417 C 0.43075 0.52222 0.1756 0.0
H2418 H 0.48033 0.55839 0.11706 0.0
C2419 C 0.43657 0.52543 0.23597 0.0
C2420 C 0.45819 0.53999 0.25308 0.0
H2421 H 0.41417 0.51046 0.16346 0.0
H2422 H 0.4243 0.51616 0.26917 0.0
C2423 C 0.47366 0.55179 0.20923 0.0
C2424 C 0.09236 0.52468 0.7351 0.0
C2425 C 0.08619 0.53994 0.75204 0.0
H2426 H 0.09917 0.50916 0.66273 0.0
C2427 C 0.08377 0.55258 0.70824 0.0
H2428 H 0.09441 0.51478 0.76831 0.0
C2429 C 0.0871 0.54987 0.64853 0.0
C2430 C 0.0924 0.53401 0.63073 0.0
H2431 H 0.07936 0.56469 0.72011 0.0
H2432 H 0.0849 0.55991 0.61624 0.0
C2433 C 0.09518 0.52154 0.6748 0.0
C2434 C 0.45065 0.53175 0.70883 0.0
C2435 C 0.46367 0.54658 0.75262 0.0
H2436 H 0.44294 0.52585 0.61691 0.0
C2437 C 0.47918 0.56793 0.73583 0.0
H2438 H 0.43833 0.51531 0.72062 0.0
C2439 C 0.48223 0.57402 0.67564 0.0
C2440 C 0.46942 0.55897 0.63153 0.0
H2441 H 0.48938 0.57972 0.76905 0.0
H2442 H 0.49483 0.59029 0.66366 0.0
C2443 C 0.45327 0.53793 0.64923 0.0
C2444 C 0.43598 0.91213 0.73376 0.0
C2445 C 0.45753 0.91883 0.7508 0.0
H2446 H 0.41356 0.9048 0.66128 0.0
C2447 C 0.47279 0.92182 0.70699 0.0
H2448 H 0.42386 0.90964 0.76695 0.0
C2449 C 0.4668 0.91845 0.64723 0.0
C2450 C 0.44549 0.91254 0.62937 0.0
H2451 H 0.48942 0.92667 0.71889 0.0
H2452 H 0.47921 0.92108 0.61498 0.0
C2453 C 0.43006 0.90927 0.67341 0.0
C2454 C 0.19027 0.42757 0.15719 0.0
C2455 C 0.20263 0.42461 0.20123 0.0
H2456 H 0.18341 0.42676 0.06374 0.0
C2457 C 0.21818 0.41888 0.18342 0.0
H2458 H 0.17813 0.4319 0.16928 0.0
C2459 C 0.22069 0.41533 0.12372 0.0
C2460 C 0.20817 0.41796 0.07995 0.0
H2461 H 0.22812 0.41651 0.21569 0.0
H2462 H 0.23257 0.41061 0.11184 0.0
C2463 C 0.19322 0.42453 0.09692 0.0
C2464 C 0.57914 0.7687 0.09508 0.0
C2465 C 0.5851 0.79009 0.07827 0.0
H2466 H 0.57246 0.74636 0.16729 0.0
C2467 C 0.58721 0.80502 0.12212 0.0
H2468 H 0.57733 0.75684 0.06182 0.0
C2469 C 0.5838 0.79889 0.18178 0.0
C2470 C 0.57876 0.7778 0.19945 0.0
H2471 H 0.59143 0.82148 0.11034 0.0
H2472 H 0.58577 0.81105 0.21412 0.0
C2473 C 0.57625 0.76267 0.15531 0.0
C2474 C 0.20383 0.78742 0.18214 0.0
C2475 C 0.22528 0.8024 0.19992 0.0
H2476 H 0.18121 0.77321 0.11041 0.0
C2477 C 0.2409 0.81407 0.15585 0.0
H2478 H 0.19128 0.77807 0.21448 0.0
C2479 C 0.23505 0.8109 0.09548 0.0
C2480 C 0.2134 0.79642 0.07842 0.0
H2481 H 0.2575 0.82576 0.16794 0.0
H2482 H 0.24733 0.82013 0.06226 0.0
C2483 C 0.19792 0.78467 0.1223 0.0
C2484 C 0.2009 0.21283 0.24222 0.0
C2485 C 0.18006 0.20164 0.26802 0.0
H2486 H 0.22739 0.21114 0.20337 0.0
C2487 C 0.16963 0.1788 0.2721 0.0
H2488 H 0.20938 0.23036 0.23728 0.0
C2489 C 0.1802 0.16758 0.25247 0.0
C2490 C 0.2013 0.17899 0.22796 0.0
H2491 H 0.15353 0.16966 0.29141 0.0
H2492 H 0.17201 0.15007 0.25753 0.0
C2493 C 0.21128 0.20172 0.2224 0.0
C2494 C 0.82391 0.98984 0.25167 0.0
C2495 C 0.80202 0.97971 0.27033 0.0
H2496 H 0.85141 0.01887 0.21694 0.0
C2497 C 0.79131 0.99185 0.26876 0.0
H2498 H 0.83266 0.98096 0.25214 0.0
C2499 C 0.80186 0.01325 0.24826 0.0
C2500 C 0.8236 0.02339 0.22875 0.0
H2501 H 0.77454 0.9848 0.28288 0.0
H2502 H 0.79283 0.02184 0.24793 0.0
C2503 C 0.83462 0.01152 0.23126 0.0
C2504 C 0.99107 0.78953 0.2447 0.0
C2505 C 0.98052 0.80115 0.22923 0.0
H2506 H 0.01986 0.79052 0.27594 0.0
C2507 C 0.99209 0.82397 0.23521 0.0
H2508 H 0.98277 0.77197 0.24146 0.0
C2509 C 0.0138 0.83483 0.25544 0.0
C2510 C 0.02429 0.82305 0.2704 0.0
H2511 H 0.98444 0.83343 0.22401 0.0
H2512 H 0.02239 0.85241 0.2589 0.0
C2513 C 0.01251 0.80026 0.26496 0.0
C2514 C 0.83461 0.82341 0.73361 0.0
C2515 C 0.82334 0.80056 0.72861 0.0
H2516 H 0.83284 0.85196 0.75651 0.0
C2517 C 0.80127 0.78902 0.74512 0.0
H2518 H 0.85165 0.83282 0.72159 0.0
C2519 C 0.79067 0.79984 0.76542 0.0
C2520 C 0.80168 0.82266 0.76983 0.0
H2521 H 0.79201 0.77143 0.74271 0.0
H2522 H 0.77365 0.79015 0.77726 0.0
C2523 C 0.82385 0.83437 0.75386 0.0
C2524 C 0.21511 0.01289 0.7463 0.0
C2525 C 0.20349 0.02328 0.7293 0.0
H2526 H 0.21409 0.98425 0.77895 0.0
C2527 C 0.18063 0.01163 0.73414 0.0
H2528 H 0.23271 0.02128 0.74403 0.0
C2529 C 0.16973 0.98995 0.75457 0.0
C2530 C 0.18152 0.9796 0.77091 0.0
H2531 H 0.17117 0.01917 0.72176 0.0
H2532 H 0.15213 0.98127 0.757 0.0
C2533 C 0.20434 0.99149 0.7668 0.0
C2534 C 0.9907 0.16826 0.74701 0.0
C2535 C 0.98055 0.17991 0.72765 0.0
H2536 H 0.01982 0.16997 0.78178 0.0
C2537 C 0.99276 0.20277 0.72787 0.0
H2538 H 0.98179 0.15064 0.74758 0.0
C2539 C 0.01424 0.21372 0.74778 0.0
C2540 C 0.02441 0.20224 0.76803 0.0
H2541 H 0.98569 0.21241 0.71313 0.0
H2542 H 0.02288 0.23134 0.74709 0.0
C2543 C 0.01246 0.17933 0.76684 0.0
C2544 C 0.83679 0.51268 0.59727 0.0
C2545 C 0.84784 0.53557 0.60031 0.0
H2546 H 0.83876 0.48411 0.5762 0.0
C2547 C 0.86968 0.54716 0.58167 0.0
H2548 H 0.81992 0.50324 0.61094 0.0
C2549 C 0.8803 0.53633 0.56146 0.0
C2550 C 0.86953 0.51348 0.55929 0.0
H2551 H 0.87875 0.56478 0.58246 0.0
H2552 H 0.89715 0.54605 0.54801 0.0
C2553 C 0.84756 0.50173 0.57713 0.0
C2554 C 0.45732 0.32485 0.59758 0.0
C2555 C 0.46831 0.31301 0.60173 0.0
H2556 H 0.45866 0.35462 0.57503 0.0
C2557 C 0.49046 0.32344 0.58554 0.0
H2558 H 0.44031 0.31755 0.60959 0.0
C2559 C 0.50121 0.34514 0.56531 0.0
C2560 C 0.48995 0.35675 0.5605 0.0
H2561 H 0.49942 0.3148 0.588 0.0
H2562 H 0.51823 0.35275 0.55311 0.0
C2563 C 0.46791 0.34627 0.57727 0.0
C2564 C 0.65756 0.12277 0.5787 0.0
C2565 C 0.6472 0.13436 0.56101 0.0
H2566 H 0.68621 0.12386 0.61169 0.0
C2567 C 0.65895 0.15723 0.56489 0.0
H2568 H 0.6491 0.10516 0.57722 0.0
C2569 C 0.68067 0.16817 0.58506 0.0
C2570 C 0.69098 0.15642 0.6021 0.0
H2571 H 0.65144 0.16667 0.55195 0.0
H2572 H 0.68941 0.18579 0.58674 0.0
C2573 C 0.679 0.13358 0.59895 0.0
C2574 C 0.45605 0.13414 0.08291 0.0
C2575 C 0.4676 0.15609 0.10052 0.0
H2576 H 0.45722 0.1066 0.05021 0.0
C2577 C 0.49049 0.16725 0.09671 0.0
H2578 H 0.43844 0.12498 0.08439 0.0
C2579 C 0.50147 0.15649 0.07671 0.0
C2580 C 0.48976 0.13442 0.05981 0.0
H2581 H 0.4999 0.1842 0.10958 0.0
H2582 H 0.51909 0.16538 0.07509 0.0
C2583 C 0.46691 0.12353 0.06285 0.0
C2584 C 0.88085 0.34473 0.0649 0.0
C2585 C 0.86984 0.35653 0.06022 0.0
H2586 H 0.87951 0.31501 0.08802 0.0
C2587 C 0.84766 0.34611 0.07611 0.0
H2588 H 0.89788 0.35204 0.05316 0.0
C2589 C 0.8369 0.32443 0.09654 0.0
C2590 C 0.84817 0.31285 0.10182 0.0
H2591 H 0.83868 0.35472 0.07326 0.0
H2592 H 0.81986 0.31682 0.10848 0.0
C2593 C 0.87024 0.32334 0.08539 0.0
C2594 C 0.67968 0.51277 0.09829 0.0
C2595 C 0.69136 0.53567 0.10132 0.0
H2596 H 0.64924 0.48406 0.07728 0.0
C2597 C 0.68094 0.54711 0.0829 0.0
H2598 H 0.68724 0.50344 0.11179 0.0
C2599 C 0.65948 0.53614 0.06281 0.0
C2600 C 0.64755 0.51329 0.06056 0.0
H2601 H 0.68936 0.56472 0.08369 0.0
H2602 H 0.65223 0.54576 0.04949 0.0
C2603 C 0.65794 0.50168 0.07828 0.0
C2604 C 0.50343 0.84635 0.93172 0.0
C2605 C 0.51442 0.86925 0.93389 0.0
H2606 H 0.50545 0.81774 0.91152 0.0
C2607 C 0.53617 0.88081 0.91449 0.0
H2608 H 0.48663 0.83693 0.94598 0.0
C2609 C 0.54678 0.86995 0.89443 0.0
C2610 C 0.53609 0.84709 0.89319 0.0
H2611 H 0.54519 0.89843 0.91459 0.0
H2612 H 0.56356 0.87964 0.88038 0.0
C2613 C 0.51419 0.83536 0.91173 0.0
C2614 C 0.12444 0.65803 0.93271 0.0
C2615 C 0.13539 0.64615 0.93637 0.0
H2616 H 0.12581 0.68784 0.91048 0.0
C2617 C 0.1575 0.65653 0.91978 0.0
H2618 H 0.10747 0.65077 0.94506 0.0
C2619 C 0.16824 0.67824 0.89955 0.0
C2620 C 0.15702 0.68989 0.89517 0.0
H2621 H 0.16644 0.64786 0.92187 0.0
H2622 H 0.18522 0.6858 0.88698 0.0
C2623 C 0.13502 0.67946 0.9124 0.0
C2624 C 0.32601 0.49006 0.89756 0.0
C2625 C 0.31407 0.46716 0.89641 0.0
H2626 H 0.35667 0.51874 0.91698 0.0
C2627 C 0.32418 0.45567 0.91703 0.0
H2628 H 0.31869 0.49942 0.88235 0.0
C2629 C 0.34562 0.4666 0.93721 0.0
C2630 C 0.35784 0.48946 0.93732 0.0
H2631 H 0.31553 0.43805 0.91779 0.0
H2632 H 0.35265 0.45696 0.95222 0.0
C2633 C 0.34774 0.50112 0.91764 0.0
C2634 C 0.12391 0.46775 0.41706 0.0
C2635 C 0.13533 0.48945 0.43684 0.0
H2636 H 0.12533 0.44054 0.38274 0.0
C2637 C 0.15824 0.50054 0.43524 0.0
H2638 H 0.10629 0.45867 0.41673 0.0
C2639 C 0.16938 0.48992 0.4154 0.0
C2640 C 0.15779 0.46807 0.39642 0.0
H2641 H 0.16755 0.51731 0.44982 0.0
H2642 H 0.18701 0.49872 0.41559 0.0
C2643 C 0.13492 0.45729 0.39713 0.0
C2644 C 0.50315 0.65753 0.42617 0.0
C2645 C 0.51475 0.64651 0.43645 0.0
H2646 H 0.50467 0.68733 0.39852 0.0
C2647 C 0.53728 0.65763 0.42549 0.0
H2648 H 0.48577 0.64944 0.43388 0.0
C2649 C 0.54795 0.67902 0.40494 0.0
C2650 C 0.53654 0.69019 0.39471 0.0
H2651 H 0.54686 0.64981 0.4324 0.0
H2652 H 0.56533 0.68682 0.39747 0.0
C2653 C 0.51396 0.67921 0.40567 0.0
C2654 C 0.34583 0.84608 0.43361 0.0
C2655 C 0.35781 0.86899 0.43459 0.0
H2656 H 0.31513 0.81741 0.41452 0.0
C2657 C 0.34769 0.88048 0.414 0.0
H2658 H 0.35315 0.83672 0.44881 0.0
C2659 C 0.32622 0.86955 0.39401 0.0
C2660 C 0.31397 0.84669 0.39407 0.0
H2661 H 0.35637 0.8981 0.4131 0.0
H2662 H 0.3192 0.87919 0.37902 0.0
C2663 C 0.32408 0.83503 0.41373 0.0
C2664 C 0.32231 0.15008 0.2004 0.0
C2665 C 0.31414 0.16371 0.18385 0.0
H2666 H 0.34912 0.14437 0.19845 0.0
C2667 C 0.32776 0.18284 0.15162 0.0
H2668 H 0.3123 0.13518 0.22489 0.0
C2669 C 0.34895 0.18812 0.13605 0.0
C2670 C 0.35706 0.1744 0.15229 0.0
H2671 H 0.32205 0.19377 0.13794 0.0
H2672 H 0.35896 0.20298 0.11142 0.0
C2673 C 0.34346 0.15534 0.18484 0.0
C2674 C 0.84959 0.18958 0.18208 0.0
C2675 C 0.83052 0.18426 0.14972 0.0
H2676 H 0.86968 0.17834 0.22151 0.0
C2677 C 0.81685 0.16253 0.13257 0.0
H2678 H 0.86054 0.20613 0.19628 0.0
C2679 C 0.82209 0.14656 0.14739 0.0
C2680 C 0.84115 0.15188 0.17978 0.0
H2681 H 0.802 0.1578 0.10798 0.0
H2682 H 0.81113 0.13 0.1332 0.0
C2683 C 0.85483 0.17361 0.1969 0.0
C2684 C 0.81414 0.66112 0.18011 0.0
C2685 C 0.81959 0.64748 0.14769 0.0
H2686 H 0.82521 0.69233 0.2201 0.0
C2687 C 0.84136 0.65562 0.13088 0.0
H2688 H 0.79753 0.65544 0.19403 0.0
C2689 C 0.85727 0.67681 0.14619 0.0
C2690 C 0.85183 0.69043 0.17875 0.0
H2691 H 0.8462 0.6456 0.10625 0.0
H2692 H 0.87387 0.68247 0.13231 0.0
C2693 C 0.83004 0.68231 0.19542 0.0
C2694 C 0.18872 0.3485 0.3644 0.0
C2695 C 0.17506 0.35669 0.34827 0.0
H2696 H 0.19432 0.32161 0.36212 0.0
C2697 C 0.1559 0.34312 0.31602 0.0
H2698 H 0.20364 0.35848 0.38884 0.0
C2699 C 0.15056 0.32195 0.3003 0.0
C2700 C 0.16422 0.31377 0.31642 0.0
H2701 H 0.14496 0.34883 0.30259 0.0
H2702 H 0.13565 0.31198 0.27584 0.0
C2703 C 0.18338 0.32733 0.3487 0.0
C2704 C 0.65537 0.84068 0.36255 0.0
C2705 C 0.64732 0.81892 0.3457 0.0
H2706 H 0.68223 0.8732 0.3617 0.0
C2707 C 0.66104 0.81355 0.31342 0.0
H2708 H 0.64527 0.84546 0.38703 0.0
C2709 C 0.68226 0.82948 0.29856 0.0
C2710 C 0.69034 0.85123 0.31553 0.0
H2711 H 0.65542 0.79697 0.29941 0.0
H2712 H 0.69236 0.82469 0.27413 0.0
C2713 C 0.6766 0.85662 0.34767 0.0
C2714 C 0.16358 0.81628 0.36632 0.0
C2715 C 0.18537 0.82999 0.34973 0.0
H2716 H 0.13103 0.81054 0.36484 0.0
C2717 C 0.1908 0.84914 0.3177 0.0
H2718 H 0.15876 0.80136 0.39064 0.0
C2719 C 0.17486 0.8544 0.30251 0.0
C2720 C 0.15306 0.84066 0.31894 0.0
H2721 H 0.20741 0.86013 0.30395 0.0
H2722 H 0.17967 0.8693 0.27812 0.0
C2723 C 0.14764 0.82154 0.35114 0.0
C2724 C 0.68272 0.85437 0.80156 0.0
C2725 C 0.69072 0.84058 0.8181 0.0
H2726 H 0.65594 0.86016 0.80282 0.0
C2727 C 0.67696 0.82147 0.85021 0.0
H2728 H 0.69285 0.86927 0.77722 0.0
C2729 C 0.65576 0.81625 0.86525 0.0
C2730 C 0.64774 0.83 0.8486 0.0
H2731 H 0.68253 0.81044 0.86397 0.0
H2732 H 0.64563 0.80134 0.88955 0.0
C2733 C 0.66152 0.84915 0.81661 0.0
C2734 C 0.1559 0.81326 0.8132 0.0
C2735 C 0.17497 0.81858 0.84554 0.0
H2736 H 0.13578 0.8245 0.77395 0.0
C2737 C 0.18869 0.84032 0.86251 0.0
H2738 H 0.14492 0.7967 0.7991 0.0
C2739 C 0.18345 0.85629 0.84772 0.0
C2740 C 0.16435 0.85097 0.81555 0.0
H2741 H 0.20355 0.84505 0.88706 0.0
H2742 H 0.19442 0.87285 0.86187 0.0
C2743 C 0.15066 0.82924 0.79842 0.0
C2744 C 0.16373 0.34812 0.86414 0.0
C2745 C 0.18552 0.35609 0.84774 0.0
H2746 H 0.13113 0.32143 0.86232 0.0
C2747 C 0.19088 0.34236 0.81547 0.0
H2748 H 0.15896 0.35823 0.88862 0.0
C2749 C 0.17489 0.32122 0.80003 0.0
C2750 C 0.1531 0.31325 0.81642 0.0
H2751 H 0.20749 0.34791 0.80183 0.0
H2752 H 0.17966 0.31112 0.77555 0.0
C2753 C 0.14774 0.32698 0.84869 0.0
C2754 C 0.82152 0.67561 0.64922 0.0
C2755 C 0.8406 0.6893 0.68158 0.0
H2756 H 0.80143 0.64437 0.60934 0.0
C2757 C 0.8543 0.68122 0.69837 0.0
H2758 H 0.81055 0.68123 0.63531 0.0
C2759 C 0.84907 0.66005 0.68311 0.0
C2760 C 0.83 0.64637 0.65064 0.0
H2761 H 0.86916 0.69129 0.72294 0.0
H2762 H 0.86004 0.65443 0.69698 0.0
C2763 C 0.81629 0.65443 0.63397 0.0
C2764 C 0.32776 0.14659 0.64577 0.0
C2765 C 0.31404 0.15193 0.67819 0.0
H2766 H 0.35905 0.1578 0.60612 0.0
C2767 C 0.32205 0.1737 0.69485 0.0
H2768 H 0.32218 0.13 0.6319 0.0
C2769 C 0.34322 0.18967 0.67966 0.0
C2770 C 0.35696 0.18431 0.64743 0.0
H2771 H 0.31195 0.17845 0.71943 0.0
H2772 H 0.34881 0.20626 0.69357 0.0
C2773 C 0.34894 0.16256 0.63062 0.0
C2774 C 0.83005 0.14914 0.69761 0.0
C2775 C 0.85186 0.16286 0.6813 0.0
H2776 H 0.79751 0.14343 0.69571 0.0
C2777 C 0.85734 0.18201 0.64916 0.0
H2778 H 0.82518 0.13423 0.72197 0.0
C2779 C 0.84144 0.18728 0.63371 0.0
C2780 C 0.81962 0.17356 0.64998 0.0
H2781 H 0.87398 0.19299 0.63561 0.0
H2782 H 0.8463 0.20219 0.60933 0.0
C2783 C 0.81414 0.15442 0.68216 0.0
C2784 C 0.01604 0.52056 0.46718 0.0
C2785 C 0.02404 0.50681 0.48397 0.0
H2786 H 0.98925 0.52634 0.46812 0.0
C2787 C 0.01028 0.48772 0.51617 0.0
H2788 H 0.02617 0.53544 0.44274 0.0
C2789 C 0.98907 0.4825 0.53107 0.0
C2790 C 0.98105 0.49624 0.5142 0.0
H2791 H 0.01585 0.47671 0.53011 0.0
H2792 H 0.97894 0.46762 0.55546 0.0
C2793 C 0.99483 0.51535 0.48209 0.0
C2794 C 0.48298 0.49601 0.46777 0.0
C2795 C 0.49667 0.51772 0.48505 0.0
H2796 H 0.47729 0.46349 0.46795 0.0
C2797 C 0.51573 0.523 0.51739 0.0
H2798 H 0.46814 0.49131 0.4432 0.0
C2799 C 0.52099 0.50701 0.53193 0.0
C2800 C 0.50732 0.48531 0.51455 0.0
H2801 H 0.52669 0.53954 0.53171 0.0
H2802 H 0.53584 0.51172 0.55646 0.0
C2803 C 0.48824 0.48002 0.48231 0.0
C2804 C 0.49684 0.01525 0.52916 0.0
C2805 C 0.5186 0.02332 0.51233 0.0
H2806 H 0.46431 0.98844 0.528 0.0
C2807 C 0.52399 0.00964 0.47989 0.0
H2808 H 0.49206 0.02532 0.55378 0.0
C2809 C 0.50804 0.98845 0.46476 0.0
C2810 C 0.48628 0.98037 0.48163 0.0
H2811 H 0.54057 0.01527 0.46591 0.0
H2812 H 0.51283 0.97838 0.44016 0.0
C2813 C 0.4809 0.99406 0.51402 0.0
C2814 C 0.48803 0.0093 0.98228 0.0
C2815 C 0.50714 0.02302 0.0145 0.0
H2816 H 0.46794 0.97803 0.94253 0.0
C2817 C 0.52086 0.01496 0.03122 0.0
H2818 H 0.47704 0.01491 0.96842 0.0
C2819 C 0.51563 0.99378 0.01602 0.0
C2820 C 0.49655 0.98008 0.98366 0.0
H2821 H 0.53574 0.02505 0.0557 0.0
H2822 H 0.52663 0.98818 0.02983 0.0
C2823 C 0.4828 0.98811 0.96707 0.0
C2824 C 0.99479 0.47976 0.98059 0.0
C2825 C 0.98107 0.48516 0.01278 0.0
H2826 H 0.02612 0.4909 0.94126 0.0
C2827 C 0.98914 0.50691 0.02962 0.0
H2828 H 0.98916 0.46317 0.96662 0.0
C2829 C 0.01036 0.52284 0.0147 0.0
C2830 C 0.02409 0.51745 0.98255 0.0
H2831 H 0.97904 0.51171 0.05405 0.0
H2832 H 0.01598 0.53943 0.02868 0.0
C2833 C 0.01602 0.49569 0.96568 0.0
C2834 C 0.49692 0.48186 0.02917 0.0
C2835 C 0.51872 0.49558 0.01268 0.0
H2836 H 0.46439 0.47618 0.02785 0.0
C2837 C 0.52415 0.51472 0.98057 0.0
H2838 H 0.49209 0.46695 0.05351 0.0
C2839 C 0.50823 0.52002 0.96548 0.0
C2840 C 0.48645 0.50632 0.98209 0.0
H2841 H 0.54076 0.5257 0.96683 0.0
H2842 H 0.51307 0.53494 0.94119 0.0
C2843 C 0.481 0.48715 0.01408 0.0
loop_
_geom_bond_atom_site_label_1
_geom_bond_atom_site_label_2
_geom_bond_distance
_geom_bond_site_symmetry_2
_ccdc_geom_bond_type
Co0 O2 2.143 . S
Co0 O8 2.074 . S
Co0 O11 2.093 . S
Co0 O24 2.097 . S
Co0 N41 2.151 . S
Co0 N49 2.214 . S
Co1 O2 2.160 . S
Co1 O7 2.058 . S
Co1 O17 2.057 . S
Co1 O32 2.037 . S
Co1 N36 2.145 . S
Co1 N57 2.257 . S
O2 Co0 2.143 . S
O2 Co1 2.160 . S
C3 O4 1.278 . S
C3 O11 1.224 . S
O4 C3 1.278 . S
C5 O6 1.245 . S
C5 O17 1.232 . S
O6 C5 1.245 . S
O7 Co1 2.058 . S
O7 C33 1.269 . S
O8 Co0 2.074 . S
O8 C33 1.257 . S
H9 C34 0.930 . S
H10 C40 0.930 . S
O11 Co0 2.093 . S
O11 C3 1.224 . S
H12 C44 0.929 . S
H13 C46 0.930 . S
H14 C47 0.930 . S
H15 C45 0.929 . S
H16 C48 0.928 . S
O17 Co1 2.057 . S
O17 C5 1.232 . S
H18 C37 0.929 . S
H19 C38 0.929 . S
H20 C50 0.931 . S
H21 C42 0.929 . S
H22 C51 0.930 . S
H23 C43 0.931 . S
O24 Co0 2.097 . S
O24 C52 1.214 . S
H25 C53 0.929 . S
H26 C54 0.929 . S
H27 C55 0.930 . S
H28 C56 0.929 . S
H29 C58 0.930 . S
H30 C35 0.930 . S
H31 C39 0.930 . S
O32 Co1 2.037 . S
O32 C52 1.234 . S
C33 O7 1.269 . S
C33 O8 1.257 . S
C34 H9 0.930 . S
C34 C37 1.388 . S
C34 C39 1.418 . S
C35 H30 0.930 . S
C35 C38 1.404 . S
C35 C39 1.353 . S
N36 Co1 2.145 . S
N36 C37 1.397 . S
N36 C38 1.334 . S
C37 H18 0.929 . S
C37 C34 1.388 . S
C37 N36 1.397 . S
C38 H19 0.929 . S
C38 C35 1.404 . S
C38 N36 1.334 . S
C39 H31 0.930 . S
C39 C34 1.418 . S
C39 C35 1.353 . S
C40 H10 0.930 . S
C40 N41 1.330 . S
C40 C42 1.446 . S
N41 Co0 2.151 . S
N41 C40 1.330 . S
N41 C45 1.418 . S
C42 H21 0.929 . S
C42 C40 1.446 . S
C42 C43 1.332 . S
C43 H23 0.931 . S
C43 C42 1.332 . S
C43 C44 1.267 . S
C44 H12 0.929 . S
C44 C43 1.267 . S
C44 C45 1.251 . S
C45 H15 0.929 . S
C45 N41 1.418 . S
C45 C44 1.251 . S
C46 H13 0.930 . S
C46 C48 1.406 . S
C46 C51 1.261 . S
C47 H14 0.930 . S
C47 N49 1.325 . S
C47 C50 1.357 . S
C48 H16 0.928 . S
C48 C46 1.406 . S
C48 N49 1.261 . S
N49 Co0 2.214 . S
N49 C47 1.325 . S
N49 C48 1.261 . S
C50 H20 0.931 . S
C50 C47 1.357 . S
C50 C51 1.312 . S
C51 H22 0.930 . S
C51 C46 1.261 . S
C51 C50 1.312 . S
C52 O24 1.214 . S
C52 O32 1.234 . S
C53 H25 0.929 . S
C53 C56 1.391 . S
C53 C58 1.391 . S
C54 H26 0.929 . S
C54 C55 1.390 . S
C54 N57 1.391 . S
C55 H27 0.930 . S
C55 C54 1.390 . S
C55 C56 1.392 . S
C56 H28 0.929 . S
C56 C53 1.391 . S
C56 C55 1.392 . S
N57 Co1 2.257 . S
N57 C54 1.391 . S
N57 C58 1.388 . S
C58 H29 0.930 . S
C58 C53 1.391 . S
C58 N57 1.388 . S
Co59 O61 2.143 . S
Co59 O67 2.074 . S
Co59 O70 2.093 . S
Co59 O83 2.097 . S
Co59 N100 2.151 . S
Co59 N108 2.214 . S
Co60 O61 2.160 . S
Co60 O66 2.058 . S
Co60 O76 2.057 . S
Co60 O91 2.037 . S
Co60 N95 2.145 . S
Co60 N116 2.257 . S
O61 Co59 2.143 . S
O61 Co60 2.160 . S
C62 O63 1.278 . S
C62 O70 1.224 . S
O63 C62 1.278 . S
C64 O65 1.245 . S
C64 O76 1.232 . S
O65 C64 1.245 . S
O66 Co60 2.058 . S
O66 C92 1.269 . S
O67 Co59 2.074 . S
O67 C92 1.257 . S
H68 C93 0.930 . S
H69 C99 0.930 . S
O70 Co59 2.093 . S
O70 C62 1.224 . S
H71 C103 0.929 . S
H72 C105 0.930 . S
H73 C106 0.930 . S
H74 C104 0.929 . S
H75 C107 0.928 . S
O76 Co60 2.057 . S
O76 C64 1.232 . S
H77 C96 0.929 . S
H78 C97 0.929 . S
H79 C109 0.931 . S
H80 C101 0.929 . S
H81 C110 0.930 . S
H82 C102 0.931 . S
O83 Co59 2.097 . S
O83 C111 1.214 . S
H84 C112 0.929 . S
H85 C113 0.929 . S
H86 C114 0.930 . S
H87 C115 0.929 . S
H88 C117 0.930 . S
H89 C94 0.930 . S
H90 C98 0.930 . S
O91 Co60 2.037 . S
O91 C111 1.234 . S
C92 O66 1.269 . S
C92 O67 1.257 . S
C93 H68 0.930 . S
C93 C96 1.388 . S
C93 C98 1.418 . S
C94 H89 0.930 . S
C94 C97 1.404 . S
C94 C98 1.353 . S
N95 Co60 2.145 . S
N95 C96 1.397 . S
N95 C97 1.334 . S
C96 H77 0.929 . S
C96 C93 1.388 . S
C96 N95 1.397 . S
C97 H78 0.929 . S
C97 C94 1.404 . S
C97 N95 1.334 . S
C98 H90 0.930 . S
C98 C93 1.418 . S
C98 C94 1.353 . S
C99 H69 0.930 . S
C99 N100 1.330 . S
C99 C101 1.446 . S
N100 Co59 2.151 . S
N100 C99 1.330 . S
N100 C104 1.418 . S
C101 H80 0.929 . S
C101 C99 1.446 . S
C101 C102 1.332 . S
C102 H82 0.931 . S
C102 C101 1.332 . S
C102 C103 1.267 . S
C103 H71 0.929 . S
C103 C102 1.267 . S
C103 C104 1.251 . S
C104 H74 0.929 . S
C104 N100 1.418 . S
C104 C103 1.251 . S
C105 H72 0.930 . S
C105 C107 1.406 . S
C105 C110 1.261 . S
C106 H73 0.930 . S
C106 N108 1.325 . S
C106 C109 1.357 . S
C107 H75 0.928 . S
C107 C105 1.406 . S
C107 N108 1.261 . S
N108 Co59 2.214 . S
N108 C106 1.325 . S
N108 C107 1.261 . S
C109 H79 0.931 . S
C109 C106 1.357 . S
C109 C110 1.312 . S
C110 H81 0.930 . S
C110 C105 1.261 . S
C110 C109 1.312 . S
C111 O83 1.214 . S
C111 O91 1.234 . S
C112 H84 0.929 . S
C112 C115 1.391 . S
C112 C117 1.391 . S
C113 H85 0.929 . S
C113 C114 1.390 . S
C113 N116 1.391 . S
C114 H86 0.930 . S
C114 C113 1.390 . S
C114 C115 1.392 . S
C115 H87 0.929 . S
C115 C112 1.391 . S
C115 C114 1.392 . S
N116 Co60 2.257 . S
N116 C113 1.391 . S
N116 C117 1.388 . S
C117 H88 0.930 . S
C117 C112 1.391 . S
C117 N116 1.388 . S
Co118 O120 2.143 . S
Co118 O126 2.074 . S
Co118 O129 2.093 . S
Co118 O142 2.097 . S
Co118 N159 2.151 . S
Co118 N167 2.214 . S
Co119 O120 2.160 . S
Co119 O125 2.058 . S
Co119 O135 2.057 . S
Co119 O150 2.037 . S
Co119 N154 2.145 . S
Co119 N175 2.257 . S
O120 Co118 2.143 . S
O120 Co119 2.160 . S
C121 O122 1.278 . S
C121 O129 1.224 . S
O122 C121 1.278 . S
C123 O124 1.245 . S
C123 O135 1.232 . S
O124 C123 1.245 . S
O125 Co119 2.058 . S
O125 C151 1.269 . S
O126 Co118 2.074 . S
O126 C151 1.257 . S
H127 C152 0.930 . S
H128 C158 0.930 . S
O129 Co118 2.093 . S
O129 C121 1.224 . S
H130 C162 0.929 . S
H131 C164 0.930 . S
H132 C165 0.930 . S
H133 C163 0.929 . S
H134 C166 0.928 . S
O135 Co119 2.057 . S
O135 C123 1.232 . S
H136 C155 0.929 . S
H137 C156 0.929 . S
H138 C168 0.931 . S
H139 C160 0.929 . S
H140 C169 0.930 . S
H141 C161 0.931 . S
O142 Co118 2.097 . S
O142 C170 1.214 . S
H143 C171 0.929 . S
H144 C172 0.929 . S
H145 C173 0.930 . S
H146 C174 0.929 . S
H147 C176 0.930 . S
H148 C153 0.930 . S
H149 C157 0.930 . S
O150 Co119 2.037 . S
O150 C170 1.234 . S
C151 O125 1.269 . S
C151 O126 1.257 . S
C152 H127 0.930 . S
C152 C155 1.388 . S
C152 C157 1.418 . S
C153 H148 0.930 . S
C153 C156 1.404 . S
C153 C157 1.353 . S
N154 Co119 2.145 . S
N154 C155 1.397 . S
N154 C156 1.334 . S
C155 H136 0.929 . S
C155 C152 1.388 . S
C155 N154 1.397 . S
C156 H137 0.929 . S
C156 C153 1.404 . S
C156 N154 1.334 . S
C157 H149 0.930 . S
C157 C152 1.418 . S
C157 C153 1.353 . S
C158 H128 0.930 . S
C158 N159 1.330 . S
C158 C160 1.446 . S
N159 Co118 2.151 . S
N159 C158 1.330 . S
N159 C163 1.418 . S
C160 H139 0.929 . S
C160 C158 1.446 . S
C160 C161 1.332 . S
C161 H141 0.931 . S
C161 C160 1.332 . S
C161 C162 1.267 . S
C162 H130 0.929 . S
C162 C161 1.267 . S
C162 C163 1.251 . S
C163 H133 0.929 . S
C163 N159 1.418 . S
C163 C162 1.251 . S
C164 H131 0.930 . S
C164 C166 1.406 . S
C164 C169 1.261 . S
C165 H132 0.930 . S
C165 N167 1.325 . S
C165 C168 1.357 . S
C166 H134 0.928 . S
C166 C164 1.406 . S
C166 N167 1.261 . S
N167 Co118 2.214 . S
N167 C165 1.325 . S
N167 C166 1.261 . S
C168 H138 0.931 . S
C168 C165 1.357 . S
C168 C169 1.312 . S
C169 H140 0.930 . S
C169 C164 1.261 . S
C169 C168 1.312 . S
C170 O142 1.214 . S
C170 O150 1.234 . S
C171 H143 0.929 . S
C171 C174 1.391 . S
C171 C176 1.391 . S
C172 H144 0.929 . S
C172 C173 1.390 . S
C172 N175 1.391 . S
C173 H145 0.930 . S
C173 C172 1.390 . S
C173 C174 1.392 . S
C174 H146 0.929 . S
C174 C171 1.391 . S
C174 C173 1.392 . S
N175 Co119 2.257 . S
N175 C172 1.391 . S
N175 C176 1.388 . S
C176 H147 0.930 . S
C176 C171 1.391 . S
C176 N175 1.388 . S
Co177 O179 2.143 . S
Co177 O185 2.074 . S
Co177 O188 2.093 . S
Co177 O201 2.097 . S
Co177 N218 2.151 . S
Co177 N226 2.214 . S
Co178 O179 2.160 . S
Co178 O184 2.058 . S
Co178 O194 2.057 . S
Co178 O209 2.037 . S
Co178 N213 2.145 . S
Co178 N234 2.257 . S
O179 Co177 2.143 . S
O179 Co178 2.160 . S
C180 O181 1.278 . S
C180 O188 1.224 . S
O181 C180 1.278 . S
C182 O183 1.245 . S
C182 O194 1.232 . S
O183 C182 1.245 . S
O184 Co178 2.058 . S
O184 C210 1.269 . S
O185 Co177 2.074 . S
O185 C210 1.257 . S
H186 C211 0.930 . S
H187 C217 0.930 . S
O188 Co177 2.093 . S
O188 C180 1.224 . S
H189 C221 0.929 . S
H190 C223 0.930 . S
H191 C224 0.930 . S
H192 C222 0.929 . S
H193 C225 0.928 . S
O194 Co178 2.057 . S
O194 C182 1.232 . S
H195 C214 0.929 . S
H196 C215 0.929 . S
H197 C227 0.931 . S
H198 C219 0.929 . S
H199 C228 0.930 . S
H200 C220 0.931 . S
O201 Co177 2.097 . S
O201 C229 1.214 . S
H202 C230 0.929 . S
H203 C231 0.929 . S
H204 C232 0.930 . S
H205 C233 0.929 . S
H206 C235 0.930 . S
H207 C212 0.930 . S
H208 C216 0.930 . S
O209 Co178 2.037 . S
O209 C229 1.234 . S
C210 O184 1.269 . S
C210 O185 1.257 . S
C211 H186 0.930 . S
C211 C214 1.388 . S
C211 C216 1.418 . S
C212 H207 0.930 . S
C212 C215 1.404 . S
C212 C216 1.353 . S
N213 Co178 2.145 . S
N213 C214 1.397 . S
N213 C215 1.334 . S
C214 H195 0.929 . S
C214 C211 1.388 . S
C214 N213 1.397 . S
C215 H196 0.929 . S
C215 C212 1.404 . S
C215 N213 1.334 . S
C216 H208 0.930 . S
C216 C211 1.418 . S
C216 C212 1.353 . S
C217 H187 0.930 . S
C217 N218 1.330 . S
C217 C219 1.446 . S
N218 Co177 2.151 . S
N218 C217 1.330 . S
N218 C222 1.418 . S
C219 H198 0.929 . S
C219 C217 1.446 . S
C219 C220 1.332 . S
C220 H200 0.931 . S
C220 C219 1.332 . S
C220 C221 1.267 . S
C221 H189 0.929 . S
C221 C220 1.267 . S
C221 C222 1.251 . S
C222 H192 0.929 . S
C222 N218 1.418 . S
C222 C221 1.251 . S
C223 H190 0.930 . S
C223 C225 1.406 . S
C223 C228 1.261 . S
C224 H191 0.930 . S
C224 N226 1.325 . S
C224 C227 1.357 . S
C225 H193 0.928 . S
C225 C223 1.406 . S
C225 N226 1.261 . S
N226 Co177 2.214 . S
N226 C224 1.325 . S
N226 C225 1.261 . S
C227 H197 0.931 . S
C227 C224 1.357 . S
C227 C228 1.312 . S
C228 H199 0.930 . S
C228 C223 1.261 . S
C228 C227 1.312 . S
C229 O201 1.214 . S
C229 O209 1.234 . S
C230 H202 0.929 . S
C230 C233 1.391 . S
C230 C235 1.391 . S
C231 H203 0.929 . S
C231 C232 1.390 . S
C231 N234 1.391 . S
C232 H204 0.930 . S
C232 C231 1.390 . S
C232 C233 1.392 . S
C233 H205 0.929 . S
C233 C230 1.391 . S
C233 C232 1.392 . S
N234 Co178 2.257 . S
N234 C231 1.391 . S
N234 C235 1.388 . S
C235 H206 0.930 . S
C235 C230 1.391 . S
C235 N234 1.388 . S
Co236 O238 2.143 . S
Co236 O244 2.074 . S
Co236 O247 2.093 . S
Co236 O260 2.097 . S
Co236 N277 2.151 . S
Co236 N285 2.214 . S
Co237 O238 2.160 . S
Co237 O243 2.058 . S
Co237 O253 2.057 . S
Co237 O268 2.037 . S
Co237 N272 2.145 . S
Co237 N293 2.257 . S
O238 Co236 2.143 . S
O238 Co237 2.160 . S
C239 O240 1.278 . S
C239 O247 1.224 . S
O240 C239 1.278 . S
C241 O242 1.245 . S
C241 O253 1.232 . S
O242 C241 1.245 . S
O243 Co237 2.058 . S
O243 C269 1.269 . S
O244 Co236 2.074 . S
O244 C269 1.257 . S
H245 C270 0.930 . S
H246 C276 0.930 . S
O247 Co236 2.093 . S
O247 C239 1.224 . S
H248 C280 0.929 . S
H249 C282 0.930 . S
H250 C283 0.930 . S
H251 C281 0.929 . S
H252 C284 0.928 . S
O253 Co237 2.057 . S
O253 C241 1.232 . S
H254 C273 0.929 . S
H255 C274 0.929 . S
H256 C286 0.931 . S
H257 C278 0.929 . S
H258 C287 0.930 . S
H259 C279 0.931 . S
O260 Co236 2.097 . S
O260 C288 1.214 . S
H261 C289 0.929 . S
H262 C290 0.929 . S
H263 C291 0.930 . S
H264 C292 0.929 . S
H265 C294 0.930 . S
H266 C271 0.930 . S
H267 C275 0.930 . S
O268 Co237 2.037 . S
O268 C288 1.234 . S
C269 O243 1.269 . S
C269 O244 1.257 . S
C270 H245 0.930 . S
C270 C273 1.388 . S
C270 C275 1.418 . S
C271 H266 0.930 . S
C271 C274 1.404 . S
C271 C275 1.353 . S
N272 Co237 2.145 . S
N272 C273 1.397 . S
N272 C274 1.334 . S
C273 H254 0.929 . S
C273 C270 1.388 . S
C273 N272 1.397 . S
C274 H255 0.929 . S
C274 C271 1.404 . S
C274 N272 1.334 . S
C275 H267 0.930 . S
C275 C270 1.418 . S
C275 C271 1.353 . S
C276 H246 0.930 . S
C276 N277 1.330 . S
C276 C278 1.446 . S
N277 Co236 2.151 . S
N277 C276 1.330 . S
N277 C281 1.418 . S
C278 H257 0.929 . S
C278 C276 1.446 . S
C278 C279 1.332 . S
C279 H259 0.931 . S
C279 C278 1.332 . S
C279 C280 1.267 . S
C280 H248 0.929 . S
C280 C279 1.267 . S
C280 C281 1.251 . S
C281 H251 0.929 . S
C281 N277 1.418 . S
C281 C280 1.251 . S
C282 H249 0.930 . S
C282 C284 1.406 . S
C282 C287 1.261 . S
C283 H250 0.930 . S
C283 N285 1.325 . S
C283 C286 1.357 . S
C284 H252 0.928 . S
C284 C282 1.406 . S
C284 N285 1.261 . S
N285 Co236 2.214 . S
N285 C283 1.325 . S
N285 C284 1.261 . S
C286 H256 0.931 . S
C286 C283 1.357 . S
C286 C287 1.312 . S
C287 H258 0.930 . S
C287 C282 1.261 . S
C287 C286 1.312 . S
C288 O260 1.214 . S
C288 O268 1.234 . S
C289 H261 0.929 . S
C289 C292 1.391 . S
C289 C294 1.391 . S
C290 H262 0.929 . S
C290 C291 1.390 . S
C290 N293 1.391 . S
C291 H263 0.930 . S
C291 C290 1.390 . S
C291 C292 1.392 . S
C292 H264 0.929 . S
C292 C289 1.391 . S
C292 C291 1.392 . S
N293 Co237 2.257 . S
N293 C290 1.391 . S
N293 C294 1.388 . S
C294 H265 0.930 . S
C294 C289 1.391 . S
C294 N293 1.388 . S
Co295 O297 2.143 . S
Co295 O303 2.074 . S
Co295 O306 2.093 . S
Co295 O319 2.097 . S
Co295 N336 2.151 . S
Co295 N344 2.214 . S
Co296 O297 2.160 . S
Co296 O302 2.058 . S
Co296 O312 2.057 . S
Co296 O327 2.037 . S
Co296 N331 2.145 . S
Co296 N352 2.257 . S
O297 Co295 2.143 . S
O297 Co296 2.160 . S
C298 O299 1.278 . S
C298 O306 1.224 . S
O299 C298 1.278 . S
C300 O301 1.245 . S
C300 O312 1.232 . S
O301 C300 1.245 . S
O302 Co296 2.058 . S
O302 C328 1.269 . S
O303 Co295 2.074 . S
O303 C328 1.257 . S
H304 C329 0.930 . S
H305 C335 0.930 . S
O306 Co295 2.093 . S
O306 C298 1.224 . S
H307 C339 0.929 . S
H308 C341 0.930 . S
H309 C342 0.930 . S
H310 C340 0.929 . S
H311 C343 0.928 . S
O312 Co296 2.057 . S
O312 C300 1.232 . S
H313 C332 0.929 . S
H314 C333 0.929 . S
H315 C345 0.931 . S
H316 C337 0.929 . S
H317 C346 0.930 . S
H318 C338 0.931 . S
O319 Co295 2.097 . S
O319 C347 1.214 . S
H320 C348 0.929 . S
H321 C349 0.929 . S
H322 C350 0.930 . S
H323 C351 0.929 . S
H324 C353 0.930 . S
H325 C330 0.930 . S
H326 C334 0.930 . S
O327 Co296 2.037 . S
O327 C347 1.234 . S
C328 O302 1.269 . S
C328 O303 1.257 . S
C329 H304 0.930 . S
C329 C332 1.388 . S
C329 C334 1.418 . S
C330 H325 0.930 . S
C330 C333 1.404 . S
C330 C334 1.353 . S
N331 Co296 2.145 . S
N331 C332 1.397 . S
N331 C333 1.334 . S
C332 H313 0.929 . S
C332 C329 1.388 . S
C332 N331 1.397 . S
C333 H314 0.929 . S
C333 C330 1.404 . S
C333 N331 1.334 . S
C334 H326 0.930 . S
C334 C329 1.418 . S
C334 C330 1.353 . S
C335 H305 0.930 . S
C335 N336 1.330 . S
C335 C337 1.446 . S
N336 Co295 2.151 . S
N336 C335 1.330 . S
N336 C340 1.418 . S
C337 H316 0.929 . S
C337 C335 1.446 . S
C337 C338 1.332 . S
C338 H318 0.931 . S
C338 C337 1.332 . S
C338 C339 1.267 . S
C339 H307 0.929 . S
C339 C338 1.267 . S
C339 C340 1.251 . S
C340 H310 0.929 . S
C340 N336 1.418 . S
C340 C339 1.251 . S
C341 H308 0.930 . S
C341 C343 1.406 . S
C341 C346 1.261 . S
C342 H309 0.930 . S
C342 N344 1.325 . S
C342 C345 1.357 . S
C343 H311 0.928 . S
C343 C341 1.406 . S
C343 N344 1.261 . S
N344 Co295 2.214 . S
N344 C342 1.325 . S
N344 C343 1.261 . S
C345 H315 0.931 . S
C345 C342 1.357 . S
C345 C346 1.312 . S
C346 H317 0.930 . S
C346 C341 1.261 . S
C346 C345 1.312 . S
C347 O319 1.214 . S
C347 O327 1.234 . S
C348 H320 0.929 . S
C348 C351 1.391 . S
C348 C353 1.391 . S
C349 H321 0.929 . S
C349 C350 1.390 . S
C349 N352 1.391 . S
C350 H322 0.930 . S
C350 C349 1.390 . S
C350 C351 1.392 . S
C351 H323 0.929 . S
C351 C348 1.391 . S
C351 C350 1.392 . S
N352 Co296 2.257 . S
N352 C349 1.391 . S
N352 C353 1.388 . S
C353 H324 0.930 . S
C353 C348 1.391 . S
C353 N352 1.388 . S
Co354 O356 2.143 . S
Co354 O362 2.074 . S
Co354 O365 2.093 . S
Co354 O378 2.097 . S
Co354 N395 2.151 . S
Co354 N403 2.214 . S
Co355 O356 2.160 . S
Co355 O361 2.058 . S
Co355 O371 2.057 . S
Co355 O386 2.037 . S
Co355 N390 2.145 . S
Co355 N411 2.257 . S
O356 Co354 2.143 . S
O356 Co355 2.160 . S
C357 O358 1.278 . S
C357 O365 1.224 . S
O358 C357 1.278 . S
C359 O360 1.245 . S
C359 O371 1.232 . S
O360 C359 1.245 . S
O361 Co355 2.058 . S
O361 C387 1.269 . S
O362 Co354 2.074 . S
O362 C387 1.257 . S
H363 C388 0.930 . S
H364 C394 0.930 . S
O365 Co354 2.093 . S
O365 C357 1.224 . S
H366 C398 0.929 . S
H367 C400 0.930 . S
H368 C401 0.930 . S
H369 C399 0.929 . S
H370 C402 0.928 . S
O371 Co355 2.057 . S
O371 C359 1.232 . S
H372 C391 0.929 . S
H373 C392 0.929 . S
H374 C404 0.931 . S
H375 C396 0.929 . S
H376 C405 0.930 . S
H377 C397 0.931 . S
O378 Co354 2.097 . S
O378 C406 1.214 . S
H379 C407 0.929 . S
H380 C408 0.929 . S
H381 C409 0.930 . S
H382 C410 0.929 . S
H383 C412 0.930 . S
H384 C389 0.930 . S
H385 C393 0.930 . S
O386 Co355 2.037 . S
O386 C406 1.234 . S
C387 O361 1.269 . S
C387 O362 1.257 . S
C388 H363 0.930 . S
C388 C391 1.388 . S
C388 C393 1.418 . S
C389 H384 0.930 . S
C389 C392 1.404 . S
C389 C393 1.353 . S
N390 Co355 2.145 . S
N390 C391 1.397 . S
N390 C392 1.334 . S
C391 H372 0.929 . S
C391 C388 1.388 . S
C391 N390 1.397 . S
C392 H373 0.929 . S
C392 C389 1.404 . S
C392 N390 1.334 . S
C393 H385 0.930 . S
C393 C388 1.418 . S
C393 C389 1.353 . S
C394 H364 0.930 . S
C394 N395 1.330 . S
C394 C396 1.446 . S
N395 Co354 2.151 . S
N395 C394 1.330 . S
N395 C399 1.418 . S
C396 H375 0.929 . S
C396 C394 1.446 . S
C396 C397 1.332 . S
C397 H377 0.931 . S
C397 C396 1.332 . S
C397 C398 1.267 . S
C398 H366 0.929 . S
C398 C397 1.267 . S
C398 C399 1.251 . S
C399 H369 0.929 . S
C399 N395 1.418 . S
C399 C398 1.251 . S
C400 H367 0.930 . S
C400 C402 1.406 . S
C400 C405 1.261 . S
C401 H368 0.930 . S
C401 N403 1.325 . S
C401 C404 1.357 . S
C402 H370 0.928 . S
C402 C400 1.406 . S
C402 N403 1.261 . S
N403 Co354 2.214 . S
N403 C401 1.325 . S
N403 C402 1.261 . S
C404 H374 0.931 . S
C404 C401 1.357 . S
C404 C405 1.312 . S
C405 H376 0.930 . S
C405 C400 1.261 . S
C405 C404 1.312 . S
C406 O378 1.214 . S
C406 O386 1.234 . S
C407 H379 0.929 . S
C407 C410 1.391 . S
C407 C412 1.391 . S
C408 H380 0.929 . S
C408 C409 1.390 . S
C408 N411 1.391 . S
C409 H381 0.930 . S
C409 C408 1.390 . S
C409 C410 1.392 . S
C410 H382 0.929 . S
C410 C407 1.391 . S
C410 C409 1.392 . S
N411 Co355 2.257 . S
N411 C408 1.391 . S
N411 C412 1.388 . S
C412 H383 0.930 . S
C412 C407 1.391 . S
C412 N411 1.388 . S
Co413 O415 2.143 . S
Co413 O421 2.074 . S
Co413 O424 2.093 . S
Co413 O437 2.097 . S
Co413 N454 2.151 . S
Co413 N462 2.214 . S
Co414 O415 2.160 . S
Co414 O420 2.058 . S
Co414 O430 2.057 . S
Co414 O445 2.037 . S
Co414 N449 2.145 . S
Co414 N470 2.257 . S
O415 Co413 2.143 . S
O415 Co414 2.160 . S
C416 O417 1.278 . S
C416 O424 1.224 . S
O417 C416 1.278 . S
C418 O419 1.245 . S
C418 O430 1.232 . S
O419 C418 1.245 . S
O420 Co414 2.058 . S
O420 C446 1.269 . S
O421 Co413 2.074 . S
O421 C446 1.257 . S
H422 C447 0.930 . S
H423 C453 0.930 . S
O424 Co413 2.093 . S
O424 C416 1.224 . S
H425 C457 0.929 . S
H426 C459 0.930 . S
H427 C460 0.930 . S
H428 C458 0.929 . S
H429 C461 0.928 . S
O430 Co414 2.057 . S
O430 C418 1.232 . S
H431 C450 0.929 . S
H432 C451 0.929 . S
H433 C463 0.931 . S
H434 C455 0.929 . S
H435 C464 0.930 . S
H436 C456 0.931 . S
O437 Co413 2.097 . S
O437 C465 1.214 . S
H438 C466 0.929 . S
H439 C467 0.929 . S
H440 C468 0.930 . S
H441 C469 0.929 . S
H442 C471 0.930 . S
H443 C448 0.930 . S
H444 C452 0.930 . S
O445 Co414 2.037 . S
O445 C465 1.234 . S
C446 O420 1.269 . S
C446 O421 1.257 . S
C447 H422 0.930 . S
C447 C450 1.388 . S
C447 C452 1.418 . S
C448 H443 0.930 . S
C448 C451 1.404 . S
C448 C452 1.353 . S
N449 Co414 2.145 . S
N449 C450 1.397 . S
N449 C451 1.334 . S
C450 H431 0.929 . S
C450 C447 1.388 . S
C450 N449 1.397 . S
C451 H432 0.929 . S
C451 C448 1.404 . S
C451 N449 1.334 . S
C452 H444 0.930 . S
C452 C447 1.418 . S
C452 C448 1.353 . S
C453 H423 0.930 . S
C453 N454 1.330 . S
C453 C455 1.446 . S
N454 Co413 2.151 . S
N454 C453 1.330 . S
N454 C458 1.418 . S
C455 H434 0.929 . S
C455 C453 1.446 . S
C455 C456 1.332 . S
C456 H436 0.931 . S
C456 C455 1.332 . S
C456 C457 1.267 . S
C457 H425 0.929 . S
C457 C456 1.267 . S
C457 C458 1.251 . S
C458 H428 0.929 . S
C458 N454 1.418 . S
C458 C457 1.251 . S
C459 H426 0.930 . S
C459 C461 1.406 . S
C459 C464 1.261 . S
C460 H427 0.930 . S
C460 N462 1.325 . S
C460 C463 1.357 . S
C461 H429 0.928 . S
C461 C459 1.406 . S
C461 N462 1.261 . S
N462 Co413 2.214 . S
N462 C460 1.325 . S
N462 C461 1.261 . S
C463 H433 0.931 . S
C463 C460 1.357 . S
C463 C464 1.312 . S
C464 H435 0.930 . S
C464 C459 1.261 . S
C464 C463 1.312 . S
C465 O437 1.214 . S
C465 O445 1.234 . S
C466 H438 0.929 . S
C466 C469 1.391 . S
C466 C471 1.391 . S
C467 H439 0.929 . S
C467 C468 1.390 . S
C467 N470 1.391 . S
C468 H440 0.930 . S
C468 C467 1.390 . S
C468 C469 1.392 . S
C469 H441 0.929 . S
C469 C466 1.391 . S
C469 C468 1.392 . S
N470 Co414 2.257 . S
N470 C467 1.391 . S
N470 C471 1.388 . S
C471 H442 0.930 . S
C471 C466 1.391 . S
C471 N470 1.388 . S
Co472 O474 2.143 . S
Co472 O480 2.074 . S
Co472 O483 2.093 . S
Co472 O496 2.097 . S
Co472 N513 2.151 . S
Co472 N521 2.214 . S
Co473 O474 2.160 . S
Co473 O479 2.058 . S
Co473 O489 2.057 . S
Co473 O504 2.037 . S
Co473 N508 2.145 . S
Co473 N529 2.257 . S
O474 Co472 2.143 . S
O474 Co473 2.160 . S
C475 O476 1.278 . S
C475 O483 1.224 . S
O476 C475 1.278 . S
C477 O478 1.245 . S
C477 O489 1.232 . S
O478 C477 1.245 . S
O479 Co473 2.058 . S
O479 C505 1.269 . S
O480 Co472 2.074 . S
O480 C505 1.257 . S
H481 C506 0.930 . S
H482 C512 0.930 . S
O483 Co472 2.093 . S
O483 C475 1.224 . S
H484 C516 0.929 . S
H485 C518 0.930 . S
H486 C519 0.930 . S
H487 C517 0.929 . S
H488 C520 0.928 . S
O489 Co473 2.057 . S
O489 C477 1.232 . S
H490 C509 0.929 . S
H491 C510 0.929 . S
H492 C522 0.931 . S
H493 C514 0.929 . S
H494 C523 0.930 . S
H495 C515 0.931 . S
O496 Co472 2.097 . S
O496 C524 1.214 . S
H497 C525 0.929 . S
H498 C526 0.929 . S
H499 C527 0.930 . S
H500 C528 0.929 . S
H501 C530 0.930 . S
H502 C507 0.930 . S
H503 C511 0.930 . S
O504 Co473 2.037 . S
O504 C524 1.234 . S
C505 O479 1.269 . S
C505 O480 1.257 . S
C506 H481 0.930 . S
C506 C509 1.388 . S
C506 C511 1.418 . S
C507 H502 0.930 . S
C507 C510 1.404 . S
C507 C511 1.353 . S
N508 Co473 2.145 . S
N508 C509 1.397 . S
N508 C510 1.334 . S
C509 H490 0.929 . S
C509 C506 1.388 . S
C509 N508 1.397 . S
C510 H491 0.929 . S
C510 C507 1.404 . S
C510 N508 1.334 . S
C511 H503 0.930 . S
C511 C506 1.418 . S
C511 C507 1.353 . S
C512 H482 0.930 . S
C512 N513 1.330 . S
C512 C514 1.446 . S
N513 Co472 2.151 . S
N513 C512 1.330 . S
N513 C517 1.418 . S
C514 H493 0.929 . S
C514 C512 1.446 . S
C514 C515 1.332 . S
C515 H495 0.931 . S
C515 C514 1.332 . S
C515 C516 1.267 . S
C516 H484 0.929 . S
C516 C515 1.267 . S
C516 C517 1.251 . S
C517 H487 0.929 . S
C517 N513 1.418 . S
C517 C516 1.251 . S
C518 H485 0.930 . S
C518 C520 1.406 . S
C518 C523 1.261 . S
C519 H486 0.930 . S
C519 N521 1.325 . S
C519 C522 1.357 . S
C520 H488 0.928 . S
C520 C518 1.406 . S
C520 N521 1.261 . S
N521 Co472 2.214 . S
N521 C519 1.325 . S
N521 C520 1.261 . S
C522 H492 0.931 . S
C522 C519 1.357 . S
C522 C523 1.312 . S
C523 H494 0.930 . S
C523 C518 1.261 . S
C523 C522 1.312 . S
C524 O496 1.214 . S
C524 O504 1.234 . S
C525 H497 0.929 . S
C525 C528 1.391 . S
C525 C530 1.391 . S
C526 H498 0.929 . S
C526 C527 1.390 . S
C526 N529 1.391 . S
C527 H499 0.930 . S
C527 C526 1.390 . S
C527 C528 1.392 . S
C528 H500 0.929 . S
C528 C525 1.391 . S
C528 C527 1.392 . S
N529 Co473 2.257 . S
N529 C526 1.391 . S
N529 C530 1.388 . S
C530 H501 0.930 . S
C530 C525 1.391 . S
C530 N529 1.388 . S
Co531 O533 2.143 . S
Co531 O539 2.074 . S
Co531 O542 2.093 . S
Co531 O555 2.097 . S
Co531 N572 2.151 . S
Co531 N580 2.214 . S
Co532 O533 2.160 . S
Co532 O538 2.058 . S
Co532 O548 2.057 . S
Co532 O563 2.037 . S
Co532 N567 2.145 . S
Co532 N588 2.257 . S
O533 Co531 2.143 . S
O533 Co532 2.160 . S
C534 O535 1.278 . S
C534 O542 1.224 . S
O535 C534 1.278 . S
C536 O537 1.245 . S
C536 O548 1.232 . S
O537 C536 1.245 . S
O538 Co532 2.058 . S
O538 C564 1.269 . S
O539 Co531 2.074 . S
O539 C564 1.257 . S
H540 C565 0.930 . S
H541 C571 0.930 . S
O542 Co531 2.093 . S
O542 C534 1.224 . S
H543 C575 0.929 . S
H544 C577 0.930 . S
H545 C578 0.930 . S
H546 C576 0.929 . S
H547 C579 0.928 . S
O548 Co532 2.057 . S
O548 C536 1.232 . S
H549 C568 0.929 . S
H550 C569 0.929 . S
H551 C581 0.931 . S
H552 C573 0.929 . S
H553 C582 0.930 . S
H554 C574 0.931 . S
O555 Co531 2.097 . S
O555 C583 1.214 . S
H556 C584 0.929 . S
H557 C585 0.929 . S
H558 C586 0.930 . S
H559 C587 0.929 . S
H560 C589 0.930 . S
H561 C566 0.930 . S
H562 C570 0.930 . S
O563 Co532 2.037 . S
O563 C583 1.234 . S
C564 O538 1.269 . S
C564 O539 1.257 . S
C565 H540 0.930 . S
C565 C568 1.388 . S
C565 C570 1.418 . S
C566 H561 0.930 . S
C566 C569 1.404 . S
C566 C570 1.353 . S
N567 Co532 2.145 . S
N567 C568 1.397 . S
N567 C569 1.334 . S
C568 H549 0.929 . S
C568 C565 1.388 . S
C568 N567 1.397 . S
C569 H550 0.929 . S
C569 C566 1.404 . S
C569 N567 1.334 . S
C570 H562 0.930 . S
C570 C565 1.418 . S
C570 C566 1.353 . S
C571 H541 0.930 . S
C571 N572 1.330 . S
C571 C573 1.446 . S
N572 Co531 2.151 . S
N572 C571 1.330 . S
N572 C576 1.418 . S
C573 H552 0.929 . S
C573 C571 1.446 . S
C573 C574 1.332 . S
C574 H554 0.931 . S
C574 C573 1.332 . S
C574 C575 1.267 . S
C575 H543 0.929 . S
C575 C574 1.267 . S
C575 C576 1.251 . S
C576 H546 0.929 . S
C576 N572 1.418 . S
C576 C575 1.251 . S
C577 H544 0.930 . S
C577 C579 1.406 . S
C577 C582 1.261 . S
C578 H545 0.930 . S
C578 N580 1.325 . S
C578 C581 1.357 . S
C579 H547 0.928 . S
C579 C577 1.406 . S
C579 N580 1.261 . S
N580 Co531 2.214 . S
N580 C578 1.325 . S
N580 C579 1.261 . S
C581 H551 0.931 . S
C581 C578 1.357 . S
C581 C582 1.312 . S
C582 H553 0.930 . S
C582 C577 1.261 . S
C582 C581 1.312 . S
C583 O555 1.214 . S
C583 O563 1.234 . S
C584 H556 0.929 . S
C584 C587 1.391 . S
C584 C589 1.391 . S
C585 H557 0.929 . S
C585 C586 1.390 . S
C585 N588 1.391 . S
C586 H558 0.930 . S
C586 C585 1.390 . S
C586 C587 1.392 . S
C587 H559 0.929 . S
C587 C584 1.391 . S
C587 C586 1.392 . S
N588 Co532 2.257 . S
N588 C585 1.391 . S
N588 C589 1.388 . S
C589 H560 0.930 . S
C589 C584 1.391 . S
C589 N588 1.388 . S
Co590 O592 2.143 . S
Co590 O598 2.074 . S
Co590 O601 2.093 . S
Co590 O614 2.097 . S
Co590 N631 2.151 . S
Co590 N639 2.214 . S
Co591 O592 2.160 . S
Co591 O597 2.058 . S
Co591 O607 2.057 . S
Co591 O622 2.037 . S
Co591 N626 2.145 . S
Co591 N647 2.257 . S
O592 Co590 2.143 . S
O592 Co591 2.160 . S
C593 O594 1.278 . S
C593 O601 1.224 . S
O594 C593 1.278 . S
C595 O596 1.245 . S
C595 O607 1.232 . S
O596 C595 1.245 . S
O597 Co591 2.058 . S
O597 C623 1.269 . S
O598 Co590 2.074 . S
O598 C623 1.257 . S
H599 C624 0.930 . S
H600 C630 0.930 . S
O601 Co590 2.093 . S
O601 C593 1.224 . S
H602 C634 0.929 . S
H603 C636 0.930 . S
H604 C637 0.930 . S
H605 C635 0.929 . S
H606 C638 0.928 . S
O607 Co591 2.057 . S
O607 C595 1.232 . S
H608 C627 0.929 . S
H609 C628 0.929 . S
H610 C640 0.931 . S
H611 C632 0.929 . S
H612 C641 0.930 . S
H613 C633 0.931 . S
O614 Co590 2.097 . S
O614 C642 1.214 . S
H615 C643 0.929 . S
H616 C644 0.929 . S
H617 C645 0.930 . S
H618 C646 0.929 . S
H619 C648 0.930 . S
H620 C625 0.930 . S
H621 C629 0.930 . S
O622 Co591 2.037 . S
O622 C642 1.234 . S
C623 O597 1.269 . S
C623 O598 1.257 . S
C624 H599 0.930 . S
C624 C627 1.388 . S
C624 C629 1.418 . S
C625 H620 0.930 . S
C625 C628 1.404 . S
C625 C629 1.353 . S
N626 Co591 2.145 . S
N626 C627 1.397 . S
N626 C628 1.334 . S
C627 H608 0.929 . S
C627 C624 1.388 . S
C627 N626 1.397 . S
C628 H609 0.929 . S
C628 C625 1.404 . S
C628 N626 1.334 . S
C629 H621 0.930 . S
C629 C624 1.418 . S
C629 C625 1.353 . S
C630 H600 0.930 . S
C630 N631 1.330 . S
C630 C632 1.446 . S
N631 Co590 2.151 . S
N631 C630 1.330 . S
N631 C635 1.418 . S
C632 H611 0.929 . S
C632 C630 1.446 . S
C632 C633 1.332 . S
C633 H613 0.931 . S
C633 C632 1.332 . S
C633 C634 1.267 . S
C634 H602 0.929 . S
C634 C633 1.267 . S
C634 C635 1.251 . S
C635 H605 0.929 . S
C635 N631 1.418 . S
C635 C634 1.251 . S
C636 H603 0.930 . S
C636 C638 1.406 . S
C636 C641 1.261 . S
C637 H604 0.930 . S
C637 N639 1.325 . S
C637 C640 1.357 . S
C638 H606 0.928 . S
C638 C636 1.406 . S
C638 N639 1.261 . S
N639 Co590 2.214 . S
N639 C637 1.325 . S
N639 C638 1.261 . S
C640 H610 0.931 . S
C640 C637 1.357 . S
C640 C641 1.312 . S
C641 H612 0.930 . S
C641 C636 1.261 . S
C641 C640 1.312 . S
C642 O614 1.214 . S
C642 O622 1.234 . S
C643 H615 0.929 . S
C643 C646 1.391 . S
C643 C648 1.391 . S
C644 H616 0.929 . S
C644 C645 1.390 . S
C644 N647 1.391 . S
C645 H617 0.930 . S
C645 C644 1.390 . S
C645 C646 1.392 . S
C646 H618 0.929 . S
C646 C643 1.391 . S
C646 C645 1.392 . S
N647 Co591 2.257 . S
N647 C644 1.391 . S
N647 C648 1.388 . S
C648 H619 0.930 . S
C648 C643 1.391 . S
C648 N647 1.388 . S
Co649 O651 2.143 . S
Co649 O657 2.074 . S
Co649 O660 2.093 . S
Co649 O673 2.097 . S
Co649 N690 2.151 . S
Co649 N698 2.214 . S
Co650 O651 2.160 . S
Co650 O656 2.058 . S
Co650 O666 2.057 . S
Co650 O681 2.037 . S
Co650 N685 2.145 . S
Co650 N706 2.257 . S
O651 Co649 2.143 . S
O651 Co650 2.160 . S
C652 O653 1.278 . S
C652 O660 1.224 . S
O653 C652 1.278 . S
C654 O655 1.245 . S
C654 O666 1.232 . S
O655 C654 1.245 . S
O656 Co650 2.058 . S
O656 C682 1.269 . S
O657 Co649 2.074 . S
O657 C682 1.257 . S
H658 C683 0.930 . S
H659 C689 0.930 . S
O660 Co649 2.093 . S
O660 C652 1.224 . S
H661 C693 0.929 . S
H662 C695 0.930 . S
H663 C696 0.930 . S
H664 C694 0.929 . S
H665 C697 0.928 . S
O666 Co650 2.057 . S
O666 C654 1.232 . S
H667 C686 0.929 . S
H668 C687 0.929 . S
H669 C699 0.931 . S
H670 C691 0.929 . S
H671 C700 0.930 . S
H672 C692 0.931 . S
O673 Co649 2.097 . S
O673 C701 1.214 . S
H674 C702 0.929 . S
H675 C703 0.929 . S
H676 C704 0.930 . S
H677 C705 0.929 . S
H678 C707 0.930 . S
H679 C684 0.930 . S
H680 C688 0.930 . S
O681 Co650 2.037 . S
O681 C701 1.234 . S
C682 O656 1.269 . S
C682 O657 1.257 . S
C683 H658 0.930 . S
C683 C686 1.388 . S
C683 C688 1.418 . S
C684 H679 0.930 . S
C684 C687 1.404 . S
C684 C688 1.353 . S
N685 Co650 2.145 . S
N685 C686 1.397 . S
N685 C687 1.334 . S
C686 H667 0.929 . S
C686 C683 1.388 . S
C686 N685 1.397 . S
C687 H668 0.929 . S
C687 C684 1.404 . S
C687 N685 1.334 . S
C688 H680 0.930 . S
C688 C683 1.418 . S
C688 C684 1.353 . S
C689 H659 0.930 . S
C689 N690 1.330 . S
C689 C691 1.446 . S
N690 Co649 2.151 . S
N690 C689 1.330 . S
N690 C694 1.418 . S
C691 H670 0.929 . S
C691 C689 1.446 . S
C691 C692 1.332 . S
C692 H672 0.931 . S
C692 C691 1.332 . S
C692 C693 1.267 . S
C693 H661 0.929 . S
C693 C692 1.267 . S
C693 C694 1.251 . S
C694 H664 0.929 . S
C694 N690 1.418 . S
C694 C693 1.251 . S
C695 H662 0.930 . S
C695 C697 1.406 . S
C695 C700 1.261 . S
C696 H663 0.930 . S
C696 N698 1.325 . S
C696 C699 1.357 . S
C697 H665 0.928 . S
C697 C695 1.406 . S
C697 N698 1.261 . S
N698 Co649 2.214 . S
N698 C696 1.325 . S
N698 C697 1.261 . S
C699 H669 0.931 . S
C699 C696 1.357 . S
C699 C700 1.312 . S
C700 H671 0.930 . S
C700 C695 1.261 . S
C700 C699 1.312 . S
C701 O673 1.214 . S
C701 O681 1.234 . S
C702 H674 0.929 . S
C702 C705 1.391 . S
C702 C707 1.391 . S
C703 H675 0.929 . S
C703 C704 1.390 . S
C703 N706 1.391 . S
C704 H676 0.930 . S
C704 C703 1.390 . S
C704 C705 1.392 . S
C705 H677 0.929 . S
C705 C702 1.391 . S
C705 C704 1.392 . S
N706 Co650 2.257 . S
N706 C703 1.391 . S
N706 C707 1.388 . S
C707 H678 0.930 . S
C707 C702 1.391 . S
C707 N706 1.388 . S
Co708 O710 2.143 . S
Co708 O716 2.074 . S
Co708 O719 2.093 . S
Co708 O732 2.097 . S
Co708 N749 2.151 . S
Co708 N757 2.214 . S
Co709 O710 2.160 . S
Co709 O715 2.058 . S
Co709 O725 2.057 . S
Co709 O740 2.037 . S
Co709 N744 2.145 . S
Co709 N765 2.257 . S
O710 Co708 2.143 . S
O710 Co709 2.160 . S
C711 O712 1.278 . S
C711 O719 1.224 . S
O712 C711 1.278 . S
C713 O714 1.245 . S
C713 O725 1.232 . S
O714 C713 1.245 . S
O715 Co709 2.058 . S
O715 C741 1.269 . S
O716 Co708 2.074 . S
O716 C741 1.257 . S
H717 C742 0.930 . S
H718 C748 0.930 . S
O719 Co708 2.093 . S
O719 C711 1.224 . S
H720 C752 0.929 . S
H721 C754 0.930 . S
H722 C755 0.930 . S
H723 C753 0.929 . S
H724 C756 0.928 . S
O725 Co709 2.057 . S
O725 C713 1.232 . S
H726 C745 0.929 . S
H727 C746 0.929 . S
H728 C758 0.931 . S
H729 C750 0.929 . S
H730 C759 0.930 . S
H731 C751 0.931 . S
O732 Co708 2.097 . S
O732 C760 1.214 . S
H733 C761 0.929 . S
H734 C762 0.929 . S
H735 C763 0.930 . S
H736 C764 0.929 . S
H737 C766 0.930 . S
H738 C743 0.930 . S
H739 C747 0.930 . S
O740 Co709 2.037 . S
O740 C760 1.234 . S
C741 O715 1.269 . S
C741 O716 1.257 . S
C742 H717 0.930 . S
C742 C745 1.388 . S
C742 C747 1.418 . S
C743 H738 0.930 . S
C743 C746 1.404 . S
C743 C747 1.353 . S
N744 Co709 2.145 . S
N744 C745 1.397 . S
N744 C746 1.334 . S
C745 H726 0.929 . S
C745 C742 1.388 . S
C745 N744 1.397 . S
C746 H727 0.929 . S
C746 C743 1.404 . S
C746 N744 1.334 . S
C747 H739 0.930 . S
C747 C742 1.418 . S
C747 C743 1.353 . S
C748 H718 0.930 . S
C748 N749 1.330 . S
C748 C750 1.446 . S
N749 Co708 2.151 . S
N749 C748 1.330 . S
N749 C753 1.418 . S
C750 H729 0.929 . S
C750 C748 1.446 . S
C750 C751 1.332 . S
C751 H731 0.931 . S
C751 C750 1.332 . S
C751 C752 1.267 . S
C752 H720 0.929 . S
C752 C751 1.267 . S
C752 C753 1.251 . S
C753 H723 0.929 . S
C753 N749 1.418 . S
C753 C752 1.251 . S
C754 H721 0.930 . S
C754 C756 1.406 . S
C754 C759 1.261 . S
C755 H722 0.930 . S
C755 N757 1.325 . S
C755 C758 1.357 . S
C756 H724 0.928 . S
C756 C754 1.406 . S
C756 N757 1.261 . S
N757 Co708 2.214 . S
N757 C755 1.325 . S
N757 C756 1.261 . S
C758 H728 0.931 . S
C758 C755 1.357 . S
C758 C759 1.312 . S
C759 H730 0.930 . S
C759 C754 1.261 . S
C759 C758 1.312 . S
C760 O732 1.214 . S
C760 O740 1.234 . S
C761 H733 0.929 . S
C761 C764 1.391 . S
C761 C766 1.391 . S
C762 H734 0.929 . S
C762 C763 1.390 . S
C762 N765 1.391 . S
C763 H735 0.930 . S
C763 C762 1.390 . S
C763 C764 1.392 . S
C764 H736 0.929 . S
C764 C761 1.391 . S
C764 C763 1.392 . S
N765 Co709 2.257 . S
N765 C762 1.391 . S
N765 C766 1.388 . S
C766 H737 0.930 . S
C766 C761 1.391 . S
C766 N765 1.388 . S
Co767 O769 2.143 . S
Co767 O775 2.074 . S
Co767 O778 2.093 . S
Co767 O791 2.097 . S
Co767 N808 2.151 . S
Co767 N816 2.214 . S
Co768 O769 2.160 . S
Co768 O774 2.058 . S
Co768 O784 2.057 . S
Co768 O799 2.037 . S
Co768 N803 2.145 . S
Co768 N824 2.257 . S
O769 Co767 2.143 . S
O769 Co768 2.160 . S
C770 O771 1.278 . S
C770 O778 1.224 . S
O771 C770 1.278 . S
C772 O773 1.245 . S
C772 O784 1.232 . S
O773 C772 1.245 . S
O774 Co768 2.058 . S
O774 C800 1.269 . S
O775 Co767 2.074 . S
O775 C800 1.257 . S
H776 C801 0.930 . S
H777 C807 0.930 . S
O778 Co767 2.093 . S
O778 C770 1.224 . S
H779 C811 0.929 . S
H780 C813 0.930 . S
H781 C814 0.930 . S
H782 C812 0.929 . S
H783 C815 0.928 . S
O784 Co768 2.057 . S
O784 C772 1.232 . S
H785 C804 0.929 . S
H786 C805 0.929 . S
H787 C817 0.931 . S
H788 C809 0.929 . S
H789 C818 0.930 . S
H790 C810 0.931 . S
O791 Co767 2.097 . S
O791 C819 1.214 . S
H792 C820 0.929 . S
H793 C821 0.929 . S
H794 C822 0.930 . S
H795 C823 0.929 . S
H796 C825 0.930 . S
H797 C802 0.930 . S
H798 C806 0.930 . S
O799 Co768 2.037 . S
O799 C819 1.234 . S
C800 O774 1.269 . S
C800 O775 1.257 . S
C801 H776 0.930 . S
C801 C804 1.388 . S
C801 C806 1.418 . S
C802 H797 0.930 . S
C802 C805 1.404 . S
C802 C806 1.353 . S
N803 Co768 2.145 . S
N803 C804 1.397 . S
N803 C805 1.334 . S
C804 H785 0.929 . S
C804 C801 1.388 . S
C804 N803 1.397 . S
C805 H786 0.929 . S
C805 C802 1.404 . S
C805 N803 1.334 . S
C806 H798 0.930 . S
C806 C801 1.418 . S
C806 C802 1.353 . S
C807 H777 0.930 . S
C807 N808 1.330 . S
C807 C809 1.446 . S
N808 Co767 2.151 . S
N808 C807 1.330 . S
N808 C812 1.418 . S
C809 H788 0.929 . S
C809 C807 1.446 . S
C809 C810 1.332 . S
C810 H790 0.931 . S
C810 C809 1.332 . S
C810 C811 1.267 . S
C811 H779 0.929 . S
C811 C810 1.267 . S
C811 C812 1.251 . S
C812 H782 0.929 . S
C812 N808 1.418 . S
C812 C811 1.251 . S
C813 H780 0.930 . S
C813 C815 1.406 . S
C813 C818 1.261 . S
C814 H781 0.930 . S
C814 N816 1.325 . S
C814 C817 1.357 . S
C815 H783 0.928 . S
C815 C813 1.406 . S
C815 N816 1.261 . S
N816 Co767 2.214 . S
N816 C814 1.325 . S
N816 C815 1.261 . S
C817 H787 0.931 . S
C817 C814 1.357 . S
C817 C818 1.312 . S
C818 H789 0.930 . S
C818 C813 1.261 . S
C818 C817 1.312 . S
C819 O791 1.214 . S
C819 O799 1.234 . S
C820 H792 0.929 . S
C820 C823 1.391 . S
C820 C825 1.391 . S
C821 H793 0.929 . S
C821 C822 1.390 . S
C821 N824 1.391 . S
C822 H794 0.930 . S
C822 C821 1.390 . S
C822 C823 1.392 . S
C823 H795 0.929 . S
C823 C820 1.391 . S
C823 C822 1.392 . S
N824 Co768 2.257 . S
N824 C821 1.391 . S
N824 C825 1.388 . S
C825 H796 0.930 . S
C825 C820 1.391 . S
C825 N824 1.388 . S
Co826 O828 2.143 . S
Co826 O834 2.074 . S
Co826 O837 2.093 . S
Co826 O850 2.097 . S
Co826 N867 2.151 . S
Co826 N875 2.214 . S
Co827 O828 2.160 . S
Co827 O833 2.058 . S
Co827 O843 2.057 . S
Co827 O858 2.037 . S
Co827 N862 2.145 . S
Co827 N883 2.257 . S
O828 Co826 2.143 . S
O828 Co827 2.160 . S
C829 O830 1.278 . S
C829 O837 1.224 . S
O830 C829 1.278 . S
C831 O832 1.245 . S
C831 O843 1.232 . S
O832 C831 1.245 . S
O833 Co827 2.058 . S
O833 C859 1.269 . S
O834 Co826 2.074 . S
O834 C859 1.257 . S
H835 C860 0.930 . S
H836 C866 0.930 . S
O837 Co826 2.093 . S
O837 C829 1.224 . S
H838 C870 0.929 . S
H839 C872 0.930 . S
H840 C873 0.930 . S
H841 C871 0.929 . S
H842 C874 0.928 . S
O843 Co827 2.057 . S
O843 C831 1.232 . S
H844 C863 0.929 . S
H845 C864 0.929 . S
H846 C876 0.931 . S
H847 C868 0.929 . S
H848 C877 0.930 . S
H849 C869 0.931 . S
O850 Co826 2.097 . S
O850 C878 1.214 . S
H851 C879 0.929 . S
H852 C880 0.929 . S
H853 C881 0.930 . S
H854 C882 0.929 . S
H855 C884 0.930 . S
H856 C861 0.930 . S
H857 C865 0.930 . S
O858 Co827 2.037 . S
O858 C878 1.234 . S
C859 O833 1.269 . S
C859 O834 1.257 . S
C860 H835 0.930 . S
C860 C863 1.388 . S
C860 C865 1.418 . S
C861 H856 0.930 . S
C861 C864 1.404 . S
C861 C865 1.353 . S
N862 Co827 2.145 . S
N862 C863 1.397 . S
N862 C864 1.334 . S
C863 H844 0.929 . S
C863 C860 1.388 . S
C863 N862 1.397 . S
C864 H845 0.929 . S
C864 C861 1.404 . S
C864 N862 1.334 . S
C865 H857 0.930 . S
C865 C860 1.418 . S
C865 C861 1.353 . S
C866 H836 0.930 . S
C866 N867 1.330 . S
C866 C868 1.446 . S
N867 Co826 2.151 . S
N867 C866 1.330 . S
N867 C871 1.418 . S
C868 H847 0.929 . S
C868 C866 1.446 . S
C868 C869 1.332 . S
C869 H849 0.931 . S
C869 C868 1.332 . S
C869 C870 1.267 . S
C870 H838 0.929 . S
C870 C869 1.267 . S
C870 C871 1.251 . S
C871 H841 0.929 . S
C871 N867 1.418 . S
C871 C870 1.251 . S
C872 H839 0.930 . S
C872 C874 1.406 . S
C872 C877 1.261 . S
C873 H840 0.930 . S
C873 N875 1.325 . S
C873 C876 1.357 . S
C874 H842 0.928 . S
C874 C872 1.406 . S
C874 N875 1.261 . S
N875 Co826 2.214 . S
N875 C873 1.325 . S
N875 C874 1.261 . S
C876 H846 0.931 . S
C876 C873 1.357 . S
C876 C877 1.312 . S
C877 H848 0.930 . S
C877 C872 1.261 . S
C877 C876 1.312 . S
C878 O850 1.214 . S
C878 O858 1.234 . S
C879 H851 0.929 . S
C879 C882 1.391 . S
C879 C884 1.391 . S
C880 H852 0.929 . S
C880 C881 1.390 . S
C880 N883 1.391 . S
C881 H853 0.930 . S
C881 C880 1.390 . S
C881 C882 1.392 . S
C882 H854 0.929 . S
C882 C879 1.391 . S
C882 C881 1.392 . S
N883 Co827 2.257 . S
N883 C880 1.391 . S
N883 C884 1.388 . S
C884 H855 0.930 . S
C884 C879 1.391 . S
C884 N883 1.388 . S
Co885 O887 2.143 . S
Co885 O893 2.074 . S
Co885 O896 2.093 . S
Co885 O909 2.097 . S
Co885 N926 2.151 . S
Co885 N934 2.214 . S
Co886 O887 2.160 . S
Co886 O892 2.058 . S
Co886 O902 2.057 . S
Co886 O917 2.037 . S
Co886 N921 2.145 . S
Co886 N942 2.257 . S
O887 Co885 2.143 . S
O887 Co886 2.160 . S
C888 O889 1.278 . S
C888 O896 1.224 . S
O889 C888 1.278 . S
C890 O891 1.245 . S
C890 O902 1.232 . S
O891 C890 1.245 . S
O892 Co886 2.058 . S
O892 C918 1.269 . S
O893 Co885 2.074 . S
O893 C918 1.257 . S
H894 C919 0.930 . S
H895 C925 0.930 . S
O896 Co885 2.093 . S
O896 C888 1.224 . S
H897 C929 0.929 . S
H898 C931 0.930 . S
H899 C932 0.930 . S
H900 C930 0.929 . S
H901 C933 0.928 . S
O902 Co886 2.057 . S
O902 C890 1.232 . S
H903 C922 0.929 . S
H904 C923 0.929 . S
H905 C935 0.931 . S
H906 C927 0.929 . S
H907 C936 0.930 . S
H908 C928 0.931 . S
O909 Co885 2.097 . S
O909 C937 1.214 . S
H910 C938 0.929 . S
H911 C939 0.929 . S
H912 C940 0.930 . S
H913 C941 0.929 . S
H914 C943 0.930 . S
H915 C920 0.930 . S
H916 C924 0.930 . S
O917 Co886 2.037 . S
O917 C937 1.234 . S
C918 O892 1.269 . S
C918 O893 1.257 . S
C919 H894 0.930 . S
C919 C922 1.388 . S
C919 C924 1.418 . S
C920 H915 0.930 . S
C920 C923 1.404 . S
C920 C924 1.353 . S
N921 Co886 2.145 . S
N921 C922 1.397 . S
N921 C923 1.334 . S
C922 H903 0.929 . S
C922 C919 1.388 . S
C922 N921 1.397 . S
C923 H904 0.929 . S
C923 C920 1.404 . S
C923 N921 1.334 . S
C924 H916 0.930 . S
C924 C919 1.418 . S
C924 C920 1.353 . S
C925 H895 0.930 . S
C925 N926 1.330 . S
C925 C927 1.446 . S
N926 Co885 2.151 . S
N926 C925 1.330 . S
N926 C930 1.418 . S
C927 H906 0.929 . S
C927 C925 1.446 . S
C927 C928 1.332 . S
C928 H908 0.931 . S
C928 C927 1.332 . S
C928 C929 1.267 . S
C929 H897 0.929 . S
C929 C928 1.267 . S
C929 C930 1.251 . S
C930 H900 0.929 . S
C930 N926 1.418 . S
C930 C929 1.251 . S
C931 H898 0.930 . S
C931 C933 1.406 . S
C931 C936 1.261 . S
C932 H899 0.930 . S
C932 N934 1.325 . S
C932 C935 1.357 . S
C933 H901 0.928 . S
C933 C931 1.406 . S
C933 N934 1.261 . S
N934 Co885 2.214 . S
N934 C932 1.325 . S
N934 C933 1.261 . S
C935 H905 0.931 . S
C935 C932 1.357 . S
C935 C936 1.312 . S
C936 H907 0.930 . S
C936 C931 1.261 . S
C936 C935 1.312 . S
C937 O909 1.214 . S
C937 O917 1.234 . S
C938 H910 0.929 . S
C938 C941 1.391 . S
C938 C943 1.391 . S
C939 H911 0.929 . S
C939 C940 1.390 . S
C939 N942 1.391 . S
C940 H912 0.930 . S
C940 C939 1.390 . S
C940 C941 1.392 . S
C941 H913 0.929 . S
C941 C938 1.391 . S
C941 C940 1.392 . S
N942 Co886 2.257 . S
N942 C939 1.391 . S
N942 C943 1.388 . S
C943 H914 0.930 . S
C943 C938 1.391 . S
C943 N942 1.388 . S
Co944 O946 2.143 . S
Co944 O952 2.074 . S
Co944 O955 2.093 . S
Co944 O968 2.097 . S
Co944 N985 2.151 . S
Co944 N993 2.214 . S
Co945 O946 2.160 . S
Co945 O951 2.058 . S
Co945 O961 2.057 . S
Co945 O976 2.037 . S
Co945 N980 2.145 . S
Co945 N1001 2.257 . S
O946 Co944 2.143 . S
O946 Co945 2.160 . S
C947 O948 1.278 . S
C947 O955 1.224 . S
O948 C947 1.278 . S
C949 O950 1.245 . S
C949 O961 1.232 . S
O950 C949 1.245 . S
O951 Co945 2.058 . S
O951 C977 1.269 . S
O952 Co944 2.074 . S
O952 C977 1.257 . S
H953 C978 0.930 . S
H954 C984 0.930 . S
O955 Co944 2.093 . S
O955 C947 1.224 . S
H956 C988 0.929 . S
H957 C990 0.930 . S
H958 C991 0.930 . S
H959 C989 0.929 . S
H960 C992 0.928 . S
O961 Co945 2.057 . S
O961 C949 1.232 . S
H962 C981 0.929 . S
H963 C982 0.929 . S
H964 C994 0.931 . S
H965 C986 0.929 . S
H966 C995 0.930 . S
H967 C987 0.931 . S
O968 Co944 2.097 . S
O968 C996 1.214 . S
H969 C997 0.929 . S
H970 C998 0.929 . S
H971 C999 0.930 . S
H972 C1000 0.929 . S
H973 C1002 0.930 . S
H974 C979 0.930 . S
H975 C983 0.930 . S
O976 Co945 2.037 . S
O976 C996 1.234 . S
C977 O951 1.269 . S
C977 O952 1.257 . S
C978 H953 0.930 . S
C978 C981 1.388 . S
C978 C983 1.418 . S
C979 H974 0.930 . S
C979 C982 1.404 . S
C979 C983 1.353 . S
N980 Co945 2.145 . S
N980 C981 1.397 . S
N980 C982 1.334 . S
C981 H962 0.929 . S
C981 C978 1.388 . S
C981 N980 1.397 . S
C982 H963 0.929 . S
C982 C979 1.404 . S
C982 N980 1.334 . S
C983 H975 0.930 . S
C983 C978 1.418 . S
C983 C979 1.353 . S
C984 H954 0.930 . S
C984 N985 1.330 . S
C984 C986 1.446 . S
N985 Co944 2.151 . S
N985 C984 1.330 . S
N985 C989 1.418 . S
C986 H965 0.929 . S
C986 C984 1.446 . S
C986 C987 1.332 . S
C987 H967 0.931 . S
C987 C986 1.332 . S
C987 C988 1.267 . S
C988 H956 0.929 . S
C988 C987 1.267 . S
C988 C989 1.251 . S
C989 H959 0.929 . S
C989 N985 1.418 . S
C989 C988 1.251 . S
C990 H957 0.930 . S
C990 C992 1.406 . S
C990 C995 1.261 . S
C991 H958 0.930 . S
C991 N993 1.325 . S
C991 C994 1.357 . S
C992 H960 0.928 . S
C992 C990 1.406 . S
C992 N993 1.261 . S
N993 Co944 2.214 . S
N993 C991 1.325 . S
N993 C992 1.261 . S
C994 H964 0.931 . S
C994 C991 1.357 . S
C994 C995 1.312 . S
C995 H966 0.930 . S
C995 C990 1.261 . S
C995 C994 1.312 . S
C996 O968 1.214 . S
C996 O976 1.234 . S
C997 H969 0.929 . S
C997 C1000 1.391 . S
C997 C1002 1.391 . S
C998 H970 0.929 . S
C998 C999 1.390 . S
C998 N1001 1.391 . S
C999 H971 0.930 . S
C999 C998 1.390 . S
C999 C1000 1.392 . S
C1000 H972 0.929 . S
C1000 C997 1.391 . S
C1000 C999 1.392 . S
N1001 Co945 2.257 . S
N1001 C998 1.391 . S
N1001 C1002 1.388 . S
C1002 H973 0.930 . S
C1002 C997 1.391 . S
C1002 N1001 1.388 . S
Co1003 O1005 2.143 . S
Co1003 O1011 2.074 . S
Co1003 O1014 2.093 . S
Co1003 O1027 2.097 . S
Co1003 N1044 2.151 . S
Co1003 N1052 2.214 . S
Co1004 O1005 2.160 . S
Co1004 O1010 2.058 . S
Co1004 O1020 2.057 . S
Co1004 O1035 2.037 . S
Co1004 N1039 2.145 . S
Co1004 N1060 2.257 . S
O1005 Co1003 2.143 . S
O1005 Co1004 2.160 . S
C1006 O1007 1.278 . S
C1006 O1014 1.224 . S
O1007 C1006 1.278 . S
C1008 O1009 1.245 . S
C1008 O1020 1.232 . S
O1009 C1008 1.245 . S
O1010 Co1004 2.058 . S
O1010 C1036 1.269 . S
O1011 Co1003 2.074 . S
O1011 C1036 1.257 . S
H1012 C1037 0.930 . S
H1013 C1043 0.930 . S
O1014 Co1003 2.093 . S
O1014 C1006 1.224 . S
H1015 C1047 0.929 . S
H1016 C1049 0.930 . S
H1017 C1050 0.930 . S
H1018 C1048 0.929 . S
H1019 C1051 0.928 . S
O1020 Co1004 2.057 . S
O1020 C1008 1.232 . S
H1021 C1040 0.929 . S
H1022 C1041 0.929 . S
H1023 C1053 0.931 . S
H1024 C1045 0.929 . S
H1025 C1054 0.930 . S
H1026 C1046 0.931 . S
O1027 Co1003 2.097 . S
O1027 C1055 1.214 . S
H1028 C1056 0.929 . S
H1029 C1057 0.929 . S
H1030 C1058 0.930 . S
H1031 C1059 0.929 . S
H1032 C1061 0.930 . S
H1033 C1038 0.930 . S
H1034 C1042 0.930 . S
O1035 Co1004 2.037 . S
O1035 C1055 1.234 . S
C1036 O1010 1.269 . S
C1036 O1011 1.257 . S
C1037 H1012 0.930 . S
C1037 C1040 1.388 . S
C1037 C1042 1.418 . S
C1038 H1033 0.930 . S
C1038 C1041 1.404 . S
C1038 C1042 1.353 . S
N1039 Co1004 2.145 . S
N1039 C1040 1.397 . S
N1039 C1041 1.334 . S
C1040 H1021 0.929 . S
C1040 C1037 1.388 . S
C1040 N1039 1.397 . S
C1041 H1022 0.929 . S
C1041 C1038 1.404 . S
C1041 N1039 1.334 . S
C1042 H1034 0.930 . S
C1042 C1037 1.418 . S
C1042 C1038 1.353 . S
C1043 H1013 0.930 . S
C1043 N1044 1.330 . S
C1043 C1045 1.446 . S
N1044 Co1003 2.151 . S
N1044 C1043 1.330 . S
N1044 C1048 1.418 . S
C1045 H1024 0.929 . S
C1045 C1043 1.446 . S
C1045 C1046 1.332 . S
C1046 H1026 0.931 . S
C1046 C1045 1.332 . S
C1046 C1047 1.267 . S
C1047 H1015 0.929 . S
C1047 C1046 1.267 . S
C1047 C1048 1.251 . S
C1048 H1018 0.929 . S
C1048 N1044 1.418 . S
C1048 C1047 1.251 . S
C1049 H1016 0.930 . S
C1049 C1051 1.406 . S
C1049 C1054 1.261 . S
C1050 H1017 0.930 . S
C1050 N1052 1.325 . S
C1050 C1053 1.357 . S
C1051 H1019 0.928 . S
C1051 C1049 1.406 . S
C1051 N1052 1.261 . S
N1052 Co1003 2.214 . S
N1052 C1050 1.325 . S
N1052 C1051 1.261 . S
C1053 H1023 0.931 . S
C1053 C1050 1.357 . S
C1053 C1054 1.312 . S
C1054 H1025 0.930 . S
C1054 C1049 1.261 . S
C1054 C1053 1.312 . S
C1055 O1027 1.214 . S
C1055 O1035 1.234 . S
C1056 H1028 0.929 . S
C1056 C1059 1.391 . S
C1056 C1061 1.391 . S
C1057 H1029 0.929 . S
C1057 C1058 1.390 . S
C1057 N1060 1.391 . S
C1058 H1030 0.930 . S
C1058 C1057 1.390 . S
C1058 C1059 1.392 . S
C1059 H1031 0.929 . S
C1059 C1056 1.391 . S
C1059 C1058 1.392 . S
N1060 Co1004 2.257 . S
N1060 C1057 1.391 . S
N1060 C1061 1.388 . S
C1061 H1032 0.930 . S
C1061 C1056 1.391 . S
C1061 N1060 1.388 . S
Co1062 O1064 2.143 . S
Co1062 O1070 2.074 . S
Co1062 O1073 2.093 1_554 S
Co1062 O1086 2.097 . S
Co1062 N1103 2.151 . S
Co1062 N1111 2.214 . S
Co1063 O1064 2.160 . S
Co1063 O1069 2.058 . S
Co1063 O1079 2.057 . S
Co1063 O1094 2.037 . S
Co1063 N1098 2.145 . S
Co1063 N1119 2.257 . S
O1064 Co1062 2.143 . S
O1064 Co1063 2.160 . S
C1065 O1066 1.278 . S
C1065 O1073 1.224 . S
O1066 C1065 1.278 . S
C1067 O1068 1.245 . S
C1067 O1079 1.232 . S
O1068 C1067 1.245 . S
O1069 Co1063 2.058 . S
O1069 C1095 1.269 . S
O1070 Co1062 2.074 . S
O1070 C1095 1.257 . S
H1071 C1096 0.930 . S
H1072 C1102 0.930 . S
O1073 Co1062 2.093 1_556 S
O1073 C1065 1.224 . S
H1074 C1106 0.929 . S
H1075 C1108 0.930 . S
H1076 C1109 0.930 . S
H1077 C1107 0.929 . S
H1078 C1110 0.928 . S
O1079 Co1063 2.057 . S
O1079 C1067 1.232 . S
H1080 C1099 0.929 . S
H1081 C1100 0.929 . S
H1082 C1112 0.931 . S
H1083 C1104 0.929 . S
H1084 C1113 0.930 . S
H1085 C1105 0.931 . S
O1086 Co1062 2.097 . S
O1086 C1114 1.214 . S
H1087 C1115 0.929 . S
H1088 C1116 0.929 . S
H1089 C1117 0.930 . S
H1090 C1118 0.929 . S
H1091 C1120 0.930 . S
H1092 C1097 0.930 . S
H1093 C1101 0.930 . S
O1094 Co1063 2.037 . S
O1094 C1114 1.234 . S
C1095 O1069 1.269 . S
C1095 O1070 1.257 . S
C1096 H1071 0.930 . S
C1096 C1099 1.388 . S
C1096 C1101 1.418 . S
C1097 H1092 0.930 . S
C1097 C1100 1.404 . S
C1097 C1101 1.353 . S
N1098 Co1063 2.145 . S
N1098 C1099 1.397 . S
N1098 C1100 1.334 . S
C1099 H1080 0.929 . S
C1099 C1096 1.388 . S
C1099 N1098 1.397 . S
C1100 H1081 0.929 . S
C1100 C1097 1.404 . S
C1100 N1098 1.334 . S
C1101 H1093 0.930 . S
C1101 C1096 1.418 . S
C1101 C1097 1.353 . S
C1102 H1072 0.930 . S
C1102 N1103 1.330 . S
C1102 C1104 1.446 . S
N1103 Co1062 2.151 . S
N1103 C1102 1.330 . S
N1103 C1107 1.418 . S
C1104 H1083 0.929 . S
C1104 C1102 1.446 . S
C1104 C1105 1.332 . S
C1105 H1085 0.931 . S
C1105 C1104 1.332 . S
C1105 C1106 1.267 . S
C1106 H1074 0.929 . S
C1106 C1105 1.267 . S
C1106 C1107 1.251 . S
C1107 H1077 0.929 . S
C1107 N1103 1.418 . S
C1107 C1106 1.251 . S
C1108 H1075 0.930 . S
C1108 C1110 1.406 . S
C1108 C1113 1.261 . S
C1109 H1076 0.930 . S
C1109 N1111 1.325 . S
C1109 C1112 1.357 . S
C1110 H1078 0.928 . S
C1110 C1108 1.406 . S
C1110 N1111 1.261 . S
N1111 Co1062 2.214 . S
N1111 C1109 1.325 . S
N1111 C1110 1.261 . S
C1112 H1082 0.931 . S
C1112 C1109 1.357 . S
C1112 C1113 1.312 . S
C1113 H1084 0.930 . S
C1113 C1108 1.261 . S
C1113 C1112 1.312 . S
C1114 O1086 1.214 . S
C1114 O1094 1.234 . S
C1115 H1087 0.929 . S
C1115 C1118 1.391 . S
C1115 C1120 1.391 1_556 S
C1116 H1088 0.929 . S
C1116 C1117 1.390 . S
C1116 N1119 1.391 . S
C1117 H1089 0.930 . S
C1117 C1116 1.390 . S
C1117 C1118 1.392 1_554 S
C1118 H1090 0.929 . S
C1118 C1115 1.391 . S
C1118 C1117 1.392 1_556 S
N1119 Co1063 2.257 . S
N1119 C1116 1.391 . S
N1119 C1120 1.388 . S
C1120 H1091 0.930 . S
C1120 C1115 1.391 1_554 S
C1120 N1119 1.388 . S
Co1121 O1123 2.143 . S
Co1121 O1129 2.074 . S
Co1121 O1132 2.093 1_554 S
Co1121 O1145 2.097 . S
Co1121 N1162 2.151 . S
Co1121 N1170 2.214 . S
Co1122 O1123 2.160 . S
Co1122 O1128 2.058 . S
Co1122 O1138 2.057 . S
Co1122 O1153 2.037 . S
Co1122 N1157 2.145 . S
Co1122 N1178 2.257 . S
O1123 Co1121 2.143 . S
O1123 Co1122 2.160 . S
C1124 O1125 1.278 . S
C1124 O1132 1.224 . S
O1125 C1124 1.278 . S
C1126 O1127 1.245 . S
C1126 O1138 1.232 . S
O1127 C1126 1.245 . S
O1128 Co1122 2.058 . S
O1128 C1154 1.269 . S
O1129 Co1121 2.074 . S
O1129 C1154 1.257 . S
H1130 C1155 0.930 . S
H1131 C1161 0.930 . S
O1132 Co1121 2.093 1_556 S
O1132 C1124 1.224 . S
H1133 C1165 0.929 . S
H1134 C1167 0.930 . S
H1135 C1168 0.930 . S
H1136 C1166 0.929 . S
H1137 C1169 0.928 . S
O1138 Co1122 2.057 . S
O1138 C1126 1.232 . S
H1139 C1158 0.929 . S
H1140 C1159 0.929 . S
H1141 C1171 0.931 . S
H1142 C1163 0.929 . S
H1143 C1172 0.930 . S
H1144 C1164 0.931 . S
O1145 Co1121 2.097 . S
O1145 C1173 1.214 . S
H1146 C1174 0.929 . S
H1147 C1175 0.929 . S
H1148 C1176 0.930 . S
H1149 C1177 0.929 . S
H1150 C1179 0.930 . S
H1151 C1156 0.930 . S
H1152 C1160 0.930 . S
O1153 Co1122 2.037 . S
O1153 C1173 1.234 . S
C1154 O1128 1.269 . S
C1154 O1129 1.257 . S
C1155 H1130 0.930 . S
C1155 C1158 1.388 . S
C1155 C1160 1.418 . S
C1156 H1151 0.930 . S
C1156 C1159 1.404 . S
C1156 C1160 1.353 . S
N1157 Co1122 2.145 . S
N1157 C1158 1.397 . S
N1157 C1159 1.334 . S
C1158 H1139 0.929 . S
C1158 C1155 1.388 . S
C1158 N1157 1.397 . S
C1159 H1140 0.929 . S
C1159 C1156 1.404 . S
C1159 N1157 1.334 . S
C1160 H1152 0.930 . S
C1160 C1155 1.418 . S
C1160 C1156 1.353 . S
C1161 H1131 0.930 . S
C1161 N1162 1.330 . S
C1161 C1163 1.446 . S
N1162 Co1121 2.151 . S
N1162 C1161 1.330 . S
N1162 C1166 1.418 . S
C1163 H1142 0.929 . S
C1163 C1161 1.446 . S
C1163 C1164 1.332 . S
C1164 H1144 0.931 . S
C1164 C1163 1.332 . S
C1164 C1165 1.267 . S
C1165 H1133 0.929 . S
C1165 C1164 1.267 . S
C1165 C1166 1.251 . S
C1166 H1136 0.929 . S
C1166 N1162 1.418 . S
C1166 C1165 1.251 . S
C1167 H1134 0.930 . S
C1167 C1169 1.406 . S
C1167 C1172 1.261 . S
C1168 H1135 0.930 . S
C1168 N1170 1.325 . S
C1168 C1171 1.357 . S
C1169 H1137 0.928 . S
C1169 C1167 1.406 . S
C1169 N1170 1.261 . S
N1170 Co1121 2.214 . S
N1170 C1168 1.325 . S
N1170 C1169 1.261 . S
C1171 H1141 0.931 . S
C1171 C1168 1.357 . S
C1171 C1172 1.312 . S
C1172 H1143 0.930 . S
C1172 C1167 1.261 . S
C1172 C1171 1.312 . S
C1173 O1145 1.214 . S
C1173 O1153 1.234 . S
C1174 H1146 0.929 . S
C1174 C1177 1.391 . S
C1174 C1179 1.391 1_556 S
C1175 H1147 0.929 . S
C1175 C1176 1.390 . S
C1175 N1178 1.391 . S
C1176 H1148 0.930 . S
C1176 C1175 1.390 . S
C1176 C1177 1.392 1_554 S
C1177 H1149 0.929 . S
C1177 C1174 1.391 . S
C1177 C1176 1.392 1_556 S
N1178 Co1122 2.257 . S
N1178 C1175 1.391 . S
N1178 C1179 1.388 . S
C1179 H1150 0.930 . S
C1179 C1174 1.391 1_554 S
C1179 N1178 1.388 . S
Co1180 O1182 2.143 . S
Co1180 O1188 2.074 . S
Co1180 O1191 2.093 1_554 S
Co1180 O1204 2.097 . S
Co1180 N1221 2.151 . S
Co1180 N1229 2.214 . S
Co1181 O1182 2.160 . S
Co1181 O1187 2.058 . S
Co1181 O1197 2.057 . S
Co1181 O1212 2.037 . S
Co1181 N1216 2.145 . S
Co1181 N1237 2.257 . S
O1182 Co1180 2.143 . S
O1182 Co1181 2.160 . S
C1183 O1184 1.278 . S
C1183 O1191 1.224 . S
O1184 C1183 1.278 . S
C1185 O1186 1.245 . S
C1185 O1197 1.232 . S
O1186 C1185 1.245 . S
O1187 Co1181 2.058 . S
O1187 C1213 1.269 . S
O1188 Co1180 2.074 . S
O1188 C1213 1.257 . S
H1189 C1214 0.930 . S
H1190 C1220 0.930 . S
O1191 Co1180 2.093 1_556 S
O1191 C1183 1.224 . S
H1192 C1224 0.929 . S
H1193 C1226 0.930 . S
H1194 C1227 0.930 . S
H1195 C1225 0.929 . S
H1196 C1228 0.928 . S
O1197 Co1181 2.057 . S
O1197 C1185 1.232 . S
H1198 C1217 0.929 . S
H1199 C1218 0.929 . S
H1200 C1230 0.931 . S
H1201 C1222 0.929 . S
H1202 C1231 0.930 . S
H1203 C1223 0.931 . S
O1204 Co1180 2.097 . S
O1204 C1232 1.214 . S
H1205 C1233 0.929 . S
H1206 C1234 0.929 . S
H1207 C1235 0.930 . S
H1208 C1236 0.929 . S
H1209 C1238 0.930 . S
H1210 C1215 0.930 . S
H1211 C1219 0.930 . S
O1212 Co1181 2.037 . S
O1212 C1232 1.234 . S
C1213 O1187 1.269 . S
C1213 O1188 1.257 . S
C1214 H1189 0.930 . S
C1214 C1217 1.388 . S
C1214 C1219 1.418 . S
C1215 H1210 0.930 . S
C1215 C1218 1.404 . S
C1215 C1219 1.353 . S
N1216 Co1181 2.145 . S
N1216 C1217 1.397 . S
N1216 C1218 1.334 . S
C1217 H1198 0.929 . S
C1217 C1214 1.388 . S
C1217 N1216 1.397 . S
C1218 H1199 0.929 . S
C1218 C1215 1.404 . S
C1218 N1216 1.334 . S
C1219 H1211 0.930 . S
C1219 C1214 1.418 . S
C1219 C1215 1.353 . S
C1220 H1190 0.930 . S
C1220 N1221 1.330 . S
C1220 C1222 1.446 . S
N1221 Co1180 2.151 . S
N1221 C1220 1.330 . S
N1221 C1225 1.418 . S
C1222 H1201 0.929 . S
C1222 C1220 1.446 . S
C1222 C1223 1.332 . S
C1223 H1203 0.931 . S
C1223 C1222 1.332 . S
C1223 C1224 1.267 . S
C1224 H1192 0.929 . S
C1224 C1223 1.267 . S
C1224 C1225 1.251 . S
C1225 H1195 0.929 . S
C1225 N1221 1.418 . S
C1225 C1224 1.251 . S
C1226 H1193 0.930 . S
C1226 C1228 1.406 . S
C1226 C1231 1.261 . S
C1227 H1194 0.930 . S
C1227 N1229 1.325 . S
C1227 C1230 1.357 . S
C1228 H1196 0.928 . S
C1228 C1226 1.406 . S
C1228 N1229 1.261 . S
N1229 Co1180 2.214 . S
N1229 C1227 1.325 . S
N1229 C1228 1.261 . S
C1230 H1200 0.931 . S
C1230 C1227 1.357 . S
C1230 C1231 1.312 . S
C1231 H1202 0.930 . S
C1231 C1226 1.261 . S
C1231 C1230 1.312 . S
C1232 O1204 1.214 . S
C1232 O1212 1.234 . S
C1233 H1205 0.929 . S
C1233 C1236 1.391 . S
C1233 C1238 1.391 1_556 S
C1234 H1206 0.929 . S
C1234 C1235 1.390 . S
C1234 N1237 1.391 . S
C1235 H1207 0.930 . S
C1235 C1234 1.390 . S
C1235 C1236 1.392 1_554 S
C1236 H1208 0.929 . S
C1236 C1233 1.391 . S
C1236 C1235 1.392 1_556 S
N1237 Co1181 2.257 . S
N1237 C1234 1.391 . S
N1237 C1238 1.388 . S
C1238 H1209 0.930 . S
C1238 C1233 1.391 1_554 S
C1238 N1237 1.388 . S
Co1239 O1241 2.143 . S
Co1239 O1247 2.074 1_554 S
Co1239 O1250 2.093 . S
Co1239 O1263 2.097 . S
Co1239 N1280 2.151 . S
Co1239 N1288 2.214 . S
Co1240 O1241 2.160 . S
Co1240 O1246 2.058 1_554 S
Co1240 O1256 2.057 . S
Co1240 O1271 2.037 . S
Co1240 N1275 2.145 1_554 S
Co1240 N1296 2.257 . S
O1241 Co1239 2.143 . S
O1241 Co1240 2.160 . S
C1242 O1243 1.278 . S
C1242 O1250 1.224 . S
O1243 C1242 1.278 . S
C1244 O1245 1.245 . S
C1244 O1256 1.232 . S
O1245 C1244 1.245 . S
O1246 Co1240 2.058 1_556 S
O1246 C1272 1.269 . S
O1247 Co1239 2.074 1_556 S
O1247 C1272 1.257 . S
H1248 C1273 0.930 . S
H1249 C1279 0.930 . S
O1250 Co1239 2.093 . S
O1250 C1242 1.224 . S
H1251 C1283 0.929 . S
H1252 C1285 0.930 . S
H1253 C1286 0.930 1_556 S
H1254 C1284 0.929 . S
H1255 C1287 0.928 . S
O1256 Co1240 2.057 . S
O1256 C1244 1.232 . S
H1257 C1276 0.929 . S
H1258 C1277 0.929 . S
H1259 C1289 0.944 . S
H1260 C1281 0.929 . S
H1261 C1290 0.930 . S
H1262 C1282 0.931 . S
O1263 Co1239 2.097 . S
O1263 C1291 1.214 . S
H1264 C1292 0.929 . S
H1265 C1293 0.929 . S
H1266 C1294 0.930 . S
H1267 C1295 0.929 . S
H1268 C1297 0.930 . S
H1269 C1274 0.930 . S
H1270 C1278 0.930 . S
O1271 Co1240 2.037 . S
O1271 C1291 1.234 . S
C1272 O1246 1.269 . S
C1272 O1247 1.257 . S
C1273 H1248 0.930 . S
C1273 C1276 1.388 . S
C1273 C1278 1.418 . S
C1274 H1269 0.930 . S
C1274 C1277 1.404 . S
C1274 C1278 1.353 . S
N1275 Co1240 2.145 1_556 S
N1275 C1276 1.397 . S
N1275 C1277 1.334 . S
C1276 H1257 0.929 . S
C1276 C1273 1.388 . S
C1276 N1275 1.397 . S
C1277 H1258 0.929 . S
C1277 C1274 1.404 . S
C1277 N1275 1.334 . S
C1278 H1270 0.930 . S
C1278 C1273 1.418 . S
C1278 C1274 1.353 . S
C1279 H1249 0.930 . S
C1279 N1280 1.330 . S
C1279 C1281 1.446 . S
N1280 Co1239 2.151 . S
N1280 C1279 1.330 . S
N1280 C1284 1.418 . S
C1281 H1260 0.929 . S
C1281 C1279 1.446 . S
C1281 C1282 1.332 . S
C1282 H1262 0.931 . S
C1282 C1281 1.332 . S
C1282 C1283 1.267 . S
C1283 H1251 0.929 . S
C1283 C1282 1.267 . S
C1283 C1284 1.251 . S
C1284 H1254 0.929 . S
C1284 N1280 1.418 . S
C1284 C1283 1.251 . S
C1285 H1252 0.930 . S
C1285 C1287 1.406 . S
C1285 C1290 1.261 . S
C1286 H1253 0.930 1_554 S
C1286 N1288 1.325 . S
C1286 C1289 1.352 1_554 S
C1287 H1255 0.928 . S
C1287 C1285 1.406 . S
C1287 N1288 1.261 . S
N1288 Co1239 2.214 . S
N1288 C1286 1.325 . S
N1288 C1287 1.261 . S
C1289 H1259 0.944 . S
C1289 C1286 1.352 1_556 S
C1289 C1290 1.304 1_556 S
C1290 H1261 0.930 . S
C1290 C1285 1.261 . S
C1290 C1289 1.304 1_554 S
C1291 O1263 1.214 . S
C1291 O1271 1.234 . S
C1292 H1264 0.929 . S
C1292 C1295 1.391 . S
C1292 C1297 1.391 . S
C1293 H1265 0.929 . S
C1293 C1294 1.390 . S
C1293 N1296 1.391 . S
C1294 H1266 0.930 . S
C1294 C1293 1.390 . S
C1294 C1295 1.392 . S
C1295 H1267 0.929 . S
C1295 C1292 1.391 . S
C1295 C1294 1.392 . S
N1296 Co1240 2.257 . S
N1296 C1293 1.391 . S
N1296 C1297 1.388 . S
C1297 H1268 0.930 . S
C1297 C1292 1.391 . S
C1297 N1296 1.388 . S
Co1298 O1300 2.143 . S
Co1298 O1306 2.074 1_554 S
Co1298 O1309 2.093 . S
Co1298 O1322 2.097 . S
Co1298 N1339 2.151 . S
Co1298 N1347 2.214 . S
Co1299 O1300 2.160 . S
Co1299 O1305 2.058 1_554 S
Co1299 O1315 2.057 . S
Co1299 O1330 2.037 . S
Co1299 N1334 2.145 1_554 S
Co1299 N1355 2.257 . S
O1300 Co1298 2.143 . S
O1300 Co1299 2.160 . S
C1301 O1302 1.278 . S
C1301 O1309 1.224 . S
O1302 C1301 1.278 . S
C1303 O1304 1.245 . S
C1303 O1315 1.232 . S
O1304 C1303 1.245 . S
O1305 Co1299 2.058 1_556 S
O1305 C1331 1.269 . S
O1306 Co1298 2.074 1_556 S
O1306 C1331 1.257 . S
H1307 C1332 0.930 . S
H1308 C1338 0.930 . S
O1309 Co1298 2.093 . S
O1309 C1301 1.224 . S
H1310 C1342 0.929 . S
H1311 C1344 0.930 . S
H1312 C1345 0.930 1_556 S
H1313 C1343 0.929 . S
H1314 C1346 0.928 . S
O1315 Co1299 2.057 . S
O1315 C1303 1.232 . S
H1316 C1335 0.929 . S
H1317 C1336 0.929 . S
H1318 C1348 0.944 . S
H1319 C1340 0.929 . S
H1320 C1349 0.930 . S
H1321 C1341 0.931 . S
O1322 Co1298 2.097 . S
O1322 C1350 1.214 . S
H1323 C1351 0.929 . S
H1324 C1352 0.929 . S
H1325 C1353 0.930 . S
H1326 C1354 0.929 . S
H1327 C1356 0.930 . S
H1328 C1333 0.930 . S
H1329 C1337 0.930 . S
O1330 Co1299 2.037 . S
O1330 C1350 1.234 . S
C1331 O1305 1.269 . S
C1331 O1306 1.257 . S
C1332 H1307 0.930 . S
C1332 C1335 1.388 . S
C1332 C1337 1.418 . S
C1333 H1328 0.930 . S
C1333 C1336 1.404 . S
C1333 C1337 1.353 . S
N1334 Co1299 2.145 1_556 S
N1334 C1335 1.397 . S
N1334 C1336 1.334 . S
C1335 H1316 0.929 . S
C1335 C1332 1.388 . S
C1335 N1334 1.397 . S
C1336 H1317 0.929 . S
C1336 C1333 1.404 . S
C1336 N1334 1.334 . S
C1337 H1329 0.930 . S
C1337 C1332 1.418 . S
C1337 C1333 1.353 . S
C1338 H1308 0.930 . S
C1338 N1339 1.330 . S
C1338 C1340 1.446 . S
N1339 Co1298 2.151 . S
N1339 C1338 1.330 . S
N1339 C1343 1.418 . S
C1340 H1319 0.929 . S
C1340 C1338 1.446 . S
C1340 C1341 1.332 . S
C1341 H1321 0.931 . S
C1341 C1340 1.332 . S
C1341 C1342 1.267 . S
C1342 H1310 0.929 . S
C1342 C1341 1.267 . S
C1342 C1343 1.251 . S
C1343 H1313 0.929 . S
C1343 N1339 1.418 . S
C1343 C1342 1.251 . S
C1344 H1311 0.930 . S
C1344 C1346 1.406 . S
C1344 C1349 1.261 . S
C1345 H1312 0.930 1_554 S
C1345 N1347 1.325 . S
C1345 C1348 1.352 1_554 S
C1346 H1314 0.928 . S
C1346 C1344 1.406 . S
C1346 N1347 1.261 . S
N1347 Co1298 2.214 . S
N1347 C1345 1.325 . S
N1347 C1346 1.261 . S
C1348 H1318 0.944 . S
C1348 C1345 1.352 1_556 S
C1348 C1349 1.303 1_556 S
C1349 H1320 0.930 . S
C1349 C1344 1.261 . S
C1349 C1348 1.303 1_554 S
C1350 O1322 1.214 . S
C1350 O1330 1.234 . S
C1351 H1323 0.929 . S
C1351 C1354 1.391 . S
C1351 C1356 1.391 . S
C1352 H1324 0.929 . S
C1352 C1353 1.390 . S
C1352 N1355 1.391 . S
C1353 H1325 0.930 . S
C1353 C1352 1.390 . S
C1353 C1354 1.392 . S
C1354 H1326 0.929 . S
C1354 C1351 1.391 . S
C1354 C1353 1.392 . S
N1355 Co1299 2.257 . S
N1355 C1352 1.391 . S
N1355 C1356 1.388 . S
C1356 H1327 0.930 . S
C1356 C1351 1.391 . S
C1356 N1355 1.388 . S
Co1357 O1359 2.143 . S
Co1357 O1365 2.074 1_554 S
Co1357 O1368 2.093 . S
Co1357 O1381 2.097 . S
Co1357 N1398 2.151 . S
Co1357 N1406 2.214 . S
Co1358 O1359 2.160 . S
Co1358 O1364 2.058 1_554 S
Co1358 O1374 2.057 . S
Co1358 O1389 2.037 . S
Co1358 N1393 2.145 1_554 S
Co1358 N1414 2.257 . S
O1359 Co1357 2.143 . S
O1359 Co1358 2.160 . S
C1360 O1361 1.278 . S
C1360 O1368 1.224 . S
O1361 C1360 1.278 . S
C1362 O1363 1.245 . S
C1362 O1374 1.232 . S
O1363 C1362 1.245 . S
O1364 Co1358 2.058 1_556 S
O1364 C1390 1.269 . S
O1365 Co1357 2.074 1_556 S
O1365 C1390 1.257 . S
H1366 C1391 0.930 . S
H1367 C1397 0.930 . S
O1368 Co1357 2.093 . S
O1368 C1360 1.224 . S
H1369 C1401 0.929 . S
H1370 C1403 0.930 . S
H1371 C1404 0.930 1_556 S
H1372 C1402 0.929 . S
H1373 C1405 0.928 . S
O1374 Co1358 2.057 . S
O1374 C1362 1.232 . S
H1375 C1394 0.929 . S
H1376 C1395 0.929 . S
H1377 C1407 0.944 . S
H1378 C1399 0.929 . S
H1379 C1408 0.930 . S
H1380 C1400 0.931 . S
O1381 Co1357 2.097 . S
O1381 C1409 1.214 . S
H1382 C1410 0.929 . S
H1383 C1411 0.929 . S
H1384 C1412 0.930 . S
H1385 C1413 0.929 . S
H1386 C1415 0.930 . S
H1387 C1392 0.930 . S
H1388 C1396 0.930 . S
O1389 Co1358 2.037 . S
O1389 C1409 1.234 . S
C1390 O1364 1.269 . S
C1390 O1365 1.257 . S
C1391 H1366 0.930 . S
C1391 C1394 1.388 . S
C1391 C1396 1.418 . S
C1392 H1387 0.930 . S
C1392 C1395 1.404 . S
C1392 C1396 1.353 . S
N1393 Co1358 2.145 1_556 S
N1393 C1394 1.397 . S
N1393 C1395 1.334 . S
C1394 H1375 0.929 . S
C1394 C1391 1.388 . S
C1394 N1393 1.397 . S
C1395 H1376 0.929 . S
C1395 C1392 1.404 . S
C1395 N1393 1.334 . S
C1396 H1388 0.930 . S
C1396 C1391 1.418 . S
C1396 C1392 1.353 . S
C1397 H1367 0.930 . S
C1397 N1398 1.330 . S
C1397 C1399 1.446 . S
N1398 Co1357 2.151 . S
N1398 C1397 1.330 . S
N1398 C1402 1.418 . S
C1399 H1378 0.929 . S
C1399 C1397 1.446 . S
C1399 C1400 1.332 . S
C1400 H1380 0.931 . S
C1400 C1399 1.332 . S
C1400 C1401 1.267 . S
C1401 H1369 0.929 . S
C1401 C1400 1.267 . S
C1401 C1402 1.251 . S
C1402 H1372 0.929 . S
C1402 N1398 1.418 . S
C1402 C1401 1.251 . S
C1403 H1370 0.930 . S
C1403 C1405 1.406 . S
C1403 C1408 1.261 . S
C1404 H1371 0.930 1_554 S
C1404 N1406 1.325 . S
C1404 C1407 1.352 1_554 S
C1405 H1373 0.928 . S
C1405 C1403 1.406 . S
C1405 N1406 1.261 . S
N1406 Co1357 2.214 . S
N1406 C1404 1.325 . S
N1406 C1405 1.261 . S
C1407 H1377 0.944 . S
C1407 C1404 1.352 1_556 S
C1407 C1408 1.304 1_556 S
C1408 H1379 0.930 . S
C1408 C1403 1.261 . S
C1408 C1407 1.304 1_554 S
C1409 O1381 1.214 . S
C1409 O1389 1.234 . S
C1410 H1382 0.929 . S
C1410 C1413 1.391 . S
C1410 C1415 1.391 . S
C1411 H1383 0.929 . S
C1411 C1412 1.390 . S
C1411 N1414 1.391 . S
C1412 H1384 0.930 . S
C1412 C1411 1.390 . S
C1412 C1413 1.392 . S
C1413 H1385 0.929 . S
C1413 C1410 1.391 . S
C1413 C1412 1.392 . S
N1414 Co1358 2.257 . S
N1414 C1411 1.391 . S
N1414 C1415 1.388 . S
C1415 H1386 0.930 . S
C1415 C1410 1.391 . S
C1415 N1414 1.388 . S
Co1416 O1418 2.143 . S
Co1416 O1424 2.074 . S
Co1416 O1427 2.093 1_556 S
Co1416 O1440 2.097 . S
Co1416 N1457 2.151 . S
Co1416 N1465 2.214 . S
Co1417 O1418 2.160 . S
Co1417 O1423 2.058 . S
Co1417 O1433 2.057 . S
Co1417 O1448 2.037 . S
Co1417 N1452 2.145 . S
Co1417 N1473 2.257 . S
O1418 Co1416 2.143 . S
O1418 Co1417 2.160 . S
C1419 O1420 1.278 . S
C1419 O1427 1.224 . S
O1420 C1419 1.278 . S
C1421 O1422 1.245 . S
C1421 O1433 1.232 . S
O1422 C1421 1.245 . S
O1423 Co1417 2.058 . S
O1423 C1449 1.269 . S
O1424 Co1416 2.074 . S
O1424 C1449 1.257 . S
H1425 C1450 0.930 . S
H1426 C1456 0.930 . S
O1427 Co1416 2.093 1_554 S
O1427 C1419 1.224 . S
H1428 C1460 0.929 . S
H1429 C1462 0.930 . S
H1430 C1463 0.930 . S
H1431 C1461 0.929 . S
H1432 C1464 0.928 . S
O1433 Co1417 2.057 . S
O1433 C1421 1.232 . S
H1434 C1453 0.929 . S
H1435 C1454 0.929 . S
H1436 C1466 0.931 . S
H1437 C1458 0.929 . S
H1438 C1467 0.930 . S
H1439 C1459 0.931 . S
O1440 Co1416 2.097 . S
O1440 C1468 1.214 . S
H1441 C1469 0.929 . S
H1442 C1470 0.929 . S
H1443 C1471 0.930 . S
H1444 C1472 0.929 . S
H1445 C1474 0.930 . S
H1446 C1451 0.930 . S
H1447 C1455 0.930 . S
O1448 Co1417 2.037 . S
O1448 C1468 1.234 . S
C1449 O1423 1.269 . S
C1449 O1424 1.257 . S
C1450 H1425 0.930 . S
C1450 C1453 1.388 . S
C1450 C1455 1.418 . S
C1451 H1446 0.930 . S
C1451 C1454 1.404 . S
C1451 C1455 1.353 . S
N1452 Co1417 2.145 . S
N1452 C1453 1.397 . S
N1452 C1454 1.334 . S
C1453 H1434 0.929 . S
C1453 C1450 1.388 . S
C1453 N1452 1.397 . S
C1454 H1435 0.929 . S
C1454 C1451 1.404 . S
C1454 N1452 1.334 . S
C1455 H1447 0.930 . S
C1455 C1450 1.418 . S
C1455 C1451 1.353 . S
C1456 H1426 0.930 . S
C1456 N1457 1.330 . S
C1456 C1458 1.446 . S
N1457 Co1416 2.151 . S
N1457 C1456 1.330 . S
N1457 C1461 1.418 . S
C1458 H1437 0.929 . S
C1458 C1456 1.446 . S
C1458 C1459 1.332 . S
C1459 H1439 0.931 . S
C1459 C1458 1.332 . S
C1459 C1460 1.267 . S
C1460 H1428 0.929 . S
C1460 C1459 1.267 . S
C1460 C1461 1.251 . S
C1461 H1431 0.929 . S
C1461 N1457 1.418 . S
C1461 C1460 1.251 . S
C1462 H1429 0.930 . S
C1462 C1464 1.406 . S
C1462 C1467 1.261 . S
C1463 H1430 0.930 . S
C1463 N1465 1.325 . S
C1463 C1466 1.357 . S
C1464 H1432 0.928 . S
C1464 C1462 1.406 . S
C1464 N1465 1.261 . S
N1465 Co1416 2.214 . S
N1465 C1463 1.325 . S
N1465 C1464 1.261 . S
C1466 H1436 0.931 . S
C1466 C1463 1.357 . S
C1466 C1467 1.312 . S
C1467 H1438 0.930 . S
C1467 C1462 1.261 . S
C1467 C1466 1.312 . S
C1468 O1440 1.214 . S
C1468 O1448 1.234 . S
C1469 H1441 0.929 . S
C1469 C1472 1.391 . S
C1469 C1474 1.391 1_554 S
C1470 H1442 0.929 . S
C1470 C1471 1.390 . S
C1470 N1473 1.391 . S
C1471 H1443 0.930 . S
C1471 C1470 1.390 . S
C1471 C1472 1.392 1_556 S
C1472 H1444 0.929 . S
C1472 C1469 1.391 . S
C1472 C1471 1.392 1_554 S
N1473 Co1417 2.257 . S
N1473 C1470 1.391 . S
N1473 C1474 1.388 . S
C1474 H1445 0.930 . S
C1474 C1469 1.391 1_556 S
C1474 N1473 1.388 . S
Co1475 O1477 2.143 . S
Co1475 O1483 2.074 . S
Co1475 O1486 2.093 1_556 S
Co1475 O1499 2.097 . S
Co1475 N1516 2.151 . S
Co1475 N1524 2.214 . S
Co1476 O1477 2.160 . S
Co1476 O1482 2.058 . S
Co1476 O1492 2.057 . S
Co1476 O1507 2.037 . S
Co1476 N1511 2.145 . S
Co1476 N1532 2.257 . S
O1477 Co1475 2.143 . S
O1477 Co1476 2.160 . S
C1478 O1479 1.278 . S
C1478 O1486 1.224 . S
O1479 C1478 1.278 . S
C1480 O1481 1.245 . S
C1480 O1492 1.232 . S
O1481 C1480 1.245 . S
O1482 Co1476 2.058 . S
O1482 C1508 1.269 . S
O1483 Co1475 2.074 . S
O1483 C1508 1.257 . S
H1484 C1509 0.930 . S
H1485 C1515 0.930 . S
O1486 Co1475 2.093 1_554 S
O1486 C1478 1.224 . S
H1487 C1519 0.929 . S
H1488 C1521 0.930 . S
H1489 C1522 0.930 . S
H1490 C1520 0.929 . S
H1491 C1523 0.928 . S
O1492 Co1476 2.057 . S
O1492 C1480 1.232 . S
H1493 C1512 0.929 . S
H1494 C1513 0.929 . S
H1495 C1525 0.931 . S
H1496 C1517 0.929 . S
H1497 C1526 0.930 . S
H1498 C1518 0.931 . S
O1499 Co1475 2.097 . S
O1499 C1527 1.214 . S
H1500 C1528 0.929 . S
H1501 C1529 0.929 . S
H1502 C1530 0.930 . S
H1503 C1531 0.929 . S
H1504 C1533 0.930 . S
H1505 C1510 0.930 . S
H1506 C1514 0.930 . S
O1507 Co1476 2.037 . S
O1507 C1527 1.234 . S
C1508 O1482 1.269 . S
C1508 O1483 1.257 . S
C1509 H1484 0.930 . S
C1509 C1512 1.388 . S
C1509 C1514 1.418 . S
C1510 H1505 0.930 . S
C1510 C1513 1.404 . S
C1510 C1514 1.353 . S
N1511 Co1476 2.145 . S
N1511 C1512 1.397 . S
N1511 C1513 1.334 . S
C1512 H1493 0.929 . S
C1512 C1509 1.388 . S
C1512 N1511 1.397 . S
C1513 H1494 0.929 . S
C1513 C1510 1.404 . S
C1513 N1511 1.334 . S
C1514 H1506 0.930 . S
C1514 C1509 1.418 . S
C1514 C1510 1.353 . S
C1515 H1485 0.930 . S
C1515 N1516 1.330 . S
C1515 C1517 1.446 . S
N1516 Co1475 2.151 . S
N1516 C1515 1.330 . S
N1516 C1520 1.418 . S
C1517 H1496 0.929 . S
C1517 C1515 1.446 . S
C1517 C1518 1.332 . S
C1518 H1498 0.931 . S
C1518 C1517 1.332 . S
C1518 C1519 1.267 . S
C1519 H1487 0.929 . S
C1519 C1518 1.267 . S
C1519 C1520 1.251 . S
C1520 H1490 0.929 . S
C1520 N1516 1.418 . S
C1520 C1519 1.251 . S
C1521 H1488 0.930 . S
C1521 C1523 1.406 . S
C1521 C1526 1.261 . S
C1522 H1489 0.930 . S
C1522 N1524 1.325 . S
C1522 C1525 1.357 . S
C1523 H1491 0.928 . S
C1523 C1521 1.406 . S
C1523 N1524 1.261 . S
N1524 Co1475 2.214 . S
N1524 C1522 1.325 . S
N1524 C1523 1.261 . S
C1525 H1495 0.931 . S
C1525 C1522 1.357 . S
C1525 C1526 1.312 . S
C1526 H1497 0.930 . S
C1526 C1521 1.261 . S
C1526 C1525 1.312 . S
C1527 O1499 1.214 . S
C1527 O1507 1.234 . S
C1528 H1500 0.929 . S
C1528 C1531 1.391 . S
C1528 C1533 1.391 1_554 S
C1529 H1501 0.929 . S
C1529 C1530 1.390 . S
C1529 N1532 1.391 . S
C1530 H1502 0.930 . S
C1530 C1529 1.390 . S
C1530 C1531 1.392 1_556 S
C1531 H1503 0.929 . S
C1531 C1528 1.391 . S
C1531 C1530 1.392 1_554 S
N1532 Co1476 2.257 . S
N1532 C1529 1.391 . S
N1532 C1533 1.388 . S
C1533 H1504 0.930 . S
C1533 C1528 1.391 1_556 S
C1533 N1532 1.388 . S
Co1534 O1536 2.143 . S
Co1534 O1542 2.074 . S
Co1534 O1545 2.093 1_556 S
Co1534 O1558 2.097 . S
Co1534 N1575 2.151 . S
Co1534 N1583 2.214 . S
Co1535 O1536 2.160 . S
Co1535 O1541 2.058 . S
Co1535 O1551 2.057 . S
Co1535 O1566 2.037 . S
Co1535 N1570 2.145 . S
Co1535 N1591 2.257 . S
O1536 Co1534 2.143 . S
O1536 Co1535 2.160 . S
C1537 O1538 1.278 . S
C1537 O1545 1.224 . S
O1538 C1537 1.278 . S
C1539 O1540 1.245 . S
C1539 O1551 1.232 . S
O1540 C1539 1.245 . S
O1541 Co1535 2.058 . S
O1541 C1567 1.269 . S
O1542 Co1534 2.074 . S
O1542 C1567 1.257 . S
H1543 C1568 0.930 . S
H1544 C1574 0.930 . S
O1545 Co1534 2.093 1_554 S
O1545 C1537 1.224 . S
H1546 C1578 0.929 . S
H1547 C1580 0.930 . S
H1548 C1581 0.930 . S
H1549 C1579 0.929 . S
H1550 C1582 0.928 . S
O1551 Co1535 2.057 . S
O1551 C1539 1.232 . S
H1552 C1571 0.929 . S
H1553 C1572 0.929 . S
H1554 C1584 0.931 . S
H1555 C1576 0.929 . S
H1556 C1585 0.930 . S
H1557 C1577 0.931 . S
O1558 Co1534 2.097 . S
O1558 C1586 1.214 . S
H1559 C1587 0.929 . S
H1560 C1588 0.929 . S
H1561 C1589 0.930 . S
H1562 C1590 0.929 . S
H1563 C1592 0.930 . S
H1564 C1569 0.930 . S
H1565 C1573 0.930 . S
O1566 Co1535 2.037 . S
O1566 C1586 1.234 . S
C1567 O1541 1.269 . S
C1567 O1542 1.257 . S
C1568 H1543 0.930 . S
C1568 C1571 1.388 . S
C1568 C1573 1.418 . S
C1569 H1564 0.930 . S
C1569 C1572 1.404 . S
C1569 C1573 1.353 . S
N1570 Co1535 2.145 . S
N1570 C1571 1.397 . S
N1570 C1572 1.334 . S
C1571 H1552 0.929 . S
C1571 C1568 1.388 . S
C1571 N1570 1.397 . S
C1572 H1553 0.929 . S
C1572 C1569 1.404 . S
C1572 N1570 1.334 . S
C1573 H1565 0.930 . S
C1573 C1568 1.418 . S
C1573 C1569 1.353 . S
C1574 H1544 0.930 . S
C1574 N1575 1.330 . S
C1574 C1576 1.446 . S
N1575 Co1534 2.151 . S
N1575 C1574 1.330 . S
N1575 C1579 1.418 . S
C1576 H1555 0.929 . S
C1576 C1574 1.446 . S
C1576 C1577 1.332 . S
C1577 H1557 0.931 . S
C1577 C1576 1.332 . S
C1577 C1578 1.267 . S
C1578 H1546 0.929 . S
C1578 C1577 1.267 . S
C1578 C1579 1.251 . S
C1579 H1549 0.929 . S
C1579 N1575 1.418 . S
C1579 C1578 1.251 . S
C1580 H1547 0.930 . S
C1580 C1582 1.406 . S
C1580 C1585 1.261 . S
C1581 H1548 0.930 . S
C1581 N1583 1.325 . S
C1581 C1584 1.357 . S
C1582 H1550 0.928 . S
C1582 C1580 1.406 . S
C1582 N1583 1.261 . S
N1583 Co1534 2.214 . S
N1583 C1581 1.325 . S
N1583 C1582 1.261 . S
C1584 H1554 0.931 . S
C1584 C1581 1.357 . S
C1584 C1585 1.312 . S
C1585 H1556 0.930 . S
C1585 C1580 1.261 . S
C1585 C1584 1.312 . S
C1586 O1558 1.214 . S
C1586 O1566 1.234 . S
C1587 H1559 0.929 . S
C1587 C1590 1.391 . S
C1587 C1592 1.391 1_554 S
C1588 H1560 0.929 . S
C1588 C1589 1.390 . S
C1588 N1591 1.391 . S
C1589 H1561 0.930 . S
C1589 C1588 1.390 . S
C1589 C1590 1.392 1_556 S
C1590 H1562 0.929 . S
C1590 C1587 1.391 . S
C1590 C1589 1.392 1_554 S
N1591 Co1535 2.257 . S
N1591 C1588 1.391 . S
N1591 C1592 1.388 . S
C1592 H1563 0.930 . S
C1592 C1587 1.391 1_556 S
C1592 N1591 1.388 . S
Co1593 O1595 2.143 . S
Co1593 O1601 2.074 1_556 S
Co1593 O1604 2.093 . S
Co1593 O1617 2.097 . S
Co1593 N1634 2.151 . S
Co1593 N1642 2.214 . S
Co1594 O1595 2.160 . S
Co1594 O1600 2.058 1_556 S
Co1594 O1610 2.057 . S
Co1594 O1625 2.037 . S
Co1594 N1629 2.145 1_556 S
Co1594 N1650 2.257 . S
O1595 Co1593 2.143 . S
O1595 Co1594 2.160 . S
C1596 O1597 1.278 . S
C1596 O1604 1.224 . S
O1597 C1596 1.278 . S
C1598 O1599 1.245 . S
C1598 O1610 1.232 . S
O1599 C1598 1.245 . S
O1600 Co1594 2.058 1_554 S
O1600 C1626 1.269 . S
O1601 Co1593 2.074 1_554 S
O1601 C1626 1.257 . S
H1602 C1627 0.930 . S
H1603 C1633 0.930 . S
O1604 Co1593 2.093 . S
O1604 C1596 1.224 . S
H1605 C1637 0.929 . S
H1606 C1639 0.930 . S
H1607 C1640 0.930 1_554 S
H1608 C1638 0.929 . S
H1609 C1641 0.928 . S
O1610 Co1594 2.057 . S
O1610 C1598 1.232 . S
H1611 C1630 0.929 . S
H1612 C1631 0.929 . S
H1613 C1643 0.944 . S
H1614 C1635 0.929 . S
H1615 C1644 0.930 . S
H1616 C1636 0.931 . S
O1617 Co1593 2.097 . S
O1617 C1645 1.214 . S
H1618 C1646 0.929 . S
H1619 C1647 0.929 . S
H1620 C1648 0.930 . S
H1621 C1649 0.929 . S
H1622 C1651 0.930 . S
H1623 C1628 0.930 . S
H1624 C1632 0.930 . S
O1625 Co1594 2.037 . S
O1625 C1645 1.234 . S
C1626 O1600 1.269 . S
C1626 O1601 1.257 . S
C1627 H1602 0.930 . S
C1627 C1630 1.388 . S
C1627 C1632 1.418 . S
C1628 H1623 0.930 . S
C1628 C1631 1.404 . S
C1628 C1632 1.353 . S
N1629 Co1594 2.145 1_554 S
N1629 C1630 1.397 . S
N1629 C1631 1.334 . S
C1630 H1611 0.929 . S
C1630 C1627 1.388 . S
C1630 N1629 1.397 . S
C1631 H1612 0.929 . S
C1631 C1628 1.404 . S
C1631 N1629 1.334 . S
C1632 H1624 0.930 . S
C1632 C1627 1.418 . S
C1632 C1628 1.353 . S
C1633 H1603 0.930 . S
C1633 N1634 1.330 . S
C1633 C1635 1.446 . S
N1634 Co1593 2.151 . S
N1634 C1633 1.330 . S
N1634 C1638 1.418 . S
C1635 H1614 0.929 . S
C1635 C1633 1.446 . S
C1635 C1636 1.332 . S
C1636 H1616 0.931 . S
C1636 C1635 1.332 . S
C1636 C1637 1.267 . S
C1637 H1605 0.929 . S
C1637 C1636 1.267 . S
C1637 C1638 1.251 . S
C1638 H1608 0.929 . S
C1638 N1634 1.418 . S
C1638 C1637 1.251 . S
C1639 H1606 0.930 . S
C1639 C1641 1.406 . S
C1639 C1644 1.261 . S
C1640 H1607 0.930 1_556 S
C1640 N1642 1.325 . S
C1640 C1643 1.352 1_556 S
C1641 H1609 0.928 . S
C1641 C1639 1.406 . S
C1641 N1642 1.261 . S
N1642 Co1593 2.214 . S
N1642 C1640 1.325 . S
N1642 C1641 1.261 . S
C1643 H1613 0.944 . S
C1643 C1640 1.352 1_554 S
C1643 C1644 1.304 1_554 S
C1644 H1615 0.930 . S
C1644 C1639 1.261 . S
C1644 C1643 1.304 1_556 S
C1645 O1617 1.214 . S
C1645 O1625 1.234 . S
C1646 H1618 0.929 . S
C1646 C1649 1.391 . S
C1646 C1651 1.391 . S
C1647 H1619 0.929 . S
C1647 C1648 1.390 . S
C1647 N1650 1.391 . S
C1648 H1620 0.930 . S
C1648 C1647 1.390 . S
C1648 C1649 1.392 . S
C1649 H1621 0.929 . S
C1649 C1646 1.391 . S
C1649 C1648 1.392 . S
N1650 Co1594 2.257 . S
N1650 C1647 1.391 . S
N1650 C1651 1.388 . S
C1651 H1622 0.930 . S
C1651 C1646 1.391 . S
C1651 N1650 1.388 . S
Co1652 O1654 2.143 . S
Co1652 O1660 2.074 1_556 S
Co1652 O1663 2.093 . S
Co1652 O1676 2.097 . S
Co1652 N1693 2.151 . S
Co1652 N1701 2.214 . S
Co1653 O1654 2.160 . S
Co1653 O1659 2.058 1_556 S
Co1653 O1669 2.057 . S
Co1653 O1684 2.037 . S
Co1653 N1688 2.145 1_556 S
Co1653 N1709 2.257 . S
O1654 Co1652 2.143 . S
O1654 Co1653 2.160 . S
C1655 O1656 1.278 . S
C1655 O1663 1.224 . S
O1656 C1655 1.278 . S
C1657 O1658 1.245 . S
C1657 O1669 1.232 . S
O1658 C1657 1.245 . S
O1659 Co1653 2.058 1_554 S
O1659 C1685 1.269 . S
O1660 Co1652 2.074 1_554 S
O1660 C1685 1.257 . S
H1661 C1686 0.930 . S
H1662 C1692 0.930 . S
O1663 Co1652 2.093 . S
O1663 C1655 1.224 . S
H1664 C1696 0.929 . S
H1665 C1698 0.930 . S
H1666 C1699 0.930 1_554 S
H1667 C1697 0.929 . S
H1668 C1700 0.928 . S
O1669 Co1653 2.057 . S
O1669 C1657 1.232 . S
H1670 C1689 0.929 . S
H1671 C1690 0.929 . S
H1672 C1702 0.944 . S
H1673 C1694 0.929 . S
H1674 C1703 0.930 . S
H1675 C1695 0.931 . S
O1676 Co1652 2.097 . S
O1676 C1704 1.214 . S
H1677 C1705 0.929 . S
H1678 C1706 0.929 . S
H1679 C1707 0.930 . S
H1680 C1708 0.929 . S
H1681 C1710 0.930 . S
H1682 C1687 0.930 . S
H1683 C1691 0.930 . S
O1684 Co1653 2.037 . S
O1684 C1704 1.234 . S
C1685 O1659 1.269 . S
C1685 O1660 1.257 . S
C1686 H1661 0.930 . S
C1686 C1689 1.388 . S
C1686 C1691 1.418 . S
C1687 H1682 0.930 . S
C1687 C1690 1.404 . S
C1687 C1691 1.353 . S
N1688 Co1653 2.145 1_554 S
N1688 C1689 1.397 . S
N1688 C1690 1.334 . S
C1689 H1670 0.929 . S
C1689 C1686 1.388 . S
C1689 N1688 1.397 . S
C1690 H1671 0.929 . S
C1690 C1687 1.404 . S
C1690 N1688 1.334 . S
C1691 H1683 0.930 . S
C1691 C1686 1.418 . S
C1691 C1687 1.353 . S
C1692 H1662 0.930 . S
C1692 N1693 1.330 . S
C1692 C1694 1.446 . S
N1693 Co1652 2.151 . S
N1693 C1692 1.330 . S
N1693 C1697 1.418 . S
C1694 H1673 0.929 . S
C1694 C1692 1.446 . S
C1694 C1695 1.332 . S
C1695 H1675 0.931 . S
C1695 C1694 1.332 . S
C1695 C1696 1.267 . S
C1696 H1664 0.929 . S
C1696 C1695 1.267 . S
C1696 C1697 1.251 . S
C1697 H1667 0.929 . S
C1697 N1693 1.418 . S
C1697 C1696 1.251 . S
C1698 H1665 0.930 . S
C1698 C1700 1.406 . S
C1698 C1703 1.261 . S
C1699 H1666 0.930 1_556 S
C1699 N1701 1.325 . S
C1699 C1702 1.352 1_556 S
C1700 H1668 0.928 . S
C1700 C1698 1.406 . S
C1700 N1701 1.261 . S
N1701 Co1652 2.214 . S
N1701 C1699 1.325 . S
N1701 C1700 1.261 . S
C1702 H1672 0.944 . S
C1702 C1699 1.352 1_554 S
C1702 C1703 1.303 1_554 S
C1703 H1674 0.930 . S
C1703 C1698 1.261 . S
C1703 C1702 1.303 1_556 S
C1704 O1676 1.214 . S
C1704 O1684 1.234 . S
C1705 H1677 0.929 . S
C1705 C1708 1.391 . S
C1705 C1710 1.391 . S
C1706 H1678 0.929 . S
C1706 C1707 1.390 . S
C1706 N1709 1.391 . S
C1707 H1679 0.930 . S
C1707 C1706 1.390 . S
C1707 C1708 1.392 . S
C1708 H1680 0.929 . S
C1708 C1705 1.391 . S
C1708 C1707 1.392 . S
N1709 Co1653 2.257 . S
N1709 C1706 1.391 . S
N1709 C1710 1.388 . S
C1710 H1681 0.930 . S
C1710 C1705 1.391 . S
C1710 N1709 1.388 . S
Co1711 O1713 2.143 . S
Co1711 O1719 2.074 1_556 S
Co1711 O1722 2.093 . S
Co1711 O1735 2.097 . S
Co1711 N1752 2.151 . S
Co1711 N1760 2.214 . S
Co1712 O1713 2.160 . S
Co1712 O1718 2.058 1_556 S
Co1712 O1728 2.057 . S
Co1712 O1743 2.037 . S
Co1712 N1747 2.145 1_556 S
Co1712 N1768 2.257 . S
O1713 Co1711 2.143 . S
O1713 Co1712 2.160 . S
C1714 O1715 1.278 . S
C1714 O1722 1.224 . S
O1715 C1714 1.278 . S
C1716 O1717 1.245 . S
C1716 O1728 1.232 . S
O1717 C1716 1.245 . S
O1718 Co1712 2.058 1_554 S
O1718 C1744 1.269 . S
O1719 Co1711 2.074 1_554 S
O1719 C1744 1.257 . S
H1720 C1745 0.930 . S
H1721 C1751 0.930 . S
O1722 Co1711 2.093 . S
O1722 C1714 1.224 . S
H1723 C1755 0.929 . S
H1724 C1757 0.930 . S
H1725 C1758 0.930 1_554 S
H1726 C1756 0.929 . S
H1727 C1759 0.928 . S
O1728 Co1712 2.057 . S
O1728 C1716 1.232 . S
H1729 C1748 0.929 . S
H1730 C1749 0.929 . S
H1731 C1761 0.944 . S
H1732 C1753 0.929 . S
H1733 C1762 0.930 . S
H1734 C1754 0.931 . S
O1735 Co1711 2.097 . S
O1735 C1763 1.214 . S
H1736 C1764 0.929 . S
H1737 C1765 0.929 . S
H1738 C1766 0.930 . S
H1739 C1767 0.929 . S
H1740 C1769 0.930 . S
H1741 C1746 0.930 . S
H1742 C1750 0.930 . S
O1743 Co1712 2.037 . S
O1743 C1763 1.234 . S
C1744 O1718 1.269 . S
C1744 O1719 1.257 . S
C1745 H1720 0.930 . S
C1745 C1748 1.388 . S
C1745 C1750 1.418 . S
C1746 H1741 0.930 . S
C1746 C1749 1.404 . S
C1746 C1750 1.353 . S
N1747 Co1712 2.145 1_554 S
N1747 C1748 1.397 . S
N1747 C1749 1.334 . S
C1748 H1729 0.929 . S
C1748 C1745 1.388 . S
C1748 N1747 1.397 . S
C1749 H1730 0.929 . S
C1749 C1746 1.404 . S
C1749 N1747 1.334 . S
C1750 H1742 0.930 . S
C1750 C1745 1.418 . S
C1750 C1746 1.353 . S
C1751 H1721 0.930 . S
C1751 N1752 1.330 . S
C1751 C1753 1.446 . S
N1752 Co1711 2.151 . S
N1752 C1751 1.330 . S
N1752 C1756 1.418 . S
C1753 H1732 0.929 . S
C1753 C1751 1.446 . S
C1753 C1754 1.332 . S
C1754 H1734 0.931 . S
C1754 C1753 1.332 . S
C1754 C1755 1.267 . S
C1755 H1723 0.929 . S
C1755 C1754 1.267 . S
C1755 C1756 1.251 . S
C1756 H1726 0.929 . S
C1756 N1752 1.418 . S
C1756 C1755 1.251 . S
C1757 H1724 0.930 . S
C1757 C1759 1.406 . S
C1757 C1762 1.261 . S
C1758 H1725 0.930 1_556 S
C1758 N1760 1.325 . S
C1758 C1761 1.352 1_556 S
C1759 H1727 0.928 . S
C1759 C1757 1.406 . S
C1759 N1760 1.261 . S
N1760 Co1711 2.214 . S
N1760 C1758 1.325 . S
N1760 C1759 1.261 . S
C1761 H1731 0.944 . S
C1761 C1758 1.352 1_554 S
C1761 C1762 1.304 1_554 S
C1762 H1733 0.930 . S
C1762 C1757 1.261 . S
C1762 C1761 1.304 1_556 S
C1763 O1735 1.214 . S
C1763 O1743 1.234 . S
C1764 H1736 0.929 . S
C1764 C1767 1.391 . S
C1764 C1769 1.391 . S
C1765 H1737 0.929 . S
C1765 C1766 1.390 . S
C1765 N1768 1.391 . S
C1766 H1738 0.930 . S
C1766 C1765 1.390 . S
C1766 C1767 1.392 . S
C1767 H1739 0.929 . S
C1767 C1764 1.391 . S
C1767 C1766 1.392 . S
N1768 Co1712 2.257 . S
N1768 C1765 1.391 . S
N1768 C1769 1.388 . S
C1769 H1740 0.930 . S
C1769 C1764 1.391 . S
C1769 N1768 1.388 . S
Co1770 O1772 2.143 . S
Co1770 O1778 2.074 . S
Co1770 O1781 2.093 . S
Co1770 O1794 2.097 . S
Co1770 N1811 2.151 . S
Co1770 N1819 2.214 . S
Co1771 O1772 2.160 . S
Co1771 O1777 2.058 . S
Co1771 O1787 2.057 . S
Co1771 O1802 2.037 . S
Co1771 N1806 2.145 . S
Co1771 N1827 2.257 . S
O1772 Co1770 2.143 . S
O1772 Co1771 2.160 . S
C1773 O1774 1.278 . S
C1773 O1781 1.224 . S
O1774 C1773 1.278 . S
C1775 O1776 1.245 . S
C1775 O1787 1.232 . S
O1776 C1775 1.245 . S
O1777 Co1771 2.058 . S
O1777 C1803 1.269 . S
O1778 Co1770 2.074 . S
O1778 C1803 1.257 . S
H1779 C1804 0.930 . S
H1780 C1810 0.930 . S
O1781 Co1770 2.093 . S
O1781 C1773 1.224 . S
H1782 C1814 0.929 . S
H1783 C1816 0.930 . S
H1784 C1817 0.930 . S
H1785 C1815 0.929 . S
H1786 C1818 0.928 . S
O1787 Co1771 2.057 . S
O1787 C1775 1.232 . S
H1788 C1807 0.929 . S
H1789 C1808 0.929 . S
H1790 C1820 0.931 . S
H1791 C1812 0.929 . S
H1792 C1821 0.930 . S
H1793 C1813 0.931 . S
O1794 Co1770 2.097 . S
O1794 C1822 1.214 . S
H1795 C1823 0.929 . S
H1796 C1824 0.929 . S
H1797 C1825 0.930 . S
H1798 C1826 0.929 . S
H1799 C1828 0.930 . S
H1800 C1805 0.930 . S
H1801 C1809 0.930 . S
O1802 Co1771 2.037 . S
O1802 C1822 1.234 . S
C1803 O1777 1.269 . S
C1803 O1778 1.257 . S
C1804 H1779 0.930 . S
C1804 C1807 1.388 . S
C1804 C1809 1.418 . S
C1805 H1800 0.930 . S
C1805 C1808 1.404 . S
C1805 C1809 1.353 . S
N1806 Co1771 2.145 . S
N1806 C1807 1.397 . S
N1806 C1808 1.334 . S
C1807 H1788 0.929 . S
C1807 C1804 1.388 . S
C1807 N1806 1.397 . S
C1808 H1789 0.929 . S
C1808 C1805 1.404 . S
C1808 N1806 1.334 . S
C1809 H1801 0.930 . S
C1809 C1804 1.418 . S
C1809 C1805 1.353 . S
C1810 H1780 0.930 . S
C1810 N1811 1.330 . S
C1810 C1812 1.446 . S
N1811 Co1770 2.151 . S
N1811 C1810 1.330 . S
N1811 C1815 1.418 . S
C1812 H1791 0.929 . S
C1812 C1810 1.446 . S
C1812 C1813 1.332 . S
C1813 H1793 0.931 . S
C1813 C1812 1.332 . S
C1813 C1814 1.267 . S
C1814 H1782 0.929 . S
C1814 C1813 1.267 . S
C1814 C1815 1.251 . S
C1815 H1785 0.929 . S
C1815 N1811 1.418 . S
C1815 C1814 1.251 . S
C1816 H1783 0.930 . S
C1816 C1818 1.406 . S
C1816 C1821 1.261 . S
C1817 H1784 0.930 . S
C1817 N1819 1.325 . S
C1817 C1820 1.357 . S
C1818 H1786 0.928 . S
C1818 C1816 1.406 . S
C1818 N1819 1.261 . S
N1819 Co1770 2.214 . S
N1819 C1817 1.325 . S
N1819 C1818 1.261 . S
C1820 H1790 0.931 . S
C1820 C1817 1.357 . S
C1820 C1821 1.312 . S
C1821 H1792 0.930 . S
C1821 C1816 1.261 . S
C1821 C1820 1.312 . S
C1822 O1794 1.214 . S
C1822 O1802 1.234 . S
C1823 H1795 0.929 . S
C1823 C1826 1.391 . S
C1823 C1828 1.391 . S
C1824 H1796 0.929 . S
C1824 C1825 1.390 . S
C1824 N1827 1.391 . S
C1825 H1797 0.930 . S
C1825 C1824 1.390 . S
C1825 C1826 1.392 . S
C1826 H1798 0.929 . S
C1826 C1823 1.391 . S
C1826 C1825 1.392 . S
N1827 Co1771 2.257 . S
N1827 C1824 1.391 . S
N1827 C1828 1.388 . S
C1828 H1799 0.930 . S
C1828 C1823 1.391 . S
C1828 N1827 1.388 . S
Co1829 O1831 2.143 . S
Co1829 O1837 2.074 . S
Co1829 O1840 2.093 . S
Co1829 O1853 2.097 . S
Co1829 N1870 2.151 . S
Co1829 N1878 2.214 . S
Co1830 O1831 2.160 . S
Co1830 O1836 2.058 . S
Co1830 O1846 2.057 . S
Co1830 O1861 2.037 . S
Co1830 N1865 2.145 . S
Co1830 N1886 2.257 . S
O1831 Co1829 2.143 . S
O1831 Co1830 2.160 . S
C1832 O1833 1.278 . S
C1832 O1840 1.224 . S
O1833 C1832 1.278 . S
C1834 O1835 1.245 . S
C1834 O1846 1.232 . S
O1835 C1834 1.245 . S
O1836 Co1830 2.058 . S
O1836 C1862 1.269 . S
O1837 Co1829 2.074 . S
O1837 C1862 1.257 . S
H1838 C1863 0.930 . S
H1839 C1869 0.930 . S
O1840 Co1829 2.093 . S
O1840 C1832 1.224 . S
H1841 C1873 0.929 . S
H1842 C1875 0.930 . S
H1843 C1876 0.930 . S
H1844 C1874 0.929 . S
H1845 C1877 0.928 . S
O1846 Co1830 2.057 . S
O1846 C1834 1.232 . S
H1847 C1866 0.929 . S
H1848 C1867 0.929 . S
H1849 C1879 0.931 . S
H1850 C1871 0.929 . S
H1851 C1880 0.930 . S
H1852 C1872 0.931 . S
O1853 Co1829 2.097 . S
O1853 C1881 1.214 . S
H1854 C1882 0.929 . S
H1855 C1883 0.929 . S
H1856 C1884 0.930 . S
H1857 C1885 0.929 . S
H1858 C1887 0.930 . S
H1859 C1864 0.930 . S
H1860 C1868 0.930 . S
O1861 Co1830 2.037 . S
O1861 C1881 1.234 . S
C1862 O1836 1.269 . S
C1862 O1837 1.257 . S
C1863 H1838 0.930 . S
C1863 C1866 1.388 . S
C1863 C1868 1.418 . S
C1864 H1859 0.930 . S
C1864 C1867 1.404 . S
C1864 C1868 1.353 . S
N1865 Co1830 2.145 . S
N1865 C1866 1.397 . S
N1865 C1867 1.334 . S
C1866 H1847 0.929 . S
C1866 C1863 1.388 . S
C1866 N1865 1.397 . S
C1867 H1848 0.929 . S
C1867 C1864 1.404 . S
C1867 N1865 1.334 . S
C1868 H1860 0.930 . S
C1868 C1863 1.418 . S
C1868 C1864 1.353 . S
C1869 H1839 0.930 . S
C1869 N1870 1.330 . S
C1869 C1871 1.446 . S
N1870 Co1829 2.151 . S
N1870 C1869 1.330 . S
N1870 C1874 1.418 . S
C1871 H1850 0.929 . S
C1871 C1869 1.446 . S
C1871 C1872 1.332 . S
C1872 H1852 0.931 . S
C1872 C1871 1.332 . S
C1872 C1873 1.267 . S
C1873 H1841 0.929 . S
C1873 C1872 1.267 . S
C1873 C1874 1.251 . S
C1874 H1844 0.929 . S
C1874 N1870 1.418 . S
C1874 C1873 1.251 . S
C1875 H1842 0.930 . S
C1875 C1877 1.406 . S
C1875 C1880 1.261 . S
C1876 H1843 0.930 . S
C1876 N1878 1.325 . S
C1876 C1879 1.357 . S
C1877 H1845 0.928 . S
C1877 C1875 1.406 . S
C1877 N1878 1.261 . S
N1878 Co1829 2.214 . S
N1878 C1876 1.325 . S
N1878 C1877 1.261 . S
C1879 H1849 0.931 . S
C1879 C1876 1.357 . S
C1879 C1880 1.312 . S
C1880 H1851 0.930 . S
C1880 C1875 1.261 . S
C1880 C1879 1.312 . S
C1881 O1853 1.214 . S
C1881 O1861 1.234 . S
C1882 H1854 0.929 . S
C1882 C1885 1.391 . S
C1882 C1887 1.391 . S
C1883 H1855 0.929 . S
C1883 C1884 1.390 . S
C1883 N1886 1.391 . S
C1884 H1856 0.930 . S
C1884 C1883 1.390 . S
C1884 C1885 1.392 . S
C1885 H1857 0.929 . S
C1885 C1882 1.391 . S
C1885 C1884 1.392 . S
N1886 Co1830 2.257 . S
N1886 C1883 1.391 . S
N1886 C1887 1.388 . S
C1887 H1858 0.930 . S
C1887 C1882 1.391 . S
C1887 N1886 1.388 . S
Co1888 O1890 2.143 . S
Co1888 O1896 2.074 . S
Co1888 O1899 2.093 . S
Co1888 O1912 2.097 . S
Co1888 N1929 2.151 . S
Co1888 N1937 2.214 . S
Co1889 O1890 2.160 . S
Co1889 O1895 2.058 . S
Co1889 O1905 2.057 . S
Co1889 O1920 2.037 . S
Co1889 N1924 2.145 . S
Co1889 N1945 2.257 . S
O1890 Co1888 2.143 . S
O1890 Co1889 2.160 . S
C1891 O1892 1.278 . S
C1891 O1899 1.224 . S
O1892 C1891 1.278 . S
C1893 O1894 1.245 . S
C1893 O1905 1.232 . S
O1894 C1893 1.245 . S
O1895 Co1889 2.058 . S
O1895 C1921 1.269 . S
O1896 Co1888 2.074 . S
O1896 C1921 1.257 . S
H1897 C1922 0.930 . S
H1898 C1928 0.930 . S
O1899 Co1888 2.093 . S
O1899 C1891 1.224 . S
H1900 C1932 0.929 . S
H1901 C1934 0.930 . S
H1902 C1935 0.930 . S
H1903 C1933 0.929 . S
H1904 C1936 0.928 . S
O1905 Co1889 2.057 . S
O1905 C1893 1.232 . S
H1906 C1925 0.929 . S
H1907 C1926 0.929 . S
H1908 C1938 0.931 . S
H1909 C1930 0.929 . S
H1910 C1939 0.930 . S
H1911 C1931 0.931 . S
O1912 Co1888 2.097 . S
O1912 C1940 1.214 . S
H1913 C1941 0.929 . S
H1914 C1942 0.929 . S
H1915 C1943 0.930 . S
H1916 C1944 0.929 . S
H1917 C1946 0.930 . S
H1918 C1923 0.930 . S
H1919 C1927 0.930 . S
O1920 Co1889 2.037 . S
O1920 C1940 1.234 . S
C1921 O1895 1.269 . S
C1921 O1896 1.257 . S
C1922 H1897 0.930 . S
C1922 C1925 1.388 . S
C1922 C1927 1.418 . S
C1923 H1918 0.930 . S
C1923 C1926 1.404 . S
C1923 C1927 1.353 . S
N1924 Co1889 2.145 . S
N1924 C1925 1.397 . S
N1924 C1926 1.334 . S
C1925 H1906 0.929 . S
C1925 C1922 1.388 . S
C1925 N1924 1.397 . S
C1926 H1907 0.929 . S
C1926 C1923 1.404 . S
C1926 N1924 1.334 . S
C1927 H1919 0.930 . S
C1927 C1922 1.418 . S
C1927 C1923 1.353 . S
C1928 H1898 0.930 . S
C1928 N1929 1.330 . S
C1928 C1930 1.446 . S
N1929 Co1888 2.151 . S
N1929 C1928 1.330 . S
N1929 C1933 1.418 . S
C1930 H1909 0.929 . S
C1930 C1928 1.446 . S
C1930 C1931 1.332 . S
C1931 H1911 0.931 . S
C1931 C1930 1.332 . S
C1931 C1932 1.267 . S
C1932 H1900 0.929 . S
C1932 C1931 1.267 . S
C1932 C1933 1.251 . S
C1933 H1903 0.929 . S
C1933 N1929 1.418 . S
C1933 C1932 1.251 . S
C1934 H1901 0.930 . S
C1934 C1936 1.406 . S
C1934 C1939 1.261 . S
C1935 H1902 0.930 . S
C1935 N1937 1.325 . S
C1935 C1938 1.357 . S
C1936 H1904 0.928 . S
C1936 C1934 1.406 . S
C1936 N1937 1.261 . S
N1937 Co1888 2.214 . S
N1937 C1935 1.325 . S
N1937 C1936 1.261 . S
C1938 H1908 0.931 . S
C1938 C1935 1.357 . S
C1938 C1939 1.312 . S
C1939 H1910 0.930 . S
C1939 C1934 1.261 . S
C1939 C1938 1.312 . S
C1940 O1912 1.214 . S
C1940 O1920 1.234 . S
C1941 H1913 0.929 . S
C1941 C1944 1.391 . S
C1941 C1946 1.391 . S
C1942 H1914 0.929 . S
C1942 C1943 1.390 . S
C1942 N1945 1.391 . S
C1943 H1915 0.930 . S
C1943 C1942 1.390 . S
C1943 C1944 1.392 . S
C1944 H1916 0.929 . S
C1944 C1941 1.391 . S
C1944 C1943 1.392 . S
N1945 Co1889 2.257 . S
N1945 C1942 1.391 . S
N1945 C1946 1.388 . S
C1946 H1917 0.930 . S
C1946 C1941 1.391 . S
C1946 N1945 1.388 . S
Co1947 O1949 2.143 . S
Co1947 O1955 2.074 . S
Co1947 O1958 2.093 . S
Co1947 O1971 2.097 . S
Co1947 N1988 2.151 . S
Co1947 N1996 2.214 . S
Co1948 O1949 2.160 . S
Co1948 O1954 2.058 . S
Co1948 O1964 2.057 . S
Co1948 O1979 2.037 . S
Co1948 N1983 2.145 . S
Co1948 N2004 2.257 . S
O1949 Co1947 2.143 . S
O1949 Co1948 2.160 . S
C1950 O1951 1.278 . S
C1950 O1958 1.224 . S
O1951 C1950 1.278 . S
C1952 O1953 1.245 . S
C1952 O1964 1.232 . S
O1953 C1952 1.245 . S
O1954 Co1948 2.058 . S
O1954 C1980 1.269 . S
O1955 Co1947 2.074 . S
O1955 C1980 1.257 . S
H1956 C1981 0.930 . S
H1957 C1987 0.930 . S
O1958 Co1947 2.093 . S
O1958 C1950 1.224 . S
H1959 C1991 0.929 . S
H1960 C1993 0.930 . S
H1961 C1994 0.930 . S
H1962 C1992 0.929 . S
H1963 C1995 0.928 . S
O1964 Co1948 2.057 . S
O1964 C1952 1.232 . S
H1965 C1984 0.929 . S
H1966 C1985 0.929 . S
H1967 C1997 0.931 . S
H1968 C1989 0.929 . S
H1969 C1998 0.930 . S
H1970 C1990 0.931 . S
O1971 Co1947 2.097 . S
O1971 C1999 1.214 . S
H1972 C2000 0.929 . S
H1973 C2001 0.929 . S
H1974 C2002 0.930 . S
H1975 C2003 0.929 . S
H1976 C2005 0.930 . S
H1977 C1982 0.930 . S
H1978 C1986 0.930 . S
O1979 Co1948 2.037 . S
O1979 C1999 1.234 . S
C1980 O1954 1.269 . S
C1980 O1955 1.257 . S
C1981 H1956 0.930 . S
C1981 C1984 1.388 . S
C1981 C1986 1.418 . S
C1982 H1977 0.930 . S
C1982 C1985 1.404 . S
C1982 C1986 1.353 . S
N1983 Co1948 2.145 . S
N1983 C1984 1.397 . S
N1983 C1985 1.334 . S
C1984 H1965 0.929 . S
C1984 C1981 1.388 . S
C1984 N1983 1.397 . S
C1985 H1966 0.929 . S
C1985 C1982 1.404 . S
C1985 N1983 1.334 . S
C1986 H1978 0.930 . S
C1986 C1981 1.418 . S
C1986 C1982 1.353 . S
C1987 H1957 0.930 . S
C1987 N1988 1.330 . S
C1987 C1989 1.446 . S
N1988 Co1947 2.151 . S
N1988 C1987 1.330 . S
N1988 C1992 1.418 . S
C1989 H1968 0.929 . S
C1989 C1987 1.446 . S
C1989 C1990 1.332 . S
C1990 H1970 0.931 . S
C1990 C1989 1.332 . S
C1990 C1991 1.267 . S
C1991 H1959 0.929 . S
C1991 C1990 1.267 . S
C1991 C1992 1.251 . S
C1992 H1962 0.929 . S
C1992 N1988 1.418 . S
C1992 C1991 1.251 . S
C1993 H1960 0.930 . S
C1993 C1995 1.406 . S
C1993 C1998 1.261 . S
C1994 H1961 0.930 . S
C1994 N1996 1.325 . S
C1994 C1997 1.357 . S
C1995 H1963 0.928 . S
C1995 C1993 1.406 . S
C1995 N1996 1.261 . S
N1996 Co1947 2.214 . S
N1996 C1994 1.325 . S
N1996 C1995 1.261 . S
C1997 H1967 0.931 . S
C1997 C1994 1.357 . S
C1997 C1998 1.312 . S
C1998 H1969 0.930 . S
C1998 C1993 1.261 . S
C1998 C1997 1.312 . S
C1999 O1971 1.214 . S
C1999 O1979 1.234 . S
C2000 H1972 0.929 . S
C2000 C2003 1.391 . S
C2000 C2005 1.391 . S
C2001 H1973 0.929 . S
C2001 C2002 1.390 . S
C2001 N2004 1.391 . S
C2002 H1974 0.930 . S
C2002 C2001 1.390 . S
C2002 C2003 1.392 . S
C2003 H1975 0.929 . S
C2003 C2000 1.391 . S
C2003 C2002 1.392 . S
N2004 Co1948 2.257 . S
N2004 C2001 1.391 . S
N2004 C2005 1.388 . S
C2005 H1976 0.930 . S
C2005 C2000 1.391 . S
C2005 N2004 1.388 . S
Co2006 O2008 2.143 . S
Co2006 O2014 2.074 . S
Co2006 O2017 2.093 . S
Co2006 O2030 2.097 . S
Co2006 N2047 2.151 . S
Co2006 N2055 2.214 . S
Co2007 O2008 2.160 . S
Co2007 O2013 2.058 . S
Co2007 O2023 2.057 . S
Co2007 O2038 2.037 . S
Co2007 N2042 2.145 . S
Co2007 N2063 2.257 . S
O2008 Co2006 2.143 . S
O2008 Co2007 2.160 . S
C2009 O2010 1.278 . S
C2009 O2017 1.224 . S
O2010 C2009 1.278 . S
C2011 O2012 1.245 . S
C2011 O2023 1.232 . S
O2012 C2011 1.245 . S
O2013 Co2007 2.058 . S
O2013 C2039 1.269 . S
O2014 Co2006 2.074 . S
O2014 C2039 1.257 . S
H2015 C2040 0.930 . S
H2016 C2046 0.930 . S
O2017 Co2006 2.093 . S
O2017 C2009 1.224 . S
H2018 C2050 0.929 . S
H2019 C2052 0.930 . S
H2020 C2053 0.930 . S
H2021 C2051 0.929 . S
H2022 C2054 0.928 . S
O2023 Co2007 2.057 . S
O2023 C2011 1.232 . S
H2024 C2043 0.929 . S
H2025 C2044 0.929 . S
H2026 C2056 0.931 . S
H2027 C2048 0.929 . S
H2028 C2057 0.930 . S
H2029 C2049 0.931 . S
O2030 Co2006 2.097 . S
O2030 C2058 1.214 . S
H2031 C2059 0.929 . S
H2032 C2060 0.929 . S
H2033 C2061 0.930 . S
H2034 C2062 0.929 . S
H2035 C2064 0.930 . S
H2036 C2041 0.930 . S
H2037 C2045 0.930 . S
O2038 Co2007 2.037 . S
O2038 C2058 1.234 . S
C2039 O2013 1.269 . S
C2039 O2014 1.257 . S
C2040 H2015 0.930 . S
C2040 C2043 1.388 . S
C2040 C2045 1.418 . S
C2041 H2036 0.930 . S
C2041 C2044 1.404 . S
C2041 C2045 1.353 . S
N2042 Co2007 2.145 . S
N2042 C2043 1.397 . S
N2042 C2044 1.334 . S
C2043 H2024 0.929 . S
C2043 C2040 1.388 . S
C2043 N2042 1.397 . S
C2044 H2025 0.929 . S
C2044 C2041 1.404 . S
C2044 N2042 1.334 . S
C2045 H2037 0.930 . S
C2045 C2040 1.418 . S
C2045 C2041 1.353 . S
C2046 H2016 0.930 . S
C2046 N2047 1.330 . S
C2046 C2048 1.446 . S
N2047 Co2006 2.151 . S
N2047 C2046 1.330 . S
N2047 C2051 1.418 . S
C2048 H2027 0.929 . S
C2048 C2046 1.446 . S
C2048 C2049 1.332 . S
C2049 H2029 0.931 . S
C2049 C2048 1.332 . S
C2049 C2050 1.267 . S
C2050 H2018 0.929 . S
C2050 C2049 1.267 . S
C2050 C2051 1.251 . S
C2051 H2021 0.929 . S
C2051 N2047 1.418 . S
C2051 C2050 1.251 . S
C2052 H2019 0.930 . S
C2052 C2054 1.406 . S
C2052 C2057 1.261 . S
C2053 H2020 0.930 . S
C2053 N2055 1.325 . S
C2053 C2056 1.357 . S
C2054 H2022 0.928 . S
C2054 C2052 1.406 . S
C2054 N2055 1.261 . S
N2055 Co2006 2.214 . S
N2055 C2053 1.325 . S
N2055 C2054 1.261 . S
C2056 H2026 0.931 . S
C2056 C2053 1.357 . S
C2056 C2057 1.312 . S
C2057 H2028 0.930 . S
C2057 C2052 1.261 . S
C2057 C2056 1.312 . S
C2058 O2030 1.214 . S
C2058 O2038 1.234 . S
C2059 H2031 0.929 . S
C2059 C2062 1.391 . S
C2059 C2064 1.391 . S
C2060 H2032 0.929 . S
C2060 C2061 1.390 . S
C2060 N2063 1.391 . S
C2061 H2033 0.930 . S
C2061 C2060 1.390 . S
C2061 C2062 1.392 . S
C2062 H2034 0.929 . S
C2062 C2059 1.391 . S
C2062 C2061 1.392 . S
N2063 Co2007 2.257 . S
N2063 C2060 1.391 . S
N2063 C2064 1.388 . S
C2064 H2035 0.930 . S
C2064 C2059 1.391 . S
C2064 N2063 1.388 . S
Co2065 O2067 2.143 . S
Co2065 O2073 2.074 . S
Co2065 O2076 2.093 . S
Co2065 O2089 2.097 . S
Co2065 N2106 2.151 . S
Co2065 N2114 2.214 . S
Co2066 O2067 2.160 . S
Co2066 O2072 2.058 . S
Co2066 O2082 2.057 . S
Co2066 O2097 2.037 . S
Co2066 N2101 2.145 . S
Co2066 N2122 2.257 . S
O2067 Co2065 2.143 . S
O2067 Co2066 2.160 . S
C2068 O2069 1.278 . S
C2068 O2076 1.224 . S
O2069 C2068 1.278 . S
C2070 O2071 1.245 . S
C2070 O2082 1.232 . S
O2071 C2070 1.245 . S
O2072 Co2066 2.058 . S
O2072 C2098 1.269 . S
O2073 Co2065 2.074 . S
O2073 C2098 1.257 . S
H2074 C2099 0.930 . S
H2075 C2105 0.930 . S
O2076 Co2065 2.093 . S
O2076 C2068 1.224 . S
H2077 C2109 0.929 . S
H2078 C2111 0.930 . S
H2079 C2112 0.930 . S
H2080 C2110 0.929 . S
H2081 C2113 0.928 . S
O2082 Co2066 2.057 . S
O2082 C2070 1.232 . S
H2083 C2102 0.929 . S
H2084 C2103 0.929 . S
H2085 C2115 0.931 . S
H2086 C2107 0.929 . S
H2087 C2116 0.930 . S
H2088 C2108 0.931 . S
O2089 Co2065 2.097 . S
O2089 C2117 1.214 . S
H2090 C2118 0.929 . S
H2091 C2119 0.929 . S
H2092 C2120 0.930 . S
H2093 C2121 0.929 . S
H2094 C2123 0.930 . S
H2095 C2100 0.930 . S
H2096 C2104 0.930 . S
O2097 Co2066 2.037 . S
O2097 C2117 1.234 . S
C2098 O2072 1.269 . S
C2098 O2073 1.257 . S
C2099 H2074 0.930 . S
C2099 C2102 1.388 . S
C2099 C2104 1.418 . S
C2100 H2095 0.930 . S
C2100 C2103 1.404 . S
C2100 C2104 1.353 . S
N2101 Co2066 2.145 . S
N2101 C2102 1.397 . S
N2101 C2103 1.334 . S
C2102 H2083 0.929 . S
C2102 C2099 1.388 . S
C2102 N2101 1.397 . S
C2103 H2084 0.929 . S
C2103 C2100 1.404 . S
C2103 N2101 1.334 . S
C2104 H2096 0.930 . S
C2104 C2099 1.418 . S
C2104 C2100 1.353 . S
C2105 H2075 0.930 . S
C2105 N2106 1.330 . S
C2105 C2107 1.446 . S
N2106 Co2065 2.151 . S
N2106 C2105 1.330 . S
N2106 C2110 1.418 . S
C2107 H2086 0.929 . S
C2107 C2105 1.446 . S
C2107 C2108 1.332 . S
C2108 H2088 0.931 . S
C2108 C2107 1.332 . S
C2108 C2109 1.267 . S
C2109 H2077 0.929 . S
C2109 C2108 1.267 . S
C2109 C2110 1.251 . S
C2110 H2080 0.929 . S
C2110 N2106 1.418 . S
C2110 C2109 1.251 . S
C2111 H2078 0.930 . S
C2111 C2113 1.406 . S
C2111 C2116 1.261 . S
C2112 H2079 0.930 . S
C2112 N2114 1.325 . S
C2112 C2115 1.357 . S
C2113 H2081 0.928 . S
C2113 C2111 1.406 . S
C2113 N2114 1.261 . S
N2114 Co2065 2.214 . S
N2114 C2112 1.325 . S
N2114 C2113 1.261 . S
C2115 H2085 0.931 . S
C2115 C2112 1.357 . S
C2115 C2116 1.312 . S
C2116 H2087 0.930 . S
C2116 C2111 1.261 . S
C2116 C2115 1.312 . S
C2117 O2089 1.214 . S
C2117 O2097 1.234 . S
C2118 H2090 0.929 . S
C2118 C2121 1.391 . S
C2118 C2123 1.391 . S
C2119 H2091 0.929 . S
C2119 C2120 1.390 . S
C2119 N2122 1.391 . S
C2120 H2092 0.930 . S
C2120 C2119 1.390 . S
C2120 C2121 1.392 . S
C2121 H2093 0.929 . S
C2121 C2118 1.391 . S
C2121 C2120 1.392 . S
N2122 Co2066 2.257 . S
N2122 C2119 1.391 . S
N2122 C2123 1.388 . S
C2123 H2094 0.930 . S
C2123 C2118 1.391 . S
C2123 N2122 1.388 . S
C2124 C2125 1.387 . S
C2124 H2128 0.950 . S
C2124 C2133 1.390 1_556 S
C2125 C2124 1.387 . S
C2125 C2127 1.387 . S
H2126 C2133 0.950 . S
C2127 C2125 1.387 . S
C2127 C2129 1.390 1_556 S
C2127 H2131 0.950 . S
H2128 C2124 0.950 . S
C2129 C2127 1.390 1_554 S
C2129 C2130 1.387 . S
C2129 H2132 0.950 . S
C2130 C2129 1.387 . S
C2130 C2133 1.387 . S
H2131 C2127 0.950 . S
H2132 C2129 0.950 . S
C2133 C2124 1.390 1_554 S
C2133 H2126 0.950 . S
C2133 C2130 1.387 . S
C2134 C2135 1.387 . S
C2134 H2138 0.950 . S
C2134 C2143 1.390 1_556 S
C2135 C2134 1.387 . S
C2135 C2137 1.387 . S
H2136 C2143 0.950 . S
C2137 C2135 1.387 . S
C2137 C2139 1.390 1_556 S
C2137 H2141 0.950 . S
H2138 C2134 0.950 . S
C2139 C2137 1.390 1_554 S
C2139 C2140 1.387 . S
C2139 H2142 0.950 . S
C2140 C2139 1.387 . S
C2140 C2143 1.387 . S
H2141 C2137 0.950 . S
H2142 C2139 0.950 . S
C2143 C2134 1.390 1_554 S
C2143 H2136 0.950 . S
C2143 C2140 1.387 . S
C2144 C2145 1.387 . S
C2144 H2148 0.950 . S
C2144 C2153 1.390 1_554 S
C2145 C2144 1.387 . S
C2145 C2147 1.387 . S
H2146 C2153 0.950 . S
C2147 C2145 1.387 . S
C2147 C2149 1.390 1_554 S
C2147 H2151 0.950 . S
H2148 C2144 0.950 . S
C2149 C2147 1.390 1_556 S
C2149 C2150 1.387 . S
C2149 H2152 0.950 . S
C2150 C2149 1.387 . S
C2150 C2153 1.387 . S
H2151 C2147 0.950 . S
H2152 C2149 0.950 . S
C2153 C2144 1.390 1_556 S
C2153 H2146 0.950 . S
C2153 C2150 1.387 . S
C2154 C2155 1.387 . S
C2154 H2158 0.950 . S
C2154 C2163 1.390 . S
C2155 C2154 1.387 . S
C2155 C2157 1.387 . S
H2156 C2163 0.950 . S
C2157 C2155 1.387 . S
C2157 C2159 1.390 . S
C2157 H2161 0.950 . S
H2158 C2154 0.950 . S
C2159 C2157 1.390 . S
C2159 C2160 1.387 . S
C2159 H2162 0.950 . S
C2160 C2159 1.387 . S
C2160 C2163 1.387 . S
H2161 C2157 0.950 . S
H2162 C2159 0.950 . S
C2163 C2154 1.390 . S
C2163 H2156 0.950 . S
C2163 C2160 1.387 . S
C2164 C2165 1.387 . S
C2164 H2168 0.950 . S
C2164 C2173 1.390 . S
C2165 C2164 1.387 . S
C2165 C2167 1.387 . S
H2166 C2173 0.950 . S
C2167 C2165 1.387 . S
C2167 C2169 1.390 . S
C2167 H2171 0.950 . S
H2168 C2164 0.950 . S
C2169 C2167 1.390 . S
C2169 C2170 1.387 . S
C2169 H2172 0.950 . S
C2170 C2169 1.387 . S
C2170 C2173 1.387 . S
H2171 C2167 0.950 . S
H2172 C2169 0.950 . S
C2173 C2164 1.390 . S
C2173 H2166 0.950 . S
C2173 C2170 1.387 . S
C2174 C2175 1.387 . S
C2174 H2178 0.950 . S
C2174 C2183 1.390 . S
C2175 C2174 1.387 . S
C2175 C2177 1.387 . S
H2176 C2183 0.950 . S
C2177 C2175 1.387 . S
C2177 C2179 1.390 . S
C2177 H2181 0.950 . S
H2178 C2174 0.950 . S
C2179 C2177 1.390 . S
C2179 C2180 1.387 . S
C2179 H2182 0.950 . S
C2180 C2179 1.387 . S
C2180 C2183 1.387 . S
H2181 C2177 0.950 . S
H2182 C2179 0.950 . S
C2183 C2174 1.390 . S
C2183 H2176 0.950 . S
C2183 C2180 1.387 . S
C2184 C2185 1.387 . S
C2184 H2188 0.950 . S
C2184 C2193 1.390 1_554 S
C2185 C2184 1.387 . S
C2185 C2187 1.387 . S
H2186 C2193 0.950 . S
C2187 C2185 1.387 . S
C2187 C2189 1.390 1_554 S
C2187 H2191 0.950 . S
H2188 C2184 0.950 . S
C2189 C2187 1.390 1_556 S
C2189 C2190 1.387 . S
C2189 H2192 0.950 . S
C2190 C2189 1.387 . S
C2190 C2193 1.387 . S
H2191 C2187 0.950 . S
H2192 C2189 0.950 . S
C2193 C2184 1.390 1_556 S
C2193 H2186 0.950 . S
C2193 C2190 1.387 . S
C2194 C2195 1.387 . S
C2194 H2198 0.950 . S
C2194 C2203 1.390 1_554 S
C2195 C2194 1.387 . S
C2195 C2197 1.387 . S
H2196 C2203 0.950 . S
C2197 C2195 1.387 . S
C2197 C2199 1.390 1_554 S
C2197 H2201 0.950 . S
H2198 C2194 0.950 . S
C2199 C2197 1.390 1_556 S
C2199 C2200 1.387 . S
C2199 H2202 0.950 . S
C2200 C2199 1.387 . S
C2200 C2203 1.387 . S
H2201 C2197 0.950 . S
H2202 C2199 0.950 . S
C2203 C2194 1.390 1_556 S
C2203 H2196 0.950 . S
C2203 C2200 1.387 . S
C2204 C2205 1.387 . S
C2204 H2208 0.950 . S
C2204 C2213 1.390 1_556 S
C2205 C2204 1.387 . S
C2205 C2207 1.387 . S
H2206 C2213 0.950 . S
C2207 C2205 1.387 . S
C2207 C2209 1.390 1_556 S
C2207 H2211 0.950 . S
H2208 C2204 0.950 . S
C2209 C2207 1.390 1_554 S
C2209 C2210 1.387 . S
C2209 H2212 0.950 . S
C2210 C2209 1.387 . S
C2210 C2213 1.387 . S
H2211 C2207 0.950 . S
H2212 C2209 0.950 . S
C2213 C2204 1.390 1_554 S
C2213 H2206 0.950 . S
C2213 C2210 1.387 . S
C2214 C2215 1.387 . S
C2214 H2218 0.950 . S
C2214 C2223 1.390 . S
C2215 C2214 1.387 . S
C2215 C2217 1.387 . S
H2216 C2223 0.950 . S
C2217 C2215 1.387 . S
C2217 C2219 1.390 . S
C2217 H2221 0.950 . S
H2218 C2214 0.950 . S
C2219 C2217 1.390 . S
C2219 C2220 1.387 . S
C2219 H2222 0.950 . S
C2220 C2219 1.387 . S
C2220 C2223 1.387 . S
H2221 C2217 0.950 . S
H2222 C2219 0.950 . S
C2223 C2214 1.390 . S
C2223 H2216 0.950 . S
C2223 C2220 1.387 . S
C2224 C2225 1.387 . S
C2224 H2228 0.950 . S
C2224 C2233 1.390 . S
C2225 C2224 1.387 . S
C2225 C2227 1.387 . S
H2226 C2233 0.950 . S
C2227 C2225 1.387 . S
C2227 C2229 1.390 . S
C2227 H2231 0.950 . S
H2228 C2224 0.950 . S
C2229 C2227 1.390 . S
C2229 C2230 1.387 . S
C2229 H2232 0.950 . S
C2230 C2229 1.387 . S
C2230 C2233 1.387 . S
H2231 C2227 0.950 . S
H2232 C2229 0.950 . S
C2233 C2224 1.390 . S
C2233 H2226 0.950 . S
C2233 C2230 1.387 . S
C2234 C2235 1.387 . S
C2234 H2238 0.950 . S
C2234 C2243 1.390 . S
C2235 C2234 1.387 . S
C2235 C2237 1.387 . S
H2236 C2243 0.950 . S
C2237 C2235 1.387 . S
C2237 C2239 1.390 . S
C2237 H2241 0.950 . S
H2238 C2234 0.950 . S
C2239 C2237 1.390 . S
C2239 C2240 1.387 . S
C2239 H2242 0.950 . S
C2240 C2239 1.387 . S
C2240 C2243 1.387 . S
H2241 C2237 0.950 . S
H2242 C2239 0.950 . S
C2243 C2234 1.390 . S
C2243 H2236 0.950 . S
C2243 C2240 1.387 . S
C2244 C2245 1.387 . S
C2244 H2248 0.950 . S
C2244 C2253 1.390 . S
C2245 C2244 1.387 . S
C2245 C2247 1.387 . S
H2246 C2253 0.950 . S
C2247 C2245 1.387 . S
C2247 C2249 1.390 . S
C2247 H2251 0.950 . S
H2248 C2244 0.950 . S
C2249 C2247 1.390 . S
C2249 C2250 1.387 . S
C2249 H2252 0.950 . S
C2250 C2249 1.387 . S
C2250 C2253 1.387 . S
H2251 C2247 0.950 . S
H2252 C2249 0.950 . S
C2253 C2244 1.390 . S
C2253 H2246 0.950 . S
C2253 C2250 1.387 . S
C2254 C2255 1.387 . S
C2254 H2258 0.950 . S
C2254 C2263 1.390 . S
C2255 C2254 1.387 . S
C2255 C2257 1.387 . S
H2256 C2263 0.950 . S
C2257 C2255 1.387 . S
C2257 C2259 1.390 . S
C2257 H2261 0.950 . S
H2258 C2254 0.950 . S
C2259 C2257 1.390 . S
C2259 C2260 1.387 . S
C2259 H2262 0.950 . S
C2260 C2259 1.387 . S
C2260 C2263 1.387 . S
H2261 C2257 0.950 . S
H2262 C2259 0.950 . S
C2263 C2254 1.390 . S
C2263 H2256 0.950 . S
C2263 C2260 1.387 . S
C2264 C2265 1.387 . S
C2264 H2268 0.950 . S
C2264 C2273 1.390 . S
C2265 C2264 1.387 . S
C2265 C2267 1.387 . S
H2266 C2273 0.950 . S
C2267 C2265 1.387 . S
C2267 C2269 1.390 . S
C2267 H2271 0.950 . S
H2268 C2264 0.950 . S
C2269 C2267 1.390 . S
C2269 C2270 1.387 . S
C2269 H2272 0.950 . S
C2270 C2269 1.387 . S
C2270 C2273 1.387 . S
H2271 C2267 0.950 . S
H2272 C2269 0.950 . S
C2273 C2264 1.390 . S
C2273 H2266 0.950 . S
C2273 C2270 1.387 . S
C2274 C2275 1.387 . S
C2274 H2278 0.950 . S
C2274 C2283 1.390 . S
C2275 C2274 1.387 . S
C2275 C2277 1.387 . S
H2276 C2283 0.950 . S
C2277 C2275 1.387 . S
C2277 C2279 1.390 . S
C2277 H2281 0.950 . S
H2278 C2274 0.950 . S
C2279 C2277 1.390 . S
C2279 C2280 1.387 . S
C2279 H2282 0.950 . S
C2280 C2279 1.387 . S
C2280 C2283 1.387 . S
H2281 C2277 0.950 . S
H2282 C2279 0.950 . S
C2283 C2274 1.390 . S
C2283 H2276 0.950 . S
C2283 C2280 1.387 . S
C2284 C2285 1.387 . S
C2284 H2288 0.950 . S
C2284 C2293 1.390 . S
C2285 C2284 1.387 . S
C2285 C2287 1.387 . S
H2286 C2293 0.950 . S
C2287 C2285 1.387 . S
C2287 C2289 1.390 . S
C2287 H2291 0.950 . S
H2288 C2284 0.950 . S
C2289 C2287 1.390 . S
C2289 C2290 1.387 . S
C2289 H2292 0.950 . S
C2290 C2289 1.387 . S
C2290 C2293 1.387 . S
H2291 C2287 0.950 . S
H2292 C2289 0.950 . S
C2293 C2284 1.390 . S
C2293 H2286 0.950 . S
C2293 C2290 1.387 . S
C2294 C2295 1.387 . S
C2294 H2298 0.950 . S
C2294 C2303 1.390 . S
C2295 C2294 1.387 . S
C2295 C2297 1.387 . S
H2296 C2303 0.950 . S
C2297 C2295 1.387 . S
C2297 C2299 1.390 . S
C2297 H2301 0.950 . S
H2298 C2294 0.950 . S
C2299 C2297 1.390 . S
C2299 C2300 1.387 . S
C2299 H2302 0.950 . S
C2300 C2299 1.387 . S
C2300 C2303 1.387 . S
H2301 C2297 0.950 . S
H2302 C2299 0.950 . S
C2303 C2294 1.390 . S
C2303 H2296 0.950 . S
C2303 C2300 1.387 . S
C2304 C2305 1.387 . S
C2304 H2308 0.950 . S
C2304 C2313 1.390 . S
C2305 C2304 1.387 . S
C2305 C2307 1.387 . S
H2306 C2313 0.950 . S
C2307 C2305 1.387 . S
C2307 C2309 1.390 . S
C2307 H2311 0.950 . S
H2308 C2304 0.950 . S
C2309 C2307 1.390 . S
C2309 C2310 1.387 . S
C2309 H2312 0.950 . S
C2310 C2309 1.387 . S
C2310 C2313 1.387 . S
H2311 C2307 0.950 . S
H2312 C2309 0.950 . S
C2313 C2304 1.390 . S
C2313 H2306 0.950 . S
C2313 C2310 1.387 . S
C2314 C2315 1.387 . S
C2314 H2318 0.950 . S
C2314 C2323 1.390 . S
C2315 C2314 1.387 . S
C2315 C2317 1.387 . S
H2316 C2323 0.950 . S
C2317 C2315 1.387 . S
C2317 C2319 1.390 . S
C2317 H2321 0.950 . S
H2318 C2314 0.950 . S
C2319 C2317 1.390 . S
C2319 C2320 1.387 . S
C2319 H2322 0.950 . S
C2320 C2319 1.387 . S
C2320 C2323 1.387 . S
H2321 C2317 0.950 . S
H2322 C2319 0.950 . S
C2323 C2314 1.390 . S
C2323 H2316 0.950 . S
C2323 C2320 1.387 . S
C2324 C2325 1.387 . S
C2324 H2328 0.950 . S
C2324 C2333 1.390 . S
C2325 C2324 1.387 . S
C2325 C2327 1.387 . S
H2326 C2333 0.950 . S
C2327 C2325 1.387 . S
C2327 C2329 1.390 . S
C2327 H2331 0.950 . S
H2328 C2324 0.950 . S
C2329 C2327 1.390 . S
C2329 C2330 1.387 . S
C2329 H2332 0.950 . S
C2330 C2329 1.387 . S
C2330 C2333 1.387 . S
H2331 C2327 0.950 . S
H2332 C2329 0.950 . S
C2333 C2324 1.390 . S
C2333 H2326 0.950 . S
C2333 C2330 1.387 . S
C2334 C2335 1.387 . S
C2334 H2338 0.950 . S
C2334 C2343 1.390 . S
C2335 C2334 1.387 . S
C2335 C2337 1.387 . S
H2336 C2343 0.950 . S
C2337 C2335 1.387 . S
C2337 C2339 1.390 . S
C2337 H2341 0.950 . S
H2338 C2334 0.950 . S
C2339 C2337 1.390 . S
C2339 C2340 1.387 . S
C2339 H2342 0.950 . S
C2340 C2339 1.387 . S
C2340 C2343 1.387 . S
H2341 C2337 0.950 . S
H2342 C2339 0.950 . S
C2343 C2334 1.390 . S
C2343 H2336 0.950 . S
C2343 C2340 1.387 . S
C2344 C2345 1.387 . S
C2344 H2348 0.950 . S
C2344 C2353 1.390 . S
C2345 C2344 1.387 . S
C2345 C2347 1.387 . S
H2346 C2353 0.950 . S
C2347 C2345 1.387 . S
C2347 C2349 1.390 . S
C2347 H2351 0.950 . S
H2348 C2344 0.950 . S
C2349 C2347 1.390 . S
C2349 C2350 1.387 . S
C2349 H2352 0.950 . S
C2350 C2349 1.387 . S
C2350 C2353 1.387 . S
H2351 C2347 0.950 . S
H2352 C2349 0.950 . S
C2353 C2344 1.390 . S
C2353 H2346 0.950 . S
C2353 C2350 1.387 . S
C2354 C2355 1.387 . S
C2354 H2358 0.950 . S
C2354 C2363 1.390 . S
C2355 C2354 1.387 . S
C2355 C2357 1.387 . S
H2356 C2363 0.950 . S
C2357 C2355 1.387 . S
C2357 C2359 1.390 . S
C2357 H2361 0.950 . S
H2358 C2354 0.950 . S
C2359 C2357 1.390 . S
C2359 C2360 1.387 . S
C2359 H2362 0.950 . S
C2360 C2359 1.387 . S
C2360 C2363 1.387 . S
H2361 C2357 0.950 . S
H2362 C2359 0.950 . S
C2363 C2354 1.390 . S
C2363 H2356 0.950 . S
C2363 C2360 1.387 . S
C2364 C2365 1.387 . S
C2364 H2368 0.950 . S
C2364 C2373 1.390 . S
C2365 C2364 1.387 . S
C2365 C2367 1.387 . S
H2366 C2373 0.950 . S
C2367 C2365 1.387 . S
C2367 C2369 1.390 . S
C2367 H2371 0.950 . S
H2368 C2364 0.950 . S
C2369 C2367 1.390 . S
C2369 C2370 1.387 . S
C2369 H2372 0.950 . S
C2370 C2369 1.387 . S
C2370 C2373 1.387 . S
H2371 C2367 0.950 . S
H2372 C2369 0.950 . S
C2373 C2364 1.390 . S
C2373 H2366 0.950 . S
C2373 C2370 1.387 . S
C2374 C2375 1.387 . S
C2374 H2378 0.950 . S
C2374 C2383 1.390 . S
C2375 C2374 1.387 . S
C2375 C2377 1.387 . S
H2376 C2383 0.950 . S
C2377 C2375 1.387 . S
C2377 C2379 1.390 . S
C2377 H2381 0.950 . S
H2378 C2374 0.950 . S
C2379 C2377 1.390 . S
C2379 C2380 1.387 . S
C2379 H2382 0.950 . S
C2380 C2379 1.387 . S
C2380 C2383 1.387 . S
H2381 C2377 0.950 . S
H2382 C2379 0.950 . S
C2383 C2374 1.390 . S
C2383 H2376 0.950 . S
C2383 C2380 1.387 . S
C2384 C2385 1.387 . S
C2384 H2388 0.950 . S
C2384 C2393 1.390 . S
C2385 C2384 1.387 . S
C2385 C2387 1.387 . S
H2386 C2393 0.950 . S
C2387 C2385 1.387 . S
C2387 C2389 1.390 . S
C2387 H2391 0.950 . S
H2388 C2384 0.950 . S
C2389 C2387 1.390 . S
C2389 C2390 1.387 . S
C2389 H2392 0.950 . S
C2390 C2389 1.387 . S
C2390 C2393 1.387 . S
H2391 C2387 0.950 . S
H2392 C2389 0.950 . S
C2393 C2384 1.390 . S
C2393 H2386 0.950 . S
C2393 C2390 1.387 . S
C2394 C2395 1.387 . S
C2394 H2398 0.950 . S
C2394 C2403 1.390 . S
C2395 C2394 1.387 . S
C2395 C2397 1.387 . S
H2396 C2403 0.950 . S
C2397 C2395 1.387 . S
C2397 C2399 1.390 . S
C2397 H2401 0.950 . S
H2398 C2394 0.950 . S
C2399 C2397 1.390 . S
C2399 C2400 1.387 . S
C2399 H2402 0.950 . S
C2400 C2399 1.387 . S
C2400 C2403 1.387 . S
H2401 C2397 0.950 . S
H2402 C2399 0.950 . S
C2403 C2394 1.390 . S
C2403 H2396 0.950 . S
C2403 C2400 1.387 . S
C2404 C2405 1.387 . S
C2404 H2408 0.950 . S
C2404 C2413 1.390 . S
C2405 C2404 1.387 . S
C2405 C2407 1.387 . S
H2406 C2413 0.950 . S
C2407 C2405 1.387 . S
C2407 C2409 1.390 . S
C2407 H2411 0.950 . S
H2408 C2404 0.950 . S
C2409 C2407 1.390 . S
C2409 C2410 1.387 . S
C2409 H2412 0.950 . S
C2410 C2409 1.387 . S
C2410 C2413 1.387 . S
H2411 C2407 0.950 . S
H2412 C2409 0.950 . S
C2413 C2404 1.390 . S
C2413 H2406 0.950 . S
C2413 C2410 1.387 . S
C2414 C2415 1.387 . S
C2414 H2418 0.950 . S
C2414 C2423 1.390 . S
C2415 C2414 1.387 . S
C2415 C2417 1.387 . S
H2416 C2423 0.950 . S
C2417 C2415 1.387 . S
C2417 C2419 1.390 . S
C2417 H2421 0.950 . S
H2418 C2414 0.950 . S
C2419 C2417 1.390 . S
C2419 C2420 1.387 . S
C2419 H2422 0.950 . S
C2420 C2419 1.387 . S
C2420 C2423 1.387 . S
H2421 C2417 0.950 . S
H2422 C2419 0.950 . S
C2423 C2414 1.390 . S
C2423 H2416 0.950 . S
C2423 C2420 1.387 . S
C2424 C2425 1.387 . S
C2424 H2428 0.950 . S
C2424 C2433 1.390 . S
C2425 C2424 1.387 . S
C2425 C2427 1.387 . S
H2426 C2433 0.950 . S
C2427 C2425 1.387 . S
C2427 C2429 1.390 . S
C2427 H2431 0.950 . S
H2428 C2424 0.950 . S
C2429 C2427 1.390 . S
C2429 C2430 1.387 . S
C2429 H2432 0.950 . S
C2430 C2429 1.387 . S
C2430 C2433 1.387 . S
H2431 C2427 0.950 . S
H2432 C2429 0.950 . S
C2433 C2424 1.390 . S
C2433 H2426 0.950 . S
C2433 C2430 1.387 . S
C2434 C2435 1.387 . S
C2434 H2438 0.950 . S
C2434 C2443 1.390 . S
C2435 C2434 1.387 . S
C2435 C2437 1.387 . S
H2436 C2443 0.950 . S
C2437 C2435 1.387 . S
C2437 C2439 1.390 . S
C2437 H2441 0.950 . S
H2438 C2434 0.950 . S
C2439 C2437 1.390 . S
C2439 C2440 1.387 . S
C2439 H2442 0.950 . S
C2440 C2439 1.387 . S
C2440 C2443 1.387 . S
H2441 C2437 0.950 . S
H2442 C2439 0.950 . S
C2443 C2434 1.390 . S
C2443 H2436 0.950 . S
C2443 C2440 1.387 . S
C2444 C2445 1.387 . S
C2444 H2448 0.950 . S
C2444 C2453 1.390 . S
C2445 C2444 1.387 . S
C2445 C2447 1.387 . S
H2446 C2453 0.950 . S
C2447 C2445 1.387 . S
C2447 C2449 1.390 . S
C2447 H2451 0.950 . S
H2448 C2444 0.950 . S
C2449 C2447 1.390 . S
C2449 C2450 1.387 . S
C2449 H2452 0.950 . S
C2450 C2449 1.387 . S
C2450 C2453 1.387 . S
H2451 C2447 0.950 . S
H2452 C2449 0.950 . S
C2453 C2444 1.390 . S
C2453 H2446 0.950 . S
C2453 C2450 1.387 . S
C2454 C2455 1.387 . S
C2454 H2458 0.950 . S
C2454 C2463 1.390 . S
C2455 C2454 1.387 . S
C2455 C2457 1.387 . S
H2456 C2463 0.950 . S
C2457 C2455 1.387 . S
C2457 C2459 1.390 . S
C2457 H2461 0.950 . S
H2458 C2454 0.950 . S
C2459 C2457 1.390 . S
C2459 C2460 1.387 . S
C2459 H2462 0.950 . S
C2460 C2459 1.387 . S
C2460 C2463 1.387 . S
H2461 C2457 0.950 . S
H2462 C2459 0.950 . S
C2463 C2454 1.390 . S
C2463 H2456 0.950 . S
C2463 C2460 1.387 . S
C2464 C2465 1.387 . S
C2464 H2468 0.950 . S
C2464 C2473 1.390 . S
C2465 C2464 1.387 . S
C2465 C2467 1.387 . S
H2466 C2473 0.950 . S
C2467 C2465 1.387 . S
C2467 C2469 1.390 . S
C2467 H2471 0.950 . S
H2468 C2464 0.950 . S
C2469 C2467 1.390 . S
C2469 C2470 1.387 . S
C2469 H2472 0.950 . S
C2470 C2469 1.387 . S
C2470 C2473 1.387 . S
H2471 C2467 0.950 . S
H2472 C2469 0.950 . S
C2473 C2464 1.390 . S
C2473 H2466 0.950 . S
C2473 C2470 1.387 . S
C2474 C2475 1.387 . S
C2474 H2478 0.950 . S
C2474 C2483 1.390 . S
C2475 C2474 1.387 . S
C2475 C2477 1.387 . S
H2476 C2483 0.950 . S
C2477 C2475 1.387 . S
C2477 C2479 1.390 . S
C2477 H2481 0.950 . S
H2478 C2474 0.950 . S
C2479 C2477 1.390 . S
C2479 C2480 1.387 . S
C2479 H2482 0.950 . S
C2480 C2479 1.387 . S
C2480 C2483 1.387 . S
H2481 C2477 0.950 . S
H2482 C2479 0.950 . S
C2483 C2474 1.390 . S
C2483 H2476 0.950 . S
C2483 C2480 1.387 . S
C2484 C2485 1.387 . S
C2484 H2488 0.950 . S
C2484 C2493 1.390 . S
C2485 C2484 1.387 . S
C2485 C2487 1.387 . S
H2486 C2493 0.950 . S
C2487 C2485 1.387 . S
C2487 C2489 1.390 . S
C2487 H2491 0.950 . S
H2488 C2484 0.950 . S
C2489 C2487 1.390 . S
C2489 C2490 1.387 . S
C2489 H2492 0.950 . S
C2490 C2489 1.387 . S
C2490 C2493 1.387 . S
H2491 C2487 0.950 . S
H2492 C2489 0.950 . S
C2493 C2484 1.390 . S
C2493 H2486 0.950 . S
C2493 C2490 1.387 . S
C2494 C2495 1.387 . S
C2494 H2498 0.950 . S
C2494 C2503 1.390 1_565 S
C2495 C2494 1.387 . S
C2495 C2497 1.387 . S
H2496 C2503 0.950 . S
C2497 C2495 1.387 . S
C2497 C2499 1.390 1_565 S
C2497 H2501 0.950 . S
H2498 C2494 0.950 . S
C2499 C2497 1.390 1_545 S
C2499 C2500 1.387 . S
C2499 H2502 0.950 . S
C2500 C2499 1.387 . S
C2500 C2503 1.387 . S
H2501 C2497 0.950 . S
H2502 C2499 0.950 . S
C2503 C2494 1.390 1_545 S
C2503 H2496 0.950 . S
C2503 C2500 1.387 . S
C2504 C2505 1.387 . S
C2504 H2508 0.950 . S
C2504 C2513 1.390 1_655 S
C2505 C2504 1.387 . S
C2505 C2507 1.387 . S
H2506 C2513 0.950 . S
C2507 C2505 1.387 . S
C2507 C2509 1.390 1_655 S
C2507 H2511 0.950 . S
H2508 C2504 0.950 . S
C2509 C2507 1.390 1_455 S
C2509 C2510 1.387 . S
C2509 H2512 0.950 . S
C2510 C2509 1.387 . S
C2510 C2513 1.387 . S
H2511 C2507 0.950 . S
H2512 C2509 0.950 . S
C2513 C2504 1.390 1_455 S
C2513 H2506 0.950 . S
C2513 C2510 1.387 . S
C2514 C2515 1.387 . S
C2514 H2518 0.950 . S
C2514 C2523 1.390 . S
C2515 C2514 1.387 . S
C2515 C2517 1.387 . S
H2516 C2523 0.950 . S
C2517 C2515 1.387 . S
C2517 C2519 1.390 . S
C2517 H2521 0.950 . S
H2518 C2514 0.950 . S
C2519 C2517 1.390 . S
C2519 C2520 1.387 . S
C2519 H2522 0.950 . S
C2520 C2519 1.387 . S
C2520 C2523 1.387 . S
H2521 C2517 0.950 . S
H2522 C2519 0.950 . S
C2523 C2514 1.390 . S
C2523 H2516 0.950 . S
C2523 C2520 1.387 . S
C2524 C2525 1.387 . S
C2524 H2528 0.950 . S
C2524 C2533 1.390 1_545 S
C2525 C2524 1.387 . S
C2525 C2527 1.387 . S
H2526 C2533 0.950 . S
C2527 C2525 1.387 . S
C2527 C2529 1.390 1_545 S
C2527 H2531 0.950 . S
H2528 C2524 0.950 . S
C2529 C2527 1.390 1_565 S
C2529 C2530 1.387 . S
C2529 H2532 0.950 . S
C2530 C2529 1.387 . S
C2530 C2533 1.387 . S
H2531 C2527 0.950 . S
H2532 C2529 0.950 . S
C2533 C2524 1.390 1_565 S
C2533 H2526 0.950 . S
C2533 C2530 1.387 . S
C2534 C2535 1.387 . S
C2534 H2538 0.950 . S
C2534 C2543 1.390 1_655 S
C2535 C2534 1.387 . S
C2535 C2537 1.387 . S
H2536 C2543 0.950 . S
C2537 C2535 1.387 . S
C2537 C2539 1.390 1_655 S
C2537 H2541 0.950 . S
H2538 C2534 0.950 . S
C2539 C2537 1.390 1_455 S
C2539 C2540 1.387 . S
C2539 H2542 0.950 . S
C2540 C2539 1.387 . S
C2540 C2543 1.387 . S
H2541 C2537 0.950 . S
H2542 C2539 0.950 . S
C2543 C2534 1.390 1_455 S
C2543 H2536 0.950 . S
C2543 C2540 1.387 . S
C2544 C2545 1.387 . S
C2544 H2548 0.950 . S
C2544 C2553 1.390 . S
C2545 C2544 1.387 . S
C2545 C2547 1.387 . S
H2546 C2553 0.950 . S
C2547 C2545 1.387 . S
C2547 C2549 1.390 . S
C2547 H2551 0.950 . S
H2548 C2544 0.950 . S
C2549 C2547 1.390 . S
C2549 C2550 1.387 . S
C2549 H2552 0.950 . S
C2550 C2549 1.387 . S
C2550 C2553 1.387 . S
H2551 C2547 0.950 . S
H2552 C2549 0.950 . S
C2553 C2544 1.390 . S
C2553 H2546 0.950 . S
C2553 C2550 1.387 . S
C2554 C2555 1.387 . S
C2554 H2558 0.950 . S
C2554 C2563 1.390 . S
C2555 C2554 1.387 . S
C2555 C2557 1.387 . S
H2556 C2563 0.950 . S
C2557 C2555 1.387 . S
C2557 C2559 1.390 . S
C2557 H2561 0.950 . S
H2558 C2554 0.950 . S
C2559 C2557 1.390 . S
C2559 C2560 1.387 . S
C2559 H2562 0.950 . S
C2560 C2559 1.387 . S
C2560 C2563 1.387 . S
H2561 C2557 0.950 . S
H2562 C2559 0.950 . S
C2563 C2554 1.390 . S
C2563 H2556 0.950 . S
C2563 C2560 1.387 . S
C2564 C2565 1.387 . S
C2564 H2568 0.950 . S
C2564 C2573 1.390 . S
C2565 C2564 1.387 . S
C2565 C2567 1.387 . S
H2566 C2573 0.950 . S
C2567 C2565 1.387 . S
C2567 C2569 1.390 . S
C2567 H2571 0.950 . S
H2568 C2564 0.950 . S
C2569 C2567 1.390 . S
C2569 C2570 1.387 . S
C2569 H2572 0.950 . S
C2570 C2569 1.387 . S
C2570 C2573 1.387 . S
H2571 C2567 0.950 . S
H2572 C2569 0.950 . S
C2573 C2564 1.390 . S
C2573 H2566 0.950 . S
C2573 C2570 1.387 . S
C2574 C2575 1.387 . S
C2574 H2578 0.950 . S
C2574 C2583 1.390 . S
C2575 C2574 1.387 . S
C2575 C2577 1.387 . S
H2576 C2583 0.950 . S
C2577 C2575 1.387 . S
C2577 C2579 1.390 . S
C2577 H2581 0.950 . S
H2578 C2574 0.950 . S
C2579 C2577 1.390 . S
C2579 C2580 1.387 . S
C2579 H2582 0.950 . S
C2580 C2579 1.387 . S
C2580 C2583 1.387 . S
H2581 C2577 0.950 . S
H2582 C2579 0.950 . S
C2583 C2574 1.390 . S
C2583 H2576 0.950 . S
C2583 C2580 1.387 . S
C2584 C2585 1.387 . S
C2584 H2588 0.950 . S
C2584 C2593 1.390 . S
C2585 C2584 1.387 . S
C2585 C2587 1.387 . S
H2586 C2593 0.950 . S
C2587 C2585 1.387 . S
C2587 C2589 1.390 . S
C2587 H2591 0.950 . S
H2588 C2584 0.950 . S
C2589 C2587 1.390 . S
C2589 C2590 1.387 . S
C2589 H2592 0.950 . S
C2590 C2589 1.387 . S
C2590 C2593 1.387 . S
H2591 C2587 0.950 . S
H2592 C2589 0.950 . S
C2593 C2584 1.390 . S
C2593 H2586 0.950 . S
C2593 C2590 1.387 . S
C2594 C2595 1.387 . S
C2594 H2598 0.950 . S
C2594 C2603 1.390 . S
C2595 C2594 1.387 . S
C2595 C2597 1.387 . S
H2596 C2603 0.950 . S
C2597 C2595 1.387 . S
C2597 C2599 1.390 . S
C2597 H2601 0.950 . S
H2598 C2594 0.950 . S
C2599 C2597 1.390 . S
C2599 C2600 1.387 . S
C2599 H2602 0.940 1_554 S
C2600 C2599 1.387 . S
C2600 C2603 1.387 . S
H2601 C2597 0.950 . S
H2602 C2599 0.940 1_556 S
C2603 C2594 1.390 . S
C2603 H2596 0.950 . S
C2603 C2600 1.387 . S
C2604 C2605 1.387 . S
C2604 H2608 0.950 1_556 S
C2604 C2613 1.390 . S
C2605 C2604 1.387 . S
C2605 C2607 1.387 . S
H2606 C2613 0.950 . S
C2607 C2605 1.387 . S
C2607 C2609 1.390 . S
C2607 H2611 0.950 . S
H2608 C2604 0.950 1_554 S
C2609 C2607 1.390 . S
C2609 C2610 1.387 . S
C2609 H2612 0.950 . S
C2610 C2609 1.387 . S
C2610 C2613 1.387 . S
H2611 C2607 0.950 . S
H2612 C2609 0.950 . S
C2613 C2604 1.390 . S
C2613 H2606 0.950 . S
C2613 C2610 1.387 . S
C2614 C2615 1.387 . S
C2614 H2618 0.950 . S
C2614 C2623 1.390 . S
C2615 C2614 1.387 . S
C2615 C2617 1.387 . S
H2616 C2623 0.950 . S
C2617 C2615 1.387 . S
C2617 C2619 1.390 . S
C2617 H2621 0.950 . S
H2618 C2614 0.950 . S
C2619 C2617 1.390 . S
C2619 C2620 1.387 . S
C2619 H2622 0.950 . S
C2620 C2619 1.387 . S
C2620 C2623 1.387 . S
H2621 C2617 0.950 . S
H2622 C2619 0.950 . S
C2623 C2614 1.390 . S
C2623 H2616 0.950 . S
C2623 C2620 1.387 . S
C2624 C2625 1.387 . S
C2624 H2628 0.950 . S
C2624 C2633 1.390 . S
C2625 C2624 1.387 . S
C2625 C2627 1.387 . S
H2626 C2633 0.950 . S
C2627 C2625 1.387 . S
C2627 C2629 1.390 . S
C2627 H2631 0.950 . S
H2628 C2624 0.950 . S
C2629 C2627 1.390 . S
C2629 C2630 1.387 . S
C2629 H2632 0.950 1_556 S
C2630 C2629 1.387 . S
C2630 C2633 1.387 . S
H2631 C2627 0.950 . S
H2632 C2629 0.950 1_554 S
C2633 C2624 1.390 . S
C2633 H2626 0.950 . S
C2633 C2630 1.387 . S
C2634 C2635 1.387 . S
C2634 H2638 0.950 . S
C2634 C2643 1.390 . S
C2635 C2634 1.387 . S
C2635 C2637 1.387 . S
H2636 C2643 0.950 . S
C2637 C2635 1.387 . S
C2637 C2639 1.390 . S
C2637 H2641 0.950 . S
H2638 C2634 0.950 . S
C2639 C2637 1.390 . S
C2639 C2640 1.387 . S
C2639 H2642 0.950 . S
C2640 C2639 1.387 . S
C2640 C2643 1.387 . S
H2641 C2637 0.950 . S
H2642 C2639 0.950 . S
C2643 C2634 1.390 . S
C2643 H2636 0.950 . S
C2643 C2640 1.387 . S
C2644 C2645 1.387 . S
C2644 H2648 0.950 . S
C2644 C2653 1.390 . S
C2645 C2644 1.387 . S
C2645 C2647 1.387 . S
H2646 C2653 0.950 . S
C2647 C2645 1.387 . S
C2647 C2649 1.390 . S
C2647 H2651 0.950 . S
H2648 C2644 0.950 . S
C2649 C2647 1.390 . S
C2649 C2650 1.387 . S
C2649 H2652 0.950 . S
C2650 C2649 1.387 . S
C2650 C2653 1.387 . S
H2651 C2647 0.950 . S
H2652 C2649 0.950 . S
C2653 C2644 1.390 . S
C2653 H2646 0.950 . S
C2653 C2650 1.387 . S
C2654 C2655 1.387 . S
C2654 H2658 0.950 . S
C2654 C2663 1.390 . S
C2655 C2654 1.387 . S
C2655 C2657 1.387 . S
H2656 C2663 0.950 . S
C2657 C2655 1.387 . S
C2657 C2659 1.390 . S
C2657 H2661 0.950 . S
H2658 C2654 0.950 . S
C2659 C2657 1.390 . S
C2659 C2660 1.387 . S
C2659 H2662 0.950 . S
C2660 C2659 1.387 . S
C2660 C2663 1.387 . S
H2661 C2657 0.950 . S
H2662 C2659 0.950 . S
C2663 C2654 1.390 . S
C2663 H2656 0.950 . S
C2663 C2660 1.387 . S
C2664 C2665 1.387 . S
C2664 H2668 0.950 . S
C2664 C2673 1.390 . S
C2665 C2664 1.387 . S
C2665 C2667 1.387 . S
H2666 C2673 0.950 . S
C2667 C2665 1.387 . S
C2667 C2669 1.390 . S
C2667 H2671 0.950 . S
H2668 C2664 0.950 . S
C2669 C2667 1.390 . S
C2669 C2670 1.387 . S
C2669 H2672 0.950 . S
C2670 C2669 1.387 . S
C2670 C2673 1.387 . S
H2671 C2667 0.950 . S
H2672 C2669 0.950 . S
C2673 C2664 1.390 . S
C2673 H2666 0.950 . S
C2673 C2670 1.387 . S
C2674 C2675 1.387 . S
C2674 H2678 0.950 . S
C2674 C2683 1.390 . S
C2675 C2674 1.387 . S
C2675 C2677 1.387 . S
H2676 C2683 0.950 . S
C2677 C2675 1.387 . S
C2677 C2679 1.390 . S
C2677 H2681 0.950 . S
H2678 C2674 0.950 . S
C2679 C2677 1.390 . S
C2679 C2680 1.387 . S
C2679 H2682 0.950 . S
C2680 C2679 1.387 . S
C2680 C2683 1.387 . S
H2681 C2677 0.950 . S
H2682 C2679 0.950 . S
C2683 C2674 1.390 . S
C2683 H2676 0.950 . S
C2683 C2680 1.387 . S
C2684 C2685 1.387 . S
C2684 H2688 0.950 . S
C2684 C2693 1.390 . S
C2685 C2684 1.387 . S
C2685 C2687 1.387 . S
H2686 C2693 0.950 . S
C2687 C2685 1.387 . S
C2687 C2689 1.390 . S
C2687 H2691 0.950 . S
H2688 C2684 0.950 . S
C2689 C2687 1.390 . S
C2689 C2690 1.387 . S
C2689 H2692 0.950 . S
C2690 C2689 1.387 . S
C2690 C2693 1.387 . S
H2691 C2687 0.950 . S
H2692 C2689 0.950 . S
C2693 C2684 1.390 . S
C2693 H2686 0.950 . S
C2693 C2690 1.387 . S
C2694 C2695 1.387 . S
C2694 H2698 0.950 . S
C2694 C2703 1.390 . S
C2695 C2694 1.387 . S
C2695 C2697 1.387 . S
H2696 C2703 0.950 . S
C2697 C2695 1.387 . S
C2697 C2699 1.390 . S
C2697 H2701 0.950 . S
H2698 C2694 0.950 . S
C2699 C2697 1.390 . S
C2699 C2700 1.387 . S
C2699 H2702 0.950 . S
C2700 C2699 1.387 . S
C2700 C2703 1.387 . S
H2701 C2697 0.950 . S
H2702 C2699 0.950 . S
C2703 C2694 1.390 . S
C2703 H2696 0.950 . S
C2703 C2700 1.387 . S
C2704 C2705 1.387 . S
C2704 H2708 0.950 . S
C2704 C2713 1.390 . S
C2705 C2704 1.387 . S
C2705 C2707 1.387 . S
H2706 C2713 0.950 . S
C2707 C2705 1.387 . S
C2707 C2709 1.390 . S
C2707 H2711 0.950 . S
H2708 C2704 0.950 . S
C2709 C2707 1.390 . S
C2709 C2710 1.387 . S
C2709 H2712 0.950 . S
C2710 C2709 1.387 . S
C2710 C2713 1.387 . S
H2711 C2707 0.950 . S
H2712 C2709 0.950 . S
C2713 C2704 1.390 . S
C2713 H2706 0.950 . S
C2713 C2710 1.387 . S
C2714 C2715 1.387 . S
C2714 H2718 0.950 . S
C2714 C2723 1.390 . S
C2715 C2714 1.387 . S
C2715 C2717 1.387 . S
H2716 C2723 0.950 . S
C2717 C2715 1.387 . S
C2717 C2719 1.390 . S
C2717 H2721 0.950 . S
H2718 C2714 0.950 . S
C2719 C2717 1.390 . S
C2719 C2720 1.387 . S
C2719 H2722 0.950 . S
C2720 C2719 1.387 . S
C2720 C2723 1.387 . S
H2721 C2717 0.950 . S
H2722 C2719 0.950 . S
C2723 C2714 1.390 . S
C2723 H2716 0.950 . S
C2723 C2720 1.387 . S
C2724 C2725 1.387 . S
C2724 H2728 0.950 . S
C2724 C2733 1.390 . S
C2725 C2724 1.387 . S
C2725 C2727 1.387 . S
H2726 C2733 0.950 . S
C2727 C2725 1.387 . S
C2727 C2729 1.390 . S
C2727 H2731 0.950 . S
H2728 C2724 0.950 . S
C2729 C2727 1.390 . S
C2729 C2730 1.387 . S
C2729 H2732 0.950 . S
C2730 C2729 1.387 . S
C2730 C2733 1.387 . S
H2731 C2727 0.950 . S
H2732 C2729 0.950 . S
C2733 C2724 1.390 . S
C2733 H2726 0.950 . S
C2733 C2730 1.387 . S
C2734 C2735 1.387 . S
C2734 H2738 0.950 . S
C2734 C2743 1.390 . S
C2735 C2734 1.387 . S
C2735 C2737 1.387 . S
H2736 C2743 0.950 . S
C2737 C2735 1.387 . S
C2737 C2739 1.390 . S
C2737 H2741 0.950 . S
H2738 C2734 0.950 . S
C2739 C2737 1.390 . S
C2739 C2740 1.387 . S
C2739 H2742 0.950 . S
C2740 C2739 1.387 . S
C2740 C2743 1.387 . S
H2741 C2737 0.950 . S
H2742 C2739 0.950 . S
C2743 C2734 1.390 . S
C2743 H2736 0.950 . S
C2743 C2740 1.387 . S
C2744 C2745 1.387 . S
C2744 H2748 0.950 . S
C2744 C2753 1.390 . S
C2745 C2744 1.387 . S
C2745 C2747 1.387 . S
H2746 C2753 0.950 . S
C2747 C2745 1.387 . S
C2747 C2749 1.390 . S
C2747 H2751 0.950 . S
H2748 C2744 0.950 . S
C2749 C2747 1.390 . S
C2749 C2750 1.387 . S
C2749 H2752 0.950 . S
C2750 C2749 1.387 . S
C2750 C2753 1.387 . S
H2751 C2747 0.950 . S
H2752 C2749 0.950 . S
C2753 C2744 1.390 . S
C2753 H2746 0.950 . S
C2753 C2750 1.387 . S
C2754 C2755 1.387 . S
C2754 H2758 0.950 . S
C2754 C2763 1.390 . S
C2755 C2754 1.387 . S
C2755 C2757 1.387 . S
H2756 C2763 0.950 . S
C2757 C2755 1.387 . S
C2757 C2759 1.390 . S
C2757 H2761 0.950 . S
H2758 C2754 0.950 . S
C2759 C2757 1.390 . S
C2759 C2760 1.387 . S
C2759 H2762 0.950 . S
C2760 C2759 1.387 . S
C2760 C2763 1.387 . S
H2761 C2757 0.950 . S
H2762 C2759 0.950 . S
C2763 C2754 1.390 . S
C2763 H2756 0.950 . S
C2763 C2760 1.387 . S
C2764 C2765 1.387 . S
C2764 H2768 0.950 . S
C2764 C2773 1.390 . S
C2765 C2764 1.387 . S
C2765 C2767 1.387 . S
H2766 C2773 0.950 . S
C2767 C2765 1.387 . S
C2767 C2769 1.390 . S
C2767 H2771 0.950 . S
H2768 C2764 0.950 . S
C2769 C2767 1.390 . S
C2769 C2770 1.387 . S
C2769 H2772 0.950 . S
C2770 C2769 1.387 . S
C2770 C2773 1.387 . S
H2771 C2767 0.950 . S
H2772 C2769 0.950 . S
C2773 C2764 1.390 . S
C2773 H2766 0.950 . S
C2773 C2770 1.387 . S
C2774 C2775 1.387 . S
C2774 H2778 0.950 . S
C2774 C2783 1.390 . S
C2775 C2774 1.387 . S
C2775 C2777 1.387 . S
H2776 C2783 0.950 . S
C2777 C2775 1.387 . S
C2777 C2779 1.390 . S
C2777 H2781 0.950 . S
H2778 C2774 0.950 . S
C2779 C2777 1.390 . S
C2779 C2780 1.387 . S
C2779 H2782 0.950 . S
C2780 C2779 1.387 . S
C2780 C2783 1.387 . S
H2781 C2777 0.950 . S
H2782 C2779 0.950 . S
C2783 C2774 1.390 . S
C2783 H2776 0.950 . S
C2783 C2780 1.387 . S
C2784 C2785 1.387 . S
C2784 H2788 0.950 . S
C2784 C2793 1.390 1_455 S
C2785 C2784 1.387 . S
C2785 C2787 1.387 . S
H2786 C2793 0.950 . S
C2787 C2785 1.387 . S
C2787 C2789 1.390 1_455 S
C2787 H2791 0.950 . S
H2788 C2784 0.950 . S
C2789 C2787 1.390 1_655 S
C2789 C2790 1.387 . S
C2789 H2792 0.950 . S
C2790 C2789 1.387 . S
C2790 C2793 1.387 . S
H2791 C2787 0.950 . S
H2792 C2789 0.950 . S
C2793 C2784 1.390 1_655 S
C2793 H2786 0.950 . S
C2793 C2790 1.387 . S
C2794 C2795 1.387 . S
C2794 H2798 0.950 . S
C2794 C2803 1.390 . S
C2795 C2794 1.387 . S
C2795 C2797 1.387 . S
H2796 C2803 0.950 . S
C2797 C2795 1.387 . S
C2797 C2799 1.390 . S
C2797 H2801 0.950 . S
H2798 C2794 0.950 . S
C2799 C2797 1.390 . S
C2799 C2800 1.387 . S
C2799 H2802 0.950 . S
C2800 C2799 1.387 . S
C2800 C2803 1.387 . S
H2801 C2797 0.950 . S
H2802 C2799 0.950 . S
C2803 C2794 1.390 . S
C2803 H2796 0.950 . S
C2803 C2800 1.387 . S
C2804 C2805 1.387 . S
C2804 H2808 0.950 . S
C2804 C2813 1.390 1_545 S
C2805 C2804 1.387 . S
C2805 C2807 1.387 . S
H2806 C2813 0.950 . S
C2807 C2805 1.387 . S
C2807 C2809 1.390 1_545 S
C2807 H2811 0.950 . S
H2808 C2804 0.950 . S
C2809 C2807 1.390 1_565 S
C2809 C2810 1.387 . S
C2809 H2812 0.950 . S
C2810 C2809 1.387 . S
C2810 C2813 1.387 . S
H2811 C2807 0.950 . S
H2812 C2809 0.950 . S
C2813 C2804 1.390 1_565 S
C2813 H2806 0.950 . S
C2813 C2810 1.387 . S
C2814 C2815 1.387 1_556 S
C2814 H2818 0.950 . S
C2814 C2823 1.390 1_545 S
C2815 C2814 1.387 1_554 S
C2815 C2817 1.387 . S
H2816 C2823 0.950 . S
C2817 C2815 1.387 . S
C2817 C2819 1.390 1_545 S
C2817 H2821 0.950 . S
H2818 C2814 0.950 . S
C2819 C2817 1.390 1_565 S
C2819 C2820 1.387 1_554 S
C2819 H2822 0.950 . S
C2820 C2819 1.387 1_556 S
C2820 C2823 1.387 . S
H2821 C2817 0.950 . S
H2822 C2819 0.950 . S
C2823 C2814 1.390 1_565 S
C2823 H2816 0.950 . S
C2823 C2820 1.387 . S
C2824 C2825 1.387 1_556 S
C2824 H2828 0.950 . S
C2824 C2833 1.390 1_655 S
C2825 C2824 1.387 1_554 S
C2825 C2827 1.387 . S
H2826 C2833 0.950 . S
C2827 C2825 1.387 . S
C2827 C2829 1.390 1_655 S
C2827 H2831 0.950 . S
H2828 C2824 0.950 . S
C2829 C2827 1.390 1_455 S
C2829 C2830 1.387 1_554 S
C2829 H2832 0.950 . S
C2830 C2829 1.387 1_556 S
C2830 C2833 1.387 . S
H2831 C2827 0.950 . S
H2832 C2829 0.950 . S
C2833 C2824 1.390 1_455 S
C2833 H2826 0.950 . S
C2833 C2830 1.387 . S
C2834 C2835 1.387 1_556 S
C2834 H2838 0.950 . S
C2834 C2843 1.390 . S
C2835 C2834 1.387 1_554 S
C2835 C2837 1.387 . S
H2836 C2843 0.950 . S
C2837 C2835 1.387 . S
C2837 C2839 1.390 . S
C2837 H2841 0.950 . S
H2838 C2834 0.950 . S
C2839 C2837 1.390 . S
C2839 C2840 1.387 1_554 S
C2839 H2842 0.950 . S
C2840 C2839 1.387 1_556 S
C2840 C2843 1.387 . S
H2841 C2837 0.950 . S
H2842 C2839 0.950 . S
C2843 C2834 1.390 . S
C2843 H2836 0.950 . S
C2843 C2840 1.387 . S
C2125 C593 1.371 . S
C2130 C33 1.356 . S
C2135 C652 1.371 . S
C2140 C92 1.355 . S
C2145 C151 1.354 . S
C2150 C534 1.371 . S
C2155 C210 1.356 . S
C2160 C475 1.371 . S
C2165 C269 1.356 . S
C2170 C357 1.372 . S
C2175 C416 1.371 . S
C2180 C328 1.355 . S
C2185 C239 1.371 . S
C2190 C387 1.356 . S
C2195 C298 1.372 . S
C2200 C446 1.354 . S
C2205 C505 1.354 . S
C2210 C180 1.371 . S
C2215 C121 1.372 . S
C2220 C564 1.356 . S
C2225 C623 1.356 . S
C2230 C3 1.371 . S
C2235 C682 1.354 . S
C2240 C62 1.372 . S
C2245 C1301 1.371 . S
C2250 C741 1.356 . S
C2255 C1360 1.371 . S
C2260 C800 1.355 . S
C2265 C859 1.355 . S
C2270 C1242 1.372 . S
C2275 C918 1.355 . S
C2280 C1183 1.371 . S
C2285 C977 1.354 . S
C2290 C1065 1.372 . S
C2295 C1036 1.354 . S
C2300 C1124 1.372 . S
C2305 C947 1.371 . S
C2310 C1095 1.356 . S
C2315 C1006 1.372 . S
C2320 C1154 1.355 . S
C2325 C888 1.371 . S
C2330 C1213 1.354 . S
C2335 C829 1.372 . S
C2340 C1272 1.355 . S
C2345 C711 1.371 . S
C2350 C1331 1.355 . S
C2355 C770 1.372 . S
C2360 C1390 1.355 . S
C2365 C1449 1.356 . S
C2370 C2009 1.371 . S
C2375 C2068 1.372 . S
C2380 C1508 1.355 . S
C2385 C1950 1.372 . S
C2390 C1567 1.356 . S
C2395 C1626 1.356 . S
C2400 C1891 1.372 . S
C2405 C1685 1.355 . S
C2410 C1773 1.371 . S
C2415 C1744 1.355 . S
C2420 C1832 1.371 . S
C2425 C1655 1.372 . S
C2430 C1803 1.355 . S
C2435 C1714 1.371 . S
C2440 C1862 1.355 . S
C2445 C1596 1.371 . S
C2450 C1921 1.354 . S
C2455 C1980 1.355 . S
C2460 C1537 1.372 . S
C2465 C1419 1.372 . S
C2470 C2039 1.355 . S
C2475 C2098 1.356 . S
C2480 C1478 1.372 . S
C2485 C182 1.565 . S
C2490 C5 1.565 . S
C2495 C241 1.565 . S
C2500 C64 1.565 . S
C2505 C123 1.564 . S
C2510 C300 1.564 . S
C2515 C536 1.565 . S
C2520 C359 1.565 . S
C2525 C595 1.565 . S
C2530 C418 1.565 . S
C2535 C654 1.564 . S
C2540 C477 1.565 . S
C2545 C890 1.565 . S
C2550 C713 1.565 . S
C2555 C949 1.564 . S
C2560 C772 1.564 . S
C2565 C831 1.564 . S
C2570 C1008 1.564 . S
C2575 C1067 1.564 . S
C2580 C1244 1.564 . S
C2585 C1303 1.565 . S
C2590 C1126 1.565 . S
C2595 C1185 1.564 . S
C2600 C1362 1.564 . S
C2605 C1598 1.564 . S
C2610 C1421 1.564 . S
C2615 C1657 1.564 . S
C2620 C1480 1.564 . S
C2625 C1539 1.565 . S
C2630 C1716 1.565 . S
C2635 C1775 1.565 . S
C2640 C1952 1.565 . S
C2645 C1834 1.564 . S
C2650 C2011 1.564 . S
C2655 C1893 1.564 . S
C2660 C2070 1.564 . S
C2665 C52 1.570 . S
C2670 C1114 1.570 . S
C2675 C1173 1.570 . S
C2680 C111 1.570 . S
C2685 C1232 1.570 . S
C2690 C170 1.570 . S
C2695 C1999 1.570 . S
C2700 C229 1.570 . S
C2705 C2058 1.570 . S
C2710 C288 1.570 . S
C2715 C2117 1.570 . S
C2720 C347 1.570 . S
C2725 C406 1.570 . S
C2730 C1468 1.570 . S
C2735 C1527 1.570 . S
C2740 C465 1.570 . S
C2745 C1586 1.570 . S
C2750 C524 1.570 . S
C2755 C583 1.570 . S
C2760 C937 1.570 . S
C2765 C642 1.570 . S
C2770 C996 1.570 . S
C2775 C701 1.569 . S
C2780 C1055 1.569 . S
C2785 C1822 1.570 . S
C2790 C760 1.570 . S
C2795 C1881 1.570 . S
C2800 C819 1.570 . S
C2805 C878 1.570 . S
C2810 C1940 1.570 . S
C2815 C1291 1.570 . S
C2820 C1645 1.570 . S
C2825 C1350 1.570 . S
C2830 C1704 1.570 . S
C2835 C1409 1.569 . S
C2840 C1763 1.569 . S
