# Generated by pormake.
# Topology sml, (6)-cn, num edge types: 1
# Building blocks:
#     Node 0, Type 0, BuildingBlock: CUKXOW_clean_sbu_0, # of connection points: 6
#     Node 1, Type 0, BuildingBlock: CUKXOW_clean_sbu_0, # of connection points: 6
#     Node 2, Type 0, BuildingBlock: CUKXOW_clean_sbu_0, # of connection points: 6
#     Node 3, Type 0, BuildingBlock: CUKXOW_clean_sbu_0, # of connection points: 6
#     Node 4, Type 0, BuildingBlock: CUKXOW_clean_sbu_0, # of connection points: 6
#     Node 5, Type 0, BuildingBlock: CUKXOW_clean_sbu_0, # of connection points: 6
#     Edge 6, Type (0, 0), BuildingBlock: KIFKEQ_clean_linker_1, # of connection points: 2
#     Edge 7, Type (0, 0), BuildingBlock: KIFKEQ_clean_linker_1, # of connection points: 2
#     Edge 8, Type (0, 0), BuildingBlock: KIFKEQ_clean_linker_1, # of connection points: 2
#     Edge 9, Type (0, 0), BuildingBlock: KIFKEQ_clean_linker_1, # of connection points: 2
#     Edge 10, Type (0, 0), BuildingBlock: KIFKEQ_clean_linker_1, # of connection points: 2
#     Edge 11, Type (0, 0), BuildingBlock: KIFKEQ_clean_linker_1, # of connection points: 2
#     Edge 12, Type (0, 0), BuildingBlock: KIFKEQ_clean_linker_1, # of connection points: 2
#     Edge 13, Type (0, 0), BuildingBlock: KIFKEQ_clean_linker_1, # of connection points: 2
#     Edge 14, Type (0, 0), BuildingBlock: KIFKEQ_clean_linker_1, # of connection points: 2
#     Edge 15, Type (0, 0), BuildingBlock: KIFKEQ_clean_linker_1, # of connection points: 2
#     Edge 16, Type (0, 0), BuildingBlock: KIFKEQ_clean_linker_1, # of connection points: 2
#     Edge 17, Type (0, 0), BuildingBlock: KIFKEQ_clean_linker_1, # of connection points: 2
#     Edge 18, Type (0, 0), BuildingBlock: KIFKEQ_clean_linker_1, # of connection points: 2
#     Edge 19, Type (0, 0), BuildingBlock: KIFKEQ_clean_linker_1, # of connection points: 2
#     Edge 20, Type (0, 0), BuildingBlock: KIFKEQ_clean_linker_1, # of connection points: 2
#     Edge 21, Type (0, 0), BuildingBlock: KIFKEQ_clean_linker_1, # of connection points: 2
#     Edge 22, Type (0, 0), BuildingBlock: KIFKEQ_clean_linker_1, # of connection points: 2
#     Edge 23, Type (0, 0), BuildingBlock: KIFKEQ_clean_linker_1, # of connection points: 2
# Relax obj value: 0.146
# Max RMSD: 0.193
# Mean RMSD: 0.193
data_MOF--net-sml--node1-CUKXOW_clean_sbu_0--edge1-KIFKEQ_clean_linker_1
_symmetry_space_group_name_H-M    P1
_symmetry_Int_Tables_number       1
_symmetry_cell_setting            triclinic
loop_
_symmetry_equiv_pos_as_xyz
'x, y, z'
_cell_length_a     43.591911
_cell_length_b     43.501539
_cell_length_c     14.616132
_cell_angle_alpha  90.089319
_cell_angle_beta   90.158021
_cell_angle_gamma 119.99926
loop_
_atom_site_label
_atom_site_type_symbol
_atom_site_fract_x
_atom_site_fract_y
_atom_site_fract_z
_atom_type_partial_charge
Tb0 Tb 0.19865 0.38537 0.99781 0.0
C1 C 0.12112 0.36811 1.03746 0.0
Tb2 Tb 0.18739 0.44666 1.03666 0.0
O3 O 0.18484 0.36587 0.13746 0.0
O4 O 0.20922 0.42031 0.11186 0.0
O5 O 0.14064 0.3558 0.99986 0.0
C6 C 0.17228 0.49408 0.10973 0.0
O7 O 0.13467 0.4019 0.06129 0.0
C8 C 0.19228 0.43472 0.86191 0.0
C9 C 0.26469 0.46474 1.00423 0.0
O10 O 0.17803 0.47188 0.15505 0.0
O11 O 0.17477 0.48942 1.02306 0.0
O12 O 0.20341 0.46595 0.89702 0.0
O13 O 0.17671 0.41156 0.92319 0.0
O14 O 0.24443 0.47492 0.04645 0.0
O15 O 0.25178 0.43172 0.97333 0.0
C16 C 0.21652 0.34051 0.92053 0.0
O17 O 0.21564 0.34573 1.00755 0.0
O18 O 0.20712 0.36042 0.87679 0.0
C19 C 0.19466 0.39678 0.17315 0.0
Tb20 Tb 0.81294 0.20675 0.37066 0.0
C21 C 0.75313 0.12903 0.4113 0.0
Tb22 Tb 0.73996 0.19482 0.40769 0.0
O23 O 0.81829 0.19225 0.51019 0.0
O24 O 0.78785 0.2161 0.48444 0.0
O25 O 0.78503 0.14885 0.37474 0.0
C26 C 0.67719 0.18144 0.4741 0.0
O27 O 0.7327 0.14228 0.43566 0.0
C28 C 0.75771 0.20124 0.23332 0.0
C29 C 0.79856 0.27165 0.36921 0.0
O30 O 0.68311 0.17561 0.39079 0.0
O31 O 0.70647 0.19423 0.52025 0.0
O32 O 0.73729 0.2119 0.26826 0.0
O33 O 0.7652 0.18552 0.29442 0.0
O34 O 0.76912 0.2521 0.41566 0.0
O35 O 0.8174 0.25807 0.33475 0.0
C36 C 0.87712 0.22707 0.30103 0.0
O37 O 0.87076 0.23713 0.37872 0.0
O38 O 0.84715 0.20501 0.26238 0.0
C39 C 0.79677 0.20143 0.54563 0.0
Tb40 Tb 0.60131 0.81414 0.69232 0.0
C41 C 0.62003 0.75389 0.7311 0.0
Tb42 Tb 0.53982 0.7364 0.73053 0.0
O43 O 0.61054 0.83379 0.83574 0.0
O44 O 0.57261 0.78303 0.80398 0.0
O45 O 0.63111 0.78592 0.69526 0.0
C46 C 0.49317 0.67339 0.80116 0.0
O47 O 0.58668 0.73187 0.75572 0.0
C48 C 0.55041 0.75651 0.55698 0.0
C49 C 0.5211 0.79638 0.70475 0.0
O50 O 0.50865 0.6781 0.7224 0.0
O51 O 0.50409 0.70402 0.83963 0.0
O52 O 0.52007 0.73313 0.59085 0.0
O53 O 0.57382 0.76528 0.61865 0.0
O54 O 0.51166 0.76548 0.74403 0.0
O55 O 0.55331 0.81753 0.67167 0.0
C56 C 0.64302 0.87397 0.60072 0.0
O57 O 0.61038 0.85106 0.5806 0.0
O58 O 0.65254 0.86288 0.67211 0.0
C59 C 0.58677 0.80381 0.8708 0.0
Tb60 Tb 0.77811 0.60301 0.04494 0.0
C61 C 0.85287 0.61924 0.10217 0.0
Tb62 Tb 0.78814 0.54109 0.08805 0.0
O63 O 0.78872 0.62239 0.18634 0.0
O64 O 0.76641 0.56831 0.15979 0.0
O65 O 0.83584 0.63016 0.0477 0.0
C66 C 0.80113 0.49209 0.16002 0.0
O67 O 0.83738 0.58663 0.13605 0.0
C68 C 0.78524 0.55305 0.91157 0.0
C69 C 0.7113 0.52444 0.04656 0.0
O70 O 0.81847 0.51304 0.09281 0.0
O71 O 0.77685 0.49895 0.18644 0.0
O72 O 0.77412 0.52192 0.94671 0.0
O73 O 0.8001 0.57607 0.97394 0.0
O74 O 0.73086 0.51275 0.08601 0.0
O75 O 0.7246 0.55789 1.01999 0.0
C76 C 0.76221 0.64745 0.95746 0.0
O77 O 0.76877 0.6482 0.04427 0.0
O78 O 0.76496 0.62194 0.91996 0.0
C79 C 0.77958 0.59172 0.22222 0.0
Tb80 Tb 0.17104 0.77778 0.38694 0.0
C81 C 0.22835 0.8547 0.43863 0.0
Tb82 Tb 0.24419 0.79098 0.42717 0.0
O83 O 0.1641 0.79053 0.52728 0.0
O84 O 0.19595 0.76838 0.50156 0.0
O85 O 0.19838 0.83567 0.39206 0.0
C86 C 0.30518 0.80357 0.50431 0.0
O87 O 0.24762 0.84085 0.46866 0.0
C88 C 0.229 0.78708 0.25091 0.0
C89 C 0.18796 0.71496 0.36962 0.0
O90 O 0.30239 0.82201 0.43834 0.0
O91 O 0.27385 0.77851 0.52638 0.0
O92 O 0.25115 0.7786 0.28581 0.0
O93 O 0.21935 0.80059 0.31304 0.0
O94 O 0.21675 0.73369 0.41964 0.0
O95 O 0.16879 0.72877 0.33913 0.0
C96 C 0.10518 0.75343 0.32398 0.0
O97 O 0.1144 0.74027 0.39082 0.0
O98 O 0.13322 0.78115 0.29234 0.0
C99 C 0.18606 0.78201 0.56317 0.0
Tb100 Tb 0.38495 0.17832 0.67178 0.0
C101 C 0.36094 0.23489 0.71089 0.0
Tb102 Tb 0.44327 0.26014 0.71445 0.0
O103 O 0.37599 0.16098 0.81729 0.0
O104 O 0.4111 0.21196 0.78265 0.0
O105 O 0.35224 0.20359 0.67269 0.0
C106 C 0.48932 0.31728 0.80883 0.0
O107 O 0.39327 0.25821 0.74127 0.0
C108 C 0.43148 0.24625 0.53544 0.0
C109 C 0.46822 0.20618 0.6596 0.0
O110 O 0.46766 0.31691 0.74677 0.0
O111 O 0.48473 0.28556 0.81774 0.0
O112 O 0.45493 0.27692 0.56926 0.0
O113 O 0.41666 0.22661 0.60331 0.0
O114 O 0.47632 0.23608 0.7033 0.0
O115 O 0.43558 0.18306 0.63112 0.0
C116 C 0.34767 0.11463 0.59267 0.0
O117 O 0.37844 0.12733 0.63136 0.0
O118 O 0.33729 0.13797 0.59828 0.0
C119 C 0.39827 0.19202 0.85073 0.0
H120 H 0.36821 0.29936 0.67954 0.0
H121 H 0.29273 0.19395 0.77148 0.0
H122 H 0.327 0.31984 0.71876 0.0
H123 H 0.25147 0.21479 0.81329 0.0
H124 H 0.22934 0.29222 1.00473 0.0
H125 H 0.25827 0.26131 0.9399 0.0
H126 H 0.26441 0.30969 0.67795 0.0
H127 H 0.23489 0.34016 0.74245 0.0
C128 C 0.34249 0.28045 0.70688 0.0
C129 C 0.33357 0.2451 0.72246 0.0
C130 C 0.31886 0.29214 0.72896 0.0
C131 C 0.28606 0.26892 0.76913 0.0
C132 C 0.27662 0.23321 0.78239 0.0
C133 C 0.30004 0.22126 0.75805 0.0
C134 C 0.23627 0.2957 0.93288 0.0
C135 C 0.2301 0.31871 0.87867 0.0
C136 C 0.25262 0.27785 0.89569 0.0
C137 C 0.26361 0.28314 0.80395 0.0
C138 C 0.25627 0.30521 0.74893 0.0
C139 C 0.23937 0.32258 0.78576 0.0
H140 H 0.08303 0.29461 1.03312 0.0
H141 H 0.07319 0.38664 0.09365 0.0
H142 H 0.02279 0.2561 0.09222 0.0
H143 H 0.01417 0.34855 0.15274 0.0
H144 H 0.93909 0.27812 0.37292 0.0
H145 H -0.00305 0.30865 0.2999 0.0
H146 H 0.9539 0.24133 0.06207 0.0
H147 H 0.89526 0.21065 0.13538 0.0
C148 C 0.06797 0.3066 0.05747 0.0
C149 C 0.08323 0.34378 0.05964 0.0
C150 C 0.03358 0.28457 0.0913 0.0
C151 C 0.01418 0.29948 0.1284 0.0
C152 C 0.02878 0.3364 0.12604 0.0
C153 C 0.0627 0.35822 0.09187 0.0
C154 C 0.94195 0.26948 0.30551 0.0
C155 C 0.91264 0.2422 0.25953 0.0
C156 C 0.97506 0.28702 0.26365 0.0
C157 C 0.97977 0.27754 0.17507 0.0
C158 C 0.95092 0.24906 0.13048 0.0
C159 C 0.91747 0.23164 0.17225 0.0
H160 H 0.79005 0.09293 0.41876 0.0
H161 H 0.68468 0.07814 0.44098 0.0
H162 H 0.7664 0.02987 0.45402 0.0
H163 H 0.6614 0.01585 0.47592 0.0
H164 H 0.62281 0.89972 0.45813 0.0
H165 H 0.65196 0.96052 0.40132 0.0
H166 H 0.73821 0.98941 0.59148 0.0
H167 H 0.70895 0.92822 0.64819 0.0
C168 C 0.76189 0.07623 0.43025 0.0
C169 C 0.73928 0.09061 0.4271 0.0
C170 C 0.7484 0.04022 0.45093 0.0
C171 C 0.712 0.01784 0.4673 0.0
C172 C 0.68947 0.0322 0.46239 0.0
C173 C 0.70292 0.06807 0.44296 0.0
C174 C 0.64827 0.9189 0.48684 0.0
C175 C 0.66348 0.90936 0.55813 0.0
C176 C 0.66489 0.95376 0.45458 0.0
C177 C 0.69718 0.97989 0.49267 0.0
C178 C 0.71343 0.96986 0.56048 0.0
C179 C 0.69665 0.93489 0.59314 0.0
H180 H 0.60713 0.68609 0.72618 0.0
H181 H 0.69067 0.79399 0.77317 0.0
H182 H 0.64709 0.6645 0.76895 0.0
H183 H 0.73076 0.77213 0.81777 0.0
H184 H 0.75852 0.70382 1.02643 0.0
H185 H 0.729 0.73351 0.95737 0.0
H186 H 0.70491 0.66741 0.71711 0.0
H187 H 0.73479 0.63805 0.78559 0.0
C188 C 0.63421 0.70523 0.74468 0.0
C189 C 0.64579 0.74172 0.74657 0.0
C190 C 0.65713 0.69286 0.76866 0.0
C191 C 0.692 0.71664 0.79671 0.0
C192 C 0.70396 0.75325 0.79654 0.0
C193 C 0.68114 0.76574 0.77058 0.0
C194 C 0.74751 0.69616 0.95816 0.0
C195 C 0.74869 0.66852 0.91153 0.0
C196 C 0.73079 0.71325 0.9185 0.0
C197 C 0.71455 0.70263 0.83209 0.0
C198 C 0.71705 0.67596 0.78401 0.0
C199 C 0.73419 0.65925 0.8231 0.0
H200 H 0.07697 0.78109 0.20195 0.0
H201 H 0.05138 0.68831 0.36308 0.0
H202 H 0.01532 0.75247 0.14717 0.0
H203 H -0.00877 0.65931 0.30609 0.0
H204 H 0.87874 0.62484 0.27221 0.0
H205 H 0.93933 0.66131 0.3248 0.0
H206 H 0.97057 0.70541 0.05343 0.0
H207 H 0.90868 0.66988 1.00227 0.0
C208 C 0.05821 0.75459 0.22518 0.0
C209 C 0.06873 0.73707 0.28761 0.0
C210 C 0.02301 0.7381 0.19355 0.0
C211 C -0.00202 0.70374 0.22335 0.0
C212 C 0.00921 0.68617 0.28382 0.0
C213 C 0.04391 0.70272 0.31612 0.0
C214 C 0.89852 0.64256 0.22396 0.0
C215 C 0.88928 0.6442 0.13294 0.0
C216 C 0.93337 0.66334 0.25384 0.0
C217 C 0.96022 0.68565 0.19282 0.0
C218 C 0.95065 0.68855 0.10236 0.0
C219 C 0.91531 0.66816 0.07284 0.0
H220 H 0.37466 0.07302 0.54779 0.0
H221 H 0.2763 0.07428 0.55234 0.0
H222 H 0.3431 0.01085 0.50423 0.0
H223 H 0.24404 0.01086 0.51024 0.0
H224 H 0.20835 0.90005 0.36115 0.0
H225 H 0.23503 0.96417 0.38957 0.0
H226 H 0.30392 0.95835 0.59308 0.0
H227 H 0.27815 0.89545 0.56434 0.0
C228 C 0.34618 0.05996 0.53885 0.0
C229 C 0.32785 0.07831 0.55459 0.0
C230 C 0.32804 0.02423 0.51434 0.0
C231 C 0.29095 0.00565 0.50589 0.0
C232 C 0.27262 0.02445 0.51651 0.0
C233 C 0.291 0.06064 0.54066 0.0
C234 C 0.22904 0.91255 0.41231 0.0
C235 C 0.24152 0.89271 0.45929 0.0
C236 C 0.24423 0.9492 0.42866 0.0
C237 C 0.2721 0.96647 0.4922 0.0
C238 C 0.28323 0.94613 0.5418 0.0
C239 C 0.26829 0.9099 0.52542 0.0
H240 H 0.23693 0.48095 0.73536 0.0
H241 H 0.15038 0.37379 0.7634 0.0
H242 H 0.23877 0.4721 0.57163 0.0
H243 H 0.15018 0.36525 0.59833 0.0
H244 H 0.17382 0.34759 0.30829 0.0
H245 H 0.17475 0.35608 0.47247 0.0
H246 H 0.21505 0.4683 0.4308 0.0
H247 H 0.21697 0.4598 0.26643 0.0
C248 C 0.21804 0.45547 0.70606 0.0
C249 C 0.19353 0.42808 0.76239 0.0
C250 C 0.21877 0.45042 0.61143 0.0
C251 C 0.19443 0.41798 0.56945 0.0
C252 C 0.16992 0.39048 0.62674 0.0
C253 C 0.16977 0.39535 0.72189 0.0
C254 C 0.18304 0.37415 0.33423 0.0
C255 C 0.19497 0.40297 0.27372 0.0
C256 C 0.18321 0.37905 0.42913 0.0
C257 C 0.19467 0.41292 0.46709 0.0
C258 C 0.2065 0.44179 0.40585 0.0
C259 C 0.20709 0.43693 0.31077 0.0
H260 H 0.75684 0.24631 0.10612 0.0
H261 H 0.77627 0.15899 0.13634 0.0
H262 H 0.76748 0.24777 0.9424 0.0
H263 H 0.78453 0.15841 0.97158 0.0
H264 H 0.82522 0.18079 0.68151 0.0
H265 H 0.81828 0.1826 0.84569 0.0
H266 H 0.74689 0.2233 0.80223 0.0
H267 H 0.75668 0.22431 0.63794 0.0
C268 C 0.76315 0.22718 0.07728 0.0
C269 C 0.76568 0.20252 0.13409 0.0
C270 C 0.76891 0.2277 0.98275 0.0
C271 C 0.77663 0.20299 0.94155 0.0
C272 C 0.77934 0.17841 0.99941 0.0
C273 C 0.77436 0.17848 0.09437 0.0
C274 C 0.80811 0.19025 0.70708 0.0
C275 C 0.79116 0.20201 0.64612 0.0
C276 C 0.80376 0.19096 0.80194 0.0
C277 C 0.78168 0.2028 0.83933 0.0
C278 C 0.76458 0.21446 0.77766 0.0
C279 C 0.76964 0.21449 0.68264 0.0
H280 H 0.50149 0.73032 0.41997 0.0
H281 H 0.61305 0.80093 0.46737 0.0
H282 H 0.51022 0.7413 0.25593 0.0
H283 H 0.62185 0.81237 0.30229 0.0
H284 H 0.61493 0.8514 1.01055 0.0
H285 H 0.60722 0.84081 0.17522 0.0
H286 H 0.53796 0.729 0.12403 0.0
H287 H 0.5465 0.73977 0.95927 0.0
C288 C 0.52796 0.74832 0.39539 0.0
C289 C 0.55655 0.76479 0.45721 0.0
C290 C 0.53299 0.75446 0.30094 0.0
C291 C 0.56676 0.77762 0.2651 0.0
C292 C 0.59539 0.79455 0.32715 0.0
C293 C 0.5904 0.78801 0.42192 0.0
C294 C 0.59795 0.82452 1.03432 0.0
C295 C 0.58066 0.79647 0.97107 0.0
C296 C 0.59371 0.81842 0.12905 0.0
C297 C 0.57183 0.78405 0.16366 0.0
C298 C 0.55457 0.75594 0.10026 0.0
C299 C 0.55918 0.76206 1.0054 0.0
H300 H 0.82475 0.61497 0.81483 0.0
H301 H 0.74239 0.50599 0.78228 0.0
H302 H 0.82416 0.62391 0.65002 0.0
H303 H 0.7399 0.51503 0.61891 0.0
H304 H 0.76138 0.5294 0.31378 0.0
H305 H 0.76399 0.52081 0.4778 0.0
H306 H 0.79816 0.63162 0.52377 0.0
H307 H 0.79799 0.64027 0.35966 0.0
C308 C 0.80616 0.59303 0.77245 0.0
C309 C 0.7838 0.55973 0.8118 0.0
C310 C 0.80555 0.59812 0.67739 0.0
C311 C 0.78203 0.57021 0.6188 0.0
C312 C 0.75913 0.53713 0.65959 0.0
C313 C 0.76026 0.53193 0.75412 0.0
C314 C 0.76987 0.55194 0.35893 0.0
C315 C 0.77981 0.58555 0.32293 0.0
C316 C 0.77095 0.54702 0.45391 0.0
C317 C 0.7813 0.57546 0.51639 0.0
C318 C 0.79079 0.60901 0.47953 0.0
C319 C 0.79034 0.61398 0.38465 0.0
H320 H 0.15444 0.79871 0.69933 0.0
H321 H 0.23071 0.76482 0.65534 0.0
H322 H 0.16261 0.79829 0.86354 0.0
H323 H 0.24146 0.76717 0.81943 0.0
H324 H 0.23437 0.74481 0.12278 0.0
H325 H 0.22285 0.74215 0.95924 0.0
H326 H 0.19591 0.82483 0.98979 0.0
H327 H 0.20516 0.82531 0.15465 0.0
C328 C 0.17344 0.79162 0.72479 0.0
C329 C 0.19214 0.78204 0.66369 0.0
C330 C 0.17847 0.79173 0.81965 0.0
C331 C 0.20298 0.78295 0.85688 0.0
C332 C 0.22185 0.77354 0.79504 0.0
C333 C 0.21616 0.77268 0.70008 0.0
C334 C 0.22576 0.76224 0.09431 0.0
C335 C 0.22075 0.78531 0.15157 0.0
C336 C 0.21946 0.76104 0.99986 0.0
C337 C 0.20869 0.78352 0.95907 0.0
C338 C 0.20353 0.80654 1.01732 0.0
C339 C 0.20907 0.8071 0.11231 0.0
H340 H 0.47267 0.28641 0.39574 0.0
H341 H 0.37926 0.1858 0.44992 0.0
H342 H 0.46594 0.27372 0.23269 0.0
H343 H 0.37114 0.17343 0.28536 0.0
H344 H 0.38199 0.14587 0.99111 0.0
H345 H 0.3902 0.15806 0.15455 0.0
H346 H 0.4355 0.27014 0.09982 0.0
H347 H 0.42846 0.25759 0.93549 0.0
C348 C 0.45043 0.26153 0.37255 0.0
C349 C 0.42652 0.2371 0.43605 0.0
C350 C 0.44632 0.25434 0.27835 0.0
C351 C 0.41781 0.22257 0.24397 0.0
C352 C 0.39381 0.198 0.30811 0.0
C353 C 0.39824 0.20509 0.40286 0.0
C354 C 0.39396 0.17318 1.01407 0.0
C355 C 0.40493 0.2008 0.95009 0.0
C356 C 0.39837 0.18021 0.10837 0.0
C357 C 0.41343 0.21517 0.14224 0.0
C358 C 0.4244 0.24288 0.07756 0.0
C359 C 0.42037 0.23579 0.98285 0.0
H360 H 0.16811 0.50644 0.29053 0.0
H361 H 0.16625 0.54585 1.02097 0.0
H362 H 0.16591 0.55657 0.35895 0.0
H363 H 0.16483 0.59645 0.08903 0.0
H364 H 0.14013 0.67283 0.23842 0.0
H365 H 0.13063 0.61613 0.17928 0.0
H366 H 0.20753 0.6196 0.37236 0.0
H367 H 0.21655 0.67565 0.43232 0.0
C368 C 0.16693 0.52571 0.24599 0.0
C369 C 0.16754 0.52245 0.15056 0.0
C370 C 0.16586 0.55451 0.28509 0.0
C371 C 0.16547 0.5807 0.22951 0.0
C372 C 0.16473 0.5766 0.13386 0.0
C373 C 0.16575 0.54775 0.0948 0.0
C374 C 0.15458 0.6612 0.26919 0.0
C375 C 0.17921 0.67888 0.3399 0.0
C376 C 0.14932 0.62884 0.23481 0.0
C377 C 0.16841 0.61337 0.2708 0.0
C378 C 0.19206 0.63049 0.34369 0.0
C379 C 0.19742 0.66283 0.37771 0.0
H380 H 0.61631 0.16109 0.37794 0.0
H381 H 0.66385 0.1971 0.64456 0.0
H382 H 0.56439 0.1641 0.42739 0.0
H383 H 0.61168 0.19945 0.69498 0.0
H384 H 0.53841 0.24701 0.70391 0.0
H385 H 0.58679 0.23709 0.66362 0.0
H386 H 0.51305 0.13924 0.52758 0.0
H387 H 0.46444 0.14947 0.56637 0.0
C388 C 0.61534 0.16906 0.44764 0.0
C389 C 0.64411 0.17904 0.50731 0.0
C390 C 0.58554 0.17065 0.47616 0.0
C391 C 0.58395 0.1823 0.56498 0.0
C392 C 0.61228 0.19095 0.62564 0.0
C393 C 0.64205 0.18936 0.59706 0.0
C394 C 0.53234 0.22326 0.66573 0.0
C395 C 0.49742 0.19913 0.63816 0.0
C396 C 0.56015 0.21743 0.64319 0.0
C397 C 0.55385 0.18731 0.59252 0.0
C398 C 0.51889 0.16291 0.56587 0.0
C399 C 0.49099 0.16871 0.58851 0.0
H400 H 0.31487 0.45851 0.90409 0.0
H401 H 0.29907 0.5335 0.06205 0.0
H402 H 0.3741 0.50611 0.86228 0.0
H403 H 0.3569 0.58069 1.01801 0.0
H404 H 0.46914 0.65964 0.97549 0.0
H405 H 0.41819 0.60612 1.03396 0.0
H406 H 0.4011 0.55751 0.76641 0.0
H407 H 0.45338 0.61071 0.70958 0.0
C408 C 0.3241 0.48498 0.93069 0.0
C409 C 0.30209 0.49209 0.98635 0.0
C410 C 0.35795 0.51235 0.90606 0.0
C411 C 0.37046 0.54741 0.93653 0.0
C412 C 0.3487 0.55407 0.9944 0.0
C413 C 0.31517 0.52685 1.01921 0.0
C414 C 0.45478 0.63726 0.92968 0.0
C415 C 0.46491 0.63937 0.8379 0.0
C416 C 0.4254 0.60662 0.96291 0.0
C417 C 0.40495 0.57757 0.90463 0.0
C418 C 0.41624 0.57914 0.81363 0.0
C419 C 0.44608 0.6097 0.78076 0.0
H420 H 0.78815 0.31681 0.47551 0.0
H421 H 0.82923 0.30904 0.21365 0.0
H422 H 0.79483 0.37381 0.43208 0.0
H423 H 0.83415 0.36525 0.16742 0.0
H424 H 0.85364 0.47697 0.12047 0.0
H425 H 0.85972 0.42754 0.17909 0.0
H426 H 0.76418 0.3921 0.33738 0.0
H427 H 0.75937 0.44207 0.28231 0.0
C428 C 0.7989 0.32754 0.40877 0.0
C429 C 0.80803 0.30851 0.3478 0.0
C430 C 0.80241 0.36007 0.38333 0.0
C431 C 0.81427 0.37396 0.29527 0.0
C432 C 0.82516 0.35567 0.23598 0.0
C433 C 0.82231 0.32338 0.26232 0.0
C434 C 0.83427 0.45871 0.16862 0.0
C435 C 0.80608 0.4633 0.19702 0.0
C436 C 0.83758 0.43026 0.20183 0.0
C437 C 0.81254 0.40569 0.26347 0.0
C438 C 0.78453 0.41076 0.29194 0.0
C439 C 0.78152 0.4393 0.25967 0.0
H440 H 0.31184 0.75791 0.61623 0.0
H441 H 0.37297 0.8585 0.47996 0.0
H442 H 0.36577 0.76131 0.67242 0.0
H443 H 0.42757 0.86325 0.54076 0.0
H444 H 0.51581 0.83375 0.56226 0.0
H445 H 0.46493 0.83975 0.52115 0.0
H446 H 0.41311 0.78699 0.77223 0.0
H447 H 0.46319 0.77911 0.80978 0.0
C448 C 0.33696 0.78116 0.59976 0.0
C449 C 0.3383 0.80786 0.54343 0.0
C450 C 0.36803 0.78335 0.63283 0.0
C451 C 0.40135 0.81268 0.61184 0.0
C452 C 0.40253 0.83999 0.55737 0.0
C453 C 0.3713 0.83746 0.52294 0.0
C454 C 0.49374 0.82398 0.60927 0.0
C455 C 0.49325 0.80564 0.68873 0.0
C456 C 0.46452 0.82753 0.58591 0.0
C457 C 0.43441 0.81336 0.64247 0.0
C458 C 0.43521 0.79725 0.72533 0.0
C459 C 0.46407 0.793 0.74751 0.0
H460 H 0.67117 0.52415 0.90262 0.0
H461 H 0.66756 0.46541 0.14389 0.0
H462 H 0.61376 0.47528 0.85402 0.0
H463 H 0.60941 0.41736 0.09852 0.0
H464 H 0.5398 0.32029 0.92244 0.0
H465 H 0.58967 0.37248 0.98889 0.0
H466 H 0.5517 0.43843 0.87037 0.0
H467 H 0.50226 0.38568 0.80011 0.0
C468 C 0.65754 0.50122 0.94664 0.0
C469 C 0.67393 0.49833 1.0264 0.0
C470 C 0.62454 0.47317 0.91899 0.0
C471 C 0.60708 0.44194 0.97142 0.0
C472 C 0.62248 0.44045 0.05486 0.0
C473 C 0.6557 0.46811 0.08141 0.0
C474 C 0.54191 0.34589 0.91126 0.0
C475 C 0.51731 0.349 0.85584 0.0
C476 C 0.57041 0.37593 0.95012 0.0
C477 C 0.57485 0.4099 0.93555 0.0
C478 C 0.54946 0.41282 0.88218 0.0
C479 C 0.52101 0.38263 0.84241 0.0
loop_
_geom_bond_atom_site_label_1
_geom_bond_atom_site_label_2
_geom_bond_distance
_geom_bond_site_symmetry_2
_ccdc_geom_bond_type
Tb0 O3 2.453 . S
Tb0 O4 2.596 . S
Tb0 O5 2.374 . S
Tb0 O13 2.343 1_554 S
Tb0 O15 2.353 . S
Tb0 O17 2.427 1_554 S
Tb0 O18 2.513 1_554 S
C1 O5 1.251 . S
C1 O7 1.263 . S
Tb2 O4 2.343 1_556 S
Tb2 O7 2.353 1_556 S
Tb2 O10 2.427 1_556 S
Tb2 O11 2.513 1_556 S
Tb2 O12 2.453 . S
Tb2 O13 2.596 . S
Tb2 O14 2.374 . S
O3 Tb0 2.453 . S
O3 C19 1.245 . S
O4 Tb0 2.596 . S
O4 Tb2 2.343 1_554 S
O4 C19 1.259 . S
O5 Tb0 2.374 . S
O5 C1 1.251 . S
C6 O10 1.275 . S
C6 O11 1.246 . S
O7 C1 1.263 . S
O7 Tb2 2.353 1_554 S
C8 O12 1.245 . S
C8 O13 1.259 . S
C9 O14 1.250 . S
C9 O15 1.263 1_556 S
O10 Tb2 2.427 1_554 S
O10 C6 1.275 . S
O11 Tb2 2.513 1_554 S
O11 C6 1.246 . S
O12 Tb2 2.453 . S
O12 C8 1.245 . S
O13 Tb0 2.343 1_556 S
O13 Tb2 2.596 . S
O13 C8 1.259 . S
O14 Tb2 2.374 . S
O14 C9 1.250 . S
O15 Tb0 2.353 . S
O15 C9 1.263 1_554 S
C16 O17 1.275 . S
C16 O18 1.246 . S
O17 Tb0 2.427 1_556 S
O17 C16 1.275 . S
O18 Tb0 2.513 1_556 S
O18 C16 1.246 . S
C19 O3 1.245 . S
C19 O4 1.259 . S
Tb20 O23 2.453 . S
Tb20 O24 2.596 . S
Tb20 O25 2.374 . S
Tb20 O33 2.343 . S
Tb20 O35 2.353 . S
Tb20 O37 2.427 . S
Tb20 O38 2.513 . S
C21 O25 1.251 . S
C21 O27 1.263 . S
Tb22 O24 2.343 . S
Tb22 O27 2.353 . S
Tb22 O30 2.427 . S
Tb22 O31 2.513 . S
Tb22 O32 2.453 . S
Tb22 O33 2.596 . S
Tb22 O34 2.374 . S
O23 Tb20 2.453 . S
O23 C39 1.245 . S
O24 Tb20 2.596 . S
O24 Tb22 2.343 . S
O24 C39 1.259 . S
O25 Tb20 2.374 . S
O25 C21 1.251 . S
C26 O30 1.275 . S
C26 O31 1.246 . S
O27 C21 1.263 . S
O27 Tb22 2.353 . S
C28 O32 1.245 . S
C28 O33 1.259 . S
C29 O34 1.250 . S
C29 O35 1.263 . S
O30 Tb22 2.427 . S
O30 C26 1.275 . S
O31 Tb22 2.513 . S
O31 C26 1.246 . S
O32 Tb22 2.453 . S
O32 C28 1.245 . S
O33 Tb20 2.343 . S
O33 Tb22 2.596 . S
O33 C28 1.259 . S
O34 Tb22 2.374 . S
O34 C29 1.250 . S
O35 Tb20 2.353 . S
O35 C29 1.263 . S
C36 O37 1.275 . S
C36 O38 1.246 . S
O37 Tb20 2.427 . S
O37 C36 1.275 . S
O38 Tb20 2.513 . S
O38 C36 1.246 . S
C39 O23 1.245 . S
C39 O24 1.259 . S
Tb40 O43 2.453 . S
Tb40 O44 2.596 . S
Tb40 O45 2.374 . S
Tb40 O53 2.343 . S
Tb40 O55 2.353 . S
Tb40 O57 2.427 . S
Tb40 O58 2.513 . S
C41 O45 1.251 . S
C41 O47 1.263 . S
Tb42 O44 2.343 . S
Tb42 O47 2.353 . S
Tb42 O50 2.427 . S
Tb42 O51 2.513 . S
Tb42 O52 2.453 . S
Tb42 O53 2.596 . S
Tb42 O54 2.374 . S
O43 Tb40 2.453 . S
O43 C59 1.245 . S
O44 Tb40 2.596 . S
O44 Tb42 2.343 . S
O44 C59 1.259 . S
O45 Tb40 2.374 . S
O45 C41 1.251 . S
C46 O50 1.275 . S
C46 O51 1.246 . S
O47 C41 1.263 . S
O47 Tb42 2.353 . S
C48 O52 1.245 . S
C48 O53 1.259 . S
C49 O54 1.250 . S
C49 O55 1.263 . S
O50 Tb42 2.427 . S
O50 C46 1.275 . S
O51 Tb42 2.513 . S
O51 C46 1.246 . S
O52 Tb42 2.453 . S
O52 C48 1.245 . S
O53 Tb40 2.343 . S
O53 Tb42 2.596 . S
O53 C48 1.259 . S
O54 Tb42 2.374 . S
O54 C49 1.250 . S
O55 Tb40 2.353 . S
O55 C49 1.263 . S
C56 O57 1.275 . S
C56 O58 1.246 . S
O57 Tb40 2.427 . S
O57 C56 1.275 . S
O58 Tb40 2.513 . S
O58 C56 1.246 . S
C59 O43 1.245 . S
C59 O44 1.259 . S
Tb60 O63 2.453 . S
Tb60 O64 2.596 . S
Tb60 O65 2.374 . S
Tb60 O73 2.343 1_554 S
Tb60 O75 2.353 . S
Tb60 O77 2.427 1_554 S
Tb60 O78 2.513 1_554 S
C61 O65 1.251 . S
C61 O67 1.263 . S
Tb62 O64 2.343 1_556 S
Tb62 O67 2.353 1_556 S
Tb62 O70 2.427 1_556 S
Tb62 O71 2.513 1_556 S
Tb62 O72 2.453 . S
Tb62 O73 2.596 . S
Tb62 O74 2.374 . S
O63 Tb60 2.453 . S
O63 C79 1.245 . S
O64 Tb60 2.596 . S
O64 Tb62 2.343 1_554 S
O64 C79 1.259 . S
O65 Tb60 2.374 . S
O65 C61 1.251 . S
C66 O70 1.275 . S
C66 O71 1.246 . S
O67 C61 1.263 . S
O67 Tb62 2.353 1_554 S
C68 O72 1.245 . S
C68 O73 1.259 . S
C69 O74 1.250 . S
C69 O75 1.263 1_556 S
O70 Tb62 2.427 1_554 S
O70 C66 1.275 . S
O71 Tb62 2.513 1_554 S
O71 C66 1.246 . S
O72 Tb62 2.453 . S
O72 C68 1.245 . S
O73 Tb60 2.343 1_556 S
O73 Tb62 2.596 . S
O73 C68 1.259 . S
O74 Tb62 2.374 . S
O74 C69 1.250 . S
O75 Tb60 2.353 . S
O75 C69 1.263 1_554 S
C76 O77 1.275 . S
C76 O78 1.246 . S
O77 Tb60 2.427 1_556 S
O77 C76 1.275 . S
O78 Tb60 2.513 1_556 S
O78 C76 1.246 . S
C79 O63 1.245 . S
C79 O64 1.259 . S
Tb80 O83 2.453 . S
Tb80 O84 2.596 . S
Tb80 O85 2.374 . S
Tb80 O93 2.343 . S
Tb80 O95 2.353 . S
Tb80 O97 2.427 . S
Tb80 O98 2.513 . S
C81 O85 1.251 . S
C81 O87 1.263 . S
Tb82 O84 2.343 . S
Tb82 O87 2.353 . S
Tb82 O90 2.427 . S
Tb82 O91 2.513 . S
Tb82 O92 2.453 . S
Tb82 O93 2.596 . S
Tb82 O94 2.374 . S
O83 Tb80 2.453 . S
O83 C99 1.245 . S
O84 Tb80 2.596 . S
O84 Tb82 2.343 . S
O84 C99 1.259 . S
O85 Tb80 2.374 . S
O85 C81 1.251 . S
C86 O90 1.275 . S
C86 O91 1.246 . S
O87 C81 1.263 . S
O87 Tb82 2.353 . S
C88 O92 1.245 . S
C88 O93 1.259 . S
C89 O94 1.250 . S
C89 O95 1.263 . S
O90 Tb82 2.427 . S
O90 C86 1.275 . S
O91 Tb82 2.513 . S
O91 C86 1.246 . S
O92 Tb82 2.453 . S
O92 C88 1.245 . S
O93 Tb80 2.343 . S
O93 Tb82 2.596 . S
O93 C88 1.259 . S
O94 Tb82 2.374 . S
O94 C89 1.250 . S
O95 Tb80 2.353 . S
O95 C89 1.263 . S
C96 O97 1.275 . S
C96 O98 1.246 . S
O97 Tb80 2.427 . S
O97 C96 1.275 . S
O98 Tb80 2.513 . S
O98 C96 1.246 . S
C99 O83 1.245 . S
C99 O84 1.259 . S
Tb100 O103 2.453 . S
Tb100 O104 2.596 . S
Tb100 O105 2.374 . S
Tb100 O113 2.343 . S
Tb100 O115 2.353 . S
Tb100 O117 2.427 . S
Tb100 O118 2.513 . S
C101 O105 1.251 . S
C101 O107 1.263 . S
Tb102 O104 2.343 . S
Tb102 O107 2.353 . S
Tb102 O110 2.427 . S
Tb102 O111 2.513 . S
Tb102 O112 2.453 . S
Tb102 O113 2.596 . S
Tb102 O114 2.374 . S
O103 Tb100 2.453 . S
O103 C119 1.245 . S
O104 Tb100 2.596 . S
O104 Tb102 2.343 . S
O104 C119 1.259 . S
O105 Tb100 2.374 . S
O105 C101 1.251 . S
C106 O110 1.275 . S
C106 O111 1.246 . S
O107 C101 1.263 . S
O107 Tb102 2.353 . S
C108 O112 1.245 . S
C108 O113 1.259 . S
C109 O114 1.250 . S
C109 O115 1.263 . S
O110 Tb102 2.427 . S
O110 C106 1.275 . S
O111 Tb102 2.513 . S
O111 C106 1.246 . S
O112 Tb102 2.453 . S
O112 C108 1.245 . S
O113 Tb100 2.343 . S
O113 Tb102 2.596 . S
O113 C108 1.259 . S
O114 Tb102 2.374 . S
O114 C109 1.250 . S
O115 Tb100 2.353 . S
O115 C109 1.263 . S
C116 O117 1.275 . S
C116 O118 1.246 . S
O117 Tb100 2.427 . S
O117 C116 1.275 . S
O118 Tb100 2.513 . S
O118 C116 1.246 . S
C119 O103 1.245 . S
C119 O104 1.259 . S
H120 C128 0.950 . S
H121 C133 0.950 . S
H122 C130 0.950 . S
H123 C132 0.950 . S
H124 C134 0.950 . S
H125 C136 0.950 . S
H126 C138 0.950 . S
H127 C139 0.950 . S
C128 H120 0.950 . S
C128 C129 1.386 . S
C128 C130 1.391 . S
C129 C128 1.386 . S
C129 C133 1.393 . S
C130 H122 0.950 . S
C130 C128 1.391 . S
C130 C131 1.400 . S
C131 C130 1.400 . S
C131 C132 1.398 . S
C131 C137 1.491 . S
C132 H123 0.950 . S
C132 C131 1.398 . S
C132 C133 1.391 . S
C133 H121 0.950 . S
C133 C129 1.393 . S
C133 C132 1.391 . S
C134 H124 0.950 . S
C134 C135 1.386 . S
C134 C136 1.391 . S
C135 C134 1.386 . S
C135 C139 1.393 . S
C136 H125 0.950 . S
C136 C134 1.391 . S
C136 C137 1.400 . S
C137 C131 1.491 . S
C137 C136 1.400 . S
C137 C138 1.398 . S
C138 H126 0.950 . S
C138 C137 1.398 . S
C138 C139 1.391 . S
C139 H127 0.950 . S
C139 C135 1.393 . S
C139 C138 1.391 . S
H140 C148 0.950 . S
H141 C153 0.950 1_556 S
H142 C150 0.950 . S
H143 C152 0.950 . S
H144 C154 0.950 . S
H145 C156 0.950 . S
H146 C158 0.950 . S
H147 C159 0.950 . S
C148 H140 0.950 . S
C148 C149 1.386 . S
C148 C150 1.391 . S
C149 C148 1.386 . S
C149 C153 1.393 . S
C150 H142 0.950 . S
C150 C148 1.391 . S
C150 C151 1.400 . S
C151 C150 1.400 . S
C151 C152 1.398 . S
C151 C157 1.491 1_455 S
C152 H143 0.950 . S
C152 C151 1.398 . S
C152 C153 1.391 . S
C153 H141 0.950 1_554 S
C153 C149 1.393 . S
C153 C152 1.391 . S
C154 H144 0.950 . S
C154 C155 1.386 . S
C154 C156 1.391 . S
C155 C154 1.386 . S
C155 C159 1.393 . S
C156 H145 0.950 . S
C156 C154 1.391 . S
C156 C157 1.400 . S
C157 C151 1.491 1_655 S
C157 C156 1.400 . S
C157 C158 1.398 . S
C158 H146 0.950 . S
C158 C157 1.398 . S
C158 C159 1.391 . S
C159 H147 0.950 . S
C159 C155 1.393 . S
C159 C158 1.391 . S
H160 C168 0.950 . S
H161 C173 0.950 . S
H162 C170 0.950 . S
H163 C172 0.950 . S
H164 C174 0.950 . S
H165 C176 0.950 . S
H166 C178 0.950 . S
H167 C179 0.950 . S
C168 H160 0.950 . S
C168 C169 1.386 . S
C168 C170 1.391 . S
C169 C168 1.386 . S
C169 C173 1.393 . S
C170 H162 0.950 . S
C170 C168 1.391 . S
C170 C171 1.400 . S
C171 C170 1.400 . S
C171 C172 1.398 . S
C171 C177 1.491 1_545 S
C172 H163 0.950 . S
C172 C171 1.398 . S
C172 C173 1.391 . S
C173 H161 0.950 . S
C173 C169 1.393 . S
C173 C172 1.391 . S
C174 H164 0.950 . S
C174 C175 1.386 . S
C174 C176 1.391 . S
C175 C174 1.386 . S
C175 C179 1.393 . S
C176 H165 0.950 . S
C176 C174 1.391 . S
C176 C177 1.400 . S
C177 C171 1.491 1_565 S
C177 C176 1.400 . S
C177 C178 1.398 . S
C178 H166 0.950 . S
C178 C177 1.398 . S
C178 C179 1.391 . S
C179 H167 0.950 . S
C179 C175 1.393 . S
C179 C178 1.391 . S
H180 C188 0.950 . S
H181 C193 0.950 . S
H182 C190 0.950 . S
H183 C192 0.950 . S
H184 C194 0.950 . S
H185 C196 0.950 . S
H186 C198 0.950 . S
H187 C199 0.950 . S
C188 H180 0.950 . S
C188 C189 1.386 . S
C188 C190 1.391 . S
C189 C188 1.386 . S
C189 C193 1.393 . S
C190 H182 0.950 . S
C190 C188 1.391 . S
C190 C191 1.400 . S
C191 C190 1.400 . S
C191 C192 1.398 . S
C191 C197 1.491 . S
C192 H183 0.950 . S
C192 C191 1.398 . S
C192 C193 1.391 . S
C193 H181 0.950 . S
C193 C189 1.393 . S
C193 C192 1.391 . S
C194 H184 0.950 . S
C194 C195 1.386 . S
C194 C196 1.391 . S
C195 C194 1.386 . S
C195 C199 1.393 . S
C196 H185 0.950 . S
C196 C194 1.391 . S
C196 C197 1.400 . S
C197 C191 1.491 . S
C197 C196 1.400 . S
C197 C198 1.398 . S
C198 H186 0.950 . S
C198 C197 1.398 . S
C198 C199 1.391 . S
C199 H187 0.950 . S
C199 C195 1.393 . S
C199 C198 1.391 . S
H200 C208 0.950 . S
H201 C213 0.950 . S
H202 C210 0.950 . S
H203 C212 0.950 . S
H204 C214 0.950 . S
H205 C216 0.950 . S
H206 C218 0.950 . S
H207 C219 0.950 . S
C208 H200 0.950 . S
C208 C209 1.386 . S
C208 C210 1.391 . S
C209 C208 1.386 . S
C209 C213 1.393 . S
C210 H202 0.950 . S
C210 C208 1.391 . S
C210 C211 1.400 . S
C211 C210 1.400 . S
C211 C212 1.398 . S
C211 C217 1.491 1_455 S
C212 H203 0.950 . S
C212 C211 1.398 . S
C212 C213 1.391 . S
C213 H201 0.950 . S
C213 C209 1.393 . S
C213 C212 1.391 . S
C214 H204 0.950 . S
C214 C215 1.386 . S
C214 C216 1.391 . S
C215 C214 1.386 . S
C215 C219 1.393 . S
C216 H205 0.950 . S
C216 C214 1.391 . S
C216 C217 1.400 . S
C217 C211 1.491 1_655 S
C217 C216 1.400 . S
C217 C218 1.398 . S
C218 H206 0.950 . S
C218 C217 1.398 . S
C218 C219 1.391 . S
C219 H207 0.950 . S
C219 C215 1.393 . S
C219 C218 1.391 . S
H220 C228 0.950 . S
H221 C233 0.950 . S
H222 C230 0.950 . S
H223 C232 0.950 . S
H224 C234 0.950 . S
H225 C236 0.950 . S
H226 C238 0.950 . S
H227 C239 0.950 . S
C228 H220 0.950 . S
C228 C229 1.386 . S
C228 C230 1.391 . S
C229 C228 1.386 . S
C229 C233 1.393 . S
C230 H222 0.950 . S
C230 C228 1.391 . S
C230 C231 1.400 . S
C231 C230 1.400 . S
C231 C232 1.398 . S
C231 C237 1.491 1_545 S
C232 H223 0.950 . S
C232 C231 1.398 . S
C232 C233 1.391 . S
C233 H221 0.950 . S
C233 C229 1.393 . S
C233 C232 1.391 . S
C234 H224 0.950 . S
C234 C235 1.386 . S
C234 C236 1.391 . S
C235 C234 1.386 . S
C235 C239 1.393 . S
C236 H225 0.950 . S
C236 C234 1.391 . S
C236 C237 1.400 . S
C237 C231 1.491 1_565 S
C237 C236 1.400 . S
C237 C238 1.398 . S
C238 H226 0.950 . S
C238 C237 1.398 . S
C238 C239 1.391 . S
C239 H227 0.950 . S
C239 C235 1.393 . S
C239 C238 1.391 . S
H240 C248 0.950 . S
H241 C253 0.950 . S
H242 C250 0.950 . S
H243 C252 0.950 . S
H244 C254 0.950 . S
H245 C256 0.950 . S
H246 C258 0.950 . S
H247 C259 0.950 . S
C248 H240 0.950 . S
C248 C249 1.386 . S
C248 C250 1.391 . S
C249 C248 1.386 . S
C249 C253 1.393 . S
C250 H242 0.950 . S
C250 C248 1.391 . S
C250 C251 1.400 . S
C251 C250 1.400 . S
C251 C252 1.398 . S
C251 C257 1.491 . S
C252 H243 0.950 . S
C252 C251 1.398 . S
C252 C253 1.391 . S
C253 H241 0.950 . S
C253 C249 1.393 . S
C253 C252 1.391 . S
C254 H244 0.950 . S
C254 C255 1.386 . S
C254 C256 1.391 . S
C255 C254 1.386 . S
C255 C259 1.393 . S
C256 H245 0.950 . S
C256 C254 1.391 . S
C256 C257 1.400 . S
C257 C251 1.491 . S
C257 C256 1.400 . S
C257 C258 1.398 . S
C258 H246 0.950 . S
C258 C257 1.398 . S
C258 C259 1.391 . S
C259 H247 0.950 . S
C259 C255 1.393 . S
C259 C258 1.391 . S
H260 C268 0.950 . S
H261 C273 0.950 . S
H262 C270 0.950 . S
H263 C272 0.950 . S
H264 C274 0.950 . S
H265 C276 0.950 . S
H266 C278 0.950 . S
H267 C279 0.950 . S
C268 H260 0.950 . S
C268 C269 1.386 . S
C268 C270 1.391 1_554 S
C269 C268 1.386 . S
C269 C273 1.393 . S
C270 H262 0.950 . S
C270 C268 1.391 1_556 S
C270 C271 1.400 . S
C271 C270 1.400 . S
C271 C272 1.398 . S
C271 C277 1.491 . S
C272 H263 0.950 . S
C272 C271 1.398 . S
C272 C273 1.391 1_556 S
C273 H261 0.950 . S
C273 C269 1.393 . S
C273 C272 1.391 1_554 S
C274 H264 0.950 . S
C274 C275 1.386 . S
C274 C276 1.391 . S
C275 C274 1.386 . S
C275 C279 1.393 . S
C276 H265 0.950 . S
C276 C274 1.391 . S
C276 C277 1.400 . S
C277 C271 1.491 . S
C277 C276 1.400 . S
C277 C278 1.398 . S
C278 H266 0.950 . S
C278 C277 1.398 . S
C278 C279 1.391 . S
C279 H267 0.950 . S
C279 C275 1.393 . S
C279 C278 1.391 . S
H280 C288 0.950 . S
H281 C293 0.950 . S
H282 C290 0.950 . S
H283 C292 0.950 . S
H284 C294 0.950 . S
H285 C296 0.950 . S
H286 C298 0.950 . S
H287 C299 0.950 . S
C288 H280 0.950 . S
C288 C289 1.386 . S
C288 C290 1.391 . S
C289 C288 1.386 . S
C289 C293 1.393 . S
C290 H282 0.950 . S
C290 C288 1.391 . S
C290 C291 1.400 . S
C291 C290 1.400 . S
C291 C292 1.398 . S
C291 C297 1.491 . S
C292 H283 0.950 . S
C292 C291 1.398 . S
C292 C293 1.391 . S
C293 H281 0.950 . S
C293 C289 1.393 . S
C293 C292 1.391 . S
C294 H284 0.950 . S
C294 C295 1.386 . S
C294 C296 1.391 1_556 S
C295 C294 1.386 . S
C295 C299 1.393 . S
C296 H285 0.950 . S
C296 C294 1.391 1_554 S
C296 C297 1.400 . S
C297 C291 1.491 . S
C297 C296 1.400 . S
C297 C298 1.398 . S
C298 H286 0.950 . S
C298 C297 1.398 . S
C298 C299 1.391 1_554 S
C299 H287 0.950 . S
C299 C295 1.393 . S
C299 C298 1.391 1_556 S
H300 C308 0.950 . S
H301 C313 0.950 . S
H302 C310 0.950 . S
H303 C312 0.950 . S
H304 C314 0.950 . S
H305 C316 0.950 . S
H306 C318 0.950 . S
H307 C319 0.950 . S
C308 H300 0.950 . S
C308 C309 1.386 . S
C308 C310 1.391 . S
C309 C308 1.386 . S
C309 C313 1.393 . S
C310 H302 0.950 . S
C310 C308 1.391 . S
C310 C311 1.400 . S
C311 C310 1.400 . S
C311 C312 1.398 . S
C311 C317 1.491 . S
C312 H303 0.950 . S
C312 C311 1.398 . S
C312 C313 1.391 . S
C313 H301 0.950 . S
C313 C309 1.393 . S
C313 C312 1.391 . S
C314 H304 0.950 . S
C314 C315 1.386 . S
C314 C316 1.391 . S
C315 C314 1.386 . S
C315 C319 1.393 . S
C316 H305 0.950 . S
C316 C314 1.391 . S
C316 C317 1.400 . S
C317 C311 1.491 . S
C317 C316 1.400 . S
C317 C318 1.398 . S
C318 H306 0.950 . S
C318 C317 1.398 . S
C318 C319 1.391 . S
C319 H307 0.950 . S
C319 C315 1.393 . S
C319 C318 1.391 . S
H320 C328 0.950 . S
H321 C333 0.950 . S
H322 C330 0.950 . S
H323 C332 0.950 . S
H324 C334 0.950 . S
H325 C336 0.950 . S
H326 C338 0.950 . S
H327 C339 0.950 . S
C328 H320 0.950 . S
C328 C329 1.386 . S
C328 C330 1.391 . S
C329 C328 1.386 . S
C329 C333 1.393 . S
C330 H322 0.950 . S
C330 C328 1.391 . S
C330 C331 1.400 . S
C331 C330 1.400 . S
C331 C332 1.398 . S
C331 C337 1.491 . S
C332 H323 0.950 . S
C332 C331 1.398 . S
C332 C333 1.391 . S
C333 H321 0.950 . S
C333 C329 1.393 . S
C333 C332 1.391 . S
C334 H324 0.950 . S
C334 C335 1.386 . S
C334 C336 1.391 1_554 S
C335 C334 1.386 . S
C335 C339 1.393 . S
C336 H325 0.950 . S
C336 C334 1.391 1_556 S
C336 C337 1.400 . S
C337 C331 1.491 . S
C337 C336 1.400 . S
C337 C338 1.398 . S
C338 H326 0.950 . S
C338 C337 1.398 . S
C338 C339 1.391 1_556 S
C339 H327 0.950 . S
C339 C335 1.393 . S
C339 C338 1.391 1_554 S
H340 C348 0.950 . S
H341 C353 0.950 . S
H342 C350 0.950 . S
H343 C352 0.950 . S
H344 C354 0.950 . S
H345 C356 0.950 . S
H346 C358 0.950 . S
H347 C359 0.950 . S
C348 H340 0.950 . S
C348 C349 1.386 . S
C348 C350 1.391 . S
C349 C348 1.386 . S
C349 C353 1.393 . S
C350 H342 0.950 . S
C350 C348 1.391 . S
C350 C351 1.400 . S
C351 C350 1.400 . S
C351 C352 1.398 . S
C351 C357 1.491 . S
C352 H343 0.950 . S
C352 C351 1.398 . S
C352 C353 1.391 . S
C353 H341 0.950 . S
C353 C349 1.393 . S
C353 C352 1.391 . S
C354 H344 0.950 . S
C354 C355 1.386 . S
C354 C356 1.391 1_556 S
C355 C354 1.386 . S
C355 C359 1.393 . S
C356 H345 0.950 . S
C356 C354 1.391 1_554 S
C356 C357 1.400 . S
C357 C351 1.491 . S
C357 C356 1.400 . S
C357 C358 1.398 . S
C358 H346 0.950 . S
C358 C357 1.398 . S
C358 C359 1.391 1_554 S
C359 H347 0.950 . S
C359 C355 1.393 . S
C359 C358 1.391 1_556 S
H360 C368 0.950 . S
H361 C373 0.950 . S
H362 C370 0.950 . S
H363 C372 0.950 . S
H364 C374 0.950 . S
H365 C376 0.950 . S
H366 C378 0.950 . S
H367 C379 0.950 . S
C368 H360 0.950 . S
C368 C369 1.386 . S
C368 C370 1.391 . S
C369 C368 1.386 . S
C369 C373 1.393 . S
C370 H362 0.950 . S
C370 C368 1.391 . S
C370 C371 1.400 . S
C371 C370 1.400 . S
C371 C372 1.398 . S
C371 C377 1.491 . S
C372 H363 0.950 . S
C372 C371 1.398 . S
C372 C373 1.391 . S
C373 H361 0.950 . S
C373 C369 1.393 . S
C373 C372 1.391 . S
C374 H364 0.950 . S
C374 C375 1.386 . S
C374 C376 1.391 . S
C375 C374 1.386 . S
C375 C379 1.393 . S
C376 H365 0.950 . S
C376 C374 1.391 . S
C376 C377 1.400 . S
C377 C371 1.491 . S
C377 C376 1.400 . S
C377 C378 1.398 . S
C378 H366 0.950 . S
C378 C377 1.398 . S
C378 C379 1.391 . S
C379 H367 0.950 . S
C379 C375 1.393 . S
C379 C378 1.391 . S
H380 C388 0.950 . S
H381 C393 0.950 . S
H382 C390 0.950 . S
H383 C392 0.950 . S
H384 C394 0.950 . S
H385 C396 0.950 . S
H386 C398 0.950 . S
H387 C399 0.950 . S
C388 H380 0.950 . S
C388 C389 1.386 . S
C388 C390 1.391 . S
C389 C388 1.386 . S
C389 C393 1.393 . S
C390 H382 0.950 . S
C390 C388 1.391 . S
C390 C391 1.400 . S
C391 C390 1.400 . S
C391 C392 1.398 . S
C391 C397 1.491 . S
C392 H383 0.950 . S
C392 C391 1.398 . S
C392 C393 1.391 . S
C393 H381 0.950 . S
C393 C389 1.393 . S
C393 C392 1.391 . S
C394 H384 0.950 . S
C394 C395 1.386 . S
C394 C396 1.391 . S
C395 C394 1.386 . S
C395 C399 1.393 . S
C396 H385 0.950 . S
C396 C394 1.391 . S
C396 C397 1.400 . S
C397 C391 1.491 . S
C397 C396 1.400 . S
C397 C398 1.398 . S
C398 H386 0.950 . S
C398 C397 1.398 . S
C398 C399 1.391 . S
C399 H387 0.950 . S
C399 C395 1.393 . S
C399 C398 1.391 . S
H400 C408 0.950 . S
H401 C413 0.950 . S
H402 C410 0.950 . S
H403 C412 0.950 . S
H404 C414 0.950 . S
H405 C416 0.950 . S
H406 C418 0.950 . S
H407 C419 0.950 . S
C408 H400 0.950 . S
C408 C409 1.386 . S
C408 C410 1.391 . S
C409 C408 1.386 . S
C409 C413 1.393 . S
C410 H402 0.950 . S
C410 C408 1.391 . S
C410 C411 1.400 . S
C411 C410 1.400 . S
C411 C412 1.398 . S
C411 C417 1.491 . S
C412 H403 0.950 . S
C412 C411 1.398 . S
C412 C413 1.391 . S
C413 H401 0.950 . S
C413 C409 1.393 . S
C413 C412 1.391 . S
C414 H404 0.950 . S
C414 C415 1.386 . S
C414 C416 1.391 . S
C415 C414 1.386 . S
C415 C419 1.393 . S
C416 H405 0.950 . S
C416 C414 1.391 . S
C416 C417 1.400 . S
C417 C411 1.491 . S
C417 C416 1.400 . S
C417 C418 1.398 . S
C418 H406 0.950 . S
C418 C417 1.398 . S
C418 C419 1.391 . S
C419 H407 0.950 . S
C419 C415 1.393 . S
C419 C418 1.391 . S
H420 C428 0.950 . S
H421 C433 0.950 . S
H422 C430 0.950 . S
H423 C432 0.950 . S
H424 C434 0.950 . S
H425 C436 0.950 . S
H426 C438 0.950 . S
H427 C439 0.950 . S
C428 H420 0.950 . S
C428 C429 1.386 . S
C428 C430 1.391 . S
C429 C428 1.386 . S
C429 C433 1.393 . S
C430 H422 0.950 . S
C430 C428 1.391 . S
C430 C431 1.400 . S
C431 C430 1.400 . S
C431 C432 1.398 . S
C431 C437 1.491 . S
C432 H423 0.950 . S
C432 C431 1.398 . S
C432 C433 1.391 . S
C433 H421 0.950 . S
C433 C429 1.393 . S
C433 C432 1.391 . S
C434 H424 0.950 . S
C434 C435 1.386 . S
C434 C436 1.391 . S
C435 C434 1.386 . S
C435 C439 1.393 . S
C436 H425 0.950 . S
C436 C434 1.391 . S
C436 C437 1.400 . S
C437 C431 1.491 . S
C437 C436 1.400 . S
C437 C438 1.398 . S
C438 H426 0.950 . S
C438 C437 1.398 . S
C438 C439 1.391 . S
C439 H427 0.950 . S
C439 C435 1.393 . S
C439 C438 1.391 . S
H440 C448 0.950 . S
H441 C453 0.950 . S
H442 C450 0.950 . S
H443 C452 0.950 . S
H444 C454 0.950 . S
H445 C456 0.950 . S
H446 C458 0.950 . S
H447 C459 0.950 . S
C448 H440 0.950 . S
C448 C449 1.386 . S
C448 C450 1.391 . S
C449 C448 1.386 . S
C449 C453 1.393 . S
C450 H442 0.950 . S
C450 C448 1.391 . S
C450 C451 1.400 . S
C451 C450 1.400 . S
C451 C452 1.398 . S
C451 C457 1.491 . S
C452 H443 0.950 . S
C452 C451 1.398 . S
C452 C453 1.391 . S
C453 H441 0.950 . S
C453 C449 1.393 . S
C453 C452 1.391 . S
C454 H444 0.950 . S
C454 C455 1.386 . S
C454 C456 1.391 . S
C455 C454 1.386 . S
C455 C459 1.393 . S
C456 H445 0.950 . S
C456 C454 1.391 . S
C456 C457 1.400 . S
C457 C451 1.491 . S
C457 C456 1.400 . S
C457 C458 1.398 . S
C458 H446 0.950 . S
C458 C457 1.398 . S
C458 C459 1.391 . S
C459 H447 0.950 . S
C459 C455 1.393 . S
C459 C458 1.391 . S
H460 C468 0.950 . S
H461 C473 0.950 1_554 S
H462 C470 0.950 . S
H463 C472 0.950 1_554 S
H464 C474 0.950 . S
H465 C476 0.950 . S
H466 C478 0.950 . S
H467 C479 0.950 . S
C468 H460 0.950 . S
C468 C469 1.386 . S
C468 C470 1.391 . S
C469 C468 1.386 . S
C469 C473 1.393 . S
C470 H462 0.950 . S
C470 C468 1.391 . S
C470 C471 1.400 . S
C471 C470 1.400 . S
C471 C472 1.398 . S
C471 C477 1.491 . S
C472 H463 0.950 1_556 S
C472 C471 1.398 . S
C472 C473 1.391 . S
C473 H461 0.950 1_556 S
C473 C469 1.393 . S
C473 C472 1.391 . S
C474 H464 0.950 . S
C474 C475 1.386 . S
C474 C476 1.391 . S
C475 C474 1.386 . S
C475 C479 1.393 . S
C476 H465 0.950 . S
C476 C474 1.391 . S
C476 C477 1.400 . S
C477 C471 1.491 . S
C477 C476 1.400 . S
C477 C478 1.398 . S
C478 H466 0.950 . S
C478 C477 1.398 . S
C478 C479 1.391 . S
C479 H467 0.950 . S
C479 C475 1.393 . S
C479 C478 1.391 . S
C129 C101 1.500 . S
C135 C16 1.434 . S
C149 C1 1.498 . S
C155 C36 1.452 . S
C169 C21 1.505 . S
C175 C56 1.455 . S
C189 C41 1.506 . S
C195 C76 1.453 . S
C209 C96 1.455 . S
C215 C61 1.505 . S
C229 C116 1.427 . S
C235 C81 1.490 . S
C249 C8 1.839 . S
C255 C19 1.839 . S
C269 C28 1.853 . S
C275 C39 1.853 . S
C289 C48 1.848 . S
C295 C59 1.848 . S
C309 C68 1.859 . S
C315 C79 1.859 . S
C329 C99 1.861 . S
C335 C88 1.861 . S
C349 C108 1.849 . S
C355 C119 1.849 . S
C369 C6 1.403 . S
C375 C89 1.450 . S
C389 C26 1.417 . S
C395 C109 1.446 . S
C409 C9 1.445 . S
C415 C46 1.417 . S
C429 C29 1.444 . S
C435 C66 1.393 . S
C449 C86 1.388 . S
C455 C49 1.439 . S
C469 C69 1.434 . S
C475 C106 1.405 . S
