# Generated by pormake.
# Topology qtz-e, (6)-cn, num edge types: 1
# Building blocks:
#     Node 0, Type 0, BuildingBlock: GEDQOX_clean_sbu_0, # of connection points: 6
#     Node 1, Type 0, BuildingBlock: GEDQOX_clean_sbu_0, # of connection points: 6
#     Node 2, Type 0, BuildingBlock: GEDQOX_clean_sbu_0, # of connection points: 6
#     Node 3, Type 0, BuildingBlock: GEDQOX_clean_sbu_0, # of connection points: 6
#     Node 4, Type 0, BuildingBlock: GEDQOX_clean_sbu_0, # of connection points: 6
#     Node 5, Type 0, BuildingBlock: GEDQOX_clean_sbu_0, # of connection points: 6
#     Edge 6, Type (0, 0), BuildingBlock: XIVTED_clean_linker_0, # of connection points: 2
#     Edge 7, Type (0, 0), BuildingBlock: XIVTED_clean_linker_0, # of connection points: 2
#     Edge 8, Type (0, 0), BuildingBlock: XIVTED_clean_linker_0, # of connection points: 2
#     Edge 9, Type (0, 0), BuildingBlock: XIVTED_clean_linker_0, # of connection points: 2
#     Edge 10, Type (0, 0), BuildingBlock: XIVTED_clean_linker_0, # of connection points: 2
#     Edge 11, Type (0, 0), BuildingBlock: XIVTED_clean_linker_0, # of connection points: 2
#     Edge 12, Type (0, 0), BuildingBlock: XIVTED_clean_linker_0, # of connection points: 2
#     Edge 13, Type (0, 0), BuildingBlock: XIVTED_clean_linker_0, # of connection points: 2
#     Edge 14, Type (0, 0), BuildingBlock: XIVTED_clean_linker_0, # of connection points: 2
#     Edge 15, Type (0, 0), BuildingBlock: XIVTED_clean_linker_0, # of connection points: 2
#     Edge 16, Type (0, 0), BuildingBlock: XIVTED_clean_linker_0, # of connection points: 2
#     Edge 17, Type (0, 0), BuildingBlock: XIVTED_clean_linker_0, # of connection points: 2
#     Edge 18, Type (0, 0), BuildingBlock: XIVTED_clean_linker_0, # of connection points: 2
#     Edge 19, Type (0, 0), BuildingBlock: XIVTED_clean_linker_0, # of connection points: 2
#     Edge 20, Type (0, 0), BuildingBlock: XIVTED_clean_linker_0, # of connection points: 2
#     Edge 21, Type (0, 0), BuildingBlock: XIVTED_clean_linker_0, # of connection points: 2
#     Edge 22, Type (0, 0), BuildingBlock: XIVTED_clean_linker_0, # of connection points: 2
#     Edge 23, Type (0, 0), BuildingBlock: XIVTED_clean_linker_0, # of connection points: 2
# Relax obj value: 0.085
# Max RMSD: 0.171
# Mean RMSD: 0.171
data_MOF--net-qtz-e--node1-GEDQOX_clean_sbu_0--edge1-XIVTED_clean_linker_0
_symmetry_space_group_name_H-M    P1
_symmetry_Int_Tables_number       1
_symmetry_cell_setting            triclinic
loop_
_symmetry_equiv_pos_as_xyz
'x, y, z'
_cell_length_a     26.570926
_cell_length_b     26.665432
_cell_length_c     52.336434
_cell_angle_alpha  90.107708
_cell_angle_beta   89.938927
_cell_angle_gamma 120.67019
loop_
_atom_site_label
_atom_site_type_symbol
_atom_site_fract_x
_atom_site_fract_y
_atom_site_fract_z
_atom_type_partial_charge
Nd0 Nd 0.14573 0.32971 0.06103 0.0
Nd1 Nd 0.2259 0.45272 0.04139 0.0
C2 C 0.0648 0.2348 0.08445 0.0
C3 C 0.03349 0.22542 0.10891 0.0
C4 C 0.01553 0.26401 0.11719 0.0
C5 C -0.00673 0.25951 0.14185 0.0
C6 C -0.01103 0.21667 0.15889 0.0
C7 C 0.00544 0.17704 0.15023 0.0
C8 C 0.02746 0.18143 0.1255 0.0
C9 C 0.26367 0.37347 0.06642 0.0
C10 C 0.17675 0.44044 0.09956 0.0
C11 C 0.30646 0.55611 0.02475 0.0
C12 C 0.32533 0.57442 0.99827 0.0
C13 C 0.31284 0.53178 0.97958 0.0
C14 C 0.33023 0.54764 0.95435 0.0
C15 C 0.35985 0.60653 0.94715 0.0
C16 C 0.37156 0.64934 0.96577 0.0
C17 C 0.3546 0.63334 0.99125 0.0
C18 C 0.1119 0.4031 0.02477 0.0
C19 C 0.19834 0.34356 1.00479 0.0
O20 O 0.05269 0.26024 0.06601 0.0
O21 O 0.12081 0.25462 0.08666 0.0
O22 O 0.22838 0.3207 0.05836 0.0
O23 O 0.23644 0.39929 0.07072 0.0
O24 O 0.14606 0.38355 0.0955 0.0
O25 O 0.21221 0.47712 0.08198 0.0
O26 O 0.31861 0.51753 0.03357 0.0
O27 O 0.25309 0.54344 0.03023 0.0
O28 O 0.15731 0.42967 1.01008 0.0
O29 O 0.12812 0.3996 0.04699 0.0
O30 O 0.24029 0.39442 1.01349 0.0
O31 O 0.14973 0.31215 1.01812 0.0
H32 H 0.02028 0.2988 0.10488 0.0
H33 H -0.01983 0.29019 0.14765 0.0
H34 H 0.00345 0.14395 0.16284 0.0
H35 H 0.04176 0.15169 0.11963 0.0
H36 H 0.28947 0.48599 0.98448 0.0
H37 H 0.31966 0.51365 0.94037 0.0
H38 H 0.39442 0.6951 0.96068 0.0
H39 H 0.36425 0.66679 1.00539 0.0
Nd40 Nd 0.80529 0.16197 0.39532 0.0
Nd41 Nd 0.7658 0.24106 0.37144 0.0
C42 C 0.81905 0.08793 0.42404 0.0
C43 C 0.79326 0.05563 0.44815 0.0
C44 C 0.73407 0.03335 0.45427 0.0
C45 C 0.71183 0.0072 0.4781 0.0
C46 C 0.74825 0.0027 0.49643 0.0
C47 C 0.80736 0.02449 0.48998 0.0
C48 C 0.82949 0.05062 0.46618 0.0
C49 C 0.88159 0.28042 0.39795 0.0
C50 C 0.71821 0.19255 0.42818 0.0
C51 C 0.75198 0.3251 0.35295 0.0
C52 C 0.75185 0.34374 0.32656 0.0
C53 C 0.75567 0.39717 0.32159 0.0
C54 C 0.7592 0.41624 0.29638 0.0
C55 C 0.75895 0.38208 0.27575 0.0
C56 C 0.75482 0.32836 0.28094 0.0
C57 C 0.75149 0.30949 0.30609 0.0
C58 C 0.69726 0.12526 0.35793 0.0
C59 C 0.84266 0.20175 0.33772 0.0
O60 O 0.78576 0.0719 0.40361 0.0
O61 O 0.85109 0.14455 0.42635 0.0
O62 O 0.89832 0.24477 0.39038 0.0
O63 O 0.82802 0.2536 0.40233 0.0
O64 O 0.74083 0.15887 0.42521 0.0
O65 O 0.72492 0.23169 0.41099 0.0
O66 O 0.80255 0.33355 0.36084 0.0
O67 O 0.70786 0.27379 0.35933 0.0
O68 O 0.71399 0.16842 0.34218 0.0
O69 O 0.71854 0.14466 0.3797 0.0
O70 O 0.83594 0.24604 0.34404 0.0
O71 O 0.82487 0.15639 0.35305 0.0
H72 H 0.70515 0.03683 0.44076 0.0
H73 H 0.66598 -0.0096 0.48211 0.0
H74 H 0.83715 0.02285 0.50358 0.0
H75 H 0.87543 0.06803 0.46204 0.0
H76 H 0.75652 0.42435 0.33719 0.0
H77 H 0.76182 0.45757 0.29302 0.0
H78 H 0.75548 0.30144 0.26557 0.0
H79 H 0.74953 0.26849 0.3096 0.0
Nd80 Nd 0.58648 0.77642 0.72584 0.0
Nd81 Nd 0.47419 0.772 0.70995 0.0
C82 C 0.66638 0.75776 0.7467 0.0
C83 C 0.67808 0.74755 0.7732 0.0
C84 C 0.64149 0.74471 0.79321 0.0
C85 C 0.6518 0.73402 0.81828 0.0
C86 C 0.69932 0.72647 0.82397 0.0
C87 C 0.73643 0.73027 0.80386 0.0
C88 C 0.72575 0.74051 0.77871 0.0
C89 C 0.57279 0.86756 0.7414 0.0
C90 C 0.47059 0.7148 0.76389 0.0
C91 C 0.39726 0.79701 0.69179 0.0
C92 C 0.38165 0.79862 0.66513 0.0
C93 C 0.33514 0.80675 0.65887 0.0
C94 C 0.31889 0.80469 0.63329 0.0
C95 C 0.34908 0.79449 0.61371 0.0
C96 C 0.39622 0.7872 0.62021 0.0
C97 C 0.41211 0.78894 0.64568 0.0
C98 C 0.47581 0.67479 0.69629 0.0
C99 C 0.58965 0.83014 0.67089 0.0
O100 O 0.61784 0.71641 0.73648 0.0
O101 O 0.67535 0.8098 0.74187 0.0
O102 O 0.62161 0.87615 0.73178 0.0
O103 O 0.53613 0.81463 0.74181 0.0
O104 O 0.51717 0.71407 0.75536 0.0
O105 O 0.45002 0.7436 0.75144 0.0
O106 O 0.45049 0.83716 0.69828 0.0
O107 O 0.38296 0.7451 0.70002 0.0
O108 O 0.42896 0.67482 0.70307 0.0
O109 O 0.51987 0.72576 0.69488 0.0
O110 O 0.54212 0.82949 0.67906 0.0
O111 O 0.6128 0.80471 0.68419 0.0
H112 H 0.60489 0.75077 0.78945 0.0
H113 H 0.62279 0.73222 0.83327 0.0
H114 H 0.77306 0.72413 0.80748 0.0
H115 H 0.75456 0.74264 0.76354 0.0
H116 H 0.31092 0.81374 0.67372 0.0
H117 H 0.28196 0.80983 0.62892 0.0
H118 H 0.42096 0.78023 0.60561 0.0
H119 H 0.44779 0.78193 0.65022 0.0
Nd120 Nd 0.81732 0.63925 0.05788 0.0
Nd121 Nd 0.73705 0.51539 0.03811 0.0
C122 C 0.89798 0.7344 0.08152 0.0
C123 C 0.92287 0.74437 0.10754 0.0
C124 C -0.0187 0.78748 0.11212 0.0
C125 C 0.00512 0.79531 0.13673 0.0
C126 C 0.97094 0.75974 0.1571 0.0
C127 C 0.9122 0.71722 0.15242 0.0
C128 C 0.88844 0.70973 0.12796 0.0
C129 C 0.69916 0.59449 0.06339 0.0
C130 C 0.78418 0.52839 0.09662 0.0
C131 C 0.65596 0.41121 0.0225 0.0
C132 C 0.63946 0.38754 0.99648 0.0
C133 C 0.58032 0.35175 0.99003 0.0
C134 C 0.56382 0.33687 0.96449 0.0
C135 C 0.60632 0.35771 0.94502 0.0
C136 C 0.66567 0.39216 0.95172 0.0
C137 C 0.68204 0.40707 0.97717 0.0
C138 C 0.85135 0.56489 0.02175 0.0
C139 C 0.76558 0.62434 1.00142 0.0
O140 O 0.91094 0.70398 0.06605 0.0
O141 O 0.84288 0.71922 0.08022 0.0
O142 O 0.73411 0.64757 0.0557 0.0
O143 O 0.72685 0.56913 0.06747 0.0
O144 O 0.81493 0.58537 0.09278 0.0
O145 O 0.74923 0.49187 0.07889 0.0
O146 O 0.64504 0.45277 0.02778 0.0
O147 O 0.70753 0.42263 0.03055 0.0
O148 O 0.80606 0.53634 1.00715 0.0
O149 O 0.83466 0.56915 0.04378 0.0
O150 O 0.7235 0.57339 1.00995 0.0
O151 O 0.81408 0.65584 1.01484 0.0
H152 H 0.00863 0.81464 0.09663 0.0
H153 H 0.05063 0.82818 0.13969 0.0
H154 H 0.88441 0.68965 0.16771 0.0
H155 H 0.84309 0.6764 0.12502 0.0
H156 H 0.54681 0.33695 1.00463 0.0
H157 H 0.5178 0.30975 0.95994 0.0
H158 H 0.69942 0.40965 0.9372 0.0
H159 H 0.72791 0.43569 0.9816 0.0
Nd160 Nd 0.16232 0.82224 0.39131 0.0
Nd161 Nd 0.18828 0.72754 0.37303 0.0
C162 C 0.16431 0.91034 0.41595 0.0
C163 C 0.18868 0.93994 0.44078 0.0
C164 C 0.23666 0.93995 0.45202 0.0
C165 C 0.25605 0.96339 0.47652 0.0
C166 C 0.22845 -0.01179 0.49036 0.0
C167 C 0.18109 -0.01086 0.47868 0.0
C168 C 0.16133 0.96504 0.45429 0.0
C169 C 0.07057 0.7094 0.39182 0.0
C170 C 0.22025 0.77038 0.43188 0.0
C171 C 0.189 0.6338 0.35758 0.0
C172 C 0.1888 0.61015 0.33183 0.0
C173 C 0.13687 0.56293 0.32207 0.0
C174 C 0.13435 0.5436 0.29697 0.0
C175 C 0.18388 0.57069 0.281 0.0
C176 C 0.23632 0.61683 0.29105 0.0
C177 C 0.23876 0.63636 0.31613 0.0
C178 C 0.27146 0.83927 0.35932 0.0
C179 C 0.13166 0.78005 0.33342 0.0
O180 O 0.20167 0.91751 0.39788 0.0
O181 O 0.12096 0.85648 0.41747 0.0
O182 O 0.0646 0.75209 0.38364 0.0
O183 O 0.12186 0.72705 0.39887 0.0
O184 O 0.20259 0.80737 0.42679 0.0
O185 O 0.21891 0.73345 0.41461 0.0
O186 O 0.14102 0.63333 0.36395 0.0
O187 O 0.23665 0.68179 0.36469 0.0
O188 O 0.25239 0.79444 0.34432 0.0
O189 O 0.24565 0.82387 0.38057 0.0
O190 O 0.13101 0.73272 0.34149 0.0
O191 O 0.15196 0.8271 0.34797 0.0
H192 H 0.25848 0.92067 0.4421 0.0
H193 H 0.29189 0.96066 0.48479 0.0
H194 H 0.15918 0.00866 0.48831 0.0
H195 H 0.12417 0.96548 0.44606 0.0
H196 H 0.09762 0.54179 0.33367 0.0
H197 H 0.09303 0.50838 0.2899 0.0
H198 H 0.27566 0.63802 0.27954 0.0
H199 H 0.27962 0.67267 0.32301 0.0
Nd200 Nd 0.36563 0.19739 0.72496 0.0
Nd201 Nd 0.48342 0.21618 0.70703 0.0
C202 C 0.28095 0.20579 0.74771 0.0
C203 C 0.26977 0.2148 0.77453 0.0
C204 C 0.30658 0.21659 0.79419 0.0
C205 C 0.29728 0.2271 0.8195 0.0
C206 C 0.25048 0.23543 0.82578 0.0
C207 C 0.2131 0.23261 0.80603 0.0
C208 C 0.22283 0.22264 0.78065 0.0
C209 C 0.39221 0.11362 0.73822 0.0
C210 C 0.48275 0.26817 0.762 0.0
C211 C 0.56551 0.20046 0.6875 0.0
C212 C 0.57965 0.20009 0.66055 0.0
C213 C 0.61634 0.17965 0.6527 0.0
C214 C 0.62714 0.1776 0.62667 0.0
C215 C 0.60119 0.1959 0.6083 0.0
C216 C 0.5644 0.21625 0.6164 0.0
C217 C 0.55375 0.21831 0.64229 0.0
C218 C 0.46977 0.30731 0.69552 0.0
C219 C 0.36707 0.15089 0.66837 0.0
O220 O 0.3262 0.2499 0.73681 0.0
O221 O 0.27735 0.15602 0.7426 0.0
O222 O 0.34052 0.09998 0.73021 0.0
O223 O 0.42462 0.16742 0.7389 0.0
O224 O 0.43215 0.26201 0.75475 0.0
O225 O 0.50824 0.24565 0.74835 0.0
O226 O 0.51426 0.15711 0.69437 0.0
O227 O 0.57577 0.25095 0.69612 0.0
O228 O 0.51954 0.31216 0.70113 0.0
O229 O 0.42878 0.25463 0.69398 0.0
O230 O 0.41887 0.15925 0.67508 0.0
O231 O 0.33832 0.1679 0.68335 0.0
H232 H 0.34271 0.21002 0.78993 0.0
H233 H 0.32652 0.22822 0.83419 0.0
H234 H 0.17703 0.23939 0.8101 0.0
H235 H 0.19393 0.22147 0.76578 0.0
H236 H 0.6363 0.16512 0.66663 0.0
H237 H 0.65607 0.16215 0.62093 0.0
H238 H 0.54301 0.22966 0.60271 0.0
H239 H 0.52471 0.23363 0.6481 0.0
H240 H 0.12322 0.45922 0.26147 0.0
H241 H 0.23664 0.55333 0.11773 0.0
H242 H 0.23675 0.63817 0.23848 0.0
H243 H 0.11142 0.37713 0.14062 0.0
H244 H 0.23655 0.58598 0.16152 0.0
H245 H 0.11776 0.42894 0.21706 0.0
C246 C 0.14678 0.49229 0.24712 0.0
C247 C 0.18061 0.55145 0.25391 0.0
C248 C 0.20885 0.54022 0.15688 0.0
C249 C 0.17515 0.51677 0.20278 0.0
C250 C 0.20878 0.52156 0.13185 0.0
C251 C 0.17411 0.46231 0.12538 0.0
C252 C 0.17418 0.49935 0.17565 0.0
C253 C 0.13897 0.4232 0.14459 0.0
C254 C 0.14386 0.47488 0.22171 0.0
C255 C 0.2109 0.592 0.23434 0.0
N256 N 0.14015 0.44235 0.16878 0.0
N257 N 0.20754 0.57393 0.20974 0.0
H258 H 0.6223 0.27777 0.57182 0.0
H259 H 0.67214 0.10137 0.46128 0.0
H260 H 0.604 0.10861 0.58201 0.0
H261 H 0.69598 0.2726 0.4504 0.0
H262 H 0.63631 0.0991 0.50424 0.0
H263 H 0.63994 0.27306 0.52631 0.0
C264 C 0.62162 0.23946 0.56443 0.0
C265 C 0.61199 0.19361 0.58072 0.0
C266 C 0.64884 0.13703 0.49244 0.0
C267 C 0.63242 0.18812 0.52876 0.0
C268 C 0.66935 0.13837 0.46788 0.0
C269 C 0.68793 0.18768 0.45242 0.0
C270 C 0.64713 0.18551 0.50173 0.0
C271 C 0.68231 0.23387 0.46177 0.0
C272 C 0.63181 0.23688 0.53848 0.0
C273 C 0.6122 0.14533 0.57021 0.0
N274 N 0.66302 0.23197 0.48601 0.0
N275 N 0.62242 0.14394 0.54489 0.0
H276 H 0.41367 0.5662 0.9157 0.0
H277 H 0.39181 0.72903 0.7919 0.0
H278 H 0.34525 0.68218 0.91713 0.0
H279 H 0.49944 0.65076 0.79516 0.0
H280 H 0.36437 0.70202 0.83645 0.0
H281 H 0.43724 0.58838 0.87041 0.0
C282 C 0.40367 0.5964 0.90644 0.0
C283 C 0.37747 0.62243 0.92014 0.0
C284 C 0.39379 0.69054 0.82738 0.0
C285 C 0.40392 0.64766 0.86835 0.0
C286 C 0.40916 0.70553 0.80186 0.0
C287 C 0.44818 0.69231 0.78976 0.0
C288 C 0.41723 0.66174 0.84089 0.0
C289 C 0.46938 0.66201 0.80373 0.0
C290 C 0.41723 0.60911 0.88064 0.0
C291 C 0.36591 0.66161 0.90731 0.0
N292 N 0.45373 0.64786 0.82858 0.0
N293 N 0.37891 0.67279 0.88208 0.0
H294 H 0.69911 0.31821 0.23359 0.0
H295 H 0.85561 0.58799 0.13702 0.0
H296 H 0.82981 0.49237 0.25672 0.0
H297 H 0.71548 0.41711 0.11502 0.0
H298 H 0.85115 0.5523 0.18032 0.0
H299 H 0.70855 0.35225 0.18957 0.0
C300 C 0.73001 0.36358 0.2294 0.0
C301 C 0.76366 0.40249 0.24894 0.0
C302 C 0.82145 0.52253 0.16602 0.0
C303 C 0.77447 0.44189 0.19849 0.0
C304 C 0.82393 0.54293 0.14124 0.0
C305 C 0.7854 0.50575 0.12233 0.0
C306 C 0.78024 0.46435 0.17203 0.0
C307 C 0.74594 0.44747 0.12893 0.0
C308 C 0.7352 0.38305 0.20426 0.0
C309 C 0.80241 0.46098 0.24238 0.0
N310 N 0.74422 0.42867 0.15323 0.0
N311 N 0.80678 0.47885 0.21773 0.0
H312 H 0.31479 0.86251 0.58908 0.0
H313 H 0.27363 0.71288 0.45184 0.0
H314 H 0.34358 0.71895 0.57652 0.0
H315 H 0.21156 0.82902 0.47243 0.0
H316 H 0.30706 0.71845 0.49619 0.0
H317 H 0.28485 0.8557 0.54467 0.0
C318 C 0.31444 0.82928 0.57703 0.0
C319 C 0.33139 0.79106 0.58661 0.0
C320 C 0.28619 0.74271 0.4908 0.0
C321 C 0.29778 0.78335 0.53551 0.0
C322 C 0.26713 0.73951 0.46556 0.0
C323 C 0.24041 0.77107 0.45826 0.0
C324 C 0.27848 0.77782 0.50863 0.0
C325 C 0.23289 0.80476 0.47687 0.0
C326 C 0.29763 0.82555 0.5516 0.0
C327 C 0.33137 0.74969 0.56987 0.0
N328 N 0.25193 0.80732 0.50104 0.0
N329 N 0.31473 0.74685 0.54511 0.0
H330 H 0.65851 0.32997 0.90681 0.0
H331 H 0.43707 0.30904 0.79801 0.0
H332 H 0.51559 0.35953 0.92094 0.0
H333 H 0.58031 0.2793 0.78493 0.0
H334 H 0.46812 0.33338 0.84249 0.0
H335 H 0.6326 0.31547 0.86162 0.0
C336 C 0.62171 0.33352 0.90039 0.0
C337 C 0.58914 0.34591 0.91772 0.0
C338 C 0.493 0.32195 0.82982 0.0
C339 C 0.55899 0.32911 0.86591 0.0
C340 C 0.47537 0.30818 0.80438 0.0
C341 C 0.5057 0.2914 0.78775 0.0
C342 C 0.54138 0.31908 0.83865 0.0
C343 C 0.55531 0.29159 0.79706 0.0
C344 C 0.60684 0.32513 0.87457 0.0
C345 C 0.5414 0.34923 0.90834 0.0
N346 N 0.57132 0.30477 0.8219 0.0
N347 N 0.52778 0.34091 0.88306 0.0
H348 H 0.33637 0.48504 0.0807 0.0
H349 H 0.62756 0.48141 0.07555 0.0
H350 H 0.33661 0.33305 0.05227 0.0
H351 H 0.62509 0.63558 0.05258 0.0
H352 H 0.52109 0.42594 0.07458 0.0
H353 H 0.44277 0.5406 0.07811 0.0
C354 C 0.3589 0.46332 0.07387 0.0
C355 C 0.32782 0.40456 0.06633 0.0
C356 C 0.5439 0.47178 0.06961 0.0
C357 C 0.44926 0.46765 0.064 0.0
C358 C 0.60454 0.50362 0.07021 0.0
C359 C 0.635 0.56303 0.06378 0.0
C360 C 0.51344 0.49997 0.06338 0.0
C361 C 0.60306 0.5898 0.05752 0.0
C362 C 0.41946 0.49521 0.07233 0.0
C363 C 0.35912 0.37833 0.05813 0.0
N364 N 0.54355 0.55801 0.05769 0.0
N365 N 0.41859 0.41012 0.05735 0.0
H366 H 0.01841 0.64171 0.43251 0.0
H367 H 0.95848 0.35341 0.36124 0.0
H368 H 0.03011 0.63624 0.35058 0.0
H369 H 0.87589 0.35116 0.43251 0.0
H370 H -0.00315 0.45937 0.35809 0.0
H371 H 0.97259 0.5357 0.43384 0.0
C372 C 0.00927 0.61771 0.41472 0.0
C373 C 0.02673 0.64718 0.3914 0.0
C374 C 0.97069 0.43549 0.37447 0.0
C375 C 0.97793 0.52667 0.39278 0.0
C376 C 0.94988 0.37559 0.37648 0.0
C377 C 0.91507 0.34431 0.39739 0.0
C378 C 0.95697 0.46359 0.39371 0.0
C379 C 0.9033 0.3742 0.41627 0.0
C380 C -0.01599 0.55743 0.41548 0.0
C381 C 0.01612 0.61467 0.36889 0.0
N382 N 0.92436 0.43215 0.41405 0.0
N383 N -0.00681 0.55594 0.37013 0.0
H384 H 0.33726 -0.0058 0.73171 0.0
H385 H 0.62601 0.98162 0.72458 0.0
H386 H 0.50311 0.14661 0.75084 0.0
H387 H 0.47512 0.84864 0.7651 0.0
H388 H 0.58029 0.04236 0.72451 0.0
H389 H 0.3851 0.93553 0.73385 0.0
C390 C 0.38333 0.01513 0.73638 0.0
C391 C 0.41636 0.07517 0.74091 0.0
C392 C 0.55776 -0.0002 0.73345 0.0
C393 C 0.47086 0.00981 0.7426 0.0
C394 C 0.58395 0.96571 0.73371 0.0
C395 C 0.55394 0.9101 0.74461 0.0
C396 C 0.5012 0.97703 0.74362 0.0
C397 C 0.49922 0.89095 0.75607 0.0
C398 C 0.41051 0.982 0.73751 0.0
C399 C 0.47605 0.1005 0.74695 0.0
N400 N 0.47407 0.92393 0.7549 0.0
N401 N 0.50164 0.06786 0.74727 0.0
H402 H 0.56745 0.66204 0.68148 0.0
H403 H 0.37198 0.31582 0.68896 0.0
H404 H 0.38023 0.56703 0.69241 0.0
H405 H 0.56027 0.41287 0.6826 0.0
H406 H 0.37126 0.40611 0.68084 0.0
H407 H 0.56315 0.56977 0.67251 0.0
C408 C 0.52549 0.6218 0.68169 0.0
C409 C 0.47435 0.62163 0.68812 0.0
C410 C 0.41262 0.40732 0.68085 0.0
C411 C 0.46887 0.51662 0.67811 0.0
C412 C 0.4129 0.35593 0.68546 0.0
C413 C 0.46625 0.3576 0.68702 0.0
C414 C 0.46609 0.46005 0.67781 0.0
C415 C 0.51823 0.41018 0.68212 0.0
C416 C 0.52291 0.56924 0.67656 0.0
C417 C 0.42085 0.5687 0.68793 0.0
N418 N 0.51691 0.45951 0.67803 0.0
N419 N 0.41955 0.51811 0.68333 0.0
H420 H 0.07709 0.43025 0.98031 0.0
H421 H 0.93094 0.57813 0.05784 0.0
H422 H 0.03956 0.40515 0.06111 0.0
H423 H 0.88255 0.52703 0.9792 0.0
H424 H -0.00876 0.53334 0.05676 0.0
H425 H 0.01782 0.47674 0.97723 0.0
C426 C 0.05523 0.43322 0.99724 0.0
C427 C 0.06373 0.41449 0.02105 0.0
C428 C 0.96788 0.53253 0.03967 0.0
C429 C -0.00155 0.46924 1.01779 0.0
C430 C 0.93419 0.55882 0.04013 0.0
C431 C 0.90086 0.55525 1.01871 0.0
C432 C 0.96893 0.50333 1.01754 0.0
C433 C 0.90711 0.53007 0.99622 0.0
C434 C 0.02207 0.46022 0.99549 0.0
C435 C 0.03454 0.41935 0.0424 0.0
N436 N 0.94007 0.50439 0.99626 0.0
N437 N 0.00412 0.44732 0.04035 0.0
H438 H 0.34047 0.91228 0.39714 0.0
H439 H 0.62996 0.0839 0.31481 0.0
H440 H 0.34133 0.87423 0.31698 0.0
H441 H 0.62952 0.05111 0.39559 0.0
H442 H 0.52404 0.01495 0.31371 0.0
H443 H 0.44644 0.97733 0.39547 0.0
C444 C 0.36285 0.91848 0.37907 0.0
C445 C 0.33236 0.88753 0.3572 0.0
C446 C 0.54748 0.02237 0.33154 0.0
C447 C 0.45335 0.96112 0.35527 0.0
C448 C 0.60782 0.06122 0.33216 0.0
C449 C 0.63829 0.07365 0.35538 0.0
C450 C 0.51776 -0.00317 0.35438 0.0
C451 C 0.60765 0.04314 0.37731 0.0
C452 C 0.42335 0.95496 0.37822 0.0
C453 C 0.36349 0.89717 0.33429 0.0
N454 N 0.54883 0.00692 0.37637 0.0
N455 N 0.42255 0.93311 0.3339 0.0
H456 H 0.14697 0.1928 0.85241 0.0
H457 H 0.29848 0.3893 0.97634 0.0
H458 H 0.33341 0.30711 0.86071 0.0
H459 H 0.1167 0.25313 0.97481 0.0
H460 H 0.31076 0.36107 0.93354 0.0
H461 H 0.13367 0.21592 0.89638 0.0
C462 C 0.18512 0.22287 0.86342 0.0
C463 C 0.24144 0.24805 0.85272 0.0
C464 C 0.2682 0.33703 0.94255 0.0
C465 C 0.22645 0.2746 0.90322 0.0
C466 C 0.26106 0.35318 0.96708 0.0
C467 C 0.20636 0.32357 0.97933 0.0
C468 C 0.22026 0.29111 0.92983 0.0
C469 C 0.1597 0.27708 0.9662 0.0
C470 C 0.17748 0.23575 0.8886 0.0
C471 C 0.28922 0.28612 0.86812 0.0
N472 N 0.16761 0.26252 0.94213 0.0
N473 N 0.2806 0.29839 0.89244 0.0
H474 H 0.8431 0.11189 0.31193 0.0
H475 H 0.01386 0.30875 0.1906 0.0
H476 H 0.90156 0.29507 0.30585 0.0
H477 H 0.92064 0.1205 0.18899 0.0
H478 H -0.01847 0.30514 0.23453 0.0
H479 H 0.88085 0.11505 0.26879 0.0
C480 C 0.86432 0.15284 0.30166 0.0
C481 C 0.86899 0.20323 0.31253 0.0
C482 C 0.96806 0.26459 0.22456 0.0
C483 C 0.91211 0.2071 0.26319 0.0
C484 C -0.01385 0.26656 0.19935 0.0
C485 C 0.96954 0.21481 0.18582 0.0
C486 C 0.93331 0.21049 0.23658 0.0
C487 C 0.93497 0.16156 0.19862 0.0
C488 C 0.88556 0.15454 0.27698 0.0
C489 C 0.89666 0.25503 0.29824 0.0
N490 N 0.91798 0.16079 0.22324 0.0
N491 N 0.91709 0.25559 0.27437 0.0
H492 H 0.55604 0.89066 0.63988 0.0
H493 H 0.77662 0.93452 0.52574 0.0
H494 H 0.68002 0.83185 0.64392 0.0
H495 H 0.66726 0.01095 0.52649 0.0
H496 H 0.74029 0.89442 0.56826 0.0
H497 H 0.59446 0.93232 0.5979 0.0
C498 C 0.59155 0.88661 0.63204 0.0
C499 C 0.6148 0.8576 0.64566 0.0
C500 C 0.72424 0.91997 0.55912 0.0
C501 C 0.65902 0.90533 0.5971 0.0
C502 C 0.74521 0.94323 0.5348 0.0
C503 C 0.72522 0.97648 0.52226 0.0
C504 C 0.68265 0.92963 0.57118 0.0
C505 C 0.68351 0.98501 0.53504 0.0
C506 C 0.61349 0.9105 0.60795 0.0
C507 C 0.66075 0.85389 0.63427 0.0
N508 N 0.66375 0.96183 0.55867 0.0
N509 N 0.68117 0.87725 0.61068 0.0
H510 H 0.61763 0.65345 0.85881 0.0
H511 H 0.8471 0.71507 0.97158 0.0
H512 H 0.80361 0.76992 0.85008 0.0
H513 H 0.66528 0.57899 0.97325 0.0
H514 H 0.83192 0.7424 0.92865 0.0
H515 H 0.63413 0.63232 0.90232 0.0
C516 C 0.66198 0.67495 0.86608 0.0
C517 C 0.70926 0.71361 0.85065 0.0
C518 C 0.7954 0.70668 0.9385 0.0
C519 C 0.72866 0.68916 0.90071 0.0
C520 C 0.80398 0.69123 0.96305 0.0
C521 C 0.75749 0.64455 0.9761 0.0
C522 C 0.73983 0.67553 0.92701 0.0
C523 C 0.7026 0.6151 0.96399 0.0
C524 C 0.67144 0.66257 0.89094 0.0
C525 C 0.76586 0.73937 0.86113 0.0
N526 N 0.69539 0.63105 0.94025 0.0
N527 N 0.77398 0.7268 0.88549 0.0
H528 H 0.072 0.68551 0.30233 0.0
H529 H 0.04394 0.85985 0.18415 0.0
H530 H 0.13662 0.87042 0.3055 0.0
H531 H 0.95594 0.67231 0.18912 0.0
H532 H 0.08351 0.86672 0.22726 0.0
H533 H 0.03412 0.68201 0.25977 0.0
C534 C 0.07829 0.72556 0.2941 0.0
C535 C 0.10767 0.77843 0.30763 0.0
C536 C 0.05544 0.82413 0.21889 0.0
C537 C 0.06412 0.7746 0.25842 0.0
C538 C 0.03316 0.82018 0.19424 0.0
C539 C -0.00365 0.76541 0.18302 0.0
C540 C 0.04129 0.77295 0.23229 0.0
C541 C -0.01657 0.71544 0.19709 0.0
C542 C 0.05643 0.72344 0.26971 0.0
C543 C 0.11413 0.82869 0.29583 0.0
N544 N 0.00592 0.72046 0.22087 0.0
N545 N 0.0927 0.8256 0.27183 0.0
H546 H 0.25808 0.11526 0.64749 0.0
H547 H 0.34068 0.04356 0.51007 0.0
H548 H 0.42306 0.12796 0.63018 0.0
H549 H 0.163 -0.01097 0.53153 0.0
H550 H 0.37243 0.08087 0.55321 0.0
H551 H 0.22331 0.07537 0.60446 0.0
C552 C 0.28697 0.10965 0.63475 0.0
C553 C 0.34365 0.12507 0.64266 0.0
C554 C 0.32644 0.0607 0.54851 0.0
C555 C 0.30426 0.07991 0.5932 0.0
C556 C 0.30805 0.03891 0.52378 0.0
C557 C 0.24874 0.01254 0.51681 0.0
C558 C 0.28559 0.0569 0.56665 0.0
C559 C 0.20926 0.00959 0.53563 0.0
C560 C 0.26705 0.08679 0.61017 0.0
C561 C 0.37901 0.11671 0.62515 0.0
N562 N 0.22834 0.03149 0.55956 0.0
N563 N 0.3589 0.09509 0.60137 0.0
loop_
_geom_bond_atom_site_label_1
_geom_bond_atom_site_label_2
_geom_bond_distance
_geom_bond_site_symmetry_2
_ccdc_geom_bond_type
Nd0 C2 2.836 . S
Nd0 O20 2.500 . S
Nd0 O21 2.492 . S
Nd0 O22 2.487 . S
Nd0 O23 2.682 . S
Nd0 O24 2.410 . S
Nd0 O29 2.414 . S
Nd0 O31 2.424 . S
Nd1 C11 2.836 1_554 S
Nd1 O23 2.414 . S
Nd1 O25 2.424 . S
Nd1 O26 2.500 1_554 S
Nd1 O27 2.492 1_554 S
Nd1 O28 2.487 . S
Nd1 O29 2.682 . S
Nd1 O30 2.410 1_554 S
C2 Nd0 2.836 . S
C2 C3 1.498 . S
C2 O20 1.258 . S
C2 O21 1.239 . S
C3 C2 1.498 . S
C3 C4 1.366 . S
C3 C8 1.407 . S
C4 C3 1.366 . S
C4 C5 1.392 . S
C4 H32 0.930 . S
C5 C4 1.392 . S
C5 C6 1.398 . S
C5 H33 0.929 1_455 S
C6 C5 1.398 . S
C6 C7 1.352 . S
C7 C6 1.352 . S
C7 C8 1.384 . S
C7 H34 0.930 . S
C8 C3 1.407 . S
C8 C7 1.384 . S
C8 H35 0.929 . S
C9 O22 1.241 . S
C9 O23 1.273 . S
C10 O24 1.251 . S
C10 O25 1.268 . S
C11 Nd1 2.836 1_556 S
C11 C12 1.498 . S
C11 O26 1.258 . S
C11 O27 1.239 . S
C12 C11 1.498 . S
C12 C13 1.366 . S
C12 C17 1.407 . S
C13 C12 1.366 . S
C13 C14 1.392 . S
C13 H36 0.930 . S
C14 C13 1.392 . S
C14 C15 1.398 . S
C14 H37 0.929 . S
C15 C14 1.398 . S
C15 C16 1.352 . S
C16 C15 1.352 . S
C16 C17 1.384 . S
C16 H38 0.930 . S
C17 C12 1.407 . S
C17 C16 1.384 . S
C17 H39 0.929 . S
C18 O28 1.241 . S
C18 O29 1.273 . S
C19 O30 1.251 . S
C19 O31 1.268 1_556 S
O20 Nd0 2.500 . S
O20 C2 1.258 . S
O21 Nd0 2.492 . S
O21 C2 1.239 . S
O22 Nd0 2.487 . S
O22 C9 1.241 . S
O23 Nd0 2.682 . S
O23 Nd1 2.414 . S
O23 C9 1.273 . S
O24 Nd0 2.410 . S
O24 C10 1.251 . S
O25 Nd1 2.424 . S
O25 C10 1.268 . S
O26 Nd1 2.500 1_556 S
O26 C11 1.258 . S
O27 Nd1 2.492 1_556 S
O27 C11 1.239 . S
O28 Nd1 2.487 . S
O28 C18 1.241 . S
O29 Nd0 2.414 . S
O29 Nd1 2.682 . S
O29 C18 1.273 . S
O30 Nd1 2.410 1_556 S
O30 C19 1.251 . S
O31 Nd0 2.424 . S
O31 C19 1.268 1_554 S
H32 C4 0.930 . S
H33 C5 0.929 1_655 S
H34 C7 0.930 . S
H35 C8 0.929 . S
H36 C13 0.930 . S
H37 C14 0.929 . S
H38 C16 0.930 . S
H39 C17 0.929 . S
Nd40 C42 2.836 . S
Nd40 O60 2.500 . S
Nd40 O61 2.492 . S
Nd40 O62 2.487 . S
Nd40 O63 2.682 . S
Nd40 O64 2.410 . S
Nd40 O69 2.414 . S
Nd40 O71 2.424 . S
Nd41 C51 2.836 . S
Nd41 O63 2.414 . S
Nd41 O65 2.424 . S
Nd41 O66 2.500 . S
Nd41 O67 2.492 . S
Nd41 O68 2.487 . S
Nd41 O69 2.682 . S
Nd41 O70 2.410 . S
C42 Nd40 2.836 . S
C42 C43 1.498 . S
C42 O60 1.258 . S
C42 O61 1.239 . S
C43 C42 1.498 . S
C43 C44 1.366 . S
C43 C48 1.407 . S
C44 C43 1.366 . S
C44 C45 1.392 . S
C44 H72 0.930 . S
C45 C44 1.392 . S
C45 C46 1.398 . S
C45 H73 0.929 1_545 S
C46 C45 1.398 . S
C46 C47 1.352 . S
C47 C46 1.352 . S
C47 C48 1.384 . S
C47 H74 0.930 . S
C48 C43 1.407 . S
C48 C47 1.384 . S
C48 H75 0.929 . S
C49 O62 1.241 . S
C49 O63 1.273 . S
C50 O64 1.251 . S
C50 O65 1.268 . S
C51 Nd41 2.836 . S
C51 C52 1.498 . S
C51 O66 1.258 . S
C51 O67 1.239 . S
C52 C51 1.498 . S
C52 C53 1.366 . S
C52 C57 1.407 . S
C53 C52 1.366 . S
C53 C54 1.392 . S
C53 H76 0.930 . S
C54 C53 1.392 . S
C54 C55 1.398 . S
C54 H77 0.929 . S
C55 C54 1.398 . S
C55 C56 1.352 . S
C56 C55 1.352 . S
C56 C57 1.384 . S
C56 H78 0.930 . S
C57 C52 1.407 . S
C57 C56 1.384 . S
C57 H79 0.929 . S
C58 O68 1.241 . S
C58 O69 1.273 . S
C59 O70 1.251 . S
C59 O71 1.268 . S
O60 Nd40 2.500 . S
O60 C42 1.258 . S
O61 Nd40 2.492 . S
O61 C42 1.239 . S
O62 Nd40 2.487 . S
O62 C49 1.241 . S
O63 Nd40 2.682 . S
O63 Nd41 2.414 . S
O63 C49 1.273 . S
O64 Nd40 2.410 . S
O64 C50 1.251 . S
O65 Nd41 2.424 . S
O65 C50 1.268 . S
O66 Nd41 2.500 . S
O66 C51 1.258 . S
O67 Nd41 2.492 . S
O67 C51 1.239 . S
O68 Nd41 2.487 . S
O68 C58 1.241 . S
O69 Nd40 2.414 . S
O69 Nd41 2.682 . S
O69 C58 1.273 . S
O70 Nd41 2.410 . S
O70 C59 1.251 . S
O71 Nd40 2.424 . S
O71 C59 1.268 . S
H72 C44 0.930 . S
H73 C45 0.929 1_565 S
H74 C47 0.930 . S
H75 C48 0.929 . S
H76 C53 0.930 . S
H77 C54 0.929 . S
H78 C56 0.930 . S
H79 C57 0.929 . S
Nd80 C82 2.836 . S
Nd80 O100 2.500 . S
Nd80 O101 2.492 . S
Nd80 O102 2.487 . S
Nd80 O103 2.682 . S
Nd80 O104 2.410 . S
Nd80 O109 2.414 . S
Nd80 O111 2.424 . S
Nd81 C91 2.836 . S
Nd81 O103 2.414 . S
Nd81 O105 2.424 . S
Nd81 O106 2.500 . S
Nd81 O107 2.492 . S
Nd81 O108 2.487 . S
Nd81 O109 2.682 . S
Nd81 O110 2.410 . S
C82 Nd80 2.836 . S
C82 C83 1.498 . S
C82 O100 1.258 . S
C82 O101 1.239 . S
C83 C82 1.498 . S
C83 C84 1.366 . S
C83 C88 1.407 . S
C84 C83 1.366 . S
C84 C85 1.392 . S
C84 H112 0.930 . S
C85 C84 1.392 . S
C85 C86 1.398 . S
C85 H113 0.929 . S
C86 C85 1.398 . S
C86 C87 1.352 . S
C87 C86 1.352 . S
C87 C88 1.384 . S
C87 H114 0.930 . S
C88 C83 1.407 . S
C88 C87 1.384 . S
C88 H115 0.929 . S
C89 O102 1.241 . S
C89 O103 1.273 . S
C90 O104 1.251 . S
C90 O105 1.268 . S
C91 Nd81 2.836 . S
C91 C92 1.498 . S
C91 O106 1.258 . S
C91 O107 1.239 . S
C92 C91 1.498 . S
C92 C93 1.366 . S
C92 C97 1.407 . S
C93 C92 1.366 . S
C93 C94 1.392 . S
C93 H116 0.930 . S
C94 C93 1.392 . S
C94 C95 1.398 . S
C94 H117 0.929 . S
C95 C94 1.398 . S
C95 C96 1.352 . S
C96 C95 1.352 . S
C96 C97 1.384 . S
C96 H118 0.930 . S
C97 C92 1.407 . S
C97 C96 1.384 . S
C97 H119 0.929 . S
C98 O108 1.241 . S
C98 O109 1.273 . S
C99 O110 1.251 . S
C99 O111 1.268 . S
O100 Nd80 2.500 . S
O100 C82 1.258 . S
O101 Nd80 2.492 . S
O101 C82 1.239 . S
O102 Nd80 2.487 . S
O102 C89 1.241 . S
O103 Nd80 2.682 . S
O103 Nd81 2.414 . S
O103 C89 1.273 . S
O104 Nd80 2.410 . S
O104 C90 1.251 . S
O105 Nd81 2.424 . S
O105 C90 1.268 . S
O106 Nd81 2.500 . S
O106 C91 1.258 . S
O107 Nd81 2.492 . S
O107 C91 1.239 . S
O108 Nd81 2.487 . S
O108 C98 1.241 . S
O109 Nd80 2.414 . S
O109 Nd81 2.682 . S
O109 C98 1.273 . S
O110 Nd81 2.410 . S
O110 C99 1.251 . S
O111 Nd80 2.424 . S
O111 C99 1.268 . S
H112 C84 0.930 . S
H113 C85 0.929 . S
H114 C87 0.930 . S
H115 C88 0.929 . S
H116 C93 0.930 . S
H117 C94 0.929 . S
H118 C96 0.930 . S
H119 C97 0.929 . S
Nd120 C122 2.836 . S
Nd120 O140 2.500 . S
Nd120 O141 2.492 . S
Nd120 O142 2.487 . S
Nd120 O143 2.682 . S
Nd120 O144 2.410 . S
Nd120 O149 2.414 . S
Nd120 O151 2.424 . S
Nd121 C131 2.836 1_554 S
Nd121 O143 2.414 . S
Nd121 O145 2.424 . S
Nd121 O146 2.500 1_554 S
Nd121 O147 2.492 1_554 S
Nd121 O148 2.487 . S
Nd121 O149 2.682 . S
Nd121 O150 2.410 1_554 S
C122 Nd120 2.836 . S
C122 C123 1.498 . S
C122 O140 1.258 . S
C122 O141 1.239 . S
C123 C122 1.498 . S
C123 C124 1.366 . S
C123 C128 1.407 . S
C124 C123 1.366 . S
C124 C125 1.392 . S
C124 H152 0.930 . S
C125 C124 1.392 . S
C125 C126 1.398 . S
C125 H153 0.929 1_655 S
C126 C125 1.398 . S
C126 C127 1.352 . S
C127 C126 1.352 . S
C127 C128 1.384 . S
C127 H154 0.930 . S
C128 C123 1.407 . S
C128 C127 1.384 . S
C128 H155 0.929 . S
C129 O142 1.241 . S
C129 O143 1.273 . S
C130 O144 1.251 . S
C130 O145 1.268 . S
C131 Nd121 2.836 1_556 S
C131 C132 1.498 . S
C131 O146 1.258 . S
C131 O147 1.239 . S
C132 C131 1.498 . S
C132 C133 1.366 . S
C132 C137 1.407 . S
C133 C132 1.366 . S
C133 C134 1.392 . S
C133 H156 0.930 . S
C134 C133 1.392 . S
C134 C135 1.398 . S
C134 H157 0.929 . S
C135 C134 1.398 . S
C135 C136 1.352 . S
C136 C135 1.352 . S
C136 C137 1.384 . S
C136 H158 0.930 . S
C137 C132 1.407 . S
C137 C136 1.384 . S
C137 H159 0.929 . S
C138 O148 1.241 . S
C138 O149 1.273 . S
C139 O150 1.251 . S
C139 O151 1.268 1_556 S
O140 Nd120 2.500 . S
O140 C122 1.258 . S
O141 Nd120 2.492 . S
O141 C122 1.239 . S
O142 Nd120 2.487 . S
O142 C129 1.241 . S
O143 Nd120 2.682 . S
O143 Nd121 2.414 . S
O143 C129 1.273 . S
O144 Nd120 2.410 . S
O144 C130 1.251 . S
O145 Nd121 2.424 . S
O145 C130 1.268 . S
O146 Nd121 2.500 1_556 S
O146 C131 1.258 . S
O147 Nd121 2.492 1_556 S
O147 C131 1.239 . S
O148 Nd121 2.487 . S
O148 C138 1.241 . S
O149 Nd120 2.414 . S
O149 Nd121 2.682 . S
O149 C138 1.273 . S
O150 Nd121 2.410 1_556 S
O150 C139 1.251 . S
O151 Nd120 2.424 . S
O151 C139 1.268 1_554 S
H152 C124 0.930 . S
H153 C125 0.929 1_455 S
H154 C127 0.930 . S
H155 C128 0.929 . S
H156 C133 0.930 . S
H157 C134 0.929 . S
H158 C136 0.930 . S
H159 C137 0.929 . S
Nd160 C162 2.836 . S
Nd160 O180 2.500 . S
Nd160 O181 2.492 . S
Nd160 O182 2.487 . S
Nd160 O183 2.682 . S
Nd160 O184 2.410 . S
Nd160 O189 2.414 . S
Nd160 O191 2.424 . S
Nd161 C171 2.836 . S
Nd161 O183 2.414 . S
Nd161 O185 2.424 . S
Nd161 O186 2.500 . S
Nd161 O187 2.492 . S
Nd161 O188 2.487 . S
Nd161 O189 2.682 . S
Nd161 O190 2.410 . S
C162 Nd160 2.836 . S
C162 C163 1.498 . S
C162 O180 1.258 . S
C162 O181 1.239 . S
C163 C162 1.498 . S
C163 C164 1.366 . S
C163 C168 1.407 . S
C164 C163 1.366 . S
C164 C165 1.392 . S
C164 H192 0.930 . S
C165 C164 1.392 . S
C165 C166 1.398 . S
C165 H193 0.929 1_565 S
C166 C165 1.398 . S
C166 C167 1.352 . S
C167 C166 1.352 . S
C167 C168 1.384 . S
C167 H194 0.930 . S
C168 C163 1.407 . S
C168 C167 1.384 . S
C168 H195 0.929 . S
C169 O182 1.241 . S
C169 O183 1.273 . S
C170 O184 1.251 . S
C170 O185 1.268 . S
C171 Nd161 2.836 . S
C171 C172 1.498 . S
C171 O186 1.258 . S
C171 O187 1.239 . S
C172 C171 1.498 . S
C172 C173 1.366 . S
C172 C177 1.407 . S
C173 C172 1.366 . S
C173 C174 1.392 . S
C173 H196 0.930 . S
C174 C173 1.392 . S
C174 C175 1.398 . S
C174 H197 0.929 . S
C175 C174 1.398 . S
C175 C176 1.352 . S
C176 C175 1.352 . S
C176 C177 1.384 . S
C176 H198 0.930 . S
C177 C172 1.407 . S
C177 C176 1.384 . S
C177 H199 0.929 . S
C178 O188 1.241 . S
C178 O189 1.273 . S
C179 O190 1.251 . S
C179 O191 1.268 . S
O180 Nd160 2.500 . S
O180 C162 1.258 . S
O181 Nd160 2.492 . S
O181 C162 1.239 . S
O182 Nd160 2.487 . S
O182 C169 1.241 . S
O183 Nd160 2.682 . S
O183 Nd161 2.414 . S
O183 C169 1.273 . S
O184 Nd160 2.410 . S
O184 C170 1.251 . S
O185 Nd161 2.424 . S
O185 C170 1.268 . S
O186 Nd161 2.500 . S
O186 C171 1.258 . S
O187 Nd161 2.492 . S
O187 C171 1.239 . S
O188 Nd161 2.487 . S
O188 C178 1.241 . S
O189 Nd160 2.414 . S
O189 Nd161 2.682 . S
O189 C178 1.273 . S
O190 Nd161 2.410 . S
O190 C179 1.251 . S
O191 Nd160 2.424 . S
O191 C179 1.268 . S
H192 C164 0.930 . S
H193 C165 0.929 1_545 S
H194 C167 0.930 . S
H195 C168 0.929 . S
H196 C173 0.930 . S
H197 C174 0.929 . S
H198 C176 0.930 . S
H199 C177 0.929 . S
Nd200 C202 2.836 . S
Nd200 O220 2.500 . S
Nd200 O221 2.492 . S
Nd200 O222 2.487 . S
Nd200 O223 2.682 . S
Nd200 O224 2.410 . S
Nd200 O229 2.414 . S
Nd200 O231 2.424 . S
Nd201 C211 2.836 . S
Nd201 O223 2.414 . S
Nd201 O225 2.424 . S
Nd201 O226 2.500 . S
Nd201 O227 2.492 . S
Nd201 O228 2.487 . S
Nd201 O229 2.682 . S
Nd201 O230 2.410 . S
C202 Nd200 2.836 . S
C202 C203 1.498 . S
C202 O220 1.258 . S
C202 O221 1.239 . S
C203 C202 1.498 . S
C203 C204 1.366 . S
C203 C208 1.407 . S
C204 C203 1.366 . S
C204 C205 1.392 . S
C204 H232 0.930 . S
C205 C204 1.392 . S
C205 C206 1.398 . S
C205 H233 0.929 . S
C206 C205 1.398 . S
C206 C207 1.352 . S
C207 C206 1.352 . S
C207 C208 1.384 . S
C207 H234 0.930 . S
C208 C203 1.407 . S
C208 C207 1.384 . S
C208 H235 0.929 . S
C209 O222 1.241 . S
C209 O223 1.273 . S
C210 O224 1.251 . S
C210 O225 1.268 . S
C211 Nd201 2.836 . S
C211 C212 1.498 . S
C211 O226 1.258 . S
C211 O227 1.239 . S
C212 C211 1.498 . S
C212 C213 1.366 . S
C212 C217 1.407 . S
C213 C212 1.366 . S
C213 C214 1.392 . S
C213 H236 0.930 . S
C214 C213 1.392 . S
C214 C215 1.398 . S
C214 H237 0.929 . S
C215 C214 1.398 . S
C215 C216 1.352 . S
C216 C215 1.352 . S
C216 C217 1.384 . S
C216 H238 0.930 . S
C217 C212 1.407 . S
C217 C216 1.384 . S
C217 H239 0.929 . S
C218 O228 1.241 . S
C218 O229 1.273 . S
C219 O230 1.251 . S
C219 O231 1.268 . S
O220 Nd200 2.500 . S
O220 C202 1.258 . S
O221 Nd200 2.492 . S
O221 C202 1.239 . S
O222 Nd200 2.487 . S
O222 C209 1.241 . S
O223 Nd200 2.682 . S
O223 Nd201 2.414 . S
O223 C209 1.273 . S
O224 Nd200 2.410 . S
O224 C210 1.251 . S
O225 Nd201 2.424 . S
O225 C210 1.268 . S
O226 Nd201 2.500 . S
O226 C211 1.258 . S
O227 Nd201 2.492 . S
O227 C211 1.239 . S
O228 Nd201 2.487 . S
O228 C218 1.241 . S
O229 Nd200 2.414 . S
O229 Nd201 2.682 . S
O229 C218 1.273 . S
O230 Nd201 2.410 . S
O230 C219 1.251 . S
O231 Nd200 2.424 . S
O231 C219 1.268 . S
H232 C204 0.930 . S
H233 C205 0.929 . S
H234 C207 0.930 . S
H235 C208 0.929 . S
H236 C213 0.930 . S
H237 C214 0.929 . S
H238 C216 0.930 . S
H239 C217 0.929 . S
H240 C246 0.930 . S
H241 C250 0.930 . S
H242 C255 0.929 . S
H243 C253 0.929 . S
H244 C248 0.929 . S
H245 C254 0.929 . S
C246 H240 0.930 . S
C246 C247 1.367 . S
C246 C254 1.378 . S
C247 C246 1.367 . S
C247 C255 1.433 . S
C248 H244 0.929 . S
C248 C250 1.378 . S
C248 C252 1.350 . S
C249 C252 1.463 . S
C249 C254 1.350 . S
C249 N257 1.427 . S
C250 H241 0.930 . S
C250 C248 1.378 . S
C250 C251 1.367 . S
C251 C250 1.367 . S
C251 C253 1.433 . S
C252 C248 1.350 . S
C252 C249 1.463 . S
C252 N256 1.427 . S
C253 H243 0.929 . S
C253 C251 1.433 . S
C253 N256 1.384 . S
C254 H245 0.929 . S
C254 C246 1.378 . S
C254 C249 1.350 . S
C255 H242 0.929 . S
C255 C247 1.433 . S
C255 N257 1.384 . S
N256 C252 1.427 . S
N256 C253 1.384 . S
N257 C249 1.427 . S
N257 C255 1.384 . S
H258 C264 0.930 . S
H259 C268 0.930 . S
H260 C273 0.929 . S
H261 C271 0.929 . S
H262 C266 0.929 . S
H263 C272 0.929 . S
C264 H258 0.930 . S
C264 C265 1.367 . S
C264 C272 1.378 . S
C265 C264 1.367 . S
C265 C273 1.433 . S
C266 H262 0.929 . S
C266 C268 1.378 . S
C266 C270 1.350 . S
C267 C270 1.463 . S
C267 C272 1.350 . S
C267 N275 1.427 . S
C268 H259 0.930 . S
C268 C266 1.378 . S
C268 C269 1.367 . S
C269 C268 1.367 . S
C269 C271 1.433 . S
C270 C266 1.350 . S
C270 C267 1.463 . S
C270 N274 1.427 . S
C271 H261 0.929 . S
C271 C269 1.433 . S
C271 N274 1.384 . S
C272 H263 0.929 . S
C272 C264 1.378 . S
C272 C267 1.350 . S
C273 H260 0.929 . S
C273 C265 1.433 . S
C273 N275 1.384 . S
N274 C270 1.427 . S
N274 C271 1.384 . S
N275 C267 1.427 . S
N275 C273 1.384 . S
H276 C282 0.930 . S
H277 C286 0.930 . S
H278 C291 0.929 . S
H279 C289 0.929 . S
H280 C284 0.929 . S
H281 C290 0.929 . S
C282 H276 0.930 . S
C282 C283 1.367 . S
C282 C290 1.378 . S
C283 C282 1.367 . S
C283 C291 1.433 . S
C284 H280 0.929 . S
C284 C286 1.378 . S
C284 C288 1.350 . S
C285 C288 1.463 . S
C285 C290 1.350 . S
C285 N293 1.427 . S
C286 H277 0.930 . S
C286 C284 1.378 . S
C286 C287 1.367 . S
C287 C286 1.367 . S
C287 C289 1.433 . S
C288 C284 1.350 . S
C288 C285 1.463 . S
C288 N292 1.427 . S
C289 H279 0.929 . S
C289 C287 1.433 . S
C289 N292 1.384 . S
C290 H281 0.929 . S
C290 C282 1.378 . S
C290 C285 1.350 . S
C291 H278 0.929 . S
C291 C283 1.433 . S
C291 N293 1.384 . S
N292 C288 1.427 . S
N292 C289 1.384 . S
N293 C285 1.427 . S
N293 C291 1.384 . S
H294 C300 0.930 . S
H295 C304 0.930 . S
H296 C309 0.929 . S
H297 C307 0.929 . S
H298 C302 0.929 . S
H299 C308 0.929 . S
C300 H294 0.930 . S
C300 C301 1.367 . S
C300 C308 1.378 . S
C301 C300 1.367 . S
C301 C309 1.433 . S
C302 H298 0.929 . S
C302 C304 1.378 . S
C302 C306 1.350 . S
C303 C306 1.463 . S
C303 C308 1.350 . S
C303 N311 1.427 . S
C304 H295 0.930 . S
C304 C302 1.378 . S
C304 C305 1.367 . S
C305 C304 1.367 . S
C305 C307 1.433 . S
C306 C302 1.350 . S
C306 C303 1.463 . S
C306 N310 1.427 . S
C307 H297 0.929 . S
C307 C305 1.433 . S
C307 N310 1.384 . S
C308 H299 0.929 . S
C308 C300 1.378 . S
C308 C303 1.350 . S
C309 H296 0.929 . S
C309 C301 1.433 . S
C309 N311 1.384 . S
N310 C306 1.427 . S
N310 C307 1.384 . S
N311 C303 1.427 . S
N311 C309 1.384 . S
H312 C318 0.930 . S
H313 C322 0.930 . S
H314 C327 0.929 . S
H315 C325 0.929 . S
H316 C320 0.929 . S
H317 C326 0.929 . S
C318 H312 0.930 . S
C318 C319 1.367 . S
C318 C326 1.378 . S
C319 C318 1.367 . S
C319 C327 1.433 . S
C320 H316 0.929 . S
C320 C322 1.378 . S
C320 C324 1.350 . S
C321 C324 1.463 . S
C321 C326 1.350 . S
C321 N329 1.427 . S
C322 H313 0.930 . S
C322 C320 1.378 . S
C322 C323 1.367 . S
C323 C322 1.367 . S
C323 C325 1.433 . S
C324 C320 1.350 . S
C324 C321 1.463 . S
C324 N328 1.427 . S
C325 H315 0.929 . S
C325 C323 1.433 . S
C325 N328 1.384 . S
C326 H317 0.929 . S
C326 C318 1.378 . S
C326 C321 1.350 . S
C327 H314 0.929 . S
C327 C319 1.433 . S
C327 N329 1.384 . S
N328 C324 1.427 . S
N328 C325 1.384 . S
N329 C321 1.427 . S
N329 C327 1.384 . S
H330 C336 0.930 . S
H331 C340 0.930 . S
H332 C345 0.929 . S
H333 C343 0.929 . S
H334 C338 0.929 . S
H335 C344 0.929 . S
C336 H330 0.930 . S
C336 C337 1.367 . S
C336 C344 1.378 . S
C337 C336 1.367 . S
C337 C345 1.433 . S
C338 H334 0.929 . S
C338 C340 1.378 . S
C338 C342 1.350 . S
C339 C342 1.463 . S
C339 C344 1.350 . S
C339 N347 1.427 . S
C340 H331 0.930 . S
C340 C338 1.378 . S
C340 C341 1.367 . S
C341 C340 1.367 . S
C341 C343 1.433 . S
C342 C338 1.350 . S
C342 C339 1.463 . S
C342 N346 1.427 . S
C343 H333 0.929 . S
C343 C341 1.433 . S
C343 N346 1.384 . S
C344 H335 0.929 . S
C344 C336 1.378 . S
C344 C339 1.350 . S
C345 H332 0.929 . S
C345 C337 1.433 . S
C345 N347 1.384 . S
N346 C342 1.427 . S
N346 C343 1.384 . S
N347 C339 1.427 . S
N347 C345 1.384 . S
H348 C354 0.930 . S
H349 C358 0.930 . S
H350 C363 0.929 . S
H351 C361 0.929 . S
H352 C356 0.929 . S
H353 C362 0.929 . S
C354 H348 0.930 . S
C354 C355 1.367 . S
C354 C362 1.378 . S
C355 C354 1.367 . S
C355 C363 1.433 . S
C356 H352 0.929 . S
C356 C358 1.378 . S
C356 C360 1.350 . S
C357 C360 1.463 . S
C357 C362 1.350 . S
C357 N365 1.427 . S
C358 H349 0.930 . S
C358 C356 1.378 . S
C358 C359 1.367 . S
C359 C358 1.367 . S
C359 C361 1.433 . S
C360 C356 1.350 . S
C360 C357 1.463 . S
C360 N364 1.427 . S
C361 H351 0.929 . S
C361 C359 1.433 . S
C361 N364 1.384 . S
C362 H353 0.929 . S
C362 C354 1.378 . S
C362 C357 1.350 . S
C363 H350 0.929 . S
C363 C355 1.433 . S
C363 N365 1.384 . S
N364 C360 1.427 . S
N364 C361 1.384 . S
N365 C357 1.427 . S
N365 C363 1.384 . S
H366 C372 0.930 . S
H367 C376 0.930 . S
H368 C381 0.929 . S
H369 C379 0.929 . S
H370 C374 0.929 1_455 S
H371 C380 0.929 1_655 S
C372 H366 0.930 . S
C372 C373 1.367 . S
C372 C380 1.378 . S
C373 C372 1.367 . S
C373 C381 1.433 . S
C374 H370 0.929 1_655 S
C374 C376 1.378 . S
C374 C378 1.350 . S
C375 C378 1.463 1_455 S
C375 C380 1.350 . S
C375 N383 1.427 . S
C376 H367 0.930 . S
C376 C374 1.378 . S
C376 C377 1.367 . S
C377 C376 1.367 . S
C377 C379 1.433 . S
C378 C374 1.350 . S
C378 C375 1.463 1_655 S
C378 N382 1.427 . S
C379 H369 0.929 . S
C379 C377 1.433 . S
C379 N382 1.384 . S
C380 H371 0.929 1_455 S
C380 C372 1.378 . S
C380 C375 1.350 . S
C381 H368 0.929 . S
C381 C373 1.433 . S
C381 N383 1.384 . S
N382 C378 1.427 . S
N382 C379 1.384 . S
N383 C375 1.427 . S
N383 C381 1.384 . S
H384 C390 0.930 . S
H385 C394 0.930 . S
H386 C399 0.929 . S
H387 C397 0.929 . S
H388 C392 0.929 . S
H389 C398 0.929 . S
C390 H384 0.930 . S
C390 C391 1.367 . S
C390 C398 1.378 1_545 S
C391 C390 1.367 . S
C391 C399 1.433 . S
C392 H388 0.929 . S
C392 C394 1.378 1_545 S
C392 C396 1.350 1_545 S
C393 C396 1.463 1_545 S
C393 C398 1.350 1_545 S
C393 N401 1.427 . S
C394 H385 0.930 . S
C394 C392 1.378 1_565 S
C394 C395 1.367 . S
C395 C394 1.367 . S
C395 C397 1.433 . S
C396 C392 1.350 1_565 S
C396 C393 1.463 1_565 S
C396 N400 1.427 . S
C397 H387 0.929 . S
C397 C395 1.433 . S
C397 N400 1.384 . S
C398 H389 0.929 . S
C398 C390 1.378 1_565 S
C398 C393 1.350 1_565 S
C399 H386 0.929 . S
C399 C391 1.433 . S
C399 N401 1.384 . S
N400 C396 1.427 . S
N400 C397 1.384 . S
N401 C393 1.427 . S
N401 C399 1.384 . S
H402 C408 0.930 . S
H403 C412 0.930 . S
H404 C417 0.929 . S
H405 C415 0.929 . S
H406 C410 0.929 . S
H407 C416 0.929 . S
C408 H402 0.930 . S
C408 C409 1.367 . S
C408 C416 1.378 . S
C409 C408 1.367 . S
C409 C417 1.433 . S
C410 H406 0.929 . S
C410 C412 1.378 . S
C410 C414 1.350 . S
C411 C414 1.463 . S
C411 C416 1.350 . S
C411 N419 1.427 . S
C412 H403 0.930 . S
C412 C410 1.378 . S
C412 C413 1.367 . S
C413 C412 1.367 . S
C413 C415 1.433 . S
C414 C410 1.350 . S
C414 C411 1.463 . S
C414 N418 1.427 . S
C415 H405 0.929 . S
C415 C413 1.433 . S
C415 N418 1.384 . S
C416 H407 0.929 . S
C416 C408 1.378 . S
C416 C411 1.350 . S
C417 H404 0.929 . S
C417 C409 1.433 . S
C417 N419 1.384 . S
N418 C414 1.427 . S
N418 C415 1.384 . S
N419 C411 1.427 . S
N419 C417 1.384 . S
H420 C426 0.930 . S
H421 C430 0.930 . S
H422 C435 0.929 1_655 S
H423 C433 0.929 1_455 S
H424 C428 0.929 . S
H425 C434 0.929 . S
C426 H420 0.930 . S
C426 C427 1.367 . S
C426 C434 1.378 . S
C427 C426 1.367 . S
C427 C435 1.433 . S
C428 H424 0.929 . S
C428 C430 1.378 . S
C428 C432 1.350 . S
C429 C432 1.463 1_455 S
C429 C434 1.350 . S
C429 N437 1.427 1_455 S
C430 H421 0.930 . S
C430 C428 1.378 . S
C430 C431 1.367 . S
C431 C430 1.367 . S
C431 C433 1.433 . S
C432 C428 1.350 . S
C432 C429 1.463 1_655 S
C432 N436 1.427 1_655 S
C433 H423 0.929 1_655 S
C433 C431 1.433 . S
C433 N436 1.384 1_655 S
C434 H425 0.929 . S
C434 C426 1.378 . S
C434 C429 1.350 . S
C435 H422 0.929 1_455 S
C435 C427 1.433 . S
C435 N437 1.384 1_455 S
N436 C432 1.427 1_455 S
N436 C433 1.384 1_455 S
N437 C429 1.427 1_655 S
N437 C435 1.384 1_655 S
H438 C444 0.930 . S
H439 C448 0.930 . S
H440 C453 0.929 1_545 S
H441 C451 0.929 1_565 S
H442 C446 0.929 . S
H443 C452 0.929 . S
C444 H438 0.930 . S
C444 C445 1.367 . S
C444 C452 1.378 . S
C445 C444 1.367 . S
C445 C453 1.433 . S
C446 H442 0.929 . S
C446 C448 1.378 . S
C446 C450 1.350 . S
C447 C450 1.463 1_565 S
C447 C452 1.350 . S
C447 N455 1.427 1_565 S
C448 H439 0.930 . S
C448 C446 1.378 . S
C448 C449 1.367 . S
C449 C448 1.367 . S
C449 C451 1.433 . S
C450 C446 1.350 . S
C450 C447 1.463 1_545 S
C450 N454 1.427 1_545 S
C451 H441 0.929 1_545 S
C451 C449 1.433 . S
C451 N454 1.384 1_545 S
C452 H443 0.929 . S
C452 C444 1.378 . S
C452 C447 1.350 . S
C453 H440 0.929 1_565 S
C453 C445 1.433 . S
C453 N455 1.384 1_565 S
N454 C450 1.427 1_565 S
N454 C451 1.384 1_565 S
N455 C447 1.427 1_545 S
N455 C453 1.384 1_545 S
H456 C462 0.930 . S
H457 C466 0.930 . S
H458 C471 0.929 . S
H459 C469 0.929 . S
H460 C464 0.929 . S
H461 C470 0.929 . S
C462 H456 0.930 . S
C462 C463 1.367 . S
C462 C470 1.378 . S
C463 C462 1.367 . S
C463 C471 1.433 . S
C464 H460 0.929 . S
C464 C466 1.378 . S
C464 C468 1.350 . S
C465 C468 1.463 . S
C465 C470 1.350 . S
C465 N473 1.427 . S
C466 H457 0.930 . S
C466 C464 1.378 . S
C466 C467 1.367 . S
C467 C466 1.367 . S
C467 C469 1.433 . S
C468 C464 1.350 . S
C468 C465 1.463 . S
C468 N472 1.427 . S
C469 H459 0.929 . S
C469 C467 1.433 . S
C469 N472 1.384 . S
C470 H461 0.929 . S
C470 C462 1.378 . S
C470 C465 1.350 . S
C471 H458 0.929 . S
C471 C463 1.433 . S
C471 N473 1.384 . S
N472 C468 1.427 . S
N472 C469 1.384 . S
N473 C465 1.427 . S
N473 C471 1.384 . S
H474 C480 0.930 . S
H475 C484 0.930 . S
H476 C489 0.929 . S
H477 C487 0.929 . S
H478 C482 0.929 . S
H479 C488 0.929 . S
C480 H474 0.930 . S
C480 C481 1.367 . S
C480 C488 1.378 . S
C481 C480 1.367 . S
C481 C489 1.433 . S
C482 H478 0.929 . S
C482 C484 1.378 . S
C482 C486 1.350 1_455 S
C483 C486 1.463 . S
C483 C488 1.350 . S
C483 N491 1.427 . S
C484 H475 0.930 . S
C484 C482 1.378 . S
C484 C485 1.367 . S
C485 C484 1.367 . S
C485 C487 1.433 1_455 S
C486 C482 1.350 1_655 S
C486 C483 1.463 . S
C486 N490 1.427 . S
C487 H477 0.929 . S
C487 C485 1.433 1_655 S
C487 N490 1.384 . S
C488 H479 0.929 . S
C488 C480 1.378 . S
C488 C483 1.350 . S
C489 H476 0.929 . S
C489 C481 1.433 . S
C489 N491 1.384 . S
N490 C486 1.427 . S
N490 C487 1.384 . S
N491 C483 1.427 . S
N491 C489 1.384 . S
H492 C498 0.930 . S
H493 C502 0.930 . S
H494 C507 0.929 . S
H495 C505 0.929 . S
H496 C500 0.929 . S
H497 C506 0.929 . S
C498 H492 0.930 . S
C498 C499 1.367 . S
C498 C506 1.378 . S
C499 C498 1.367 . S
C499 C507 1.433 . S
C500 H496 0.929 . S
C500 C502 1.378 1_565 S
C500 C504 1.350 . S
C501 C504 1.463 . S
C501 C506 1.350 . S
C501 N509 1.427 . S
C502 H493 0.930 . S
C502 C500 1.378 1_545 S
C502 C503 1.367 . S
C503 C502 1.367 . S
C503 C505 1.433 1_545 S
C504 C500 1.350 . S
C504 C501 1.463 . S
C504 N508 1.427 . S
C505 H495 0.929 . S
C505 C503 1.433 1_565 S
C505 N508 1.384 . S
C506 H497 0.929 . S
C506 C498 1.378 . S
C506 C501 1.350 . S
C507 H494 0.929 . S
C507 C499 1.433 . S
C507 N509 1.384 . S
N508 C504 1.427 . S
N508 C505 1.384 . S
N509 C501 1.427 . S
N509 C507 1.384 . S
H510 C516 0.930 . S
H511 C520 0.930 . S
H512 C525 0.929 . S
H513 C523 0.929 . S
H514 C518 0.929 . S
H515 C524 0.929 . S
C516 H510 0.930 . S
C516 C517 1.367 . S
C516 C524 1.378 . S
C517 C516 1.367 . S
C517 C525 1.433 . S
C518 H514 0.929 . S
C518 C520 1.378 . S
C518 C522 1.350 . S
C519 C522 1.463 . S
C519 C524 1.350 . S
C519 N527 1.427 . S
C520 H511 0.930 . S
C520 C518 1.378 . S
C520 C521 1.367 . S
C521 C520 1.367 . S
C521 C523 1.433 . S
C522 C518 1.350 . S
C522 C519 1.463 . S
C522 N526 1.427 . S
C523 H513 0.929 . S
C523 C521 1.433 . S
C523 N526 1.384 . S
C524 H515 0.929 . S
C524 C516 1.378 . S
C524 C519 1.350 . S
C525 H512 0.929 . S
C525 C517 1.433 . S
C525 N527 1.384 . S
N526 C522 1.427 . S
N526 C523 1.384 . S
N527 C519 1.427 . S
N527 C525 1.384 . S
H528 C534 0.930 . S
H529 C538 0.930 . S
H530 C543 0.929 . S
H531 C541 0.929 . S
H532 C536 0.929 . S
H533 C542 0.929 1_655 S
C534 H528 0.930 . S
C534 C535 1.367 . S
C534 C542 1.378 . S
C535 C534 1.367 . S
C535 C543 1.433 . S
C536 H532 0.929 . S
C536 C538 1.378 . S
C536 C540 1.350 . S
C537 C540 1.463 . S
C537 C542 1.350 . S
C537 N545 1.427 . S
C538 H529 0.930 . S
C538 C536 1.378 . S
C538 C539 1.367 1_455 S
C539 C538 1.367 1_655 S
C539 C541 1.433 . S
C540 C536 1.350 . S
C540 C537 1.463 . S
C540 N544 1.427 1_455 S
C541 H531 0.929 . S
C541 C539 1.433 . S
C541 N544 1.384 . S
C542 H533 0.929 1_455 S
C542 C534 1.378 . S
C542 C537 1.350 . S
C543 H530 0.929 . S
C543 C535 1.433 . S
C543 N545 1.384 . S
N544 C540 1.427 1_655 S
N544 C541 1.384 . S
N545 C537 1.427 . S
N545 C543 1.384 . S
H546 C552 0.930 . S
H547 C556 0.930 . S
H548 C561 0.929 . S
H549 C559 0.929 . S
H550 C554 0.929 . S
H551 C560 0.929 1_565 S
C552 H546 0.930 . S
C552 C553 1.367 . S
C552 C560 1.378 . S
C553 C552 1.367 . S
C553 C561 1.433 . S
C554 H550 0.929 . S
C554 C556 1.378 . S
C554 C558 1.350 . S
C555 C558 1.463 . S
C555 C560 1.350 . S
C555 N563 1.427 . S
C556 H547 0.930 . S
C556 C554 1.378 . S
C556 C557 1.367 1_545 S
C557 C556 1.367 1_565 S
C557 C559 1.433 . S
C558 C554 1.350 . S
C558 C555 1.463 . S
C558 N562 1.427 1_545 S
C559 H549 0.929 . S
C559 C557 1.433 . S
C559 N562 1.384 . S
C560 H551 0.929 1_545 S
C560 C552 1.378 . S
C560 C555 1.350 . S
C561 H548 0.929 . S
C561 C553 1.433 . S
C561 N563 1.384 . S
N562 C558 1.427 1_565 S
N562 C559 1.384 . S
N563 C555 1.427 . S
N563 C561 1.384 . S
C247 C175 1.198 . S
C251 C10 1.190 . S
C265 C215 1.198 . S
C269 C50 1.194 . S
C283 C15 1.198 . S
C287 C90 1.191 . S
C301 C55 1.197 . S
C305 C130 1.194 . S
C319 C95 1.198 . S
C323 C170 1.186 . S
C337 C135 1.197 . S
C341 C210 1.194 . S
C355 C9 1.074 . S
C359 C129 1.073 . S
C373 C169 1.075 . S
C377 C49 1.080 . S
C391 C209 1.077 . S
C395 C89 1.080 . S
C409 C98 0.977 . S
C413 C218 0.984 . S
C427 C18 0.966 . S
C431 C138 0.968 . S
C445 C178 0.967 . S
C449 C58 0.966 . S
C463 C206 1.335 . S
C467 C19 1.355 . S
C481 C59 1.352 . S
C485 C6 1.326 . S
C499 C99 1.355 . S
C503 C46 1.336 . S
C517 C86 1.325 . S
C521 C139 1.353 . S
C535 C179 1.356 . S
C539 C126 1.332 . S
C553 C219 1.355 . S
C557 C166 1.329 . S
