# Generated by pormake.
# Topology umk, (4)-cn, num edge types: 1
# Building blocks:
#     Node 0, Type 0, BuildingBlock: ICAMEG_clean_sbu_1, # of connection points: 4
#     Node 1, Type 0, BuildingBlock: ICAMEG_clean_sbu_1, # of connection points: 4
#     Node 2, Type 0, BuildingBlock: ICAMEG_clean_sbu_1, # of connection points: 4
#     Node 3, Type 0, BuildingBlock: ICAMEG_clean_sbu_1, # of connection points: 4
#     Node 4, Type 0, BuildingBlock: ICAMEG_clean_sbu_1, # of connection points: 4
#     Node 5, Type 0, BuildingBlock: ICAMEG_clean_sbu_1, # of connection points: 4
#     Node 6, Type 0, BuildingBlock: ICAMEG_clean_sbu_1, # of connection points: 4
#     Node 7, Type 0, BuildingBlock: ICAMEG_clean_sbu_1, # of connection points: 4
#     Node 8, Type 0, BuildingBlock: ICAMEG_clean_sbu_1, # of connection points: 4
#     Node 9, Type 0, BuildingBlock: ICAMEG_clean_sbu_1, # of connection points: 4
#     Node 10, Type 0, BuildingBlock: ICAMEG_clean_sbu_1, # of connection points: 4
#     Node 11, Type 0, BuildingBlock: ICAMEG_clean_sbu_1, # of connection points: 4
#     Node 12, Type 0, BuildingBlock: ICAMEG_clean_sbu_1, # of connection points: 4
#     Node 13, Type 0, BuildingBlock: ICAMEG_clean_sbu_1, # of connection points: 4
#     Node 14, Type 0, BuildingBlock: ICAMEG_clean_sbu_1, # of connection points: 4
#     Node 15, Type 0, BuildingBlock: ICAMEG_clean_sbu_1, # of connection points: 4
#     Node 16, Type 0, BuildingBlock: ICAMEG_clean_sbu_1, # of connection points: 4
#     Node 17, Type 0, BuildingBlock: ICAMEG_clean_sbu_1, # of connection points: 4
#     Node 18, Type 0, BuildingBlock: ICAMEG_clean_sbu_1, # of connection points: 4
#     Node 19, Type 0, BuildingBlock: ICAMEG_clean_sbu_1, # of connection points: 4
#     Node 20, Type 0, BuildingBlock: ICAMEG_clean_sbu_1, # of connection points: 4
#     Node 21, Type 0, BuildingBlock: ICAMEG_clean_sbu_1, # of connection points: 4
#     Node 22, Type 0, BuildingBlock: ICAMEG_clean_sbu_1, # of connection points: 4
#     Node 23, Type 0, BuildingBlock: ICAMEG_clean_sbu_1, # of connection points: 4
#     Edge 24, Type (0, 0), BuildingBlock: UVAHIK_clean_linker_0, # of connection points: 2
#     Edge 25, Type (0, 0), BuildingBlock: UVAHIK_clean_linker_0, # of connection points: 2
#     Edge 26, Type (0, 0), BuildingBlock: UVAHIK_clean_linker_0, # of connection points: 2
#     Edge 27, Type (0, 0), BuildingBlock: UVAHIK_clean_linker_0, # of connection points: 2
#     Edge 28, Type (0, 0), BuildingBlock: UVAHIK_clean_linker_0, # of connection points: 2
#     Edge 29, Type (0, 0), BuildingBlock: UVAHIK_clean_linker_0, # of connection points: 2
#     Edge 30, Type (0, 0), BuildingBlock: UVAHIK_clean_linker_0, # of connection points: 2
#     Edge 31, Type (0, 0), BuildingBlock: UVAHIK_clean_linker_0, # of connection points: 2
#     Edge 32, Type (0, 0), BuildingBlock: UVAHIK_clean_linker_0, # of connection points: 2
#     Edge 33, Type (0, 0), BuildingBlock: UVAHIK_clean_linker_0, # of connection points: 2
#     Edge 34, Type (0, 0), BuildingBlock: UVAHIK_clean_linker_0, # of connection points: 2
#     Edge 35, Type (0, 0), BuildingBlock: UVAHIK_clean_linker_0, # of connection points: 2
#     Edge 36, Type (0, 0), BuildingBlock: UVAHIK_clean_linker_0, # of connection points: 2
#     Edge 37, Type (0, 0), BuildingBlock: UVAHIK_clean_linker_0, # of connection points: 2
#     Edge 38, Type (0, 0), BuildingBlock: UVAHIK_clean_linker_0, # of connection points: 2
#     Edge 39, Type (0, 0), BuildingBlock: UVAHIK_clean_linker_0, # of connection points: 2
#     Edge 40, Type (0, 0), BuildingBlock: UVAHIK_clean_linker_0, # of connection points: 2
#     Edge 41, Type (0, 0), BuildingBlock: UVAHIK_clean_linker_0, # of connection points: 2
#     Edge 42, Type (0, 0), BuildingBlock: UVAHIK_clean_linker_0, # of connection points: 2
#     Edge 43, Type (0, 0), BuildingBlock: UVAHIK_clean_linker_0, # of connection points: 2
#     Edge 44, Type (0, 0), BuildingBlock: UVAHIK_clean_linker_0, # of connection points: 2
#     Edge 45, Type (0, 0), BuildingBlock: UVAHIK_clean_linker_0, # of connection points: 2
#     Edge 46, Type (0, 0), BuildingBlock: UVAHIK_clean_linker_0, # of connection points: 2
#     Edge 47, Type (0, 0), BuildingBlock: UVAHIK_clean_linker_0, # of connection points: 2
#     Edge 48, Type (0, 0), BuildingBlock: UVAHIK_clean_linker_0, # of connection points: 2
#     Edge 49, Type (0, 0), BuildingBlock: UVAHIK_clean_linker_0, # of connection points: 2
#     Edge 50, Type (0, 0), BuildingBlock: UVAHIK_clean_linker_0, # of connection points: 2
#     Edge 51, Type (0, 0), BuildingBlock: UVAHIK_clean_linker_0, # of connection points: 2
#     Edge 52, Type (0, 0), BuildingBlock: UVAHIK_clean_linker_0, # of connection points: 2
#     Edge 53, Type (0, 0), BuildingBlock: UVAHIK_clean_linker_0, # of connection points: 2
#     Edge 54, Type (0, 0), BuildingBlock: UVAHIK_clean_linker_0, # of connection points: 2
#     Edge 55, Type (0, 0), BuildingBlock: UVAHIK_clean_linker_0, # of connection points: 2
#     Edge 56, Type (0, 0), BuildingBlock: UVAHIK_clean_linker_0, # of connection points: 2
#     Edge 57, Type (0, 0), BuildingBlock: UVAHIK_clean_linker_0, # of connection points: 2
#     Edge 58, Type (0, 0), BuildingBlock: UVAHIK_clean_linker_0, # of connection points: 2
#     Edge 59, Type (0, 0), BuildingBlock: UVAHIK_clean_linker_0, # of connection points: 2
#     Edge 60, Type (0, 0), BuildingBlock: UVAHIK_clean_linker_0, # of connection points: 2
#     Edge 61, Type (0, 0), BuildingBlock: UVAHIK_clean_linker_0, # of connection points: 2
#     Edge 62, Type (0, 0), BuildingBlock: UVAHIK_clean_linker_0, # of connection points: 2
#     Edge 63, Type (0, 0), BuildingBlock: UVAHIK_clean_linker_0, # of connection points: 2
#     Edge 64, Type (0, 0), BuildingBlock: UVAHIK_clean_linker_0, # of connection points: 2
#     Edge 65, Type (0, 0), BuildingBlock: UVAHIK_clean_linker_0, # of connection points: 2
#     Edge 66, Type (0, 0), BuildingBlock: UVAHIK_clean_linker_0, # of connection points: 2
#     Edge 67, Type (0, 0), BuildingBlock: UVAHIK_clean_linker_0, # of connection points: 2
#     Edge 68, Type (0, 0), BuildingBlock: UVAHIK_clean_linker_0, # of connection points: 2
#     Edge 69, Type (0, 0), BuildingBlock: UVAHIK_clean_linker_0, # of connection points: 2
#     Edge 70, Type (0, 0), BuildingBlock: UVAHIK_clean_linker_0, # of connection points: 2
#     Edge 71, Type (0, 0), BuildingBlock: UVAHIK_clean_linker_0, # of connection points: 2
# Relax obj value: 0.074
# Max RMSD: 0.108
# Mean RMSD: 0.108
data_MOF--net-umk--node1-ICAMEG_clean_sbu_1--edge1-UVAHIK_clean_linker_0
_symmetry_space_group_name_H-M    P1
_symmetry_Int_Tables_number       1
_symmetry_cell_setting            triclinic
loop_
_symmetry_equiv_pos_as_xyz
'x, y, z'
_cell_length_a     88.088113
_cell_length_b     88.096187
_cell_length_c     61.97527
_cell_angle_alpha  90.00144
_cell_angle_beta   90.002263
_cell_angle_gamma 120.00868
loop_
_atom_site_label
_atom_site_type_symbol
_atom_site_fract_x
_atom_site_fract_y
_atom_site_fract_z
_atom_type_partial_charge
Co0 Co 0.35608 0.48404 0.10663 0.0
Co1 Co 0.3361 0.46046 0.06069 0.0
O2 O 0.3353 0.46963 0.08912 0.0
C3 C 0.33466 0.45572 0.13817 0.0
O4 O 0.3336 0.44403 0.12418 0.0
C5 C 0.31666 0.47929 0.05137 0.0
O6 O 0.32956 0.49326 0.06047 0.0
O7 O 0.35449 0.48414 0.05058 0.0
O8 O 0.36995 0.49672 0.08061 0.0
H9 H 0.3655 0.45266 0.99557 0.0
H10 H 0.32227 0.48182 0.11749 0.0
O11 O 0.34271 0.47195 0.13334 0.0
H12 H 0.36347 0.54452 0.1041 0.0
H13 H 0.38793 0.51994 0.17189 0.0
H14 H 0.39398 0.49609 0.10249 0.0
H15 H 0.37337 0.52289 0.10156 0.0
H16 H 0.36204 0.50219 0.14905 0.0
O17 O 0.3172 0.46512 0.05028 0.0
H18 H 0.36441 0.46394 0.03162 0.0
H19 H 0.3088 0.43754 0.02885 0.0
H20 H 0.42023 0.5139 0.12475 0.0
H21 H 0.31184 0.50303 0.12039 0.0
H22 H 0.4173 0.52596 0.15973 0.0
H23 H 0.3325 0.53463 0.11361 0.0
O24 O 0.36409 0.46659 0.10355 0.0
H25 H 0.27967 0.41759 0.09694 0.0
H26 H 0.33206 0.42475 0.05898 0.0
H27 H 0.30992 0.39551 0.07214 0.0
H28 H 0.28347 0.39178 0.09123 0.0
H29 H 0.30222 0.44664 0.08366 0.0
H30 H 0.30929 0.42608 0.99269 0.0
H31 H 0.3378 0.43359 0.97585 0.0
O32 O 0.35477 0.45534 0.07047 0.0
C33 C 0.36775 0.49643 0.06026 0.0
C34 C 0.353 0.44926 0.00276 0.0
C35 C 0.32145 0.43436 1.00113 0.0
N36 N 0.33656 0.4513 0.03239 0.0
C37 C 0.3523 0.45557 0.02319 0.0
C38 C 0.32126 0.44091 0.02159 0.0
C39 C 0.33745 0.43857 0.9917 0.0
C40 C 0.33137 0.49557 0.11468 0.0
N41 N 0.34842 0.50112 0.10943 0.0
C42 C 0.32538 0.50751 0.11627 0.0
C43 C 0.33697 0.52523 0.11244 0.0
C44 C 0.35434 0.53079 0.10709 0.0
C45 C 0.35986 0.51847 0.10562 0.0
C46 C 0.38938 0.51479 0.15667 0.0
C47 C 0.39261 0.50138 0.11763 0.0
C48 C 0.37477 0.5047 0.14368 0.0
N49 N 0.37652 0.49822 0.12438 0.0
C50 C 0.40752 0.51141 0.13019 0.0
C51 C 0.40586 0.51816 0.14983 0.0
C52 C 0.36366 0.45725 0.08756 0.0
C53 C 0.29112 0.41904 0.0886 0.0
C54 C 0.32062 0.42325 0.06734 0.0
C55 C 0.30811 0.40665 0.07471 0.0
C56 C 0.29327 0.40457 0.08541 0.0
N57 N 0.31839 0.43738 0.07047 0.0
C58 C 0.3039 0.43544 0.08099 0.0
Co59 Co 0.8744 0.35394 0.60422 0.0
Co60 Co 0.87857 0.33508 0.55753 0.0
O61 O 0.86833 0.33352 0.58606 0.0
C62 C 0.88206 0.33356 0.63698 0.0
O63 O 0.8946 0.33438 0.62472 0.0
C64 C 0.84018 0.31487 0.54897 0.0
O65 O 0.83862 0.3265 0.56052 0.0
O66 O 0.87301 0.35344 0.54818 0.0
O67 O 0.87586 0.36836 0.57866 0.0
H68 H 0.91618 0.36641 0.49342 0.0
H69 H 0.84277 0.3199 0.61421 0.0
O70 O 0.87274 0.34003 0.6306 0.0
H71 H 0.82117 0.36113 0.60169 0.0
H72 H 0.86942 0.38437 0.67039 0.0
H73 H 0.90023 0.39194 0.60132 0.0
H74 H 0.85275 0.37118 0.59948 0.0
H75 H 0.86162 0.35898 0.64675 0.0
O76 O 0.85521 0.31633 0.54634 0.0
H77 H 0.9034 0.36424 0.52949 0.0
H78 H 0.8749 0.30871 0.52466 0.0
H79 H 0.90834 0.4177 0.62439 0.0
H80 H 0.81108 0.30933 0.6168 0.0
H81 H 0.89288 0.414 0.6592 0.0
H82 H 0.80009 0.32999 0.61044 0.0
O83 O 0.89991 0.36212 0.60139 0.0
H84 H 0.86526 0.27799 0.59163 0.0
H85 H 0.91046 0.33144 0.55541 0.0
H86 H 0.91774 0.30919 0.56762 0.0
H87 H 0.89503 0.28221 0.58582 0.0
H88 H 0.85859 0.30066 0.57932 0.0
H89 H 0.88726 0.31028 0.48846 0.0
H90 H 0.90811 0.33929 0.47265 0.0
O91 O 0.90219 0.35364 0.56793 0.0
C92 C 0.87396 0.3665 0.55827 0.0
C93 C 0.90715 0.35369 0.50016 0.0
C94 C 0.8909 0.32218 0.49737 0.0
N95 N 0.88852 0.33637 0.52922 0.0
C96 C 0.89991 0.35238 0.52059 0.0
C97 C 0.88391 0.32138 0.51784 0.0
C98 C 0.9026 0.33847 0.48851 0.0
C99 C 0.8381 0.32901 0.61161 0.0
N100 N 0.84961 0.34615 0.60674 0.0
C101 C 0.82014 0.32293 0.61302 0.0
C102 C 0.81398 0.33453 0.60942 0.0
C103 C 0.8258 0.35199 0.60449 0.0
C104 C 0.84367 0.3576 0.60319 0.0
C105 C 0.87622 0.38615 0.65524 0.0
C106 C 0.89337 0.39023 0.61639 0.0
C107 C 0.87189 0.37182 0.6418 0.0
N108 N 0.88038 0.37399 0.6226 0.0
C109 C 0.89805 0.40486 0.62941 0.0
C110 C 0.88939 0.40278 0.64895 0.0
C111 C 0.90899 0.36212 0.58533 0.0
C112 C 0.87525 0.28967 0.58367 0.0
C113 C 0.90053 0.31977 0.5634 0.0
C114 C 0.90471 0.3072 0.57023 0.0
C115 C 0.89196 0.29206 0.58043 0.0
N116 N 0.88409 0.31731 0.56658 0.0
C117 C 0.87154 0.30252 0.57662 0.0
Co118 Co 0.52183 0.8722 0.10597 0.0
Co119 Co 0.54554 0.87655 0.0598 0.0
O120 O 0.53653 0.86628 0.08824 0.0
C121 C 0.55019 0.87965 0.13781 0.0
O122 O 0.56185 0.89069 0.12409 0.0
C123 C 0.52759 0.83818 0.05115 0.0
O124 O 0.51424 0.83654 0.06246 0.0
O125 O 0.52172 0.87088 0.04989 0.0
O126 O 0.50898 0.87327 0.08004 0.0
H127 H 0.55246 0.91408 0.99536 0.0
H128 H 0.52469 0.84096 0.11673 0.0
O129 O 0.53404 0.87103 0.13265 0.0
H130 H 0.46184 0.81838 0.10302 0.0
H131 H 0.48557 0.86702 0.17133 0.0
H132 H 0.50917 0.89758 0.10222 0.0
H133 H 0.48303 0.85004 0.10067 0.0
H134 H 0.50368 0.85947 0.14832 0.0
O135 O 0.54118 0.85324 0.04875 0.0
H136 H 0.54141 0.90127 0.03131 0.0
H137 H 0.56878 0.87306 0.02759 0.0
H138 H 0.491 0.90544 0.12465 0.0
H139 H 0.50391 0.80919 0.11946 0.0
H140 H 0.47906 0.89011 0.15949 0.0
H141 H 0.47224 0.79771 0.1125 0.0
O142 O 0.53893 0.89777 0.10309 0.0
H143 H 0.58905 0.8635 0.09521 0.0
H144 H 0.58101 0.90857 0.05829 0.0
H145 H 0.61041 0.91599 0.07123 0.0
H146 H 0.61457 0.89335 0.0898 0.0
H147 H 0.55984 0.85668 0.08215 0.0
H148 H 0.58001 0.88544 0.99153 0.0
H149 H 0.5719 0.90617 0.97522 0.0
O150 O 0.55032 0.90011 0.07002 0.0
C151 C 0.5093 0.87153 0.05966 0.0
C152 C 0.55612 0.90511 0.00232 0.0
C153 C 0.57157 0.88901 1.00016 0.0
N154 N 0.55454 0.88653 0.03159 0.0
C155 C 0.54995 0.89785 0.02269 0.0
C156 C 0.56514 0.88201 0.02056 0.0
C157 C 0.56702 0.90065 0.99102 0.0
C158 C 0.51091 0.83607 0.11387 0.0
N159 N 0.50508 0.84735 0.1086 0.0
C160 C 0.49921 0.81807 0.11536 0.0
C161 C 0.48145 0.81163 0.11142 0.0
C162 C 0.4756 0.82322 0.10608 0.0
C163 C 0.48768 0.84114 0.10471 0.0
C164 C 0.49067 0.87377 0.15617 0.0
C165 C 0.50394 0.89078 0.1173 0.0
C166 C 0.50096 0.86958 0.14309 0.0
N167 N 0.50737 0.87799 0.12386 0.0
C168 C 0.49369 0.89531 0.12996 0.0
C169 C 0.48702 0.88672 0.14951 0.0
C170 C 0.54824 0.90688 0.08719 0.0
C171 C 0.58741 0.87346 0.0871 0.0
C172 C 0.5827 0.89867 0.06642 0.0
C173 C 0.59939 0.90293 0.07367 0.0
C174 C 0.60172 0.89022 0.08408 0.0
N175 N 0.56874 0.88218 0.06938 0.0
C176 C 0.57092 0.86966 0.07961 0.0
Co177 Co 0.65195 0.52132 0.60456 0.0
Co178 Co 0.67095 0.54457 0.5581 0.0
O179 O 0.67237 0.53581 0.58657 0.0
C180 C 0.67219 0.54954 0.63706 0.0
O181 O 0.67144 0.56114 0.62449 0.0
C182 C 0.69064 0.52601 0.54865 0.0
O183 O 0.67789 0.5121 0.55803 0.0
O184 O 0.6526 0.52069 0.54848 0.0
O185 O 0.63775 0.50833 0.57891 0.0
H186 H 0.64021 0.55125 0.49361 0.0
H187 H 0.68617 0.52415 0.61454 0.0
O188 O 0.66569 0.53367 0.63099 0.0
H189 H 0.64544 0.46119 0.60217 0.0
H190 H 0.62149 0.4857 0.67057 0.0
H191 H 0.61387 0.50872 0.60136 0.0
H192 H 0.63507 0.48246 0.59992 0.0
H193 H 0.64692 0.50354 0.64711 0.0
O194 O 0.68991 0.54008 0.54736 0.0
H195 H 0.64204 0.54044 0.52969 0.0
H196 H 0.69761 0.56732 0.52554 0.0
H197 H 0.58807 0.49081 0.62425 0.0
H198 H 0.69707 0.5033 0.61713 0.0
H199 H 0.59179 0.47917 0.65914 0.0
H200 H 0.67665 0.47157 0.61087 0.0
O201 O 0.64351 0.53843 0.60159 0.0
H202 H 0.72776 0.58837 0.59284 0.0
H203 H 0.67447 0.58004 0.55609 0.0
H204 H 0.69656 0.60955 0.56854 0.0
H205 H 0.72346 0.61386 0.58702 0.0
H206 H 0.70525 0.55904 0.58028 0.0
H207 H 0.69638 0.5783 0.48934 0.0
H208 H 0.66753 0.57032 0.47318 0.0
O209 O 0.65223 0.54948 0.56828 0.0
C210 C 0.63958 0.50843 0.55852 0.0
C211 C 0.65287 0.55486 0.5005 0.0
C212 C 0.68439 0.57002 0.4981 0.0
N213 N 0.66991 0.55335 0.52976 0.0
C214 C 0.65399 0.54882 0.52095 0.0
C215 C 0.685 0.56373 0.51857 0.0
C216 C 0.6682 0.56555 0.48904 0.0
C217 C 0.67717 0.51034 0.61196 0.0
N218 N 0.65999 0.50452 0.60715 0.0
C219 C 0.68344 0.49861 0.61338 0.0
C220 C 0.67198 0.48081 0.60984 0.0
C221 C 0.65447 0.47498 0.60494 0.0
C222 C 0.64868 0.48709 0.60363 0.0
C223 C 0.61969 0.49067 0.65539 0.0
C224 C 0.61559 0.50362 0.61646 0.0
C225 C 0.63405 0.50081 0.64205 0.0
N226 N 0.63186 0.50706 0.62281 0.0
C227 C 0.60093 0.49352 0.62938 0.0
C228 C 0.60303 0.48701 0.64896 0.0
C229 C 0.64355 0.54757 0.58558 0.0
C230 C 0.71611 0.58666 0.58477 0.0
C231 C 0.6861 0.58179 0.56419 0.0
C232 C 0.69859 0.59854 0.57116 0.0
C233 C 0.71368 0.60096 0.58152 0.0
N234 N 0.68861 0.56784 0.56738 0.0
C235 C 0.70335 0.5701 0.57757 0.0
Co236 Co 0.13401 0.65177 0.10655 0.0
Co237 Co 0.13002 0.67048 0.05957 0.0
O238 O 0.14012 0.67213 0.08824 0.0
C239 C 0.12633 0.67298 0.1377 0.0
O240 O 0.11516 0.67325 0.12389 0.0
C241 C 0.16845 0.69075 0.0512 0.0
O242 O 0.17006 0.67922 0.06293 0.0
O243 O 0.13563 0.6521 0.05047 0.0
O244 O 0.13298 0.63743 0.08112 0.0
H245 H 0.09276 0.63896 0.99528 0.0
H246 H 0.1653 0.68597 0.11686 0.0
O247 O 0.13512 0.66558 0.1328 0.0
H248 H 0.18766 0.64527 0.1053 0.0
H249 H 0.13866 0.62156 0.17313 0.0
H250 H 0.1085 0.61371 0.1035 0.0
H251 H 0.15604 0.63489 0.10251 0.0
H252 H 0.14644 0.64691 0.14942 0.0
O253 O 0.1534 0.68921 0.04846 0.0
H254 H 0.10537 0.64123 0.03148 0.0
H255 H 0.13378 0.69676 0.02651 0.0
H256 H 0.10041 0.58799 0.12663 0.0
H257 H 0.19703 0.69688 0.12001 0.0
H258 H 0.11554 0.59183 0.16173 0.0
H259 H 0.2084 0.67647 0.11414 0.0
O260 O 0.10847 0.64338 0.10331 0.0
H261 H 0.14309 0.72761 0.09334 0.0
H262 H 0.0981 0.67407 0.05704 0.0
H263 H 0.09072 0.69629 0.06902 0.0
H264 H 0.11332 0.72332 0.08727 0.0
H265 H 0.14987 0.70496 0.08125 0.0
H266 H 0.12159 0.69509 0.99018 0.0
H267 H 0.10087 0.66603 0.97437 0.0
O268 O 0.10638 0.65194 0.06984 0.0
C269 C 0.13484 0.63916 0.06072 0.0
C270 C 0.10174 0.6517 0.00202 0.0
C271 C 0.11794 0.6832 0.99914 0.0
N272 N 0.12021 0.66911 0.03115 0.0
C273 C 0.10889 0.65307 0.02253 0.0
C274 C 0.12483 0.68406 0.01969 0.0
C275 C 0.10631 0.66689 0.99029 0.0
C276 C 0.17014 0.67698 0.11447 0.0
N277 N 0.15882 0.65981 0.10954 0.0
C278 C 0.18812 0.68325 0.1162 0.0
C279 C 0.19449 0.67179 0.11287 0.0
C280 C 0.18287 0.65429 0.10789 0.0
C281 C 0.16497 0.6485 0.10626 0.0
C282 C 0.132 0.61972 0.15786 0.0
C283 C 0.11521 0.61548 0.11869 0.0
C284 C 0.13632 0.63402 0.14438 0.0
N285 N 0.12802 0.63177 0.12502 0.0
C286 C 0.11055 0.60087 0.13175 0.0
C287 C 0.11903 0.60304 0.15145 0.0
C288 C 0.09948 0.6434 0.08716 0.0
C289 C 0.13315 0.71591 0.08536 0.0
C290 C 0.10799 0.68576 0.06504 0.0
C291 C 0.10375 0.69832 0.07174 0.0
C292 C 0.11644 0.71348 0.08197 0.0
N293 N 0.12443 0.68825 0.06837 0.0
C294 C 0.13692 0.70307 0.07842 0.0
Co295 Co 0.48476 0.1314 0.60686 0.0
Co296 Co 0.46171 0.12692 0.56004 0.0
O297 O 0.47014 0.13709 0.58866 0.0
C298 C 0.45574 0.12327 0.63796 0.0
O299 O 0.44441 0.11204 0.62411 0.0
C300 C 0.4794 0.1653 0.55178 0.0
O301 O 0.49261 0.16699 0.56342 0.0
O302 O 0.48578 0.1329 0.55079 0.0
O303 O 0.49819 0.1307 0.58135 0.0
H304 H 0.45635 0.08985 0.4957 0.0
H305 H 0.48109 0.16224 0.61729 0.0
O306 O 0.47194 0.13221 0.63314 0.0
H307 H 0.54433 0.18585 0.60537 0.0
H308 H 0.52008 0.13687 0.67329 0.0
H309 H 0.49808 0.10653 0.6037 0.0
H310 H 0.52358 0.1541 0.60262 0.0
H311 H 0.50206 0.14411 0.64967 0.0
O312 O 0.46597 0.15019 0.54899 0.0
H313 H 0.46667 0.10254 0.53188 0.0
H314 H 0.43885 0.13026 0.52711 0.0
H315 H 0.51619 0.09899 0.62674 0.0
H316 H 0.50141 0.19407 0.62041 0.0
H317 H 0.52731 0.11421 0.66182 0.0
H318 H 0.53327 0.20608 0.61436 0.0
O319 O 0.46802 0.10577 0.60365 0.0
H320 H 0.4171 0.13908 0.59403 0.0
H321 H 0.42648 0.09463 0.5577 0.0
H322 H 0.39676 0.08678 0.5698 0.0
H323 H 0.39192 0.10911 0.58807 0.0
H324 H 0.44664 0.14633 0.58182 0.0
H325 H 0.42834 0.11799 0.49081 0.0
H326 H 0.43704 0.09757 0.47491 0.0
O327 O 0.45705 0.10341 0.5703 0.0
C328 C 0.49815 0.13245 0.56094 0.0
C329 C 0.45243 0.09869 0.50248 0.0
C330 C 0.43673 0.1145 0.49972 0.0
N331 N 0.45327 0.11703 0.53164 0.0
C332 C 0.45819 0.10588 0.52297 0.0
C333 C 0.44275 0.12144 0.52026 0.0
C334 C 0.44161 0.10304 0.49081 0.0
C335 C 0.49496 0.16735 0.61483 0.0
N336 N 0.50114 0.15632 0.60982 0.0
C337 C 0.50639 0.18539 0.61653 0.0
C338 C 0.52426 0.19212 0.6131 0.0
C339 C 0.53048 0.18078 0.60804 0.0
C340 C 0.51866 0.16282 0.60644 0.0
C341 C 0.51534 0.13017 0.65803 0.0
C342 C 0.50296 0.11328 0.61888 0.0
C343 C 0.50509 0.13419 0.6446 0.0
N344 N 0.49913 0.12584 0.62525 0.0
C345 C 0.51317 0.10892 0.63189 0.0
C346 C 0.51939 0.11746 0.65158 0.0
C347 C 0.45901 0.09666 0.58757 0.0
C348 C 0.41904 0.12925 0.58604 0.0
C349 C 0.42449 0.1044 0.5657 0.0
C350 C 0.40763 0.09989 0.57247 0.0
C351 C 0.40492 0.11243 0.58271 0.0
N352 N 0.43826 0.12095 0.56897 0.0
C353 C 0.43572 0.1333 0.57903 0.0
Co354 Co 0.52214 0.64983 0.89599 0.0
Co355 Co 0.54521 0.66886 0.94264 0.0
O356 O 0.53662 0.67033 0.91401 0.0
C357 C 0.55082 0.67071 0.86445 0.0
O358 O 0.56234 0.67102 0.87816 0.0
C359 C 0.52734 0.68941 0.95091 0.0
O360 O 0.51409 0.67784 0.93936 0.0
O361 O 0.52123 0.6507 0.95207 0.0
O362 O 0.50896 0.63575 0.92166 0.0
H363 H 0.55111 0.63776 0.00726 0.0
H364 H 0.52517 0.68403 0.88532 0.0
O365 O 0.53467 0.66338 0.86953 0.0
H366 H 0.46213 0.64369 0.89774 0.0
H367 H 0.48666 0.61917 0.82996 0.0
H368 H 0.50939 0.61176 0.89951 0.0
H369 H 0.48327 0.63318 0.90049 0.0
H370 H 0.50452 0.64468 0.8533 0.0
O371 O 0.54082 0.68782 0.95357 0.0
H372 H 0.54057 0.63979 0.97109 0.0
H373 H 0.56811 0.69536 0.97529 0.0
H374 H 0.49146 0.58587 0.87675 0.0
H375 H 0.50446 0.69506 0.8822 0.0
H376 H 0.47996 0.58949 0.84169 0.0
H377 H 0.47269 0.67484 0.88851 0.0
O378 O 0.53918 0.64132 0.89921 0.0
H379 H 0.58935 0.72555 0.90805 0.0
H380 H 0.5806 0.67215 0.94492 0.0
H381 H 0.61019 0.69411 0.93256 0.0
H382 H 0.61472 0.72106 0.91401 0.0
H383 H 0.55994 0.70317 0.92053 0.0
H384 H 0.57883 0.69393 0.01158 0.0
H385 H 0.57038 0.66496 0.02776 0.0
O386 O 0.55003 0.65008 0.93257 0.0
C387 C 0.50897 0.63769 0.94204 0.0
C388 C 0.55492 0.65045 1.00036 0.0
C389 C 0.57046 0.68198 0.0028 0.0
N390 N 0.55381 0.66767 0.97104 0.0
C391 C 0.54903 0.65169 0.97987 0.0
C392 C 0.56431 0.68271 0.98227 0.0
C393 C 0.56572 0.66572 0.01186 0.0
C394 C 0.51135 0.67512 0.8879 0.0
N395 N 0.50544 0.65797 0.89304 0.0
C396 C 0.49969 0.68145 0.88619 0.0
C397 C 0.48187 0.6701 0.88976 0.0
C398 C 0.47594 0.65263 0.89496 0.0
C399 C 0.48798 0.64676 0.89656 0.0
C400 C 0.49157 0.61742 0.84522 0.0
C401 C 0.50435 0.61343 0.88433 0.0
C402 C 0.50172 0.63182 0.85848 0.0
N403 N 0.50789 0.62969 0.87782 0.0
C404 C 0.49425 0.59872 0.87149 0.0
C405 C 0.48781 0.60077 0.85181 0.0
C406 C 0.54822 0.64137 0.91535 0.0
C407 C 0.58756 0.71388 0.91615 0.0
C408 C 0.58245 0.68381 0.9368 0.0
C409 C 0.59925 0.69622 0.92988 0.0
C410 C 0.60178 0.71135 0.91948 0.0
N411 N 0.56857 0.68642 0.93353 0.0
C412 C 0.57095 0.7012 0.92331 0.0
Co413 Co 0.87429 0.52111 0.39594 0.0
Co414 Co 0.87837 0.54456 0.44216 0.0
O415 O 0.86817 0.53555 0.41375 0.0
C416 C 0.88114 0.54946 0.36445 0.0
O417 O 0.89201 0.56115 0.37827 0.0
C418 C 0.84012 0.52596 0.45175 0.0
O419 O 0.83892 0.51197 0.44255 0.0
O420 O 0.87294 0.52077 0.45203 0.0
O421 O 0.87563 0.50835 0.42176 0.0
H422 H 0.91588 0.55182 0.50676 0.0
H423 H 0.84272 0.52354 0.38572 0.0
O424 O 0.87286 0.53326 0.36939 0.0
H425 H 0.82098 0.46075 0.39872 0.0
H426 H 0.86945 0.48518 0.33037 0.0
H427 H 0.90004 0.50888 0.39945 0.0
H428 H 0.85257 0.48224 0.40091 0.0
H429 H 0.86165 0.50302 0.35354 0.0
O430 O 0.85491 0.54006 0.45285 0.0
H431 H 0.90323 0.54073 0.47076 0.0
H432 H 0.87441 0.56749 0.47438 0.0
H433 H 0.90815 0.49099 0.37685 0.0
H434 H 0.81101 0.50247 0.38318 0.0
H435 H 0.8928 0.479 0.34203 0.0
H436 H 0.79996 0.47083 0.38976 0.0
O437 O 0.8998 0.53845 0.39877 0.0
H438 H 0.8651 0.58791 0.40669 0.0
H439 H 0.91024 0.58012 0.44385 0.0
H440 H 0.91754 0.60948 0.43097 0.0
H441 H 0.89487 0.61353 0.41228 0.0
H442 H 0.8584 0.55873 0.41967 0.0
H443 H 0.88664 0.57876 0.51049 0.0
H444 H 0.90759 0.57099 0.52688 0.0
O445 O 0.90204 0.54951 0.43205 0.0
C446 C 0.87383 0.50852 0.44214 0.0
C447 C 0.90681 0.55535 0.49977 0.0
C448 C 0.89037 0.57045 0.50187 0.0
N449 N 0.8882 0.55356 0.47042 0.0
C450 C 0.89964 0.54914 0.47937 0.0
C451 C 0.88346 0.56399 0.48144 0.0
C452 C 0.90213 0.56608 0.51105 0.0
C453 C 0.83802 0.50978 0.38844 0.0
N454 N 0.8495 0.50413 0.3934 0.0
C455 C 0.82005 0.49792 0.38705 0.0
C456 C 0.81385 0.48017 0.39077 0.0
C457 C 0.82564 0.47451 0.39581 0.0
C458 C 0.84351 0.48674 0.39709 0.0
C459 C 0.87621 0.4903 0.34552 0.0
C460 C 0.89323 0.50363 0.38438 0.0
C461 C 0.87188 0.50044 0.35869 0.0
N462 N 0.8803 0.50688 0.37791 0.0
C463 C 0.89791 0.49355 0.37163 0.0
C464 C 0.88931 0.48684 0.35208 0.0
C465 C 0.90886 0.54765 0.41478 0.0
C466 C 0.87508 0.58632 0.41485 0.0
C467 C 0.90032 0.58175 0.43567 0.0
C468 C 0.90452 0.59842 0.42845 0.0
C469 C 0.89179 0.60069 0.41798 0.0
N470 N 0.88389 0.56773 0.4326 0.0
C471 C 0.87135 0.56984 0.4223 0.0
Co472 Co 0.35616 0.87306 0.89531 0.0
Co473 Co 0.33741 0.87753 0.94198 0.0
O474 O 0.33578 0.86727 0.91345 0.0
C475 C 0.33517 0.88092 0.86405 0.0
O476 O 0.33492 0.89207 0.87789 0.0
C477 C 0.31701 0.83918 0.95062 0.0
O478 O 0.32855 0.8375 0.93901 0.0
O479 O 0.35565 0.87183 0.95139 0.0
O480 O 0.37031 0.87396 0.9209 0.0
H481 H 0.36888 0.91508 0.0061 0.0
H482 H 0.32179 0.84203 0.8849 0.0
O483 O 0.34253 0.87208 0.86894 0.0
H484 H 0.36177 0.81891 0.89725 0.0
H485 H 0.38629 0.86769 0.8291 0.0
H486 H 0.39431 0.89818 0.89851 0.0
H487 H 0.37255 0.85062 0.89983 0.0
H488 H 0.36094 0.86033 0.85262 0.0
O489 O 0.31856 0.85425 0.9532 0.0
H490 H 0.36664 0.90224 0.97005 0.0
H491 H 0.31109 0.8741 0.97481 0.0
H492 H 0.42004 0.90585 0.87557 0.0
H493 H 0.31049 0.81023 0.88196 0.0
H494 H 0.41611 0.89056 0.84058 0.0
H495 H 0.33053 0.79847 0.88823 0.0
O496 O 0.36487 0.89867 0.89836 0.0
H497 H 0.28047 0.8646 0.90778 0.0
H498 H 0.33405 0.90959 0.944 0.0
H499 H 0.31198 0.91708 0.93168 0.0
H500 H 0.28493 0.89448 0.91346 0.0
H501 H 0.30296 0.85773 0.92021 0.0
H502 H 0.31273 0.88652 0.01098 0.0
H503 H 0.34178 0.90722 0.02681 0.0
O504 O 0.35608 0.90107 0.93159 0.0
C505 C 0.36851 0.8723 0.94131 0.0
C506 C 0.35614 0.90611 0.99935 0.0
C507 C 0.32463 0.89006 0.0021 0.0
N508 N 0.33875 0.88753 0.97029 0.0
C509 C 0.35479 0.89884 0.97893 0.0
C510 C 0.32378 0.88304 0.98163 0.0
C511 C 0.34093 0.90169 0.01097 0.0
C512 C 0.33062 0.83703 0.88746 0.0
N513 N 0.34781 0.84818 0.89248 0.0
C514 C 0.32414 0.819 0.88585 0.0
C515 C 0.33538 0.81242 0.88941 0.0
C516 C 0.35291 0.82387 0.89449 0.0
C517 C 0.35892 0.84182 0.89599 0.0
C518 C 0.38817 0.87443 0.84433 0.0
C519 C 0.39251 0.89139 0.88337 0.0
C520 C 0.37387 0.87034 0.85769 0.0
N521 N 0.37616 0.87873 0.877 0.0
C522 C 0.40712 0.89583 0.87042 0.0
C523 C 0.4049 0.88725 0.85078 0.0
C524 C 0.3648 0.90781 0.91432 0.0
C525 C 0.29218 0.87455 0.91574 0.0
C526 C 0.32235 0.89971 0.93602 0.0
C527 C 0.30988 0.90401 0.92912 0.0
C528 C 0.2947 0.89132 0.91891 0.0
N529 N 0.31976 0.88321 0.9329 0.0
C530 C 0.30493 0.87072 0.92287 0.0
Co531 Co 0.48365 0.35296 0.39795 0.0
Co532 Co 0.46074 0.3345 0.44485 0.0
O533 O 0.46925 0.3327 0.41632 0.0
C534 C 0.45521 0.33255 0.3657 0.0
O535 O 0.44371 0.33355 0.3782 0.0
C536 C 0.47884 0.31426 0.4535 0.0
O537 O 0.49201 0.32583 0.44185 0.0
O538 O 0.48472 0.35287 0.454 0.0
O539 O 0.49689 0.36743 0.42334 0.0
H540 H 0.45488 0.36634 0.50871 0.0
H541 H 0.48071 0.31866 0.38814 0.0
O542 O 0.47108 0.33896 0.37175 0.0
H543 H 0.54375 0.35935 0.40002 0.0
H544 H 0.51878 0.38268 0.33135 0.0
H545 H 0.49631 0.39106 0.40056 0.0
H546 H 0.52253 0.36979 0.40234 0.0
H547 H 0.5011 0.35751 0.35525 0.0
O548 O 0.46531 0.31577 0.45618 0.0
H549 H 0.4653 0.36388 0.47263 0.0
H550 H 0.43813 0.30839 0.47802 0.0
H551 H 0.51406 0.41662 0.37723 0.0
H552 H 0.5015 0.30769 0.38546 0.0
H553 H 0.52542 0.41251 0.34234 0.0
H554 H 0.53327 0.3281 0.3915 0.0
O555 O 0.46659 0.36146 0.40087 0.0
H556 H 0.41664 0.27725 0.41136 0.0
H557 H 0.42527 0.33102 0.44709 0.0
H558 H 0.39566 0.30878 0.43515 0.0
H559 H 0.39119 0.28163 0.41719 0.0
H560 H 0.44607 0.29992 0.42341 0.0
H561 H 0.42753 0.31024 0.51422 0.0
H562 H 0.43585 0.33937 0.52976 0.0
O563 O 0.45573 0.35306 0.4343 0.0
C564 C 0.49694 0.36576 0.44375 0.0
C565 C 0.45112 0.35356 0.50209 0.0
C566 C 0.43579 0.32208 0.5052 0.0
N567 N 0.45223 0.33601 0.47318 0.0
C568 C 0.45694 0.35209 0.48165 0.0
C569 C 0.44187 0.32111 0.48471 0.0
C570 C 0.44046 0.33843 0.5139 0.0
C571 C 0.49453 0.32765 0.39059 0.0
N572 N 0.5004 0.34485 0.39534 0.0
C573 C 0.50624 0.32135 0.38914 0.0
C574 C 0.52405 0.3328 0.39256 0.0
C575 C 0.52994 0.35033 0.39736 0.0
C576 C 0.51785 0.35616 0.39872 0.0
C577 C 0.51393 0.38465 0.34653 0.0
C578 C 0.5013 0.38918 0.38546 0.0
C579 C 0.50388 0.37044 0.36011 0.0
N580 N 0.49779 0.37284 0.37936 0.0
C581 C 0.5113 0.4037 0.37229 0.0
C582 C 0.51766 0.40138 0.35271 0.0
C583 C 0.45751 0.36154 0.41688 0.0
C584 C 0.41841 0.289 0.41921 0.0
C585 C 0.42345 0.31928 0.43921 0.0
C586 C 0.40664 0.30671 0.43253 0.0
C587 C 0.40414 0.29148 0.42247 0.0
N588 N 0.43737 0.31673 0.43603 0.0
C589 C 0.43503 0.30186 0.42612 0.0
Co590 Co 0.13263 0.48368 0.89854 0.0
Co591 Co 0.12916 0.46038 0.94466 0.0
O592 O 0.13908 0.46941 0.91616 0.0
C593 C 0.12522 0.45581 0.86573 0.0
O594 O 0.11311 0.44395 0.87831 0.0
C595 C 0.16746 0.47931 0.95383 0.0
O596 O 0.16843 0.49324 0.94474 0.0
O597 O 0.13447 0.48412 0.95456 0.0
O598 O 0.13122 0.49633 0.92445 0.0
H599 H 0.09207 0.4529 0.00978 0.0
H600 H 0.16445 0.48177 0.88804 0.0
O601 O 0.13424 0.4717 0.87187 0.0
H602 H 0.18541 0.5444 0.90111 0.0
H603 H 0.1366 0.51935 0.83306 0.0
H604 H 0.10653 0.49544 0.90236 0.0
H605 H 0.15392 0.52257 0.90349 0.0
H606 H 0.14488 0.50182 0.85611 0.0
O607 O 0.15277 0.46511 0.95501 0.0
H608 H 0.10437 0.46399 0.97364 0.0
H609 H 0.13364 0.43767 0.97671 0.0
H610 H 0.09795 0.51302 0.8799 0.0
H611 H 0.19606 0.50318 0.88529 0.0
H612 H 0.11302 0.52511 0.84497 0.0
H613 H 0.20672 0.53475 0.89191 0.0
O614 O 0.10722 0.46611 0.90159 0.0
H615 H 0.14264 0.41731 0.90882 0.0
H616 H 0.0975 0.42468 0.94667 0.0
H617 H 0.09037 0.39535 0.93382 0.0
H618 H 0.11305 0.39152 0.91479 0.0
H619 H 0.14917 0.44644 0.92179 0.0
H620 H 0.12176 0.4264 0.01295 0.0
H621 H 0.10077 0.43395 0.02968 0.0
O622 O 0.10535 0.45519 0.93488 0.0
C623 C 0.1333 0.49624 0.94479 0.0
C624 C 0.10117 0.44947 0.00263 0.0
C625 C 0.11785 0.43462 0.00442 0.0
N626 N 0.1196 0.45137 0.97302 0.0
C627 C 0.10814 0.45567 0.98216 0.0
C628 C 0.12456 0.44107 0.98392 0.0
C629 C 0.10607 0.43886 0.0138 0.0
C630 C 0.16898 0.4955 0.89078 0.0
N631 N 0.15734 0.50092 0.89586 0.0
C632 C 0.1869 0.50756 0.88927 0.0
C633 C 0.19287 0.52526 0.89301 0.0
C634 C 0.18093 0.53069 0.89818 0.0
C635 C 0.16311 0.51826 0.89957 0.0
C636 C 0.12996 0.51418 0.84827 0.0
C637 C 0.11323 0.50074 0.88725 0.0
C638 C 0.13456 0.50421 0.86137 0.0
N639 N 0.12628 0.49772 0.88064 0.0
C640 C 0.10828 0.51065 0.87457 0.0
C641 C 0.11673 0.51741 0.85496 0.0
C642 C 0.09833 0.4569 0.91769 0.0
C643 C 0.13266 0.41881 0.91714 0.0
C644 C 0.10742 0.42314 0.93833 0.0
C645 C 0.10332 0.40649 0.93114 0.0
C646 C 0.11605 0.40435 0.92047 0.0
N647 N 0.12376 0.43725 0.93506 0.0
C648 C 0.1363 0.43526 0.92457 0.0
Co649 Co 0.65087 0.13117 0.39654 0.0
Co650 Co 0.67049 0.12707 0.44261 0.0
O651 O 0.67157 0.13727 0.41417 0.0
C652 C 0.67197 0.12402 0.36469 0.0
O653 O 0.67281 0.11313 0.37846 0.0
C654 C 0.69075 0.16546 0.45109 0.0
O655 O 0.67894 0.16699 0.43986 0.0
O656 O 0.65225 0.13259 0.45261 0.0
O657 O 0.63696 0.12998 0.42253 0.0
H658 H 0.64025 0.08952 0.50718 0.0
H659 H 0.6848 0.16259 0.38566 0.0
O660 O 0.66423 0.13244 0.36981 0.0
H661 H 0.64413 0.18464 0.3996 0.0
H662 H 0.61939 0.13596 0.33134 0.0
H663 H 0.6129 0.10553 0.40044 0.0
H664 H 0.63393 0.15304 0.40194 0.0
H665 H 0.64517 0.14374 0.35424 0.0
O666 O 0.68937 0.15046 0.45355 0.0
H667 H 0.64181 0.10225 0.47123 0.0
H668 H 0.69741 0.13082 0.47468 0.0
H669 H 0.58675 0.09743 0.37813 0.0
H670 H 0.69553 0.1943 0.38294 0.0
H671 H 0.58991 0.1127 0.3433 0.0
H672 H 0.67513 0.20552 0.39001 0.0
O673 O 0.64263 0.10565 0.39941 0.0
H674 H 0.72704 0.14047 0.40686 0.0
H675 H 0.67423 0.09522 0.44413 0.0
H676 H 0.6963 0.08799 0.43105 0.0
H677 H 0.72295 0.11072 0.4123 0.0
H678 H 0.70455 0.14709 0.42006 0.0
H679 H 0.69646 0.11852 0.51074 0.0
H680 H 0.66772 0.09765 0.52718 0.0
O681 O 0.65179 0.10342 0.43247 0.0
C682 C 0.63911 0.13181 0.44289 0.0
C683 C 0.65285 0.09856 0.50016 0.0
C684 C 0.6844 0.11485 0.50217 0.0
N685 N 0.66968 0.11717 0.47082 0.0
C686 C 0.65382 0.10577 0.47979 0.0
C687 C 0.68485 0.12181 0.48178 0.0
C688 C 0.66827 0.10314 0.51138 0.0
C689 C 0.67582 0.16736 0.38857 0.0
N690 N 0.65876 0.15597 0.3939 0.0
C691 C 0.68198 0.18533 0.38708 0.0
C692 C 0.67054 0.19162 0.39109 0.0
C693 C 0.65314 0.17992 0.39649 0.0
C694 C 0.64745 0.16203 0.39785 0.0
C695 C 0.61784 0.12923 0.3465 0.0
C696 C 0.61436 0.1123 0.38537 0.0
C697 C 0.6324 0.13356 0.35952 0.0
N698 N 0.63052 0.12518 0.37874 0.0
C699 C 0.59952 0.10763 0.37277 0.0
C700 C 0.6013 0.11618 0.35323 0.0
C701 C 0.64296 0.09659 0.4153 0.0
C702 C 0.7155 0.13047 0.41505 0.0
C703 C 0.68576 0.10516 0.43592 0.0
C704 C 0.69823 0.101 0.42859 0.0
C705 C 0.71319 0.11376 0.41809 0.0
N706 N 0.68814 0.12159 0.43293 0.0
C707 C 0.70275 0.13416 0.42261 0.0
Co708 Co 0.65238 0.52142 0.89848 0.0
Co709 Co 0.67126 0.54476 0.94494 0.0
O710 O 0.67275 0.53597 0.91651 0.0
C711 C 0.67258 0.54964 0.86599 0.0
O712 O 0.6718 0.56123 0.87856 0.0
C713 C 0.69099 0.52627 0.95452 0.0
O714 O 0.67831 0.51236 0.94506 0.0
O715 O 0.65292 0.52087 0.95457 0.0
O716 O 0.63817 0.50841 0.9241 0.0
H717 H 0.64035 0.55144 0.00924 0.0
H718 H 0.68668 0.52439 0.88861 0.0
O719 O 0.66612 0.53378 0.87206 0.0
H720 H 0.64613 0.4614 0.90103 0.0
H721 H 0.6221 0.48569 0.83246 0.0
H722 H 0.61427 0.50868 0.90157 0.0
H723 H 0.63563 0.48257 0.90318 0.0
H724 H 0.64748 0.50363 0.85596 0.0
O725 O 0.69022 0.54032 0.9558 0.0
H726 H 0.64227 0.54061 0.97321 0.0
H727 H 0.69784 0.56757 0.97755 0.0
H728 H 0.58852 0.49067 0.87863 0.0
H729 H 0.69771 0.50364 0.88611 0.0
H730 H 0.59235 0.47904 0.8438 0.0
H731 H 0.67738 0.4719 0.8924 0.0
O732 O 0.64384 0.53845 0.90136 0.0
H733 H 0.72811 0.58858 0.91033 0.0
H734 H 0.6747 0.5802 0.94681 0.0
H735 H 0.69679 0.60971 0.93436 0.0
H736 H 0.72375 0.61405 0.91602 0.0
H737 H 0.70561 0.55926 0.92289 0.0
H738 H 0.69651 0.57858 0.01369 0.0
H739 H 0.66761 0.57057 0.02973 0.0
O740 O 0.65253 0.54961 0.93464 0.0
C741 C 0.63996 0.50856 0.94451 0.0
C742 C 0.65302 0.55506 0.0024 0.0
C743 C 0.68454 0.57028 0.00491 0.0
N744 N 0.67015 0.55355 0.97323 0.0
C745 C 0.65419 0.54901 0.98198 0.0
C746 C 0.68521 0.56397 0.98446 0.0
C747 C 0.66832 0.56578 0.01389 0.0
C748 C 0.67772 0.51058 0.8912 0.0
N749 N 0.66052 0.5047 0.89597 0.0
C750 C 0.68406 0.4989 0.88984 0.0
C751 C 0.67265 0.48109 0.89339 0.0
C752 C 0.65512 0.47519 0.89825 0.0
C753 C 0.64926 0.48725 0.8995 0.0
C754 C 0.62026 0.49065 0.84762 0.0
C755 C 0.61603 0.50358 0.88649 0.0
C756 C 0.63458 0.50085 0.86098 0.0
N757 N 0.63234 0.50709 0.8802 0.0
C758 C 0.60141 0.49343 0.87354 0.0
C759 C 0.60357 0.48692 0.85399 0.0
C760 C 0.64385 0.54763 0.91732 0.0
C761 C 0.71644 0.58686 0.91835 0.0
C762 C 0.68636 0.58196 0.93877 0.0
C763 C 0.69885 0.59872 0.9318 0.0
C764 C 0.71397 0.60114 0.92152 0.0
N765 N 0.68891 0.56803 0.93566 0.0
C766 C 0.70368 0.5703 0.92555 0.0
Co767 Co 0.13299 0.65101 0.3955 0.0
Co768 Co 0.12863 0.66957 0.44238 0.0
O769 O 0.13884 0.67132 0.41378 0.0
C770 C 0.12526 0.6721 0.36422 0.0
O771 O 0.11395 0.67225 0.37791 0.0
C772 C 0.16702 0.69013 0.45087 0.0
O773 O 0.16873 0.67862 0.43923 0.0
O774 O 0.13448 0.65137 0.45159 0.0
O775 O 0.13199 0.63672 0.42097 0.0
H776 H 0.09136 0.63783 0.50657 0.0
H777 H 0.16414 0.68535 0.38532 0.0
O778 O 0.13409 0.66477 0.36922 0.0
H779 H 0.18696 0.64508 0.39729 0.0
H780 H 0.13827 0.62102 0.32909 0.0
H781 H 0.10772 0.61288 0.39847 0.0
H782 H 0.15527 0.63444 0.39982 0.0
H783 H 0.14572 0.64631 0.35276 0.0
O784 O 0.15192 0.68849 0.45355 0.0
H785 H 0.10411 0.64022 0.47043 0.0
H786 H 0.13203 0.69575 0.47539 0.0
H787 H 0.09996 0.58722 0.37537 0.0
H788 H 0.19593 0.69652 0.38242 0.0
H789 H 0.11528 0.59121 0.3404 0.0
H790 H 0.20753 0.67633 0.3885 0.0
O791 O 0.10739 0.64239 0.39857 0.0
H792 H 0.14116 0.72649 0.40853 0.0
H793 H 0.09646 0.67271 0.4447 0.0
H794 H 0.08879 0.69471 0.43263 0.0
H795 H 0.11124 0.72185 0.41444 0.0
H796 H 0.14823 0.70408 0.42071 0.0
H797 H 0.1197 0.69396 0.51165 0.0
H798 H 0.09915 0.66483 0.52744 0.0
O799 O 0.10509 0.65082 0.43204 0.0
C800 C 0.13381 0.63847 0.44138 0.0
C801 C 0.10026 0.65059 0.49984 0.0
C802 C 0.11618 0.6821 0.50271 0.0
N803 N 0.11871 0.6681 0.47076 0.0
C804 C 0.10748 0.65203 0.47937 0.0
C805 C 0.12316 0.68302 0.48219 0.0
C806 C 0.10465 0.66575 0.51155 0.0
C807 C 0.16908 0.67646 0.3878 0.0
N808 N 0.15786 0.65926 0.39269 0.0
C809 C 0.18709 0.68287 0.38621 0.0
C810 C 0.1936 0.67154 0.38966 0.0
C811 C 0.18207 0.65401 0.39461 0.0
C812 C 0.16414 0.64806 0.39609 0.0
C813 C 0.13152 0.61911 0.34431 0.0
C814 C 0.11451 0.61471 0.38333 0.0
C815 C 0.13566 0.63338 0.35776 0.0
N816 N 0.12725 0.63105 0.37706 0.0
C817 C 0.11003 0.60014 0.37029 0.0
C818 C 0.11863 0.60239 0.35067 0.0
C819 C 0.0983 0.64226 0.41469 0.0
C820 C 0.13128 0.71474 0.41648 0.0
C821 C 0.10628 0.68446 0.43673 0.0
C822 C 0.10187 0.69689 0.42998 0.0
C823 C 0.11448 0.71212 0.41978 0.0
N824 N 0.1228 0.68715 0.4335 0.0
C825 C 0.13522 0.70203 0.42348 0.0
Co826 Co 0.48496 0.13195 0.89522 0.0
Co827 Co 0.46172 0.1274 0.9419 0.0
O828 O 0.47032 0.13766 0.91336 0.0
C829 C 0.45601 0.12395 0.86412 0.0
O830 O 0.44466 0.11286 0.87808 0.0
C831 C 0.47956 0.16576 0.95037 0.0
O832 O 0.49278 0.16745 0.93877 0.0
O833 O 0.48569 0.13318 0.9513 0.0
O834 O 0.4983 0.13118 0.9208 0.0
H835 H 0.45576 0.08995 0.00606 0.0
H836 H 0.4814 0.16284 0.88475 0.0
O837 O 0.47223 0.1328 0.86888 0.0
H838 H 0.54458 0.18633 0.89702 0.0
H839 H 0.52046 0.13745 0.82896 0.0
H840 H 0.49822 0.10702 0.89846 0.0
H841 H 0.52378 0.15459 0.89967 0.0
H842 H 0.5024 0.1447 0.85249 0.0
O843 O 0.46609 0.15068 0.95306 0.0
H844 H 0.46632 0.10277 0.96999 0.0
H845 H 0.43881 0.13079 0.97472 0.0
H846 H 0.51636 0.09947 0.8755 0.0
H847 H 0.50177 0.19467 0.88174 0.0
H848 H 0.52762 0.11474 0.84048 0.0
H849 H 0.53361 0.20661 0.88797 0.0
O850 O 0.46818 0.10632 0.89833 0.0
H851 H 0.41756 0.14011 0.90767 0.0
H852 H 0.42634 0.09527 0.94395 0.0
H853 H 0.39675 0.08768 0.93164 0.0
H854 H 0.39221 0.1102 0.91339 0.0
H855 H 0.44697 0.1471 0.92009 0.0
H856 H 0.42807 0.1184 0.01091 0.0
H857 H 0.4365 0.09776 0.02677 0.0
O858 O 0.45692 0.10388 0.93152 0.0
C859 C 0.49812 0.13279 0.94122 0.0
C860 C 0.45196 0.09889 0.9993 0.0
C861 C 0.43644 0.11487 0.00203 0.0
N862 N 0.4531 0.11742 0.97021 0.0
C863 C 0.45786 0.10615 0.97886 0.0
C864 C 0.4426 0.12188 0.98156 0.0
C865 C 0.44117 0.10329 0.01092 0.0
C866 C 0.49526 0.16792 0.8873 0.0
N867 N 0.50139 0.15686 0.89234 0.0
C868 C 0.50672 0.18597 0.88565 0.0
C869 C 0.52458 0.19266 0.88917 0.0
C870 C 0.53074 0.18129 0.89427 0.0
C871 C 0.51889 0.16333 0.89582 0.0
C872 C 0.51567 0.13073 0.84421 0.0
C873 C 0.50316 0.1138 0.88329 0.0
C874 C 0.5054 0.13475 0.85758 0.0
N875 N 0.49937 0.12638 0.8769 0.0
C876 C 0.51338 0.10943 0.87034 0.0
C877 C 0.51968 0.11799 0.85068 0.0
C878 C 0.45898 0.09717 0.91428 0.0
C879 C 0.41937 0.1302 0.91565 0.0
C880 C 0.42449 0.10513 0.93596 0.0
C881 C 0.40769 0.10076 0.92907 0.0
C882 C 0.40515 0.11341 0.91884 0.0
N883 N 0.43836 0.12164 0.93282 0.0
C884 C 0.43598 0.13409 0.92277 0.0
Co885 Co 0.35614 0.48388 0.39579 0.0
Co886 Co 0.33603 0.46038 0.44173 0.0
O887 O 0.33531 0.46959 0.41328 0.0
C888 C 0.33462 0.45562 0.36423 0.0
O889 O 0.33348 0.44389 0.37822 0.0
C890 C 0.31674 0.4794 0.45097 0.0
O891 O 0.32975 0.49336 0.442 0.0
O892 O 0.3545 0.48403 0.45183 0.0
O893 O 0.37004 0.4965 0.42182 0.0
H894 H 0.36522 0.45238 0.50692 0.0
H895 H 0.32246 0.48193 0.38489 0.0
O896 O 0.34274 0.47184 0.36906 0.0
H897 H 0.36398 0.54455 0.39828 0.0
H898 H 0.38819 0.51966 0.33054 0.0
H899 H 0.39397 0.49567 0.39997 0.0
H900 H 0.37367 0.52276 0.40084 0.0
H901 H 0.36225 0.50205 0.35336 0.0
O902 O 0.31719 0.46518 0.45205 0.0
H903 H 0.36424 0.4637 0.47084 0.0
H904 H 0.30863 0.43759 0.47354 0.0
H905 H 0.42028 0.51333 0.37774 0.0
H906 H 0.31224 0.50331 0.38198 0.0
H907 H 0.41748 0.52546 0.34275 0.0
H908 H 0.33306 0.53486 0.38875 0.0
O909 O 0.36396 0.46629 0.39889 0.0
H910 H 0.27956 0.41774 0.40535 0.0
H911 H 0.33174 0.42458 0.44352 0.0
H912 H 0.30951 0.39538 0.43034 0.0
H913 H 0.28317 0.39182 0.41114 0.0
H914 H 0.3022 0.44674 0.41865 0.0
H915 H 0.30902 0.4261 0.50972 0.0
H916 H 0.33746 0.43344 0.5266 0.0
O917 O 0.3546 0.4551 0.432 0.0
C918 C 0.36781 0.49626 0.44216 0.0
C919 C 0.35274 0.44905 0.4997 0.0
C920 C 0.3212 0.43432 0.50129 0.0
N921 N 0.3364 0.4512 0.47004 0.0
C922 C 0.3521 0.45538 0.47926 0.0
C923 C 0.32106 0.44089 0.48082 0.0
C924 C 0.33716 0.43843 0.51075 0.0
C925 C 0.33162 0.49566 0.3877 0.0
N926 N 0.34865 0.50109 0.39297 0.0
C927 C 0.32575 0.50769 0.3861 0.0
C928 C 0.33744 0.52539 0.38993 0.0
C929 C 0.35478 0.53084 0.39529 0.0
C930 C 0.36018 0.51843 0.39677 0.0
C931 C 0.38959 0.51448 0.34578 0.0
C932 C 0.39267 0.50099 0.38483 0.0
C933 C 0.37494 0.50446 0.35875 0.0
N934 N 0.37662 0.49795 0.37806 0.0
C935 C 0.4076 0.51094 0.37228 0.0
C936 C 0.40602 0.51773 0.35264 0.0
C937 C 0.36345 0.45692 0.41489 0.0
C938 C 0.29096 0.41912 0.41374 0.0
C939 C 0.32035 0.42315 0.43512 0.0
C940 C 0.30778 0.40658 0.42773 0.0
C941 C 0.293 0.40458 0.41697 0.0
N942 N 0.31823 0.43734 0.43194 0.0
C943 C 0.30379 0.43549 0.42136 0.0
Co944 Co 0.87477 0.35448 0.89884 0.0
Co945 Co 0.87794 0.33493 0.94527 0.0
O946 O 0.868 0.33373 0.91665 0.0
C947 C 0.88115 0.3333 0.86609 0.0
O948 O 0.89308 0.33319 0.87869 0.0
C949 C 0.83948 0.31449 0.95336 0.0
O950 O 0.83794 0.3263 0.94215 0.0
O951 O 0.87202 0.353 0.95473 0.0
O952 O 0.87701 0.36902 0.92468 0.0
H953 H 0.91465 0.36551 0.01029 0.0
H954 H 0.84229 0.32129 0.88841 0.0
O955 O 0.87249 0.34056 0.87223 0.0
H956 H 0.82316 0.36425 0.90266 0.0
H957 H 0.8709 0.38629 0.83342 0.0
H958 H 0.90192 0.39207 0.90185 0.0
H959 H 0.85446 0.37302 0.90462 0.0
H960 H 0.86224 0.36054 0.85672 0.0
O961 O 0.8545 0.31592 0.95591 0.0
H962 H 0.90227 0.36377 0.97406 0.0
H963 H 0.87405 0.30817 0.97768 0.0
H964 H 0.91092 0.41819 0.87912 0.0
H965 H 0.81087 0.312 0.88606 0.0
H966 H 0.89536 0.41539 0.84462 0.0
H967 H 0.80113 0.33354 0.89328 0.0
O968 O 0.89999 0.36163 0.90149 0.0
H969 H 0.86547 0.2785 0.91003 0.0
H970 H 0.90994 0.33148 0.94778 0.0
H971 H 0.91757 0.30956 0.93528 0.0
H972 H 0.89523 0.28281 0.91629 0.0
H973 H 0.85845 0.30085 0.92266 0.0
H974 H 0.88599 0.30932 0.01403 0.0
H975 H 0.90651 0.33814 0.03053 0.0
O976 O 0.90172 0.35379 0.93547 0.0
C977 C 0.87413 0.36664 0.9449 0.0
C978 C 0.90576 0.35287 0.00325 0.0
C979 C 0.88966 0.32133 0.00536 0.0
N980 N 0.88754 0.33589 0.97372 0.0
C981 C 0.89874 0.3518 0.98273 0.0
C982 C 0.8829 0.32077 0.9848 0.0
C983 C 0.90117 0.33751 0.01461 0.0
C984 C 0.83817 0.33078 0.89137 0.0
N985 N 0.8502 0.34768 0.89657 0.0
C986 C 0.82035 0.32542 0.8901 0.0
C987 C 0.81489 0.33751 0.89419 0.0
C988 C 0.82725 0.35474 0.89947 0.0
C989 C 0.84495 0.35962 0.90061 0.0
C990 C 0.87775 0.38769 0.84844 0.0
C991 C 0.895 0.39077 0.88694 0.0
C992 C 0.87292 0.37315 0.86169 0.0
N993 N 0.88145 0.37484 0.88074 0.0
C994 C 0.90019 0.4056 0.8741 0.0
C995 C 0.89147 0.40401 0.85474 0.0
C996 C 0.90882 0.36186 0.91793 0.0
C997 C 0.87531 0.29008 0.91832 0.0
C998 C 0.90017 0.31992 0.93946 0.0
C999 C 0.90455 0.30752 0.93247 0.0
C1000 C 0.89201 0.29252 0.92182 0.0
N1001 N 0.88374 0.31741 0.93602 0.0
C1002 C 0.87139 0.30275 0.92556 0.0
Co1003 Co 0.52174 0.87252 0.39637 0.0
Co1004 Co 0.54526 0.87669 0.44266 0.0
O1005 O 0.53629 0.86647 0.41418 0.0
C1006 C 0.55012 0.87981 0.36463 0.0
O1007 O 0.56179 0.89082 0.37836 0.0
C1008 C 0.5272 0.8383 0.45125 0.0
O1009 O 0.51389 0.83667 0.43988 0.0
O1010 O 0.52143 0.8711 0.45244 0.0
O1011 O 0.50888 0.87369 0.42223 0.0
H1012 H 0.55213 0.91422 0.50709 0.0
H1013 H 0.52437 0.84114 0.38569 0.0
O1014 O 0.53396 0.87126 0.36975 0.0
H1015 H 0.46155 0.81897 0.39912 0.0
H1016 H 0.48575 0.86763 0.33084 0.0
H1017 H 0.50933 0.89811 0.40001 0.0
H1018 H 0.48291 0.85059 0.40151 0.0
H1019 H 0.50367 0.8599 0.35396 0.0
O1020 O 0.54079 0.85334 0.4537 0.0
H1021 H 0.54116 0.90145 0.4711 0.0
H1022 H 0.56835 0.87307 0.47499 0.0
H1023 H 0.49134 0.90614 0.37747 0.0
H1024 H 0.50343 0.80941 0.38291 0.0
H1025 H 0.47942 0.89085 0.34261 0.0
H1026 H 0.47178 0.79814 0.38973 0.0
O1027 O 0.53898 0.89806 0.39927 0.0
H1028 H 0.5887 0.86347 0.40741 0.0
H1029 H 0.58081 0.90861 0.44437 0.0
H1030 H 0.6102 0.91594 0.43155 0.0
H1031 H 0.61429 0.89326 0.41296 0.0
H1032 H 0.5595 0.85675 0.42035 0.0
H1033 H 0.57949 0.8854 0.51109 0.0
H1034 H 0.57144 0.90619 0.52734 0.0
O1035 O 0.55019 0.90031 0.43244 0.0
C1036 C 0.5091 0.87186 0.44261 0.0
C1037 C 0.55577 0.90521 0.50016 0.0
C1038 C 0.57111 0.88902 0.50242 0.0
N1039 N 0.5542 0.88662 0.4709 0.0
C1040 C 0.54963 0.89798 0.47977 0.0
C1041 C 0.56472 0.88204 0.48199 0.0
C1042 C 0.56659 0.90069 0.51152 0.0
C1043 C 0.5106 0.83634 0.38848 0.0
N1044 N 0.50487 0.84771 0.39371 0.0
C1045 C 0.49881 0.81836 0.38697 0.0
C1046 C 0.48106 0.81205 0.39083 0.0
C1047 C 0.47531 0.82372 0.39612 0.0
C1048 C 0.48748 0.84161 0.39752 0.0
C1049 C 0.49084 0.87436 0.34602 0.0
C1050 C 0.5041 0.89132 0.38492 0.0
C1051 C 0.50103 0.87007 0.35916 0.0
N1052 N 0.50743 0.87846 0.37839 0.0
C1053 C 0.49396 0.89596 0.3722 0.0
C1054 C 0.48729 0.88739 0.35263 0.0
C1055 C 0.54826 0.90712 0.41522 0.0
C1056 C 0.58709 0.87345 0.41554 0.0
C1057 C 0.58246 0.89869 0.43623 0.0
C1058 C 0.59915 0.9029 0.42905 0.0
C1059 C 0.60144 0.89017 0.41863 0.0
N1060 N 0.56846 0.88224 0.43319 0.0
C1061 C 0.5706 0.8697 0.42295 0.0
Co1062 Co 0.48363 0.35309 0.10474 0.0
Co1063 Co 0.46081 0.33479 0.05773 0.0
O1064 O 0.46921 0.33289 0.0863 0.0
C1065 C 0.45513 0.33277 0.13697 0.0
O1066 O 0.44368 0.33393 0.12454 0.0
C1067 C 0.47882 0.31446 0.04913 0.0
O1068 O 0.49198 0.32601 0.06083 0.0
O1069 O 0.48486 0.35308 0.04869 0.0
O1070 O 0.49695 0.3676 0.0794 0.0
H1071 H 0.45534 0.36684 0.99385 0.0
H1072 H 0.48054 0.31872 0.11448 0.0
O1073 O 0.47098 0.33907 0.13088 0.0
H1074 H 0.54364 0.35927 0.10283 0.0
H1075 H 0.51864 0.38262 0.17149 0.0
H1076 H 0.49642 0.39123 0.10222 0.0
H1077 H 0.52251 0.36982 0.10047 0.0
H1078 H 0.50097 0.35751 0.14749 0.0
O1079 O 0.46531 0.316 0.04642 0.0
H1080 H 0.46561 0.36427 0.02997 0.0
H1081 H 0.43822 0.30878 0.02446 0.0
H1082 H 0.51416 0.41672 0.12565 0.0
H1083 H 0.50124 0.30765 0.11719 0.0
H1084 H 0.5254 0.41249 0.16057 0.0
H1085 H 0.53304 0.32798 0.11127 0.0
O1086 O 0.46665 0.3617 0.10177 0.0
H1087 H 0.4164 0.27756 0.09095 0.0
H1088 H 0.42545 0.33153 0.05537 0.0
H1089 H 0.39575 0.30936 0.06714 0.0
H1090 H 0.39107 0.28211 0.08503 0.0
H1091 H 0.44592 0.30015 0.07907 0.0
H1092 H 0.42777 0.31075 0.9882 0.0
H1093 H 0.43628 0.33994 0.97271 0.0
O1094 O 0.45592 0.35342 0.06826 0.0
C1095 C 0.49706 0.36595 0.05899 0.0
C1096 C 0.4515 0.35404 1.00045 0.0
C1097 C 0.43605 0.32256 0.99727 0.0
N1098 N 0.45242 0.3364 0.02936 0.0
C1099 C 0.45724 0.35251 0.02092 0.0
C1100 C 0.44204 0.32153 0.01778 0.0
C1101 C 0.44082 0.33895 0.98859 0.0
C1102 C 0.49437 0.32768 0.11208 0.0
N1103 N 0.5003 0.3449 0.10737 0.0
C1104 C 0.50603 0.32132 0.11355 0.0
C1105 C 0.52386 0.33273 0.1102 0.0
C1106 C 0.52981 0.35028 0.10544 0.0
C1107 C 0.51778 0.35617 0.10406 0.0
C1108 C 0.51385 0.38463 0.15629 0.0
C1109 C 0.50135 0.3893 0.11733 0.0
C1110 C 0.5038 0.37046 0.14265 0.0
N1111 N 0.49778 0.37292 0.12339 0.0
C1112 C 0.51135 0.40377 0.13056 0.0
C1113 C 0.51764 0.40139 0.15016 0.0
C1114 C 0.45768 0.36189 0.0857 0.0
C1115 C 0.41827 0.28935 0.08313 0.0
C1116 C 0.42354 0.31974 0.06321 0.0
C1117 C 0.40668 0.30722 0.0698 0.0
C1118 C 0.40406 0.29193 0.07982 0.0
N1119 N 0.43739 0.31709 0.06645 0.0
C1120 C 0.43494 0.30216 0.07631 0.0
Co1121 Co 0.13296 0.48385 0.60399 0.0
Co1122 Co 0.12906 0.4603 0.55794 0.0
O1123 O 0.13923 0.46946 0.58631 0.0
C1124 C 0.1257 0.45601 0.63672 0.0
O1125 O 0.11367 0.44413 0.62406 0.0
C1126 C 0.16731 0.47917 0.5483 0.0
O1127 O 0.1684 0.49312 0.55749 0.0
O1128 O 0.13428 0.48399 0.54794 0.0
O1129 O 0.13143 0.49644 0.57809 0.0
H1130 H 0.0914 0.4525 0.49331 0.0
H1131 H 0.16476 0.48184 0.61423 0.0
O1132 O 0.13465 0.47192 0.63065 0.0
H1133 H 0.18587 0.54446 0.60086 0.0
H1134 H 0.13751 0.51982 0.6694 0.0
H1135 H 0.10694 0.49573 0.60041 0.0
H1136 H 0.15434 0.52271 0.59877 0.0
H1137 H 0.14553 0.50212 0.64629 0.0
O1138 O 0.15258 0.465 0.54725 0.0
H1139 H 0.10401 0.46375 0.52928 0.0
H1140 H 0.13328 0.43745 0.52583 0.0
H1141 H 0.0986 0.51348 0.62294 0.0
H1142 H 0.19641 0.50317 0.61667 0.0
H1143 H 0.11393 0.52565 0.65772 0.0
H1144 H 0.20715 0.53473 0.60989 0.0
O1145 O 0.1075 0.46634 0.60121 0.0
H1146 H 0.14291 0.41744 0.59363 0.0
H1147 H 0.09742 0.42457 0.55632 0.0
H1148 H 0.09043 0.39532 0.56928 0.0
H1149 H 0.11328 0.3916 0.58804 0.0
H1150 H 0.14929 0.4465 0.58056 0.0
H1151 H 0.1211 0.42602 0.48975 0.0
H1152 H 0.09994 0.43349 0.47329 0.0
O1153 O 0.10532 0.45513 0.56804 0.0
C1154 C 0.13328 0.49621 0.55772 0.0
C1155 C 0.10056 0.44911 0.50033 0.0
C1156 C 0.11725 0.43427 0.49832 0.0
N1157 N 0.11926 0.45116 0.5297 0.0
C1158 C 0.10771 0.45541 0.52072 0.0
C1159 C 0.12414 0.44081 0.51874 0.0
C1160 C 0.10538 0.43846 0.4891 0.0
C1161 C 0.16932 0.49557 0.61142 0.0
N1162 N 0.1577 0.50102 0.60643 0.0
C1163 C 0.18726 0.50757 0.61276 0.0
C1164 C 0.19328 0.52528 0.60893 0.0
C1165 C 0.18135 0.53074 0.60384 0.0
C1166 C 0.16351 0.51836 0.60263 0.0
C1167 C 0.13075 0.51461 0.65427 0.0
C1168 C 0.11374 0.50107 0.61546 0.0
C1169 C 0.13521 0.50455 0.64113 0.0
N1170 N 0.1268 0.49801 0.62194 0.0
C1171 C 0.10893 0.51107 0.62818 0.0
C1172 C 0.11753 0.51788 0.6477 0.0
C1173 C 0.09847 0.45698 0.58528 0.0
C1174 C 0.13285 0.41888 0.58544 0.0
C1175 C 0.10741 0.42308 0.56455 0.0
C1176 C 0.10339 0.40647 0.5718 0.0
C1177 C 0.11622 0.40439 0.58232 0.0
N1178 N 0.12377 0.43722 0.56761 0.0
C1179 C 0.13641 0.43529 0.57795 0.0
Co1180 Co 0.65034 0.13088 0.10615 0.0
Co1181 Co 0.66991 0.12676 0.06006 0.0
O1182 O 0.67103 0.13694 0.08852 0.0
C1183 C 0.67142 0.12367 0.13797 0.0
O1184 O 0.67222 0.11276 0.1242 0.0
C1185 C 0.69026 0.16514 0.05162 0.0
O1186 O 0.67849 0.16671 0.06289 0.0
O1187 O 0.65173 0.13238 0.0501 0.0
O1188 O 0.63643 0.12974 0.08017 0.0
H1189 H 0.63958 0.08934 0.99543 0.0
H1190 H 0.68431 0.16225 0.11706 0.0
O1191 O 0.6637 0.13211 0.13288 0.0
H1192 H 0.64374 0.18444 0.10319 0.0
H1193 H 0.61893 0.13571 0.1714 0.0
H1194 H 0.61235 0.10531 0.10225 0.0
H1195 H 0.63348 0.15282 0.1008 0.0
H1196 H 0.64469 0.14345 0.14849 0.0
O1197 O 0.68884 0.15012 0.04915 0.0
H1198 H 0.64118 0.10205 0.0314 0.0
H1199 H 0.69679 0.13043 0.02798 0.0
H1200 H 0.58622 0.09725 0.12458 0.0
H1201 H 0.6951 0.19397 0.11983 0.0
H1202 H 0.58942 0.11251 0.15943 0.0
H1203 H 0.67476 0.20526 0.11279 0.0
O1204 O 0.64204 0.10535 0.10325 0.0
H1205 H 0.7264 0.13991 0.09577 0.0
H1206 H 0.67349 0.09482 0.0585 0.0
H1207 H 0.69548 0.08746 0.07154 0.0
H1208 H 0.72218 0.11011 0.09028 0.0
H1209 H 0.70399 0.14666 0.08261 0.0
H1210 H 0.69579 0.11815 0.99189 0.0
H1211 H 0.66703 0.09739 0.97542 0.0
O1212 O 0.65114 0.10314 0.07015 0.0
C1213 C 0.6386 0.13161 0.05981 0.0
C1214 C 0.65219 0.09833 0.00246 0.0
C1215 C 0.68374 0.11452 1.00046 0.0
N1216 N 0.66906 0.11687 0.03183 0.0
C1217 C 0.65318 0.10553 0.02284 0.0
C1218 C 0.68422 0.12146 0.02088 0.0
C1219 C 0.6676 0.10287 0.99123 0.0
C1220 C 0.67535 0.16705 0.11417 0.0
N1221 N 0.65828 0.15569 0.10882 0.0
C1222 C 0.68154 0.18503 0.11568 0.0
C1223 C 0.67013 0.19135 0.1117 0.0
C1224 C 0.65273 0.17968 0.10629 0.0
C1225 C 0.64701 0.16179 0.10489 0.0
C1226 C 0.61736 0.129 0.15623 0.0
C1227 C 0.61383 0.11208 0.11734 0.0
C1228 C 0.63191 0.1333 0.14321 0.0
N1229 N 0.63001 0.12493 0.12397 0.0
C1230 C 0.599 0.10743 0.12994 0.0
C1231 C 0.60081 0.11598 0.1495 0.0
C1232 C 0.6423 0.0963 0.08732 0.0
C1233 C 0.71484 0.12994 0.08757 0.0
C1234 C 0.68504 0.10473 0.06671 0.0
C1235 C 0.69747 0.1005 0.07401 0.0
C1236 C 0.71245 0.11321 0.08452 0.0
N1237 N 0.6875 0.12118 0.06971 0.0
C1238 C 0.70214 0.1337 0.08003 0.0
Co1239 Co 0.52211 0.65011 0.60613 0.0
Co1240 Co 0.54517 0.66906 0.55945 0.0
O1241 O 0.53659 0.67057 0.58807 0.0
C1242 C 0.55083 0.67097 0.63764 0.0
O1243 O 0.56233 0.67125 0.62393 0.0
C1244 C 0.52725 0.68955 0.55113 0.0
O1245 O 0.51402 0.67798 0.5627 0.0
O1246 O 0.52119 0.65086 0.55005 0.0
O1247 O 0.5089 0.63599 0.5805 0.0
H1248 H 0.55108 0.63787 0.49492 0.0
H1249 H 0.52521 0.68434 0.61674 0.0
O1250 O 0.53467 0.66367 0.63257 0.0
H1251 H 0.46215 0.64406 0.6044 0.0
H1252 H 0.48667 0.61956 0.67223 0.0
H1253 H 0.50931 0.61202 0.60269 0.0
H1254 H 0.48324 0.6335 0.60168 0.0
H1255 H 0.50453 0.64504 0.64884 0.0
O1256 O 0.54075 0.68798 0.54846 0.0
H1257 H 0.54056 0.63995 0.53108 0.0
H1258 H 0.56802 0.69551 0.52673 0.0
H1259 H 0.49137 0.58617 0.6255 0.0
H1260 H 0.50454 0.69543 0.61983 0.0
H1261 H 0.47992 0.58985 0.66055 0.0
H1262 H 0.47276 0.67524 0.61357 0.0
O1263 O 0.53912 0.64155 0.60293 0.0
H1264 H 0.5893 0.72583 0.59389 0.0
H1265 H 0.58057 0.67238 0.55719 0.0
H1266 H 0.61017 0.69439 0.5695 0.0
H1267 H 0.61468 0.72137 0.58796 0.0
H1268 H 0.55989 0.70341 0.58147 0.0
H1269 H 0.57873 0.69403 0.49045 0.0
H1270 H 0.57031 0.66505 0.47436 0.0
O1271 O 0.55002 0.65031 0.56959 0.0
C1272 C 0.50892 0.63788 0.56011 0.0
C1273 C 0.55488 0.65058 0.50179 0.0
C1274 C 0.57038 0.6821 0.49927 0.0
N1275 N 0.55376 0.66783 0.53106 0.0
C1276 C 0.549 0.65184 0.52227 0.0
C1277 C 0.56424 0.68285 0.51979 0.0
C1278 C 0.56566 0.66583 0.49025 0.0
C1279 C 0.51138 0.67544 0.61418 0.0
N1280 N 0.50544 0.65829 0.60907 0.0
C1281 C 0.49975 0.68181 0.61587 0.0
C1282 C 0.48192 0.67048 0.61232 0.0
C1283 C 0.47596 0.65299 0.60716 0.0
C1284 C 0.48798 0.64709 0.60557 0.0
C1285 C 0.49156 0.61778 0.65697 0.0
C1286 C 0.50429 0.61372 0.61787 0.0
C1287 C 0.50171 0.63216 0.64368 0.0
N1288 N 0.50786 0.63 0.62434 0.0
C1289 C 0.49418 0.59903 0.63074 0.0
C1290 C 0.48777 0.60112 0.65041 0.0
C1291 C 0.54818 0.6416 0.58681 0.0
C1292 C 0.58751 0.71415 0.58582 0.0
C1293 C 0.58242 0.68406 0.56528 0.0
C1294 C 0.59921 0.69649 0.57216 0.0
C1295 C 0.60174 0.71163 0.58251 0.0
N1296 N 0.56853 0.68665 0.56853 0.0
C1297 C 0.5709 0.70144 0.57869 0.0
Co1298 Co 0.87605 0.52191 0.10641 0.0
Co1299 Co 0.87892 0.54522 0.06067 0.0
O1300 O 0.86904 0.53591 0.08909 0.0
C1301 C 0.88145 0.54948 0.13823 0.0
O1302 O 0.8918 0.56145 0.12432 0.0
C1303 C 0.84059 0.52644 0.05143 0.0
O1304 O 0.83955 0.51236 0.06012 0.0
O1305 O 0.87342 0.5215 0.05049 0.0
O1306 O 0.87831 0.50999 0.0802 0.0
H1307 H 0.91587 0.55322 0.99524 0.0
H1308 H 0.84344 0.52224 0.11715 0.0
O1309 O 0.87385 0.53329 0.13328 0.0
H1310 H 0.82478 0.46039 0.10195 0.0
H1311 H 0.87273 0.48569 0.17099 0.0
H1312 H 0.9034 0.51179 0.10264 0.0
H1313 H 0.85602 0.48311 0.10013 0.0
H1314 H 0.86381 0.50288 0.14828 0.0
O1315 O 0.8553 0.54065 0.05055 0.0
H1316 H 0.90356 0.54176 0.03127 0.0
H1317 H 0.87443 0.56825 0.02912 0.0
H1318 H 0.91265 0.49457 0.12477 0.0
H1319 H 0.81207 0.4999 0.11932 0.0
H1320 H 0.89727 0.48138 0.15922 0.0
H1321 H 0.80257 0.46873 0.11164 0.0
O1322 O 0.9012 0.54019 0.10383 0.0
H1323 H 0.86573 0.58806 0.09769 0.0
H1324 H 0.91061 0.58092 0.05883 0.0
H1325 H 0.91788 0.61014 0.07225 0.0
H1326 H 0.89533 0.61385 0.0918 0.0
H1327 H 0.85907 0.55903 0.08415 0.0
H1328 H 0.8863 0.57987 0.99299 0.0
H1329 H 0.90724 0.57242 0.97586 0.0
O1330 O 0.90284 0.55034 0.07018 0.0
C1331 C 0.87555 0.50985 0.05999 0.0
C1332 C 0.90679 0.5566 0.00256 0.0
C1333 C 0.89018 0.57154 0.00129 0.0
N1334 N 0.8884 0.55444 0.03235 0.0
C1335 C 0.89982 0.55018 0.02298 0.0
C1336 C 0.88347 0.56488 0.02173 0.0
C1337 C 0.90193 0.56736 0.99169 0.0
C1338 C 0.83942 0.50868 0.11396 0.0
N1339 N 0.85155 0.50397 0.10863 0.0
C1340 C 0.82163 0.4961 0.11514 0.0
C1341 C 0.81631 0.47861 0.1108 0.0
C1342 C 0.82876 0.47392 0.10535 0.0
C1343 C 0.84643 0.48686 0.10431 0.0
C1344 C 0.8795 0.49133 0.15598 0.0
C1345 C 0.89655 0.50598 0.11753 0.0
C1346 C 0.87452 0.5011 0.14307 0.0
N1347 N 0.88296 0.50818 0.12404 0.0
C1348 C 0.90189 0.49629 0.13003 0.0
C1349 C 0.89327 0.48891 0.14937 0.0
C1350 C 0.90999 0.54914 0.08756 0.0
C1351 C 0.87565 0.58661 0.08915 0.0
C1352 C 0.90075 0.58241 0.06739 0.0
C1353 C 0.90493 0.599 0.07491 0.0
C1354 C 0.89227 0.60108 0.08586 0.0
N1355 N 0.88441 0.56829 0.07063 0.0
C1356 C 0.87194 0.57022 0.08139 0.0
Co1357 Co 0.35514 0.87251 0.60616 0.0
Co1358 Co 0.33658 0.87717 0.55943 0.0
O1359 O 0.33483 0.86691 0.588 0.0
C1360 C 0.33445 0.88069 0.63752 0.0
O1361 O 0.33439 0.89201 0.62378 0.0
C1362 C 0.31583 0.83881 0.55093 0.0
O1363 O 0.32734 0.83705 0.56253 0.0
O1364 O 0.35464 0.87118 0.55006 0.0
O1365 O 0.36924 0.87325 0.58059 0.0
H1366 H 0.36831 0.91444 0.49524 0.0
H1367 H 0.32062 0.84169 0.61655 0.0
O1368 O 0.34158 0.87167 0.63252 0.0
H1369 H 0.36014 0.818 0.60427 0.0
H1370 H 0.38504 0.8668 0.67239 0.0
H1371 H 0.39336 0.89735 0.60297 0.0
H1372 H 0.3712 0.84977 0.60168 0.0
H1373 H 0.35976 0.85966 0.64885 0.0
O1374 O 0.31754 0.85394 0.54827 0.0
H1375 H 0.36593 0.90161 0.53132 0.0
H1376 H 0.31039 0.87398 0.52658 0.0
H1377 H 0.41903 0.9048 0.62594 0.0
H1378 H 0.30904 0.80983 0.6195 0.0
H1379 H 0.41495 0.88947 0.66093 0.0
H1380 H 0.32885 0.7978 0.61327 0.0
O1381 O 0.36409 0.89816 0.60307 0.0
H1382 H 0.27984 0.86497 0.59355 0.0
H1383 H 0.3337 0.90949 0.55733 0.0
H1384 H 0.31187 0.91734 0.56958 0.0
H1385 H 0.28469 0.89498 0.58778 0.0
H1386 H 0.30209 0.85772 0.5812 0.0
H1387 H 0.31216 0.88639 0.49037 0.0
H1388 H 0.34129 0.90683 0.4745 0.0
O1389 O 0.35547 0.90064 0.56978 0.0
C1390 C 0.36745 0.87158 0.56017 0.0
C1391 C 0.35554 0.90558 0.502 0.0
C1392 C 0.32403 0.88982 0.49925 0.0
N1393 N 0.33804 0.88716 0.5311 0.0
C1394 C 0.35411 0.89832 0.52244 0.0
C1395 C 0.32311 0.8828 0.51974 0.0
C1396 C 0.34038 0.9013 0.49037 0.0
C1397 C 0.32935 0.83656 0.614 0.0
N1398 N 0.34657 0.84758 0.60899 0.0
C1399 C 0.32271 0.81851 0.61562 0.0
C1400 C 0.33382 0.81176 0.61209 0.0
C1401 C 0.35138 0.82309 0.60702 0.0
C1402 C 0.35756 0.84106 0.60551 0.0
C1403 C 0.38699 0.87355 0.65716 0.0
C1404 C 0.39149 0.89055 0.61812 0.0
C1405 C 0.37272 0.86958 0.64378 0.0
N1406 N 0.3751 0.87799 0.62448 0.0
C1407 C 0.40607 0.89486 0.63108 0.0
C1408 C 0.40377 0.88627 0.65072 0.0
C1409 C 0.3642 0.90733 0.58706 0.0
C1410 C 0.29161 0.87482 0.58559 0.0
C1411 C 0.32194 0.89971 0.56531 0.0
C1412 C 0.3096 0.90422 0.57216 0.0
C1413 C 0.29435 0.89166 0.58237 0.0
N1414 N 0.31913 0.88314 0.56847 0.0
C1415 C 0.30423 0.87077 0.5785 0.0
C1416 C 0.32678 0.46268 0.17406 0.0
C1417 C 0.32802 0.45056 0.16049 0.0
C1418 C 0.32251 0.45888 0.19582 0.0
C1419 C 0.32615 0.43335 0.23989 0.0
H1420 H 0.2994 0.4504 0.27088 0.0
C1421 C 0.32415 0.43416 0.33336 0.0
C1422 C 0.32799 0.45049 0.3419 0.0
C1423 C 0.32002 0.43042 0.31144 0.0
C1424 C 0.30688 0.44553 0.26247 0.0
H1425 H 0.32508 0.42464 0.15897 0.0
H1426 H 0.31765 0.418 0.19723 0.0
H1427 H 0.2994 0.45041 0.23151 0.0
H1428 H 0.3296 0.47532 0.33439 0.0
H1429 H 0.32242 0.46883 0.29647 0.0
H1430 H 0.33417 0.42911 0.27087 0.0
C1431 C 0.32008 0.43048 0.19093 0.0
C1432 C 0.30688 0.44553 0.23992 0.0
C1433 C 0.32422 0.43424 0.16901 0.0
C1434 C 0.32678 0.46263 0.32834 0.0
C1435 C 0.32253 0.45885 0.30657 0.0
C1436 C 0.32615 0.43335 0.26248 0.0
C1437 C 0.31945 0.44289 0.20465 0.0
C1438 C 0.31698 0.43999 0.22836 0.0
C1439 C 0.31943 0.44286 0.29773 0.0
C1440 C 0.31697 0.43998 0.27402 0.0
H1441 H 0.32957 0.47536 0.16802 0.0
H1442 H 0.32238 0.46884 0.20594 0.0
H1443 H 0.33418 0.42912 0.2315 0.0
H1444 H 0.32498 0.42453 0.34339 0.0
H1445 H 0.31757 0.41793 0.30513 0.0
C1446 C 0.86487 0.32393 0.67118 0.0
C1447 C 0.87996 0.32734 0.65958 0.0
C1448 C 0.86384 0.32093 0.69337 0.0
C1449 C 0.88408 0.31154 0.74028 0.0
H1450 H 0.86689 0.33836 0.77081 0.0
C1451 C 0.89259 0.32601 0.83282 0.0
C1452 C 0.87913 0.3272 0.84345 0.0
C1453 C 0.89178 0.32318 0.81047 0.0
C1454 C 0.87145 0.33052 0.76262 0.0
H1455 H 0.90539 0.3292 0.66199 0.0
H1456 H 0.90368 0.32415 0.701 0.0
H1457 H 0.86708 0.33833 0.73173 0.0
H1458 H 0.85361 0.32492 0.83934 0.0
H1459 H 0.85198 0.31954 0.80072 0.0
H1460 H 0.88865 0.30397 0.77148 0.0
C1461 C 0.89259 0.32368 0.69282 0.0
C1462 C 0.87156 0.33052 0.74013 0.0
C1463 C 0.89358 0.3266 0.67047 0.0
C1464 C 0.86433 0.32432 0.83158 0.0
C1465 C 0.86345 0.32136 0.80939 0.0
C1466 C 0.88393 0.31152 0.76293 0.0
C1467 C 0.87793 0.3214 0.70461 0.0
C1468 C 0.87778 0.32097 0.72864 0.0
C1469 C 0.87743 0.32139 0.7984 0.0
C1470 C 0.87751 0.32095 0.77436 0.0
H1471 H 0.85403 0.32416 0.66324 0.0
H1472 H 0.85218 0.31877 0.70186 0.0
H1473 H 0.88892 0.30402 0.7319 0.0
H1474 H 0.90419 0.32821 0.84152 0.0
H1475 H 0.9028 0.32332 0.80252 0.0
C1476 C 0.57126 0.89113 0.33343 0.0
C1477 C 0.55514 0.87838 0.3422 0.0
C1478 C 0.57483 0.89079 0.31143 0.0
C1479 C 0.55978 0.8624 0.26254 0.0
H1480 H 0.57563 0.906 0.23154 0.0
C1481 C 0.54312 0.86476 0.1737 0.0
C1482 C 0.5552 0.87827 0.16026 0.0
C1483 C 0.54672 0.86438 0.19556 0.0
C1484 C 0.57155 0.89378 0.23993 0.0
H1485 H 0.53053 0.85481 0.33499 0.0
H1486 H 0.53672 0.85422 0.29693 0.0
H1487 H 0.57562 0.90603 0.2709 0.0
H1488 H 0.58088 0.90163 0.15912 0.0
H1489 H 0.58718 0.90097 0.19751 0.0
H1490 H 0.55512 0.85005 0.2316 0.0
C1491 C 0.54667 0.86446 0.30692 0.0
C1492 C 0.57154 0.89379 0.26253 0.0
C1493 C 0.54306 0.86487 0.32876 0.0
C1494 C 0.5713 0.89104 0.16904 0.0
C1495 C 0.57486 0.89073 0.19105 0.0
C1496 C 0.55979 0.86239 0.23998 0.0
C1497 C 0.56244 0.87759 0.29786 0.0
C1498 C 0.56515 0.87802 0.27409 0.0
C1499 C 0.56247 0.87753 0.20463 0.0
C1500 C 0.56517 0.87799 0.2284 0.0
H1501 H 0.58084 0.90172 0.34334 0.0
H1502 H 0.58716 0.90101 0.30497 0.0
H1503 H 0.5551 0.85008 0.27095 0.0
H1504 H 0.5306 0.85467 0.16748 0.0
H1505 H 0.53677 0.85414 0.20555 0.0
C1506 C 0.679 0.56824 0.83271 0.0
C1507 C 0.67874 0.55403 0.84341 0.0
C1508 C 0.68184 0.57034 0.81036 0.0
C1509 C 0.67586 0.54296 0.76276 0.0
H1510 H 0.70082 0.58693 0.73167 0.0
C1511 C 0.68225 0.54263 0.67136 0.0
C1512 C 0.6784 0.55393 0.65962 0.0
C1513 C 0.68528 0.54482 0.69353 0.0
C1514 C 0.69372 0.57457 0.74016 0.0
H1515 H 0.68272 0.5318 0.83944 0.0
H1516 H 0.68806 0.5357 0.80082 0.0
H1517 H 0.7009 0.58696 0.77126 0.0
H1518 H 0.67576 0.57706 0.66173 0.0
H1519 H 0.68081 0.58075 0.70071 0.0
H1520 H 0.66838 0.53051 0.732 0.0
C1521 C 0.68554 0.54491 0.80945 0.0
C1522 C 0.69377 0.57458 0.76281 0.0
C1523 C 0.68258 0.54274 0.83163 0.0
C1524 C 0.67872 0.56815 0.67034 0.0
C1525 C 0.68163 0.57028 0.69267 0.0
C1526 C 0.67581 0.54294 0.74028 0.0
C1527 C 0.68456 0.55833 0.79838 0.0
C1528 C 0.68491 0.55873 0.77436 0.0
C1529 C 0.68437 0.55826 0.70462 0.0
C1530 C 0.68482 0.5587 0.72864 0.0
H1531 H 0.67605 0.57714 0.84134 0.0
H1532 H 0.68097 0.5808 0.80234 0.0
H1533 H 0.66846 0.53054 0.77107 0.0
H1534 H 0.68235 0.53167 0.66354 0.0
H1535 H 0.68782 0.53561 0.70213 0.0
C1536 C 0.14045 0.68072 0.32854 0.0
C1537 C 0.12666 0.67873 0.34189 0.0
C1538 C 0.14086 0.68484 0.30673 0.0
C1539 C 0.1114 0.67966 0.26218 0.0
H1540 H 0.15509 0.70806 0.23157 0.0
C1541 C 0.11449 0.68239 0.16874 0.0
C1542 C 0.12757 0.67948 0.16007 0.0
C1543 C 0.11463 0.68623 0.19073 0.0
C1544 C 0.14277 0.7001 0.23987 0.0
H1545 H 0.10284 0.68021 0.34292 0.0
H1546 H 0.10356 0.68743 0.30461 0.0
H1547 H 0.15489 0.70789 0.27093 0.0
H1548 H 0.15153 0.67924 0.16744 0.0
H1549 H 0.15177 0.6859 0.20548 0.0
H1550 H 0.0994 0.67138 0.23109 0.0
C1551 C 0.11399 0.68568 0.31111 0.0
C1552 C 0.14265 0.7 0.26242 0.0
C1553 C 0.11365 0.68167 0.33307 0.0
C1554 C 0.14121 0.68134 0.17359 0.0
C1555 C 0.14142 0.6853 0.19543 0.0
C1556 C 0.11152 0.67976 0.23958 0.0
C1557 C 0.12747 0.68703 0.29761 0.0
C1558 C 0.12707 0.68937 0.27386 0.0
C1559 C 0.12795 0.68744 0.2044 0.0
C1560 C 0.12731 0.68957 0.22817 0.0
H1561 H 0.15073 0.67859 0.3348 0.0
H1562 H 0.15132 0.68555 0.29681 0.0
H1563 H 0.0992 0.6712 0.27045 0.0
H1564 H 0.10378 0.68103 0.15877 0.0
H1565 H 0.10414 0.68795 0.19712 0.0
C1566 C 0.46218 0.13879 0.82825 0.0
C1567 C 0.45058 0.12507 0.84181 0.0
C1568 C 0.45827 0.13895 0.80646 0.0
C1569 C 0.43403 0.10896 0.7624 0.0
H1570 H 0.44849 0.15224 0.73121 0.0
C1571 C 0.43442 0.11131 0.66893 0.0
C1572 C 0.45034 0.12451 0.66024 0.0
C1573 C 0.4306 0.11153 0.69086 0.0
C1574 C 0.44436 0.14003 0.73968 0.0
H1575 H 0.4254 0.1011 0.84328 0.0
H1576 H 0.41857 0.10136 0.80499 0.0
H1577 H 0.44857 0.15237 0.77058 0.0
H1578 H 0.47429 0.14876 0.66752 0.0
H1579 H 0.46767 0.14914 0.70545 0.0
H1580 H 0.43047 0.09675 0.73148 0.0
C1581 C 0.43074 0.11195 0.81131 0.0
C1582 C 0.4444 0.1401 0.76223 0.0
C1583 C 0.43461 0.11186 0.83325 0.0
C1584 C 0.46193 0.13835 0.67368 0.0
C1585 C 0.45807 0.13863 0.69545 0.0
C1586 C 0.43399 0.10889 0.73981 0.0
C1587 C 0.44268 0.12536 0.7976 0.0
C1588 C 0.43977 0.12468 0.77386 0.0
C1589 C 0.44254 0.12506 0.70445 0.0
C1590 C 0.43969 0.12453 0.72819 0.0
H1591 H 0.47458 0.1492 0.83432 0.0
H1592 H 0.46787 0.14936 0.79636 0.0
H1593 H 0.43053 0.09688 0.77085 0.0
H1594 H 0.42522 0.10046 0.65901 0.0
H1595 H 0.41847 0.10095 0.69728 0.0
C1596 C 0.57193 0.68031 0.66885 0.0
C1597 C 0.55597 0.67738 0.66006 0.0
C1598 C 0.57555 0.68413 0.69086 0.0
C1599 C 0.56105 0.69797 0.73982 0.0
H1600 H 0.57588 0.66933 0.77069 0.0
C1601 C 0.54408 0.67896 0.82863 0.0
C1602 C 0.55595 0.67715 0.84204 0.0
C1603 C 0.54773 0.68294 0.80678 0.0
C1604 C 0.57208 0.67772 0.76233 0.0
H1605 H 0.53171 0.67707 0.66727 0.0
H1606 H 0.53797 0.68369 0.70534 0.0
H1607 H 0.57589 0.66938 0.73133 0.0
H1608 H 0.58134 0.6788 0.84312 0.0
H1609 H 0.58774 0.68577 0.80475 0.0
H1610 H 0.55664 0.70582 0.77081 0.0
C1611 C 0.54777 0.68312 0.69536 0.0
C1612 C 0.57209 0.67775 0.73973 0.0
C1613 C 0.54411 0.67919 0.6735 0.0
C1614 C 0.57192 0.68011 0.83323 0.0
C1615 C 0.57554 0.68398 0.81123 0.0
C1616 C 0.56104 0.69794 0.76238 0.0
C1617 C 0.56336 0.6853 0.70444 0.0
C1618 C 0.56607 0.68747 0.72822 0.0
C1619 C 0.56334 0.68516 0.79768 0.0
C1620 C 0.56606 0.6874 0.77391 0.0
H1621 H 0.58134 0.67899 0.65894 0.0
H1622 H 0.58774 0.68588 0.69733 0.0
H1623 H 0.55665 0.70588 0.73145 0.0
H1624 H 0.53167 0.67681 0.83487 0.0
H1625 H 0.53794 0.68352 0.79682 0.0
C1626 C 0.86616 0.54234 0.32864 0.0
C1627 C 0.87955 0.55453 0.34212 0.0
C1628 C 0.86563 0.54601 0.30685 0.0
C1629 C 0.89473 0.57157 0.26263 0.0
H1630 H 0.85083 0.55368 0.23158 0.0
C1631 C 0.89187 0.57084 0.16917 0.0
C1632 C 0.87974 0.55438 0.1606 0.0
C1633 C 0.89136 0.57445 0.19111 0.0
C1634 C 0.86321 0.55879 0.24001 0.0
H1635 H 0.90249 0.5805 0.34344 0.0
H1636 H 0.90156 0.58695 0.30515 0.0
H1637 H 0.85081 0.55384 0.27094 0.0
H1638 H 0.85702 0.52915 0.16806 0.0
H1639 H 0.8561 0.53545 0.20604 0.0
H1640 H 0.90704 0.57596 0.23167 0.0
C1641 C 0.89155 0.57448 0.31153 0.0
C1642 C 0.8632 0.55888 0.26256 0.0
C1643 C 0.89201 0.57083 0.33348 0.0
C1644 C 0.86661 0.54195 0.17415 0.0
C1645 C 0.866 0.54561 0.19593 0.0
C1646 C 0.89474 0.57152 0.24004 0.0
C1647 C 0.8785 0.56197 0.2979 0.0
C1648 C 0.87888 0.56473 0.27415 0.0
C1649 C 0.87856 0.56176 0.20479 0.0
C1650 C 0.87891 0.5646 0.2285 0.0
H1651 H 0.85631 0.52967 0.33477 0.0
H1652 H 0.85554 0.53596 0.29682 0.0
H1653 H 0.90702 0.57604 0.27103 0.0
H1654 H 0.90216 0.58069 0.15915 0.0
H1655 H 0.90114 0.58706 0.19744 0.0
C1656 C 0.32591 0.86573 0.67334 0.0
C1657 C 0.32801 0.87951 0.65991 0.0
C1658 C 0.32197 0.86552 0.69519 0.0
C1659 C 0.32791 0.89541 0.73954 0.0
H1660 H 0.29933 0.85201 0.77062 0.0
C1661 C 0.32581 0.89282 0.83303 0.0
C1662 C 0.32863 0.87969 0.84171 0.0
C1663 C 0.32185 0.89264 0.81107 0.0
C1664 C 0.30734 0.86425 0.76219 0.0
H1665 H 0.32691 0.90354 0.65876 0.0
H1666 H 0.32001 0.90317 0.69713 0.0
H1667 H 0.29917 0.85198 0.73126 0.0
H1668 H 0.32862 0.8556 0.83438 0.0
H1669 H 0.32173 0.85526 0.7964 0.0
H1670 H 0.33656 0.90756 0.77049 0.0
C1671 C 0.32154 0.89259 0.69067 0.0
C1672 C 0.30725 0.86423 0.73963 0.0
C1673 C 0.32536 0.89273 0.66867 0.0
C1674 C 0.32659 0.86595 0.82823 0.0
C1675 C 0.3225 0.86569 0.80643 0.0
C1676 C 0.32799 0.89543 0.76213 0.0
C1677 C 0.32008 0.87911 0.70425 0.0
C1678 C 0.31795 0.8797 0.72803 0.0
C1679 C 0.32043 0.8792 0.79745 0.0
C1680 C 0.31812 0.87974 0.77371 0.0
H1681 H 0.32781 0.85531 0.66712 0.0
H1682 H 0.32118 0.85505 0.70517 0.0
H1683 H 0.33642 0.90752 0.73113 0.0
H1684 H 0.32731 0.9036 0.84298 0.0
H1685 H 0.32019 0.90316 0.80468 0.0
C1686 C 0.4366 0.32603 0.33242 0.0
C1687 C 0.45075 0.32622 0.34318 0.0
C1688 C 0.43446 0.32305 0.3101 0.0
C1689 C 0.46172 0.32846 0.26254 0.0
H1690 H 0.41765 0.30402 0.23154 0.0
C1691 C 0.46181 0.32224 0.17107 0.0
C1692 C 0.45066 0.32639 0.15946 0.0
C1693 C 0.4596 0.3191 0.19322 0.0
C1694 C 0.43005 0.31096 0.24 0.0
H1695 H 0.47283 0.32197 0.33937 0.0
H1696 H 0.46884 0.31638 0.3008 0.0
H1697 H 0.41768 0.30398 0.27113 0.0
H1698 H 0.42777 0.32943 0.16178 0.0
H1699 H 0.42406 0.32418 0.20073 0.0
H1700 H 0.47414 0.33575 0.23175 0.0
C1701 C 0.45972 0.31907 0.30935 0.0
C1702 C 0.43006 0.31094 0.26265 0.0
C1703 C 0.46194 0.32217 0.33151 0.0
C1704 C 0.43656 0.32624 0.17028 0.0
C1705 C 0.43442 0.32322 0.1926 0.0
C1706 C 0.46171 0.32847 0.24006 0.0
C1707 C 0.44637 0.32012 0.29821 0.0
C1708 C 0.44594 0.31963 0.27418 0.0
C1709 C 0.4463 0.32019 0.20442 0.0
C1710 C 0.44591 0.31967 0.22845 0.0
H1711 H 0.42778 0.32914 0.34097 0.0
H1712 H 0.42405 0.32398 0.30202 0.0
H1713 H 0.47417 0.33572 0.27082 0.0
H1714 H 0.47266 0.32201 0.16317 0.0
H1715 H 0.46871 0.31635 0.20172 0.0
C1716 C 0.11397 0.43728 0.66997 0.0
C1717 C 0.12762 0.45178 0.65933 0.0
C1718 C 0.11476 0.43522 0.69232 0.0
C1719 C 0.13536 0.46284 0.74001 0.0
H1720 H 0.11775 0.41896 0.77101 0.0
C1721 C 0.14221 0.4633 0.83139 0.0
C1722 C 0.12721 0.45162 0.84313 0.0
C1723 C 0.14314 0.46121 0.80922 0.0
C1724 C 0.12262 0.4313 0.76255 0.0
H1725 H 0.15341 0.47465 0.6634 0.0
H1726 H 0.15496 0.47083 0.70201 0.0
H1727 H 0.11785 0.419 0.73141 0.0
H1728 H 0.10183 0.42796 0.84101 0.0
H1729 H 0.10334 0.42444 0.802 0.0
H1730 H 0.13988 0.47517 0.7708 0.0
C1731 C 0.1434 0.46134 0.69334 0.0
C1732 C 0.12268 0.43132 0.73989 0.0
C1733 C 0.14255 0.46347 0.67116 0.0
C1734 C 0.11357 0.43716 0.8324 0.0
C1735 C 0.11445 0.43513 0.81006 0.0
C1736 C 0.1353 0.46281 0.76249 0.0
C1737 C 0.12925 0.44758 0.70435 0.0
C1738 C 0.12918 0.44714 0.72838 0.0
C1739 C 0.12902 0.44749 0.79812 0.0
C1740 C 0.12906 0.44709 0.77409 0.0
H1741 H 0.10227 0.42807 0.66128 0.0
H1742 H 0.10363 0.42448 0.7003 0.0
H1743 H 0.13998 0.47521 0.73173 0.0
H1744 H 0.15305 0.47445 0.83923 0.0
H1745 H 0.15475 0.4707 0.80063 0.0
C1746 C 0.68192 0.11281 0.33351 0.0
C1747 C 0.67837 0.12545 0.34225 0.0
C1748 C 0.68581 0.11315 0.3115 0.0
C1749 C 0.69875 0.1414 0.26251 0.0
H1750 H 0.67125 0.09765 0.23168 0.0
C1751 C 0.6792 0.1386 0.17384 0.0
C1752 C 0.6779 0.12515 0.16039 0.0
C1753 C 0.68331 0.13907 0.19567 0.0
C1754 C 0.67933 0.10992 0.24003 0.0
H1755 H 0.67702 0.14884 0.33496 0.0
H1756 H 0.68375 0.14941 0.2969 0.0
H1757 H 0.67136 0.09772 0.27105 0.0
H1758 H 0.68058 0.102 0.15919 0.0
H1759 H 0.68776 0.10282 0.19753 0.0
H1760 H 0.70621 0.15369 0.23152 0.0
C1761 C 0.68361 0.13927 0.30692 0.0
C1762 C 0.67939 0.10996 0.26263 0.0
C1763 C 0.67961 0.13886 0.32877 0.0
C1764 C 0.68149 0.11254 0.16912 0.0
C1765 C 0.68548 0.11294 0.1911 0.0
C1766 C 0.69869 0.14136 0.23996 0.0
C1767 C 0.68642 0.12624 0.29789 0.0
C1768 C 0.68867 0.12578 0.27412 0.0
C1769 C 0.68617 0.12607 0.20469 0.0
C1770 C 0.68855 0.1257 0.22844 0.0
H1771 H 0.68106 0.1023 0.34345 0.0
H1772 H 0.68805 0.10301 0.30507 0.0
H1773 H 0.70632 0.15376 0.27087 0.0
H1774 H 0.67658 0.14856 0.16765 0.0
H1775 H 0.68349 0.14925 0.20567 0.0
C1776 C 0.18295 0.4645 0.96954 0.0
C1777 C 0.18336 0.48001 0.96309 0.0
C1778 C 0.19777 0.46504 0.97856 0.0
C1779 C 0.23859 0.49372 0.00778 0.0
H1780 H 0.25223 0.46027 0.98898 0.0
C1781 C 0.30199 0.49599 0.03881 0.0
C1782 C 0.30153 0.47995 0.04181 0.0
C1783 C 0.28791 0.49652 0.02901 0.0
C1784 C 0.2485 0.46956 0.9947 0.0
H1785 H 0.19973 0.50827 0.96112 0.0
H1786 H 0.22559 0.50921 0.97714 0.0
H1787 H 0.22719 0.4602 0.97226 0.0
H1788 H 0.28564 0.45182 0.03739 0.0
H1789 H 0.26102 0.45267 0.02101 0.0
H1790 H 0.25962 0.50283 0.03059 0.0
C1791 C 0.21375 0.49664 0.97518 0.0
C1792 C 0.23415 0.46955 0.98501 0.0
C1793 C 0.19897 0.49608 0.96589 0.0
C1794 C 0.28653 0.46444 0.03515 0.0
C1795 C 0.27242 0.46495 0.02557 0.0
C1796 C 0.25286 0.49362 0.01766 0.0
C1797 C 0.21333 0.48111 0.98158 0.0
C1798 C 0.22897 0.48157 0.99149 0.0
C1799 C 0.27294 0.481 0.02214 0.0
C1800 C 0.25797 0.48146 0.01135 0.0
H1801 H 0.17117 0.45188 0.96761 0.0
H1802 H 0.19696 0.45286 0.98351 0.0
H1803 H 0.23482 0.50303 0.01329 0.0
H1804 H 0.31336 0.5082 0.04367 0.0
H1805 H 0.28894 0.50916 0.02645 0.0
C1806 C 0.70954 0.19815 0.45574 0.0
C1807 C 0.70571 0.1811 0.46118 0.0
C1808 C 0.72382 0.21282 0.46518 0.0
C1809 C 0.74942 0.24165 0.49543 0.0
H1810 H 0.79133 0.2394 0.50811 0.0
C1811 C 0.80749 0.29593 0.54451 0.0
C1812 C 0.82456 0.29996 0.53879 0.0
C1813 C 0.79284 0.28166 0.53503 0.0
C1814 C 0.77984 0.2404 0.5045 0.0
H1815 H 0.71372 0.16613 0.48118 0.0
H1816 H 0.73816 0.19149 0.49798 0.0
H1817 H 0.76655 0.21462 0.49105 0.0
H1818 H 0.83956 0.29235 0.51823 0.0
H1819 H 0.81421 0.26795 0.50137 0.0
H1820 H 0.76303 0.26774 0.50819 0.0
C1821 C 0.73051 0.19367 0.486 0.0
C1822 C 0.76544 0.226 0.49497 0.0
C1823 C 0.71637 0.17906 0.47644 0.0
C1824 C 0.82662 0.28954 0.5232 0.0
C1825 C 0.81201 0.27542 0.51359 0.0
C1826 C 0.7639 0.25614 0.50483 0.0
C1827 C 0.73455 0.21079 0.48042 0.0
C1828 C 0.74998 0.22636 0.49035 0.0
C1829 C 0.79489 0.27116 0.51946 0.0
C1830 C 0.77934 0.25573 0.50951 0.0
H1831 H 0.70164 0.2002 0.44397 0.0
H1832 H 0.72661 0.22574 0.46022 0.0
H1833 H 0.73771 0.2424 0.49237 0.0
H1834 H 0.80543 0.30363 0.55654 0.0
H1835 H 0.7799 0.27869 0.54021 0.0
C1836 C 0.51374 0.80553 0.04613 0.0
C1837 C 0.52694 0.82263 0.04084 0.0
C1838 C 0.51335 0.79096 0.03642 0.0
C1839 C 0.54173 0.77805 0.00597 0.0
H1840 H 0.49753 0.73639 0.99258 0.0
C1841 C 0.53926 0.7147 0.97676 0.0
C1842 C 0.52671 0.70434 0.96119 0.0
C1843 C 0.53883 0.72878 0.98654 0.0
C1844 C 0.51001 0.74797 0.99599 0.0
H1845 H 0.54988 0.83779 0.02083 0.0
H1846 H 0.54895 0.81258 0.00358 0.0
H1847 H 0.49759 0.76159 0.00888 0.0
H1848 H 0.50385 0.70076 0.94366 0.0
H1849 H 0.50335 0.72564 0.96031 0.0
H1850 H 0.55418 0.76477 0.99239 0.0
C1851 C 0.53913 0.81029 0.01564 0.0
C1852 C 0.51004 0.76238 0.00566 0.0
C1853 C 0.53961 0.82481 0.02547 0.0
C1854 C 0.51368 0.70842 0.95566 0.0
C1855 C 0.51334 0.72265 0.96533 0.0
C1856 C 0.5417 0.76373 0.99616 0.0
C1857 C 0.52608 0.79312 0.02105 0.0
C1858 C 0.52591 0.77764 0.01081 0.0
C1859 C 0.52595 0.73307 0.98089 0.0
C1860 C 0.52585 0.74843 0.99109 0.0
H1861 H 0.50382 0.80338 0.05798 0.0
H1862 H 0.50323 0.77798 0.04127 0.0
H1863 H 0.55423 0.78941 0.00992 0.0
H1864 H 0.5494 0.71185 0.98158 0.0
H1865 H 0.54855 0.73619 0.99875 0.0
C1866 C 0.72086 0.541 0.53262 0.0
C1867 C 0.70588 0.52545 0.53929 0.0
C1868 C 0.7352 0.54056 0.5236 0.0
C1869 C 0.74764 0.51194 0.49477 0.0
H1870 H 0.79468 0.54566 0.51346 0.0
C1871 C 0.80875 0.50944 0.46434 0.0
C1872 C 0.82439 0.52543 0.4613 0.0
C1873 C 0.79415 0.50903 0.47401 0.0
C1874 C 0.78168 0.5363 0.50775 0.0
H1875 H 0.69427 0.49723 0.5416 0.0
H1876 H 0.71928 0.49648 0.52555 0.0
H1877 H 0.76964 0.54577 0.52992 0.0
H1878 H 0.83676 0.55358 0.46558 0.0
H1879 H 0.8113 0.55294 0.48172 0.0
H1880 H 0.75961 0.50272 0.47222 0.0
C1881 C 0.71988 0.509 0.52736 0.0
C1882 C 0.7673 0.53633 0.51731 0.0
C1883 C 0.7056 0.50945 0.53666 0.0
C1884 C 0.82499 0.54101 0.46784 0.0
C1885 C 0.81037 0.54061 0.47728 0.0
C1886 C 0.76204 0.51203 0.48501 0.0
C1887 C 0.73487 0.52456 0.52077 0.0
C1888 C 0.75011 0.52419 0.5109 0.0
C1889 C 0.79476 0.52461 0.48071 0.0
C1890 C 0.7793 0.52426 0.4913 0.0
H1891 H 0.72156 0.55356 0.53442 0.0
H1892 H 0.74648 0.55276 0.51851 0.0
H1893 H 0.73456 0.50254 0.48931 0.0
H1894 H 0.80785 0.49719 0.45957 0.0
H1895 H 0.7825 0.49642 0.47659 0.0
C1896 C 0.29179 0.82585 0.97657 0.0
C1897 C 0.30216 0.82365 0.96102 0.0
C1898 C 0.27777 0.81135 0.98644 0.0
C1899 C 0.25877 0.76342 0.99624 0.0
H1900 H 0.21716 0.76598 0.00975 0.0
C1901 C 0.18188 0.71594 0.02524 0.0
C1902 C 0.18403 0.70558 0.04085 0.0
C1903 C 0.19642 0.72998 0.01544 0.0
C1904 C 0.22857 0.7649 0.00592 0.0
H1905 H 0.30581 0.80436 0.94364 0.0
H1906 H 0.28103 0.77899 0.96046 0.0
H1907 H 0.24177 0.79059 0.99221 0.0
H1908 H 0.20326 0.70195 0.05841 0.0
H1909 H 0.2287 0.72675 0.04171 0.0
H1910 H 0.24523 0.73742 0.00929 0.0
C1911 C 0.28398 0.79197 0.96539 0.0
C1912 C 0.24287 0.77919 0.99611 0.0
C1913 C 0.29815 0.80653 0.95562 0.0
C1914 C 0.20113 0.70961 0.04638 0.0
C1915 C 0.21573 0.72379 0.03668 0.0
C1916 C 0.24438 0.74903 0.00594 0.0
C1917 C 0.27354 0.79417 0.98091 0.0
C1918 C 0.25822 0.77872 0.99118 0.0
C1919 C 0.21358 0.73422 0.02111 0.0
C1920 C 0.22906 0.74956 0.01091 0.0
H1921 H 0.29459 0.83884 0.98129 0.0
H1922 H 0.27034 0.81366 0.99862 0.0
H1923 H 0.2704 0.76258 0.99294 0.0
H1924 H 0.16891 0.71314 0.02041 0.0
H1925 H 0.19415 0.7374 0.00321 0.0
C1926 C 0.49299 0.19796 0.54731 0.0
C1927 C 0.47998 0.18087 0.54166 0.0
C1928 C 0.49329 0.21257 0.53783 0.0
C1929 C 0.46488 0.22545 0.50747 0.0
H1930 H 0.50897 0.26747 0.49482 0.0
C1931 C 0.49269 0.29543 0.45813 0.0
C1932 C 0.47957 0.29937 0.4637 0.0
C1933 C 0.49311 0.2812 0.46764 0.0
C1934 C 0.49652 0.25579 0.49803 0.0
H1935 H 0.45728 0.16578 0.52125 0.0
H1936 H 0.45806 0.19106 0.5044 0.0
H1937 H 0.50905 0.24222 0.51074 0.0
H1938 H 0.45679 0.29159 0.48402 0.0
H1939 H 0.45776 0.26721 0.50093 0.0
H1940 H 0.45233 0.23871 0.49409 0.0
C1941 C 0.4678 0.1933 0.51656 0.0
C1942 C 0.49657 0.24135 0.50748 0.0
C1943 C 0.46741 0.17874 0.52616 0.0
C1944 C 0.46701 0.28886 0.47917 0.0
C1945 C 0.4675 0.27476 0.4888 0.0
C1946 C 0.46484 0.23981 0.4979 0.0
C1947 C 0.48066 0.21045 0.52234 0.0
C1948 C 0.48074 0.22596 0.51234 0.0
C1949 C 0.48047 0.27062 0.48309 0.0
C1950 C 0.48065 0.25523 0.49309 0.0
H1951 H 0.50283 0.20008 0.55928 0.0
H1952 H 0.50326 0.22553 0.54295 0.0
H1953 H 0.45241 0.21398 0.51121 0.0
H1954 H 0.50253 0.3032 0.44619 0.0
H1955 H 0.50316 0.27832 0.46258 0.0
C1956 C 0.82524 0.54148 0.03594 0.0
C1957 C 0.82479 0.52589 0.04205 0.0
C1958 C 0.8106 0.54107 0.02655 0.0
C1959 C 0.76239 0.51224 0.01816 0.0
H1960 H 0.77001 0.54648 0.97393 0.0
C1961 C 0.70605 0.50977 0.9664 0.0
C1962 C 0.70623 0.52574 0.96397 0.0
C1963 C 0.72033 0.50935 0.97575 0.0
C1964 C 0.76766 0.5369 0.98636 0.0
H1965 H 0.80848 0.4976 0.0431 0.0
H1966 H 0.78309 0.49681 0.02618 0.0
H1967 H 0.79506 0.54641 0.99045 0.0
H1968 H 0.72171 0.55381 0.96927 0.0
H1969 H 0.74661 0.55306 0.98528 0.0
H1970 H 0.7349 0.50258 0.01365 0.0
C1971 C 0.79464 0.50943 0.02905 0.0
C1972 C 0.78205 0.53689 0.99594 0.0
C1973 C 0.80926 0.50986 0.03867 0.0
C1974 C 0.7211 0.54127 0.9709 0.0
C1975 C 0.73543 0.54087 0.97999 0.0
C1976 C 0.74799 0.51214 0.00839 0.0
C1977 C 0.79512 0.52504 0.02275 0.0
C1978 C 0.77966 0.52467 0.01214 0.0
C1979 C 0.73521 0.5249 0.9826 0.0
C1980 C 0.75046 0.52457 0.9925 0.0
H1981 H 0.83693 0.55408 0.03848 0.0
H1982 H 0.81142 0.5534 0.02242 0.0
H1983 H 0.75996 0.50278 0.03076 0.0
H1984 H 0.69482 0.49757 0.96125 0.0
H1985 H 0.71982 0.49686 0.97738 0.0
C1986 C 0.18038 0.71549 0.47663 0.0
C1987 C 0.18257 0.70507 0.46115 0.0
C1988 C 0.1949 0.72959 0.4864 0.0
C1989 C 0.24287 0.74864 0.49605 0.0
H1990 H 0.24033 0.79026 0.50959 0.0
C1991 C 0.29679 0.80617 0.54611 0.0
C1992 C 0.30087 0.8233 0.54065 0.0
C1993 C 0.28255 0.79162 0.53643 0.0
C1994 C 0.24141 0.77885 0.50574 0.0
H1995 H 0.20185 0.70141 0.44376 0.0
H1996 H 0.22723 0.72629 0.46039 0.0
H1997 H 0.21568 0.76563 0.4921 0.0
H1998 H 0.2933 0.83851 0.52042 0.0
H1999 H 0.26892 0.81332 0.50324 0.0
H2000 H 0.26889 0.76219 0.50903 0.0
C2001 C 0.21425 0.72334 0.46535 0.0
C2002 C 0.22709 0.76454 0.49597 0.0
C2003 C 0.19968 0.70911 0.4557 0.0
C2004 C 0.29047 0.82551 0.52517 0.0
C2005 C 0.27636 0.81101 0.51538 0.0
C2006 C 0.25727 0.76304 0.50571 0.0
C2007 C 0.21208 0.73383 0.48083 0.0
C2008 C 0.22755 0.74918 0.49103 0.0
C2009 C 0.2721 0.79383 0.52094 0.0
C2010 C 0.25675 0.77837 0.51071 0.0
H2011 H 0.1674 0.71269 0.48139 0.0
H2012 H 0.19261 0.73706 0.49853 0.0
H2013 H 0.2437 0.73701 0.49275 0.0
H2014 H 0.30448 0.80398 0.55805 0.0
H2015 H 0.27958 0.77863 0.5414 0.0
C2016 C 0.46756 0.17917 0.97604 0.0
C2017 C 0.48016 0.18133 0.96056 0.0
C2018 C 0.46794 0.19371 0.98567 0.0
C2019 C 0.465 0.22583 0.99481 0.0
H2020 H 0.50905 0.26781 0.00773 0.0
C2021 C 0.46704 0.28914 0.02335 0.0
C2022 C 0.47956 0.29959 0.03889 0.0
C2023 C 0.46757 0.27507 0.01366 0.0
C2024 C 0.49662 0.25614 0.00444 0.0
H2025 H 0.50305 0.20057 0.94304 0.0
H2026 H 0.50347 0.22598 0.95945 0.0
H2027 H 0.50918 0.2426 0.99173 0.0
H2028 H 0.50246 0.30336 0.05649 0.0
H2029 H 0.50313 0.27852 0.04001 0.0
H2030 H 0.45241 0.23904 0.00819 0.0
C2031 C 0.49348 0.21302 0.96451 0.0
C2032 C 0.49669 0.24173 0.99495 0.0
C2033 C 0.49319 0.19843 0.95498 0.0
C2034 C 0.49266 0.29563 0.0445 0.0
C2035 C 0.4931 0.28143 0.03492 0.0
C2036 C 0.46493 0.24016 0.00442 0.0
C2037 C 0.48082 0.21086 0.97997 0.0
C2038 C 0.48087 0.22635 0.98999 0.0
C2039 C 0.48052 0.27091 0.01939 0.0
C2040 C 0.48072 0.25556 0.00933 0.0
H2041 H 0.45741 0.16619 0.98088 0.0
H2042 H 0.45818 0.19144 0.9978 0.0
H2043 H 0.45254 0.21437 0.99098 0.0
H2044 H 0.45685 0.2919 0.01848 0.0
H2045 H 0.45787 0.26757 0.00148 0.0
C2046 C 0.18253 0.46435 0.53187 0.0
C2047 C 0.18308 0.47984 0.53866 0.0
C2048 C 0.19717 0.46487 0.52229 0.0
C2049 C 0.24546 0.49351 0.51468 0.0
H2050 H 0.23783 0.46029 0.46908 0.0
C2051 C 0.302 0.49615 0.46311 0.0
C2052 C 0.30151 0.48008 0.46018 0.0
C2053 C 0.28774 0.49668 0.47236 0.0
C2054 C 0.24018 0.46958 0.48188 0.0
H2055 H 0.19956 0.50807 0.54075 0.0
H2056 H 0.22495 0.50906 0.52353 0.0
H2057 H 0.21281 0.46032 0.48572 0.0
H2058 H 0.2855 0.45193 0.46446 0.0
H2059 H 0.26065 0.45287 0.48029 0.0
H2060 H 0.27293 0.50291 0.51044 0.0
C2061 C 0.21332 0.49643 0.52598 0.0
C2062 C 0.22581 0.46957 0.49154 0.0
C2063 C 0.1987 0.49588 0.53578 0.0
C2064 C 0.28635 0.46455 0.46648 0.0
C2065 C 0.27205 0.46507 0.47546 0.0
C2066 C 0.25985 0.49364 0.50484 0.0
C2067 C 0.21274 0.48092 0.519 0.0
C2068 C 0.2282 0.4814 0.50825 0.0
C2069 C 0.27258 0.48113 0.4786 0.0
C2070 C 0.25737 0.48156 0.48847 0.0
H2071 H 0.17078 0.45173 0.53401 0.0
H2072 H 0.19627 0.4526 0.51763 0.0
H2073 H 0.24788 0.50267 0.52766 0.0
H2074 H 0.31346 0.50836 0.45846 0.0
H2075 H 0.28849 0.50925 0.47441 0.0
C2076 C 0.80679 0.29559 0.9579 0.0
C2077 C 0.82385 0.29951 0.96342 0.0
C2078 C 0.79214 0.28131 0.96735 0.0
C2079 C 0.7633 0.25574 0.99763 0.0
H2080 H 0.7658 0.21406 0.01087 0.0
C2081 C 0.70912 0.19783 0.04698 0.0
C2082 C 0.70519 0.18076 0.04146 0.0
C2083 C 0.72337 0.21246 0.03744 0.0
C2084 C 0.76472 0.22548 0.00709 0.0
H2085 H 0.83886 0.29166 0.98361 0.0
H2086 H 0.81353 0.26723 1.00044 0.0
H2087 H 0.79051 0.23879 0.99368 0.0
H2088 H 0.71296 0.16572 0.02121 0.0
H2089 H 0.73733 0.19103 0.00424 0.0
H2090 H 0.7372 0.2421 0.01035 0.0
C2091 C 0.81132 0.27481 0.98837 0.0
C2092 C 0.77909 0.23986 0.99749 0.0
C2093 C 0.82592 0.28894 0.97879 0.0
C2094 C 0.7157 0.17867 0.02602 0.0
C2095 C 0.7298 0.19325 0.01636 0.0
C2096 C 0.74884 0.24128 0.00709 0.0
C2097 C 0.79419 0.27067 0.98271 0.0
C2098 C 0.77865 0.25525 0.99268 0.0
C2099 C 0.73395 0.21039 0.02201 0.0
C2100 C 0.74934 0.22592 0.01198 0.0
H2101 H 0.80472 0.30342 0.94605 0.0
H2102 H 0.7792 0.27844 0.96232 0.0
H2103 H 0.76248 0.26739 0.99442 0.0
H2104 H 0.70134 0.1999 0.05888 0.0
H2105 H 0.72625 0.2254 0.04247 0.0
C2106 C 0.53921 0.8249 0.47691 0.0
C2107 C 0.52655 0.82273 0.46152 0.0
C2108 C 0.53875 0.81037 0.48668 0.0
C2109 C 0.54143 0.77816 0.4962 0.0
H2110 H 0.49729 0.73642 0.5095 0.0
C2111 C 0.53913 0.71485 0.52529 0.0
C2112 C 0.52659 0.70446 0.54086 0.0
C2113 C 0.53866 0.72892 0.51552 0.0
C2114 C 0.50976 0.74802 0.50611 0.0
H2115 H 0.50346 0.80349 0.44432 0.0
H2116 H 0.50291 0.77808 0.46094 0.0
H2117 H 0.49729 0.76161 0.49327 0.0
H2118 H 0.50371 0.70082 0.55838 0.0
H2119 H 0.50314 0.72567 0.54176 0.0
H2120 H 0.55394 0.76491 0.50971 0.0
C2121 C 0.51301 0.79105 0.46583 0.0
C2122 C 0.50975 0.76242 0.49648 0.0
C2123 C 0.51337 0.80563 0.45618 0.0
C2124 C 0.51353 0.7085 0.54639 0.0
C2125 C 0.51315 0.72272 0.53673 0.0
C2126 C 0.54144 0.76384 0.50595 0.0
C2127 C 0.52573 0.7932 0.4812 0.0
C2128 C 0.5256 0.77772 0.49137 0.0
C2129 C 0.52575 0.73317 0.52118 0.0
C2130 C 0.52562 0.74852 0.511 0.0
H2131 H 0.54946 0.83787 0.48159 0.0
H2132 H 0.54857 0.81265 0.49874 0.0
H2133 H 0.55393 0.78954 0.49226 0.0
H2134 H 0.54929 0.71203 0.52047 0.0
H2135 H 0.54837 0.73635 0.50332 0.0
C2136 C 0.38387 0.44927 0.10704 0.0
C2137 C 0.374 0.44811 0.08862 0.0
C2138 C 0.39364 0.44069 0.10774 0.0
C2139 C 0.41364 0.42178 0.07194 0.0
H2140 H 0.41359 0.39625 0.12293 0.0
C2141 C 0.4389 0.37295 0.06955 0.0
C2142 C 0.44875 0.37241 0.08711 0.0
C2143 C 0.43053 0.38284 0.07059 0.0
C2144 C 0.41393 0.40351 0.10866 0.0
H2145 H 0.36667 0.43684 0.0565 0.0
H2146 H 0.38351 0.4219 0.05783 0.0
H2147 H 0.39766 0.41237 0.12326 0.0
H2148 H 0.45742 0.38195 0.11964 0.0
H2149 H 0.44284 0.39934 0.12137 0.0
H2150 H 0.42978 0.4129 0.05726 0.0
C2151 C 0.3839 0.42962 0.07165 0.0
C2152 C 0.4048 0.41275 0.10885 0.0
C2153 C 0.37412 0.43812 0.07097 0.0
C2154 C 0.44993 0.38202 0.10581 0.0
C2155 C 0.4415 0.39193 0.10685 0.0
C2156 C 0.42276 0.41258 0.07176 0.0
C2157 C 0.39385 0.43083 0.08998 0.0
C2158 C 0.40435 0.4218 0.09038 0.0
C2159 C 0.43176 0.39252 0.0892 0.0
C2160 C 0.42284 0.40312 0.09 0.0
H2161 H 0.38411 0.45686 0.12093 0.0
H2162 H 0.40126 0.442 0.12205 0.0
H2163 H 0.41389 0.42891 0.05759 0.0
H2164 H 0.43761 0.36572 0.05488 0.0
H2165 H 0.42289 0.38273 0.05683 0.0
C2166 C 0.07042 0.44866 0.60534 0.0
C2167 C 0.07899 0.44756 0.58674 0.0
C2168 C 0.05206 0.43951 0.60659 0.0
C2169 C 0.01288 0.40189 0.58206 0.0
H2170 H 0.9877 0.4236 0.60609 0.0
C2171 C 0.93874 0.37229 0.56938 0.0
C2172 C 0.92846 0.37223 0.5868 0.0
C2173 C 0.95702 0.38146 0.57065 0.0
C2174 C 0.99454 0.41727 0.59958 0.0
H2175 H 0.07478 0.43606 0.55473 0.0
H2176 H 0.04303 0.42036 0.55689 0.0
H2177 H 0.01976 0.43964 0.60604 0.0
H2178 H 0.92956 0.38208 0.61921 0.0
H2179 H 0.96157 0.39806 0.62142 0.0
H2180 H 0.98776 0.3796 0.57543 0.0
C2181 C 0.05045 0.42805 0.57067 0.0
C2182 C 0.01292 0.42646 0.59955 0.0
C2183 C 0.06873 0.43718 0.5694 0.0
C2184 C 0.93703 0.38179 0.60548 0.0
C2185 C 0.95539 0.39103 0.60672 0.0
C2186 C 0.99456 0.39273 0.58208 0.0
C2187 C 0.04185 0.42899 0.58931 0.0
C2188 C 0.02232 0.41897 0.59052 0.0
C2189 C 0.96561 0.39086 0.58936 0.0
C2190 C 0.98513 0.40037 0.59056 0.0
H2191 H 0.07787 0.45652 0.61901 0.0
H2192 H 0.04588 0.44044 0.62124 0.0
H2193 H 0.01966 0.39555 0.57541 0.0
H2194 H 0.93271 0.36523 0.55464 0.0
H2195 H 0.96445 0.3813 0.55682 0.0
C2196 C 0.55574 0.93485 0.10694 0.0
C2197 C 0.55716 0.92634 0.08846 0.0
C2198 C 0.56414 0.9532 0.10783 0.0
C2199 C 0.58313 0.99239 0.07243 0.0
H2200 H 0.60789 0.01763 0.12393 0.0
C2201 C 0.63169 0.06657 0.07104 0.0
C2202 C 0.63186 0.07683 0.08855 0.0
C2203 C 0.62188 0.0483 0.0719 0.0
C2204 C 0.60085 0.01078 0.10951 0.0
H2205 H 0.56871 0.93066 0.05648 0.0
H2206 H 0.58335 0.96239 0.05816 0.0
H2207 H 0.59199 0.98558 0.12391 0.0
H2208 H 0.62175 0.0757 0.1208 0.0
H2209 H 0.60451 0.0437 0.12222 0.0
H2210 H 0.59204 0.01749 0.05795 0.0
C2211 C 0.57556 0.95493 0.07187 0.0
C2212 C 0.59172 0.9924 0.10951 0.0
C2213 C 0.56722 0.93666 0.07098 0.0
C2214 C 0.62197 0.06825 0.10702 0.0
C2215 C 0.61214 0.04989 0.10788 0.0
C2216 C 0.59222 0.01071 0.07244 0.0
C2217 C 0.57409 0.96346 0.09024 0.0
C2218 C 0.58295 0.98298 0.09085 0.0
C2219 C 0.61192 0.03969 0.09027 0.0
C2220 C 0.6014 0.02016 0.09087 0.0
H2221 H 0.54809 0.92735 0.12071 0.0
H2222 H 0.56263 0.95934 0.12217 0.0
H2223 H 0.57621 0.98559 0.05793 0.0
H2224 H 0.63916 0.07263 0.05654 0.0
H2225 H 0.62227 0.04088 0.05818 0.0
C2226 C 0.62328 0.55521 0.60553 0.0
C2227 C 0.633 0.55648 0.58691 0.0
C2228 C 0.61331 0.56358 0.6065 0.0
C2229 C 0.59263 0.58221 0.57134 0.0
H2230 H 0.59274 0.60736 0.62275 0.0
C2231 C 0.56696 0.63072 0.57021 0.0
C2232 C 0.55714 0.63109 0.58791 0.0
C2233 C 0.5754 0.62088 0.57095 0.0
C2234 C 0.59237 0.6002 0.60837 0.0
H2235 H 0.63985 0.56774 0.55475 0.0
H2236 H 0.62271 0.58233 0.55657 0.0
H2237 H 0.60894 0.59151 0.62251 0.0
H2238 H 0.54859 0.62128 0.62037 0.0
H2239 H 0.56329 0.60398 0.62158 0.0
H2240 H 0.57621 0.59094 0.5571 0.0
C2241 C 0.62257 0.57468 0.57033 0.0
C2242 C 0.60167 0.59111 0.60823 0.0
C2243 C 0.63253 0.56637 0.56935 0.0
C2244 C 0.55604 0.62135 0.60644 0.0
C2245 C 0.56455 0.61149 0.60718 0.0
C2246 C 0.58336 0.59126 0.57148 0.0
C2247 C 0.61277 0.57336 0.58886 0.0
C2248 C 0.60211 0.58221 0.5896 0.0
C2249 C 0.57427 0.61108 0.58939 0.0
C2250 C 0.5833 0.60058 0.58987 0.0
H2251 H 0.62329 0.54769 0.61935 0.0
H2252 H 0.60581 0.56218 0.62096 0.0
H2253 H 0.59235 0.57518 0.55687 0.0
H2254 H 0.56819 0.63807 0.55566 0.0
H2255 H 0.58301 0.62114 0.55709 0.0
C2256 C 0.93957 0.56877 0.07114 0.0
C2257 C 0.92946 0.55866 0.08872 0.0
C2258 C 0.95788 0.57785 0.07215 0.0
C2259 C 0.99547 0.57946 0.10096 0.0
H2260 H 0.02086 0.62605 0.07612 0.0
C2261 C 0.07133 0.62384 0.10713 0.0
C2262 C 0.08001 0.63329 0.08844 0.0
C2263 C 0.05296 0.61467 0.10822 0.0
C2264 C 0.014 0.61299 0.08296 0.0
H2265 H 0.93087 0.55014 0.12117 0.0
H2266 H 0.96285 0.56613 0.12294 0.0
H2267 H 0.98896 0.61027 0.07611 0.0
H2268 H 0.07597 0.64013 0.05609 0.0
H2269 H 0.04422 0.62416 0.05799 0.0
H2270 H 0.02061 0.58222 0.10769 0.0
C2271 C 0.95655 0.56689 0.1083 0.0
C2272 C 0.99568 0.60393 0.08295 0.0
C2273 C 0.93819 0.5578 0.10731 0.0
C2274 C 0.06984 0.63316 0.07084 0.0
C2275 C 0.05156 0.62405 0.07196 0.0
C2276 C 0.01385 0.58855 0.10097 0.0
C2277 C 0.96662 0.5771 0.09076 0.0
C2278 C 0.98616 0.58697 0.09172 0.0
C2279 C 0.04286 0.61478 0.09068 0.0
C2280 C 0.02334 0.60535 0.09174 0.0
H2281 H 0.93338 0.56969 0.05649 0.0
H2282 H 0.96519 0.58533 0.05819 0.0
H2283 H 0.98857 0.56636 0.10767 0.0
H2284 H 0.0787 0.62362 0.121 0.0
H2285 H 0.04669 0.60775 0.12294 0.0
C2286 C 0.45136 0.06869 0.60742 0.0
C2287 C 0.45024 0.0772 0.58877 0.0
C2288 C 0.44302 0.05034 0.60829 0.0
C2289 C 0.42473 0.01117 0.57286 0.0
H2290 H 0.39883 0.9859 0.62376 0.0
C2291 C 0.37559 0.93715 0.57071 0.0
C2292 C 0.37491 0.92677 0.58836 0.0
C2293 C 0.38561 0.95541 0.57167 0.0
C2294 C 0.4062 0.99276 0.60952 0.0
H2295 H 0.43933 0.0729 0.55642 0.0
H2296 H 0.4248 0.04117 0.55805 0.0
H2297 H 0.41488 0.01795 0.62385 0.0
H2298 H 0.38436 0.92767 0.62094 0.0
H2299 H 0.40196 0.95965 0.62254 0.0
H2300 H 0.41598 0.98608 0.55843 0.0
C2301 C 0.4323 0.04863 0.57192 0.0
C2302 C 0.41541 0.01114 0.60957 0.0
C2303 C 0.44057 0.06689 0.57106 0.0
C2304 C 0.38453 0.93521 0.60705 0.0
C2305 C 0.39457 0.95356 0.60801 0.0
C2306 C 0.41556 0.99285 0.5728 0.0
C2307 C 0.43345 0.04009 0.59049 0.0
C2308 C 0.42457 0.02057 0.59111 0.0
C2309 C 0.39528 0.96388 0.59028 0.0
C2310 C 0.40595 0.98339 0.59101 0.0
H2311 H 0.4587 0.07618 0.62137 0.0
H2312 H 0.44428 0.04419 0.62279 0.0
H2313 H 0.43196 0.01799 0.55852 0.0
H2314 H 0.36835 0.93121 0.55604 0.0
H2315 H 0.3856 0.96293 0.55784 0.0
C2316 C 0.55612 0.62111 0.89579 0.0
C2317 C 0.55719 0.63087 0.9143 0.0
C2318 C 0.56464 0.61126 0.8951 0.0
C2319 C 0.58342 0.59108 0.93094 0.0
H2320 H 0.60913 0.59136 0.88003 0.0
C2321 C 0.63273 0.56639 0.9334 0.0
C2322 C 0.63326 0.55648 0.9159 0.0
C2323 C 0.62273 0.57465 0.93235 0.0
C2324 C 0.60182 0.59095 0.89428 0.0
H2325 H 0.56819 0.63786 0.94658 0.0
H2326 H 0.58302 0.62095 0.94525 0.0
H2327 H 0.59288 0.60715 0.87967 0.0
H2328 H 0.62361 0.54763 0.88345 0.0
H2329 H 0.60606 0.56204 0.88169 0.0
H2330 H 0.59243 0.57506 0.94565 0.0
C2331 C 0.57543 0.62068 0.93135 0.0
C2332 C 0.5925 0.60001 0.89407 0.0
C2333 C 0.56698 0.63051 0.93204 0.0
C2334 C 0.62355 0.55515 0.89724 0.0
C2335 C 0.61355 0.56349 0.89618 0.0
C2336 C 0.59272 0.58207 0.93116 0.0
C2337 C 0.57434 0.61087 0.91293 0.0
C2338 C 0.58338 0.60038 0.91252 0.0
C2339 C 0.61295 0.57327 0.91377 0.0
C2340 C 0.60224 0.58207 0.91294 0.0
H2341 H 0.54869 0.62104 0.88183 0.0
H2342 H 0.56341 0.60375 0.88072 0.0
H2343 H 0.57623 0.59076 0.94528 0.0
H2344 H 0.64004 0.5678 0.94804 0.0
H2345 H 0.62283 0.58232 0.94607 0.0
C2346 C 0.93863 0.56655 0.43111 0.0
C2347 C 0.92833 0.55665 0.41352 0.0
C2348 C 0.9569 0.57492 0.43022 0.0
C2349 C 0.99439 0.59155 0.39257 0.0
H2350 H 0.0195 0.59128 0.44382 0.0
C2351 C 0.07028 0.62205 0.39483 0.0
C2352 C 0.07884 0.63171 0.41346 0.0
C2353 C 0.05193 0.61215 0.39396 0.0
C2354 C 0.01272 0.59163 0.42941 0.0
H2355 H 0.92939 0.54791 0.38109 0.0
H2356 H 0.96138 0.56252 0.37963 0.0
H2357 H 0.9876 0.57543 0.44384 0.0
H2358 H 0.07458 0.63846 0.44575 0.0
H2359 H 0.04285 0.62146 0.4441 0.0
H2360 H 0.01961 0.60792 0.37823 0.0
C2361 C 0.95522 0.56388 0.39405 0.0
C2362 C 0.9944 0.58253 0.42943 0.0
C2363 C 0.93686 0.55543 0.39494 0.0
C2364 C 0.06855 0.6312 0.43113 0.0
C2365 C 0.05028 0.62131 0.43026 0.0
C2366 C 0.01277 0.60069 0.39256 0.0
C2367 C 0.96546 0.57366 0.41174 0.0
C2368 C 0.98498 0.58255 0.41112 0.0
C2369 C 0.0417 0.6116 0.41172 0.0
C2370 C 0.02217 0.60104 0.4111 0.0
H2371 H 0.9326 0.56788 0.44568 0.0
H2372 H 0.96435 0.58258 0.44401 0.0
H2373 H 0.98756 0.59197 0.37825 0.0
H2374 H 0.07775 0.6221 0.38092 0.0
H2375 H 0.04575 0.60471 0.37949 0.0
C2376 C 0.45107 0.06924 0.89417 0.0
C2377 C 0.44988 0.07772 0.91282 0.0
C2378 C 0.44209 0.05088 0.89289 0.0
C2379 C 0.40461 0.01159 0.91728 0.0
H2380 H 0.42652 0.98654 0.89348 0.0
C2381 C 0.37515 0.93759 0.93023 0.0
C2382 C 0.37507 0.92726 0.91285 0.0
C2383 C 0.38435 0.95586 0.92891 0.0
C2384 C 0.42013 0.99334 0.89992 0.0
H2385 H 0.43848 0.07333 0.94491 0.0
H2386 H 0.42307 0.0416 0.94267 0.0
H2387 H 0.44246 0.01861 0.89348 0.0
H2388 H 0.38496 0.92827 0.88049 0.0
H2389 H 0.40101 0.96028 0.87819 0.0
H2390 H 0.38236 0.98646 0.92388 0.0
C2391 C 0.43068 0.04909 0.92888 0.0
C2392 C 0.42927 0.01173 0.89992 0.0
C2393 C 0.43965 0.06736 0.93019 0.0
C2394 C 0.38469 0.93577 0.89419 0.0
C2395 C 0.39397 0.95413 0.89289 0.0
C2396 C 0.3955 0.99328 0.91728 0.0
C2397 C 0.43166 0.04059 0.91018 0.0
C2398 C 0.4217 0.02107 0.9089 0.0
C2399 C 0.39378 0.96439 0.91019 0.0
C2400 C 0.40323 0.9839 0.9089 0.0
H2401 H 0.45883 0.07676 0.88048 0.0
H2402 H 0.44304 0.04476 0.8782 0.0
H2403 H 0.39821 0.01834 0.92387 0.0
H2404 H 0.36805 0.93159 0.94496 0.0
H2405 H 0.38419 0.96332 0.9427 0.0
C2406 C 0.37317 0.43707 0.43114 0.0
C2407 C 0.37345 0.44744 0.4137 0.0
C2408 C 0.38228 0.42789 0.43011 0.0
C2409 C 0.41838 0.42617 0.40182 0.0
H2410 H 0.39643 0.37936 0.42609 0.0
C2411 C 0.44936 0.38129 0.39656 0.0
C2412 C 0.44825 0.37174 0.41529 0.0
C2413 C 0.44031 0.39059 0.39518 0.0
C2414 C 0.40283 0.39248 0.41941 0.0
H2415 H 0.38381 0.45636 0.38152 0.0
H2416 H 0.39965 0.44019 0.37971 0.0
H2417 H 0.38054 0.39537 0.42574 0.0
H2418 H 0.43689 0.36483 0.4474 0.0
H2419 H 0.42133 0.381 0.44498 0.0
H2420 H 0.44073 0.42323 0.3956 0.0
C2421 C 0.39243 0.4393 0.39425 0.0
C2422 C 0.39371 0.40167 0.41921 0.0
C2423 C 0.38327 0.4485 0.39526 0.0
C2424 C 0.438 0.37188 0.43263 0.0
C2425 C 0.42896 0.38111 0.43121 0.0
C2426 C 0.42752 0.41694 0.402 0.0
C2427 C 0.39196 0.42879 0.41164 0.0
C2428 C 0.40144 0.41873 0.41068 0.0
C2429 C 0.42989 0.3905 0.41244 0.0
C2430 C 0.41994 0.40006 0.41107 0.0
H2431 H 0.36589 0.43599 0.44569 0.0
H2432 H 0.38188 0.42021 0.44397 0.0
H2433 H 0.42479 0.43934 0.39529 0.0
H2434 H 0.45714 0.38151 0.38289 0.0
H2435 H 0.44123 0.3976 0.38043 0.0
C2436 C 0.06875 0.43778 0.93434 0.0
C2437 C 0.07885 0.44767 0.91662 0.0
C2438 C 0.05046 0.42916 0.93362 0.0
C2439 C 0.01276 0.41183 0.89624 0.0
H2440 H 0.98765 0.41213 0.94747 0.0
C2441 C 0.93701 0.38156 0.8982 0.0
C2442 C 0.9283 0.37209 0.91686 0.0
C2443 C 0.95536 0.39128 0.89745 0.0
C2444 C 0.99443 0.41175 0.93308 0.0
H2445 H 0.07744 0.45612 0.88415 0.0
H2446 H 0.04543 0.44107 0.88298 0.0
H2447 H 0.01956 0.42817 0.9474 0.0
H2448 H 0.93225 0.36542 0.94933 0.0
H2449 H 0.96404 0.38211 0.94788 0.0
H2450 H 0.98755 0.39526 0.882 0.0
C2451 C 0.05175 0.43992 0.89737 0.0
C2452 C 0.01275 0.42097 0.93304 0.0
C2453 C 0.07011 0.44862 0.8981 0.0
C2454 C 0.93842 0.37255 0.93468 0.0
C2455 C 0.95672 0.38225 0.93392 0.0
C2456 C 0.99438 0.40257 0.89629 0.0
C2457 C 0.0417 0.43015 0.91518 0.0
C2458 C 0.02217 0.42098 0.91471 0.0
C2459 C 0.96545 0.39181 0.91534 0.0
C2460 C 0.98499 0.40226 0.91481 0.0
H2461 H 0.07494 0.43666 0.94888 0.0
H2462 H 0.04316 0.42153 0.9475 0.0
H2463 H 0.01959 0.41141 0.88192 0.0
H2464 H 0.92967 0.38155 0.88418 0.0
H2465 H 0.96164 0.39861 0.88295 0.0
C2466 C 0.56795 0.93687 0.43113 0.0
C2467 C 0.55756 0.92659 0.4138 0.0
C2468 C 0.57703 0.95515 0.42988 0.0
C2469 C 0.57845 0.99267 0.40128 0.0
H2470 H 0.62549 0.0178 0.42487 0.0
C2471 C 0.62299 0.06855 0.39535 0.0
C2472 C 0.63281 0.07712 0.41388 0.0
C2473 C 0.61374 0.05019 0.39411 0.0
C2474 C 0.61231 0.01102 0.41838 0.0
H2475 H 0.54847 0.9277 0.3816 0.0
H2476 H 0.56446 0.95971 0.37942 0.0
H2477 H 0.60955 0.98591 0.42485 0.0
H2478 H 0.64024 0.07289 0.44578 0.0
H2479 H 0.62412 0.04115 0.44364 0.0
H2480 H 0.58125 0.01788 0.39496 0.0
C2481 C 0.56545 0.95352 0.39403 0.0
C2482 C 0.60315 0.9927 0.41837 0.0
C2483 C 0.55636 0.93516 0.39525 0.0
C2484 C 0.63298 0.06685 0.43116 0.0
C2485 C 0.62379 0.04857 0.4299 0.0
C2486 C 0.58764 0.01105 0.40129 0.0
C2487 C 0.57601 0.96374 0.41129 0.0
C2488 C 0.58602 0.98327 0.41009 0.0
C2489 C 0.61413 0.03998 0.41134 0.0
C2490 C 0.60461 0.02045 0.41012 0.0
H2491 H 0.56914 0.93083 0.44577 0.0
H2492 H 0.58476 0.96257 0.44364 0.0
H2493 H 0.56522 0.98583 0.39493 0.0
H2494 H 0.62253 0.07601 0.38172 0.0
H2495 H 0.60653 0.04401 0.37951 0.0
C2496 C 0.47993 0.6099 0.94337 0.0
C2497 C 0.49397 0.62383 0.95438 0.0
C2498 C 0.46596 0.5965 0.95468 0.0
C2499 C 0.44376 0.58525 0.00777 0.0
H2500 H 0.42462 0.5375 0.98726 0.0
C2501 C 0.39572 0.52526 0.05815 0.0
C2502 C 0.38149 0.51122 0.04753 0.0
C2503 C 0.40889 0.53915 0.04649 0.0
C2504 C 0.42965 0.55078 0.99303 0.0
H2505 H 0.50419 0.6345 0.98608 0.0
H2506 H 0.47982 0.6109 0.00588 0.0
H2507 H 0.44891 0.56144 0.96799 0.0
H2508 H 0.37008 0.50089 0.01614 0.0
H2509 H 0.39319 0.52527 0.99573 0.0
H2510 H 0.4246 0.5745 0.03296 0.0
C2511 C 0.47956 0.61054 0.98841 0.0
C2512 C 0.4436 0.56452 0.982 0.0
C2513 C 0.49358 0.62404 0.97706 0.0
C2514 C 0.38081 0.51147 0.02487 0.0
C2515 C 0.3941 0.52539 0.01316 0.0
C2516 C 0.42984 0.57149 0.01883 0.0
C2517 C 0.46563 0.59655 0.97733 0.0
C2518 C 0.45085 0.58194 0.98923 0.0
C2519 C 0.40829 0.53939 0.02387 0.0
C2520 C 0.42265 0.55408 0.01163 0.0
H2521 H 0.47969 0.60923 0.92592 0.0
H2522 H 0.45534 0.58612 0.94559 0.0
H2523 H 0.44882 0.59851 0.01359 0.0
H2524 H 0.39683 0.52554 0.07557 0.0
H2525 H 0.41977 0.54956 0.05524 0.0
C2526 C 0.87315 0.39453 0.55708 0.0
C2527 C 0.87298 0.38048 0.54601 0.0
C2528 C 0.87257 0.40795 0.54583 0.0
C2529 C 0.88216 0.42962 0.49292 0.0
H2530 H 0.85345 0.44852 0.51383 0.0
C2531 C 0.87294 0.47969 0.44362 0.0
C2532 C 0.87292 0.49368 0.45459 0.0
C2533 C 0.87252 0.46581 0.45495 0.0
C2534 C 0.86171 0.44355 0.50793 0.0
H2535 H 0.87204 0.36963 0.51429 0.0
H2536 H 0.87099 0.39315 0.49461 0.0
H2537 H 0.85317 0.4241 0.5328 0.0
H2538 H 0.87239 0.5039 0.48625 0.0
H2539 H 0.87189 0.47966 0.50612 0.0
H2540 H 0.89084 0.44913 0.4682 0.0
C2541 C 0.87167 0.39374 0.51206 0.0
C2542 C 0.86151 0.42952 0.51876 0.0
C2543 C 0.87217 0.38021 0.52334 0.0
C2544 C 0.87235 0.49333 0.47727 0.0
C2545 C 0.87198 0.47939 0.48865 0.0
C2546 C 0.8824 0.44368 0.48214 0.0
C2547 C 0.87187 0.40777 0.5232 0.0
C2548 C 0.87173 0.42238 0.51137 0.0
C2549 C 0.87218 0.46552 0.4776 0.0
C2550 C 0.87214 0.4508 0.48946 0.0
H2551 H 0.87388 0.39531 0.57452 0.0
H2552 H 0.87301 0.41868 0.5549 0.0
H2553 H 0.89042 0.42465 0.48704 0.0
H2554 H 0.87333 0.47939 0.42617 0.0
H2555 H 0.87234 0.45522 0.44588 0.0
C2556 C 0.38213 0.87056 0.97635 0.0
C2557 C 0.38234 0.87112 0.95366 0.0
C2558 C 0.39556 0.86994 0.98772 0.0
C2559 C 0.44147 0.8797 0.98145 0.0
H2560 H 0.4312 0.8505 0.03226 0.0
C2561 C 0.4943 0.86969 0.0243 0.0
C2562 C 0.49447 0.87043 0.04698 0.0
C2563 C 0.48041 0.86912 0.01261 0.0
C2564 C 0.4343 0.85883 0.01818 0.0
H2565 H 0.39687 0.87126 0.92522 0.0
H2566 H 0.41989 0.86988 0.94495 0.0
H2567 H 0.40732 0.85093 0.01283 0.0
H2568 H 0.48002 0.87112 0.07505 0.0
H2569 H 0.45605 0.87018 0.05473 0.0
H2570 H 0.46844 0.88762 0.98682 0.0
C2571 C 0.40956 0.87022 0.95401 0.0
C2572 C 0.42061 0.8591 0.00708 0.0
C2573 C 0.39621 0.87088 0.94268 0.0
C2574 C 0.48036 0.87045 0.05763 0.0
C2575 C 0.4665 0.86982 0.04597 0.0
C2576 C 0.45514 0.8794 0.99252 0.0
C2577 C 0.40949 0.86986 0.97666 0.0
C2578 C 0.42403 0.86957 0.98859 0.0
C2579 C 0.46636 0.8692 0.02333 0.0
C2580 C 0.45174 0.86901 0.01107 0.0
H2581 H 0.37172 0.8708 0.98535 0.0
H2582 H 0.3952 0.86985 0.00518 0.0
H2583 H 0.44462 0.88814 0.96748 0.0
H2584 H 0.50493 0.86966 0.01556 0.0
H2585 H 0.48061 0.8685 0.99516 0.0
C2586 C 0.52591 0.39366 0.44469 0.0
C2587 C 0.51199 0.37975 0.45588 0.0
C2588 C 0.53997 0.40712 0.45581 0.0
C2589 C 0.55221 0.42915 0.50854 0.0
H2590 H 0.59975 0.44792 0.48744 0.0
C2591 C 0.61171 0.4795 0.55734 0.0
C2592 C 0.62562 0.49347 0.54623 0.0
C2593 C 0.59822 0.46554 0.54615 0.0
C2594 C 0.58654 0.44297 0.49339 0.0
H2595 H 0.50209 0.36917 0.48771 0.0
H2596 H 0.52677 0.39274 0.50717 0.0
H2597 H 0.57554 0.42338 0.4687 0.0
H2598 H 0.63619 0.50355 0.51445 0.0
H2599 H 0.6124 0.47915 0.49483 0.0
H2600 H 0.56313 0.44879 0.5331 0.0
C2601 C 0.52666 0.3932 0.48971 0.0
C2602 C 0.57266 0.42887 0.48269 0.0
C2603 C 0.51257 0.37964 0.47856 0.0
C2604 C 0.62573 0.493 0.52354 0.0
C2605 C 0.61213 0.47898 0.5123 0.0
C2606 C 0.56607 0.44326 0.5192 0.0
C2607 C 0.54051 0.40711 0.47845 0.0
C2608 C 0.55533 0.42179 0.49015 0.0
C2609 C 0.59815 0.46513 0.52351 0.0
C2610 C 0.58341 0.45033 0.5118 0.0
H2611 H 0.52594 0.39431 0.42724 0.0
H2612 H 0.55027 0.41775 0.44664 0.0
H2613 H 0.539 0.42422 0.51448 0.0
H2614 H 0.61111 0.4793 0.57479 0.0
H2615 H 0.58786 0.45497 0.55533 0.0
C2616 C 0.13561 0.51168 0.97997 0.0
C2617 C 0.13437 0.51112 0.95733 0.0
C2618 C 0.13637 0.52574 0.99148 0.0
C2619 C 0.14671 0.57175 0.98501 0.0
H2620 H 0.11823 0.56251 0.03628 0.0
C2621 C 0.13622 0.62502 0.02594 0.0
C2622 C 0.13583 0.62512 0.04862 0.0
C2623 C 0.13658 0.61134 0.01483 0.0
C2624 C 0.12645 0.56537 0.02215 0.0
H2625 H 0.13289 0.52503 0.92913 0.0
H2626 H 0.13421 0.54929 0.94911 0.0
H2627 H 0.11828 0.53826 0.01743 0.0
H2628 H 0.13572 0.61088 0.07734 0.0
H2629 H 0.13671 0.58747 0.05808 0.0
H2630 H 0.1549 0.59886 0.98972 0.0
C2631 C 0.13481 0.53901 0.95799 0.0
C2632 C 0.12647 0.55144 0.01136 0.0
C2633 C 0.13396 0.52498 0.94653 0.0
C2634 C 0.13599 0.61131 0.05987 0.0
C2635 C 0.13641 0.59774 0.04881 0.0
C2636 C 0.14673 0.58569 0.99584 0.0
C2637 C 0.136 0.53958 0.98058 0.0
C2638 C 0.13654 0.55446 0.9926 0.0
C2639 C 0.13657 0.59748 0.02616 0.0
C2640 C 0.13657 0.58267 0.01453 0.0
H2641 H 0.13592 0.50124 0.98883 0.0
H2642 H 0.1374 0.52586 0.0089 0.0
H2643 H 0.1548 0.57454 0.97075 0.0
H2644 H 0.13602 0.63537 0.01674 0.0
H2645 H 0.13651 0.61146 0.99736 0.0
C2646 C 0.52737 0.13408 0.55975 0.0
C2647 C 0.51322 0.13368 0.54868 0.0
C2648 C 0.54137 0.13466 0.5485 0.0
C2649 C 0.56336 0.1451 0.49529 0.0
H2650 H 0.58265 0.11675 0.51623 0.0
C2651 C 0.61117 0.13275 0.445 0.0
C2652 C 0.62541 0.13296 0.45561 0.0
C2653 C 0.59806 0.13357 0.45667 0.0
C2654 C 0.57758 0.12492 0.51034 0.0
H2655 H 0.50284 0.13367 0.51692 0.0
H2656 H 0.52726 0.13447 0.49723 0.0
H2657 H 0.55848 0.1166 0.53553 0.0
H2658 H 0.63691 0.13419 0.48698 0.0
H2659 H 0.61393 0.13566 0.5074 0.0
H2660 H 0.58238 0.15327 0.46995 0.0
C2661 C 0.52758 0.13458 0.5147 0.0
C2662 C 0.5637 0.12483 0.52139 0.0
C2663 C 0.51354 0.13404 0.52599 0.0
C2664 C 0.62617 0.13402 0.47827 0.0
C2665 C 0.61295 0.13477 0.48998 0.0
C2666 C 0.57722 0.14515 0.48421 0.0
C2667 C 0.54162 0.13478 0.52584 0.0
C2668 C 0.55639 0.1349 0.51399 0.0
C2669 C 0.59874 0.13456 0.47929 0.0
C2670 C 0.58446 0.13502 0.49156 0.0
H2671 H 0.52767 0.13386 0.57721 0.0
H2672 H 0.55208 0.13511 0.55762 0.0
H2673 H 0.55826 0.15322 0.48934 0.0
H2674 H 0.61001 0.13183 0.42759 0.0
H2675 H 0.58717 0.13309 0.44794 0.0
C2676 C 0.52604 0.39384 0.05817 0.0
C2677 C 0.51216 0.37993 0.04692 0.0
C2678 C 0.54013 0.40731 0.04709 0.0
C2679 C 0.55252 0.42931 0.99434 0.0
H2680 H 0.6 0.44816 0.0157 0.0
C2681 C 0.61213 0.47959 0.94568 0.0
C2682 C 0.62599 0.49361 0.9568 0.0
C2683 C 0.59862 0.46564 0.95685 0.0
C2684 C 0.5868 0.44319 0.00968 0.0
H2685 H 0.50236 0.36936 0.01506 0.0
H2686 H 0.5271 0.39293 0.99569 0.0
H2687 H 0.57574 0.42363 0.03439 0.0
H2688 H 0.63644 0.50378 0.98859 0.0
H2689 H 0.61263 0.4794 0.00819 0.0
H2690 H 0.56349 0.44892 0.96975 0.0
C2691 C 0.52693 0.39339 0.01314 0.0
C2692 C 0.5729 0.4291 0.02035 0.0
C2693 C 0.51281 0.37983 0.02425 0.0
C2694 C 0.62603 0.4932 0.97949 0.0
C2695 C 0.61241 0.47918 0.99072 0.0
C2696 C 0.5664 0.44342 0.9837 0.0
C2697 C 0.54074 0.40731 0.02446 0.0
C2698 C 0.55559 0.42199 0.0128 0.0
C2699 C 0.59848 0.46529 0.9795 0.0
C2700 C 0.58372 0.45051 0.9912 0.0
H2701 H 0.52601 0.39449 0.07561 0.0
H2702 H 0.5504 0.41794 0.05629 0.0
H2703 H 0.53932 0.42437 0.98833 0.0
H2704 H 0.61159 0.47934 0.92822 0.0
H2705 H 0.58831 0.45504 0.94767 0.0
C2706 C 0.13535 0.62448 0.47621 0.0
C2707 C 0.1349 0.6245 0.45353 0.0
C2708 C 0.13581 0.61087 0.48736 0.0
C2709 C 0.12581 0.56493 0.48025 0.0
H2710 H 0.15446 0.57439 0.53143 0.0
C2711 C 0.13531 0.51148 0.52248 0.0
C2712 C 0.13426 0.51104 0.54514 0.0
C2713 C 0.13597 0.52548 0.51094 0.0
C2714 C 0.14629 0.57152 0.51724 0.0
H2715 H 0.13479 0.61021 0.42486 0.0
H2716 H 0.13592 0.58692 0.44419 0.0
H2717 H 0.15437 0.59859 0.5124 0.0
H2718 H 0.13305 0.5251 0.57334 0.0
H2719 H 0.13418 0.54925 0.55329 0.0
H2720 H 0.11774 0.53786 0.4851 0.0
C2721 C 0.1356 0.59719 0.45343 0.0
C2722 C 0.14621 0.58539 0.50637 0.0
C2723 C 0.13509 0.6107 0.44232 0.0
C2724 C 0.13396 0.52496 0.55592 0.0
C2725 C 0.13471 0.53893 0.54443 0.0
C2726 C 0.12594 0.55107 0.49108 0.0
C2727 C 0.13583 0.597 0.47608 0.0
C2728 C 0.13593 0.58227 0.48776 0.0
C2729 C 0.1357 0.53937 0.52181 0.0
C2730 C 0.13612 0.55419 0.50976 0.0
H2731 H 0.13513 0.63483 0.48538 0.0
H2732 H 0.13579 0.61104 0.50483 0.0
H2733 H 0.11751 0.56199 0.46618 0.0
H2734 H 0.13554 0.50099 0.51364 0.0
H2735 H 0.13685 0.52551 0.49351 0.0
C2736 C 0.62572 0.13391 0.02445 0.0
C2737 C 0.62493 0.13279 0.0471 0.0
C2738 C 0.61252 0.13469 0.01272 0.0
C2739 C 0.57676 0.14503 0.01847 0.0
H2740 H 0.55822 0.1167 0.96693 0.0
C2741 C 0.5133 0.13417 0.97628 0.0
C2742 C 0.51311 0.13393 0.95359 0.0
C2743 C 0.52727 0.13462 0.98766 0.0
C2744 C 0.56339 0.12487 0.98114 0.0
H2745 H 0.60948 0.13159 0.07509 0.0
H2746 H 0.58666 0.13289 0.05472 0.0
H2747 H 0.58231 0.11675 0.98634 0.0
H2748 H 0.52772 0.13426 0.92515 0.0
H2749 H 0.552 0.13537 0.9449 0.0
H2750 H 0.55782 0.15313 0.01329 0.0
C2751 C 0.59756 0.1334 0.04601 0.0
C2752 C 0.57722 0.1249 0.99225 0.0
C2753 C 0.61067 0.13256 0.05769 0.0
C2754 C 0.52732 0.13438 0.9426 0.0
C2755 C 0.54124 0.13488 0.95395 0.0
C2756 C 0.56295 0.14502 0.00733 0.0
C2757 C 0.59829 0.13444 0.02339 0.0
C2758 C 0.58403 0.13492 0.0111 0.0
C2759 C 0.54136 0.13487 0.97661 0.0
C2760 C 0.55606 0.13491 0.98854 0.0
H2761 H 0.63648 0.13411 0.01574 0.0
H2762 H 0.61353 0.13563 0.9953 0.0
H2763 H 0.58186 0.15308 0.03278 0.0
H2764 H 0.50256 0.13375 0.98528 0.0
H2765 H 0.52685 0.13442 0.00513 0.0
C2766 C 0.47986 0.61012 0.55883 0.0
C2767 C 0.49393 0.62399 0.54779 0.0
C2768 C 0.4659 0.59668 0.54755 0.0
C2769 C 0.44382 0.58519 0.49439 0.0
H2770 H 0.42457 0.53754 0.51529 0.0
C2771 C 0.39587 0.525 0.44424 0.0
C2772 C 0.38158 0.51104 0.45487 0.0
C2773 C 0.40904 0.53892 0.45587 0.0
C2774 C 0.42964 0.55079 0.50941 0.0
H2775 H 0.50421 0.63451 0.51607 0.0
H2776 H 0.47987 0.61084 0.49632 0.0
H2777 H 0.44883 0.56156 0.53451 0.0
H2778 H 0.37005 0.50088 0.48626 0.0
H2779 H 0.39316 0.5253 0.50663 0.0
H2780 H 0.42472 0.57433 0.46913 0.0
C2781 C 0.47958 0.61056 0.51379 0.0
C2782 C 0.44357 0.56458 0.52041 0.0
C2783 C 0.49358 0.6241 0.52511 0.0
C2784 C 0.38083 0.5114 0.47753 0.0
C2785 C 0.39412 0.52534 0.48921 0.0
C2786 C 0.42992 0.57138 0.48335 0.0
C2787 C 0.46561 0.59662 0.5249 0.0
C2788 C 0.45085 0.58196 0.51304 0.0
C2789 C 0.40837 0.53927 0.47848 0.0
C2790 C 0.4227 0.55401 0.4907 0.0
H2791 H 0.47958 0.60953 0.57629 0.0
H2792 H 0.45524 0.58635 0.55666 0.0
H2793 H 0.4489 0.59842 0.48845 0.0
H2794 H 0.39703 0.5252 0.42683 0.0
H2795 H 0.41996 0.54927 0.44712 0.0
C2796 C 0.88151 0.3978 0.94888 0.0
C2797 C 0.87342 0.38068 0.95722 0.0
C2798 C 0.88068 0.41115 0.95996 0.0
C2799 C 0.87076 0.42279 0.01383 0.0
H2800 H 0.87076 0.46024 0.98097 0.0
C2801 C 0.88324 0.48638 0.0551 0.0
C2802 C 0.87481 0.49525 0.04731 0.0
C2803 C 0.88216 0.47215 0.04389 0.0
C2804 C 0.87049 0.4498 0.99047 0.0
H2805 H 0.85797 0.3641 0.98371 0.0
H2806 H 0.85592 0.38729 0.00277 0.0
H2807 H 0.86957 0.43551 0.9622 0.0
H2808 H 0.85861 0.49611 0.02161 0.0
H2809 H 0.85615 0.47079 0.0023 0.0
H2810 H 0.87083 0.43666 0.04211 0.0
C2811 C 0.86335 0.39054 0.98791 0.0
C2812 C 0.87012 0.43569 0.97965 0.0
C2813 C 0.86445 0.3772 0.97696 0.0
C2814 C 0.86535 0.48961 0.02792 0.0
C2815 C 0.864 0.47512 0.01684 0.0
C2816 C 0.87083 0.43675 0.02465 0.0
C2817 C 0.87145 0.40772 0.97953 0.0
C2818 C 0.87058 0.42213 0.99115 0.0
C2819 C 0.87234 0.46612 0.02474 0.0
C2820 C 0.87104 0.45065 0.01313 0.0
H2821 H 0.88871 0.401 0.93383 0.0
H2822 H 0.88751 0.42423 0.95321 0.0
H2823 H 0.87126 0.41274 0.02332 0.0
H2824 H 0.89082 0.49051 0.06986 0.0
H2825 H 0.88921 0.46598 0.05023 0.0
C2826 C 0.49384 0.86974 0.47786 0.0
C2827 C 0.49421 0.87074 0.45519 0.0
C2828 C 0.47985 0.86906 0.48945 0.0
C2829 C 0.4338 0.85883 0.48341 0.0
H2830 H 0.44362 0.88746 0.53467 0.0
C2831 C 0.38124 0.87003 0.52518 0.0
C2832 C 0.38128 0.87036 0.54787 0.0
C2833 C 0.39474 0.8695 0.51386 0.0
C2834 C 0.4406 0.87921 0.52054 0.0
H2835 H 0.48003 0.8718 0.42704 0.0
H2836 H 0.45591 0.87067 0.44719 0.0
H2837 H 0.46763 0.88722 0.51546 0.0
H2838 H 0.39556 0.87014 0.57637 0.0
H2839 H 0.4187 0.8689 0.55674 0.0
H2840 H 0.40676 0.85084 0.48847 0.0
C2841 C 0.46627 0.87019 0.45602 0.0
C2842 C 0.45439 0.87907 0.50954 0.0
C2843 C 0.48022 0.87093 0.44446 0.0
C2844 C 0.39504 0.86994 0.55891 0.0
C2845 C 0.40845 0.86937 0.54764 0.0
C2846 C 0.42 0.85895 0.49444 0.0
C2847 C 0.46591 0.86929 0.47864 0.0
C2848 C 0.45117 0.86893 0.4908 0.0
C2849 C 0.40858 0.86928 0.52498 0.0
C2850 C 0.42323 0.86916 0.51313 0.0
H2851 H 0.50438 0.86958 0.48667 0.0
H2852 H 0.47989 0.86822 0.50688 0.0
H2853 H 0.43084 0.85069 0.46918 0.0
H2854 H 0.37092 0.87042 0.51613 0.0
H2855 H 0.39452 0.86962 0.49639 0.0
loop_
_geom_bond_atom_site_label_1
_geom_bond_atom_site_label_2
_geom_bond_distance
_geom_bond_site_symmetry_2
_ccdc_geom_bond_type
Co0 O2 2.143 . S
Co0 O8 2.074 . S
Co0 O11 2.093 . S
Co0 O24 2.097 . S
Co0 N41 2.151 . S
Co0 N49 2.214 . S
Co1 O2 2.160 . S
Co1 O7 2.058 . S
Co1 O17 2.057 . S
Co1 O32 2.037 . S
Co1 N36 2.145 . S
Co1 N57 2.257 . S
O2 Co0 2.143 . S
O2 Co1 2.160 . S
C3 O4 1.278 . S
C3 O11 1.224 . S
O4 C3 1.278 . S
C5 O6 1.245 . S
C5 O17 1.232 . S
O6 C5 1.245 . S
O7 Co1 2.058 . S
O7 C33 1.269 . S
O8 Co0 2.074 . S
O8 C33 1.257 . S
H9 C34 0.930 . S
H10 C40 0.930 . S
O11 Co0 2.093 . S
O11 C3 1.224 . S
H12 C44 0.929 . S
H13 C46 0.930 . S
H14 C47 0.930 . S
H15 C45 0.929 . S
H16 C48 0.928 . S
O17 Co1 2.057 . S
O17 C5 1.232 . S
H18 C37 0.929 . S
H19 C38 0.929 . S
H20 C50 0.931 . S
H21 C42 0.929 . S
H22 C51 0.930 . S
H23 C43 0.931 . S
O24 Co0 2.097 . S
O24 C52 1.214 . S
H25 C53 0.929 . S
H26 C54 0.929 . S
H27 C55 0.930 . S
H28 C56 0.929 . S
H29 C58 0.930 . S
H30 C35 0.930 . S
H31 C39 0.930 . S
O32 Co1 2.037 . S
O32 C52 1.234 . S
C33 O7 1.269 . S
C33 O8 1.257 . S
C34 H9 0.930 . S
C34 C37 1.388 1_556 S
C34 C39 1.418 . S
C35 H30 0.930 . S
C35 C38 1.404 1_556 S
C35 C39 1.353 . S
N36 Co1 2.145 . S
N36 C37 1.397 . S
N36 C38 1.334 . S
C37 H18 0.929 . S
C37 C34 1.388 1_554 S
C37 N36 1.397 . S
C38 H19 0.929 . S
C38 C35 1.404 1_554 S
C38 N36 1.334 . S
C39 H31 0.930 . S
C39 C34 1.418 . S
C39 C35 1.353 . S
C40 H10 0.930 . S
C40 N41 1.330 . S
C40 C42 1.446 . S
N41 Co0 2.151 . S
N41 C40 1.330 . S
N41 C45 1.418 . S
C42 H21 0.929 . S
C42 C40 1.446 . S
C42 C43 1.332 . S
C43 H23 0.931 . S
C43 C42 1.332 . S
C43 C44 1.267 . S
C44 H12 0.929 . S
C44 C43 1.267 . S
C44 C45 1.251 . S
C45 H15 0.929 . S
C45 N41 1.418 . S
C45 C44 1.251 . S
C46 H13 0.930 . S
C46 C48 1.406 . S
C46 C51 1.261 . S
C47 H14 0.930 . S
C47 N49 1.325 . S
C47 C50 1.357 . S
C48 H16 0.928 . S
C48 C46 1.406 . S
C48 N49 1.261 . S
N49 Co0 2.214 . S
N49 C47 1.325 . S
N49 C48 1.261 . S
C50 H20 0.931 . S
C50 C47 1.357 . S
C50 C51 1.312 . S
C51 H22 0.930 . S
C51 C46 1.261 . S
C51 C50 1.312 . S
C52 O24 1.214 . S
C52 O32 1.234 . S
C53 H25 0.929 . S
C53 C56 1.391 . S
C53 C58 1.391 . S
C54 H26 0.929 . S
C54 C55 1.390 . S
C54 N57 1.391 . S
C55 H27 0.930 . S
C55 C54 1.390 . S
C55 C56 1.392 . S
C56 H28 0.929 . S
C56 C53 1.391 . S
C56 C55 1.392 . S
N57 Co1 2.257 . S
N57 C54 1.391 . S
N57 C58 1.388 . S
C58 H29 0.930 . S
C58 C53 1.391 . S
C58 N57 1.388 . S
Co59 O61 2.143 . S
Co59 O67 2.074 . S
Co59 O70 2.093 . S
Co59 O83 2.097 . S
Co59 N100 2.151 . S
Co59 N108 2.214 . S
Co60 O61 2.160 . S
Co60 O66 2.058 . S
Co60 O76 2.057 . S
Co60 O91 2.037 . S
Co60 N95 2.145 . S
Co60 N116 2.257 . S
O61 Co59 2.143 . S
O61 Co60 2.160 . S
C62 O63 1.278 . S
C62 O70 1.224 . S
O63 C62 1.278 . S
C64 O65 1.245 . S
C64 O76 1.232 . S
O65 C64 1.245 . S
O66 Co60 2.058 . S
O66 C92 1.269 . S
O67 Co59 2.074 . S
O67 C92 1.257 . S
H68 C93 0.930 . S
H69 C99 0.930 . S
O70 Co59 2.093 . S
O70 C62 1.224 . S
H71 C103 0.929 . S
H72 C105 0.930 . S
H73 C106 0.930 . S
H74 C104 0.929 . S
H75 C107 0.928 . S
O76 Co60 2.057 . S
O76 C64 1.232 . S
H77 C96 0.929 . S
H78 C97 0.929 . S
H79 C109 0.931 . S
H80 C101 0.929 . S
H81 C110 0.930 . S
H82 C102 0.931 . S
O83 Co59 2.097 . S
O83 C111 1.214 . S
H84 C112 0.929 . S
H85 C113 0.929 . S
H86 C114 0.930 . S
H87 C115 0.929 . S
H88 C117 0.930 . S
H89 C94 0.930 . S
H90 C98 0.930 . S
O91 Co60 2.037 . S
O91 C111 1.234 . S
C92 O66 1.269 . S
C92 O67 1.257 . S
C93 H68 0.930 . S
C93 C96 1.388 . S
C93 C98 1.418 . S
C94 H89 0.930 . S
C94 C97 1.404 . S
C94 C98 1.353 . S
N95 Co60 2.145 . S
N95 C96 1.397 . S
N95 C97 1.334 . S
C96 H77 0.929 . S
C96 C93 1.388 . S
C96 N95 1.397 . S
C97 H78 0.929 . S
C97 C94 1.404 . S
C97 N95 1.334 . S
C98 H90 0.930 . S
C98 C93 1.418 . S
C98 C94 1.353 . S
C99 H69 0.930 . S
C99 N100 1.330 . S
C99 C101 1.446 . S
N100 Co59 2.151 . S
N100 C99 1.330 . S
N100 C104 1.418 . S
C101 H80 0.929 . S
C101 C99 1.446 . S
C101 C102 1.332 . S
C102 H82 0.931 . S
C102 C101 1.332 . S
C102 C103 1.267 . S
C103 H71 0.929 . S
C103 C102 1.267 . S
C103 C104 1.251 . S
C104 H74 0.929 . S
C104 N100 1.418 . S
C104 C103 1.251 . S
C105 H72 0.930 . S
C105 C107 1.406 . S
C105 C110 1.261 . S
C106 H73 0.930 . S
C106 N108 1.325 . S
C106 C109 1.357 . S
C107 H75 0.928 . S
C107 C105 1.406 . S
C107 N108 1.261 . S
N108 Co59 2.214 . S
N108 C106 1.325 . S
N108 C107 1.261 . S
C109 H79 0.931 . S
C109 C106 1.357 . S
C109 C110 1.312 . S
C110 H81 0.930 . S
C110 C105 1.261 . S
C110 C109 1.312 . S
C111 O83 1.214 . S
C111 O91 1.234 . S
C112 H84 0.929 . S
C112 C115 1.391 . S
C112 C117 1.391 . S
C113 H85 0.929 . S
C113 C114 1.390 . S
C113 N116 1.391 . S
C114 H86 0.930 . S
C114 C113 1.390 . S
C114 C115 1.392 . S
C115 H87 0.929 . S
C115 C112 1.391 . S
C115 C114 1.392 . S
N116 Co60 2.257 . S
N116 C113 1.391 . S
N116 C117 1.388 . S
C117 H88 0.930 . S
C117 C112 1.391 . S
C117 N116 1.388 . S
Co118 O120 2.143 . S
Co118 O126 2.074 . S
Co118 O129 2.093 . S
Co118 O142 2.097 . S
Co118 N159 2.151 . S
Co118 N167 2.214 . S
Co119 O120 2.160 . S
Co119 O125 2.058 . S
Co119 O135 2.057 . S
Co119 O150 2.037 . S
Co119 N154 2.145 . S
Co119 N175 2.257 . S
O120 Co118 2.143 . S
O120 Co119 2.160 . S
C121 O122 1.278 . S
C121 O129 1.224 . S
O122 C121 1.278 . S
C123 O124 1.245 . S
C123 O135 1.232 . S
O124 C123 1.245 . S
O125 Co119 2.058 . S
O125 C151 1.269 . S
O126 Co118 2.074 . S
O126 C151 1.257 . S
H127 C152 0.930 . S
H128 C158 0.930 . S
O129 Co118 2.093 . S
O129 C121 1.224 . S
H130 C162 0.929 . S
H131 C164 0.930 . S
H132 C165 0.930 . S
H133 C163 0.929 . S
H134 C166 0.928 . S
O135 Co119 2.057 . S
O135 C123 1.232 . S
H136 C155 0.929 . S
H137 C156 0.929 . S
H138 C168 0.931 . S
H139 C160 0.929 . S
H140 C169 0.930 . S
H141 C161 0.931 . S
O142 Co118 2.097 . S
O142 C170 1.214 . S
H143 C171 0.929 . S
H144 C172 0.929 . S
H145 C173 0.930 . S
H146 C174 0.929 . S
H147 C176 0.930 . S
H148 C153 0.930 . S
H149 C157 0.930 . S
O150 Co119 2.037 . S
O150 C170 1.234 . S
C151 O125 1.269 . S
C151 O126 1.257 . S
C152 H127 0.930 . S
C152 C155 1.388 1_556 S
C152 C157 1.418 . S
C153 H148 0.930 . S
C153 C156 1.404 1_556 S
C153 C157 1.353 . S
N154 Co119 2.145 . S
N154 C155 1.397 . S
N154 C156 1.334 . S
C155 H136 0.929 . S
C155 C152 1.388 1_554 S
C155 N154 1.397 . S
C156 H137 0.929 . S
C156 C153 1.404 1_554 S
C156 N154 1.334 . S
C157 H149 0.930 . S
C157 C152 1.418 . S
C157 C153 1.353 . S
C158 H128 0.930 . S
C158 N159 1.330 . S
C158 C160 1.446 . S
N159 Co118 2.151 . S
N159 C158 1.330 . S
N159 C163 1.418 . S
C160 H139 0.929 . S
C160 C158 1.446 . S
C160 C161 1.332 . S
C161 H141 0.931 . S
C161 C160 1.332 . S
C161 C162 1.267 . S
C162 H130 0.929 . S
C162 C161 1.267 . S
C162 C163 1.251 . S
C163 H133 0.929 . S
C163 N159 1.418 . S
C163 C162 1.251 . S
C164 H131 0.930 . S
C164 C166 1.406 . S
C164 C169 1.261 . S
C165 H132 0.930 . S
C165 N167 1.325 . S
C165 C168 1.357 . S
C166 H134 0.928 . S
C166 C164 1.406 . S
C166 N167 1.261 . S
N167 Co118 2.214 . S
N167 C165 1.325 . S
N167 C166 1.261 . S
C168 H138 0.931 . S
C168 C165 1.357 . S
C168 C169 1.312 . S
C169 H140 0.930 . S
C169 C164 1.261 . S
C169 C168 1.312 . S
C170 O142 1.214 . S
C170 O150 1.234 . S
C171 H143 0.929 . S
C171 C174 1.391 . S
C171 C176 1.391 . S
C172 H144 0.929 . S
C172 C173 1.390 . S
C172 N175 1.391 . S
C173 H145 0.930 . S
C173 C172 1.390 . S
C173 C174 1.392 . S
C174 H146 0.929 . S
C174 C171 1.391 . S
C174 C173 1.392 . S
N175 Co119 2.257 . S
N175 C172 1.391 . S
N175 C176 1.388 . S
C176 H147 0.930 . S
C176 C171 1.391 . S
C176 N175 1.388 . S
Co177 O179 2.143 . S
Co177 O185 2.074 . S
Co177 O188 2.093 . S
Co177 O201 2.097 . S
Co177 N218 2.151 . S
Co177 N226 2.214 . S
Co178 O179 2.160 . S
Co178 O184 2.058 . S
Co178 O194 2.057 . S
Co178 O209 2.037 . S
Co178 N213 2.145 . S
Co178 N234 2.257 . S
O179 Co177 2.143 . S
O179 Co178 2.160 . S
C180 O181 1.278 . S
C180 O188 1.224 . S
O181 C180 1.278 . S
C182 O183 1.245 . S
C182 O194 1.232 . S
O183 C182 1.245 . S
O184 Co178 2.058 . S
O184 C210 1.269 . S
O185 Co177 2.074 . S
O185 C210 1.257 . S
H186 C211 0.930 . S
H187 C217 0.930 . S
O188 Co177 2.093 . S
O188 C180 1.224 . S
H189 C221 0.929 . S
H190 C223 0.930 . S
H191 C224 0.930 . S
H192 C222 0.929 . S
H193 C225 0.928 . S
O194 Co178 2.057 . S
O194 C182 1.232 . S
H195 C214 0.929 . S
H196 C215 0.929 . S
H197 C227 0.931 . S
H198 C219 0.929 . S
H199 C228 0.930 . S
H200 C220 0.931 . S
O201 Co177 2.097 . S
O201 C229 1.214 . S
H202 C230 0.929 . S
H203 C231 0.929 . S
H204 C232 0.930 . S
H205 C233 0.929 . S
H206 C235 0.930 . S
H207 C212 0.930 . S
H208 C216 0.930 . S
O209 Co178 2.037 . S
O209 C229 1.234 . S
C210 O184 1.269 . S
C210 O185 1.257 . S
C211 H186 0.930 . S
C211 C214 1.388 . S
C211 C216 1.418 . S
C212 H207 0.930 . S
C212 C215 1.404 . S
C212 C216 1.353 . S
N213 Co178 2.145 . S
N213 C214 1.397 . S
N213 C215 1.334 . S
C214 H195 0.929 . S
C214 C211 1.388 . S
C214 N213 1.397 . S
C215 H196 0.929 . S
C215 C212 1.404 . S
C215 N213 1.334 . S
C216 H208 0.930 . S
C216 C211 1.418 . S
C216 C212 1.353 . S
C217 H187 0.930 . S
C217 N218 1.330 . S
C217 C219 1.446 . S
N218 Co177 2.151 . S
N218 C217 1.330 . S
N218 C222 1.418 . S
C219 H198 0.929 . S
C219 C217 1.446 . S
C219 C220 1.332 . S
C220 H200 0.931 . S
C220 C219 1.332 . S
C220 C221 1.267 . S
C221 H189 0.929 . S
C221 C220 1.267 . S
C221 C222 1.251 . S
C222 H192 0.929 . S
C222 N218 1.418 . S
C222 C221 1.251 . S
C223 H190 0.930 . S
C223 C225 1.406 . S
C223 C228 1.261 . S
C224 H191 0.930 . S
C224 N226 1.325 . S
C224 C227 1.357 . S
C225 H193 0.928 . S
C225 C223 1.406 . S
C225 N226 1.261 . S
N226 Co177 2.214 . S
N226 C224 1.325 . S
N226 C225 1.261 . S
C227 H197 0.931 . S
C227 C224 1.357 . S
C227 C228 1.312 . S
C228 H199 0.930 . S
C228 C223 1.261 . S
C228 C227 1.312 . S
C229 O201 1.214 . S
C229 O209 1.234 . S
C230 H202 0.929 . S
C230 C233 1.391 . S
C230 C235 1.391 . S
C231 H203 0.929 . S
C231 C232 1.390 . S
C231 N234 1.391 . S
C232 H204 0.930 . S
C232 C231 1.390 . S
C232 C233 1.392 . S
C233 H205 0.929 . S
C233 C230 1.391 . S
C233 C232 1.392 . S
N234 Co178 2.257 . S
N234 C231 1.391 . S
N234 C235 1.388 . S
C235 H206 0.930 . S
C235 C230 1.391 . S
C235 N234 1.388 . S
Co236 O238 2.143 . S
Co236 O244 2.074 . S
Co236 O247 2.093 . S
Co236 O260 2.097 . S
Co236 N277 2.151 . S
Co236 N285 2.214 . S
Co237 O238 2.160 . S
Co237 O243 2.058 . S
Co237 O253 2.057 . S
Co237 O268 2.037 . S
Co237 N272 2.145 . S
Co237 N293 2.257 . S
O238 Co236 2.143 . S
O238 Co237 2.160 . S
C239 O240 1.278 . S
C239 O247 1.224 . S
O240 C239 1.278 . S
C241 O242 1.245 . S
C241 O253 1.232 . S
O242 C241 1.245 . S
O243 Co237 2.058 . S
O243 C269 1.269 . S
O244 Co236 2.074 . S
O244 C269 1.257 . S
H245 C270 0.930 . S
H246 C276 0.930 . S
O247 Co236 2.093 . S
O247 C239 1.224 . S
H248 C280 0.929 . S
H249 C282 0.930 . S
H250 C283 0.930 . S
H251 C281 0.929 . S
H252 C284 0.928 . S
O253 Co237 2.057 . S
O253 C241 1.232 . S
H254 C273 0.929 . S
H255 C274 0.929 . S
H256 C286 0.931 . S
H257 C278 0.929 . S
H258 C287 0.930 . S
H259 C279 0.931 . S
O260 Co236 2.097 . S
O260 C288 1.214 . S
H261 C289 0.929 . S
H262 C290 0.929 . S
H263 C291 0.930 . S
H264 C292 0.929 . S
H265 C294 0.930 . S
H266 C271 0.930 . S
H267 C275 0.930 . S
O268 Co237 2.037 . S
O268 C288 1.234 . S
C269 O243 1.269 . S
C269 O244 1.257 . S
C270 H245 0.930 . S
C270 C273 1.388 1_556 S
C270 C275 1.418 . S
C271 H266 0.930 . S
C271 C274 1.404 1_556 S
C271 C275 1.353 . S
N272 Co237 2.145 . S
N272 C273 1.397 . S
N272 C274 1.334 . S
C273 H254 0.929 . S
C273 C270 1.388 1_554 S
C273 N272 1.397 . S
C274 H255 0.929 . S
C274 C271 1.404 1_554 S
C274 N272 1.334 . S
C275 H267 0.930 . S
C275 C270 1.418 . S
C275 C271 1.353 . S
C276 H246 0.930 . S
C276 N277 1.330 . S
C276 C278 1.446 . S
N277 Co236 2.151 . S
N277 C276 1.330 . S
N277 C281 1.418 . S
C278 H257 0.929 . S
C278 C276 1.446 . S
C278 C279 1.332 . S
C279 H259 0.931 . S
C279 C278 1.332 . S
C279 C280 1.267 . S
C280 H248 0.929 . S
C280 C279 1.267 . S
C280 C281 1.251 . S
C281 H251 0.929 . S
C281 N277 1.418 . S
C281 C280 1.251 . S
C282 H249 0.930 . S
C282 C284 1.406 . S
C282 C287 1.261 . S
C283 H250 0.930 . S
C283 N285 1.325 . S
C283 C286 1.357 . S
C284 H252 0.928 . S
C284 C282 1.406 . S
C284 N285 1.261 . S
N285 Co236 2.214 . S
N285 C283 1.325 . S
N285 C284 1.261 . S
C286 H256 0.931 . S
C286 C283 1.357 . S
C286 C287 1.312 . S
C287 H258 0.930 . S
C287 C282 1.261 . S
C287 C286 1.312 . S
C288 O260 1.214 . S
C288 O268 1.234 . S
C289 H261 0.929 . S
C289 C292 1.391 . S
C289 C294 1.391 . S
C290 H262 0.929 . S
C290 C291 1.390 . S
C290 N293 1.391 . S
C291 H263 0.930 . S
C291 C290 1.390 . S
C291 C292 1.392 . S
C292 H264 0.929 . S
C292 C289 1.391 . S
C292 C291 1.392 . S
N293 Co237 2.257 . S
N293 C290 1.391 . S
N293 C294 1.388 . S
C294 H265 0.930 . S
C294 C289 1.391 . S
C294 N293 1.388 . S
Co295 O297 2.143 . S
Co295 O303 2.074 . S
Co295 O306 2.093 . S
Co295 O319 2.097 . S
Co295 N336 2.151 . S
Co295 N344 2.214 . S
Co296 O297 2.160 . S
Co296 O302 2.058 . S
Co296 O312 2.057 . S
Co296 O327 2.037 . S
Co296 N331 2.145 . S
Co296 N352 2.257 . S
O297 Co295 2.143 . S
O297 Co296 2.160 . S
C298 O299 1.278 . S
C298 O306 1.224 . S
O299 C298 1.278 . S
C300 O301 1.245 . S
C300 O312 1.232 . S
O301 C300 1.245 . S
O302 Co296 2.058 . S
O302 C328 1.269 . S
O303 Co295 2.074 . S
O303 C328 1.257 . S
H304 C329 0.930 . S
H305 C335 0.930 . S
O306 Co295 2.093 . S
O306 C298 1.224 . S
H307 C339 0.929 . S
H308 C341 0.930 . S
H309 C342 0.930 . S
H310 C340 0.929 . S
H311 C343 0.928 . S
O312 Co296 2.057 . S
O312 C300 1.232 . S
H313 C332 0.929 . S
H314 C333 0.929 . S
H315 C345 0.931 . S
H316 C337 0.929 . S
H317 C346 0.930 . S
H318 C338 0.931 . S
O319 Co295 2.097 . S
O319 C347 1.214 . S
H320 C348 0.929 . S
H321 C349 0.929 . S
H322 C350 0.930 . S
H323 C351 0.929 . S
H324 C353 0.930 . S
H325 C330 0.930 . S
H326 C334 0.930 . S
O327 Co296 2.037 . S
O327 C347 1.234 . S
C328 O302 1.269 . S
C328 O303 1.257 . S
C329 H304 0.930 . S
C329 C332 1.388 . S
C329 C334 1.418 . S
C330 H325 0.930 . S
C330 C333 1.404 . S
C330 C334 1.353 . S
N331 Co296 2.145 . S
N331 C332 1.397 . S
N331 C333 1.334 . S
C332 H313 0.929 . S
C332 C329 1.388 . S
C332 N331 1.397 . S
C333 H314 0.929 . S
C333 C330 1.404 . S
C333 N331 1.334 . S
C334 H326 0.930 . S
C334 C329 1.418 . S
C334 C330 1.353 . S
C335 H305 0.930 . S
C335 N336 1.330 . S
C335 C337 1.446 . S
N336 Co295 2.151 . S
N336 C335 1.330 . S
N336 C340 1.418 . S
C337 H316 0.929 . S
C337 C335 1.446 . S
C337 C338 1.332 . S
C338 H318 0.931 . S
C338 C337 1.332 . S
C338 C339 1.267 . S
C339 H307 0.929 . S
C339 C338 1.267 . S
C339 C340 1.251 . S
C340 H310 0.929 . S
C340 N336 1.418 . S
C340 C339 1.251 . S
C341 H308 0.930 . S
C341 C343 1.406 . S
C341 C346 1.261 . S
C342 H309 0.930 . S
C342 N344 1.325 . S
C342 C345 1.357 . S
C343 H311 0.928 . S
C343 C341 1.406 . S
C343 N344 1.261 . S
N344 Co295 2.214 . S
N344 C342 1.325 . S
N344 C343 1.261 . S
C345 H315 0.931 . S
C345 C342 1.357 . S
C345 C346 1.312 . S
C346 H317 0.930 . S
C346 C341 1.261 . S
C346 C345 1.312 . S
C347 O319 1.214 . S
C347 O327 1.234 . S
C348 H320 0.929 . S
C348 C351 1.391 . S
C348 C353 1.391 . S
C349 H321 0.929 . S
C349 C350 1.390 . S
C349 N352 1.391 . S
C350 H322 0.930 . S
C350 C349 1.390 . S
C350 C351 1.392 . S
C351 H323 0.929 . S
C351 C348 1.391 . S
C351 C350 1.392 . S
N352 Co296 2.257 . S
N352 C349 1.391 . S
N352 C353 1.388 . S
C353 H324 0.930 . S
C353 C348 1.391 . S
C353 N352 1.388 . S
Co354 O356 2.143 . S
Co354 O362 2.074 . S
Co354 O365 2.093 . S
Co354 O378 2.097 . S
Co354 N395 2.151 . S
Co354 N403 2.214 . S
Co355 O356 2.160 . S
Co355 O361 2.058 . S
Co355 O371 2.057 . S
Co355 O386 2.037 . S
Co355 N390 2.145 . S
Co355 N411 2.257 . S
O356 Co354 2.143 . S
O356 Co355 2.160 . S
C357 O358 1.278 . S
C357 O365 1.224 . S
O358 C357 1.278 . S
C359 O360 1.245 . S
C359 O371 1.232 . S
O360 C359 1.245 . S
O361 Co355 2.058 . S
O361 C387 1.269 . S
O362 Co354 2.074 . S
O362 C387 1.257 . S
H363 C388 0.930 . S
H364 C394 0.930 . S
O365 Co354 2.093 . S
O365 C357 1.224 . S
H366 C398 0.929 . S
H367 C400 0.930 . S
H368 C401 0.930 . S
H369 C399 0.929 . S
H370 C402 0.928 . S
O371 Co355 2.057 . S
O371 C359 1.232 . S
H372 C391 0.929 . S
H373 C392 0.929 . S
H374 C404 0.931 . S
H375 C396 0.929 . S
H376 C405 0.930 . S
H377 C397 0.931 . S
O378 Co354 2.097 . S
O378 C406 1.214 . S
H379 C407 0.929 . S
H380 C408 0.929 . S
H381 C409 0.930 . S
H382 C410 0.929 . S
H383 C412 0.930 . S
H384 C389 0.930 . S
H385 C393 0.930 . S
O386 Co355 2.037 . S
O386 C406 1.234 . S
C387 O361 1.269 . S
C387 O362 1.257 . S
C388 H363 0.930 . S
C388 C391 1.388 1_554 S
C388 C393 1.418 . S
C389 H384 0.930 . S
C389 C392 1.404 1_554 S
C389 C393 1.353 . S
N390 Co355 2.145 . S
N390 C391 1.397 . S
N390 C392 1.334 . S
C391 H372 0.929 . S
C391 C388 1.388 1_556 S
C391 N390 1.397 . S
C392 H373 0.929 . S
C392 C389 1.404 1_556 S
C392 N390 1.334 . S
C393 H385 0.930 . S
C393 C388 1.418 . S
C393 C389 1.353 . S
C394 H364 0.930 . S
C394 N395 1.330 . S
C394 C396 1.446 . S
N395 Co354 2.151 . S
N395 C394 1.330 . S
N395 C399 1.418 . S
C396 H375 0.929 . S
C396 C394 1.446 . S
C396 C397 1.332 . S
C397 H377 0.931 . S
C397 C396 1.332 . S
C397 C398 1.267 . S
C398 H366 0.929 . S
C398 C397 1.267 . S
C398 C399 1.251 . S
C399 H369 0.929 . S
C399 N395 1.418 . S
C399 C398 1.251 . S
C400 H367 0.930 . S
C400 C402 1.406 . S
C400 C405 1.261 . S
C401 H368 0.930 . S
C401 N403 1.325 . S
C401 C404 1.357 . S
C402 H370 0.928 . S
C402 C400 1.406 . S
C402 N403 1.261 . S
N403 Co354 2.214 . S
N403 C401 1.325 . S
N403 C402 1.261 . S
C404 H374 0.931 . S
C404 C401 1.357 . S
C404 C405 1.312 . S
C405 H376 0.930 . S
C405 C400 1.261 . S
C405 C404 1.312 . S
C406 O378 1.214 . S
C406 O386 1.234 . S
C407 H379 0.929 . S
C407 C410 1.391 . S
C407 C412 1.391 . S
C408 H380 0.929 . S
C408 C409 1.390 . S
C408 N411 1.391 . S
C409 H381 0.930 . S
C409 C408 1.390 . S
C409 C410 1.392 . S
C410 H382 0.929 . S
C410 C407 1.391 . S
C410 C409 1.392 . S
N411 Co355 2.257 . S
N411 C408 1.391 . S
N411 C412 1.388 . S
C412 H383 0.930 . S
C412 C407 1.391 . S
C412 N411 1.388 . S
Co413 O415 2.143 . S
Co413 O421 2.074 . S
Co413 O424 2.093 . S
Co413 O437 2.097 . S
Co413 N454 2.151 . S
Co413 N462 2.214 . S
Co414 O415 2.160 . S
Co414 O420 2.058 . S
Co414 O430 2.057 . S
Co414 O445 2.037 . S
Co414 N449 2.145 . S
Co414 N470 2.257 . S
O415 Co413 2.143 . S
O415 Co414 2.160 . S
C416 O417 1.278 . S
C416 O424 1.224 . S
O417 C416 1.278 . S
C418 O419 1.245 . S
C418 O430 1.232 . S
O419 C418 1.245 . S
O420 Co414 2.058 . S
O420 C446 1.269 . S
O421 Co413 2.074 . S
O421 C446 1.257 . S
H422 C447 0.930 . S
H423 C453 0.930 . S
O424 Co413 2.093 . S
O424 C416 1.224 . S
H425 C457 0.929 . S
H426 C459 0.930 . S
H427 C460 0.930 . S
H428 C458 0.929 . S
H429 C461 0.928 . S
O430 Co414 2.057 . S
O430 C418 1.232 . S
H431 C450 0.929 . S
H432 C451 0.929 . S
H433 C463 0.931 . S
H434 C455 0.929 . S
H435 C464 0.930 . S
H436 C456 0.931 . S
O437 Co413 2.097 . S
O437 C465 1.214 . S
H438 C466 0.929 . S
H439 C467 0.929 . S
H440 C468 0.930 . S
H441 C469 0.929 . S
H442 C471 0.930 . S
H443 C448 0.930 . S
H444 C452 0.930 . S
O445 Co414 2.037 . S
O445 C465 1.234 . S
C446 O420 1.269 . S
C446 O421 1.257 . S
C447 H422 0.930 . S
C447 C450 1.388 . S
C447 C452 1.418 . S
C448 H443 0.930 . S
C448 C451 1.404 . S
C448 C452 1.353 . S
N449 Co414 2.145 . S
N449 C450 1.397 . S
N449 C451 1.334 . S
C450 H431 0.929 . S
C450 C447 1.388 . S
C450 N449 1.397 . S
C451 H432 0.929 . S
C451 C448 1.404 . S
C451 N449 1.334 . S
C452 H444 0.930 . S
C452 C447 1.418 . S
C452 C448 1.353 . S
C453 H423 0.930 . S
C453 N454 1.330 . S
C453 C455 1.446 . S
N454 Co413 2.151 . S
N454 C453 1.330 . S
N454 C458 1.418 . S
C455 H434 0.929 . S
C455 C453 1.446 . S
C455 C456 1.332 . S
C456 H436 0.931 . S
C456 C455 1.332 . S
C456 C457 1.267 . S
C457 H425 0.929 . S
C457 C456 1.267 . S
C457 C458 1.251 . S
C458 H428 0.929 . S
C458 N454 1.418 . S
C458 C457 1.251 . S
C459 H426 0.930 . S
C459 C461 1.406 . S
C459 C464 1.261 . S
C460 H427 0.930 . S
C460 N462 1.325 . S
C460 C463 1.357 . S
C461 H429 0.928 . S
C461 C459 1.406 . S
C461 N462 1.261 . S
N462 Co413 2.214 . S
N462 C460 1.325 . S
N462 C461 1.261 . S
C463 H433 0.931 . S
C463 C460 1.357 . S
C463 C464 1.312 . S
C464 H435 0.930 . S
C464 C459 1.261 . S
C464 C463 1.312 . S
C465 O437 1.214 . S
C465 O445 1.234 . S
C466 H438 0.929 . S
C466 C469 1.391 . S
C466 C471 1.391 . S
C467 H439 0.929 . S
C467 C468 1.390 . S
C467 N470 1.391 . S
C468 H440 0.930 . S
C468 C467 1.390 . S
C468 C469 1.392 . S
C469 H441 0.929 . S
C469 C466 1.391 . S
C469 C468 1.392 . S
N470 Co414 2.257 . S
N470 C467 1.391 . S
N470 C471 1.388 . S
C471 H442 0.930 . S
C471 C466 1.391 . S
C471 N470 1.388 . S
Co472 O474 2.143 . S
Co472 O480 2.074 . S
Co472 O483 2.093 . S
Co472 O496 2.097 . S
Co472 N513 2.151 . S
Co472 N521 2.214 . S
Co473 O474 2.160 . S
Co473 O479 2.058 . S
Co473 O489 2.057 . S
Co473 O504 2.037 . S
Co473 N508 2.145 . S
Co473 N529 2.257 . S
O474 Co472 2.143 . S
O474 Co473 2.160 . S
C475 O476 1.278 . S
C475 O483 1.224 . S
O476 C475 1.278 . S
C477 O478 1.245 . S
C477 O489 1.232 . S
O478 C477 1.245 . S
O479 Co473 2.058 . S
O479 C505 1.269 . S
O480 Co472 2.074 . S
O480 C505 1.257 . S
H481 C506 0.930 . S
H482 C512 0.930 . S
O483 Co472 2.093 . S
O483 C475 1.224 . S
H484 C516 0.929 . S
H485 C518 0.930 . S
H486 C519 0.930 . S
H487 C517 0.929 . S
H488 C520 0.928 . S
O489 Co473 2.057 . S
O489 C477 1.232 . S
H490 C509 0.929 . S
H491 C510 0.929 . S
H492 C522 0.931 . S
H493 C514 0.929 . S
H494 C523 0.930 . S
H495 C515 0.931 . S
O496 Co472 2.097 . S
O496 C524 1.214 . S
H497 C525 0.929 . S
H498 C526 0.929 . S
H499 C527 0.930 . S
H500 C528 0.929 . S
H501 C530 0.930 . S
H502 C507 0.930 . S
H503 C511 0.930 . S
O504 Co473 2.037 . S
O504 C524 1.234 . S
C505 O479 1.269 . S
C505 O480 1.257 . S
C506 H481 0.930 . S
C506 C509 1.388 1_554 S
C506 C511 1.418 . S
C507 H502 0.930 . S
C507 C510 1.404 1_554 S
C507 C511 1.353 . S
N508 Co473 2.145 . S
N508 C509 1.397 . S
N508 C510 1.334 . S
C509 H490 0.929 . S
C509 C506 1.388 1_556 S
C509 N508 1.397 . S
C510 H491 0.929 . S
C510 C507 1.404 1_556 S
C510 N508 1.334 . S
C511 H503 0.930 . S
C511 C506 1.418 . S
C511 C507 1.353 . S
C512 H482 0.930 . S
C512 N513 1.330 . S
C512 C514 1.446 . S
N513 Co472 2.151 . S
N513 C512 1.330 . S
N513 C517 1.418 . S
C514 H493 0.929 . S
C514 C512 1.446 . S
C514 C515 1.332 . S
C515 H495 0.931 . S
C515 C514 1.332 . S
C515 C516 1.267 . S
C516 H484 0.929 . S
C516 C515 1.267 . S
C516 C517 1.251 . S
C517 H487 0.929 . S
C517 N513 1.418 . S
C517 C516 1.251 . S
C518 H485 0.930 . S
C518 C520 1.406 . S
C518 C523 1.261 . S
C519 H486 0.930 . S
C519 N521 1.325 . S
C519 C522 1.357 . S
C520 H488 0.928 . S
C520 C518 1.406 . S
C520 N521 1.261 . S
N521 Co472 2.214 . S
N521 C519 1.325 . S
N521 C520 1.261 . S
C522 H492 0.931 . S
C522 C519 1.357 . S
C522 C523 1.312 . S
C523 H494 0.930 . S
C523 C518 1.261 . S
C523 C522 1.312 . S
C524 O496 1.214 . S
C524 O504 1.234 . S
C525 H497 0.929 . S
C525 C528 1.391 . S
C525 C530 1.391 . S
C526 H498 0.929 . S
C526 C527 1.390 . S
C526 N529 1.391 . S
C527 H499 0.930 . S
C527 C526 1.390 . S
C527 C528 1.392 . S
C528 H500 0.929 . S
C528 C525 1.391 . S
C528 C527 1.392 . S
N529 Co473 2.257 . S
N529 C526 1.391 . S
N529 C530 1.388 . S
C530 H501 0.930 . S
C530 C525 1.391 . S
C530 N529 1.388 . S
Co531 O533 2.143 . S
Co531 O539 2.074 . S
Co531 O542 2.093 . S
Co531 O555 2.097 . S
Co531 N572 2.151 . S
Co531 N580 2.214 . S
Co532 O533 2.160 . S
Co532 O538 2.058 . S
Co532 O548 2.057 . S
Co532 O563 2.037 . S
Co532 N567 2.145 . S
Co532 N588 2.257 . S
O533 Co531 2.143 . S
O533 Co532 2.160 . S
C534 O535 1.278 . S
C534 O542 1.224 . S
O535 C534 1.278 . S
C536 O537 1.245 . S
C536 O548 1.232 . S
O537 C536 1.245 . S
O538 Co532 2.058 . S
O538 C564 1.269 . S
O539 Co531 2.074 . S
O539 C564 1.257 . S
H540 C565 0.930 . S
H541 C571 0.930 . S
O542 Co531 2.093 . S
O542 C534 1.224 . S
H543 C575 0.929 . S
H544 C577 0.930 . S
H545 C578 0.930 . S
H546 C576 0.929 . S
H547 C579 0.928 . S
O548 Co532 2.057 . S
O548 C536 1.232 . S
H549 C568 0.929 . S
H550 C569 0.929 . S
H551 C581 0.931 . S
H552 C573 0.929 . S
H553 C582 0.930 . S
H554 C574 0.931 . S
O555 Co531 2.097 . S
O555 C583 1.214 . S
H556 C584 0.929 . S
H557 C585 0.929 . S
H558 C586 0.930 . S
H559 C587 0.929 . S
H560 C589 0.930 . S
H561 C566 0.930 . S
H562 C570 0.930 . S
O563 Co532 2.037 . S
O563 C583 1.234 . S
C564 O538 1.269 . S
C564 O539 1.257 . S
C565 H540 0.930 . S
C565 C568 1.388 . S
C565 C570 1.418 . S
C566 H561 0.930 . S
C566 C569 1.404 . S
C566 C570 1.353 . S
N567 Co532 2.145 . S
N567 C568 1.397 . S
N567 C569 1.334 . S
C568 H549 0.929 . S
C568 C565 1.388 . S
C568 N567 1.397 . S
C569 H550 0.929 . S
C569 C566 1.404 . S
C569 N567 1.334 . S
C570 H562 0.930 . S
C570 C565 1.418 . S
C570 C566 1.353 . S
C571 H541 0.930 . S
C571 N572 1.330 . S
C571 C573 1.446 . S
N572 Co531 2.151 . S
N572 C571 1.330 . S
N572 C576 1.418 . S
C573 H552 0.929 . S
C573 C571 1.446 . S
C573 C574 1.332 . S
C574 H554 0.931 . S
C574 C573 1.332 . S
C574 C575 1.267 . S
C575 H543 0.929 . S
C575 C574 1.267 . S
C575 C576 1.251 . S
C576 H546 0.929 . S
C576 N572 1.418 . S
C576 C575 1.251 . S
C577 H544 0.930 . S
C577 C579 1.406 . S
C577 C582 1.261 . S
C578 H545 0.930 . S
C578 N580 1.325 . S
C578 C581 1.357 . S
C579 H547 0.928 . S
C579 C577 1.406 . S
C579 N580 1.261 . S
N580 Co531 2.214 . S
N580 C578 1.325 . S
N580 C579 1.261 . S
C581 H551 0.931 . S
C581 C578 1.357 . S
C581 C582 1.312 . S
C582 H553 0.930 . S
C582 C577 1.261 . S
C582 C581 1.312 . S
C583 O555 1.214 . S
C583 O563 1.234 . S
C584 H556 0.929 . S
C584 C587 1.391 . S
C584 C589 1.391 . S
C585 H557 0.929 . S
C585 C586 1.390 . S
C585 N588 1.391 . S
C586 H558 0.930 . S
C586 C585 1.390 . S
C586 C587 1.392 . S
C587 H559 0.929 . S
C587 C584 1.391 . S
C587 C586 1.392 . S
N588 Co532 2.257 . S
N588 C585 1.391 . S
N588 C589 1.388 . S
C589 H560 0.930 . S
C589 C584 1.391 . S
C589 N588 1.388 . S
Co590 O592 2.143 . S
Co590 O598 2.074 . S
Co590 O601 2.093 . S
Co590 O614 2.097 . S
Co590 N631 2.151 . S
Co590 N639 2.214 . S
Co591 O592 2.160 . S
Co591 O597 2.058 . S
Co591 O607 2.057 . S
Co591 O622 2.037 . S
Co591 N626 2.145 . S
Co591 N647 2.257 . S
O592 Co590 2.143 . S
O592 Co591 2.160 . S
C593 O594 1.278 . S
C593 O601 1.224 . S
O594 C593 1.278 . S
C595 O596 1.245 . S
C595 O607 1.232 . S
O596 C595 1.245 . S
O597 Co591 2.058 . S
O597 C623 1.269 . S
O598 Co590 2.074 . S
O598 C623 1.257 . S
H599 C624 0.930 . S
H600 C630 0.930 . S
O601 Co590 2.093 . S
O601 C593 1.224 . S
H602 C634 0.929 . S
H603 C636 0.930 . S
H604 C637 0.930 . S
H605 C635 0.929 . S
H606 C638 0.928 . S
O607 Co591 2.057 . S
O607 C595 1.232 . S
H608 C627 0.929 . S
H609 C628 0.929 . S
H610 C640 0.931 . S
H611 C632 0.929 . S
H612 C641 0.930 . S
H613 C633 0.931 . S
O614 Co590 2.097 . S
O614 C642 1.214 . S
H615 C643 0.929 . S
H616 C644 0.929 . S
H617 C645 0.930 . S
H618 C646 0.929 . S
H619 C648 0.930 . S
H620 C625 0.930 . S
H621 C629 0.930 . S
O622 Co591 2.037 . S
O622 C642 1.234 . S
C623 O597 1.269 . S
C623 O598 1.257 . S
C624 H599 0.930 . S
C624 C627 1.388 1_554 S
C624 C629 1.418 . S
C625 H620 0.930 . S
C625 C628 1.404 1_554 S
C625 C629 1.353 . S
N626 Co591 2.145 . S
N626 C627 1.397 . S
N626 C628 1.334 . S
C627 H608 0.929 . S
C627 C624 1.388 1_556 S
C627 N626 1.397 . S
C628 H609 0.929 . S
C628 C625 1.404 1_556 S
C628 N626 1.334 . S
C629 H621 0.930 . S
C629 C624 1.418 . S
C629 C625 1.353 . S
C630 H600 0.930 . S
C630 N631 1.330 . S
C630 C632 1.446 . S
N631 Co590 2.151 . S
N631 C630 1.330 . S
N631 C635 1.418 . S
C632 H611 0.929 . S
C632 C630 1.446 . S
C632 C633 1.332 . S
C633 H613 0.931 . S
C633 C632 1.332 . S
C633 C634 1.267 . S
C634 H602 0.929 . S
C634 C633 1.267 . S
C634 C635 1.251 . S
C635 H605 0.929 . S
C635 N631 1.418 . S
C635 C634 1.251 . S
C636 H603 0.930 . S
C636 C638 1.406 . S
C636 C641 1.261 . S
C637 H604 0.930 . S
C637 N639 1.325 . S
C637 C640 1.357 . S
C638 H606 0.928 . S
C638 C636 1.406 . S
C638 N639 1.261 . S
N639 Co590 2.214 . S
N639 C637 1.325 . S
N639 C638 1.261 . S
C640 H610 0.931 . S
C640 C637 1.357 . S
C640 C641 1.312 . S
C641 H612 0.930 . S
C641 C636 1.261 . S
C641 C640 1.312 . S
C642 O614 1.214 . S
C642 O622 1.234 . S
C643 H615 0.929 . S
C643 C646 1.391 . S
C643 C648 1.391 . S
C644 H616 0.929 . S
C644 C645 1.390 . S
C644 N647 1.391 . S
C645 H617 0.930 . S
C645 C644 1.390 . S
C645 C646 1.392 . S
C646 H618 0.929 . S
C646 C643 1.391 . S
C646 C645 1.392 . S
N647 Co591 2.257 . S
N647 C644 1.391 . S
N647 C648 1.388 . S
C648 H619 0.930 . S
C648 C643 1.391 . S
C648 N647 1.388 . S
Co649 O651 2.143 . S
Co649 O657 2.074 . S
Co649 O660 2.093 . S
Co649 O673 2.097 . S
Co649 N690 2.151 . S
Co649 N698 2.214 . S
Co650 O651 2.160 . S
Co650 O656 2.058 . S
Co650 O666 2.057 . S
Co650 O681 2.037 . S
Co650 N685 2.145 . S
Co650 N706 2.257 . S
O651 Co649 2.143 . S
O651 Co650 2.160 . S
C652 O653 1.278 . S
C652 O660 1.224 . S
O653 C652 1.278 . S
C654 O655 1.245 . S
C654 O666 1.232 . S
O655 C654 1.245 . S
O656 Co650 2.058 . S
O656 C682 1.269 . S
O657 Co649 2.074 . S
O657 C682 1.257 . S
H658 C683 0.930 . S
H659 C689 0.930 . S
O660 Co649 2.093 . S
O660 C652 1.224 . S
H661 C693 0.929 . S
H662 C695 0.930 . S
H663 C696 0.930 . S
H664 C694 0.929 . S
H665 C697 0.928 . S
O666 Co650 2.057 . S
O666 C654 1.232 . S
H667 C686 0.929 . S
H668 C687 0.929 . S
H669 C699 0.931 . S
H670 C691 0.929 . S
H671 C700 0.930 . S
H672 C692 0.931 . S
O673 Co649 2.097 . S
O673 C701 1.214 . S
H674 C702 0.929 . S
H675 C703 0.929 . S
H676 C704 0.930 . S
H677 C705 0.929 . S
H678 C707 0.930 . S
H679 C684 0.930 . S
H680 C688 0.930 . S
O681 Co650 2.037 . S
O681 C701 1.234 . S
C682 O656 1.269 . S
C682 O657 1.257 . S
C683 H658 0.930 . S
C683 C686 1.388 . S
C683 C688 1.418 . S
C684 H679 0.930 . S
C684 C687 1.404 . S
C684 C688 1.353 . S
N685 Co650 2.145 . S
N685 C686 1.397 . S
N685 C687 1.334 . S
C686 H667 0.929 . S
C686 C683 1.388 . S
C686 N685 1.397 . S
C687 H668 0.929 . S
C687 C684 1.404 . S
C687 N685 1.334 . S
C688 H680 0.930 . S
C688 C683 1.418 . S
C688 C684 1.353 . S
C689 H659 0.930 . S
C689 N690 1.330 . S
C689 C691 1.446 . S
N690 Co649 2.151 . S
N690 C689 1.330 . S
N690 C694 1.418 . S
C691 H670 0.929 . S
C691 C689 1.446 . S
C691 C692 1.332 . S
C692 H672 0.931 . S
C692 C691 1.332 . S
C692 C693 1.267 . S
C693 H661 0.929 . S
C693 C692 1.267 . S
C693 C694 1.251 . S
C694 H664 0.929 . S
C694 N690 1.418 . S
C694 C693 1.251 . S
C695 H662 0.930 . S
C695 C697 1.406 . S
C695 C700 1.261 . S
C696 H663 0.930 . S
C696 N698 1.325 . S
C696 C699 1.357 . S
C697 H665 0.928 . S
C697 C695 1.406 . S
C697 N698 1.261 . S
N698 Co649 2.214 . S
N698 C696 1.325 . S
N698 C697 1.261 . S
C699 H669 0.931 . S
C699 C696 1.357 . S
C699 C700 1.312 . S
C700 H671 0.930 . S
C700 C695 1.261 . S
C700 C699 1.312 . S
C701 O673 1.214 . S
C701 O681 1.234 . S
C702 H674 0.929 . S
C702 C705 1.391 . S
C702 C707 1.391 . S
C703 H675 0.929 . S
C703 C704 1.390 . S
C703 N706 1.391 . S
C704 H676 0.930 . S
C704 C703 1.390 . S
C704 C705 1.392 . S
C705 H677 0.929 . S
C705 C702 1.391 . S
C705 C704 1.392 . S
N706 Co650 2.257 . S
N706 C703 1.391 . S
N706 C707 1.388 . S
C707 H678 0.930 . S
C707 C702 1.391 . S
C707 N706 1.388 . S
Co708 O710 2.143 . S
Co708 O716 2.074 . S
Co708 O719 2.093 . S
Co708 O732 2.097 . S
Co708 N749 2.151 . S
Co708 N757 2.214 . S
Co709 O710 2.160 . S
Co709 O715 2.058 . S
Co709 O725 2.057 . S
Co709 O740 2.037 . S
Co709 N744 2.145 . S
Co709 N765 2.257 . S
O710 Co708 2.143 . S
O710 Co709 2.160 . S
C711 O712 1.278 . S
C711 O719 1.224 . S
O712 C711 1.278 . S
C713 O714 1.245 . S
C713 O725 1.232 . S
O714 C713 1.245 . S
O715 Co709 2.058 . S
O715 C741 1.269 . S
O716 Co708 2.074 . S
O716 C741 1.257 . S
H717 C742 0.930 . S
H718 C748 0.930 . S
O719 Co708 2.093 . S
O719 C711 1.224 . S
H720 C752 0.929 . S
H721 C754 0.930 . S
H722 C755 0.930 . S
H723 C753 0.929 . S
H724 C756 0.928 . S
O725 Co709 2.057 . S
O725 C713 1.232 . S
H726 C745 0.929 . S
H727 C746 0.929 . S
H728 C758 0.931 . S
H729 C750 0.929 . S
H730 C759 0.930 . S
H731 C751 0.931 . S
O732 Co708 2.097 . S
O732 C760 1.214 . S
H733 C761 0.929 . S
H734 C762 0.929 . S
H735 C763 0.930 . S
H736 C764 0.929 . S
H737 C766 0.930 . S
H738 C743 0.930 . S
H739 C747 0.930 . S
O740 Co709 2.037 . S
O740 C760 1.234 . S
C741 O715 1.269 . S
C741 O716 1.257 . S
C742 H717 0.930 . S
C742 C745 1.388 1_554 S
C742 C747 1.418 . S
C743 H738 0.930 . S
C743 C746 1.404 1_554 S
C743 C747 1.353 . S
N744 Co709 2.145 . S
N744 C745 1.397 . S
N744 C746 1.334 . S
C745 H726 0.929 . S
C745 C742 1.388 1_556 S
C745 N744 1.397 . S
C746 H727 0.929 . S
C746 C743 1.404 1_556 S
C746 N744 1.334 . S
C747 H739 0.930 . S
C747 C742 1.418 . S
C747 C743 1.353 . S
C748 H718 0.930 . S
C748 N749 1.330 . S
C748 C750 1.446 . S
N749 Co708 2.151 . S
N749 C748 1.330 . S
N749 C753 1.418 . S
C750 H729 0.929 . S
C750 C748 1.446 . S
C750 C751 1.332 . S
C751 H731 0.931 . S
C751 C750 1.332 . S
C751 C752 1.267 . S
C752 H720 0.929 . S
C752 C751 1.267 . S
C752 C753 1.251 . S
C753 H723 0.929 . S
C753 N749 1.418 . S
C753 C752 1.251 . S
C754 H721 0.930 . S
C754 C756 1.406 . S
C754 C759 1.261 . S
C755 H722 0.930 . S
C755 N757 1.325 . S
C755 C758 1.357 . S
C756 H724 0.928 . S
C756 C754 1.406 . S
C756 N757 1.261 . S
N757 Co708 2.214 . S
N757 C755 1.325 . S
N757 C756 1.261 . S
C758 H728 0.931 . S
C758 C755 1.357 . S
C758 C759 1.312 . S
C759 H730 0.930 . S
C759 C754 1.261 . S
C759 C758 1.312 . S
C760 O732 1.214 . S
C760 O740 1.234 . S
C761 H733 0.929 . S
C761 C764 1.391 . S
C761 C766 1.391 . S
C762 H734 0.929 . S
C762 C763 1.390 . S
C762 N765 1.391 . S
C763 H735 0.930 . S
C763 C762 1.390 . S
C763 C764 1.392 . S
C764 H736 0.929 . S
C764 C761 1.391 . S
C764 C763 1.392 . S
N765 Co709 2.257 . S
N765 C762 1.391 . S
N765 C766 1.388 . S
C766 H737 0.930 . S
C766 C761 1.391 . S
C766 N765 1.388 . S
Co767 O769 2.143 . S
Co767 O775 2.074 . S
Co767 O778 2.093 . S
Co767 O791 2.097 . S
Co767 N808 2.151 . S
Co767 N816 2.214 . S
Co768 O769 2.160 . S
Co768 O774 2.058 . S
Co768 O784 2.057 . S
Co768 O799 2.037 . S
Co768 N803 2.145 . S
Co768 N824 2.257 . S
O769 Co767 2.143 . S
O769 Co768 2.160 . S
C770 O771 1.278 . S
C770 O778 1.224 . S
O771 C770 1.278 . S
C772 O773 1.245 . S
C772 O784 1.232 . S
O773 C772 1.245 . S
O774 Co768 2.058 . S
O774 C800 1.269 . S
O775 Co767 2.074 . S
O775 C800 1.257 . S
H776 C801 0.930 . S
H777 C807 0.930 . S
O778 Co767 2.093 . S
O778 C770 1.224 . S
H779 C811 0.929 . S
H780 C813 0.930 . S
H781 C814 0.930 . S
H782 C812 0.929 . S
H783 C815 0.928 . S
O784 Co768 2.057 . S
O784 C772 1.232 . S
H785 C804 0.929 . S
H786 C805 0.929 . S
H787 C817 0.931 . S
H788 C809 0.929 . S
H789 C818 0.930 . S
H790 C810 0.931 . S
O791 Co767 2.097 . S
O791 C819 1.214 . S
H792 C820 0.929 . S
H793 C821 0.929 . S
H794 C822 0.930 . S
H795 C823 0.929 . S
H796 C825 0.930 . S
H797 C802 0.930 . S
H798 C806 0.930 . S
O799 Co768 2.037 . S
O799 C819 1.234 . S
C800 O774 1.269 . S
C800 O775 1.257 . S
C801 H776 0.930 . S
C801 C804 1.388 . S
C801 C806 1.418 . S
C802 H797 0.930 . S
C802 C805 1.404 . S
C802 C806 1.353 . S
N803 Co768 2.145 . S
N803 C804 1.397 . S
N803 C805 1.334 . S
C804 H785 0.929 . S
C804 C801 1.388 . S
C804 N803 1.397 . S
C805 H786 0.929 . S
C805 C802 1.404 . S
C805 N803 1.334 . S
C806 H798 0.930 . S
C806 C801 1.418 . S
C806 C802 1.353 . S
C807 H777 0.930 . S
C807 N808 1.330 . S
C807 C809 1.446 . S
N808 Co767 2.151 . S
N808 C807 1.330 . S
N808 C812 1.418 . S
C809 H788 0.929 . S
C809 C807 1.446 . S
C809 C810 1.332 . S
C810 H790 0.931 . S
C810 C809 1.332 . S
C810 C811 1.267 . S
C811 H779 0.929 . S
C811 C810 1.267 . S
C811 C812 1.251 . S
C812 H782 0.929 . S
C812 N808 1.418 . S
C812 C811 1.251 . S
C813 H780 0.930 . S
C813 C815 1.406 . S
C813 C818 1.261 . S
C814 H781 0.930 . S
C814 N816 1.325 . S
C814 C817 1.357 . S
C815 H783 0.928 . S
C815 C813 1.406 . S
C815 N816 1.261 . S
N816 Co767 2.214 . S
N816 C814 1.325 . S
N816 C815 1.261 . S
C817 H787 0.931 . S
C817 C814 1.357 . S
C817 C818 1.312 . S
C818 H789 0.930 . S
C818 C813 1.261 . S
C818 C817 1.312 . S
C819 O791 1.214 . S
C819 O799 1.234 . S
C820 H792 0.929 . S
C820 C823 1.391 . S
C820 C825 1.391 . S
C821 H793 0.929 . S
C821 C822 1.390 . S
C821 N824 1.391 . S
C822 H794 0.930 . S
C822 C821 1.390 . S
C822 C823 1.392 . S
C823 H795 0.929 . S
C823 C820 1.391 . S
C823 C822 1.392 . S
N824 Co768 2.257 . S
N824 C821 1.391 . S
N824 C825 1.388 . S
C825 H796 0.930 . S
C825 C820 1.391 . S
C825 N824 1.388 . S
Co826 O828 2.143 . S
Co826 O834 2.074 . S
Co826 O837 2.093 . S
Co826 O850 2.097 . S
Co826 N867 2.151 . S
Co826 N875 2.214 . S
Co827 O828 2.160 . S
Co827 O833 2.058 . S
Co827 O843 2.057 . S
Co827 O858 2.037 . S
Co827 N862 2.145 . S
Co827 N883 2.257 . S
O828 Co826 2.143 . S
O828 Co827 2.160 . S
C829 O830 1.278 . S
C829 O837 1.224 . S
O830 C829 1.278 . S
C831 O832 1.245 . S
C831 O843 1.232 . S
O832 C831 1.245 . S
O833 Co827 2.058 . S
O833 C859 1.269 . S
O834 Co826 2.074 . S
O834 C859 1.257 . S
H835 C860 0.930 . S
H836 C866 0.930 . S
O837 Co826 2.093 . S
O837 C829 1.224 . S
H838 C870 0.929 . S
H839 C872 0.930 . S
H840 C873 0.930 . S
H841 C871 0.929 . S
H842 C874 0.928 . S
O843 Co827 2.057 . S
O843 C831 1.232 . S
H844 C863 0.929 . S
H845 C864 0.929 . S
H846 C876 0.931 . S
H847 C868 0.929 . S
H848 C877 0.930 . S
H849 C869 0.931 . S
O850 Co826 2.097 . S
O850 C878 1.214 . S
H851 C879 0.929 . S
H852 C880 0.929 . S
H853 C881 0.930 . S
H854 C882 0.929 . S
H855 C884 0.930 . S
H856 C861 0.930 . S
H857 C865 0.930 . S
O858 Co827 2.037 . S
O858 C878 1.234 . S
C859 O833 1.269 . S
C859 O834 1.257 . S
C860 H835 0.930 . S
C860 C863 1.388 1_554 S
C860 C865 1.418 . S
C861 H856 0.930 . S
C861 C864 1.404 1_554 S
C861 C865 1.353 . S
N862 Co827 2.145 . S
N862 C863 1.397 . S
N862 C864 1.334 . S
C863 H844 0.929 . S
C863 C860 1.388 1_556 S
C863 N862 1.397 . S
C864 H845 0.929 . S
C864 C861 1.404 1_556 S
C864 N862 1.334 . S
C865 H857 0.930 . S
C865 C860 1.418 . S
C865 C861 1.353 . S
C866 H836 0.930 . S
C866 N867 1.330 . S
C866 C868 1.446 . S
N867 Co826 2.151 . S
N867 C866 1.330 . S
N867 C871 1.418 . S
C868 H847 0.929 . S
C868 C866 1.446 . S
C868 C869 1.332 . S
C869 H849 0.931 . S
C869 C868 1.332 . S
C869 C870 1.267 . S
C870 H838 0.929 . S
C870 C869 1.267 . S
C870 C871 1.251 . S
C871 H841 0.929 . S
C871 N867 1.418 . S
C871 C870 1.251 . S
C872 H839 0.930 . S
C872 C874 1.406 . S
C872 C877 1.261 . S
C873 H840 0.930 . S
C873 N875 1.325 . S
C873 C876 1.357 . S
C874 H842 0.928 . S
C874 C872 1.406 . S
C874 N875 1.261 . S
N875 Co826 2.214 . S
N875 C873 1.325 . S
N875 C874 1.261 . S
C876 H846 0.931 . S
C876 C873 1.357 . S
C876 C877 1.312 . S
C877 H848 0.930 . S
C877 C872 1.261 . S
C877 C876 1.312 . S
C878 O850 1.214 . S
C878 O858 1.234 . S
C879 H851 0.929 . S
C879 C882 1.391 . S
C879 C884 1.391 . S
C880 H852 0.929 . S
C880 C881 1.390 . S
C880 N883 1.391 . S
C881 H853 0.930 . S
C881 C880 1.390 . S
C881 C882 1.392 . S
C882 H854 0.929 . S
C882 C879 1.391 . S
C882 C881 1.392 . S
N883 Co827 2.257 . S
N883 C880 1.391 . S
N883 C884 1.388 . S
C884 H855 0.930 . S
C884 C879 1.391 . S
C884 N883 1.388 . S
Co885 O887 2.143 . S
Co885 O893 2.074 . S
Co885 O896 2.093 . S
Co885 O909 2.097 . S
Co885 N926 2.151 . S
Co885 N934 2.214 . S
Co886 O887 2.160 . S
Co886 O892 2.058 . S
Co886 O902 2.057 . S
Co886 O917 2.037 . S
Co886 N921 2.145 . S
Co886 N942 2.257 . S
O887 Co885 2.143 . S
O887 Co886 2.160 . S
C888 O889 1.278 . S
C888 O896 1.224 . S
O889 C888 1.278 . S
C890 O891 1.245 . S
C890 O902 1.232 . S
O891 C890 1.245 . S
O892 Co886 2.058 . S
O892 C918 1.269 . S
O893 Co885 2.074 . S
O893 C918 1.257 . S
H894 C919 0.930 . S
H895 C925 0.930 . S
O896 Co885 2.093 . S
O896 C888 1.224 . S
H897 C929 0.929 . S
H898 C931 0.930 . S
H899 C932 0.930 . S
H900 C930 0.929 . S
H901 C933 0.928 . S
O902 Co886 2.057 . S
O902 C890 1.232 . S
H903 C922 0.929 . S
H904 C923 0.929 . S
H905 C935 0.931 . S
H906 C927 0.929 . S
H907 C936 0.930 . S
H908 C928 0.931 . S
O909 Co885 2.097 . S
O909 C937 1.214 . S
H910 C938 0.929 . S
H911 C939 0.929 . S
H912 C940 0.930 . S
H913 C941 0.929 . S
H914 C943 0.930 . S
H915 C920 0.930 . S
H916 C924 0.930 . S
O917 Co886 2.037 . S
O917 C937 1.234 . S
C918 O892 1.269 . S
C918 O893 1.257 . S
C919 H894 0.930 . S
C919 C922 1.388 . S
C919 C924 1.418 . S
C920 H915 0.930 . S
C920 C923 1.404 . S
C920 C924 1.353 . S
N921 Co886 2.145 . S
N921 C922 1.397 . S
N921 C923 1.334 . S
C922 H903 0.929 . S
C922 C919 1.388 . S
C922 N921 1.397 . S
C923 H904 0.929 . S
C923 C920 1.404 . S
C923 N921 1.334 . S
C924 H916 0.930 . S
C924 C919 1.418 . S
C924 C920 1.353 . S
C925 H895 0.930 . S
C925 N926 1.330 . S
C925 C927 1.446 . S
N926 Co885 2.151 . S
N926 C925 1.330 . S
N926 C930 1.418 . S
C927 H906 0.929 . S
C927 C925 1.446 . S
C927 C928 1.332 . S
C928 H908 0.931 . S
C928 C927 1.332 . S
C928 C929 1.267 . S
C929 H897 0.929 . S
C929 C928 1.267 . S
C929 C930 1.251 . S
C930 H900 0.929 . S
C930 N926 1.418 . S
C930 C929 1.251 . S
C931 H898 0.930 . S
C931 C933 1.406 . S
C931 C936 1.261 . S
C932 H899 0.930 . S
C932 N934 1.325 . S
C932 C935 1.357 . S
C933 H901 0.928 . S
C933 C931 1.406 . S
C933 N934 1.261 . S
N934 Co885 2.214 . S
N934 C932 1.325 . S
N934 C933 1.261 . S
C935 H905 0.931 . S
C935 C932 1.357 . S
C935 C936 1.312 . S
C936 H907 0.930 . S
C936 C931 1.261 . S
C936 C935 1.312 . S
C937 O909 1.214 . S
C937 O917 1.234 . S
C938 H910 0.929 . S
C938 C941 1.391 . S
C938 C943 1.391 . S
C939 H911 0.929 . S
C939 C940 1.390 . S
C939 N942 1.391 . S
C940 H912 0.930 . S
C940 C939 1.390 . S
C940 C941 1.392 . S
C941 H913 0.929 . S
C941 C938 1.391 . S
C941 C940 1.392 . S
N942 Co886 2.257 . S
N942 C939 1.391 . S
N942 C943 1.388 . S
C943 H914 0.930 . S
C943 C938 1.391 . S
C943 N942 1.388 . S
Co944 O946 2.143 . S
Co944 O952 2.074 . S
Co944 O955 2.093 . S
Co944 O968 2.097 . S
Co944 N985 2.151 . S
Co944 N993 2.214 . S
Co945 O946 2.160 . S
Co945 O951 2.058 . S
Co945 O961 2.057 . S
Co945 O976 2.037 . S
Co945 N980 2.145 . S
Co945 N1001 2.257 . S
O946 Co944 2.143 . S
O946 Co945 2.160 . S
C947 O948 1.278 . S
C947 O955 1.224 . S
O948 C947 1.278 . S
C949 O950 1.245 . S
C949 O961 1.232 . S
O950 C949 1.245 . S
O951 Co945 2.058 . S
O951 C977 1.269 . S
O952 Co944 2.074 . S
O952 C977 1.257 . S
H953 C978 0.930 . S
H954 C984 0.930 . S
O955 Co944 2.093 . S
O955 C947 1.224 . S
H956 C988 0.929 . S
H957 C990 0.930 . S
H958 C991 0.930 . S
H959 C989 0.929 . S
H960 C992 0.928 . S
O961 Co945 2.057 . S
O961 C949 1.232 . S
H962 C981 0.929 . S
H963 C982 0.929 . S
H964 C994 0.931 . S
H965 C986 0.929 . S
H966 C995 0.930 . S
H967 C987 0.931 . S
O968 Co944 2.097 . S
O968 C996 1.214 . S
H969 C997 0.929 . S
H970 C998 0.929 . S
H971 C999 0.930 . S
H972 C1000 0.929 . S
H973 C1002 0.930 . S
H974 C979 0.930 . S
H975 C983 0.930 . S
O976 Co945 2.037 . S
O976 C996 1.234 . S
C977 O951 1.269 . S
C977 O952 1.257 . S
C978 H953 0.930 . S
C978 C981 1.388 1_554 S
C978 C983 1.418 . S
C979 H974 0.930 . S
C979 C982 1.404 1_554 S
C979 C983 1.353 . S
N980 Co945 2.145 . S
N980 C981 1.397 . S
N980 C982 1.334 . S
C981 H962 0.929 . S
C981 C978 1.388 1_556 S
C981 N980 1.397 . S
C982 H963 0.929 . S
C982 C979 1.404 1_556 S
C982 N980 1.334 . S
C983 H975 0.930 . S
C983 C978 1.418 . S
C983 C979 1.353 . S
C984 H954 0.930 . S
C984 N985 1.330 . S
C984 C986 1.446 . S
N985 Co944 2.151 . S
N985 C984 1.330 . S
N985 C989 1.418 . S
C986 H965 0.929 . S
C986 C984 1.446 . S
C986 C987 1.332 . S
C987 H967 0.931 . S
C987 C986 1.332 . S
C987 C988 1.267 . S
C988 H956 0.929 . S
C988 C987 1.267 . S
C988 C989 1.251 . S
C989 H959 0.929 . S
C989 N985 1.418 . S
C989 C988 1.251 . S
C990 H957 0.930 . S
C990 C992 1.406 . S
C990 C995 1.261 . S
C991 H958 0.930 . S
C991 N993 1.325 . S
C991 C994 1.357 . S
C992 H960 0.928 . S
C992 C990 1.406 . S
C992 N993 1.261 . S
N993 Co944 2.214 . S
N993 C991 1.325 . S
N993 C992 1.261 . S
C994 H964 0.931 . S
C994 C991 1.357 . S
C994 C995 1.312 . S
C995 H966 0.930 . S
C995 C990 1.261 . S
C995 C994 1.312 . S
C996 O968 1.214 . S
C996 O976 1.234 . S
C997 H969 0.929 . S
C997 C1000 1.391 . S
C997 C1002 1.391 . S
C998 H970 0.929 . S
C998 C999 1.390 . S
C998 N1001 1.391 . S
C999 H971 0.930 . S
C999 C998 1.390 . S
C999 C1000 1.392 . S
C1000 H972 0.929 . S
C1000 C997 1.391 . S
C1000 C999 1.392 . S
N1001 Co945 2.257 . S
N1001 C998 1.391 . S
N1001 C1002 1.388 . S
C1002 H973 0.930 . S
C1002 C997 1.391 . S
C1002 N1001 1.388 . S
Co1003 O1005 2.143 . S
Co1003 O1011 2.074 . S
Co1003 O1014 2.093 . S
Co1003 O1027 2.097 . S
Co1003 N1044 2.151 . S
Co1003 N1052 2.214 . S
Co1004 O1005 2.160 . S
Co1004 O1010 2.058 . S
Co1004 O1020 2.057 . S
Co1004 O1035 2.037 . S
Co1004 N1039 2.145 . S
Co1004 N1060 2.257 . S
O1005 Co1003 2.143 . S
O1005 Co1004 2.160 . S
C1006 O1007 1.278 . S
C1006 O1014 1.224 . S
O1007 C1006 1.278 . S
C1008 O1009 1.245 . S
C1008 O1020 1.232 . S
O1009 C1008 1.245 . S
O1010 Co1004 2.058 . S
O1010 C1036 1.269 . S
O1011 Co1003 2.074 . S
O1011 C1036 1.257 . S
H1012 C1037 0.930 . S
H1013 C1043 0.930 . S
O1014 Co1003 2.093 . S
O1014 C1006 1.224 . S
H1015 C1047 0.929 . S
H1016 C1049 0.930 . S
H1017 C1050 0.930 . S
H1018 C1048 0.929 . S
H1019 C1051 0.928 . S
O1020 Co1004 2.057 . S
O1020 C1008 1.232 . S
H1021 C1040 0.929 . S
H1022 C1041 0.929 . S
H1023 C1053 0.931 . S
H1024 C1045 0.929 . S
H1025 C1054 0.930 . S
H1026 C1046 0.931 . S
O1027 Co1003 2.097 . S
O1027 C1055 1.214 . S
H1028 C1056 0.929 . S
H1029 C1057 0.929 . S
H1030 C1058 0.930 . S
H1031 C1059 0.929 . S
H1032 C1061 0.930 . S
H1033 C1038 0.930 . S
H1034 C1042 0.930 . S
O1035 Co1004 2.037 . S
O1035 C1055 1.234 . S
C1036 O1010 1.269 . S
C1036 O1011 1.257 . S
C1037 H1012 0.930 . S
C1037 C1040 1.388 . S
C1037 C1042 1.418 . S
C1038 H1033 0.930 . S
C1038 C1041 1.404 . S
C1038 C1042 1.353 . S
N1039 Co1004 2.145 . S
N1039 C1040 1.397 . S
N1039 C1041 1.334 . S
C1040 H1021 0.929 . S
C1040 C1037 1.388 . S
C1040 N1039 1.397 . S
C1041 H1022 0.929 . S
C1041 C1038 1.404 . S
C1041 N1039 1.334 . S
C1042 H1034 0.930 . S
C1042 C1037 1.418 . S
C1042 C1038 1.353 . S
C1043 H1013 0.930 . S
C1043 N1044 1.330 . S
C1043 C1045 1.446 . S
N1044 Co1003 2.151 . S
N1044 C1043 1.330 . S
N1044 C1048 1.418 . S
C1045 H1024 0.929 . S
C1045 C1043 1.446 . S
C1045 C1046 1.332 . S
C1046 H1026 0.931 . S
C1046 C1045 1.332 . S
C1046 C1047 1.267 . S
C1047 H1015 0.929 . S
C1047 C1046 1.267 . S
C1047 C1048 1.251 . S
C1048 H1018 0.929 . S
C1048 N1044 1.418 . S
C1048 C1047 1.251 . S
C1049 H1016 0.930 . S
C1049 C1051 1.406 . S
C1049 C1054 1.261 . S
C1050 H1017 0.930 . S
C1050 N1052 1.325 . S
C1050 C1053 1.357 . S
C1051 H1019 0.928 . S
C1051 C1049 1.406 . S
C1051 N1052 1.261 . S
N1052 Co1003 2.214 . S
N1052 C1050 1.325 . S
N1052 C1051 1.261 . S
C1053 H1023 0.931 . S
C1053 C1050 1.357 . S
C1053 C1054 1.312 . S
C1054 H1025 0.930 . S
C1054 C1049 1.261 . S
C1054 C1053 1.312 . S
C1055 O1027 1.214 . S
C1055 O1035 1.234 . S
C1056 H1028 0.929 . S
C1056 C1059 1.391 . S
C1056 C1061 1.391 . S
C1057 H1029 0.929 . S
C1057 C1058 1.390 . S
C1057 N1060 1.391 . S
C1058 H1030 0.930 . S
C1058 C1057 1.390 . S
C1058 C1059 1.392 . S
C1059 H1031 0.929 . S
C1059 C1056 1.391 . S
C1059 C1058 1.392 . S
N1060 Co1004 2.257 . S
N1060 C1057 1.391 . S
N1060 C1061 1.388 . S
C1061 H1032 0.930 . S
C1061 C1056 1.391 . S
C1061 N1060 1.388 . S
Co1062 O1064 2.143 . S
Co1062 O1070 2.074 . S
Co1062 O1073 2.093 . S
Co1062 O1086 2.097 . S
Co1062 N1103 2.151 . S
Co1062 N1111 2.214 . S
Co1063 O1064 2.160 . S
Co1063 O1069 2.058 . S
Co1063 O1079 2.057 . S
Co1063 O1094 2.037 . S
Co1063 N1098 2.145 . S
Co1063 N1119 2.257 . S
O1064 Co1062 2.143 . S
O1064 Co1063 2.160 . S
C1065 O1066 1.278 . S
C1065 O1073 1.224 . S
O1066 C1065 1.278 . S
C1067 O1068 1.245 . S
C1067 O1079 1.232 . S
O1068 C1067 1.245 . S
O1069 Co1063 2.058 . S
O1069 C1095 1.269 . S
O1070 Co1062 2.074 . S
O1070 C1095 1.257 . S
H1071 C1096 0.930 . S
H1072 C1102 0.930 . S
O1073 Co1062 2.093 . S
O1073 C1065 1.224 . S
H1074 C1106 0.929 . S
H1075 C1108 0.930 . S
H1076 C1109 0.930 . S
H1077 C1107 0.929 . S
H1078 C1110 0.928 . S
O1079 Co1063 2.057 . S
O1079 C1067 1.232 . S
H1080 C1099 0.929 . S
H1081 C1100 0.929 . S
H1082 C1112 0.931 . S
H1083 C1104 0.929 . S
H1084 C1113 0.930 . S
H1085 C1105 0.931 . S
O1086 Co1062 2.097 . S
O1086 C1114 1.214 . S
H1087 C1115 0.929 . S
H1088 C1116 0.929 . S
H1089 C1117 0.930 . S
H1090 C1118 0.929 . S
H1091 C1120 0.930 . S
H1092 C1097 0.930 . S
H1093 C1101 0.930 . S
O1094 Co1063 2.037 . S
O1094 C1114 1.234 . S
C1095 O1069 1.269 . S
C1095 O1070 1.257 . S
C1096 H1071 0.930 . S
C1096 C1099 1.388 1_556 S
C1096 C1101 1.418 . S
C1097 H1092 0.930 . S
C1097 C1100 1.404 1_556 S
C1097 C1101 1.353 . S
N1098 Co1063 2.145 . S
N1098 C1099 1.397 . S
N1098 C1100 1.334 . S
C1099 H1080 0.929 . S
C1099 C1096 1.388 1_554 S
C1099 N1098 1.397 . S
C1100 H1081 0.929 . S
C1100 C1097 1.404 1_554 S
C1100 N1098 1.334 . S
C1101 H1093 0.930 . S
C1101 C1096 1.418 . S
C1101 C1097 1.353 . S
C1102 H1072 0.930 . S
C1102 N1103 1.330 . S
C1102 C1104 1.446 . S
N1103 Co1062 2.151 . S
N1103 C1102 1.330 . S
N1103 C1107 1.418 . S
C1104 H1083 0.929 . S
C1104 C1102 1.446 . S
C1104 C1105 1.332 . S
C1105 H1085 0.931 . S
C1105 C1104 1.332 . S
C1105 C1106 1.267 . S
C1106 H1074 0.929 . S
C1106 C1105 1.267 . S
C1106 C1107 1.251 . S
C1107 H1077 0.929 . S
C1107 N1103 1.418 . S
C1107 C1106 1.251 . S
C1108 H1075 0.930 . S
C1108 C1110 1.406 . S
C1108 C1113 1.261 . S
C1109 H1076 0.930 . S
C1109 N1111 1.325 . S
C1109 C1112 1.357 . S
C1110 H1078 0.928 . S
C1110 C1108 1.406 . S
C1110 N1111 1.261 . S
N1111 Co1062 2.214 . S
N1111 C1109 1.325 . S
N1111 C1110 1.261 . S
C1112 H1082 0.931 . S
C1112 C1109 1.357 . S
C1112 C1113 1.312 . S
C1113 H1084 0.930 . S
C1113 C1108 1.261 . S
C1113 C1112 1.312 . S
C1114 O1086 1.214 . S
C1114 O1094 1.234 . S
C1115 H1087 0.929 . S
C1115 C1118 1.391 . S
C1115 C1120 1.391 . S
C1116 H1088 0.929 . S
C1116 C1117 1.390 . S
C1116 N1119 1.391 . S
C1117 H1089 0.930 . S
C1117 C1116 1.390 . S
C1117 C1118 1.392 . S
C1118 H1090 0.929 . S
C1118 C1115 1.391 . S
C1118 C1117 1.392 . S
N1119 Co1063 2.257 . S
N1119 C1116 1.391 . S
N1119 C1120 1.388 . S
C1120 H1091 0.930 . S
C1120 C1115 1.391 . S
C1120 N1119 1.388 . S
Co1121 O1123 2.143 . S
Co1121 O1129 2.074 . S
Co1121 O1132 2.093 . S
Co1121 O1145 2.097 . S
Co1121 N1162 2.151 . S
Co1121 N1170 2.214 . S
Co1122 O1123 2.160 . S
Co1122 O1128 2.058 . S
Co1122 O1138 2.057 . S
Co1122 O1153 2.037 . S
Co1122 N1157 2.145 . S
Co1122 N1178 2.257 . S
O1123 Co1121 2.143 . S
O1123 Co1122 2.160 . S
C1124 O1125 1.278 . S
C1124 O1132 1.224 . S
O1125 C1124 1.278 . S
C1126 O1127 1.245 . S
C1126 O1138 1.232 . S
O1127 C1126 1.245 . S
O1128 Co1122 2.058 . S
O1128 C1154 1.269 . S
O1129 Co1121 2.074 . S
O1129 C1154 1.257 . S
H1130 C1155 0.930 . S
H1131 C1161 0.930 . S
O1132 Co1121 2.093 . S
O1132 C1124 1.224 . S
H1133 C1165 0.929 . S
H1134 C1167 0.930 . S
H1135 C1168 0.930 . S
H1136 C1166 0.929 . S
H1137 C1169 0.928 . S
O1138 Co1122 2.057 . S
O1138 C1126 1.232 . S
H1139 C1158 0.929 . S
H1140 C1159 0.929 . S
H1141 C1171 0.931 . S
H1142 C1163 0.929 . S
H1143 C1172 0.930 . S
H1144 C1164 0.931 . S
O1145 Co1121 2.097 . S
O1145 C1173 1.214 . S
H1146 C1174 0.929 . S
H1147 C1175 0.929 . S
H1148 C1176 0.930 . S
H1149 C1177 0.929 . S
H1150 C1179 0.930 . S
H1151 C1156 0.930 . S
H1152 C1160 0.930 . S
O1153 Co1122 2.037 . S
O1153 C1173 1.234 . S
C1154 O1128 1.269 . S
C1154 O1129 1.257 . S
C1155 H1130 0.930 . S
C1155 C1158 1.388 . S
C1155 C1160 1.418 . S
C1156 H1151 0.930 . S
C1156 C1159 1.404 . S
C1156 C1160 1.353 . S
N1157 Co1122 2.145 . S
N1157 C1158 1.397 . S
N1157 C1159 1.334 . S
C1158 H1139 0.929 . S
C1158 C1155 1.388 . S
C1158 N1157 1.397 . S
C1159 H1140 0.929 . S
C1159 C1156 1.404 . S
C1159 N1157 1.334 . S
C1160 H1152 0.930 . S
C1160 C1155 1.418 . S
C1160 C1156 1.353 . S
C1161 H1131 0.930 . S
C1161 N1162 1.330 . S
C1161 C1163 1.446 . S
N1162 Co1121 2.151 . S
N1162 C1161 1.330 . S
N1162 C1166 1.418 . S
C1163 H1142 0.929 . S
C1163 C1161 1.446 . S
C1163 C1164 1.332 . S
C1164 H1144 0.931 . S
C1164 C1163 1.332 . S
C1164 C1165 1.267 . S
C1165 H1133 0.929 . S
C1165 C1164 1.267 . S
C1165 C1166 1.251 . S
C1166 H1136 0.929 . S
C1166 N1162 1.418 . S
C1166 C1165 1.251 . S
C1167 H1134 0.930 . S
C1167 C1169 1.406 . S
C1167 C1172 1.261 . S
C1168 H1135 0.930 . S
C1168 N1170 1.325 . S
C1168 C1171 1.357 . S
C1169 H1137 0.928 . S
C1169 C1167 1.406 . S
C1169 N1170 1.261 . S
N1170 Co1121 2.214 . S
N1170 C1168 1.325 . S
N1170 C1169 1.261 . S
C1171 H1141 0.931 . S
C1171 C1168 1.357 . S
C1171 C1172 1.312 . S
C1172 H1143 0.930 . S
C1172 C1167 1.261 . S
C1172 C1171 1.312 . S
C1173 O1145 1.214 . S
C1173 O1153 1.234 . S
C1174 H1146 0.929 . S
C1174 C1177 1.391 . S
C1174 C1179 1.391 . S
C1175 H1147 0.929 . S
C1175 C1176 1.390 . S
C1175 N1178 1.391 . S
C1176 H1148 0.930 . S
C1176 C1175 1.390 . S
C1176 C1177 1.392 . S
C1177 H1149 0.929 . S
C1177 C1174 1.391 . S
C1177 C1176 1.392 . S
N1178 Co1122 2.257 . S
N1178 C1175 1.391 . S
N1178 C1179 1.388 . S
C1179 H1150 0.930 . S
C1179 C1174 1.391 . S
C1179 N1178 1.388 . S
Co1180 O1182 2.143 . S
Co1180 O1188 2.074 . S
Co1180 O1191 2.093 . S
Co1180 O1204 2.097 . S
Co1180 N1221 2.151 . S
Co1180 N1229 2.214 . S
Co1181 O1182 2.160 . S
Co1181 O1187 2.058 . S
Co1181 O1197 2.057 . S
Co1181 O1212 2.037 . S
Co1181 N1216 2.145 . S
Co1181 N1237 2.257 . S
O1182 Co1180 2.143 . S
O1182 Co1181 2.160 . S
C1183 O1184 1.278 . S
C1183 O1191 1.224 . S
O1184 C1183 1.278 . S
C1185 O1186 1.245 . S
C1185 O1197 1.232 . S
O1186 C1185 1.245 . S
O1187 Co1181 2.058 . S
O1187 C1213 1.269 . S
O1188 Co1180 2.074 . S
O1188 C1213 1.257 . S
H1189 C1214 0.930 . S
H1190 C1220 0.930 . S
O1191 Co1180 2.093 . S
O1191 C1183 1.224 . S
H1192 C1224 0.929 . S
H1193 C1226 0.930 . S
H1194 C1227 0.930 . S
H1195 C1225 0.929 . S
H1196 C1228 0.928 . S
O1197 Co1181 2.057 . S
O1197 C1185 1.232 . S
H1198 C1217 0.929 . S
H1199 C1218 0.929 . S
H1200 C1230 0.931 . S
H1201 C1222 0.929 . S
H1202 C1231 0.930 . S
H1203 C1223 0.931 . S
O1204 Co1180 2.097 . S
O1204 C1232 1.214 . S
H1205 C1233 0.929 . S
H1206 C1234 0.929 . S
H1207 C1235 0.930 . S
H1208 C1236 0.929 . S
H1209 C1238 0.930 . S
H1210 C1215 0.930 . S
H1211 C1219 0.930 . S
O1212 Co1181 2.037 . S
O1212 C1232 1.234 . S
C1213 O1187 1.269 . S
C1213 O1188 1.257 . S
C1214 H1189 0.930 . S
C1214 C1217 1.388 1_556 S
C1214 C1219 1.418 . S
C1215 H1210 0.930 . S
C1215 C1218 1.404 1_556 S
C1215 C1219 1.353 . S
N1216 Co1181 2.145 . S
N1216 C1217 1.397 . S
N1216 C1218 1.334 . S
C1217 H1198 0.929 . S
C1217 C1214 1.388 1_554 S
C1217 N1216 1.397 . S
C1218 H1199 0.929 . S
C1218 C1215 1.404 1_554 S
C1218 N1216 1.334 . S
C1219 H1211 0.930 . S
C1219 C1214 1.418 . S
C1219 C1215 1.353 . S
C1220 H1190 0.930 . S
C1220 N1221 1.330 . S
C1220 C1222 1.446 . S
N1221 Co1180 2.151 . S
N1221 C1220 1.330 . S
N1221 C1225 1.418 . S
C1222 H1201 0.929 . S
C1222 C1220 1.446 . S
C1222 C1223 1.332 . S
C1223 H1203 0.931 . S
C1223 C1222 1.332 . S
C1223 C1224 1.267 . S
C1224 H1192 0.929 . S
C1224 C1223 1.267 . S
C1224 C1225 1.251 . S
C1225 H1195 0.929 . S
C1225 N1221 1.418 . S
C1225 C1224 1.251 . S
C1226 H1193 0.930 . S
C1226 C1228 1.406 . S
C1226 C1231 1.261 . S
C1227 H1194 0.930 . S
C1227 N1229 1.325 . S
C1227 C1230 1.357 . S
C1228 H1196 0.928 . S
C1228 C1226 1.406 . S
C1228 N1229 1.261 . S
N1229 Co1180 2.214 . S
N1229 C1227 1.325 . S
N1229 C1228 1.261 . S
C1230 H1200 0.931 . S
C1230 C1227 1.357 . S
C1230 C1231 1.312 . S
C1231 H1202 0.930 . S
C1231 C1226 1.261 . S
C1231 C1230 1.312 . S
C1232 O1204 1.214 . S
C1232 O1212 1.234 . S
C1233 H1205 0.929 . S
C1233 C1236 1.391 . S
C1233 C1238 1.391 . S
C1234 H1206 0.929 . S
C1234 C1235 1.390 . S
C1234 N1237 1.391 . S
C1235 H1207 0.930 . S
C1235 C1234 1.390 . S
C1235 C1236 1.392 . S
C1236 H1208 0.929 . S
C1236 C1233 1.391 . S
C1236 C1235 1.392 . S
N1237 Co1181 2.257 . S
N1237 C1234 1.391 . S
N1237 C1238 1.388 . S
C1238 H1209 0.930 . S
C1238 C1233 1.391 . S
C1238 N1237 1.388 . S
Co1239 O1241 2.143 . S
Co1239 O1247 2.074 . S
Co1239 O1250 2.093 . S
Co1239 O1263 2.097 . S
Co1239 N1280 2.151 . S
Co1239 N1288 2.214 . S
Co1240 O1241 2.160 . S
Co1240 O1246 2.058 . S
Co1240 O1256 2.057 . S
Co1240 O1271 2.037 . S
Co1240 N1275 2.145 . S
Co1240 N1296 2.257 . S
O1241 Co1239 2.143 . S
O1241 Co1240 2.160 . S
C1242 O1243 1.278 . S
C1242 O1250 1.224 . S
O1243 C1242 1.278 . S
C1244 O1245 1.245 . S
C1244 O1256 1.232 . S
O1245 C1244 1.245 . S
O1246 Co1240 2.058 . S
O1246 C1272 1.269 . S
O1247 Co1239 2.074 . S
O1247 C1272 1.257 . S
H1248 C1273 0.930 . S
H1249 C1279 0.930 . S
O1250 Co1239 2.093 . S
O1250 C1242 1.224 . S
H1251 C1283 0.929 . S
H1252 C1285 0.930 . S
H1253 C1286 0.930 . S
H1254 C1284 0.929 . S
H1255 C1287 0.928 . S
O1256 Co1240 2.057 . S
O1256 C1244 1.232 . S
H1257 C1276 0.929 . S
H1258 C1277 0.929 . S
H1259 C1289 0.931 . S
H1260 C1281 0.929 . S
H1261 C1290 0.930 . S
H1262 C1282 0.931 . S
O1263 Co1239 2.097 . S
O1263 C1291 1.214 . S
H1264 C1292 0.929 . S
H1265 C1293 0.929 . S
H1266 C1294 0.930 . S
H1267 C1295 0.929 . S
H1268 C1297 0.930 . S
H1269 C1274 0.930 . S
H1270 C1278 0.930 . S
O1271 Co1240 2.037 . S
O1271 C1291 1.234 . S
C1272 O1246 1.269 . S
C1272 O1247 1.257 . S
C1273 H1248 0.930 . S
C1273 C1276 1.388 . S
C1273 C1278 1.418 . S
C1274 H1269 0.930 . S
C1274 C1277 1.404 . S
C1274 C1278 1.353 . S
N1275 Co1240 2.145 . S
N1275 C1276 1.397 . S
N1275 C1277 1.334 . S
C1276 H1257 0.929 . S
C1276 C1273 1.388 . S
C1276 N1275 1.397 . S
C1277 H1258 0.929 . S
C1277 C1274 1.404 . S
C1277 N1275 1.334 . S
C1278 H1270 0.930 . S
C1278 C1273 1.418 . S
C1278 C1274 1.353 . S
C1279 H1249 0.930 . S
C1279 N1280 1.330 . S
C1279 C1281 1.446 . S
N1280 Co1239 2.151 . S
N1280 C1279 1.330 . S
N1280 C1284 1.418 . S
C1281 H1260 0.929 . S
C1281 C1279 1.446 . S
C1281 C1282 1.332 . S
C1282 H1262 0.931 . S
C1282 C1281 1.332 . S
C1282 C1283 1.267 . S
C1283 H1251 0.929 . S
C1283 C1282 1.267 . S
C1283 C1284 1.251 . S
C1284 H1254 0.929 . S
C1284 N1280 1.418 . S
C1284 C1283 1.251 . S
C1285 H1252 0.930 . S
C1285 C1287 1.406 . S
C1285 C1290 1.261 . S
C1286 H1253 0.930 . S
C1286 N1288 1.325 . S
C1286 C1289 1.357 . S
C1287 H1255 0.928 . S
C1287 C1285 1.406 . S
C1287 N1288 1.261 . S
N1288 Co1239 2.214 . S
N1288 C1286 1.325 . S
N1288 C1287 1.261 . S
C1289 H1259 0.931 . S
C1289 C1286 1.357 . S
C1289 C1290 1.312 . S
C1290 H1261 0.930 . S
C1290 C1285 1.261 . S
C1290 C1289 1.312 . S
C1291 O1263 1.214 . S
C1291 O1271 1.234 . S
C1292 H1264 0.929 . S
C1292 C1295 1.391 . S
C1292 C1297 1.391 . S
C1293 H1265 0.929 . S
C1293 C1294 1.390 . S
C1293 N1296 1.391 . S
C1294 H1266 0.930 . S
C1294 C1293 1.390 . S
C1294 C1295 1.392 . S
C1295 H1267 0.929 . S
C1295 C1292 1.391 . S
C1295 C1294 1.392 . S
N1296 Co1240 2.257 . S
N1296 C1293 1.391 . S
N1296 C1297 1.388 . S
C1297 H1268 0.930 . S
C1297 C1292 1.391 . S
C1297 N1296 1.388 . S
Co1298 O1300 2.143 . S
Co1298 O1306 2.074 . S
Co1298 O1309 2.093 . S
Co1298 O1322 2.097 . S
Co1298 N1339 2.151 . S
Co1298 N1347 2.214 . S
Co1299 O1300 2.160 . S
Co1299 O1305 2.058 . S
Co1299 O1315 2.057 . S
Co1299 O1330 2.037 . S
Co1299 N1334 2.145 . S
Co1299 N1355 2.257 . S
O1300 Co1298 2.143 . S
O1300 Co1299 2.160 . S
C1301 O1302 1.278 . S
C1301 O1309 1.224 . S
O1302 C1301 1.278 . S
C1303 O1304 1.245 . S
C1303 O1315 1.232 . S
O1304 C1303 1.245 . S
O1305 Co1299 2.058 . S
O1305 C1331 1.269 . S
O1306 Co1298 2.074 . S
O1306 C1331 1.257 . S
H1307 C1332 0.930 . S
H1308 C1338 0.930 . S
O1309 Co1298 2.093 . S
O1309 C1301 1.224 . S
H1310 C1342 0.929 . S
H1311 C1344 0.930 . S
H1312 C1345 0.930 . S
H1313 C1343 0.929 . S
H1314 C1346 0.928 . S
O1315 Co1299 2.057 . S
O1315 C1303 1.232 . S
H1316 C1335 0.929 . S
H1317 C1336 0.929 . S
H1318 C1348 0.931 . S
H1319 C1340 0.929 . S
H1320 C1349 0.930 . S
H1321 C1341 0.931 . S
O1322 Co1298 2.097 . S
O1322 C1350 1.214 . S
H1323 C1351 0.929 . S
H1324 C1352 0.929 . S
H1325 C1353 0.930 . S
H1326 C1354 0.929 . S
H1327 C1356 0.930 . S
H1328 C1333 0.930 . S
H1329 C1337 0.930 . S
O1330 Co1299 2.037 . S
O1330 C1350 1.234 . S
C1331 O1305 1.269 . S
C1331 O1306 1.257 . S
C1332 H1307 0.930 . S
C1332 C1335 1.388 1_556 S
C1332 C1337 1.418 . S
C1333 H1328 0.930 . S
C1333 C1336 1.404 1_556 S
C1333 C1337 1.353 . S
N1334 Co1299 2.145 . S
N1334 C1335 1.397 . S
N1334 C1336 1.334 . S
C1335 H1316 0.929 . S
C1335 C1332 1.388 1_554 S
C1335 N1334 1.397 . S
C1336 H1317 0.929 . S
C1336 C1333 1.404 1_554 S
C1336 N1334 1.334 . S
C1337 H1329 0.930 . S
C1337 C1332 1.418 . S
C1337 C1333 1.353 . S
C1338 H1308 0.930 . S
C1338 N1339 1.330 . S
C1338 C1340 1.446 . S
N1339 Co1298 2.151 . S
N1339 C1338 1.330 . S
N1339 C1343 1.418 . S
C1340 H1319 0.929 . S
C1340 C1338 1.446 . S
C1340 C1341 1.332 . S
C1341 H1321 0.931 . S
C1341 C1340 1.332 . S
C1341 C1342 1.267 . S
C1342 H1310 0.929 . S
C1342 C1341 1.267 . S
C1342 C1343 1.251 . S
C1343 H1313 0.929 . S
C1343 N1339 1.418 . S
C1343 C1342 1.251 . S
C1344 H1311 0.930 . S
C1344 C1346 1.406 . S
C1344 C1349 1.261 . S
C1345 H1312 0.930 . S
C1345 N1347 1.325 . S
C1345 C1348 1.357 . S
C1346 H1314 0.928 . S
C1346 C1344 1.406 . S
C1346 N1347 1.261 . S
N1347 Co1298 2.214 . S
N1347 C1345 1.325 . S
N1347 C1346 1.261 . S
C1348 H1318 0.931 . S
C1348 C1345 1.357 . S
C1348 C1349 1.312 . S
C1349 H1320 0.930 . S
C1349 C1344 1.261 . S
C1349 C1348 1.312 . S
C1350 O1322 1.214 . S
C1350 O1330 1.234 . S
C1351 H1323 0.929 . S
C1351 C1354 1.391 . S
C1351 C1356 1.391 . S
C1352 H1324 0.929 . S
C1352 C1353 1.390 . S
C1352 N1355 1.391 . S
C1353 H1325 0.930 . S
C1353 C1352 1.390 . S
C1353 C1354 1.392 . S
C1354 H1326 0.929 . S
C1354 C1351 1.391 . S
C1354 C1353 1.392 . S
N1355 Co1299 2.257 . S
N1355 C1352 1.391 . S
N1355 C1356 1.388 . S
C1356 H1327 0.930 . S
C1356 C1351 1.391 . S
C1356 N1355 1.388 . S
Co1357 O1359 2.143 . S
Co1357 O1365 2.074 . S
Co1357 O1368 2.093 . S
Co1357 O1381 2.097 . S
Co1357 N1398 2.151 . S
Co1357 N1406 2.214 . S
Co1358 O1359 2.160 . S
Co1358 O1364 2.058 . S
Co1358 O1374 2.057 . S
Co1358 O1389 2.037 . S
Co1358 N1393 2.145 . S
Co1358 N1414 2.257 . S
O1359 Co1357 2.143 . S
O1359 Co1358 2.160 . S
C1360 O1361 1.278 . S
C1360 O1368 1.224 . S
O1361 C1360 1.278 . S
C1362 O1363 1.245 . S
C1362 O1374 1.232 . S
O1363 C1362 1.245 . S
O1364 Co1358 2.058 . S
O1364 C1390 1.269 . S
O1365 Co1357 2.074 . S
O1365 C1390 1.257 . S
H1366 C1391 0.930 . S
H1367 C1397 0.930 . S
O1368 Co1357 2.093 . S
O1368 C1360 1.224 . S
H1369 C1401 0.929 . S
H1370 C1403 0.930 . S
H1371 C1404 0.930 . S
H1372 C1402 0.929 . S
H1373 C1405 0.928 . S
O1374 Co1358 2.057 . S
O1374 C1362 1.232 . S
H1375 C1394 0.929 . S
H1376 C1395 0.929 . S
H1377 C1407 0.931 . S
H1378 C1399 0.929 . S
H1379 C1408 0.930 . S
H1380 C1400 0.931 . S
O1381 Co1357 2.097 . S
O1381 C1409 1.214 . S
H1382 C1410 0.929 . S
H1383 C1411 0.929 . S
H1384 C1412 0.930 . S
H1385 C1413 0.929 . S
H1386 C1415 0.930 . S
H1387 C1392 0.930 . S
H1388 C1396 0.930 . S
O1389 Co1358 2.037 . S
O1389 C1409 1.234 . S
C1390 O1364 1.269 . S
C1390 O1365 1.257 . S
C1391 H1366 0.930 . S
C1391 C1394 1.388 . S
C1391 C1396 1.418 . S
C1392 H1387 0.930 . S
C1392 C1395 1.404 . S
C1392 C1396 1.353 . S
N1393 Co1358 2.145 . S
N1393 C1394 1.397 . S
N1393 C1395 1.334 . S
C1394 H1375 0.929 . S
C1394 C1391 1.388 . S
C1394 N1393 1.397 . S
C1395 H1376 0.929 . S
C1395 C1392 1.404 . S
C1395 N1393 1.334 . S
C1396 H1388 0.930 . S
C1396 C1391 1.418 . S
C1396 C1392 1.353 . S
C1397 H1367 0.930 . S
C1397 N1398 1.330 . S
C1397 C1399 1.446 . S
N1398 Co1357 2.151 . S
N1398 C1397 1.330 . S
N1398 C1402 1.418 . S
C1399 H1378 0.929 . S
C1399 C1397 1.446 . S
C1399 C1400 1.332 . S
C1400 H1380 0.931 . S
C1400 C1399 1.332 . S
C1400 C1401 1.267 . S
C1401 H1369 0.929 . S
C1401 C1400 1.267 . S
C1401 C1402 1.251 . S
C1402 H1372 0.929 . S
C1402 N1398 1.418 . S
C1402 C1401 1.251 . S
C1403 H1370 0.930 . S
C1403 C1405 1.406 . S
C1403 C1408 1.261 . S
C1404 H1371 0.930 . S
C1404 N1406 1.325 . S
C1404 C1407 1.357 . S
C1405 H1373 0.928 . S
C1405 C1403 1.406 . S
C1405 N1406 1.261 . S
N1406 Co1357 2.214 . S
N1406 C1404 1.325 . S
N1406 C1405 1.261 . S
C1407 H1377 0.931 . S
C1407 C1404 1.357 . S
C1407 C1408 1.312 . S
C1408 H1379 0.930 . S
C1408 C1403 1.261 . S
C1408 C1407 1.312 . S
C1409 O1381 1.214 . S
C1409 O1389 1.234 . S
C1410 H1382 0.929 . S
C1410 C1413 1.391 . S
C1410 C1415 1.391 . S
C1411 H1383 0.929 . S
C1411 C1412 1.390 . S
C1411 N1414 1.391 . S
C1412 H1384 0.930 . S
C1412 C1411 1.390 . S
C1412 C1413 1.392 . S
C1413 H1385 0.929 . S
C1413 C1410 1.391 . S
C1413 C1412 1.392 . S
N1414 Co1358 2.257 . S
N1414 C1411 1.391 . S
N1414 C1415 1.388 . S
C1415 H1386 0.930 . S
C1415 C1410 1.391 . S
C1415 N1414 1.388 . S
C1416 C1417 1.349 . S
C1416 C1418 1.327 . S
C1416 H1441 0.950 . S
C1417 C1416 1.349 . S
C1417 C1433 1.349 . S
C1418 C1416 1.327 . S
C1418 C1437 1.429 . S
C1418 H1442 0.950 . S
C1419 C1436 1.574 . S
C1419 C1438 1.368 . S
C1419 H1443 0.949 . S
H1420 C1424 0.949 . S
C1421 C1422 1.349 . S
C1421 C1423 1.327 . S
C1421 H1444 0.950 . S
C1422 C1421 1.349 . S
C1422 C1434 1.349 . S
C1423 C1421 1.327 . S
C1423 C1439 1.429 . S
C1423 H1445 0.950 . S
C1424 H1420 0.949 . S
C1424 C1432 1.574 . S
C1424 C1440 1.368 . S
H1425 C1433 0.950 . S
H1426 C1431 0.950 . S
H1427 C1432 0.949 . S
H1428 C1434 0.950 . S
H1429 C1435 0.950 . S
H1430 C1436 0.949 . S
C1431 H1426 0.950 . S
C1431 C1433 1.327 . S
C1431 C1437 1.429 . S
C1432 C1424 1.574 . S
C1432 H1427 0.949 . S
C1432 C1438 1.368 . S
C1433 C1417 1.349 . S
C1433 H1425 0.950 . S
C1433 C1431 1.327 . S
C1434 C1422 1.349 . S
C1434 H1428 0.950 . S
C1434 C1435 1.327 . S
C1435 H1429 0.950 . S
C1435 C1434 1.327 . S
C1435 C1439 1.429 . S
C1436 C1419 1.574 . S
C1436 H1430 0.949 . S
C1436 C1440 1.368 . S
C1437 C1418 1.429 . S
C1437 C1431 1.429 . S
C1437 C1438 1.523 . S
C1438 C1419 1.368 . S
C1438 C1432 1.368 . S
C1438 C1437 1.523 . S
C1439 C1423 1.429 . S
C1439 C1435 1.429 . S
C1439 C1440 1.523 . S
C1440 C1424 1.368 . S
C1440 C1436 1.368 . S
C1440 C1439 1.523 . S
H1441 C1416 0.950 . S
H1442 C1418 0.950 . S
H1443 C1419 0.949 . S
H1444 C1421 0.950 . S
H1445 C1423 0.950 . S
C1446 C1447 1.349 . S
C1446 C1448 1.327 . S
C1446 H1471 0.950 . S
C1447 C1446 1.349 . S
C1447 C1463 1.349 . S
C1448 C1446 1.327 . S
C1448 C1467 1.429 . S
C1448 H1472 0.950 . S
C1449 C1466 1.574 . S
C1449 C1468 1.368 . S
C1449 H1473 0.949 . S
H1450 C1454 0.949 . S
C1451 C1452 1.349 . S
C1451 C1453 1.327 . S
C1451 H1474 0.950 . S
C1452 C1451 1.349 . S
C1452 C1464 1.349 . S
C1453 C1451 1.327 . S
C1453 C1469 1.429 . S
C1453 H1475 0.950 . S
C1454 H1450 0.949 . S
C1454 C1462 1.574 . S
C1454 C1470 1.368 . S
H1455 C1463 0.950 . S
H1456 C1461 0.950 . S
H1457 C1462 0.949 . S
H1458 C1464 0.950 . S
H1459 C1465 0.950 . S
H1460 C1466 0.949 . S
C1461 H1456 0.950 . S
C1461 C1463 1.327 . S
C1461 C1467 1.429 . S
C1462 C1454 1.574 . S
C1462 H1457 0.949 . S
C1462 C1468 1.368 . S
C1463 C1447 1.349 . S
C1463 H1455 0.950 . S
C1463 C1461 1.327 . S
C1464 C1452 1.349 . S
C1464 H1458 0.950 . S
C1464 C1465 1.327 . S
C1465 H1459 0.950 . S
C1465 C1464 1.327 . S
C1465 C1469 1.429 . S
C1466 C1449 1.574 . S
C1466 H1460 0.949 . S
C1466 C1470 1.368 . S
C1467 C1448 1.429 . S
C1467 C1461 1.429 . S
C1467 C1468 1.523 . S
C1468 C1449 1.368 . S
C1468 C1462 1.368 . S
C1468 C1467 1.523 . S
C1469 C1453 1.429 . S
C1469 C1465 1.429 . S
C1469 C1470 1.523 . S
C1470 C1454 1.368 . S
C1470 C1466 1.368 . S
C1470 C1469 1.523 . S
H1471 C1446 0.950 . S
H1472 C1448 0.950 . S
H1473 C1449 0.949 . S
H1474 C1451 0.950 . S
H1475 C1453 0.950 . S
C1476 C1477 1.349 . S
C1476 C1478 1.327 . S
C1476 H1501 0.950 . S
C1477 C1476 1.349 . S
C1477 C1493 1.349 . S
C1478 C1476 1.327 . S
C1478 C1497 1.429 . S
C1478 H1502 0.950 . S
C1479 C1496 1.574 . S
C1479 C1498 1.368 . S
C1479 H1503 0.949 . S
H1480 C1484 0.949 . S
C1481 C1482 1.349 . S
C1481 C1483 1.327 . S
C1481 H1504 0.950 . S
C1482 C1481 1.349 . S
C1482 C1494 1.349 . S
C1483 C1481 1.327 . S
C1483 C1499 1.429 . S
C1483 H1505 0.950 . S
C1484 H1480 0.949 . S
C1484 C1492 1.574 . S
C1484 C1500 1.368 . S
H1485 C1493 0.950 . S
H1486 C1491 0.950 . S
H1487 C1492 0.949 . S
H1488 C1494 0.950 . S
H1489 C1495 0.950 . S
H1490 C1496 0.949 . S
C1491 H1486 0.950 . S
C1491 C1493 1.327 . S
C1491 C1497 1.429 . S
C1492 C1484 1.574 . S
C1492 H1487 0.949 . S
C1492 C1498 1.368 . S
C1493 C1477 1.349 . S
C1493 H1485 0.950 . S
C1493 C1491 1.327 . S
C1494 C1482 1.349 . S
C1494 H1488 0.950 . S
C1494 C1495 1.327 . S
C1495 H1489 0.950 . S
C1495 C1494 1.327 . S
C1495 C1499 1.429 . S
C1496 C1479 1.574 . S
C1496 H1490 0.949 . S
C1496 C1500 1.368 . S
C1497 C1478 1.429 . S
C1497 C1491 1.429 . S
C1497 C1498 1.523 . S
C1498 C1479 1.368 . S
C1498 C1492 1.368 . S
C1498 C1497 1.523 . S
C1499 C1483 1.429 . S
C1499 C1495 1.429 . S
C1499 C1500 1.523 . S
C1500 C1484 1.368 . S
C1500 C1496 1.368 . S
C1500 C1499 1.523 . S
H1501 C1476 0.950 . S
H1502 C1478 0.950 . S
H1503 C1479 0.949 . S
H1504 C1481 0.950 . S
H1505 C1483 0.950 . S
C1506 C1507 1.349 . S
C1506 C1508 1.327 . S
C1506 H1531 0.950 . S
C1507 C1506 1.349 . S
C1507 C1523 1.349 . S
C1508 C1506 1.327 . S
C1508 C1527 1.429 . S
C1508 H1532 0.950 . S
C1509 C1526 1.574 . S
C1509 C1528 1.368 . S
C1509 H1533 0.949 . S
H1510 C1514 0.949 . S
C1511 C1512 1.349 . S
C1511 C1513 1.327 . S
C1511 H1534 0.950 . S
C1512 C1511 1.349 . S
C1512 C1524 1.349 . S
C1513 C1511 1.327 . S
C1513 C1529 1.429 . S
C1513 H1535 0.950 . S
C1514 H1510 0.949 . S
C1514 C1522 1.574 . S
C1514 C1530 1.368 . S
H1515 C1523 0.950 . S
H1516 C1521 0.950 . S
H1517 C1522 0.949 . S
H1518 C1524 0.950 . S
H1519 C1525 0.950 . S
H1520 C1526 0.949 . S
C1521 H1516 0.950 . S
C1521 C1523 1.327 . S
C1521 C1527 1.429 . S
C1522 C1514 1.574 . S
C1522 H1517 0.949 . S
C1522 C1528 1.368 . S
C1523 C1507 1.349 . S
C1523 H1515 0.950 . S
C1523 C1521 1.327 . S
C1524 C1512 1.349 . S
C1524 H1518 0.950 . S
C1524 C1525 1.327 . S
C1525 H1519 0.950 . S
C1525 C1524 1.327 . S
C1525 C1529 1.429 . S
C1526 C1509 1.574 . S
C1526 H1520 0.949 . S
C1526 C1530 1.368 . S
C1527 C1508 1.429 . S
C1527 C1521 1.429 . S
C1527 C1528 1.523 . S
C1528 C1509 1.368 . S
C1528 C1522 1.368 . S
C1528 C1527 1.523 . S
C1529 C1513 1.429 . S
C1529 C1525 1.429 . S
C1529 C1530 1.523 . S
C1530 C1514 1.368 . S
C1530 C1526 1.368 . S
C1530 C1529 1.523 . S
H1531 C1506 0.950 . S
H1532 C1508 0.950 . S
H1533 C1509 0.949 . S
H1534 C1511 0.950 . S
H1535 C1513 0.950 . S
C1536 C1537 1.349 . S
C1536 C1538 1.327 . S
C1536 H1561 0.950 . S
C1537 C1536 1.349 . S
C1537 C1553 1.349 . S
C1538 C1536 1.327 . S
C1538 C1557 1.429 . S
C1538 H1562 0.950 . S
C1539 C1556 1.574 . S
C1539 C1558 1.368 . S
C1539 H1563 0.949 . S
H1540 C1544 0.949 . S
C1541 C1542 1.349 . S
C1541 C1543 1.327 . S
C1541 H1564 0.950 . S
C1542 C1541 1.349 . S
C1542 C1554 1.349 . S
C1543 C1541 1.327 . S
C1543 C1559 1.429 . S
C1543 H1565 0.950 . S
C1544 H1540 0.949 . S
C1544 C1552 1.574 . S
C1544 C1560 1.368 . S
H1545 C1553 0.950 . S
H1546 C1551 0.950 . S
H1547 C1552 0.949 . S
H1548 C1554 0.950 . S
H1549 C1555 0.950 . S
H1550 C1556 0.949 . S
C1551 H1546 0.950 . S
C1551 C1553 1.327 . S
C1551 C1557 1.429 . S
C1552 C1544 1.574 . S
C1552 H1547 0.949 . S
C1552 C1558 1.368 . S
C1553 C1537 1.349 . S
C1553 H1545 0.950 . S
C1553 C1551 1.327 . S
C1554 C1542 1.349 . S
C1554 H1548 0.950 . S
C1554 C1555 1.327 . S
C1555 H1549 0.950 . S
C1555 C1554 1.327 . S
C1555 C1559 1.429 . S
C1556 C1539 1.574 . S
C1556 H1550 0.949 . S
C1556 C1560 1.368 . S
C1557 C1538 1.429 . S
C1557 C1551 1.429 . S
C1557 C1558 1.523 . S
C1558 C1539 1.368 . S
C1558 C1552 1.368 . S
C1558 C1557 1.523 . S
C1559 C1543 1.429 . S
C1559 C1555 1.429 . S
C1559 C1560 1.523 . S
C1560 C1544 1.368 . S
C1560 C1556 1.368 . S
C1560 C1559 1.523 . S
H1561 C1536 0.950 . S
H1562 C1538 0.950 . S
H1563 C1539 0.949 . S
H1564 C1541 0.950 . S
H1565 C1543 0.950 . S
C1566 C1567 1.349 . S
C1566 C1568 1.327 . S
C1566 H1591 0.950 . S
C1567 C1566 1.349 . S
C1567 C1583 1.349 . S
C1568 C1566 1.327 . S
C1568 C1587 1.429 . S
C1568 H1592 0.950 . S
C1569 C1586 1.574 . S
C1569 C1588 1.368 . S
C1569 H1593 0.949 . S
H1570 C1574 0.949 . S
C1571 C1572 1.349 . S
C1571 C1573 1.327 . S
C1571 H1594 0.950 . S
C1572 C1571 1.349 . S
C1572 C1584 1.349 . S
C1573 C1571 1.327 . S
C1573 C1589 1.429 . S
C1573 H1595 0.950 . S
C1574 H1570 0.949 . S
C1574 C1582 1.574 . S
C1574 C1590 1.368 . S
H1575 C1583 0.950 . S
H1576 C1581 0.950 . S
H1577 C1582 0.949 . S
H1578 C1584 0.950 . S
H1579 C1585 0.950 . S
H1580 C1586 0.949 . S
C1581 H1576 0.950 . S
C1581 C1583 1.327 . S
C1581 C1587 1.429 . S
C1582 C1574 1.574 . S
C1582 H1577 0.949 . S
C1582 C1588 1.368 . S
C1583 C1567 1.349 . S
C1583 H1575 0.950 . S
C1583 C1581 1.327 . S
C1584 C1572 1.349 . S
C1584 H1578 0.950 . S
C1584 C1585 1.327 . S
C1585 H1579 0.950 . S
C1585 C1584 1.327 . S
C1585 C1589 1.429 . S
C1586 C1569 1.574 . S
C1586 H1580 0.949 . S
C1586 C1590 1.368 . S
C1587 C1568 1.429 . S
C1587 C1581 1.429 . S
C1587 C1588 1.523 . S
C1588 C1569 1.368 . S
C1588 C1582 1.368 . S
C1588 C1587 1.523 . S
C1589 C1573 1.429 . S
C1589 C1585 1.429 . S
C1589 C1590 1.523 . S
C1590 C1574 1.368 . S
C1590 C1586 1.368 . S
C1590 C1589 1.523 . S
H1591 C1566 0.950 . S
H1592 C1568 0.950 . S
H1593 C1569 0.949 . S
H1594 C1571 0.950 . S
H1595 C1573 0.950 . S
C1596 C1597 1.349 . S
C1596 C1598 1.327 . S
C1596 H1621 0.950 . S
C1597 C1596 1.349 . S
C1597 C1613 1.349 . S
C1598 C1596 1.327 . S
C1598 C1617 1.429 . S
C1598 H1622 0.950 . S
C1599 C1616 1.574 . S
C1599 C1618 1.368 . S
C1599 H1623 0.949 . S
H1600 C1604 0.949 . S
C1601 C1602 1.349 . S
C1601 C1603 1.327 . S
C1601 H1624 0.950 . S
C1602 C1601 1.349 . S
C1602 C1614 1.349 . S
C1603 C1601 1.327 . S
C1603 C1619 1.429 . S
C1603 H1625 0.950 . S
C1604 H1600 0.949 . S
C1604 C1612 1.574 . S
C1604 C1620 1.368 . S
H1605 C1613 0.950 . S
H1606 C1611 0.950 . S
H1607 C1612 0.949 . S
H1608 C1614 0.950 . S
H1609 C1615 0.950 . S
H1610 C1616 0.949 . S
C1611 H1606 0.950 . S
C1611 C1613 1.327 . S
C1611 C1617 1.429 . S
C1612 C1604 1.574 . S
C1612 H1607 0.949 . S
C1612 C1618 1.368 . S
C1613 C1597 1.349 . S
C1613 H1605 0.950 . S
C1613 C1611 1.327 . S
C1614 C1602 1.349 . S
C1614 H1608 0.950 . S
C1614 C1615 1.327 . S
C1615 H1609 0.950 . S
C1615 C1614 1.327 . S
C1615 C1619 1.429 . S
C1616 C1599 1.574 . S
C1616 H1610 0.949 . S
C1616 C1620 1.368 . S
C1617 C1598 1.429 . S
C1617 C1611 1.429 . S
C1617 C1618 1.523 . S
C1618 C1599 1.368 . S
C1618 C1612 1.368 . S
C1618 C1617 1.523 . S
C1619 C1603 1.429 . S
C1619 C1615 1.429 . S
C1619 C1620 1.523 . S
C1620 C1604 1.368 . S
C1620 C1616 1.368 . S
C1620 C1619 1.523 . S
H1621 C1596 0.950 . S
H1622 C1598 0.950 . S
H1623 C1599 0.949 . S
H1624 C1601 0.950 . S
H1625 C1603 0.950 . S
C1626 C1627 1.349 . S
C1626 C1628 1.327 . S
C1626 H1651 0.950 . S
C1627 C1626 1.349 . S
C1627 C1643 1.349 . S
C1628 C1626 1.327 . S
C1628 C1647 1.429 . S
C1628 H1652 0.950 . S
C1629 C1646 1.574 . S
C1629 C1648 1.368 . S
C1629 H1653 0.949 . S
H1630 C1634 0.949 . S
C1631 C1632 1.349 . S
C1631 C1633 1.327 . S
C1631 H1654 0.950 . S
C1632 C1631 1.349 . S
C1632 C1644 1.349 . S
C1633 C1631 1.327 . S
C1633 C1649 1.429 . S
C1633 H1655 0.950 . S
C1634 H1630 0.949 . S
C1634 C1642 1.574 . S
C1634 C1650 1.368 . S
H1635 C1643 0.950 . S
H1636 C1641 0.950 . S
H1637 C1642 0.949 . S
H1638 C1644 0.950 . S
H1639 C1645 0.950 . S
H1640 C1646 0.949 . S
C1641 H1636 0.950 . S
C1641 C1643 1.327 . S
C1641 C1647 1.429 . S
C1642 C1634 1.574 . S
C1642 H1637 0.949 . S
C1642 C1648 1.368 . S
C1643 C1627 1.349 . S
C1643 H1635 0.950 . S
C1643 C1641 1.327 . S
C1644 C1632 1.349 . S
C1644 H1638 0.950 . S
C1644 C1645 1.327 . S
C1645 H1639 0.950 . S
C1645 C1644 1.327 . S
C1645 C1649 1.429 . S
C1646 C1629 1.574 . S
C1646 H1640 0.949 . S
C1646 C1650 1.368 . S
C1647 C1628 1.429 . S
C1647 C1641 1.429 . S
C1647 C1648 1.523 . S
C1648 C1629 1.368 . S
C1648 C1642 1.368 . S
C1648 C1647 1.523 . S
C1649 C1633 1.429 . S
C1649 C1645 1.429 . S
C1649 C1650 1.523 . S
C1650 C1634 1.368 . S
C1650 C1646 1.368 . S
C1650 C1649 1.523 . S
H1651 C1626 0.950 . S
H1652 C1628 0.950 . S
H1653 C1629 0.949 . S
H1654 C1631 0.950 . S
H1655 C1633 0.950 . S
C1656 C1657 1.349 . S
C1656 C1658 1.327 . S
C1656 H1681 0.950 . S
C1657 C1656 1.349 . S
C1657 C1673 1.349 . S
C1658 C1656 1.327 . S
C1658 C1677 1.429 . S
C1658 H1682 0.950 . S
C1659 C1676 1.574 . S
C1659 C1678 1.368 . S
C1659 H1683 0.949 . S
H1660 C1664 0.949 . S
C1661 C1662 1.349 . S
C1661 C1663 1.327 . S
C1661 H1684 0.950 . S
C1662 C1661 1.349 . S
C1662 C1674 1.349 . S
C1663 C1661 1.327 . S
C1663 C1679 1.429 . S
C1663 H1685 0.950 . S
C1664 H1660 0.949 . S
C1664 C1672 1.574 . S
C1664 C1680 1.368 . S
H1665 C1673 0.950 . S
H1666 C1671 0.950 . S
H1667 C1672 0.949 . S
H1668 C1674 0.950 . S
H1669 C1675 0.950 . S
H1670 C1676 0.949 . S
C1671 H1666 0.950 . S
C1671 C1673 1.327 . S
C1671 C1677 1.429 . S
C1672 C1664 1.574 . S
C1672 H1667 0.949 . S
C1672 C1678 1.368 . S
C1673 C1657 1.349 . S
C1673 H1665 0.950 . S
C1673 C1671 1.327 . S
C1674 C1662 1.349 . S
C1674 H1668 0.950 . S
C1674 C1675 1.327 . S
C1675 H1669 0.950 . S
C1675 C1674 1.327 . S
C1675 C1679 1.429 . S
C1676 C1659 1.574 . S
C1676 H1670 0.949 . S
C1676 C1680 1.368 . S
C1677 C1658 1.429 . S
C1677 C1671 1.429 . S
C1677 C1678 1.523 . S
C1678 C1659 1.368 . S
C1678 C1672 1.368 . S
C1678 C1677 1.523 . S
C1679 C1663 1.429 . S
C1679 C1675 1.429 . S
C1679 C1680 1.523 . S
C1680 C1664 1.368 . S
C1680 C1676 1.368 . S
C1680 C1679 1.523 . S
H1681 C1656 0.950 . S
H1682 C1658 0.950 . S
H1683 C1659 0.949 . S
H1684 C1661 0.950 . S
H1685 C1663 0.950 . S
C1686 C1687 1.349 . S
C1686 C1688 1.327 . S
C1686 H1711 0.950 . S
C1687 C1686 1.349 . S
C1687 C1703 1.349 . S
C1688 C1686 1.327 . S
C1688 C1707 1.429 . S
C1688 H1712 0.950 . S
C1689 C1706 1.574 . S
C1689 C1708 1.368 . S
C1689 H1713 0.949 . S
H1690 C1694 0.949 . S
C1691 C1692 1.349 . S
C1691 C1693 1.327 . S
C1691 H1714 0.950 . S
C1692 C1691 1.349 . S
C1692 C1704 1.349 . S
C1693 C1691 1.327 . S
C1693 C1709 1.429 . S
C1693 H1715 0.950 . S
C1694 H1690 0.949 . S
C1694 C1702 1.574 . S
C1694 C1710 1.368 . S
H1695 C1703 0.950 . S
H1696 C1701 0.950 . S
H1697 C1702 0.949 . S
H1698 C1704 0.950 . S
H1699 C1705 0.950 . S
H1700 C1706 0.949 . S
C1701 H1696 0.950 . S
C1701 C1703 1.327 . S
C1701 C1707 1.429 . S
C1702 C1694 1.574 . S
C1702 H1697 0.949 . S
C1702 C1708 1.368 . S
C1703 C1687 1.349 . S
C1703 H1695 0.950 . S
C1703 C1701 1.327 . S
C1704 C1692 1.349 . S
C1704 H1698 0.950 . S
C1704 C1705 1.327 . S
C1705 H1699 0.950 . S
C1705 C1704 1.327 . S
C1705 C1709 1.429 . S
C1706 C1689 1.574 . S
C1706 H1700 0.949 . S
C1706 C1710 1.368 . S
C1707 C1688 1.429 . S
C1707 C1701 1.429 . S
C1707 C1708 1.523 . S
C1708 C1689 1.368 . S
C1708 C1702 1.368 . S
C1708 C1707 1.523 . S
C1709 C1693 1.429 . S
C1709 C1705 1.429 . S
C1709 C1710 1.523 . S
C1710 C1694 1.368 . S
C1710 C1706 1.368 . S
C1710 C1709 1.523 . S
H1711 C1686 0.950 . S
H1712 C1688 0.950 . S
H1713 C1689 0.949 . S
H1714 C1691 0.950 . S
H1715 C1693 0.950 . S
C1716 C1717 1.349 . S
C1716 C1718 1.327 . S
C1716 H1741 0.950 . S
C1717 C1716 1.349 . S
C1717 C1733 1.349 . S
C1718 C1716 1.327 . S
C1718 C1737 1.429 . S
C1718 H1742 0.950 . S
C1719 C1736 1.574 . S
C1719 C1738 1.368 . S
C1719 H1743 0.949 . S
H1720 C1724 0.949 . S
C1721 C1722 1.349 . S
C1721 C1723 1.327 . S
C1721 H1744 0.950 . S
C1722 C1721 1.349 . S
C1722 C1734 1.349 . S
C1723 C1721 1.327 . S
C1723 C1739 1.429 . S
C1723 H1745 0.950 . S
C1724 H1720 0.949 . S
C1724 C1732 1.574 . S
C1724 C1740 1.368 . S
H1725 C1733 0.950 . S
H1726 C1731 0.950 . S
H1727 C1732 0.949 . S
H1728 C1734 0.950 . S
H1729 C1735 0.950 . S
H1730 C1736 0.949 . S
C1731 H1726 0.950 . S
C1731 C1733 1.327 . S
C1731 C1737 1.429 . S
C1732 C1724 1.574 . S
C1732 H1727 0.949 . S
C1732 C1738 1.368 . S
C1733 C1717 1.349 . S
C1733 H1725 0.950 . S
C1733 C1731 1.327 . S
C1734 C1722 1.349 . S
C1734 H1728 0.950 . S
C1734 C1735 1.327 . S
C1735 H1729 0.950 . S
C1735 C1734 1.327 . S
C1735 C1739 1.429 . S
C1736 C1719 1.574 . S
C1736 H1730 0.949 . S
C1736 C1740 1.368 . S
C1737 C1718 1.429 . S
C1737 C1731 1.429 . S
C1737 C1738 1.523 . S
C1738 C1719 1.368 . S
C1738 C1732 1.368 . S
C1738 C1737 1.523 . S
C1739 C1723 1.429 . S
C1739 C1735 1.429 . S
C1739 C1740 1.523 . S
C1740 C1724 1.368 . S
C1740 C1736 1.368 . S
C1740 C1739 1.523 . S
H1741 C1716 0.950 . S
H1742 C1718 0.950 . S
H1743 C1719 0.949 . S
H1744 C1721 0.950 . S
H1745 C1723 0.950 . S
C1746 C1747 1.349 . S
C1746 C1748 1.327 . S
C1746 H1771 0.950 . S
C1747 C1746 1.349 . S
C1747 C1763 1.349 . S
C1748 C1746 1.327 . S
C1748 C1767 1.429 . S
C1748 H1772 0.950 . S
C1749 C1766 1.574 . S
C1749 C1768 1.368 . S
C1749 H1773 0.949 . S
H1750 C1754 0.949 . S
C1751 C1752 1.349 . S
C1751 C1753 1.327 . S
C1751 H1774 0.950 . S
C1752 C1751 1.349 . S
C1752 C1764 1.349 . S
C1753 C1751 1.327 . S
C1753 C1769 1.429 . S
C1753 H1775 0.950 . S
C1754 H1750 0.949 . S
C1754 C1762 1.574 . S
C1754 C1770 1.368 . S
H1755 C1763 0.950 . S
H1756 C1761 0.950 . S
H1757 C1762 0.949 . S
H1758 C1764 0.950 . S
H1759 C1765 0.950 . S
H1760 C1766 0.949 . S
C1761 H1756 0.950 . S
C1761 C1763 1.327 . S
C1761 C1767 1.429 . S
C1762 C1754 1.574 . S
C1762 H1757 0.949 . S
C1762 C1768 1.368 . S
C1763 C1747 1.349 . S
C1763 H1755 0.950 . S
C1763 C1761 1.327 . S
C1764 C1752 1.349 . S
C1764 H1758 0.950 . S
C1764 C1765 1.327 . S
C1765 H1759 0.950 . S
C1765 C1764 1.327 . S
C1765 C1769 1.429 . S
C1766 C1749 1.574 . S
C1766 H1760 0.949 . S
C1766 C1770 1.368 . S
C1767 C1748 1.429 . S
C1767 C1761 1.429 . S
C1767 C1768 1.523 . S
C1768 C1749 1.368 . S
C1768 C1762 1.368 . S
C1768 C1767 1.523 . S
C1769 C1753 1.429 . S
C1769 C1765 1.429 . S
C1769 C1770 1.523 . S
C1770 C1754 1.368 . S
C1770 C1766 1.368 . S
C1770 C1769 1.523 . S
H1771 C1746 0.950 . S
H1772 C1748 0.950 . S
H1773 C1749 0.949 . S
H1774 C1751 0.950 . S
H1775 C1753 0.950 . S
C1776 C1777 1.349 . S
C1776 C1778 1.327 . S
C1776 H1801 0.950 . S
C1777 C1776 1.349 . S
C1777 C1793 1.349 . S
C1778 C1776 1.327 . S
C1778 C1797 1.429 . S
C1778 H1802 0.950 . S
C1779 C1796 1.574 . S
C1779 C1798 1.368 1_554 S
C1779 H1803 0.949 . S
H1780 C1784 0.949 . S
C1781 C1782 1.349 . S
C1781 C1783 1.327 . S
C1781 H1804 0.950 . S
C1782 C1781 1.349 . S
C1782 C1794 1.349 . S
C1783 C1781 1.327 . S
C1783 C1799 1.429 . S
C1783 H1805 0.950 . S
C1784 H1780 0.949 . S
C1784 C1792 1.574 . S
C1784 C1800 1.368 1_556 S
H1785 C1793 0.950 . S
H1786 C1791 0.950 . S
H1787 C1792 0.949 . S
H1788 C1794 0.950 . S
H1789 C1795 0.950 . S
H1790 C1796 0.949 . S
C1791 H1786 0.950 . S
C1791 C1793 1.327 . S
C1791 C1797 1.429 . S
C1792 C1784 1.574 . S
C1792 H1787 0.949 . S
C1792 C1798 1.368 . S
C1793 C1777 1.349 . S
C1793 H1785 0.950 . S
C1793 C1791 1.327 . S
C1794 C1782 1.349 . S
C1794 H1788 0.950 . S
C1794 C1795 1.327 . S
C1795 H1789 0.950 . S
C1795 C1794 1.327 . S
C1795 C1799 1.429 . S
C1796 C1779 1.574 . S
C1796 H1790 0.949 . S
C1796 C1800 1.368 . S
C1797 C1778 1.429 . S
C1797 C1791 1.429 . S
C1797 C1798 1.523 . S
C1798 C1779 1.368 1_556 S
C1798 C1792 1.368 . S
C1798 C1797 1.523 . S
C1799 C1783 1.429 . S
C1799 C1795 1.429 . S
C1799 C1800 1.523 . S
C1800 C1784 1.368 1_554 S
C1800 C1796 1.368 . S
C1800 C1799 1.523 . S
H1801 C1776 0.950 . S
H1802 C1778 0.950 . S
H1803 C1779 0.949 . S
H1804 C1781 0.950 . S
H1805 C1783 0.950 . S
C1806 C1807 1.349 . S
C1806 C1808 1.327 . S
C1806 H1831 0.950 . S
C1807 C1806 1.349 . S
C1807 C1823 1.349 . S
C1808 C1806 1.327 . S
C1808 C1827 1.429 . S
C1808 H1832 0.950 . S
C1809 C1826 1.574 . S
C1809 C1828 1.368 . S
C1809 H1833 0.949 . S
H1810 C1814 0.949 . S
C1811 C1812 1.349 . S
C1811 C1813 1.327 . S
C1811 H1834 0.950 . S
C1812 C1811 1.349 . S
C1812 C1824 1.349 . S
C1813 C1811 1.327 . S
C1813 C1829 1.429 . S
C1813 H1835 0.950 . S
C1814 H1810 0.949 . S
C1814 C1822 1.574 . S
C1814 C1830 1.368 . S
H1815 C1823 0.950 . S
H1816 C1821 0.950 . S
H1817 C1822 0.949 . S
H1818 C1824 0.950 . S
H1819 C1825 0.950 . S
H1820 C1826 0.949 . S
C1821 H1816 0.950 . S
C1821 C1823 1.327 . S
C1821 C1827 1.429 . S
C1822 C1814 1.574 . S
C1822 H1817 0.949 . S
C1822 C1828 1.368 . S
C1823 C1807 1.349 . S
C1823 H1815 0.950 . S
C1823 C1821 1.327 . S
C1824 C1812 1.349 . S
C1824 H1818 0.950 . S
C1824 C1825 1.327 . S
C1825 H1819 0.950 . S
C1825 C1824 1.327 . S
C1825 C1829 1.429 . S
C1826 C1809 1.574 . S
C1826 H1820 0.949 . S
C1826 C1830 1.368 . S
C1827 C1808 1.429 . S
C1827 C1821 1.429 . S
C1827 C1828 1.523 . S
C1828 C1809 1.368 . S
C1828 C1822 1.368 . S
C1828 C1827 1.523 . S
C1829 C1813 1.429 . S
C1829 C1825 1.429 . S
C1829 C1830 1.523 . S
C1830 C1814 1.368 . S
C1830 C1826 1.368 . S
C1830 C1829 1.523 . S
H1831 C1806 0.950 . S
H1832 C1808 0.950 . S
H1833 C1809 0.949 . S
H1834 C1811 0.950 . S
H1835 C1813 0.950 . S
C1836 C1837 1.349 . S
C1836 C1838 1.327 . S
C1836 H1861 0.950 . S
C1837 C1836 1.349 . S
C1837 C1853 1.349 . S
C1838 C1836 1.327 . S
C1838 C1857 1.429 . S
C1838 H1862 0.950 . S
C1839 C1856 1.574 1_554 S
C1839 C1858 1.368 . S
C1839 H1863 0.949 . S
H1840 C1844 0.949 . S
C1841 C1842 1.349 . S
C1841 C1843 1.327 . S
C1841 H1864 0.950 . S
C1842 C1841 1.349 . S
C1842 C1854 1.349 . S
C1843 C1841 1.327 . S
C1843 C1859 1.429 . S
C1843 H1865 0.950 . S
C1844 H1840 0.949 . S
C1844 C1852 1.574 1_556 S
C1844 C1860 1.368 . S
H1845 C1853 0.950 . S
H1846 C1851 0.950 . S
H1847 C1852 0.949 . S
H1848 C1854 0.950 . S
H1849 C1855 0.950 . S
H1850 C1856 0.949 . S
C1851 H1846 0.950 . S
C1851 C1853 1.327 . S
C1851 C1857 1.429 . S
C1852 C1844 1.574 1_554 S
C1852 H1847 0.949 . S
C1852 C1858 1.368 . S
C1853 C1837 1.349 . S
C1853 H1845 0.950 . S
C1853 C1851 1.327 . S
C1854 C1842 1.349 . S
C1854 H1848 0.950 . S
C1854 C1855 1.327 . S
C1855 H1849 0.950 . S
C1855 C1854 1.327 . S
C1855 C1859 1.429 . S
C1856 C1839 1.574 1_556 S
C1856 H1850 0.949 . S
C1856 C1860 1.368 . S
C1857 C1838 1.429 . S
C1857 C1851 1.429 . S
C1857 C1858 1.523 . S
C1858 C1839 1.368 . S
C1858 C1852 1.368 . S
C1858 C1857 1.523 . S
C1859 C1843 1.429 . S
C1859 C1855 1.429 . S
C1859 C1860 1.523 . S
C1860 C1844 1.368 . S
C1860 C1856 1.368 . S
C1860 C1859 1.523 . S
H1861 C1836 0.950 . S
H1862 C1838 0.950 . S
H1863 C1839 0.949 . S
H1864 C1841 0.950 . S
H1865 C1843 0.950 . S
C1866 C1867 1.349 . S
C1866 C1868 1.327 . S
C1866 H1891 0.950 . S
C1867 C1866 1.349 . S
C1867 C1883 1.349 . S
C1868 C1866 1.327 . S
C1868 C1887 1.429 . S
C1868 H1892 0.950 . S
C1869 C1886 1.574 . S
C1869 C1888 1.368 . S
C1869 H1893 0.949 . S
H1870 C1874 0.949 . S
C1871 C1872 1.349 . S
C1871 C1873 1.327 . S
C1871 H1894 0.950 . S
C1872 C1871 1.349 . S
C1872 C1884 1.349 . S
C1873 C1871 1.327 . S
C1873 C1889 1.429 . S
C1873 H1895 0.950 . S
C1874 H1870 0.949 . S
C1874 C1882 1.574 . S
C1874 C1890 1.368 . S
H1875 C1883 0.950 . S
H1876 C1881 0.950 . S
H1877 C1882 0.949 . S
H1878 C1884 0.950 . S
H1879 C1885 0.950 . S
H1880 C1886 0.949 . S
C1881 H1876 0.950 . S
C1881 C1883 1.327 . S
C1881 C1887 1.429 . S
C1882 C1874 1.574 . S
C1882 H1877 0.949 . S
C1882 C1888 1.368 . S
C1883 C1867 1.349 . S
C1883 H1875 0.950 . S
C1883 C1881 1.327 . S
C1884 C1872 1.349 . S
C1884 H1878 0.950 . S
C1884 C1885 1.327 . S
C1885 H1879 0.950 . S
C1885 C1884 1.327 . S
C1885 C1889 1.429 . S
C1886 C1869 1.574 . S
C1886 H1880 0.949 . S
C1886 C1890 1.368 . S
C1887 C1868 1.429 . S
C1887 C1881 1.429 . S
C1887 C1888 1.523 . S
C1888 C1869 1.368 . S
C1888 C1882 1.368 . S
C1888 C1887 1.523 . S
C1889 C1873 1.429 . S
C1889 C1885 1.429 . S
C1889 C1890 1.523 . S
C1890 C1874 1.368 . S
C1890 C1886 1.368 . S
C1890 C1889 1.523 . S
H1891 C1866 0.950 . S
H1892 C1868 0.950 . S
H1893 C1869 0.949 . S
H1894 C1871 0.950 . S
H1895 C1873 0.950 . S
C1896 C1897 1.349 . S
C1896 C1898 1.327 . S
C1896 H1921 0.950 . S
C1897 C1896 1.349 . S
C1897 C1913 1.349 . S
C1898 C1896 1.327 . S
C1898 C1917 1.429 . S
C1898 H1922 0.950 . S
C1899 C1916 1.574 . S
C1899 C1918 1.368 . S
C1899 H1923 0.949 . S
H1900 C1904 0.949 . S
C1901 C1902 1.349 . S
C1901 C1903 1.327 . S
C1901 H1924 0.950 . S
C1902 C1901 1.349 . S
C1902 C1914 1.349 . S
C1903 C1901 1.327 . S
C1903 C1919 1.429 . S
C1903 H1925 0.950 . S
C1904 H1900 0.949 . S
C1904 C1912 1.574 . S
C1904 C1920 1.368 . S
H1905 C1913 0.950 . S
H1906 C1911 0.950 . S
H1907 C1912 0.949 . S
H1908 C1914 0.950 . S
H1909 C1915 0.950 . S
H1910 C1916 0.949 . S
C1911 H1906 0.950 . S
C1911 C1913 1.327 . S
C1911 C1917 1.429 . S
C1912 C1904 1.574 . S
C1912 H1907 0.949 . S
C1912 C1918 1.368 1_554 S
C1913 C1897 1.349 . S
C1913 H1905 0.950 . S
C1913 C1911 1.327 . S
C1914 C1902 1.349 . S
C1914 H1908 0.950 . S
C1914 C1915 1.327 . S
C1915 H1909 0.950 . S
C1915 C1914 1.327 . S
C1915 C1919 1.429 . S
C1916 C1899 1.574 . S
C1916 H1910 0.949 . S
C1916 C1920 1.368 1_556 S
C1917 C1898 1.429 . S
C1917 C1911 1.429 . S
C1917 C1918 1.523 . S
C1918 C1899 1.368 . S
C1918 C1912 1.368 1_556 S
C1918 C1917 1.523 . S
C1919 C1903 1.429 . S
C1919 C1915 1.429 . S
C1919 C1920 1.523 . S
C1920 C1904 1.368 . S
C1920 C1916 1.368 1_554 S
C1920 C1919 1.523 . S
H1921 C1896 0.950 . S
H1922 C1898 0.950 . S
H1923 C1899 0.949 . S
H1924 C1901 0.950 . S
H1925 C1903 0.950 . S
C1926 C1927 1.349 . S
C1926 C1928 1.327 . S
C1926 H1951 0.950 . S
C1927 C1926 1.349 . S
C1927 C1943 1.349 . S
C1928 C1926 1.327 . S
C1928 C1947 1.429 . S
C1928 H1952 0.950 . S
C1929 C1946 1.574 . S
C1929 C1948 1.368 . S
C1929 H1953 0.949 . S
H1930 C1934 0.949 . S
C1931 C1932 1.349 . S
C1931 C1933 1.327 . S
C1931 H1954 0.950 . S
C1932 C1931 1.349 . S
C1932 C1944 1.349 . S
C1933 C1931 1.327 . S
C1933 C1949 1.429 . S
C1933 H1955 0.950 . S
C1934 H1930 0.949 . S
C1934 C1942 1.574 . S
C1934 C1950 1.368 . S
H1935 C1943 0.950 . S
H1936 C1941 0.950 . S
H1937 C1942 0.949 . S
H1938 C1944 0.950 . S
H1939 C1945 0.950 . S
H1940 C1946 0.949 . S
C1941 H1936 0.950 . S
C1941 C1943 1.327 . S
C1941 C1947 1.429 . S
C1942 C1934 1.574 . S
C1942 H1937 0.949 . S
C1942 C1948 1.368 . S
C1943 C1927 1.349 . S
C1943 H1935 0.950 . S
C1943 C1941 1.327 . S
C1944 C1932 1.349 . S
C1944 H1938 0.950 . S
C1944 C1945 1.327 . S
C1945 H1939 0.950 . S
C1945 C1944 1.327 . S
C1945 C1949 1.429 . S
C1946 C1929 1.574 . S
C1946 H1940 0.949 . S
C1946 C1950 1.368 . S
C1947 C1928 1.429 . S
C1947 C1941 1.429 . S
C1947 C1948 1.523 . S
C1948 C1929 1.368 . S
C1948 C1942 1.368 . S
C1948 C1947 1.523 . S
C1949 C1933 1.429 . S
C1949 C1945 1.429 . S
C1949 C1950 1.523 . S
C1950 C1934 1.368 . S
C1950 C1946 1.368 . S
C1950 C1949 1.523 . S
H1951 C1926 0.950 . S
H1952 C1928 0.950 . S
H1953 C1929 0.949 . S
H1954 C1931 0.950 . S
H1955 C1933 0.950 . S
C1956 C1957 1.349 . S
C1956 C1958 1.327 . S
C1956 H1981 0.950 . S
C1957 C1956 1.349 . S
C1957 C1973 1.349 . S
C1958 C1956 1.327 . S
C1958 C1977 1.429 . S
C1958 H1982 0.950 . S
C1959 C1976 1.574 . S
C1959 C1978 1.368 . S
C1959 H1983 0.949 . S
H1960 C1964 0.949 . S
C1961 C1962 1.349 . S
C1961 C1963 1.327 . S
C1961 H1984 0.950 . S
C1962 C1961 1.349 . S
C1962 C1974 1.349 . S
C1963 C1961 1.327 . S
C1963 C1979 1.429 . S
C1963 H1985 0.950 . S
C1964 H1960 0.949 . S
C1964 C1972 1.574 . S
C1964 C1980 1.368 . S
H1965 C1973 0.950 . S
H1966 C1971 0.950 . S
H1967 C1972 0.949 . S
H1968 C1974 0.950 . S
H1969 C1975 0.950 . S
H1970 C1976 0.949 . S
C1971 H1966 0.950 . S
C1971 C1973 1.327 . S
C1971 C1977 1.429 . S
C1972 C1964 1.574 . S
C1972 H1967 0.949 . S
C1972 C1978 1.368 1_556 S
C1973 C1957 1.349 . S
C1973 H1965 0.950 . S
C1973 C1971 1.327 . S
C1974 C1962 1.349 . S
C1974 H1968 0.950 . S
C1974 C1975 1.327 . S
C1975 H1969 0.950 . S
C1975 C1974 1.327 . S
C1975 C1979 1.429 . S
C1976 C1959 1.574 . S
C1976 H1970 0.949 . S
C1976 C1980 1.368 1_554 S
C1977 C1958 1.429 . S
C1977 C1971 1.429 . S
C1977 C1978 1.523 . S
C1978 C1959 1.368 . S
C1978 C1972 1.368 1_554 S
C1978 C1977 1.523 . S
C1979 C1963 1.429 . S
C1979 C1975 1.429 . S
C1979 C1980 1.523 . S
C1980 C1964 1.368 . S
C1980 C1976 1.368 1_556 S
C1980 C1979 1.523 . S
H1981 C1956 0.950 . S
H1982 C1958 0.950 . S
H1983 C1959 0.949 . S
H1984 C1961 0.950 . S
H1985 C1963 0.950 . S
C1986 C1987 1.349 . S
C1986 C1988 1.327 . S
C1986 H2011 0.950 . S
C1987 C1986 1.349 . S
C1987 C2003 1.349 . S
C1988 C1986 1.327 . S
C1988 C2007 1.429 . S
C1988 H2012 0.950 . S
C1989 C2006 1.574 . S
C1989 C2008 1.368 . S
C1989 H2013 0.949 . S
H1990 C1994 0.949 . S
C1991 C1992 1.349 . S
C1991 C1993 1.327 . S
C1991 H2014 0.950 . S
C1992 C1991 1.349 . S
C1992 C2004 1.349 . S
C1993 C1991 1.327 . S
C1993 C2009 1.429 . S
C1993 H2015 0.950 . S
C1994 H1990 0.949 . S
C1994 C2002 1.574 . S
C1994 C2010 1.368 . S
H1995 C2003 0.950 . S
H1996 C2001 0.950 . S
H1997 C2002 0.949 . S
H1998 C2004 0.950 . S
H1999 C2005 0.950 . S
H2000 C2006 0.949 . S
C2001 H1996 0.950 . S
C2001 C2003 1.327 . S
C2001 C2007 1.429 . S
C2002 C1994 1.574 . S
C2002 H1997 0.949 . S
C2002 C2008 1.368 . S
C2003 C1987 1.349 . S
C2003 H1995 0.950 . S
C2003 C2001 1.327 . S
C2004 C1992 1.349 . S
C2004 H1998 0.950 . S
C2004 C2005 1.327 . S
C2005 H1999 0.950 . S
C2005 C2004 1.327 . S
C2005 C2009 1.429 . S
C2006 C1989 1.574 . S
C2006 H2000 0.949 . S
C2006 C2010 1.368 . S
C2007 C1988 1.429 . S
C2007 C2001 1.429 . S
C2007 C2008 1.523 . S
C2008 C1989 1.368 . S
C2008 C2002 1.368 . S
C2008 C2007 1.523 . S
C2009 C1993 1.429 . S
C2009 C2005 1.429 . S
C2009 C2010 1.523 . S
C2010 C1994 1.368 . S
C2010 C2006 1.368 . S
C2010 C2009 1.523 . S
H2011 C1986 0.950 . S
H2012 C1988 0.950 . S
H2013 C1989 0.949 . S
H2014 C1991 0.950 . S
H2015 C1993 0.950 . S
C2016 C2017 1.349 . S
C2016 C2018 1.327 . S
C2016 H2041 0.950 . S
C2017 C2016 1.349 . S
C2017 C2033 1.349 . S
C2018 C2016 1.327 . S
C2018 C2037 1.429 . S
C2018 H2042 0.950 1_556 S
C2019 C2036 1.574 . S
C2019 C2038 1.368 . S
C2019 H2043 0.949 . S
H2020 C2024 0.949 . S
C2021 C2022 1.349 . S
C2021 C2023 1.327 . S
C2021 H2044 0.950 . S
C2022 C2021 1.349 . S
C2022 C2034 1.349 . S
C2023 C2021 1.327 . S
C2023 C2039 1.429 . S
C2023 H2045 0.950 1_554 S
C2024 H2020 0.949 . S
C2024 C2032 1.574 . S
C2024 C2040 1.368 . S
H2025 C2033 0.950 . S
H2026 C2031 0.950 . S
H2027 C2032 0.949 . S
H2028 C2034 0.950 . S
H2029 C2035 0.950 . S
H2030 C2036 0.949 . S
C2031 H2026 0.950 . S
C2031 C2033 1.327 . S
C2031 C2037 1.429 . S
C2032 C2024 1.574 . S
C2032 H2027 0.949 . S
C2032 C2038 1.368 1_554 S
C2033 C2017 1.349 . S
C2033 H2025 0.950 . S
C2033 C2031 1.327 . S
C2034 C2022 1.349 . S
C2034 H2028 0.950 . S
C2034 C2035 1.327 . S
C2035 H2029 0.950 . S
C2035 C2034 1.327 . S
C2035 C2039 1.429 . S
C2036 C2019 1.574 . S
C2036 H2030 0.949 . S
C2036 C2040 1.368 1_556 S
C2037 C2018 1.429 . S
C2037 C2031 1.429 . S
C2037 C2038 1.523 . S
C2038 C2019 1.368 . S
C2038 C2032 1.368 1_556 S
C2038 C2037 1.523 . S
C2039 C2023 1.429 . S
C2039 C2035 1.429 . S
C2039 C2040 1.523 . S
C2040 C2024 1.368 . S
C2040 C2036 1.368 1_554 S
C2040 C2039 1.523 . S
H2041 C2016 0.950 . S
H2042 C2018 0.950 1_554 S
H2043 C2019 0.949 . S
H2044 C2021 0.950 . S
H2045 C2023 0.950 1_556 S
C2046 C2047 1.349 . S
C2046 C2048 1.327 . S
C2046 H2071 0.950 . S
C2047 C2046 1.349 . S
C2047 C2063 1.349 . S
C2048 C2046 1.327 . S
C2048 C2067 1.429 . S
C2048 H2072 0.950 . S
C2049 C2066 1.574 . S
C2049 C2068 1.368 . S
C2049 H2073 0.949 . S
H2050 C2054 0.949 . S
C2051 C2052 1.349 . S
C2051 C2053 1.327 . S
C2051 H2074 0.950 . S
C2052 C2051 1.349 . S
C2052 C2064 1.349 . S
C2053 C2051 1.327 . S
C2053 C2069 1.429 . S
C2053 H2075 0.950 . S
C2054 H2050 0.949 . S
C2054 C2062 1.574 . S
C2054 C2070 1.368 . S
H2055 C2063 0.950 . S
H2056 C2061 0.950 . S
H2057 C2062 0.949 . S
H2058 C2064 0.950 . S
H2059 C2065 0.950 . S
H2060 C2066 0.949 . S
C2061 H2056 0.950 . S
C2061 C2063 1.327 . S
C2061 C2067 1.429 . S
C2062 C2054 1.574 . S
C2062 H2057 0.949 . S
C2062 C2068 1.368 . S
C2063 C2047 1.349 . S
C2063 H2055 0.950 . S
C2063 C2061 1.327 . S
C2064 C2052 1.349 . S
C2064 H2058 0.950 . S
C2064 C2065 1.327 . S
C2065 H2059 0.950 . S
C2065 C2064 1.327 . S
C2065 C2069 1.429 . S
C2066 C2049 1.574 . S
C2066 H2060 0.949 . S
C2066 C2070 1.368 . S
C2067 C2048 1.429 . S
C2067 C2061 1.429 . S
C2067 C2068 1.523 . S
C2068 C2049 1.368 . S
C2068 C2062 1.368 . S
C2068 C2067 1.523 . S
C2069 C2053 1.429 . S
C2069 C2065 1.429 . S
C2069 C2070 1.523 . S
C2070 C2054 1.368 . S
C2070 C2066 1.368 . S
C2070 C2069 1.523 . S
H2071 C2046 0.950 . S
H2072 C2048 0.950 . S
H2073 C2049 0.949 . S
H2074 C2051 0.950 . S
H2075 C2053 0.950 . S
C2076 C2077 1.349 . S
C2076 C2078 1.327 . S
C2076 H2101 0.950 . S
C2077 C2076 1.349 . S
C2077 C2093 1.349 . S
C2078 C2076 1.327 . S
C2078 C2097 1.429 . S
C2078 H2102 0.950 . S
C2079 C2096 1.574 . S
C2079 C2098 1.368 1_554 S
C2079 H2103 0.949 . S
H2080 C2084 0.949 . S
C2081 C2082 1.349 . S
C2081 C2083 1.327 . S
C2081 H2104 0.950 . S
C2082 C2081 1.349 . S
C2082 C2094 1.349 . S
C2083 C2081 1.327 . S
C2083 C2099 1.429 . S
C2083 H2105 0.950 . S
C2084 H2080 0.949 . S
C2084 C2092 1.574 . S
C2084 C2100 1.368 1_556 S
H2085 C2093 0.950 . S
H2086 C2091 0.950 . S
H2087 C2092 0.949 . S
H2088 C2094 0.950 . S
H2089 C2095 0.950 . S
H2090 C2096 0.949 . S
C2091 H2086 0.950 . S
C2091 C2093 1.327 . S
C2091 C2097 1.429 . S
C2092 C2084 1.574 . S
C2092 H2087 0.949 . S
C2092 C2098 1.368 . S
C2093 C2077 1.349 . S
C2093 H2085 0.950 . S
C2093 C2091 1.327 . S
C2094 C2082 1.349 . S
C2094 H2088 0.950 . S
C2094 C2095 1.327 . S
C2095 H2089 0.950 . S
C2095 C2094 1.327 . S
C2095 C2099 1.429 . S
C2096 C2079 1.574 . S
C2096 H2090 0.949 . S
C2096 C2100 1.368 . S
C2097 C2078 1.429 . S
C2097 C2091 1.429 . S
C2097 C2098 1.523 . S
C2098 C2079 1.368 1_556 S
C2098 C2092 1.368 . S
C2098 C2097 1.523 . S
C2099 C2083 1.429 . S
C2099 C2095 1.429 . S
C2099 C2100 1.523 . S
C2100 C2084 1.368 1_554 S
C2100 C2096 1.368 . S
C2100 C2099 1.523 . S
H2101 C2076 0.950 . S
H2102 C2078 0.950 . S
H2103 C2079 0.949 . S
H2104 C2081 0.950 . S
H2105 C2083 0.950 . S
C2106 C2107 1.349 . S
C2106 C2108 1.327 . S
C2106 H2131 0.950 . S
C2107 C2106 1.349 . S
C2107 C2123 1.349 . S
C2108 C2106 1.327 . S
C2108 C2127 1.429 . S
C2108 H2132 0.950 . S
C2109 C2126 1.574 . S
C2109 C2128 1.368 . S
C2109 H2133 0.949 . S
H2110 C2114 0.949 . S
C2111 C2112 1.349 . S
C2111 C2113 1.327 . S
C2111 H2134 0.950 . S
C2112 C2111 1.349 . S
C2112 C2124 1.349 . S
C2113 C2111 1.327 . S
C2113 C2129 1.429 . S
C2113 H2135 0.950 . S
C2114 H2110 0.949 . S
C2114 C2122 1.574 . S
C2114 C2130 1.368 . S
H2115 C2123 0.950 . S
H2116 C2121 0.950 . S
H2117 C2122 0.949 . S
H2118 C2124 0.950 . S
H2119 C2125 0.950 . S
H2120 C2126 0.949 . S
C2121 H2116 0.950 . S
C2121 C2123 1.327 . S
C2121 C2127 1.429 . S
C2122 C2114 1.574 . S
C2122 H2117 0.949 . S
C2122 C2128 1.368 . S
C2123 C2107 1.349 . S
C2123 H2115 0.950 . S
C2123 C2121 1.327 . S
C2124 C2112 1.349 . S
C2124 H2118 0.950 . S
C2124 C2125 1.327 . S
C2125 H2119 0.950 . S
C2125 C2124 1.327 . S
C2125 C2129 1.429 . S
C2126 C2109 1.574 . S
C2126 H2120 0.949 . S
C2126 C2130 1.368 . S
C2127 C2108 1.429 . S
C2127 C2121 1.429 . S
C2127 C2128 1.523 . S
C2128 C2109 1.368 . S
C2128 C2122 1.368 . S
C2128 C2127 1.523 . S
C2129 C2113 1.429 . S
C2129 C2125 1.429 . S
C2129 C2130 1.523 . S
C2130 C2114 1.368 . S
C2130 C2126 1.368 . S
C2130 C2129 1.523 . S
H2131 C2106 0.950 . S
H2132 C2108 0.950 . S
H2133 C2109 0.949 . S
H2134 C2111 0.950 . S
H2135 C2113 0.950 . S
C2136 C2137 1.349 . S
C2136 C2138 1.327 . S
C2136 H2161 0.950 . S
C2137 C2136 1.349 . S
C2137 C2153 1.349 . S
C2138 C2136 1.327 . S
C2138 C2157 1.429 . S
C2138 H2162 0.950 . S
C2139 C2156 1.574 . S
C2139 C2158 1.368 . S
C2139 H2163 0.949 . S
H2140 C2144 0.949 . S
C2141 C2142 1.349 . S
C2141 C2143 1.327 . S
C2141 H2164 0.950 . S
C2142 C2141 1.349 . S
C2142 C2154 1.349 . S
C2143 C2141 1.327 . S
C2143 C2159 1.429 . S
C2143 H2165 0.950 . S
C2144 H2140 0.949 . S
C2144 C2152 1.574 . S
C2144 C2160 1.368 . S
H2145 C2153 0.950 . S
H2146 C2151 0.950 . S
H2147 C2152 0.949 . S
H2148 C2154 0.950 . S
H2149 C2155 0.950 . S
H2150 C2156 0.949 . S
C2151 H2146 0.950 . S
C2151 C2153 1.327 . S
C2151 C2157 1.429 . S
C2152 C2144 1.574 . S
C2152 H2147 0.949 . S
C2152 C2158 1.368 . S
C2153 C2137 1.349 . S
C2153 H2145 0.950 . S
C2153 C2151 1.327 . S
C2154 C2142 1.349 . S
C2154 H2148 0.950 . S
C2154 C2155 1.327 . S
C2155 H2149 0.950 . S
C2155 C2154 1.327 . S
C2155 C2159 1.429 . S
C2156 C2139 1.574 . S
C2156 H2150 0.949 . S
C2156 C2160 1.368 . S
C2157 C2138 1.429 . S
C2157 C2151 1.429 . S
C2157 C2158 1.523 . S
C2158 C2139 1.368 . S
C2158 C2152 1.368 . S
C2158 C2157 1.523 . S
C2159 C2143 1.429 . S
C2159 C2155 1.429 . S
C2159 C2160 1.523 . S
C2160 C2144 1.368 . S
C2160 C2156 1.368 . S
C2160 C2159 1.523 . S
H2161 C2136 0.950 . S
H2162 C2138 0.950 . S
H2163 C2139 0.949 . S
H2164 C2141 0.950 . S
H2165 C2143 0.950 . S
C2166 C2167 1.349 . S
C2166 C2168 1.327 . S
C2166 H2191 0.950 . S
C2167 C2166 1.349 . S
C2167 C2183 1.349 . S
C2168 C2166 1.327 . S
C2168 C2187 1.429 . S
C2168 H2192 0.950 . S
C2169 C2186 1.574 1_455 S
C2169 C2188 1.368 . S
C2169 H2193 0.949 . S
H2170 C2174 0.949 . S
C2171 C2172 1.349 . S
C2171 C2173 1.327 . S
C2171 H2194 0.950 . S
C2172 C2171 1.349 . S
C2172 C2184 1.349 . S
C2173 C2171 1.327 . S
C2173 C2189 1.429 . S
C2173 H2195 0.950 . S
C2174 H2170 0.949 . S
C2174 C2182 1.574 1_655 S
C2174 C2190 1.368 . S
H2175 C2183 0.950 . S
H2176 C2181 0.950 . S
H2177 C2182 0.949 . S
H2178 C2184 0.950 . S
H2179 C2185 0.950 . S
H2180 C2186 0.949 . S
C2181 H2176 0.950 . S
C2181 C2183 1.327 . S
C2181 C2187 1.429 . S
C2182 C2174 1.574 1_455 S
C2182 H2177 0.949 . S
C2182 C2188 1.368 . S
C2183 C2167 1.349 . S
C2183 H2175 0.950 . S
C2183 C2181 1.327 . S
C2184 C2172 1.349 . S
C2184 H2178 0.950 . S
C2184 C2185 1.327 . S
C2185 H2179 0.950 . S
C2185 C2184 1.327 . S
C2185 C2189 1.429 . S
C2186 C2169 1.574 1_655 S
C2186 H2180 0.949 . S
C2186 C2190 1.368 . S
C2187 C2168 1.429 . S
C2187 C2181 1.429 . S
C2187 C2188 1.523 . S
C2188 C2169 1.368 . S
C2188 C2182 1.368 . S
C2188 C2187 1.523 . S
C2189 C2173 1.429 . S
C2189 C2185 1.429 . S
C2189 C2190 1.523 . S
C2190 C2174 1.368 . S
C2190 C2186 1.368 . S
C2190 C2189 1.523 . S
H2191 C2166 0.950 . S
H2192 C2168 0.950 . S
H2193 C2169 0.949 . S
H2194 C2171 0.950 . S
H2195 C2173 0.950 . S
C2196 C2197 1.349 . S
C2196 C2198 1.327 . S
C2196 H2221 0.950 . S
C2197 C2196 1.349 . S
C2197 C2213 1.349 . S
C2198 C2196 1.327 . S
C2198 C2217 1.429 . S
C2198 H2222 0.950 . S
C2199 C2216 1.574 1_565 S
C2199 C2218 1.368 . S
C2199 H2223 0.949 . S
H2200 C2204 0.949 . S
C2201 C2202 1.349 . S
C2201 C2203 1.327 . S
C2201 H2224 0.950 . S
C2202 C2201 1.349 . S
C2202 C2214 1.349 . S
C2203 C2201 1.327 . S
C2203 C2219 1.429 . S
C2203 H2225 0.950 . S
C2204 H2200 0.949 . S
C2204 C2212 1.574 1_545 S
C2204 C2220 1.368 . S
H2205 C2213 0.950 . S
H2206 C2211 0.950 . S
H2207 C2212 0.949 . S
H2208 C2214 0.950 . S
H2209 C2215 0.950 . S
H2210 C2216 0.949 . S
C2211 H2206 0.950 . S
C2211 C2213 1.327 . S
C2211 C2217 1.429 . S
C2212 C2204 1.574 1_565 S
C2212 H2207 0.949 . S
C2212 C2218 1.368 . S
C2213 C2197 1.349 . S
C2213 H2205 0.950 . S
C2213 C2211 1.327 . S
C2214 C2202 1.349 . S
C2214 H2208 0.950 . S
C2214 C2215 1.327 . S
C2215 H2209 0.950 . S
C2215 C2214 1.327 . S
C2215 C2219 1.429 . S
C2216 C2199 1.574 1_545 S
C2216 H2210 0.949 . S
C2216 C2220 1.368 . S
C2217 C2198 1.429 . S
C2217 C2211 1.429 . S
C2217 C2218 1.523 . S
C2218 C2199 1.368 . S
C2218 C2212 1.368 . S
C2218 C2217 1.523 . S
C2219 C2203 1.429 . S
C2219 C2215 1.429 . S
C2219 C2220 1.523 . S
C2220 C2204 1.368 . S
C2220 C2216 1.368 . S
C2220 C2219 1.523 . S
H2221 C2196 0.950 . S
H2222 C2198 0.950 . S
H2223 C2199 0.949 . S
H2224 C2201 0.950 . S
H2225 C2203 0.950 . S
C2226 C2227 1.349 . S
C2226 C2228 1.327 . S
C2226 H2251 0.950 . S
C2227 C2226 1.349 . S
C2227 C2243 1.349 . S
C2228 C2226 1.327 . S
C2228 C2247 1.429 . S
C2228 H2252 0.950 . S
C2229 C2246 1.574 . S
C2229 C2248 1.368 . S
C2229 H2253 0.949 . S
H2230 C2234 0.949 . S
C2231 C2232 1.349 . S
C2231 C2233 1.327 . S
C2231 H2254 0.950 . S
C2232 C2231 1.349 . S
C2232 C2244 1.349 . S
C2233 C2231 1.327 . S
C2233 C2249 1.429 . S
C2233 H2255 0.950 . S
C2234 H2230 0.949 . S
C2234 C2242 1.574 . S
C2234 C2250 1.368 . S
H2235 C2243 0.950 . S
H2236 C2241 0.950 . S
H2237 C2242 0.949 . S
H2238 C2244 0.950 . S
H2239 C2245 0.950 . S
H2240 C2246 0.949 . S
C2241 H2236 0.950 . S
C2241 C2243 1.327 . S
C2241 C2247 1.429 . S
C2242 C2234 1.574 . S
C2242 H2237 0.949 . S
C2242 C2248 1.368 . S
C2243 C2227 1.349 . S
C2243 H2235 0.950 . S
C2243 C2241 1.327 . S
C2244 C2232 1.349 . S
C2244 H2238 0.950 . S
C2244 C2245 1.327 . S
C2245 H2239 0.950 . S
C2245 C2244 1.327 . S
C2245 C2249 1.429 . S
C2246 C2229 1.574 . S
C2246 H2240 0.949 . S
C2246 C2250 1.368 . S
C2247 C2228 1.429 . S
C2247 C2241 1.429 . S
C2247 C2248 1.523 . S
C2248 C2229 1.368 . S
C2248 C2242 1.368 . S
C2248 C2247 1.523 . S
C2249 C2233 1.429 . S
C2249 C2245 1.429 . S
C2249 C2250 1.523 . S
C2250 C2234 1.368 . S
C2250 C2246 1.368 . S
C2250 C2249 1.523 . S
H2251 C2226 0.950 . S
H2252 C2228 0.950 . S
H2253 C2229 0.949 . S
H2254 C2231 0.950 . S
H2255 C2233 0.950 . S
C2256 C2257 1.349 . S
C2256 C2258 1.327 . S
C2256 H2281 0.950 . S
C2257 C2256 1.349 . S
C2257 C2273 1.349 . S
C2258 C2256 1.327 . S
C2258 C2277 1.429 . S
C2258 H2282 0.950 . S
C2259 C2276 1.574 1_655 S
C2259 C2278 1.368 . S
C2259 H2283 0.949 . S
H2260 C2264 0.949 . S
C2261 C2262 1.349 . S
C2261 C2263 1.327 . S
C2261 H2284 0.950 . S
C2262 C2261 1.349 . S
C2262 C2274 1.349 . S
C2263 C2261 1.327 . S
C2263 C2279 1.429 . S
C2263 H2285 0.950 . S
C2264 H2260 0.949 . S
C2264 C2272 1.574 1_455 S
C2264 C2280 1.368 . S
H2265 C2273 0.950 . S
H2266 C2271 0.950 . S
H2267 C2272 0.949 . S
H2268 C2274 0.950 . S
H2269 C2275 0.950 . S
H2270 C2276 0.949 . S
C2271 H2266 0.950 . S
C2271 C2273 1.327 . S
C2271 C2277 1.429 . S
C2272 C2264 1.574 1_655 S
C2272 H2267 0.949 . S
C2272 C2278 1.368 . S
C2273 C2257 1.349 . S
C2273 H2265 0.950 . S
C2273 C2271 1.327 . S
C2274 C2262 1.349 . S
C2274 H2268 0.950 . S
C2274 C2275 1.327 . S
C2275 H2269 0.950 . S
C2275 C2274 1.327 . S
C2275 C2279 1.429 . S
C2276 C2259 1.574 1_455 S
C2276 H2270 0.949 . S
C2276 C2280 1.368 . S
C2277 C2258 1.429 . S
C2277 C2271 1.429 . S
C2277 C2278 1.523 . S
C2278 C2259 1.368 . S
C2278 C2272 1.368 . S
C2278 C2277 1.523 . S
C2279 C2263 1.429 . S
C2279 C2275 1.429 . S
C2279 C2280 1.523 . S
C2280 C2264 1.368 . S
C2280 C2276 1.368 . S
C2280 C2279 1.523 . S
H2281 C2256 0.950 . S
H2282 C2258 0.950 . S
H2283 C2259 0.949 . S
H2284 C2261 0.950 . S
H2285 C2263 0.950 . S
C2286 C2287 1.349 . S
C2286 C2288 1.327 . S
C2286 H2311 0.950 . S
C2287 C2286 1.349 . S
C2287 C2303 1.349 . S
C2288 C2286 1.327 . S
C2288 C2307 1.429 . S
C2288 H2312 0.950 . S
C2289 C2306 1.574 1_545 S
C2289 C2308 1.368 . S
C2289 H2313 0.949 . S
H2290 C2294 0.949 . S
C2291 C2292 1.349 . S
C2291 C2293 1.327 . S
C2291 H2314 0.950 . S
C2292 C2291 1.349 . S
C2292 C2304 1.349 . S
C2293 C2291 1.327 . S
C2293 C2309 1.429 . S
C2293 H2315 0.950 . S
C2294 H2290 0.949 . S
C2294 C2302 1.574 1_565 S
C2294 C2310 1.368 . S
H2295 C2303 0.950 . S
H2296 C2301 0.950 . S
H2297 C2302 0.949 . S
H2298 C2304 0.950 . S
H2299 C2305 0.950 . S
H2300 C2306 0.949 . S
C2301 H2296 0.950 . S
C2301 C2303 1.327 . S
C2301 C2307 1.429 . S
C2302 C2294 1.574 1_545 S
C2302 H2297 0.949 . S
C2302 C2308 1.368 . S
C2303 C2287 1.349 . S
C2303 H2295 0.950 . S
C2303 C2301 1.327 . S
C2304 C2292 1.349 . S
C2304 H2298 0.950 . S
C2304 C2305 1.327 . S
C2305 H2299 0.950 . S
C2305 C2304 1.327 . S
C2305 C2309 1.429 . S
C2306 C2289 1.574 1_565 S
C2306 H2300 0.949 . S
C2306 C2310 1.368 . S
C2307 C2288 1.429 . S
C2307 C2301 1.429 . S
C2307 C2308 1.523 . S
C2308 C2289 1.368 . S
C2308 C2302 1.368 . S
C2308 C2307 1.523 . S
C2309 C2293 1.429 . S
C2309 C2305 1.429 . S
C2309 C2310 1.523 . S
C2310 C2294 1.368 . S
C2310 C2306 1.368 . S
C2310 C2309 1.523 . S
H2311 C2286 0.950 . S
H2312 C2288 0.950 . S
H2313 C2289 0.949 . S
H2314 C2291 0.950 . S
H2315 C2293 0.950 . S
C2316 C2317 1.349 . S
C2316 C2318 1.327 . S
C2316 H2341 0.950 . S
C2317 C2316 1.349 . S
C2317 C2333 1.349 . S
C2318 C2316 1.327 . S
C2318 C2337 1.429 . S
C2318 H2342 0.950 . S
C2319 C2336 1.574 . S
C2319 C2338 1.368 . S
C2319 H2343 0.949 . S
H2320 C2324 0.949 . S
C2321 C2322 1.349 . S
C2321 C2323 1.327 . S
C2321 H2344 0.950 . S
C2322 C2321 1.349 . S
C2322 C2334 1.349 . S
C2323 C2321 1.327 . S
C2323 C2339 1.429 . S
C2323 H2345 0.950 . S
C2324 H2320 0.949 . S
C2324 C2332 1.574 . S
C2324 C2340 1.368 . S
H2325 C2333 0.950 . S
H2326 C2331 0.950 . S
H2327 C2332 0.949 . S
H2328 C2334 0.950 . S
H2329 C2335 0.950 . S
H2330 C2336 0.949 . S
C2331 H2326 0.950 . S
C2331 C2333 1.327 . S
C2331 C2337 1.429 . S
C2332 C2324 1.574 . S
C2332 H2327 0.949 . S
C2332 C2338 1.368 . S
C2333 C2317 1.349 . S
C2333 H2325 0.950 . S
C2333 C2331 1.327 . S
C2334 C2322 1.349 . S
C2334 H2328 0.950 . S
C2334 C2335 1.327 . S
C2335 H2329 0.950 . S
C2335 C2334 1.327 . S
C2335 C2339 1.429 . S
C2336 C2319 1.574 . S
C2336 H2330 0.949 . S
C2336 C2340 1.368 . S
C2337 C2318 1.429 . S
C2337 C2331 1.429 . S
C2337 C2338 1.523 . S
C2338 C2319 1.368 . S
C2338 C2332 1.368 . S
C2338 C2337 1.523 . S
C2339 C2323 1.429 . S
C2339 C2335 1.429 . S
C2339 C2340 1.523 . S
C2340 C2324 1.368 . S
C2340 C2336 1.368 . S
C2340 C2339 1.523 . S
H2341 C2316 0.950 . S
H2342 C2318 0.950 . S
H2343 C2319 0.949 . S
H2344 C2321 0.950 . S
H2345 C2323 0.950 . S
C2346 C2347 1.349 . S
C2346 C2348 1.327 . S
C2346 H2371 0.950 . S
C2347 C2346 1.349 . S
C2347 C2363 1.349 . S
C2348 C2346 1.327 . S
C2348 C2367 1.429 . S
C2348 H2372 0.950 . S
C2349 C2366 1.574 1_655 S
C2349 C2368 1.368 . S
C2349 H2373 0.949 . S
H2350 C2354 0.949 . S
C2351 C2352 1.349 . S
C2351 C2353 1.327 . S
C2351 H2374 0.950 . S
C2352 C2351 1.349 . S
C2352 C2364 1.349 . S
C2353 C2351 1.327 . S
C2353 C2369 1.429 . S
C2353 H2375 0.950 . S
C2354 H2350 0.949 . S
C2354 C2362 1.574 1_455 S
C2354 C2370 1.368 . S
H2355 C2363 0.950 . S
H2356 C2361 0.950 . S
H2357 C2362 0.949 . S
H2358 C2364 0.950 . S
H2359 C2365 0.950 . S
H2360 C2366 0.949 . S
C2361 H2356 0.950 . S
C2361 C2363 1.327 . S
C2361 C2367 1.429 . S
C2362 C2354 1.574 1_655 S
C2362 H2357 0.949 . S
C2362 C2368 1.368 . S
C2363 C2347 1.349 . S
C2363 H2355 0.950 . S
C2363 C2361 1.327 . S
C2364 C2352 1.349 . S
C2364 H2358 0.950 . S
C2364 C2365 1.327 . S
C2365 H2359 0.950 . S
C2365 C2364 1.327 . S
C2365 C2369 1.429 . S
C2366 C2349 1.574 1_455 S
C2366 H2360 0.949 . S
C2366 C2370 1.368 . S
C2367 C2348 1.429 . S
C2367 C2361 1.429 . S
C2367 C2368 1.523 . S
C2368 C2349 1.368 . S
C2368 C2362 1.368 . S
C2368 C2367 1.523 . S
C2369 C2353 1.429 . S
C2369 C2365 1.429 . S
C2369 C2370 1.523 . S
C2370 C2354 1.368 . S
C2370 C2366 1.368 . S
C2370 C2369 1.523 . S
H2371 C2346 0.950 . S
H2372 C2348 0.950 . S
H2373 C2349 0.949 . S
H2374 C2351 0.950 . S
H2375 C2353 0.950 . S
C2376 C2377 1.349 . S
C2376 C2378 1.327 . S
C2376 H2401 0.950 . S
C2377 C2376 1.349 . S
C2377 C2393 1.349 . S
C2378 C2376 1.327 . S
C2378 C2397 1.429 . S
C2378 H2402 0.950 . S
C2379 C2396 1.574 1_545 S
C2379 C2398 1.368 . S
C2379 H2403 0.949 . S
H2380 C2384 0.949 . S
C2381 C2382 1.349 . S
C2381 C2383 1.327 . S
C2381 H2404 0.950 . S
C2382 C2381 1.349 . S
C2382 C2394 1.349 . S
C2383 C2381 1.327 . S
C2383 C2399 1.429 . S
C2383 H2405 0.950 . S
C2384 H2380 0.949 . S
C2384 C2392 1.574 1_565 S
C2384 C2400 1.368 . S
H2385 C2393 0.950 . S
H2386 C2391 0.950 . S
H2387 C2392 0.949 . S
H2388 C2394 0.950 . S
H2389 C2395 0.950 . S
H2390 C2396 0.949 . S
C2391 H2386 0.950 . S
C2391 C2393 1.327 . S
C2391 C2397 1.429 . S
C2392 C2384 1.574 1_545 S
C2392 H2387 0.949 . S
C2392 C2398 1.368 . S
C2393 C2377 1.349 . S
C2393 H2385 0.950 . S
C2393 C2391 1.327 . S
C2394 C2382 1.349 . S
C2394 H2388 0.950 . S
C2394 C2395 1.327 . S
C2395 H2389 0.950 . S
C2395 C2394 1.327 . S
C2395 C2399 1.429 . S
C2396 C2379 1.574 1_565 S
C2396 H2390 0.949 . S
C2396 C2400 1.368 . S
C2397 C2378 1.429 . S
C2397 C2391 1.429 . S
C2397 C2398 1.523 . S
C2398 C2379 1.368 . S
C2398 C2392 1.368 . S
C2398 C2397 1.523 . S
C2399 C2383 1.429 . S
C2399 C2395 1.429 . S
C2399 C2400 1.523 . S
C2400 C2384 1.368 . S
C2400 C2396 1.368 . S
C2400 C2399 1.523 . S
H2401 C2376 0.950 . S
H2402 C2378 0.950 . S
H2403 C2379 0.949 . S
H2404 C2381 0.950 . S
H2405 C2383 0.950 . S
C2406 C2407 1.349 . S
C2406 C2408 1.327 . S
C2406 H2431 0.950 . S
C2407 C2406 1.349 . S
C2407 C2423 1.349 . S
C2408 C2406 1.327 . S
C2408 C2427 1.429 . S
C2408 H2432 0.950 . S
C2409 C2426 1.574 . S
C2409 C2428 1.368 . S
C2409 H2433 0.949 . S
H2410 C2414 0.949 . S
C2411 C2412 1.349 . S
C2411 C2413 1.327 . S
C2411 H2434 0.950 . S
C2412 C2411 1.349 . S
C2412 C2424 1.349 . S
C2413 C2411 1.327 . S
C2413 C2429 1.429 . S
C2413 H2435 0.950 . S
C2414 H2410 0.949 . S
C2414 C2422 1.574 . S
C2414 C2430 1.368 . S
H2415 C2423 0.950 . S
H2416 C2421 0.950 . S
H2417 C2422 0.949 . S
H2418 C2424 0.950 . S
H2419 C2425 0.950 . S
H2420 C2426 0.949 . S
C2421 H2416 0.950 . S
C2421 C2423 1.327 . S
C2421 C2427 1.429 . S
C2422 C2414 1.574 . S
C2422 H2417 0.949 . S
C2422 C2428 1.368 . S
C2423 C2407 1.349 . S
C2423 H2415 0.950 . S
C2423 C2421 1.327 . S
C2424 C2412 1.349 . S
C2424 H2418 0.950 . S
C2424 C2425 1.327 . S
C2425 H2419 0.950 . S
C2425 C2424 1.327 . S
C2425 C2429 1.429 . S
C2426 C2409 1.574 . S
C2426 H2420 0.949 . S
C2426 C2430 1.368 . S
C2427 C2408 1.429 . S
C2427 C2421 1.429 . S
C2427 C2428 1.523 . S
C2428 C2409 1.368 . S
C2428 C2422 1.368 . S
C2428 C2427 1.523 . S
C2429 C2413 1.429 . S
C2429 C2425 1.429 . S
C2429 C2430 1.523 . S
C2430 C2414 1.368 . S
C2430 C2426 1.368 . S
C2430 C2429 1.523 . S
H2431 C2406 0.950 . S
H2432 C2408 0.950 . S
H2433 C2409 0.949 . S
H2434 C2411 0.950 . S
H2435 C2413 0.950 . S
C2436 C2437 1.349 . S
C2436 C2438 1.327 . S
C2436 H2461 0.950 . S
C2437 C2436 1.349 . S
C2437 C2453 1.349 . S
C2438 C2436 1.327 . S
C2438 C2457 1.429 . S
C2438 H2462 0.950 . S
C2439 C2456 1.574 1_455 S
C2439 C2458 1.368 . S
C2439 H2463 0.949 . S
H2440 C2444 0.949 . S
C2441 C2442 1.349 . S
C2441 C2443 1.327 . S
C2441 H2464 0.950 . S
C2442 C2441 1.349 . S
C2442 C2454 1.349 . S
C2443 C2441 1.327 . S
C2443 C2459 1.429 . S
C2443 H2465 0.950 . S
C2444 H2440 0.949 . S
C2444 C2452 1.574 1_655 S
C2444 C2460 1.368 . S
H2445 C2453 0.950 . S
H2446 C2451 0.950 . S
H2447 C2452 0.949 . S
H2448 C2454 0.950 . S
H2449 C2455 0.950 . S
H2450 C2456 0.949 . S
C2451 H2446 0.950 . S
C2451 C2453 1.327 . S
C2451 C2457 1.429 . S
C2452 C2444 1.574 1_455 S
C2452 H2447 0.949 . S
C2452 C2458 1.368 . S
C2453 C2437 1.349 . S
C2453 H2445 0.950 . S
C2453 C2451 1.327 . S
C2454 C2442 1.349 . S
C2454 H2448 0.950 . S
C2454 C2455 1.327 . S
C2455 H2449 0.950 . S
C2455 C2454 1.327 . S
C2455 C2459 1.429 . S
C2456 C2439 1.574 1_655 S
C2456 H2450 0.949 . S
C2456 C2460 1.368 . S
C2457 C2438 1.429 . S
C2457 C2451 1.429 . S
C2457 C2458 1.523 . S
C2458 C2439 1.368 . S
C2458 C2452 1.368 . S
C2458 C2457 1.523 . S
C2459 C2443 1.429 . S
C2459 C2455 1.429 . S
C2459 C2460 1.523 . S
C2460 C2444 1.368 . S
C2460 C2456 1.368 . S
C2460 C2459 1.523 . S
H2461 C2436 0.950 . S
H2462 C2438 0.950 . S
H2463 C2439 0.949 . S
H2464 C2441 0.950 . S
H2465 C2443 0.950 . S
C2466 C2467 1.349 . S
C2466 C2468 1.327 . S
C2466 H2491 0.950 . S
C2467 C2466 1.349 . S
C2467 C2483 1.349 . S
C2468 C2466 1.327 . S
C2468 C2487 1.429 . S
C2468 H2492 0.950 . S
C2469 C2486 1.574 1_565 S
C2469 C2488 1.368 . S
C2469 H2493 0.949 . S
H2470 C2474 0.949 . S
C2471 C2472 1.349 . S
C2471 C2473 1.327 . S
C2471 H2494 0.950 . S
C2472 C2471 1.349 . S
C2472 C2484 1.349 . S
C2473 C2471 1.327 . S
C2473 C2489 1.429 . S
C2473 H2495 0.950 . S
C2474 H2470 0.949 . S
C2474 C2482 1.574 1_545 S
C2474 C2490 1.368 . S
H2475 C2483 0.950 . S
H2476 C2481 0.950 . S
H2477 C2482 0.949 . S
H2478 C2484 0.950 . S
H2479 C2485 0.950 . S
H2480 C2486 0.949 . S
C2481 H2476 0.950 . S
C2481 C2483 1.327 . S
C2481 C2487 1.429 . S
C2482 C2474 1.574 1_565 S
C2482 H2477 0.949 . S
C2482 C2488 1.368 . S
C2483 C2467 1.349 . S
C2483 H2475 0.950 . S
C2483 C2481 1.327 . S
C2484 C2472 1.349 . S
C2484 H2478 0.950 . S
C2484 C2485 1.327 . S
C2485 H2479 0.950 . S
C2485 C2484 1.327 . S
C2485 C2489 1.429 . S
C2486 C2469 1.574 1_545 S
C2486 H2480 0.949 . S
C2486 C2490 1.368 . S
C2487 C2468 1.429 . S
C2487 C2481 1.429 . S
C2487 C2488 1.523 . S
C2488 C2469 1.368 . S
C2488 C2482 1.368 . S
C2488 C2487 1.523 . S
C2489 C2473 1.429 . S
C2489 C2485 1.429 . S
C2489 C2490 1.523 . S
C2490 C2474 1.368 . S
C2490 C2486 1.368 . S
C2490 C2489 1.523 . S
H2491 C2466 0.950 . S
H2492 C2468 0.950 . S
H2493 C2469 0.949 . S
H2494 C2471 0.950 . S
H2495 C2473 0.950 . S
C2496 C2497 1.349 . S
C2496 C2498 1.327 . S
C2496 H2521 0.950 . S
C2497 C2496 1.349 . S
C2497 C2513 1.349 . S
C2498 C2496 1.327 . S
C2498 C2517 1.429 . S
C2498 H2522 0.950 . S
C2499 C2516 1.574 . S
C2499 C2518 1.368 1_554 S
C2499 H2523 0.949 . S
H2500 C2504 0.949 . S
C2501 C2502 1.349 . S
C2501 C2503 1.327 . S
C2501 H2524 0.950 . S
C2502 C2501 1.349 . S
C2502 C2514 1.349 . S
C2503 C2501 1.327 . S
C2503 C2519 1.429 . S
C2503 H2525 0.950 . S
C2504 H2500 0.949 . S
C2504 C2512 1.574 . S
C2504 C2520 1.368 1_556 S
H2505 C2513 0.950 . S
H2506 C2511 0.950 1_554 S
H2507 C2512 0.949 . S
H2508 C2514 0.950 . S
H2509 C2515 0.950 1_556 S
H2510 C2516 0.949 . S
C2511 H2506 0.950 1_556 S
C2511 C2513 1.327 . S
C2511 C2517 1.429 . S
C2512 C2504 1.574 . S
C2512 H2507 0.949 . S
C2512 C2518 1.368 . S
C2513 C2497 1.349 . S
C2513 H2505 0.950 . S
C2513 C2511 1.327 . S
C2514 C2502 1.349 . S
C2514 H2508 0.950 . S
C2514 C2515 1.327 . S
C2515 H2509 0.950 1_554 S
C2515 C2514 1.327 . S
C2515 C2519 1.429 . S
C2516 C2499 1.574 . S
C2516 H2510 0.949 . S
C2516 C2520 1.368 . S
C2517 C2498 1.429 . S
C2517 C2511 1.429 . S
C2517 C2518 1.523 . S
C2518 C2499 1.368 1_556 S
C2518 C2512 1.368 . S
C2518 C2517 1.523 . S
C2519 C2503 1.429 . S
C2519 C2515 1.429 . S
C2519 C2520 1.523 . S
C2520 C2504 1.368 1_554 S
C2520 C2516 1.368 . S
C2520 C2519 1.523 . S
H2521 C2496 0.950 . S
H2522 C2498 0.950 . S
H2523 C2499 0.949 . S
H2524 C2501 0.950 . S
H2525 C2503 0.950 . S
C2526 C2527 1.349 . S
C2526 C2528 1.327 . S
C2526 H2551 0.950 . S
C2527 C2526 1.349 . S
C2527 C2543 1.349 . S
C2528 C2526 1.327 . S
C2528 C2547 1.429 . S
C2528 H2552 0.950 . S
C2529 C2546 1.574 . S
C2529 C2548 1.368 . S
C2529 H2553 0.949 . S
H2530 C2534 0.949 . S
C2531 C2532 1.349 . S
C2531 C2533 1.327 . S
C2531 H2554 0.950 . S
C2532 C2531 1.349 . S
C2532 C2544 1.349 . S
C2533 C2531 1.327 . S
C2533 C2549 1.429 . S
C2533 H2555 0.950 . S
C2534 H2530 0.949 . S
C2534 C2542 1.574 . S
C2534 C2550 1.368 . S
H2535 C2543 0.950 . S
H2536 C2541 0.950 . S
H2537 C2542 0.949 . S
H2538 C2544 0.950 . S
H2539 C2545 0.950 . S
H2540 C2546 0.949 . S
C2541 H2536 0.950 . S
C2541 C2543 1.327 . S
C2541 C2547 1.429 . S
C2542 C2534 1.574 . S
C2542 H2537 0.949 . S
C2542 C2548 1.368 . S
C2543 C2527 1.349 . S
C2543 H2535 0.950 . S
C2543 C2541 1.327 . S
C2544 C2532 1.349 . S
C2544 H2538 0.950 . S
C2544 C2545 1.327 . S
C2545 H2539 0.950 . S
C2545 C2544 1.327 . S
C2545 C2549 1.429 . S
C2546 C2529 1.574 . S
C2546 H2540 0.949 . S
C2546 C2550 1.368 . S
C2547 C2528 1.429 . S
C2547 C2541 1.429 . S
C2547 C2548 1.523 . S
C2548 C2529 1.368 . S
C2548 C2542 1.368 . S
C2548 C2547 1.523 . S
C2549 C2533 1.429 . S
C2549 C2545 1.429 . S
C2549 C2550 1.523 . S
C2550 C2534 1.368 . S
C2550 C2546 1.368 . S
C2550 C2549 1.523 . S
H2551 C2526 0.950 . S
H2552 C2528 0.950 . S
H2553 C2529 0.949 . S
H2554 C2531 0.950 . S
H2555 C2533 0.950 . S
C2556 C2557 1.349 . S
C2556 C2558 1.327 . S
C2556 H2581 0.950 . S
C2557 C2556 1.349 . S
C2557 C2573 1.349 . S
C2558 C2556 1.327 . S
C2558 C2577 1.429 . S
C2558 H2582 0.950 . S
C2559 C2576 1.574 . S
C2559 C2578 1.368 . S
C2559 H2583 0.949 . S
H2560 C2564 0.949 . S
C2561 C2562 1.349 . S
C2561 C2563 1.327 . S
C2561 H2584 0.950 . S
C2562 C2561 1.349 . S
C2562 C2574 1.349 . S
C2563 C2561 1.327 . S
C2563 C2579 1.429 . S
C2563 H2585 0.950 . S
C2564 H2560 0.949 . S
C2564 C2572 1.574 . S
C2564 C2580 1.368 . S
H2565 C2573 0.950 . S
H2566 C2571 0.950 . S
H2567 C2572 0.949 . S
H2568 C2574 0.950 . S
H2569 C2575 0.950 . S
H2570 C2576 0.949 . S
C2571 H2566 0.950 . S
C2571 C2573 1.327 . S
C2571 C2577 1.429 . S
C2572 C2564 1.574 . S
C2572 H2567 0.949 . S
C2572 C2578 1.368 1_554 S
C2573 C2557 1.349 . S
C2573 H2565 0.950 . S
C2573 C2571 1.327 . S
C2574 C2562 1.349 . S
C2574 H2568 0.950 . S
C2574 C2575 1.327 . S
C2575 H2569 0.950 . S
C2575 C2574 1.327 . S
C2575 C2579 1.429 . S
C2576 C2559 1.574 . S
C2576 H2570 0.949 . S
C2576 C2580 1.368 1_556 S
C2577 C2558 1.429 . S
C2577 C2571 1.429 . S
C2577 C2578 1.523 . S
C2578 C2559 1.368 . S
C2578 C2572 1.368 1_556 S
C2578 C2577 1.523 . S
C2579 C2563 1.429 . S
C2579 C2575 1.429 . S
C2579 C2580 1.523 . S
C2580 C2564 1.368 . S
C2580 C2576 1.368 1_554 S
C2580 C2579 1.523 . S
H2581 C2556 0.950 . S
H2582 C2558 0.950 . S
H2583 C2559 0.949 . S
H2584 C2561 0.950 . S
H2585 C2563 0.950 . S
C2586 C2587 1.349 . S
C2586 C2588 1.327 . S
C2586 H2611 0.950 . S
C2587 C2586 1.349 . S
C2587 C2603 1.349 . S
C2588 C2586 1.327 . S
C2588 C2607 1.429 . S
C2588 H2612 0.950 . S
C2589 C2606 1.574 . S
C2589 C2608 1.368 . S
C2589 H2613 0.949 . S
H2590 C2594 0.949 . S
C2591 C2592 1.349 . S
C2591 C2593 1.327 . S
C2591 H2614 0.950 . S
C2592 C2591 1.349 . S
C2592 C2604 1.349 . S
C2593 C2591 1.327 . S
C2593 C2609 1.429 . S
C2593 H2615 0.950 . S
C2594 H2590 0.949 . S
C2594 C2602 1.574 . S
C2594 C2610 1.368 . S
H2595 C2603 0.950 . S
H2596 C2601 0.950 . S
H2597 C2602 0.949 . S
H2598 C2604 0.950 . S
H2599 C2605 0.950 . S
H2600 C2606 0.949 . S
C2601 H2596 0.950 . S
C2601 C2603 1.327 . S
C2601 C2607 1.429 . S
C2602 C2594 1.574 . S
C2602 H2597 0.949 . S
C2602 C2608 1.368 . S
C2603 C2587 1.349 . S
C2603 H2595 0.950 . S
C2603 C2601 1.327 . S
C2604 C2592 1.349 . S
C2604 H2598 0.950 . S
C2604 C2605 1.327 . S
C2605 H2599 0.950 . S
C2605 C2604 1.327 . S
C2605 C2609 1.429 . S
C2606 C2589 1.574 . S
C2606 H2600 0.949 . S
C2606 C2610 1.368 . S
C2607 C2588 1.429 . S
C2607 C2601 1.429 . S
C2607 C2608 1.523 . S
C2608 C2589 1.368 . S
C2608 C2602 1.368 . S
C2608 C2607 1.523 . S
C2609 C2593 1.429 . S
C2609 C2605 1.429 . S
C2609 C2610 1.523 . S
C2610 C2594 1.368 . S
C2610 C2606 1.368 . S
C2610 C2609 1.523 . S
H2611 C2586 0.950 . S
H2612 C2588 0.950 . S
H2613 C2589 0.949 . S
H2614 C2591 0.950 . S
H2615 C2593 0.950 . S
C2616 C2617 1.349 . S
C2616 C2618 1.327 . S
C2616 H2641 0.950 . S
C2617 C2616 1.349 . S
C2617 C2633 1.349 . S
C2618 C2616 1.327 . S
C2618 C2637 1.429 . S
C2618 H2642 0.950 1_556 S
C2619 C2636 1.574 . S
C2619 C2638 1.368 . S
C2619 H2643 0.949 . S
H2620 C2624 0.949 . S
C2621 C2622 1.349 . S
C2621 C2623 1.327 . S
C2621 H2644 0.950 . S
C2622 C2621 1.349 . S
C2622 C2634 1.349 . S
C2623 C2621 1.327 . S
C2623 C2639 1.429 . S
C2623 H2645 0.950 1_554 S
C2624 H2620 0.949 . S
C2624 C2632 1.574 . S
C2624 C2640 1.368 . S
H2625 C2633 0.950 . S
H2626 C2631 0.950 . S
H2627 C2632 0.949 . S
H2628 C2634 0.950 . S
H2629 C2635 0.950 . S
H2630 C2636 0.949 . S
C2631 H2626 0.950 . S
C2631 C2633 1.327 . S
C2631 C2637 1.429 . S
C2632 C2624 1.574 . S
C2632 H2627 0.949 . S
C2632 C2638 1.368 1_554 S
C2633 C2617 1.349 . S
C2633 H2625 0.950 . S
C2633 C2631 1.327 . S
C2634 C2622 1.349 . S
C2634 H2628 0.950 . S
C2634 C2635 1.327 . S
C2635 H2629 0.950 . S
C2635 C2634 1.327 . S
C2635 C2639 1.429 . S
C2636 C2619 1.574 . S
C2636 H2630 0.949 . S
C2636 C2640 1.368 1_556 S
C2637 C2618 1.429 . S
C2637 C2631 1.429 . S
C2637 C2638 1.523 . S
C2638 C2619 1.368 . S
C2638 C2632 1.368 1_556 S
C2638 C2637 1.523 . S
C2639 C2623 1.429 . S
C2639 C2635 1.429 . S
C2639 C2640 1.523 . S
C2640 C2624 1.368 . S
C2640 C2636 1.368 1_554 S
C2640 C2639 1.523 . S
H2641 C2616 0.950 . S
H2642 C2618 0.950 1_554 S
H2643 C2619 0.949 . S
H2644 C2621 0.950 . S
H2645 C2623 0.950 1_556 S
C2646 C2647 1.349 . S
C2646 C2648 1.327 . S
C2646 H2671 0.950 . S
C2647 C2646 1.349 . S
C2647 C2663 1.349 . S
C2648 C2646 1.327 . S
C2648 C2667 1.429 . S
C2648 H2672 0.950 . S
C2649 C2666 1.574 . S
C2649 C2668 1.368 . S
C2649 H2673 0.949 . S
H2650 C2654 0.949 . S
C2651 C2652 1.349 . S
C2651 C2653 1.327 . S
C2651 H2674 0.950 . S
C2652 C2651 1.349 . S
C2652 C2664 1.349 . S
C2653 C2651 1.327 . S
C2653 C2669 1.429 . S
C2653 H2675 0.950 . S
C2654 H2650 0.949 . S
C2654 C2662 1.574 . S
C2654 C2670 1.368 . S
H2655 C2663 0.950 . S
H2656 C2661 0.950 . S
H2657 C2662 0.949 . S
H2658 C2664 0.950 . S
H2659 C2665 0.950 . S
H2660 C2666 0.949 . S
C2661 H2656 0.950 . S
C2661 C2663 1.327 . S
C2661 C2667 1.429 . S
C2662 C2654 1.574 . S
C2662 H2657 0.949 . S
C2662 C2668 1.368 . S
C2663 C2647 1.349 . S
C2663 H2655 0.950 . S
C2663 C2661 1.327 . S
C2664 C2652 1.349 . S
C2664 H2658 0.950 . S
C2664 C2665 1.327 . S
C2665 H2659 0.950 . S
C2665 C2664 1.327 . S
C2665 C2669 1.429 . S
C2666 C2649 1.574 . S
C2666 H2660 0.949 . S
C2666 C2670 1.368 . S
C2667 C2648 1.429 . S
C2667 C2661 1.429 . S
C2667 C2668 1.523 . S
C2668 C2649 1.368 . S
C2668 C2662 1.368 . S
C2668 C2667 1.523 . S
C2669 C2653 1.429 . S
C2669 C2665 1.429 . S
C2669 C2670 1.523 . S
C2670 C2654 1.368 . S
C2670 C2666 1.368 . S
C2670 C2669 1.523 . S
H2671 C2646 0.950 . S
H2672 C2648 0.950 . S
H2673 C2649 0.949 . S
H2674 C2651 0.950 . S
H2675 C2653 0.950 . S
C2676 C2677 1.349 . S
C2676 C2678 1.327 . S
C2676 H2701 0.950 . S
C2677 C2676 1.349 . S
C2677 C2693 1.349 . S
C2678 C2676 1.327 . S
C2678 C2697 1.429 . S
C2678 H2702 0.950 . S
C2679 C2696 1.574 . S
C2679 C2698 1.368 1_556 S
C2679 H2703 0.949 . S
H2680 C2684 0.949 . S
C2681 C2682 1.349 . S
C2681 C2683 1.327 . S
C2681 H2704 0.950 . S
C2682 C2681 1.349 . S
C2682 C2694 1.349 . S
C2683 C2681 1.327 . S
C2683 C2699 1.429 . S
C2683 H2705 0.950 . S
C2684 H2680 0.949 . S
C2684 C2692 1.574 . S
C2684 C2700 1.368 1_554 S
H2685 C2693 0.950 . S
H2686 C2691 0.950 . S
H2687 C2692 0.949 . S
H2688 C2694 0.950 . S
H2689 C2695 0.950 . S
H2690 C2696 0.949 . S
C2691 H2686 0.950 . S
C2691 C2693 1.327 . S
C2691 C2697 1.429 . S
C2692 C2684 1.574 . S
C2692 H2687 0.949 . S
C2692 C2698 1.368 . S
C2693 C2677 1.349 . S
C2693 H2685 0.950 . S
C2693 C2691 1.327 . S
C2694 C2682 1.349 . S
C2694 H2688 0.950 . S
C2694 C2695 1.327 . S
C2695 H2689 0.950 . S
C2695 C2694 1.327 . S
C2695 C2699 1.429 . S
C2696 C2679 1.574 . S
C2696 H2690 0.949 . S
C2696 C2700 1.368 . S
C2697 C2678 1.429 . S
C2697 C2691 1.429 . S
C2697 C2698 1.523 . S
C2698 C2679 1.368 1_554 S
C2698 C2692 1.368 . S
C2698 C2697 1.523 . S
C2699 C2683 1.429 . S
C2699 C2695 1.429 . S
C2699 C2700 1.523 . S
C2700 C2684 1.368 1_556 S
C2700 C2696 1.368 . S
C2700 C2699 1.523 . S
H2701 C2676 0.950 . S
H2702 C2678 0.950 . S
H2703 C2679 0.949 . S
H2704 C2681 0.950 . S
H2705 C2683 0.950 . S
C2706 C2707 1.349 . S
C2706 C2708 1.327 . S
C2706 H2731 0.950 . S
C2707 C2706 1.349 . S
C2707 C2723 1.349 . S
C2708 C2706 1.327 . S
C2708 C2727 1.429 . S
C2708 H2732 0.950 . S
C2709 C2726 1.574 . S
C2709 C2728 1.368 . S
C2709 H2733 0.949 . S
H2710 C2714 0.949 . S
C2711 C2712 1.349 . S
C2711 C2713 1.327 . S
C2711 H2734 0.950 . S
C2712 C2711 1.349 . S
C2712 C2724 1.349 . S
C2713 C2711 1.327 . S
C2713 C2729 1.429 . S
C2713 H2735 0.950 . S
C2714 H2710 0.949 . S
C2714 C2722 1.574 . S
C2714 C2730 1.368 . S
H2715 C2723 0.950 . S
H2716 C2721 0.950 . S
H2717 C2722 0.949 . S
H2718 C2724 0.950 . S
H2719 C2725 0.950 . S
H2720 C2726 0.949 . S
C2721 H2716 0.950 . S
C2721 C2723 1.327 . S
C2721 C2727 1.429 . S
C2722 C2714 1.574 . S
C2722 H2717 0.949 . S
C2722 C2728 1.368 . S
C2723 C2707 1.349 . S
C2723 H2715 0.950 . S
C2723 C2721 1.327 . S
C2724 C2712 1.349 . S
C2724 H2718 0.950 . S
C2724 C2725 1.327 . S
C2725 H2719 0.950 . S
C2725 C2724 1.327 . S
C2725 C2729 1.429 . S
C2726 C2709 1.574 . S
C2726 H2720 0.949 . S
C2726 C2730 1.368 . S
C2727 C2708 1.429 . S
C2727 C2721 1.429 . S
C2727 C2728 1.523 . S
C2728 C2709 1.368 . S
C2728 C2722 1.368 . S
C2728 C2727 1.523 . S
C2729 C2713 1.429 . S
C2729 C2725 1.429 . S
C2729 C2730 1.523 . S
C2730 C2714 1.368 . S
C2730 C2726 1.368 . S
C2730 C2729 1.523 . S
H2731 C2706 0.950 . S
H2732 C2708 0.950 . S
H2733 C2709 0.949 . S
H2734 C2711 0.950 . S
H2735 C2713 0.950 . S
C2736 C2737 1.349 . S
C2736 C2738 1.327 . S
C2736 H2761 0.950 . S
C2737 C2736 1.349 . S
C2737 C2753 1.349 . S
C2738 C2736 1.327 . S
C2738 C2757 1.429 . S
C2738 H2762 0.950 . S
C2739 C2756 1.574 . S
C2739 C2758 1.368 . S
C2739 H2763 0.949 . S
H2740 C2744 0.949 . S
C2741 C2742 1.349 . S
C2741 C2743 1.327 . S
C2741 H2764 0.950 . S
C2742 C2741 1.349 . S
C2742 C2754 1.349 . S
C2743 C2741 1.327 . S
C2743 C2759 1.429 . S
C2743 H2765 0.950 . S
C2744 H2740 0.949 . S
C2744 C2752 1.574 . S
C2744 C2760 1.368 . S
H2745 C2753 0.950 . S
H2746 C2751 0.950 . S
H2747 C2752 0.949 . S
H2748 C2754 0.950 . S
H2749 C2755 0.950 . S
H2750 C2756 0.949 . S
C2751 H2746 0.950 . S
C2751 C2753 1.327 . S
C2751 C2757 1.429 . S
C2752 C2744 1.574 . S
C2752 H2747 0.949 . S
C2752 C2758 1.368 1_556 S
C2753 C2737 1.349 . S
C2753 H2745 0.950 . S
C2753 C2751 1.327 . S
C2754 C2742 1.349 . S
C2754 H2748 0.950 . S
C2754 C2755 1.327 . S
C2755 H2749 0.950 . S
C2755 C2754 1.327 . S
C2755 C2759 1.429 . S
C2756 C2739 1.574 . S
C2756 H2750 0.949 . S
C2756 C2760 1.368 1_554 S
C2757 C2738 1.429 . S
C2757 C2751 1.429 . S
C2757 C2758 1.523 . S
C2758 C2739 1.368 . S
C2758 C2752 1.368 1_554 S
C2758 C2757 1.523 . S
C2759 C2743 1.429 . S
C2759 C2755 1.429 . S
C2759 C2760 1.523 . S
C2760 C2744 1.368 . S
C2760 C2756 1.368 1_556 S
C2760 C2759 1.523 . S
H2761 C2736 0.950 . S
H2762 C2738 0.950 . S
H2763 C2739 0.949 . S
H2764 C2741 0.950 . S
H2765 C2743 0.950 . S
C2766 C2767 1.349 . S
C2766 C2768 1.327 . S
C2766 H2791 0.950 . S
C2767 C2766 1.349 . S
C2767 C2783 1.349 . S
C2768 C2766 1.327 . S
C2768 C2787 1.429 . S
C2768 H2792 0.950 . S
C2769 C2786 1.574 . S
C2769 C2788 1.368 . S
C2769 H2793 0.949 . S
H2770 C2774 0.949 . S
C2771 C2772 1.349 . S
C2771 C2773 1.327 . S
C2771 H2794 0.950 . S
C2772 C2771 1.349 . S
C2772 C2784 1.349 . S
C2773 C2771 1.327 . S
C2773 C2789 1.429 . S
C2773 H2795 0.950 . S
C2774 H2770 0.949 . S
C2774 C2782 1.574 . S
C2774 C2790 1.368 . S
H2775 C2783 0.950 . S
H2776 C2781 0.950 . S
H2777 C2782 0.949 . S
H2778 C2784 0.950 . S
H2779 C2785 0.950 . S
H2780 C2786 0.949 . S
C2781 H2776 0.950 . S
C2781 C2783 1.327 . S
C2781 C2787 1.429 . S
C2782 C2774 1.574 . S
C2782 H2777 0.949 . S
C2782 C2788 1.368 . S
C2783 C2767 1.349 . S
C2783 H2775 0.950 . S
C2783 C2781 1.327 . S
C2784 C2772 1.349 . S
C2784 H2778 0.950 . S
C2784 C2785 1.327 . S
C2785 H2779 0.950 . S
C2785 C2784 1.327 . S
C2785 C2789 1.429 . S
C2786 C2769 1.574 . S
C2786 H2780 0.949 . S
C2786 C2790 1.368 . S
C2787 C2768 1.429 . S
C2787 C2781 1.429 . S
C2787 C2788 1.523 . S
C2788 C2769 1.368 . S
C2788 C2782 1.368 . S
C2788 C2787 1.523 . S
C2789 C2773 1.429 . S
C2789 C2785 1.429 . S
C2789 C2790 1.523 . S
C2790 C2774 1.368 . S
C2790 C2786 1.368 . S
C2790 C2789 1.523 . S
H2791 C2766 0.950 . S
H2792 C2768 0.950 . S
H2793 C2769 0.949 . S
H2794 C2771 0.950 . S
H2795 C2773 0.950 . S
C2796 C2797 1.349 . S
C2796 C2798 1.327 . S
C2796 H2821 0.950 . S
C2797 C2796 1.349 . S
C2797 C2813 1.349 . S
C2798 C2796 1.327 . S
C2798 C2817 1.429 . S
C2798 H2822 0.950 . S
C2799 C2816 1.574 . S
C2799 C2818 1.368 1_554 S
C2799 H2823 0.949 . S
H2800 C2804 0.949 . S
C2801 C2802 1.349 . S
C2801 C2803 1.327 . S
C2801 H2824 0.950 . S
C2802 C2801 1.349 . S
C2802 C2814 1.349 . S
C2803 C2801 1.327 . S
C2803 C2819 1.429 . S
C2803 H2825 0.950 . S
C2804 H2800 0.949 . S
C2804 C2812 1.574 . S
C2804 C2820 1.368 1_556 S
H2805 C2813 0.950 . S
H2806 C2811 0.950 1_554 S
H2807 C2812 0.949 . S
H2808 C2814 0.950 . S
H2809 C2815 0.950 1_556 S
H2810 C2816 0.949 . S
C2811 H2806 0.950 1_556 S
C2811 C2813 1.327 . S
C2811 C2817 1.429 . S
C2812 C2804 1.574 . S
C2812 H2807 0.949 . S
C2812 C2818 1.368 . S
C2813 C2797 1.349 . S
C2813 H2805 0.950 . S
C2813 C2811 1.327 . S
C2814 C2802 1.349 . S
C2814 H2808 0.950 . S
C2814 C2815 1.327 . S
C2815 H2809 0.950 1_554 S
C2815 C2814 1.327 . S
C2815 C2819 1.429 . S
C2816 C2799 1.574 . S
C2816 H2810 0.949 . S
C2816 C2820 1.368 . S
C2817 C2798 1.429 . S
C2817 C2811 1.429 . S
C2817 C2818 1.523 . S
C2818 C2799 1.368 1_556 S
C2818 C2812 1.368 . S
C2818 C2817 1.523 . S
C2819 C2803 1.429 . S
C2819 C2815 1.429 . S
C2819 C2820 1.523 . S
C2820 C2804 1.368 1_554 S
C2820 C2816 1.368 . S
C2820 C2819 1.523 . S
H2821 C2796 0.950 . S
H2822 C2798 0.950 . S
H2823 C2799 0.949 . S
H2824 C2801 0.950 . S
H2825 C2803 0.950 . S
C2826 C2827 1.349 . S
C2826 C2828 1.327 . S
C2826 H2851 0.950 . S
C2827 C2826 1.349 . S
C2827 C2843 1.349 . S
C2828 C2826 1.327 . S
C2828 C2847 1.429 . S
C2828 H2852 0.950 . S
C2829 C2846 1.574 . S
C2829 C2848 1.368 . S
C2829 H2853 0.949 . S
H2830 C2834 0.949 . S
C2831 C2832 1.349 . S
C2831 C2833 1.327 . S
C2831 H2854 0.950 . S
C2832 C2831 1.349 . S
C2832 C2844 1.349 . S
C2833 C2831 1.327 . S
C2833 C2849 1.429 . S
C2833 H2855 0.950 . S
C2834 H2830 0.949 . S
C2834 C2842 1.574 . S
C2834 C2850 1.368 . S
H2835 C2843 0.950 . S
H2836 C2841 0.950 . S
H2837 C2842 0.949 . S
H2838 C2844 0.950 . S
H2839 C2845 0.950 . S
H2840 C2846 0.949 . S
C2841 H2836 0.950 . S
C2841 C2843 1.327 . S
C2841 C2847 1.429 . S
C2842 C2834 1.574 . S
C2842 H2837 0.949 . S
C2842 C2848 1.368 . S
C2843 C2827 1.349 . S
C2843 H2835 0.950 . S
C2843 C2841 1.327 . S
C2844 C2832 1.349 . S
C2844 H2838 0.950 . S
C2844 C2845 1.327 . S
C2845 H2839 0.950 . S
C2845 C2844 1.327 . S
C2845 C2849 1.429 . S
C2846 C2829 1.574 . S
C2846 H2840 0.949 . S
C2846 C2850 1.368 . S
C2847 C2828 1.429 . S
C2847 C2841 1.429 . S
C2847 C2848 1.523 . S
C2848 C2829 1.368 . S
C2848 C2842 1.368 . S
C2848 C2847 1.523 . S
C2849 C2833 1.429 . S
C2849 C2845 1.429 . S
C2849 C2850 1.523 . S
C2850 C2834 1.368 . S
C2850 C2846 1.368 . S
C2850 C2849 1.523 . S
H2851 C2826 0.950 . S
H2852 C2828 0.950 . S
H2853 C2829 0.949 . S
H2854 C2831 0.950 . S
H2855 C2833 0.950 . S
C1417 C3 1.567 . S
C1422 C888 1.567 . S
C1447 C62 1.566 . S
C1452 C947 1.566 . S
C1477 C1006 1.567 . S
C1482 C121 1.567 . S
C1507 C711 1.567 . S
C1512 C180 1.567 . S
C1537 C770 1.566 . S
C1542 C239 1.566 . S
C1567 C829 1.567 . S
C1572 C298 1.567 . S
C1597 C1242 1.567 . S
C1602 C357 1.567 . S
C1627 C416 1.567 . S
C1632 C1301 1.567 . S
C1657 C1360 1.566 . S
C1662 C475 1.566 . S
C1687 C534 1.567 . S
C1692 C1065 1.567 . S
C1717 C1124 1.567 . S
C1722 C593 1.567 . S
C1747 C652 1.566 . S
C1752 C1183 1.566 . S
C1777 C595 1.530 . S
C1782 C5 1.530 . S
C1807 C654 1.528 . S
C1812 C64 1.528 . S
C1837 C123 1.530 . S
C1842 C359 1.530 . S
C1867 C182 1.530 . S
C1872 C418 1.530 . S
C1897 C477 1.528 . S
C1902 C241 1.528 . S
C1927 C300 1.530 . S
C1932 C536 1.530 . S
C1957 C1303 1.530 . S
C1962 C713 1.530 . S
C1987 C772 1.528 . S
C1992 C1362 1.528 . S
C2017 C831 1.530 . S
C2022 C1067 1.530 . S
C2047 C1126 1.530 . S
C2052 C890 1.530 . S
C2077 C949 1.528 . S
C2082 C1185 1.528 . S
C2107 C1008 1.530 . S
C2112 C1244 1.530 . S
C2137 C52 1.514 . S
C2142 C1114 1.514 . S
C2167 C1173 1.513 . S
C2172 C111 1.513 . S
C2197 C170 1.513 . S
C2202 C1232 1.513 . S
C2227 C229 1.514 . S
C2232 C1291 1.514 . S
C2257 C1350 1.513 . S
C2262 C288 1.513 . S
C2287 C347 1.513 . S
C2292 C1409 1.513 . S
C2317 C406 1.514 . S
C2322 C760 1.514 . S
C2347 C465 1.513 . S
C2352 C819 1.513 . S
C2377 C878 1.513 . S
C2382 C524 1.513 . S
C2407 C937 1.514 . S
C2412 C583 1.514 . S
C2437 C642 1.513 . S
C2442 C996 1.513 . S
C2467 C1055 1.513 . S
C2472 C701 1.513 . S
C2497 C387 1.566 . S
C2502 C33 1.566 . S
C2527 C92 1.566 . S
C2532 C446 1.566 . S
C2557 C505 1.566 . S
C2562 C151 1.566 . S
C2587 C564 1.566 . S
C2592 C210 1.566 . S
C2617 C623 1.566 . S
C2622 C269 1.566 . S
C2647 C328 1.566 . S
C2652 C682 1.566 . S
C2677 C1095 1.566 . S
C2682 C741 1.566 . S
C2707 C800 1.566 . S
C2712 C1154 1.566 . S
C2737 C1213 1.566 . S
C2742 C859 1.566 . S
C2767 C1272 1.566 . S
C2772 C918 1.566 . S
C2797 C977 1.566 . S
C2802 C1331 1.566 . S
C2827 C1036 1.566 . S
C2832 C1390 1.566 . S
