# Generated by pormake.
# Topology bcu-j, (5)-cn, num edge types: 1
# Building blocks:
#     Node 0, Type 0, BuildingBlock: XOMCOT_clean_sbu_1, # of connection points: 5
#     Node 1, Type 0, BuildingBlock: XOMCOT_clean_sbu_1, # of connection points: 5
#     Node 2, Type 0, BuildingBlock: XOMCOT_clean_sbu_1, # of connection points: 5
#     Node 3, Type 0, BuildingBlock: XOMCOT_clean_sbu_1, # of connection points: 5
#     Node 4, Type 0, BuildingBlock: XOMCOT_clean_sbu_1, # of connection points: 5
#     Node 5, Type 0, BuildingBlock: XOMCOT_clean_sbu_1, # of connection points: 5
#     Node 6, Type 0, BuildingBlock: XOMCOT_clean_sbu_1, # of connection points: 5
#     Node 7, Type 0, BuildingBlock: XOMCOT_clean_sbu_1, # of connection points: 5
#     Node 8, Type 0, BuildingBlock: XOMCOT_clean_sbu_1, # of connection points: 5
#     Node 9, Type 0, BuildingBlock: XOMCOT_clean_sbu_1, # of connection points: 5
#     Node 10, Type 0, BuildingBlock: XOMCOT_clean_sbu_1, # of connection points: 5
#     Node 11, Type 0, BuildingBlock: XOMCOT_clean_sbu_1, # of connection points: 5
#     Node 12, Type 0, BuildingBlock: XOMCOT_clean_sbu_1, # of connection points: 5
#     Node 13, Type 0, BuildingBlock: XOMCOT_clean_sbu_1, # of connection points: 5
#     Node 14, Type 0, BuildingBlock: XOMCOT_clean_sbu_1, # of connection points: 5
#     Node 15, Type 0, BuildingBlock: XOMCOT_clean_sbu_1, # of connection points: 5
#     Edge 16, Type (0, 0), BuildingBlock: XIVTED_clean_linker_0, # of connection points: 2
#     Edge 17, Type (0, 0), BuildingBlock: XIVTED_clean_linker_0, # of connection points: 2
#     Edge 18, Type (0, 0), BuildingBlock: XIVTED_clean_linker_0, # of connection points: 2
#     Edge 19, Type (0, 0), BuildingBlock: XIVTED_clean_linker_0, # of connection points: 2
#     Edge 20, Type (0, 0), BuildingBlock: XIVTED_clean_linker_0, # of connection points: 2
#     Edge 21, Type (0, 0), BuildingBlock: XIVTED_clean_linker_0, # of connection points: 2
#     Edge 22, Type (0, 0), BuildingBlock: XIVTED_clean_linker_0, # of connection points: 2
#     Edge 23, Type (0, 0), BuildingBlock: XIVTED_clean_linker_0, # of connection points: 2
#     Edge 24, Type (0, 0), BuildingBlock: XIVTED_clean_linker_0, # of connection points: 2
#     Edge 25, Type (0, 0), BuildingBlock: XIVTED_clean_linker_0, # of connection points: 2
#     Edge 26, Type (0, 0), BuildingBlock: XIVTED_clean_linker_0, # of connection points: 2
#     Edge 27, Type (0, 0), BuildingBlock: XIVTED_clean_linker_0, # of connection points: 2
#     Edge 28, Type (0, 0), BuildingBlock: XIVTED_clean_linker_0, # of connection points: 2
#     Edge 29, Type (0, 0), BuildingBlock: XIVTED_clean_linker_0, # of connection points: 2
#     Edge 30, Type (0, 0), BuildingBlock: XIVTED_clean_linker_0, # of connection points: 2
#     Edge 31, Type (0, 0), BuildingBlock: XIVTED_clean_linker_0, # of connection points: 2
#     Edge 32, Type (0, 0), BuildingBlock: XIVTED_clean_linker_0, # of connection points: 2
#     Edge 33, Type (0, 0), BuildingBlock: XIVTED_clean_linker_0, # of connection points: 2
#     Edge 34, Type (0, 0), BuildingBlock: XIVTED_clean_linker_0, # of connection points: 2
#     Edge 35, Type (0, 0), BuildingBlock: XIVTED_clean_linker_0, # of connection points: 2
#     Edge 36, Type (0, 0), BuildingBlock: XIVTED_clean_linker_0, # of connection points: 2
#     Edge 37, Type (0, 0), BuildingBlock: XIVTED_clean_linker_0, # of connection points: 2
#     Edge 38, Type (0, 0), BuildingBlock: XIVTED_clean_linker_0, # of connection points: 2
#     Edge 39, Type (0, 0), BuildingBlock: XIVTED_clean_linker_0, # of connection points: 2
#     Edge 40, Type (0, 0), BuildingBlock: XIVTED_clean_linker_0, # of connection points: 2
#     Edge 41, Type (0, 0), BuildingBlock: XIVTED_clean_linker_0, # of connection points: 2
#     Edge 42, Type (0, 0), BuildingBlock: XIVTED_clean_linker_0, # of connection points: 2
#     Edge 43, Type (0, 0), BuildingBlock: XIVTED_clean_linker_0, # of connection points: 2
#     Edge 44, Type (0, 0), BuildingBlock: XIVTED_clean_linker_0, # of connection points: 2
#     Edge 45, Type (0, 0), BuildingBlock: XIVTED_clean_linker_0, # of connection points: 2
#     Edge 46, Type (0, 0), BuildingBlock: XIVTED_clean_linker_0, # of connection points: 2
#     Edge 47, Type (0, 0), BuildingBlock: XIVTED_clean_linker_0, # of connection points: 2
#     Edge 48, Type (0, 0), BuildingBlock: XIVTED_clean_linker_0, # of connection points: 2
#     Edge 49, Type (0, 0), BuildingBlock: XIVTED_clean_linker_0, # of connection points: 2
#     Edge 50, Type (0, 0), BuildingBlock: XIVTED_clean_linker_0, # of connection points: 2
#     Edge 51, Type (0, 0), BuildingBlock: XIVTED_clean_linker_0, # of connection points: 2
#     Edge 52, Type (0, 0), BuildingBlock: XIVTED_clean_linker_0, # of connection points: 2
#     Edge 53, Type (0, 0), BuildingBlock: XIVTED_clean_linker_0, # of connection points: 2
#     Edge 54, Type (0, 0), BuildingBlock: XIVTED_clean_linker_0, # of connection points: 2
#     Edge 55, Type (0, 0), BuildingBlock: XIVTED_clean_linker_0, # of connection points: 2
# Relax obj value: 0.637
# Max RMSD: 0.289
# Mean RMSD: 0.289
data_MOF--net-bcu-j--node1-XOMCOT_clean_sbu_1--edge1-XIVTED_clean_linker_0
_symmetry_space_group_name_H-M    P1
_symmetry_Int_Tables_number       1
_symmetry_cell_setting            triclinic
loop_
_symmetry_equiv_pos_as_xyz
'x, y, z'
_cell_length_a     44.237812
_cell_length_b     44.330645
_cell_length_c     46.217471
_cell_angle_alpha  90.035256
_cell_angle_beta   89.955781
_cell_angle_gamma 90.044992
loop_
_atom_site_label
_atom_site_type_symbol
_atom_site_fract_x
_atom_site_fract_y
_atom_site_fract_z
_atom_type_partial_charge
C0 C 0.05535 0.17249 0.58467 0.0
C1 C 0.08422 0.16194 0.57991 0.0
N2 N 0.09179 0.14387 0.60218 0.0
N3 N 0.04484 0.1609 0.60968 0.0
C4 C 0.06764 0.14374 0.61991 0.0
H5 H 0.04234 0.18667 0.57029 0.0
Co6 Co 0.00566 0.16463 0.62329 0.0
C7 C 0.00462 0.12457 0.67549 0.0
O8 O 0.97734 0.11482 0.66915 0.0
N9 N 0.9658 0.16908 0.63662 0.0
C10 C 0.91595 0.17556 0.64065 0.0
C11 C 0.93928 0.16874 0.622 0.0
C12 C 0.95797 0.17676 0.66382 0.0
N13 N 0.92792 0.1801 0.66696 0.0
O14 O 0.01623 0.20239 0.63976 0.0
H15 H 0.93672 0.16486 0.59911 0.0
H16 H 0.97416 0.18075 0.68096 0.0
O17 O 0.01733 0.14415 0.65922 0.0
C18 C 0.00921 0.22391 0.62286 0.0
O19 O 0.9925 0.21773 0.6001 0.0
N20 N 0.99618 0.12886 0.60429 0.0
C21 C 0.99048 0.0827 0.56393 0.0
C22 C 0.0033 0.07708 0.5911 0.0
C23 C 0.00656 0.10064 0.61079 0.0
C24 C 0.984 0.13465 0.57783 0.0
C25 C 0.98035 0.11182 0.55751 0.0
H26 H 0.0196 0.09635 0.62997 0.0
H27 H 0.97873 0.15762 0.57182 0.0
H28 H 0.06604 0.12975 0.63899 0.0
H29 H 0.0982 0.16653 0.56119 0.0
H30 H 0.89222 0.1775 0.63527 0.0
H31 H 0.01267 0.05519 0.59636 0.0
H32 H 0.97081 0.1172 0.53657 0.0
C33 C 0.32684 0.05289 0.58457 0.0
C34 C 0.3379 0.08156 0.58008 0.0
N35 N 0.35338 0.08993 0.60386 0.0
N36 N 0.33551 0.04329 0.61095 0.0
C37 C 0.35143 0.06647 0.62223 0.0
H38 H 0.31462 0.0393 0.56905 0.0
Co39 Co 0.33096 0.00431 0.62477 0.0
C40 C 0.36311 0.00434 0.68181 0.0
O41 O 0.37033 0.97572 0.67959 0.0
N42 N 0.32598 0.9642 0.63821 0.0
C43 C 0.33161 0.9153 0.64877 0.0
C44 C 0.34331 0.93938 0.63366 0.0
C45 C 0.3037 0.95424 0.65579 0.0
N46 N 0.30651 0.92478 0.66223 0.0
O47 O 0.29161 0.01495 0.63747 0.0
H48 H 0.36401 0.93869 0.62132 0.0
H49 H 0.2864 0.96849 0.66506 0.0
O50 O 0.34743 0.01688 0.66202 0.0
C51 C 0.27158 0.01013 0.61828 0.0
O52 O 0.27928 0.99482 0.59505 0.0
N53 N 0.36866 0.99543 0.60945 0.0
C54 C 0.41753 0.99524 0.57179 0.0
C55 C 0.42061 0.0068 0.59987 0.0
C56 C 0.39573 0.00697 0.61838 0.0
C57 C 0.36573 0.98282 0.58274 0.0
C58 C 0.39003 0.98203 0.5637 0.0
H59 H 0.39782 0.01893 0.63855 0.0
H60 H 0.3438 0.97491 0.57566 0.0
H61 H 0.36343 0.06548 0.64256 0.0
H62 H 0.3357 0.09473 0.56048 0.0
H63 H 0.34115 0.89288 0.65039 0.0
H64 H 0.44127 0.01782 0.60669 0.0
H65 H 0.38681 0.97262 0.54228 0.0
C66 C 0.44267 0.31977 0.5843 0.0
C67 C 0.41366 0.3301 0.57995 0.0
N68 N 0.40597 0.34748 0.60271 0.0
N69 N 0.45315 0.33084 0.60953 0.0
C70 C 0.43019 0.34745 0.6203 0.0
H71 H 0.45579 0.30615 0.56948 0.0
Co72 Co 0.49246 0.32726 0.62281 0.0
C73 C 0.49307 0.36769 0.67506 0.0
O74 O 0.52017 0.37802 0.66883 0.0
N75 N 0.53246 0.32295 0.63571 0.0
C76 C 0.58221 0.31511 0.63845 0.0
C77 C 0.55845 0.3216 0.62025 0.0
C78 C 0.54102 0.31657 0.66301 0.0
N79 N 0.57105 0.3125 0.66532 0.0
O80 O 0.48216 0.28962 0.63948 0.0
H81 H 0.56028 0.32378 0.5971 0.0
H82 H 0.52534 0.31369 0.68079 0.0
O83 O 0.48091 0.34778 0.65879 0.0
C84 C 0.48841 0.26808 0.62231 0.0
O85 O 0.50459 0.27412 0.59915 0.0
N86 N 0.5017 0.36303 0.60369 0.0
C87 C 0.5075 0.40936 0.56357 0.0
C88 C 0.49454 0.41484 0.59073 0.0
C89 C 0.49121 0.39119 0.61028 0.0
C90 C 0.51389 0.35734 0.57719 0.0
C91 C 0.51759 0.38026 0.55699 0.0
H92 H 0.47803 0.39537 0.62942 0.0
H93 H 0.51901 0.33439 0.57099 0.0
H94 H 0.4317 0.36102 0.63968 0.0
H95 H 0.39967 0.3259 0.56117 0.0
H96 H 0.60563 0.31185 0.63239 0.0
H97 H 0.48513 0.4367 0.59608 0.0
H98 H 0.52713 0.37497 0.536 0.0
C99 C 0.1695 0.43892 0.58326 0.0
C100 C 0.15798 0.4103 0.57953 0.0
N101 N 0.14327 0.40246 0.60392 0.0
N102 N 0.16183 0.44903 0.60977 0.0
C103 C 0.14607 0.4262 0.62188 0.0
H104 H 0.18135 0.45212 0.56718 0.0
Co105 Co 0.16732 0.48819 0.62293 0.0
C106 C 0.13417 0.49008 0.67946 0.0
O107 O 0.12714 0.51866 0.67634 0.0
N108 N 0.17319 0.52846 0.63578 0.0
C109 C 0.16864 0.57769 0.64547 0.0
C110 C 0.15642 0.55357 0.63083 0.0
C111 C 0.19566 0.53829 0.65319 0.0
N112 N 0.1935 0.56794 0.65912 0.0
O113 O 0.20628 0.47682 0.63602 0.0
H114 H 0.13572 0.55449 0.61853 0.0
H115 H 0.21265 0.52385 0.66268 0.0
O116 O 0.15012 0.47686 0.66025 0.0
C117 C 0.22618 0.48131 0.6166 0.0
O118 O 0.21837 0.49646 0.59333 0.0
N119 N 0.13015 0.49778 0.60711 0.0
C120 C 0.08178 0.50019 0.56907 0.0
C121 C 0.07795 0.48844 0.597 0.0
C122 C 0.10262 0.48709 0.61569 0.0
C123 C 0.13392 0.51027 0.58045 0.0
C124 C 0.1099 0.51218 0.56123 0.0
H125 H 0.09992 0.47506 0.63576 0.0
H126 H 0.15622 0.51738 0.57363 0.0
H127 H 0.13481 0.42759 0.64259 0.0
H128 H 0.15937 0.39677 0.56006 0.0
H129 H 0.15961 0.60035 0.64663 0.0
H130 H 0.05676 0.47826 0.60355 0.0
H131 H 0.11372 0.52159 0.53991 0.0
C132 C 0.05064 0.33511 0.90832 0.0
C133 C 0.07873 0.34765 0.91281 0.0
N134 N 0.08772 0.36079 0.88797 0.0
N135 N 0.04199 0.34047 0.88086 0.0
C136 C 0.06517 0.35597 0.86897 0.0
H137 H 0.03678 0.32404 0.92441 0.0
Co138 Co 0.00379 0.33243 0.86617 0.0
C139 C 0.00319 0.3638 0.8087 0.0
O140 O 0.97425 0.36995 0.81056 0.0
N141 N 0.96433 0.32392 0.85195 0.0
C142 C 0.9152 0.32537 0.84051 0.0
C143 C 0.93861 0.34054 0.85364 0.0
C144 C 0.95555 0.29864 0.83794 0.0
N145 N 0.92598 0.29888 0.83108 0.0
O146 O 0.01788 0.29369 0.85484 0.0
H147 H 0.93678 0.36288 0.86279 0.0
H148 H 0.97062 0.2806 0.83171 0.0
O149 O 0.01611 0.34887 0.82879 0.0
C150 C 0.01422 0.27447 0.87499 0.0
O151 O -0.00121 0.28259 0.89803 0.0
N152 N 0.99143 0.36948 0.88025 0.0
C153 C 0.98465 0.41863 0.91675 0.0
C154 C -0.00146 0.42208 0.88967 0.0
C155 C 0.00206 0.39701 0.87176 0.0
C156 C 0.97665 0.36611 0.90588 0.0
C157 C 0.97251 0.39053 0.92427 0.0
H158 H 0.01572 0.39945 0.85259 0.0
H159 H 0.96957 0.34387 0.91273 0.0
H160 H 0.06482 0.36546 0.84745 0.0
H161 H 0.09115 0.34788 0.93298 0.0
H162 H 0.89226 0.33333 0.83768 0.0
H163 H 0.00887 0.44326 0.88345 0.0
H164 H 0.96152 0.38702 0.94495 0.0
C165 C 0.17165 0.05484 0.90654 0.0
C166 C 0.16075 0.08358 0.9109 0.0
N167 N 0.14291 0.09076 0.88833 0.0
N168 N 0.1606 0.04404 0.88143 0.0
C169 C 0.14324 0.06648 0.87081 0.0
H170 H 0.18584 0.0422 0.92121 0.0
Co171 Co 0.16556 0.00499 0.86798 0.0
C172 C 0.13328 0.00334 0.81105 0.0
O173 O 0.12727 0.97446 0.81357 0.0
N174 N 0.17101 0.96488 0.85488 0.0
C175 C 0.16693 0.91553 0.84566 0.0
C176 C 0.15549 0.93933 0.86136 0.0
C177 C 0.19195 0.95569 0.83552 0.0
N178 N 0.19005 0.92598 0.8298 0.0
O179 O 0.20463 0.01603 0.85468 0.0
H180 H 0.13629 0.93784 0.87569 0.0
H181 H 0.20753 0.97065 0.82459 0.0
O182 O 0.14832 0.01683 0.83079 0.0
C183 C 0.22516 0.01017 0.87308 0.0
O184 O 0.21786 0.99433 0.8961 0.0
N185 N 0.12832 0.99555 0.88389 0.0
C186 C 0.07917 0.99153 0.921 0.0
C187 C 0.07544 0.0023 0.89271 0.0
C188 C 0.10048 0.00451 0.87449 0.0
C189 C 0.13211 0.98427 0.91102 0.0
C190 C 0.10776 0.98163 0.92983 0.0
H191 H 0.09756 0.01555 0.85396 0.0
H192 H 0.15456 0.97844 0.91841 0.0
H193 H 0.1296 0.06456 0.8515 0.0
H194 H 0.16509 0.0978 0.92948 0.0
H195 H 0.15863 0.89255 0.84547 0.0
H196 H 0.05385 0.0109 0.88539 0.0
H197 H 0.11152 0.97304 0.95146 0.0
C198 C 0.4449 0.16721 0.90707 0.0
C199 C 0.41676 0.1551 0.91225 0.0
N200 N 0.40851 0.13903 0.8888 0.0
N201 N 0.45429 0.15873 0.88055 0.0
C202 C 0.43155 0.14169 0.86991 0.0
H203 H 0.45825 0.18024 0.92217 0.0
Co204 Co 0.4927 0.16543 0.86586 0.0
C205 C 0.49275 0.13546 0.80757 0.0
O206 O 0.52209 0.13112 0.8079 0.0
N207 N 0.53236 0.17259 0.85179 0.0
C208 C 0.58171 0.17014 0.8414 0.0
C209 C 0.55792 0.15597 0.85497 0.0
C210 C 0.54157 0.19681 0.83643 0.0
N211 N 0.57128 0.19599 0.83018 0.0
O212 O 0.47979 0.20433 0.854 0.0
H213 H 0.55943 0.1344 0.86568 0.0
H214 H 0.52671 0.21448 0.8289 0.0
O215 O 0.47993 0.14897 0.82866 0.0
C216 C 0.48391 0.22437 0.87331 0.0
O217 O 0.49954 0.21717 0.89647 0.0
N218 N 0.50386 0.12816 0.8802 0.0
C219 C 0.50817 0.0785 0.9163 0.0
C220 C 0.49646 0.0754 0.88828 0.0
C221 C 0.4942 0.10069 0.87055 0.0
C222 C 0.51679 0.1312 0.90675 0.0
C223 C 0.51958 0.10653 0.92505 0.0
H224 H 0.48222 0.09835 0.85041 0.0
H225 H 0.52333 0.15336 0.91432 0.0
H226 H 0.43256 0.12972 0.84955 0.0
H227 H 0.40378 0.15725 0.932 0.0
H228 H 0.60471 0.16201 0.83966 0.0
H229 H 0.48681 0.05426 0.881 0.0
H230 H 0.52898 0.10975 0.94647 0.0
C231 C 0.322 0.44162 0.90181 0.0
C232 C 0.33256 0.41286 0.90668 0.0
N233 N 0.35191 0.40576 0.88521 0.0
N234 N 0.33474 0.45251 0.87747 0.0
C235 C 0.35276 0.43011 0.86782 0.0
H236 H 0.30691 0.45422 0.91569 0.0
Co237 Co 0.33103 0.49164 0.86405 0.0
C238 C 0.36276 0.49241 0.80658 0.0
O239 O 0.36781 0.52155 0.80808 0.0
N240 N 0.32686 0.53195 0.85113 0.0
C241 C 0.33292 0.58113 0.84204 0.0
C242 C 0.34357 0.55679 0.85747 0.0
C243 C 0.30597 0.54212 0.83222 0.0
N244 N 0.30906 0.57173 0.82664 0.0
O245 O 0.29167 0.48173 0.8506 0.0
H246 H 0.36308 0.55737 0.87144 0.0
H247 H 0.28959 0.52792 0.82143 0.0
O248 O 0.3483 0.47917 0.82688 0.0
C249 C 0.27118 0.48866 0.86876 0.0
O250 O 0.27878 0.50492 0.89142 0.0
N251 N 0.36845 0.5 0.88007 0.0
C252 C 0.41773 0.50262 0.91705 0.0
C253 C 0.42132 0.49273 0.88843 0.0
C254 C 0.39623 0.49127 0.87025 0.0
C255 C 0.36483 0.51064 0.90747 0.0
C256 C 0.38925 0.51254 0.92624 0.0
H257 H 0.39907 0.48106 0.84931 0.0
H258 H 0.34246 0.51651 0.91507 0.0
H259 H 0.36774 0.43216 0.84943 0.0
H260 H 0.32702 0.39858 0.92493 0.0
H261 H 0.34232 0.60368 0.84161 0.0
H262 H 0.44285 0.48426 0.88076 0.0
H263 H 0.38561 0.52058 0.94811 0.0
C264 C 0.93949 0.83067 0.40785 0.0
C265 C 0.91095 0.84219 0.41213 0.0
N266 N 0.90245 0.85656 0.38778 0.0
N267 N 0.94893 0.83785 0.38101 0.0
C268 C 0.92578 0.85349 0.36925 0.0
H269 H 0.95301 0.81885 0.42369 0.0
Co270 Co 0.98761 0.83077 0.36699 0.0
C271 C 0.98917 0.86241 0.30984 0.0
O272 O 0.01801 0.86881 0.31238 0.0
N273 N 0.02754 0.82319 0.35339 0.0
C274 C 0.07691 0.82546 0.34289 0.0
C275 C 0.05313 0.8399 0.35619 0.0
C276 C 0.03676 0.79862 0.33852 0.0
N277 N 0.06647 0.79934 0.33224 0.0
O278 O 0.97457 0.79183 0.35516 0.0
H279 H 0.05464 0.86184 0.36623 0.0
H280 H 0.02194 0.78077 0.33126 0.0
O281 O 0.97581 0.84729 0.32958 0.0
C282 C 0.97918 0.77246 0.37498 0.0
O283 O 0.99461 0.7808 0.39793 0.0
N284 N -0.00103 0.86789 0.3816 0.0
C285 C 0.00577 0.91712 0.41801 0.0
C286 C 0.99221 0.92056 0.39079 0.0
C287 C 0.98866 0.89546 0.37293 0.0
C288 C 0.01313 0.86444 0.40751 0.0
C289 C 0.01729 0.88888 0.42585 0.0
H290 H 0.97543 0.89794 0.35351 0.0
H291 H 0.01995 0.84217 0.41447 0.0
H292 H 0.92659 0.86412 0.34824 0.0
H293 H 0.89781 0.84077 0.43185 0.0
H294 H 0.09987 0.83365 0.3408 0.0
H295 H 0.98233 0.94187 0.38433 0.0
H296 H 0.02803 0.88536 0.44664 0.0
C297 C 0.6569 0.95222 0.41525 0.0
C298 C 0.64711 0.92371 0.42251 0.0
N299 N 0.63792 0.90973 0.39814 0.0
N300 N 0.65365 0.95618 0.38651 0.0
C301 C 0.64245 0.92978 0.37668 0.0
H302 H 0.66444 0.96952 0.4301 0.0
Co303 Co 0.65855 0.99235 0.36687 0.0
C304 C 0.64468 0.97367 0.30711 0.0
O305 O 0.67065 0.98447 0.29796 0.0
N306 N 0.66305 0.02906 0.34727 0.0
C307 C 0.65293 0.07076 0.3224 0.0
C308 C 0.64064 0.04653 0.33667 0.0
C309 C 0.68869 0.04326 0.33923 0.0
N310 N 0.68326 0.06859 0.32384 0.0
O311 O 0.69646 0.97787 0.35279 0.0
H312 H 0.61679 0.04144 0.33822 0.0
H313 H 0.71098 0.03417 0.34288 0.0
O314 O 0.63749 0.97604 0.3337 0.0
C315 C 0.71677 0.9822 0.37187 0.0
O316 O 0.7097 -0.00172 0.39481 0.0
N317 N 0.62294 0.00592 0.38324 0.0
C318 C 0.57558 0.02004 0.42003 0.0
C319 C 0.57105 0.00047 0.39658 0.0
C320 C 0.5952 0.99343 0.37849 0.0
C321 C 0.62735 0.02628 0.40487 0.0
C322 C 0.60385 0.03379 0.42356 0.0
H323 H 0.59198 0.97645 0.36209 0.0
H324 H 0.64973 0.03535 0.40859 0.0
H325 H 0.63578 0.92585 0.35451 0.0
H326 H 0.64585 0.91444 0.44413 0.0
H327 H 0.64041 0.08783 0.31076 0.0
H328 H 0.54969 0.98893 0.39352 0.0
H329 H 0.60814 0.04905 0.44141 0.0
C330 C 0.55491 0.66389 0.41114 0.0
C331 C 0.58316 0.65206 0.41614 0.0
N332 N 0.59154 0.63625 0.39256 0.0
N333 N 0.54557 0.65549 0.38459 0.0
C334 C 0.56843 0.63877 0.37375 0.0
H335 H 0.54156 0.67688 0.42626 0.0
Co336 Co 0.50741 0.66298 0.36989 0.0
C337 C 0.50644 0.63285 0.3119 0.0
O338 O 0.4772 0.62811 0.31345 0.0
N339 N 0.46796 0.6711 0.35576 0.0
C340 C 0.4186 0.67022 0.3452 0.0
C341 C 0.44177 0.65546 0.35911 0.0
C342 C 0.45975 0.69533 0.33994 0.0
N343 N 0.43007 0.69547 0.33364 0.0
O344 O 0.52112 0.70188 0.35875 0.0
H345 H 0.4394 0.6341 0.37008 0.0
H346 H 0.4753 0.71227 0.33209 0.0
O347 O 0.51996 0.64668 0.33241 0.0
C348 C 0.51611 0.72154 0.37825 0.0
O349 O 0.49946 0.71383 0.40062 0.0
N350 N 0.49542 0.62578 0.3838 0.0
C351 C 0.48893 0.57613 0.41965 0.0
C352 C 0.50158 0.57287 0.392 0.0
C353 C 0.50497 0.59818 0.37441 0.0
C354 C 0.48188 0.62901 0.41006 0.0
C355 C 0.47791 0.60437 0.42817 0.0
H356 H 0.51763 0.59574 0.35463 0.0
H357 H 0.47559 0.65128 0.41753 0.0
H358 H 0.56756 0.62714 0.35321 0.0
H359 H 0.59623 0.65436 0.43581 0.0
H360 H 0.39533 0.66287 0.34341 0.0
H361 H 0.51102 0.55155 0.38498 0.0
H362 H 0.46785 0.60773 0.4493 0.0
C363 C 0.83469 0.54438 0.41193 0.0
C364 C 0.846 0.57272 0.41744 0.0
N365 N 0.8601 0.5826 0.39339 0.0
N366 N 0.84173 0.53644 0.3846 0.0
C367 C 0.85707 0.56026 0.37381 0.0
H368 H 0.82296 0.53001 0.42716 0.0
Co369 Co 0.83428 0.49881 0.36864 0.0
C370 C 0.86854 0.49917 0.31279 0.0
O371 O 0.87526 0.47045 0.31513 0.0
N372 N 0.82621 0.45988 0.35304 0.0
C373 C 0.82726 0.41103 0.34076 0.0
C374 C 0.84218 0.43382 0.35511 0.0
C375 C 0.80164 0.45198 0.33743 0.0
N376 N 0.80159 0.42259 0.3301 0.0
O377 O 0.79611 0.51339 0.35613 0.0
H378 H 0.86386 0.43128 0.36552 0.0
H379 H 0.78428 0.46753 0.33057 0.0
O380 O 0.85245 0.51191 0.33221 0.0
C381 C 0.77592 0.50888 0.37528 0.0
O382 O 0.78297 0.49249 0.39798 0.0
N383 N 0.87061 0.48587 0.38396 0.0
C384 C 0.91831 0.47675 0.42183 0.0
C385 C 0.92296 0.49182 0.39552 0.0
C386 C 0.89862 0.49655 0.37695 0.0
C387 C 0.86597 0.47031 0.40895 0.0
C388 C 0.88964 0.465 0.428 0.0
H389 H 0.90197 0.51097 0.35846 0.0
H390 H 0.84333 0.46331 0.41473 0.0
H391 H 0.86735 0.56072 0.3526 0.0
H392 H 0.84446 0.58486 0.43771 0.0
H393 H 0.83474 0.38795 0.33815 0.0
H394 H 0.94458 0.502 0.39041 0.0
H395 H 0.88516 0.4532 0.44807 0.0
C396 C 0.94078 0.66862 0.08426 0.0
C397 C 0.91201 0.65761 0.07989 0.0
N398 N 0.90423 0.64104 0.10317 0.0
N399 N 0.95104 0.65877 0.11002 0.0
C400 C 0.92816 0.64223 0.1211 0.0
H401 H 0.95391 0.68185 0.06913 0.0
Co402 Co 0.99015 0.66373 0.12346 0.0
C403 C 0.99258 0.6238 0.17562 0.0
O404 O 0.01996 0.61471 0.16883 0.0
N405 N 0.02992 0.66948 0.13663 0.0
C406 C 0.07952 0.6778 0.14056 0.0
C407 C 0.05643 0.67015 0.12195 0.0
C408 C 0.03751 0.6774 0.16383 0.0
N409 N 0.06742 0.68185 0.1669 0.0
O410 O 0.9786 0.70129 0.13967 0.0
H411 H 0.05912 0.66644 0.09905 0.0
H412 H 0.02121 0.6808 0.18101 0.0
O413 O 0.97919 0.64311 0.15959 0.0
C414 C 0.98447 0.72253 0.12203 0.0
O415 O 0.00086 0.71623 0.09907 0.0
N416 N 0.00054 0.62809 0.10465 0.0
C417 C 0.0063 0.58207 0.06413 0.0
C418 C 0.99347 0.57634 0.0913 0.0
C419 C 0.99018 0.59983 0.11107 0.0
C420 C 0.01286 0.63397 0.07825 0.0
C421 C 0.01658 0.6112 0.05787 0.0
H422 H 0.97698 0.5955 0.13018 0.0
H423 H 0.01791 0.65697 0.07219 0.0
H424 H 0.92956 0.62955 0.14101 0.0
H425 H 0.89826 0.66078 0.06077 0.0
H426 H 0.10316 0.68062 0.13513 0.0
H427 H 0.98397 0.55446 0.09644 0.0
H428 H 0.0261 0.61669 0.03693 0.0
C429 C 0.82173 0.93669 0.08267 0.0
C430 C 0.83279 0.90796 0.07853 0.0
N431 N 0.84974 0.90063 0.10168 0.0
N432 N 0.83194 0.94736 0.10816 0.0
C433 C 0.84877 0.9248 0.11928 0.0
H434 H 0.80813 0.94948 0.06761 0.0
Co435 Co 0.82688 0.9864 0.1215 0.0
C436 C 0.86566 0.9888 0.17448 0.0
O437 O 0.87477 0.01628 0.16828 0.0
N438 N 0.82114 0.02613 0.13462 0.0
C439 C 0.81413 0.07582 0.13827 0.0
C440 C 0.82189 0.05257 0.11997 0.0
C441 C 0.81229 0.03396 0.16153 0.0
N442 N 0.80855 0.06395 0.16444 0.0
O443 O 0.78892 0.97487 0.13716 0.0
H444 H 0.82674 0.05515 0.09726 0.0
H445 H 0.8078 0.0178 0.17856 0.0
O446 O 0.84683 0.9755 0.15784 0.0
C447 C 0.76763 0.98143 0.11978 0.0
O448 O 0.77397 -0.0014 0.0974 0.0
N449 N 0.86294 -0.00329 0.10321 0.0
C450 C 0.91001 0.0039 0.0639 0.0
C451 C 0.91536 0.99125 0.0912 0.0
C452 C 0.89135 0.98721 0.11035 0.0
C453 C 0.85741 0.00861 0.07659 0.0
C454 C 0.88067 0.01302 0.05681 0.0
H455 H 0.89555 0.97434 0.12964 0.0
H456 H 0.8344 0.01316 0.07007 0.0
H457 H 0.86176 0.92655 0.13901 0.0
H458 H 0.82931 0.89389 0.05967 0.0
H459 H 0.81226 0.09947 0.13273 0.0
H460 H 0.93745 0.98263 0.09695 0.0
H461 H 0.87549 0.02239 0.03575 0.0
C462 C 0.54598 0.83377 0.0673 0.0
C463 C 0.57475 0.84433 0.06216 0.0
N464 N 0.58768 0.85089 0.08782 0.0
N465 N 0.54066 0.83416 0.096 0.0
C466 C 0.56681 0.84368 0.10792 0.0
H467 H 0.52938 0.82792 0.05107 0.0
Co468 Co 0.50326 0.8284 0.11344 0.0
C469 C 0.50705 0.86573 0.16845 0.0
O470 O 0.47824 0.87287 0.1684 0.0
N471 N 0.46529 0.82173 0.13035 0.0
C472 C 0.41621 0.81364 0.13843 0.0
C473 C 0.43746 0.82191 0.11816 0.0
C474 C 0.46035 0.81245 0.15771 0.0
N475 N 0.43079 0.80817 0.16331 0.0
O476 O 0.51713 0.79099 0.12796 0.0
H477 H 0.4325 0.8269 0.09586 0.0
H478 H 0.47821 0.80842 0.17323 0.0
O479 O 0.51801 0.849 0.14846 0.0
C480 C 0.51184 0.76993 0.10997 0.0
O481 O 0.49529 0.77613 0.08712 0.0
N482 N 0.49022 0.86426 0.09669 0.0
C483 C 0.48058 0.91172 0.0586 0.0
C484 C 0.49504 0.91668 0.08513 0.0
C485 C 0.50017 0.89251 0.10369 0.0
C486 C 0.47566 0.85926 0.07118 0.0
C487 C 0.4701 0.88274 0.05201 0.0
H488 H 0.51448 0.89644 0.12209 0.0
H489 H 0.47044 0.83643 0.06463 0.0
H490 H 0.57003 0.84692 0.13081 0.0
H491 H 0.58478 0.84826 0.04113 0.0
H492 H 0.39206 0.8117 0.13517 0.0
H493 H 0.50457 0.93851 0.09046 0.0
H494 H 0.45925 0.87792 0.03152 0.0
C495 C 0.67247 0.55227 0.08298 0.0
C496 C 0.6623 0.58118 0.07811 0.0
N497 N 0.64485 0.58935 0.10068 0.0
N498 N 0.66124 0.54233 0.10835 0.0
C499 C 0.64467 0.5655 0.11869 0.0
H500 H 0.68616 0.53887 0.06845 0.0
Co501 Co 0.66505 0.50341 0.12227 0.0
C502 C 0.62498 0.5031 0.1747 0.0
O503 O 0.61496 0.47589 0.16866 0.0
N504 N 0.66968 0.46377 0.13581 0.0
C505 C 0.6776 0.4142 0.13943 0.0
C506 C 0.67061 0.43748 0.12089 0.0
C507 C 0.67679 0.45587 0.16313 0.0
N508 N 0.68097 0.42596 0.16598 0.0
O509 O 0.70286 0.51419 0.13857 0.0
H510 H 0.66776 0.43511 0.09785 0.0
H511 H 0.68008 0.47193 0.1805 0.0
O512 O 0.64462 0.51545 0.1582 0.0
C513 C 0.72441 0.50777 0.12141 0.0
O514 O 0.71832 0.49128 0.09848 0.0
N515 N 0.62912 0.49366 0.10348 0.0
C516 C 0.58243 0.48631 0.06386 0.0
C517 C 0.57697 0.49972 0.09081 0.0
C518 C 0.60081 0.50386 0.11009 0.0
C519 C 0.63479 0.48108 0.07715 0.0
C520 C 0.61171 0.47662 0.05721 0.0
H521 H 0.59659 0.51729 0.12905 0.0
H522 H 0.65781 0.47611 0.0709 0.0
H523 H 0.63109 0.56443 0.13811 0.0
H524 H 0.66668 0.59479 0.05912 0.0
H525 H 0.68067 0.39069 0.1338 0.0
H526 H 0.55494 0.50882 0.09615 0.0
H527 H 0.61699 0.46676 0.03636 0.0
H528 H 0.99046 0.07225 0.70372 0.0
H529 H 0.14223 0.06278 0.79632 0.0
H530 H 0.06076 0.13947 0.69668 0.0
H531 H 0.08634 0.98559 0.77655 0.0
H532 H 0.11085 0.09352 0.76405 0.0
H533 H 0.02286 0.04297 0.73583 0.0
C534 C 0.01258 0.08106 0.70915 0.0
C535 C 0.0229 0.10837 0.69738 0.0
C536 C 0.10567 0.0698 0.76666 0.0
C537 C 0.06024 0.07475 0.73412 0.0
C538 C 0.12356 0.05222 0.78502 0.0
C539 C 0.11691 0.02152 0.7892 0.0
C540 C 0.08072 0.05668 0.7527 0.0
C541 C 0.09243 0.00909 0.77398 0.0
C542 C 0.03118 0.06417 0.72732 0.0
C543 C 0.0519 0.1185 0.70518 0.0
N544 N 0.07509 0.02676 0.75665 0.0
N545 N 0.06957 0.1017 0.72309 0.0
H546 H 0.34985 0.06243 0.69823 0.0
H547 H 0.50943 0.08781 0.77361 0.0
H548 H 0.41418 0.99078 0.71234 0.0
H549 H 0.43269 0.14381 0.79467 0.0
H550 H 0.47658 0.056 0.74408 0.0
H551 H 0.38117 0.09593 0.72813 0.0
C552 C 0.37035 0.05365 0.70786 0.0
C553 C 0.37938 0.02372 0.7028 0.0
C554 C 0.46696 0.07533 0.75508 0.0
C555 C 0.4155 0.06206 0.73633 0.0
C556 C 0.48576 0.09371 0.77172 0.0
C557 C 0.4738 0.11851 0.78673 0.0
C558 C 0.43603 0.08198 0.75302 0.0
C559 C 0.44283 0.12483 0.78356 0.0
C560 C 0.38819 0.07278 0.72483 0.0
C561 C 0.4062 0.01358 0.71575 0.0
N562 N 0.42498 0.1067 0.76701 0.0
N563 N 0.42346 0.03279 0.73163 0.0
H564 H 0.40799 0.51096 0.7704 0.0
H565 H 0.43769 0.35098 0.69683 0.0
H566 H 0.35662 0.43192 0.79424 0.0
H567 H 0.50468 0.42168 0.70148 0.0
H568 H 0.40446 0.38102 0.72811 0.0
H569 H 0.43961 0.47966 0.73931 0.0
C570 C 0.40309 0.48707 0.76889 0.0
C571 C 0.37963 0.47407 0.78512 0.0
C572 C 0.42654 0.38977 0.72242 0.0
C573 C 0.41603 0.43801 0.74954 0.0
C574 C 0.44554 0.37265 0.70463 0.0
C575 C 0.47407 0.3838 0.69651 0.0
C576 C 0.43595 0.41842 0.73178 0.0
C577 C 0.48299 0.41208 0.70722 0.0
C578 C 0.42136 0.46917 0.75129 0.0
C579 C 0.37454 0.4429 0.78225 0.0
N580 N 0.46391 0.42849 0.72405 0.0
N581 N 0.39259 0.4259 0.7648 0.0
H582 H 0.98743 0.41258 0.77591 0.0
H583 H 0.14653 0.43222 0.69716 0.0
H584 H 0.06229 0.35291 0.79342 0.0
H585 H 0.08332 0.50519 0.70981 0.0
H586 H 0.11474 0.39997 0.72779 0.0
H587 H 0.02048 0.44323 0.74552 0.0
C588 C 0.01072 0.40566 0.77309 0.0
C589 C 0.02211 0.38016 0.78737 0.0
C590 C 0.10805 0.42312 0.72401 0.0
C591 C 0.06017 0.41539 0.75267 0.0
C592 C 0.12616 0.44156 0.7066 0.0
C593 C 0.11758 0.47148 0.70088 0.0
C594 C 0.08094 0.43456 0.73539 0.0
C595 C 0.09095 0.48236 0.71369 0.0
C596 C 0.02966 0.42337 0.75594 0.0
C597 C 0.0526 0.37248 0.78296 0.0
N598 N 0.07345 0.46383 0.73007 0.0
N599 N 0.0706 0.39003 0.76597 0.0
H600 H 0.93021 0.85175 0.29413 0.0
H601 H 0.91739 0.0042 0.20328 0.0
H602 H 0.00596 0.91035 0.27631 0.0
H603 H 0.85177 0.9325 0.19551 0.0
H604 H 0.94729 0.9724 0.23541 0.0
H605 H 0.89881 0.88271 0.26209 0.0
C606 C 0.94031 0.87094 0.28331 0.0
C607 C 0.97078 0.87848 0.28797 0.0
C608 C 0.9263 0.96365 0.22674 0.0
C609 C 0.93489 0.91417 0.25172 0.0
C610 C 0.90906 0.9819 0.20857 0.0
C611 C 0.88205 0.97099 0.19656 0.0
C612 C 0.91638 0.93434 0.23327 0.0
C613 C 0.87251 0.94179 0.20418 0.0
C614 C 0.92237 0.88859 0.26507 0.0
C615 C 0.98266 0.90357 0.27333 0.0
N616 N 0.88967 0.92446 0.22206 0.0
N617 N 0.96463 0.92064 0.2561 0.0
H618 H 0.59051 0.94635 0.31941 0.0
H619 H 0.56335 0.88835 0.15766 0.0
H620 H 0.65171 0.96446 0.24871 0.0
H621 H 0.49691 0.87948 0.22534 0.0
H622 H 0.5971 0.91381 0.19139 0.0
H623 H 0.55699 0.91998 0.28605 0.0
C624 C 0.59688 0.94497 0.29685 0.0
C625 C 0.62398 0.95789 0.28688 0.0
C626 C 0.57527 0.90612 0.19902 0.0
C627 C 0.58563 0.92732 0.24849 0.0
C628 C 0.55616 0.89107 0.17984 0.0
C629 C 0.52767 0.88092 0.18895 0.0
C630 C 0.56581 0.91121 0.2276 0.0
C631 C 0.51883 0.88672 0.21755 0.0
C632 C 0.57769 0.92981 0.2778 0.0
C633 C 0.63106 0.95497 0.25741 0.0
N634 N 0.5379 0.90137 0.23594 0.0
N635 N 0.61204 0.93998 0.23928 0.0
H636 H 0.56664 0.63986 0.2983 0.0
H637 H 0.57225 0.49008 0.20292 0.0
H638 H 0.4876 0.58766 0.27594 0.0
H639 H 0.64122 0.55868 0.19618 0.0
H640 H 0.54379 0.52283 0.23546 0.0
H641 H 0.59679 0.60831 0.2655 0.0
C642 C 0.55557 0.62197 0.28635 0.0
C643 C 0.52451 0.61641 0.28993 0.0
C644 C 0.56519 0.5307 0.22692 0.0
C645 C 0.55894 0.58001 0.25287 0.0
C646 C 0.58161 0.5119 0.2085 0.0
C647 C 0.60917 0.52164 0.19671 0.0
C648 C 0.57652 0.55936 0.23398 0.0
C649 C 0.62003 0.55028 0.20471 0.0
C650 C 0.5728 0.60399 0.26768 0.0
C651 C 0.5114 0.59291 0.27386 0.0
N652 N 0.60369 0.56814 0.2229 0.0
N653 N 0.52871 0.57544 0.25629 0.0
H654 H 0.85757 0.55818 0.2977 0.0
H655 H 0.00869 0.57221 0.20405 0.0
H656 H 0.91681 0.48326 0.27915 0.0
H657 H 0.93635 0.63718 0.1976 0.0
H658 H 0.97768 0.54225 0.2369 0.0
H659 H 0.88792 0.58986 0.26525 0.0
C660 C 0.8768 0.54833 0.28669 0.0
C661 C 0.88465 0.51798 0.2912 0.0
C662 C 0.9686 0.5631 0.22836 0.0
C663 C 0.91963 0.55421 0.25446 0.0
C664 C 0.9864 0.58038 0.20975 0.0
C665 C 0.9751 0.60724 0.19792 0.0
C666 C 0.93934 0.57282 0.23552 0.0
C667 C 0.94594 0.61656 0.20611 0.0
C668 C 0.89409 0.56643 0.2682 0.0
C669 C 0.90979 0.50645 0.2763 0.0
N670 N 0.92905 0.59937 0.22442 0.0
N671 N 0.92648 0.52462 0.25882 0.0
H672 H 0.99057 0.91241 0.47484 0.0
H673 H 0.00592 0.08859 0.50697 0.0
H674 H 0.01671 0.97751 0.41002 0.0
H675 H 0.97624 0.02303 0.56996 0.0
H676 H 0.00942 0.0486 0.47086 0.0
H677 H 0.9859 0.95289 0.51002 0.0
C678 C 0.99575 0.93524 0.46811 0.0
C679 C 0.0044 0.94163 0.43956 0.0
C680 C 0.00199 0.04299 0.49253 0.0
C681 C -0.00162 0.98821 0.47961 0.0
C682 C -0.00028 0.06583 0.51308 0.0
C683 C 0.99065 0.05906 0.54146 0.0
C684 C 0.99524 0.0132 0.50046 0.0
C685 C 0.98356 0.02913 0.54838 0.0
C686 C 0.99276 0.95839 0.48815 0.0
C687 C 0.00994 0.9717 0.43183 0.0
N688 N 0.98607 0.00726 0.52801 0.0
N689 N 0.00687 0.99395 0.45181 0.0
H690 H 0.51468 0.02822 0.41325 0.0
H691 H 0.47894 0.98989 0.57855 0.0
H692 H 0.58359 0.01635 0.4783 0.0
H693 H 0.41056 0.01298 0.51573 0.0
H694 H 0.51786 0.0005 0.54233 0.0
H695 H 0.47606 0.02441 0.45094 0.0
C696 C 0.52163 0.0252 0.43554 0.0
C697 C 0.55227 0.02255 0.44273 0.0
C698 C 0.49432 0.00323 0.53651 0.0
C699 C 0.50844 0.01779 0.48579 0.0
C700 C 0.47214 -0.00285 0.55715 0.0
C701 C 0.4415 0.00017 0.55001 0.0
C702 C 0.48572 0.01238 0.5086 0.0
C703 C 0.43389 0.0096 0.52196 0.0
C704 C 0.49965 0.023 0.45702 0.0
C705 C 0.56019 0.01883 0.4719 0.0
N706 N 0.45586 0.01528 0.50226 0.0
N707 N 0.53837 0.01624 0.49236 0.0
H708 H 0.49188 0.40378 0.50666 0.0
H709 H 0.50634 0.58026 0.4759 0.0
H710 H 0.52194 0.46892 0.5699 0.0
H711 H 0.47744 0.51586 0.41146 0.0
H712 H 0.5123 0.53943 0.51046 0.0
H713 H 0.48791 0.44405 0.47093 0.0
C714 C 0.49809 0.42651 0.51289 0.0
C715 C 0.50734 0.43309 0.54124 0.0
C716 C 0.50454 0.53416 0.48882 0.0
C717 C 0.50221 0.47925 0.50071 0.0
C718 C 0.50081 0.55751 0.46915 0.0
C719 C 0.49098 0.55142 0.4409 0.0
C720 C 0.49849 0.50444 0.48019 0.0
C721 C 0.48507 0.52145 0.43306 0.0
C722 C 0.49554 0.44951 0.49257 0.0
C723 C 0.51447 0.46298 0.54834 0.0
N724 N 0.48888 0.49899 0.45268 0.0
N725 N 0.51167 0.485 0.52819 0.0
H726 H 0.91141 0.48845 0.47934 0.0
H727 H 0.08813 0.48225 0.51298 0.0
H728 H 0.97906 0.4665 0.41531 0.0
H729 H 0.02084 0.50927 0.57554 0.0
H730 H 0.04834 0.47461 0.47738 0.0
H731 H 0.95097 0.49306 0.51562 0.0
C732 C 0.93458 0.48409 0.47302 0.0
C733 C 0.942 0.4769 0.4443 0.0
C734 C 0.04225 0.48231 0.49885 0.0
C735 C 0.98744 0.4829 0.4856 0.0
C736 C 0.06498 0.48697 0.51912 0.0
C737 C 0.05776 0.49677 0.54716 0.0
C738 C 0.01206 0.48737 0.50669 0.0
C739 C 0.02733 0.50165 0.55417 0.0
C740 C 0.95718 0.48704 0.4937 0.0
C741 C 0.97244 0.47226 0.43718 0.0
N742 N 0.00555 0.49693 0.53401 0.0
N743 N 0.99411 0.47541 0.45773 0.0
H744 H -0.0002 0.41278 0.97347 0.0
H745 H 0.99053 0.58897 0.00739 0.0
H746 H 0.97541 0.4794 0.90951 0.0
H747 H 0.01944 0.52204 0.06929 0.0
H748 H 0.98548 0.5495 0.97097 0.0
H749 H 0.00626 0.45272 0.00896 0.0
C750 C 0.99534 0.43584 0.96701 0.0
C751 C 0.98668 0.44281 0.9386 0.0
C752 C 0.99311 0.54347 0.99246 0.0
C753 C 0.99481 0.48876 0.979 0.0
C754 C 0.99628 0.56601 0.01319 0.0
C755 C 0.00555 0.55873 0.04137 0.0
C756 C -0.00088 0.51344 1e-05 0.0
C757 C 0.012 0.52855 0.04788 0.0
C758 C -0.00062 0.45867 0.98722 0.0
C759 C 0.98212 0.47312 0.93121 0.0
N760 N 0.00857 0.50697 0.02735 0.0
N761 N 0.98621 0.49506 0.95135 0.0
H762 H 0.08213 0.01103 0.97685 0.0
H763 H 0.90587 0.98831 0.00688 0.0
H764 H 0.01941 0.97737 0.91296 0.0
H765 H 0.96923 0.02011 0.07106 0.0
H766 H 0.9467 0.98629 0.97151 0.0
H767 H 0.04074 0.01556 0.01129 0.0
C768 C 0.05966 0.00425 0.97018 0.0
C769 C 0.0542 0.99347 0.94212 0.0
C770 C 0.95166 0.99386 0.99328 0.0
C771 C 0.00662 -0.0008 0.98127 0.0
C772 C 0.92833 0.99529 0.01342 0.0
C773 C 0.93421 0.00452 0.04191 0.0
C774 C 0.9811 0.00165 0.00172 0.0
C775 C 0.96382 0.01264 0.04937 0.0
C776 C 0.03599 0.00711 0.98978 0.0
C777 C 0.02453 0.98584 0.93438 0.0
N778 N 0.98621 0.01096 0.02937 0.0
N779 N 0.00181 0.98879 0.95392 0.0
H780 H 0.48898 0.08317 0.97207 0.0
H781 H 0.49452 0.90599 0.0014 0.0
H782 H 0.51799 0.01796 0.90843 0.0
H783 H 0.46776 0.97168 0.06548 0.0
H784 H 0.50027 0.94636 0.96611 0.0
H785 H 0.47983 0.0424 0.00615 0.0
C786 C 0.49388 0.06026 0.96542 0.0
C787 C 0.50463 0.05391 0.9375 0.0
C788 C 0.4929 0.95195 0.98781 0.0
C789 C 0.49342 0.00707 0.97618 0.0
C790 C 0.48928 0.92888 0.00789 0.0
C791 C 0.48055 0.93556 0.03638 0.0
C792 C 0.48788 0.98189 -0.00367 0.0
C793 C 0.47475 0.96566 0.04379 0.0
C794 C 0.48831 0.03696 0.98479 0.0
C795 C 0.50968 0.02377 0.92975 0.0
N796 N 0.47866 0.98777 0.02388 0.0
N797 N 0.50405 0.0014 0.94905 0.0
H798 H 0.47763 0.51639 0.9092 0.0
H799 H 0.52317 0.47032 0.07072 0.0
H800 H 0.41463 0.48168 0.97236 0.0
H801 H 0.58723 0.50136 0.00681 0.0
H802 H 0.48314 0.47324 0.03444 0.0
H803 H 0.51852 0.51006 0.94429 0.0
C804 C 0.47244 0.50746 0.93044 0.0
C805 C 0.44271 0.49986 0.93802 0.0
C806 C 0.506 0.47922 0.02829 0.0
C807 C 0.48914 0.49256 0.97814 0.0
C808 C 0.52878 0.4776 0.04899 0.0
C809 C 0.55847 0.48556 0.0417 0.0
C810 C 0.51299 0.48908 0.00018 0.0
C811 C 0.56467 0.49462 0.01321 0.0
C812 C 0.49572 0.50388 0.95045 0.0
C813 C 0.43714 0.48846 0.96584 0.0
N814 N 0.54206 0.49629 0.99351 0.0
N815 N 0.46014 0.48519 0.9849 0.0
H816 H 0.8845 0.2227 0.67213 0.0
H817 H 0.93039 0.23867 0.83596 0.0
H818 H 0.93782 0.15913 0.72053 0.0
H819 H 0.88792 0.30905 0.78639 0.0
H820 H 0.91591 0.20209 0.79894 0.0
H821 H 0.86905 0.24673 0.7177 0.0
C822 C 0.89213 0.21329 0.69247 0.0
C823 C 0.91295 0.18952 0.69287 0.0
C824 C 0.9091 0.22539 0.79637 0.0
C825 C 0.89578 0.21666 0.74461 0.0
C826 C 0.91737 0.24617 0.81748 0.0
C827 C 0.91094 0.2768 0.81365 0.0
C828 C 0.89505 0.23557 0.77094 0.0
C829 C 0.89355 0.28557 0.78979 0.0
C830 C 0.88345 0.227 0.7184 0.0
C831 C 0.92227 0.17794 0.71955 0.0
N832 N 0.88687 0.26513 0.76882 0.0
N833 N 0.91401 0.19193 0.74437 0.0
H834 H 0.24611 0.92004 0.66344 0.0
H835 H 0.16815 0.89024 0.78737 0.0
H836 H 0.32705 0.89543 0.70922 0.0
H837 H 0.25024 0.92713 0.82277 0.0
H838 H 0.19635 0.87441 0.74402 0.0
H839 H 0.21595 0.90489 0.70537 0.0
C840 C 0.2573 0.91037 0.68209 0.0
C841 C 0.28886 0.90898 0.68323 0.0
C842 C 0.20825 0.88537 0.7616 0.0
C843 C 0.25497 0.89212 0.73123 0.0
C844 C 0.19229 0.89412 0.78629 0.0
C845 C 0.20702 0.91039 0.80811 0.0
C846 C 0.239 0.89293 0.75913 0.0
C847 C 0.23822 0.91505 0.80597 0.0
C848 C 0.24018 0.90151 0.7059 0.0
C849 C 0.30266 0.89663 0.70774 0.0
N850 N 0.25319 0.90665 0.78168 0.0
N851 N 0.28565 0.88954 0.73126 0.0
H852 H 0.61137 0.18365 0.78755 0.0
H853 H 0.56625 0.33789 0.71772 0.0
H854 H 0.56637 0.25636 0.83184 0.0
H855 H 0.61022 0.2662 0.67113 0.0
H856 H 0.58201 0.31498 0.7633 0.0
H857 H 0.62669 0.21896 0.74942 0.0
C858 C 0.6056 0.20728 0.78963 0.0
C859 C 0.58695 0.21717 0.81223 0.0
C860 C 0.5889 0.30449 0.74318 0.0
C861 C 0.60387 0.25737 0.76894 0.0
C862 C 0.5799 0.31761 0.71728 0.0
C863 C 0.58652 0.30343 0.69101 0.0
C864 C 0.60369 0.27644 0.7427 0.0
C865 C 0.60454 0.27749 0.69117 0.0
C866 C 0.6142 0.22739 0.76789 0.0
C867 C 0.58008 0.24789 0.81421 0.0
N868 N 0.61184 0.26427 0.71674 0.0
N869 N 0.58805 0.26683 0.79254 0.0
H870 H 0.25408 0.56923 0.66165 0.0
H871 H 0.24919 0.58006 0.82425 0.0
H872 H 0.17363 0.60178 0.70372 0.0
H873 H 0.33236 0.59799 0.77917 0.0
H874 H 0.22083 0.59475 0.78103 0.0
H875 H 0.28409 0.58603 0.70312 0.0
C876 C 0.24299 0.58072 0.67941 0.0
C877 C 0.21154 0.58392 0.67971 0.0
C878 C 0.24524 0.59653 0.78081 0.0
C879 C 0.24521 0.60236 0.72728 0.0
C880 C 0.26129 0.58813 0.8054 0.0
C881 C 0.29288 0.58781 0.80486 0.0
C882 C 0.26109 0.60345 0.75531 0.0
C883 C 0.30791 0.59811 0.78013 0.0
C884 C 0.26001 0.59042 0.70296 0.0
C885 C 0.19791 0.59894 0.70295 0.0
N886 N 0.29187 0.60473 0.75591 0.0
N887 N 0.21475 0.60688 0.72632 0.0
H888 H 0.10921 0.7261 0.17217 0.0
H889 H 0.06351 0.73904 0.33637 0.0
H890 H 0.05843 0.6602 0.22037 0.0
H891 H 0.10411 0.81115 0.28756 0.0
H892 H 0.0788 0.70333 0.29888 0.0
H893 H 0.12395 0.75036 0.21784 0.0
C894 C 0.102 0.71627 0.19248 0.0
C895 C 0.08208 0.6917 0.19281 0.0
C896 C 0.08503 0.72684 0.29656 0.0
C897 C 0.09846 0.71908 0.24466 0.0
C898 C 0.07632 0.74711 0.31795 0.0
C899 C 0.08203 0.77793 0.3145 0.0
C900 C 0.09874 0.73772 0.27119 0.0
C901 C 0.09909 0.78748 0.29066 0.0
C902 C 0.11028 0.7301 0.21846 0.0
C903 C 0.07328 0.6796 0.21945 0.0
N904 N 0.10618 0.76751 0.2694 0.0
N905 N 0.08113 0.69369 0.24433 0.0
H906 H 0.76698 0.10856 0.16695 0.0
H907 H 0.74372 0.07367 0.33342 0.0
H908 H 0.82534 0.05339 0.21941 0.0
H909 H 0.67306 0.10071 0.27449 0.0
H910 H 0.78121 0.08694 0.29679 0.0
H911 H 0.74089 0.12558 0.21093 0.0
C912 C 0.77482 0.10079 0.18784 0.0
C913 C 0.7977 0.07906 0.18978 0.0
C914 C 0.75749 0.09065 0.29223 0.0
C915 C 0.76832 0.09825 0.23974 0.0
C916 C 0.73605 0.08289 0.31304 0.0
C917 C 0.70509 0.08463 0.30654 0.0
C918 C 0.74784 0.10025 0.26484 0.0
C919 C 0.69657 0.09815 0.28029 0.0
C920 C 0.75997 0.11041 0.21284 0.0
C921 C 0.80722 0.06962 0.2172 0.0
N922 N 0.71783 0.10474 0.26009 0.0
N923 N 0.79218 0.07893 0.24114 0.0
H924 H 0.43556 0.75567 0.33588 0.0
H925 H 0.38671 0.76672 0.17167 0.0
H926 H 0.39206 0.68362 0.28929 0.0
H927 H 0.44633 0.82805 0.21608 0.0
H928 H 0.37264 0.74434 0.21845 0.0
H929 H 0.42235 0.79053 0.29699 0.0
C930 C 0.42253 0.74749 0.31766 0.0
C931 C 0.41543 0.71684 0.31522 0.0
C932 C 0.38825 0.76317 0.21798 0.0
C933 C 0.40104 0.75602 0.27044 0.0
C934 C 0.39619 0.77589 0.1914 0.0
C935 C 0.41818 0.79863 0.1903 0.0
C936 C 0.40232 0.77357 0.24335 0.0
C937 C 0.42985 0.80998 0.21621 0.0
C938 C 0.41503 0.76726 0.29549 0.0
C939 C 0.39813 0.70715 0.29162 0.0
N940 N 0.42206 0.79708 0.24169 0.0
N941 N 0.39217 0.72657 0.26962 0.0
H942 H 0.65749 0.43272 0.21904 0.0
H943 H 0.81215 0.38314 0.28651 0.0
H944 H 0.72675 0.38604 0.17135 0.0
H945 H 0.74133 0.4297 0.33229 0.0
H946 H 0.77581 0.3696 0.24862 0.0
H947 H 0.68132 0.41719 0.26426 0.0
C948 C 0.67744 0.41859 0.2183 0.0
C949 C 0.69066 0.41107 0.19178 0.0
C950 C 0.76801 0.38209 0.26732 0.0
C951 C 0.71869 0.39406 0.24304 0.0
C952 C 0.78871 0.38968 0.28894 0.0
C953 C 0.77969 0.4082 0.31194 0.0
C954 C 0.73832 0.39328 0.26892 0.0
C955 C 0.74917 0.41607 0.31435 0.0
C956 C 0.69108 0.40971 0.244 0.0
C957 C 0.71619 0.39242 0.19157 0.0
N958 N 0.72966 0.40904 0.29281 0.0
N959 N 0.72993 0.38517 0.21691 0.0
H960 H 0.24811 0.04531 0.66188 0.0
H961 H 0.12342 0.11743 0.55893 0.0
H962 H 0.22931 0.01297 0.57558 0.0
H963 H 0.11967 0.12701 0.65173 0.0
H964 H 0.166 0.08278 0.56427 0.0
H965 H 0.20345 0.07793 0.6588 0.0
C966 C 0.23441 0.04476 0.64247 0.0
C967 C 0.24254 0.02651 0.61889 0.0
C968 C 0.15587 0.09246 0.58348 0.0
C969 C 0.19203 0.06409 0.61505 0.0
C970 C 0.13182 0.11249 0.5804 0.0
C971 C 0.11811 0.12511 0.60492 0.0
C972 C 0.16653 0.08528 0.61126 0.0
C973 C 0.12955 0.11756 0.63231 0.0
C974 C 0.20902 0.06343 0.64071 0.0
C975 C 0.22399 0.02672 0.59427 0.0
N976 N 0.15322 0.0982 0.63477 0.0
N977 N 0.19984 0.04547 0.59287 0.0
H978 H 0.38563 0.11828 0.56226 0.0
H979 H 0.44744 0.24922 0.66344 0.0
H980 H 0.36533 0.12014 0.65352 0.0
H981 H 0.49159 0.22112 0.58453 0.0
H982 H 0.4146 0.20464 0.6603 0.0
H983 H 0.42081 0.16016 0.56914 0.0
C984 C 0.38832 0.1278 0.58368 0.0
C985 C 0.3725 0.1159 0.60733 0.0
C986 C 0.43177 0.20816 0.64393 0.0
C987 C 0.41293 0.16352 0.61548 0.0
C988 C 0.45057 0.23348 0.64576 0.0
C989 C 0.47212 0.23904 0.62407 0.0
C990 C 0.43433 0.1887 0.62006 0.0
C991 C 0.47516 0.21792 0.60163 0.0
C992 C 0.40866 0.15142 0.58769 0.0
C993 C 0.37725 0.12869 0.63478 0.0
N994 N 0.45621 0.19394 0.6 0.0
N995 N 0.39696 0.15198 0.63812 0.0
H996 H 0.37792 0.36268 0.65271 0.0
H997 H 0.26945 0.48069 0.57471 0.0
H998 H 0.37448 0.3753 0.56026 0.0
H999 H 0.24901 0.44449 0.65924 0.0
H1000 H 0.31375 0.44826 0.57219 0.0
H1001 H 0.33529 0.39763 0.65809 0.0
C1002 C 0.36807 0.37274 0.63357 0.0
C1003 C 0.37958 0.36605 0.60598 0.0
C1004 C 0.29966 0.44752 0.59135 0.0
C1005 C 0.33137 0.40618 0.61198 0.0
C1006 C 0.27446 0.46619 0.59294 0.0
C1007 C 0.25532 0.46512 0.61714 0.0
C1008 C 0.30601 0.42776 0.61422 0.0
C1009 C 0.26309 0.44593 0.64012 0.0
C1010 C 0.34381 0.39258 0.63665 0.0
C1011 C 0.36602 0.37953 0.58185 0.0
N1012 N 0.28785 0.42786 0.63806 0.0
N1013 N 0.34276 0.39914 0.58543 0.0
H1014 H 0.13363 0.37274 0.65427 0.0
H1015 H 0.00244 0.2718 0.58668 0.0
H1016 H 0.10864 0.37412 0.56413 0.0
H1017 H 0.05216 0.24282 0.66209 0.0
H1018 H 0.0345 0.31633 0.58364 0.0
H1019 H 0.09822 0.33074 0.66209 0.0
C1020 C 0.12076 0.36409 0.63616 0.0
C1021 C 0.12417 0.37666 0.60846 0.0
C1022 C 0.03825 0.30034 0.60099 0.0
C1023 C 0.08348 0.32938 0.61733 0.0
C1024 C 0.01982 0.27498 0.6029 0.0
C1025 C 0.02487 0.25331 0.62448 0.0
C1026 C 0.06177 0.3043 0.62093 0.0
C1027 C 0.04761 0.25887 0.645 0.0
C1028 C 0.10065 0.34022 0.64062 0.0
C1029 C 0.10703 0.36474 0.58568 0.0
N1030 N 0.06543 0.28381 0.64262 0.0
N1031 N 0.08726 0.3419 0.59066 0.0
H1032 H 0.22479 0.49587 0.90688 0.0
H1033 H 0.1192 0.36847 0.83818 0.0
H1034 H 0.24936 0.44776 0.82907 0.0
H1035 H 0.11502 0.39684 0.92736 0.0
H1036 H 0.16216 0.40266 0.8306 0.0
H1037 H 0.17878 0.46589 0.91007 0.0
C1038 C 0.22035 0.47926 0.89021 0.0
C1039 C 0.24116 0.47408 0.86783 0.0
C1040 C 0.15183 0.4013 0.85181 0.0
C1041 C 0.1885 0.4395 0.87155 0.0
C1042 C 0.12736 0.38189 0.85613 0.0
C1043 C 0.11373 0.3797 0.8835 0.0
C1044 C 0.16238 0.41893 0.87493 0.0
C1045 C 0.12517 0.39747 0.90608 0.0
C1046 C 0.19413 0.46202 0.89218 0.0
C1047 C 0.23401 0.45237 0.84677 0.0
N1048 N 0.14874 0.41642 0.90125 0.0
N1049 N 0.20831 0.43568 0.84925 0.0
H1050 H 0.12673 0.11803 0.83818 0.0
H1051 H 0.01539 0.23248 0.91785 0.0
H1052 H 0.11642 0.12335 0.93084 0.0
H1053 H 0.04969 0.24993 0.83196 0.0
H1054 H 0.04613 0.18708 0.92011 0.0
H1055 H 0.09323 0.16185 0.83306 0.0
C1056 C 0.11742 0.12846 0.85741 0.0
C1057 C 0.12442 0.1172 0.885 0.0
C1058 C 0.04687 0.20076 0.90071 0.0
C1059 C 0.08602 0.16684 0.87929 0.0
C1060 C 0.02917 0.22663 0.8993 0.0
C1061 C 0.03015 0.2452 0.87474 0.0
C1062 C 0.06557 0.19314 0.87733 0.0
C1063 C 0.04839 0.23632 0.85136 0.0
C1064 C 0.09844 0.15343 0.85447 0.0
C1065 C 0.11194 0.13157 0.90923 0.0
N1066 N 0.0655 0.21089 0.85325 0.0
N1067 N 0.09321 0.15552 0.9058 0.0
H1068 H 0.38003 0.10794 0.93115 0.0
H1069 H 0.24752 0.04734 0.83048 0.0
H1070 H 0.37821 0.12578 0.83944 0.0
H1071 H 0.27009 0.00826 0.91325 0.0
H1072 H 0.29371 0.07791 0.83301 0.0
H1073 H 0.337 0.07398 0.92538 0.0
C1074 C 0.37037 0.1049 0.90984 0.0
C1075 C 0.38254 0.11979 0.88576 0.0
C1076 C 0.28863 0.06236 0.85041 0.0
C1077 C 0.3335 0.08073 0.8789 0.0
C1078 C 0.26236 0.04488 0.84896 0.0
C1079 C 0.25482 0.0254 0.87179 0.0
C1080 C 0.30715 0.06056 0.87503 0.0
C1081 C 0.27486 0.02309 0.89521 0.0
C1082 C 0.34603 0.08526 0.90648 0.0
C1083 C 0.36951 0.11459 0.85851 0.0
N1084 N 0.29988 0.04072 0.89638 0.0
N1085 N 0.34552 0.0956 0.85581 0.0
H1086 H 0.37578 0.37341 0.92919 0.0
H1087 H 0.4502 0.24794 0.82875 0.0
H1088 H 0.37133 0.37853 0.83611 0.0
H1089 H 0.4794 0.26626 0.91615 0.0
H1090 H 0.41813 0.29308 0.8307 0.0
H1091 H 0.40976 0.33022 0.92496 0.0
C1092 C 0.38174 0.36522 0.90787 0.0
C1093 C 0.37072 0.37945 0.88296 0.0
C1094 C 0.43182 0.28728 0.8493 0.0
C1095 C 0.40975 0.33027 0.87791 0.0
C1096 C 0.45013 0.2616 0.84819 0.0
C1097 C 0.46739 0.25327 0.87236 0.0
C1098 C 0.4305 0.30432 0.8749 0.0
C1099 C 0.46646 0.27176 0.897 0.0
C1100 C 0.40137 0.3408 0.90544 0.0
C1101 C 0.37954 0.36824 0.85581 0.0
N1102 N 0.44807 0.2962 0.89774 0.0
N1103 N 0.39846 0.34416 0.85398 0.0
H1104 H 0.87191 0.86596 0.33765 0.0
H1105 H 0.76296 0.98769 0.41016 0.0
H1106 H 0.8729 0.88926 0.42825 0.0
H1107 H 0.73803 0.94144 0.33144 0.0
H1108 H 0.80896 0.95791 0.41242 0.0
H1109 H 0.82759 0.89872 0.331 0.0
C1110 C 0.86277 0.87795 0.3561 0.0
C1111 C 0.87591 0.87477 0.3836 0.0
C1112 C 0.79353 0.95433 0.39456 0.0
C1113 C 0.8258 0.91236 0.37609 0.0
C1114 C 0.76726 0.97144 0.39314 0.0
C1115 C 0.7464 0.96684 0.37072 0.0
C1116 C 0.79924 0.93245 0.37335 0.0
C1117 C 0.75345 0.9456 0.34918 0.0
C1118 C 0.83753 0.89651 0.35231 0.0
C1119 C 0.86321 0.89069 0.40681 0.0
N1120 N 0.77931 0.92901 0.35108 0.0
N1121 N 0.839 0.9089 0.40249 0.0
H1122 H 0.60189 0.88374 0.43854 0.0
H1123 H 0.55706 0.74332 0.33858 0.0
H1124 H 0.63637 0.87202 0.35192 0.0
H1125 H 0.51216 0.76604 0.41867 0.0
H1126 H 0.58754 0.78931 0.34305 0.0
H1127 H 0.57123 0.83845 0.43246 0.0
C1128 C 0.60332 0.87141 0.41837 0.0
C1129 C 0.62173 0.88167 0.39572 0.0
C1130 C 0.57085 0.78427 0.3595 0.0
C1131 C 0.58625 0.83002 0.38836 0.0
C1132 C 0.55337 0.75812 0.3569 0.0
C1133 C 0.53214 0.75076 0.37835 0.0
C1134 C 0.56715 0.80298 0.38381 0.0
C1135 C 0.52834 0.7707 0.40166 0.0
C1136 C 0.58554 0.84573 0.41477 0.0
C1137 C 0.62225 0.86504 0.36983 0.0
N1138 N 0.54581 0.79574 0.40386 0.0
N1139 N 0.60476 0.84001 0.36684 0.0
H1140 H 0.75374 0.54679 0.33312 0.0
H1141 H 0.62103 0.60596 0.43468 0.0
H1142 H 0.7317 0.50782 0.41612 0.0
H1143 H 0.6218 0.62364 0.34293 0.0
H1144 H 0.66481 0.57315 0.42868 0.0
H1145 H 0.70759 0.57744 0.33605 0.0
C1146 C 0.73907 0.54443 0.35176 0.0
C1147 C 0.74667 0.52487 0.3745 0.0
C1148 C 0.6554 0.58415 0.40981 0.0
C1149 C 0.69443 0.56005 0.37816 0.0
C1150 C 0.63061 0.60312 0.4133 0.0
C1151 C 0.6179 0.61761 0.38929 0.0
C1152 C 0.66784 0.57985 0.38215 0.0
C1153 C 0.63089 0.6127 0.36195 0.0
C1154 C 0.71282 0.56193 0.35343 0.0
C1155 C 0.72687 0.52268 0.39814 0.0
N1156 N 0.65533 0.59433 0.3591 0.0
N1157 N 0.70187 0.54027 0.39947 0.0
H1158 H 0.89122 0.61223 0.43502 0.0
H1159 H 0.94225 0.74811 0.33304 0.0
H1160 H 0.86932 0.61462 0.34411 0.0
H1161 H 0.98218 0.72888 0.41624 0.0
H1162 H 0.91368 0.70071 0.33635 0.0
H1163 H 0.92204 0.65738 0.42884 0.0
C1164 C 0.8927 0.62243 0.4138 0.0
C1165 C 0.8776 0.60974 0.39008 0.0
C1166 C 0.92893 0.70683 0.35371 0.0
C1167 C 0.91314 0.66131 0.38271 0.0
C1168 C 0.94526 0.7338 0.35181 0.0
C1169 C 0.96446 0.74256 0.37449 0.0
C1170 C 0.93166 0.6888 0.37857 0.0
C1171 C 0.96752 0.72318 0.3983 0.0
C1172 C 0.91055 0.64803 0.41019 0.0
C1173 C 0.88078 0.62361 0.36291 0.0
N1174 N 0.9511 0.69741 0.39982 0.0
N1175 N 0.8981 0.64879 0.35997 0.0
H1176 H 0.87452 0.61057 0.06125 0.0
H1177 H 0.74399 0.54811 0.16276 0.0
H1178 H 0.87486 0.62795 0.15305 0.0
H1179 H 0.77093 0.50502 0.08297 0.0
H1180 H 0.78894 0.58053 0.15964 0.0
H1181 H 0.83209 0.57592 0.06794 0.0
C1182 C 0.86539 0.60733 0.08276 0.0
C1183 C 0.87806 0.62216 0.10662 0.0
C1184 C 0.78507 0.56369 0.14306 0.0
C1185 C 0.82979 0.5824 0.11452 0.0
C1186 C 0.75953 0.54514 0.14487 0.0
C1187 C 0.75356 0.52398 0.12298 0.0
C1188 C 0.80432 0.5613 0.11899 0.0
C1189 C 0.77445 0.52113 0.10026 0.0
C1190 C 0.84144 0.58731 0.08664 0.0
C1191 C 0.86572 0.61677 0.13415 0.0
N1192 N 0.79864 0.53984 0.09866 0.0
N1193 N 0.8421 0.59741 0.13738 0.0
H1194 H 0.94394 0.7423 0.16322 0.0
H1195 H 0.87976 0.87012 0.05998 0.0
H1196 H 0.98649 0.76819 0.08283 0.0
H1197 H 0.86325 0.87228 0.15191 0.0
H1198 H 0.91461 0.828 0.0671 0.0
H1199 H 0.91096 0.78672 0.1595 0.0
C1200 C 0.94667 0.75751 0.14507 0.0
C1201 C 0.96785 0.7514 0.1232 0.0
C1202 C 0.90334 0.83768 0.08573 0.0
C1203 C 0.92991 0.80151 0.11853 0.0
C1204 C 0.88322 0.86144 0.08161 0.0
C1205 C 0.86861 0.87456 0.10538 0.0
C1206 C 0.90857 0.82666 0.11378 0.0
C1207 C 0.87426 0.86281 0.13307 0.0
C1208 C 0.9278 0.78273 0.14292 0.0
C1209 C 0.97038 0.77183 0.10012 0.0
N1210 N 0.89372 0.83936 0.13654 0.0
N1211 N 0.95137 0.79571 0.09821 0.0
H1212 H 0.75063 0.93402 0.15482 0.0
H1213 H 0.61203 0.89282 0.05215 0.0
H1214 H 0.71893 0.99047 0.08507 0.0
H1215 H 0.62407 0.85011 0.13521 0.0
H1216 H 0.65442 0.92603 0.0627 0.0
H1217 H 0.70611 0.90159 0.14825 0.0
C1218 C 0.73408 0.93991 0.13852 0.0
C1219 C 0.73864 0.96485 0.12029 0.0
C1220 C 0.64786 0.90937 0.07866 0.0
C1221 C 0.68829 0.9276 0.11228 0.0
C1222 C 0.62389 0.89008 0.07244 0.0
C1223 C 0.61456 0.8685 0.09275 0.0
C1224 C 0.6629 0.90704 0.10531 0.0
C1225 C 0.63046 0.86653 0.11901 0.0
C1226 C 0.70881 0.9213 0.13467 0.0
C1227 C 0.71654 0.97135 0.09945 0.0
N1228 N 0.65394 0.88553 0.12455 0.0
N1229 N 0.69257 0.95267 0.09581 0.0
H1230 H 0.63019 0.61888 0.15003 0.0
H1231 H 0.51134 0.72467 0.0702 0.0
H1232 H 0.61704 0.61978 0.05761 0.0
H1233 H 0.55044 0.7496 0.15242 0.0
H1234 H 0.5437 0.68032 0.06892 0.0
H1235 H 0.59576 0.66211 0.15441 0.0
C1236 C 0.62012 0.62829 0.13069 0.0
C1237 C 0.6265 0.61592 0.10339 0.0
C1238 C 0.5451 0.69542 0.08731 0.0
C1239 C 0.58698 0.66472 0.10827 0.0
C1240 C 0.52648 0.72066 0.08819 0.0
C1241 C 0.52837 0.74105 0.11136 0.0
C1242 C 0.5656 0.69026 0.10988 0.0
C1243 C 0.54838 0.73453 0.13409 0.0
C1244 C 0.6006 0.65289 0.1332 0.0
C1245 C 0.61302 0.62891 0.07898 0.0
N1246 N 0.56635 0.70966 0.13275 0.0
N1247 N 0.59371 0.65246 0.08202 0.0
loop_
_geom_bond_atom_site_label_1
_geom_bond_atom_site_label_2
_geom_bond_distance
_geom_bond_site_symmetry_2
_ccdc_geom_bond_type
C0 C1 1.351 . S
C0 N3 1.368 . S
C0 H5 0.931 . S
C1 C0 1.351 . S
C1 N2 1.373 . S
C1 H29 0.930 . S
N2 C1 1.373 . S
N2 C4 1.340 . S
N3 C0 1.368 . S
N3 C4 1.321 . S
N3 Co6 2.135 . S
C4 N2 1.340 . S
C4 N3 1.321 . S
C4 H28 0.930 . S
H5 C0 0.931 . S
Co6 N3 2.135 . S
Co6 N9 2.121 1_455 S
Co6 O14 2.055 . S
Co6 O17 2.039 . S
Co6 N20 2.140 1_455 S
C7 O8 1.227 . S
C7 O17 1.265 . S
O8 C7 1.227 . S
N9 Co6 2.121 1_655 S
N9 C11 1.375 . S
N9 C12 1.313 . S
C10 C11 1.338 . S
C10 N13 1.377 . S
C10 H30 0.930 . S
C11 N9 1.375 . S
C11 C10 1.338 . S
C11 H15 0.931 . S
C12 N9 1.313 . S
C12 N13 1.344 . S
C12 H16 0.930 . S
N13 C10 1.377 . S
N13 C12 1.344 . S
O14 Co6 2.055 . S
O14 C18 1.253 . S
H15 C11 0.931 . S
H16 C12 0.930 . S
O17 Co6 2.039 . S
O17 C7 1.265 . S
C18 O14 1.253 . S
C18 O19 1.227 . S
O19 C18 1.227 . S
N20 Co6 2.140 1_655 S
N20 C23 1.338 1_655 S
N20 C24 1.345 . S
C21 C22 1.387 . S
C21 C25 1.391 . S
C22 C21 1.387 . S
C22 C23 1.350 1_655 S
C22 H31 0.929 . S
C23 N20 1.338 1_455 S
C23 C22 1.350 1_455 S
C23 H26 0.959 . S
C24 N20 1.345 . S
C24 C25 1.371 . S
C24 H27 0.931 . S
C25 C21 1.391 . S
C25 C24 1.371 . S
C25 H32 0.930 . S
H26 C23 0.959 . S
H27 C24 0.931 . S
H28 C4 0.930 . S
H29 C1 0.930 . S
H30 C10 0.930 . S
H31 C22 0.929 . S
H32 C25 0.930 . S
C33 C34 1.351 . S
C33 N36 1.368 . S
C33 H38 0.931 . S
C34 C33 1.351 . S
C34 N35 1.373 . S
C34 H62 0.930 . S
N35 C34 1.373 . S
N35 C37 1.340 . S
N36 C33 1.368 . S
N36 C37 1.321 . S
N36 Co39 2.135 . S
C37 N35 1.340 . S
C37 N36 1.321 . S
C37 H61 0.930 . S
H38 C33 0.931 . S
Co39 N36 2.135 . S
Co39 N42 2.121 1_545 S
Co39 O47 2.055 . S
Co39 O50 2.039 . S
Co39 N53 2.140 1_545 S
C40 O41 1.227 . S
C40 O50 1.265 . S
O41 C40 1.227 . S
N42 Co39 2.121 1_565 S
N42 C44 1.375 . S
N42 C45 1.313 . S
C43 C44 1.338 . S
C43 N46 1.377 . S
C43 H63 0.930 . S
C44 N42 1.375 . S
C44 C43 1.338 . S
C44 H48 0.931 . S
C45 N42 1.313 . S
C45 N46 1.344 . S
C45 H49 0.930 . S
N46 C43 1.377 . S
N46 C45 1.344 . S
O47 Co39 2.055 . S
O47 C51 1.253 . S
H48 C44 0.931 . S
H49 C45 0.930 . S
O50 Co39 2.039 . S
O50 C40 1.265 . S
C51 O47 1.253 . S
C51 O52 1.227 . S
O52 C51 1.227 . S
N53 Co39 2.140 1_565 S
N53 C56 1.338 1_565 S
N53 C57 1.345 . S
C54 C55 1.387 . S
C54 C58 1.391 . S
C55 C54 1.387 . S
C55 C56 1.350 1_565 S
C55 H64 0.929 . S
C56 N53 1.338 1_545 S
C56 C55 1.350 1_545 S
C56 H59 0.959 . S
C57 N53 1.345 . S
C57 C58 1.371 . S
C57 H60 0.931 . S
C58 C54 1.391 . S
C58 C57 1.371 . S
C58 H65 0.930 . S
H59 C56 0.959 . S
H60 C57 0.931 . S
H61 C37 0.930 . S
H62 C34 0.930 . S
H63 C43 0.930 . S
H64 C55 0.929 . S
H65 C58 0.930 . S
C66 C67 1.351 . S
C66 N69 1.368 . S
C66 H71 0.931 . S
C67 C66 1.351 . S
C67 N68 1.373 . S
C67 H95 0.930 . S
N68 C67 1.373 . S
N68 C70 1.340 . S
N69 C66 1.368 . S
N69 C70 1.321 . S
N69 Co72 2.135 . S
C70 N68 1.340 . S
C70 N69 1.321 . S
C70 H94 0.930 . S
H71 C66 0.931 . S
Co72 N69 2.135 . S
Co72 N75 2.121 . S
Co72 O80 2.055 . S
Co72 O83 2.039 . S
Co72 N86 2.140 . S
C73 O74 1.227 . S
C73 O83 1.265 . S
O74 C73 1.227 . S
N75 Co72 2.121 . S
N75 C77 1.375 . S
N75 C78 1.313 . S
C76 C77 1.338 . S
C76 N79 1.377 . S
C76 H96 0.930 . S
C77 N75 1.375 . S
C77 C76 1.338 . S
C77 H81 0.931 . S
C78 N75 1.313 . S
C78 N79 1.344 . S
C78 H82 0.930 . S
N79 C76 1.377 . S
N79 C78 1.344 . S
O80 Co72 2.055 . S
O80 C84 1.253 . S
H81 C77 0.931 . S
H82 C78 0.930 . S
O83 Co72 2.039 . S
O83 C73 1.265 . S
C84 O80 1.253 . S
C84 O85 1.227 . S
O85 C84 1.227 . S
N86 Co72 2.140 . S
N86 C89 1.346 . S
N86 C90 1.345 . S
C87 C88 1.387 . S
C87 C91 1.391 . S
C88 C87 1.387 . S
C88 C89 1.369 . S
C88 H97 0.929 . S
C89 N86 1.346 . S
C89 C88 1.369 . S
C89 H92 0.928 . S
C90 N86 1.345 . S
C90 C91 1.371 . S
C90 H93 0.931 . S
C91 C87 1.391 . S
C91 C90 1.371 . S
C91 H98 0.930 . S
H92 C89 0.928 . S
H93 C90 0.931 . S
H94 C70 0.930 . S
H95 C67 0.930 . S
H96 C76 0.930 . S
H97 C88 0.929 . S
H98 C91 0.930 . S
C99 C100 1.351 . S
C99 N102 1.368 . S
C99 H104 0.931 . S
C100 C99 1.351 . S
C100 N101 1.373 . S
C100 H128 0.930 . S
N101 C100 1.373 . S
N101 C103 1.340 . S
N102 C99 1.368 . S
N102 C103 1.321 . S
N102 Co105 2.135 . S
C103 N101 1.340 . S
C103 N102 1.321 . S
C103 H127 0.930 . S
H104 C99 0.931 . S
Co105 N102 2.135 . S
Co105 N108 2.121 . S
Co105 O113 2.055 . S
Co105 O116 2.039 . S
Co105 N119 2.140 . S
C106 O107 1.227 . S
C106 O116 1.265 . S
O107 C106 1.227 . S
N108 Co105 2.121 . S
N108 C110 1.375 . S
N108 C111 1.313 . S
C109 C110 1.338 . S
C109 N112 1.377 . S
C109 H129 0.930 . S
C110 N108 1.375 . S
C110 C109 1.338 . S
C110 H114 0.931 . S
C111 N108 1.313 . S
C111 N112 1.344 . S
C111 H115 0.930 . S
N112 C109 1.377 . S
N112 C111 1.344 . S
O113 Co105 2.055 . S
O113 C117 1.253 . S
H114 C110 0.931 . S
H115 C111 0.930 . S
O116 Co105 2.039 . S
O116 C106 1.265 . S
C117 O113 1.253 . S
C117 O118 1.227 . S
O118 C117 1.227 . S
N119 Co105 2.140 . S
N119 C122 1.346 . S
N119 C123 1.345 . S
C120 C121 1.387 . S
C120 C124 1.391 . S
C121 C120 1.387 . S
C121 C122 1.369 . S
C121 H130 0.929 . S
C122 N119 1.346 . S
C122 C121 1.369 . S
C122 H125 0.928 . S
C123 N119 1.345 . S
C123 C124 1.371 . S
C123 H126 0.931 . S
C124 C120 1.391 . S
C124 C123 1.371 . S
C124 H131 0.930 . S
H125 C122 0.928 . S
H126 C123 0.931 . S
H127 C103 0.930 . S
H128 C100 0.930 . S
H129 C109 0.930 . S
H130 C121 0.929 . S
H131 C124 0.930 . S
C132 C133 1.351 . S
C132 N135 1.368 . S
C132 H137 0.931 . S
C133 C132 1.351 . S
C133 N134 1.373 . S
C133 H161 0.930 . S
N134 C133 1.373 . S
N134 C136 1.340 . S
N135 C132 1.368 . S
N135 C136 1.321 . S
N135 Co138 2.135 . S
C136 N134 1.340 . S
C136 N135 1.321 . S
C136 H160 0.930 . S
H137 C132 0.931 . S
Co138 N135 2.135 . S
Co138 N141 2.121 1_455 S
Co138 O146 2.055 . S
Co138 O149 2.039 . S
Co138 N152 2.140 1_455 S
C139 O140 1.227 . S
C139 O149 1.265 . S
O140 C139 1.227 . S
N141 Co138 2.121 1_655 S
N141 C143 1.375 . S
N141 C144 1.313 . S
C142 C143 1.338 . S
C142 N145 1.377 . S
C142 H162 0.930 . S
C143 N141 1.375 . S
C143 C142 1.338 . S
C143 H147 0.931 . S
C144 N141 1.313 . S
C144 N145 1.344 . S
C144 H148 0.930 . S
N145 C142 1.377 . S
N145 C144 1.344 . S
O146 Co138 2.055 . S
O146 C150 1.253 . S
H147 C143 0.931 . S
H148 C144 0.930 . S
O149 Co138 2.039 . S
O149 C139 1.265 . S
C150 O146 1.253 . S
C150 O151 1.227 . S
O151 C150 1.227 . S
N152 Co138 2.140 1_655 S
N152 C155 1.338 1_655 S
N152 C156 1.345 . S
C153 C154 1.387 . S
C153 C157 1.391 . S
C154 C153 1.387 . S
C154 C155 1.350 1_655 S
C154 H163 0.929 . S
C155 N152 1.338 1_455 S
C155 C154 1.350 1_455 S
C155 H158 0.959 . S
C156 N152 1.345 . S
C156 C157 1.371 . S
C156 H159 0.931 . S
C157 C153 1.391 . S
C157 C156 1.371 . S
C157 H164 0.930 . S
H158 C155 0.959 . S
H159 C156 0.931 . S
H160 C136 0.930 . S
H161 C133 0.930 . S
H162 C142 0.930 . S
H163 C154 0.929 . S
H164 C157 0.930 . S
C165 C166 1.351 . S
C165 N168 1.368 . S
C165 H170 0.931 . S
C166 C165 1.351 . S
C166 N167 1.373 . S
C166 H194 0.930 . S
N167 C166 1.373 . S
N167 C169 1.340 . S
N168 C165 1.368 . S
N168 C169 1.321 . S
N168 Co171 2.135 . S
C169 N167 1.340 . S
C169 N168 1.321 . S
C169 H193 0.930 . S
H170 C165 0.931 . S
Co171 N168 2.135 . S
Co171 N174 2.121 1_545 S
Co171 O179 2.055 . S
Co171 O182 2.039 . S
Co171 N185 2.140 1_545 S
C172 O173 1.227 . S
C172 O182 1.265 . S
O173 C172 1.227 . S
N174 Co171 2.121 1_565 S
N174 C176 1.375 . S
N174 C177 1.313 . S
C175 C176 1.338 . S
C175 N178 1.377 . S
C175 H195 0.930 . S
C176 N174 1.375 . S
C176 C175 1.338 . S
C176 H180 0.931 . S
C177 N174 1.313 . S
C177 N178 1.344 . S
C177 H181 0.930 . S
N178 C175 1.377 . S
N178 C177 1.344 . S
O179 Co171 2.055 . S
O179 C183 1.253 . S
H180 C176 0.931 . S
H181 C177 0.930 . S
O182 Co171 2.039 . S
O182 C172 1.265 . S
C183 O179 1.253 . S
C183 O184 1.227 . S
O184 C183 1.227 . S
N185 Co171 2.140 1_565 S
N185 C188 1.338 1_565 S
N185 C189 1.345 . S
C186 C187 1.387 . S
C186 C190 1.391 . S
C187 C186 1.387 . S
C187 C188 1.350 1_565 S
C187 H196 0.929 . S
C188 N185 1.338 1_545 S
C188 C187 1.350 1_545 S
C188 H191 0.959 . S
C189 N185 1.345 . S
C189 C190 1.371 . S
C189 H192 0.931 . S
C190 C186 1.391 . S
C190 C189 1.371 . S
C190 H197 0.930 . S
H191 C188 0.959 . S
H192 C189 0.931 . S
H193 C169 0.930 . S
H194 C166 0.930 . S
H195 C175 0.930 . S
H196 C187 0.929 . S
H197 C190 0.930 . S
C198 C199 1.351 . S
C198 N201 1.368 . S
C198 H203 0.931 . S
C199 C198 1.351 . S
C199 N200 1.373 . S
C199 H227 0.930 . S
N200 C199 1.373 . S
N200 C202 1.340 . S
N201 C198 1.368 . S
N201 C202 1.321 . S
N201 Co204 2.135 . S
C202 N200 1.340 . S
C202 N201 1.321 . S
C202 H226 0.930 . S
H203 C198 0.931 . S
Co204 N201 2.135 . S
Co204 N207 2.121 . S
Co204 O212 2.055 . S
Co204 O215 2.039 . S
Co204 N218 2.140 . S
C205 O206 1.227 . S
C205 O215 1.265 . S
O206 C205 1.227 . S
N207 Co204 2.121 . S
N207 C209 1.375 . S
N207 C210 1.313 . S
C208 C209 1.338 . S
C208 N211 1.377 . S
C208 H228 0.930 . S
C209 N207 1.375 . S
C209 C208 1.338 . S
C209 H213 0.931 . S
C210 N207 1.313 . S
C210 N211 1.344 . S
C210 H214 0.930 . S
N211 C208 1.377 . S
N211 C210 1.344 . S
O212 Co204 2.055 . S
O212 C216 1.253 . S
H213 C209 0.931 . S
H214 C210 0.930 . S
O215 Co204 2.039 . S
O215 C205 1.265 . S
C216 O212 1.253 . S
C216 O217 1.227 . S
O217 C216 1.227 . S
N218 Co204 2.140 . S
N218 C221 1.346 . S
N218 C222 1.345 . S
C219 C220 1.387 . S
C219 C223 1.391 . S
C220 C219 1.387 . S
C220 C221 1.369 . S
C220 H229 0.929 . S
C221 N218 1.346 . S
C221 C220 1.369 . S
C221 H224 0.928 . S
C222 N218 1.345 . S
C222 C223 1.371 . S
C222 H225 0.931 . S
C223 C219 1.391 . S
C223 C222 1.371 . S
C223 H230 0.930 . S
H224 C221 0.928 . S
H225 C222 0.931 . S
H226 C202 0.930 . S
H227 C199 0.930 . S
H228 C208 0.930 . S
H229 C220 0.929 . S
H230 C223 0.930 . S
C231 C232 1.351 . S
C231 N234 1.368 . S
C231 H236 0.931 . S
C232 C231 1.351 . S
C232 N233 1.373 . S
C232 H260 0.930 . S
N233 C232 1.373 . S
N233 C235 1.340 . S
N234 C231 1.368 . S
N234 C235 1.321 . S
N234 Co237 2.135 . S
C235 N233 1.340 . S
C235 N234 1.321 . S
C235 H259 0.930 . S
H236 C231 0.931 . S
Co237 N234 2.135 . S
Co237 N240 2.121 . S
Co237 O245 2.055 . S
Co237 O248 2.039 . S
Co237 N251 2.140 . S
C238 O239 1.227 . S
C238 O248 1.265 . S
O239 C238 1.227 . S
N240 Co237 2.121 . S
N240 C242 1.375 . S
N240 C243 1.313 . S
C241 C242 1.338 . S
C241 N244 1.377 . S
C241 H261 0.930 . S
C242 N240 1.375 . S
C242 C241 1.338 . S
C242 H246 0.931 . S
C243 N240 1.313 . S
C243 N244 1.344 . S
C243 H247 0.930 . S
N244 C241 1.377 . S
N244 C243 1.344 . S
O245 Co237 2.055 . S
O245 C249 1.253 . S
H246 C242 0.931 . S
H247 C243 0.930 . S
O248 Co237 2.039 . S
O248 C238 1.265 . S
C249 O245 1.253 . S
C249 O250 1.227 . S
O250 C249 1.227 . S
N251 Co237 2.140 . S
N251 C254 1.346 . S
N251 C255 1.345 . S
C252 C253 1.387 . S
C252 C256 1.391 . S
C253 C252 1.387 . S
C253 C254 1.369 . S
C253 H262 0.929 . S
C254 N251 1.346 . S
C254 C253 1.369 . S
C254 H257 0.928 . S
C255 N251 1.345 . S
C255 C256 1.371 . S
C255 H258 0.931 . S
C256 C252 1.391 . S
C256 C255 1.371 . S
C256 H263 0.930 . S
H257 C254 0.928 . S
H258 C255 0.931 . S
H259 C235 0.930 . S
H260 C232 0.930 . S
H261 C241 0.930 . S
H262 C253 0.929 . S
H263 C256 0.930 . S
C264 C265 1.351 . S
C264 N267 1.368 . S
C264 H269 0.931 . S
C265 C264 1.351 . S
C265 N266 1.373 . S
C265 H293 0.930 . S
N266 C265 1.373 . S
N266 C268 1.340 . S
N267 C264 1.368 . S
N267 C268 1.321 . S
N267 Co270 2.135 . S
C268 N266 1.340 . S
C268 N267 1.321 . S
C268 H292 0.930 . S
H269 C264 0.931 . S
Co270 N267 2.135 . S
Co270 N273 2.121 1_655 S
Co270 O278 2.055 . S
Co270 O281 2.039 . S
Co270 N284 2.140 1_655 S
C271 O272 1.227 . S
C271 O281 1.265 . S
O272 C271 1.227 . S
N273 Co270 2.121 1_455 S
N273 C275 1.375 . S
N273 C276 1.313 . S
C274 C275 1.338 . S
C274 N277 1.377 . S
C274 H294 0.930 . S
C275 N273 1.375 . S
C275 C274 1.338 . S
C275 H279 0.931 . S
C276 N273 1.313 . S
C276 N277 1.344 . S
C276 H280 0.930 . S
N277 C274 1.377 . S
N277 C276 1.344 . S
O278 Co270 2.055 . S
O278 C282 1.253 . S
H279 C275 0.931 . S
H280 C276 0.930 . S
O281 Co270 2.039 . S
O281 C271 1.265 . S
C282 O278 1.253 . S
C282 O283 1.227 . S
O283 C282 1.227 . S
N284 Co270 2.140 1_455 S
N284 C287 1.338 1_455 S
N284 C288 1.345 . S
C285 C286 1.387 . S
C285 C289 1.391 . S
C286 C285 1.387 . S
C286 C287 1.350 1_455 S
C286 H295 0.929 . S
C287 N284 1.338 1_655 S
C287 C286 1.350 1_655 S
C287 H290 0.959 . S
C288 N284 1.345 . S
C288 C289 1.371 . S
C288 H291 0.931 . S
C289 C285 1.391 . S
C289 C288 1.371 . S
C289 H296 0.930 . S
H290 C287 0.959 . S
H291 C288 0.931 . S
H292 C268 0.930 . S
H293 C265 0.930 . S
H294 C274 0.930 . S
H295 C286 0.929 . S
H296 C289 0.930 . S
C297 C298 1.351 . S
C297 N300 1.368 . S
C297 H302 0.931 . S
C298 C297 1.351 . S
C298 N299 1.373 . S
C298 H326 0.930 . S
N299 C298 1.373 . S
N299 C301 1.340 . S
N300 C297 1.368 . S
N300 C301 1.321 . S
N300 Co303 2.135 . S
C301 N299 1.340 . S
C301 N300 1.321 . S
C301 H325 0.930 . S
H302 C297 0.931 . S
Co303 N300 2.135 . S
Co303 N306 2.121 1_565 S
Co303 O311 2.055 . S
Co303 O314 2.039 . S
Co303 N317 2.140 1_565 S
C304 O305 1.227 . S
C304 O314 1.265 . S
O305 C304 1.227 . S
N306 Co303 2.121 1_545 S
N306 C308 1.375 . S
N306 C309 1.313 . S
C307 C308 1.338 . S
C307 N310 1.377 . S
C307 H327 0.930 . S
C308 N306 1.375 . S
C308 C307 1.338 . S
C308 H312 0.931 . S
C309 N306 1.313 . S
C309 N310 1.344 . S
C309 H313 0.930 . S
N310 C307 1.377 . S
N310 C309 1.344 . S
O311 Co303 2.055 . S
O311 C315 1.253 . S
H312 C308 0.931 . S
H313 C309 0.930 . S
O314 Co303 2.039 . S
O314 C304 1.265 . S
C315 O311 1.253 . S
C315 O316 1.227 . S
O316 C315 1.227 . S
N317 Co303 2.140 1_545 S
N317 C320 1.338 1_545 S
N317 C321 1.345 . S
C318 C319 1.387 . S
C318 C322 1.391 . S
C319 C318 1.387 . S
C319 C320 1.350 1_545 S
C319 H328 0.929 . S
C320 N317 1.338 1_565 S
C320 C319 1.350 1_565 S
C320 H323 0.959 . S
C321 N317 1.345 . S
C321 C322 1.371 . S
C321 H324 0.931 . S
C322 C318 1.391 . S
C322 C321 1.371 . S
C322 H329 0.930 . S
H323 C320 0.959 . S
H324 C321 0.931 . S
H325 C301 0.930 . S
H326 C298 0.930 . S
H327 C307 0.930 . S
H328 C319 0.929 . S
H329 C322 0.930 . S
C330 C331 1.351 . S
C330 N333 1.368 . S
C330 H335 0.931 . S
C331 C330 1.351 . S
C331 N332 1.373 . S
C331 H359 0.930 . S
N332 C331 1.373 . S
N332 C334 1.340 . S
N333 C330 1.368 . S
N333 C334 1.321 . S
N333 Co336 2.135 . S
C334 N332 1.340 . S
C334 N333 1.321 . S
C334 H358 0.930 . S
H335 C330 0.931 . S
Co336 N333 2.135 . S
Co336 N339 2.121 . S
Co336 O344 2.055 . S
Co336 O347 2.039 . S
Co336 N350 2.140 . S
C337 O338 1.227 . S
C337 O347 1.265 . S
O338 C337 1.227 . S
N339 Co336 2.121 . S
N339 C341 1.375 . S
N339 C342 1.313 . S
C340 C341 1.338 . S
C340 N343 1.377 . S
C340 H360 0.930 . S
C341 N339 1.375 . S
C341 C340 1.338 . S
C341 H345 0.931 . S
C342 N339 1.313 . S
C342 N343 1.344 . S
C342 H346 0.930 . S
N343 C340 1.377 . S
N343 C342 1.344 . S
O344 Co336 2.055 . S
O344 C348 1.253 . S
H345 C341 0.931 . S
H346 C342 0.930 . S
O347 Co336 2.039 . S
O347 C337 1.265 . S
C348 O344 1.253 . S
C348 O349 1.227 . S
O349 C348 1.227 . S
N350 Co336 2.140 . S
N350 C353 1.346 . S
N350 C354 1.345 . S
C351 C352 1.387 . S
C351 C355 1.391 . S
C352 C351 1.387 . S
C352 C353 1.369 . S
C352 H361 0.929 . S
C353 N350 1.346 . S
C353 C352 1.369 . S
C353 H356 0.928 . S
C354 N350 1.345 . S
C354 C355 1.371 . S
C354 H357 0.931 . S
C355 C351 1.391 . S
C355 C354 1.371 . S
C355 H362 0.930 . S
H356 C353 0.928 . S
H357 C354 0.931 . S
H358 C334 0.930 . S
H359 C331 0.930 . S
H360 C340 0.930 . S
H361 C352 0.929 . S
H362 C355 0.930 . S
C363 C364 1.351 . S
C363 N366 1.368 . S
C363 H368 0.931 . S
C364 C363 1.351 . S
C364 N365 1.373 . S
C364 H392 0.930 . S
N365 C364 1.373 . S
N365 C367 1.340 . S
N366 C363 1.368 . S
N366 C367 1.321 . S
N366 Co369 2.135 . S
C367 N365 1.340 . S
C367 N366 1.321 . S
C367 H391 0.930 . S
H368 C363 0.931 . S
Co369 N366 2.135 . S
Co369 N372 2.121 . S
Co369 O377 2.055 . S
Co369 O380 2.039 . S
Co369 N383 2.140 . S
C370 O371 1.227 . S
C370 O380 1.265 . S
O371 C370 1.227 . S
N372 Co369 2.121 . S
N372 C374 1.375 . S
N372 C375 1.313 . S
C373 C374 1.338 . S
C373 N376 1.377 . S
C373 H393 0.930 . S
C374 N372 1.375 . S
C374 C373 1.338 . S
C374 H378 0.931 . S
C375 N372 1.313 . S
C375 N376 1.344 . S
C375 H379 0.930 . S
N376 C373 1.377 . S
N376 C375 1.344 . S
O377 Co369 2.055 . S
O377 C381 1.253 . S
H378 C374 0.931 . S
H379 C375 0.930 . S
O380 Co369 2.039 . S
O380 C370 1.265 . S
C381 O377 1.253 . S
C381 O382 1.227 . S
O382 C381 1.227 . S
N383 Co369 2.140 . S
N383 C386 1.346 . S
N383 C387 1.345 . S
C384 C385 1.387 . S
C384 C388 1.391 . S
C385 C384 1.387 . S
C385 C386 1.369 . S
C385 H394 0.929 . S
C386 N383 1.346 . S
C386 C385 1.369 . S
C386 H389 0.928 . S
C387 N383 1.345 . S
C387 C388 1.371 . S
C387 H390 0.931 . S
C388 C384 1.391 . S
C388 C387 1.371 . S
C388 H395 0.930 . S
H389 C386 0.928 . S
H390 C387 0.931 . S
H391 C367 0.930 . S
H392 C364 0.930 . S
H393 C373 0.930 . S
H394 C385 0.929 . S
H395 C388 0.930 . S
C396 C397 1.351 . S
C396 N399 1.368 . S
C396 H401 0.931 . S
C397 C396 1.351 . S
C397 N398 1.373 . S
C397 H425 0.930 . S
N398 C397 1.373 . S
N398 C400 1.340 . S
N399 C396 1.368 . S
N399 C400 1.321 . S
N399 Co402 2.135 . S
C400 N398 1.340 . S
C400 N399 1.321 . S
C400 H424 0.930 . S
H401 C396 0.931 . S
Co402 N399 2.135 . S
Co402 N405 2.121 1_655 S
Co402 O410 2.055 . S
Co402 O413 2.039 . S
Co402 N416 2.140 1_655 S
C403 O404 1.227 . S
C403 O413 1.265 . S
O404 C403 1.227 . S
N405 Co402 2.121 1_455 S
N405 C407 1.375 . S
N405 C408 1.313 . S
C406 C407 1.338 . S
C406 N409 1.377 . S
C406 H426 0.930 . S
C407 N405 1.375 . S
C407 C406 1.338 . S
C407 H411 0.931 . S
C408 N405 1.313 . S
C408 N409 1.344 . S
C408 H412 0.930 . S
N409 C406 1.377 . S
N409 C408 1.344 . S
O410 Co402 2.055 . S
O410 C414 1.253 . S
H411 C407 0.931 . S
H412 C408 0.930 . S
O413 Co402 2.039 . S
O413 C403 1.265 . S
C414 O410 1.253 . S
C414 O415 1.227 . S
O415 C414 1.227 . S
N416 Co402 2.140 1_455 S
N416 C419 1.338 1_455 S
N416 C420 1.345 . S
C417 C418 1.387 . S
C417 C421 1.391 . S
C418 C417 1.387 . S
C418 C419 1.350 1_455 S
C418 H427 0.929 . S
C419 N416 1.338 1_655 S
C419 C418 1.350 1_655 S
C419 H422 0.959 . S
C420 N416 1.345 . S
C420 C421 1.371 . S
C420 H423 0.931 . S
C421 C417 1.391 . S
C421 C420 1.371 . S
C421 H428 0.930 . S
H422 C419 0.959 . S
H423 C420 0.931 . S
H424 C400 0.930 . S
H425 C397 0.930 . S
H426 C406 0.930 . S
H427 C418 0.929 . S
H428 C421 0.930 . S
C429 C430 1.351 . S
C429 N432 1.368 . S
C429 H434 0.931 . S
C430 C429 1.351 . S
C430 N431 1.373 . S
C430 H458 0.930 . S
N431 C430 1.373 . S
N431 C433 1.340 . S
N432 C429 1.368 . S
N432 C433 1.321 . S
N432 Co435 2.135 . S
C433 N431 1.340 . S
C433 N432 1.321 . S
C433 H457 0.930 . S
H434 C429 0.931 . S
Co435 N432 2.135 . S
Co435 N438 2.121 1_565 S
Co435 O443 2.055 . S
Co435 O446 2.039 . S
Co435 N449 2.140 1_565 S
C436 O437 1.227 . S
C436 O446 1.265 . S
O437 C436 1.227 . S
N438 Co435 2.121 1_545 S
N438 C440 1.375 . S
N438 C441 1.313 . S
C439 C440 1.338 . S
C439 N442 1.377 . S
C439 H459 0.930 . S
C440 N438 1.375 . S
C440 C439 1.338 . S
C440 H444 0.931 . S
C441 N438 1.313 . S
C441 N442 1.344 . S
C441 H445 0.930 . S
N442 C439 1.377 . S
N442 C441 1.344 . S
O443 Co435 2.055 . S
O443 C447 1.253 . S
H444 C440 0.931 . S
H445 C441 0.930 . S
O446 Co435 2.039 . S
O446 C436 1.265 . S
C447 O443 1.253 . S
C447 O448 1.227 . S
O448 C447 1.227 . S
N449 Co435 2.140 1_545 S
N449 C452 1.338 1_545 S
N449 C453 1.345 . S
C450 C451 1.387 . S
C450 C454 1.391 . S
C451 C450 1.387 . S
C451 C452 1.350 1_545 S
C451 H460 0.929 . S
C452 N449 1.338 1_565 S
C452 C451 1.350 1_565 S
C452 H455 0.959 . S
C453 N449 1.345 . S
C453 C454 1.371 . S
C453 H456 0.931 . S
C454 C450 1.391 . S
C454 C453 1.371 . S
C454 H461 0.930 . S
H455 C452 0.959 . S
H456 C453 0.931 . S
H457 C433 0.930 . S
H458 C430 0.930 . S
H459 C439 0.930 . S
H460 C451 0.929 . S
H461 C454 0.930 . S
C462 C463 1.351 . S
C462 N465 1.368 . S
C462 H467 0.931 . S
C463 C462 1.351 . S
C463 N464 1.373 . S
C463 H491 0.930 . S
N464 C463 1.373 . S
N464 C466 1.340 . S
N465 C462 1.368 . S
N465 C466 1.321 . S
N465 Co468 2.135 . S
C466 N464 1.340 . S
C466 N465 1.321 . S
C466 H490 0.930 . S
H467 C462 0.931 . S
Co468 N465 2.135 . S
Co468 N471 2.121 . S
Co468 O476 2.055 . S
Co468 O479 2.039 . S
Co468 N482 2.140 . S
C469 O470 1.227 . S
C469 O479 1.265 . S
O470 C469 1.227 . S
N471 Co468 2.121 . S
N471 C473 1.375 . S
N471 C474 1.313 . S
C472 C473 1.338 . S
C472 N475 1.377 . S
C472 H492 0.930 . S
C473 N471 1.375 . S
C473 C472 1.338 . S
C473 H477 0.931 . S
C474 N471 1.313 . S
C474 N475 1.344 . S
C474 H478 0.930 . S
N475 C472 1.377 . S
N475 C474 1.344 . S
O476 Co468 2.055 . S
O476 C480 1.253 . S
H477 C473 0.931 . S
H478 C474 0.930 . S
O479 Co468 2.039 . S
O479 C469 1.265 . S
C480 O476 1.253 . S
C480 O481 1.227 . S
O481 C480 1.227 . S
N482 Co468 2.140 . S
N482 C485 1.346 . S
N482 C486 1.345 . S
C483 C484 1.387 . S
C483 C487 1.391 . S
C484 C483 1.387 . S
C484 C485 1.369 . S
C484 H493 0.929 . S
C485 N482 1.346 . S
C485 C484 1.369 . S
C485 H488 0.928 . S
C486 N482 1.345 . S
C486 C487 1.371 . S
C486 H489 0.931 . S
C487 C483 1.391 . S
C487 C486 1.371 . S
C487 H494 0.930 . S
H488 C485 0.928 . S
H489 C486 0.931 . S
H490 C466 0.930 . S
H491 C463 0.930 . S
H492 C472 0.930 . S
H493 C484 0.929 . S
H494 C487 0.930 . S
C495 C496 1.351 . S
C495 N498 1.368 . S
C495 H500 0.931 . S
C496 C495 1.351 . S
C496 N497 1.373 . S
C496 H524 0.930 . S
N497 C496 1.373 . S
N497 C499 1.340 . S
N498 C495 1.368 . S
N498 C499 1.321 . S
N498 Co501 2.135 . S
C499 N497 1.340 . S
C499 N498 1.321 . S
C499 H523 0.930 . S
H500 C495 0.931 . S
Co501 N498 2.135 . S
Co501 N504 2.121 . S
Co501 O509 2.055 . S
Co501 O512 2.039 . S
Co501 N515 2.140 . S
C502 O503 1.227 . S
C502 O512 1.265 . S
O503 C502 1.227 . S
N504 Co501 2.121 . S
N504 C506 1.375 . S
N504 C507 1.313 . S
C505 C506 1.338 . S
C505 N508 1.377 . S
C505 H525 0.930 . S
C506 N504 1.375 . S
C506 C505 1.338 . S
C506 H510 0.931 . S
C507 N504 1.313 . S
C507 N508 1.344 . S
C507 H511 0.930 . S
N508 C505 1.377 . S
N508 C507 1.344 . S
O509 Co501 2.055 . S
O509 C513 1.253 . S
H510 C506 0.931 . S
H511 C507 0.930 . S
O512 Co501 2.039 . S
O512 C502 1.265 . S
C513 O509 1.253 . S
C513 O514 1.227 . S
O514 C513 1.227 . S
N515 Co501 2.140 . S
N515 C518 1.346 . S
N515 C519 1.345 . S
C516 C517 1.387 . S
C516 C520 1.391 . S
C517 C516 1.387 . S
C517 C518 1.369 . S
C517 H526 0.929 . S
C518 N515 1.346 . S
C518 C517 1.369 . S
C518 H521 0.928 . S
C519 N515 1.345 . S
C519 C520 1.371 . S
C519 H522 0.931 . S
C520 C516 1.391 . S
C520 C519 1.371 . S
C520 H527 0.930 . S
H521 C518 0.928 . S
H522 C519 0.931 . S
H523 C499 0.930 . S
H524 C496 0.930 . S
H525 C505 0.930 . S
H526 C517 0.929 . S
H527 C520 0.930 . S
H528 C534 0.930 1_655 S
H529 C538 0.930 . S
H530 C543 0.929 . S
H531 C541 0.929 . S
H532 C536 0.929 . S
H533 C542 0.929 . S
C534 H528 0.930 1_455 S
C534 C535 1.367 . S
C534 C542 1.378 . S
C535 C534 1.367 . S
C535 C543 1.433 . S
C536 H532 0.929 . S
C536 C538 1.378 . S
C536 C540 1.350 . S
C537 C540 1.463 . S
C537 C542 1.350 . S
C537 N545 1.427 . S
C538 H529 0.930 . S
C538 C536 1.378 . S
C538 C539 1.367 . S
C539 C538 1.367 . S
C539 C541 1.433 . S
C540 C536 1.350 . S
C540 C537 1.463 . S
C540 N544 1.427 . S
C541 H531 0.929 . S
C541 C539 1.433 . S
C541 N544 1.384 . S
C542 H533 0.929 . S
C542 C534 1.378 . S
C542 C537 1.350 . S
C543 H530 0.929 . S
C543 C535 1.433 . S
C543 N545 1.384 . S
N544 C540 1.427 . S
N544 C541 1.384 . S
N545 C537 1.427 . S
N545 C543 1.384 . S
H546 C552 0.930 . S
H547 C556 0.930 . S
H548 C561 0.929 . S
H549 C559 0.929 . S
H550 C554 0.929 . S
H551 C560 0.929 . S
C552 H546 0.930 . S
C552 C553 1.367 . S
C552 C560 1.378 . S
C553 C552 1.367 . S
C553 C561 1.433 . S
C554 H550 0.929 . S
C554 C556 1.378 . S
C554 C558 1.350 . S
C555 C558 1.463 . S
C555 C560 1.350 . S
C555 N563 1.427 . S
C556 H547 0.930 . S
C556 C554 1.378 . S
C556 C557 1.367 . S
C557 C556 1.367 . S
C557 C559 1.433 . S
C558 C554 1.350 . S
C558 C555 1.463 . S
C558 N562 1.427 . S
C559 H549 0.929 . S
C559 C557 1.433 . S
C559 N562 1.384 . S
C560 H551 0.929 . S
C560 C552 1.378 . S
C560 C555 1.350 . S
C561 H548 0.929 . S
C561 C553 1.433 . S
C561 N563 1.384 . S
N562 C558 1.427 . S
N562 C559 1.384 . S
N563 C555 1.427 . S
N563 C561 1.384 . S
H564 C570 0.930 . S
H565 C574 0.930 . S
H566 C579 0.929 . S
H567 C577 0.929 . S
H568 C572 0.929 . S
H569 C578 0.929 . S
C570 H564 0.930 . S
C570 C571 1.367 . S
C570 C578 1.378 . S
C571 C570 1.367 . S
C571 C579 1.433 . S
C572 H568 0.929 . S
C572 C574 1.378 . S
C572 C576 1.350 . S
C573 C576 1.463 . S
C573 C578 1.350 . S
C573 N581 1.427 . S
C574 H565 0.930 . S
C574 C572 1.378 . S
C574 C575 1.367 . S
C575 C574 1.367 . S
C575 C577 1.433 . S
C576 C572 1.350 . S
C576 C573 1.463 . S
C576 N580 1.427 . S
C577 H567 0.929 . S
C577 C575 1.433 . S
C577 N580 1.384 . S
C578 H569 0.929 . S
C578 C570 1.378 . S
C578 C573 1.350 . S
C579 H566 0.929 . S
C579 C571 1.433 . S
C579 N581 1.384 . S
N580 C576 1.427 . S
N580 C577 1.384 . S
N581 C573 1.427 . S
N581 C579 1.384 . S
H582 C588 0.930 . S
H583 C592 0.930 . S
H584 C597 0.929 . S
H585 C595 0.929 . S
H586 C590 0.929 . S
H587 C596 0.929 . S
C588 H582 0.930 . S
C588 C589 1.367 . S
C588 C596 1.378 . S
C589 C588 1.367 . S
C589 C597 1.433 . S
C590 H586 0.929 . S
C590 C592 1.378 . S
C590 C594 1.350 . S
C591 C594 1.463 . S
C591 C596 1.350 . S
C591 N599 1.427 . S
C592 H583 0.930 . S
C592 C590 1.378 . S
C592 C593 1.367 . S
C593 C592 1.367 . S
C593 C595 1.433 . S
C594 C590 1.350 . S
C594 C591 1.463 . S
C594 N598 1.427 . S
C595 H585 0.929 . S
C595 C593 1.433 . S
C595 N598 1.384 . S
C596 H587 0.929 . S
C596 C588 1.378 . S
C596 C591 1.350 . S
C597 H584 0.929 . S
C597 C589 1.433 . S
C597 N599 1.384 . S
N598 C594 1.427 . S
N598 C595 1.384 . S
N599 C591 1.427 . S
N599 C597 1.384 . S
H600 C606 0.930 . S
H601 C610 0.930 1_545 S
H602 C615 0.929 1_455 S
H603 C613 0.929 . S
H604 C608 0.929 . S
H605 C614 0.929 . S
C606 H600 0.930 . S
C606 C607 1.367 . S
C606 C614 1.378 . S
C607 C606 1.367 . S
C607 C615 1.433 . S
C608 H604 0.929 . S
C608 C610 1.378 . S
C608 C612 1.350 . S
C609 C612 1.463 . S
C609 C614 1.350 . S
C609 N617 1.427 . S
C610 H601 0.930 1_565 S
C610 C608 1.378 . S
C610 C611 1.367 . S
C611 C610 1.367 . S
C611 C613 1.433 . S
C612 C608 1.350 . S
C612 C609 1.463 . S
C612 N616 1.427 . S
C613 H603 0.929 . S
C613 C611 1.433 . S
C613 N616 1.384 . S
C614 H605 0.929 . S
C614 C606 1.378 . S
C614 C609 1.350 . S
C615 H602 0.929 1_655 S
C615 C607 1.433 . S
C615 N617 1.384 . S
N616 C612 1.427 . S
N616 C613 1.384 . S
N617 C609 1.427 . S
N617 C615 1.384 . S
H618 C624 0.930 . S
H619 C628 0.930 . S
H620 C633 0.929 1_545 S
H621 C631 0.929 . S
H622 C626 0.929 . S
H623 C632 0.929 . S
C624 H618 0.930 . S
C624 C625 1.367 . S
C624 C632 1.378 . S
C625 C624 1.367 . S
C625 C633 1.433 . S
C626 H622 0.929 . S
C626 C628 1.378 . S
C626 C630 1.350 . S
C627 C630 1.463 . S
C627 C632 1.350 . S
C627 N635 1.427 . S
C628 H619 0.930 . S
C628 C626 1.378 . S
C628 C629 1.367 . S
C629 C628 1.367 . S
C629 C631 1.433 . S
C630 C626 1.350 . S
C630 C627 1.463 . S
C630 N634 1.427 . S
C631 H621 0.929 . S
C631 C629 1.433 . S
C631 N634 1.384 . S
C632 H623 0.929 . S
C632 C624 1.378 . S
C632 C627 1.350 . S
C633 H620 0.929 1_565 S
C633 C625 1.433 . S
C633 N635 1.384 . S
N634 C630 1.427 . S
N634 C631 1.384 . S
N635 C627 1.427 . S
N635 C633 1.384 . S
H636 C642 0.930 . S
H637 C646 0.930 . S
H638 C651 0.929 . S
H639 C649 0.929 . S
H640 C644 0.929 . S
H641 C650 0.929 . S
C642 H636 0.930 . S
C642 C643 1.367 . S
C642 C650 1.378 . S
C643 C642 1.367 . S
C643 C651 1.433 . S
C644 H640 0.929 . S
C644 C646 1.378 . S
C644 C648 1.350 . S
C645 C648 1.463 . S
C645 C650 1.350 . S
C645 N653 1.427 . S
C646 H637 0.930 . S
C646 C644 1.378 . S
C646 C647 1.367 . S
C647 C646 1.367 . S
C647 C649 1.433 . S
C648 C644 1.350 . S
C648 C645 1.463 . S
C648 N652 1.427 . S
C649 H639 0.929 . S
C649 C647 1.433 . S
C649 N652 1.384 . S
C650 H641 0.929 . S
C650 C642 1.378 . S
C650 C645 1.350 . S
C651 H638 0.929 . S
C651 C643 1.433 . S
C651 N653 1.384 . S
N652 C648 1.427 . S
N652 C649 1.384 . S
N653 C645 1.427 . S
N653 C651 1.384 . S
H654 C660 0.930 . S
H655 C664 0.930 1_455 S
H656 C669 0.929 . S
H657 C667 0.929 . S
H658 C662 0.929 . S
H659 C668 0.929 . S
C660 H654 0.930 . S
C660 C661 1.367 . S
C660 C668 1.378 . S
C661 C660 1.367 . S
C661 C669 1.433 . S
C662 H658 0.929 . S
C662 C664 1.378 . S
C662 C666 1.350 . S
C663 C666 1.463 . S
C663 C668 1.350 . S
C663 N671 1.427 . S
C664 H655 0.930 1_655 S
C664 C662 1.378 . S
C664 C665 1.367 . S
C665 C664 1.367 . S
C665 C667 1.433 . S
C666 C662 1.350 . S
C666 C663 1.463 . S
C666 N670 1.427 . S
C667 H657 0.929 . S
C667 C665 1.433 . S
C667 N670 1.384 . S
C668 H659 0.929 . S
C668 C660 1.378 . S
C668 C663 1.350 . S
C669 H656 0.929 . S
C669 C661 1.433 . S
C669 N671 1.384 . S
N670 C666 1.427 . S
N670 C667 1.384 . S
N671 C663 1.427 . S
N671 C669 1.384 . S
H672 C678 0.930 . S
H673 C682 0.930 . S
H674 C687 0.929 . S
H675 C685 0.929 . S
H676 C680 0.929 . S
H677 C686 0.929 . S
C678 H672 0.930 . S
C678 C679 1.367 . S
C678 C686 1.378 . S
C679 C678 1.367 . S
C679 C687 1.433 . S
C680 H676 0.929 . S
C680 C682 1.378 . S
C680 C684 1.350 . S
C681 C684 1.463 1_465 S
C681 C686 1.350 . S
C681 N689 1.427 . S
C682 H673 0.930 . S
C682 C680 1.378 . S
C682 C683 1.367 . S
C683 C682 1.367 . S
C683 C685 1.433 . S
C684 C680 1.350 . S
C684 C681 1.463 1_645 S
C684 N688 1.427 . S
C685 H675 0.929 . S
C685 C683 1.433 . S
C685 N688 1.384 . S
C686 H677 0.929 . S
C686 C678 1.378 . S
C686 C681 1.350 . S
C687 H674 0.929 . S
C687 C679 1.433 . S
C687 N689 1.384 . S
N688 C684 1.427 . S
N688 C685 1.384 . S
N689 C681 1.427 . S
N689 C687 1.384 . S
H690 C696 0.930 . S
H691 C700 0.930 . S
H692 C705 0.929 1_565 S
H693 C703 0.929 1_545 S
H694 C698 0.929 . S
H695 C704 0.929 . S
C696 H690 0.930 . S
C696 C697 1.367 . S
C696 C704 1.378 . S
C697 C696 1.367 . S
C697 C705 1.433 . S
C698 H694 0.929 . S
C698 C700 1.378 . S
C698 C702 1.350 . S
C699 C702 1.463 1_545 S
C699 C704 1.350 . S
C699 N707 1.427 1_545 S
C700 H691 0.930 . S
C700 C698 1.378 . S
C700 C701 1.367 . S
C701 C700 1.367 . S
C701 C703 1.433 . S
C702 C698 1.350 . S
C702 C699 1.463 1_565 S
C702 N706 1.427 1_565 S
C703 H693 0.929 1_565 S
C703 C701 1.433 . S
C703 N706 1.384 1_565 S
C704 H695 0.929 . S
C704 C696 1.378 . S
C704 C699 1.350 . S
C705 H692 0.929 1_545 S
C705 C697 1.433 . S
C705 N707 1.384 1_545 S
N706 C702 1.427 1_545 S
N706 C703 1.384 1_545 S
N707 C699 1.427 1_565 S
N707 C705 1.384 1_565 S
H708 C714 0.930 . S
H709 C718 0.930 . S
H710 C723 0.929 . S
H711 C721 0.929 . S
H712 C716 0.929 . S
H713 C722 0.929 . S
C714 H708 0.930 . S
C714 C715 1.367 . S
C714 C722 1.378 . S
C715 C714 1.367 . S
C715 C723 1.433 . S
C716 H712 0.929 . S
C716 C718 1.378 . S
C716 C720 1.350 . S
C717 C720 1.463 . S
C717 C722 1.350 . S
C717 N725 1.427 . S
C718 H709 0.930 . S
C718 C716 1.378 . S
C718 C719 1.367 . S
C719 C718 1.367 . S
C719 C721 1.433 . S
C720 C716 1.350 . S
C720 C717 1.463 . S
C720 N724 1.427 . S
C721 H711 0.929 . S
C721 C719 1.433 . S
C721 N724 1.384 . S
C722 H713 0.929 . S
C722 C714 1.378 . S
C722 C717 1.350 . S
C723 H710 0.929 . S
C723 C715 1.433 . S
C723 N725 1.384 . S
N724 C720 1.427 . S
N724 C721 1.384 . S
N725 C717 1.427 . S
N725 C723 1.384 . S
H726 C732 0.930 . S
H727 C736 0.930 . S
H728 C741 0.929 . S
H729 C739 0.929 . S
H730 C734 0.929 . S
H731 C740 0.929 . S
C732 H726 0.930 . S
C732 C733 1.367 . S
C732 C740 1.378 . S
C733 C732 1.367 . S
C733 C741 1.433 . S
C734 H730 0.929 . S
C734 C736 1.378 . S
C734 C738 1.350 . S
C735 C738 1.463 1_655 S
C735 C740 1.350 . S
C735 N743 1.427 . S
C736 H727 0.930 . S
C736 C734 1.378 . S
C736 C737 1.367 . S
C737 C736 1.367 . S
C737 C739 1.433 . S
C738 C734 1.350 . S
C738 C735 1.463 1_455 S
C738 N742 1.427 . S
C739 H729 0.929 . S
C739 C737 1.433 . S
C739 N742 1.384 . S
C740 H731 0.929 . S
C740 C732 1.378 . S
C740 C735 1.350 . S
C741 H728 0.929 . S
C741 C733 1.433 . S
C741 N743 1.384 . S
N742 C738 1.427 . S
N742 C739 1.384 . S
N743 C735 1.427 . S
N743 C741 1.384 . S
H744 C750 0.944 . S
H745 C754 0.944 . S
H746 C759 0.929 . S
H747 C757 0.929 . S
H748 C752 0.929 . S
H749 C758 0.929 . S
C750 H744 0.944 . S
C750 C751 1.367 . S
C750 C758 1.378 1_556 S
C751 C750 1.367 . S
C751 C759 1.433 . S
C752 H748 0.929 . S
C752 C754 1.378 1_556 S
C752 C756 1.350 1_556 S
C753 C756 1.463 1_656 S
C753 C758 1.350 1_556 S
C753 N761 1.427 . S
C754 H745 0.944 . S
C754 C752 1.378 1_554 S
C754 C755 1.367 . S
C755 C754 1.367 . S
C755 C757 1.433 . S
C756 C752 1.350 1_554 S
C756 C753 1.463 1_454 S
C756 N760 1.427 . S
C757 H747 0.929 . S
C757 C755 1.433 . S
C757 N760 1.384 . S
C758 H749 0.929 . S
C758 C750 1.378 1_554 S
C758 C753 1.350 1_554 S
C759 H746 0.929 . S
C759 C751 1.433 . S
C759 N761 1.384 . S
N760 C756 1.427 . S
N760 C757 1.384 . S
N761 C753 1.427 . S
N761 C759 1.384 . S
H762 C768 0.930 . S
H763 C772 0.930 . S
H764 C777 0.929 . S
H765 C775 0.929 . S
H766 C770 0.918 1_566 S
H767 C776 0.918 1_544 S
C768 H762 0.930 . S
C768 C769 1.367 . S
C768 C776 1.385 . S
C769 C768 1.367 . S
C769 C777 1.433 . S
C770 H766 0.918 1_544 S
C770 C772 1.385 . S
C770 C774 1.354 . S
C771 C774 1.463 1_466 S
C771 C776 1.354 . S
C771 N779 1.427 . S
C772 H763 0.930 . S
C772 C770 1.385 . S
C772 C773 1.367 . S
C773 C772 1.367 . S
C773 C775 1.433 . S
C774 C770 1.354 . S
C774 C771 1.463 1_644 S
C774 N778 1.427 . S
C775 H765 0.929 . S
C775 C773 1.433 . S
C775 N778 1.384 . S
C776 H767 0.918 1_566 S
C776 C768 1.385 . S
C776 C771 1.354 . S
C777 H764 0.929 . S
C777 C769 1.433 . S
C777 N779 1.384 . S
N778 C774 1.427 . S
N778 C775 1.384 . S
N779 C771 1.427 . S
N779 C777 1.384 . S
H780 C786 0.930 . S
H781 C790 0.930 . S
H782 C795 0.929 . S
H783 C793 0.929 . S
H784 C788 0.929 . S
H785 C794 0.929 . S
C786 H780 0.930 . S
C786 C787 1.367 . S
C786 C794 1.378 . S
C787 C786 1.367 . S
C787 C795 1.433 . S
C788 H784 0.929 . S
C788 C790 1.378 . S
C788 C792 1.350 . S
C789 C792 1.463 1_546 S
C789 C794 1.350 . S
C789 N797 1.427 . S
C790 H781 0.930 . S
C790 C788 1.378 . S
C790 C791 1.367 . S
C791 C790 1.367 . S
C791 C793 1.433 . S
C792 C788 1.350 . S
C792 C789 1.463 1_564 S
C792 N796 1.427 . S
C793 H783 0.929 . S
C793 C791 1.433 . S
C793 N796 1.384 . S
C794 H785 0.929 . S
C794 C786 1.378 . S
C794 C789 1.350 . S
C795 H782 0.929 . S
C795 C787 1.433 . S
C795 N797 1.384 . S
N796 C792 1.427 . S
N796 C793 1.384 . S
N797 C789 1.427 . S
N797 C795 1.384 . S
H798 C804 0.930 . S
H799 C808 0.930 . S
H800 C813 0.929 . S
H801 C811 0.929 . S
H802 C806 0.929 . S
H803 C812 0.929 . S
C804 H798 0.930 . S
C804 C805 1.367 . S
C804 C812 1.378 . S
C805 C804 1.367 . S
C805 C813 1.433 . S
C806 H802 0.929 . S
C806 C808 1.378 . S
C806 C810 1.350 . S
C807 C810 1.463 1_556 S
C807 C812 1.350 . S
C807 N815 1.427 1_556 S
C808 H799 0.930 . S
C808 C806 1.378 . S
C808 C809 1.367 . S
C809 C808 1.367 . S
C809 C811 1.433 . S
C810 C806 1.350 . S
C810 C807 1.463 1_554 S
C810 N814 1.427 1_554 S
C811 H801 0.929 . S
C811 C809 1.433 . S
C811 N814 1.384 1_554 S
C812 H803 0.929 . S
C812 C804 1.378 . S
C812 C807 1.350 . S
C813 H800 0.929 . S
C813 C805 1.433 . S
C813 N815 1.384 1_556 S
N814 C810 1.427 1_556 S
N814 C811 1.384 1_556 S
N815 C807 1.427 1_554 S
N815 C813 1.384 1_554 S
H816 C822 0.930 . S
H817 C826 0.930 . S
H818 C831 0.929 . S
H819 C829 0.929 . S
H820 C824 0.929 . S
H821 C830 0.929 . S
C822 H816 0.930 . S
C822 C823 1.367 . S
C822 C830 1.378 . S
C823 C822 1.367 . S
C823 C831 1.433 . S
C824 H820 0.929 . S
C824 C826 1.378 . S
C824 C828 1.350 . S
C825 C828 1.463 . S
C825 C830 1.350 . S
C825 N833 1.427 . S
C826 H817 0.930 . S
C826 C824 1.378 . S
C826 C827 1.367 . S
C827 C826 1.367 . S
C827 C829 1.433 . S
C828 C824 1.350 . S
C828 C825 1.463 . S
C828 N832 1.427 . S
C829 H819 0.929 . S
C829 C827 1.433 . S
C829 N832 1.384 . S
C830 H821 0.929 . S
C830 C822 1.378 . S
C830 C825 1.350 . S
C831 H818 0.929 . S
C831 C823 1.433 . S
C831 N833 1.384 . S
N832 C828 1.427 . S
N832 C829 1.384 . S
N833 C825 1.427 . S
N833 C831 1.384 . S
H834 C840 0.930 . S
H835 C844 0.930 . S
H836 C849 0.929 . S
H837 C847 0.929 . S
H838 C842 0.929 . S
H839 C848 0.929 . S
C840 H834 0.930 . S
C840 C841 1.367 . S
C840 C848 1.378 . S
C841 C840 1.367 . S
C841 C849 1.433 . S
C842 H838 0.929 . S
C842 C844 1.378 . S
C842 C846 1.350 . S
C843 C846 1.463 . S
C843 C848 1.350 . S
C843 N851 1.427 . S
C844 H835 0.930 . S
C844 C842 1.378 . S
C844 C845 1.367 . S
C845 C844 1.367 . S
C845 C847 1.433 . S
C846 C842 1.350 . S
C846 C843 1.463 . S
C846 N850 1.427 . S
C847 H837 0.929 . S
C847 C845 1.433 . S
C847 N850 1.384 . S
C848 H839 0.929 . S
C848 C840 1.378 . S
C848 C843 1.350 . S
C849 H836 0.929 . S
C849 C841 1.433 . S
C849 N851 1.384 . S
N850 C846 1.427 . S
N850 C847 1.384 . S
N851 C843 1.427 . S
N851 C849 1.384 . S
H852 C858 0.930 . S
H853 C862 0.930 . S
H854 C867 0.929 . S
H855 C865 0.929 . S
H856 C860 0.929 . S
H857 C866 0.929 . S
C858 H852 0.930 . S
C858 C859 1.367 . S
C858 C866 1.378 . S
C859 C858 1.367 . S
C859 C867 1.433 . S
C860 H856 0.929 . S
C860 C862 1.378 . S
C860 C864 1.350 . S
C861 C864 1.463 . S
C861 C866 1.350 . S
C861 N869 1.427 . S
C862 H853 0.930 . S
C862 C860 1.378 . S
C862 C863 1.367 . S
C863 C862 1.367 . S
C863 C865 1.433 . S
C864 C860 1.350 . S
C864 C861 1.463 . S
C864 N868 1.427 . S
C865 H855 0.929 . S
C865 C863 1.433 . S
C865 N868 1.384 . S
C866 H857 0.929 . S
C866 C858 1.378 . S
C866 C861 1.350 . S
C867 H854 0.929 . S
C867 C859 1.433 . S
C867 N869 1.384 . S
N868 C864 1.427 . S
N868 C865 1.384 . S
N869 C861 1.427 . S
N869 C867 1.384 . S
H870 C876 0.930 . S
H871 C880 0.930 . S
H872 C885 0.929 . S
H873 C883 0.929 . S
H874 C878 0.929 . S
H875 C884 0.929 . S
C876 H870 0.930 . S
C876 C877 1.367 . S
C876 C884 1.378 . S
C877 C876 1.367 . S
C877 C885 1.433 . S
C878 H874 0.929 . S
C878 C880 1.378 . S
C878 C882 1.350 . S
C879 C882 1.463 . S
C879 C884 1.350 . S
C879 N887 1.427 . S
C880 H871 0.930 . S
C880 C878 1.378 . S
C880 C881 1.367 . S
C881 C880 1.367 . S
C881 C883 1.433 . S
C882 C878 1.350 . S
C882 C879 1.463 . S
C882 N886 1.427 . S
C883 H873 0.929 . S
C883 C881 1.433 . S
C883 N886 1.384 . S
C884 H875 0.929 . S
C884 C876 1.378 . S
C884 C879 1.350 . S
C885 H872 0.929 . S
C885 C877 1.433 . S
C885 N887 1.384 . S
N886 C882 1.427 . S
N886 C883 1.384 . S
N887 C879 1.427 . S
N887 C885 1.384 . S
H888 C894 0.930 . S
H889 C898 0.930 . S
H890 C903 0.929 . S
H891 C901 0.929 . S
H892 C896 0.929 . S
H893 C902 0.929 . S
C894 H888 0.930 . S
C894 C895 1.367 . S
C894 C902 1.378 . S
C895 C894 1.367 . S
C895 C903 1.433 . S
C896 H892 0.929 . S
C896 C898 1.378 . S
C896 C900 1.350 . S
C897 C900 1.463 . S
C897 C902 1.350 . S
C897 N905 1.427 . S
C898 H889 0.930 . S
C898 C896 1.378 . S
C898 C899 1.367 . S
C899 C898 1.367 . S
C899 C901 1.433 . S
C900 C896 1.350 . S
C900 C897 1.463 . S
C900 N904 1.427 . S
C901 H891 0.929 . S
C901 C899 1.433 . S
C901 N904 1.384 . S
C902 H893 0.929 . S
C902 C894 1.378 . S
C902 C897 1.350 . S
C903 H890 0.929 . S
C903 C895 1.433 . S
C903 N905 1.384 . S
N904 C900 1.427 . S
N904 C901 1.384 . S
N905 C897 1.427 . S
N905 C903 1.384 . S
H906 C912 0.930 . S
H907 C916 0.930 . S
H908 C921 0.929 . S
H909 C919 0.929 . S
H910 C914 0.929 . S
H911 C920 0.929 . S
C912 H906 0.930 . S
C912 C913 1.367 . S
C912 C920 1.378 . S
C913 C912 1.367 . S
C913 C921 1.433 . S
C914 H910 0.929 . S
C914 C916 1.378 . S
C914 C918 1.350 . S
C915 C918 1.463 . S
C915 C920 1.350 . S
C915 N923 1.427 . S
C916 H907 0.930 . S
C916 C914 1.378 . S
C916 C917 1.367 . S
C917 C916 1.367 . S
C917 C919 1.433 . S
C918 C914 1.350 . S
C918 C915 1.463 . S
C918 N922 1.427 . S
C919 H909 0.929 . S
C919 C917 1.433 . S
C919 N922 1.384 . S
C920 H911 0.929 . S
C920 C912 1.378 . S
C920 C915 1.350 . S
C921 H908 0.929 . S
C921 C913 1.433 . S
C921 N923 1.384 . S
N922 C918 1.427 . S
N922 C919 1.384 . S
N923 C915 1.427 . S
N923 C921 1.384 . S
H924 C930 0.930 . S
H925 C934 0.930 . S
H926 C939 0.929 . S
H927 C937 0.929 . S
H928 C932 0.929 . S
H929 C938 0.929 . S
C930 H924 0.930 . S
C930 C931 1.367 . S
C930 C938 1.378 . S
C931 C930 1.367 . S
C931 C939 1.433 . S
C932 H928 0.929 . S
C932 C934 1.378 . S
C932 C936 1.350 . S
C933 C936 1.463 . S
C933 C938 1.350 . S
C933 N941 1.427 . S
C934 H925 0.930 . S
C934 C932 1.378 . S
C934 C935 1.367 . S
C935 C934 1.367 . S
C935 C937 1.433 . S
C936 C932 1.350 . S
C936 C933 1.463 . S
C936 N940 1.427 . S
C937 H927 0.929 . S
C937 C935 1.433 . S
C937 N940 1.384 . S
C938 H929 0.929 . S
C938 C930 1.378 . S
C938 C933 1.350 . S
C939 H926 0.929 . S
C939 C931 1.433 . S
C939 N941 1.384 . S
N940 C936 1.427 . S
N940 C937 1.384 . S
N941 C933 1.427 . S
N941 C939 1.384 . S
H942 C948 0.930 . S
H943 C952 0.930 . S
H944 C957 0.929 . S
H945 C955 0.929 . S
H946 C950 0.929 . S
H947 C956 0.929 . S
C948 H942 0.930 . S
C948 C949 1.367 . S
C948 C956 1.378 . S
C949 C948 1.367 . S
C949 C957 1.433 . S
C950 H946 0.929 . S
C950 C952 1.378 . S
C950 C954 1.350 . S
C951 C954 1.463 . S
C951 C956 1.350 . S
C951 N959 1.427 . S
C952 H943 0.930 . S
C952 C950 1.378 . S
C952 C953 1.367 . S
C953 C952 1.367 . S
C953 C955 1.433 . S
C954 C950 1.350 . S
C954 C951 1.463 . S
C954 N958 1.427 . S
C955 H945 0.929 . S
C955 C953 1.433 . S
C955 N958 1.384 . S
C956 H947 0.929 . S
C956 C948 1.378 . S
C956 C951 1.350 . S
C957 H944 0.929 . S
C957 C949 1.433 . S
C957 N959 1.384 . S
N958 C954 1.427 . S
N958 C955 1.384 . S
N959 C951 1.427 . S
N959 C957 1.384 . S
H960 C966 0.930 . S
H961 C970 0.930 . S
H962 C975 0.929 1_565 S
H963 C973 0.929 . S
H964 C968 0.929 . S
H965 C974 0.929 . S
C966 H960 0.930 . S
C966 C967 1.367 . S
C966 C974 1.378 . S
C967 C966 1.367 . S
C967 C975 1.433 . S
C968 H964 0.929 . S
C968 C970 1.378 . S
C968 C972 1.350 . S
C969 C972 1.463 . S
C969 C974 1.350 . S
C969 N977 1.427 . S
C970 H961 0.930 . S
C970 C968 1.378 . S
C970 C971 1.367 . S
C971 C970 1.367 . S
C971 C973 1.433 . S
C972 C968 1.350 . S
C972 C969 1.463 . S
C972 N976 1.427 . S
C973 H963 0.929 . S
C973 C971 1.433 . S
C973 N976 1.384 . S
C974 H965 0.929 . S
C974 C966 1.378 . S
C974 C969 1.350 . S
C975 H962 0.929 1_545 S
C975 C967 1.433 . S
C975 N977 1.384 . S
N976 C972 1.427 . S
N976 C973 1.384 . S
N977 C969 1.427 . S
N977 C975 1.384 . S
H978 C984 0.930 . S
H979 C988 0.930 . S
H980 C993 0.929 . S
H981 C991 0.929 . S
H982 C986 0.929 . S
H983 C992 0.929 . S
C984 H978 0.930 . S
C984 C985 1.367 . S
C984 C992 1.378 . S
C985 C984 1.367 . S
C985 C993 1.433 . S
C986 H982 0.929 . S
C986 C988 1.378 . S
C986 C990 1.350 . S
C987 C990 1.463 . S
C987 C992 1.350 . S
C987 N995 1.427 . S
C988 H979 0.930 . S
C988 C986 1.378 . S
C988 C989 1.367 . S
C989 C988 1.367 . S
C989 C991 1.433 . S
C990 C986 1.350 . S
C990 C987 1.463 . S
C990 N994 1.427 . S
C991 H981 0.929 . S
C991 C989 1.433 . S
C991 N994 1.384 . S
C992 H983 0.929 . S
C992 C984 1.378 . S
C992 C987 1.350 . S
C993 H980 0.929 . S
C993 C985 1.433 . S
C993 N995 1.384 . S
N994 C990 1.427 . S
N994 C991 1.384 . S
N995 C987 1.427 . S
N995 C993 1.384 . S
H996 C1002 0.930 . S
H997 C1006 0.930 . S
H998 C1011 0.929 . S
H999 C1009 0.929 . S
H1000 C1004 0.929 . S
H1001 C1010 0.929 . S
C1002 H996 0.930 . S
C1002 C1003 1.367 . S
C1002 C1010 1.378 . S
C1003 C1002 1.367 . S
C1003 C1011 1.433 . S
C1004 H1000 0.929 . S
C1004 C1006 1.378 . S
C1004 C1008 1.350 . S
C1005 C1008 1.463 . S
C1005 C1010 1.350 . S
C1005 N1013 1.427 . S
C1006 H997 0.930 . S
C1006 C1004 1.378 . S
C1006 C1007 1.367 . S
C1007 C1006 1.367 . S
C1007 C1009 1.433 . S
C1008 C1004 1.350 . S
C1008 C1005 1.463 . S
C1008 N1012 1.427 . S
C1009 H999 0.929 . S
C1009 C1007 1.433 . S
C1009 N1012 1.384 . S
C1010 H1001 0.929 . S
C1010 C1002 1.378 . S
C1010 C1005 1.350 . S
C1011 H998 0.929 . S
C1011 C1003 1.433 . S
C1011 N1013 1.384 . S
N1012 C1008 1.427 . S
N1012 C1009 1.384 . S
N1013 C1005 1.427 . S
N1013 C1011 1.384 . S
H1014 C1020 0.930 . S
H1015 C1024 0.930 . S
H1016 C1029 0.929 . S
H1017 C1027 0.929 . S
H1018 C1022 0.929 . S
H1019 C1028 0.929 . S
C1020 H1014 0.930 . S
C1020 C1021 1.367 . S
C1020 C1028 1.378 . S
C1021 C1020 1.367 . S
C1021 C1029 1.433 . S
C1022 H1018 0.929 . S
C1022 C1024 1.378 . S
C1022 C1026 1.350 . S
C1023 C1026 1.463 . S
C1023 C1028 1.350 . S
C1023 N1031 1.427 . S
C1024 H1015 0.930 . S
C1024 C1022 1.378 . S
C1024 C1025 1.367 . S
C1025 C1024 1.367 . S
C1025 C1027 1.433 . S
C1026 C1022 1.350 . S
C1026 C1023 1.463 . S
C1026 N1030 1.427 . S
C1027 H1017 0.929 . S
C1027 C1025 1.433 . S
C1027 N1030 1.384 . S
C1028 H1019 0.929 . S
C1028 C1020 1.378 . S
C1028 C1023 1.350 . S
C1029 H1016 0.929 . S
C1029 C1021 1.433 . S
C1029 N1031 1.384 . S
N1030 C1026 1.427 . S
N1030 C1027 1.384 . S
N1031 C1023 1.427 . S
N1031 C1029 1.384 . S
H1032 C1038 0.930 . S
H1033 C1042 0.930 . S
H1034 C1047 0.929 . S
H1035 C1045 0.929 . S
H1036 C1040 0.929 . S
H1037 C1046 0.929 . S
C1038 H1032 0.930 . S
C1038 C1039 1.367 . S
C1038 C1046 1.378 . S
C1039 C1038 1.367 . S
C1039 C1047 1.433 . S
C1040 H1036 0.929 . S
C1040 C1042 1.378 . S
C1040 C1044 1.350 . S
C1041 C1044 1.463 . S
C1041 C1046 1.350 . S
C1041 N1049 1.427 . S
C1042 H1033 0.930 . S
C1042 C1040 1.378 . S
C1042 C1043 1.367 . S
C1043 C1042 1.367 . S
C1043 C1045 1.433 . S
C1044 C1040 1.350 . S
C1044 C1041 1.463 . S
C1044 N1048 1.427 . S
C1045 H1035 0.929 . S
C1045 C1043 1.433 . S
C1045 N1048 1.384 . S
C1046 H1037 0.929 . S
C1046 C1038 1.378 . S
C1046 C1041 1.350 . S
C1047 H1034 0.929 . S
C1047 C1039 1.433 . S
C1047 N1049 1.384 . S
N1048 C1044 1.427 . S
N1048 C1045 1.384 . S
N1049 C1041 1.427 . S
N1049 C1047 1.384 . S
H1050 C1056 0.930 . S
H1051 C1060 0.930 . S
H1052 C1065 0.929 . S
H1053 C1063 0.929 . S
H1054 C1058 0.929 . S
H1055 C1064 0.929 . S
C1056 H1050 0.930 . S
C1056 C1057 1.367 . S
C1056 C1064 1.378 . S
C1057 C1056 1.367 . S
C1057 C1065 1.433 . S
C1058 H1054 0.929 . S
C1058 C1060 1.378 . S
C1058 C1062 1.350 . S
C1059 C1062 1.463 . S
C1059 C1064 1.350 . S
C1059 N1067 1.427 . S
C1060 H1051 0.930 . S
C1060 C1058 1.378 . S
C1060 C1061 1.367 . S
C1061 C1060 1.367 . S
C1061 C1063 1.433 . S
C1062 C1058 1.350 . S
C1062 C1059 1.463 . S
C1062 N1066 1.427 . S
C1063 H1053 0.929 . S
C1063 C1061 1.433 . S
C1063 N1066 1.384 . S
C1064 H1055 0.929 . S
C1064 C1056 1.378 . S
C1064 C1059 1.350 . S
C1065 H1052 0.929 . S
C1065 C1057 1.433 . S
C1065 N1067 1.384 . S
N1066 C1062 1.427 . S
N1066 C1063 1.384 . S
N1067 C1059 1.427 . S
N1067 C1065 1.384 . S
H1068 C1074 0.930 . S
H1069 C1078 0.930 . S
H1070 C1083 0.929 . S
H1071 C1081 0.929 . S
H1072 C1076 0.929 . S
H1073 C1082 0.929 . S
C1074 H1068 0.930 . S
C1074 C1075 1.367 . S
C1074 C1082 1.378 . S
C1075 C1074 1.367 . S
C1075 C1083 1.433 . S
C1076 H1072 0.929 . S
C1076 C1078 1.378 . S
C1076 C1080 1.350 . S
C1077 C1080 1.463 . S
C1077 C1082 1.350 . S
C1077 N1085 1.427 . S
C1078 H1069 0.930 . S
C1078 C1076 1.378 . S
C1078 C1079 1.367 . S
C1079 C1078 1.367 . S
C1079 C1081 1.433 . S
C1080 C1076 1.350 . S
C1080 C1077 1.463 . S
C1080 N1084 1.427 . S
C1081 H1071 0.929 . S
C1081 C1079 1.433 . S
C1081 N1084 1.384 . S
C1082 H1073 0.929 . S
C1082 C1074 1.378 . S
C1082 C1077 1.350 . S
C1083 H1070 0.929 . S
C1083 C1075 1.433 . S
C1083 N1085 1.384 . S
N1084 C1080 1.427 . S
N1084 C1081 1.384 . S
N1085 C1077 1.427 . S
N1085 C1083 1.384 . S
H1086 C1092 0.930 . S
H1087 C1096 0.930 . S
H1088 C1101 0.929 . S
H1089 C1099 0.929 . S
H1090 C1094 0.929 . S
H1091 C1100 0.929 . S
C1092 H1086 0.930 . S
C1092 C1093 1.367 . S
C1092 C1100 1.378 . S
C1093 C1092 1.367 . S
C1093 C1101 1.433 . S
C1094 H1090 0.929 . S
C1094 C1096 1.378 . S
C1094 C1098 1.350 . S
C1095 C1098 1.463 . S
C1095 C1100 1.350 . S
C1095 N1103 1.427 . S
C1096 H1087 0.930 . S
C1096 C1094 1.378 . S
C1096 C1097 1.367 . S
C1097 C1096 1.367 . S
C1097 C1099 1.433 . S
C1098 C1094 1.350 . S
C1098 C1095 1.463 . S
C1098 N1102 1.427 . S
C1099 H1089 0.929 . S
C1099 C1097 1.433 . S
C1099 N1102 1.384 . S
C1100 H1091 0.929 . S
C1100 C1092 1.378 . S
C1100 C1095 1.350 . S
C1101 H1088 0.929 . S
C1101 C1093 1.433 . S
C1101 N1103 1.384 . S
N1102 C1098 1.427 . S
N1102 C1099 1.384 . S
N1103 C1095 1.427 . S
N1103 C1101 1.384 . S
H1104 C1110 0.930 . S
H1105 C1114 0.930 1_545 S
H1106 C1119 0.929 . S
H1107 C1117 0.929 . S
H1108 C1112 0.929 . S
H1109 C1118 0.929 . S
C1110 H1104 0.930 . S
C1110 C1111 1.367 . S
C1110 C1118 1.378 . S
C1111 C1110 1.367 . S
C1111 C1119 1.433 . S
C1112 H1108 0.929 . S
C1112 C1114 1.378 . S
C1112 C1116 1.350 . S
C1113 C1116 1.463 . S
C1113 C1118 1.350 . S
C1113 N1121 1.427 . S
C1114 H1105 0.930 1_565 S
C1114 C1112 1.378 . S
C1114 C1115 1.367 . S
C1115 C1114 1.367 . S
C1115 C1117 1.433 . S
C1116 C1112 1.350 . S
C1116 C1113 1.463 . S
C1116 N1120 1.427 . S
C1117 H1107 0.929 . S
C1117 C1115 1.433 . S
C1117 N1120 1.384 . S
C1118 H1109 0.929 . S
C1118 C1110 1.378 . S
C1118 C1113 1.350 . S
C1119 H1106 0.929 . S
C1119 C1111 1.433 . S
C1119 N1121 1.384 . S
N1120 C1116 1.427 . S
N1120 C1117 1.384 . S
N1121 C1113 1.427 . S
N1121 C1119 1.384 . S
H1122 C1128 0.930 . S
H1123 C1132 0.930 . S
H1124 C1137 0.929 . S
H1125 C1135 0.929 . S
H1126 C1130 0.929 . S
H1127 C1136 0.929 . S
C1128 H1122 0.930 . S
C1128 C1129 1.367 . S
C1128 C1136 1.378 . S
C1129 C1128 1.367 . S
C1129 C1137 1.433 . S
C1130 H1126 0.929 . S
C1130 C1132 1.378 . S
C1130 C1134 1.350 . S
C1131 C1134 1.463 . S
C1131 C1136 1.350 . S
C1131 N1139 1.427 . S
C1132 H1123 0.930 . S
C1132 C1130 1.378 . S
C1132 C1133 1.367 . S
C1133 C1132 1.367 . S
C1133 C1135 1.433 . S
C1134 C1130 1.350 . S
C1134 C1131 1.463 . S
C1134 N1138 1.427 . S
C1135 H1125 0.929 . S
C1135 C1133 1.433 . S
C1135 N1138 1.384 . S
C1136 H1127 0.929 . S
C1136 C1128 1.378 . S
C1136 C1131 1.350 . S
C1137 H1124 0.929 . S
C1137 C1129 1.433 . S
C1137 N1139 1.384 . S
N1138 C1134 1.427 . S
N1138 C1135 1.384 . S
N1139 C1131 1.427 . S
N1139 C1137 1.384 . S
H1140 C1146 0.930 . S
H1141 C1150 0.930 . S
H1142 C1155 0.929 . S
H1143 C1153 0.929 . S
H1144 C1148 0.929 . S
H1145 C1154 0.929 . S
C1146 H1140 0.930 . S
C1146 C1147 1.367 . S
C1146 C1154 1.378 . S
C1147 C1146 1.367 . S
C1147 C1155 1.433 . S
C1148 H1144 0.929 . S
C1148 C1150 1.378 . S
C1148 C1152 1.350 . S
C1149 C1152 1.463 . S
C1149 C1154 1.350 . S
C1149 N1157 1.427 . S
C1150 H1141 0.930 . S
C1150 C1148 1.378 . S
C1150 C1151 1.367 . S
C1151 C1150 1.367 . S
C1151 C1153 1.433 . S
C1152 C1148 1.350 . S
C1152 C1149 1.463 . S
C1152 N1156 1.427 . S
C1153 H1143 0.929 . S
C1153 C1151 1.433 . S
C1153 N1156 1.384 . S
C1154 H1145 0.929 . S
C1154 C1146 1.378 . S
C1154 C1149 1.350 . S
C1155 H1142 0.929 . S
C1155 C1147 1.433 . S
C1155 N1157 1.384 . S
N1156 C1152 1.427 . S
N1156 C1153 1.384 . S
N1157 C1149 1.427 . S
N1157 C1155 1.384 . S
H1158 C1164 0.930 . S
H1159 C1168 0.930 . S
H1160 C1173 0.929 . S
H1161 C1171 0.929 . S
H1162 C1166 0.929 . S
H1163 C1172 0.929 . S
C1164 H1158 0.930 . S
C1164 C1165 1.367 . S
C1164 C1172 1.378 . S
C1165 C1164 1.367 . S
C1165 C1173 1.433 . S
C1166 H1162 0.929 . S
C1166 C1168 1.378 . S
C1166 C1170 1.350 . S
C1167 C1170 1.463 . S
C1167 C1172 1.350 . S
C1167 N1175 1.427 . S
C1168 H1159 0.930 . S
C1168 C1166 1.378 . S
C1168 C1169 1.367 . S
C1169 C1168 1.367 . S
C1169 C1171 1.433 . S
C1170 C1166 1.350 . S
C1170 C1167 1.463 . S
C1170 N1174 1.427 . S
C1171 H1161 0.929 . S
C1171 C1169 1.433 . S
C1171 N1174 1.384 . S
C1172 H1163 0.929 . S
C1172 C1164 1.378 . S
C1172 C1167 1.350 . S
C1173 H1160 0.929 . S
C1173 C1165 1.433 . S
C1173 N1175 1.384 . S
N1174 C1170 1.427 . S
N1174 C1171 1.384 . S
N1175 C1167 1.427 . S
N1175 C1173 1.384 . S
H1176 C1182 0.930 . S
H1177 C1186 0.930 . S
H1178 C1191 0.929 . S
H1179 C1189 0.929 . S
H1180 C1184 0.929 . S
H1181 C1190 0.929 . S
C1182 H1176 0.930 . S
C1182 C1183 1.367 . S
C1182 C1190 1.378 . S
C1183 C1182 1.367 . S
C1183 C1191 1.433 . S
C1184 H1180 0.929 . S
C1184 C1186 1.378 . S
C1184 C1188 1.350 . S
C1185 C1188 1.463 . S
C1185 C1190 1.350 . S
C1185 N1193 1.427 . S
C1186 H1177 0.930 . S
C1186 C1184 1.378 . S
C1186 C1187 1.367 . S
C1187 C1186 1.367 . S
C1187 C1189 1.433 . S
C1188 C1184 1.350 . S
C1188 C1185 1.463 . S
C1188 N1192 1.427 . S
C1189 H1179 0.929 . S
C1189 C1187 1.433 . S
C1189 N1192 1.384 . S
C1190 H1181 0.929 . S
C1190 C1182 1.378 . S
C1190 C1185 1.350 . S
C1191 H1178 0.929 . S
C1191 C1183 1.433 . S
C1191 N1193 1.384 . S
N1192 C1188 1.427 . S
N1192 C1189 1.384 . S
N1193 C1185 1.427 . S
N1193 C1191 1.384 . S
H1194 C1200 0.930 . S
H1195 C1204 0.930 . S
H1196 C1209 0.929 . S
H1197 C1207 0.929 . S
H1198 C1202 0.929 . S
H1199 C1208 0.929 . S
C1200 H1194 0.930 . S
C1200 C1201 1.367 . S
C1200 C1208 1.378 . S
C1201 C1200 1.367 . S
C1201 C1209 1.433 . S
C1202 H1198 0.929 . S
C1202 C1204 1.378 . S
C1202 C1206 1.350 . S
C1203 C1206 1.463 . S
C1203 C1208 1.350 . S
C1203 N1211 1.427 . S
C1204 H1195 0.930 . S
C1204 C1202 1.378 . S
C1204 C1205 1.367 . S
C1205 C1204 1.367 . S
C1205 C1207 1.433 . S
C1206 C1202 1.350 . S
C1206 C1203 1.463 . S
C1206 N1210 1.427 . S
C1207 H1197 0.929 . S
C1207 C1205 1.433 . S
C1207 N1210 1.384 . S
C1208 H1199 0.929 . S
C1208 C1200 1.378 . S
C1208 C1203 1.350 . S
C1209 H1196 0.929 . S
C1209 C1201 1.433 . S
C1209 N1211 1.384 . S
N1210 C1206 1.427 . S
N1210 C1207 1.384 . S
N1211 C1203 1.427 . S
N1211 C1209 1.384 . S
H1212 C1218 0.963 . S
H1213 C1222 0.930 . S
H1214 C1227 0.929 . S
H1215 C1225 0.929 . S
H1216 C1220 0.929 . S
H1217 C1226 0.929 . S
C1218 H1212 0.963 . S
C1218 C1219 1.367 . S
C1218 C1226 1.378 . S
C1219 C1218 1.367 . S
C1219 C1227 1.433 . S
C1220 H1216 0.929 . S
C1220 C1222 1.378 . S
C1220 C1224 1.350 . S
C1221 C1224 1.463 . S
C1221 C1226 1.350 . S
C1221 N1229 1.427 . S
C1222 H1213 0.930 . S
C1222 C1220 1.378 . S
C1222 C1223 1.367 . S
C1223 C1222 1.367 . S
C1223 C1225 1.433 . S
C1224 C1220 1.350 . S
C1224 C1221 1.463 . S
C1224 N1228 1.427 . S
C1225 H1215 0.929 . S
C1225 C1223 1.433 . S
C1225 N1228 1.384 . S
C1226 H1217 0.929 . S
C1226 C1218 1.378 . S
C1226 C1221 1.350 . S
C1227 H1214 0.929 . S
C1227 C1219 1.433 . S
C1227 N1229 1.384 . S
N1228 C1224 1.427 . S
N1228 C1225 1.384 . S
N1229 C1221 1.427 . S
N1229 C1227 1.384 . S
H1230 C1236 0.930 . S
H1231 C1240 0.930 . S
H1232 C1245 0.929 . S
H1233 C1243 0.929 . S
H1234 C1238 0.929 . S
H1235 C1244 0.929 . S
C1236 H1230 0.930 . S
C1236 C1237 1.367 . S
C1236 C1244 1.378 . S
C1237 C1236 1.367 . S
C1237 C1245 1.433 . S
C1238 H1234 0.929 . S
C1238 C1240 1.378 . S
C1238 C1242 1.350 . S
C1239 C1242 1.463 . S
C1239 C1244 1.350 . S
C1239 N1247 1.427 . S
C1240 H1231 0.930 . S
C1240 C1238 1.378 . S
C1240 C1241 1.367 . S
C1241 C1240 1.367 . S
C1241 C1243 1.433 . S
C1242 C1238 1.350 . S
C1242 C1239 1.463 . S
C1242 N1246 1.427 . S
C1243 H1233 0.929 . S
C1243 C1241 1.433 . S
C1243 N1246 1.384 . S
C1244 H1235 0.929 . S
C1244 C1236 1.378 . S
C1244 C1239 1.350 . S
C1245 H1232 0.929 . S
C1245 C1237 1.433 . S
C1245 N1247 1.384 . S
N1246 C1242 1.427 . S
N1246 C1243 1.384 . S
N1247 C1239 1.427 . S
N1247 C1245 1.384 . S
C535 C7 0.413 . S
C539 C172 0.401 . S
C553 C40 0.397 . S
C557 C205 0.413 . S
C571 C238 0.409 . S
C575 C73 0.389 . S
C589 C139 0.392 . S
C593 C106 0.377 . S
C607 C271 0.383 . S
C611 C436 0.404 . S
C625 C304 0.381 . S
C629 C469 0.380 . S
C643 C337 0.395 . S
C647 C502 0.412 . S
C661 C370 0.406 . S
C665 C403 0.412 . S
C679 C285 1.594 . S
C683 C21 1.594 . S
C697 C318 1.598 . S
C701 C54 1.598 . S
C715 C87 1.575 . S
C719 C351 1.575 . S
C733 C384 1.575 . S
C737 C120 1.575 . S
C751 C153 1.595 . S
C755 C417 1.595 . S
C769 C186 1.582 . S
C773 C450 1.582 . S
C787 C219 1.579 . S
C791 C483 1.579 . S
C805 C252 1.577 . S
C809 C516 1.577 . S
C823 N13 1.531 . S
C827 N145 1.524 . S
C841 N46 1.511 . S
C845 N178 1.529 . S
C859 N211 1.525 . S
C863 N79 1.509 . S
C877 N112 1.524 . S
C881 N244 1.531 . S
C895 N409 1.531 . S
C899 N277 1.514 . S
C913 N442 1.530 . S
C917 N310 1.512 . S
C931 N343 1.521 . S
C935 N475 1.532 . S
C949 N508 1.510 . S
C953 N376 1.527 . S
C967 C51 1.439 . S
C971 N2 1.367 . S
C985 N35 1.354 . S
C989 C84 1.436 . S
C1003 N68 1.361 . S
C1007 C117 1.439 . S
C1021 N101 1.352 . S
C1025 C18 1.438 . S
C1039 C249 1.439 . S
C1043 N134 1.359 . S
C1057 N167 1.360 . S
C1061 C150 1.439 . S
C1075 N200 1.352 . S
C1079 C183 1.435 . S
C1093 N233 1.359 . S
C1097 C216 1.436 . S
C1111 N266 1.347 . S
C1115 C315 1.436 . S
C1129 N299 1.359 . S
C1133 C348 1.436 . S
C1147 C381 1.435 . S
C1151 N332 1.353 . S
C1165 N365 1.358 . S
C1169 C282 1.436 . S
C1183 N398 1.362 . S
C1187 C513 1.437 . S
C1201 C414 1.436 . S
C1205 N431 1.356 . S
C1219 C447 1.435 . S
C1223 N464 1.349 . S
C1237 N497 1.363 . S
C1241 C480 1.439 . S
