# Generated by pormake.
# Topology tzs, (4)-cn, num edge types: 1
# Building blocks:
#     Node 0, Type 0, BuildingBlock: CEKHIL_clean_sbu_0, # of connection points: 4
#     Node 1, Type 0, BuildingBlock: CEKHIL_clean_sbu_0, # of connection points: 4
#     Node 2, Type 0, BuildingBlock: CEKHIL_clean_sbu_0, # of connection points: 4
#     Node 3, Type 0, BuildingBlock: CEKHIL_clean_sbu_0, # of connection points: 4
#     Node 4, Type 0, BuildingBlock: CEKHIL_clean_sbu_0, # of connection points: 4
#     Node 5, Type 0, BuildingBlock: CEKHIL_clean_sbu_0, # of connection points: 4
#     Node 6, Type 0, BuildingBlock: CEKHIL_clean_sbu_0, # of connection points: 4
#     Node 7, Type 0, BuildingBlock: CEKHIL_clean_sbu_0, # of connection points: 4
#     Node 8, Type 0, BuildingBlock: CEKHIL_clean_sbu_0, # of connection points: 4
#     Node 9, Type 0, BuildingBlock: CEKHIL_clean_sbu_0, # of connection points: 4
#     Node 10, Type 0, BuildingBlock: CEKHIL_clean_sbu_0, # of connection points: 4
#     Node 11, Type 0, BuildingBlock: CEKHIL_clean_sbu_0, # of connection points: 4
#     Node 12, Type 0, BuildingBlock: CEKHIL_clean_sbu_0, # of connection points: 4
#     Node 13, Type 0, BuildingBlock: CEKHIL_clean_sbu_0, # of connection points: 4
#     Node 14, Type 0, BuildingBlock: CEKHIL_clean_sbu_0, # of connection points: 4
#     Node 15, Type 0, BuildingBlock: CEKHIL_clean_sbu_0, # of connection points: 4
#     Edge 16, Type (0, 0), BuildingBlock: CIFDUS_clean_linker_0, # of connection points: 2
#     Edge 17, Type (0, 0), BuildingBlock: CIFDUS_clean_linker_0, # of connection points: 2
#     Edge 18, Type (0, 0), BuildingBlock: CIFDUS_clean_linker_0, # of connection points: 2
#     Edge 19, Type (0, 0), BuildingBlock: CIFDUS_clean_linker_0, # of connection points: 2
#     Edge 20, Type (0, 0), BuildingBlock: CIFDUS_clean_linker_0, # of connection points: 2
#     Edge 21, Type (0, 0), BuildingBlock: CIFDUS_clean_linker_0, # of connection points: 2
#     Edge 22, Type (0, 0), BuildingBlock: CIFDUS_clean_linker_0, # of connection points: 2
#     Edge 23, Type (0, 0), BuildingBlock: CIFDUS_clean_linker_0, # of connection points: 2
#     Edge 24, Type (0, 0), BuildingBlock: CIFDUS_clean_linker_0, # of connection points: 2
#     Edge 25, Type (0, 0), BuildingBlock: CIFDUS_clean_linker_0, # of connection points: 2
#     Edge 26, Type (0, 0), BuildingBlock: CIFDUS_clean_linker_0, # of connection points: 2
#     Edge 27, Type (0, 0), BuildingBlock: CIFDUS_clean_linker_0, # of connection points: 2
#     Edge 28, Type (0, 0), BuildingBlock: CIFDUS_clean_linker_0, # of connection points: 2
#     Edge 29, Type (0, 0), BuildingBlock: CIFDUS_clean_linker_0, # of connection points: 2
#     Edge 30, Type (0, 0), BuildingBlock: CIFDUS_clean_linker_0, # of connection points: 2
#     Edge 31, Type (0, 0), BuildingBlock: CIFDUS_clean_linker_0, # of connection points: 2
#     Edge 32, Type (0, 0), BuildingBlock: CIFDUS_clean_linker_0, # of connection points: 2
#     Edge 33, Type (0, 0), BuildingBlock: CIFDUS_clean_linker_0, # of connection points: 2
#     Edge 34, Type (0, 0), BuildingBlock: CIFDUS_clean_linker_0, # of connection points: 2
#     Edge 35, Type (0, 0), BuildingBlock: CIFDUS_clean_linker_0, # of connection points: 2
#     Edge 36, Type (0, 0), BuildingBlock: CIFDUS_clean_linker_0, # of connection points: 2
#     Edge 37, Type (0, 0), BuildingBlock: CIFDUS_clean_linker_0, # of connection points: 2
#     Edge 38, Type (0, 0), BuildingBlock: CIFDUS_clean_linker_0, # of connection points: 2
#     Edge 39, Type (0, 0), BuildingBlock: CIFDUS_clean_linker_0, # of connection points: 2
#     Edge 40, Type (0, 0), BuildingBlock: CIFDUS_clean_linker_0, # of connection points: 2
#     Edge 41, Type (0, 0), BuildingBlock: CIFDUS_clean_linker_0, # of connection points: 2
#     Edge 42, Type (0, 0), BuildingBlock: CIFDUS_clean_linker_0, # of connection points: 2
#     Edge 43, Type (0, 0), BuildingBlock: CIFDUS_clean_linker_0, # of connection points: 2
#     Edge 44, Type (0, 0), BuildingBlock: CIFDUS_clean_linker_0, # of connection points: 2
#     Edge 45, Type (0, 0), BuildingBlock: CIFDUS_clean_linker_0, # of connection points: 2
#     Edge 46, Type (0, 0), BuildingBlock: CIFDUS_clean_linker_0, # of connection points: 2
#     Edge 47, Type (0, 0), BuildingBlock: CIFDUS_clean_linker_0, # of connection points: 2
# Relax obj value: 0.122
# Max RMSD: 0.119
# Mean RMSD: 0.119
data_MOF--net-tzs--node1-CEKHIL_clean_sbu_0--edge1-CIFDUS_clean_linker_0
_symmetry_space_group_name_H-M    P1
_symmetry_Int_Tables_number       1
_symmetry_cell_setting            triclinic
loop_
_symmetry_equiv_pos_as_xyz
'x, y, z'
_cell_length_a     42.036652
_cell_length_b     42.061768
_cell_length_c     34.133318
_cell_angle_alpha  90.072438
_cell_angle_beta   90.053277
_cell_angle_gamma 90.081228
loop_
_atom_site_label
_atom_site_type_symbol
_atom_site_fract_x
_atom_site_fract_y
_atom_site_fract_z
_atom_type_partial_charge
Co0 Co 0.1476 0.35041 0.19441 0.0
O1 O 0.1602 0.30586 0.19447 0.0
O2 O 0.1886 0.34565 0.21865 0.0
C3 C 0.09661 0.34287 0.21307 0.0
O4 O 0.14373 0.39819 0.20423 0.0
Co5 Co 0.09485 0.38101 0.14352 0.0
O6 O 0.10192 0.42058 0.17424 0.0
C7 C 0.1521 0.35271 0.10805 0.0
C8 C 0.1861 0.31542 0.21189 0.0
C9 C 0.12544 0.42213 0.1977 0.0
O10 O 0.16731 0.35579 0.14069 0.0
O11 O 0.12225 0.35797 0.10484 0.0
O12 O 0.1192 0.34287 0.23931 0.0
O13 O 0.10579 0.34555 0.17736 0.0
Co14 Co 0.66786 0.14541 0.19697 0.0
O15 O 0.71352 0.15219 0.19571 0.0
O16 O 0.67884 0.18449 0.22365 0.0
C17 C 0.66988 0.09344 0.21301 0.0
O18 O 0.61982 0.14612 0.20806 0.0
Co19 Co 0.63195 0.09824 0.14259 0.0
O20 O 0.5935 0.10876 0.17363 0.0
C21 C 0.66459 0.15441 0.11081 0.0
C22 C 0.70834 0.17803 0.21562 0.0
C23 C 0.59418 0.13075 0.1993 0.0
O24 O 0.6636 0.16796 0.14472 0.0
O25 O 0.65675 0.12535 0.10534 0.0
O26 O 0.67303 0.11505 0.24012 0.0
O27 O 0.66778 0.10388 0.17773 0.0
Co28 Co 0.86401 0.66258 0.19844 0.0
O29 O 0.85568 0.70765 0.19443 0.0
O30 O 0.82409 0.67287 0.22359 0.0
C31 C 0.91541 0.6677 0.21562 0.0
O32 O 0.86528 0.61505 0.21212 0.0
Co33 Co 0.91396 0.62743 0.14717 0.0
O34 O 0.90558 0.59024 0.1813 0.0
C35 C 0.85659 0.65574 0.11232 0.0
C36 C 0.82983 0.70226 0.21418 0.0
C37 C 0.88285 0.59042 0.20595 0.0
O38 O 0.84254 0.6555 0.14591 0.0
O39 O 0.88605 0.64909 0.10795 0.0
O40 O 0.89331 0.67054 0.24212 0.0
O41 O 0.90564 0.66391 0.18024 0.0
Co42 Co 0.34936 0.86191 0.20584 0.0
O43 O 0.30511 0.84898 0.20616 0.0
O44 O 0.34566 0.81893 0.22467 0.0
C45 C 0.34223 0.91037 0.23234 0.0
O46 O 0.39733 0.86656 0.21383 0.0
Co47 Co 0.37553 0.91963 0.15934 0.0
O48 O 0.41577 0.91238 0.18863 0.0
C49 C 0.34965 0.86374 0.11843 0.0
C50 C 0.31516 0.82199 0.21998 0.0
C51 C 0.41957 0.88726 0.20891 0.0
O52 O 0.35353 0.84684 0.14959 0.0
O53 O 0.35356 0.8939 0.11793 0.0
O54 O 0.34316 0.88545 0.25493 0.0
O55 O 0.34305 0.90478 0.1953 0.0
Co56 Co 0.14548 0.66349 0.3104 0.0
O57 O 0.15399 0.70857 0.31364 0.0
O58 O 0.18515 0.67332 0.2846 0.0
C59 C 0.09396 0.66809 0.29382 0.0
O60 O 0.14397 0.61587 0.29741 0.0
Co61 Co 0.09611 0.62884 0.36311 0.0
O62 O 0.10274 0.59206 0.32764 0.0
C63 C 0.15363 0.65853 0.39633 0.0
C64 C 0.17971 0.70282 0.29377 0.0
C65 C 0.12558 0.59177 0.30317 0.0
O66 O 0.16744 0.65725 0.36266 0.0
O67 O 0.12427 0.65162 0.40131 0.0
O68 O 0.11584 0.67085 0.26704 0.0
O69 O 0.10401 0.66489 0.32917 0.0
Co70 Co 0.34769 0.14653 0.29728 0.0
O71 O 0.3022 0.1533 0.29914 0.0
O72 O 0.33718 0.18809 0.27672 0.0
C73 C 0.34515 0.0969 0.27271 0.0
O74 O 0.39583 0.14762 0.28704 0.0
Co75 Co 0.38164 0.0937 0.3448 0.0
O76 O 0.42041 0.10602 0.31532 0.0
C77 C 0.35071 0.14734 0.38458 0.0
C78 C 0.30758 0.18078 0.28314 0.0
C79 C 0.42077 0.13049 0.29336 0.0
O80 O 0.35184 0.16368 0.35264 0.0
O81 O 0.35784 0.11782 0.38605 0.0
O82 O 0.34266 0.12128 0.24946 0.0
O83 O 0.34682 0.10335 0.30953 0.0
Co84 Co 0.86658 0.34768 0.31139 0.0
O85 O 0.85489 0.30277 0.31056 0.0
O86 O 0.82557 0.34213 0.28742 0.0
C87 C 0.91764 0.34158 0.29228 0.0
O88 O 0.86943 0.39569 0.30202 0.0
Co89 Co 0.91883 0.37952 0.36218 0.0
O90 O 0.91051 0.41922 0.33253 0.0
C91 C 0.86298 0.34867 0.39779 0.0
C92 C 0.8287 0.31189 0.29352 0.0
C93 C 0.88702 0.42014 0.30902 0.0
O94 O 0.84717 0.3518 0.36559 0.0
O95 O 0.89264 0.35501 0.40061 0.0
O96 O 0.89495 0.34123 0.26618 0.0
O97 O 0.90858 0.34383 0.32807 0.0
Co98 Co 0.66308 0.86324 0.30662 0.0
O99 O 0.707 0.84905 0.30644 0.0
O100 O 0.66623 0.82217 0.28198 0.0
C101 C 0.6727 0.9138 0.28813 0.0
O102 O 0.6155 0.86966 0.29713 0.0
Co103 Co 0.63623 0.91727 0.35909 0.0
O104 O 0.59653 0.91295 0.3279 0.0
C105 C 0.66055 0.85783 0.39325 0.0
C106 C 0.69658 0.82369 0.28869 0.0
C107 C 0.59316 0.88974 0.30428 0.0
O108 O 0.65681 0.84339 0.36018 0.0
O109 O 0.65724 0.88789 0.39722 0.0
O110 O 0.67158 0.89137 0.26176 0.0
O111 O 0.6701 0.9046 0.32384 0.0
Co112 Co 0.84762 0.64977 0.8032 0.0
O113 O 0.80293 0.66165 0.803 0.0
O114 O 0.84267 0.69245 0.78383 0.0
C115 C 0.84171 0.60076 0.7774 0.0
O116 O 0.89568 0.64662 0.79475 0.0
Co117 Co 0.87624 0.59351 0.85004 0.0
O118 O 0.91648 0.6025 0.82151 0.0
C119 C 0.84891 0.64879 0.89053 0.0
C120 C 0.81229 0.68881 0.78882 0.0
C121 C 0.91904 0.62739 0.80054 0.0
O122 O 0.85192 0.66553 0.85912 0.0
O123 O 0.85373 0.61878 0.89135 0.0
O124 O 0.84164 0.6256 0.75462 0.0
O125 O 0.84271 0.60659 0.81439 0.0
Co126 Co 0.36094 0.8486 0.80944 0.0
O127 O 0.34796 0.80423 0.81122 0.0
O128 O 0.31997 0.84332 0.78498 0.0
C129 C 0.41174 0.83986 0.7913 0.0
O130 O 0.36596 0.89604 0.79764 0.0
Co131 Co 0.4142 0.8791 0.86014 0.0
O132 O 0.40801 0.91801 0.82812 0.0
C133 C 0.35559 0.85422 0.89592 0.0
C134 C 0.32237 0.81325 0.79289 0.0
C135 C 0.38487 0.91958 0.80412 0.0
O136 O 0.34094 0.85604 0.86276 0.0
O137 O 0.38555 0.85865 0.89953 0.0
O138 O 0.38926 0.8395 0.76496 0.0
O139 O 0.40254 0.84347 0.82689 0.0
Co140 Co 0.16292 0.36041 0.80016 0.0
O141 O 0.20597 0.34443 0.79843 0.0
O142 O 0.16381 0.31848 0.77637 0.0
C143 C 0.17578 0.40964 0.77948 0.0
O144 O 0.11503 0.36982 0.79365 0.0
Co145 Co 0.14317 0.41823 0.85195 0.0
O146 O 0.10621 0.41942 0.81576 0.0
C147 C 0.16239 0.35706 0.88739 0.0
C148 C 0.19447 0.31928 0.78148 0.0
C149 C 0.09766 0.39507 0.79609 0.0
O150 O 0.15756 0.34217 0.85478 0.0
O151 O 0.16098 0.38734 0.89064 0.0
O152 O 0.17143 0.38709 0.75381 0.0
O153 O 0.17368 0.40126 0.81546 0.0
Co154 Co 0.64855 0.16684 0.80568 0.0
O155 O 0.65616 0.21227 0.80773 0.0
O156 O 0.68827 0.1773 0.78002 0.0
C157 C 0.59676 0.16987 0.78852 0.0
O158 O 0.64841 0.11889 0.79413 0.0
Co159 Co 0.59992 0.13183 0.85884 0.0
O160 O 0.60969 0.09348 0.82716 0.0
C161 C 0.65645 0.16309 0.89202 0.0
C162 C 0.68226 0.20681 0.78848 0.0
C163 C 0.63208 0.0937 0.80204 0.0
O164 O 0.67036 0.16191 0.85838 0.0
O165 O 0.62716 0.15585 0.89687 0.0
O166 O 0.61876 0.17271 0.76188 0.0
O167 O 0.60679 0.16752 0.82398 0.0
Co168 Co 0.85234 0.36735 0.70093 0.0
O169 O 0.80785 0.35546 0.70606 0.0
O170 O 0.84857 0.32347 0.71694 0.0
C171 C 0.84789 0.41483 0.73156 0.0
O172 O 0.90125 0.37013 0.70265 0.0
Co173 Co 0.87681 0.42748 0.65745 0.0
O174 O 0.91765 0.41872 0.68449 0.0
C175 C 0.84496 0.37513 0.61479 0.0
C176 C 0.81795 0.32748 0.71638 0.0
C177 C 0.92311 0.39162 0.69971 0.0
O178 O 0.85081 0.35564 0.64315 0.0
O179 O 0.8506 0.40498 0.61705 0.0
O180 O 0.85065 0.38898 0.75232 0.0
O181 O 0.84632 0.41069 0.69439 0.0
Co182 Co 0.64303 0.84834 0.69879 0.0
O183 O 0.65017 0.80281 0.69664 0.0
O184 O 0.68246 0.83761 0.72467 0.0
C185 C 0.59118 0.84554 0.7154 0.0
O186 O 0.6436 0.89621 0.71074 0.0
Co187 Co 0.5952 0.8846 0.64601 0.0
O188 O 0.60594 0.92284 0.67744 0.0
C189 C 0.65077 0.8519 0.61278 0.0
C190 C 0.67623 0.80815 0.71616 0.0
C191 C 0.62817 0.9219 0.70278 0.0
O192 O 0.66495 0.85316 0.64627 0.0
O193 O 0.62161 0.85967 0.60811 0.0
O194 O 0.61303 0.84243 0.74224 0.0
O195 O 0.60137 0.84823 0.68006 0.0
Co196 Co 0.16475 0.64306 0.69943 0.0
O197 O 0.21024 0.65079 0.69742 0.0
O198 O 0.1752 0.68182 0.72693 0.0
C199 C 0.16761 0.59089 0.71364 0.0
O200 O 0.11694 0.64266 0.71169 0.0
Co201 Co 0.12861 0.59649 0.64429 0.0
O202 O 0.09075 0.6053 0.67706 0.0
C203 C 0.16094 0.6533 0.6139 0.0
C204 C 0.20468 0.67623 0.71801 0.0
C205 C 0.09154 0.62678 0.70336 0.0
O206 O 0.15949 0.66648 0.64798 0.0
O207 O 0.15339 0.62425 0.60786 0.0
O208 O 0.17115 0.61188 0.74143 0.0
O209 O 0.16487 0.60204 0.67879 0.0
Co210 Co 0.36609 0.16156 0.69271 0.0
O211 O 0.35688 0.20654 0.68904 0.0
O212 O 0.32578 0.171 0.71753 0.0
C213 C 0.41761 0.16714 0.71024 0.0
O214 O 0.36782 0.11407 0.70601 0.0
Co215 Co 0.41656 0.12704 0.64163 0.0
O216 O 0.40817 0.08945 0.67516 0.0
C217 C 0.35902 0.15466 0.6064 0.0
C218 C 0.33087 0.20051 0.70823 0.0
C219 C 0.38536 0.08946 0.69971 0.0
O220 O 0.34492 0.15437 0.63996 0.0
O221 O 0.38855 0.14831 0.60215 0.0
O222 O 0.39536 0.16971 0.7366 0.0
O223 O 0.4079 0.16342 0.67482 0.0
H224 H 0.31115 0.24318 0.26265 0.0
H225 H 0.24457 0.16589 0.27632 0.0
H226 H 0.20121 0.19998 0.2537 0.0
H227 H 0.18203 0.25215 0.22988 0.0
H228 H 0.24848 0.32996 0.22034 0.0
H229 H 0.29188 0.29539 0.2411 0.0
C230 C 0.28714 0.23381 0.26074 0.0
C231 C 0.28116 0.20202 0.2711 0.0
C232 C 0.26223 0.25367 0.24821 0.0
C233 C 0.24985 0.19032 0.26869 0.0
C234 C 0.22502 0.20978 0.2556 0.0
C235 C 0.20606 0.26139 0.23215 0.0
C236 C 0.21205 0.29351 0.22337 0.0
C237 C 0.23091 0.24151 0.24516 0.0
C238 C 0.24322 0.30532 0.22697 0.0
C239 C 0.26809 0.28557 0.23887 0.0
H240 H 0.83373 0.24932 0.27154 0.0
H241 H 0.76591 0.32492 0.28856 0.0
H242 H 0.72281 0.29024 0.26687 0.0
H243 H 0.7042 0.23885 0.24185 0.0
H244 H 0.77178 0.16385 0.22023 0.0
H245 H 0.81497 0.19771 0.24454 0.0
C246 C 0.80946 0.25801 0.27074 0.0
C247 C 0.80301 0.28959 0.28187 0.0
C248 C 0.78472 0.2381 0.2571 0.0
C249 C 0.77153 0.30073 0.28012 0.0
C250 C 0.74683 0.28091 0.2677 0.0
C251 C 0.72837 0.22988 0.24247 0.0
C252 C 0.7347 0.19883 0.22932 0.0
C253 C 0.75313 0.24964 0.25587 0.0
C254 C 0.76623 0.18771 0.23004 0.0
C255 C 0.79096 0.20704 0.24408 0.0
H256 H 0.76792 0.69838 0.23686 0.0
H257 H 0.84459 0.76519 0.21995 0.0
H258 H 0.8108 0.80851 0.24332 0.0
H259 H 0.75919 0.82755 0.26867 0.0
H260 H 0.68148 0.76128 0.28068 0.0
H261 H 0.71582 0.71772 0.25942 0.0
C262 C 0.77719 0.72244 0.23826 0.0
C263 C 0.80873 0.72853 0.22681 0.0
C264 C 0.75743 0.74735 0.25103 0.0
C265 C 0.82033 0.75987 0.22844 0.0
C266 C 0.80106 0.78466 0.24196 0.0
C267 C 0.74991 0.80352 0.2668 0.0
C268 C 0.71795 0.79757 0.2765 0.0
C269 C 0.76957 0.77869 0.25342 0.0
C270 C 0.70602 0.76644 0.27336 0.0
C271 C 0.72564 0.74152 0.26121 0.0
H272 H 0.25334 0.8272 0.24242 0.0
H273 H 0.32795 0.75874 0.22298 0.0
H274 H 0.29252 0.7157 0.24333 0.0
H275 H 0.24055 0.69755 0.26768 0.0
H276 H 0.16702 0.76633 0.29143 0.0
H277 H 0.20175 0.80916 0.26869 0.0
C278 C 0.2617 0.80281 0.24239 0.0
C279 C 0.2931 0.79609 0.23096 0.0
C280 C 0.24145 0.77827 0.2552 0.0
C281 C 0.30385 0.76448 0.23165 0.0
C282 C 0.28362 0.73987 0.2433 0.0
C283 C 0.23214 0.72191 0.26786 0.0
C284 C 0.20123 0.72873 0.28112 0.0
C285 C 0.25243 0.74649 0.25535 0.0
C286 C 0.19076 0.76046 0.2815 0.0
C287 C 0.21057 0.78496 0.26837 0.0
H288 H 0.73713 0.81305 0.74212 0.0
H289 H 0.66321 0.74443 0.7186 0.0
H290 H 0.69798 0.70149 0.74104 0.0
H291 H 0.74995 0.6833 0.76689 0.0
H292 H 0.82459 0.75204 0.7861 0.0
H293 H 0.78905 0.79495 0.76617 0.0
C294 C 0.7286 0.7887 0.74193 0.0
C295 C 0.69757 0.782 0.7288 0.0
C296 C 0.74889 0.7641 0.75428 0.0
C297 C 0.68702 0.75026 0.72844 0.0
C298 C 0.70687 0.72569 0.7414 0.0
C299 C 0.75827 0.70771 0.76697 0.0
C300 C 0.7898 0.7145 0.77819 0.0
C301 C 0.73789 0.7323 0.7544 0.0
C302 C 0.80044 0.74619 0.77757 0.0
C303 C 0.78014 0.77076 0.76616 0.0
H304 H 0.1994 0.7377 0.74109 0.0
H305 H 0.26814 0.6629 0.72463 0.0
H306 H 0.31054 0.69797 0.74849 0.0
H307 H 0.32817 0.75042 0.77374 0.0
H308 H 0.25956 0.82599 0.78502 0.0
H309 H 0.21709 0.7902 0.76381 0.0
C310 C 0.22366 0.72906 0.74275 0.0
C311 C 0.23058 0.6977 0.73127 0.0
C312 C 0.24797 0.74954 0.75574 0.0
C313 C 0.2622 0.68698 0.73319 0.0
C314 C 0.28644 0.707 0.74696 0.0
C315 C 0.30387 0.75889 0.77178 0.0
C316 C 0.29694 0.79073 0.78123 0.0
C317 C 0.27962 0.73836 0.75836 0.0
C318 C 0.26547 0.80159 0.77793 0.0
C319 C 0.24117 0.78114 0.76579 0.0
H320 H 0.2568 0.32374 0.76208 0.0
H321 H 0.17941 0.2567 0.76979 0.0
H322 H 0.21478 0.21379 0.74833 0.0
H323 H 0.26811 0.1953 0.72782 0.0
H324 H 0.34415 0.26353 0.71564 0.0
H325 H 0.30899 0.30596 0.73818 0.0
C326 C 0.2477 0.29971 0.75914 0.0
C327 C 0.21561 0.29332 0.76787 0.0
C328 C 0.26796 0.27539 0.74586 0.0
C329 C 0.20403 0.26219 0.7633 0.0
C330 C 0.22426 0.23767 0.75107 0.0
C331 C 0.27692 0.21948 0.73005 0.0
C332 C 0.30877 0.22621 0.72025 0.0
C333 C 0.25632 0.24396 0.74232 0.0
C334 C 0.31975 0.25771 0.72289 0.0
C335 C 0.29967 0.28199 0.73591 0.0
H336 H 0.74321 0.20214 0.76195 0.0
H337 H 0.66962 0.27048 0.78734 0.0
H338 H 0.70442 0.31369 0.76587 0.0
H339 H 0.75611 0.33228 0.74011 0.0
H340 H 0.83054 0.26405 0.71831 0.0
H341 H 0.79517 0.22077 0.73789 0.0
C342 C 0.73478 0.22649 0.76276 0.0
C343 C 0.70379 0.23301 0.77616 0.0
C344 C 0.75511 0.25132 0.7509 0.0
C345 C 0.69337 0.26475 0.77729 0.0
C346 C 0.71325 0.28951 0.7649 0.0
C347 C 0.7645 0.30792 0.73948 0.0
C348 C 0.79589 0.30142 0.72756 0.0
C349 C 0.74419 0.28311 0.75163 0.0
C350 C 0.80652 0.26974 0.72737 0.0
C351 C 0.78629 0.24494 0.73857 0.0
H352 H 0.20609 0.37048 0.94225 0.0
H353 H 0.12875 0.30656 0.91598 0.0
H354 H 0.12388 0.29342 0.98565 0.0
H355 H 0.13277 0.31092 0.05359 0.0
H356 H 0.20745 0.37796 0.07977 0.0
H357 H 0.22293 0.37869 0.01055 0.0
C358 C 0.18901 0.35272 0.95174 0.0
C359 C 0.16743 0.33981 0.92439 0.0
C360 C 0.18559 0.34642 0.99183 0.0
C361 C 0.14557 0.31669 0.93659 0.0
C362 C 0.14254 0.30956 0.97646 0.0
C363 C 0.15318 0.32479 0.04423 0.0
C364 C 0.16868 0.34481 0.07132 0.0
C365 C 0.16106 0.32587 0.00437 0.0
C366 C 0.19524 0.36244 0.05933 0.0
C367 C 0.2038 0.36309 0.01971 0.0
H368 H 0.64079 0.20631 0.94648 0.0
H369 H 0.71026 0.13449 0.91913 0.0
H370 H 0.72531 0.13136 0.98838 0.0
H371 H 0.70814 0.13896 0.05673 0.0
H372 H 0.6363 0.20841 0.08406 0.0
H373 H 0.63321 0.22347 0.01485 0.0
C374 C 0.66021 0.19103 0.9556 0.0
C375 C 0.67423 0.17038 0.92812 0.0
C376 C 0.66781 0.18865 0.99552 0.0
C377 C 0.69932 0.15065 0.93985 0.0
C378 C 0.70757 0.14859 0.97951 0.0
C379 C 0.6929 0.15841 0.04763 0.0
C380 C 0.67222 0.17241 0.07508 0.0
C381 C 0.6905 0.16598 0.00772 0.0
C382 C 0.6525 0.1975 0.06337 0.0
C383 C 0.65045 0.20574 0.02372 0.0
H384 H 0.80898 0.62771 0.94632 0.0
H385 H 0.87529 0.70301 0.92037 0.0
H386 H 0.87743 0.71734 0.98994 0.0
H387 H 0.87011 0.69977 0.05819 0.0
H388 H 0.80562 0.623 0.08407 0.0
H389 H 0.79216 0.61835 0.01443 0.0
C390 C 0.82305 0.64795 0.95585 0.0
C391 C 0.84242 0.66399 0.92863 0.0
C392 C 0.82462 0.65548 0.99585 0.0
C393 C 0.86028 0.69035 0.94091 0.0
C394 C 0.8617 0.69831 0.98071 0.0
C395 C 0.85203 0.68302 0.04862 0.0
C396 C 0.83893 0.66159 0.07586 0.0
C397 C 0.84537 0.67986 0.00853 0.0
C398 C 0.81571 0.63984 0.06354 0.0
C399 C 0.80843 0.63691 0.02368 0.0
H400 H 0.31026 0.88537 0.06223 0.0
H401 H 0.375 0.80897 0.08877 0.0
H402 H 0.3763 0.79395 0.0194 0.0
H403 H 0.36862 0.81074 0.95094 0.0
H404 H 0.30581 0.88862 0.92437 0.0
H405 H 0.29322 0.89444 0.99411 0.0
C406 C 0.32388 0.86482 0.05289 0.0
C407 C 0.34304 0.84862 0.08022 0.0
C408 C 0.32497 0.85686 0.01299 0.0
C409 C 0.36021 0.8218 0.06816 0.0
C410 C 0.36113 0.81342 0.02848 0.0
C411 C 0.35112 0.82807 0.9604 0.0
C412 C 0.33828 0.84943 0.93289 0.0
C413 C 0.34499 0.8319 1.00052 0.0
C414 C 0.31573 0.87184 0.9451 0.0
C415 C 0.30895 0.87543 0.98501 0.0
H416 H 0.20577 0.63836 0.56145 0.0
H417 H 0.13277 0.70716 0.58648 0.0
H418 H 0.13008 0.72129 0.51696 0.0
H419 H 0.13787 0.70279 0.44923 0.0
H420 H 0.20769 0.63075 0.42421 0.0
H421 H 0.22307 0.62951 0.49347 0.0
C422 C 0.19039 0.65752 0.55177 0.0
C423 C 0.1692 0.67152 0.57863 0.0
C424 C 0.18801 0.66429 0.51167 0.0
C425 C 0.14933 0.69625 0.56622 0.0
C426 C 0.14748 0.70392 0.5264 0.0
C427 C 0.15741 0.68785 0.45883 0.0
C428 C 0.17143 0.66656 0.43212 0.0
C429 C 0.1651 0.68647 0.49876 0.0
C430 C 0.19671 0.64733 0.44439 0.0
C431 C 0.20517 0.64638 0.48404 0.0
H432 H 0.37187 0.19867 0.55189 0.0
H433 H 0.30856 0.12104 0.5783 0.0
H434 H 0.29485 0.11615 0.50876 0.0
H435 H 0.31119 0.12575 0.44047 0.0
H436 H 0.37606 0.20214 0.41399 0.0
H437 H 0.37845 0.21643 0.48357 0.0
C438 C 0.35399 0.18165 0.54247 0.0
C439 C 0.3413 0.16009 0.56984 0.0
C440 C 0.3471 0.17844 0.50243 0.0
C441 C 0.31833 0.138 0.55768 0.0
C442 C 0.3109 0.13494 0.51787 0.0
C443 C 0.32491 0.14625 0.44989 0.0
C444 C 0.34381 0.16265 0.42249 0.0
C445 C 0.32663 0.15377 0.4899 0.0
C446 C 0.36134 0.18927 0.43465 0.0
C447 C 0.36294 0.19718 0.47446 0.0
H448 H 0.81589 0.37807 0.43808 0.0
H449 H 0.87874 0.29744 0.44052 0.0
H450 H 0.87312 0.29352 0.5115 0.0
H451 H 0.86179 0.32205 0.57322 0.0
H452 H 0.80093 0.40437 0.57027 0.0
H453 H 0.79362 0.39825 0.49989 0.0
C454 C 0.82689 0.35866 0.45401 0.0
C455 C 0.84778 0.33822 0.43439 0.0
C456 C 0.82463 0.35742 0.49513 0.0
C457 C 0.86244 0.31341 0.45527 0.0
C458 C 0.8596 0.31143 0.49594 0.0
C459 C 0.84591 0.33775 0.55736 0.0
C460 C 0.83257 0.36402 0.57661 0.0
C461 C 0.84251 0.33465 0.51643 0.0
C462 C 0.81198 0.38427 0.55578 0.0
C463 C 0.80785 0.38089 0.51547 0.0
H464 H 0.63241 0.80946 0.55863 0.0
H465 H 0.70625 0.87721 0.58546 0.0
H466 H 0.72164 0.87873 0.51626 0.0
H467 H 0.7044 0.87133 0.44792 0.0
H468 H 0.6281 0.80637 0.42103 0.0
H469 H 0.62377 0.79229 0.49047 0.0
C470 C 0.65275 0.82351 0.54942 0.0
C471 C 0.668 0.84354 0.5767 0.0
C472 C 0.66054 0.82507 0.50953 0.0
C473 C 0.69432 0.86159 0.56488 0.0
C474 C 0.70279 0.86274 0.52526 0.0
C475 C 0.68774 0.8531 0.4572 0.0
C476 C 0.66625 0.84017 0.42979 0.0
C477 C 0.68469 0.84615 0.49719 0.0
C478 C 0.64486 0.81651 0.44171 0.0
C479 C 0.64215 0.80883 0.48146 0.0
H480 H 0.14556 0.53221 0.3221 0.0
H481 H 0.11053 0.58893 0.22648 0.0
H482 H 0.1075 0.54163 0.1846 0.0
H483 H 0.112 0.48339 0.17647 0.0
H484 H 0.15076 0.42731 0.2708 0.0
H485 H 0.1555 0.47483 0.31159 0.0
C486 C 0.13781 0.53413 0.29187 0.0
C487 C 0.12838 0.56384 0.27718 0.0
C488 C 0.13663 0.50689 0.2678 0.0
C489 C 0.11821 0.56624 0.23812 0.0
C490 C 0.11629 0.53919 0.2143 0.0
C491 C 0.12169 0.48166 0.20585 0.0
C492 C 0.13075 0.45176 0.22062 0.0
C493 C 0.12498 0.50927 0.22899 0.0
C494 C 0.14365 0.44999 0.25861 0.0
C495 C 0.14627 0.47717 0.28208 0.0
H496 H 0.53369 0.13866 0.1722 0.0
H497 H 0.58907 0.13494 0.27837 0.0
H498 H 0.54029 0.1359 0.31757 0.0
H499 H 0.48149 0.1331 0.32131 0.0
H500 H 0.42626 0.14198 0.2155 0.0
H501 H 0.47512 0.14407 0.17652 0.0
C502 C 0.535 0.1386 0.20394 0.0
C503 C 0.56488 0.13653 0.22241 0.0
C504 C 0.50684 0.13994 0.22631 0.0
C505 C 0.56634 0.1367 0.26353 0.0
C506 C 0.53844 0.13705 0.28594 0.0
C507 C 0.48026 0.13609 0.28978 0.0
C508 C 0.45036 0.13725 0.27124 0.0
C509 C 0.50852 0.138 0.26764 0.0
C510 C 0.44901 0.14127 0.23042 0.0
C511 C 0.47695 0.14223 0.20811 0.0
H512 H 0.87856 0.52891 0.18211 0.0
H513 H 0.87848 0.58797 0.28527 0.0
H514 H 0.87964 0.5406 0.32705 0.0
H515 H 0.88425 0.48198 0.33397 0.0
H516 H 0.87882 0.42322 0.23065 0.0
H517 H 0.87607 0.47056 0.18926 0.0
C518 C 0.87828 0.5313 0.21375 0.0
C519 C 0.87852 0.5618 0.23065 0.0
C520 C 0.87819 0.50395 0.23754 0.0
C521 C 0.87802 0.56469 0.27166 0.0
C522 C 0.87892 0.53761 0.29553 0.0
C523 C 0.88211 0.47967 0.30243 0.0
C524 C 0.88196 0.4492 0.28531 0.0
C525 C 0.87956 0.50708 0.2788 0.0
C526 C 0.87886 0.44644 0.24446 0.0
C527 C 0.87742 0.47349 0.22076 0.0
H528 H 0.53312 0.87704 0.32989 0.0
H529 H 0.58757 0.8982 0.22634 0.0
H530 H 0.53881 0.89921 0.18694 0.0
H531 H 0.48015 0.89622 0.18257 0.0
H532 H 0.42621 0.86993 0.28484 0.0
H533 H 0.47496 0.86854 0.32406 0.0
C534 C 0.53415 0.88161 0.29865 0.0
C535 C 0.56366 0.88775 0.28092 0.0
C536 C 0.50608 0.88126 0.27601 0.0
C537 C 0.56498 0.89339 0.24043 0.0
C538 C 0.53714 0.89405 0.21797 0.0
C539 C 0.47922 0.88989 0.21335 0.0
C540 C 0.4497 0.88327 0.23086 0.0
C541 C 0.50749 0.88833 0.23549 0.0
C542 C 0.44874 0.87487 0.27068 0.0
C543 C 0.47658 0.87425 0.29317 0.0
H544 H 0.84581 0.5467 0.82052 0.0
H545 H 0.84089 0.58066 0.70132 0.0
H546 H 0.84291 0.52592 0.6773 0.0
H547 H 0.84533 0.4691 0.69008 0.0
H548 H 0.85059 0.43416 0.80877 0.0
H549 H 0.84925 0.48909 0.83332 0.0
C550 C 0.84522 0.54216 0.78926 0.0
C551 C 0.84313 0.56774 0.76266 0.0
C552 C 0.84647 0.51064 0.77571 0.0
C553 C 0.84244 0.56144 0.72232 0.0
C554 C 0.84361 0.53017 0.70862 0.0
C555 C 0.84633 0.47332 0.7214 0.0
C556 C 0.84807 0.44752 0.74764 0.0
C557 C 0.84553 0.50468 0.73505 0.0
C558 C 0.84927 0.45359 0.78803 0.0
C559 C 0.84847 0.48495 0.80199 0.0
H560 H 0.56162 0.83765 0.78571 0.0
H561 H 0.54326 0.85385 0.66295 0.0
H562 H 0.48616 0.85264 0.67482 0.0
H563 H 0.44094 0.84697 0.72021 0.0
H564 H 0.45967 0.83119 0.84299 0.0
H565 H 0.51666 0.83206 0.83091 0.0
C566 C 0.54511 0.84102 0.76164 0.0
C567 C 0.5567 0.84586 0.72363 0.0
C568 C 0.51217 0.84021 0.76858 0.0
C569 C 0.53499 0.85011 0.69264 0.0
C570 C 0.50225 0.84936 0.69931 0.0
C571 C 0.45754 0.84353 0.74417 0.0
C572 C 0.44607 0.83901 0.78233 0.0
C573 C 0.49051 0.84433 0.73715 0.0
C574 C 0.46786 0.83481 0.81324 0.0
C575 C 0.50053 0.83532 0.80645 0.0
H576 H 0.15623 0.44113 0.71362 0.0
H577 H 0.20223 0.45433 0.8255 0.0
H578 H 0.20284 0.51164 0.81607 0.0
H579 H 0.18901 0.55846 0.77704 0.0
H580 H 0.14383 0.54576 0.66461 0.0
H581 H 0.14377 0.48828 0.67343 0.0
C582 C 0.1668 0.4566 0.73551 0.0
C583 C 0.17917 0.44361 0.77008 0.0
C584 C 0.16675 0.48977 0.73017 0.0
C585 C 0.19246 0.46387 0.79859 0.0
C586 C 0.19273 0.49667 0.79336 0.0
C587 C 0.17899 0.54307 0.75466 0.0
C588 C 0.16629 0.55632 0.72046 0.0
C589 C 0.17956 0.50995 0.75954 0.0
C590 C 0.15372 0.53613 0.69136 0.0
C591 C 0.15376 0.5032 0.69626 0.0
H592 H 0.44659 0.1669 0.78197 0.0
H593 H 0.46601 0.16786 0.65784 0.0
H594 H 0.52296 0.16863 0.67062 0.0
H595 H 0.5677 0.16947 0.71699 0.0
H596 H 0.54843 0.16765 0.84112 0.0
H597 H 0.49143 0.1667 0.8284 0.0
C598 C 0.46332 0.16729 0.7578 0.0
C599 C 0.45203 0.16739 0.71911 0.0
C600 C 0.49623 0.16756 0.76528 0.0
C601 C 0.47402 0.16774 0.68801 0.0
C602 C 0.50667 0.16821 0.69522 0.0
C603 C 0.551 0.16884 0.74119 0.0
C604 C 0.56232 0.16871 0.77984 0.0
C605 C 0.5181 0.16819 0.73373 0.0
C606 C 0.54038 0.16777 0.81097 0.0
C607 C 0.5077 0.16726 0.80379 0.0
H608 H 0.63427 0.03243 0.82788 0.0
H609 H 0.64084 0.08944 0.72339 0.0
H610 H 0.64122 0.04131 0.68293 0.0
H611 H 0.63534 0.98287 0.67711 0.0
H612 H 0.63393 0.92573 0.78178 0.0
H613 H 0.63614 0.97378 0.82231 0.0
C614 C 0.63629 0.03422 0.79628 0.0
C615 C 0.63732 0.06443 0.7786 0.0
C616 C 0.63723 0.00638 0.77324 0.0
C617 C 0.64019 0.06646 0.73767 0.0
C618 C 0.6402 0.03894 0.71451 0.0
C619 C 0.63601 0.98102 0.70879 0.0
C620 C 0.63427 0.95085 0.72648 0.0
C621 C 0.63809 0.00877 0.73192 0.0
C622 C 0.63541 0.94869 0.76753 0.0
C623 C 0.63649 0.97617 0.7907 0.0
H624 H 0.98023 0.62372 0.82736 0.0
H625 H 0.92455 0.64218 0.7238 0.0
H626 H 0.97299 0.64466 0.68426 0.0
H627 H 0.03119 0.63794 0.67836 0.0
H628 H 0.08748 0.6249 0.78259 0.0
H629 H 0.03913 0.62425 0.82271 0.0
C630 C 0.97885 0.62866 0.79623 0.0
C631 C 0.94891 0.63255 0.77842 0.0
C632 C 0.00694 0.63096 0.77381 0.0
C633 C 0.94737 0.63925 0.73815 0.0
C634 C 0.97504 0.64051 0.71549 0.0
C635 C 0.03278 0.63548 0.70994 0.0
C636 C 0.06273 0.63137 0.72757 0.0
C637 C 1.00494 0.63592 0.73287 0.0
C638 C 0.06464 0.62834 0.76848 0.0
C639 C 0.037 0.62775 0.79136 0.0
H640 H 0.38535 0.02768 0.67597 0.0
H641 H 0.3754 0.08694 0.77827 0.0
H642 H 0.3743 0.03973 0.82024 0.0
H643 H 0.37924 0.98129 0.82806 0.0
H644 H 0.38371 0.92209 0.72513 0.0
H645 H 0.38377 0.96928 0.68319 0.0
C646 C 0.38256 0.03015 0.70742 0.0
C647 C 0.38062 0.06069 0.72407 0.0
C648 C 0.38114 1.00286 0.73125 0.0
C649 C 0.37674 0.06364 0.76479 0.0
C650 C 0.37631 0.03666 0.78881 0.0
C651 C 0.3799 0.97886 0.79644 0.0
C652 C 0.38166 0.94838 0.7796 0.0
C653 C 0.37895 0.00613 0.77244 0.0
C654 C 0.38222 0.94538 0.73863 0.0
C655 C 0.38238 0.97234 0.71468 0.0
H656 H 0.0522 0.34862 0.78256 0.0
H657 H 0.07457 0.44704 0.75996 0.0
H658 H 0.02398 0.45394 0.72634 0.0
H659 H 0.9724 0.43336 0.70598 0.0
H660 H 0.94722 0.33595 0.73067 0.0
H661 H 0.99952 0.32742 0.76062 0.0
C662 C 0.046 0.37144 0.77 0.0
C663 C 0.06715 0.39734 0.77406 0.0
C664 C 0.0162 0.37556 0.75121 0.0
C665 C 0.05865 0.42682 0.75775 0.0
C666 C 0.0297 0.43082 0.73838 0.0
C667 C 0.97826 0.41011 0.71756 0.0
C668 C 0.95564 0.38536 0.71584 0.0
C669 C 0.00811 0.40552 0.73538 0.0
C670 C 0.96399 0.35552 0.73142 0.0
C671 C 0.99397 0.3506 0.74866 0.0
H672 H 0.34746 0.04363 0.31706 0.0
H673 H 0.34355 0.07576 0.19706 0.0
H674 H 0.34233 0.02058 0.1744 0.0
H675 H 0.3415 0.96375 0.18876 0.0
H676 H 0.34517 0.93113 0.30854 0.0
H677 H 0.34719 0.98638 0.33142 0.0
C678 C 0.34646 0.03858 0.28591 0.0
C679 C 0.34558 0.06372 0.2587 0.0
C680 C 0.34557 0.00688 0.27319 0.0
C681 C 0.34424 0.05682 0.21852 0.0
C682 C 0.3435 0.02531 0.20559 0.0
C683 C 0.34278 0.96863 0.21993 0.0
C684 C 0.34316 0.94339 0.24699 0.0
C685 C 0.34399 1.00023 0.23269 0.0
C686 C 0.34478 0.95016 0.28719 0.0
C687 C 0.34598 0.9817 0.30022 0.0
H688 H 0.94637 0.34149 0.22024 0.0
H689 H 0.96635 0.3415 0.34431 0.0
H690 H 0.02316 0.34177 0.3314 0.0
H691 H 0.06784 0.34218 0.28496 0.0
H692 H 0.04796 0.34213 0.16089 0.0
H693 H 0.9911 0.34168 0.17375 0.0
C694 C 0.96318 0.34152 0.24436 0.0
C695 C 0.95203 0.34152 0.28306 0.0
C696 C 0.99611 0.34167 0.23683 0.0
C697 C 0.97418 0.34158 0.31408 0.0
C698 C 0.00681 0.3417 0.30683 0.0
C699 C 0.05103 0.34202 0.26082 0.0
C700 C 0.06221 0.34224 0.22215 0.0
C701 C 0.01812 0.34178 0.26833 0.0
C702 C 0.04009 0.34205 0.1911 0.0
C703 C 0.00744 0.34177 0.19833 0.0
H704 H 0.66509 0.94328 0.21722 0.0
H705 H 0.68263 0.9615 0.33983 0.0
H706 H 0.68258 0.01845 0.32798 0.0
H707 H 0.6775 0.06354 0.28305 0.0
H708 H 0.65994 0.04586 0.16038 0.0
H709 H 0.65988 0.98872 0.17203 0.0
C710 C 0.66907 0.95976 0.24119 0.0
C711 C 0.67387 0.94813 0.27923 0.0
C712 C 0.66884 0.99274 0.23429 0.0
C713 C 0.67879 0.96979 0.31016 0.0
C714 C 0.67876 1.00244 0.30351 0.0
C715 C 0.67354 0.04717 0.25895 0.0
C716 C 0.66872 0.05895 0.22103 0.0
C717 C 0.6737 0.01424 0.26574 0.0
C718 C 0.66371 0.03743 0.18999 0.0
C719 C 0.66373 1.00468 0.19654 0.0
H720 H 0.06514 0.66999 0.22248 0.0
H721 H 0.04574 0.66461 0.34645 0.0
H722 H 0.98877 0.66417 0.33361 0.0
H723 H 0.94411 0.66566 0.28715 0.0
H724 H 0.96364 0.67021 0.16317 0.0
H725 H 0.02058 0.67069 0.17605 0.0
C726 C 0.04841 0.66871 0.24661 0.0
C727 C 0.05962 0.66741 0.28523 0.0
C728 C 0.01559 0.66837 0.23909 0.0
C729 C 0.03771 0.66565 0.31631 0.0
C730 C 1.00507 0.66542 0.30908 0.0
C731 C 0.96087 0.66679 0.26305 0.0
C732 C 0.94971 0.66793 0.22439 0.0
C733 C 0.99371 0.66686 0.27059 0.0
C734 C 0.97165 0.66923 0.19332 0.0
C735 C 1.00426 0.66954 0.20058 0.0
loop_
_geom_bond_atom_site_label_1
_geom_bond_atom_site_label_2
_geom_bond_distance
_geom_bond_site_symmetry_2
_ccdc_geom_bond_type
Co0 O1 2.216 . S
Co0 O2 2.091 . S
Co0 O4 2.004 . S
Co0 O10 2.021 . S
Co0 O12 2.137 . S
Co0 O13 2.244 . S
O1 Co0 2.216 . S
O1 C8 1.247 . S
O2 Co0 2.091 . S
O2 C8 1.261 . S
C3 O12 1.247 . S
C3 O13 1.272 . S
O4 Co0 2.004 . S
O4 C9 1.259 . S
Co5 O6 2.061 . S
Co5 O11 2.052 . S
Co5 O13 2.135 . S
O6 Co5 2.061 . S
O6 C9 1.235 . S
C7 O10 1.238 . S
C7 O11 1.241 . S
C8 O1 1.247 . S
C8 O2 1.261 . S
C9 O4 1.259 . S
C9 O6 1.235 . S
O10 Co0 2.021 . S
O10 C7 1.238 . S
O11 Co5 2.052 . S
O11 C7 1.241 . S
O12 Co0 2.137 . S
O12 C3 1.247 . S
O13 Co0 2.244 . S
O13 C3 1.272 . S
O13 Co5 2.135 . S
Co14 O15 2.216 . S
Co14 O16 2.091 . S
Co14 O18 2.004 . S
Co14 O24 2.021 . S
Co14 O26 2.137 . S
Co14 O27 2.244 . S
O15 Co14 2.216 . S
O15 C22 1.247 . S
O16 Co14 2.091 . S
O16 C22 1.261 . S
C17 O26 1.247 . S
C17 O27 1.272 . S
O18 Co14 2.004 . S
O18 C23 1.259 . S
Co19 O20 2.061 . S
Co19 O25 2.052 . S
Co19 O27 2.135 . S
O20 Co19 2.061 . S
O20 C23 1.235 . S
C21 O24 1.238 . S
C21 O25 1.241 . S
C22 O15 1.247 . S
C22 O16 1.261 . S
C23 O18 1.259 . S
C23 O20 1.235 . S
O24 Co14 2.021 . S
O24 C21 1.238 . S
O25 Co19 2.052 . S
O25 C21 1.241 . S
O26 Co14 2.137 . S
O26 C17 1.247 . S
O27 Co14 2.244 . S
O27 C17 1.272 . S
O27 Co19 2.135 . S
Co28 O29 2.216 . S
Co28 O30 2.091 . S
Co28 O32 2.004 . S
Co28 O38 2.021 . S
Co28 O40 2.137 . S
Co28 O41 2.244 . S
O29 Co28 2.216 . S
O29 C36 1.247 . S
O30 Co28 2.091 . S
O30 C36 1.261 . S
C31 O40 1.247 . S
C31 O41 1.272 . S
O32 Co28 2.004 . S
O32 C37 1.259 . S
Co33 O34 2.061 . S
Co33 O39 2.052 . S
Co33 O41 2.135 . S
O34 Co33 2.061 . S
O34 C37 1.235 . S
C35 O38 1.238 . S
C35 O39 1.241 . S
C36 O29 1.247 . S
C36 O30 1.261 . S
C37 O32 1.259 . S
C37 O34 1.235 . S
O38 Co28 2.021 . S
O38 C35 1.238 . S
O39 Co33 2.052 . S
O39 C35 1.241 . S
O40 Co28 2.137 . S
O40 C31 1.247 . S
O41 Co28 2.244 . S
O41 C31 1.272 . S
O41 Co33 2.135 . S
Co42 O43 2.216 . S
Co42 O44 2.091 . S
Co42 O46 2.004 . S
Co42 O52 2.021 . S
Co42 O54 2.137 . S
Co42 O55 2.244 . S
O43 Co42 2.216 . S
O43 C50 1.247 . S
O44 Co42 2.091 . S
O44 C50 1.261 . S
C45 O54 1.247 . S
C45 O55 1.272 . S
O46 Co42 2.004 . S
O46 C51 1.259 . S
Co47 O48 2.061 . S
Co47 O53 2.052 . S
Co47 O55 2.135 . S
O48 Co47 2.061 . S
O48 C51 1.235 . S
C49 O52 1.238 . S
C49 O53 1.241 . S
C50 O43 1.247 . S
C50 O44 1.261 . S
C51 O46 1.259 . S
C51 O48 1.235 . S
O52 Co42 2.021 . S
O52 C49 1.238 . S
O53 Co47 2.052 . S
O53 C49 1.241 . S
O54 Co42 2.137 . S
O54 C45 1.247 . S
O55 Co42 2.244 . S
O55 C45 1.272 . S
O55 Co47 2.135 . S
Co56 O57 2.216 . S
Co56 O58 2.091 . S
Co56 O60 2.004 . S
Co56 O66 2.021 . S
Co56 O68 2.137 . S
Co56 O69 2.244 . S
O57 Co56 2.216 . S
O57 C64 1.247 . S
O58 Co56 2.091 . S
O58 C64 1.261 . S
C59 O68 1.247 . S
C59 O69 1.272 . S
O60 Co56 2.004 . S
O60 C65 1.259 . S
Co61 O62 2.061 . S
Co61 O67 2.052 . S
Co61 O69 2.135 . S
O62 Co61 2.061 . S
O62 C65 1.235 . S
C63 O66 1.238 . S
C63 O67 1.241 . S
C64 O57 1.247 . S
C64 O58 1.261 . S
C65 O60 1.259 . S
C65 O62 1.235 . S
O66 Co56 2.021 . S
O66 C63 1.238 . S
O67 Co61 2.052 . S
O67 C63 1.241 . S
O68 Co56 2.137 . S
O68 C59 1.247 . S
O69 Co56 2.244 . S
O69 C59 1.272 . S
O69 Co61 2.135 . S
Co70 O71 2.216 . S
Co70 O72 2.091 . S
Co70 O74 2.004 . S
Co70 O80 2.021 . S
Co70 O82 2.137 . S
Co70 O83 2.244 . S
O71 Co70 2.216 . S
O71 C78 1.247 . S
O72 Co70 2.091 . S
O72 C78 1.261 . S
C73 O82 1.247 . S
C73 O83 1.272 . S
O74 Co70 2.004 . S
O74 C79 1.259 . S
Co75 O76 2.061 . S
Co75 O81 2.052 . S
Co75 O83 2.135 . S
O76 Co75 2.061 . S
O76 C79 1.235 . S
C77 O80 1.238 . S
C77 O81 1.241 . S
C78 O71 1.247 . S
C78 O72 1.261 . S
C79 O74 1.259 . S
C79 O76 1.235 . S
O80 Co70 2.021 . S
O80 C77 1.238 . S
O81 Co75 2.052 . S
O81 C77 1.241 . S
O82 Co70 2.137 . S
O82 C73 1.247 . S
O83 Co70 2.244 . S
O83 C73 1.272 . S
O83 Co75 2.135 . S
Co84 O85 2.216 . S
Co84 O86 2.091 . S
Co84 O88 2.004 . S
Co84 O94 2.021 . S
Co84 O96 2.137 . S
Co84 O97 2.244 . S
O85 Co84 2.216 . S
O85 C92 1.247 . S
O86 Co84 2.091 . S
O86 C92 1.261 . S
C87 O96 1.247 . S
C87 O97 1.272 . S
O88 Co84 2.004 . S
O88 C93 1.259 . S
Co89 O90 2.061 . S
Co89 O95 2.052 . S
Co89 O97 2.135 . S
O90 Co89 2.061 . S
O90 C93 1.235 . S
C91 O94 1.238 . S
C91 O95 1.241 . S
C92 O85 1.247 . S
C92 O86 1.261 . S
C93 O88 1.259 . S
C93 O90 1.235 . S
O94 Co84 2.021 . S
O94 C91 1.238 . S
O95 Co89 2.052 . S
O95 C91 1.241 . S
O96 Co84 2.137 . S
O96 C87 1.247 . S
O97 Co84 2.244 . S
O97 C87 1.272 . S
O97 Co89 2.135 . S
Co98 O99 2.216 . S
Co98 O100 2.091 . S
Co98 O102 2.004 . S
Co98 O108 2.021 . S
Co98 O110 2.137 . S
Co98 O111 2.244 . S
O99 Co98 2.216 . S
O99 C106 1.247 . S
O100 Co98 2.091 . S
O100 C106 1.261 . S
C101 O110 1.247 . S
C101 O111 1.272 . S
O102 Co98 2.004 . S
O102 C107 1.259 . S
Co103 O104 2.061 . S
Co103 O109 2.052 . S
Co103 O111 2.135 . S
O104 Co103 2.061 . S
O104 C107 1.235 . S
C105 O108 1.238 . S
C105 O109 1.241 . S
C106 O99 1.247 . S
C106 O100 1.261 . S
C107 O102 1.259 . S
C107 O104 1.235 . S
O108 Co98 2.021 . S
O108 C105 1.238 . S
O109 Co103 2.052 . S
O109 C105 1.241 . S
O110 Co98 2.137 . S
O110 C101 1.247 . S
O111 Co98 2.244 . S
O111 C101 1.272 . S
O111 Co103 2.135 . S
Co112 O113 2.216 . S
Co112 O114 2.091 . S
Co112 O116 2.004 . S
Co112 O122 2.021 . S
Co112 O124 2.137 . S
Co112 O125 2.244 . S
O113 Co112 2.216 . S
O113 C120 1.247 . S
O114 Co112 2.091 . S
O114 C120 1.261 . S
C115 O124 1.247 . S
C115 O125 1.272 . S
O116 Co112 2.004 . S
O116 C121 1.259 . S
Co117 O118 2.061 . S
Co117 O123 2.052 . S
Co117 O125 2.135 . S
O118 Co117 2.061 . S
O118 C121 1.235 . S
C119 O122 1.238 . S
C119 O123 1.241 . S
C120 O113 1.247 . S
C120 O114 1.261 . S
C121 O116 1.259 . S
C121 O118 1.235 . S
O122 Co112 2.021 . S
O122 C119 1.238 . S
O123 Co117 2.052 . S
O123 C119 1.241 . S
O124 Co112 2.137 . S
O124 C115 1.247 . S
O125 Co112 2.244 . S
O125 C115 1.272 . S
O125 Co117 2.135 . S
Co126 O127 2.216 . S
Co126 O128 2.091 . S
Co126 O130 2.004 . S
Co126 O136 2.021 . S
Co126 O138 2.137 . S
Co126 O139 2.244 . S
O127 Co126 2.216 . S
O127 C134 1.247 . S
O128 Co126 2.091 . S
O128 C134 1.261 . S
C129 O138 1.247 . S
C129 O139 1.272 . S
O130 Co126 2.004 . S
O130 C135 1.259 . S
Co131 O132 2.061 . S
Co131 O137 2.052 . S
Co131 O139 2.135 . S
O132 Co131 2.061 . S
O132 C135 1.235 . S
C133 O136 1.238 . S
C133 O137 1.241 . S
C134 O127 1.247 . S
C134 O128 1.261 . S
C135 O130 1.259 . S
C135 O132 1.235 . S
O136 Co126 2.021 . S
O136 C133 1.238 . S
O137 Co131 2.052 . S
O137 C133 1.241 . S
O138 Co126 2.137 . S
O138 C129 1.247 . S
O139 Co126 2.244 . S
O139 C129 1.272 . S
O139 Co131 2.135 . S
Co140 O141 2.216 . S
Co140 O142 2.091 . S
Co140 O144 2.004 . S
Co140 O150 2.021 . S
Co140 O152 2.137 . S
Co140 O153 2.244 . S
O141 Co140 2.216 . S
O141 C148 1.247 . S
O142 Co140 2.091 . S
O142 C148 1.261 . S
C143 O152 1.247 . S
C143 O153 1.272 . S
O144 Co140 2.004 . S
O144 C149 1.259 . S
Co145 O146 2.061 . S
Co145 O151 2.052 . S
Co145 O153 2.135 . S
O146 Co145 2.061 . S
O146 C149 1.235 . S
C147 O150 1.238 . S
C147 O151 1.241 . S
C148 O141 1.247 . S
C148 O142 1.261 . S
C149 O144 1.259 . S
C149 O146 1.235 . S
O150 Co140 2.021 . S
O150 C147 1.238 . S
O151 Co145 2.052 . S
O151 C147 1.241 . S
O152 Co140 2.137 . S
O152 C143 1.247 . S
O153 Co140 2.244 . S
O153 C143 1.272 . S
O153 Co145 2.135 . S
Co154 O155 2.216 . S
Co154 O156 2.091 . S
Co154 O158 2.004 . S
Co154 O164 2.021 . S
Co154 O166 2.137 . S
Co154 O167 2.244 . S
O155 Co154 2.216 . S
O155 C162 1.247 . S
O156 Co154 2.091 . S
O156 C162 1.261 . S
C157 O166 1.247 . S
C157 O167 1.272 . S
O158 Co154 2.004 . S
O158 C163 1.259 . S
Co159 O160 2.061 . S
Co159 O165 2.052 . S
Co159 O167 2.135 . S
O160 Co159 2.061 . S
O160 C163 1.235 . S
C161 O164 1.238 . S
C161 O165 1.241 . S
C162 O155 1.247 . S
C162 O156 1.261 . S
C163 O158 1.259 . S
C163 O160 1.235 . S
O164 Co154 2.021 . S
O164 C161 1.238 . S
O165 Co159 2.052 . S
O165 C161 1.241 . S
O166 Co154 2.137 . S
O166 C157 1.247 . S
O167 Co154 2.244 . S
O167 C157 1.272 . S
O167 Co159 2.135 . S
Co168 O169 2.216 . S
Co168 O170 2.091 . S
Co168 O172 2.004 . S
Co168 O178 2.021 . S
Co168 O180 2.137 . S
Co168 O181 2.244 . S
O169 Co168 2.216 . S
O169 C176 1.247 . S
O170 Co168 2.091 . S
O170 C176 1.261 . S
C171 O180 1.247 . S
C171 O181 1.272 . S
O172 Co168 2.004 . S
O172 C177 1.259 . S
Co173 O174 2.061 . S
Co173 O179 2.052 . S
Co173 O181 2.135 . S
O174 Co173 2.061 . S
O174 C177 1.235 . S
C175 O178 1.238 . S
C175 O179 1.241 . S
C176 O169 1.247 . S
C176 O170 1.261 . S
C177 O172 1.259 . S
C177 O174 1.235 . S
O178 Co168 2.021 . S
O178 C175 1.238 . S
O179 Co173 2.052 . S
O179 C175 1.241 . S
O180 Co168 2.137 . S
O180 C171 1.247 . S
O181 Co168 2.244 . S
O181 C171 1.272 . S
O181 Co173 2.135 . S
Co182 O183 2.216 . S
Co182 O184 2.091 . S
Co182 O186 2.004 . S
Co182 O192 2.021 . S
Co182 O194 2.137 . S
Co182 O195 2.244 . S
O183 Co182 2.216 . S
O183 C190 1.247 . S
O184 Co182 2.091 . S
O184 C190 1.261 . S
C185 O194 1.247 . S
C185 O195 1.272 . S
O186 Co182 2.004 . S
O186 C191 1.259 . S
Co187 O188 2.061 . S
Co187 O193 2.052 . S
Co187 O195 2.135 . S
O188 Co187 2.061 . S
O188 C191 1.235 . S
C189 O192 1.238 . S
C189 O193 1.241 . S
C190 O183 1.247 . S
C190 O184 1.261 . S
C191 O186 1.259 . S
C191 O188 1.235 . S
O192 Co182 2.021 . S
O192 C189 1.238 . S
O193 Co187 2.052 . S
O193 C189 1.241 . S
O194 Co182 2.137 . S
O194 C185 1.247 . S
O195 Co182 2.244 . S
O195 C185 1.272 . S
O195 Co187 2.135 . S
Co196 O197 2.216 . S
Co196 O198 2.091 . S
Co196 O200 2.004 . S
Co196 O206 2.021 . S
Co196 O208 2.137 . S
Co196 O209 2.244 . S
O197 Co196 2.216 . S
O197 C204 1.247 . S
O198 Co196 2.091 . S
O198 C204 1.261 . S
C199 O208 1.247 . S
C199 O209 1.272 . S
O200 Co196 2.004 . S
O200 C205 1.259 . S
Co201 O202 2.061 . S
Co201 O207 2.052 . S
Co201 O209 2.135 . S
O202 Co201 2.061 . S
O202 C205 1.235 . S
C203 O206 1.238 . S
C203 O207 1.241 . S
C204 O197 1.247 . S
C204 O198 1.261 . S
C205 O200 1.259 . S
C205 O202 1.235 . S
O206 Co196 2.021 . S
O206 C203 1.238 . S
O207 Co201 2.052 . S
O207 C203 1.241 . S
O208 Co196 2.137 . S
O208 C199 1.247 . S
O209 Co196 2.244 . S
O209 C199 1.272 . S
O209 Co201 2.135 . S
Co210 O211 2.216 . S
Co210 O212 2.091 . S
Co210 O214 2.004 . S
Co210 O220 2.021 . S
Co210 O222 2.137 . S
Co210 O223 2.244 . S
O211 Co210 2.216 . S
O211 C218 1.247 . S
O212 Co210 2.091 . S
O212 C218 1.261 . S
C213 O222 1.247 . S
C213 O223 1.272 . S
O214 Co210 2.004 . S
O214 C219 1.259 . S
Co215 O216 2.061 . S
Co215 O221 2.052 . S
Co215 O223 2.135 . S
O216 Co215 2.061 . S
O216 C219 1.235 . S
C217 O220 1.238 . S
C217 O221 1.241 . S
C218 O211 1.247 . S
C218 O212 1.261 . S
C219 O214 1.259 . S
C219 O216 1.235 . S
O220 Co210 2.021 . S
O220 C217 1.238 . S
O221 Co215 2.052 . S
O221 C217 1.241 . S
O222 Co210 2.137 . S
O222 C213 1.247 . S
O223 Co210 2.244 . S
O223 C213 1.272 . S
O223 Co215 2.135 . S
H224 C230 0.930 . S
H225 C233 0.930 . S
H226 C234 0.930 . S
H227 C235 0.930 . S
H228 C238 0.930 . S
H229 C239 0.930 . S
C230 H224 0.930 . S
C230 C231 1.355 . S
C230 C232 1.415 . S
C231 C230 1.355 . S
C231 C233 1.419 . S
C232 C230 1.415 . S
C232 C237 1.425 . S
C232 C239 1.409 . S
C233 H225 0.930 . S
C233 C231 1.419 . S
C233 C234 1.362 . S
C234 H226 0.930 . S
C234 C233 1.362 . S
C234 C237 1.409 . S
C235 H227 0.930 . S
C235 C236 1.355 . S
C235 C237 1.415 . S
C236 C235 1.355 . S
C236 C238 1.419 . S
C237 C232 1.425 . S
C237 C234 1.409 . S
C237 C235 1.415 . S
C238 H228 0.930 . S
C238 C236 1.419 . S
C238 C239 1.362 . S
C239 H229 0.930 . S
C239 C232 1.409 . S
C239 C238 1.362 . S
H240 C246 0.930 . S
H241 C249 0.930 . S
H242 C250 0.930 . S
H243 C251 0.930 . S
H244 C254 0.930 . S
H245 C255 0.930 . S
C246 H240 0.930 . S
C246 C247 1.355 . S
C246 C248 1.415 . S
C247 C246 1.355 . S
C247 C249 1.419 . S
C248 C246 1.415 . S
C248 C253 1.425 . S
C248 C255 1.409 . S
C249 H241 0.930 . S
C249 C247 1.419 . S
C249 C250 1.362 . S
C250 H242 0.930 . S
C250 C249 1.362 . S
C250 C253 1.409 . S
C251 H243 0.930 . S
C251 C252 1.355 . S
C251 C253 1.415 . S
C252 C251 1.355 . S
C252 C254 1.419 . S
C253 C248 1.425 . S
C253 C250 1.409 . S
C253 C251 1.415 . S
C254 H244 0.930 . S
C254 C252 1.419 . S
C254 C255 1.362 . S
C255 H245 0.930 . S
C255 C248 1.409 . S
C255 C254 1.362 . S
H256 C262 0.930 . S
H257 C265 0.930 . S
H258 C266 0.930 . S
H259 C267 0.930 . S
H260 C270 0.930 . S
H261 C271 0.930 . S
C262 H256 0.930 . S
C262 C263 1.355 . S
C262 C264 1.415 . S
C263 C262 1.355 . S
C263 C265 1.419 . S
C264 C262 1.415 . S
C264 C269 1.425 . S
C264 C271 1.409 . S
C265 H257 0.930 . S
C265 C263 1.419 . S
C265 C266 1.362 . S
C266 H258 0.930 . S
C266 C265 1.362 . S
C266 C269 1.409 . S
C267 H259 0.930 . S
C267 C268 1.355 . S
C267 C269 1.415 . S
C268 C267 1.355 . S
C268 C270 1.419 . S
C269 C264 1.425 . S
C269 C266 1.409 . S
C269 C267 1.415 . S
C270 H260 0.930 . S
C270 C268 1.419 . S
C270 C271 1.362 . S
C271 H261 0.930 . S
C271 C264 1.409 . S
C271 C270 1.362 . S
H272 C278 0.930 . S
H273 C281 0.930 . S
H274 C282 0.930 . S
H275 C283 0.930 . S
H276 C286 0.930 . S
H277 C287 0.930 . S
C278 H272 0.930 . S
C278 C279 1.355 . S
C278 C280 1.415 . S
C279 C278 1.355 . S
C279 C281 1.419 . S
C280 C278 1.415 . S
C280 C285 1.425 . S
C280 C287 1.409 . S
C281 H273 0.930 . S
C281 C279 1.419 . S
C281 C282 1.362 . S
C282 H274 0.930 . S
C282 C281 1.362 . S
C282 C285 1.409 . S
C283 H275 0.930 . S
C283 C284 1.355 . S
C283 C285 1.415 . S
C284 C283 1.355 . S
C284 C286 1.419 . S
C285 C280 1.425 . S
C285 C282 1.409 . S
C285 C283 1.415 . S
C286 H276 0.930 . S
C286 C284 1.419 . S
C286 C287 1.362 . S
C287 H277 0.930 . S
C287 C280 1.409 . S
C287 C286 1.362 . S
H288 C294 0.930 . S
H289 C297 0.930 . S
H290 C298 0.930 . S
H291 C299 0.930 . S
H292 C302 0.930 . S
H293 C303 0.930 . S
C294 H288 0.930 . S
C294 C295 1.355 . S
C294 C296 1.415 . S
C295 C294 1.355 . S
C295 C297 1.419 . S
C296 C294 1.415 . S
C296 C301 1.425 . S
C296 C303 1.409 . S
C297 H289 0.930 . S
C297 C295 1.419 . S
C297 C298 1.362 . S
C298 H290 0.930 . S
C298 C297 1.362 . S
C298 C301 1.409 . S
C299 H291 0.930 . S
C299 C300 1.355 . S
C299 C301 1.415 . S
C300 C299 1.355 . S
C300 C302 1.419 . S
C301 C296 1.425 . S
C301 C298 1.409 . S
C301 C299 1.415 . S
C302 H292 0.930 . S
C302 C300 1.419 . S
C302 C303 1.362 . S
C303 H293 0.930 . S
C303 C296 1.409 . S
C303 C302 1.362 . S
H304 C310 0.930 . S
H305 C313 0.930 . S
H306 C314 0.930 . S
H307 C315 0.930 . S
H308 C318 0.930 . S
H309 C319 0.930 . S
C310 H304 0.930 . S
C310 C311 1.355 . S
C310 C312 1.415 . S
C311 C310 1.355 . S
C311 C313 1.419 . S
C312 C310 1.415 . S
C312 C317 1.425 . S
C312 C319 1.409 . S
C313 H305 0.930 . S
C313 C311 1.419 . S
C313 C314 1.362 . S
C314 H306 0.930 . S
C314 C313 1.362 . S
C314 C317 1.409 . S
C315 H307 0.930 . S
C315 C316 1.355 . S
C315 C317 1.415 . S
C316 C315 1.355 . S
C316 C318 1.419 . S
C317 C312 1.425 . S
C317 C314 1.409 . S
C317 C315 1.415 . S
C318 H308 0.930 . S
C318 C316 1.419 . S
C318 C319 1.362 . S
C319 H309 0.930 . S
C319 C312 1.409 . S
C319 C318 1.362 . S
H320 C326 0.930 . S
H321 C329 0.930 . S
H322 C330 0.930 . S
H323 C331 0.930 . S
H324 C334 0.930 . S
H325 C335 0.930 . S
C326 H320 0.930 . S
C326 C327 1.355 . S
C326 C328 1.415 . S
C327 C326 1.355 . S
C327 C329 1.419 . S
C328 C326 1.415 . S
C328 C333 1.425 . S
C328 C335 1.409 . S
C329 H321 0.930 . S
C329 C327 1.419 . S
C329 C330 1.362 . S
C330 H322 0.930 . S
C330 C329 1.362 . S
C330 C333 1.409 . S
C331 H323 0.930 . S
C331 C332 1.355 . S
C331 C333 1.415 . S
C332 C331 1.355 . S
C332 C334 1.419 . S
C333 C328 1.425 . S
C333 C330 1.409 . S
C333 C331 1.415 . S
C334 H324 0.930 . S
C334 C332 1.419 . S
C334 C335 1.362 . S
C335 H325 0.930 . S
C335 C328 1.409 . S
C335 C334 1.362 . S
H336 C342 0.930 . S
H337 C345 0.930 . S
H338 C346 0.930 . S
H339 C347 0.930 . S
H340 C350 0.930 . S
H341 C351 0.930 . S
C342 H336 0.930 . S
C342 C343 1.355 . S
C342 C344 1.415 . S
C343 C342 1.355 . S
C343 C345 1.419 . S
C344 C342 1.415 . S
C344 C349 1.425 . S
C344 C351 1.409 . S
C345 H337 0.930 . S
C345 C343 1.419 . S
C345 C346 1.362 . S
C346 H338 0.930 . S
C346 C345 1.362 . S
C346 C349 1.409 . S
C347 H339 0.930 . S
C347 C348 1.355 . S
C347 C349 1.415 . S
C348 C347 1.355 . S
C348 C350 1.419 . S
C349 C344 1.425 . S
C349 C346 1.409 . S
C349 C347 1.415 . S
C350 H340 0.930 . S
C350 C348 1.419 . S
C350 C351 1.362 . S
C351 H341 0.930 . S
C351 C344 1.409 . S
C351 C350 1.362 . S
H352 C358 0.930 . S
H353 C361 0.930 . S
H354 C362 0.930 . S
H355 C363 0.930 . S
H356 C366 0.930 . S
H357 C367 0.930 . S
C358 H352 0.930 . S
C358 C359 1.355 . S
C358 C360 1.415 . S
C359 C358 1.355 . S
C359 C361 1.419 . S
C360 C358 1.415 . S
C360 C365 1.425 1_556 S
C360 C367 1.409 1_556 S
C361 H353 0.930 . S
C361 C359 1.419 . S
C361 C362 1.362 . S
C362 H354 0.930 . S
C362 C361 1.362 . S
C362 C365 1.409 1_556 S
C363 H355 0.930 . S
C363 C364 1.355 . S
C363 C365 1.415 . S
C364 C363 1.355 . S
C364 C366 1.419 . S
C365 C360 1.425 1_554 S
C365 C362 1.409 1_554 S
C365 C363 1.415 . S
C366 H356 0.930 . S
C366 C364 1.419 . S
C366 C367 1.362 . S
C367 H357 0.930 . S
C367 C360 1.409 1_554 S
C367 C366 1.362 . S
H368 C374 0.930 . S
H369 C377 0.930 . S
H370 C378 0.930 . S
H371 C379 0.930 . S
H372 C382 0.930 . S
H373 C383 0.930 . S
C374 H368 0.930 . S
C374 C375 1.355 . S
C374 C376 1.415 . S
C375 C374 1.355 . S
C375 C377 1.419 . S
C376 C374 1.415 . S
C376 C381 1.425 1_556 S
C376 C383 1.409 1_556 S
C377 H369 0.930 . S
C377 C375 1.419 . S
C377 C378 1.362 . S
C378 H370 0.930 . S
C378 C377 1.362 . S
C378 C381 1.409 1_556 S
C379 H371 0.930 . S
C379 C380 1.355 . S
C379 C381 1.415 . S
C380 C379 1.355 . S
C380 C382 1.419 . S
C381 C376 1.425 1_554 S
C381 C378 1.409 1_554 S
C381 C379 1.415 . S
C382 H372 0.930 . S
C382 C380 1.419 . S
C382 C383 1.362 . S
C383 H373 0.930 . S
C383 C376 1.409 1_554 S
C383 C382 1.362 . S
H384 C390 0.930 . S
H385 C393 0.930 . S
H386 C394 0.930 . S
H387 C395 0.930 . S
H388 C398 0.930 . S
H389 C399 0.930 . S
C390 H384 0.930 . S
C390 C391 1.355 . S
C390 C392 1.415 . S
C391 C390 1.355 . S
C391 C393 1.419 . S
C392 C390 1.415 . S
C392 C397 1.425 1_556 S
C392 C399 1.409 1_556 S
C393 H385 0.930 . S
C393 C391 1.419 . S
C393 C394 1.362 . S
C394 H386 0.930 . S
C394 C393 1.362 . S
C394 C397 1.409 1_556 S
C395 H387 0.930 . S
C395 C396 1.355 . S
C395 C397 1.415 . S
C396 C395 1.355 . S
C396 C398 1.419 . S
C397 C392 1.425 1_554 S
C397 C394 1.409 1_554 S
C397 C395 1.415 . S
C398 H388 0.930 . S
C398 C396 1.419 . S
C398 C399 1.362 . S
C399 H389 0.930 . S
C399 C392 1.409 1_554 S
C399 C398 1.362 . S
H400 C406 0.930 . S
H401 C409 0.930 . S
H402 C410 0.930 . S
H403 C411 0.930 . S
H404 C414 0.930 . S
H405 C415 0.930 . S
C406 H400 0.930 . S
C406 C407 1.355 . S
C406 C408 1.415 . S
C407 C406 1.355 . S
C407 C409 1.419 . S
C408 C406 1.415 . S
C408 C413 1.425 1_554 S
C408 C415 1.409 1_554 S
C409 H401 0.930 . S
C409 C407 1.419 . S
C409 C410 1.362 . S
C410 H402 0.930 . S
C410 C409 1.362 . S
C410 C413 1.409 1_554 S
C411 H403 0.930 . S
C411 C412 1.355 . S
C411 C413 1.415 . S
C412 C411 1.355 . S
C412 C414 1.419 . S
C413 C408 1.425 1_556 S
C413 C410 1.409 1_556 S
C413 C411 1.415 . S
C414 H404 0.930 . S
C414 C412 1.419 . S
C414 C415 1.362 . S
C415 H405 0.930 . S
C415 C408 1.409 1_556 S
C415 C414 1.362 . S
H416 C422 0.930 . S
H417 C425 0.930 . S
H418 C426 0.930 . S
H419 C427 0.930 . S
H420 C430 0.930 . S
H421 C431 0.930 . S
C422 H416 0.930 . S
C422 C423 1.355 . S
C422 C424 1.415 . S
C423 C422 1.355 . S
C423 C425 1.419 . S
C424 C422 1.415 . S
C424 C429 1.425 . S
C424 C431 1.409 . S
C425 H417 0.930 . S
C425 C423 1.419 . S
C425 C426 1.362 . S
C426 H418 0.930 . S
C426 C425 1.362 . S
C426 C429 1.409 . S
C427 H419 0.930 . S
C427 C428 1.355 . S
C427 C429 1.415 . S
C428 C427 1.355 . S
C428 C430 1.419 . S
C429 C424 1.425 . S
C429 C426 1.409 . S
C429 C427 1.415 . S
C430 H420 0.930 . S
C430 C428 1.419 . S
C430 C431 1.362 . S
C431 H421 0.930 . S
C431 C424 1.409 . S
C431 C430 1.362 . S
H432 C438 0.930 . S
H433 C441 0.930 . S
H434 C442 0.930 . S
H435 C443 0.930 . S
H436 C446 0.930 . S
H437 C447 0.930 . S
C438 H432 0.930 . S
C438 C439 1.355 . S
C438 C440 1.415 . S
C439 C438 1.355 . S
C439 C441 1.419 . S
C440 C438 1.415 . S
C440 C445 1.425 . S
C440 C447 1.409 . S
C441 H433 0.930 . S
C441 C439 1.419 . S
C441 C442 1.362 . S
C442 H434 0.930 . S
C442 C441 1.362 . S
C442 C445 1.409 . S
C443 H435 0.930 . S
C443 C444 1.355 . S
C443 C445 1.415 . S
C444 C443 1.355 . S
C444 C446 1.419 . S
C445 C440 1.425 . S
C445 C442 1.409 . S
C445 C443 1.415 . S
C446 H436 0.930 . S
C446 C444 1.419 . S
C446 C447 1.362 . S
C447 H437 0.930 . S
C447 C440 1.409 . S
C447 C446 1.362 . S
H448 C454 0.930 . S
H449 C457 0.930 . S
H450 C458 0.930 . S
H451 C459 0.930 . S
H452 C462 0.930 . S
H453 C463 0.930 . S
C454 H448 0.930 . S
C454 C455 1.355 . S
C454 C456 1.415 . S
C455 C454 1.355 . S
C455 C457 1.419 . S
C456 C454 1.415 . S
C456 C461 1.425 . S
C456 C463 1.409 . S
C457 H449 0.930 . S
C457 C455 1.419 . S
C457 C458 1.362 . S
C458 H450 0.930 . S
C458 C457 1.362 . S
C458 C461 1.409 . S
C459 H451 0.930 . S
C459 C460 1.355 . S
C459 C461 1.415 . S
C460 C459 1.355 . S
C460 C462 1.419 . S
C461 C456 1.425 . S
C461 C458 1.409 . S
C461 C459 1.415 . S
C462 H452 0.930 . S
C462 C460 1.419 . S
C462 C463 1.362 . S
C463 H453 0.930 . S
C463 C456 1.409 . S
C463 C462 1.362 . S
H464 C470 0.930 . S
H465 C473 0.930 . S
H466 C474 0.930 . S
H467 C475 0.930 . S
H468 C478 0.930 . S
H469 C479 0.930 . S
C470 H464 0.930 . S
C470 C471 1.355 . S
C470 C472 1.415 . S
C471 C470 1.355 . S
C471 C473 1.419 . S
C472 C470 1.415 . S
C472 C477 1.425 . S
C472 C479 1.409 . S
C473 H465 0.930 . S
C473 C471 1.419 . S
C473 C474 1.362 . S
C474 H466 0.930 . S
C474 C473 1.362 . S
C474 C477 1.409 . S
C475 H467 0.930 . S
C475 C476 1.355 . S
C475 C477 1.415 . S
C476 C475 1.355 . S
C476 C478 1.419 . S
C477 C472 1.425 . S
C477 C474 1.409 . S
C477 C475 1.415 . S
C478 H468 0.930 . S
C478 C476 1.419 . S
C478 C479 1.362 . S
C479 H469 0.930 . S
C479 C472 1.409 . S
C479 C478 1.362 . S
H480 C486 0.930 . S
H481 C489 0.930 . S
H482 C490 0.930 . S
H483 C491 0.930 . S
H484 C494 0.930 . S
H485 C495 0.930 . S
C486 H480 0.930 . S
C486 C487 1.355 . S
C486 C488 1.415 . S
C487 C486 1.355 . S
C487 C489 1.419 . S
C488 C486 1.415 . S
C488 C493 1.425 . S
C488 C495 1.409 . S
C489 H481 0.930 . S
C489 C487 1.419 . S
C489 C490 1.362 . S
C490 H482 0.930 . S
C490 C489 1.362 . S
C490 C493 1.409 . S
C491 H483 0.930 . S
C491 C492 1.355 . S
C491 C493 1.415 . S
C492 C491 1.355 . S
C492 C494 1.419 . S
C493 C488 1.425 . S
C493 C490 1.409 . S
C493 C491 1.415 . S
C494 H484 0.930 . S
C494 C492 1.419 . S
C494 C495 1.362 . S
C495 H485 0.930 . S
C495 C488 1.409 . S
C495 C494 1.362 . S
H496 C502 0.930 . S
H497 C505 0.930 . S
H498 C506 0.930 . S
H499 C507 0.930 . S
H500 C510 0.930 . S
H501 C511 0.930 . S
C502 H496 0.930 . S
C502 C503 1.355 . S
C502 C504 1.415 . S
C503 C502 1.355 . S
C503 C505 1.419 . S
C504 C502 1.415 . S
C504 C509 1.425 . S
C504 C511 1.409 . S
C505 H497 0.930 . S
C505 C503 1.419 . S
C505 C506 1.362 . S
C506 H498 0.930 . S
C506 C505 1.362 . S
C506 C509 1.409 . S
C507 H499 0.930 . S
C507 C508 1.355 . S
C507 C509 1.415 . S
C508 C507 1.355 . S
C508 C510 1.419 . S
C509 C504 1.425 . S
C509 C506 1.409 . S
C509 C507 1.415 . S
C510 H500 0.930 . S
C510 C508 1.419 . S
C510 C511 1.362 . S
C511 H501 0.930 . S
C511 C504 1.409 . S
C511 C510 1.362 . S
H512 C518 0.930 . S
H513 C521 0.930 . S
H514 C522 0.930 . S
H515 C523 0.930 . S
H516 C526 0.930 . S
H517 C527 0.930 . S
C518 H512 0.930 . S
C518 C519 1.355 . S
C518 C520 1.415 . S
C519 C518 1.355 . S
C519 C521 1.419 . S
C520 C518 1.415 . S
C520 C525 1.425 . S
C520 C527 1.409 . S
C521 H513 0.930 . S
C521 C519 1.419 . S
C521 C522 1.362 . S
C522 H514 0.930 . S
C522 C521 1.362 . S
C522 C525 1.409 . S
C523 H515 0.930 . S
C523 C524 1.355 . S
C523 C525 1.415 . S
C524 C523 1.355 . S
C524 C526 1.419 . S
C525 C520 1.425 . S
C525 C522 1.409 . S
C525 C523 1.415 . S
C526 H516 0.930 . S
C526 C524 1.419 . S
C526 C527 1.362 . S
C527 H517 0.930 . S
C527 C520 1.409 . S
C527 C526 1.362 . S
H528 C534 0.930 . S
H529 C537 0.930 . S
H530 C538 0.930 . S
H531 C539 0.930 . S
H532 C542 0.930 . S
H533 C543 0.930 . S
C534 H528 0.930 . S
C534 C535 1.355 . S
C534 C536 1.415 . S
C535 C534 1.355 . S
C535 C537 1.419 . S
C536 C534 1.415 . S
C536 C541 1.425 . S
C536 C543 1.409 . S
C537 H529 0.930 . S
C537 C535 1.419 . S
C537 C538 1.362 . S
C538 H530 0.930 . S
C538 C537 1.362 . S
C538 C541 1.409 . S
C539 H531 0.930 . S
C539 C540 1.355 . S
C539 C541 1.415 . S
C540 C539 1.355 . S
C540 C542 1.419 . S
C541 C536 1.425 . S
C541 C538 1.409 . S
C541 C539 1.415 . S
C542 H532 0.930 . S
C542 C540 1.419 . S
C542 C543 1.362 . S
C543 H533 0.930 . S
C543 C536 1.409 . S
C543 C542 1.362 . S
H544 C550 0.930 . S
H545 C553 0.930 . S
H546 C554 0.930 . S
H547 C555 0.930 . S
H548 C558 0.930 . S
H549 C559 0.930 . S
C550 H544 0.930 . S
C550 C551 1.355 . S
C550 C552 1.415 . S
C551 C550 1.355 . S
C551 C553 1.419 . S
C552 C550 1.415 . S
C552 C557 1.425 . S
C552 C559 1.409 . S
C553 H545 0.930 . S
C553 C551 1.419 . S
C553 C554 1.362 . S
C554 H546 0.930 . S
C554 C553 1.362 . S
C554 C557 1.409 . S
C555 H547 0.930 . S
C555 C556 1.355 . S
C555 C557 1.415 . S
C556 C555 1.355 . S
C556 C558 1.419 . S
C557 C552 1.425 . S
C557 C554 1.409 . S
C557 C555 1.415 . S
C558 H548 0.930 . S
C558 C556 1.419 . S
C558 C559 1.362 . S
C559 H549 0.930 . S
C559 C552 1.409 . S
C559 C558 1.362 . S
H560 C566 0.930 . S
H561 C569 0.930 . S
H562 C570 0.930 . S
H563 C571 0.930 . S
H564 C574 0.930 . S
H565 C575 0.930 . S
C566 H560 0.930 . S
C566 C567 1.355 . S
C566 C568 1.415 . S
C567 C566 1.355 . S
C567 C569 1.419 . S
C568 C566 1.415 . S
C568 C573 1.425 . S
C568 C575 1.409 . S
C569 H561 0.930 . S
C569 C567 1.419 . S
C569 C570 1.362 . S
C570 H562 0.930 . S
C570 C569 1.362 . S
C570 C573 1.409 . S
C571 H563 0.930 . S
C571 C572 1.355 . S
C571 C573 1.415 . S
C572 C571 1.355 . S
C572 C574 1.419 . S
C573 C568 1.425 . S
C573 C570 1.409 . S
C573 C571 1.415 . S
C574 H564 0.930 . S
C574 C572 1.419 . S
C574 C575 1.362 . S
C575 H565 0.930 . S
C575 C568 1.409 . S
C575 C574 1.362 . S
H576 C582 0.930 . S
H577 C585 0.930 . S
H578 C586 0.930 . S
H579 C587 0.930 . S
H580 C590 0.930 . S
H581 C591 0.930 . S
C582 H576 0.930 . S
C582 C583 1.355 . S
C582 C584 1.415 . S
C583 C582 1.355 . S
C583 C585 1.419 . S
C584 C582 1.415 . S
C584 C589 1.425 . S
C584 C591 1.409 . S
C585 H577 0.930 . S
C585 C583 1.419 . S
C585 C586 1.362 . S
C586 H578 0.930 . S
C586 C585 1.362 . S
C586 C589 1.409 . S
C587 H579 0.930 . S
C587 C588 1.355 . S
C587 C589 1.415 . S
C588 C587 1.355 . S
C588 C590 1.419 . S
C589 C584 1.425 . S
C589 C586 1.409 . S
C589 C587 1.415 . S
C590 H580 0.930 . S
C590 C588 1.419 . S
C590 C591 1.362 . S
C591 H581 0.930 . S
C591 C584 1.409 . S
C591 C590 1.362 . S
H592 C598 0.930 . S
H593 C601 0.930 . S
H594 C602 0.930 . S
H595 C603 0.930 . S
H596 C606 0.930 . S
H597 C607 0.930 . S
C598 H592 0.930 . S
C598 C599 1.355 . S
C598 C600 1.415 . S
C599 C598 1.355 . S
C599 C601 1.419 . S
C600 C598 1.415 . S
C600 C605 1.425 . S
C600 C607 1.409 . S
C601 H593 0.930 . S
C601 C599 1.419 . S
C601 C602 1.362 . S
C602 H594 0.930 . S
C602 C601 1.362 . S
C602 C605 1.409 . S
C603 H595 0.930 . S
C603 C604 1.355 . S
C603 C605 1.415 . S
C604 C603 1.355 . S
C604 C606 1.419 . S
C605 C600 1.425 . S
C605 C602 1.409 . S
C605 C603 1.415 . S
C606 H596 0.930 . S
C606 C604 1.419 . S
C606 C607 1.362 . S
C607 H597 0.930 . S
C607 C600 1.409 . S
C607 C606 1.362 . S
H608 C614 0.930 . S
H609 C617 0.930 . S
H610 C618 0.930 . S
H611 C619 0.930 . S
H612 C622 0.930 . S
H613 C623 0.930 . S
C614 H608 0.930 . S
C614 C615 1.355 . S
C614 C616 1.441 . S
C615 C614 1.355 . S
C615 C617 1.419 . S
C616 C614 1.441 . S
C616 C621 1.424 1_545 S
C616 C623 1.384 1_545 S
C617 H609 0.930 . S
C617 C615 1.419 . S
C617 C618 1.362 . S
C618 H610 0.930 . S
C618 C617 1.362 . S
C618 C621 1.384 1_545 S
C619 H611 0.930 . S
C619 C620 1.355 . S
C619 C621 1.441 . S
C620 C619 1.355 . S
C620 C622 1.419 . S
C621 C616 1.424 1_565 S
C621 C618 1.384 1_565 S
C621 C619 1.441 . S
C622 H612 0.930 . S
C622 C620 1.419 . S
C622 C623 1.362 . S
C623 H613 0.930 . S
C623 C616 1.384 1_565 S
C623 C622 1.362 . S
H624 C630 0.930 . S
H625 C633 0.930 . S
H626 C634 0.930 . S
H627 C635 0.930 . S
H628 C638 0.930 . S
H629 C639 0.930 . S
C630 H624 0.930 . S
C630 C631 1.355 . S
C630 C632 1.421 . S
C631 C630 1.355 . S
C631 C633 1.419 . S
C632 C630 1.421 . S
C632 C637 1.425 1_655 S
C632 C639 1.403 1_655 S
C633 H625 0.930 . S
C633 C631 1.419 . S
C633 C634 1.362 . S
C634 H626 0.930 . S
C634 C633 1.362 . S
C634 C637 1.403 1_655 S
C635 H627 0.930 . S
C635 C636 1.355 . S
C635 C637 1.421 . S
C636 C635 1.355 . S
C636 C638 1.419 . S
C637 C632 1.425 1_455 S
C637 C634 1.403 1_455 S
C637 C635 1.421 . S
C638 H628 0.930 . S
C638 C636 1.419 . S
C638 C639 1.362 . S
C639 H629 0.930 . S
C639 C632 1.403 1_455 S
C639 C638 1.362 . S
H640 C646 0.930 . S
H641 C649 0.930 . S
H642 C650 0.930 . S
H643 C651 0.930 . S
H644 C654 0.930 . S
H645 C655 0.930 . S
C646 H640 0.930 . S
C646 C647 1.355 . S
C646 C648 1.401 1_545 S
C647 C646 1.355 . S
C647 C649 1.419 . S
C648 C646 1.401 1_565 S
C648 C653 1.425 1_565 S
C648 C655 1.424 . S
C649 H641 0.930 . S
C649 C647 1.419 . S
C649 C650 1.362 . S
C650 H642 0.930 . S
C650 C649 1.362 . S
C650 C653 1.424 . S
C651 H643 0.930 . S
C651 C652 1.355 . S
C651 C653 1.401 1_565 S
C652 C651 1.355 . S
C652 C654 1.419 . S
C653 C648 1.425 1_545 S
C653 C650 1.424 . S
C653 C651 1.401 1_545 S
C654 H644 0.930 . S
C654 C652 1.419 . S
C654 C655 1.362 . S
C655 H645 0.930 . S
C655 C648 1.424 . S
C655 C654 1.362 . S
H656 C662 0.930 . S
H657 C665 0.930 . S
H658 C666 0.930 . S
H659 C667 0.930 . S
H660 C670 0.930 . S
H661 C671 0.930 . S
C662 H656 0.930 . S
C662 C663 1.355 . S
C662 C664 1.393 1_455 S
C663 C662 1.355 . S
C663 C665 1.419 . S
C664 C662 1.393 1_655 S
C664 C669 1.424 1_655 S
C664 C671 1.431 . S
C665 H657 0.930 . S
C665 C663 1.419 . S
C665 C666 1.362 . S
C666 H658 0.930 . S
C666 C665 1.362 . S
C666 C669 1.431 . S
C667 H659 0.930 . S
C667 C668 1.355 . S
C667 C669 1.393 1_655 S
C668 C667 1.355 . S
C668 C670 1.419 . S
C669 C664 1.424 1_455 S
C669 C666 1.431 . S
C669 C667 1.393 1_455 S
C670 H660 0.930 . S
C670 C668 1.419 . S
C670 C671 1.362 . S
C671 H661 0.930 . S
C671 C664 1.431 . S
C671 C670 1.362 . S
H672 C678 0.930 . S
H673 C681 0.930 . S
H674 C682 0.930 . S
H675 C683 0.930 . S
H676 C686 0.930 . S
H677 C687 0.930 . S
C678 H672 0.930 . S
C678 C679 1.355 . S
C678 C680 1.415 . S
C679 C678 1.355 . S
C679 C681 1.419 . S
C680 C678 1.415 . S
C680 C685 1.425 1_545 S
C680 C687 1.409 1_545 S
C681 H673 0.930 . S
C681 C679 1.419 . S
C681 C682 1.362 . S
C682 H674 0.930 . S
C682 C681 1.362 . S
C682 C685 1.409 1_545 S
C683 H675 0.930 . S
C683 C684 1.355 . S
C683 C685 1.415 . S
C684 C683 1.355 . S
C684 C686 1.419 . S
C685 C680 1.425 1_565 S
C685 C682 1.409 1_565 S
C685 C683 1.415 . S
C686 H676 0.930 . S
C686 C684 1.419 . S
C686 C687 1.362 . S
C687 H677 0.930 . S
C687 C680 1.409 1_565 S
C687 C686 1.362 . S
H688 C694 0.930 . S
H689 C697 0.930 . S
H690 C698 0.930 1_455 S
H691 C699 0.930 . S
H692 C702 0.930 . S
H693 C703 0.930 1_655 S
C694 H688 0.930 . S
C694 C695 1.355 . S
C694 C696 1.415 . S
C695 C694 1.355 . S
C695 C697 1.419 . S
C696 C694 1.415 . S
C696 C701 1.425 1_655 S
C696 C703 1.409 1_655 S
C697 H689 0.930 . S
C697 C695 1.419 . S
C697 C698 1.362 . S
C698 H690 0.930 1_655 S
C698 C697 1.362 . S
C698 C701 1.409 1_655 S
C699 H691 0.930 . S
C699 C700 1.355 . S
C699 C701 1.415 . S
C700 C699 1.355 . S
C700 C702 1.419 . S
C701 C696 1.425 1_455 S
C701 C698 1.409 1_455 S
C701 C699 1.415 . S
C702 H692 0.930 . S
C702 C700 1.419 . S
C702 C703 1.362 . S
C703 H693 0.930 1_455 S
C703 C696 1.409 1_455 S
C703 C702 1.362 . S
H704 C710 0.930 . S
H705 C713 0.930 . S
H706 C714 0.930 1_545 S
H707 C715 0.930 . S
H708 C718 0.930 . S
H709 C719 0.930 1_565 S
C710 H704 0.930 . S
C710 C711 1.355 . S
C710 C712 1.415 . S
C711 C710 1.355 . S
C711 C713 1.419 . S
C712 C710 1.415 . S
C712 C717 1.425 1_565 S
C712 C719 1.409 1_565 S
C713 H705 0.930 . S
C713 C711 1.419 . S
C713 C714 1.362 . S
C714 H706 0.930 1_565 S
C714 C713 1.362 . S
C714 C717 1.409 1_565 S
C715 H707 0.930 . S
C715 C716 1.355 . S
C715 C717 1.415 . S
C716 C715 1.355 . S
C716 C718 1.419 . S
C717 C712 1.425 1_545 S
C717 C714 1.409 1_545 S
C717 C715 1.415 . S
C718 H708 0.930 . S
C718 C716 1.419 . S
C718 C719 1.362 . S
C719 H709 0.930 1_545 S
C719 C712 1.409 1_545 S
C719 C718 1.362 . S
H720 C726 0.930 . S
H721 C729 0.930 . S
H722 C730 0.930 . S
H723 C731 0.930 . S
H724 C734 0.930 . S
H725 C735 0.930 . S
C726 H720 0.930 . S
C726 C727 1.355 . S
C726 C728 1.415 . S
C727 C726 1.355 . S
C727 C729 1.419 . S
C728 C726 1.415 . S
C728 C733 1.425 1_455 S
C728 C735 1.409 1_455 S
C729 H721 0.930 . S
C729 C727 1.419 . S
C729 C730 1.362 . S
C730 H722 0.930 . S
C730 C729 1.362 . S
C730 C733 1.409 1_455 S
C731 H723 0.930 . S
C731 C732 1.355 . S
C731 C733 1.415 . S
C732 C731 1.355 . S
C732 C734 1.419 . S
C733 C728 1.425 1_655 S
C733 C730 1.409 1_655 S
C733 C731 1.415 . S
C734 H724 0.930 . S
C734 C732 1.419 . S
C734 C735 1.362 . S
C735 H725 0.930 . S
C735 C728 1.409 1_655 S
C735 C734 1.362 . S
C231 C78 1.456 . S
C236 C8 1.444 . S
C247 C92 1.420 . S
C252 C22 1.435 . S
C263 C36 1.455 . S
C268 C106 1.437 . S
C279 C50 1.444 . S
C284 C64 1.456 . S
C295 C190 1.441 . S
C300 C120 1.421 . S
C311 C204 1.445 . S
C316 C134 1.423 . S
C327 C148 1.422 . S
C332 C218 1.427 . S
C343 C162 1.436 . S
C348 C176 1.420 . S
C359 C147 1.495 . S
C364 C7 1.492 . S
C375 C161 1.495 . S
C380 C21 1.492 . S
C391 C119 1.501 . S
C396 C35 1.453 . S
C407 C49 1.514 . S
C412 C133 1.449 . S
C423 C203 1.490 . S
C428 C63 1.497 . S
C439 C217 1.451 . S
C444 C77 1.517 . S
C455 C91 1.482 . S
C460 C175 1.467 . S
C471 C189 1.501 . S
C476 C105 1.485 . S
C487 C65 1.809 . S
C492 C9 1.834 . S
C503 C23 1.833 . S
C508 C79 1.810 . S
C519 C37 1.829 . S
C524 C93 1.814 . S
C535 C107 1.826 . S
C540 C51 1.816 . S
C551 C115 1.056 . S
C556 C171 1.050 . S
C567 C185 1.039 . S
C572 C129 1.026 . S
C583 C143 1.062 . S
C588 C199 1.024 . S
C599 C213 1.043 . S
C604 C157 1.024 . S
C615 C163 1.836 . S
C620 C191 1.808 . S
C631 C121 1.835 . S
C636 C205 1.809 . S
C647 C219 1.831 . S
C652 C135 1.812 . S
C663 C149 1.823 . S
C668 C177 1.819 . S
C679 C73 1.057 . S
C684 C45 1.049 . S
C695 C87 1.051 . S
C700 C3 1.021 . S
C711 C101 1.054 . S
C716 C17 1.020 . S
C727 C59 1.021 . S
C732 C31 1.050 . S
