# Generated by pormake.
# Topology ukd, (4)-cn, num edge types: 1
# Building blocks:
#     Node 0, Type 0, BuildingBlock: NAHDIM_clean_sbu_0, # of connection points: 4
#     Node 1, Type 0, BuildingBlock: NAHDIM_clean_sbu_0, # of connection points: 4
#     Node 2, Type 0, BuildingBlock: NAHDIM_clean_sbu_0, # of connection points: 4
#     Node 3, Type 0, BuildingBlock: NAHDIM_clean_sbu_0, # of connection points: 4
#     Node 4, Type 0, BuildingBlock: NAHDIM_clean_sbu_0, # of connection points: 4
#     Node 5, Type 0, BuildingBlock: NAHDIM_clean_sbu_0, # of connection points: 4
#     Node 6, Type 0, BuildingBlock: NAHDIM_clean_sbu_0, # of connection points: 4
#     Node 7, Type 0, BuildingBlock: NAHDIM_clean_sbu_0, # of connection points: 4
#     Node 8, Type 0, BuildingBlock: NAHDIM_clean_sbu_0, # of connection points: 4
#     Node 9, Type 0, BuildingBlock: NAHDIM_clean_sbu_0, # of connection points: 4
#     Node 10, Type 0, BuildingBlock: NAHDIM_clean_sbu_0, # of connection points: 4
#     Node 11, Type 0, BuildingBlock: NAHDIM_clean_sbu_0, # of connection points: 4
#     Node 12, Type 0, BuildingBlock: NAHDIM_clean_sbu_0, # of connection points: 4
#     Node 13, Type 0, BuildingBlock: NAHDIM_clean_sbu_0, # of connection points: 4
#     Node 14, Type 0, BuildingBlock: NAHDIM_clean_sbu_0, # of connection points: 4
#     Node 15, Type 0, BuildingBlock: NAHDIM_clean_sbu_0, # of connection points: 4
#     Node 16, Type 0, BuildingBlock: NAHDIM_clean_sbu_0, # of connection points: 4
#     Node 17, Type 0, BuildingBlock: NAHDIM_clean_sbu_0, # of connection points: 4
#     Node 18, Type 0, BuildingBlock: NAHDIM_clean_sbu_0, # of connection points: 4
#     Node 19, Type 0, BuildingBlock: NAHDIM_clean_sbu_0, # of connection points: 4
#     Node 20, Type 0, BuildingBlock: NAHDIM_clean_sbu_0, # of connection points: 4
#     Node 21, Type 0, BuildingBlock: NAHDIM_clean_sbu_0, # of connection points: 4
#     Node 22, Type 0, BuildingBlock: NAHDIM_clean_sbu_0, # of connection points: 4
#     Node 23, Type 0, BuildingBlock: NAHDIM_clean_sbu_0, # of connection points: 4
#     Node 24, Type 0, BuildingBlock: NAHDIM_clean_sbu_0, # of connection points: 4
#     Node 25, Type 0, BuildingBlock: NAHDIM_clean_sbu_0, # of connection points: 4
#     Node 26, Type 0, BuildingBlock: NAHDIM_clean_sbu_0, # of connection points: 4
#     Node 27, Type 0, BuildingBlock: NAHDIM_clean_sbu_0, # of connection points: 4
#     Node 28, Type 0, BuildingBlock: NAHDIM_clean_sbu_0, # of connection points: 4
#     Node 29, Type 0, BuildingBlock: NAHDIM_clean_sbu_0, # of connection points: 4
#     Node 30, Type 0, BuildingBlock: NAHDIM_clean_sbu_0, # of connection points: 4
#     Node 31, Type 0, BuildingBlock: NAHDIM_clean_sbu_0, # of connection points: 4
#     Edge 32, Type (0, 0), BuildingBlock: TEMPAE_clean_linker_10, # of connection points: 2
#     Edge 33, Type (0, 0), BuildingBlock: TEMPAE_clean_linker_10, # of connection points: 2
#     Edge 34, Type (0, 0), BuildingBlock: TEMPAE_clean_linker_10, # of connection points: 2
#     Edge 35, Type (0, 0), BuildingBlock: TEMPAE_clean_linker_10, # of connection points: 2
#     Edge 36, Type (0, 0), BuildingBlock: TEMPAE_clean_linker_10, # of connection points: 2
#     Edge 37, Type (0, 0), BuildingBlock: TEMPAE_clean_linker_10, # of connection points: 2
#     Edge 38, Type (0, 0), BuildingBlock: TEMPAE_clean_linker_10, # of connection points: 2
#     Edge 39, Type (0, 0), BuildingBlock: TEMPAE_clean_linker_10, # of connection points: 2
#     Edge 40, Type (0, 0), BuildingBlock: TEMPAE_clean_linker_10, # of connection points: 2
#     Edge 41, Type (0, 0), BuildingBlock: TEMPAE_clean_linker_10, # of connection points: 2
#     Edge 42, Type (0, 0), BuildingBlock: TEMPAE_clean_linker_10, # of connection points: 2
#     Edge 43, Type (0, 0), BuildingBlock: TEMPAE_clean_linker_10, # of connection points: 2
#     Edge 44, Type (0, 0), BuildingBlock: TEMPAE_clean_linker_10, # of connection points: 2
#     Edge 45, Type (0, 0), BuildingBlock: TEMPAE_clean_linker_10, # of connection points: 2
#     Edge 46, Type (0, 0), BuildingBlock: TEMPAE_clean_linker_10, # of connection points: 2
#     Edge 47, Type (0, 0), BuildingBlock: TEMPAE_clean_linker_10, # of connection points: 2
#     Edge 48, Type (0, 0), BuildingBlock: TEMPAE_clean_linker_10, # of connection points: 2
#     Edge 49, Type (0, 0), BuildingBlock: TEMPAE_clean_linker_10, # of connection points: 2
#     Edge 50, Type (0, 0), BuildingBlock: TEMPAE_clean_linker_10, # of connection points: 2
#     Edge 51, Type (0, 0), BuildingBlock: TEMPAE_clean_linker_10, # of connection points: 2
#     Edge 52, Type (0, 0), BuildingBlock: TEMPAE_clean_linker_10, # of connection points: 2
#     Edge 53, Type (0, 0), BuildingBlock: TEMPAE_clean_linker_10, # of connection points: 2
#     Edge 54, Type (0, 0), BuildingBlock: TEMPAE_clean_linker_10, # of connection points: 2
#     Edge 55, Type (0, 0), BuildingBlock: TEMPAE_clean_linker_10, # of connection points: 2
#     Edge 56, Type (0, 0), BuildingBlock: TEMPAE_clean_linker_10, # of connection points: 2
#     Edge 57, Type (0, 0), BuildingBlock: TEMPAE_clean_linker_10, # of connection points: 2
#     Edge 58, Type (0, 0), BuildingBlock: TEMPAE_clean_linker_10, # of connection points: 2
#     Edge 59, Type (0, 0), BuildingBlock: TEMPAE_clean_linker_10, # of connection points: 2
#     Edge 60, Type (0, 0), BuildingBlock: TEMPAE_clean_linker_10, # of connection points: 2
#     Edge 61, Type (0, 0), BuildingBlock: TEMPAE_clean_linker_10, # of connection points: 2
#     Edge 62, Type (0, 0), BuildingBlock: TEMPAE_clean_linker_10, # of connection points: 2
#     Edge 63, Type (0, 0), BuildingBlock: TEMPAE_clean_linker_10, # of connection points: 2
#     Edge 64, Type (0, 0), BuildingBlock: TEMPAE_clean_linker_10, # of connection points: 2
#     Edge 65, Type (0, 0), BuildingBlock: TEMPAE_clean_linker_10, # of connection points: 2
#     Edge 66, Type (0, 0), BuildingBlock: TEMPAE_clean_linker_10, # of connection points: 2
#     Edge 67, Type (0, 0), BuildingBlock: TEMPAE_clean_linker_10, # of connection points: 2
#     Edge 68, Type (0, 0), BuildingBlock: TEMPAE_clean_linker_10, # of connection points: 2
#     Edge 69, Type (0, 0), BuildingBlock: TEMPAE_clean_linker_10, # of connection points: 2
#     Edge 70, Type (0, 0), BuildingBlock: TEMPAE_clean_linker_10, # of connection points: 2
#     Edge 71, Type (0, 0), BuildingBlock: TEMPAE_clean_linker_10, # of connection points: 2
#     Edge 72, Type (0, 0), BuildingBlock: TEMPAE_clean_linker_10, # of connection points: 2
#     Edge 73, Type (0, 0), BuildingBlock: TEMPAE_clean_linker_10, # of connection points: 2
#     Edge 74, Type (0, 0), BuildingBlock: TEMPAE_clean_linker_10, # of connection points: 2
#     Edge 75, Type (0, 0), BuildingBlock: TEMPAE_clean_linker_10, # of connection points: 2
#     Edge 76, Type (0, 0), BuildingBlock: TEMPAE_clean_linker_10, # of connection points: 2
#     Edge 77, Type (0, 0), BuildingBlock: TEMPAE_clean_linker_10, # of connection points: 2
#     Edge 78, Type (0, 0), BuildingBlock: TEMPAE_clean_linker_10, # of connection points: 2
#     Edge 79, Type (0, 0), BuildingBlock: TEMPAE_clean_linker_10, # of connection points: 2
#     Edge 80, Type (0, 0), BuildingBlock: TEMPAE_clean_linker_10, # of connection points: 2
#     Edge 81, Type (0, 0), BuildingBlock: TEMPAE_clean_linker_10, # of connection points: 2
#     Edge 82, Type (0, 0), BuildingBlock: TEMPAE_clean_linker_10, # of connection points: 2
#     Edge 83, Type (0, 0), BuildingBlock: TEMPAE_clean_linker_10, # of connection points: 2
#     Edge 84, Type (0, 0), BuildingBlock: TEMPAE_clean_linker_10, # of connection points: 2
#     Edge 85, Type (0, 0), BuildingBlock: TEMPAE_clean_linker_10, # of connection points: 2
#     Edge 86, Type (0, 0), BuildingBlock: TEMPAE_clean_linker_10, # of connection points: 2
#     Edge 87, Type (0, 0), BuildingBlock: TEMPAE_clean_linker_10, # of connection points: 2
#     Edge 88, Type (0, 0), BuildingBlock: TEMPAE_clean_linker_10, # of connection points: 2
#     Edge 89, Type (0, 0), BuildingBlock: TEMPAE_clean_linker_10, # of connection points: 2
#     Edge 90, Type (0, 0), BuildingBlock: TEMPAE_clean_linker_10, # of connection points: 2
#     Edge 91, Type (0, 0), BuildingBlock: TEMPAE_clean_linker_10, # of connection points: 2
#     Edge 92, Type (0, 0), BuildingBlock: TEMPAE_clean_linker_10, # of connection points: 2
#     Edge 93, Type (0, 0), BuildingBlock: TEMPAE_clean_linker_10, # of connection points: 2
#     Edge 94, Type (0, 0), BuildingBlock: TEMPAE_clean_linker_10, # of connection points: 2
#     Edge 95, Type (0, 0), BuildingBlock: TEMPAE_clean_linker_10, # of connection points: 2
# Relax obj value: 0.150
# Max RMSD: 0.183
# Mean RMSD: 0.183
data_MOF--net-ukd--node1-NAHDIM_clean_sbu_0--edge1-TEMPAE_clean_linker_10
_symmetry_space_group_name_H-M    P1
_symmetry_Int_Tables_number       1
_symmetry_cell_setting            triclinic
loop_
_symmetry_equiv_pos_as_xyz
'x, y, z'
_cell_length_a     43.717678
_cell_length_b     43.726877
_cell_length_c     74.763461
_cell_angle_alpha  89.994553
_cell_angle_beta   89.991331
_cell_angle_gamma 90.020539
loop_
_atom_site_label
_atom_site_type_symbol
_atom_site_fract_x
_atom_site_fract_y
_atom_site_fract_z
_atom_type_partial_charge
C0 C 0.27884 0.16944 0.35446 0.0
O1 O 0.26342 0.16059 0.34029 0.0
O2 O 0.23825 0.22001 0.32742 0.0
Zn3 Zn 0.2302 0.20876 0.35291 0.0
O4 O 0.19881 0.17518 0.35388 0.0
C5 C 0.22336 0.27238 0.36258 0.0
O6 O 0.24751 0.27588 0.35232 0.0
O7 O 0.26912 0.19229 0.3633 0.0
C8 C 0.18562 0.17003 0.36872 0.0
O9 O 0.19263 0.18707 0.38261 0.0
C10 C 0.21879 0.23465 0.31818 0.0
O11 O 0.19245 0.24213 0.32543 0.0
O12 O 0.21343 0.24557 0.36561 0.0
C13 C 0.04895 0.04245 0.62405 0.0
O14 O 0.0532 0.01838 0.63427 0.0
O15 O 0.01073 0.99898 0.57565 0.0
Zn16 Zn 0.02248 0.99719 0.60151 0.0
O17 O 0.05916 0.96945 0.6042 0.0
C18 C 0.95978 0.98902 0.61349 0.0
O19 O 0.95384 0.0109 0.60196 0.0
O20 O 0.03466 0.03922 0.60939 0.0
C21 C 0.0573 0.94358 0.61187 0.0
O22 O 0.03071 0.93439 0.61805 0.0
C23 C 0.0315 0.00241 0.56394 0.0
O24 O 0.06015 0.00448 0.56913 0.0
O25 O 0.98731 0.98065 0.61582 0.0
C26 C 0.21863 0.81774 0.85237 0.0
O27 O 0.23581 0.82971 0.83976 0.0
O28 O 0.26242 0.77043 0.82353 0.0
Zn29 Zn 0.26764 0.77884 0.84981 0.0
O30 O 0.29742 0.81334 0.8534 0.0
C31 C 0.27902 0.71452 0.8574 0.0
O32 O 0.25833 0.70962 0.84499 0.0
O33 O 0.22722 0.79291 0.85966 0.0
C34 C 0.30899 0.81785 0.86875 0.0
O35 O 0.3016 0.79946 0.88196 0.0
C36 C 0.27337 0.78817 0.81168 0.0
O37 O 0.2894 0.81211 0.81666 0.0
O38 O 0.28503 0.74182 0.86202 0.0
C39 C 0.45554 0.93946 0.11134 0.0
O40 O 0.47552 0.93819 0.09823 0.0
O41 O 0.4726 0.9987 0.08158 0.0
Zn42 Zn 0.46389 0.00472 0.1076 0.0
O43 O 0.43035 0.03579 0.11001 0.0
C44 C 0.52822 0.01435 0.11385 0.0
O45 O 0.53105 0.99259 0.10184 0.0
O46 O 0.44895 0.96527 0.11814 0.0
C47 C 0.42646 0.049 0.12496 0.0
O48 O 0.44442 0.04182 0.13841 0.0
C49 C 0.45128 0.99366 0.07044 0.0
O50 O 0.42286 0.9925 0.07612 0.0
O51 O 0.50164 0.02172 0.1192 0.0
C52 C 0.2848 0.79188 0.12745 0.0
O53 O 0.26049 0.79831 0.11782 0.0
O54 O 0.24169 0.75513 0.17621 0.0
Zn55 Zn 0.23946 0.76497 0.14999 0.0
O56 O 0.21189 0.80149 0.14634 0.0
C57 C 0.22123 0.70244 0.14286 0.0
O58 O 0.23573 0.6969 0.15791 0.0
O59 O 0.28159 0.77612 0.14159 0.0
C60 C 0.18363 0.7978 0.14296 0.0
O61 O 0.17248 0.76993 0.14216 0.0
C62 C 0.2178 0.75075 0.18554 0.0
O63 O 0.19084 0.75283 0.1779 0.0
O64 O 0.2216 0.72936 0.13647 0.0
C65 C 0.42989 0.0182 0.40133 0.0
O66 O 0.41995 0.00115 0.41458 0.0
O67 O 0.47992 0.9748 0.42801 0.0
Zn68 Zn 0.46961 0.96958 0.40199 0.0
O69 O 0.43548 0.93908 0.39912 0.0
C70 C 0.515 0.92755 0.39329 0.0
O71 O 0.49946 0.91324 0.40581 0.0
O72 O 0.45363 0.00968 0.39287 0.0
C73 C 0.42979 0.92757 0.38389 0.0
O74 O 0.44696 0.93522 0.37017 0.0
C75 C 0.46436 0.96231 0.44037 0.0
O76 O 0.44131 0.94445 0.43612 0.0
O77 O 0.50667 0.9543 0.38878 0.0
C78 C 0.20348 0.20619 0.64131 0.0
O79 O 0.20224 0.22778 0.65351 0.0
O80 O 0.26177 0.21923 0.67276 0.0
Zn81 Zn 0.26893 0.21094 0.64668 0.0
O82 O 0.29934 0.17677 0.64355 0.0
C83 C 0.28522 0.27447 0.64264 0.0
O84 O 0.2697 0.27716 0.6576 0.0
O85 O 0.22942 0.1972 0.63572 0.0
C86 C 0.31634 0.16617 0.65587 0.0
O87 O 0.31459 0.17779 0.67204 0.0
C88 C 0.24949 0.19982 0.68317 0.0
O89 O 0.24183 0.1728 0.67691 0.0
O90 O 0.28652 0.24853 0.63499 0.0
C91 C 0.06421 0.9627 0.90103 0.0
O92 O 0.07286 0.97759 0.91544 0.0
O93 O 0.01875 0.01151 0.92639 0.0
Zn94 Zn 0.02976 0.01514 0.90057 0.0
O95 O 0.06533 0.044 0.89824 0.0
C96 C 0.98318 0.02904 0.87246 0.0
O97 O 0.99579 0.00823 0.86216 0.0
O98 O 0.0432 0.97416 0.89138 0.0
C99 C 0.0732 0.05269 0.8827 0.0
O100 O 0.05793 0.04246 0.8688 0.0
C101 C 0.01216 0.03552 0.93513 0.0
O102 O 0.01285 0.0621 0.92694 0.0
O103 O 0.99383 0.03375 0.88802 0.0
C104 C 0.72228 0.80381 0.62312 0.0
O105 O 0.74651 0.81245 0.61402 0.0
O106 O 0.76297 0.77434 0.67396 0.0
Zn107 Zn 0.76767 0.78155 0.64761 0.0
O108 O 0.79418 0.81839 0.64288 0.0
C109 C 0.78195 0.71799 0.63999 0.0
O110 O 0.75883 0.71207 0.65068 0.0
O111 O 0.72595 0.78861 0.63741 0.0
C112 C 0.79829 0.84087 0.6534 0.0
O113 O 0.78434 0.84127 0.66895 0.0
C114 C 0.74238 0.78856 0.68261 0.0
O115 O 0.725 0.80839 0.67418 0.0
O116 O 0.78864 0.74561 0.63651 0.0
C117 C 0.95053 0.93406 0.39521 0.0
O118 O 0.96802 0.93256 0.40947 0.0
O119 O 0.97041 0.99466 0.42425 0.0
Zn120 Zn 0.96003 -0.00036 0.39833 0.0
O121 O 0.92519 0.02929 0.39622 0.0
C122 C 0.02355 0.01133 0.38974 0.0
O123 O 0.02867 0.98965 0.40154 0.0
O124 O 0.94586 0.95986 0.38788 0.0
C125 C 0.91985 0.04078 0.38093 0.0
O126 O 0.93712 0.03272 0.36734 0.0
C127 C 0.97624 0.01846 0.43336 0.0
O128 O 0.97499 0.04533 0.42552 0.0
O129 O 0.99615 0.01794 0.38565 0.0
C130 C 0.80369 0.2067 0.13956 0.0
O131 O 0.80296 0.22771 0.15211 0.0
O132 O 0.74311 0.22161 0.16781 0.0
Zn133 Zn 0.73817 0.21214 0.1418 0.0
O134 O 0.70862 0.1771 0.13973 0.0
C135 C 0.69465 0.25696 0.13482 0.0
O136 O 0.68173 0.24081 0.14758 0.0
O137 O 0.77878 0.19828 0.13229 0.0
C138 C 0.69369 0.17219 0.12545 0.0
O139 O 0.69773 0.19043 0.11168 0.0
C140 C 0.7491 0.19987 0.17851 0.0
O141 O 0.75144 0.17192 0.17221 0.0
O142 O 0.72102 0.2491 0.12932 0.0
C143 C 0.56242 0.04602 0.90481 0.0
O144 O 0.57142 0.0327 0.91966 0.0
O145 O 0.51433 0.99829 0.93158 0.0
Zn146 Zn 0.52679 0.99379 0.90598 0.0
O147 O 0.5626 0.96515 0.90442 0.0
C148 C 0.46426 0.98053 0.89602 0.0
O149 O 0.45786 0.0017 0.90792 0.0
O150 O 0.54069 0.03397 0.89599 0.0
C151 C 0.56918 0.9548 0.88902 0.0
O152 O 0.55239 0.96309 0.87528 0.0
C153 C 0.50744 0.97432 0.94029 0.0
O154 O 0.50906 0.94764 0.93225 0.0
O155 O 0.49207 0.97483 0.8924 0.0
C156 C 0.71845 0.17505 0.84339 0.0
O157 O 0.73411 0.16073 0.83094 0.0
O158 O 0.75914 0.2242 0.81147 0.0
Zn159 Zn 0.76707 0.21477 0.83744 0.0
O160 O 0.79765 0.18051 0.83995 0.0
C161 C 0.79886 0.27163 0.84029 0.0
O162 O 0.8001 0.26788 0.82287 0.0
O163 O 0.72791 0.2009 0.84883 0.0
C164 C 0.82559 0.18364 0.83562 0.0
O165 O 0.83492 0.2099 0.82905 0.0
C166 C 0.7699 0.20826 0.79873 0.0
O167 O 0.78582 0.18357 0.80235 0.0
O168 O 0.78461 0.25201 0.84969 0.0
C169 C 0.54798 0.94525 0.60817 0.0
O170 O 0.52688 0.94346 0.5957 0.0
O171 O 0.52815 0.0004 0.57747 0.0
Zn172 Zn 0.54113 0.01001 0.60246 0.0
O173 O 0.57663 0.03898 0.60131 0.0
C174 C 0.48127 0.01874 0.61939 0.0
O175 O 0.47586 0.99024 0.61482 0.0
O176 O 0.55586 0.97139 0.614 0.0
C177 C 0.58438 0.05304 0.61546 0.0
O178 O 0.5689 0.04811 0.63025 0.0
C179 C 0.50978 0.01689 0.56855 0.0
O180 O 0.49837 0.0417 0.57588 0.0
O181 O 0.5071 0.03054 0.61582 0.0
C182 C 0.78147 0.78895 0.36906 0.0
O183 O 0.75633 0.79396 0.37823 0.0
O184 O 0.74208 0.75843 0.31775 0.0
Zn185 Zn 0.73822 0.76492 0.34419 0.0
O186 O 0.70959 0.80003 0.3491 0.0
C187 C 0.69939 0.71345 0.34676 0.0
O188 O 0.69338 0.72251 0.33039 0.0
O189 O 0.77958 0.77521 0.35414 0.0
C190 C 0.68616 0.8052 0.33951 0.0
O191 O 0.6811 0.78805 0.32539 0.0
C192 C 0.75012 0.78004 0.30743 0.0
O193 O 0.75651 0.80695 0.31431 0.0
O194 O 0.71966 0.72763 0.35571 0.0
C195 C 0.95846 0.04204 0.12803 0.0
O196 O 0.95031 0.01656 0.13603 0.0
O197 O 0.99412 0.00923 0.07719 0.0
Zn198 Zn 0.98712 0.00062 0.10313 0.0
O199 O 0.95149 0.97147 0.10508 0.0
C200 C 0.03856 0.96205 0.10341 0.0
O201 O 0.02859 0.9583 0.08698 0.0
O202 O 0.97595 0.04063 0.1145 0.0
C203 C 0.95071 0.95083 0.11703 0.0
O204 O 0.97349 0.94869 0.12842 0.0
C205 C 0.97148 0.01448 0.067 0.0
O206 O 0.94374 0.01437 0.07378 0.0
O207 O 0.02467 0.98073 0.11361 0.0
C208 C 0.79019 0.70124 0.84577 0.0
O209 O 0.77525 0.69549 0.8309 0.0
O210 O 0.73792 0.74824 0.82425 0.0
Zn211 Zn 0.73678 0.73462 0.84987 0.0
O212 O 0.70803 0.69868 0.85228 0.0
C213 C 0.72826 0.79715 0.86169 0.0
O214 O 0.74888 0.80328 0.84941 0.0
O215 O 0.7785 0.71979 0.85695 0.0
C216 C 0.68839 0.69741 0.86479 0.0
O217 O 0.6867 0.72005 0.87629 0.0
C218 C 0.71583 0.74294 0.81367 0.0
O219 O 0.69149 0.72861 0.81967 0.0
O220 O 0.72124 0.76947 0.86477 0.0
C221 C 0.55165 0.55954 0.10408 0.0
O222 O 0.53043 0.56174 0.09171 0.0
O223 O 0.53187 0.50185 0.07412 0.0
Zn224 Zn 0.5406 0.49474 0.10014 0.0
O225 O 0.57229 0.46172 0.10286 0.0
C226 C 0.48478 0.46291 0.10351 0.0
O227 O 0.49119 0.45823 0.08656 0.0
O228 O 0.55808 0.53337 0.11046 0.0
C229 C 0.57357 0.43855 0.09261 0.0
O230 O 0.55415 0.43631 0.07927 0.0
C231 C 0.55311 0.50762 0.06303 0.0
O232 O 0.58152 0.50887 0.06872 0.0
O233 O 0.50246 0.47989 0.11267 0.0
C234 C 0.70452 0.30251 0.34308 0.0
O235 O 0.7182 0.31 0.32805 0.0
O236 O 0.75252 0.25419 0.31853 0.0
Zn237 Zn 0.75728 0.26761 0.34392 0.0
O238 O 0.78693 0.30269 0.34479 0.0
C239 C 0.76637 0.20542 0.35552 0.0
O240 O 0.74367 0.19992 0.34446 0.0
O241 O 0.71691 0.28255 0.35308 0.0
C242 C 0.79859 0.30991 0.35976 0.0
O243 O 0.79083 0.29424 0.37406 0.0
C244 C 0.77605 0.24814 0.30924 0.0
O245 O 0.80324 0.25067 0.31657 0.0
O246 O 0.7748 0.23287 0.35807 0.0
C247 C 0.93778 0.47173 0.6018 0.0
O248 O 0.91854 0.4921 0.59548 0.0
O249 O 0.98523 0.51253 0.56444 0.0
Zn250 Zn 0.97817 0.51822 0.59083 0.0
O251 O 0.9442 0.54843 0.59501 0.0
C252 C 0.02725 0.55894 0.59382 0.0
O253 O 0.01463 0.56762 0.57871 0.0
O254 O 0.96627 0.4775 0.60148 0.0
C255 C 0.94017 0.55891 0.61068 0.0
O256 O 0.95857 0.55007 0.62357 0.0
C257 C 0.97324 0.5299 0.55275 0.0
O258 O 0.95518 0.55222 0.55792 0.0
O259 O 0.01599 0.53616 0.60208 0.0
C260 C 0.8166 0.28982 0.63404 0.0
O261 O 0.81627 0.27445 0.64913 0.0
O262 O 0.75155 0.26807 0.65987 0.0
Zn263 Zn 0.7504 0.28026 0.63409 0.0
O264 O 0.72171 0.31619 0.63204 0.0
C265 C 0.74252 0.21754 0.62406 0.0
O266 O 0.7654 0.21371 0.63523 0.0
O267 O 0.79188 0.29339 0.62534 0.0
C268 C 0.69528 0.31366 0.62513 0.0
O269 O 0.68644 0.28698 0.61892 0.0
C270 C 0.7594 0.28628 0.67227 0.0
O271 O 0.76803 0.31422 0.66822 0.0
O272 O 0.73366 0.24451 0.62049 0.0
C273 C 0.92816 0.53579 0.88839 0.0
O274 O 0.91422 0.51693 0.89938 0.0
O275 O 0.97765 0.49374 0.91904 0.0
Zn276 Zn 0.96976 0.48879 0.89269 0.0
O277 O 0.93691 0.45739 0.88856 0.0
C278 C 0.0346 0.47902 0.88561 0.0
O279 O 0.03884 0.49903 0.89849 0.0
O280 O 0.9548 0.52896 0.88289 0.0
C281 C 0.94275 0.42906 0.89011 0.0
O282 O 0.9704 0.42054 0.89487 0.0
C283 C 0.95844 0.4852 0.93079 0.0
O284 O 0.93291 0.47197 0.92569 0.0
O285 O 0.00754 0.47303 0.88053 0.0
C286 C 0.72599 0.70429 0.11711 0.0
O287 O 0.74972 0.69737 0.10712 0.0
O288 O 0.7726 0.73685 0.16592 0.0
Zn289 Zn 0.77267 0.73043 0.13931 0.0
O290 O 0.80024 0.69497 0.13376 0.0
C291 C 0.785 0.79459 0.13318 0.0
O292 O 0.76476 0.79836 0.14598 0.0
O293 O 0.73011 0.7201 0.13115 0.0
C294 C 0.79695 0.66901 0.14116 0.0
O295 O 0.77488 0.66515 0.15288 0.0
C296 C 0.74868 0.74561 0.1741 0.0
O297 O 0.72347 0.75039 0.16495 0.0
O298 O 0.79047 0.76774 0.12752 0.0
C299 C 0.56166 0.45634 0.39476 0.0
O300 O 0.5749 0.47425 0.40655 0.0
O301 O 0.51513 0.49605 0.42643 0.0
Zn302 Zn 0.52021 0.50274 0.39995 0.0
O303 O 0.55281 0.53418 0.39505 0.0
C304 C 0.46242 0.53265 0.39903 0.0
O305 O 0.46893 0.53558 0.4161 0.0
O306 O 0.53513 0.46338 0.38915 0.0
C307 C 0.5496 0.56263 0.39792 0.0
O308 O 0.52385 0.57271 0.40479 0.0
C309 C 0.53414 0.50558 0.43801 0.0
O310 O 0.55838 0.52091 0.43277 0.0
O311 O 0.48074 0.51782 0.38906 0.0
C312 C 0.22179 0.32488 0.14882 0.0
O313 O 0.23776 0.33809 0.16154 0.0
O314 O 0.26389 0.27679 0.17895 0.0
Zn315 Zn 0.27122 0.28622 0.15304 0.0
O316 O 0.30161 0.3204 0.15024 0.0
C317 C 0.27962 0.22214 0.1453 0.0
O318 O 0.25671 0.21891 0.15652 0.0
O319 O 0.23155 0.29995 0.14221 0.0
C320 C 0.33005 0.31587 0.15243 0.0
O321 O 0.33955 0.2885 0.15711 0.0
C322 C 0.2717 0.29427 0.19172 0.0
O323 O 0.28597 0.32001 0.18818 0.0
O324 O 0.28851 0.24889 0.14119 0.0
C325 C 0.44093 0.46291 0.89798 0.0
O326 O 0.43162 0.47878 0.91188 0.0
O327 O 0.49115 0.50882 0.92395 0.0
Zn328 Zn 0.47901 0.51302 0.89823 0.0
O329 O 0.44405 0.54276 0.89635 0.0
C330 C 0.54197 0.52633 0.88933 0.0
O331 O 0.54763 0.50787 0.9028 0.0
O332 O 0.46376 0.47266 0.88912 0.0
C333 C 0.43851 0.55459 0.88118 0.0
O334 O 0.45592 0.54724 0.86751 0.0
C335 C 0.49725 0.53253 0.93309 0.0
O336 O 0.49516 0.55955 0.92549 0.0
O337 O 0.51447 0.53024 0.88435 0.0
C338 C 0.28911 0.696 0.64501 0.0
O339 O 0.27166 0.68758 0.65846 0.0
O340 O 0.24628 0.74426 0.6711 0.0
Zn341 Zn 0.24144 0.73626 0.64483 0.0
O342 O 0.21007 0.70323 0.64115 0.0
C343 C 0.23043 0.80078 0.63817 0.0
O344 O 0.24731 0.80466 0.65253 0.0
O345 O 0.28128 0.71928 0.6359 0.0
C346 C 0.18157 0.70878 0.64065 0.0
O347 O 0.172 0.73698 0.64297 0.0
C348 C 0.22603 0.75602 0.68115 0.0
O349 O 0.19972 0.76446 0.67426 0.0
O350 O 0.2269 0.77398 0.63193 0.0
C351 C 0.0262 0.5469 0.38035 0.0
O352 O 0.00438 0.54794 0.39242 0.0
O353 O 0.01251 0.48871 0.41251 0.0
Zn354 Zn 0.02441 0.48145 0.38701 0.0
O355 O 0.0607 0.45331 0.38681 0.0
C356 C 0.96197 0.46856 0.37709 0.0
O357 O 0.95631 0.49284 0.3869 0.0
O358 O 0.03668 0.52108 0.3755 0.0
C359 C 0.06785 0.43966 0.37242 0.0
O360 O 0.05141 0.44458 0.35799 0.0
C361 C 0.03048 0.50249 0.42315 0.0
O362 O 0.05704 0.51219 0.41718 0.0
O363 O 0.98955 0.46048 0.37459 0.0
C364 C 0.18168 0.70681 0.3566 0.0
O365 O 0.18204 0.72528 0.34274 0.0
O366 O 0.24335 0.72058 0.32765 0.0
Zn367 Zn 0.24766 0.71101 0.35372 0.0
O368 O 0.27604 0.67526 0.35656 0.0
C369 C 0.26309 0.77412 0.36123 0.0
O370 O 0.24268 0.78 0.3488 0.0
O371 O 0.20683 0.69932 0.36392 0.0
C372 C 0.30426 0.67891 0.35312 0.0
O373 O 0.31373 0.70564 0.34729 0.0
C374 C 0.23824 0.69937 0.31644 0.0
O375 O 0.23601 0.67104 0.32216 0.0
O376 O 0.26732 0.74662 0.3661 0.0
C377 C 0.05879 0.45718 0.0968 0.0
O378 O 0.06656 0.47275 0.08246 0.0
O379 O 0.00919 0.50099 0.07114 0.0
Zn380 Zn 0.01916 0.50615 0.09708 0.0
O381 O 0.05271 0.53755 0.09951 0.0
C382 C 0.95478 0.51444 0.10539 0.0
O383 O 0.95059 0.49663 0.09145 0.0
O384 O 0.03644 0.46664 0.10616 0.0
C385 C 0.04937 0.56232 0.10818 0.0
O386 O 0.02271 0.56853 0.11541 0.0
C387 C 0.99912 0.52282 0.06163 0.0
O388 O 0.99457 0.54969 0.06904 0.0
O389 O 0.98187 0.52004 0.1106 0.0
C390 C 0.28789 0.31698 0.84768 0.0
O391 O 0.27226 0.3271 0.83389 0.0
O392 O 0.24229 0.2661 0.82139 0.0
Zn393 Zn 0.23732 0.27939 0.84683 0.0
O394 O 0.20789 0.31471 0.84816 0.0
C395 C 0.22787 0.21691 0.85826 0.0
O396 O 0.25108 0.21132 0.84759 0.0
O397 O 0.27769 0.29403 0.85625 0.0
C398 C 0.19622 0.32083 0.8633 0.0
O399 O 0.20365 0.30387 0.87715 0.0
C400 C 0.21886 0.26107 0.81179 0.0
O401 O 0.19154 0.26529 0.81869 0.0
O402 O 0.2194 0.24439 0.86066 0.0
C403 C 0.43627 0.53608 0.60411 0.0
O404 O 0.42649 0.5186 0.59099 0.0
O405 O 0.48387 0.49105 0.57819 0.0
Zn406 Zn 0.47571 0.48722 0.60441 0.0
O407 O 0.44262 0.45567 0.60787 0.0
C408 C 0.54041 0.48007 0.61036 0.0
O409 O 0.54223 0.49918 0.59684 0.0
O410 O 0.45955 0.52755 0.61298 0.0
C411 C 0.44798 0.42917 0.6141 0.0
O412 O 0.47614 0.42175 0.61844 0.0
C413 C 0.49507 0.46929 0.56906 0.0
O414 O 0.5016 0.44328 0.577 0.0
O415 O 0.51426 0.47359 0.61675 0.0
C416 C 0.11298 0.41443 0.38689 0.0
C417 C 0.09348 0.41756 0.37208 0.0
C418 C 0.13658 0.39265 0.38694 0.0
C419 C 0.14055 0.3734 0.37191 0.0
C420 C 0.12128 0.37683 0.35681 0.0
C421 C 0.09809 0.39895 0.35706 0.0
C422 C 0.15691 0.38987 0.40318 0.0
C423 C 0.12468 0.35659 0.34056 0.0
C424 C 0.21322 0.32876 0.36259 0.0
C425 C 0.20449 0.29913 0.36767 0.0
C426 C 0.19323 0.35361 0.36479 0.0
C427 C 0.1638 0.34861 0.37213 0.0
C428 C 0.15556 0.3191 0.37823 0.0
C429 C 0.17605 0.29475 0.376 0.0
C430 C 0.20299 0.38486 0.35837 0.0
C431 C 0.12438 0.31282 0.38613 0.0
H432 H 0.10968 0.42887 0.39851 0.0
H433 H 0.08315 0.40122 0.34556 0.0
H434 H 0.15356 0.36717 0.40952 0.0
H435 H 0.18131 0.39142 0.39919 0.0
H436 H 0.15212 0.40786 0.41329 0.0
H437 H 0.10837 0.36273 0.32974 0.0
H438 H 0.14829 0.35824 0.3352 0.0
H439 H 0.12075 0.33237 0.34435 0.0
H440 H 0.23522 0.3324 0.35626 0.0
H441 H 0.16914 0.27197 0.38006 0.0
H442 H 0.19798 0.40243 0.36867 0.0
H443 H 0.18982 0.39102 0.34621 0.0
H444 H 0.22776 0.38574 0.35509 0.0
H445 H 0.11926 0.32935 0.39697 0.0
H446 H 0.12249 0.28927 0.3916 0.0
H447 H 0.10663 0.3158 0.37566 0.0
C448 C 0.94132 0.94577 0.63248 0.0
C449 C 0.93465 0.97152 0.62198 0.0
C450 C 0.91797 0.92664 0.6388 0.0
C451 C 0.88716 0.93351 0.63462 0.0
C452 C 0.88013 0.96033 0.62485 0.0
C453 C 0.90399 0.97901 0.61859 0.0
C454 C 0.92642 0.89822 0.64918 0.0
C455 C 0.84751 0.96854 0.62029 0.0
C456 C 0.83426 0.86505 0.63162 0.0
C457 C 0.81965 0.86569 0.64832 0.0
C458 C 0.8557 0.88744 0.62687 0.0
C459 C 0.86274 0.91113 0.6391 0.0
C460 C 0.84755 0.9124 0.65581 0.0
C461 C 0.82617 0.88963 0.66023 0.0
C462 C 0.87141 0.88529 0.60891 0.0
C463 C 0.85442 0.93739 0.66915 0.0
H464 H 0.96492 0.93986 0.63527 0.0
H465 H 0.89862 0.99896 0.61059 0.0
H466 H 0.91307 0.89696 0.66177 0.0
H467 H 0.92066 0.87764 0.64118 0.0
H468 H 0.95117 0.89743 0.65252 0.0
H469 H 0.84565 0.99174 0.61433 0.0
H470 H 0.83825 0.95171 0.6106 0.0
H471 H 0.83293 0.96753 0.63242 0.0
H472 H 0.82927 0.84675 0.62229 0.0
H473 H 0.81493 0.89035 0.67315 0.0
H474 H 0.89634 0.88195 0.61086 0.0
H475 H 0.86834 0.90691 0.60136 0.0
H476 H 0.8625 0.86612 0.60067 0.0
H477 H 0.8785 0.9355 0.67369 0.0
H478 H 0.83923 0.93629 0.68104 0.0
H479 H 0.85182 0.96016 0.66277 0.0
C480 C 0.41117 0.59427 0.86331 0.0
C481 C 0.41305 0.57652 0.87888 0.0
C482 C 0.38758 0.6156 0.86098 0.0
C483 C 0.36506 0.619 0.87444 0.0
C484 C 0.36648 0.60077 0.89007 0.0
C485 C 0.39062 0.57987 0.89217 0.0
C486 C 0.38707 0.63488 0.84421 0.0
C487 C 0.34264 0.60349 0.90459 0.0
C488 C 0.32468 0.69563 0.8742 0.0
C489 C 0.29858 0.6892 0.86393 0.0
C490 C 0.3459 0.67267 0.87836 0.0
C491 C 0.34073 0.64246 0.87229 0.0
C492 C 0.31355 0.63543 0.86285 0.0
C493 C 0.29285 0.65893 0.85869 0.0
C494 C 0.37468 0.68115 0.88838 0.0
C495 C 0.30703 0.60335 0.85641 0.0
H496 H 0.42846 0.59187 0.85301 0.0
H497 H 0.39183 0.56605 0.90418 0.0
H498 H 0.36514 0.63156 0.83701 0.0
H499 H 0.38866 0.65946 0.84779 0.0
H500 H 0.40615 0.62925 0.83497 0.0
H501 H 0.34627 0.58671 0.91554 0.0
H502 H 0.34311 0.62685 0.91036 0.0
H503 H 0.31948 0.59992 0.89888 0.0
H504 H 0.32929 0.71892 0.87837 0.0
H505 H 0.27263 0.65372 0.85087 0.0
H506 H 0.39475 0.67851 0.87943 0.0
H507 H 0.37813 0.6656 0.89992 0.0
H508 H 0.37413 0.70508 0.89336 0.0
H509 H 0.32339 0.5972 0.84566 0.0
H510 H 0.28342 0.60095 0.8511 0.0
H511 H 0.31025 0.5867 0.86745 0.0
C512 C 0.58398 0.02702 0.11188 0.0
C513 C 0.55479 0.03372 0.11862 0.0
C514 C 0.60835 0.0476 0.11409 0.0
C515 C 0.6033 0.07559 0.12313 0.0
C516 C 0.57432 0.08176 0.13075 0.0
C517 C 0.55046 0.06068 0.12848 0.0
C518 C 0.63908 0.04004 0.10601 0.0
C519 C 0.56802 0.11138 0.14047 0.0
C520 C 0.66984 0.12504 0.13837 0.0
C521 C 0.67138 0.14678 0.12458 0.0
C522 C 0.64823 0.1013 0.13792 0.0
C523 C 0.62749 0.09948 0.12343 0.0
C524 C 0.62914 0.12117 0.10939 0.0
C525 C 0.65116 0.14447 0.1101 0.0
C526 C 0.64734 0.0784 0.15302 0.0
C527 C 0.60725 0.12011 0.09377 0.0
H528 H 0.58759 0.00615 0.10435 0.0
H529 H 0.52802 0.06604 0.1338 0.0
H530 H 0.64371 0.05562 0.09461 0.0
H531 H 0.65755 0.04357 0.11597 0.0
H532 H 0.64018 0.01608 0.1011 0.0
H533 H 0.54499 0.11169 0.14675 0.0
H534 H 0.58544 0.11528 0.15101 0.0
H535 H 0.56957 0.13076 0.13093 0.0
H536 H 0.68551 0.12657 0.14956 0.0
H537 H 0.65216 0.1612 0.09941 0.0
H538 H 0.64932 0.05483 0.14765 0.0
H539 H 0.62507 0.07989 0.16009 0.0
H540 H 0.66597 0.08217 0.16289 0.0
H541 H 0.60881 0.09763 0.08696 0.0
H542 H 0.61189 0.13839 0.08381 0.0
H543 H 0.58341 0.12266 0.09864 0.0
C544 C 0.18404 0.68557 0.1194 0.0
C545 C 0.20039 0.67923 0.13512 0.0
C546 C 0.161 0.66578 0.11333 0.0
C547 C 0.15404 0.63914 0.12328 0.0
C548 C 0.17149 0.63184 0.13865 0.0
C549 C 0.19455 0.65192 0.14435 0.0
C550 C 0.14312 0.67416 0.09676 0.0
C551 C 0.16475 0.60363 0.14962 0.0
C552 C 0.07283 0.60865 0.12216 0.0
C553 C 0.07582 0.5829 0.11113 0.0
C554 C 0.09805 0.62736 0.12599 0.0
C555 C 0.12696 0.62025 0.11853 0.0
C556 C 0.13002 0.59473 0.10703 0.0
C557 C 0.10441 0.5763 0.1035 0.0
C558 C 0.09388 0.65439 0.13833 0.0
C559 C 0.16043 0.58661 0.09873 0.0
H560 H 0.18853 0.70654 0.11212 0.0
H561 H 0.20709 0.6468 0.15649 0.0
H562 H 0.14175 0.65435 0.08752 0.0
H563 H 0.11937 0.68032 0.10054 0.0
H564 H 0.15345 0.69379 0.08951 0.0
H565 H 0.18194 0.59994 0.16035 0.0
H566 H 0.14186 0.60584 0.1559 0.0
H567 H 0.16417 0.58307 0.14094 0.0
H568 H 0.05084 0.61395 0.1281 0.0
H569 H 0.10692 0.55649 0.09491 0.0
H570 H 0.10129 0.67572 0.13156 0.0
H571 H 0.10844 0.65154 0.15037 0.0
H572 H 0.06975 0.65719 0.14271 0.0
H573 H 0.16977 0.60653 0.09133 0.0
H574 H 0.15866 0.56692 0.0894 0.0
H575 H 0.17712 0.58079 0.10938 0.0
C576 C 0.54815 0.8818 0.38876 0.0
C577 C 0.5412 0.91225 0.3845 0.0
C578 C 0.57259 0.86659 0.38054 0.0
C579 C 0.59069 0.88222 0.36778 0.0
C580 C 0.58395 0.913 0.36344 0.0
C581 C 0.5592 0.92767 0.37183 0.0
C582 C 0.57895 0.83369 0.38549 0.0
C583 C 0.60288 0.93039 0.34996 0.0
C584 C 0.66858 0.84631 0.3604 0.0
C585 C 0.66313 0.82793 0.34535 0.0
C586 C 0.64565 0.86539 0.36731 0.0
C587 C 0.61654 0.86597 0.35903 0.0
C588 C 0.61138 0.84863 0.34333 0.0
C589 C 0.63477 0.82987 0.33665 0.0
C590 C 0.65212 0.88377 0.38399 0.0
C591 C 0.58063 0.84861 0.33413 0.0
H592 H 0.53436 0.86967 0.3985 0.0
H593 H 0.55399 0.95122 0.36848 0.0
H594 H 0.57755 0.81902 0.3734 0.0
H595 H 0.6025 0.83152 0.39088 0.0
H596 H 0.56264 0.8248 0.39563 0.0
H597 H 0.59483 0.95429 0.34818 0.0
H598 H 0.62717 0.93087 0.35425 0.0
H599 H 0.60208 0.91864 0.33682 0.0
H600 H 0.69052 0.84516 0.36713 0.0
H601 H 0.63039 0.81585 0.32497 0.0
H602 H 0.63869 0.87436 0.39532 0.0
H603 H 0.64493 0.90789 0.38213 0.0
H604 H 0.67673 0.88335 0.38768 0.0
H605 H 0.56344 0.83746 0.3429 0.0
H606 H 0.58119 0.83625 0.32116 0.0
H607 H 0.57278 0.87238 0.33172 0.0
C608 C 0.32116 0.29731 0.62023 0.0
C609 C 0.30482 0.29989 0.63632 0.0
C610 C 0.34284 0.31942 0.61527 0.0
C611 C 0.34848 0.34453 0.62675 0.0
C612 C 0.33109 0.34799 0.64259 0.0
C613 C 0.30935 0.32571 0.64714 0.0
C614 C 0.36062 0.3152 0.59813 0.0
C615 C 0.33652 0.37441 0.65521 0.0
C616 C 0.42769 0.37998 0.6263 0.0
C617 C 0.42265 0.40719 0.61684 0.0
C618 C 0.40375 0.35933 0.6295 0.0
C619 C 0.3741 0.36591 0.62293 0.0
C620 C 0.36893 0.39309 0.61311 0.0
C621 C 0.39325 0.4135 0.61025 0.0
C622 C 0.41012 0.33067 0.64015 0.0
C623 C 0.33769 0.40068 0.60573 0.0
H624 H 0.31764 0.27754 0.61173 0.0
H625 H 0.29682 0.32793 0.65958 0.0
H626 H 0.36026 0.33655 0.59011 0.0
H627 H 0.38488 0.31014 0.60131 0.0
H628 H 0.3514 0.29623 0.58984 0.0
H629 H 0.31961 0.37499 0.6663 0.0
H630 H 0.35978 0.37258 0.66105 0.0
H631 H 0.33542 0.39643 0.64787 0.0
H632 H 0.45031 0.37496 0.63146 0.0
H633 H 0.3892 0.43442 0.60285 0.0
H634 H 0.40402 0.31017 0.63216 0.0
H635 H 0.39572 0.33036 0.65237 0.0
H636 H 0.43449 0.32883 0.6442 0.0
H637 H 0.32948 0.3818 0.59706 0.0
H638 H 0.33772 0.42222 0.59785 0.0
H639 H 0.32107 0.40305 0.61686 0.0
C640 C 0.94671 0.07221 0.87682 0.0
C641 C 0.95812 0.04881 0.86583 0.0
C642 C 0.9243 0.09248 0.87067 0.0
C643 C 0.91276 0.08925 0.8531 0.0
C644 C 0.92359 0.06531 0.84202 0.0
C645 C 0.94625 0.04536 0.84851 0.0
C646 C 0.91341 0.11776 0.8829 0.0
C647 C 0.91158 0.0611 0.82326 0.0
C648 C 0.83753 0.13033 0.84561 0.0
C649 C 0.84748 0.15828 0.83844 0.0
C650 C 0.8584 0.10694 0.8496 0.0
C651 C 0.88995 0.11166 0.84638 0.0
C652 C 0.89997 0.13928 0.83842 0.0
C653 C 0.8786 0.16227 0.83454 0.0
C654 C 0.84684 0.07774 0.85801 0.0
C655 C 0.93345 0.14516 0.83479 0.0
H656 H 0.95565 0.0751 0.89023 0.0
H657 H 0.9549 0.02732 0.83995 0.0
H658 H 0.91859 0.14033 0.87683 0.0
H659 H 0.88825 0.11638 0.88463 0.0
H660 H 0.92431 0.11674 0.89631 0.0
H661 H 0.92131 0.04053 0.81665 0.0
H662 H 0.88629 0.05901 0.82347 0.0
H663 H 0.91724 0.08149 0.81506 0.0
H664 H 0.81348 0.12695 0.84852 0.0
H665 H 0.88647 0.18369 0.82888 0.0
H666 H 0.8547 0.07646 0.8721 0.0
H667 H 0.85628 0.05756 0.85092 0.0
H668 H 0.82146 0.07629 0.85785 0.0
H669 H 0.94596 0.14701 0.84766 0.0
H670 H 0.93718 0.16655 0.82707 0.0
H671 H 0.94359 0.12579 0.82727 0.0
C672 C 0.89271 0.58661 0.60134 0.0
C673 C 0.91505 0.58064 0.61436 0.0
C674 C 0.86901 0.60752 0.60462 0.0
C675 C 0.86786 0.623 0.62123 0.0
C676 C 0.89014 0.61681 0.63448 0.0
C677 C 0.91339 0.5956 0.63091 0.0
C678 C 0.84547 0.61335 0.59024 0.0
C679 C 0.88981 0.63309 0.6523 0.0
C680 C 0.82938 0.70036 0.62452 0.0
C681 C 0.80226 0.69317 0.63365 0.0
C682 C 0.85053 0.67759 0.61998 0.0
C683 C 0.8443 0.64681 0.62451 0.0
C684 C 0.81641 0.63917 0.63304 0.0
C685 C 0.79574 0.66249 0.63759 0.0
C686 C 0.88008 0.68666 0.61094 0.0
C687 C 0.80885 0.6065 0.63787 0.0
H688 H 0.89373 0.57496 0.58856 0.0
H689 H 0.93058 0.59111 0.64102 0.0
H690 H 0.82211 0.6098 0.59566 0.0
H691 H 0.84692 0.63747 0.58573 0.0
H692 H 0.84863 0.59821 0.57845 0.0
H693 H 0.90831 0.62507 0.66133 0.0
H694 H 0.89255 0.65806 0.6502 0.0
H695 H 0.8675 0.62952 0.65905 0.0
H696 H 0.83462 0.72399 0.62138 0.0
H697 H 0.77476 0.65673 0.64455 0.0
H698 H 0.88334 0.67326 0.59849 0.0
H699 H 0.89966 0.68144 0.61987 0.0
H700 H 0.88077 0.71139 0.60754 0.0
H701 H 0.81144 0.59149 0.626 0.0
H702 H 0.78521 0.60407 0.64313 0.0
H703 H 0.82508 0.5982 0.64819 0.0
C704 C 0.15918 0.12344 0.35678 0.0
C705 C 0.16284 0.14516 0.37043 0.0
C706 C 0.13771 0.09968 0.3584 0.0
C707 C 0.1193 0.09787 0.37393 0.0
C708 C 0.1229 0.11974 0.38773 0.0
C709 C 0.14473 0.14301 0.38586 0.0
C710 C 0.1347 0.07657 0.3435 0.0
C711 C 0.10348 0.11876 0.40444 0.0
C712 C 0.04246 0.05776 0.37365 0.0
C713 C 0.04887 0.03114 0.38346 0.0
C714 C 0.06548 0.0791 0.3698 0.0
C715 C 0.0957 0.07357 0.37574 0.0
C716 C 0.10269 0.04595 0.38474 0.0
C717 C 0.07914 0.02509 0.38856 0.0
C718 C 0.05709 0.10833 0.36022 0.0
C719 C 0.13475 0.03908 0.39107 0.0
H720 H 0.17323 0.12486 0.34487 0.0
H721 H 0.14737 0.15975 0.39644 0.0
H722 H 0.13836 0.05316 0.3488 0.0
H723 H 0.11123 0.07731 0.33788 0.0
H724 H 0.1513 0.08072 0.33251 0.0
H725 H 0.10917 0.13746 0.41393 0.0
H726 H 0.07893 0.12062 0.40082 0.0
H727 H 0.1066 0.09655 0.41138 0.0
H728 H 0.01916 0.06261 0.3696 0.0
H729 H 0.08434 0.0045 0.39603 0.0
H730 H 0.07271 0.11231 0.34876 0.0
H731 H 0.0597 0.12798 0.36949 0.0
H732 H 0.03318 0.10802 0.3552 0.0
H733 H 0.1514 0.04261 0.38007 0.0
H734 H 0.13706 0.01528 0.39611 0.0
H735 H 0.14099 0.05504 0.40202 0.0
C736 C 0.59362 0.38582 0.08694 0.0
C737 C 0.59493 0.41321 0.09668 0.0
C738 C 0.61167 0.3606 0.09178 0.0
C739 C 0.63154 0.36289 0.10667 0.0
C740 C 0.63396 0.39089 0.11605 0.0
C741 C 0.6156 0.41571 0.11096 0.0
C742 C 0.60849 0.3311 0.08145 0.0
C743 C 0.65498 0.39427 0.13196 0.0
C744 C 0.64897 0.29097 0.13304 0.0
C745 C 0.6786 0.28377 0.1272 0.0
C746 C 0.63338 0.31647 0.12631 0.0
C747 C 0.64775 0.33533 0.11342 0.0
C748 C 0.67755 0.32812 0.10733 0.0
C749 C 0.69265 0.30236 0.11429 0.0
C750 C 0.60156 0.32336 0.13311 0.0
C751 C 0.69356 0.34777 0.09362 0.0
H752 H 0.57781 0.38371 0.07584 0.0
H753 H 0.61694 0.43686 0.11848 0.0
H754 H 0.63131 0.32245 0.0774 0.0
H755 H 0.59788 0.31343 0.09011 0.0
H756 H 0.59415 0.33384 0.06929 0.0
H757 H 0.65616 0.41824 0.13683 0.0
H758 H 0.64676 0.37955 0.14306 0.0
H759 H 0.67841 0.38657 0.12848 0.0
H760 H 0.63788 0.2767 0.14297 0.0
H761 H 0.71553 0.29693 0.10971 0.0
H762 H 0.58521 0.32414 0.12178 0.0
H763 H 0.60121 0.34616 0.13961 0.0
H764 H 0.59342 0.30608 0.14291 0.0
H765 H 0.67949 0.34938 0.08131 0.0
H766 H 0.71647 0.33868 0.09 0.0
H767 H 0.69635 0.37134 0.09887 0.0
C768 C 0.40925 0.96505 0.89377 0.0
C769 C 0.43993 0.96015 0.88911 0.0
C770 C 0.38658 0.94363 0.88928 0.0
C771 C 0.39489 0.91663 0.88003 0.0
C772 C 0.42557 0.91225 0.87457 0.0
C773 C 0.44769 0.93413 0.8791 0.0
C774 C 0.354 0.94926 0.89511 0.0
C775 C 0.43534 0.88371 0.86473 0.0
C776 C 0.34736 0.84523 0.88761 0.0
C777 C 0.33052 0.84345 0.8717 0.0
C778 C 0.36822 0.86908 0.89051 0.0
C779 C 0.37209 0.89188 0.87725 0.0
C780 C 0.35485 0.89048 0.86126 0.0
C781 C 0.33437 0.86617 0.85862 0.0
C782 C 0.38644 0.86963 0.90768 0.0
C783 C 0.35816 0.91457 0.84691 0.0
H784 H 0.40303 0.98517 0.90142 0.0
H785 H 0.47132 0.93017 0.87538 0.0
H786 H 0.3381 0.94595 0.88371 0.0
H787 H 0.34757 0.93248 0.90559 0.0
H788 H 0.35073 0.97266 0.90057 0.0
H789 H 0.45959 0.8848 0.86032 0.0
H790 H 0.43251 0.86354 0.87358 0.0
H791 H 0.42067 0.87998 0.85283 0.0
H792 H 0.34455 0.82774 0.89775 0.0
H793 H 0.32128 0.86503 0.84633 0.0
H794 H 0.38232 0.89139 0.91491 0.0
H795 H 0.41125 0.86851 0.90462 0.0
H796 H 0.38053 0.85031 0.91669 0.0
H797 H 0.35368 0.93756 0.85262 0.0
H798 H 0.3423 0.91074 0.83552 0.0
H799 H 0.38195 0.91468 0.84175 0.0
C800 C 0.88917 0.41509 0.88165 0.0
C801 C 0.9193 0.40605 0.88538 0.0
C802 C 0.86733 0.39386 0.87575 0.0
C803 C 0.87591 0.36293 0.87338 0.0
C804 C 0.90597 0.35346 0.87774 0.0
C805 C 0.92728 0.37512 0.88375 0.0
C806 C 0.8354 0.40474 0.87142 0.0
C807 C 0.91602 0.32067 0.87531 0.0
C808 C 0.81636 0.30038 0.86747 0.0
C809 C 0.81653 0.29653 0.84883 0.0
C810 C 0.83499 0.32249 0.87568 0.0
C811 C 0.85433 0.34095 0.86499 0.0
C812 C 0.854 0.33767 0.84616 0.0
C813 C 0.83504 0.31561 0.83832 0.0
C814 C 0.83454 0.32559 0.89579 0.0
C815 C 0.87436 0.35689 0.8343 0.0
H816 H 0.88275 0.43892 0.88303 0.0
H817 H 0.95048 0.36793 0.88665 0.0
H818 H 0.83139 0.403 0.8568 0.0
H819 H 0.81818 0.39003 0.87812 0.0
H820 H 0.83158 0.42883 0.87558 0.0
H821 H 0.93954 0.31662 0.8804 0.0
H822 H 0.90009 0.305 0.88235 0.0
H823 H 0.91539 0.31462 0.8609 0.0
H824 H 0.80205 0.28579 0.87568 0.0
H825 H 0.83531 0.31285 0.82391 0.0
H826 H 0.83028 0.34973 0.89962 0.0
H827 H 0.85717 0.31912 0.90132 0.0
H828 H 0.81677 0.31095 0.90208 0.0
H829 H 0.8701 0.38155 0.83676 0.0
H830 H 0.87069 0.35214 0.81987 0.0
H831 H 0.89871 0.35239 0.83755 0.0
C832 C 0.35588 0.1281 0.66549 0.0
C833 C 0.33873 0.14175 0.65179 0.0
C834 C 0.37817 0.10595 0.66161 0.0
C835 C 0.38357 0.09749 0.64361 0.0
C836 C 0.36581 0.11064 0.62978 0.0
C837 C 0.34353 0.1325 0.63404 0.0
C838 C 0.39648 0.09218 0.67672 0.0
C839 C 0.37103 0.10238 0.6104 0.0
C840 C 0.46196 0.06951 0.62964 0.0
C841 C 0.45682 0.03812 0.6271 0.0
C842 C 0.43849 0.08889 0.63547 0.0
C843 C 0.40918 0.07659 0.63902 0.0
C844 C 0.40408 0.04477 0.63714 0.0
C845 C 0.42796 0.02589 0.63112 0.0
C846 C 0.44482 0.12273 0.63722 0.0
C847 C 0.37318 0.03083 0.641 0.0
H848 H 0.35215 0.13495 0.67925 0.0
H849 H 0.33034 0.14287 0.62337 0.0
H850 H 0.39594 0.06685 0.67591 0.0
H851 H 0.42075 0.09933 0.67557 0.0
H852 H 0.3878 0.09929 0.69006 0.0
H853 H 0.35429 0.11356 0.60133 0.0
H854 H 0.39441 0.10939 0.60632 0.0
H855 H 0.36943 0.07725 0.60857 0.0
H856 H 0.48419 0.0792 0.62662 0.0
H857 H 0.42385 0.00165 0.62927 0.0
H858 H 0.43856 0.13081 0.6508 0.0
H859 H 0.43053 0.13559 0.62753 0.0
H860 H 0.46921 0.12844 0.63472 0.0
H861 H 0.36513 0.03781 0.65447 0.0
H862 H 0.37363 0.00546 0.64032 0.0
H863 H 0.3562 0.03937 0.63117 0.0
C864 C 0.65786 0.67446 0.34502 0.0
C865 C 0.68064 0.68911 0.35508 0.0
C866 C 0.63807 0.65317 0.3529 0.0
C867 C 0.64114 0.64627 0.3713 0.0
C868 C 0.66461 0.66028 0.38145 0.0
C869 C 0.68411 0.68159 0.37321 0.0
C870 C 0.61336 0.63863 0.34161 0.0
C871 C 0.66864 0.65331 0.40109 0.0
C872 C 0.56913 0.61583 0.39331 0.0
C873 C 0.57408 0.58418 0.39262 0.0
C874 C 0.59129 0.63639 0.38699 0.0
C875 C 0.61907 0.625 0.3799 0.0
C876 C 0.6247 0.59315 0.37982 0.0
C877 C 0.60211 0.5731 0.38614 0.0
C878 C 0.58447 0.67025 0.38728 0.0
C879 C 0.65413 0.58016 0.37245 0.0
H880 H 0.65505 0.68004 0.33099 0.0
H881 H 0.70167 0.6928 0.38107 0.0
H882 H 0.61519 0.61335 0.34225 0.0
H883 H 0.59052 0.64494 0.34692 0.0
H884 H 0.61464 0.64579 0.32737 0.0
H885 H 0.689 0.66487 0.40685 0.0
H886 H 0.64807 0.66081 0.40859 0.0
H887 H 0.67097 0.62829 0.40315 0.0
H888 H 0.5476 0.62458 0.39835 0.0
H889 H 0.60623 0.54867 0.3857 0.0
H890 H 0.5828 0.67895 0.37337 0.0
H891 H 0.60334 0.68286 0.39391 0.0
H892 H 0.56274 0.67552 0.39434 0.0
H893 H 0.65537 0.58453 0.35785 0.0
H894 H 0.65604 0.55513 0.37474 0.0
H895 H 0.6741 0.59163 0.37869 0.0
C896 C 0.17612 0.85381 0.1373 0.0
C897 C 0.1637 0.82439 0.13918 0.0
C898 C 0.15755 0.87876 0.13259 0.0
C899 C 0.12587 0.87413 0.12979 0.0
C900 C 0.11308 0.84468 0.13224 0.0
C901 C 0.13215 0.82017 0.13686 0.0
C902 C 0.17199 0.90983 0.13006 0.0
C903 C 0.07935 0.83885 0.12945 0.0
C904 C 0.06886 0.93965 0.12868 0.0
C905 C 0.06345 0.94237 0.11026 0.0
C906 C 0.09005 0.91829 0.13528 0.0
C907 C 0.10625 0.89944 0.12314 0.0
C908 C 0.10194 0.90317 0.10451 0.0
C909 C 0.08054 0.92452 0.0983 0.0
C910 C 0.09406 0.91493 0.15523 0.0
C911 C 0.11897 0.88369 0.09112 0.0
H912 H 0.20048 0.85727 0.13909 0.0
H913 H 0.12233 0.79756 0.13841 0.0
H914 H 0.17029 0.91669 0.1158 0.0
H915 H 0.15956 0.92728 0.13801 0.0
H916 H 0.19647 0.91011 0.13402 0.0
H917 H 0.07272 0.81505 0.13294 0.0
H918 H 0.06561 0.85485 0.1377 0.0
H919 H 0.0733 0.84304 0.11525 0.0
H920 H 0.05572 0.95337 0.13799 0.0
H921 H 0.07669 0.9267 0.08404 0.0
H922 H 0.11868 0.91547 0.15881 0.0
H923 H 0.08492 0.89245 0.15958 0.0
H924 H 0.08202 0.93319 0.16279 0.0
H925 H 0.14392 0.88455 0.09376 0.0
H926 H 0.1148 0.89109 0.07711 0.0
H927 H 0.11167 0.85949 0.09247 0.0
C928 C 0.68318 0.81475 0.87944 0.0
C929 C 0.70943 0.82195 0.86948 0.0
C930 C 0.66219 0.83747 0.88435 0.0
C931 C 0.66778 0.86819 0.87938 0.0
C932 C 0.69528 0.87593 0.87046 0.0
C933 C 0.71574 0.85267 0.86552 0.0
C934 C 0.63307 0.82824 0.8938 0.0
C935 C 0.70227 0.90854 0.86522 0.0
C936 C 0.59776 0.91694 0.87053 0.0
C937 C 0.59496 0.93333 0.88656 0.0
C938 C 0.62154 0.89591 0.86802 0.0
C939 C 0.64335 0.89145 0.88178 0.0
C940 C 0.64105 0.90835 0.89786 0.0
C941 C 0.6167 0.92896 0.90012 0.0
C942 C 0.623 0.87805 0.85074 0.0
C943 C 0.66414 0.90449 0.9127 0.0
H944 H 0.67816 0.7911 0.88265 0.0
H945 H 0.7361 0.85846 0.85797 0.0
H946 H 0.62909 0.84297 0.90565 0.0
H947 H 0.61335 0.8314 0.88464 0.0
H948 H 0.63353 0.80399 0.89822 0.0
H949 H 0.72624 0.91134 0.86057 0.0
H950 H 0.68672 0.91568 0.85426 0.0
H951 H 0.69826 0.92419 0.87666 0.0
H952 H 0.581 0.92013 0.86001 0.0
H953 H 0.61478 0.94175 0.9125 0.0
H954 H 0.62131 0.8532 0.85359 0.0
H955 H 0.64529 0.88202 0.84403 0.0
H956 H 0.60439 0.88441 0.84133 0.0
H957 H 0.66335 0.88071 0.91785 0.0
H958 H 0.65996 0.92043 0.92401 0.0
H959 H 0.68758 0.90843 0.9075 0.0
C960 C 0.44139 0.42606 0.10163 0.0
C961 C 0.45947 0.44572 0.11202 0.0
C962 C 0.41945 0.40702 0.10952 0.0
C963 C 0.4153 0.40773 0.12829 0.0
C964 C 0.43255 0.42841 0.13881 0.0
C965 C 0.45453 0.44716 0.13055 0.0
C966 C 0.40147 0.38532 0.09781 0.0
C967 C 0.42849 0.42999 0.15884 0.0
C968 C 0.34201 0.37002 0.14413 0.0
C969 C 0.35225 0.34043 0.14827 0.0
C970 C 0.36254 0.39274 0.13848 0.0
C971 C 0.39397 0.3856 0.1368 0.0
C972 C 0.40461 0.35619 0.14169 0.0
C973 C 0.38362 0.33398 0.14744 0.0
C974 C 0.35038 0.42394 0.13355 0.0
C975 C 0.43797 0.34767 0.14003 0.0
H976 H 0.44491 0.42488 0.0873 0.0
H977 H 0.46835 0.46235 0.13867 0.0
H978 H 0.40692 0.36135 0.1015 0.0
H979 H 0.37658 0.38862 0.09994 0.0
H980 H 0.40653 0.38851 0.08337 0.0
H981 H 0.44171 0.44905 0.1649 0.0
H982 H 0.40396 0.43293 0.16225 0.0
H983 H 0.43615 0.40821 0.16498 0.0
H984 H 0.31782 0.37529 0.1449 0.0
H985 H 0.39174 0.31122 0.15067 0.0
H986 H 0.35221 0.42727 0.11887 0.0
H987 H 0.3642 0.44212 0.14001 0.0
H988 H 0.32606 0.42689 0.1375 0.0
H989 H 0.4447 0.34772 0.12572 0.0
H990 H 0.44289 0.3247 0.14569 0.0
H991 H 0.45249 0.36476 0.14697 0.0
C992 C 0.89251 0.07948 0.36234 0.0
C993 C 0.89506 0.06341 0.3785 0.0
C994 C 0.86975 0.10167 0.35992 0.0
C995 C 0.84883 0.10773 0.37393 0.0
C996 C 0.85089 0.09122 0.39017 0.0
C997 C 0.87411 0.06933 0.3923 0.0
C998 C 0.86845 0.119 0.34245 0.0
C999 C 0.82878 0.09689 0.40532 0.0
C1000 C 0.81252 0.18623 0.37171 0.0
C1001 C 0.78512 0.17999 0.36263 0.0
C1002 C 0.83288 0.1627 0.3762 0.0
C1003 C 0.82554 0.13215 0.37165 0.0
C1004 C 0.79711 0.12548 0.36347 0.0
C1005 C 0.77725 0.14951 0.35899 0.0
C1006 C 0.86301 0.17076 0.38489 0.0
C1007 C 0.78833 0.09312 0.35864 0.0
H1008 H 0.90862 0.07509 0.35163 0.0
H1009 H 0.87586 0.05688 0.40479 0.0
H1010 H 0.84563 0.11614 0.33618 0.0
H1011 H 0.87175 0.14379 0.34496 0.0
H1012 H 0.88616 0.11123 0.33281 0.0
H1013 H 0.83262 0.08116 0.41677 0.0
H1014 H 0.83112 0.12077 0.41013 0.0
H1015 H 0.80491 0.09407 0.40055 0.0
H1016 H 0.81875 0.20969 0.37465 0.0
H1017 H 0.75604 0.14447 0.3521 0.0
H1018 H 0.88197 0.16614 0.37539 0.0
H1019 H 0.86692 0.15633 0.39687 0.0
H1020 H 0.86412 0.19518 0.38893 0.0
H1021 H 0.80317 0.08487 0.34762 0.0
H1022 H 0.76411 0.09137 0.35427 0.0
H1023 H 0.79191 0.07764 0.37021 0.0
C1024 C 0.12811 0.68982 0.63641 0.0
C1025 C 0.15966 0.68414 0.63619 0.0
C1026 C 0.10719 0.66742 0.63086 0.0
C1027 C 0.11813 0.63874 0.62483 0.0
C1028 C 0.14986 0.63246 0.62518 0.0
C1029 C 0.17026 0.65521 0.63091 0.0
C1030 C 0.07346 0.67487 0.63082 0.0
C1031 C 0.16238 0.6022 0.61878 0.0
C1032 C 0.06012 0.57453 0.61973 0.0
C1033 C 0.05239 0.57721 0.60159 0.0
C1034 C 0.08197 0.59403 0.62748 0.0
C1035 C 0.09654 0.61642 0.61676 0.0
C1036 C 0.0896 0.61842 0.59832 0.0
C1037 C 0.06753 0.59889 0.59098 0.0
C1038 C 0.08873 0.59135 0.64722 0.0
C1039 C 0.10491 0.64176 0.58639 0.0
H1040 H 0.11972 0.71202 0.6406 0.0
H1041 H 0.19462 0.65059 0.63075 0.0
H1042 H 0.06497 0.67569 0.61684 0.0
H1043 H 0.06041 0.65674 0.63786 0.0
H1044 H 0.06851 0.69719 0.6373 0.0
H1045 H 0.18732 0.59997 0.62131 0.0
H1046 H 0.15037 0.583 0.62547 0.0
H1047 H 0.1583 0.59984 0.60419 0.0
H1048 H 0.04839 0.55789 0.62801 0.0
H1049 H 0.06183 0.60092 0.57692 0.0
H1050 H 0.08138 0.61254 0.65415 0.0
H1051 H 0.1137 0.58889 0.64944 0.0
H1052 H 0.07685 0.57157 0.65345 0.0
H1053 H 0.09882 0.66516 0.59089 0.0
H1054 H 0.0981 0.63926 0.57215 0.0
H1055 H 0.13014 0.6396 0.58734 0.0
C1056 C 0.62925 0.07746 0.60026 0.0
C1057 C 0.60997 0.07516 0.61522 0.0
C1058 C 0.6532 0.09886 0.59981 0.0
C1059 C 0.65767 0.1186 0.61457 0.0
C1060 C 0.63846 0.11617 0.62976 0.0
C1061 C 0.61496 0.09438 0.62993 0.0
C1062 C 0.67347 0.10059 0.58349 0.0
C1063 C 0.64237 0.13699 0.64573 0.0
C1064 C 0.73135 0.16141 0.62387 0.0
C1065 C 0.72341 0.19117 0.61864 0.0
C1066 C 0.71083 0.13701 0.62161 0.0
C1067 C 0.68166 0.14264 0.61407 0.0
C1068 C 0.67432 0.17222 0.60772 0.0
C1069 C 0.69535 0.1961 0.60999 0.0
C1070 C 0.71966 0.10564 0.62827 0.0
C1071 C 0.64343 0.17916 0.59963 0.0
H1072 H 0.62564 0.06254 0.58888 0.0
H1073 H 0.60014 0.09277 0.64152 0.0
H1074 H 0.67099 0.12329 0.57703 0.0
H1075 H 0.69782 0.09817 0.58744 0.0
H1076 H 0.66792 0.08261 0.57351 0.0
H1077 H 0.62576 0.13187 0.65657 0.0
H1078 H 0.66585 0.13477 0.6512 0.0
H1079 H 0.63933 0.16116 0.64157 0.0
H1080 H 0.75308 0.15734 0.63042 0.0
H1081 H 0.68907 0.21898 0.6058 0.0
H1082 H 0.71406 0.08797 0.61814 0.0
H1083 H 0.70639 0.10021 0.64052 0.0
H1084 H 0.74441 0.10412 0.63152 0.0
H1085 H 0.6378 0.16231 0.58904 0.0
H1086 H 0.64242 0.20249 0.59377 0.0
H1087 H 0.62553 0.17731 0.6101 0.0
C1088 C 0.1565 0.34855 0.88092 0.0
C1089 C 0.17425 0.34631 0.86536 0.0
C1090 C 0.13501 0.37206 0.88302 0.0
C1091 C 0.13146 0.39415 0.86932 0.0
C1092 C 0.14974 0.39241 0.85373 0.0
C1093 C 0.17079 0.36834 0.85186 0.0
C1094 C 0.11567 0.37289 0.89976 0.0
C1095 C 0.14688 0.4158 0.83897 0.0
C1096 C 0.05429 0.43346 0.86909 0.0
C1097 C 0.06028 0.45984 0.87919 0.0
C1098 C 0.07757 0.41249 0.86512 0.0
C1099 C 0.10768 0.41824 0.87118 0.0
C1100 C 0.11428 0.44573 0.88043 0.0
C1101 C 0.09043 0.46614 0.88443 0.0
C1102 C 0.06953 0.38334 0.85535 0.0
C1103 C 0.14624 0.45289 0.88683 0.0
H1104 H 0.15899 0.33158 0.89138 0.0
H1105 H 0.18462 0.36685 0.83986 0.0
H1106 H 0.11872 0.39508 0.90673 0.0
H1107 H 0.09112 0.37092 0.89617 0.0
H1108 H 0.12148 0.35417 0.90921 0.0
H1109 H 0.16386 0.41212 0.82813 0.0
H1110 H 0.1236 0.41482 0.8331 0.0
H1111 H 0.15003 0.43916 0.84447 0.0
H1112 H 0.03107 0.42837 0.86495 0.0
H1113 H 0.09529 0.48659 0.89212 0.0
H1114 H 0.07238 0.36355 0.8645 0.0
H1115 H 0.08519 0.37978 0.84387 0.0
H1116 H 0.04561 0.38342 0.85033 0.0
H1117 H 0.15254 0.437 0.89779 0.0
H1118 H 0.1483 0.47671 0.89186 0.0
H1119 H 0.163 0.44951 0.87586 0.0
C1120 C 0.92409 0.90642 0.13117 0.0
C1121 C 0.92446 0.92949 0.11815 0.0
C1122 C 0.89959 0.88583 0.13238 0.0
C1123 C 0.87481 0.88835 0.12028 0.0
C1124 C 0.87492 0.91166 0.10715 0.0
C1125 C 0.89978 0.93197 0.10623 0.0
C1126 C 0.90033 0.86124 0.14657 0.0
C1127 C 0.84887 0.91504 0.09404 0.0
C1128 C 0.82871 0.81544 0.11534 0.0
C1129 C 0.80497 0.8203 0.12766 0.0
C1130 C 0.85079 0.83806 0.11211 0.0
C1131 C 0.84906 0.86622 0.12139 0.0
C1132 C 0.82412 0.87197 0.13299 0.0
C1133 C 0.80235 0.84893 0.13599 0.0
C1134 C 0.87693 0.83113 0.09954 0.0
C1135 C 0.82137 0.90181 0.14302 0.0
H1136 H 0.94304 0.90433 0.14044 0.0
H1137 H 0.89987 0.94975 0.09613 0.0
H1138 H 0.87995 0.86324 0.15534 0.0
H1139 H 0.89946 0.83834 0.1402 0.0
H1140 H 0.92118 0.86254 0.15503 0.0
H1141 H 0.85225 0.93463 0.08478 0.0
H1142 H 0.84649 0.89384 0.08601 0.0
H1143 H 0.82704 0.91836 0.10135 0.0
H1144 H 0.83081 0.79348 0.10874 0.0
H1145 H 0.784 0.85297 0.14544 0.0
H1146 H 0.89847 0.82905 0.10729 0.0
H1147 H 0.88006 0.85008 0.08984 0.0
H1148 H 0.87329 0.80954 0.092 0.0
H1149 H 0.83989 0.90337 0.15313 0.0
H1150 H 0.79903 0.90399 0.14999 0.0
H1151 H 0.82413 0.92144 0.13377 0.0
C1152 C 0.42972 0.54802 0.37295 0.0
C1153 C 0.43634 0.54971 0.39129 0.0
C1154 C 0.40694 0.56653 0.3653 0.0
C1155 C 0.39066 0.58733 0.37625 0.0
C1156 C 0.39653 0.58836 0.39485 0.0
C1157 C 0.41918 0.56945 0.40215 0.0
C1158 C 0.40099 0.56454 0.34545 0.0
C1159 C 0.37973 0.61032 0.40697 0.0
C1160 C 0.35794 0.66062 0.35714 0.0
C1161 C 0.32649 0.65436 0.35721 0.0
C1162 C 0.37919 0.63856 0.36268 0.0
C1163 C 0.36874 0.60942 0.36825 0.0
C1164 C 0.33715 0.60245 0.36754 0.0
C1165 C 0.31635 0.62508 0.36211 0.0
C1166 C 0.4127 0.64692 0.36336 0.0
C1167 C 0.3252 0.5715 0.37315 0.0
H1168 H 0.44279 0.53272 0.36448 0.0
H1169 H 0.42405 0.57088 0.41634 0.0
H1170 H 0.37617 0.56163 0.34286 0.0
H1171 H 0.40816 0.58616 0.33891 0.0
H1172 H 0.41355 0.5453 0.33911 0.0
H1173 H 0.38606 0.60734 0.42125 0.0
H1174 H 0.38496 0.6342 0.40298 0.0
H1175 H 0.35466 0.60712 0.40563 0.0
H1176 H 0.36597 0.68316 0.35334 0.0
H1177 H 0.29209 0.61999 0.36205 0.0
H1178 H 0.4265 0.6297 0.35605 0.0
H1179 H 0.42063 0.64694 0.37746 0.0
H1180 H 0.41728 0.66982 0.3575 0.0
H1181 H 0.33823 0.55305 0.36639 0.0
H1182 H 0.30052 0.56866 0.37004 0.0
H1183 H 0.32843 0.56852 0.38777 0.0
C1184 C 0.38127 0.07818 0.11343 0.0
C1185 C 0.40262 0.07275 0.12708 0.0
C1186 C 0.35908 0.10121 0.11515 0.0
C1187 C 0.35847 0.11936 0.13081 0.0
C1188 C 0.37974 0.11376 0.1447 0.0
C1189 C 0.40147 0.09044 0.1427 0.0
C1190 C 0.33657 0.10636 0.10013 0.0
C1191 C 0.37994 0.13279 0.16157 0.0
C1192 C 0.32529 0.19939 0.13024 0.0
C1193 C 0.29774 0.19526 0.13957 0.0
C1194 C 0.34476 0.17465 0.12671 0.0
C1195 C 0.33637 0.14501 0.13253 0.0
C1196 C 0.30788 0.14041 0.14113 0.0
C1197 C 0.28893 0.16564 0.1446 0.0
C1198 C 0.37499 0.18049 0.11753 0.0
C1199 C 0.29802 0.10906 0.14733 0.0
H1200 H 0.38191 0.06449 0.10135 0.0
H1201 H 0.4179 0.08641 0.1533 0.0
H1202 H 0.31282 0.10514 0.10532 0.0
H1203 H 0.33979 0.12958 0.09446 0.0
H1204 H 0.33919 0.08935 0.08921 0.0
H1205 H 0.39763 0.12512 0.17124 0.0
H1206 H 0.38431 0.15711 0.15818 0.0
H1207 H 0.35725 0.13167 0.16819 0.0
H1208 H 0.33228 0.22218 0.12625 0.0
H1209 H 0.2676 0.16222 0.15172 0.0
H1210 H 0.37781 0.16488 0.10596 0.0
H1211 H 0.394 0.17575 0.12697 0.0
H1212 H 0.37714 0.20445 0.11275 0.0
H1213 H 0.30026 0.09225 0.13629 0.0
H1214 H 0.27401 0.10884 0.1522 0.0
H1215 H 0.31314 0.10132 0.15835 0.0
C1216 C 0.59529 0.54704 0.89033 0.0
C1217 C 0.5663 0.54662 0.8823 0.0
C1218 C 0.61681 0.56964 0.88592 0.0
C1219 C 0.60915 0.59226 0.87314 0.0
C1220 C 0.58074 0.59073 0.86411 0.0
C1221 C 0.55963 0.56793 0.86881 0.0
C1222 C 0.64696 0.57042 0.89576 0.0
C1223 C 0.57183 0.61429 0.8503 0.0
C1224 C 0.64473 0.67058 0.87953 0.0
C1225 C 0.66793 0.67059 0.86659 0.0
C1226 C 0.62537 0.64529 0.88166 0.0
C1227 C 0.62938 0.61926 0.87064 0.0
C1228 C 0.65264 0.61913 0.85748 0.0
C1229 C 0.67163 0.64485 0.85557 0.0
C1230 C 0.60069 0.64638 0.8958 0.0
C1231 C 0.65759 0.59176 0.84552 0.0
H1232 H 0.60072 0.53058 0.9007 0.0
H1233 H 0.53738 0.56764 0.86242 0.0
H1234 H 0.66619 0.57319 0.88622 0.0
H1235 H 0.64738 0.59037 0.90493 0.0
H1236 H 0.65083 0.54937 0.90377 0.0
H1237 H 0.55063 0.60784 0.84303 0.0
H1238 H 0.56798 0.63664 0.85696 0.0
H1239 H 0.59052 0.61751 0.84043 0.0
H1240 H 0.64162 0.6904 0.88804 0.0
H1241 H 0.68954 0.64467 0.84555 0.0
H1242 H 0.60414 0.62763 0.90559 0.0
H1243 H 0.57793 0.64288 0.88955 0.0
H1244 H 0.60041 0.66847 0.90314 0.0
H1245 H 0.66311 0.57138 0.85375 0.0
H1246 H 0.6764 0.59545 0.83576 0.0
H1247 H 0.63631 0.58649 0.83805 0.0
C1248 C 0.19347 0.82202 0.61588 0.0
C1249 C 0.21072 0.82587 0.63155 0.0
C1250 C 0.17073 0.84312 0.6111 0.0
C1251 C 0.16492 0.86849 0.62235 0.0
C1252 C 0.18351 0.87352 0.63757 0.0
C1253 C 0.20632 0.85221 0.64194 0.0
C1254 C 0.15172 0.83723 0.59459 0.0
C1255 C 0.17797 0.90026 0.64993 0.0
C1256 C 0.1129 0.93274 0.60649 0.0
C1257 C 0.08485 0.92429 0.61421 0.0
C1258 C 0.13919 0.91471 0.60888 0.0
C1259 C 0.13739 0.88778 0.61932 0.0
C1260 C 0.10914 0.87912 0.62708 0.0
C1261 C 0.08322 0.89741 0.62438 0.0
C1262 C 0.16886 0.92449 0.60027 0.0
C1263 C 0.10631 0.8506 0.63838 0.0
H1264 H 0.19691 0.80185 0.60769 0.0
H1265 H 0.21955 0.8554 0.65406 0.0
H1266 H 0.12831 0.83022 0.59862 0.0
H1267 H 0.14955 0.85838 0.5865 0.0
H1268 H 0.16163 0.81892 0.58608 0.0
H1269 H 0.19639 0.90277 0.66006 0.0
H1270 H 0.17622 0.92184 0.6422 0.0
H1271 H 0.15591 0.89699 0.65703 0.0
H1272 H 0.11433 0.95344 0.59856 0.0
H1273 H 0.06169 0.89073 0.63042 0.0
H1274 H 0.17749 0.90606 0.5914 0.0
H1275 H 0.18648 0.92838 0.6107 0.0
H1276 H 0.16631 0.94575 0.59228 0.0
H1277 H 0.11287 0.83023 0.63041 0.0
H1278 H 0.08272 0.84716 0.64353 0.0
H1279 H 0.12219 0.85193 0.64993 0.0
C1280 C 0.94325 0.41972 0.3636 0.0
C1281 C 0.93673 0.44826 0.3713 0.0
C1282 C 0.91995 0.39841 0.3603 0.0
C1283 C 0.88935 0.40592 0.36464 0.0
C1284 C 0.88239 0.4353 0.37147 0.0
C1285 C 0.90619 0.45611 0.37478 0.0
C1286 C 0.92831 0.36729 0.35303 0.0
C1287 C 0.84997 0.44425 0.37605 0.0
C1288 C 0.82679 0.35426 0.34636 0.0
C1289 C 0.82111 0.3351 0.36105 0.0
C1290 C 0.84854 0.37785 0.3474 0.0
C1291 C 0.86515 0.38212 0.36345 0.0
C1292 C 0.85933 0.363 0.37836 0.0
C1293 C 0.83729 0.33983 0.377 0.0
C1294 C 0.85394 0.39799 0.33131 0.0
C1295 C 0.87675 0.36671 0.39568 0.0
H1296 H 0.96675 0.41347 0.36079 0.0
H1297 H 0.90092 0.47818 0.38061 0.0
H1298 H 0.92385 0.34962 0.36336 0.0
H1299 H 0.91394 0.36165 0.34126 0.0
H1300 H 0.95275 0.36589 0.34904 0.0
H1301 H 0.84797 0.46891 0.37943 0.0
H1302 H 0.83444 0.43913 0.36471 0.0
H1303 H 0.84197 0.43066 0.38768 0.0
H1304 H 0.81425 0.35084 0.33401 0.0
H1305 H 0.83308 0.32511 0.3884 0.0
H1306 H 0.87785 0.39531 0.32659 0.0
H1307 H 0.85085 0.42237 0.335 0.0
H1308 H 0.83824 0.39248 0.32008 0.0
H1309 H 0.90157 0.36334 0.39326 0.0
H1310 H 0.8692 0.35021 0.40608 0.0
H1311 H 0.87373 0.39023 0.40093 0.0
C1312 C 0.27996 0.82884 0.36233 0.0
C1313 C 0.28443 0.79826 0.36734 0.0
C1314 C 0.30208 0.8512 0.36615 0.0
C1315 C 0.3294 0.84266 0.375 0.0
C1316 C 0.33347 0.81209 0.38073 0.0
C1317 C 0.31085 0.79031 0.37693 0.0
C1318 C 0.29675 0.88371 0.36009 0.0
C1319 C 0.36238 0.80204 0.39011 0.0
C1320 C 0.40112 0.88896 0.36586 0.0
C1321 C 0.40392 0.90612 0.3816 0.0
C1322 C 0.37687 0.86835 0.36353 0.0
C1323 C 0.35467 0.8651 0.37719 0.0
C1324 C 0.35713 0.88264 0.39303 0.0
C1325 C 0.38186 0.90281 0.3951 0.0
C1326 C 0.37521 0.84976 0.34653 0.0
C1327 C 0.33369 0.88003 0.40779 0.0
H1328 H 0.25953 0.83519 0.35501 0.0
H1329 H 0.31454 0.76673 0.38086 0.0
H1330 H 0.30079 0.89984 0.3713 0.0
H1331 H 0.31319 0.88959 0.34933 0.0
H1332 H 0.27318 0.88722 0.35494 0.0
H1333 H 0.36117 0.77789 0.39467 0.0
H1334 H 0.38213 0.80445 0.38089 0.0
H1335 H 0.36693 0.81684 0.40186 0.0
H1336 H 0.41813 0.89135 0.3554 0.0
H1337 H 0.38378 0.91617 0.40727 0.0
H1338 H 0.35322 0.85414 0.33959 0.0
H1339 H 0.37599 0.82501 0.34977 0.0
H1340 H 0.39424 0.85509 0.33718 0.0
H1341 H 0.31052 0.88483 0.40244 0.0
H1342 H 0.33836 0.89602 0.41901 0.0
H1343 H 0.3334 0.85635 0.41312 0.0
C1344 C 0.9338 0.55182 0.12751 0.0
C1345 C 0.92887 0.53175 0.11315 0.0
C1346 C 0.91074 0.57178 0.13331 0.0
C1347 C 0.88207 0.57169 0.12452 0.0
C1348 C 0.87634 0.55026 0.11073 0.0
C1349 C 0.89982 0.53049 0.10522 0.0
C1350 C 0.91767 0.59415 0.14816 0.0
C1351 C 0.84601 0.54941 0.10109 0.0
C1352 C 0.81641 0.61564 0.14582 0.0
C1353 C 0.81804 0.64364 0.13669 0.0
C1354 C 0.83688 0.59179 0.1419 0.0
C1355 C 0.85936 0.59606 0.12851 0.0
C1356 C 0.86081 0.6241 0.11909 0.0
C1357 C 0.84018 0.64754 0.12331 0.0
C1358 C 0.83472 0.5622 0.15223 0.0
C1359 C 0.8844 0.62951 0.10466 0.0
H1360 H 0.9561 0.5528 0.13382 0.0
H1361 H 0.89574 0.51497 0.09417 0.0
H1362 H 0.91865 0.61767 0.14262 0.0
H1363 H 0.89925 0.59375 0.15835 0.0
H1364 H 0.93982 0.58916 0.15483 0.0
H1365 H 0.84399 0.52924 0.09213 0.0
H1366 H 0.82684 0.54897 0.11081 0.0
H1367 H 0.84341 0.57042 0.0929 0.0
H1368 H 0.79935 0.61244 0.15617 0.0
H1369 H 0.84153 0.66903 0.11612 0.0
H1370 H 0.85623 0.55831 0.15977 0.0
H1371 H 0.83192 0.54269 0.14289 0.0
H1372 H 0.81531 0.56214 0.16183 0.0
H1373 H 0.90773 0.62771 0.11041 0.0
H1374 H 0.88199 0.65235 0.0983 0.0
H1375 H 0.88238 0.61174 0.09413 0.0
C1376 C 0.18028 0.19783 0.87301 0.0
C1377 C 0.20871 0.19154 0.8651 0.0
C1378 C 0.15982 0.17422 0.87724 0.0
C1379 C 0.16812 0.14355 0.87368 0.0
C1380 C 0.19748 0.1369 0.8667 0.0
C1381 C 0.21739 0.16101 0.86239 0.0
C1382 C 0.12865 0.18228 0.88459 0.0
C1383 C 0.20732 0.10441 0.86301 0.0
C1384 C 0.11802 0.08211 0.89455 0.0
C1385 C 0.09846 0.07483 0.88029 0.0
C1386 C 0.14145 0.10381 0.89248 0.0
C1387 C 0.14507 0.11883 0.87585 0.0
C1388 C 0.12565 0.11126 0.86135 0.0
C1389 C 0.10271 0.08922 0.86372 0.0
C1390 C 0.16201 0.111 0.90815 0.0
C1391 C 0.12859 0.12701 0.84344 0.0
H1392 H 0.17337 0.22134 0.87521 0.0
H1393 H 0.2394 0.15595 0.85641 0.0
H1394 H 0.11082 0.17627 0.87462 0.0
H1395 H 0.12385 0.16889 0.89687 0.0
H1396 H 0.12657 0.207 0.88778 0.0
H1397 H 0.23199 0.10286 0.85955 0.0
H1398 H 0.20281 0.08972 0.87482 0.0
H1399 H 0.19381 0.09504 0.85171 0.0
H1400 H 0.11499 0.0709 0.90736 0.0
H1401 H 0.08767 0.08375 0.85265 0.0
H1402 H 0.15866 0.1351 0.91234 0.0
H1403 H 0.18635 0.1085 0.9042 0.0
H1404 H 0.15747 0.09592 0.91981 0.0
H1405 H 0.1246 0.15192 0.84505 0.0
H1406 H 0.1121 0.11802 0.83343 0.0
H1407 H 0.15209 0.12408 0.83812 0.0
C1408 C 0.56544 0.44135 0.63013 0.0
C1409 C 0.56719 0.46133 0.61549 0.0
C1410 C 0.58834 0.41951 0.63324 0.0
C1411 C 0.61338 0.41743 0.6213 0.0
C1412 C 0.61624 0.43878 0.60716 0.0
C1413 C 0.59318 0.46062 0.60449 0.0
C1414 C 0.58473 0.39747 0.64864 0.0
C1415 C 0.64255 0.43724 0.5941 0.0
C1416 C 0.68173 0.36765 0.63315 0.0
C1417 C 0.67457 0.34038 0.62417 0.0
C1418 C 0.66199 0.39296 0.63245 0.0
C1419 C 0.63464 0.39099 0.62239 0.0
C1420 C 0.6274 0.36358 0.61323 0.0
C1421 C 0.64737 0.33859 0.6143 0.0
C1422 C 0.67027 0.42172 0.64253 0.0
C1423 C 0.59854 0.36066 0.60224 0.0
H1424 H 0.54555 0.44193 0.63879 0.0
H1425 H 0.59475 0.47598 0.59314 0.0
H1426 H 0.57912 0.3744 0.64339 0.0
H1427 H 0.60644 0.3955 0.65623 0.0
H1428 H 0.56627 0.40456 0.65797 0.0
H1429 H 0.64324 0.45742 0.58508 0.0
H1430 H 0.66465 0.43568 0.60133 0.0
H1431 H 0.64033 0.41634 0.58579 0.0
H1432 H 0.70266 0.36916 0.64088 0.0
H1433 H 0.64171 0.31765 0.60729 0.0
H1434 H 0.65202 0.42731 0.6523 0.0
H1435 H 0.67197 0.44127 0.63313 0.0
H1436 H 0.69231 0.4195 0.64981 0.0
H1437 H 0.57821 0.36429 0.61087 0.0
H1438 H 0.59648 0.33791 0.59574 0.0
H1439 H 0.59811 0.37853 0.59171 0.0
C1440 C 0.24855 0.25845 0.21395 0.0
C1441 C 0.26395 0.28593 0.21034 0.0
C1442 C 0.24073 0.25028 0.23149 0.0
C1443 C 0.2485 0.27006 0.24575 0.0
C1444 C 0.26399 0.29784 0.24223 0.0
C1445 C 0.27155 0.30546 0.22454 0.0
C1446 C 0.22426 0.22042 0.23475 0.0
C1447 C 0.27266 0.31945 0.25714 0.0
C1448 C 0.20544 0.26096 0.28951 0.0
C1449 C 0.22621 0.24374 0.29964 0.0
C1450 C 0.21247 0.26988 0.27195 0.0
C1451 C 0.2409 0.26133 0.2644 0.0
C1452 C 0.26197 0.244 0.27457 0.0
C1453 C 0.25437 0.23542 0.29206 0.0
C1454 C 0.18946 0.28835 0.26146 0.0
C1455 C 0.2925 0.23443 0.26693 0.0
H1456 H 0.24257 0.24322 0.20306 0.0
H1457 H 0.2834 0.32674 0.22185 0.0
H1458 H 0.23817 0.2056 0.24363 0.0
H1459 H 0.20223 0.22474 0.24168 0.0
H1460 H 0.21954 0.2078 0.22216 0.0
H1461 H 0.2843 0.34035 0.25213 0.0
H1462 H 0.25193 0.32641 0.26468 0.0
H1463 H 0.28809 0.30773 0.26672 0.0
H1464 H 0.18368 0.26753 0.29528 0.0
H1465 H 0.27057 0.22212 0.29981 0.0
H1466 H 0.18269 0.27573 0.24921 0.0
H1467 H 0.19986 0.31026 0.2571 0.0
H1468 H 0.16854 0.29346 0.26936 0.0
H1469 H 0.28896 0.22013 0.25485 0.0
H1470 H 0.30644 0.22127 0.27668 0.0
H1471 H 0.30567 0.2549 0.26273 0.0
C1472 C 0.99275 0.00459 0.53938 0.0
C1473 C 0.02349 0.00436 0.54476 0.0
C1474 C 0.98482 0.00678 0.52125 0.0
C1475 C 0.0082 0.00865 0.5082 0.0
C1476 C 0.03926 0.00826 0.51352 0.0
C1477 C 0.04654 0.00619 0.53175 0.0
C1478 C 0.95143 0.00725 0.51606 0.0
C1479 C 0.06479 0.01007 0.49995 0.0
C1480 C 0.9883 0.98714 0.46044 0.0
C1481 C 0.98446 0.01594 0.45249 0.0
C1482 C 0.99617 0.98442 0.47856 0.0
C1483 C 0.00012 0.01115 0.48897 0.0
C1484 C 0.99625 0.04029 0.48104 0.0
C1485 C 0.98854 0.04234 0.46287 0.0
C1486 C 0.00026 0.95297 0.48655 0.0
C1487 C 0.00016 0.06929 0.49177 0.0
H1488 H 0.9748 0.00323 0.54935 0.0
H1489 H 0.07035 0.00596 0.53579 0.0
H1490 H 0.94612 0.02868 0.50876 0.0
H1491 H 0.94635 0.98795 0.5069 0.0
H1492 H 0.93605 0.00558 0.52785 0.0
H1493 H 0.08777 0.00918 0.50627 0.0
H1494 H 0.06285 0.9909 0.49029 0.0
H1495 H 0.06293 0.03163 0.4922 0.0
H1496 H 0.98527 0.96663 0.45249 0.0
H1497 H 0.98557 0.06467 0.45684 0.0
H1498 H 0.98394 0.94967 0.49775 0.0
H1499 H 0.02365 0.95067 0.49214 0.0
H1500 H 0.9966 0.93448 0.47659 0.0
H1501 H 0.98389 0.06945 0.50316 0.0
H1502 H 0.99631 0.09016 0.4836 0.0
H1503 H 0.02357 0.07029 0.49747 0.0
C1504 C 0.21166 0.77587 0.7114 0.0
C1505 C 0.23246 0.76036 0.70039 0.0
C1506 C 0.21784 0.78033 0.72963 0.0
C1507 C 0.2454 0.76888 0.73698 0.0
C1508 C 0.26637 0.75301 0.72596 0.0
C1509 C 0.25967 0.749 0.7078 0.0
C1510 C 0.19502 0.79746 0.74101 0.0
C1511 C 0.29594 0.74037 0.73336 0.0
C1512 C 0.27605 0.80424 0.77966 0.0
C1513 C 0.26672 0.78288 0.79255 0.0
C1514 C 0.2691 0.80004 0.76152 0.0
C1515 C 0.25255 0.77378 0.75616 0.0
C1516 C 0.24323 0.75202 0.76907 0.0
C1517 C 0.25039 0.75685 0.78713 0.0
C1518 C 0.27939 0.82373 0.7481 0.0
C1519 C 0.22571 0.72364 0.76379 0.0
H1520 H 0.19061 0.78473 0.70576 0.0
H1521 H 0.27584 0.73688 0.69939 0.0
H1522 H 0.18743 0.78288 0.75232 0.0
H1523 H 0.20595 0.81807 0.74684 0.0
H1524 H 0.17457 0.80469 0.73327 0.0
H1525 H 0.30957 0.72818 0.72304 0.0
H1526 H 0.31003 0.75921 0.73891 0.0
H1527 H 0.29106 0.7243 0.74448 0.0
H1528 H 0.2886 0.82444 0.78374 0.0
H1529 H 0.24312 0.74023 0.79701 0.0
H1530 H 0.25931 0.83303 0.74084 0.0
H1531 H 0.29461 0.81304 0.73802 0.0
H1532 H 0.29182 0.84302 0.75449 0.0
H1533 H 0.20409 0.73013 0.75702 0.0
H1534 H 0.22012 0.70897 0.77548 0.0
H1535 H 0.23929 0.71 0.75413 0.0
C1536 C 0.43514 0.98696 0.03856 0.0
C1537 C 0.45857 0.98947 0.05129 0.0
C1538 C 0.44193 0.98377 0.02031 0.0
C1539 C 0.47285 0.98292 0.01472 0.0
C1540 C 0.49658 0.98498 0.02753 0.0
C1541 C 0.48916 0.98829 0.04565 0.0
C1542 C 0.41605 0.98173 0.00699 0.0
C1543 C 0.52984 0.98398 0.02207 0.0
C1544 C 0.4931 0.94986 0.96933 0.0
C1545 C 0.4978 0.97645 0.9592 0.0
C1546 C 0.48458 0.9516 0.98739 0.0
C1547 C 0.48053 0.98061 0.99544 0.0
C1548 C 0.48478 0.00751 0.98522 0.0
C1549 C 0.49345 0.00511 0.96722 0.0
C1550 C 0.48039 0.92244 0.99794 0.0
C1551 C 0.48051 0.03885 0.99334 0.0
H1552 H 0.41146 0.98784 0.04282 0.0
H1553 H 0.50741 0.99006 0.05541 0.0
H1554 H 0.41738 0.00117 0.99748 0.0
H1555 H 0.41808 0.96041 -0.00096 0.0
H1556 H 0.39325 0.98207 0.01355 0.0
H1557 H 0.54553 0.98501 0.03375 0.0
H1558 H 0.5346 0.96269 0.0145 0.0
H1559 H 0.53507 0.00347 0.01307 0.0
H1560 H 0.4964 0.92763 0.96322 0.0
H1561 H 0.4969 0.02575 0.95945 0.0
H1562 H 0.45718 0.92175 0.00392 0.0
H1563 H 0.49705 0.9217 0.00912 0.0
H1564 H 0.48357 0.90169 0.98956 0.0
H1565 H 0.45728 0.04083 -0.0008 0.0
H1566 H 0.48365 0.05747 0.9834 0.0
H1567 H 0.49716 0.04224 0.00436 0.0
C1568 C 0.2312 0.68316 0.28462 0.0
C1569 C 0.23467 0.70663 0.29724 0.0
C1570 C 0.22806 0.68981 0.26635 0.0
C1571 C 0.22828 0.72066 0.26062 0.0
C1572 C 0.23154 0.74446 0.27329 0.0
C1573 C 0.23477 0.73716 0.29145 0.0
C1574 C 0.22474 0.66384 0.25318 0.0
C1575 C 0.23175 0.77764 0.26766 0.0
C1576 C 0.24925 0.73826 0.21249 0.0
C1577 C 0.22042 0.74294 0.20473 0.0
C1578 C 0.25211 0.73079 0.23065 0.0
C1579 C 0.22551 0.72807 0.24131 0.0
C1580 C 0.19633 0.73275 0.23358 0.0
C1581 C 0.19413 0.74006 0.21535 0.0
C1582 C 0.28361 0.72586 0.23843 0.0
C1583 C 0.16747 0.73017 0.24458 0.0
H1584 H 0.23112 0.65953 0.28899 0.0
H1585 H 0.23734 0.75545 0.30112 0.0
H1586 H 0.20311 0.66637 0.24556 0.0
H1587 H 0.24376 0.66451 0.24336 0.0
H1588 H 0.22474 0.64112 0.25983 0.0
H1589 H 0.23399 0.79343 0.27923 0.0
H1590 H 0.25102 0.78189 0.25833 0.0
H1591 H 0.21033 0.78319 0.2604 0.0
H1592 H 0.26968 0.74035 0.20436 0.0
H1593 H 0.17177 0.74367 0.20946 0.0
H1594 H 0.2852 0.70264 0.24434 0.0
H1595 H 0.28779 0.7425 0.24937 0.0
H1596 H 0.30197 0.72844 0.22827 0.0
H1597 H 0.16589 0.70705 0.25062 0.0
H1598 H 0.14654 0.73435 0.23652 0.0
H1599 H 0.16809 0.74689 0.25574 0.0
C1600 C 0.49552 0.98858 0.4638 0.0
C1601 C 0.471 0.96935 0.45932 0.0
C1602 C 0.50148 0.9963 0.48166 0.0
C1603 C 0.48245 0.98453 0.49533 0.0
C1604 C 0.45777 0.96499 0.49093 0.0
C1605 C 0.45236 0.95759 0.47295 0.0
C1606 C 0.52811 0.01711 0.48588 0.0
C1607 C 0.43704 0.95201 0.5052 0.0
C1608 C 0.51498 0.9821 0.54226 0.0
C1609 C 0.50202 0.00834 0.54997 0.0
C1610 C 0.50856 0.97394 0.52454 0.0
C1611 C 0.48865 0.99243 0.51428 0.0
C1612 C 0.47518 0.01874 0.52201 0.0
C1613 C 0.48205 0.02641 0.53979 0.0
C1614 C 0.52336 0.94573 0.51673 0.0
C1615 C 0.45377 0.03893 0.51145 0.0
H1616 H 0.51004 0.99776 0.45335 0.0
H1617 H 0.43334 0.94276 0.46959 0.0
H1618 H 0.51985 0.03785 0.49293 0.0
H1619 H 0.54432 0.00533 0.49499 0.0
H1620 H 0.5407 0.02432 0.47368 0.0
H1621 H 0.41879 0.93722 0.49953 0.0
H1622 H 0.45061 0.93836 0.51486 0.0
H1623 H 0.42613 0.97087 0.5128 0.0
H1624 H 0.53039 0.96795 0.55004 0.0
H1625 H 0.47191 0.04667 0.54567 0.0
H1626 H 0.53782 0.95216 0.50512 0.0
H1627 H 0.50556 0.92976 0.51175 0.0
H1628 H 0.53782 0.93347 0.52662 0.0
H1629 H 0.46591 0.04851 0.49968 0.0
H1630 H 0.44463 0.05815 0.51956 0.0
H1631 H 0.43427 0.02526 0.50631 0.0
C1632 C 0.19718 0.24977 0.78155 0.0
C1633 C 0.22242 0.2506 0.79311 0.0
C1634 C 0.20048 0.2406 0.76367 0.0
C1635 C 0.22966 0.2318 0.75729 0.0
C1636 C 0.25511 0.23202 0.76898 0.0
C1637 C 0.25121 0.24156 0.78673 0.0
C1638 C 0.1729 0.2409 0.75151 0.0
C1639 C 0.28653 0.22253 0.76268 0.0
C1640 C 0.23541 0.18535 0.71449 0.0
C1641 C 0.24387 0.20785 0.70208 0.0
C1642 C 0.23054 0.19281 0.73253 0.0
C1643 C 0.23392 0.22352 0.73819 0.0
C1644 C 0.24203 0.24638 0.72566 0.0
C1645 C 0.24706 0.23825 0.70778 0.0
C1646 C 0.22217 0.1678 0.74558 0.0
C1647 C 0.24557 0.27944 0.73117 0.0
H1648 H 0.17487 0.25674 0.78639 0.0
H1649 H 0.27079 0.24193 0.79562 0.0
H1650 H 0.17669 0.25724 0.74038 0.0
H1651 H 0.1695 0.21798 0.74547 0.0
H1652 H 0.15164 0.24751 0.75868 0.0
H1653 H 0.30364 0.22268 0.77367 0.0
H1654 H 0.28564 0.19922 0.75684 0.0
H1655 H 0.29449 0.23825 0.752 0.0
H1656 H 0.23296 0.16182 0.71017 0.0
H1657 H 0.2534 0.25581 0.69824 0.0
H1658 H 0.20019 0.1733 0.75225 0.0
H1659 H 0.23985 0.16621 0.75619 0.0
H1660 H 0.22003 0.14513 0.73899 0.0
H1661 H 0.22416 0.28771 0.73751 0.0
H1662 H 0.25108 0.29456 0.71967 0.0
H1663 H 0.26406 0.28157 0.74125 0.0
C1664 C 0.00196 0.00486 0.96266 0.0
C1665 C 0.00438 0.0335 0.95432 0.0
C1666 C 0.99539 0.00251 0.98094 0.0
C1667 C 0.99128 0.02945 0.99114 0.0
C1668 C 0.99327 0.05842 0.98279 0.0
C1669 C -0.00026 0.0601 0.96444 0.0
C1670 C 0.99328 0.9712 0.9894 0.0
C1671 C 0.98911 0.08761 0.9933 0.0
C1672 C 0.95139 0.02139 0.03595 0.0
C1673 C 0.97636 0.01966 0.04769 0.0
C1674 C 0.95586 0.02504 0.0175 0.0
C1675 C 0.98599 0.0272 0.01069 0.0
C1676 C 0.01125 0.02612 0.0225 0.0
C1677 C 0.00613 0.02227 0.04086 0.0
C1678 C 0.92842 0.02596 0.00525 0.0
C1679 C 0.04371 0.02853 0.01572 0.0
H1680 H 0.00538 0.98419 0.95491 0.0
H1681 H 0.00155 0.08231 0.95808 0.0
H1682 H 0.01132 0.96866 -0.00027 0.0
H1683 H 0.9709 0.96845 0.99621 0.0
H1684 H 0.99593 0.95251 0.97946 0.0
H1685 H 0.99038 0.10828 0.98468 0.0
H1686 H 0.96667 0.08744 0.00023 0.0
H1687 H 0.00704 0.08931 0.00375 0.0
H1688 H 0.92832 0.01937 0.04114 0.0
H1689 H 0.02553 0.0211 0.04986 0.0
H1690 H 0.92921 0.00631 0.99587 0.0
H1691 H 0.92882 0.04711 0.99706 0.0
H1692 H 0.90647 0.02508 0.01273 0.0
H1693 H 0.04877 0.00905 0.00668 0.0
H1694 H 0.06074 0.02851 0.02674 0.0
H1695 H 0.04659 0.04981 0.00782 0.0
C1696 C 0.75208 0.75766 0.71011 0.0
C1697 C 0.73795 0.78278 0.7019 0.0
C1698 C 0.74775 0.75164 0.72835 0.0
C1699 C 0.72916 0.77144 0.73864 0.0
C1700 C 0.71498 0.79695 0.73047 0.0
C1701 C 0.71941 0.80222 0.71214 0.0
C1702 C 0.763 0.72404 0.7366 0.0
C1703 C 0.69527 0.81873 0.74109 0.0
C1704 C 0.69711 0.7403 0.78213 0.0
C1705 C 0.71825 0.75153 0.7946 0.0
C1706 C 0.70015 0.74693 0.76386 0.0
C1707 C 0.72474 0.76547 0.758 0.0
C1708 C 0.7457 0.77751 0.77058 0.0
C1709 C 0.74229 0.77026 0.78874 0.0
C1710 C 0.67748 0.73353 0.75078 0.0
C1711 C 0.772 0.79764 0.76484 0.0
H1712 H 0.7663 0.74245 0.70224 0.0
H1713 H 0.70853 0.82175 0.70588 0.0
H1714 H 0.77861 0.73134 0.74749 0.0
H1715 H 0.7455 0.70884 0.74265 0.0
H1716 H 0.77635 0.71065 0.72667 0.0
H1717 H 0.68603 0.83759 0.73274 0.0
H1718 H 0.67583 0.80619 0.74719 0.0
H1719 H 0.70877 0.8288 0.7522 0.0
H1720 H 0.67851 0.72577 0.78657 0.0
H1721 H 0.7586 0.77918 0.79833 0.0
H1722 H 0.68953 0.71821 0.74128 0.0
H1723 H 0.66672 0.752 0.7428 0.0
H1724 H 0.65916 0.72027 0.75756 0.0
H1725 H 0.78757 0.78462 0.75593 0.0
H1726 H 0.78542 0.80633 0.77639 0.0
H1727 H 0.76333 0.81745 0.75707 0.0
C1728 C 0.75754 0.18188 0.20986 0.0
C1729 C 0.7538 0.20608 0.19774 0.0
C1730 C 0.76178 0.1875 0.22816 0.0
C1731 C 0.76247 0.21803 0.23443 0.0
C1732 C 0.75903 0.24255 0.22224 0.0
C1733 C 0.75464 0.23627 0.20404 0.0
C1734 C 0.76522 0.1608 0.24082 0.0
C1735 C 0.7598 0.27542 0.22844 0.0
C1736 C 0.74359 0.23481 0.28289 0.0
C1737 C 0.77276 0.23925 0.29027 0.0
C1738 C 0.73996 0.22736 0.26479 0.0
C1739 C 0.76613 0.22442 0.25379 0.0
C1740 C 0.79566 0.22845 0.26118 0.0
C1741 C 0.79863 0.23575 0.27937 0.0
C1742 C 0.70811 0.22307 0.25738 0.0
C1743 C 0.82406 0.22558 0.24981 0.0
H1744 H 0.75691 0.15849 0.20508 0.0
H1745 H 0.75191 0.25509 0.19474 0.0
H1746 H 0.78715 0.16262 0.2482 0.0
H1747 H 0.74657 0.16122 0.25089 0.0
H1748 H 0.76461 0.13846 0.23376 0.0
H1749 H 0.75749 0.29185 0.21719 0.0
H1750 H 0.74098 0.2796 0.23809 0.0
H1751 H 0.78161 0.28013 0.23552 0.0
H1752 H 0.72348 0.23734 0.29124 0.0
H1753 H 0.82124 0.23914 0.28498 0.0
H1754 H 0.70608 0.20026 0.25098 0.0
H1755 H 0.70357 0.24044 0.2469 0.0
H1756 H 0.69021 0.22508 0.26786 0.0
H1757 H 0.82467 0.20284 0.24324 0.0
H1758 H 0.84537 0.22854 0.25772 0.0
H1759 H 0.82367 0.24304 0.23905 0.0
C1760 C 0.78614 0.20763 0.76676 0.0
C1761 C 0.76659 0.21885 0.78009 0.0
C1762 C 0.7846 0.21887 0.74922 0.0
C1763 C 0.76262 0.24145 0.74488 0.0
C1764 C 0.74236 0.25236 0.75819 0.0
C1765 C 0.74477 0.24111 0.7757 0.0
C1766 C 0.80683 0.20697 0.73541 0.0
C1767 C 0.71827 0.27602 0.75395 0.0
C1768 C 0.7769 0.29079 0.70397 0.0
C1769 C 0.75951 0.27558 0.69099 0.0
C1770 C 0.77806 0.27996 0.72162 0.0
C1771 C 0.76097 0.25368 0.7264 0.0
C1772 C 0.74282 0.23867 0.71343 0.0
C1773 C 0.74254 0.24964 0.69583 0.0
C1774 C 0.79803 0.29627 0.73507 0.0
C1775 C 0.72387 0.21092 0.71812 0.0
H1776 H 0.80319 0.19059 0.77011 0.0
H1777 H 0.72952 0.24974 0.78596 0.0
H1778 H 0.79419 0.19664 0.72405 0.0
H1779 H 0.82059 0.22616 0.72996 0.0
H1780 H 0.82266 0.18954 0.74099 0.0
H1781 H 0.70364 0.28136 0.76569 0.0
H1782 H 0.72931 0.29745 0.74933 0.0
H1783 H 0.70344 0.26779 0.74291 0.0
H1784 H 0.79016 0.31075 0.70024 0.0
H1785 H 0.72886 0.23795 0.68585 0.0
H1786 H 0.81561 0.28031 0.7403 0.0
H1787 H 0.78408 0.30392 0.74662 0.0
H1788 H 0.80975 0.31648 0.72922 0.0
H1789 H 0.739 0.19205 0.72258 0.0
H1790 H 0.70998 0.2027 0.70664 0.0
H1791 H 0.70827 0.21631 0.7294 0.0
C1792 C 0.7436 0.74644 0.28067 0.0
C1793 C 0.75111 0.77511 0.28786 0.0
C1794 C 0.74363 0.74153 0.26214 0.0
C1795 C 0.75134 0.76588 0.25053 0.0
C1796 C 0.75919 0.79481 0.25768 0.0
C1797 C 0.75899 0.79909 0.27628 0.0
C1798 C 0.73517 0.71034 0.25499 0.0
C1799 C 0.76755 0.8213 0.24567 0.0
C1800 C 0.77638 0.7459 0.20337 0.0
C1801 C 0.74941 0.75092 0.19363 0.0
C1802 C 0.7774 0.75088 0.22189 0.0
C1803 C 0.75082 0.76112 0.23087 0.0
C1804 C 0.72356 0.76633 0.22113 0.0
C1805 C 0.72318 0.76116 0.20262 0.0
C1806 C 0.80686 0.74503 0.23186 0.0
C1807 C 0.69476 0.77724 0.23028 0.0
H1808 H 0.73748 0.72777 0.28952 0.0
H1809 H 0.76482 0.82131 0.28173 0.0
H1810 H 0.71473 0.71217 0.24627 0.0
H1811 H 0.75408 0.70118 0.24667 0.0
H1812 H 0.73018 0.69371 0.26584 0.0
H1813 H 0.77354 0.8422 0.25335 0.0
H1814 H 0.78728 0.81502 0.23708 0.0
H1815 H 0.74814 0.8267 0.23665 0.0
H1816 H 0.79677 0.73801 0.19653 0.0
H1817 H 0.70226 0.76513 0.19519 0.0
H1818 H 0.80321 0.72718 0.24219 0.0
H1819 H 0.81426 0.76611 0.2389 0.0
H1820 H 0.82561 0.73749 0.22286 0.0
H1821 H 0.68757 0.76041 0.24056 0.0
H1822 H 0.67557 0.78059 0.22074 0.0
H1823 H 0.69917 0.79919 0.23726 0.0
C1824 C 0.51517 0.51334 0.0383 0.0
C1825 C 0.54576 0.51255 0.04394 0.0
C1826 C 0.50771 0.51746 0.02023 0.0
C1827 C 0.53141 0.52072 0.00748 0.0
C1828 C 0.56234 0.5202 0.01309 0.0
C1829 C 0.56915 0.5162 0.03128 0.0
C1830 C 0.47445 0.51804 0.01476 0.0
C1831 C 0.5882 0.52349 -0.00017 0.0
C1832 C 0.51155 0.50067 0.95954 0.0
C1833 C 0.50668 0.52964 0.95201 0.0
C1834 C 0.52012 0.49749 0.97751 0.0
C1835 C 0.52374 0.52391 0.98823 0.0
C1836 C 0.51913 0.55324 0.98069 0.0
C1837 C 0.51073 0.55576 0.96264 0.0
C1838 C 0.52499 0.46583 0.98508 0.0
C1839 C 0.52264 0.58191 0.99177 0.0
H1840 H 0.49694 0.51066 0.048 0.0
H1841 H 0.59284 0.51561 0.03555 0.0
H1842 H 0.46926 0.53962 0.00758 0.0
H1843 H 0.46966 0.49893 0.0054 0.0
H1844 H 0.45877 0.51604 0.02639 0.0
H1845 H 0.61098 0.52324 0.00641 0.0
H1846 H 0.58728 0.50456 0.98997 0.0
H1847 H 0.58575 0.54518 0.99228 0.0
H1848 H 0.50862 0.48037 0.9514 0.0
H1849 H 0.50702 0.57823 0.95691 0.0
H1850 H 0.50839 0.46152 0.99602 0.0
H1851 H 0.54824 0.46399 0.99092 0.0
H1852 H 0.52223 0.44768 0.97481 0.0
H1853 H 0.50596 0.58166 0.00295 0.0
H1854 H 0.519 0.60301 0.98377 0.0
H1855 H 0.54583 0.58279 0.99777 0.0
C1856 C 0.04037 0.52419 0.45355 0.0
C1857 C 0.02158 0.50726 0.44202 0.0
C1858 C 0.03232 0.52849 0.47154 0.0
C1859 C 0.00492 0.51543 0.47814 0.0
C1860 C 0.98577 0.49848 0.46655 0.0
C1861 C 0.99429 0.49467 0.44861 0.0
C1862 C 0.05322 0.54685 0.48352 0.0
C1863 C 0.95642 0.48412 0.47313 0.0
C1864 C 0.99878 0.50112 0.52803 0.0
C1865 C 0.98078 0.52589 0.53361 0.0
C1866 C 0.00672 0.49739 0.50999 0.0
C1867 C 0.99652 0.51904 0.49726 0.0
C1868 C 0.97827 0.54405 0.50277 0.0
C1869 C 0.97054 0.54713 0.52089 0.0
C1870 C 0.02608 0.47033 0.50457 0.0
C1871 C 0.96707 0.56762 0.48954 0.0
H1872 H 0.06143 0.53408 0.44854 0.0
H1873 H 0.97963 0.48155 0.43978 0.0
H1874 H 0.04047 0.56624 0.48952 0.0
H1875 H 0.06148 0.53234 0.4947 0.0
H1876 H 0.07336 0.55605 0.47622 0.0
H1877 H 0.9439 0.47196 0.46234 0.0
H1878 H 0.96149 0.4676 0.484 0.0
H1879 H 0.9412 0.50194 0.47882 0.0
H1880 H 0.00675 0.48457 0.53777 0.0
H1881 H 0.95669 0.56638 0.5251 0.0
H1882 H 0.04762 0.47838 0.49829 0.0
H1883 H 0.01378 0.45641 0.49445 0.0
H1884 H 0.03193 0.45542 0.51611 0.0
H1885 H 0.98683 0.57857 0.48278 0.0
H1886 H 0.95308 0.58572 0.496 0.0
H1887 H 0.95309 0.55643 0.47903 0.0
C1888 C 0.97954 0.54094 0.03201 0.0
C1889 C 0.99285 0.51784 0.04242 0.0
C1890 C 0.9736 0.53631 0.01376 0.0
C1891 C 0.98131 0.50798 0.00578 0.0
C1892 C 0.9948 0.48462 0.01621 0.0
C1893 C 0.00035 0.4898 0.03441 0.0
C1894 C 0.95906 0.56168 0.00302 0.0
C1895 C 0.00343 0.45414 0.00814 0.0
C1896 C 0.94203 0.48391 0.9628 0.0
C1897 C 0.96434 0.49099 0.94996 0.0
C1898 C 0.94713 0.48964 0.98101 0.0
C1899 C 0.97524 0.50264 0.9865 0.0
C1900 C 0.99785 0.50988 0.97363 0.0
C1901 C 0.99211 0.504 0.9555 0.0
C1902 C 0.92248 0.48168 0.99438 0.0
C1903 C 0.02817 0.52363 0.97902 0.0
H1904 H 0.97365 0.56263 0.03811 0.0
H1905 H 0.01072 0.47184 0.04235 0.0
H1906 H 0.97427 0.56826 0.99178 0.0
H1907 H 0.93723 0.55361 0.9971 0.0
H1908 H 0.95436 0.58231 0.01124 0.0
H1909 H 0.01389 0.43844 0.01809 0.0
H1910 H 0.98288 0.44293 0.00241 0.0
H1911 H 0.01989 0.45761 0.99702 0.0
H1912 H 0.92048 0.47394 0.95863 0.0
H1913 H 0.00946 0.50955 0.94566 0.0
H1914 H 0.91599 0.50229 0.00215 0.0
H1915 H 0.93125 0.46454 0.00405 0.0
H1916 H 0.90165 0.47228 0.98789 0.0
H1917 H 0.02439 0.54536 0.98635 0.0
H1918 H 0.04316 0.5283 0.96733 0.0
H1919 H 0.04034 0.50789 0.98822 0.0
C1920 C 0.55093 0.50785 0.46995 0.0
C1921 C 0.52906 0.49921 0.4572 0.0
C1922 C 0.54624 0.50212 0.4882 0.0
C1923 C 0.51898 0.48751 0.49379 0.0
C1924 C 0.49693 0.47849 0.48099 0.0
C1925 C 0.50225 0.48442 0.46283 0.0
C1926 C 0.57028 0.51199 0.50151 0.0
C1927 C 0.46752 0.46297 0.4865 0.0
C1928 C 0.51611 0.45098 0.53983 0.0
C1929 C 0.50115 0.47366 0.54979 0.0
C1930 C 0.5222 0.4552 0.52156 0.0
C1931 C 0.51298 0.48267 0.51312 0.0
C1932 C 0.49782 0.50558 0.52309 0.0
C1933 C 0.49214 0.50083 0.54131 0.0
C1934 C 0.5385 0.43032 0.5113 0.0
C1935 C 0.48756 0.53513 0.51451 0.0
H1936 H 0.57175 0.51919 0.46569 0.0
H1937 H 0.48523 0.47765 0.45306 0.0
H1938 H 0.56049 0.52913 0.51083 0.0
H1939 H 0.57773 0.49215 0.50966 0.0
H1940 H 0.59067 0.52214 0.49492 0.0
H1941 H 0.45311 0.45666 0.47483 0.0
H1942 H 0.47262 0.44197 0.49427 0.0
H1943 H 0.45414 0.47835 0.49533 0.0
H1944 H 0.5232 0.42998 0.54631 0.0
H1945 H 0.48052 0.51845 0.54891 0.0
H1946 H 0.5599 0.43947 0.50538 0.0
H1947 H 0.52394 0.4223 0.50009 0.0
H1948 H 0.54431 0.4104 0.51988 0.0
H1949 H 0.50751 0.54728 0.50872 0.0
H1950 H 0.47602 0.55063 0.52416 0.0
H1951 H 0.47152 0.53022 0.50337 0.0
C1952 C 0.32433 0.16201 0.37445 0.0
C1953 C 0.30541 0.15142 0.36062 0.0
C1954 C 0.3482 0.14376 0.3811 0.0
C1955 C 0.35277 0.11413 0.37395 0.0
C1956 C 0.3344 0.10381 0.35958 0.0
C1957 C 0.31113 0.12268 0.35301 0.0
C1958 C 0.36777 0.1557 0.39619 0.0
C1959 C 0.33827 0.0722 0.35173 0.0
C1960 C 0.42279 0.06485 0.38222 0.0
C1961 C 0.4119 0.04504 0.39554 0.0
C1962 C 0.40443 0.08878 0.37573 0.0
C1963 C 0.37443 0.09251 0.38253 0.0
C1964 C 0.36385 0.07332 0.39645 0.0
C1965 C 0.38279 0.04999 0.40286 0.0
C1966 C 0.41666 0.10924 0.36113 0.0
C1967 C 0.33186 0.07631 0.40392 0.0
H1968 H 0.3202 0.18434 0.38025 0.0
H1969 H 0.29667 0.11434 0.34229 0.0
H1970 H 0.36239 0.14303 0.40866 0.0
H1971 H 0.39236 0.15193 0.39324 0.0
H1972 H 0.36398 0.18047 0.39864 0.0
H1973 H 0.32327 0.06835 0.33995 0.0
H1974 H 0.36236 0.06851 0.34761 0.0
H1975 H 0.33275 0.05475 0.36201 0.0
H1976 H 0.44539 0.06133 0.37664 0.0
H1977 H 0.37423 0.03487 0.41321 0.0
H1978 H 0.4122 0.1336 0.36436 0.0
H1979 H 0.40472 0.10411 0.34838 0.0
H1980 H 0.44162 0.10608 0.35904 0.0
H1981 H 0.32753 0.10015 0.40828 0.0
H1982 H 0.32784 0.0608 0.41545 0.0
H1983 H 0.31492 0.07084 0.39333 0.0
C1984 C 0.06135 0.09692 0.61666 0.0
C1985 C 0.06485 0.07156 0.628 0.0
C1986 C 0.0799 0.12292 0.6186 0.0
C1987 C 0.10258 0.12339 0.63209 0.0
C1988 C 0.10485 0.0987 0.64428 0.0
C1989 C 0.08585 0.07314 0.64213 0.0
C1990 C 0.07643 0.14904 0.60556 0.0
C1991 C 0.12873 0.09836 0.65888 0.0
C1992 C 0.17802 0.16374 0.62473 0.0
C1993 C 0.17578 0.18841 0.63665 0.0
C1994 C 0.15368 0.14328 0.62247 0.0
C1995 C 0.12632 0.1477 0.63226 0.0
C1996 C 0.12309 0.17373 0.64335 0.0
C1997 C 0.14795 0.19379 0.64546 0.0
C1998 C 0.158 0.11586 0.61043 0.0
C1999 C 0.09407 0.17946 0.65375 0.0
H2000 H 0.04493 0.09603 0.60581 0.0
H2001 H 0.08856 0.05376 0.65103 0.0
H2002 H 0.07687 0.17131 0.61266 0.0
H2003 H 0.09589 0.14889 0.59603 0.0
H2004 H 0.05484 0.14738 0.59777 0.0
H2005 H 0.12573 0.07878 0.66819 0.0
H2006 H 0.15184 0.09682 0.6528 0.0
H2007 H 0.12786 0.11989 0.66671 0.0
H2008 H 0.19932 0.15956 0.61773 0.0
H2009 H 0.14594 0.2129 0.65461 0.0
H2010 H 0.13877 0.11406 0.60081 0.0
H2011 H 0.15805 0.09467 0.6186 0.0
H2012 H 0.17977 0.11694 0.60279 0.0
H2013 H 0.07371 0.17625 0.6451 0.0
H2014 H 0.09344 0.20286 0.65953 0.0
H2015 H 0.09236 0.16271 0.66486 0.0
C2016 C 0.18717 0.86501 0.85351 0.0
C2017 C 0.1914 0.83453 0.85876 0.0
C2018 C 0.16312 0.8825 0.86039 0.0
C2019 C 0.14239 0.86904 0.87262 0.0
C2020 C 0.14558 0.83783 0.87732 0.0
C2021 C 0.17031 0.82096 0.87046 0.0
C2022 C 0.16081 0.91584 0.85521 0.0
C2023 C 0.12346 0.82258 0.89 0.0
C2024 C 0.10849 0.92733 0.90411 0.0
C2025 C 0.08147 0.9354 0.89517 0.0
C2026 C 0.12768 0.90439 0.89745 0.0
C2027 C 0.11941 0.88875 0.8816 0.0
C2028 C 0.09107 0.89519 0.87324 0.0
C2029 C 0.0725 0.91869 0.88004 0.0
C2030 C 0.15786 0.89849 0.90667 0.0
C2031 C 0.08118 0.87845 0.85656 0.0
H2032 H 0.20333 0.87567 0.84445 0.0
H2033 H 0.17332 0.7973 0.87442 0.0
H2034 H 0.13771 0.92092 0.84986 0.0
H2035 H 0.16421 0.93039 0.86721 0.0
H2036 H 0.17804 0.92244 0.84499 0.0
H2037 H 0.12662 0.79738 0.89041 0.0
H2038 H 0.12683 0.83174 0.9037 0.0
H2039 H 0.09953 0.82766 0.88606 0.0
H2040 H 0.11551 0.93996 0.91589 0.0
H2041 H 0.05146 0.92457 0.87319 0.0
H2042 H 0.17687 0.90627 0.89794 0.0
H2043 H 0.16107 0.87367 0.90905 0.0
H2044 H 0.15965 0.91064 0.91968 0.0
H2045 H 0.09494 0.88651 0.84502 0.0
H2046 H 0.05662 0.88232 0.85349 0.0
H2047 H 0.08522 0.85351 0.85798 0.0
C2048 C 0.34008 0.80126 0.13438 0.0
C2049 C 0.31441 0.80696 0.1236 0.0
C2050 C 0.36683 0.81878 0.1326 0.0
C2051 C 0.36777 0.84266 0.11985 0.0
C2052 C 0.34263 0.84728 0.10822 0.0
C2053 C 0.3163 0.82927 0.11019 0.0
C2054 C 0.39339 0.81284 0.14503 0.0
C2055 C 0.34276 0.87249 0.0944 0.0
C2056 C 0.41286 0.91505 0.12831 0.0
C2057 C 0.43657 0.91244 0.11577 0.0
C2058 C 0.39119 0.89171 0.13041 0.0
C2059 C 0.39342 0.86498 0.11981 0.0
C2060 C 0.41851 0.86122 0.10806 0.0
C2061 C 0.4398 0.88507 0.10613 0.0
C2062 C 0.36484 0.89655 0.14318 0.0
C2063 C 0.42192 0.83282 0.09677 0.0
H2064 H 0.33893 0.78385 0.14468 0.0
H2065 H 0.29668 0.83371 0.10172 0.0
H2066 H 0.41526 0.81259 0.1375 0.0
H2067 H 0.39487 0.83153 0.15503 0.0
H2068 H 0.39091 0.79081 0.15228 0.0
H2069 H 0.32245 0.87152 0.08549 0.0
H2070 H 0.34299 0.89504 0.10122 0.0
H2071 H 0.36369 0.87113 0.08605 0.0
H2072 H 0.41033 0.93598 0.13594 0.0
H2073 H 0.45818 0.88275 0.0965 0.0
H2074 H 0.36241 0.87662 0.15224 0.0
H2075 H 0.34322 0.89863 0.1355 0.0
H2076 H 0.36773 0.91748 0.15143 0.0
H2077 H 0.41812 0.81198 0.10494 0.0
H2078 H 0.44486 0.83137 0.09043 0.0
H2079 H 0.4044 0.83294 0.08603 0.0
C2080 C 0.6887 0.83867 0.60544 0.0
C2081 C 0.69181 0.81663 0.61892 0.0
C2082 C 0.66153 0.85537 0.60357 0.0
C2083 C 0.63685 0.84969 0.61539 0.0
C2084 C 0.63895 0.82576 0.62805 0.0
C2085 C 0.66648 0.80953 0.6297 0.0
C2086 C 0.66009 0.8806 0.58979 0.0
C2087 C 0.61293 0.81867 0.64067 0.0
C2088 C 0.59096 0.92103 0.62488 0.0
C2089 C 0.56694 0.91826 0.61256 0.0
C2090 C 0.61295 0.89796 0.62664 0.0
C2091 C 0.61075 0.87138 0.6159 0.0
C2092 C 0.58526 0.86734 0.60449 0.0
C2093 C 0.56361 0.8909 0.60293 0.0
C2094 C 0.63966 0.90301 0.63912 0.0
C2095 C 0.58188 0.83907 0.59308 0.0
H2096 H 0.70805 0.84411 0.59695 0.0
H2097 H 0.66856 0.79226 0.64004 0.0
H2098 H 0.63878 0.87879 0.58182 0.0
H2099 H 0.65974 0.90311 0.59665 0.0
H2100 H 0.67995 0.88011 0.58053 0.0
H2101 H 0.61606 0.79628 0.64745 0.0
H2102 H 0.61158 0.83673 0.65106 0.0
H2103 H 0.59077 0.81847 0.63344 0.0
H2104 H 0.5935 0.94193 0.63253 0.0
H2105 H 0.54498 0.88846 0.59347 0.0
H2106 H 0.66097 0.90568 0.6312 0.0
H2107 H 0.64276 0.88293 0.648 0.0
H2108 H 0.63668 0.9237 0.64757 0.0
H2109 H 0.59856 0.83998 0.58191 0.0
H2110 H 0.55854 0.83707 0.58732 0.0
H2111 H 0.58689 0.81817 0.60097 0.0
C2112 C 0.93385 0.87955 0.39899 0.0
C2113 C 0.93194 0.90736 0.38968 0.0
C2114 C 0.91285 0.85587 0.39573 0.0
C2115 C 0.8893 0.8603 0.383 0.0
C2116 C 0.88845 0.88757 0.37281 0.0
C2117 C 0.90987 0.91067 0.3762 0.0
C2118 C 0.91486 0.82683 0.40658 0.0
C2119 C 0.86372 0.89321 0.35908 0.0
C2120 C 0.83756 0.79814 0.36473 0.0
C2121 C 0.81065 0.80336 0.37452 0.0
C2122 C 0.86418 0.81515 0.36812 0.0
C2123 C 0.8637 0.8381 0.38145 0.0
C2124 C 0.83719 0.84217 0.39208 0.0
C2125 C 0.81105 0.82461 0.38856 0.0
C2126 C 0.89221 0.80973 0.35676 0.0
C2127 C 0.83574 0.86646 0.40643 0.0
H2128 H 0.95099 0.87668 0.40933 0.0
H2129 H 0.90835 0.93195 0.36882 0.0
H2130 H 0.89608 0.82637 0.41655 0.0
H2131 H 0.91207 0.80648 0.39786 0.0
H2132 H 0.93698 0.82497 0.41381 0.0
H2133 H 0.86752 0.91467 0.35144 0.0
H2134 H 0.86252 0.87389 0.3495 0.0
H2135 H 0.84118 0.89473 0.36586 0.0
H2136 H 0.83754 0.78151 0.35398 0.0
H2137 H 0.79044 0.82867 0.39626 0.0
H2138 H 0.91308 0.809 0.36519 0.0
H2139 H 0.89497 0.8289 0.34717 0.0
H2140 H 0.89058 0.78808 0.34904 0.0
H2141 H 0.85558 0.86442 0.41559 0.0
H2142 H 0.81438 0.86504 0.41444 0.0
H2143 H 0.83689 0.88943 0.40014 0.0
C2144 C 0.83196 0.16519 0.12372 0.0
C2145 C 0.8319 0.18879 0.13642 0.0
C2146 C 0.85636 0.1445 0.12268 0.0
C2147 C 0.88137 0.14755 0.13458 0.0
C2148 C 0.88243 0.1725 0.14661 0.0
C2149 C 0.85763 0.19287 0.1474 0.0
C2150 C 0.85449 0.11833 0.10953 0.0
C2151 C 0.9089 0.1767 0.15934 0.0
C2152 C 0.9187 0.07149 0.1447 0.0
C2153 C 0.94265 0.07109 0.13224 0.0
C2154 C 0.89963 0.0971 0.14636 0.0
C2155 C 0.90478 0.12298 0.13537 0.0
C2156 C 0.93034 0.12364 0.12378 0.0
C2157 C 0.94897 0.09764 0.12232 0.0
C2158 C 0.87269 0.09561 0.15899 0.0
C2159 C 0.93684 0.15098 0.11205 0.0
H2160 H 0.81232 0.16203 0.11507 0.0
H2161 H 0.85786 0.21113 0.1572 0.0
H2162 H 0.8757 0.11709 0.10142 0.0
H2163 H 0.85236 0.09642 0.11692 0.0
H2164 H 0.83464 0.12052 0.10034 0.0
H2165 H 0.90843 0.19946 0.16595 0.0
H2166 H 0.90795 0.15882 0.16985 0.0
H2167 H 0.93101 0.17407 0.15222 0.0
H2168 H 0.91378 0.0512 0.15252 0.0
H2169 H 0.96764 0.09766 0.11278 0.0
H2170 H 0.85114 0.09478 0.15116 0.0
H2171 H 0.87182 0.11638 0.16749 0.0
H2172 H 0.87358 0.07517 0.16781 0.0
H2173 H 0.91969 0.15199 0.10113 0.0
H2174 H 0.95999 0.14986 0.10595 0.0
H2175 H 0.93488 0.17252 0.11981 0.0
C2176 C 0.60838 0.07973 0.90512 0.0
C2177 C 0.58053 0.07145 0.89718 0.0
C2178 C 0.62837 0.10017 0.89666 0.0
C2179 C 0.6201 0.11298 0.87997 0.0
C2180 C 0.59104 0.10652 0.87252 0.0
C2181 C 0.57163 0.08561 0.88116 0.0
C2182 C 0.65925 0.1063 0.905 0.0
C2183 C 0.58118 0.12028 0.85493 0.0
C2184 C 0.67198 0.17643 0.86305 0.0
C2185 C 0.69174 0.16008 0.85178 0.0
C2186 C 0.64762 0.16172 0.87179 0.0
C2187 C 0.64338 0.12988 0.86941 0.0
C2188 C 0.66286 0.11346 0.85773 0.0
C2189 C 0.68662 0.12881 0.84895 0.0
C2190 C 0.62691 0.18003 0.88388 0.0
C2191 C 0.65934 0.07939 0.855 0.0
H2192 H 0.61537 0.06907 0.91755 0.0
H2193 H 0.54998 0.07957 0.87504 0.0
H2194 H 0.67739 0.09575 0.89665 0.0
H2195 H 0.66386 0.13122 0.90552 0.0
H2196 H 0.66102 0.09687 0.91876 0.0
H2197 H 0.55638 0.11681 0.85237 0.0
H2198 H 0.58619 0.14515 0.85464 0.0
H2199 H 0.59422 0.10951 0.84387 0.0
H2200 H 0.6757 0.20067 0.86516 0.0
H2201 H 0.7018 0.11601 0.84028 0.0
H2202 H 0.63038 0.17288 0.89797 0.0
H2203 H 0.60258 0.17558 0.88052 0.0
H2204 H 0.6313 0.20499 0.88287 0.0
H2205 H 0.66291 0.06731 0.86789 0.0
H2206 H 0.67584 0.0702 0.84506 0.0
H2207 H 0.63583 0.074 0.8504 0.0
C2208 C 0.82622 0.65848 0.8394 0.0
C2209 C 0.8174 0.68282 0.85047 0.0
C2210 C 0.84838 0.6374 0.84494 0.0
C2211 C 0.86236 0.64099 0.86188 0.0
C2212 C 0.85547 0.66696 0.87246 0.0
C2213 C 0.83287 0.68752 0.86667 0.0
C2214 C 0.85492 0.60993 0.8333 0.0
C2215 C 0.8704 0.67189 0.89043 0.0
C2216 C 0.88087 0.56696 0.88562 0.0
C2217 C 0.91219 0.5636 0.88215 0.0
C2218 C 0.86466 0.59236 0.87936 0.0
C2219 C 0.88021 0.61528 0.86957 0.0
C2220 C 0.91203 0.61255 0.86641 0.0
C2221 C 0.92766 0.58653 0.87263 0.0
C2222 C 0.83064 0.59422 0.88285 0.0
C2223 C 0.92939 0.63683 0.85626 0.0
H2224 H 0.81462 0.65483 0.82677 0.0
H2225 H 0.82647 0.70652 0.8752 0.0
H2226 H 0.8799 0.60614 0.83206 0.0
H2227 H 0.84496 0.58919 0.83959 0.0
H2228 H 0.84505 0.6124 0.81968 0.0
H2229 H 0.86672 0.6955 0.89548 0.0
H2230 H 0.86063 0.65561 0.90027 0.0
H2231 H 0.89535 0.66745 0.88965 0.0
H2232 H 0.86873 0.54934 0.89295 0.0
H2233 H 0.95194 0.58415 0.87003 0.0
H2234 H 0.81805 0.59452 0.86996 0.0
H2235 H 0.82509 0.61574 0.88999 0.0
H2236 H 0.82214 0.57468 0.89095 0.0
H2237 H 0.92128 0.63763 0.84221 0.0
H2238 H 0.95443 0.63254 0.85623 0.0
H2239 H 0.92502 0.65966 0.86221 0.0
C2240 C 0.69294 0.66763 0.10029 0.0
C2241 C 0.69599 0.68957 0.11385 0.0
C2242 C 0.66633 0.64991 0.0988 0.0
C2243 C 0.64208 0.65441 0.11109 0.0
C2244 C 0.64418 0.67788 0.12405 0.0
C2245 C 0.67117 0.69515 0.12532 0.0
C2246 C 0.66495 0.62514 0.08475 0.0
C2247 C 0.61862 0.68365 0.13721 0.0
C2248 C 0.56834 0.61364 0.09883 0.0
C2249 C 0.57174 0.58594 0.10812 0.0
C2250 C 0.59025 0.63699 0.10039 0.0
C2251 C 0.61615 0.63242 0.11142 0.0
C2252 C 0.6187 0.6053 0.12165 0.0
C2253 C 0.59642 0.58244 0.11992 0.0
C2254 C 0.58652 0.6658 0.08948 0.0
C2255 C 0.64591 0.5996 0.13365 0.0
H2256 H 0.7119 0.66328 0.09131 0.0
H2257 H 0.67322 0.71224 0.13575 0.0
H2258 H 0.66497 0.60239 0.09133 0.0
H2259 H 0.64345 0.62697 0.07694 0.0
H2260 H 0.6846 0.62621 0.07535 0.0
H2261 H 0.62193 0.70533 0.14471 0.0
H2262 H 0.59625 0.68452 0.13023 0.0
H2263 H 0.61756 0.66455 0.14696 0.0
H2264 H 0.54924 0.61664 0.08976 0.0
H2265 H 0.59913 0.56124 0.12726 0.0
H2266 H 0.60343 0.66586 0.07841 0.0
H2267 H 0.59103 0.68631 0.09781 0.0
H2268 H 0.56325 0.66773 0.08362 0.0
H2269 H 0.66691 0.59749 0.12539 0.0
H2270 H 0.64332 0.57841 0.14171 0.0
H2271 H 0.64933 0.61915 0.14288 0.0
C2272 C 0.66203 0.31175 0.36492 0.0
C2273 C 0.67748 0.31992 0.34919 0.0
C2274 C 0.63897 0.33055 0.37198 0.0
C2275 C 0.63164 0.3583 0.36322 0.0
C2276 C 0.64588 0.36569 0.34678 0.0
C2277 C 0.66847 0.34629 0.3399 0.0
C2278 C 0.62381 0.32163 0.38935 0.0
C2279 C 0.63893 0.39522 0.33711 0.0
C2280 C 0.56419 0.4083 0.3764 0.0
C2281 C 0.57855 0.42985 0.38748 0.0
C2282 C 0.58088 0.384 0.3689 0.0
C2283 C 0.61263 0.38165 0.37237 0.0
C2284 C 0.62702 0.403 0.38384 0.0
C2285 C 0.60976 0.42667 0.39133 0.0
C2286 C 0.56475 0.36128 0.35699 0.0
C2287 C 0.66092 0.40151 0.38773 0.0
H2288 H 0.66862 0.29118 0.37205 0.0
H2289 H 0.68014 0.35267 0.32767 0.0
H2290 H 0.63267 0.33627 0.40031 0.0
H2291 H 0.59873 0.32528 0.38859 0.0
H2292 H 0.62826 0.29735 0.39288 0.0
H2293 H 0.64956 0.39605 0.32362 0.0
H2294 H 0.61389 0.39836 0.33566 0.0
H2295 H 0.64772 0.41477 0.34506 0.0
H2296 H 0.54001 0.41054 0.37349 0.0
H2297 H 0.62105 0.4432 0.39988 0.0
H2298 H 0.56999 0.33758 0.36131 0.0
H2299 H 0.5731 0.36375 0.34305 0.0
H2300 H 0.53954 0.36451 0.35705 0.0
H2301 H 0.66695 0.37883 0.39336 0.0
H2302 H 0.66839 0.41946 0.39729 0.0
H2303 H 0.67403 0.40433 0.37512 0.0
C2304 C 0.89571 0.4405 0.61449 0.0
C2305 C 0.92598 0.44227 0.60848 0.0
C2306 C 0.88277 0.4125 0.61944 0.0
C2307 C 0.90039 0.38543 0.61802 0.0
C2308 C 0.93132 0.38713 0.61248 0.0
C2309 C 0.94389 0.41569 0.6079 0.0
C2310 C 0.84986 0.41181 0.62563 0.0
C2311 C 0.95065 0.35873 0.61062 0.0
C2312 C 0.86293 0.31976 0.6425 0.0
C2313 C 0.84341 0.30853 0.62915 0.0
C2314 C 0.88373 0.34338 0.63878 0.0
C2315 C 0.88528 0.35551 0.62124 0.0
C2316 C 0.8679 0.34197 0.60736 0.0
C2317 C 0.84689 0.31883 0.61153 0.0
C2318 C 0.90173 0.35728 0.65397 0.0
C2319 C 0.86946 0.35372 0.5884 0.0
H2320 H 0.88193 0.46109 0.61515 0.0
H2321 H 0.9673 0.41703 0.60317 0.0
H2322 H 0.8357 0.39923 0.61575 0.0
H2323 H 0.84799 0.39955 0.63857 0.0
H2324 H 0.84014 0.43511 0.62728 0.0
H2325 H 0.97513 0.36423 0.60827 0.0
H2326 H 0.94879 0.34426 0.62276 0.0
H2327 H 0.94219 0.34495 0.59918 0.0
H2328 H 0.86031 0.31185 0.65616 0.0
H2329 H 0.83208 0.30987 0.60114 0.0
H2330 H 0.89096 0.37923 0.65794 0.0
H2331 H 0.92554 0.36236 0.64979 0.0
H2332 H 0.90232 0.34204 0.66585 0.0
H2333 H 0.85736 0.37598 0.58753 0.0
H2334 H 0.85864 0.33764 0.57878 0.0
H2335 H 0.89354 0.3576 0.58431 0.0
C2336 C 0.10638 0.42616 0.09454 0.0
C2337 C 0.07831 0.43172 0.10302 0.0
C2338 C 0.1273 0.40515 0.1016 0.0
C2339 C 0.11978 0.38897 0.11738 0.0
C2340 C 0.09064 0.39286 0.12532 0.0
C2341 C 0.07027 0.41442 0.11811 0.0
C2342 C 0.15826 0.40187 0.09282 0.0
C2343 C 0.08161 0.3755 0.14195 0.0
C2344 C 0.17471 0.32503 0.12963 0.0
C2345 C 0.19417 0.34006 0.14169 0.0
C2346 C 0.1494 0.34018 0.12217 0.0
C2347 C 0.14389 0.37113 0.12668 0.0
C2348 C 0.16302 0.3861 0.13919 0.0
C2349 C 0.18777 0.3703 0.14662 0.0
C2350 C 0.12911 0.32339 0.10913 0.0
C2351 C 0.15812 0.41922 0.14421 0.0
H2352 H 0.11271 0.43928 0.08281 0.0
H2353 H 0.04846 0.41837 0.12461 0.0
H2354 H 0.17615 0.41132 0.10178 0.0
H2355 H 0.16372 0.3774 0.09058 0.0
H2356 H 0.15952 0.41404 0.07979 0.0
H2357 H 0.05676 0.37752 0.14482 0.0
H2358 H 0.08753 0.35093 0.1406 0.0
H2359 H 0.09448 0.38458 0.15358 0.0
H2360 H 0.1794 0.30154 0.12589 0.0
H2361 H 0.20267 0.38207 0.15595 0.0
H2362 H 0.13209 0.33313 0.09554 0.0
H2363 H 0.10471 0.32631 0.11283 0.0
H2364 H 0.1344 0.29856 0.10857 0.0
H2365 H 0.16097 0.43388 0.1322 0.0
H2366 H 0.17439 0.42711 0.15465 0.0
H2367 H 0.13448 0.42266 0.1492 0.0
C2368 C 0.39385 0.43094 0.89908 0.0
C2369 C 0.42283 0.43643 0.89171 0.0
C2370 C 0.37461 0.40835 0.89205 0.0
C2371 C 0.38479 0.39041 0.87746 0.0
C2372 C 0.41471 0.39456 0.87063 0.0
C2373 C 0.43333 0.41777 0.87774 0.0
C2374 C 0.34272 0.40491 0.89959 0.0
C2375 C 0.42656 0.37538 0.85535 0.0
C2376 C 0.33397 0.32211 0.86745 0.0
C2377 C 0.31495 0.33407 0.85406 0.0
C2378 C 0.3581 0.33955 0.87455 0.0
C2379 C 0.36281 0.36977 0.86832 0.0
C2380 C 0.34436 0.38148 0.85436 0.0
C2381 C 0.32085 0.3634 0.8473 0.0
C2382 C 0.37776 0.32609 0.88915 0.0
C2383 C 0.34838 0.41375 0.84749 0.0
H2384 H 0.38556 0.44519 0.90991 0.0
H2385 H 0.45584 0.42171 0.8721 0.0
H2386 H 0.32567 0.4115 0.88929 0.0
H2387 H 0.33824 0.38072 0.9032 0.0
H2388 H 0.33901 0.41933 0.91163 0.0
H2389 H 0.45154 0.37846 0.85328 0.0
H2390 H 0.42183 0.3508 0.8578 0.0
H2391 H 0.41458 0.38186 0.84283 0.0
H2392 H 0.3297 0.29933 0.8726 0.0
H2393 H 0.3063 0.3728 0.83694 0.0
H2394 H 0.37257 0.33754 0.90203 0.0
H2395 H 0.40234 0.33004 0.88623 0.0
H2396 H 0.37387 0.30114 0.89079 0.0
H2397 H 0.34315 0.43026 0.85834 0.0
H2398 H 0.33324 0.41879 0.83593 0.0
H2399 H 0.37243 0.41765 0.84337 0.0
C2400 C 0.39012 0.56907 0.60142 0.0
C2401 C 0.4189 0.56379 0.6091 0.0
C2402 C 0.3719 0.59359 0.60698 0.0
C2403 C 0.38289 0.61364 0.62037 0.0
C2404 C 0.41257 0.60943 0.62753 0.0
C2405 C 0.43019 0.58434 0.6219 0.0
C2406 C 0.34021 0.59707 0.59916 0.0
C2407 C 0.42522 0.6307 0.6416 0.0
C2408 C 0.3352 0.68556 0.62593 0.0
C2409 C 0.31549 0.67681 0.63982 0.0
C2410 C 0.35857 0.6659 0.62005 0.0
C2411 C 0.36186 0.63677 0.6281 0.0
C2412 C 0.3428 0.6284 0.64258 0.0
C2413 C 0.32002 0.64859 0.64833 0.0
C2414 C 0.37891 0.67579 0.6048 0.0
C2415 C 0.34533 0.59741 0.65142 0.0
H2416 H 0.38126 0.55336 0.59147 0.0
H2417 H 0.45256 0.58055 0.62775 0.0
H2418 H 0.32285 0.59319 0.60975 0.0
H2419 H 0.33687 0.62063 0.59403 0.0
H2420 H 0.33586 0.5807 0.58808 0.0
H2421 H 0.44998 0.62677 0.64404 0.0
H2422 H 0.42183 0.65489 0.63757 0.0
H2423 H 0.41275 0.62723 0.65436 0.0
H2424 H 0.332 0.70746 0.6194 0.0
H2425 H 0.305 0.64168 0.65914 0.0
H2426 H 0.37325 0.66233 0.59266 0.0
H2427 H 0.40326 0.67128 0.60804 0.0
H2428 H 0.37617 0.70046 0.60162 0.0
H2429 H 0.33931 0.57928 0.64164 0.0
H2430 H 0.33 0.59518 0.6632 0.0
H2431 H 0.36919 0.59318 0.6558 0.0
C2432 C 0.03604 0.60316 0.38325 0.0
C2433 C 0.04222 0.57518 0.37479 0.0
C2434 C 0.0546 0.62887 0.3802 0.0
C2435 C 0.07987 0.62642 0.36845 0.0
C2436 C 0.08491 0.59885 0.35898 0.0
C2437 C 0.066 0.5736 0.36224 0.0
C2438 C 0.04827 0.65801 0.39036 0.0
C2439 C 0.11149 0.59536 0.34622 0.0
C2440 C 0.12689 0.69294 0.35102 0.0
C2441 C 0.15327 0.69049 0.36162 0.0
C2442 C 0.10174 0.6735 0.35379 0.0
C2443 C 0.10314 0.65114 0.36745 0.0
C2444 C 0.12879 0.6501 0.379 0.0
C2445 C 0.15351 0.66982 0.37596 0.0
C2446 C 0.0746 0.67559 0.34138 0.0
C2447 C 0.13108 0.62674 0.39383 0.0
H2448 H 0.01759 0.60465 0.39289 0.0
H2449 H 0.07073 0.55218 0.35548 0.0
H2450 H 0.06561 0.66083 0.40107 0.0
H2451 H 0.05006 0.67816 0.3814 0.0
H2452 H 0.02523 0.65786 0.39663 0.0
H2453 H 0.11069 0.57338 0.33878 0.0
H2454 H 0.11175 0.6144 0.33642 0.0
H2455 H 0.1333 0.59635 0.3538 0.0
H2456 H 0.1264 0.70901 0.33998 0.0
H2457 H 0.17364 0.66801 0.38436 0.0
H2458 H 0.05287 0.67415 0.349 0.0
H2459 H 0.07506 0.65606 0.33191 0.0
H2460 H 0.07471 0.69714 0.33351 0.0
H2461 H 0.11007 0.627 0.40215 0.0
H2462 H 0.15113 0.63083 0.40264 0.0
H2463 H 0.13318 0.60352 0.38796 0.0
loop_
_geom_bond_atom_site_label_1
_geom_bond_atom_site_label_2
_geom_bond_distance
_geom_bond_site_symmetry_2
_ccdc_geom_bond_type
C0 O1 1.160 . S
C0 O7 1.185 . S
O1 C0 1.160 . S
O2 Zn3 1.899 . S
O2 C10 1.284 . S
Zn3 O2 1.899 . S
Zn3 O4 2.032 . S
Zn3 O7 2.086 . S
Zn3 O12 1.977 . S
O4 Zn3 2.032 . S
O4 C8 1.278 . S
C5 O6 1.203 . S
C5 O12 1.267 . S
O6 C5 1.203 . S
O7 C0 1.185 . S
O7 Zn3 2.086 . S
C8 O4 1.278 . S
C8 O9 1.211 . S
O9 C8 1.211 . S
C10 O2 1.284 . S
C10 O11 1.273 . S
O11 C10 1.273 . S
O12 Zn3 1.977 . S
O12 C5 1.267 . S
C13 O14 1.160 . S
C13 O20 1.185 . S
O14 C13 1.160 . S
O15 Zn16 1.899 . S
O15 C23 1.284 . S
Zn16 O15 1.899 . S
Zn16 O17 2.032 . S
Zn16 O20 2.086 1_565 S
Zn16 O25 1.977 . S
O17 Zn16 2.032 . S
O17 C21 1.278 . S
C18 O19 1.203 . S
C18 O25 1.267 1_655 S
O19 C18 1.203 . S
O20 C13 1.185 . S
O20 Zn16 2.086 1_545 S
C21 O17 1.278 . S
C21 O22 1.211 . S
O22 C21 1.211 . S
C23 O15 1.284 . S
C23 O24 1.273 . S
O24 C23 1.273 . S
O25 Zn16 1.977 . S
O25 C18 1.267 1_455 S
C26 O27 1.160 . S
C26 O33 1.185 . S
O27 C26 1.160 . S
O28 Zn29 1.899 . S
O28 C36 1.284 . S
Zn29 O28 1.899 . S
Zn29 O30 2.032 . S
Zn29 O33 2.086 . S
Zn29 O38 1.977 . S
O30 Zn29 2.032 . S
O30 C34 1.278 . S
C31 O32 1.203 . S
C31 O38 1.267 . S
O32 C31 1.203 . S
O33 C26 1.185 . S
O33 Zn29 2.086 . S
C34 O30 1.278 . S
C34 O35 1.211 . S
O35 C34 1.211 . S
C36 O28 1.284 . S
C36 O37 1.273 . S
O37 C36 1.273 . S
O38 Zn29 1.977 . S
O38 C31 1.267 . S
C39 O40 1.160 . S
C39 O46 1.185 . S
O40 C39 1.160 . S
O41 Zn42 1.899 . S
O41 C49 1.284 . S
Zn42 O41 1.899 . S
Zn42 O43 2.032 . S
Zn42 O46 2.086 1_545 S
Zn42 O51 1.977 . S
O43 Zn42 2.032 . S
O43 C47 1.278 . S
C44 O45 1.203 . S
C44 O51 1.267 . S
O45 C44 1.203 . S
O46 C39 1.185 . S
O46 Zn42 2.086 1_565 S
C47 O43 1.278 . S
C47 O48 1.211 . S
O48 C47 1.211 . S
C49 O41 1.284 . S
C49 O50 1.273 . S
O50 C49 1.273 . S
O51 Zn42 1.977 . S
O51 C44 1.267 . S
C52 O53 1.160 . S
C52 O59 1.185 . S
O53 C52 1.160 . S
O54 Zn55 1.899 . S
O54 C62 1.284 . S
Zn55 O54 1.899 . S
Zn55 O56 2.032 . S
Zn55 O59 2.086 . S
Zn55 O64 1.977 . S
O56 Zn55 2.032 . S
O56 C60 1.278 . S
C57 O58 1.203 . S
C57 O64 1.267 . S
O58 C57 1.203 . S
O59 C52 1.185 . S
O59 Zn55 2.086 . S
C60 O56 1.278 . S
C60 O61 1.211 . S
O61 C60 1.211 . S
C62 O54 1.284 . S
C62 O63 1.273 . S
O63 C62 1.273 . S
O64 Zn55 1.977 . S
O64 C57 1.267 . S
C65 O66 1.160 . S
C65 O72 1.185 . S
O66 C65 1.160 . S
O67 Zn68 1.899 . S
O67 C75 1.284 . S
Zn68 O67 1.899 . S
Zn68 O69 2.032 . S
Zn68 O72 2.086 1_565 S
Zn68 O77 1.977 . S
O69 Zn68 2.032 . S
O69 C73 1.278 . S
C70 O71 1.203 . S
C70 O77 1.267 . S
O71 C70 1.203 . S
O72 C65 1.185 . S
O72 Zn68 2.086 1_545 S
C73 O69 1.278 . S
C73 O74 1.211 . S
O74 C73 1.211 . S
C75 O67 1.284 . S
C75 O76 1.273 . S
O76 C75 1.273 . S
O77 Zn68 1.977 . S
O77 C70 1.267 . S
C78 O79 1.160 . S
C78 O85 1.185 . S
O79 C78 1.160 . S
O80 Zn81 1.899 . S
O80 C88 1.284 . S
Zn81 O80 1.899 . S
Zn81 O82 2.032 . S
Zn81 O85 2.086 . S
Zn81 O90 1.977 . S
O82 Zn81 2.032 . S
O82 C86 1.278 . S
C83 O84 1.203 . S
C83 O90 1.267 . S
O84 C83 1.203 . S
O85 C78 1.185 . S
O85 Zn81 2.086 . S
C86 O82 1.278 . S
C86 O87 1.211 . S
O87 C86 1.211 . S
C88 O80 1.284 . S
C88 O89 1.273 . S
O89 C88 1.273 . S
O90 Zn81 1.977 . S
O90 C83 1.267 . S
C91 O92 1.160 . S
C91 O98 1.185 . S
O92 C91 1.160 . S
O93 Zn94 1.899 . S
O93 C101 1.284 . S
Zn94 O93 1.899 . S
Zn94 O95 2.032 . S
Zn94 O98 2.086 1_545 S
Zn94 O103 1.977 . S
O95 Zn94 2.032 . S
O95 C99 1.278 . S
C96 O97 1.203 . S
C96 O103 1.267 1_655 S
O97 C96 1.203 . S
O98 C91 1.185 . S
O98 Zn94 2.086 1_565 S
C99 O95 1.278 . S
C99 O100 1.211 . S
O100 C99 1.211 . S
C101 O93 1.284 . S
C101 O102 1.273 . S
O102 C101 1.273 . S
O103 Zn94 1.977 . S
O103 C96 1.267 1_455 S
C104 O105 1.160 . S
C104 O111 1.185 . S
O105 C104 1.160 . S
O106 Zn107 1.899 . S
O106 C114 1.284 . S
Zn107 O106 1.899 . S
Zn107 O108 2.032 . S
Zn107 O111 2.086 . S
Zn107 O116 1.977 . S
O108 Zn107 2.032 . S
O108 C112 1.278 . S
C109 O110 1.203 . S
C109 O116 1.267 . S
O110 C109 1.203 . S
O111 C104 1.185 . S
O111 Zn107 2.086 . S
C112 O108 1.278 . S
C112 O113 1.211 . S
O113 C112 1.211 . S
C114 O106 1.284 . S
C114 O115 1.273 . S
O115 C114 1.273 . S
O116 Zn107 1.977 . S
O116 C109 1.267 . S
C117 O118 1.160 . S
C117 O124 1.185 . S
O118 C117 1.160 . S
O119 Zn120 1.899 . S
O119 C127 1.284 . S
Zn120 O119 1.899 . S
Zn120 O121 2.032 . S
Zn120 O124 2.086 1_545 S
Zn120 O129 1.977 . S
O121 Zn120 2.032 . S
O121 C125 1.278 . S
C122 O123 1.203 . S
C122 O129 1.267 1_455 S
O123 C122 1.203 . S
O124 C117 1.185 . S
O124 Zn120 2.086 1_565 S
C125 O121 1.278 . S
C125 O126 1.211 . S
O126 C125 1.211 . S
C127 O119 1.284 . S
C127 O128 1.273 . S
O128 C127 1.273 . S
O129 Zn120 1.977 . S
O129 C122 1.267 1_655 S
C130 O131 1.160 . S
C130 O137 1.185 . S
O131 C130 1.160 . S
O132 Zn133 1.899 . S
O132 C140 1.284 . S
Zn133 O132 1.899 . S
Zn133 O134 2.032 . S
Zn133 O137 2.086 . S
Zn133 O142 1.977 . S
O134 Zn133 2.032 . S
O134 C138 1.278 . S
C135 O136 1.203 . S
C135 O142 1.267 . S
O136 C135 1.203 . S
O137 C130 1.185 . S
O137 Zn133 2.086 . S
C138 O134 1.278 . S
C138 O139 1.211 . S
O139 C138 1.211 . S
C140 O132 1.284 . S
C140 O141 1.273 . S
O141 C140 1.273 . S
O142 Zn133 1.977 . S
O142 C135 1.267 . S
C143 O144 1.160 . S
C143 O150 1.185 . S
O144 C143 1.160 . S
O145 Zn146 1.899 . S
O145 C153 1.284 . S
Zn146 O145 1.899 . S
Zn146 O147 2.032 . S
Zn146 O150 2.086 1_565 S
Zn146 O155 1.977 . S
O147 Zn146 2.032 . S
O147 C151 1.278 . S
C148 O149 1.203 . S
C148 O155 1.267 . S
O149 C148 1.203 . S
O150 C143 1.185 . S
O150 Zn146 2.086 1_545 S
C151 O147 1.278 . S
C151 O152 1.211 . S
O152 C151 1.211 . S
C153 O145 1.284 . S
C153 O154 1.273 . S
O154 C153 1.273 . S
O155 Zn146 1.977 . S
O155 C148 1.267 . S
C156 O157 1.160 . S
C156 O163 1.185 . S
O157 C156 1.160 . S
O158 Zn159 1.899 . S
O158 C166 1.284 . S
Zn159 O158 1.899 . S
Zn159 O160 2.032 . S
Zn159 O163 2.086 . S
Zn159 O168 1.977 . S
O160 Zn159 2.032 . S
O160 C164 1.278 . S
C161 O162 1.203 . S
C161 O168 1.267 . S
O162 C161 1.203 . S
O163 C156 1.185 . S
O163 Zn159 2.086 . S
C164 O160 1.278 . S
C164 O165 1.211 . S
O165 C164 1.211 . S
C166 O158 1.284 . S
C166 O167 1.273 . S
O167 C166 1.273 . S
O168 Zn159 1.977 . S
O168 C161 1.267 . S
C169 O170 1.160 . S
C169 O176 1.185 . S
O170 C169 1.160 . S
O171 Zn172 1.899 . S
O171 C179 1.284 . S
Zn172 O171 1.899 . S
Zn172 O173 2.032 . S
Zn172 O176 2.086 1_545 S
Zn172 O181 1.977 . S
O173 Zn172 2.032 . S
O173 C177 1.278 . S
C174 O175 1.203 . S
C174 O181 1.267 . S
O175 C174 1.203 . S
O176 C169 1.185 . S
O176 Zn172 2.086 1_565 S
C177 O173 1.278 . S
C177 O178 1.211 . S
O178 C177 1.211 . S
C179 O171 1.284 . S
C179 O180 1.273 . S
O180 C179 1.273 . S
O181 Zn172 1.977 . S
O181 C174 1.267 . S
C182 O183 1.160 . S
C182 O189 1.185 . S
O183 C182 1.160 . S
O184 Zn185 1.899 . S
O184 C192 1.284 . S
Zn185 O184 1.899 . S
Zn185 O186 2.032 . S
Zn185 O189 2.086 . S
Zn185 O194 1.977 . S
O186 Zn185 2.032 . S
O186 C190 1.278 . S
C187 O188 1.203 . S
C187 O194 1.267 . S
O188 C187 1.203 . S
O189 C182 1.185 . S
O189 Zn185 2.086 . S
C190 O186 1.278 . S
C190 O191 1.211 . S
O191 C190 1.211 . S
C192 O184 1.284 . S
C192 O193 1.273 . S
O193 C192 1.273 . S
O194 Zn185 1.977 . S
O194 C187 1.267 . S
C195 O196 1.160 . S
C195 O202 1.185 . S
O196 C195 1.160 . S
O197 Zn198 1.899 . S
O197 C205 1.284 . S
Zn198 O197 1.899 . S
Zn198 O199 2.032 . S
Zn198 O202 2.086 1_565 S
Zn198 O207 1.977 . S
O199 Zn198 2.032 . S
O199 C203 1.278 . S
C200 O201 1.203 . S
C200 O207 1.267 1_455 S
O201 C200 1.203 . S
O202 C195 1.185 . S
O202 Zn198 2.086 1_545 S
C203 O199 1.278 . S
C203 O204 1.211 . S
O204 C203 1.211 . S
C205 O197 1.284 . S
C205 O206 1.273 . S
O206 C205 1.273 . S
O207 Zn198 1.977 . S
O207 C200 1.267 1_655 S
C208 O209 1.160 . S
C208 O215 1.185 . S
O209 C208 1.160 . S
O210 Zn211 1.899 . S
O210 C218 1.284 . S
Zn211 O210 1.899 . S
Zn211 O212 2.032 . S
Zn211 O215 2.086 . S
Zn211 O220 1.977 . S
O212 Zn211 2.032 . S
O212 C216 1.278 . S
C213 O214 1.203 . S
C213 O220 1.267 . S
O214 C213 1.203 . S
O215 C208 1.185 . S
O215 Zn211 2.086 . S
C216 O212 1.278 . S
C216 O217 1.211 . S
O217 C216 1.211 . S
C218 O210 1.284 . S
C218 O219 1.273 . S
O219 C218 1.273 . S
O220 Zn211 1.977 . S
O220 C213 1.267 . S
C221 O222 1.160 . S
C221 O228 1.185 . S
O222 C221 1.160 . S
O223 Zn224 1.899 . S
O223 C231 1.284 . S
Zn224 O223 1.899 . S
Zn224 O225 2.032 . S
Zn224 O228 2.086 . S
Zn224 O233 1.977 . S
O225 Zn224 2.032 . S
O225 C229 1.278 . S
C226 O227 1.203 . S
C226 O233 1.267 . S
O227 C226 1.203 . S
O228 C221 1.185 . S
O228 Zn224 2.086 . S
C229 O225 1.278 . S
C229 O230 1.211 . S
O230 C229 1.211 . S
C231 O223 1.284 . S
C231 O232 1.273 . S
O232 C231 1.273 . S
O233 Zn224 1.977 . S
O233 C226 1.267 . S
C234 O235 1.160 . S
C234 O241 1.185 . S
O235 C234 1.160 . S
O236 Zn237 1.899 . S
O236 C244 1.284 . S
Zn237 O236 1.899 . S
Zn237 O238 2.032 . S
Zn237 O241 2.086 . S
Zn237 O246 1.977 . S
O238 Zn237 2.032 . S
O238 C242 1.278 . S
C239 O240 1.203 . S
C239 O246 1.267 . S
O240 C239 1.203 . S
O241 C234 1.185 . S
O241 Zn237 2.086 . S
C242 O238 1.278 . S
C242 O243 1.211 . S
O243 C242 1.211 . S
C244 O236 1.284 . S
C244 O245 1.273 . S
O245 C244 1.273 . S
O246 Zn237 1.977 . S
O246 C239 1.267 . S
C247 O248 1.160 . S
C247 O254 1.185 . S
O248 C247 1.160 . S
O249 Zn250 1.899 . S
O249 C257 1.284 . S
Zn250 O249 1.899 . S
Zn250 O251 2.032 . S
Zn250 O254 2.086 . S
Zn250 O259 1.977 . S
O251 Zn250 2.032 . S
O251 C255 1.278 . S
C252 O253 1.203 . S
C252 O259 1.267 1_455 S
O253 C252 1.203 . S
O254 C247 1.185 . S
O254 Zn250 2.086 . S
C255 O251 1.278 . S
C255 O256 1.211 . S
O256 C255 1.211 . S
C257 O249 1.284 . S
C257 O258 1.273 . S
O258 C257 1.273 . S
O259 Zn250 1.977 . S
O259 C252 1.267 1_655 S
C260 O261 1.160 . S
C260 O267 1.185 . S
O261 C260 1.160 . S
O262 Zn263 1.899 . S
O262 C270 1.284 . S
Zn263 O262 1.899 . S
Zn263 O264 2.032 . S
Zn263 O267 2.086 . S
Zn263 O272 1.977 . S
O264 Zn263 2.032 . S
O264 C268 1.278 . S
C265 O266 1.203 . S
C265 O272 1.267 . S
O266 C265 1.203 . S
O267 C260 1.185 . S
O267 Zn263 2.086 . S
C268 O264 1.278 . S
C268 O269 1.211 . S
O269 C268 1.211 . S
C270 O262 1.284 . S
C270 O271 1.273 . S
O271 C270 1.273 . S
O272 Zn263 1.977 . S
O272 C265 1.267 . S
C273 O274 1.160 . S
C273 O280 1.185 . S
O274 C273 1.160 . S
O275 Zn276 1.899 . S
O275 C283 1.284 . S
Zn276 O275 1.899 . S
Zn276 O277 2.032 . S
Zn276 O280 2.086 . S
Zn276 O285 1.977 . S
O277 Zn276 2.032 . S
O277 C281 1.278 . S
C278 O279 1.203 . S
C278 O285 1.267 1_455 S
O279 C278 1.203 . S
O280 C273 1.185 . S
O280 Zn276 2.086 . S
C281 O277 1.278 . S
C281 O282 1.211 . S
O282 C281 1.211 . S
C283 O275 1.284 . S
C283 O284 1.273 . S
O284 C283 1.273 . S
O285 Zn276 1.977 . S
O285 C278 1.267 1_655 S
C286 O287 1.160 . S
C286 O293 1.185 . S
O287 C286 1.160 . S
O288 Zn289 1.899 . S
O288 C296 1.284 . S
Zn289 O288 1.899 . S
Zn289 O290 2.032 . S
Zn289 O293 2.086 . S
Zn289 O298 1.977 . S
O290 Zn289 2.032 . S
O290 C294 1.278 . S
C291 O292 1.203 . S
C291 O298 1.267 . S
O292 C291 1.203 . S
O293 C286 1.185 . S
O293 Zn289 2.086 . S
C294 O290 1.278 . S
C294 O295 1.211 . S
O295 C294 1.211 . S
C296 O288 1.284 . S
C296 O297 1.273 . S
O297 C296 1.273 . S
O298 Zn289 1.977 . S
O298 C291 1.267 . S
C299 O300 1.160 . S
C299 O306 1.185 . S
O300 C299 1.160 . S
O301 Zn302 1.899 . S
O301 C309 1.284 . S
Zn302 O301 1.899 . S
Zn302 O303 2.032 . S
Zn302 O306 2.086 . S
Zn302 O311 1.977 . S
O303 Zn302 2.032 . S
O303 C307 1.278 . S
C304 O305 1.203 . S
C304 O311 1.267 . S
O305 C304 1.203 . S
O306 C299 1.185 . S
O306 Zn302 2.086 . S
C307 O303 1.278 . S
C307 O308 1.211 . S
O308 C307 1.211 . S
C309 O301 1.284 . S
C309 O310 1.273 . S
O310 C309 1.273 . S
O311 Zn302 1.977 . S
O311 C304 1.267 . S
C312 O313 1.160 . S
C312 O319 1.185 . S
O313 C312 1.160 . S
O314 Zn315 1.899 . S
O314 C322 1.284 . S
Zn315 O314 1.899 . S
Zn315 O316 2.032 . S
Zn315 O319 2.086 . S
Zn315 O324 1.977 . S
O316 Zn315 2.032 . S
O316 C320 1.278 . S
C317 O318 1.203 . S
C317 O324 1.267 . S
O318 C317 1.203 . S
O319 C312 1.185 . S
O319 Zn315 2.086 . S
C320 O316 1.278 . S
C320 O321 1.211 . S
O321 C320 1.211 . S
C322 O314 1.284 . S
C322 O323 1.273 . S
O323 C322 1.273 . S
O324 Zn315 1.977 . S
O324 C317 1.267 . S
C325 O326 1.160 . S
C325 O332 1.185 . S
O326 C325 1.160 . S
O327 Zn328 1.899 . S
O327 C335 1.284 . S
Zn328 O327 1.899 . S
Zn328 O329 2.032 . S
Zn328 O332 2.086 . S
Zn328 O337 1.977 . S
O329 Zn328 2.032 . S
O329 C333 1.278 . S
C330 O331 1.203 . S
C330 O337 1.267 . S
O331 C330 1.203 . S
O332 C325 1.185 . S
O332 Zn328 2.086 . S
C333 O329 1.278 . S
C333 O334 1.211 . S
O334 C333 1.211 . S
C335 O327 1.284 . S
C335 O336 1.273 . S
O336 C335 1.273 . S
O337 Zn328 1.977 . S
O337 C330 1.267 . S
C338 O339 1.160 . S
C338 O345 1.185 . S
O339 C338 1.160 . S
O340 Zn341 1.899 . S
O340 C348 1.284 . S
Zn341 O340 1.899 . S
Zn341 O342 2.032 . S
Zn341 O345 2.086 . S
Zn341 O350 1.977 . S
O342 Zn341 2.032 . S
O342 C346 1.278 . S
C343 O344 1.203 . S
C343 O350 1.267 . S
O344 C343 1.203 . S
O345 C338 1.185 . S
O345 Zn341 2.086 . S
C346 O342 1.278 . S
C346 O347 1.211 . S
O347 C346 1.211 . S
C348 O340 1.284 . S
C348 O349 1.273 . S
O349 C348 1.273 . S
O350 Zn341 1.977 . S
O350 C343 1.267 . S
C351 O352 1.160 . S
C351 O358 1.185 . S
O352 C351 1.160 . S
O353 Zn354 1.899 . S
O353 C361 1.284 . S
Zn354 O353 1.899 . S
Zn354 O355 2.032 . S
Zn354 O358 2.086 . S
Zn354 O363 1.977 . S
O355 Zn354 2.032 . S
O355 C359 1.278 . S
C356 O357 1.203 . S
C356 O363 1.267 1_655 S
O357 C356 1.203 . S
O358 C351 1.185 . S
O358 Zn354 2.086 . S
C359 O355 1.278 . S
C359 O360 1.211 . S
O360 C359 1.211 . S
C361 O353 1.284 . S
C361 O362 1.273 . S
O362 C361 1.273 . S
O363 Zn354 1.977 . S
O363 C356 1.267 1_455 S
C364 O365 1.160 . S
C364 O371 1.185 . S
O365 C364 1.160 . S
O366 Zn367 1.899 . S
O366 C374 1.284 . S
Zn367 O366 1.899 . S
Zn367 O368 2.032 . S
Zn367 O371 2.086 . S
Zn367 O376 1.977 . S
O368 Zn367 2.032 . S
O368 C372 1.278 . S
C369 O370 1.203 . S
C369 O376 1.267 . S
O370 C369 1.203 . S
O371 C364 1.185 . S
O371 Zn367 2.086 . S
C372 O368 1.278 . S
C372 O373 1.211 . S
O373 C372 1.211 . S
C374 O366 1.284 . S
C374 O375 1.273 . S
O375 C374 1.273 . S
O376 Zn367 1.977 . S
O376 C369 1.267 . S
C377 O378 1.160 . S
C377 O384 1.185 . S
O378 C377 1.160 . S
O379 Zn380 1.899 . S
O379 C387 1.284 . S
Zn380 O379 1.899 . S
Zn380 O381 2.032 . S
Zn380 O384 2.086 . S
Zn380 O389 1.977 . S
O381 Zn380 2.032 . S
O381 C385 1.278 . S
C382 O383 1.203 . S
C382 O389 1.267 1_655 S
O383 C382 1.203 . S
O384 C377 1.185 . S
O384 Zn380 2.086 . S
C385 O381 1.278 . S
C385 O386 1.211 . S
O386 C385 1.211 . S
C387 O379 1.284 . S
C387 O388 1.273 . S
O388 C387 1.273 . S
O389 Zn380 1.977 . S
O389 C382 1.267 1_455 S
C390 O391 1.160 . S
C390 O397 1.185 . S
O391 C390 1.160 . S
O392 Zn393 1.899 . S
O392 C400 1.284 . S
Zn393 O392 1.899 . S
Zn393 O394 2.032 . S
Zn393 O397 2.086 . S
Zn393 O402 1.977 . S
O394 Zn393 2.032 . S
O394 C398 1.278 . S
C395 O396 1.203 . S
C395 O402 1.267 . S
O396 C395 1.203 . S
O397 C390 1.185 . S
O397 Zn393 2.086 . S
C398 O394 1.278 . S
C398 O399 1.211 . S
O399 C398 1.211 . S
C400 O392 1.284 . S
C400 O401 1.273 . S
O401 C400 1.273 . S
O402 Zn393 1.977 . S
O402 C395 1.267 . S
C403 O404 1.160 . S
C403 O410 1.185 . S
O404 C403 1.160 . S
O405 Zn406 1.899 . S
O405 C413 1.284 . S
Zn406 O405 1.899 . S
Zn406 O407 2.032 . S
Zn406 O410 2.086 . S
Zn406 O415 1.977 . S
O407 Zn406 2.032 . S
O407 C411 1.278 . S
C408 O409 1.203 . S
C408 O415 1.267 . S
O409 C408 1.203 . S
O410 C403 1.185 . S
O410 Zn406 2.086 . S
C411 O407 1.278 . S
C411 O412 1.211 . S
O412 C411 1.211 . S
C413 O405 1.284 . S
C413 O414 1.273 . S
O414 C413 1.273 . S
O415 Zn406 1.977 . S
O415 C408 1.267 . S
C416 C417 1.391 . S
C416 C418 1.394 . S
C416 H432 0.931 . S
C417 C416 1.391 . S
C417 C421 1.376 . S
C418 C416 1.394 . S
C418 C419 1.369 . S
C418 C422 1.531 . S
C419 C418 1.369 . S
C419 C420 1.410 . S
C419 C427 1.503 . S
C420 C419 1.410 . S
C420 C421 1.392 . S
C420 C423 1.511 . S
C421 C417 1.376 . S
C421 C420 1.392 . S
C421 H433 0.929 . S
C422 C418 1.531 . S
C422 H434 0.960 . S
C422 H435 0.962 . S
C422 H436 0.960 . S
C423 C420 1.511 . S
C423 H437 0.961 . S
C423 H438 0.961 . S
C423 H439 0.961 . S
C424 C425 1.370 . S
C424 C426 1.363 . S
C424 H440 0.931 . S
C425 C424 1.370 . S
C425 C429 1.408 . S
C426 C424 1.363 . S
C426 C427 1.370 . S
C426 C430 1.524 . S
C427 C419 1.503 . S
C427 C426 1.370 . S
C427 C428 1.403 . S
C428 C427 1.403 . S
C428 C429 1.404 . S
C428 C431 1.539 . S
C429 C425 1.408 . S
C429 C428 1.404 . S
C429 H441 0.930 . S
C430 C426 1.524 . S
C430 H442 0.956 . S
C430 H443 0.961 . S
C430 H444 0.961 . S
C431 C428 1.539 . S
C431 H445 0.958 . S
C431 H446 0.961 . S
C431 H447 0.960 . S
H432 C416 0.931 . S
H433 C421 0.929 . S
H434 C422 0.960 . S
H435 C422 0.962 . S
H436 C422 0.960 . S
H437 C423 0.961 . S
H438 C423 0.961 . S
H439 C423 0.961 . S
H440 C424 0.931 . S
H441 C429 0.930 . S
H442 C430 0.956 . S
H443 C430 0.961 . S
H444 C430 0.961 . S
H445 C431 0.958 . S
H446 C431 0.961 . S
H447 C431 0.960 . S
C448 C449 1.391 . S
C448 C450 1.394 . S
C448 H464 0.931 . S
C449 C448 1.391 . S
C449 C453 1.376 . S
C450 C448 1.394 . S
C450 C451 1.369 . S
C450 C454 1.531 . S
C451 C450 1.369 . S
C451 C452 1.410 . S
C451 C459 1.503 . S
C452 C451 1.410 . S
C452 C453 1.392 . S
C452 C455 1.511 . S
C453 C449 1.376 . S
C453 C452 1.392 . S
C453 H465 0.929 . S
C454 C450 1.531 . S
C454 H466 0.960 . S
C454 H467 0.962 . S
C454 H468 0.960 . S
C455 C452 1.511 . S
C455 H469 0.961 . S
C455 H470 0.961 . S
C455 H471 0.961 . S
C456 C457 1.370 . S
C456 C458 1.363 . S
C456 H472 0.931 . S
C457 C456 1.370 . S
C457 C461 1.408 . S
C458 C456 1.363 . S
C458 C459 1.370 . S
C458 C462 1.524 . S
C459 C451 1.503 . S
C459 C458 1.370 . S
C459 C460 1.403 . S
C460 C459 1.403 . S
C460 C461 1.404 . S
C460 C463 1.539 . S
C461 C457 1.408 . S
C461 C460 1.404 . S
C461 H473 0.930 . S
C462 C458 1.524 . S
C462 H474 0.956 . S
C462 H475 0.961 . S
C462 H476 0.961 . S
C463 C460 1.539 . S
C463 H477 0.958 . S
C463 H478 0.961 . S
C463 H479 0.960 . S
H464 C448 0.931 . S
H465 C453 0.929 . S
H466 C454 0.960 . S
H467 C454 0.962 . S
H468 C454 0.960 . S
H469 C455 0.961 . S
H470 C455 0.961 . S
H471 C455 0.961 . S
H472 C456 0.931 . S
H473 C461 0.930 . S
H474 C462 0.956 . S
H475 C462 0.961 . S
H476 C462 0.961 . S
H477 C463 0.958 . S
H478 C463 0.961 . S
H479 C463 0.960 . S
C480 C481 1.391 . S
C480 C482 1.394 . S
C480 H496 0.931 . S
C481 C480 1.391 . S
C481 C485 1.376 . S
C482 C480 1.394 . S
C482 C483 1.369 . S
C482 C486 1.531 . S
C483 C482 1.369 . S
C483 C484 1.410 . S
C483 C491 1.503 . S
C484 C483 1.410 . S
C484 C485 1.392 . S
C484 C487 1.511 . S
C485 C481 1.376 . S
C485 C484 1.392 . S
C485 H497 0.929 . S
C486 C482 1.531 . S
C486 H498 0.960 . S
C486 H499 0.962 . S
C486 H500 0.960 . S
C487 C484 1.511 . S
C487 H501 0.961 . S
C487 H502 0.961 . S
C487 H503 0.961 . S
C488 C489 1.370 . S
C488 C490 1.363 . S
C488 H504 0.931 . S
C489 C488 1.370 . S
C489 C493 1.408 . S
C490 C488 1.363 . S
C490 C491 1.370 . S
C490 C494 1.524 . S
C491 C483 1.503 . S
C491 C490 1.370 . S
C491 C492 1.403 . S
C492 C491 1.403 . S
C492 C493 1.404 . S
C492 C495 1.539 . S
C493 C489 1.408 . S
C493 C492 1.404 . S
C493 H505 0.930 . S
C494 C490 1.524 . S
C494 H506 0.956 . S
C494 H507 0.961 . S
C494 H508 0.961 . S
C495 C492 1.539 . S
C495 H509 0.958 . S
C495 H510 0.961 . S
C495 H511 0.960 . S
H496 C480 0.931 . S
H497 C485 0.929 . S
H498 C486 0.960 . S
H499 C486 0.962 . S
H500 C486 0.960 . S
H501 C487 0.961 . S
H502 C487 0.961 . S
H503 C487 0.961 . S
H504 C488 0.931 . S
H505 C493 0.930 . S
H506 C494 0.956 . S
H507 C494 0.961 . S
H508 C494 0.961 . S
H509 C495 0.958 . S
H510 C495 0.961 . S
H511 C495 0.960 . S
C512 C513 1.391 . S
C512 C514 1.394 . S
C512 H528 0.931 . S
C513 C512 1.391 . S
C513 C517 1.376 . S
C514 C512 1.394 . S
C514 C515 1.369 . S
C514 C518 1.531 . S
C515 C514 1.369 . S
C515 C516 1.410 . S
C515 C523 1.503 . S
C516 C515 1.410 . S
C516 C517 1.392 . S
C516 C519 1.511 . S
C517 C513 1.376 . S
C517 C516 1.392 . S
C517 H529 0.929 . S
C518 C514 1.531 . S
C518 H530 0.960 . S
C518 H531 0.962 . S
C518 H532 0.960 . S
C519 C516 1.511 . S
C519 H533 0.961 . S
C519 H534 0.961 . S
C519 H535 0.961 . S
C520 C521 1.370 . S
C520 C522 1.363 . S
C520 H536 0.931 . S
C521 C520 1.370 . S
C521 C525 1.408 . S
C522 C520 1.363 . S
C522 C523 1.370 . S
C522 C526 1.524 . S
C523 C515 1.503 . S
C523 C522 1.370 . S
C523 C524 1.403 . S
C524 C523 1.403 . S
C524 C525 1.404 . S
C524 C527 1.539 . S
C525 C521 1.408 . S
C525 C524 1.404 . S
C525 H537 0.930 . S
C526 C522 1.524 . S
C526 H538 0.956 . S
C526 H539 0.961 . S
C526 H540 0.961 . S
C527 C524 1.539 . S
C527 H541 0.958 . S
C527 H542 0.961 . S
C527 H543 0.960 . S
H528 C512 0.931 . S
H529 C517 0.929 . S
H530 C518 0.960 . S
H531 C518 0.962 . S
H532 C518 0.960 . S
H533 C519 0.961 . S
H534 C519 0.961 . S
H535 C519 0.961 . S
H536 C520 0.931 . S
H537 C525 0.930 . S
H538 C526 0.956 . S
H539 C526 0.961 . S
H540 C526 0.961 . S
H541 C527 0.958 . S
H542 C527 0.961 . S
H543 C527 0.960 . S
C544 C545 1.391 . S
C544 C546 1.394 . S
C544 H560 0.931 . S
C545 C544 1.391 . S
C545 C549 1.376 . S
C546 C544 1.394 . S
C546 C547 1.369 . S
C546 C550 1.531 . S
C547 C546 1.369 . S
C547 C548 1.410 . S
C547 C555 1.503 . S
C548 C547 1.410 . S
C548 C549 1.392 . S
C548 C551 1.511 . S
C549 C545 1.376 . S
C549 C548 1.392 . S
C549 H561 0.929 . S
C550 C546 1.531 . S
C550 H562 0.960 . S
C550 H563 0.962 . S
C550 H564 0.960 . S
C551 C548 1.511 . S
C551 H565 0.961 . S
C551 H566 0.961 . S
C551 H567 0.961 . S
C552 C553 1.370 . S
C552 C554 1.363 . S
C552 H568 0.931 . S
C553 C552 1.370 . S
C553 C557 1.408 . S
C554 C552 1.363 . S
C554 C555 1.370 . S
C554 C558 1.524 . S
C555 C547 1.503 . S
C555 C554 1.370 . S
C555 C556 1.403 . S
C556 C555 1.403 . S
C556 C557 1.404 . S
C556 C559 1.539 . S
C557 C553 1.408 . S
C557 C556 1.404 . S
C557 H569 0.930 . S
C558 C554 1.524 . S
C558 H570 0.956 . S
C558 H571 0.961 . S
C558 H572 0.961 . S
C559 C556 1.539 . S
C559 H573 0.958 . S
C559 H574 0.961 . S
C559 H575 0.960 . S
H560 C544 0.931 . S
H561 C549 0.929 . S
H562 C550 0.960 . S
H563 C550 0.962 . S
H564 C550 0.960 . S
H565 C551 0.961 . S
H566 C551 0.961 . S
H567 C551 0.961 . S
H568 C552 0.931 . S
H569 C557 0.930 . S
H570 C558 0.956 . S
H571 C558 0.961 . S
H572 C558 0.961 . S
H573 C559 0.958 . S
H574 C559 0.961 . S
H575 C559 0.960 . S
C576 C577 1.391 . S
C576 C578 1.394 . S
C576 H592 0.931 . S
C577 C576 1.391 . S
C577 C581 1.376 . S
C578 C576 1.394 . S
C578 C579 1.369 . S
C578 C582 1.531 . S
C579 C578 1.369 . S
C579 C580 1.410 . S
C579 C587 1.503 . S
C580 C579 1.410 . S
C580 C581 1.392 . S
C580 C583 1.511 . S
C581 C577 1.376 . S
C581 C580 1.392 . S
C581 H593 0.929 . S
C582 C578 1.531 . S
C582 H594 0.960 . S
C582 H595 0.962 . S
C582 H596 0.960 . S
C583 C580 1.511 . S
C583 H597 0.961 . S
C583 H598 0.961 . S
C583 H599 0.961 . S
C584 C585 1.370 . S
C584 C586 1.363 . S
C584 H600 0.931 . S
C585 C584 1.370 . S
C585 C589 1.408 . S
C586 C584 1.363 . S
C586 C587 1.370 . S
C586 C590 1.524 . S
C587 C579 1.503 . S
C587 C586 1.370 . S
C587 C588 1.403 . S
C588 C587 1.403 . S
C588 C589 1.404 . S
C588 C591 1.539 . S
C589 C585 1.408 . S
C589 C588 1.404 . S
C589 H601 0.930 . S
C590 C586 1.524 . S
C590 H602 0.956 . S
C590 H603 0.961 . S
C590 H604 0.961 . S
C591 C588 1.539 . S
C591 H605 0.958 . S
C591 H606 0.961 . S
C591 H607 0.960 . S
H592 C576 0.931 . S
H593 C581 0.929 . S
H594 C582 0.960 . S
H595 C582 0.962 . S
H596 C582 0.960 . S
H597 C583 0.961 . S
H598 C583 0.961 . S
H599 C583 0.961 . S
H600 C584 0.931 . S
H601 C589 0.930 . S
H602 C590 0.956 . S
H603 C590 0.961 . S
H604 C590 0.961 . S
H605 C591 0.958 . S
H606 C591 0.961 . S
H607 C591 0.960 . S
C608 C609 1.391 . S
C608 C610 1.394 . S
C608 H624 0.931 . S
C609 C608 1.391 . S
C609 C613 1.376 . S
C610 C608 1.394 . S
C610 C611 1.369 . S
C610 C614 1.531 . S
C611 C610 1.369 . S
C611 C612 1.410 . S
C611 C619 1.503 . S
C612 C611 1.410 . S
C612 C613 1.392 . S
C612 C615 1.511 . S
C613 C609 1.376 . S
C613 C612 1.392 . S
C613 H625 0.929 . S
C614 C610 1.531 . S
C614 H626 0.960 . S
C614 H627 0.962 . S
C614 H628 0.960 . S
C615 C612 1.511 . S
C615 H629 0.961 . S
C615 H630 0.961 . S
C615 H631 0.961 . S
C616 C617 1.370 . S
C616 C618 1.363 . S
C616 H632 0.931 . S
C617 C616 1.370 . S
C617 C621 1.408 . S
C618 C616 1.363 . S
C618 C619 1.370 . S
C618 C622 1.524 . S
C619 C611 1.503 . S
C619 C618 1.370 . S
C619 C620 1.403 . S
C620 C619 1.403 . S
C620 C621 1.404 . S
C620 C623 1.539 . S
C621 C617 1.408 . S
C621 C620 1.404 . S
C621 H633 0.930 . S
C622 C618 1.524 . S
C622 H634 0.956 . S
C622 H635 0.961 . S
C622 H636 0.961 . S
C623 C620 1.539 . S
C623 H637 0.958 . S
C623 H638 0.961 . S
C623 H639 0.960 . S
H624 C608 0.931 . S
H625 C613 0.929 . S
H626 C614 0.960 . S
H627 C614 0.962 . S
H628 C614 0.960 . S
H629 C615 0.961 . S
H630 C615 0.961 . S
H631 C615 0.961 . S
H632 C616 0.931 . S
H633 C621 0.930 . S
H634 C622 0.956 . S
H635 C622 0.961 . S
H636 C622 0.961 . S
H637 C623 0.958 . S
H638 C623 0.961 . S
H639 C623 0.960 . S
C640 C641 1.391 . S
C640 C642 1.394 . S
C640 H656 0.931 . S
C641 C640 1.391 . S
C641 C645 1.376 . S
C642 C640 1.394 . S
C642 C643 1.369 . S
C642 C646 1.531 . S
C643 C642 1.369 . S
C643 C644 1.410 . S
C643 C651 1.503 . S
C644 C643 1.410 . S
C644 C645 1.392 . S
C644 C647 1.511 . S
C645 C641 1.376 . S
C645 C644 1.392 . S
C645 H657 0.929 . S
C646 C642 1.531 . S
C646 H658 0.960 . S
C646 H659 0.962 . S
C646 H660 0.960 . S
C647 C644 1.511 . S
C647 H661 0.961 . S
C647 H662 0.961 . S
C647 H663 0.961 . S
C648 C649 1.370 . S
C648 C650 1.363 . S
C648 H664 0.931 . S
C649 C648 1.370 . S
C649 C653 1.408 . S
C650 C648 1.363 . S
C650 C651 1.370 . S
C650 C654 1.524 . S
C651 C643 1.503 . S
C651 C650 1.370 . S
C651 C652 1.403 . S
C652 C651 1.403 . S
C652 C653 1.404 . S
C652 C655 1.539 . S
C653 C649 1.408 . S
C653 C652 1.404 . S
C653 H665 0.930 . S
C654 C650 1.524 . S
C654 H666 0.956 . S
C654 H667 0.961 . S
C654 H668 0.961 . S
C655 C652 1.539 . S
C655 H669 0.958 . S
C655 H670 0.961 . S
C655 H671 0.960 . S
H656 C640 0.931 . S
H657 C645 0.929 . S
H658 C646 0.960 . S
H659 C646 0.962 . S
H660 C646 0.960 . S
H661 C647 0.961 . S
H662 C647 0.961 . S
H663 C647 0.961 . S
H664 C648 0.931 . S
H665 C653 0.930 . S
H666 C654 0.956 . S
H667 C654 0.961 . S
H668 C654 0.961 . S
H669 C655 0.958 . S
H670 C655 0.961 . S
H671 C655 0.960 . S
C672 C673 1.391 . S
C672 C674 1.394 . S
C672 H688 0.931 . S
C673 C672 1.391 . S
C673 C677 1.376 . S
C674 C672 1.394 . S
C674 C675 1.369 . S
C674 C678 1.531 . S
C675 C674 1.369 . S
C675 C676 1.410 . S
C675 C683 1.503 . S
C676 C675 1.410 . S
C676 C677 1.392 . S
C676 C679 1.511 . S
C677 C673 1.376 . S
C677 C676 1.392 . S
C677 H689 0.929 . S
C678 C674 1.531 . S
C678 H690 0.960 . S
C678 H691 0.962 . S
C678 H692 0.960 . S
C679 C676 1.511 . S
C679 H693 0.961 . S
C679 H694 0.961 . S
C679 H695 0.961 . S
C680 C681 1.370 . S
C680 C682 1.363 . S
C680 H696 0.931 . S
C681 C680 1.370 . S
C681 C685 1.408 . S
C682 C680 1.363 . S
C682 C683 1.370 . S
C682 C686 1.524 . S
C683 C675 1.503 . S
C683 C682 1.370 . S
C683 C684 1.403 . S
C684 C683 1.403 . S
C684 C685 1.404 . S
C684 C687 1.539 . S
C685 C681 1.408 . S
C685 C684 1.404 . S
C685 H697 0.930 . S
C686 C682 1.524 . S
C686 H698 0.956 . S
C686 H699 0.961 . S
C686 H700 0.961 . S
C687 C684 1.539 . S
C687 H701 0.958 . S
C687 H702 0.961 . S
C687 H703 0.960 . S
H688 C672 0.931 . S
H689 C677 0.929 . S
H690 C678 0.960 . S
H691 C678 0.962 . S
H692 C678 0.960 . S
H693 C679 0.961 . S
H694 C679 0.961 . S
H695 C679 0.961 . S
H696 C680 0.931 . S
H697 C685 0.930 . S
H698 C686 0.956 . S
H699 C686 0.961 . S
H700 C686 0.961 . S
H701 C687 0.958 . S
H702 C687 0.961 . S
H703 C687 0.960 . S
C704 C705 1.391 . S
C704 C706 1.394 . S
C704 H720 0.931 . S
C705 C704 1.391 . S
C705 C709 1.376 . S
C706 C704 1.394 . S
C706 C707 1.369 . S
C706 C710 1.531 . S
C707 C706 1.369 . S
C707 C708 1.410 . S
C707 C715 1.503 . S
C708 C707 1.410 . S
C708 C709 1.392 . S
C708 C711 1.511 . S
C709 C705 1.376 . S
C709 C708 1.392 . S
C709 H721 0.929 . S
C710 C706 1.531 . S
C710 H722 0.960 . S
C710 H723 0.962 . S
C710 H724 0.960 . S
C711 C708 1.511 . S
C711 H725 0.961 . S
C711 H726 0.961 . S
C711 H727 0.961 . S
C712 C713 1.370 . S
C712 C714 1.363 . S
C712 H728 0.931 . S
C713 C712 1.370 . S
C713 C717 1.408 . S
C714 C712 1.363 . S
C714 C715 1.370 . S
C714 C718 1.524 . S
C715 C707 1.503 . S
C715 C714 1.370 . S
C715 C716 1.403 . S
C716 C715 1.403 . S
C716 C717 1.404 . S
C716 C719 1.539 . S
C717 C713 1.408 . S
C717 C716 1.404 . S
C717 H729 0.930 . S
C718 C714 1.524 . S
C718 H730 0.956 . S
C718 H731 0.961 . S
C718 H732 0.961 . S
C719 C716 1.539 . S
C719 H733 0.958 . S
C719 H734 0.961 . S
C719 H735 0.960 . S
H720 C704 0.931 . S
H721 C709 0.929 . S
H722 C710 0.960 . S
H723 C710 0.962 . S
H724 C710 0.960 . S
H725 C711 0.961 . S
H726 C711 0.961 . S
H727 C711 0.961 . S
H728 C712 0.931 . S
H729 C717 0.930 . S
H730 C718 0.956 . S
H731 C718 0.961 . S
H732 C718 0.961 . S
H733 C719 0.958 . S
H734 C719 0.961 . S
H735 C719 0.960 . S
C736 C737 1.391 . S
C736 C738 1.394 . S
C736 H752 0.931 . S
C737 C736 1.391 . S
C737 C741 1.376 . S
C738 C736 1.394 . S
C738 C739 1.369 . S
C738 C742 1.531 . S
C739 C738 1.369 . S
C739 C740 1.410 . S
C739 C747 1.503 . S
C740 C739 1.410 . S
C740 C741 1.392 . S
C740 C743 1.511 . S
C741 C737 1.376 . S
C741 C740 1.392 . S
C741 H753 0.929 . S
C742 C738 1.531 . S
C742 H754 0.960 . S
C742 H755 0.962 . S
C742 H756 0.960 . S
C743 C740 1.511 . S
C743 H757 0.961 . S
C743 H758 0.961 . S
C743 H759 0.961 . S
C744 C745 1.370 . S
C744 C746 1.363 . S
C744 H760 0.931 . S
C745 C744 1.370 . S
C745 C749 1.408 . S
C746 C744 1.363 . S
C746 C747 1.370 . S
C746 C750 1.524 . S
C747 C739 1.503 . S
C747 C746 1.370 . S
C747 C748 1.403 . S
C748 C747 1.403 . S
C748 C749 1.404 . S
C748 C751 1.539 . S
C749 C745 1.408 . S
C749 C748 1.404 . S
C749 H761 0.930 . S
C750 C746 1.524 . S
C750 H762 0.956 . S
C750 H763 0.961 . S
C750 H764 0.961 . S
C751 C748 1.539 . S
C751 H765 0.958 . S
C751 H766 0.961 . S
C751 H767 0.960 . S
H752 C736 0.931 . S
H753 C741 0.929 . S
H754 C742 0.960 . S
H755 C742 0.962 . S
H756 C742 0.960 . S
H757 C743 0.961 . S
H758 C743 0.961 . S
H759 C743 0.961 . S
H760 C744 0.931 . S
H761 C749 0.930 . S
H762 C750 0.956 . S
H763 C750 0.961 . S
H764 C750 0.961 . S
H765 C751 0.958 . S
H766 C751 0.961 . S
H767 C751 0.960 . S
C768 C769 1.391 . S
C768 C770 1.394 . S
C768 H784 0.931 . S
C769 C768 1.391 . S
C769 C773 1.376 . S
C770 C768 1.394 . S
C770 C771 1.369 . S
C770 C774 1.531 . S
C771 C770 1.369 . S
C771 C772 1.410 . S
C771 C779 1.503 . S
C772 C771 1.410 . S
C772 C773 1.392 . S
C772 C775 1.511 . S
C773 C769 1.376 . S
C773 C772 1.392 . S
C773 H785 0.929 . S
C774 C770 1.531 . S
C774 H786 0.960 . S
C774 H787 0.962 . S
C774 H788 0.960 . S
C775 C772 1.511 . S
C775 H789 0.961 . S
C775 H790 0.961 . S
C775 H791 0.961 . S
C776 C777 1.370 . S
C776 C778 1.363 . S
C776 H792 0.931 . S
C777 C776 1.370 . S
C777 C781 1.408 . S
C778 C776 1.363 . S
C778 C779 1.370 . S
C778 C782 1.524 . S
C779 C771 1.503 . S
C779 C778 1.370 . S
C779 C780 1.403 . S
C780 C779 1.403 . S
C780 C781 1.404 . S
C780 C783 1.539 . S
C781 C777 1.408 . S
C781 C780 1.404 . S
C781 H793 0.930 . S
C782 C778 1.524 . S
C782 H794 0.956 . S
C782 H795 0.961 . S
C782 H796 0.961 . S
C783 C780 1.539 . S
C783 H797 0.958 . S
C783 H798 0.961 . S
C783 H799 0.960 . S
H784 C768 0.931 . S
H785 C773 0.929 . S
H786 C774 0.960 . S
H787 C774 0.962 . S
H788 C774 0.960 . S
H789 C775 0.961 . S
H790 C775 0.961 . S
H791 C775 0.961 . S
H792 C776 0.931 . S
H793 C781 0.930 . S
H794 C782 0.956 . S
H795 C782 0.961 . S
H796 C782 0.961 . S
H797 C783 0.958 . S
H798 C783 0.961 . S
H799 C783 0.960 . S
C800 C801 1.391 . S
C800 C802 1.394 . S
C800 H816 0.931 . S
C801 C800 1.391 . S
C801 C805 1.376 . S
C802 C800 1.394 . S
C802 C803 1.369 . S
C802 C806 1.531 . S
C803 C802 1.369 . S
C803 C804 1.410 . S
C803 C811 1.503 . S
C804 C803 1.410 . S
C804 C805 1.392 . S
C804 C807 1.511 . S
C805 C801 1.376 . S
C805 C804 1.392 . S
C805 H817 0.929 . S
C806 C802 1.531 . S
C806 H818 0.960 . S
C806 H819 0.962 . S
C806 H820 0.960 . S
C807 C804 1.511 . S
C807 H821 0.961 . S
C807 H822 0.961 . S
C807 H823 0.961 . S
C808 C809 1.370 . S
C808 C810 1.363 . S
C808 H824 0.931 . S
C809 C808 1.370 . S
C809 C813 1.408 . S
C810 C808 1.363 . S
C810 C811 1.370 . S
C810 C814 1.524 . S
C811 C803 1.503 . S
C811 C810 1.370 . S
C811 C812 1.403 . S
C812 C811 1.403 . S
C812 C813 1.404 . S
C812 C815 1.539 . S
C813 C809 1.408 . S
C813 C812 1.404 . S
C813 H825 0.930 . S
C814 C810 1.524 . S
C814 H826 0.956 . S
C814 H827 0.961 . S
C814 H828 0.961 . S
C815 C812 1.539 . S
C815 H829 0.958 . S
C815 H830 0.961 . S
C815 H831 0.960 . S
H816 C800 0.931 . S
H817 C805 0.929 . S
H818 C806 0.960 . S
H819 C806 0.962 . S
H820 C806 0.960 . S
H821 C807 0.961 . S
H822 C807 0.961 . S
H823 C807 0.961 . S
H824 C808 0.931 . S
H825 C813 0.930 . S
H826 C814 0.956 . S
H827 C814 0.961 . S
H828 C814 0.961 . S
H829 C815 0.958 . S
H830 C815 0.961 . S
H831 C815 0.960 . S
C832 C833 1.391 . S
C832 C834 1.394 . S
C832 H848 0.931 . S
C833 C832 1.391 . S
C833 C837 1.376 . S
C834 C832 1.394 . S
C834 C835 1.369 . S
C834 C838 1.531 . S
C835 C834 1.369 . S
C835 C836 1.410 . S
C835 C843 1.503 . S
C836 C835 1.410 . S
C836 C837 1.392 . S
C836 C839 1.511 . S
C837 C833 1.376 . S
C837 C836 1.392 . S
C837 H849 0.929 . S
C838 C834 1.531 . S
C838 H850 0.960 . S
C838 H851 0.962 . S
C838 H852 0.960 . S
C839 C836 1.511 . S
C839 H853 0.961 . S
C839 H854 0.961 . S
C839 H855 0.961 . S
C840 C841 1.370 . S
C840 C842 1.363 . S
C840 H856 0.931 . S
C841 C840 1.370 . S
C841 C845 1.408 . S
C842 C840 1.363 . S
C842 C843 1.370 . S
C842 C846 1.524 . S
C843 C835 1.503 . S
C843 C842 1.370 . S
C843 C844 1.403 . S
C844 C843 1.403 . S
C844 C845 1.404 . S
C844 C847 1.539 . S
C845 C841 1.408 . S
C845 C844 1.404 . S
C845 H857 0.930 . S
C846 C842 1.524 . S
C846 H858 0.956 . S
C846 H859 0.961 . S
C846 H860 0.961 . S
C847 C844 1.539 . S
C847 H861 0.958 . S
C847 H862 0.961 . S
C847 H863 0.960 . S
H848 C832 0.931 . S
H849 C837 0.929 . S
H850 C838 0.960 . S
H851 C838 0.962 . S
H852 C838 0.960 . S
H853 C839 0.961 . S
H854 C839 0.961 . S
H855 C839 0.961 . S
H856 C840 0.931 . S
H857 C845 0.930 . S
H858 C846 0.956 . S
H859 C846 0.961 . S
H860 C846 0.961 . S
H861 C847 0.958 . S
H862 C847 0.961 . S
H863 C847 0.960 . S
C864 C865 1.391 . S
C864 C866 1.394 . S
C864 H880 0.931 . S
C865 C864 1.391 . S
C865 C869 1.376 . S
C866 C864 1.394 . S
C866 C867 1.369 . S
C866 C870 1.531 . S
C867 C866 1.369 . S
C867 C868 1.410 . S
C867 C875 1.503 . S
C868 C867 1.410 . S
C868 C869 1.392 . S
C868 C871 1.511 . S
C869 C865 1.376 . S
C869 C868 1.392 . S
C869 H881 0.929 . S
C870 C866 1.531 . S
C870 H882 0.960 . S
C870 H883 0.962 . S
C870 H884 0.960 . S
C871 C868 1.511 . S
C871 H885 0.961 . S
C871 H886 0.961 . S
C871 H887 0.961 . S
C872 C873 1.370 . S
C872 C874 1.363 . S
C872 H888 0.931 . S
C873 C872 1.370 . S
C873 C877 1.408 . S
C874 C872 1.363 . S
C874 C875 1.370 . S
C874 C878 1.524 . S
C875 C867 1.503 . S
C875 C874 1.370 . S
C875 C876 1.403 . S
C876 C875 1.403 . S
C876 C877 1.404 . S
C876 C879 1.539 . S
C877 C873 1.408 . S
C877 C876 1.404 . S
C877 H889 0.930 . S
C878 C874 1.524 . S
C878 H890 0.956 . S
C878 H891 0.961 . S
C878 H892 0.961 . S
C879 C876 1.539 . S
C879 H893 0.958 . S
C879 H894 0.961 . S
C879 H895 0.960 . S
H880 C864 0.931 . S
H881 C869 0.929 . S
H882 C870 0.960 . S
H883 C870 0.962 . S
H884 C870 0.960 . S
H885 C871 0.961 . S
H886 C871 0.961 . S
H887 C871 0.961 . S
H888 C872 0.931 . S
H889 C877 0.930 . S
H890 C878 0.956 . S
H891 C878 0.961 . S
H892 C878 0.961 . S
H893 C879 0.958 . S
H894 C879 0.961 . S
H895 C879 0.960 . S
C896 C897 1.391 . S
C896 C898 1.394 . S
C896 H912 0.931 . S
C897 C896 1.391 . S
C897 C901 1.376 . S
C898 C896 1.394 . S
C898 C899 1.369 . S
C898 C902 1.531 . S
C899 C898 1.369 . S
C899 C900 1.410 . S
C899 C907 1.503 . S
C900 C899 1.410 . S
C900 C901 1.392 . S
C900 C903 1.511 . S
C901 C897 1.376 . S
C901 C900 1.392 . S
C901 H913 0.929 . S
C902 C898 1.531 . S
C902 H914 0.960 . S
C902 H915 0.962 . S
C902 H916 0.960 . S
C903 C900 1.511 . S
C903 H917 0.961 . S
C903 H918 0.961 . S
C903 H919 0.961 . S
C904 C905 1.370 . S
C904 C906 1.363 . S
C904 H920 0.931 . S
C905 C904 1.370 . S
C905 C909 1.408 . S
C906 C904 1.363 . S
C906 C907 1.370 . S
C906 C910 1.524 . S
C907 C899 1.503 . S
C907 C906 1.370 . S
C907 C908 1.403 . S
C908 C907 1.403 . S
C908 C909 1.404 . S
C908 C911 1.539 . S
C909 C905 1.408 . S
C909 C908 1.404 . S
C909 H921 0.930 . S
C910 C906 1.524 . S
C910 H922 0.956 . S
C910 H923 0.961 . S
C910 H924 0.961 . S
C911 C908 1.539 . S
C911 H925 0.958 . S
C911 H926 0.961 . S
C911 H927 0.960 . S
H912 C896 0.931 . S
H913 C901 0.929 . S
H914 C902 0.960 . S
H915 C902 0.962 . S
H916 C902 0.960 . S
H917 C903 0.961 . S
H918 C903 0.961 . S
H919 C903 0.961 . S
H920 C904 0.931 . S
H921 C909 0.930 . S
H922 C910 0.956 . S
H923 C910 0.961 . S
H924 C910 0.961 . S
H925 C911 0.958 . S
H926 C911 0.961 . S
H927 C911 0.960 . S
C928 C929 1.391 . S
C928 C930 1.394 . S
C928 H944 0.931 . S
C929 C928 1.391 . S
C929 C933 1.376 . S
C930 C928 1.394 . S
C930 C931 1.369 . S
C930 C934 1.531 . S
C931 C930 1.369 . S
C931 C932 1.410 . S
C931 C939 1.503 . S
C932 C931 1.410 . S
C932 C933 1.392 . S
C932 C935 1.511 . S
C933 C929 1.376 . S
C933 C932 1.392 . S
C933 H945 0.929 . S
C934 C930 1.531 . S
C934 H946 0.960 . S
C934 H947 0.962 . S
C934 H948 0.960 . S
C935 C932 1.511 . S
C935 H949 0.961 . S
C935 H950 0.961 . S
C935 H951 0.961 . S
C936 C937 1.370 . S
C936 C938 1.363 . S
C936 H952 0.931 . S
C937 C936 1.370 . S
C937 C941 1.408 . S
C938 C936 1.363 . S
C938 C939 1.370 . S
C938 C942 1.524 . S
C939 C931 1.503 . S
C939 C938 1.370 . S
C939 C940 1.403 . S
C940 C939 1.403 . S
C940 C941 1.404 . S
C940 C943 1.539 . S
C941 C937 1.408 . S
C941 C940 1.404 . S
C941 H953 0.930 . S
C942 C938 1.524 . S
C942 H954 0.956 . S
C942 H955 0.961 . S
C942 H956 0.961 . S
C943 C940 1.539 . S
C943 H957 0.958 . S
C943 H958 0.961 . S
C943 H959 0.960 . S
H944 C928 0.931 . S
H945 C933 0.929 . S
H946 C934 0.960 . S
H947 C934 0.962 . S
H948 C934 0.960 . S
H949 C935 0.961 . S
H950 C935 0.961 . S
H951 C935 0.961 . S
H952 C936 0.931 . S
H953 C941 0.930 . S
H954 C942 0.956 . S
H955 C942 0.961 . S
H956 C942 0.961 . S
H957 C943 0.958 . S
H958 C943 0.961 . S
H959 C943 0.960 . S
C960 C961 1.391 . S
C960 C962 1.394 . S
C960 H976 0.931 . S
C961 C960 1.391 . S
C961 C965 1.376 . S
C962 C960 1.394 . S
C962 C963 1.369 . S
C962 C966 1.531 . S
C963 C962 1.369 . S
C963 C964 1.410 . S
C963 C971 1.503 . S
C964 C963 1.410 . S
C964 C965 1.392 . S
C964 C967 1.511 . S
C965 C961 1.376 . S
C965 C964 1.392 . S
C965 H977 0.929 . S
C966 C962 1.531 . S
C966 H978 0.960 . S
C966 H979 0.962 . S
C966 H980 0.960 . S
C967 C964 1.511 . S
C967 H981 0.961 . S
C967 H982 0.961 . S
C967 H983 0.961 . S
C968 C969 1.370 . S
C968 C970 1.363 . S
C968 H984 0.931 . S
C969 C968 1.370 . S
C969 C973 1.408 . S
C970 C968 1.363 . S
C970 C971 1.370 . S
C970 C974 1.524 . S
C971 C963 1.503 . S
C971 C970 1.370 . S
C971 C972 1.403 . S
C972 C971 1.403 . S
C972 C973 1.404 . S
C972 C975 1.539 . S
C973 C969 1.408 . S
C973 C972 1.404 . S
C973 H985 0.930 . S
C974 C970 1.524 . S
C974 H986 0.956 . S
C974 H987 0.961 . S
C974 H988 0.961 . S
C975 C972 1.539 . S
C975 H989 0.958 . S
C975 H990 0.961 . S
C975 H991 0.960 . S
H976 C960 0.931 . S
H977 C965 0.929 . S
H978 C966 0.960 . S
H979 C966 0.962 . S
H980 C966 0.960 . S
H981 C967 0.961 . S
H982 C967 0.961 . S
H983 C967 0.961 . S
H984 C968 0.931 . S
H985 C973 0.930 . S
H986 C974 0.956 . S
H987 C974 0.961 . S
H988 C974 0.961 . S
H989 C975 0.958 . S
H990 C975 0.961 . S
H991 C975 0.960 . S
C992 C993 1.391 . S
C992 C994 1.394 . S
C992 H1008 0.931 . S
C993 C992 1.391 . S
C993 C997 1.376 . S
C994 C992 1.394 . S
C994 C995 1.369 . S
C994 C998 1.531 . S
C995 C994 1.369 . S
C995 C996 1.410 . S
C995 C1003 1.503 . S
C996 C995 1.410 . S
C996 C997 1.392 . S
C996 C999 1.511 . S
C997 C993 1.376 . S
C997 C996 1.392 . S
C997 H1009 0.929 . S
C998 C994 1.531 . S
C998 H1010 0.960 . S
C998 H1011 0.962 . S
C998 H1012 0.960 . S
C999 C996 1.511 . S
C999 H1013 0.961 . S
C999 H1014 0.961 . S
C999 H1015 0.961 . S
C1000 C1001 1.370 . S
C1000 C1002 1.363 . S
C1000 H1016 0.931 . S
C1001 C1000 1.370 . S
C1001 C1005 1.408 . S
C1002 C1000 1.363 . S
C1002 C1003 1.370 . S
C1002 C1006 1.524 . S
C1003 C995 1.503 . S
C1003 C1002 1.370 . S
C1003 C1004 1.403 . S
C1004 C1003 1.403 . S
C1004 C1005 1.404 . S
C1004 C1007 1.539 . S
C1005 C1001 1.408 . S
C1005 C1004 1.404 . S
C1005 H1017 0.930 . S
C1006 C1002 1.524 . S
C1006 H1018 0.956 . S
C1006 H1019 0.961 . S
C1006 H1020 0.961 . S
C1007 C1004 1.539 . S
C1007 H1021 0.958 . S
C1007 H1022 0.961 . S
C1007 H1023 0.960 . S
H1008 C992 0.931 . S
H1009 C997 0.929 . S
H1010 C998 0.960 . S
H1011 C998 0.962 . S
H1012 C998 0.960 . S
H1013 C999 0.961 . S
H1014 C999 0.961 . S
H1015 C999 0.961 . S
H1016 C1000 0.931 . S
H1017 C1005 0.930 . S
H1018 C1006 0.956 . S
H1019 C1006 0.961 . S
H1020 C1006 0.961 . S
H1021 C1007 0.958 . S
H1022 C1007 0.961 . S
H1023 C1007 0.960 . S
C1024 C1025 1.391 . S
C1024 C1026 1.394 . S
C1024 H1040 0.931 . S
C1025 C1024 1.391 . S
C1025 C1029 1.376 . S
C1026 C1024 1.394 . S
C1026 C1027 1.369 . S
C1026 C1030 1.531 . S
C1027 C1026 1.369 . S
C1027 C1028 1.410 . S
C1027 C1035 1.503 . S
C1028 C1027 1.410 . S
C1028 C1029 1.392 . S
C1028 C1031 1.511 . S
C1029 C1025 1.376 . S
C1029 C1028 1.392 . S
C1029 H1041 0.929 . S
C1030 C1026 1.531 . S
C1030 H1042 0.960 . S
C1030 H1043 0.962 . S
C1030 H1044 0.960 . S
C1031 C1028 1.511 . S
C1031 H1045 0.961 . S
C1031 H1046 0.961 . S
C1031 H1047 0.961 . S
C1032 C1033 1.370 . S
C1032 C1034 1.363 . S
C1032 H1048 0.931 . S
C1033 C1032 1.370 . S
C1033 C1037 1.408 . S
C1034 C1032 1.363 . S
C1034 C1035 1.370 . S
C1034 C1038 1.524 . S
C1035 C1027 1.503 . S
C1035 C1034 1.370 . S
C1035 C1036 1.403 . S
C1036 C1035 1.403 . S
C1036 C1037 1.404 . S
C1036 C1039 1.539 . S
C1037 C1033 1.408 . S
C1037 C1036 1.404 . S
C1037 H1049 0.930 . S
C1038 C1034 1.524 . S
C1038 H1050 0.956 . S
C1038 H1051 0.961 . S
C1038 H1052 0.961 . S
C1039 C1036 1.539 . S
C1039 H1053 0.958 . S
C1039 H1054 0.961 . S
C1039 H1055 0.960 . S
H1040 C1024 0.931 . S
H1041 C1029 0.929 . S
H1042 C1030 0.960 . S
H1043 C1030 0.962 . S
H1044 C1030 0.960 . S
H1045 C1031 0.961 . S
H1046 C1031 0.961 . S
H1047 C1031 0.961 . S
H1048 C1032 0.931 . S
H1049 C1037 0.930 . S
H1050 C1038 0.956 . S
H1051 C1038 0.961 . S
H1052 C1038 0.961 . S
H1053 C1039 0.958 . S
H1054 C1039 0.961 . S
H1055 C1039 0.960 . S
C1056 C1057 1.391 . S
C1056 C1058 1.394 . S
C1056 H1072 0.931 . S
C1057 C1056 1.391 . S
C1057 C1061 1.376 . S
C1058 C1056 1.394 . S
C1058 C1059 1.369 . S
C1058 C1062 1.531 . S
C1059 C1058 1.369 . S
C1059 C1060 1.410 . S
C1059 C1067 1.503 . S
C1060 C1059 1.410 . S
C1060 C1061 1.392 . S
C1060 C1063 1.511 . S
C1061 C1057 1.376 . S
C1061 C1060 1.392 . S
C1061 H1073 0.929 . S
C1062 C1058 1.531 . S
C1062 H1074 0.960 . S
C1062 H1075 0.962 . S
C1062 H1076 0.960 . S
C1063 C1060 1.511 . S
C1063 H1077 0.961 . S
C1063 H1078 0.961 . S
C1063 H1079 0.961 . S
C1064 C1065 1.370 . S
C1064 C1066 1.363 . S
C1064 H1080 0.931 . S
C1065 C1064 1.370 . S
C1065 C1069 1.408 . S
C1066 C1064 1.363 . S
C1066 C1067 1.370 . S
C1066 C1070 1.524 . S
C1067 C1059 1.503 . S
C1067 C1066 1.370 . S
C1067 C1068 1.403 . S
C1068 C1067 1.403 . S
C1068 C1069 1.404 . S
C1068 C1071 1.539 . S
C1069 C1065 1.408 . S
C1069 C1068 1.404 . S
C1069 H1081 0.930 . S
C1070 C1066 1.524 . S
C1070 H1082 0.956 . S
C1070 H1083 0.961 . S
C1070 H1084 0.961 . S
C1071 C1068 1.539 . S
C1071 H1085 0.958 . S
C1071 H1086 0.961 . S
C1071 H1087 0.960 . S
H1072 C1056 0.931 . S
H1073 C1061 0.929 . S
H1074 C1062 0.960 . S
H1075 C1062 0.962 . S
H1076 C1062 0.960 . S
H1077 C1063 0.961 . S
H1078 C1063 0.961 . S
H1079 C1063 0.961 . S
H1080 C1064 0.931 . S
H1081 C1069 0.930 . S
H1082 C1070 0.956 . S
H1083 C1070 0.961 . S
H1084 C1070 0.961 . S
H1085 C1071 0.958 . S
H1086 C1071 0.961 . S
H1087 C1071 0.960 . S
C1088 C1089 1.391 . S
C1088 C1090 1.394 . S
C1088 H1104 0.931 . S
C1089 C1088 1.391 . S
C1089 C1093 1.376 . S
C1090 C1088 1.394 . S
C1090 C1091 1.369 . S
C1090 C1094 1.531 . S
C1091 C1090 1.369 . S
C1091 C1092 1.410 . S
C1091 C1099 1.503 . S
C1092 C1091 1.410 . S
C1092 C1093 1.392 . S
C1092 C1095 1.511 . S
C1093 C1089 1.376 . S
C1093 C1092 1.392 . S
C1093 H1105 0.929 . S
C1094 C1090 1.531 . S
C1094 H1106 0.960 . S
C1094 H1107 0.962 . S
C1094 H1108 0.960 . S
C1095 C1092 1.511 . S
C1095 H1109 0.961 . S
C1095 H1110 0.961 . S
C1095 H1111 0.961 . S
C1096 C1097 1.370 . S
C1096 C1098 1.363 . S
C1096 H1112 0.931 . S
C1097 C1096 1.370 . S
C1097 C1101 1.408 . S
C1098 C1096 1.363 . S
C1098 C1099 1.370 . S
C1098 C1102 1.524 . S
C1099 C1091 1.503 . S
C1099 C1098 1.370 . S
C1099 C1100 1.403 . S
C1100 C1099 1.403 . S
C1100 C1101 1.404 . S
C1100 C1103 1.539 . S
C1101 C1097 1.408 . S
C1101 C1100 1.404 . S
C1101 H1113 0.930 . S
C1102 C1098 1.524 . S
C1102 H1114 0.956 . S
C1102 H1115 0.961 . S
C1102 H1116 0.961 . S
C1103 C1100 1.539 . S
C1103 H1117 0.958 . S
C1103 H1118 0.961 . S
C1103 H1119 0.960 . S
H1104 C1088 0.931 . S
H1105 C1093 0.929 . S
H1106 C1094 0.960 . S
H1107 C1094 0.962 . S
H1108 C1094 0.960 . S
H1109 C1095 0.961 . S
H1110 C1095 0.961 . S
H1111 C1095 0.961 . S
H1112 C1096 0.931 . S
H1113 C1101 0.930 . S
H1114 C1102 0.956 . S
H1115 C1102 0.961 . S
H1116 C1102 0.961 . S
H1117 C1103 0.958 . S
H1118 C1103 0.961 . S
H1119 C1103 0.960 . S
C1120 C1121 1.391 . S
C1120 C1122 1.394 . S
C1120 H1136 0.931 . S
C1121 C1120 1.391 . S
C1121 C1125 1.376 . S
C1122 C1120 1.394 . S
C1122 C1123 1.369 . S
C1122 C1126 1.531 . S
C1123 C1122 1.369 . S
C1123 C1124 1.410 . S
C1123 C1131 1.503 . S
C1124 C1123 1.410 . S
C1124 C1125 1.392 . S
C1124 C1127 1.511 . S
C1125 C1121 1.376 . S
C1125 C1124 1.392 . S
C1125 H1137 0.929 . S
C1126 C1122 1.531 . S
C1126 H1138 0.960 . S
C1126 H1139 0.962 . S
C1126 H1140 0.960 . S
C1127 C1124 1.511 . S
C1127 H1141 0.961 . S
C1127 H1142 0.961 . S
C1127 H1143 0.961 . S
C1128 C1129 1.370 . S
C1128 C1130 1.363 . S
C1128 H1144 0.931 . S
C1129 C1128 1.370 . S
C1129 C1133 1.408 . S
C1130 C1128 1.363 . S
C1130 C1131 1.370 . S
C1130 C1134 1.524 . S
C1131 C1123 1.503 . S
C1131 C1130 1.370 . S
C1131 C1132 1.403 . S
C1132 C1131 1.403 . S
C1132 C1133 1.404 . S
C1132 C1135 1.539 . S
C1133 C1129 1.408 . S
C1133 C1132 1.404 . S
C1133 H1145 0.930 . S
C1134 C1130 1.524 . S
C1134 H1146 0.956 . S
C1134 H1147 0.961 . S
C1134 H1148 0.961 . S
C1135 C1132 1.539 . S
C1135 H1149 0.958 . S
C1135 H1150 0.961 . S
C1135 H1151 0.960 . S
H1136 C1120 0.931 . S
H1137 C1125 0.929 . S
H1138 C1126 0.960 . S
H1139 C1126 0.962 . S
H1140 C1126 0.960 . S
H1141 C1127 0.961 . S
H1142 C1127 0.961 . S
H1143 C1127 0.961 . S
H1144 C1128 0.931 . S
H1145 C1133 0.930 . S
H1146 C1134 0.956 . S
H1147 C1134 0.961 . S
H1148 C1134 0.961 . S
H1149 C1135 0.958 . S
H1150 C1135 0.961 . S
H1151 C1135 0.960 . S
C1152 C1153 1.391 . S
C1152 C1154 1.394 . S
C1152 H1168 0.931 . S
C1153 C1152 1.391 . S
C1153 C1157 1.376 . S
C1154 C1152 1.394 . S
C1154 C1155 1.369 . S
C1154 C1158 1.531 . S
C1155 C1154 1.369 . S
C1155 C1156 1.410 . S
C1155 C1163 1.503 . S
C1156 C1155 1.410 . S
C1156 C1157 1.392 . S
C1156 C1159 1.511 . S
C1157 C1153 1.376 . S
C1157 C1156 1.392 . S
C1157 H1169 0.929 . S
C1158 C1154 1.531 . S
C1158 H1170 0.960 . S
C1158 H1171 0.962 . S
C1158 H1172 0.960 . S
C1159 C1156 1.511 . S
C1159 H1173 0.961 . S
C1159 H1174 0.961 . S
C1159 H1175 0.961 . S
C1160 C1161 1.370 . S
C1160 C1162 1.363 . S
C1160 H1176 0.931 . S
C1161 C1160 1.370 . S
C1161 C1165 1.408 . S
C1162 C1160 1.363 . S
C1162 C1163 1.370 . S
C1162 C1166 1.524 . S
C1163 C1155 1.503 . S
C1163 C1162 1.370 . S
C1163 C1164 1.403 . S
C1164 C1163 1.403 . S
C1164 C1165 1.404 . S
C1164 C1167 1.539 . S
C1165 C1161 1.408 . S
C1165 C1164 1.404 . S
C1165 H1177 0.930 . S
C1166 C1162 1.524 . S
C1166 H1178 0.956 . S
C1166 H1179 0.961 . S
C1166 H1180 0.961 . S
C1167 C1164 1.539 . S
C1167 H1181 0.958 . S
C1167 H1182 0.961 . S
C1167 H1183 0.960 . S
H1168 C1152 0.931 . S
H1169 C1157 0.929 . S
H1170 C1158 0.960 . S
H1171 C1158 0.962 . S
H1172 C1158 0.960 . S
H1173 C1159 0.961 . S
H1174 C1159 0.961 . S
H1175 C1159 0.961 . S
H1176 C1160 0.931 . S
H1177 C1165 0.930 . S
H1178 C1166 0.956 . S
H1179 C1166 0.961 . S
H1180 C1166 0.961 . S
H1181 C1167 0.958 . S
H1182 C1167 0.961 . S
H1183 C1167 0.960 . S
C1184 C1185 1.391 . S
C1184 C1186 1.394 . S
C1184 H1200 0.931 . S
C1185 C1184 1.391 . S
C1185 C1189 1.376 . S
C1186 C1184 1.394 . S
C1186 C1187 1.369 . S
C1186 C1190 1.531 . S
C1187 C1186 1.369 . S
C1187 C1188 1.410 . S
C1187 C1195 1.503 . S
C1188 C1187 1.410 . S
C1188 C1189 1.392 . S
C1188 C1191 1.511 . S
C1189 C1185 1.376 . S
C1189 C1188 1.392 . S
C1189 H1201 0.929 . S
C1190 C1186 1.531 . S
C1190 H1202 0.960 . S
C1190 H1203 0.962 . S
C1190 H1204 0.960 . S
C1191 C1188 1.511 . S
C1191 H1205 0.961 . S
C1191 H1206 0.961 . S
C1191 H1207 0.961 . S
C1192 C1193 1.370 . S
C1192 C1194 1.363 . S
C1192 H1208 0.931 . S
C1193 C1192 1.370 . S
C1193 C1197 1.408 . S
C1194 C1192 1.363 . S
C1194 C1195 1.370 . S
C1194 C1198 1.524 . S
C1195 C1187 1.503 . S
C1195 C1194 1.370 . S
C1195 C1196 1.403 . S
C1196 C1195 1.403 . S
C1196 C1197 1.404 . S
C1196 C1199 1.539 . S
C1197 C1193 1.408 . S
C1197 C1196 1.404 . S
C1197 H1209 0.930 . S
C1198 C1194 1.524 . S
C1198 H1210 0.956 . S
C1198 H1211 0.961 . S
C1198 H1212 0.961 . S
C1199 C1196 1.539 . S
C1199 H1213 0.958 . S
C1199 H1214 0.961 . S
C1199 H1215 0.960 . S
H1200 C1184 0.931 . S
H1201 C1189 0.929 . S
H1202 C1190 0.960 . S
H1203 C1190 0.962 . S
H1204 C1190 0.960 . S
H1205 C1191 0.961 . S
H1206 C1191 0.961 . S
H1207 C1191 0.961 . S
H1208 C1192 0.931 . S
H1209 C1197 0.930 . S
H1210 C1198 0.956 . S
H1211 C1198 0.961 . S
H1212 C1198 0.961 . S
H1213 C1199 0.958 . S
H1214 C1199 0.961 . S
H1215 C1199 0.960 . S
C1216 C1217 1.391 . S
C1216 C1218 1.394 . S
C1216 H1232 0.931 . S
C1217 C1216 1.391 . S
C1217 C1221 1.376 . S
C1218 C1216 1.394 . S
C1218 C1219 1.369 . S
C1218 C1222 1.531 . S
C1219 C1218 1.369 . S
C1219 C1220 1.410 . S
C1219 C1227 1.503 . S
C1220 C1219 1.410 . S
C1220 C1221 1.392 . S
C1220 C1223 1.511 . S
C1221 C1217 1.376 . S
C1221 C1220 1.392 . S
C1221 H1233 0.929 . S
C1222 C1218 1.531 . S
C1222 H1234 0.960 . S
C1222 H1235 0.962 . S
C1222 H1236 0.960 . S
C1223 C1220 1.511 . S
C1223 H1237 0.961 . S
C1223 H1238 0.961 . S
C1223 H1239 0.961 . S
C1224 C1225 1.370 . S
C1224 C1226 1.363 . S
C1224 H1240 0.931 . S
C1225 C1224 1.370 . S
C1225 C1229 1.408 . S
C1226 C1224 1.363 . S
C1226 C1227 1.370 . S
C1226 C1230 1.524 . S
C1227 C1219 1.503 . S
C1227 C1226 1.370 . S
C1227 C1228 1.403 . S
C1228 C1227 1.403 . S
C1228 C1229 1.404 . S
C1228 C1231 1.539 . S
C1229 C1225 1.408 . S
C1229 C1228 1.404 . S
C1229 H1241 0.930 . S
C1230 C1226 1.524 . S
C1230 H1242 0.956 . S
C1230 H1243 0.961 . S
C1230 H1244 0.961 . S
C1231 C1228 1.539 . S
C1231 H1245 0.958 . S
C1231 H1246 0.961 . S
C1231 H1247 0.960 . S
H1232 C1216 0.931 . S
H1233 C1221 0.929 . S
H1234 C1222 0.960 . S
H1235 C1222 0.962 . S
H1236 C1222 0.960 . S
H1237 C1223 0.961 . S
H1238 C1223 0.961 . S
H1239 C1223 0.961 . S
H1240 C1224 0.931 . S
H1241 C1229 0.930 . S
H1242 C1230 0.956 . S
H1243 C1230 0.961 . S
H1244 C1230 0.961 . S
H1245 C1231 0.958 . S
H1246 C1231 0.961 . S
H1247 C1231 0.960 . S
C1248 C1249 1.391 . S
C1248 C1250 1.394 . S
C1248 H1264 0.931 . S
C1249 C1248 1.391 . S
C1249 C1253 1.376 . S
C1250 C1248 1.394 . S
C1250 C1251 1.369 . S
C1250 C1254 1.531 . S
C1251 C1250 1.369 . S
C1251 C1252 1.410 . S
C1251 C1259 1.503 . S
C1252 C1251 1.410 . S
C1252 C1253 1.392 . S
C1252 C1255 1.511 . S
C1253 C1249 1.376 . S
C1253 C1252 1.392 . S
C1253 H1265 0.929 . S
C1254 C1250 1.531 . S
C1254 H1266 0.960 . S
C1254 H1267 0.962 . S
C1254 H1268 0.960 . S
C1255 C1252 1.511 . S
C1255 H1269 0.961 . S
C1255 H1270 0.961 . S
C1255 H1271 0.961 . S
C1256 C1257 1.370 . S
C1256 C1258 1.363 . S
C1256 H1272 0.931 . S
C1257 C1256 1.370 . S
C1257 C1261 1.408 . S
C1258 C1256 1.363 . S
C1258 C1259 1.370 . S
C1258 C1262 1.524 . S
C1259 C1251 1.503 . S
C1259 C1258 1.370 . S
C1259 C1260 1.403 . S
C1260 C1259 1.403 . S
C1260 C1261 1.404 . S
C1260 C1263 1.539 . S
C1261 C1257 1.408 . S
C1261 C1260 1.404 . S
C1261 H1273 0.930 . S
C1262 C1258 1.524 . S
C1262 H1274 0.956 . S
C1262 H1275 0.961 . S
C1262 H1276 0.961 . S
C1263 C1260 1.539 . S
C1263 H1277 0.958 . S
C1263 H1278 0.961 . S
C1263 H1279 0.960 . S
H1264 C1248 0.931 . S
H1265 C1253 0.929 . S
H1266 C1254 0.960 . S
H1267 C1254 0.962 . S
H1268 C1254 0.960 . S
H1269 C1255 0.961 . S
H1270 C1255 0.961 . S
H1271 C1255 0.961 . S
H1272 C1256 0.931 . S
H1273 C1261 0.930 . S
H1274 C1262 0.956 . S
H1275 C1262 0.961 . S
H1276 C1262 0.961 . S
H1277 C1263 0.958 . S
H1278 C1263 0.961 . S
H1279 C1263 0.960 . S
C1280 C1281 1.391 . S
C1280 C1282 1.394 . S
C1280 H1296 0.931 . S
C1281 C1280 1.391 . S
C1281 C1285 1.376 . S
C1282 C1280 1.394 . S
C1282 C1283 1.369 . S
C1282 C1286 1.531 . S
C1283 C1282 1.369 . S
C1283 C1284 1.410 . S
C1283 C1291 1.503 . S
C1284 C1283 1.410 . S
C1284 C1285 1.392 . S
C1284 C1287 1.511 . S
C1285 C1281 1.376 . S
C1285 C1284 1.392 . S
C1285 H1297 0.929 . S
C1286 C1282 1.531 . S
C1286 H1298 0.960 . S
C1286 H1299 0.962 . S
C1286 H1300 0.960 . S
C1287 C1284 1.511 . S
C1287 H1301 0.961 . S
C1287 H1302 0.961 . S
C1287 H1303 0.961 . S
C1288 C1289 1.370 . S
C1288 C1290 1.363 . S
C1288 H1304 0.931 . S
C1289 C1288 1.370 . S
C1289 C1293 1.408 . S
C1290 C1288 1.363 . S
C1290 C1291 1.370 . S
C1290 C1294 1.524 . S
C1291 C1283 1.503 . S
C1291 C1290 1.370 . S
C1291 C1292 1.403 . S
C1292 C1291 1.403 . S
C1292 C1293 1.404 . S
C1292 C1295 1.539 . S
C1293 C1289 1.408 . S
C1293 C1292 1.404 . S
C1293 H1305 0.930 . S
C1294 C1290 1.524 . S
C1294 H1306 0.956 . S
C1294 H1307 0.961 . S
C1294 H1308 0.961 . S
C1295 C1292 1.539 . S
C1295 H1309 0.958 . S
C1295 H1310 0.961 . S
C1295 H1311 0.960 . S
H1296 C1280 0.931 . S
H1297 C1285 0.929 . S
H1298 C1286 0.960 . S
H1299 C1286 0.962 . S
H1300 C1286 0.960 . S
H1301 C1287 0.961 . S
H1302 C1287 0.961 . S
H1303 C1287 0.961 . S
H1304 C1288 0.931 . S
H1305 C1293 0.930 . S
H1306 C1294 0.956 . S
H1307 C1294 0.961 . S
H1308 C1294 0.961 . S
H1309 C1295 0.958 . S
H1310 C1295 0.961 . S
H1311 C1295 0.960 . S
C1312 C1313 1.391 . S
C1312 C1314 1.394 . S
C1312 H1328 0.931 . S
C1313 C1312 1.391 . S
C1313 C1317 1.376 . S
C1314 C1312 1.394 . S
C1314 C1315 1.369 . S
C1314 C1318 1.531 . S
C1315 C1314 1.369 . S
C1315 C1316 1.410 . S
C1315 C1323 1.503 . S
C1316 C1315 1.410 . S
C1316 C1317 1.392 . S
C1316 C1319 1.511 . S
C1317 C1313 1.376 . S
C1317 C1316 1.392 . S
C1317 H1329 0.929 . S
C1318 C1314 1.531 . S
C1318 H1330 0.960 . S
C1318 H1331 0.962 . S
C1318 H1332 0.960 . S
C1319 C1316 1.511 . S
C1319 H1333 0.961 . S
C1319 H1334 0.961 . S
C1319 H1335 0.961 . S
C1320 C1321 1.370 . S
C1320 C1322 1.363 . S
C1320 H1336 0.931 . S
C1321 C1320 1.370 . S
C1321 C1325 1.408 . S
C1322 C1320 1.363 . S
C1322 C1323 1.370 . S
C1322 C1326 1.524 . S
C1323 C1315 1.503 . S
C1323 C1322 1.370 . S
C1323 C1324 1.403 . S
C1324 C1323 1.403 . S
C1324 C1325 1.404 . S
C1324 C1327 1.539 . S
C1325 C1321 1.408 . S
C1325 C1324 1.404 . S
C1325 H1337 0.930 . S
C1326 C1322 1.524 . S
C1326 H1338 0.956 . S
C1326 H1339 0.961 . S
C1326 H1340 0.961 . S
C1327 C1324 1.539 . S
C1327 H1341 0.958 . S
C1327 H1342 0.961 . S
C1327 H1343 0.960 . S
H1328 C1312 0.931 . S
H1329 C1317 0.929 . S
H1330 C1318 0.960 . S
H1331 C1318 0.962 . S
H1332 C1318 0.960 . S
H1333 C1319 0.961 . S
H1334 C1319 0.961 . S
H1335 C1319 0.961 . S
H1336 C1320 0.931 . S
H1337 C1325 0.930 . S
H1338 C1326 0.956 . S
H1339 C1326 0.961 . S
H1340 C1326 0.961 . S
H1341 C1327 0.958 . S
H1342 C1327 0.961 . S
H1343 C1327 0.960 . S
C1344 C1345 1.391 . S
C1344 C1346 1.394 . S
C1344 H1360 0.931 . S
C1345 C1344 1.391 . S
C1345 C1349 1.376 . S
C1346 C1344 1.394 . S
C1346 C1347 1.369 . S
C1346 C1350 1.531 . S
C1347 C1346 1.369 . S
C1347 C1348 1.410 . S
C1347 C1355 1.503 . S
C1348 C1347 1.410 . S
C1348 C1349 1.392 . S
C1348 C1351 1.511 . S
C1349 C1345 1.376 . S
C1349 C1348 1.392 . S
C1349 H1361 0.929 . S
C1350 C1346 1.531 . S
C1350 H1362 0.960 . S
C1350 H1363 0.962 . S
C1350 H1364 0.960 . S
C1351 C1348 1.511 . S
C1351 H1365 0.961 . S
C1351 H1366 0.961 . S
C1351 H1367 0.961 . S
C1352 C1353 1.370 . S
C1352 C1354 1.363 . S
C1352 H1368 0.931 . S
C1353 C1352 1.370 . S
C1353 C1357 1.408 . S
C1354 C1352 1.363 . S
C1354 C1355 1.370 . S
C1354 C1358 1.524 . S
C1355 C1347 1.503 . S
C1355 C1354 1.370 . S
C1355 C1356 1.403 . S
C1356 C1355 1.403 . S
C1356 C1357 1.404 . S
C1356 C1359 1.539 . S
C1357 C1353 1.408 . S
C1357 C1356 1.404 . S
C1357 H1369 0.930 . S
C1358 C1354 1.524 . S
C1358 H1370 0.956 . S
C1358 H1371 0.961 . S
C1358 H1372 0.961 . S
C1359 C1356 1.539 . S
C1359 H1373 0.958 . S
C1359 H1374 0.961 . S
C1359 H1375 0.960 . S
H1360 C1344 0.931 . S
H1361 C1349 0.929 . S
H1362 C1350 0.960 . S
H1363 C1350 0.962 . S
H1364 C1350 0.960 . S
H1365 C1351 0.961 . S
H1366 C1351 0.961 . S
H1367 C1351 0.961 . S
H1368 C1352 0.931 . S
H1369 C1357 0.930 . S
H1370 C1358 0.956 . S
H1371 C1358 0.961 . S
H1372 C1358 0.961 . S
H1373 C1359 0.958 . S
H1374 C1359 0.961 . S
H1375 C1359 0.960 . S
C1376 C1377 1.391 . S
C1376 C1378 1.394 . S
C1376 H1392 0.931 . S
C1377 C1376 1.391 . S
C1377 C1381 1.376 . S
C1378 C1376 1.394 . S
C1378 C1379 1.369 . S
C1378 C1382 1.531 . S
C1379 C1378 1.369 . S
C1379 C1380 1.410 . S
C1379 C1387 1.503 . S
C1380 C1379 1.410 . S
C1380 C1381 1.392 . S
C1380 C1383 1.511 . S
C1381 C1377 1.376 . S
C1381 C1380 1.392 . S
C1381 H1393 0.929 . S
C1382 C1378 1.531 . S
C1382 H1394 0.960 . S
C1382 H1395 0.962 . S
C1382 H1396 0.960 . S
C1383 C1380 1.511 . S
C1383 H1397 0.961 . S
C1383 H1398 0.961 . S
C1383 H1399 0.961 . S
C1384 C1385 1.370 . S
C1384 C1386 1.363 . S
C1384 H1400 0.931 . S
C1385 C1384 1.370 . S
C1385 C1389 1.408 . S
C1386 C1384 1.363 . S
C1386 C1387 1.370 . S
C1386 C1390 1.524 . S
C1387 C1379 1.503 . S
C1387 C1386 1.370 . S
C1387 C1388 1.403 . S
C1388 C1387 1.403 . S
C1388 C1389 1.404 . S
C1388 C1391 1.539 . S
C1389 C1385 1.408 . S
C1389 C1388 1.404 . S
C1389 H1401 0.930 . S
C1390 C1386 1.524 . S
C1390 H1402 0.956 . S
C1390 H1403 0.961 . S
C1390 H1404 0.961 . S
C1391 C1388 1.539 . S
C1391 H1405 0.958 . S
C1391 H1406 0.961 . S
C1391 H1407 0.960 . S
H1392 C1376 0.931 . S
H1393 C1381 0.929 . S
H1394 C1382 0.960 . S
H1395 C1382 0.962 . S
H1396 C1382 0.960 . S
H1397 C1383 0.961 . S
H1398 C1383 0.961 . S
H1399 C1383 0.961 . S
H1400 C1384 0.931 . S
H1401 C1389 0.930 . S
H1402 C1390 0.956 . S
H1403 C1390 0.961 . S
H1404 C1390 0.961 . S
H1405 C1391 0.958 . S
H1406 C1391 0.961 . S
H1407 C1391 0.960 . S
C1408 C1409 1.391 . S
C1408 C1410 1.394 . S
C1408 H1424 0.931 . S
C1409 C1408 1.391 . S
C1409 C1413 1.376 . S
C1410 C1408 1.394 . S
C1410 C1411 1.369 . S
C1410 C1414 1.531 . S
C1411 C1410 1.369 . S
C1411 C1412 1.410 . S
C1411 C1419 1.503 . S
C1412 C1411 1.410 . S
C1412 C1413 1.392 . S
C1412 C1415 1.511 . S
C1413 C1409 1.376 . S
C1413 C1412 1.392 . S
C1413 H1425 0.929 . S
C1414 C1410 1.531 . S
C1414 H1426 0.960 . S
C1414 H1427 0.962 . S
C1414 H1428 0.960 . S
C1415 C1412 1.511 . S
C1415 H1429 0.961 . S
C1415 H1430 0.961 . S
C1415 H1431 0.961 . S
C1416 C1417 1.370 . S
C1416 C1418 1.363 . S
C1416 H1432 0.931 . S
C1417 C1416 1.370 . S
C1417 C1421 1.408 . S
C1418 C1416 1.363 . S
C1418 C1419 1.370 . S
C1418 C1422 1.524 . S
C1419 C1411 1.503 . S
C1419 C1418 1.370 . S
C1419 C1420 1.403 . S
C1420 C1419 1.403 . S
C1420 C1421 1.404 . S
C1420 C1423 1.539 . S
C1421 C1417 1.408 . S
C1421 C1420 1.404 . S
C1421 H1433 0.930 . S
C1422 C1418 1.524 . S
C1422 H1434 0.956 . S
C1422 H1435 0.961 . S
C1422 H1436 0.961 . S
C1423 C1420 1.539 . S
C1423 H1437 0.958 . S
C1423 H1438 0.961 . S
C1423 H1439 0.960 . S
H1424 C1408 0.931 . S
H1425 C1413 0.929 . S
H1426 C1414 0.960 . S
H1427 C1414 0.962 . S
H1428 C1414 0.960 . S
H1429 C1415 0.961 . S
H1430 C1415 0.961 . S
H1431 C1415 0.961 . S
H1432 C1416 0.931 . S
H1433 C1421 0.930 . S
H1434 C1422 0.956 . S
H1435 C1422 0.961 . S
H1436 C1422 0.961 . S
H1437 C1423 0.958 . S
H1438 C1423 0.961 . S
H1439 C1423 0.960 . S
C1440 C1441 1.391 . S
C1440 C1442 1.394 . S
C1440 H1456 0.931 . S
C1441 C1440 1.391 . S
C1441 C1445 1.376 . S
C1442 C1440 1.394 . S
C1442 C1443 1.369 . S
C1442 C1446 1.531 . S
C1443 C1442 1.369 . S
C1443 C1444 1.410 . S
C1443 C1451 1.503 . S
C1444 C1443 1.410 . S
C1444 C1445 1.392 . S
C1444 C1447 1.511 . S
C1445 C1441 1.376 . S
C1445 C1444 1.392 . S
C1445 H1457 0.929 . S
C1446 C1442 1.531 . S
C1446 H1458 0.960 . S
C1446 H1459 0.962 . S
C1446 H1460 0.960 . S
C1447 C1444 1.511 . S
C1447 H1461 0.961 . S
C1447 H1462 0.961 . S
C1447 H1463 0.961 . S
C1448 C1449 1.370 . S
C1448 C1450 1.363 . S
C1448 H1464 0.931 . S
C1449 C1448 1.370 . S
C1449 C1453 1.408 . S
C1450 C1448 1.363 . S
C1450 C1451 1.370 . S
C1450 C1454 1.524 . S
C1451 C1443 1.503 . S
C1451 C1450 1.370 . S
C1451 C1452 1.403 . S
C1452 C1451 1.403 . S
C1452 C1453 1.404 . S
C1452 C1455 1.539 . S
C1453 C1449 1.408 . S
C1453 C1452 1.404 . S
C1453 H1465 0.930 . S
C1454 C1450 1.524 . S
C1454 H1466 0.956 . S
C1454 H1467 0.961 . S
C1454 H1468 0.961 . S
C1455 C1452 1.539 . S
C1455 H1469 0.958 . S
C1455 H1470 0.961 . S
C1455 H1471 0.960 . S
H1456 C1440 0.931 . S
H1457 C1445 0.929 . S
H1458 C1446 0.960 . S
H1459 C1446 0.962 . S
H1460 C1446 0.960 . S
H1461 C1447 0.961 . S
H1462 C1447 0.961 . S
H1463 C1447 0.961 . S
H1464 C1448 0.931 . S
H1465 C1453 0.930 . S
H1466 C1454 0.956 . S
H1467 C1454 0.961 . S
H1468 C1454 0.961 . S
H1469 C1455 0.958 . S
H1470 C1455 0.961 . S
H1471 C1455 0.960 . S
C1472 C1473 1.391 1_545 S
C1472 C1474 1.394 1_455 S
C1472 H1488 0.931 . S
C1473 C1472 1.391 1_565 S
C1473 C1477 1.376 . S
C1474 C1472 1.394 1_655 S
C1474 C1475 1.369 1_655 S
C1474 C1478 1.530 . S
C1475 C1474 1.369 1_455 S
C1475 C1476 1.410 1_545 S
C1475 C1483 1.495 1_455 S
C1476 C1475 1.410 1_565 S
C1476 C1477 1.392 . S
C1476 C1479 1.511 . S
C1477 C1473 1.376 . S
C1477 C1476 1.392 . S
C1477 H1489 0.929 . S
C1478 C1474 1.530 . S
C1478 H1490 0.960 . S
C1478 H1491 0.962 . S
C1478 H1492 0.960 . S
C1479 C1476 1.511 . S
C1479 H1493 0.961 . S
C1479 H1494 0.961 . S
C1479 H1495 0.961 . S
C1480 C1481 1.370 1_565 S
C1480 C1482 1.363 . S
C1480 H1496 0.931 . S
C1481 C1480 1.370 1_545 S
C1481 C1485 1.408 1_655 S
C1482 C1480 1.363 . S
C1482 C1483 1.393 1_565 S
C1482 C1486 1.524 . S
C1483 C1475 1.495 1_655 S
C1483 C1482 1.393 1_545 S
C1483 C1484 1.389 1_655 S
C1484 C1483 1.389 1_455 S
C1484 C1485 1.404 . S
C1484 C1487 1.539 . S
C1485 C1481 1.408 1_455 S
C1485 C1484 1.404 . S
C1485 H1497 0.930 . S
C1486 C1482 1.524 . S
C1486 H1498 0.956 . S
C1486 H1499 0.961 . S
C1486 H1500 0.961 . S
C1487 C1484 1.539 . S
C1487 H1501 0.958 . S
C1487 H1502 0.961 . S
C1487 H1503 0.960 . S
H1488 C1472 0.931 . S
H1489 C1477 0.929 . S
H1490 C1478 0.960 . S
H1491 C1478 0.962 . S
H1492 C1478 0.960 . S
H1493 C1479 0.961 . S
H1494 C1479 0.961 . S
H1495 C1479 0.961 . S
H1496 C1480 0.931 . S
H1497 C1485 0.930 . S
H1498 C1486 0.956 . S
H1499 C1486 0.961 . S
H1500 C1486 0.961 . S
H1501 C1487 0.958 . S
H1502 C1487 0.961 . S
H1503 C1487 0.960 . S
C1504 C1505 1.391 . S
C1504 C1506 1.394 . S
C1504 H1520 0.931 . S
C1505 C1504 1.391 . S
C1505 C1509 1.376 . S
C1506 C1504 1.394 . S
C1506 C1507 1.369 . S
C1506 C1510 1.531 . S
C1507 C1506 1.369 . S
C1507 C1508 1.410 . S
C1507 C1515 1.503 . S
C1508 C1507 1.410 . S
C1508 C1509 1.392 . S
C1508 C1511 1.511 . S
C1509 C1505 1.376 . S
C1509 C1508 1.392 . S
C1509 H1521 0.929 . S
C1510 C1506 1.531 . S
C1510 H1522 0.960 . S
C1510 H1523 0.962 . S
C1510 H1524 0.960 . S
C1511 C1508 1.511 . S
C1511 H1525 0.961 . S
C1511 H1526 0.961 . S
C1511 H1527 0.961 . S
C1512 C1513 1.370 . S
C1512 C1514 1.363 . S
C1512 H1528 0.931 . S
C1513 C1512 1.370 . S
C1513 C1517 1.408 . S
C1514 C1512 1.363 . S
C1514 C1515 1.370 . S
C1514 C1518 1.524 . S
C1515 C1507 1.503 . S
C1515 C1514 1.370 . S
C1515 C1516 1.403 . S
C1516 C1515 1.403 . S
C1516 C1517 1.404 . S
C1516 C1519 1.539 . S
C1517 C1513 1.408 . S
C1517 C1516 1.404 . S
C1517 H1529 0.930 . S
C1518 C1514 1.524 . S
C1518 H1530 0.956 . S
C1518 H1531 0.961 . S
C1518 H1532 0.961 . S
C1519 C1516 1.539 . S
C1519 H1533 0.958 . S
C1519 H1534 0.961 . S
C1519 H1535 0.960 . S
H1520 C1504 0.931 . S
H1521 C1509 0.929 . S
H1522 C1510 0.960 . S
H1523 C1510 0.962 . S
H1524 C1510 0.960 . S
H1525 C1511 0.961 . S
H1526 C1511 0.961 . S
H1527 C1511 0.961 . S
H1528 C1512 0.931 . S
H1529 C1517 0.930 . S
H1530 C1518 0.956 . S
H1531 C1518 0.961 . S
H1532 C1518 0.961 . S
H1533 C1519 0.958 . S
H1534 C1519 0.961 . S
H1535 C1519 0.960 . S
C1536 C1537 1.391 . S
C1536 C1538 1.394 . S
C1536 H1552 0.931 . S
C1537 C1536 1.391 . S
C1537 C1541 1.376 . S
C1538 C1536 1.394 . S
C1538 C1539 1.369 . S
C1538 C1542 1.531 1_554 S
C1539 C1538 1.369 . S
C1539 C1540 1.418 . S
C1539 C1547 1.503 1_554 S
C1540 C1539 1.418 . S
C1540 C1541 1.395 . S
C1540 C1543 1.501 1_545 S
C1541 C1537 1.376 . S
C1541 C1540 1.395 . S
C1541 H1553 0.929 1_545 S
C1542 C1538 1.531 1_556 S
C1542 H1554 0.960 . S
C1542 H1555 0.962 . S
C1542 H1556 0.960 1_556 S
C1543 C1540 1.501 1_565 S
C1543 H1557 0.961 . S
C1543 H1558 0.961 . S
C1543 H1559 0.961 1_565 S
C1544 C1545 1.370 . S
C1544 C1546 1.363 . S
C1544 H1560 0.931 . S
C1545 C1544 1.370 . S
C1545 C1549 1.408 1_565 S
C1546 C1544 1.363 . S
C1546 C1547 1.370 1_565 S
C1546 C1550 1.524 . S
C1547 C1539 1.503 1_556 S
C1547 C1546 1.370 1_545 S
C1547 C1548 1.403 . S
C1548 C1547 1.403 . S
C1548 C1549 1.404 . S
C1548 C1551 1.539 . S
C1549 C1545 1.408 1_545 S
C1549 C1548 1.404 . S
C1549 H1561 0.930 . S
C1550 C1546 1.524 . S
C1550 H1562 0.956 . S
C1550 H1563 0.961 1_556 S
C1550 H1564 0.961 . S
C1551 C1548 1.539 . S
C1551 H1565 0.958 . S
C1551 H1566 0.961 . S
C1551 H1567 0.960 1_556 S
H1552 C1536 0.931 . S
H1553 C1541 0.929 1_565 S
H1554 C1542 0.960 . S
H1555 C1542 0.962 . S
H1556 C1542 0.960 1_554 S
H1557 C1543 0.961 . S
H1558 C1543 0.961 . S
H1559 C1543 0.961 1_545 S
H1560 C1544 0.931 . S
H1561 C1549 0.930 . S
H1562 C1550 0.956 . S
H1563 C1550 0.961 1_554 S
H1564 C1550 0.961 . S
H1565 C1551 0.958 . S
H1566 C1551 0.961 . S
H1567 C1551 0.960 1_554 S
C1568 C1569 1.391 . S
C1568 C1570 1.394 . S
C1568 H1584 0.931 . S
C1569 C1568 1.391 . S
C1569 C1573 1.376 . S
C1570 C1568 1.394 . S
C1570 C1571 1.369 . S
C1570 C1574 1.531 . S
C1571 C1570 1.369 . S
C1571 C1572 1.410 . S
C1571 C1579 1.503 . S
C1572 C1571 1.410 . S
C1572 C1573 1.392 . S
C1572 C1575 1.511 . S
C1573 C1569 1.376 . S
C1573 C1572 1.392 . S
C1573 H1585 0.929 . S
C1574 C1570 1.531 . S
C1574 H1586 0.960 . S
C1574 H1587 0.962 . S
C1574 H1588 0.960 . S
C1575 C1572 1.511 . S
C1575 H1589 0.961 . S
C1575 H1590 0.961 . S
C1575 H1591 0.961 . S
C1576 C1577 1.370 . S
C1576 C1578 1.363 . S
C1576 H1592 0.931 . S
C1577 C1576 1.370 . S
C1577 C1581 1.408 . S
C1578 C1576 1.363 . S
C1578 C1579 1.370 . S
C1578 C1582 1.524 . S
C1579 C1571 1.503 . S
C1579 C1578 1.370 . S
C1579 C1580 1.403 . S
C1580 C1579 1.403 . S
C1580 C1581 1.404 . S
C1580 C1583 1.539 . S
C1581 C1577 1.408 . S
C1581 C1580 1.404 . S
C1581 H1593 0.930 . S
C1582 C1578 1.524 . S
C1582 H1594 0.956 . S
C1582 H1595 0.961 . S
C1582 H1596 0.961 . S
C1583 C1580 1.539 . S
C1583 H1597 0.958 . S
C1583 H1598 0.961 . S
C1583 H1599 0.960 . S
H1584 C1568 0.931 . S
H1585 C1573 0.929 . S
H1586 C1574 0.960 . S
H1587 C1574 0.962 . S
H1588 C1574 0.960 . S
H1589 C1575 0.961 . S
H1590 C1575 0.961 . S
H1591 C1575 0.961 . S
H1592 C1576 0.931 . S
H1593 C1581 0.930 . S
H1594 C1582 0.956 . S
H1595 C1582 0.961 . S
H1596 C1582 0.961 . S
H1597 C1583 0.958 . S
H1598 C1583 0.961 . S
H1599 C1583 0.960 . S
C1600 C1601 1.391 1_545 S
C1600 C1602 1.394 . S
C1600 H1616 0.931 . S
C1601 C1600 1.391 1_565 S
C1601 C1605 1.376 . S
C1602 C1600 1.394 . S
C1602 C1603 1.369 . S
C1602 C1606 1.531 . S
C1603 C1602 1.369 . S
C1603 C1604 1.410 1_545 S
C1603 C1611 1.503 . S
C1604 C1603 1.410 1_565 S
C1604 C1605 1.392 . S
C1604 C1607 1.511 . S
C1605 C1601 1.376 . S
C1605 C1604 1.392 . S
C1605 H1617 0.929 . S
C1606 C1602 1.531 . S
C1606 H1618 0.960 . S
C1606 H1619 0.962 . S
C1606 H1620 0.960 . S
C1607 C1604 1.511 . S
C1607 H1621 0.961 . S
C1607 H1622 0.961 . S
C1607 H1623 0.961 . S
C1608 C1609 1.370 1_565 S
C1608 C1610 1.363 . S
C1608 H1624 0.931 . S
C1609 C1608 1.370 1_545 S
C1609 C1613 1.408 . S
C1610 C1608 1.363 . S
C1610 C1611 1.370 1_565 S
C1610 C1614 1.524 . S
C1611 C1603 1.503 . S
C1611 C1610 1.370 1_545 S
C1611 C1612 1.403 . S
C1612 C1611 1.403 . S
C1612 C1613 1.404 . S
C1612 C1615 1.539 . S
C1613 C1609 1.408 . S
C1613 C1612 1.404 . S
C1613 H1625 0.930 . S
C1614 C1610 1.524 . S
C1614 H1626 0.956 . S
C1614 H1627 0.961 . S
C1614 H1628 0.961 . S
C1615 C1612 1.539 . S
C1615 H1629 0.958 . S
C1615 H1630 0.961 . S
C1615 H1631 0.960 . S
H1616 C1600 0.931 . S
H1617 C1605 0.929 . S
H1618 C1606 0.960 . S
H1619 C1606 0.962 . S
H1620 C1606 0.960 . S
H1621 C1607 0.961 . S
H1622 C1607 0.961 . S
H1623 C1607 0.961 . S
H1624 C1608 0.931 . S
H1625 C1613 0.930 . S
H1626 C1614 0.956 . S
H1627 C1614 0.961 . S
H1628 C1614 0.961 . S
H1629 C1615 0.958 . S
H1630 C1615 0.961 . S
H1631 C1615 0.960 . S
C1632 C1633 1.391 . S
C1632 C1634 1.394 . S
C1632 H1648 0.931 . S
C1633 C1632 1.391 . S
C1633 C1637 1.376 . S
C1634 C1632 1.394 . S
C1634 C1635 1.369 . S
C1634 C1638 1.531 . S
C1635 C1634 1.369 . S
C1635 C1636 1.410 . S
C1635 C1643 1.503 . S
C1636 C1635 1.410 . S
C1636 C1637 1.392 . S
C1636 C1639 1.511 . S
C1637 C1633 1.376 . S
C1637 C1636 1.392 . S
C1637 H1649 0.929 . S
C1638 C1634 1.531 . S
C1638 H1650 0.960 . S
C1638 H1651 0.962 . S
C1638 H1652 0.960 . S
C1639 C1636 1.511 . S
C1639 H1653 0.961 . S
C1639 H1654 0.961 . S
C1639 H1655 0.961 . S
C1640 C1641 1.370 . S
C1640 C1642 1.363 . S
C1640 H1656 0.931 . S
C1641 C1640 1.370 . S
C1641 C1645 1.408 . S
C1642 C1640 1.363 . S
C1642 C1643 1.370 . S
C1642 C1646 1.524 . S
C1643 C1635 1.503 . S
C1643 C1642 1.370 . S
C1643 C1644 1.403 . S
C1644 C1643 1.403 . S
C1644 C1645 1.404 . S
C1644 C1647 1.539 . S
C1645 C1641 1.408 . S
C1645 C1644 1.404 . S
C1645 H1657 0.930 . S
C1646 C1642 1.524 . S
C1646 H1658 0.956 . S
C1646 H1659 0.961 . S
C1646 H1660 0.961 . S
C1647 C1644 1.539 . S
C1647 H1661 0.958 . S
C1647 H1662 0.961 . S
C1647 H1663 0.960 . S
H1648 C1632 0.931 . S
H1649 C1637 0.929 . S
H1650 C1638 0.960 . S
H1651 C1638 0.962 . S
H1652 C1638 0.960 . S
H1653 C1639 0.961 . S
H1654 C1639 0.961 . S
H1655 C1639 0.961 . S
H1656 C1640 0.931 . S
H1657 C1645 0.930 . S
H1658 C1646 0.956 . S
H1659 C1646 0.961 . S
H1660 C1646 0.961 . S
H1661 C1647 0.958 . S
H1662 C1647 0.961 . S
H1663 C1647 0.960 . S
C1664 C1665 1.391 1_565 S
C1664 C1666 1.394 . S
C1664 H1680 0.931 . S
C1665 C1664 1.391 1_545 S
C1665 C1669 1.376 . S
C1666 C1664 1.394 . S
C1666 C1667 1.392 . S
C1666 C1670 1.531 1_455 S
C1667 C1666 1.392 . S
C1667 C1668 1.381 1_565 S
C1667 C1675 1.506 1_456 S
C1668 C1667 1.381 1_545 S
C1668 C1669 1.392 . S
C1668 C1671 1.508 1_556 S
C1669 C1665 1.376 . S
C1669 C1668 1.392 . S
C1669 H1681 0.929 . S
C1670 C1666 1.531 1_655 S
C1670 H1682 0.960 . S
C1670 H1683 0.962 . S
C1670 H1684 0.960 . S
C1671 C1668 1.508 1_554 S
C1671 H1685 0.959 1_554 S
C1671 H1686 0.965 . S
C1671 H1687 0.962 . S
C1672 C1673 1.363 1_545 S
C1672 C1674 1.366 . S
C1672 H1688 0.936 . S
C1673 C1672 1.363 1_565 S
C1673 C1677 1.408 1_655 S
C1674 C1672 1.366 . S
C1674 C1675 1.375 1_545 S
C1674 C1678 1.559 . S
C1675 C1667 1.506 1_654 S
C1675 C1674 1.375 1_565 S
C1675 C1676 1.399 1_655 S
C1676 C1675 1.399 1_455 S
C1676 C1677 1.404 . S
C1676 C1679 1.539 . S
C1677 C1673 1.408 1_455 S
C1677 C1676 1.404 . S
C1677 H1689 0.930 . S
C1678 C1674 1.559 . S
C1678 H1690 0.921 1_554 S
C1678 H1691 0.940 1_554 S
C1678 H1692 0.985 . S
C1679 C1676 1.539 . S
C1679 H1693 0.958 . S
C1679 H1694 0.961 . S
C1679 H1695 0.960 . S
H1680 C1664 0.931 . S
H1681 C1669 0.929 . S
H1682 C1670 0.960 . S
H1683 C1670 0.962 . S
H1684 C1670 0.960 . S
H1685 C1671 0.959 1_556 S
H1686 C1671 0.965 . S
H1687 C1671 0.962 . S
H1688 C1672 0.936 . S
H1689 C1677 0.930 . S
H1690 C1678 0.921 1_556 S
H1691 C1678 0.940 1_556 S
H1692 C1678 0.985 . S
H1693 C1679 0.958 . S
H1694 C1679 0.961 . S
H1695 C1679 0.960 . S
C1696 C1697 1.391 . S
C1696 C1698 1.394 . S
C1696 H1712 0.931 . S
C1697 C1696 1.391 . S
C1697 C1701 1.376 . S
C1698 C1696 1.394 . S
C1698 C1699 1.369 . S
C1698 C1702 1.531 . S
C1699 C1698 1.369 . S
C1699 C1700 1.410 . S
C1699 C1707 1.503 . S
C1700 C1699 1.410 . S
C1700 C1701 1.392 . S
C1700 C1703 1.511 . S
C1701 C1697 1.376 . S
C1701 C1700 1.392 . S
C1701 H1713 0.929 . S
C1702 C1698 1.531 . S
C1702 H1714 0.960 . S
C1702 H1715 0.962 . S
C1702 H1716 0.960 . S
C1703 C1700 1.511 . S
C1703 H1717 0.961 . S
C1703 H1718 0.961 . S
C1703 H1719 0.961 . S
C1704 C1705 1.370 . S
C1704 C1706 1.363 . S
C1704 H1720 0.931 . S
C1705 C1704 1.370 . S
C1705 C1709 1.408 . S
C1706 C1704 1.363 . S
C1706 C1707 1.370 . S
C1706 C1710 1.524 . S
C1707 C1699 1.503 . S
C1707 C1706 1.370 . S
C1707 C1708 1.403 . S
C1708 C1707 1.403 . S
C1708 C1709 1.404 . S
C1708 C1711 1.539 . S
C1709 C1705 1.408 . S
C1709 C1708 1.404 . S
C1709 H1721 0.930 . S
C1710 C1706 1.524 . S
C1710 H1722 0.956 . S
C1710 H1723 0.961 . S
C1710 H1724 0.961 . S
C1711 C1708 1.539 . S
C1711 H1725 0.958 . S
C1711 H1726 0.961 . S
C1711 H1727 0.960 . S
H1712 C1696 0.931 . S
H1713 C1701 0.929 . S
H1714 C1702 0.960 . S
H1715 C1702 0.962 . S
H1716 C1702 0.960 . S
H1717 C1703 0.961 . S
H1718 C1703 0.961 . S
H1719 C1703 0.961 . S
H1720 C1704 0.931 . S
H1721 C1709 0.930 . S
H1722 C1710 0.956 . S
H1723 C1710 0.961 . S
H1724 C1710 0.961 . S
H1725 C1711 0.958 . S
H1726 C1711 0.961 . S
H1727 C1711 0.960 . S
C1728 C1729 1.391 . S
C1728 C1730 1.394 . S
C1728 H1744 0.931 . S
C1729 C1728 1.391 . S
C1729 C1733 1.376 . S
C1730 C1728 1.394 . S
C1730 C1731 1.369 . S
C1730 C1734 1.531 . S
C1731 C1730 1.369 . S
C1731 C1732 1.410 . S
C1731 C1739 1.503 . S
C1732 C1731 1.410 . S
C1732 C1733 1.392 . S
C1732 C1735 1.511 . S
C1733 C1729 1.376 . S
C1733 C1732 1.392 . S
C1733 H1745 0.929 . S
C1734 C1730 1.531 . S
C1734 H1746 0.960 . S
C1734 H1747 0.962 . S
C1734 H1748 0.960 . S
C1735 C1732 1.511 . S
C1735 H1749 0.961 . S
C1735 H1750 0.961 . S
C1735 H1751 0.961 . S
C1736 C1737 1.370 . S
C1736 C1738 1.363 . S
C1736 H1752 0.931 . S
C1737 C1736 1.370 . S
C1737 C1741 1.408 . S
C1738 C1736 1.363 . S
C1738 C1739 1.370 . S
C1738 C1742 1.524 . S
C1739 C1731 1.503 . S
C1739 C1738 1.370 . S
C1739 C1740 1.403 . S
C1740 C1739 1.403 . S
C1740 C1741 1.404 . S
C1740 C1743 1.539 . S
C1741 C1737 1.408 . S
C1741 C1740 1.404 . S
C1741 H1753 0.930 . S
C1742 C1738 1.524 . S
C1742 H1754 0.956 . S
C1742 H1755 0.961 . S
C1742 H1756 0.961 . S
C1743 C1740 1.539 . S
C1743 H1757 0.958 . S
C1743 H1758 0.961 . S
C1743 H1759 0.960 . S
H1744 C1728 0.931 . S
H1745 C1733 0.929 . S
H1746 C1734 0.960 . S
H1747 C1734 0.962 . S
H1748 C1734 0.960 . S
H1749 C1735 0.961 . S
H1750 C1735 0.961 . S
H1751 C1735 0.961 . S
H1752 C1736 0.931 . S
H1753 C1741 0.930 . S
H1754 C1742 0.956 . S
H1755 C1742 0.961 . S
H1756 C1742 0.961 . S
H1757 C1743 0.958 . S
H1758 C1743 0.961 . S
H1759 C1743 0.960 . S
C1760 C1761 1.391 . S
C1760 C1762 1.394 . S
C1760 H1776 0.931 . S
C1761 C1760 1.391 . S
C1761 C1765 1.376 . S
C1762 C1760 1.394 . S
C1762 C1763 1.369 . S
C1762 C1766 1.531 . S
C1763 C1762 1.369 . S
C1763 C1764 1.410 . S
C1763 C1771 1.503 . S
C1764 C1763 1.410 . S
C1764 C1765 1.392 . S
C1764 C1767 1.511 . S
C1765 C1761 1.376 . S
C1765 C1764 1.392 . S
C1765 H1777 0.929 . S
C1766 C1762 1.531 . S
C1766 H1778 0.960 . S
C1766 H1779 0.962 . S
C1766 H1780 0.960 . S
C1767 C1764 1.511 . S
C1767 H1781 0.961 . S
C1767 H1782 0.961 . S
C1767 H1783 0.961 . S
C1768 C1769 1.370 . S
C1768 C1770 1.363 . S
C1768 H1784 0.931 . S
C1769 C1768 1.370 . S
C1769 C1773 1.408 . S
C1770 C1768 1.363 . S
C1770 C1771 1.370 . S
C1770 C1774 1.524 . S
C1771 C1763 1.503 . S
C1771 C1770 1.370 . S
C1771 C1772 1.403 . S
C1772 C1771 1.403 . S
C1772 C1773 1.404 . S
C1772 C1775 1.539 . S
C1773 C1769 1.408 . S
C1773 C1772 1.404 . S
C1773 H1785 0.930 . S
C1774 C1770 1.524 . S
C1774 H1786 0.956 . S
C1774 H1787 0.961 . S
C1774 H1788 0.961 . S
C1775 C1772 1.539 . S
C1775 H1789 0.958 . S
C1775 H1790 0.961 . S
C1775 H1791 0.960 . S
H1776 C1760 0.931 . S
H1777 C1765 0.929 . S
H1778 C1766 0.960 . S
H1779 C1766 0.962 . S
H1780 C1766 0.960 . S
H1781 C1767 0.961 . S
H1782 C1767 0.961 . S
H1783 C1767 0.961 . S
H1784 C1768 0.931 . S
H1785 C1773 0.930 . S
H1786 C1774 0.956 . S
H1787 C1774 0.961 . S
H1788 C1774 0.961 . S
H1789 C1775 0.958 . S
H1790 C1775 0.961 . S
H1791 C1775 0.960 . S
C1792 C1793 1.391 . S
C1792 C1794 1.394 . S
C1792 H1808 0.931 . S
C1793 C1792 1.391 . S
C1793 C1797 1.376 . S
C1794 C1792 1.394 . S
C1794 C1795 1.369 . S
C1794 C1798 1.531 . S
C1795 C1794 1.369 . S
C1795 C1796 1.410 . S
C1795 C1803 1.503 . S
C1796 C1795 1.410 . S
C1796 C1797 1.392 . S
C1796 C1799 1.511 . S
C1797 C1793 1.376 . S
C1797 C1796 1.392 . S
C1797 H1809 0.929 . S
C1798 C1794 1.531 . S
C1798 H1810 0.960 . S
C1798 H1811 0.962 . S
C1798 H1812 0.960 . S
C1799 C1796 1.511 . S
C1799 H1813 0.961 . S
C1799 H1814 0.961 . S
C1799 H1815 0.961 . S
C1800 C1801 1.370 . S
C1800 C1802 1.363 . S
C1800 H1816 0.931 . S
C1801 C1800 1.370 . S
C1801 C1805 1.408 . S
C1802 C1800 1.363 . S
C1802 C1803 1.370 . S
C1802 C1806 1.524 . S
C1803 C1795 1.503 . S
C1803 C1802 1.370 . S
C1803 C1804 1.403 . S
C1804 C1803 1.403 . S
C1804 C1805 1.404 . S
C1804 C1807 1.539 . S
C1805 C1801 1.408 . S
C1805 C1804 1.404 . S
C1805 H1817 0.930 . S
C1806 C1802 1.524 . S
C1806 H1818 0.956 . S
C1806 H1819 0.961 . S
C1806 H1820 0.961 . S
C1807 C1804 1.539 . S
C1807 H1821 0.958 . S
C1807 H1822 0.961 . S
C1807 H1823 0.960 . S
H1808 C1792 0.931 . S
H1809 C1797 0.929 . S
H1810 C1798 0.960 . S
H1811 C1798 0.962 . S
H1812 C1798 0.960 . S
H1813 C1799 0.961 . S
H1814 C1799 0.961 . S
H1815 C1799 0.961 . S
H1816 C1800 0.931 . S
H1817 C1805 0.930 . S
H1818 C1806 0.956 . S
H1819 C1806 0.961 . S
H1820 C1806 0.961 . S
H1821 C1807 0.958 . S
H1822 C1807 0.961 . S
H1823 C1807 0.960 . S
C1824 C1825 1.391 . S
C1824 C1826 1.394 . S
C1824 H1840 0.931 . S
C1825 C1824 1.391 . S
C1825 C1829 1.376 . S
C1826 C1824 1.394 . S
C1826 C1827 1.369 . S
C1826 C1830 1.531 . S
C1827 C1826 1.369 . S
C1827 C1828 1.410 . S
C1827 C1835 1.503 1_554 S
C1828 C1827 1.410 . S
C1828 C1829 1.392 . S
C1828 C1831 1.511 1_554 S
C1829 C1825 1.376 . S
C1829 C1828 1.392 . S
C1829 H1841 0.929 . S
C1830 C1826 1.531 . S
C1830 H1842 0.960 . S
C1830 H1843 0.962 . S
C1830 H1844 0.960 . S
C1831 C1828 1.511 1_556 S
C1831 H1845 0.961 1_556 S
C1831 H1846 0.961 . S
C1831 H1847 0.961 . S
C1832 C1833 1.370 . S
C1832 C1834 1.363 . S
C1832 H1848 0.931 . S
C1833 C1832 1.370 . S
C1833 C1837 1.408 . S
C1834 C1832 1.363 . S
C1834 C1835 1.370 . S
C1834 C1838 1.524 . S
C1835 C1827 1.503 1_556 S
C1835 C1834 1.370 . S
C1835 C1836 1.403 . S
C1836 C1835 1.403 . S
C1836 C1837 1.404 . S
C1836 C1839 1.539 . S
C1837 C1833 1.408 . S
C1837 C1836 1.404 . S
C1837 H1849 0.930 . S
C1838 C1834 1.524 . S
C1838 H1850 0.956 1_556 S
C1838 H1851 0.961 . S
C1838 H1852 0.961 . S
C1839 C1836 1.539 . S
C1839 H1853 0.958 . S
C1839 H1854 0.961 . S
C1839 H1855 0.960 . S
H1840 C1824 0.931 . S
H1841 C1829 0.929 . S
H1842 C1830 0.960 . S
H1843 C1830 0.962 . S
H1844 C1830 0.960 . S
H1845 C1831 0.961 1_554 S
H1846 C1831 0.961 . S
H1847 C1831 0.961 . S
H1848 C1832 0.931 . S
H1849 C1837 0.930 . S
H1850 C1838 0.956 1_554 S
H1851 C1838 0.961 . S
H1852 C1838 0.961 . S
H1853 C1839 0.958 . S
H1854 C1839 0.961 . S
H1855 C1839 0.960 . S
C1856 C1857 1.391 . S
C1856 C1858 1.394 . S
C1856 H1872 0.931 . S
C1857 C1856 1.391 . S
C1857 C1861 1.376 1_455 S
C1858 C1856 1.394 . S
C1858 C1859 1.369 . S
C1858 C1862 1.531 . S
C1859 C1858 1.369 . S
C1859 C1860 1.410 1_455 S
C1859 C1867 1.503 1_455 S
C1860 C1859 1.410 1_655 S
C1860 C1861 1.392 . S
C1860 C1863 1.511 . S
C1861 C1857 1.376 1_655 S
C1861 C1860 1.392 . S
C1861 H1873 0.929 . S
C1862 C1858 1.531 . S
C1862 H1874 0.960 . S
C1862 H1875 0.962 . S
C1862 H1876 0.960 . S
C1863 C1860 1.511 . S
C1863 H1877 0.961 . S
C1863 H1878 0.961 . S
C1863 H1879 0.961 . S
C1864 C1865 1.370 . S
C1864 C1866 1.373 . S
C1864 H1880 0.931 . S
C1865 C1864 1.370 . S
C1865 C1869 1.408 . S
C1866 C1864 1.373 . S
C1866 C1867 1.377 . S
C1866 C1870 1.509 1_655 S
C1867 C1859 1.503 1_655 S
C1867 C1866 1.377 . S
C1867 C1868 1.403 . S
C1868 C1867 1.403 . S
C1868 C1869 1.404 . S
C1868 C1871 1.539 . S
C1869 C1865 1.408 . S
C1869 C1868 1.404 . S
C1869 H1881 0.930 . S
C1870 C1866 1.509 1_455 S
C1870 H1882 0.956 . S
C1870 H1883 0.961 . S
C1870 H1884 0.961 . S
C1871 C1868 1.539 . S
C1871 H1885 0.958 . S
C1871 H1886 0.961 . S
C1871 H1887 0.960 . S
H1872 C1856 0.931 . S
H1873 C1861 0.929 . S
H1874 C1862 0.960 . S
H1875 C1862 0.962 . S
H1876 C1862 0.960 . S
H1877 C1863 0.961 . S
H1878 C1863 0.961 . S
H1879 C1863 0.961 . S
H1880 C1864 0.931 . S
H1881 C1869 0.930 . S
H1882 C1870 0.956 . S
H1883 C1870 0.961 . S
H1884 C1870 0.961 . S
H1885 C1871 0.958 . S
H1886 C1871 0.961 . S
H1887 C1871 0.960 . S
C1888 C1889 1.391 1_655 S
C1888 C1890 1.394 . S
C1888 H1904 0.931 . S
C1889 C1888 1.391 1_455 S
C1889 C1893 1.376 . S
C1890 C1888 1.394 . S
C1890 C1891 1.369 1_655 S
C1890 C1894 1.531 . S
C1891 C1890 1.369 1_455 S
C1891 C1892 1.410 . S
C1891 C1899 1.503 1_454 S
C1892 C1891 1.410 . S
C1892 C1893 1.392 . S
C1892 C1895 1.511 . S
C1893 C1889 1.376 . S
C1893 C1892 1.392 . S
C1893 H1905 0.929 . S
C1894 C1890 1.531 . S
C1894 H1906 0.961 1_554 S
C1894 H1907 0.962 . S
C1894 H1908 0.960 . S
C1895 C1892 1.511 . S
C1895 H1909 0.961 . S
C1895 H1910 0.961 1_554 S
C1895 H1911 0.961 1_554 S
C1896 C1897 1.370 . S
C1896 C1898 1.363 . S
C1896 H1912 0.931 . S
C1897 C1896 1.370 . S
C1897 C1901 1.408 . S
C1898 C1896 1.363 . S
C1898 C1899 1.370 . S
C1898 C1902 1.524 1_556 S
C1899 C1891 1.503 1_656 S
C1899 C1898 1.370 . S
C1899 C1900 1.403 1_655 S
C1900 C1899 1.403 1_455 S
C1900 C1901 1.404 1_455 S
C1900 C1903 1.539 . S
C1901 C1897 1.408 . S
C1901 C1900 1.404 1_655 S
C1901 H1913 0.930 1_655 S
C1902 C1898 1.524 1_554 S
C1902 H1914 0.956 . S
C1902 H1915 0.961 . S
C1902 H1916 0.961 1_554 S
C1903 C1900 1.539 . S
C1903 H1917 0.958 . S
C1903 H1918 0.961 . S
C1903 H1919 0.960 . S
H1904 C1888 0.931 . S
H1905 C1893 0.929 . S
H1906 C1894 0.961 1_556 S
H1907 C1894 0.962 . S
H1908 C1894 0.960 . S
H1909 C1895 0.961 . S
H1910 C1895 0.961 1_556 S
H1911 C1895 0.961 1_556 S
H1912 C1896 0.931 . S
H1913 C1901 0.930 1_455 S
H1914 C1902 0.956 . S
H1915 C1902 0.961 . S
H1916 C1902 0.961 1_556 S
H1917 C1903 0.958 . S
H1918 C1903 0.961 . S
H1919 C1903 0.960 . S
C1920 C1921 1.391 . S
C1920 C1922 1.394 . S
C1920 H1936 0.931 . S
C1921 C1920 1.391 . S
C1921 C1925 1.376 . S
C1922 C1920 1.394 . S
C1922 C1923 1.369 . S
C1922 C1926 1.531 . S
C1923 C1922 1.369 . S
C1923 C1924 1.410 . S
C1923 C1931 1.503 . S
C1924 C1923 1.410 . S
C1924 C1925 1.392 . S
C1924 C1927 1.511 . S
C1925 C1921 1.376 . S
C1925 C1924 1.392 . S
C1925 H1937 0.929 . S
C1926 C1922 1.531 . S
C1926 H1938 0.960 . S
C1926 H1939 0.962 . S
C1926 H1940 0.960 . S
C1927 C1924 1.511 . S
C1927 H1941 0.961 . S
C1927 H1942 0.961 . S
C1927 H1943 0.961 . S
C1928 C1929 1.370 . S
C1928 C1930 1.363 . S
C1928 H1944 0.931 . S
C1929 C1928 1.370 . S
C1929 C1933 1.408 . S
C1930 C1928 1.363 . S
C1930 C1931 1.370 . S
C1930 C1934 1.524 . S
C1931 C1923 1.503 . S
C1931 C1930 1.370 . S
C1931 C1932 1.403 . S
C1932 C1931 1.403 . S
C1932 C1933 1.404 . S
C1932 C1935 1.539 . S
C1933 C1929 1.408 . S
C1933 C1932 1.404 . S
C1933 H1945 0.930 . S
C1934 C1930 1.524 . S
C1934 H1946 0.956 . S
C1934 H1947 0.961 . S
C1934 H1948 0.961 . S
C1935 C1932 1.539 . S
C1935 H1949 0.958 . S
C1935 H1950 0.961 . S
C1935 H1951 0.960 . S
H1936 C1920 0.931 . S
H1937 C1925 0.929 . S
H1938 C1926 0.960 . S
H1939 C1926 0.962 . S
H1940 C1926 0.960 . S
H1941 C1927 0.961 . S
H1942 C1927 0.961 . S
H1943 C1927 0.961 . S
H1944 C1928 0.931 . S
H1945 C1933 0.930 . S
H1946 C1934 0.956 . S
H1947 C1934 0.961 . S
H1948 C1934 0.961 . S
H1949 C1935 0.958 . S
H1950 C1935 0.961 . S
H1951 C1935 0.960 . S
C1952 C1953 1.391 . S
C1952 C1954 1.394 . S
C1952 H1968 0.931 . S
C1953 C1952 1.391 . S
C1953 C1957 1.376 . S
C1954 C1952 1.394 . S
C1954 C1955 1.369 . S
C1954 C1958 1.531 . S
C1955 C1954 1.369 . S
C1955 C1956 1.410 . S
C1955 C1963 1.503 . S
C1956 C1955 1.410 . S
C1956 C1957 1.392 . S
C1956 C1959 1.511 . S
C1957 C1953 1.376 . S
C1957 C1956 1.392 . S
C1957 H1969 0.929 . S
C1958 C1954 1.531 . S
C1958 H1970 0.960 . S
C1958 H1971 0.962 . S
C1958 H1972 0.960 . S
C1959 C1956 1.511 . S
C1959 H1973 0.961 . S
C1959 H1974 0.961 . S
C1959 H1975 0.961 . S
C1960 C1961 1.370 . S
C1960 C1962 1.363 . S
C1960 H1976 0.931 . S
C1961 C1960 1.370 . S
C1961 C1965 1.408 . S
C1962 C1960 1.363 . S
C1962 C1963 1.370 . S
C1962 C1966 1.524 . S
C1963 C1955 1.503 . S
C1963 C1962 1.370 . S
C1963 C1964 1.403 . S
C1964 C1963 1.403 . S
C1964 C1965 1.404 . S
C1964 C1967 1.539 . S
C1965 C1961 1.408 . S
C1965 C1964 1.404 . S
C1965 H1977 0.930 . S
C1966 C1962 1.524 . S
C1966 H1978 0.956 . S
C1966 H1979 0.961 . S
C1966 H1980 0.961 . S
C1967 C1964 1.539 . S
C1967 H1981 0.958 . S
C1967 H1982 0.961 . S
C1967 H1983 0.960 . S
H1968 C1952 0.931 . S
H1969 C1957 0.929 . S
H1970 C1958 0.960 . S
H1971 C1958 0.962 . S
H1972 C1958 0.960 . S
H1973 C1959 0.961 . S
H1974 C1959 0.961 . S
H1975 C1959 0.961 . S
H1976 C1960 0.931 . S
H1977 C1965 0.930 . S
H1978 C1966 0.956 . S
H1979 C1966 0.961 . S
H1980 C1966 0.961 . S
H1981 C1967 0.958 . S
H1982 C1967 0.961 . S
H1983 C1967 0.960 . S
C1984 C1985 1.391 . S
C1984 C1986 1.394 . S
C1984 H2000 0.931 . S
C1985 C1984 1.391 . S
C1985 C1989 1.376 . S
C1986 C1984 1.394 . S
C1986 C1987 1.369 . S
C1986 C1990 1.531 . S
C1987 C1986 1.369 . S
C1987 C1988 1.410 . S
C1987 C1995 1.503 . S
C1988 C1987 1.410 . S
C1988 C1989 1.392 . S
C1988 C1991 1.511 . S
C1989 C1985 1.376 . S
C1989 C1988 1.392 . S
C1989 H2001 0.929 . S
C1990 C1986 1.531 . S
C1990 H2002 0.960 . S
C1990 H2003 0.962 . S
C1990 H2004 0.960 . S
C1991 C1988 1.511 . S
C1991 H2005 0.961 . S
C1991 H2006 0.961 . S
C1991 H2007 0.961 . S
C1992 C1993 1.370 . S
C1992 C1994 1.363 . S
C1992 H2008 0.931 . S
C1993 C1992 1.370 . S
C1993 C1997 1.408 . S
C1994 C1992 1.363 . S
C1994 C1995 1.370 . S
C1994 C1998 1.524 . S
C1995 C1987 1.503 . S
C1995 C1994 1.370 . S
C1995 C1996 1.403 . S
C1996 C1995 1.403 . S
C1996 C1997 1.404 . S
C1996 C1999 1.539 . S
C1997 C1993 1.408 . S
C1997 C1996 1.404 . S
C1997 H2009 0.930 . S
C1998 C1994 1.524 . S
C1998 H2010 0.956 . S
C1998 H2011 0.961 . S
C1998 H2012 0.961 . S
C1999 C1996 1.539 . S
C1999 H2013 0.958 . S
C1999 H2014 0.961 . S
C1999 H2015 0.960 . S
H2000 C1984 0.931 . S
H2001 C1989 0.929 . S
H2002 C1990 0.960 . S
H2003 C1990 0.962 . S
H2004 C1990 0.960 . S
H2005 C1991 0.961 . S
H2006 C1991 0.961 . S
H2007 C1991 0.961 . S
H2008 C1992 0.931 . S
H2009 C1997 0.930 . S
H2010 C1998 0.956 . S
H2011 C1998 0.961 . S
H2012 C1998 0.961 . S
H2013 C1999 0.958 . S
H2014 C1999 0.961 . S
H2015 C1999 0.960 . S
C2016 C2017 1.391 . S
C2016 C2018 1.394 . S
C2016 H2032 0.931 . S
C2017 C2016 1.391 . S
C2017 C2021 1.376 . S
C2018 C2016 1.394 . S
C2018 C2019 1.369 . S
C2018 C2022 1.531 . S
C2019 C2018 1.369 . S
C2019 C2020 1.410 . S
C2019 C2027 1.503 . S
C2020 C2019 1.410 . S
C2020 C2021 1.392 . S
C2020 C2023 1.511 . S
C2021 C2017 1.376 . S
C2021 C2020 1.392 . S
C2021 H2033 0.929 . S
C2022 C2018 1.531 . S
C2022 H2034 0.960 . S
C2022 H2035 0.962 . S
C2022 H2036 0.960 . S
C2023 C2020 1.511 . S
C2023 H2037 0.961 . S
C2023 H2038 0.961 . S
C2023 H2039 0.961 . S
C2024 C2025 1.370 . S
C2024 C2026 1.363 . S
C2024 H2040 0.931 . S
C2025 C2024 1.370 . S
C2025 C2029 1.408 . S
C2026 C2024 1.363 . S
C2026 C2027 1.370 . S
C2026 C2030 1.524 . S
C2027 C2019 1.503 . S
C2027 C2026 1.370 . S
C2027 C2028 1.403 . S
C2028 C2027 1.403 . S
C2028 C2029 1.404 . S
C2028 C2031 1.539 . S
C2029 C2025 1.408 . S
C2029 C2028 1.404 . S
C2029 H2041 0.930 . S
C2030 C2026 1.524 . S
C2030 H2042 0.956 . S
C2030 H2043 0.961 . S
C2030 H2044 0.961 . S
C2031 C2028 1.539 . S
C2031 H2045 0.958 . S
C2031 H2046 0.961 . S
C2031 H2047 0.960 . S
H2032 C2016 0.931 . S
H2033 C2021 0.929 . S
H2034 C2022 0.960 . S
H2035 C2022 0.962 . S
H2036 C2022 0.960 . S
H2037 C2023 0.961 . S
H2038 C2023 0.961 . S
H2039 C2023 0.961 . S
H2040 C2024 0.931 . S
H2041 C2029 0.930 . S
H2042 C2030 0.956 . S
H2043 C2030 0.961 . S
H2044 C2030 0.961 . S
H2045 C2031 0.958 . S
H2046 C2031 0.961 . S
H2047 C2031 0.960 . S
C2048 C2049 1.391 . S
C2048 C2050 1.394 . S
C2048 H2064 0.931 . S
C2049 C2048 1.391 . S
C2049 C2053 1.376 . S
C2050 C2048 1.394 . S
C2050 C2051 1.369 . S
C2050 C2054 1.531 . S
C2051 C2050 1.369 . S
C2051 C2052 1.410 . S
C2051 C2059 1.503 . S
C2052 C2051 1.410 . S
C2052 C2053 1.392 . S
C2052 C2055 1.511 . S
C2053 C2049 1.376 . S
C2053 C2052 1.392 . S
C2053 H2065 0.929 . S
C2054 C2050 1.531 . S
C2054 H2066 0.960 . S
C2054 H2067 0.962 . S
C2054 H2068 0.960 . S
C2055 C2052 1.511 . S
C2055 H2069 0.961 . S
C2055 H2070 0.961 . S
C2055 H2071 0.961 . S
C2056 C2057 1.370 . S
C2056 C2058 1.363 . S
C2056 H2072 0.931 . S
C2057 C2056 1.370 . S
C2057 C2061 1.408 . S
C2058 C2056 1.363 . S
C2058 C2059 1.370 . S
C2058 C2062 1.524 . S
C2059 C2051 1.503 . S
C2059 C2058 1.370 . S
C2059 C2060 1.403 . S
C2060 C2059 1.403 . S
C2060 C2061 1.404 . S
C2060 C2063 1.539 . S
C2061 C2057 1.408 . S
C2061 C2060 1.404 . S
C2061 H2073 0.930 . S
C2062 C2058 1.524 . S
C2062 H2074 0.956 . S
C2062 H2075 0.961 . S
C2062 H2076 0.961 . S
C2063 C2060 1.539 . S
C2063 H2077 0.958 . S
C2063 H2078 0.961 . S
C2063 H2079 0.960 . S
H2064 C2048 0.931 . S
H2065 C2053 0.929 . S
H2066 C2054 0.960 . S
H2067 C2054 0.962 . S
H2068 C2054 0.960 . S
H2069 C2055 0.961 . S
H2070 C2055 0.961 . S
H2071 C2055 0.961 . S
H2072 C2056 0.931 . S
H2073 C2061 0.930 . S
H2074 C2062 0.956 . S
H2075 C2062 0.961 . S
H2076 C2062 0.961 . S
H2077 C2063 0.958 . S
H2078 C2063 0.961 . S
H2079 C2063 0.960 . S
C2080 C2081 1.391 . S
C2080 C2082 1.394 . S
C2080 H2096 0.931 . S
C2081 C2080 1.391 . S
C2081 C2085 1.376 . S
C2082 C2080 1.394 . S
C2082 C2083 1.369 . S
C2082 C2086 1.531 . S
C2083 C2082 1.369 . S
C2083 C2084 1.410 . S
C2083 C2091 1.503 . S
C2084 C2083 1.410 . S
C2084 C2085 1.392 . S
C2084 C2087 1.511 . S
C2085 C2081 1.376 . S
C2085 C2084 1.392 . S
C2085 H2097 0.929 . S
C2086 C2082 1.531 . S
C2086 H2098 0.960 . S
C2086 H2099 0.962 . S
C2086 H2100 0.960 . S
C2087 C2084 1.511 . S
C2087 H2101 0.961 . S
C2087 H2102 0.961 . S
C2087 H2103 0.961 . S
C2088 C2089 1.370 . S
C2088 C2090 1.363 . S
C2088 H2104 0.931 . S
C2089 C2088 1.370 . S
C2089 C2093 1.408 . S
C2090 C2088 1.363 . S
C2090 C2091 1.370 . S
C2090 C2094 1.524 . S
C2091 C2083 1.503 . S
C2091 C2090 1.370 . S
C2091 C2092 1.403 . S
C2092 C2091 1.403 . S
C2092 C2093 1.404 . S
C2092 C2095 1.539 . S
C2093 C2089 1.408 . S
C2093 C2092 1.404 . S
C2093 H2105 0.930 . S
C2094 C2090 1.524 . S
C2094 H2106 0.956 . S
C2094 H2107 0.961 . S
C2094 H2108 0.961 . S
C2095 C2092 1.539 . S
C2095 H2109 0.958 . S
C2095 H2110 0.961 . S
C2095 H2111 0.960 . S
H2096 C2080 0.931 . S
H2097 C2085 0.929 . S
H2098 C2086 0.960 . S
H2099 C2086 0.962 . S
H2100 C2086 0.960 . S
H2101 C2087 0.961 . S
H2102 C2087 0.961 . S
H2103 C2087 0.961 . S
H2104 C2088 0.931 . S
H2105 C2093 0.930 . S
H2106 C2094 0.956 . S
H2107 C2094 0.961 . S
H2108 C2094 0.961 . S
H2109 C2095 0.958 . S
H2110 C2095 0.961 . S
H2111 C2095 0.960 . S
C2112 C2113 1.391 . S
C2112 C2114 1.394 . S
C2112 H2128 0.931 . S
C2113 C2112 1.391 . S
C2113 C2117 1.376 . S
C2114 C2112 1.394 . S
C2114 C2115 1.369 . S
C2114 C2118 1.531 . S
C2115 C2114 1.369 . S
C2115 C2116 1.410 . S
C2115 C2123 1.503 . S
C2116 C2115 1.410 . S
C2116 C2117 1.392 . S
C2116 C2119 1.511 . S
C2117 C2113 1.376 . S
C2117 C2116 1.392 . S
C2117 H2129 0.929 . S
C2118 C2114 1.531 . S
C2118 H2130 0.960 . S
C2118 H2131 0.962 . S
C2118 H2132 0.960 . S
C2119 C2116 1.511 . S
C2119 H2133 0.961 . S
C2119 H2134 0.961 . S
C2119 H2135 0.961 . S
C2120 C2121 1.370 . S
C2120 C2122 1.363 . S
C2120 H2136 0.931 . S
C2121 C2120 1.370 . S
C2121 C2125 1.408 . S
C2122 C2120 1.363 . S
C2122 C2123 1.370 . S
C2122 C2126 1.524 . S
C2123 C2115 1.503 . S
C2123 C2122 1.370 . S
C2123 C2124 1.403 . S
C2124 C2123 1.403 . S
C2124 C2125 1.404 . S
C2124 C2127 1.539 . S
C2125 C2121 1.408 . S
C2125 C2124 1.404 . S
C2125 H2137 0.930 . S
C2126 C2122 1.524 . S
C2126 H2138 0.956 . S
C2126 H2139 0.961 . S
C2126 H2140 0.961 . S
C2127 C2124 1.539 . S
C2127 H2141 0.958 . S
C2127 H2142 0.961 . S
C2127 H2143 0.960 . S
H2128 C2112 0.931 . S
H2129 C2117 0.929 . S
H2130 C2118 0.960 . S
H2131 C2118 0.962 . S
H2132 C2118 0.960 . S
H2133 C2119 0.961 . S
H2134 C2119 0.961 . S
H2135 C2119 0.961 . S
H2136 C2120 0.931 . S
H2137 C2125 0.930 . S
H2138 C2126 0.956 . S
H2139 C2126 0.961 . S
H2140 C2126 0.961 . S
H2141 C2127 0.958 . S
H2142 C2127 0.961 . S
H2143 C2127 0.960 . S
C2144 C2145 1.391 . S
C2144 C2146 1.394 . S
C2144 H2160 0.931 . S
C2145 C2144 1.391 . S
C2145 C2149 1.376 . S
C2146 C2144 1.394 . S
C2146 C2147 1.369 . S
C2146 C2150 1.531 . S
C2147 C2146 1.369 . S
C2147 C2148 1.410 . S
C2147 C2155 1.503 . S
C2148 C2147 1.410 . S
C2148 C2149 1.392 . S
C2148 C2151 1.511 . S
C2149 C2145 1.376 . S
C2149 C2148 1.392 . S
C2149 H2161 0.929 . S
C2150 C2146 1.531 . S
C2150 H2162 0.960 . S
C2150 H2163 0.962 . S
C2150 H2164 0.960 . S
C2151 C2148 1.511 . S
C2151 H2165 0.961 . S
C2151 H2166 0.961 . S
C2151 H2167 0.961 . S
C2152 C2153 1.370 . S
C2152 C2154 1.363 . S
C2152 H2168 0.931 . S
C2153 C2152 1.370 . S
C2153 C2157 1.408 . S
C2154 C2152 1.363 . S
C2154 C2155 1.370 . S
C2154 C2158 1.524 . S
C2155 C2147 1.503 . S
C2155 C2154 1.370 . S
C2155 C2156 1.403 . S
C2156 C2155 1.403 . S
C2156 C2157 1.404 . S
C2156 C2159 1.539 . S
C2157 C2153 1.408 . S
C2157 C2156 1.404 . S
C2157 H2169 0.930 . S
C2158 C2154 1.524 . S
C2158 H2170 0.956 . S
C2158 H2171 0.961 . S
C2158 H2172 0.961 . S
C2159 C2156 1.539 . S
C2159 H2173 0.958 . S
C2159 H2174 0.961 . S
C2159 H2175 0.960 . S
H2160 C2144 0.931 . S
H2161 C2149 0.929 . S
H2162 C2150 0.960 . S
H2163 C2150 0.962 . S
H2164 C2150 0.960 . S
H2165 C2151 0.961 . S
H2166 C2151 0.961 . S
H2167 C2151 0.961 . S
H2168 C2152 0.931 . S
H2169 C2157 0.930 . S
H2170 C2158 0.956 . S
H2171 C2158 0.961 . S
H2172 C2158 0.961 . S
H2173 C2159 0.958 . S
H2174 C2159 0.961 . S
H2175 C2159 0.960 . S
C2176 C2177 1.391 . S
C2176 C2178 1.394 . S
C2176 H2192 0.931 . S
C2177 C2176 1.391 . S
C2177 C2181 1.376 . S
C2178 C2176 1.394 . S
C2178 C2179 1.369 . S
C2178 C2182 1.531 . S
C2179 C2178 1.369 . S
C2179 C2180 1.410 . S
C2179 C2187 1.503 . S
C2180 C2179 1.410 . S
C2180 C2181 1.392 . S
C2180 C2183 1.511 . S
C2181 C2177 1.376 . S
C2181 C2180 1.392 . S
C2181 H2193 0.929 . S
C2182 C2178 1.531 . S
C2182 H2194 0.960 . S
C2182 H2195 0.962 . S
C2182 H2196 0.960 . S
C2183 C2180 1.511 . S
C2183 H2197 0.961 . S
C2183 H2198 0.961 . S
C2183 H2199 0.961 . S
C2184 C2185 1.370 . S
C2184 C2186 1.363 . S
C2184 H2200 0.931 . S
C2185 C2184 1.370 . S
C2185 C2189 1.408 . S
C2186 C2184 1.363 . S
C2186 C2187 1.370 . S
C2186 C2190 1.524 . S
C2187 C2179 1.503 . S
C2187 C2186 1.370 . S
C2187 C2188 1.403 . S
C2188 C2187 1.403 . S
C2188 C2189 1.404 . S
C2188 C2191 1.539 . S
C2189 C2185 1.408 . S
C2189 C2188 1.404 . S
C2189 H2201 0.930 . S
C2190 C2186 1.524 . S
C2190 H2202 0.956 . S
C2190 H2203 0.961 . S
C2190 H2204 0.961 . S
C2191 C2188 1.539 . S
C2191 H2205 0.958 . S
C2191 H2206 0.961 . S
C2191 H2207 0.960 . S
H2192 C2176 0.931 . S
H2193 C2181 0.929 . S
H2194 C2182 0.960 . S
H2195 C2182 0.962 . S
H2196 C2182 0.960 . S
H2197 C2183 0.961 . S
H2198 C2183 0.961 . S
H2199 C2183 0.961 . S
H2200 C2184 0.931 . S
H2201 C2189 0.930 . S
H2202 C2190 0.956 . S
H2203 C2190 0.961 . S
H2204 C2190 0.961 . S
H2205 C2191 0.958 . S
H2206 C2191 0.961 . S
H2207 C2191 0.960 . S
C2208 C2209 1.391 . S
C2208 C2210 1.394 . S
C2208 H2224 0.931 . S
C2209 C2208 1.391 . S
C2209 C2213 1.376 . S
C2210 C2208 1.394 . S
C2210 C2211 1.369 . S
C2210 C2214 1.531 . S
C2211 C2210 1.369 . S
C2211 C2212 1.410 . S
C2211 C2219 1.503 . S
C2212 C2211 1.410 . S
C2212 C2213 1.392 . S
C2212 C2215 1.511 . S
C2213 C2209 1.376 . S
C2213 C2212 1.392 . S
C2213 H2225 0.929 . S
C2214 C2210 1.531 . S
C2214 H2226 0.960 . S
C2214 H2227 0.962 . S
C2214 H2228 0.960 . S
C2215 C2212 1.511 . S
C2215 H2229 0.961 . S
C2215 H2230 0.961 . S
C2215 H2231 0.961 . S
C2216 C2217 1.370 . S
C2216 C2218 1.363 . S
C2216 H2232 0.931 . S
C2217 C2216 1.370 . S
C2217 C2221 1.408 . S
C2218 C2216 1.363 . S
C2218 C2219 1.370 . S
C2218 C2222 1.524 . S
C2219 C2211 1.503 . S
C2219 C2218 1.370 . S
C2219 C2220 1.403 . S
C2220 C2219 1.403 . S
C2220 C2221 1.404 . S
C2220 C2223 1.539 . S
C2221 C2217 1.408 . S
C2221 C2220 1.404 . S
C2221 H2233 0.930 . S
C2222 C2218 1.524 . S
C2222 H2234 0.956 . S
C2222 H2235 0.961 . S
C2222 H2236 0.961 . S
C2223 C2220 1.539 . S
C2223 H2237 0.958 . S
C2223 H2238 0.961 . S
C2223 H2239 0.960 . S
H2224 C2208 0.931 . S
H2225 C2213 0.929 . S
H2226 C2214 0.960 . S
H2227 C2214 0.962 . S
H2228 C2214 0.960 . S
H2229 C2215 0.961 . S
H2230 C2215 0.961 . S
H2231 C2215 0.961 . S
H2232 C2216 0.931 . S
H2233 C2221 0.930 . S
H2234 C2222 0.956 . S
H2235 C2222 0.961 . S
H2236 C2222 0.961 . S
H2237 C2223 0.958 . S
H2238 C2223 0.961 . S
H2239 C2223 0.960 . S
C2240 C2241 1.391 . S
C2240 C2242 1.394 . S
C2240 H2256 0.931 . S
C2241 C2240 1.391 . S
C2241 C2245 1.376 . S
C2242 C2240 1.394 . S
C2242 C2243 1.369 . S
C2242 C2246 1.531 . S
C2243 C2242 1.369 . S
C2243 C2244 1.410 . S
C2243 C2251 1.503 . S
C2244 C2243 1.410 . S
C2244 C2245 1.392 . S
C2244 C2247 1.511 . S
C2245 C2241 1.376 . S
C2245 C2244 1.392 . S
C2245 H2257 0.929 . S
C2246 C2242 1.531 . S
C2246 H2258 0.960 . S
C2246 H2259 0.962 . S
C2246 H2260 0.960 . S
C2247 C2244 1.511 . S
C2247 H2261 0.961 . S
C2247 H2262 0.961 . S
C2247 H2263 0.961 . S
C2248 C2249 1.370 . S
C2248 C2250 1.363 . S
C2248 H2264 0.931 . S
C2249 C2248 1.370 . S
C2249 C2253 1.408 . S
C2250 C2248 1.363 . S
C2250 C2251 1.370 . S
C2250 C2254 1.524 . S
C2251 C2243 1.503 . S
C2251 C2250 1.370 . S
C2251 C2252 1.403 . S
C2252 C2251 1.403 . S
C2252 C2253 1.404 . S
C2252 C2255 1.539 . S
C2253 C2249 1.408 . S
C2253 C2252 1.404 . S
C2253 H2265 0.930 . S
C2254 C2250 1.524 . S
C2254 H2266 0.956 . S
C2254 H2267 0.961 . S
C2254 H2268 0.961 . S
C2255 C2252 1.539 . S
C2255 H2269 0.958 . S
C2255 H2270 0.961 . S
C2255 H2271 0.960 . S
H2256 C2240 0.931 . S
H2257 C2245 0.929 . S
H2258 C2246 0.960 . S
H2259 C2246 0.962 . S
H2260 C2246 0.960 . S
H2261 C2247 0.961 . S
H2262 C2247 0.961 . S
H2263 C2247 0.961 . S
H2264 C2248 0.931 . S
H2265 C2253 0.930 . S
H2266 C2254 0.956 . S
H2267 C2254 0.961 . S
H2268 C2254 0.961 . S
H2269 C2255 0.958 . S
H2270 C2255 0.961 . S
H2271 C2255 0.960 . S
C2272 C2273 1.391 . S
C2272 C2274 1.394 . S
C2272 H2288 0.931 . S
C2273 C2272 1.391 . S
C2273 C2277 1.376 . S
C2274 C2272 1.394 . S
C2274 C2275 1.369 . S
C2274 C2278 1.531 . S
C2275 C2274 1.369 . S
C2275 C2276 1.410 . S
C2275 C2283 1.503 . S
C2276 C2275 1.410 . S
C2276 C2277 1.392 . S
C2276 C2279 1.511 . S
C2277 C2273 1.376 . S
C2277 C2276 1.392 . S
C2277 H2289 0.929 . S
C2278 C2274 1.531 . S
C2278 H2290 0.960 . S
C2278 H2291 0.962 . S
C2278 H2292 0.960 . S
C2279 C2276 1.511 . S
C2279 H2293 0.961 . S
C2279 H2294 0.961 . S
C2279 H2295 0.961 . S
C2280 C2281 1.370 . S
C2280 C2282 1.363 . S
C2280 H2296 0.931 . S
C2281 C2280 1.370 . S
C2281 C2285 1.408 . S
C2282 C2280 1.363 . S
C2282 C2283 1.370 . S
C2282 C2286 1.524 . S
C2283 C2275 1.503 . S
C2283 C2282 1.370 . S
C2283 C2284 1.403 . S
C2284 C2283 1.403 . S
C2284 C2285 1.404 . S
C2284 C2287 1.539 . S
C2285 C2281 1.408 . S
C2285 C2284 1.404 . S
C2285 H2297 0.930 . S
C2286 C2282 1.524 . S
C2286 H2298 0.956 . S
C2286 H2299 0.961 . S
C2286 H2300 0.961 . S
C2287 C2284 1.539 . S
C2287 H2301 0.958 . S
C2287 H2302 0.961 . S
C2287 H2303 0.960 . S
H2288 C2272 0.931 . S
H2289 C2277 0.929 . S
H2290 C2278 0.960 . S
H2291 C2278 0.962 . S
H2292 C2278 0.960 . S
H2293 C2279 0.961 . S
H2294 C2279 0.961 . S
H2295 C2279 0.961 . S
H2296 C2280 0.931 . S
H2297 C2285 0.930 . S
H2298 C2286 0.956 . S
H2299 C2286 0.961 . S
H2300 C2286 0.961 . S
H2301 C2287 0.958 . S
H2302 C2287 0.961 . S
H2303 C2287 0.960 . S
C2304 C2305 1.391 . S
C2304 C2306 1.394 . S
C2304 H2320 0.931 . S
C2305 C2304 1.391 . S
C2305 C2309 1.376 . S
C2306 C2304 1.394 . S
C2306 C2307 1.369 . S
C2306 C2310 1.531 . S
C2307 C2306 1.369 . S
C2307 C2308 1.410 . S
C2307 C2315 1.503 . S
C2308 C2307 1.410 . S
C2308 C2309 1.392 . S
C2308 C2311 1.511 . S
C2309 C2305 1.376 . S
C2309 C2308 1.392 . S
C2309 H2321 0.929 . S
C2310 C2306 1.531 . S
C2310 H2322 0.960 . S
C2310 H2323 0.962 . S
C2310 H2324 0.960 . S
C2311 C2308 1.511 . S
C2311 H2325 0.961 . S
C2311 H2326 0.961 . S
C2311 H2327 0.961 . S
C2312 C2313 1.370 . S
C2312 C2314 1.363 . S
C2312 H2328 0.931 . S
C2313 C2312 1.370 . S
C2313 C2317 1.408 . S
C2314 C2312 1.363 . S
C2314 C2315 1.370 . S
C2314 C2318 1.524 . S
C2315 C2307 1.503 . S
C2315 C2314 1.370 . S
C2315 C2316 1.403 . S
C2316 C2315 1.403 . S
C2316 C2317 1.404 . S
C2316 C2319 1.539 . S
C2317 C2313 1.408 . S
C2317 C2316 1.404 . S
C2317 H2329 0.930 . S
C2318 C2314 1.524 . S
C2318 H2330 0.956 . S
C2318 H2331 0.961 . S
C2318 H2332 0.961 . S
C2319 C2316 1.539 . S
C2319 H2333 0.958 . S
C2319 H2334 0.961 . S
C2319 H2335 0.960 . S
H2320 C2304 0.931 . S
H2321 C2309 0.929 . S
H2322 C2310 0.960 . S
H2323 C2310 0.962 . S
H2324 C2310 0.960 . S
H2325 C2311 0.961 . S
H2326 C2311 0.961 . S
H2327 C2311 0.961 . S
H2328 C2312 0.931 . S
H2329 C2317 0.930 . S
H2330 C2318 0.956 . S
H2331 C2318 0.961 . S
H2332 C2318 0.961 . S
H2333 C2319 0.958 . S
H2334 C2319 0.961 . S
H2335 C2319 0.960 . S
C2336 C2337 1.391 . S
C2336 C2338 1.394 . S
C2336 H2352 0.931 . S
C2337 C2336 1.391 . S
C2337 C2341 1.376 . S
C2338 C2336 1.394 . S
C2338 C2339 1.369 . S
C2338 C2342 1.531 . S
C2339 C2338 1.369 . S
C2339 C2340 1.410 . S
C2339 C2347 1.503 . S
C2340 C2339 1.410 . S
C2340 C2341 1.392 . S
C2340 C2343 1.511 . S
C2341 C2337 1.376 . S
C2341 C2340 1.392 . S
C2341 H2353 0.929 . S
C2342 C2338 1.531 . S
C2342 H2354 0.960 . S
C2342 H2355 0.962 . S
C2342 H2356 0.960 . S
C2343 C2340 1.511 . S
C2343 H2357 0.961 . S
C2343 H2358 0.961 . S
C2343 H2359 0.961 . S
C2344 C2345 1.370 . S
C2344 C2346 1.363 . S
C2344 H2360 0.931 . S
C2345 C2344 1.370 . S
C2345 C2349 1.408 . S
C2346 C2344 1.363 . S
C2346 C2347 1.370 . S
C2346 C2350 1.524 . S
C2347 C2339 1.503 . S
C2347 C2346 1.370 . S
C2347 C2348 1.403 . S
C2348 C2347 1.403 . S
C2348 C2349 1.404 . S
C2348 C2351 1.539 . S
C2349 C2345 1.408 . S
C2349 C2348 1.404 . S
C2349 H2361 0.930 . S
C2350 C2346 1.524 . S
C2350 H2362 0.956 . S
C2350 H2363 0.961 . S
C2350 H2364 0.961 . S
C2351 C2348 1.539 . S
C2351 H2365 0.958 . S
C2351 H2366 0.961 . S
C2351 H2367 0.960 . S
H2352 C2336 0.931 . S
H2353 C2341 0.929 . S
H2354 C2342 0.960 . S
H2355 C2342 0.962 . S
H2356 C2342 0.960 . S
H2357 C2343 0.961 . S
H2358 C2343 0.961 . S
H2359 C2343 0.961 . S
H2360 C2344 0.931 . S
H2361 C2349 0.930 . S
H2362 C2350 0.956 . S
H2363 C2350 0.961 . S
H2364 C2350 0.961 . S
H2365 C2351 0.958 . S
H2366 C2351 0.961 . S
H2367 C2351 0.960 . S
C2368 C2369 1.391 . S
C2368 C2370 1.394 . S
C2368 H2384 0.931 . S
C2369 C2368 1.391 . S
C2369 C2373 1.376 . S
C2370 C2368 1.394 . S
C2370 C2371 1.369 . S
C2370 C2374 1.531 . S
C2371 C2370 1.369 . S
C2371 C2372 1.410 . S
C2371 C2379 1.503 . S
C2372 C2371 1.410 . S
C2372 C2373 1.392 . S
C2372 C2375 1.511 . S
C2373 C2369 1.376 . S
C2373 C2372 1.392 . S
C2373 H2385 0.929 . S
C2374 C2370 1.531 . S
C2374 H2386 0.960 . S
C2374 H2387 0.962 . S
C2374 H2388 0.960 . S
C2375 C2372 1.511 . S
C2375 H2389 0.961 . S
C2375 H2390 0.961 . S
C2375 H2391 0.961 . S
C2376 C2377 1.370 . S
C2376 C2378 1.363 . S
C2376 H2392 0.931 . S
C2377 C2376 1.370 . S
C2377 C2381 1.408 . S
C2378 C2376 1.363 . S
C2378 C2379 1.370 . S
C2378 C2382 1.524 . S
C2379 C2371 1.503 . S
C2379 C2378 1.370 . S
C2379 C2380 1.403 . S
C2380 C2379 1.403 . S
C2380 C2381 1.404 . S
C2380 C2383 1.539 . S
C2381 C2377 1.408 . S
C2381 C2380 1.404 . S
C2381 H2393 0.930 . S
C2382 C2378 1.524 . S
C2382 H2394 0.956 . S
C2382 H2395 0.961 . S
C2382 H2396 0.961 . S
C2383 C2380 1.539 . S
C2383 H2397 0.958 . S
C2383 H2398 0.961 . S
C2383 H2399 0.960 . S
H2384 C2368 0.931 . S
H2385 C2373 0.929 . S
H2386 C2374 0.960 . S
H2387 C2374 0.962 . S
H2388 C2374 0.960 . S
H2389 C2375 0.961 . S
H2390 C2375 0.961 . S
H2391 C2375 0.961 . S
H2392 C2376 0.931 . S
H2393 C2381 0.930 . S
H2394 C2382 0.956 . S
H2395 C2382 0.961 . S
H2396 C2382 0.961 . S
H2397 C2383 0.958 . S
H2398 C2383 0.961 . S
H2399 C2383 0.960 . S
C2400 C2401 1.391 . S
C2400 C2402 1.394 . S
C2400 H2416 0.931 . S
C2401 C2400 1.391 . S
C2401 C2405 1.376 . S
C2402 C2400 1.394 . S
C2402 C2403 1.369 . S
C2402 C2406 1.531 . S
C2403 C2402 1.369 . S
C2403 C2404 1.410 . S
C2403 C2411 1.503 . S
C2404 C2403 1.410 . S
C2404 C2405 1.392 . S
C2404 C2407 1.511 . S
C2405 C2401 1.376 . S
C2405 C2404 1.392 . S
C2405 H2417 0.929 . S
C2406 C2402 1.531 . S
C2406 H2418 0.960 . S
C2406 H2419 0.962 . S
C2406 H2420 0.960 . S
C2407 C2404 1.511 . S
C2407 H2421 0.961 . S
C2407 H2422 0.961 . S
C2407 H2423 0.961 . S
C2408 C2409 1.370 . S
C2408 C2410 1.363 . S
C2408 H2424 0.931 . S
C2409 C2408 1.370 . S
C2409 C2413 1.408 . S
C2410 C2408 1.363 . S
C2410 C2411 1.370 . S
C2410 C2414 1.524 . S
C2411 C2403 1.503 . S
C2411 C2410 1.370 . S
C2411 C2412 1.403 . S
C2412 C2411 1.403 . S
C2412 C2413 1.404 . S
C2412 C2415 1.539 . S
C2413 C2409 1.408 . S
C2413 C2412 1.404 . S
C2413 H2425 0.930 . S
C2414 C2410 1.524 . S
C2414 H2426 0.956 . S
C2414 H2427 0.961 . S
C2414 H2428 0.961 . S
C2415 C2412 1.539 . S
C2415 H2429 0.958 . S
C2415 H2430 0.961 . S
C2415 H2431 0.960 . S
H2416 C2400 0.931 . S
H2417 C2405 0.929 . S
H2418 C2406 0.960 . S
H2419 C2406 0.962 . S
H2420 C2406 0.960 . S
H2421 C2407 0.961 . S
H2422 C2407 0.961 . S
H2423 C2407 0.961 . S
H2424 C2408 0.931 . S
H2425 C2413 0.930 . S
H2426 C2414 0.956 . S
H2427 C2414 0.961 . S
H2428 C2414 0.961 . S
H2429 C2415 0.958 . S
H2430 C2415 0.961 . S
H2431 C2415 0.960 . S
C2432 C2433 1.391 . S
C2432 C2434 1.394 . S
C2432 H2448 0.931 . S
C2433 C2432 1.391 . S
C2433 C2437 1.376 . S
C2434 C2432 1.394 . S
C2434 C2435 1.369 . S
C2434 C2438 1.531 . S
C2435 C2434 1.369 . S
C2435 C2436 1.410 . S
C2435 C2443 1.503 . S
C2436 C2435 1.410 . S
C2436 C2437 1.392 . S
C2436 C2439 1.511 . S
C2437 C2433 1.376 . S
C2437 C2436 1.392 . S
C2437 H2449 0.929 . S
C2438 C2434 1.531 . S
C2438 H2450 0.960 . S
C2438 H2451 0.962 . S
C2438 H2452 0.960 . S
C2439 C2436 1.511 . S
C2439 H2453 0.961 . S
C2439 H2454 0.961 . S
C2439 H2455 0.961 . S
C2440 C2441 1.370 . S
C2440 C2442 1.363 . S
C2440 H2456 0.931 . S
C2441 C2440 1.370 . S
C2441 C2445 1.408 . S
C2442 C2440 1.363 . S
C2442 C2443 1.370 . S
C2442 C2446 1.524 . S
C2443 C2435 1.503 . S
C2443 C2442 1.370 . S
C2443 C2444 1.403 . S
C2444 C2443 1.403 . S
C2444 C2445 1.404 . S
C2444 C2447 1.539 . S
C2445 C2441 1.408 . S
C2445 C2444 1.404 . S
C2445 H2457 0.930 . S
C2446 C2442 1.524 . S
C2446 H2458 0.956 . S
C2446 H2459 0.961 . S
C2446 H2460 0.961 . S
C2447 C2444 1.539 . S
C2447 H2461 0.958 . S
C2447 H2462 0.961 . S
C2447 H2463 0.960 . S
H2448 C2432 0.931 . S
H2449 C2437 0.929 . S
H2450 C2438 0.960 . S
H2451 C2438 0.962 . S
H2452 C2438 0.960 . S
H2453 C2439 0.961 . S
H2454 C2439 0.961 . S
H2455 C2439 0.961 . S
H2456 C2440 0.931 . S
H2457 C2445 0.930 . S
H2458 C2446 0.956 . S
H2459 C2446 0.961 . S
H2460 C2446 0.961 . S
H2461 C2447 0.958 . S
H2462 C2447 0.961 . S
H2463 C2447 0.960 . S
C417 C359 1.335 . S
C425 C5 1.296 . S
C449 C18 1.328 . S
C457 C112 1.354 . S
C481 C333 1.351 . S
C489 C31 1.304 . S
C513 C44 1.254 . S
C521 C138 1.335 . S
C545 C57 1.336 . S
C553 C385 1.357 . S
C577 C70 1.313 . S
C585 C190 1.350 . S
C609 C83 1.333 . S
C617 C411 1.357 . S
C641 C96 1.331 . S
C649 C164 1.355 . S
C673 C255 1.342 . S
C681 C109 1.292 . S
C705 C8 1.322 . S
C713 C122 1.282 . S
C737 C229 1.366 . S
C745 C135 1.317 . S
C769 C148 1.337 . S
C777 C34 1.358 . S
C801 C281 1.333 . S
C809 C161 1.287 . S
C833 C86 1.368 . S
C841 C174 1.311 . S
C865 C187 1.290 . S
C873 C307 1.349 . S
C897 C60 1.317 . S
C905 C200 1.282 . S
C929 C213 1.330 . S
C937 C151 1.355 . S
C961 C226 1.272 . S
C969 C320 1.339 . S
C993 C125 1.334 . S
C1001 C239 1.292 . S
C1025 C346 1.316 . S
C1033 C252 1.282 . S
C1057 C177 1.330 . S
C1065 C265 1.292 . S
C1089 C398 1.351 . S
C1097 C278 1.304 . S
C1121 C203 1.336 . S
C1129 C291 1.293 . S
C1153 C304 1.338 . S
C1161 C372 1.358 . S
C1185 C47 1.356 . S
C1193 C317 1.301 . S
C1217 C330 1.328 . S
C1225 C216 1.357 . S
C1249 C343 1.257 . S
C1257 C21 1.335 . S
C1281 C356 1.254 . S
C1289 C242 1.337 . S
C1313 C369 1.335 . S
C1321 C73 1.354 . S
C1345 C382 1.270 . S
C1353 C294 1.344 . S
C1377 C395 1.256 . S
C1385 C99 1.338 . S
C1409 C408 1.254 . S
C1417 C268 1.336 . S
C1441 C322 1.486 . S
C1449 C10 1.504 . S
C1473 C23 1.499 . S
C1481 C127 1.499 . S
C1505 C348 1.494 . S
C1513 C36 1.499 . S
C1537 C49 1.486 . S
C1545 C153 1.503 . S
C1569 C374 1.503 . S
C1577 C62 1.495 . S
C1601 C75 1.499 . S
C1609 C179 1.498 . S
C1633 C400 1.499 . S
C1641 C88 1.497 . S
C1665 C101 1.497 . S
C1673 C205 1.500 . S
C1697 C114 1.489 . S
C1705 C218 1.502 . S
C1729 C140 1.500 . S
C1737 C244 1.497 . S
C1761 C166 1.496 . S
C1769 C270 1.498 . S
C1793 C192 1.490 . S
C1801 C296 1.502 . S
C1825 C231 1.505 . S
C1833 C335 1.496 . S
C1857 C361 1.508 . S
C1865 C257 1.494 . S
C1889 C387 1.484 . S
C1897 C283 1.504 . S
C1921 C309 1.490 . S
C1929 C413 1.501 . S
C1953 C0 1.080 . S
C1961 C65 1.015 . S
C1985 C13 1.069 . S
C1993 C78 1.019 . S
C2017 C26 1.013 . S
C2025 C91 1.046 . S
C2049 C52 1.079 . S
C2057 C39 1.017 . S
C2081 C104 1.078 . S
C2089 C169 1.021 . S
C2113 C117 1.001 . S
C2121 C182 1.041 . S
C2145 C130 1.030 . S
C2153 C195 1.045 . S
C2177 C143 1.023 . S
C2185 C156 1.031 . S
C2209 C208 0.985 . S
C2217 C273 1.054 . S
C2241 C286 0.986 . S
C2249 C221 1.055 . S
C2273 C234 1.040 . S
C2281 C299 1.030 . S
C2305 C247 1.002 . S
C2313 C260 1.050 . S
C2337 C377 1.072 . S
C2345 C312 1.015 . S
C2369 C325 1.080 . S
C2377 C390 1.018 . S
C2401 C403 1.066 . S
C2409 C338 1.016 . S
C2433 C351 0.990 . S
C2441 C364 1.047 . S
