# Generated by pormake.
# Topology umm, (4)-cn, num edge types: 1
# Building blocks:
#     Node 0, Type 0, BuildingBlock: CEKHIL_clean_sbu_0, # of connection points: 4
#     Node 1, Type 0, BuildingBlock: CEKHIL_clean_sbu_0, # of connection points: 4
#     Node 2, Type 0, BuildingBlock: CEKHIL_clean_sbu_0, # of connection points: 4
#     Node 3, Type 0, BuildingBlock: CEKHIL_clean_sbu_0, # of connection points: 4
#     Node 4, Type 0, BuildingBlock: CEKHIL_clean_sbu_0, # of connection points: 4
#     Node 5, Type 0, BuildingBlock: CEKHIL_clean_sbu_0, # of connection points: 4
#     Node 6, Type 0, BuildingBlock: CEKHIL_clean_sbu_0, # of connection points: 4
#     Node 7, Type 0, BuildingBlock: CEKHIL_clean_sbu_0, # of connection points: 4
#     Node 8, Type 0, BuildingBlock: CEKHIL_clean_sbu_0, # of connection points: 4
#     Node 9, Type 0, BuildingBlock: CEKHIL_clean_sbu_0, # of connection points: 4
#     Node 10, Type 0, BuildingBlock: CEKHIL_clean_sbu_0, # of connection points: 4
#     Node 11, Type 0, BuildingBlock: CEKHIL_clean_sbu_0, # of connection points: 4
#     Edge 12, Type (0, 0), BuildingBlock: EZIPEK_clean_linker_0, # of connection points: 2
#     Edge 13, Type (0, 0), BuildingBlock: EZIPEK_clean_linker_0, # of connection points: 2
#     Edge 14, Type (0, 0), BuildingBlock: EZIPEK_clean_linker_0, # of connection points: 2
#     Edge 15, Type (0, 0), BuildingBlock: EZIPEK_clean_linker_0, # of connection points: 2
#     Edge 16, Type (0, 0), BuildingBlock: EZIPEK_clean_linker_0, # of connection points: 2
#     Edge 17, Type (0, 0), BuildingBlock: EZIPEK_clean_linker_0, # of connection points: 2
#     Edge 18, Type (0, 0), BuildingBlock: EZIPEK_clean_linker_0, # of connection points: 2
#     Edge 19, Type (0, 0), BuildingBlock: EZIPEK_clean_linker_0, # of connection points: 2
#     Edge 20, Type (0, 0), BuildingBlock: EZIPEK_clean_linker_0, # of connection points: 2
#     Edge 21, Type (0, 0), BuildingBlock: EZIPEK_clean_linker_0, # of connection points: 2
#     Edge 22, Type (0, 0), BuildingBlock: EZIPEK_clean_linker_0, # of connection points: 2
#     Edge 23, Type (0, 0), BuildingBlock: EZIPEK_clean_linker_0, # of connection points: 2
#     Edge 24, Type (0, 0), BuildingBlock: EZIPEK_clean_linker_0, # of connection points: 2
#     Edge 25, Type (0, 0), BuildingBlock: EZIPEK_clean_linker_0, # of connection points: 2
#     Edge 26, Type (0, 0), BuildingBlock: EZIPEK_clean_linker_0, # of connection points: 2
#     Edge 27, Type (0, 0), BuildingBlock: EZIPEK_clean_linker_0, # of connection points: 2
#     Edge 28, Type (0, 0), BuildingBlock: EZIPEK_clean_linker_0, # of connection points: 2
#     Edge 29, Type (0, 0), BuildingBlock: EZIPEK_clean_linker_0, # of connection points: 2
#     Edge 30, Type (0, 0), BuildingBlock: EZIPEK_clean_linker_0, # of connection points: 2
#     Edge 31, Type (0, 0), BuildingBlock: EZIPEK_clean_linker_0, # of connection points: 2
#     Edge 32, Type (0, 0), BuildingBlock: EZIPEK_clean_linker_0, # of connection points: 2
#     Edge 33, Type (0, 0), BuildingBlock: EZIPEK_clean_linker_0, # of connection points: 2
#     Edge 34, Type (0, 0), BuildingBlock: EZIPEK_clean_linker_0, # of connection points: 2
#     Edge 35, Type (0, 0), BuildingBlock: EZIPEK_clean_linker_0, # of connection points: 2
# Relax obj value: 0.133
# Max RMSD: 0.387
# Mean RMSD: 0.251
data_MOF--net-umm--node1-CEKHIL_clean_sbu_0--edge1-EZIPEK_clean_linker_0
_symmetry_space_group_name_H-M    P1
_symmetry_Int_Tables_number       1
_symmetry_cell_setting            triclinic
loop_
_symmetry_equiv_pos_as_xyz
'x, y, z'
_cell_length_a     38.584176
_cell_length_b     41.834438
_cell_length_c     19.694986
_cell_angle_alpha  90.061104
_cell_angle_beta   89.897722
_cell_angle_gamma 117.57201
loop_
_atom_site_label
_atom_site_type_symbol
_atom_site_fract_x
_atom_site_fract_y
_atom_site_fract_z
_atom_type_partial_charge
Co0 Co 0.39374 0.56665 0.09773 0.0
O1 O 0.34928 0.57403 0.07842 0.0
O2 O 0.35635 0.52662 0.04479 0.0
C3 C 0.40108 0.58033 0.20847 0.0
O4 O 0.43563 0.55048 0.10984 0.0
Co5 Co 0.47183 0.63385 0.13561 0.0
O6 O 0.4918 0.59801 0.14347 0.0
C7 C 0.44863 0.62116 0.99344 0.0
C8 C 0.33569 0.54392 0.04493 0.0
C9 C 0.47173 0.56474 0.12858 0.0
O10 O 0.41941 0.59139 0.01088 0.0
O11 O 0.47184 0.64425 0.03593 0.0
O12 O 0.37394 0.5492 0.18846 0.0
O13 O 0.4174 0.60405 0.16087 0.0
Co14 Co 0.85306 0.39287 0.38014 0.0
O15 O 0.80491 0.34855 0.38066 0.0
O16 O 0.863 0.3517 0.3632 0.0
C17 C 0.84041 0.41637 0.47496 0.0
O18 O 0.90935 0.43527 0.37893 0.0
Co19 Co 0.84747 0.46212 0.35353 0.0
O20 O 0.90462 0.48676 0.36896 0.0
C21 C 0.837 0.41472 0.23967 0.0
C22 C 0.82513 0.33196 0.36636 0.0
C23 C 0.92489 0.47017 0.37641 0.0
O24 O 0.8473 0.39633 0.2792 0.0
O25 O 0.8318 0.44113 0.26032 0.0
O26 O 0.85487 0.39389 0.47859 0.0
O27 O 0.82984 0.42087 0.41471 0.0
Co28 Co 0.46695 0.84043 0.76256 0.0
O29 O 0.46127 0.79253 0.75116 0.0
O30 O 0.51049 0.84163 0.70945 0.0
C31 C 0.45323 0.83614 0.87393 0.0
O32 O 0.48047 0.89442 0.76686 0.0
Co33 Co 0.39024 0.84441 0.80196 0.0
O34 O 0.42594 0.89702 0.80246 0.0
C35 C 0.40248 0.82965 0.66161 0.0
C36 C 0.49338 0.80665 0.71657 0.0
C37 C 0.46164 0.91224 0.78347 0.0
O38 O 0.4371 0.83534 0.67703 0.0
O39 O 0.37723 0.82861 0.70492 0.0
O40 O 0.48807 0.84319 0.85347 0.0
O41 O 0.42726 0.82732 0.82667 0.0
Co42 Co 0.62103 0.46507 0.13084 0.0
O43 O 0.66613 0.45705 0.12265 0.0
O44 O 0.66359 0.50664 0.08983 0.0
C45 C 0.60309 0.44499 0.23871 0.0
O46 O 0.58043 0.48322 0.13075 0.0
Co47 Co 0.53947 0.39993 0.14174 0.0
O48 O 0.52001 0.43636 0.13853 0.0
C49 C 0.57933 0.41459 0.01262 0.0
C50 C 0.68266 0.48789 0.09129 0.0
C51 C 0.543 0.46994 0.13355 0.0
O52 O 0.60483 0.44436 0.03791 0.0
O53 O 0.55152 0.39045 0.04714 0.0
O54 O 0.63084 0.47725 0.22646 0.0
O55 O 0.59074 0.4245 0.1854 0.0
Co56 Co 0.16022 0.65218 0.3823 0.0
O57 O 0.20818 0.69654 0.3798 0.0
O58 O 0.15263 0.68967 0.3352 0.0
C59 C 0.16499 0.64024 0.49228 0.0
O60 O 0.10484 0.6088 0.37708 0.0
Co61 Co 0.16739 0.58226 0.41032 0.0
O62 O 0.10933 0.55944 0.41225 0.0
C63 C 0.187 0.61549 0.27572 0.0
C64 C 0.18978 0.71044 0.34606 0.0
C65 C 0.08928 0.57476 0.39198 0.0
O66 O 0.1737 0.63723 0.29354 0.0
O67 O 0.19155 0.59416 0.31706 0.0
O68 O 0.15059 0.66179 0.47602 0.0
O69 O 0.17926 0.62979 0.4429 0.0
Co70 Co 0.52144 0.14153 0.77618 0.0
O71 O 0.52712 0.1897 0.77472 0.0
O72 O 0.47539 0.14197 0.73556 0.0
C73 C 0.54277 0.14445 0.88365 0.0
O74 O 0.50678 0.08731 0.77099 0.0
Co75 Co 0.59764 0.1346 0.79042 0.0
O76 O 0.5623 0.08206 0.78126 0.0
C77 C 0.58128 0.16057 0.66409 0.0
C78 C 0.49365 0.17684 0.74454 0.0
C79 C 0.52538 0.06822 0.77318 0.0
O80 O 0.54599 0.14951 0.68411 0.0
O81 O 0.60858 0.16198 0.70262 0.0
O82 O 0.50646 0.13629 0.87216 0.0
O83 O 0.56532 0.15371 0.8311 0.0
Co84 Co 0.51307 0.63333 0.56848 0.0
O85 O 0.51389 0.66293 0.64971 0.0
O86 O 0.51897 0.6826 0.54895 0.0
C87 C 0.47706 0.61262 0.47122 0.0
O88 O 0.51154 0.58451 0.59184 0.0
Co89 Co 0.42737 0.57285 0.58137 0.0
O90 O 0.45052 0.53919 0.57998 0.0
C91 C 0.46214 0.61019 0.70546 0.0
C92 C 0.51818 0.68962 0.61134 0.0
C93 C 0.48703 0.55054 0.5886 0.0
O94 O 0.49358 0.63069 0.67011 0.0
O95 O 0.43082 0.58613 0.67893 0.0
O96 O 0.51403 0.6222 0.47233 0.0
O97 O 0.46196 0.61517 0.52822 0.0
Co98 Co 0.83958 0.46995 0.86122 0.0
O99 O 0.78746 0.46139 0.88315 0.0
O100 O 0.84169 0.50744 0.92144 0.0
C101 C 0.83041 0.45894 0.74829 0.0
O102 O 0.89813 0.48718 0.84919 0.0
Co103 Co 0.85192 0.40564 0.80968 0.0
O104 O 0.90762 0.44265 0.80185 0.0
C105 C 0.83353 0.40907 0.95258 0.0
C106 C 0.80369 0.48963 0.92186 0.0
C107 C 0.92048 0.47452 0.82542 0.0
O108 O 0.83914 0.44131 0.94247 0.0
O109 O 0.83331 0.38813 0.90495 0.0
O110 O 0.83672 0.48999 0.77304 0.0
O111 O 0.82553 0.43481 0.79352 0.0
Co112 Co 0.38705 0.86497 0.24307 0.0
O113 O 0.34205 0.81825 0.2422 0.0
O114 O 0.33965 0.8689 0.26507 0.0
C115 C 0.41266 0.85722 0.14533 0.0
O116 O 0.42916 0.91851 0.24641 0.0
Co117 Co 0.46716 0.86703 0.25971 0.0
O118 O 0.48822 0.92013 0.25527 0.0
C119 C 0.41465 0.84736 0.37514 0.0
C120 C 0.32128 0.83382 0.25974 0.0
C121 C 0.46698 0.93595 0.25061 0.0
O122 O 0.39394 0.85864 0.34205 0.0
O123 O 0.44366 0.8448 0.34939 0.0
O124 O 0.386 0.86794 0.14485 0.0
O125 O 0.42026 0.84813 0.20405 0.0
Co126 Co 0.53242 0.3635 0.60599 0.0
O127 O 0.5359 0.31938 0.61688 0.0
O128 O 0.48393 0.32576 0.64472 0.0
C129 C 0.55812 0.37489 0.49968 0.0
O130 O 0.52021 0.40662 0.59976 0.0
Co131 Co 0.61172 0.43381 0.58922 0.0
O132 O 0.57698 0.45652 0.57666 0.0
C133 C 0.58671 0.40122 0.72353 0.0
C134 C 0.50103 0.30519 0.64207 0.0
C135 C 0.54019 0.4409 0.58744 0.0
O136 O 0.55338 0.37903 0.69936 0.0
O137 O 0.61572 0.4227 0.68726 0.0
O138 O 0.52114 0.35357 0.5097 0.0
O139 O 0.57813 0.38612 0.55477 0.0
Co140 Co 0.17141 0.56551 0.86201 0.0
O141 O 0.22412 0.57375 0.87411 0.0
O142 O 0.17124 0.52247 0.89817 0.0
C143 C 0.17785 0.58943 0.75856 0.0
O144 O 0.11241 0.54769 0.8539 0.0
Co145 Co 0.15665 0.63216 0.85666 0.0
O146 O 0.101 0.59576 0.84647 0.0
C147 C 0.17737 0.6121 0.98557 0.0
C148 C 0.20915 0.54144 0.89922 0.0
C149 C 0.08904 0.56179 0.84754 0.0
O150 O 0.17201 0.58255 0.95734 0.0
O151 O 0.17592 0.63787 0.95301 0.0
O152 O 0.17361 0.55691 0.76559 0.0
O153 O 0.18369 0.60789 0.81401 0.0
Co154 Co 0.63735 0.16577 0.25317 0.0
O155 O 0.67985 0.21409 0.2535 0.0
O156 O 0.68441 0.16652 0.29182 0.0
C157 C 0.6167 0.16694 0.14689 0.0
O158 O 0.59773 0.11144 0.25985 0.0
Co159 Co 0.55287 0.15728 0.24085 0.0
O160 O 0.53844 0.10548 0.23073 0.0
C161 C 0.59191 0.17357 0.37355 0.0
C162 C 0.70092 0.20133 0.28232 0.0
C163 C 0.56067 0.09188 0.24785 0.0
O164 O 0.62177 0.17297 0.34636 0.0
O165 O 0.56179 0.16978 0.34023 0.0
O166 O 0.64613 0.16046 0.15712 0.0
O167 O 0.6042 0.17677 0.1998 0.0
C168 C 0.42372 0.61885 0.3128 0.0
C169 C 0.41644 0.58637 0.27909 0.0
C170 C 0.44263 0.56841 0.37743 0.0
C171 C 0.45452 0.60286 0.40674 0.0
N172 N 0.4607 0.66282 0.39869 0.0
N173 N 0.42173 0.53067 0.27769 0.0
C174 C 0.44604 0.62856 0.37364 0.0
C175 C 0.42597 0.56092 0.31134 0.0
N176 N 0.40793 0.63979 0.28811 0.0
N177 N 0.44721 0.54263 0.41294 0.0
H178 H 0.41071 0.52362 0.22893 0.0
H179 H 0.43261 0.51365 0.29544 0.0
H180 H 0.46207 0.54809 0.45866 0.0
H181 H 0.43412 0.51546 0.39976 0.0
H182 H 0.40875 0.66179 0.31418 0.0
H183 H 0.39032 0.63295 0.24494 0.0
H184 H 0.45942 0.6839 0.37264 0.0
H185 H 0.47715 0.67104 0.44299 0.0
C186 C 0.80513 0.40308 0.5869 0.0
C187 C 0.82912 0.42881 0.53825 0.0
C188 C 0.84973 0.47653 0.62393 0.0
C189 C 0.82673 0.45056 0.67384 0.0
N190 N 0.76997 0.3931 0.69302 0.0
N191 N 0.85917 0.49108 0.50438 0.0
C192 C 0.80059 0.41493 0.65243 0.0
C193 C 0.84653 0.46589 0.5547 0.0
N194 N 0.78633 0.36729 0.57044 0.0
N195 N 0.87604 0.51087 0.64155 0.0
H196 H 0.85488 0.48395 0.45351 0.0
H197 H 0.86902 0.51851 0.51311 0.0
H198 H 0.87912 0.52153 0.68997 0.0
H199 H 0.89711 0.5285 0.60792 0.0
H200 H 0.77275 0.34695 0.60635 0.0
H201 H 0.78553 0.35791 0.52107 0.0
H202 H 0.74823 0.36794 0.67771 0.0
H203 H 0.76335 0.40203 0.73832 0.0
C204 C 0.4083 0.81308 0.97463 0.0
C205 C 0.44423 0.83903 0.94614 0.0
C206 C 0.46372 0.86755 0.05748 0.0
C207 C 0.42505 0.8471 0.08115 0.0
N208 N 0.35951 0.79956 0.06243 0.0
N209 N 0.50356 0.89564 0.95961 0.0
C210 C 0.39693 0.81963 0.03965 0.0
C211 C 0.47152 0.86742 0.98735 0.0
N212 N 0.38612 0.7813 0.94161 0.0
N213 N 0.49316 0.88672 0.10176 0.0
H214 H 0.50903 0.89888 0.90765 0.0
H215 H 0.52201 0.91835 0.98758 0.0
H216 H 0.48845 0.88588 0.15378 0.0
H217 H 0.52253 0.89972 0.08751 0.0
H218 H 0.36147 0.76018 0.96303 0.0
H219 H 0.3948 0.77421 0.89631 0.0
H220 H 0.33668 0.78241 0.03115 0.0
H221 H 0.3509 0.80124 0.11196 0.0
C222 C 0.55489 0.39822 0.3173 0.0
C223 C 0.59061 0.43024 0.3092 0.0
C224 C 0.61023 0.42101 0.42311 0.0
C225 C 0.57388 0.38959 0.4309 0.0
N226 N 0.52176 0.34032 0.372 0.0
N227 N 0.64472 0.47874 0.36813 0.0
C228 C 0.54919 0.37573 0.37396 0.0
C229 C 0.61638 0.44367 0.36579 0.0
N230 N 0.52449 0.39138 0.2749 0.0
N231 N 0.64022 0.42764 0.46684 0.0
H232 H 0.64671 0.49816 0.33334 0.0
H233 H 0.66198 0.49009 0.41087 0.0
H234 H 0.63883 0.40885 0.50284 0.0
H235 H 0.66837 0.44864 0.46008 0.0
H236 H 0.49669 0.36971 0.28111 0.0
H237 H 0.5256 0.41119 0.24213 0.0
H238 H 0.50503 0.32834 0.32898 0.0
H239 H 0.52003 0.32193 0.40926 0.0
C240 C 0.13485 0.6004 0.59226 0.0
C241 C 0.16734 0.62999 0.56321 0.0
C242 C 0.20581 0.63578 0.66578 0.0
C243 C 0.17443 0.60357 0.69142 0.0
N244 N 0.11133 0.55158 0.67281 0.0
N245 N 0.23473 0.6752 0.56872 0.0
C246 C 0.13972 0.58469 0.65271 0.0
C247 C 0.20312 0.64766 0.59912 0.0
N248 N 0.09882 0.58813 0.56343 0.0
N249 N 0.2384 0.65469 0.70453 0.0
H250 H 0.23317 0.68572 0.52147 0.0
H251 H 0.26295 0.68652 0.58836 0.0
H252 H 0.24332 0.6453 0.75066 0.0
H253 H 0.25998 0.68051 0.69256 0.0
H254 H 0.0731 0.56885 0.58563 0.0
H255 H 0.0943 0.60044 0.52105 0.0
H256 H 0.08833 0.53479 0.64147 0.0
H257 H 0.11132 0.53978 0.71923 0.0
C258 C 0.58377 0.12709 0.04681 0.0
C259 C 0.59704 0.16092 0.07995 0.0
C260 C 0.56894 0.18163 0.98875 0.0
C261 C 0.55889 0.14902 0.95314 0.0
N262 N 0.55888 0.09166 0.94509 0.0
N263 N 0.60811 0.22261 0.07747 0.0
C264 C 0.56697 0.12209 0.98133 0.0
C265 C 0.59092 0.18875 0.04988 0.0
N266 N 0.58547 0.099 0.07911 0.0
N267 N 0.55733 0.20574 0.96424 0.0
H268 H 0.62548 0.22925 0.1209 0.0
H269 H 0.60831 0.24499 0.05408 0.0
H270 H 0.54227 0.202 0.9186 0.0
H271 H 0.55986 0.22805 0.99152 0.0
H272 H 0.57129 0.07243 0.06213 0.0
H273 H 0.59868 0.10164 0.12589 0.0
H274 H 0.56936 0.0735 0.95735 0.0
H275 H 0.54284 0.08548 0.90062 0.0
C276 C 0.26415 0.52347 0.04091 0.0
C277 C 0.29921 0.53167 0.00554 0.0
C278 C 0.26701 0.53031 0.8978 0.0
C279 C 0.23495 0.52944 0.93436 0.0
N280 N 0.20278 0.52599 0.04172 0.0
N281 N 0.33512 0.54353 0.90015 0.0
C282 C 0.2329 0.52532 0.00614 0.0
C283 C 0.30076 0.53446 0.93368 0.0
N284 N 0.26099 0.51411 0.10796 0.0
N285 N 0.26506 0.52743 0.82864 0.0
H286 H 0.36025 0.54599 0.92429 0.0
H287 H 0.33947 0.55068 0.84905 0.0
H288 H 0.24036 0.5241 0.80158 0.0
H289 H 0.28599 0.52482 0.79903 0.0
H290 H 0.235 0.50461 0.13536 0.0
H291 H 0.2836 0.51254 0.13434 0.0
H292 H 0.20264 0.52825 0.09437 0.0
H293 H 0.17869 0.52636 0.01878 0.0
C294 C 0.77992 0.26824 0.39792 0.0
C295 C 0.8041 0.29297 0.34809 0.0
C296 C 0.76947 0.24817 0.25917 0.0
C297 C 0.74071 0.22686 0.30734 0.0
N298 N 0.71886 0.21498 0.42353 0.0
N299 N 0.82369 0.30644 0.23104 0.0
C300 C 0.74656 0.23592 0.37737 0.0
C301 C 0.80008 0.28253 0.27871 0.0
N302 N 0.78888 0.2762 0.46494 0.0
N303 N 0.76701 0.23545 0.19451 0.0
H304 H 0.84731 0.33108 0.24373 0.0
H305 H 0.81912 0.30262 0.17896 0.0
H306 H 0.74484 0.2103 0.17971 0.0
H307 H 0.78849 0.24798 0.15772 0.0
H308 H 0.77455 0.25841 0.50441 0.0
H309 H 0.81327 0.29972 0.48049 0.0
H310 H 0.71859 0.22231 0.47396 0.0
H311 H 0.69495 0.19057 0.4106 0.0
C312 C 0.48716 0.76399 0.62357 0.0
C313 C 0.50691 0.78253 0.68287 0.0
C314 C 0.53892 0.74356 0.6899 0.0
C315 C 0.51485 0.72192 0.63617 0.0
N316 N 0.45912 0.70733 0.56326 0.0
N317 N 0.54959 0.78877 0.77638 0.0
C318 C 0.48733 0.73117 0.60551 0.0
C319 C 0.53244 0.77209 0.71701 0.0
N320 N 0.46796 0.77771 0.58456 0.0
N321 N 0.5686 0.73752 0.71377 0.0
H322 H 0.54681 0.81073 0.79561 0.0
H323 H 0.56474 0.7797 0.80817 0.0
H324 H 0.57438 0.71719 0.6948 0.0
H325 H 0.58949 0.75448 0.74818 0.0
H326 H 0.4561 0.76722 0.53722 0.0
H327 H 0.46768 0.80192 0.59629 0.0
H328 H 0.43616 0.71135 0.54468 0.0
H329 H 0.45563 0.68153 0.55349 0.0
C330 C 0.71784 0.50244 0.97832 0.0
C331 C 0.71848 0.49775 0.04996 0.0
C332 C 0.77993 0.49407 0.03899 0.0
C333 C 0.77917 0.49888 0.96769 0.0
N334 N 0.75431 0.51781 0.87258 0.0
N335 N 0.75475 0.49853 0.14976 0.0
C336 C 0.7504 0.50655 0.93857 0.0
C337 C 0.75117 0.49672 0.08066 0.0
N338 N 0.68516 0.50017 0.94701 0.0
N339 N 0.80654 0.48483 0.06654 0.0
H340 H 0.73436 0.50099 0.18134 0.0
H341 H 0.77957 0.50116 0.17522 0.0
H342 H 0.82861 0.48335 0.03832 0.0
H343 H 0.80526 0.47635 0.1166 0.0
H344 H 0.68134 0.49823 0.89454 0.0
H345 H 0.66039 0.49743 0.97262 0.0
H346 H 0.73642 0.52733 0.85019 0.0
H347 H 0.77802 0.52114 0.84239 0.0
C348 C 0.2221 0.75351 0.24931 0.0
C349 C 0.21229 0.74783 0.31929 0.0
C350 C 0.26764 0.80658 0.34704 0.0
C351 C 0.27941 0.81089 0.27788 0.0
N352 N 0.26271 0.79467 0.16115 0.0
N353 N 0.21743 0.7728 0.43071 0.0
C354 C 0.25455 0.78642 0.22831 0.0
C355 C 0.23227 0.77595 0.36662 0.0
N356 N 0.20218 0.7265 0.20381 0.0
N357 N 0.29169 0.8301 0.39472 0.0
H358 H 0.1915 0.75053 0.44551 0.0
H359 H 0.2285 0.79338 0.46663 0.0
H360 H 0.3171 0.85337 0.38223 0.0
H361 H 0.28749 0.82583 0.4468 0.0
H362 H 0.21069 0.72696 0.15351 0.0
H363 H 0.17767 0.70264 0.21724 0.0
H364 H 0.24454 0.77959 0.12176 0.0
H365 H 0.2863 0.81873 0.14526 0.0
C366 C 0.4775 0.22745 0.76396 0.0
C367 C 0.47994 0.20244 0.7179 0.0
C368 C 0.47793 0.23949 0.62264 0.0
C369 C 0.48368 0.26759 0.66866 0.0
N370 N 0.48837 0.28872 0.78373 0.0
N371 N 0.48214 0.18418 0.60236 0.0
C372 C 0.48231 0.26138 0.73965 0.0
C373 C 0.47899 0.20781 0.64681 0.0
N374 N 0.47096 0.21863 0.83119 0.0
N375 N 0.47195 0.24354 0.55553 0.0
H376 H 0.48207 0.16033 0.61768 0.0
H377 H 0.487 0.18909 0.55053 0.0
H378 H 0.47103 0.26654 0.53713 0.0
H379 H 0.46427 0.22306 0.51971 0.0
H380 H 0.46571 0.23416 0.8671 0.0
H381 H 0.46713 0.19382 0.84969 0.0
H382 H 0.49289 0.28764 0.83559 0.0
H383 H 0.49081 0.31344 0.76779 0.0
C384 C 0.49 0.52137 0.07116 0.0
C385 C 0.4916 0.54175 0.12978 0.0
C386 C 0.53113 0.51806 0.18819 0.0
C387 C 0.52558 0.49479 0.13222 0.0
N388 N 0.49454 0.46997 0.02475 0.0
N389 N 0.51099 0.5576 0.24691 0.0
C390 C 0.50336 0.49506 0.0751 0.0
C391 C 0.51176 0.53988 0.18896 0.0
N392 N 0.4778 0.52856 0.0105 0.0
N393 N 0.55467 0.51908 0.24095 0.0
H394 H 0.49812 0.57458 0.24987 0.0
H395 H 0.52051 0.55349 0.29397 0.0
H396 H 0.56682 0.5015 0.24518 0.0
H397 H 0.56403 0.53863 0.27887 0.0
H398 H 0.48016 0.51735 0.96455 0.0
H399 H 0.46932 0.5487 0.00443 0.0
H400 H 0.47469 0.46638 0.98605 0.0
H401 H 0.50439 0.45061 0.02445 0.0
C402 C 0.98094 0.52241 0.43167 0.0
C403 C 0.96809 0.49368 0.38393 0.0
C404 C 0.03487 0.52011 0.3371 0.0
C405 C 0.04651 0.55034 0.38137 0.0
N406 N 0.02684 0.5844 0.45675 0.0
N407 N 0.98234 0.46658 0.28693 0.0
C408 C 0.0184 0.5528 0.42434 0.0
C409 C 0.99503 0.49275 0.33571 0.0
N410 N 0.9577 0.5199 0.4859 0.0
N411 N 0.06211 0.51775 0.29589 0.0
H412 H 0.95446 0.44481 0.28724 0.0
H413 H 0.99881 0.46704 0.24468 0.0
H414 H 0.09014 0.53905 0.28991 0.0
H415 H 0.05747 0.4946 0.26926 0.0
H416 H 0.96674 0.53839 0.52575 0.0
H417 H 0.93128 0.49692 0.49493 0.0
H418 H 0.00621 0.58851 0.48444 0.0
H419 H 0.05295 0.60784 0.44907 0.0
C420 C 0.51018 0.00941 0.71492 0.0
C421 C 0.50399 0.02792 0.77054 0.0
C422 C 0.47722 0.97194 0.83707 0.0
C423 C 0.48068 0.95262 0.78007 0.0
N424 N 0.49347 0.95211 0.66005 0.0
N425 N 0.47274 0.02454 0.87814 0.0
C426 C 0.49544 0.97114 0.71766 0.0
C427 C 0.48466 1.00843 0.82954 0.0
N428 N 0.53024 0.02852 0.65925 0.0
N429 N 0.46806 0.95571 0.89936 0.0
H430 H 0.47664 0.05081 0.87344 0.0
H431 H 0.45531 0.0107 0.91934 0.0
H432 H 0.46313 0.92931 0.90738 0.0
H433 H 0.46926 0.96947 0.94412 0.0
H434 H 0.54023 0.01771 0.62084 0.0
H435 H 0.53835 0.05584 0.65305 0.0
H436 H 0.49937 0.96351 0.61174 0.0
H437 H 0.48293 0.92425 0.65947 0.0
C438 C 0.49303 0.49934 0.64708 0.0
C439 C 0.50146 0.52286 0.59039 0.0
C440 C 0.52546 0.48604 0.52762 0.0
C441 C 0.52107 0.46495 0.58652 0.0
N442 N 0.50566 0.45474 0.70584 0.0
N443 N 0.5317 0.5419 0.48031 0.0
C444 C 0.50586 0.47224 0.64715 0.0
C445 C 0.51947 0.51717 0.53174 0.0
N446 N 0.47282 0.50296 0.70108 0.0
N447 N 0.53449 0.47566 0.46703 0.0
H448 H 0.5283 0.56517 0.48142 0.0
H449 H 0.54847 0.54116 0.43944 0.0
H450 H 0.53827 0.45261 0.46207 0.0
H451 H 0.53431 0.48759 0.42073 0.0
H452 H 0.46174 0.48422 0.74031 0.0
H453 H 0.46512 0.52375 0.70475 0.0
H454 H 0.49964 0.46196 0.75335 0.0
H455 H 0.51422 0.4345 0.70798 0.0
C456 C 0.02514 0.54521 0.78775 0.0
C457 C 0.04607 0.53793 0.84002 0.0
C458 C 0.98451 0.48726 0.87915 0.0
C459 C 0.96354 0.49675 0.83087 0.0
N460 N 0.96278 0.53724 0.74503 0.0
N461 N 0.04435 0.5052 0.94234 0.0
C462 C 0.98357 0.52654 0.78708 0.0
C463 C 0.02546 0.50958 0.88722 0.0
N464 N 0.04496 0.56883 0.73672 0.0
N465 N 0.96522 0.45688 0.91777 0.0
H466 H 0.07416 0.52043 0.95071 0.0
H467 H 0.03003 0.48838 0.98306 0.0
H468 H 0.93491 0.44142 0.91771 0.0
H469 H 0.97936 0.4457 0.94692 0.0
H470 H 0.03158 0.57191 0.69311 0.0
H471 H 0.07529 0.58316 0.7343 0.0
H472 H 0.97508 0.56136 0.71798 0.0
H473 H 0.93249 0.52316 0.7411 0.0
C474 C 0.482 0.99757 0.29891 0.0
C475 C 0.48847 0.97639 0.24894 0.0
C476 C 0.54985 0.02928 0.21644 0.0
C477 C 0.54054 0.05176 0.25818 0.0
N478 N 0.49699 0.0572 0.34046 0.0
N479 N 0.52343 0.97521 0.14824 0.0
C480 C 0.50629 0.03579 0.29977 0.0
C481 C 0.52099 0.99323 0.20434 0.0
N482 N 0.45385 0.98123 0.34733 0.0
N483 N 0.58645 0.04168 0.18977 0.0
H484 H 0.50104 0.94998 0.1349 0.0
H485 H 0.54482 0.98719 0.11096 0.0
H486 H 0.60927 0.06681 0.20222 0.0
H487 H 0.5953 0.02526 0.1628 0.0
H488 H 0.45108 0.99449 0.39016 0.0
H489 H 0.43464 0.95374 0.34723 0.0
H490 H 0.47004 0.04823 0.36456 0.0
H491 H 0.51579 0.0845 0.34823 0.0
C492 C 0.43652 0.63064 0.80449 0.0
C493 C 0.46215 0.61778 0.77883 0.0
C494 C 0.48713 0.61873 0.89355 0.0
C495 C 0.45745 0.62629 0.92003 0.0
N496 N 0.40236 0.63765 0.9023 0.0
N497 N 0.50981 0.59665 0.7983 0.0
C498 C 0.43182 0.63195 0.87587 0.0
C499 C 0.48738 0.61155 0.82304 0.0
N500 N 0.41769 0.64266 0.76061 0.0
N501 N 0.5147 0.61781 0.93593 0.0
H502 H 0.51085 0.59093 0.74701 0.0
H503 H 0.5251 0.58726 0.82898 0.0
H504 H 0.51468 0.62144 0.98827 0.0
H505 H 0.53943 0.61629 0.91881 0.0
H506 H 0.4016 0.65561 0.77628 0.0
H507 H 0.42114 0.64274 0.70803 0.0
H508 H 0.37967 0.63731 0.87323 0.0
H509 H 0.39948 0.64084 0.95424 0.0
C510 C 0.86466 0.40608 0.12935 0.0
C511 C 0.83278 0.40581 0.16625 0.0
C512 C 0.79593 0.39633 0.06062 0.0
C513 C 0.82811 0.39725 0.02413 0.0
N514 N 0.88716 0.39128 0.02466 0.0
N515 N 0.76442 0.39066 0.16981 0.0
C516 C 0.86028 0.39775 0.05905 0.0
C517 C 0.79714 0.39769 0.13272 0.0
N518 N 0.90015 0.41718 0.1599 0.0
N519 N 0.76492 0.39555 0.02589 0.0
H520 H 0.76423 0.39077 0.22279 0.0
H521 H 0.73677 0.38152 0.14851 0.0
H522 H 0.76218 0.39217 0.9733 0.0
H523 H 0.74299 0.39978 0.04861 0.0
H524 H 0.92549 0.42172 0.13368 0.0
H525 H 0.90534 0.4254 0.21031 0.0
H526 H 0.90954 0.38825 0.04852 0.0
H527 H 0.88456 0.38509 0.97305 0.0
C528 C 0.40454 0.86504 0.56048 0.0
C529 C 0.39494 0.83088 0.58889 0.0
C530 C 0.39157 0.80578 0.47538 0.0
C531 C 0.4071 0.84117 0.44841 0.0
N532 N 0.43361 0.90536 0.46571 0.0
N533 N 0.37932 0.7685 0.57607 0.0
C534 C 0.41454 0.87103 0.4909 0.0
C535 C 0.38807 0.80101 0.54699 0.0
N536 N 0.40484 0.89192 0.60042 0.0
N537 N 0.37965 0.7769 0.43251 0.0
H538 H 0.37471 0.76403 0.6282 0.0
H539 H 0.3783 0.7466 0.54933 0.0
H540 H 0.3821 0.77966 0.37983 0.0
H541 H 0.36477 0.75021 0.44858 0.0
H542 H 0.40795 0.9163 0.58122 0.0
H543 H 0.39838 0.88868 0.65215 0.0
H544 H 0.44363 0.92838 0.49586 0.0
H545 H 0.44301 0.91101 0.41547 0.0
C546 C 0.58708 0.43626 0.82532 0.0
C547 C 0.58891 0.40577 0.79756 0.0
C548 C 0.58619 0.38136 0.91151 0.0
C549 C 0.58093 0.41024 0.93866 0.0
N550 N 0.56936 0.4617 0.9212 0.0
N551 N 0.58548 0.34711 0.81159 0.0
C552 C 0.57972 0.43689 0.89555 0.0
C553 C 0.58699 0.37759 0.83991 0.0
N554 N 0.59187 0.4645 0.78455 0.0
N555 N 0.59216 0.35856 0.95402 0.0
H556 H 0.58828 0.34433 0.75949 0.0
H557 H 0.57914 0.32382 0.83915 0.0
H558 H 0.59212 0.36069 0.00677 0.0
H559 H 0.60027 0.33937 0.9372 0.0
H560 H 0.59605 0.48932 0.8033 0.0
H561 H 0.59435 0.46437 0.7319 0.0
H562 H 0.56309 0.47883 0.89117 0.0
H563 H 0.56342 0.46313 0.97238 0.0
C564 C 0.15546 0.58462 0.09959 0.0
C565 C 0.18211 0.6142 0.06036 0.0
C566 C 0.21743 0.64358 0.16431 0.0
C567 C 0.1922 0.61247 0.20198 0.0
N568 N 0.14618 0.54888 0.19999 0.0
N569 N 0.24357 0.66872 0.05359 0.0
C570 C 0.16442 0.58141 0.1678 0.0
C571 C 0.21471 0.64293 0.0921 0.0
N572 N 0.12019 0.56075 0.07305 0.0
N573 N 0.24376 0.67367 0.1977 0.0
H574 H 0.24287 0.66871 0.00068 0.0
H575 H 0.26973 0.68836 0.07378 0.0
H576 H 0.24817 0.67403 0.25003 0.0
H577 H 0.25988 0.69851 0.17406 0.0
H578 H 0.09831 0.54043 0.10164 0.0
H579 H 0.11095 0.56439 0.02533 0.0
H580 H 0.12811 0.52505 0.17458 0.0
H581 H 0.15245 0.54477 0.24958 0.0
C582 C 0.59389 0.14111 0.55167 0.0
C583 C 0.58876 0.16704 0.59083 0.0
C584 C 0.58846 0.19949 0.48722 0.0
C585 C 0.58986 0.17163 0.44827 0.0
N586 N 0.58566 0.11217 0.44275 0.0
N587 N 0.57798 0.21935 0.59776 0.0
C588 C 0.59061 0.14154 0.48028 0.0
C589 C 0.58508 0.19582 0.55911 0.0
N590 N 0.6014 0.11564 0.58241 0.0
N591 N 0.59161 0.2298 0.45566 0.0
H592 H 0.5778 0.2188 0.65073 0.0
H593 H 0.57032 0.23819 0.57756 0.0
H594 H 0.59391 0.23308 0.40306 0.0
H595 H 0.59473 0.2527 0.4815 0.0
H596 H 0.61048 0.09926 0.55591 0.0
H597 H 0.60153 0.11237 0.63477 0.0
H598 H 0.58091 0.08769 0.464 0.0
H599 H 0.58222 0.1107 0.39029 0.0
loop_
_geom_bond_atom_site_label_1
_geom_bond_atom_site_label_2
_geom_bond_distance
_geom_bond_site_symmetry_2
_ccdc_geom_bond_type
Co0 O1 2.216 . S
Co0 O2 2.091 . S
Co0 O4 2.004 . S
Co0 O10 2.021 1_554 S
Co0 O12 2.137 . S
Co0 O13 2.244 . S
O1 Co0 2.216 . S
O1 C8 1.247 . S
O2 Co0 2.091 . S
O2 C8 1.261 . S
C3 O12 1.247 . S
C3 O13 1.272 . S
O4 Co0 2.004 . S
O4 C9 1.259 . S
Co5 O6 2.061 . S
Co5 O11 2.052 1_554 S
Co5 O13 2.135 . S
O6 Co5 2.061 . S
O6 C9 1.235 . S
C7 O10 1.238 . S
C7 O11 1.241 . S
C8 O1 1.247 . S
C8 O2 1.261 . S
C9 O4 1.259 . S
C9 O6 1.235 . S
O10 Co0 2.021 1_556 S
O10 C7 1.238 . S
O11 Co5 2.052 1_556 S
O11 C7 1.241 . S
O12 Co0 2.137 . S
O12 C3 1.247 . S
O13 Co0 2.244 . S
O13 C3 1.272 . S
O13 Co5 2.135 . S
Co14 O15 2.216 . S
Co14 O16 2.091 . S
Co14 O18 2.004 . S
Co14 O24 2.021 . S
Co14 O26 2.137 . S
Co14 O27 2.244 . S
O15 Co14 2.216 . S
O15 C22 1.247 . S
O16 Co14 2.091 . S
O16 C22 1.261 . S
C17 O26 1.247 . S
C17 O27 1.272 . S
O18 Co14 2.004 . S
O18 C23 1.259 . S
Co19 O20 2.061 . S
Co19 O25 2.052 . S
Co19 O27 2.135 . S
O20 Co19 2.061 . S
O20 C23 1.235 . S
C21 O24 1.238 . S
C21 O25 1.241 . S
C22 O15 1.247 . S
C22 O16 1.261 . S
C23 O18 1.259 . S
C23 O20 1.235 . S
O24 Co14 2.021 . S
O24 C21 1.238 . S
O25 Co19 2.052 . S
O25 C21 1.241 . S
O26 Co14 2.137 . S
O26 C17 1.247 . S
O27 Co14 2.244 . S
O27 C17 1.272 . S
O27 Co19 2.135 . S
Co28 O29 2.216 . S
Co28 O30 2.091 . S
Co28 O32 2.004 . S
Co28 O38 2.021 . S
Co28 O40 2.137 . S
Co28 O41 2.244 . S
O29 Co28 2.216 . S
O29 C36 1.247 . S
O30 Co28 2.091 . S
O30 C36 1.261 . S
C31 O40 1.247 . S
C31 O41 1.272 . S
O32 Co28 2.004 . S
O32 C37 1.259 . S
Co33 O34 2.061 . S
Co33 O39 2.052 . S
Co33 O41 2.135 . S
O34 Co33 2.061 . S
O34 C37 1.235 . S
C35 O38 1.238 . S
C35 O39 1.241 . S
C36 O29 1.247 . S
C36 O30 1.261 . S
C37 O32 1.259 . S
C37 O34 1.235 . S
O38 Co28 2.021 . S
O38 C35 1.238 . S
O39 Co33 2.052 . S
O39 C35 1.241 . S
O40 Co28 2.137 . S
O40 C31 1.247 . S
O41 Co28 2.244 . S
O41 C31 1.272 . S
O41 Co33 2.135 . S
Co42 O43 2.216 . S
Co42 O44 2.091 . S
Co42 O46 2.004 . S
Co42 O52 2.021 1_554 S
Co42 O54 2.137 . S
Co42 O55 2.244 . S
O43 Co42 2.216 . S
O43 C50 1.247 . S
O44 Co42 2.091 . S
O44 C50 1.261 . S
C45 O54 1.247 . S
C45 O55 1.272 . S
O46 Co42 2.004 . S
O46 C51 1.259 . S
Co47 O48 2.061 . S
Co47 O53 2.052 1_554 S
Co47 O55 2.135 . S
O48 Co47 2.061 . S
O48 C51 1.235 . S
C49 O52 1.238 . S
C49 O53 1.241 . S
C50 O43 1.247 . S
C50 O44 1.261 . S
C51 O46 1.259 . S
C51 O48 1.235 . S
O52 Co42 2.021 1_556 S
O52 C49 1.238 . S
O53 Co47 2.052 1_556 S
O53 C49 1.241 . S
O54 Co42 2.137 . S
O54 C45 1.247 . S
O55 Co42 2.244 . S
O55 C45 1.272 . S
O55 Co47 2.135 . S
Co56 O57 2.216 . S
Co56 O58 2.091 . S
Co56 O60 2.004 . S
Co56 O66 2.021 . S
Co56 O68 2.137 . S
Co56 O69 2.244 . S
O57 Co56 2.216 . S
O57 C64 1.247 . S
O58 Co56 2.091 . S
O58 C64 1.261 . S
C59 O68 1.247 . S
C59 O69 1.272 . S
O60 Co56 2.004 . S
O60 C65 1.259 . S
Co61 O62 2.061 . S
Co61 O67 2.052 . S
Co61 O69 2.135 . S
O62 Co61 2.061 . S
O62 C65 1.235 . S
C63 O66 1.238 . S
C63 O67 1.241 . S
C64 O57 1.247 . S
C64 O58 1.261 . S
C65 O60 1.259 . S
C65 O62 1.235 . S
O66 Co56 2.021 . S
O66 C63 1.238 . S
O67 Co61 2.052 . S
O67 C63 1.241 . S
O68 Co56 2.137 . S
O68 C59 1.247 . S
O69 Co56 2.244 . S
O69 C59 1.272 . S
O69 Co61 2.135 . S
Co70 O71 2.216 . S
Co70 O72 2.091 . S
Co70 O74 2.004 . S
Co70 O80 2.021 . S
Co70 O82 2.137 . S
Co70 O83 2.244 . S
O71 Co70 2.216 . S
O71 C78 1.247 . S
O72 Co70 2.091 . S
O72 C78 1.261 . S
C73 O82 1.247 . S
C73 O83 1.272 . S
O74 Co70 2.004 . S
O74 C79 1.259 . S
Co75 O76 2.061 . S
Co75 O81 2.052 . S
Co75 O83 2.135 . S
O76 Co75 2.061 . S
O76 C79 1.235 . S
C77 O80 1.238 . S
C77 O81 1.241 . S
C78 O71 1.247 . S
C78 O72 1.261 . S
C79 O74 1.259 . S
C79 O76 1.235 . S
O80 Co70 2.021 . S
O80 C77 1.238 . S
O81 Co75 2.052 . S
O81 C77 1.241 . S
O82 Co70 2.137 . S
O82 C73 1.247 . S
O83 Co70 2.244 . S
O83 C73 1.272 . S
O83 Co75 2.135 . S
Co84 O85 2.216 . S
Co84 O86 2.091 . S
Co84 O88 2.004 . S
Co84 O94 2.021 . S
Co84 O96 2.137 . S
Co84 O97 2.244 . S
O85 Co84 2.216 . S
O85 C92 1.247 . S
O86 Co84 2.091 . S
O86 C92 1.261 . S
C87 O96 1.247 . S
C87 O97 1.272 . S
O88 Co84 2.004 . S
O88 C93 1.259 . S
Co89 O90 2.061 . S
Co89 O95 2.052 . S
Co89 O97 2.135 . S
O90 Co89 2.061 . S
O90 C93 1.235 . S
C91 O94 1.238 . S
C91 O95 1.241 . S
C92 O85 1.247 . S
C92 O86 1.261 . S
C93 O88 1.259 . S
C93 O90 1.235 . S
O94 Co84 2.021 . S
O94 C91 1.238 . S
O95 Co89 2.052 . S
O95 C91 1.241 . S
O96 Co84 2.137 . S
O96 C87 1.247 . S
O97 Co84 2.244 . S
O97 C87 1.272 . S
O97 Co89 2.135 . S
Co98 O99 2.216 . S
Co98 O100 2.091 . S
Co98 O102 2.004 . S
Co98 O108 2.021 1_556 S
Co98 O110 2.137 . S
Co98 O111 2.244 . S
O99 Co98 2.216 . S
O99 C106 1.247 . S
O100 Co98 2.091 . S
O100 C106 1.261 . S
C101 O110 1.247 . S
C101 O111 1.272 . S
O102 Co98 2.004 . S
O102 C107 1.259 . S
Co103 O104 2.061 . S
Co103 O109 2.052 1_556 S
Co103 O111 2.135 . S
O104 Co103 2.061 . S
O104 C107 1.235 . S
C105 O108 1.238 . S
C105 O109 1.241 . S
C106 O99 1.247 . S
C106 O100 1.261 . S
C107 O102 1.259 . S
C107 O104 1.235 . S
O108 Co98 2.021 1_554 S
O108 C105 1.238 . S
O109 Co103 2.052 1_554 S
O109 C105 1.241 . S
O110 Co98 2.137 . S
O110 C101 1.247 . S
O111 Co98 2.244 . S
O111 C101 1.272 . S
O111 Co103 2.135 . S
Co112 O113 2.216 . S
Co112 O114 2.091 . S
Co112 O116 2.004 . S
Co112 O122 2.021 . S
Co112 O124 2.137 . S
Co112 O125 2.244 . S
O113 Co112 2.216 . S
O113 C120 1.247 . S
O114 Co112 2.091 . S
O114 C120 1.261 . S
C115 O124 1.247 . S
C115 O125 1.272 . S
O116 Co112 2.004 . S
O116 C121 1.259 . S
Co117 O118 2.061 . S
Co117 O123 2.052 . S
Co117 O125 2.135 . S
O118 Co117 2.061 . S
O118 C121 1.235 . S
C119 O122 1.238 . S
C119 O123 1.241 . S
C120 O113 1.247 . S
C120 O114 1.261 . S
C121 O116 1.259 . S
C121 O118 1.235 . S
O122 Co112 2.021 . S
O122 C119 1.238 . S
O123 Co117 2.052 . S
O123 C119 1.241 . S
O124 Co112 2.137 . S
O124 C115 1.247 . S
O125 Co112 2.244 . S
O125 C115 1.272 . S
O125 Co117 2.135 . S
Co126 O127 2.216 . S
Co126 O128 2.091 . S
Co126 O130 2.004 . S
Co126 O136 2.021 . S
Co126 O138 2.137 . S
Co126 O139 2.244 . S
O127 Co126 2.216 . S
O127 C134 1.247 . S
O128 Co126 2.091 . S
O128 C134 1.261 . S
C129 O138 1.247 . S
C129 O139 1.272 . S
O130 Co126 2.004 . S
O130 C135 1.259 . S
Co131 O132 2.061 . S
Co131 O137 2.052 . S
Co131 O139 2.135 . S
O132 Co131 2.061 . S
O132 C135 1.235 . S
C133 O136 1.238 . S
C133 O137 1.241 . S
C134 O127 1.247 . S
C134 O128 1.261 . S
C135 O130 1.259 . S
C135 O132 1.235 . S
O136 Co126 2.021 . S
O136 C133 1.238 . S
O137 Co131 2.052 . S
O137 C133 1.241 . S
O138 Co126 2.137 . S
O138 C129 1.247 . S
O139 Co126 2.244 . S
O139 C129 1.272 . S
O139 Co131 2.135 . S
Co140 O141 2.216 . S
Co140 O142 2.091 . S
Co140 O144 2.004 . S
Co140 O150 2.021 1_556 S
Co140 O152 2.137 . S
Co140 O153 2.244 . S
O141 Co140 2.216 . S
O141 C148 1.247 . S
O142 Co140 2.091 . S
O142 C148 1.261 . S
C143 O152 1.247 . S
C143 O153 1.272 . S
O144 Co140 2.004 . S
O144 C149 1.259 . S
Co145 O146 2.061 . S
Co145 O151 2.052 1_556 S
Co145 O153 2.135 . S
O146 Co145 2.061 . S
O146 C149 1.235 . S
C147 O150 1.238 . S
C147 O151 1.241 . S
C148 O141 1.247 . S
C148 O142 1.261 . S
C149 O144 1.259 . S
C149 O146 1.235 . S
O150 Co140 2.021 1_554 S
O150 C147 1.238 . S
O151 Co145 2.052 1_554 S
O151 C147 1.241 . S
O152 Co140 2.137 . S
O152 C143 1.247 . S
O153 Co140 2.244 . S
O153 C143 1.272 . S
O153 Co145 2.135 . S
Co154 O155 2.216 . S
Co154 O156 2.091 . S
Co154 O158 2.004 . S
Co154 O164 2.021 . S
Co154 O166 2.137 . S
Co154 O167 2.244 . S
O155 Co154 2.216 . S
O155 C162 1.247 . S
O156 Co154 2.091 . S
O156 C162 1.261 . S
C157 O166 1.247 . S
C157 O167 1.272 . S
O158 Co154 2.004 . S
O158 C163 1.259 . S
Co159 O160 2.061 . S
Co159 O165 2.052 . S
Co159 O167 2.135 . S
O160 Co159 2.061 . S
O160 C163 1.235 . S
C161 O164 1.238 . S
C161 O165 1.241 . S
C162 O155 1.247 . S
C162 O156 1.261 . S
C163 O158 1.259 . S
C163 O160 1.235 . S
O164 Co154 2.021 . S
O164 C161 1.238 . S
O165 Co159 2.052 . S
O165 C161 1.241 . S
O166 Co154 2.137 . S
O166 C157 1.247 . S
O167 Co154 2.244 . S
O167 C157 1.272 . S
O167 Co159 2.135 . S
C168 C169 1.363 . S
C168 C174 1.379 . S
C168 N176 1.356 . S
C169 C168 1.363 . S
C169 C175 1.363 . S
C170 C171 1.363 . S
C170 C175 1.379 . S
C170 N177 1.356 . S
C171 C170 1.363 . S
C171 C174 1.363 . S
N172 C174 1.356 . S
N172 H184 0.984 . S
N172 H185 0.985 . S
N173 C175 1.356 . S
N173 H178 0.984 . S
N173 H179 0.985 . S
C174 C168 1.379 . S
C174 C171 1.363 . S
C174 N172 1.356 . S
C175 C169 1.363 . S
C175 C170 1.379 . S
C175 N173 1.356 . S
N176 C168 1.356 . S
N176 H182 0.984 . S
N176 H183 0.984 . S
N177 C170 1.356 . S
N177 H180 0.984 . S
N177 H181 0.985 . S
H178 N173 0.984 . S
H179 N173 0.985 . S
H180 N177 0.984 . S
H181 N177 0.985 . S
H182 N176 0.984 . S
H183 N176 0.984 . S
H184 N172 0.984 . S
H185 N172 0.985 . S
C186 C187 1.363 . S
C186 C192 1.379 . S
C186 N194 1.356 . S
C187 C186 1.363 . S
C187 C193 1.363 . S
C188 C189 1.363 . S
C188 C193 1.379 . S
C188 N195 1.356 . S
C189 C188 1.363 . S
C189 C192 1.363 . S
N190 C192 1.356 . S
N190 H202 0.984 . S
N190 H203 0.985 . S
N191 C193 1.356 . S
N191 H196 0.984 . S
N191 H197 0.985 . S
C192 C186 1.379 . S
C192 C189 1.363 . S
C192 N190 1.356 . S
C193 C187 1.363 . S
C193 C188 1.379 . S
C193 N191 1.356 . S
N194 C186 1.356 . S
N194 H200 0.984 . S
N194 H201 0.984 . S
N195 C188 1.356 . S
N195 H198 0.984 . S
N195 H199 0.985 . S
H196 N191 0.984 . S
H197 N191 0.985 . S
H198 N195 0.984 . S
H199 N195 0.985 . S
H200 N194 0.984 . S
H201 N194 0.984 . S
H202 N190 0.984 . S
H203 N190 0.985 . S
C204 C205 1.363 . S
C204 C210 1.379 1_556 S
C204 N212 1.356 . S
C205 C204 1.363 . S
C205 C211 1.363 . S
C206 C207 1.363 . S
C206 C211 1.379 1_554 S
C206 N213 1.356 . S
C207 C206 1.363 . S
C207 C210 1.363 . S
N208 C210 1.356 . S
N208 H220 0.984 . S
N208 H221 0.985 . S
N209 C211 1.356 . S
N209 H214 0.984 . S
N209 H215 0.985 . S
C210 C204 1.379 1_554 S
C210 C207 1.363 . S
C210 N208 1.356 . S
C211 C205 1.363 . S
C211 C206 1.379 1_556 S
C211 N209 1.356 . S
N212 C204 1.356 . S
N212 H218 0.984 . S
N212 H219 0.984 . S
N213 C206 1.356 . S
N213 H216 0.984 . S
N213 H217 0.985 . S
H214 N209 0.984 . S
H215 N209 0.985 . S
H216 N213 0.984 . S
H217 N213 0.985 . S
H218 N212 0.984 . S
H219 N212 0.984 . S
H220 N208 0.984 . S
H221 N208 0.985 . S
C222 C223 1.363 . S
C222 C228 1.379 . S
C222 N230 1.356 . S
C223 C222 1.363 . S
C223 C229 1.363 . S
C224 C225 1.363 . S
C224 C229 1.379 . S
C224 N231 1.356 . S
C225 C224 1.363 . S
C225 C228 1.363 . S
N226 C228 1.356 . S
N226 H238 0.984 . S
N226 H239 0.985 . S
N227 C229 1.356 . S
N227 H232 0.984 . S
N227 H233 0.985 . S
C228 C222 1.379 . S
C228 C225 1.363 . S
C228 N226 1.356 . S
C229 C223 1.363 . S
C229 C224 1.379 . S
C229 N227 1.356 . S
N230 C222 1.356 . S
N230 H236 0.984 . S
N230 H237 0.984 . S
N231 C224 1.356 . S
N231 H234 0.984 . S
N231 H235 0.985 . S
H232 N227 0.984 . S
H233 N227 0.985 . S
H234 N231 0.984 . S
H235 N231 0.985 . S
H236 N230 0.984 . S
H237 N230 0.984 . S
H238 N226 0.984 . S
H239 N226 0.985 . S
C240 C241 1.363 . S
C240 C246 1.379 . S
C240 N248 1.356 . S
C241 C240 1.363 . S
C241 C247 1.363 . S
C242 C243 1.363 . S
C242 C247 1.379 . S
C242 N249 1.356 . S
C243 C242 1.363 . S
C243 C246 1.363 . S
N244 C246 1.356 . S
N244 H256 0.984 . S
N244 H257 0.985 . S
N245 C247 1.356 . S
N245 H250 0.984 . S
N245 H251 0.985 . S
C246 C240 1.379 . S
C246 C243 1.363 . S
C246 N244 1.356 . S
C247 C241 1.363 . S
C247 C242 1.379 . S
C247 N245 1.356 . S
N248 C240 1.356 . S
N248 H254 0.984 . S
N248 H255 0.984 . S
N249 C242 1.356 . S
N249 H252 0.984 . S
N249 H253 0.985 . S
H250 N245 0.984 . S
H251 N245 0.985 . S
H252 N249 0.984 . S
H253 N249 0.985 . S
H254 N248 0.984 . S
H255 N248 0.984 . S
H256 N244 0.984 . S
H257 N244 0.985 . S
C258 C259 1.363 . S
C258 C264 1.379 1_554 S
C258 N266 1.356 . S
C259 C258 1.363 . S
C259 C265 1.363 . S
C260 C261 1.363 . S
C260 C265 1.379 1_556 S
C260 N267 1.356 . S
C261 C260 1.363 . S
C261 C264 1.363 . S
N262 C264 1.356 . S
N262 H274 0.984 . S
N262 H275 0.985 . S
N263 C265 1.356 . S
N263 H268 0.984 . S
N263 H269 0.985 . S
C264 C258 1.379 1_556 S
C264 C261 1.363 . S
C264 N262 1.356 . S
C265 C259 1.363 . S
C265 C260 1.379 1_554 S
C265 N263 1.356 . S
N266 C258 1.356 . S
N266 H272 0.984 . S
N266 H273 0.984 . S
N267 C260 1.356 . S
N267 H270 0.984 . S
N267 H271 0.985 . S
H268 N263 0.984 . S
H269 N263 0.985 . S
H270 N267 0.984 . S
H271 N267 0.985 . S
H272 N266 0.984 . S
H273 N266 0.984 . S
H274 N262 0.984 . S
H275 N262 0.985 . S
C276 C277 1.363 . S
C276 C282 1.379 . S
C276 N284 1.356 . S
C277 C276 1.363 . S
C277 C283 1.363 1_554 S
C278 C279 1.363 . S
C278 C283 1.379 . S
C278 N285 1.356 . S
C279 C278 1.363 . S
C279 C282 1.363 1_556 S
N280 C282 1.356 . S
N280 H292 0.984 . S
N280 H293 0.985 1_554 S
N281 C283 1.356 . S
N281 H286 0.984 1_556 S
N281 H287 0.985 . S
C282 C276 1.379 . S
C282 C279 1.363 1_554 S
C282 N280 1.356 . S
C283 C277 1.363 1_556 S
C283 C278 1.379 . S
C283 N281 1.356 . S
N284 C276 1.356 . S
N284 H290 0.984 . S
N284 H291 0.984 . S
N285 C278 1.356 . S
N285 H288 0.984 . S
N285 H289 0.985 . S
H286 N281 0.984 1_554 S
H287 N281 0.985 . S
H288 N285 0.984 . S
H289 N285 0.985 . S
H290 N284 0.984 . S
H291 N284 0.984 . S
H292 N280 0.984 . S
H293 N280 0.985 1_556 S
C294 C295 1.363 . S
C294 C300 1.379 . S
C294 N302 1.356 . S
C295 C294 1.363 . S
C295 C301 1.363 . S
C296 C297 1.363 . S
C296 C301 1.379 . S
C296 N303 1.356 . S
C297 C296 1.363 . S
C297 C300 1.363 . S
N298 C300 1.356 . S
N298 H310 0.984 . S
N298 H311 0.985 . S
N299 C301 1.356 . S
N299 H304 0.984 . S
N299 H305 0.985 . S
C300 C294 1.379 . S
C300 C297 1.363 . S
C300 N298 1.356 . S
C301 C295 1.363 . S
C301 C296 1.379 . S
C301 N299 1.356 . S
N302 C294 1.356 . S
N302 H308 0.984 . S
N302 H309 0.984 . S
N303 C296 1.356 . S
N303 H306 0.984 . S
N303 H307 0.985 . S
H304 N299 0.984 . S
H305 N299 0.985 . S
H306 N303 0.984 . S
H307 N303 0.985 . S
H308 N302 0.984 . S
H309 N302 0.984 . S
H310 N298 0.984 . S
H311 N298 0.985 . S
C312 C313 1.363 . S
C312 C318 1.379 . S
C312 N320 1.356 . S
C313 C312 1.363 . S
C313 C319 1.363 . S
C314 C315 1.363 . S
C314 C319 1.379 . S
C314 N321 1.356 . S
C315 C314 1.363 . S
C315 C318 1.363 . S
N316 C318 1.356 . S
N316 H328 0.984 . S
N316 H329 0.985 . S
N317 C319 1.356 . S
N317 H322 0.984 . S
N317 H323 0.985 . S
C318 C312 1.379 . S
C318 C315 1.363 . S
C318 N316 1.356 . S
C319 C313 1.363 . S
C319 C314 1.379 . S
C319 N317 1.356 . S
N320 C312 1.356 . S
N320 H326 0.984 . S
N320 H327 0.984 . S
N321 C314 1.356 . S
N321 H324 0.984 . S
N321 H325 0.985 . S
H322 N317 0.984 . S
H323 N317 0.985 . S
H324 N321 0.984 . S
H325 N321 0.985 . S
H326 N320 0.984 . S
H327 N320 0.984 . S
H328 N316 0.984 . S
H329 N316 0.985 . S
C330 C331 1.363 1_556 S
C330 C336 1.379 . S
C330 N338 1.356 . S
C331 C330 1.363 1_554 S
C331 C337 1.363 . S
C332 C333 1.363 1_554 S
C332 C337 1.379 . S
C332 N339 1.356 . S
C333 C332 1.363 1_556 S
C333 C336 1.363 . S
N334 C336 1.356 . S
N334 H346 0.984 . S
N334 H347 0.985 . S
N335 C337 1.356 . S
N335 H340 0.984 . S
N335 H341 0.985 . S
C336 C330 1.379 . S
C336 C333 1.363 . S
C336 N334 1.356 . S
C337 C331 1.363 . S
C337 C332 1.379 . S
C337 N335 1.356 . S
N338 C330 1.356 . S
N338 H344 0.984 . S
N338 H345 0.984 1_556 S
N339 C332 1.356 . S
N339 H342 0.984 1_554 S
N339 H343 0.985 . S
H340 N335 0.984 . S
H341 N335 0.985 . S
H342 N339 0.984 1_556 S
H343 N339 0.985 . S
H344 N338 0.984 . S
H345 N338 0.984 1_554 S
H346 N334 0.984 . S
H347 N334 0.985 . S
C348 C349 1.363 . S
C348 C354 1.379 . S
C348 N356 1.356 . S
C349 C348 1.363 . S
C349 C355 1.363 . S
C350 C351 1.363 . S
C350 C355 1.379 . S
C350 N357 1.356 . S
C351 C350 1.363 . S
C351 C354 1.363 . S
N352 C354 1.356 . S
N352 H364 0.984 . S
N352 H365 0.985 . S
N353 C355 1.356 . S
N353 H358 0.984 . S
N353 H359 0.985 . S
C354 C348 1.379 . S
C354 C351 1.363 . S
C354 N352 1.356 . S
C355 C349 1.363 . S
C355 C350 1.379 . S
C355 N353 1.356 . S
N356 C348 1.356 . S
N356 H362 0.984 . S
N356 H363 0.984 . S
N357 C350 1.356 . S
N357 H360 0.984 . S
N357 H361 0.985 . S
H358 N353 0.984 . S
H359 N353 0.985 . S
H360 N357 0.984 . S
H361 N357 0.985 . S
H362 N356 0.984 . S
H363 N356 0.984 . S
H364 N352 0.984 . S
H365 N352 0.985 . S
C366 C367 1.363 . S
C366 C372 1.379 . S
C366 N374 1.356 . S
C367 C366 1.363 . S
C367 C373 1.363 . S
C368 C369 1.363 . S
C368 C373 1.379 . S
C368 N375 1.356 . S
C369 C368 1.363 . S
C369 C372 1.363 . S
N370 C372 1.356 . S
N370 H382 0.984 . S
N370 H383 0.985 . S
N371 C373 1.356 . S
N371 H376 0.984 . S
N371 H377 0.985 . S
C372 C366 1.379 . S
C372 C369 1.363 . S
C372 N370 1.356 . S
C373 C367 1.363 . S
C373 C368 1.379 . S
C373 N371 1.356 . S
N374 C366 1.356 . S
N374 H380 0.984 . S
N374 H381 0.984 . S
N375 C368 1.356 . S
N375 H378 0.984 . S
N375 H379 0.985 . S
H376 N371 0.984 . S
H377 N371 0.985 . S
H378 N375 0.984 . S
H379 N375 0.985 . S
H380 N374 0.984 . S
H381 N374 0.984 . S
H382 N370 0.984 . S
H383 N370 0.985 . S
C384 C385 1.363 . S
C384 C390 1.379 . S
C384 N392 1.356 1_554 S
C385 C384 1.363 . S
C385 C391 1.363 . S
C386 C387 1.363 . S
C386 C391 1.379 . S
C386 N393 1.356 . S
C387 C386 1.363 . S
C387 C390 1.363 . S
N388 C390 1.356 1_556 S
N388 H400 0.984 . S
N388 H401 0.985 . S
N389 C391 1.356 . S
N389 H394 0.984 . S
N389 H395 0.985 . S
C390 C384 1.379 . S
C390 C387 1.363 . S
C390 N388 1.356 1_554 S
C391 C385 1.363 . S
C391 C386 1.379 . S
C391 N389 1.356 . S
N392 C384 1.356 1_556 S
N392 H398 0.984 . S
N392 H399 0.984 . S
N393 C386 1.356 . S
N393 H396 0.984 . S
N393 H397 0.985 . S
H394 N389 0.984 . S
H395 N389 0.985 . S
H396 N393 0.984 . S
H397 N393 0.985 . S
H398 N392 0.984 . S
H399 N392 0.984 . S
H400 N388 0.984 . S
H401 N388 0.985 . S
C402 C403 1.363 . S
C402 C408 1.379 . S
C402 N410 1.356 . S
C403 C402 1.363 . S
C403 C409 1.363 1_655 S
C404 C405 1.363 . S
C404 C409 1.379 . S
C404 N411 1.356 . S
C405 C404 1.363 . S
C405 C408 1.363 1_455 S
N406 C408 1.356 . S
N406 H418 0.984 . S
N406 H419 0.985 . S
N407 C409 1.356 . S
N407 H412 0.984 . S
N407 H413 0.985 . S
C408 C402 1.379 . S
C408 C405 1.363 1_655 S
C408 N406 1.356 . S
C409 C403 1.363 1_455 S
C409 C404 1.379 . S
C409 N407 1.356 . S
N410 C402 1.356 . S
N410 H416 0.984 . S
N410 H417 0.984 . S
N411 C404 1.356 . S
N411 H414 0.984 . S
N411 H415 0.985 . S
H412 N407 0.984 . S
H413 N407 0.985 . S
H414 N411 0.984 . S
H415 N411 0.985 . S
H416 N410 0.984 . S
H417 N410 0.984 . S
H418 N406 0.984 . S
H419 N406 0.985 . S
C420 C421 1.363 . S
C420 C426 1.379 1_545 S
C420 N428 1.356 . S
C421 C420 1.363 . S
C421 C427 1.363 . S
C422 C423 1.363 . S
C422 C427 1.379 1_565 S
C422 N429 1.356 . S
C423 C422 1.363 . S
C423 C426 1.363 . S
N424 C426 1.356 . S
N424 H436 0.984 . S
N424 H437 0.985 . S
N425 C427 1.356 . S
N425 H430 0.984 . S
N425 H431 0.985 . S
C426 C420 1.379 1_565 S
C426 C423 1.363 . S
C426 N424 1.356 . S
C427 C421 1.363 . S
C427 C422 1.379 1_545 S
C427 N425 1.356 . S
N428 C420 1.356 . S
N428 H434 0.984 . S
N428 H435 0.984 . S
N429 C422 1.356 . S
N429 H432 0.984 . S
N429 H433 0.985 . S
H430 N425 0.984 . S
H431 N425 0.985 . S
H432 N429 0.984 . S
H433 N429 0.985 . S
H434 N428 0.984 . S
H435 N428 0.984 . S
H436 N424 0.984 . S
H437 N424 0.985 . S
C438 C439 1.363 . S
C438 C444 1.379 . S
C438 N446 1.356 . S
C439 C438 1.363 . S
C439 C445 1.363 . S
C440 C441 1.363 . S
C440 C445 1.379 . S
C440 N447 1.356 . S
C441 C440 1.363 . S
C441 C444 1.363 . S
N442 C444 1.356 . S
N442 H454 0.984 . S
N442 H455 0.985 . S
N443 C445 1.356 . S
N443 H448 0.984 . S
N443 H449 0.985 . S
C444 C438 1.379 . S
C444 C441 1.363 . S
C444 N442 1.356 . S
C445 C439 1.363 . S
C445 C440 1.379 . S
C445 N443 1.356 . S
N446 C438 1.356 . S
N446 H452 0.984 . S
N446 H453 0.984 . S
N447 C440 1.356 . S
N447 H450 0.984 . S
N447 H451 0.985 . S
H448 N443 0.984 . S
H449 N443 0.985 . S
H450 N447 0.984 . S
H451 N447 0.985 . S
H452 N446 0.984 . S
H453 N446 0.984 . S
H454 N442 0.984 . S
H455 N442 0.985 . S
C456 C457 1.363 . S
C456 C462 1.379 1_455 S
C456 N464 1.356 . S
C457 C456 1.363 . S
C457 C463 1.363 . S
C458 C459 1.363 . S
C458 C463 1.379 1_655 S
C458 N465 1.356 1_556 S
C459 C458 1.363 . S
C459 C462 1.363 . S
N460 C462 1.356 . S
N460 H472 0.984 . S
N460 H473 0.985 . S
N461 C463 1.356 1_554 S
N461 H466 0.984 . S
N461 H467 0.985 . S
C462 C456 1.379 1_655 S
C462 C459 1.363 . S
C462 N460 1.356 . S
C463 C457 1.363 . S
C463 C458 1.379 1_455 S
C463 N461 1.356 1_556 S
N464 C456 1.356 . S
N464 H470 0.984 . S
N464 H471 0.984 . S
N465 C458 1.356 1_554 S
N465 H468 0.984 . S
N465 H469 0.985 . S
H466 N461 0.984 . S
H467 N461 0.985 . S
H468 N465 0.984 . S
H469 N465 0.985 . S
H470 N464 0.984 . S
H471 N464 0.984 . S
H472 N460 0.984 . S
H473 N460 0.985 . S
C474 C475 1.363 . S
C474 C480 1.379 1_565 S
C474 N482 1.356 . S
C475 C474 1.363 . S
C475 C481 1.363 . S
C476 C477 1.363 . S
C476 C481 1.379 1_545 S
C476 N483 1.356 . S
C477 C476 1.363 . S
C477 C480 1.363 . S
N478 C480 1.356 . S
N478 H490 0.984 . S
N478 H491 0.985 . S
N479 C481 1.356 . S
N479 H484 0.984 . S
N479 H485 0.985 . S
C480 C474 1.379 1_545 S
C480 C477 1.363 . S
C480 N478 1.356 . S
C481 C475 1.363 . S
C481 C476 1.379 1_565 S
C481 N479 1.356 . S
N482 C474 1.356 . S
N482 H488 0.984 . S
N482 H489 0.984 . S
N483 C476 1.356 . S
N483 H486 0.984 . S
N483 H487 0.985 . S
H484 N479 0.984 . S
H485 N479 0.985 . S
H486 N483 0.984 . S
H487 N483 0.985 . S
H488 N482 0.984 . S
H489 N482 0.984 . S
H490 N478 0.984 . S
H491 N478 0.985 . S
C492 C493 1.363 . S
C492 C498 1.379 . S
C492 N500 1.356 . S
C493 C492 1.363 . S
C493 C499 1.363 . S
C494 C495 1.363 . S
C494 C499 1.379 . S
C494 N501 1.356 . S
C495 C494 1.363 . S
C495 C498 1.363 . S
N496 C498 1.356 . S
N496 H508 0.984 . S
N496 H509 0.985 . S
N497 C499 1.356 . S
N497 H502 0.984 . S
N497 H503 0.985 . S
C498 C492 1.379 . S
C498 C495 1.363 . S
C498 N496 1.356 . S
C499 C493 1.363 . S
C499 C494 1.379 . S
C499 N497 1.356 . S
N500 C492 1.356 . S
N500 H506 0.984 . S
N500 H507 0.984 . S
N501 C494 1.356 . S
N501 H504 0.984 . S
N501 H505 0.985 . S
H502 N497 0.984 . S
H503 N497 0.985 . S
H504 N501 0.984 . S
H505 N501 0.985 . S
H506 N500 0.984 . S
H507 N500 0.984 . S
H508 N496 0.984 . S
H509 N496 0.985 . S
C510 C511 1.363 . S
C510 C516 1.379 . S
C510 N518 1.356 . S
C511 C510 1.363 . S
C511 C517 1.363 . S
C512 C513 1.363 . S
C512 C517 1.379 . S
C512 N519 1.356 . S
C513 C512 1.363 . S
C513 C516 1.363 . S
N514 C516 1.356 . S
N514 H526 0.984 . S
N514 H527 0.985 . S
N515 C517 1.356 . S
N515 H520 0.984 . S
N515 H521 0.985 . S
C516 C510 1.379 . S
C516 C513 1.363 . S
C516 N514 1.356 . S
C517 C511 1.363 . S
C517 C512 1.379 . S
C517 N515 1.356 . S
N518 C510 1.356 . S
N518 H524 0.984 . S
N518 H525 0.984 . S
N519 C512 1.356 . S
N519 H522 0.984 . S
N519 H523 0.985 . S
H520 N515 0.984 . S
H521 N515 0.985 . S
H522 N519 0.984 . S
H523 N519 0.985 . S
H524 N518 0.984 . S
H525 N518 0.984 . S
H526 N514 0.984 . S
H527 N514 0.985 . S
C528 C529 1.363 . S
C528 C534 1.379 . S
C528 N536 1.356 . S
C529 C528 1.363 . S
C529 C535 1.363 . S
C530 C531 1.363 . S
C530 C535 1.379 . S
C530 N537 1.356 . S
C531 C530 1.363 . S
C531 C534 1.363 . S
N532 C534 1.356 . S
N532 H544 0.984 . S
N532 H545 0.985 . S
N533 C535 1.356 . S
N533 H538 0.984 . S
N533 H539 0.985 . S
C534 C528 1.379 . S
C534 C531 1.363 . S
C534 N532 1.356 . S
C535 C529 1.363 . S
C535 C530 1.379 . S
C535 N533 1.356 . S
N536 C528 1.356 . S
N536 H542 0.984 . S
N536 H543 0.984 . S
N537 C530 1.356 . S
N537 H540 0.984 . S
N537 H541 0.985 . S
H538 N533 0.984 . S
H539 N533 0.985 . S
H540 N537 0.984 . S
H541 N537 0.985 . S
H542 N536 0.984 . S
H543 N536 0.984 . S
H544 N532 0.984 . S
H545 N532 0.985 . S
C546 C547 1.363 . S
C546 C552 1.379 . S
C546 N554 1.356 . S
C547 C546 1.363 . S
C547 C553 1.363 . S
C548 C549 1.363 . S
C548 C553 1.379 . S
C548 N555 1.356 . S
C549 C548 1.363 . S
C549 C552 1.363 . S
N550 C552 1.356 . S
N550 H562 0.984 . S
N550 H563 0.985 . S
N551 C553 1.356 . S
N551 H556 0.984 . S
N551 H557 0.985 . S
C552 C546 1.379 . S
C552 C549 1.363 . S
C552 N550 1.356 . S
C553 C547 1.363 . S
C553 C548 1.379 . S
C553 N551 1.356 . S
N554 C546 1.356 . S
N554 H560 0.984 . S
N554 H561 0.984 . S
N555 C548 1.356 . S
N555 H558 0.984 . S
N555 H559 0.985 . S
H556 N551 0.984 . S
H557 N551 0.985 . S
H558 N555 0.984 . S
H559 N555 0.985 . S
H560 N554 0.984 . S
H561 N554 0.984 . S
H562 N550 0.984 . S
H563 N550 0.985 . S
C564 C565 1.363 . S
C564 C570 1.379 . S
C564 N572 1.356 . S
C565 C564 1.363 . S
C565 C571 1.363 . S
C566 C567 1.363 . S
C566 C571 1.379 . S
C566 N573 1.356 . S
C567 C566 1.363 . S
C567 C570 1.363 . S
N568 C570 1.356 . S
N568 H580 0.984 . S
N568 H581 0.985 . S
N569 C571 1.356 . S
N569 H574 0.984 . S
N569 H575 0.985 . S
C570 C564 1.379 . S
C570 C567 1.363 . S
C570 N568 1.356 . S
C571 C565 1.363 . S
C571 C566 1.379 . S
C571 N569 1.356 . S
N572 C564 1.356 . S
N572 H578 0.984 . S
N572 H579 0.984 . S
N573 C566 1.356 . S
N573 H576 0.984 . S
N573 H577 0.985 . S
H574 N569 0.984 . S
H575 N569 0.985 . S
H576 N573 0.984 . S
H577 N573 0.985 . S
H578 N572 0.984 . S
H579 N572 0.984 . S
H580 N568 0.984 . S
H581 N568 0.985 . S
C582 C583 1.363 . S
C582 C588 1.379 . S
C582 N590 1.356 . S
C583 C582 1.363 . S
C583 C589 1.363 . S
C584 C585 1.363 . S
C584 C589 1.379 . S
C584 N591 1.356 . S
C585 C584 1.363 . S
C585 C588 1.363 . S
N586 C588 1.356 . S
N586 H598 0.984 . S
N586 H599 0.985 . S
N587 C589 1.356 . S
N587 H592 0.984 . S
N587 H593 0.985 . S
C588 C582 1.379 . S
C588 C585 1.363 . S
C588 N586 1.356 . S
C589 C583 1.363 . S
C589 C584 1.379 . S
C589 N587 1.356 . S
N590 C582 1.356 . S
N590 H596 0.984 . S
N590 H597 0.984 . S
N591 C584 1.356 . S
N591 H594 0.984 . S
N591 H595 0.985 . S
H592 N587 0.984 . S
H593 N587 0.985 . S
H594 N591 0.984 . S
H595 N591 0.985 . S
H596 N590 0.984 . S
H597 N590 0.984 . S
H598 N586 0.984 . S
H599 N586 0.985 . S
C169 C3 1.529 . S
C171 C87 1.539 . S
C187 C17 1.539 . S
C189 C101 1.528 . S
C205 C31 1.501 . S
C207 C115 1.501 . S
C223 C45 1.529 . S
C225 C129 1.539 . S
C241 C59 1.539 . S
C243 C143 1.528 . S
C259 C157 1.501 . S
C261 C73 1.501 . S
C277 C8 1.568 . S
C279 C148 1.568 . S
C295 C22 1.602 . S
C297 C162 1.724 . S
C313 C36 1.724 . S
C315 C92 1.602 . S
C331 C50 1.568 . S
C333 C106 1.568 . S
C349 C64 1.602 . S
C351 C120 1.724 . S
C367 C78 1.724 . S
C369 C134 1.602 . S
C385 C9 1.281 . S
C387 C51 1.281 . S
C403 C23 2.002 . S
C405 C65 2.002 . S
C421 C79 1.416 . S
C423 C37 1.416 . S
C439 C93 2.002 . S
C441 C135 2.002 . S
C457 C149 1.281 . S
C459 C107 1.281 . S
C475 C121 1.416 . S
C477 C163 1.416 . S
C493 C91 1.070 . S
C495 C7 1.049 . S
C511 C21 1.070 . S
C513 C105 1.049 . S
C529 C35 1.095 . S
C531 C119 1.095 . S
C547 C133 1.070 . S
C549 C49 1.049 . S
C565 C147 1.049 . S
C567 C63 1.070 . S
C583 C77 1.095 . S
C585 C161 1.095 . S
