# Generated by pormake.
# Topology una, (4)-cn, num edge types: 1
# Building blocks:
#     Node 0, Type 0, BuildingBlock: QUQFOY_clean_sbu_1, # of connection points: 4
#     Node 1, Type 0, BuildingBlock: QUQFOY_clean_sbu_1, # of connection points: 4
#     Node 2, Type 0, BuildingBlock: QUQFOY_clean_sbu_1, # of connection points: 4
#     Node 3, Type 0, BuildingBlock: QUQFOY_clean_sbu_1, # of connection points: 4
#     Node 4, Type 0, BuildingBlock: QUQFOY_clean_sbu_1, # of connection points: 4
#     Node 5, Type 0, BuildingBlock: QUQFOY_clean_sbu_1, # of connection points: 4
#     Node 6, Type 0, BuildingBlock: QUQFOY_clean_sbu_1, # of connection points: 4
#     Node 7, Type 0, BuildingBlock: QUQFOY_clean_sbu_1, # of connection points: 4
#     Node 8, Type 0, BuildingBlock: QUQFOY_clean_sbu_1, # of connection points: 4
#     Node 9, Type 0, BuildingBlock: QUQFOY_clean_sbu_1, # of connection points: 4
#     Node 10, Type 0, BuildingBlock: QUQFOY_clean_sbu_1, # of connection points: 4
#     Node 11, Type 0, BuildingBlock: QUQFOY_clean_sbu_1, # of connection points: 4
#     Edge 12, Type (0, 0), BuildingBlock: ZUJKAS_clean_linker_0, # of connection points: 2
#     Edge 13, Type (0, 0), BuildingBlock: ZUJKAS_clean_linker_0, # of connection points: 2
#     Edge 14, Type (0, 0), BuildingBlock: ZUJKAS_clean_linker_0, # of connection points: 2
#     Edge 15, Type (0, 0), BuildingBlock: ZUJKAS_clean_linker_0, # of connection points: 2
#     Edge 16, Type (0, 0), BuildingBlock: ZUJKAS_clean_linker_0, # of connection points: 2
#     Edge 17, Type (0, 0), BuildingBlock: ZUJKAS_clean_linker_0, # of connection points: 2
#     Edge 18, Type (0, 0), BuildingBlock: ZUJKAS_clean_linker_0, # of connection points: 2
#     Edge 19, Type (0, 0), BuildingBlock: ZUJKAS_clean_linker_0, # of connection points: 2
#     Edge 20, Type (0, 0), BuildingBlock: ZUJKAS_clean_linker_0, # of connection points: 2
#     Edge 21, Type (0, 0), BuildingBlock: ZUJKAS_clean_linker_0, # of connection points: 2
#     Edge 22, Type (0, 0), BuildingBlock: ZUJKAS_clean_linker_0, # of connection points: 2
#     Edge 23, Type (0, 0), BuildingBlock: ZUJKAS_clean_linker_0, # of connection points: 2
#     Edge 24, Type (0, 0), BuildingBlock: ZUJKAS_clean_linker_0, # of connection points: 2
#     Edge 25, Type (0, 0), BuildingBlock: ZUJKAS_clean_linker_0, # of connection points: 2
#     Edge 26, Type (0, 0), BuildingBlock: ZUJKAS_clean_linker_0, # of connection points: 2
#     Edge 27, Type (0, 0), BuildingBlock: ZUJKAS_clean_linker_0, # of connection points: 2
#     Edge 28, Type (0, 0), BuildingBlock: ZUJKAS_clean_linker_0, # of connection points: 2
#     Edge 29, Type (0, 0), BuildingBlock: ZUJKAS_clean_linker_0, # of connection points: 2
#     Edge 30, Type (0, 0), BuildingBlock: ZUJKAS_clean_linker_0, # of connection points: 2
#     Edge 31, Type (0, 0), BuildingBlock: ZUJKAS_clean_linker_0, # of connection points: 2
#     Edge 32, Type (0, 0), BuildingBlock: ZUJKAS_clean_linker_0, # of connection points: 2
#     Edge 33, Type (0, 0), BuildingBlock: ZUJKAS_clean_linker_0, # of connection points: 2
#     Edge 34, Type (0, 0), BuildingBlock: ZUJKAS_clean_linker_0, # of connection points: 2
#     Edge 35, Type (0, 0), BuildingBlock: ZUJKAS_clean_linker_0, # of connection points: 2
# Relax obj value: 0.085
# Max RMSD: 0.102
# Mean RMSD: 0.102
data_MOF--net-una--node1-QUQFOY_clean_sbu_1--edge1-ZUJKAS_clean_linker_0
_symmetry_space_group_name_H-M    P1
_symmetry_Int_Tables_number       1
_symmetry_cell_setting            triclinic
loop_
_symmetry_equiv_pos_as_xyz
'x, y, z'
_cell_length_a     77.18602
_cell_length_b     77.248841
_cell_length_c     28.568794
_cell_angle_alpha  89.937674
_cell_angle_beta   90.022849
_cell_angle_gamma 120.05771
loop_
_atom_site_label
_atom_site_type_symbol
_atom_site_fract_x
_atom_site_fract_y
_atom_site_fract_z
_atom_type_partial_charge
O0 O 0.13459 0.46854 0.12018 0.0
Cd1 Cd 0.13315 0.44159 0.10576 0.0
Cd2 Cd 0.16721 0.46476 0.05751 0.0
O3 O 0.15855 0.48579 0.06902 0.0
O4 O 0.10446 0.42012 0.10042 0.0
O5 O 0.1253 0.43146 0.04013 0.0
C6 C 0.10739 0.41994 0.05592 0.0
C7 C 0.18336 0.46572 0.98756 0.0
C8 C 0.14563 0.48475 0.09823 0.0
C9 C 0.16914 0.44225 0.14334 0.0
O10 O 0.1781 0.4556 0.11227 0.0
O11 O 0.15016 0.43332 0.14657 0.0
O12 O 0.19176 0.4795 0.01871 0.0
O13 O 0.16513 0.45174 0.99488 0.0
O14 O 0.68237 0.12582 0.28766 0.0
Cd15 Cd 0.70786 0.12438 0.27243 0.0
Cd16 Cd 0.719 0.15935 0.22646 0.0
O17 O 0.68939 0.15072 0.23914 0.0
O18 O 0.70039 0.09575 0.26495 0.0
O19 O 0.71045 0.11739 0.20618 0.0
C20 C 0.70384 0.09927 0.22069 0.0
C21 C 0.73424 0.17792 0.15897 0.0
C22 C 0.67737 0.13732 0.26732 0.0
C23 C 0.74341 0.15959 0.31139 0.0
O24 O 0.73915 0.16889 0.281 0.0
O25 O 0.73312 0.14062 0.31389 0.0
O26 O 0.72922 0.18528 0.19325 0.0
O27 O 0.72955 0.15939 0.16162 0.0
O28 O 0.5731 0.67399 0.45116 0.0
Cd29 Cd 0.59994 0.69981 0.43709 0.0
Cd30 Cd 0.57622 0.71094 0.39137 0.0
O31 O 0.55488 0.68159 0.4053 0.0
O32 O 0.62147 0.69275 0.43141 0.0
O33 O 0.61027 0.70254 0.37145 0.0
C34 C 0.62178 0.69613 0.38701 0.0
C35 C 0.5744 0.72554 0.32123 0.0
C36 C 0.5564 0.6693 0.43225 0.0
C37 C 0.59985 0.73537 0.47599 0.0
O38 O 0.58654 0.73138 0.44509 0.0
O39 O 0.60829 0.72486 0.479 0.0
O40 O 0.56123 0.72077 0.3537 0.0
O41 O 0.58828 0.72107 0.32746 0.0
O42 O 0.91523 0.56309 0.61644 0.0
Cd43 Cd 0.91638 0.59005 0.60383 0.0
Cd44 Cd 0.88134 0.56671 0.55843 0.0
O45 O 0.88938 0.54528 0.57031 0.0
O46 O 0.94506 0.6115 0.59772 0.0
O47 O 0.92373 0.60067 0.53836 0.0
C48 C 0.94178 0.61202 0.55351 0.0
C49 C 0.8648 0.56556 0.48894 0.0
C50 C 0.9032 0.54656 0.59687 0.0
C51 C 0.88086 0.58971 0.64458 0.0
O52 O 0.87139 0.57656 0.61349 0.0
O53 O 0.89985 0.5982 0.64692 0.0
O54 O 0.8564 0.55213 0.5209 0.0
O55 O 0.88319 0.57934 0.49529 0.0
O56 O 0.36773 0.90671 0.78362 0.0
Cd57 Cd 0.34162 0.90727 0.76954 0.0
Cd58 Cd 0.33077 0.87209 0.72769 0.0
O59 O 0.36047 0.8809 0.73818 0.0
O60 O 0.34864 0.93586 0.76302 0.0
O61 O 0.33869 0.91457 0.70374 0.0
C62 C 0.34516 0.93257 0.71873 0.0
C63 C 0.315 0.85576 0.65838 0.0
C64 C 0.37273 0.89496 0.76458 0.0
C65 C 0.3073 0.87166 0.81316 0.0
O66 O 0.31179 0.86204 0.78427 0.0
O67 O 0.31665 0.89071 0.81218 0.0
O68 O 0.32043 0.84735 0.68947 0.0
O69 O 0.31935 0.874 0.66559 0.0
O70 O 0.47771 0.35925 0.95132 0.0
Cd71 Cd 0.45093 0.3333 0.93706 0.0
Cd72 Cd 0.47484 0.32275 0.89286 0.0
O73 O 0.49527 0.3528 0.90068 0.0
O74 O 0.42924 0.34018 0.93088 0.0
O75 O 0.44077 0.33058 0.8713 0.0
C76 C 0.4291 0.33685 0.88652 0.0
C77 C 0.47486 0.30646 0.82397 0.0
C78 C 0.49395 0.36471 0.92917 0.0
C79 C 0.45291 0.29938 0.9796 0.0
O80 O 0.46708 0.30428 0.95052 0.0
O81 O 0.44273 0.30822 0.97877 0.0
O82 O 0.4892 0.31258 0.85392 0.0
O83 O 0.46074 0.31041 0.83204 0.0
O84 O 0.57285 0.90727 0.83823 0.0
Cd85 Cd 0.59954 0.90793 0.85192 0.0
Cd86 Cd 0.57551 0.87297 0.89639 0.0
O87 O 0.55444 0.88143 0.88394 0.0
O88 O 0.62123 0.9365 0.85732 0.0
O89 O 0.61007 0.91555 0.9174 0.0
C90 C 0.62161 0.93346 0.90171 0.0
C91 C 0.57406 0.85646 0.96611 0.0
C92 C 0.55612 0.89539 0.8573 0.0
C93 C 0.59872 0.87219 0.81114 0.0
O94 O 0.58519 0.86278 0.84153 0.0
O95 O 0.60766 0.89121 0.80944 0.0
O96 O 0.56059 0.84816 0.93419 0.0
O97 O 0.58804 0.87475 0.95957 0.0
O98 O 0.6823 0.56438 1.0028 0.0
Cd99 Cd 0.70801 0.59121 0.01739 0.0
Cd100 Cd 0.71855 0.56775 0.06537 0.0
O101 O 0.68874 0.54696 0.054 0.0
O102 O 0.70104 0.61279 0.02399 0.0
O103 O 0.71062 0.60106 0.08333 0.0
C104 C 0.70432 0.61273 0.06836 0.0
C105 C 0.73362 0.56645 0.13527 0.0
C106 C 0.67694 0.54814 0.02476 0.0
C107 C 0.74307 0.59014 0.97945 0.0
O108 O 0.73849 0.5767 0.01038 0.0
O109 O 0.73327 0.59933 0.97654 0.0
O110 O 0.72808 0.55272 0.10395 0.0
O111 O 0.72967 0.58062 0.12808 0.0
O112 O 0.13543 0.67354 0.1716 0.0
Cd113 Cd 0.13444 0.69932 0.18671 0.0
Cd114 Cd 0.16908 0.71 0.23012 0.0
O115 O 0.15954 0.68001 0.22202 0.0
O116 O 0.10576 0.69216 0.19197 0.0
O117 O 0.12647 0.70147 0.25241 0.0
C118 C 0.10861 0.69518 0.2365 0.0
C119 C 0.18546 0.7262 0.29902 0.0
C120 C 0.14628 0.66812 0.19348 0.0
C121 C 0.1702 0.73355 0.14423 0.0
O122 O 0.17963 0.72857 0.17262 0.0
O123 O 0.15117 0.72466 0.14558 0.0
O124 O 0.19369 0.72021 0.26884 0.0
O125 O 0.16734 0.72218 0.29114 0.0
O126 O 0.47801 0.12658 0.33958 0.0
Cd127 Cd 0.45116 0.12564 0.35361 0.0
Cd128 Cd 0.47494 0.1601 0.39785 0.0
O129 O 0.49539 0.1505 0.39056 0.0
O130 O 0.42953 0.09699 0.35849 0.0
O131 O 0.44059 0.11765 0.419 0.0
C132 C 0.42909 0.09981 0.40295 0.0
C133 C 0.47484 0.17642 0.46658 0.0
C134 C 0.49416 0.13732 0.36202 0.0
C135 C 0.45317 0.16152 0.31092 0.0
O136 O 0.46733 0.17081 0.33997 0.0
O137 O 0.44297 0.1425 0.31186 0.0
O138 O 0.48924 0.18464 0.43676 0.0
O139 O 0.46071 0.15835 0.45847 0.0
O140 O 0.36828 0.46942 0.50713 0.0
Cd141 Cd 0.34235 0.44253 0.52021 0.0
Cd142 Cd 0.331 0.46612 0.56471 0.0
O143 O 0.36056 0.48747 0.55311 0.0
O144 O 0.34951 0.42104 0.52521 0.0
O145 O 0.33941 0.43174 0.5855 0.0
C146 C 0.34598 0.42042 0.56958 0.0
C147 C 0.31535 0.46676 0.63414 0.0
C148 C 0.37297 0.48603 0.52648 0.0
C149 C 0.30745 0.44324 0.47874 0.0
O150 O 0.31141 0.45666 0.50926 0.0
O151 O 0.31758 0.43437 0.47726 0.0
O152 O 0.3206 0.48047 0.60279 0.0
O153 O 0.31997 0.45304 0.62728 0.0
O154 O 0.91556 0.35889 0.66866 0.0
Cd155 Cd 0.91702 0.33336 0.68281 0.0
Cd156 Cd 0.88111 0.32122 0.72658 0.0
O157 O 0.88851 0.35027 0.71093 0.0
O158 O 0.94573 0.341 0.69052 0.0
O159 O 0.92391 0.33034 0.74893 0.0
C160 C 0.9421 0.3372 0.73464 0.0
C161 C 0.86293 0.30668 0.79491 0.0
C162 C 0.90279 0.36298 0.68557 0.0
C163 C 0.88245 0.29711 0.64304 0.0
O164 O 0.87262 0.30042 0.67386 0.0
O165 O 0.90132 0.30847 0.63987 0.0
O166 O 0.85505 0.31046 0.75952 0.0
O167 O 0.88169 0.31212 0.79266 0.0
H168 H 0.20779 0.45154 0.13148 0.0
H169 H 0.22924 0.44685 0.1863 0.0
H170 H 0.18023 0.41848 0.28406 0.0
H171 H 0.15835 0.42274 0.22845 0.0
H172 H 0.23954 0.46375 0.27077 0.0
H173 H 0.20338 0.38137 0.28959 0.0
H174 H 0.19719 0.39308 0.24281 0.0
H175 H 0.1869 0.39106 0.30034 0.0
C176 C 0.20143 0.44407 0.16439 0.0
C177 C 0.18135 0.43763 0.17569 0.0
C178 C 0.21374 0.44136 0.1957 0.0
C179 C 0.20637 0.4322 0.23923 0.0
C180 C 0.18617 0.42524 0.25031 0.0
H181 H 0.27931 0.45453 0.48393 0.0
H182 H 0.25433 0.45 0.42582 0.0
C183 C 0.17371 0.42779 0.21863 0.0
C184 C 0.22046 0.43175 0.27414 0.0
H185 H 0.22956 0.40108 0.34366 0.0
C186 C 0.23737 0.45 0.28644 0.0
C187 C 0.21778 0.41381 0.2943 0.0
C188 C 0.20044 0.39369 0.28083 0.0
C189 C 0.25147 0.45088 0.3187 0.0
C190 C 0.24844 0.43307 0.34017 0.0
C191 C 0.23177 0.41472 0.32736 0.0
C192 C 0.26217 0.43359 0.37725 0.0
C193 C 0.2696 0.47093 0.32939 0.0
C194 C 0.27441 0.42515 0.37006 0.0
C195 C 0.28881 0.42765 0.40357 0.0
C196 C 0.29115 0.43864 0.44468 0.0
C197 C 0.27818 0.44623 0.45243 0.0
C198 C 0.26384 0.44366 0.41923 0.0
H199 H 0.27242 0.48208 0.3015 0.0
H200 H 0.2671 0.47673 0.3627 0.0
H201 H 0.28319 0.46959 0.33347 0.0
H202 H 0.27328 0.41724 0.33789 0.0
H203 H 0.29849 0.42155 0.39662 0.0
H204 H 0.89366 0.29105 0.5556 0.0
H205 H 0.87233 0.26519 0.49859 0.0
H206 H 0.82469 0.23912 0.60019 0.0
H207 H 0.84557 0.26479 0.65664 0.0
H208 H 0.84879 0.22065 0.50124 0.0
H209 H 0.80204 0.25656 0.48905 0.0
H210 H 0.82671 0.26894 0.5148 0.0
H211 H 0.80567 0.25041 0.54753 0.0
C212 C 0.87876 0.2796 0.56594 0.0
C213 C 0.8712 0.28017 0.61035 0.0
C214 C 0.86661 0.26485 0.5334 0.0
C215 C 0.84683 0.25046 0.545 0.0
C216 C 0.83979 0.25027 0.59029 0.0
H217 H 0.75403 0.14722 0.39181 0.0
H218 H 0.78043 0.16835 0.44784 0.0
C219 C 0.85177 0.265 0.6225 0.0
C220 C 0.83282 0.23668 0.5091 0.0
H221 H 0.7897 0.22535 0.45131 0.0
C222 C 0.8359 0.22167 0.49009 0.0
C223 C 0.81611 0.23817 0.49441 0.0
C224 C 0.81246 0.25448 0.51212 0.0
C225 C 0.82247 0.20791 0.45718 0.0
C226 C 0.8055 0.20915 0.44343 0.0
C227 C 0.80262 0.2243 0.46217 0.0
C228 C 0.79094 0.19565 0.40791 0.0
C229 C 0.82667 0.19239 0.43676 0.0
C230 C 0.78808 0.20394 0.36701 0.0
C231 C 0.77301 0.19203 0.33542 0.0
C232 C 0.76031 0.17147 0.34389 0.0
C233 C 0.76356 0.16298 0.38419 0.0
C234 C 0.77871 0.17501 0.41609 0.0
H235 H 0.84231 0.19601 0.44345 0.0
H236 H 0.81643 0.17765 0.45289 0.0
H237 H 0.82395 0.19102 0.39841 0.0
H238 H 0.7973 0.2198 0.35997 0.0
H239 H 0.77112 0.19911 0.30462 0.0
H240 H 0.59205 0.76567 0.4639 0.0
H241 H 0.59689 0.7916 0.51935 0.0
H242 H 0.62319 0.76912 0.61802 0.0
H243 H 0.61874 0.74313 0.56181 0.0
H244 H 0.57889 0.7841 0.6034 0.0
H245 H 0.66126 0.82948 0.62617 0.0
H246 H 0.64978 0.81219 0.57821 0.0
H247 H 0.65099 0.80311 0.63536 0.0
C248 C 0.59912 0.76633 0.49714 0.0
C249 C 0.60488 0.7522 0.50855 0.0
C250 C 0.60192 0.78124 0.5288 0.0
C251 C 0.6105 0.78243 0.5728 0.0
C252 C 0.61688 0.76875 0.58395 0.0
H253 H 0.58714 0.8327 0.81669 0.0
H254 H 0.59187 0.81221 0.7592 0.0
C255 C 0.61422 0.75383 0.55191 0.0
C256 C 0.61084 0.79676 0.60804 0.0
H257 H 0.64129 0.83613 0.67878 0.0
C258 C 0.59257 0.79552 0.61966 0.0
C259 C 0.6287 0.8118 0.62896 0.0
C260 C 0.64884 0.81442 0.61632 0.0
C261 C 0.59161 0.80867 0.65191 0.0
C262 C 0.60935 0.82329 0.67401 0.0
C263 C 0.62771 0.82483 0.66196 0.0
C264 C 0.60872 0.8365 0.71083 0.0
C265 C 0.57156 0.80688 0.66185 0.0
C266 C 0.6173 0.85719 0.70354 0.0
C267 C 0.61468 0.86911 0.73667 0.0
C268 C 0.60341 0.86045 0.77751 0.0
C269 C 0.59565 0.83987 0.78539 0.0
C270 C 0.59835 0.82808 0.75255 0.0
H271 H 0.56054 0.79862 0.63371 0.0
H272 H 0.56552 0.79857 0.69511 0.0
H273 H 0.57303 0.82186 0.6657 0.0
H274 H 0.62543 0.86398 0.67155 0.0
H275 H 0.62091 0.88491 0.72964 0.0
H276 H 0.89287 0.60922 0.72953 0.0
H277 H 0.87167 0.61332 0.78769 0.0
H278 H 0.82146 0.58525 0.69327 0.0
H279 H 0.84221 0.58087 0.63575 0.0
H280 H 0.84633 0.63161 0.78416 0.0
H281 H 0.80301 0.54944 0.81121 0.0
H282 H 0.82689 0.56171 0.78166 0.0
H283 H 0.80454 0.55696 0.75117 0.0
C284 C 0.87737 0.60413 0.72105 0.0
C285 C 0.86917 0.59443 0.6783 0.0
C286 C 0.86529 0.6065 0.75424 0.0
C287 C 0.84491 0.59926 0.74505 0.0
C288 C 0.83705 0.5906 0.70143 0.0
H289 H 0.75322 0.61159 0.89682 0.0
H290 H 0.77925 0.61583 0.84089 0.0
C291 C 0.84898 0.58812 0.66857 0.0
C292 C 0.83136 0.59946 0.78166 0.0
H293 H 0.78977 0.56831 0.8452 0.0
C294 C 0.83402 0.61781 0.7978 0.0
C295 C 0.81542 0.58143 0.79969 0.0
C296 C 0.81234 0.56126 0.78544 0.0
C297 C 0.82088 0.61855 0.83091 0.0
C298 C 0.80456 0.60047 0.84774 0.0
C299 C 0.80216 0.58218 0.83203 0.0
C300 C 0.79008 0.59987 0.88295 0.0
C301 C 0.82473 0.63861 0.84812 0.0
C302 C 0.78744 0.58946 0.92501 0.0
C303 C 0.77251 0.58682 0.95652 0.0
C304 C 0.75978 0.59453 0.94687 0.0
C305 C 0.7628 0.60552 0.90537 0.0
C306 C 0.77776 0.60806 0.87352 0.0
H307 H 0.84033 0.65062 0.84084 0.0
H308 H 0.81444 0.64253 0.82996 0.0
H309 H 0.82191 0.6382 0.88633 0.0
H310 H 0.79673 0.583 0.93309 0.0
H311 H 0.77077 0.57841 0.98827 0.0
H312 H 0.2872 0.83138 0.82684 0.0
H313 H 0.26073 0.81194 0.88254 0.0
H314 H 0.26347 0.86578 0.93346 0.0
H315 H 0.2906 0.88569 0.87778 0.0
H316 H 0.26185 0.84183 1.00457 0.0
H317 H 0.20253 0.79597 0.87786 0.0
H318 H 0.22461 0.79459 0.86619 0.0
H319 H 0.22534 0.8182 0.86068 0.0
C320 C 0.28218 0.83921 0.84955 0.0
C321 C 0.29103 0.86017 0.84753 0.0
C322 C 0.26684 0.82797 0.88121 0.0
C323 C 0.25968 0.83728 0.91139 0.0
C324 C 0.26857 0.85823 0.91006 0.0
H325 H 0.15671 0.75228 0.08416 0.0
H326 H 0.17681 0.77983 0.02971 0.0
C327 C 0.28409 0.8696 0.87829 0.0
C328 C 0.24376 0.82496 0.94589 0.0
H329 H 0.1989 0.78153 0.95533 0.0
C330 C 0.24791 0.82888 0.99378 0.0
C331 C 0.2253 0.80828 0.93205 0.0
C332 C 0.21909 0.80416 0.88136 0.0
C333 C 0.23482 0.81577 0.02801 0.0
C334 C 0.21734 0.79802 0.01396 0.0
C335 C 0.21246 0.7949 0.96622 0.0
C336 C 0.20498 0.78176 0.04774 0.0
C337 C 0.24006 0.82096 0.0789 0.0
C338 C 0.214 0.7734 0.07518 0.0
C339 C 0.20264 0.75781 0.10622 0.0
C340 C 0.18184 0.74992 0.11023 0.0
C341 C 0.17268 0.75802 0.08204 0.0
C342 C 0.18416 0.77379 0.051 0.0
H343 H 0.24901 0.83741 0.08393 0.0
H344 H 0.22644 0.81493 0.10109 0.0
H345 H 0.24929 0.81451 0.09105 0.0
H346 H 0.22989 0.77877 0.07223 0.0
H347 H 0.21023 0.75185 0.1269 0.0
H348 H 0.47481 0.20169 0.2955 0.0
H349 H 0.46816 0.22156 0.2402 0.0
H350 H 0.41502 0.16854 0.19302 0.0
H351 H 0.42185 0.14823 0.24815 0.0
H352 H 0.43675 0.19153 0.12037 0.0
H353 H 0.42766 0.23968 0.24872 0.0
H354 H 0.4509 0.24021 0.25786 0.0
H355 H 0.42761 0.21712 0.26562 0.0
C356 C 0.46161 0.19415 0.27365 0.0
C357 C 0.4488 0.17331 0.27657 0.0
C358 C 0.45773 0.20563 0.24223 0.0
C359 C 0.44079 0.19667 0.21328 0.0
C360 C 0.42805 0.17582 0.21546 0.0
H361 H 0.42175 0.28146 0.04286 0.0
H362 H 0.41498 0.25434 0.09802 0.0
C363 C 0.43199 0.16423 0.24691 0.0
C364 C 0.43725 0.20918 0.17922 0.0
H365 H 0.43696 0.25315 0.17019 0.0
C366 C 0.43642 0.2048 0.13133 0.0
C367 C 0.43633 0.22628 0.19335 0.0
C368 C 0.43544 0.23097 0.24425 0.0
C369 C 0.43611 0.21777 0.09722 0.0
C370 C 0.43715 0.23585 0.11132 0.0
C371 C 0.43654 0.2395 0.15923 0.0
C372 C 0.44061 0.25184 0.07719 0.0
C373 C 0.43498 0.21207 0.04635 0.0
C374 C 0.45744 0.25974 0.04788 0.0
C375 C 0.46128 0.27509 0.01646 0.0
C376 C 0.44854 0.2832 0.01387 0.0
C377 C 0.43183 0.27554 0.04384 0.0
C378 C 0.42793 0.26002 0.07531 0.0
H379 H 0.42713 0.19556 0.04206 0.0
H380 H 0.4271 0.21807 0.02516 0.0
H381 H 0.45037 0.21821 0.03236 0.0
H382 H 0.46782 0.25418 0.04967 0.0
H383 H 0.47441 0.28069 0.99436 0.0
H384 H 0.1621 0.51952 0.04788 0.0
H385 H 0.16028 0.54958 0.0642 0.0
H386 H 0.12376 0.52107 0.1856 0.0
H387 H 0.12502 0.49064 0.16876 0.0
H388 H 0.11 0.54185 0.13662 0.0
H389 H 0.19163 0.58943 0.16542 0.0
H390 H 0.18574 0.57777 0.10891 0.0
H391 H 0.17953 0.56258 0.16084 0.0
C392 C 0.15365 0.51959 0.07806 0.0
C393 C 0.14386 0.50271 0.10727 0.0
C394 C 0.15272 0.53686 0.08748 0.0
C395 C 0.14227 0.53776 0.12674 0.0
C396 C 0.13202 0.52076 0.15528 0.0
H397 H 0.16135 0.64916 0.24598 0.0
H398 H 0.15879 0.61686 0.23114 0.0
C399 C 0.13278 0.50339 0.14562 0.0
C400 C 0.14219 0.55649 0.13815 0.0
H401 H 0.17301 0.60624 0.15968 0.0
C402 C 0.12377 0.55593 0.14189 0.0
C403 C 0.16014 0.57479 0.14579 0.0
C404 C 0.18036 0.57619 0.14553 0.0
C405 C 0.12282 0.57323 0.15228 0.0
C406 C 0.14082 0.59169 0.15796 0.0
C407 C 0.15921 0.59215 0.15486 0.0
C408 C 0.14109 0.61071 0.1681 0.0
C409 C 0.10256 0.57144 0.15804 0.0
C410 C 0.13192 0.61805 0.13772 0.0
C411 C 0.13316 0.63648 0.14645 0.0
C412 C 0.14392 0.64809 0.18527 0.0
C413 C 0.15301 0.64065 0.21566 0.0
C414 C 0.15156 0.62217 0.20722 0.0
H415 H 0.09083 0.55585 0.16647 0.0
H416 H 0.10278 0.58147 0.18613 0.0
H417 H 0.09828 0.57571 0.12474 0.0
H418 H 0.12419 0.60976 0.10665 0.0
H419 H 0.12614 0.64185 0.12214 0.0
H420 H 0.65925 0.15444 0.21893 0.0
H421 H 0.62733 0.15245 0.23595 0.0
H422 H 0.61889 0.11446 0.35463 0.0
H423 H 0.65065 0.11589 0.33701 0.0
H424 H 0.58447 0.10135 0.30563 0.0
H425 H 0.61851 0.18252 0.33954 0.0
H426 H 0.6245 0.17738 0.28248 0.0
H427 H 0.63329 0.1705 0.33371 0.0
C428 C 0.65063 0.14564 0.24868 0.0
C429 C 0.65762 0.13548 0.27689 0.0
C430 C 0.63241 0.14461 0.2585 0.0
C431 C 0.62092 0.1337 0.29722 0.0
C432 C 0.62757 0.12309 0.32475 0.0
H433 H 0.52774 0.15182 0.41609 0.0
H434 H 0.55757 0.14928 0.40216 0.0
C435 C 0.64574 0.12394 0.31466 0.0
C436 C 0.60206 0.13348 0.30902 0.0
H437 H 0.58304 0.16405 0.33223 0.0
C438 C 0.58415 0.11504 0.31172 0.0
C439 C 0.60169 0.15133 0.31776 0.0
C440 C 0.62055 0.17153 0.31873 0.0
C441 C 0.56583 0.114 0.322 0.0
C442 C 0.56535 0.13192 0.32862 0.0
C443 C 0.58333 0.15031 0.32669 0.0
C444 C 0.54651 0.1321 0.3383 0.0
C445 C 0.54729 0.0937 0.32658 0.0
C446 C 0.53024 0.12324 0.30716 0.0
C447 C 0.513 0.12446 0.31538 0.0
C448 C 0.51185 0.13492 0.35443 0.0
C449 C 0.52813 0.14371 0.38559 0.0
C450 C 0.54522 0.14227 0.37767 0.0
H451 H 0.55109 0.08192 0.33473 0.0
H452 H 0.53722 0.09365 0.35439 0.0
H453 H 0.53902 0.08971 0.2929 0.0
H454 H 0.53104 0.11576 0.27589 0.0
H455 H 0.5008 0.11767 0.29048 0.0
H456 H 0.38617 0.52447 0.55457 0.0
H457 H 0.41838 0.55418 0.53802 0.0
H458 H 0.43723 0.51808 0.46274 0.0
H459 H 0.40479 0.48824 0.47823 0.0
H460 H 0.45625 0.56352 0.56124 0.0
H461 H 0.44783 0.56143 0.36796 0.0
H462 H 0.42725 0.54613 0.40657 0.0
H463 H 0.44557 0.53904 0.39282 0.0
C464 C 0.39712 0.52279 0.53442 0.0
C465 C 0.39281 0.50395 0.51744 0.0
C466 C 0.41556 0.53982 0.52505 0.0
C467 C 0.43012 0.53842 0.49854 0.0
C468 C 0.42606 0.51959 0.48237 0.0
H469 H 0.55425 0.63767 0.48126 0.0
H470 H 0.5244 0.6053 0.49726 0.0
C471 C 0.40754 0.50253 0.49148 0.0
C472 C 0.44948 0.55676 0.48815 0.0
H473 H 0.4789 0.58618 0.39874 0.0
C474 C 0.46125 0.56846 0.52571 0.0
C475 C 0.45586 0.5633 0.44176 0.0
C476 C 0.44341 0.55195 0.39991 0.0
C477 C 0.47913 0.58658 0.51822 0.0
C478 C 0.48566 0.59296 0.47183 0.0
C479 C 0.47397 0.58118 0.43427 0.0
C480 C 0.50398 0.61233 0.4614 0.0
C481 C 0.49047 0.59903 0.56004 0.0
C482 C 0.50253 0.62683 0.43477 0.0
C483 C 0.51956 0.64523 0.42512 0.0
C484 C 0.53846 0.64956 0.44193 0.0
C485 C 0.53992 0.6349 0.46812 0.0
C486 C 0.52285 0.61642 0.47753 0.0
H487 H 0.48099 0.5946 0.59199 0.0
H488 H 0.50343 0.59692 0.56717 0.0
H489 H 0.49624 0.61518 0.55335 0.0
H490 H 0.48814 0.62399 0.42184 0.0
H491 H 0.51785 0.65612 0.4048 0.0
H492 H 0.93206 0.54383 0.64722 0.0
H493 H 0.9348 0.51398 0.66076 0.0
H494 H 0.88112 0.47876 0.58006 0.0
H495 H 0.87846 0.50847 0.56561 0.0
H496 H 0.90879 0.47914 0.70465 0.0
H497 H 0.91933 0.46353 0.52099 0.0
H498 H 0.92164 0.48699 0.53889 0.0
H499 H 0.89733 0.46552 0.52864 0.0
C500 C 0.92091 0.52976 0.63208 0.0
C501 C 0.9051 0.5286 0.6051 0.0
C502 C 0.92249 0.51271 0.63988 0.0
C503 C 0.90837 0.4942 0.62072 0.0
C504 C 0.89249 0.49297 0.59419 0.0
H505 H 0.87667 0.3755 0.71093 0.0
H506 H 0.87941 0.40787 0.69577 0.0
C507 C 0.89092 0.50998 0.58623 0.0
C508 C 0.90972 0.47598 0.62995 0.0
H509 H 0.91069 0.43703 0.57601 0.0
C510 C 0.9094 0.47003 0.67654 0.0
C511 C 0.91083 0.46425 0.5933 0.0
C512 C 0.91252 0.47049 0.54268 0.0
C513 C 0.90944 0.45232 0.68742 0.0
C514 C 0.9094 0.44001 0.65068 0.0
C515 C 0.91046 0.44633 0.60415 0.0
C516 C 0.90784 0.42034 0.65975 0.0
C517 C 0.90963 0.44702 0.73821 0.0
C518 C 0.92259 0.41632 0.64324 0.0
C519 C 0.92097 0.39769 0.65142 0.0
C520 C 0.90451 0.38269 0.67616 0.0
C521 C 0.88964 0.38673 0.69211 0.0
C522 C 0.89124 0.4053 0.68376 0.0
H523 H 0.91574 0.46048 0.76095 0.0
H524 H 0.89408 0.43656 0.74974 0.0
H525 H 0.91867 0.43964 0.74346 0.0
H526 H 0.93545 0.42766 0.6243 0.0
H527 H 0.93267 0.39509 0.63855 0.0
H528 H 0.38651 0.87023 0.73661 0.0
H529 H 0.41893 0.87331 0.75312 0.0
H530 H 0.43699 0.92814 0.82831 0.0
H531 H 0.4043 0.92495 0.81283 0.0
H532 H 0.45661 0.90231 0.72974 0.0
H533 H 0.44823 0.89581 0.9231 0.0
H534 H 0.42756 0.8902 0.88453 0.0
H535 H 0.44567 0.91574 0.89805 0.0
C536 C 0.39733 0.88296 0.75673 0.0
C537 C 0.39271 0.89728 0.77367 0.0
C538 C 0.4159 0.88471 0.76607 0.0
C539 C 0.4303 0.90079 0.79252 0.0
C540 C 0.42595 0.91537 0.8087 0.0
H541 H 0.55443 0.92534 0.8093 0.0
H542 H 0.52483 0.92836 0.79388 0.0
C543 C 0.40729 0.91357 0.7996 0.0
C544 C 0.4498 0.90212 0.80287 0.0
H545 H 0.47919 0.902 0.89214 0.0
C546 C 0.46161 0.90233 0.76525 0.0
C547 C 0.45618 0.90193 0.84922 0.0
C548 C 0.4437 0.90073 0.8911 0.0
C549 C 0.47949 0.9021 0.77265 0.0
C550 C 0.48597 0.90212 0.81901 0.0
C551 C 0.47428 0.90215 0.85663 0.0
C552 C 0.50417 0.90085 0.82932 0.0
C553 C 0.49084 0.90107 0.73075 0.0
C554 C 0.50251 0.88472 0.85556 0.0
C555 C 0.5194 0.88307 0.86488 0.0
C556 C 0.53835 0.89753 0.84812 0.0
C557 C 0.54004 0.91385 0.82238 0.0
C558 C 0.52312 0.91555 0.81332 0.0
H559 H 0.48142 0.89621 0.69871 0.0
H560 H 0.50389 0.91613 0.72395 0.0
H561 H 0.49649 0.89059 0.73719 0.0
H562 H 0.48806 0.87323 0.86837 0.0
H563 H 0.51751 0.87032 0.88485 0.0
H564 H 0.50008 0.39114 1.00003 0.0
H565 H 0.53024 0.42332 0.0152 0.0
H566 H 0.55775 0.41603 0.89107 0.0
H567 H 0.52798 0.38365 0.87653 0.0
H568 H 0.5826 0.42681 0.96272 0.0
H569 H 0.55087 0.47711 0.9547 0.0
H570 H 0.53837 0.45731 0.99655 0.0
H571 H 0.53717 0.45146 0.93525 0.0
C572 C 0.51248 0.39649 0.97572 0.0
C573 C 0.51162 0.3848 0.93709 0.0
C574 C 0.52968 0.41497 0.98426 0.0
C575 C 0.54619 0.42228 0.9539 0.0
C576 C 0.54521 0.41075 0.91496 0.0
H577 H 0.6506 0.54237 0.95382 0.0
H578 H 0.61882 0.512 0.93662 0.0
C579 C 0.52815 0.39221 0.90669 0.0
C580 C 0.56497 0.44133 0.96396 0.0
H581 H 0.58403 0.49117 0.98505 0.0
C582 C 0.5829 0.44089 0.96736 0.0
C583 C 0.56545 0.45978 0.96942 0.0
C584 C 0.54697 0.46154 0.96333 0.0
C585 C 0.60121 0.45827 0.97657 0.0
C586 C 0.60157 0.47656 0.98403 0.0
C587 C 0.58371 0.4771 0.97993 0.0
C588 C 0.62038 0.49528 0.99572 0.0
C589 C 0.62004 0.45689 0.97722 0.0
C590 C 0.6316 0.49616 0.03525 0.0
C591 C 0.64983 0.51339 0.04488 0.0
C592 C 0.65711 0.53026 0.0156 0.0
C593 C 0.64547 0.52963 0.977 0.0
C594 C 0.62729 0.51228 0.96714 0.0
H595 H 0.6181 0.44366 0.95742 0.0
H596 H 0.63289 0.47051 0.96204 0.0
H597 H 0.62375 0.45531 0.01393 0.0
H598 H 0.62631 0.48343 0.05856 0.0
H599 H 0.65827 0.51344 0.07524 0.0
H600 H 0.29736 0.43735 0.70069 0.0
H601 H 0.27338 0.43464 0.76075 0.0
H602 H 0.28117 0.49164 0.71782 0.0
H603 H 0.30492 0.49444 0.65786 0.0
H604 H 0.27727 0.46066 0.83581 0.0
H605 H 0.22025 0.45302 0.70655 0.0
H606 H 0.24115 0.44978 0.69122 0.0
H607 H 0.24453 0.47447 0.69676 0.0
C608 C 0.29412 0.4494 0.70442 0.0
C609 C 0.30292 0.46603 0.67428 0.0
C610 C 0.28038 0.44778 0.73858 0.0
C611 C 0.27518 0.46272 0.74286 0.0
C612 C 0.28463 0.47973 0.71428 0.0
H613 H 0.22121 0.49395 0.96285 0.0
H614 H 0.24229 0.49151 0.9027 0.0
C615 C 0.29832 0.48136 0.68025 0.0
C616 C 0.25985 0.46067 0.77699 0.0
H617 H 0.21536 0.45997 0.78544 0.0
C618 C 0.26364 0.4603 0.82486 0.0
C619 C 0.24192 0.45987 0.7625 0.0
C620 C 0.23657 0.4591 0.71145 0.0
C621 C 0.25037 0.46007 0.85875 0.0
C622 C 0.23304 0.46048 0.84425 0.0
C623 C 0.22879 0.45991 0.79639 0.0
C624 C 0.21964 0.46232 0.87836 0.0
C625 C 0.25508 0.45953 0.90982 0.0
C626 C 0.1996 0.4471 0.88307 0.0
C627 C 0.18739 0.4485 0.91734 0.0
C628 C 0.19506 0.46521 0.94716 0.0
C629 C 0.21487 0.48081 0.94071 0.0
C630 C 0.227 0.4794 0.90658 0.0
H631 H 0.26556 0.45376 0.91482 0.0
H632 H 0.26228 0.47493 0.92424 0.0
H633 H 0.24123 0.45005 0.9302 0.0
H634 H 0.1936 0.4339 0.8612 0.0
H635 H 0.1722 0.43624 0.92146 0.0
H636 H 0.74233 0.16699 0.07384 0.0
H637 H 0.76424 0.18933 0.01211 0.0
H638 H 0.77639 0.24053 0.09642 0.0
H639 H 0.75392 0.21848 0.15673 0.0
H640 H 0.77091 0.24722 0.01087 0.0
H641 H 0.82394 0.21864 0.01068 0.0
H642 H 0.79882 0.19951 0.99751 0.0
H643 H 0.80459 0.21124 0.05425 0.0
C644 C 0.74959 0.18302 0.07893 0.0
C645 C 0.74641 0.19097 0.12009 0.0
C646 C 0.76228 0.19577 0.0439 0.0
C647 C 0.77236 0.21664 0.05007 0.0
C648 C 0.76887 0.22452 0.09085 0.0
H649 H 0.87487 0.30082 0.88122 0.0
H650 H 0.85327 0.28015 0.94547 0.0
C651 C 0.75596 0.21185 0.12533 0.0
C652 C 0.78633 0.23046 0.01404 0.0
H653 H 0.82781 0.2413 0.94954 0.0
C654 C 0.78341 0.24596 0.99768 0.0
C655 C 0.80293 0.22914 0.99752 0.0
C656 C 0.80791 0.21387 0.01625 0.0
C657 C 0.79641 0.25999 0.96493 0.0
C658 C 0.81234 0.258 0.94648 0.0
C659 C 0.81549 0.24271 0.96334 0.0
C660 C 0.82551 0.27123 0.90865 0.0
C661 C 0.79311 0.27701 0.95133 0.0
C662 C 0.81712 0.27301 0.86664 0.0
C663 C 0.82935 0.28505 0.83049 0.0
C664 C 0.8503 0.2952 0.83503 0.0
C665 C 0.85877 0.29327 0.87686 0.0
C666 C 0.84645 0.28143 0.91347 0.0
H667 H 0.78534 0.28038 0.97958 0.0
H668 H 0.80746 0.29083 0.94343 0.0
H669 H 0.78346 0.27273 0.91975 0.0
H670 H 0.80107 0.2648 0.86141 0.0
H671 H 0.82235 0.28594 0.79842 0.0
H672 H 0.54579 0.73473 0.2978 0.0
H673 H 0.54729 0.75741 0.23643 0.0
H674 H 0.60455 0.76629 0.19174 0.0
H675 H 0.6031 0.74336 0.2531 0.0
H676 H 0.57747 0.7979 0.22889 0.0
H677 H 0.57218 0.75445 0.06901 0.0
H678 H 0.56519 0.74308 0.12626 0.0
H679 H 0.59113 0.75782 0.11053 0.0
C680 C 0.55859 0.74125 0.27454 0.0
C681 C 0.57435 0.73725 0.28032 0.0
C682 C 0.55945 0.75427 0.23959 0.0
C683 C 0.576 0.76349 0.20956 0.0
C684 C 0.59153 0.75912 0.21425 0.0
H685 H 0.60311 0.86721 0.03326 0.0
H686 H 0.60469 0.84569 0.09434 0.0
C687 C 0.59068 0.74603 0.2493 0.0
C688 C 0.57724 0.77833 0.17494 0.0
H689 H 0.57705 0.78687 0.05782 0.0
C690 C 0.57748 0.79557 0.19145 0.0
C691 C 0.57712 0.77513 0.12624 0.0
C692 C 0.57624 0.75657 0.10672 0.0
C693 C 0.57735 0.80962 0.16047 0.0
C694 C 0.57722 0.80641 0.11176 0.0
C695 C 0.57724 0.7893 0.09525 0.0
C696 C 0.57596 0.82002 0.07719 0.0
C697 C 0.57671 0.82743 0.18002 0.0
C698 C 0.55927 0.81274 0.04761 0.0
C699 C 0.55835 0.82492 0.01283 0.0
C700 C 0.57415 0.84464 0.00676 0.0
C701 C 0.59064 0.85213 0.03729 0.0
C702 C 0.59156 0.83987 0.07218 0.0
H703 H 0.5728 0.82558 0.21782 0.0
H704 H 0.59164 0.841 0.17587 0.0
H705 H 0.56565 0.82993 0.16074 0.0
H706 H 0.54706 0.79747 0.05103 0.0
H707 H 0.54543 0.81868 0.98993 0.0
H708 H 0.82668 0.5375 0.46599 0.0
H709 H 0.80561 0.53947 0.40504 0.0
H710 H 0.85458 0.59638 0.36026 0.0
H711 H 0.87596 0.59448 0.42124 0.0
H712 H 0.796 0.57028 0.39766 0.0
H713 H 0.83347 0.56384 0.23763 0.0
H714 H 0.83762 0.55666 0.29488 0.0
H715 H 0.84931 0.58262 0.27917 0.0
C716 C 0.83311 0.55033 0.44283 0.0
C717 C 0.85301 0.56584 0.44845 0.0
C718 C 0.821 0.55145 0.40812 0.0
C719 C 0.82854 0.56804 0.37817 0.0
C720 C 0.84855 0.58334 0.38274 0.0
H721 H 0.75256 0.59587 0.20125 0.0
H722 H 0.77573 0.59747 0.26218 0.0
C723 C 0.86074 0.58223 0.41757 0.0
C724 C 0.81504 0.5695 0.34362 0.0
H725 H 0.80607 0.56897 0.22655 0.0
C726 C 0.79823 0.57011 0.36021 0.0
C727 C 0.81799 0.56915 0.29491 0.0
C728 C 0.83547 0.56788 0.27534 0.0
C729 C 0.78409 0.57011 0.3293 0.0
C730 C 0.78701 0.5697 0.28059 0.0
C731 C 0.80396 0.56937 0.26399 0.0
C732 C 0.7721 0.56846 0.24613 0.0
C733 C 0.76583 0.56987 0.34894 0.0
C734 C 0.76235 0.5516 0.21724 0.0
C735 C 0.74919 0.55065 0.18255 0.0
C736 C 0.74558 0.56661 0.17589 0.0
C737 C 0.75493 0.58328 0.20575 0.0
C738 C 0.76816 0.58422 0.24055 0.0
H739 H 0.76387 0.56625 0.3869 0.0
H740 H 0.76738 0.58484 0.34416 0.0
H741 H 0.75212 0.5588 0.33014 0.0
H742 H 0.76516 0.53926 0.22111 0.0
H743 H 0.74224 0.53759 0.16018 0.0
H744 H 0.22319 0.73569 0.3244 0.0
H745 H 0.24391 0.75856 0.38598 0.0
H746 H 0.19541 0.76806 0.42571 0.0
H747 H 0.17438 0.74495 0.36411 0.0
H748 H 0.25463 0.79931 0.3931 0.0
H749 H 0.2139 0.75529 0.55063 0.0
H750 H 0.21028 0.74414 0.49334 0.0
H751 H 0.19908 0.75898 0.5075 0.0
C752 C 0.21679 0.74243 0.34654 0.0
C753 C 0.19712 0.73849 0.3394 0.0
C754 C 0.2287 0.75556 0.38161 0.0
C755 C 0.22118 0.76494 0.41041 0.0
C756 C 0.20141 0.76077 0.40415 0.0
H757 H 0.29722 0.86722 0.59146 0.0
H758 H 0.27427 0.84631 0.52947 0.0
C759 C 0.18943 0.74758 0.36896 0.0
C760 C 0.23443 0.77959 0.44581 0.0
H761 H 0.24177 0.78736 0.56345 0.0
C762 C 0.25179 0.7968 0.43038 0.0
C763 C 0.23068 0.77614 0.4943 0.0
C764 C 0.21257 0.75758 0.51269 0.0
C765 C 0.2657 0.81055 0.46226 0.0
C766 C 0.262 0.80706 0.51075 0.0
C767 C 0.24449 0.79 0.52617 0.0
C768 C 0.27664 0.82025 0.54624 0.0
C769 C 0.28457 0.82833 0.44391 0.0
C770 C 0.28557 0.81252 0.57598 0.0
C771 C 0.2986 0.82436 0.61127 0.0
C772 C 0.3029 0.84417 0.61771 0.0
C773 C 0.2943 0.85206 0.58718 0.0
C774 C 0.28121 0.84016 0.55176 0.0
H775 H 0.28696 0.82676 0.40616 0.0
H776 H 0.2835 0.84203 0.44835 0.0
H777 H 0.29783 0.83039 0.46383 0.0
H778 H 0.28226 0.7972 0.57219 0.0
H779 H 0.30496 0.8178 0.63416 0.0
H780 H 0.5029 0.2967 0.79881 0.0
H781 H 0.50053 0.27371 0.73738 0.0
H782 H 0.4427 0.26464 0.69728 0.0
H783 H 0.44498 0.28784 0.75879 0.0
H784 H 0.46985 0.23289 0.73041 0.0
H785 H 0.47434 0.27724 0.57251 0.0
H786 H 0.48204 0.2884 0.62977 0.0
H787 H 0.45592 0.27388 0.61563 0.0
C788 C 0.48975 0.29003 0.77663 0.0
C789 C 0.47412 0.29411 0.78366 0.0
C790 C 0.48841 0.27684 0.74164 0.0
C791 C 0.47148 0.26753 0.71279 0.0
C792 C 0.45599 0.27185 0.71891 0.0
H793 H 0.44484 0.16522 0.53148 0.0
H794 H 0.44256 0.18617 0.59289 0.0
C795 C 0.45732 0.28509 0.75404 0.0
C796 C 0.46994 0.25281 0.67751 0.0
H797 H 0.46996 0.24513 0.55993 0.0
C798 C 0.46973 0.23546 0.69311 0.0
C799 C 0.46991 0.25633 0.62898 0.0
C800 C 0.47071 0.27502 0.61045 0.0
C801 C 0.4698 0.22164 0.66136 0.0
C802 C 0.46989 0.22523 0.61283 0.0
C803 C 0.46979 0.24242 0.59723 0.0
C804 C 0.47141 0.21203 0.57756 0.0
C805 C 0.47049 0.2037 0.67989 0.0
C806 C 0.48838 0.21963 0.54884 0.0
C807 C 0.48973 0.20776 0.51391 0.0
C808 C 0.47406 0.18805 0.50681 0.0
C809 C 0.45721 0.18029 0.53628 0.0
C810 C 0.45588 0.19223 0.57136 0.0
H811 H 0.47408 0.20507 0.71785 0.0
H812 H 0.45569 0.19008 0.67462 0.0
H813 H 0.48182 0.20162 0.66063 0.0
H814 H 0.50053 0.23486 0.55317 0.0
H815 H 0.50291 0.21422 0.49184 0.0
H816 H 0.10818 0.41798 0.96016 0.0
H817 H 0.07956 0.40093 0.90703 0.0
H818 H 0.03966 0.37773 0.0253 0.0
H819 H 0.06809 0.39486 0.07864 0.0
H820 H 0.04927 0.36009 0.89775 0.0
H821 H 1.01767 0.4079 0.94999 0.0
H822 H 0.04287 0.41406 0.96452 0.0
H823 H 1.02207 0.3954 0.99762 0.0
C824 C 0.09333 0.40911 0.97491 0.0
C825 C 0.09043 0.40793 0.0237 0.0
C826 C 0.07699 0.39937 0.94447 0.0
C827 C 0.05743 0.38836 0.96217 0.0
C828 C 0.05457 0.38647 0.01084 0.0
H829 H 0.93973 0.33233 0.82996 0.0
H830 H 0.96742 0.34287 0.88543 0.0
C831 C 0.07088 0.39619 0.04129 0.0
C832 C 0.04001 0.37935 0.92979 0.0
H833 H 0.99826 0.38124 0.89836 0.0
C834 C 0.03811 0.36471 0.89783 0.0
C835 C 0.02545 0.38539 0.92992 0.0
C836 C 0.02713 0.40167 0.96202 0.0
C837 C 1.02191 0.35575 0.86642 0.0
C838 C 1.00742 0.36189 0.86638 0.0
C839 C 1.00929 0.37646 0.89854 0.0
C840 C 0.99054 0.35393 0.83239 0.0
C841 C 1.0203 0.33958 0.83409 0.0
C842 C 0.99428 0.35655 0.78406 0.0
C843 C 0.97848 0.35049 0.75227 0.0
C844 C 0.95859 0.34181 0.76812 0.0
C845 C 0.95484 0.33888 0.81651 0.0
C846 C 0.97067 0.34494 0.84829 0.0
H847 H 0.02885 0.33258 0.84762 0.0
H848 H 1.00445 0.32774 0.8291 0.0
H849 H 0.02661 0.34624 0.79942 0.0
H850 H 1.00948 0.36386 0.77093 0.0
H851 H 0.98194 0.35311 0.7153 0.0
H852 H 0.64619 0.97283 0.87919 0.0
H853 H 0.66349 1.00114 0.93265 0.0
H854 H 0.64148 0.9609 0.05057 0.0
H855 H 0.62425 0.93245 0.99731 0.0
H856 H 0.64479 1.01209 0.99995 0.0
H857 H 0.70079 0.99676 0.08272 0.0
H858 H 0.68794 0.98479 0.02917 0.0
H859 H 0.67556 0.97614 0.08465 0.0
C860 C 0.64528 0.96993 0.91646 0.0
C861 C 0.63384 0.95033 0.93393 0.0
C862 C 0.65516 0.98616 0.94699 0.0
C863 C 0.65397 0.98316 0.99563 0.0
C864 C 0.64295 0.96357 0.01318 0.0
H865 H 0.68745 0.0594 0.24015 0.0
H866 H 0.67648 0.03183 0.1845 0.0
C867 C 0.63303 0.94731 0.98265 0.0
C868 C 0.66297 1.00062 0.02787 0.0
H869 H 0.69638 0.02229 0.11749 0.0
C870 C 0.65621 1.01442 0.02538 0.0
C871 C 0.67776 1.00358 0.06124 0.0
C872 C 0.6861 0.98965 0.06449 0.0
C873 C 0.66346 0.03082 0.05598 0.0
C874 C 0.67826 0.0338 0.08941 0.0
C875 C 0.6851 0.02005 0.09178 0.0
C876 C 0.68632 0.05077 0.12307 0.0
C877 C 0.65471 0.04444 0.05319 0.0
C878 C 0.69603 0.07067 0.10721 0.0
C879 C 0.70227 0.0865 0.13896 0.0
C880 C 0.69908 0.08275 0.1873 0.0
C881 C 0.69011 0.06285 0.20319 0.0
C882 C 0.68382 0.04704 0.1714 0.0
H883 H 0.64015 0.03727 0.03442 0.0
H884 H 0.65246 0.04883 0.08867 0.0
H885 H 0.66519 0.05822 0.03381 0.0
H886 H 0.69853 0.07395 0.07015 0.0
H887 H 0.70924 0.10163 0.12553 0.0
H888 H 0.70961 0.61593 0.16349 0.0
H889 H 0.69877 0.6329 0.21848 0.0
H890 H 0.67699 0.65292 0.10355 0.0
H891 H 0.6881 0.63632 0.04825 0.0
H892 H 0.69663 0.68237 0.17097 0.0
H893 H 0.64021 0.61093 0.25304 0.0
H894 H 0.66526 0.61506 0.25411 0.0
H895 H 0.65272 0.61181 0.19901 0.0
C896 C 0.70269 0.6241 0.14983 0.0
C897 C 0.6996 0.62463 0.10143 0.0
C898 C 0.69637 0.63369 0.18138 0.0
C899 C 0.68667 0.64384 0.16524 0.0
C900 C 0.68431 0.64508 0.11685 0.0
H901 H 0.62437 0.69984 0.2914 0.0
H902 H 0.64156 0.68866 0.23792 0.0
C903 C 0.69068 0.63556 0.08526 0.0
C904 C 0.67846 0.65266 0.19874 0.0
H905 H 0.64481 0.64068 0.28788 0.0
C906 C 0.68529 0.67326 0.19653 0.0
C907 C 0.66359 0.64076 0.23196 0.0
C908 C 0.65485 0.61839 0.23454 0.0
C909 C 0.67788 0.68232 0.22709 0.0
C910 C 0.66304 0.6704 0.26031 0.0
C911 C 0.65626 0.64983 0.26258 0.0
C912 C 0.65401 0.67879 0.29269 0.0
C913 C 0.68622 0.7046 0.22406 0.0
C914 C 0.65519 0.67691 0.34129 0.0
C915 C 0.64533 0.68322 0.37195 0.0
C916 C 0.63392 0.69143 0.35465 0.0
C917 C 0.63312 0.69371 0.30595 0.0
C918 C 0.64302 0.6874 0.27529 0.0
H919 H 0.70091 0.71223 0.20586 0.0
H920 H 0.67568 0.70759 0.204 0.0
H921 H 0.68804 0.71123 0.25945 0.0
H922 H 0.66351 0.67023 0.35552 0.0
H923 H 0.64624 0.68118 0.4092 0.0
H924 H 0.10915 0.6976 0.33233 0.0
H925 H 0.08041 0.68603 0.3851 0.0
H926 H 0.04087 0.66996 0.26629 0.0
H927 H 0.06941 0.68126 0.21333 0.0
H928 H 0.05027 0.69681 0.3943 0.0
H929 H 1.01833 0.61749 0.34068 0.0
H930 H 0.04363 0.63649 0.32667 0.0
H931 H 1.023 0.63458 0.29328 0.0
C932 C 0.09436 0.69177 0.31739 0.0
C933 C 0.09159 0.69022 0.26856 0.0
C934 C 0.07795 0.68516 0.34763 0.0
C935 C 0.05845 0.6768 0.32966 0.0
C936 C 0.05573 0.676 0.28095 0.0
H937 H 0.94009 0.61525 0.45826 0.0
H938 H 0.96816 0.63261 0.40389 0.0
C939 C 0.0721 0.68258 0.25072 0.0
C940 C 0.04092 0.66835 0.36176 0.0
H941 H 0.9988 0.62476 0.39189 0.0
C942 C 0.03901 0.68106 0.39384 0.0
C943 C 0.02624 0.64779 0.36115 0.0
C944 C 0.02791 0.63322 0.32893 0.0
C945 C 1.02267 0.6738 0.42486 0.0
C946 C 1.00804 0.65321 0.42435 0.0
C947 C 1.00994 0.64055 0.39212 0.0
C948 C 0.99093 0.64427 0.45776 0.0
C949 C 1.02105 0.68832 0.45731 0.0
C950 C 0.99432 0.64511 0.50621 0.0
C951 C 0.9783 0.63525 0.5374 0.0
C952 C 0.95851 0.62418 0.52079 0.0
C953 C 0.95511 0.62369 0.4723 0.0
C954 C 0.97116 0.63357 0.44113 0.0
H955 H 0.02982 0.70394 0.4442 0.0
H956 H 1.00522 0.68445 0.46183 0.0
H957 H 0.02709 0.68772 0.49215 0.0
H958 H 1.00944 0.65286 0.5199 0.0
H959 H 0.98149 0.63584 0.57447 0.0
H960 H 0.40458 0.06052 0.3797 0.0
H961 H 0.38698 0.03201 0.43264 0.0
H962 H 0.40865 0.07177 0.55127 0.0
H963 H 0.42616 0.10042 0.49855 0.0
H964 H 0.40516 0.02057 0.50018 0.0
H965 H 0.3492 0.03611 0.5821 0.0
H966 H 0.36234 0.04827 0.52893 0.0
H967 H 0.37449 0.0566 0.58473 0.0
C968 C 0.40536 0.06327 0.41702 0.0
C969 C 0.41678 0.08279 0.43484 0.0
C970 C 0.3953 0.04693 0.44725 0.0
C971 C 0.3963 0.04973 0.49593 0.0
C972 C 0.40732 0.06924 0.51383 0.0
H973 H 0.36148 0.97235 0.73912 0.0
H974 H 0.37271 1.00021 0.68404 0.0
C975 C 0.41741 0.08562 0.4836 0.0
C976 C 0.38705 0.03214 0.52789 0.0
H977 H 0.35323 1.01031 0.61676 0.0
C978 C 0.39367 0.01823 0.52539 0.0
C979 C 0.37217 0.02917 0.56099 0.0
C980 C 0.36397 0.04321 0.56422 0.0
C981 C 0.38618 1.00169 0.55572 0.0
C982 C 0.37128 0.99869 0.58887 0.0
C983 C 0.36459 1.01256 0.59126 0.0
C984 C 0.36296 0.98156 0.62221 0.0
C985 C 0.39477 0.98795 0.55294 0.0
C986 C 0.35317 0.96174 0.60593 0.0
C987 C 0.34678 0.94575 0.63736 0.0
C988 C 0.34989 0.94926 0.68577 0.0
C989 C 0.35888 0.96909 0.70208 0.0
C990 C 0.36532 0.98506 0.67062 0.0
H991 H 0.40941 0.99509 0.53447 0.0
H992 H 0.39684 0.98337 0.58842 0.0
H993 H 0.38429 0.97428 0.53327 0.0
H994 H 0.35077 0.95864 0.5688 0.0
H995 H 0.3398 0.93068 0.62359 0.0
H996 H 0.34279 0.41782 0.66529 0.0
H997 H 0.35429 0.40061 0.71808 0.0
H998 H 0.37156 0.37828 0.59933 0.0
H999 H 0.36033 0.39557 0.54637 0.0
H1000 H 0.34405 0.35976 0.72643 0.0
H1001 H 0.42359 0.40863 0.67534 0.0
H1002 H 0.40438 0.41457 0.66105 0.0
H1003 H 0.40684 0.39628 0.62736 0.0
C1004 C 0.34885 0.40909 0.65037 0.0
C1005 C 0.35078 0.40822 0.60156 0.0
C1006 C 0.35542 0.39926 0.68061 0.0
C1007 C 0.36413 0.38847 0.66268 0.0
C1008 C 0.36527 0.38685 0.61398 0.0
H1009 H 0.42648 0.33262 0.79111 0.0
H1010 H 0.40909 0.34329 0.73677 0.0
C1011 C 0.35872 0.39667 0.58373 0.0
C1012 C 0.37263 0.37946 0.69483 0.0
H1013 H 0.41643 0.38164 0.72589 0.0
C1014 C 0.35987 0.36454 0.72639 0.0
C1015 C 0.39329 0.38572 0.69477 0.0
C1016 C 0.40789 0.4023 0.66315 0.0
C1017 C 0.36718 0.3555 0.75738 0.0
C1018 C 0.38786 0.36182 0.7574 0.0
C1019 C 0.40057 0.3767 0.72572 0.0
C1020 C 0.39685 0.35369 0.79075 0.0
C1021 C 0.35263 0.33903 0.78922 0.0
C1022 C 0.39568 0.35587 0.83925 0.0
C1023 C 0.40556 0.34972 0.87043 0.0
C1024 C 0.41697 0.34142 0.85375 0.0
C1025 C 0.41779 0.33889 0.8052 0.0
C1026 C 0.40788 0.34502 0.77405 0.0
H1027 H 0.33706 0.33204 0.77572 0.0
H1028 H 0.3567 0.32722 0.79351 0.0
H1029 H 0.35293 0.34539 0.82423 0.0
H1030 H 0.38766 0.36291 0.85301 0.0
H1031 H 0.40472 0.35203 0.90755 0.0
loop_
_geom_bond_atom_site_label_1
_geom_bond_atom_site_label_2
_geom_bond_distance
_geom_bond_site_symmetry_2
_ccdc_geom_bond_type
O0 Cd1 2.223 . S
O0 C8 1.315 . S
Cd1 O0 2.223 . S
Cd1 O4 2.297 . S
Cd1 O5 2.439 . S
Cd1 O11 2.240 . S
Cd2 O3 2.240 . S
Cd2 O10 2.223 . S
Cd2 O12 2.297 1_554 S
Cd2 O13 2.439 1_554 S
O3 Cd2 2.240 . S
O3 C8 1.279 . S
O4 Cd1 2.297 . S
O4 C6 1.247 . S
O5 Cd1 2.439 . S
O5 C6 1.208 . S
C6 O4 1.247 . S
C6 O5 1.208 . S
C7 O12 1.247 . S
C7 O13 1.208 . S
C8 O0 1.315 . S
C8 O3 1.279 . S
C9 O10 1.315 . S
C9 O11 1.279 . S
O10 Cd2 2.223 . S
O10 C9 1.315 . S
O11 Cd1 2.240 . S
O11 C9 1.279 . S
O12 Cd2 2.297 1_556 S
O12 C7 1.247 . S
O13 Cd2 2.439 1_556 S
O13 C7 1.208 . S
O14 Cd15 2.223 . S
O14 C22 1.315 . S
Cd15 O14 2.223 . S
Cd15 O18 2.297 . S
Cd15 O19 2.439 . S
Cd15 O25 2.240 . S
Cd16 O17 2.240 . S
Cd16 O24 2.223 . S
Cd16 O26 2.297 . S
Cd16 O27 2.439 . S
O17 Cd16 2.240 . S
O17 C22 1.279 . S
O18 Cd15 2.297 . S
O18 C20 1.247 . S
O19 Cd15 2.439 . S
O19 C20 1.208 . S
C20 O18 1.247 . S
C20 O19 1.208 . S
C21 O26 1.247 . S
C21 O27 1.208 . S
C22 O14 1.315 . S
C22 O17 1.279 . S
C23 O24 1.315 . S
C23 O25 1.279 . S
O24 Cd16 2.223 . S
O24 C23 1.315 . S
O25 Cd15 2.240 . S
O25 C23 1.279 . S
O26 Cd16 2.297 . S
O26 C21 1.247 . S
O27 Cd16 2.439 . S
O27 C21 1.208 . S
O28 Cd29 2.223 . S
O28 C36 1.315 . S
Cd29 O28 2.223 . S
Cd29 O32 2.297 . S
Cd29 O33 2.439 . S
Cd29 O39 2.240 . S
Cd30 O31 2.240 . S
Cd30 O38 2.223 . S
Cd30 O40 2.297 . S
Cd30 O41 2.439 . S
O31 Cd30 2.240 . S
O31 C36 1.279 . S
O32 Cd29 2.297 . S
O32 C34 1.247 . S
O33 Cd29 2.439 . S
O33 C34 1.208 . S
C34 O32 1.247 . S
C34 O33 1.208 . S
C35 O40 1.247 . S
C35 O41 1.208 . S
C36 O28 1.315 . S
C36 O31 1.279 . S
C37 O38 1.315 . S
C37 O39 1.279 . S
O38 Cd30 2.223 . S
O38 C37 1.315 . S
O39 Cd29 2.240 . S
O39 C37 1.279 . S
O40 Cd30 2.297 . S
O40 C35 1.247 . S
O41 Cd30 2.439 . S
O41 C35 1.208 . S
O42 Cd43 2.223 . S
O42 C50 1.315 . S
Cd43 O42 2.223 . S
Cd43 O46 2.297 . S
Cd43 O47 2.439 . S
Cd43 O53 2.240 . S
Cd44 O45 2.240 . S
Cd44 O52 2.223 . S
Cd44 O54 2.297 . S
Cd44 O55 2.439 . S
O45 Cd44 2.240 . S
O45 C50 1.279 . S
O46 Cd43 2.297 . S
O46 C48 1.247 . S
O47 Cd43 2.439 . S
O47 C48 1.208 . S
C48 O46 1.247 . S
C48 O47 1.208 . S
C49 O54 1.247 . S
C49 O55 1.208 . S
C50 O42 1.315 . S
C50 O45 1.279 . S
C51 O52 1.315 . S
C51 O53 1.279 . S
O52 Cd44 2.223 . S
O52 C51 1.315 . S
O53 Cd43 2.240 . S
O53 C51 1.279 . S
O54 Cd44 2.297 . S
O54 C49 1.247 . S
O55 Cd44 2.439 . S
O55 C49 1.208 . S
O56 Cd57 2.223 . S
O56 C64 1.315 . S
Cd57 O56 2.223 . S
Cd57 O60 2.297 . S
Cd57 O61 2.439 . S
Cd57 O67 2.240 . S
Cd58 O59 2.240 . S
Cd58 O66 2.223 . S
Cd58 O68 2.297 . S
Cd58 O69 2.439 . S
O59 Cd58 2.240 . S
O59 C64 1.279 . S
O60 Cd57 2.297 . S
O60 C62 1.247 . S
O61 Cd57 2.439 . S
O61 C62 1.208 . S
C62 O60 1.247 . S
C62 O61 1.208 . S
C63 O68 1.247 . S
C63 O69 1.208 . S
C64 O56 1.315 . S
C64 O59 1.279 . S
C65 O66 1.315 . S
C65 O67 1.279 . S
O66 Cd58 2.223 . S
O66 C65 1.315 . S
O67 Cd57 2.240 . S
O67 C65 1.279 . S
O68 Cd58 2.297 . S
O68 C63 1.247 . S
O69 Cd58 2.439 . S
O69 C63 1.208 . S
O70 Cd71 2.223 . S
O70 C78 1.315 . S
Cd71 O70 2.223 . S
Cd71 O74 2.297 . S
Cd71 O75 2.439 . S
Cd71 O81 2.240 . S
Cd72 O73 2.240 . S
Cd72 O80 2.223 . S
Cd72 O82 2.297 . S
Cd72 O83 2.439 . S
O73 Cd72 2.240 . S
O73 C78 1.279 . S
O74 Cd71 2.297 . S
O74 C76 1.247 . S
O75 Cd71 2.439 . S
O75 C76 1.208 . S
C76 O74 1.247 . S
C76 O75 1.208 . S
C77 O82 1.247 . S
C77 O83 1.208 . S
C78 O70 1.315 . S
C78 O73 1.279 . S
C79 O80 1.315 . S
C79 O81 1.279 . S
O80 Cd72 2.223 . S
O80 C79 1.315 . S
O81 Cd71 2.240 . S
O81 C79 1.279 . S
O82 Cd72 2.297 . S
O82 C77 1.247 . S
O83 Cd72 2.439 . S
O83 C77 1.208 . S
O84 Cd85 2.223 . S
O84 C92 1.315 . S
Cd85 O84 2.223 . S
Cd85 O88 2.297 . S
Cd85 O89 2.439 . S
Cd85 O95 2.240 . S
Cd86 O87 2.240 . S
Cd86 O94 2.223 . S
Cd86 O96 2.297 . S
Cd86 O97 2.439 . S
O87 Cd86 2.240 . S
O87 C92 1.279 . S
O88 Cd85 2.297 . S
O88 C90 1.247 . S
O89 Cd85 2.439 . S
O89 C90 1.208 . S
C90 O88 1.247 . S
C90 O89 1.208 . S
C91 O96 1.247 . S
C91 O97 1.208 . S
C92 O84 1.315 . S
C92 O87 1.279 . S
C93 O94 1.315 . S
C93 O95 1.279 . S
O94 Cd86 2.223 . S
O94 C93 1.315 . S
O95 Cd85 2.240 . S
O95 C93 1.279 . S
O96 Cd86 2.297 . S
O96 C91 1.247 . S
O97 Cd86 2.439 . S
O97 C91 1.208 . S
O98 Cd99 2.220 1_556 S
O98 C106 1.310 1_556 S
Cd99 O98 2.220 1_554 S
Cd99 O102 2.297 . S
Cd99 O103 2.439 . S
Cd99 O109 2.240 . S
Cd100 O101 2.240 . S
Cd100 O108 2.223 . S
Cd100 O110 2.297 . S
Cd100 O111 2.439 . S
O101 Cd100 2.240 . S
O101 C106 1.279 . S
O102 Cd99 2.297 . S
O102 C104 1.247 . S
O103 Cd99 2.439 . S
O103 C104 1.208 . S
C104 O102 1.247 . S
C104 O103 1.208 . S
C105 O110 1.247 . S
C105 O111 1.208 . S
C106 O98 1.310 1_554 S
C106 O101 1.279 . S
C107 O108 1.315 . S
C107 O109 1.279 . S
O108 Cd100 2.223 . S
O108 C107 1.315 . S
O109 Cd99 2.240 . S
O109 C107 1.279 . S
O110 Cd100 2.297 . S
O110 C105 1.247 . S
O111 Cd100 2.439 . S
O111 C105 1.208 . S
O112 Cd113 2.223 . S
O112 C120 1.315 . S
Cd113 O112 2.223 . S
Cd113 O116 2.297 . S
Cd113 O117 2.439 . S
Cd113 O123 2.240 . S
Cd114 O115 2.240 . S
Cd114 O122 2.223 . S
Cd114 O124 2.297 . S
Cd114 O125 2.439 . S
O115 Cd114 2.240 . S
O115 C120 1.279 . S
O116 Cd113 2.297 . S
O116 C118 1.247 . S
O117 Cd113 2.439 . S
O117 C118 1.208 . S
C118 O116 1.247 . S
C118 O117 1.208 . S
C119 O124 1.247 . S
C119 O125 1.208 . S
C120 O112 1.315 . S
C120 O115 1.279 . S
C121 O122 1.315 . S
C121 O123 1.279 . S
O122 Cd114 2.223 . S
O122 C121 1.315 . S
O123 Cd113 2.240 . S
O123 C121 1.279 . S
O124 Cd114 2.297 . S
O124 C119 1.247 . S
O125 Cd114 2.439 . S
O125 C119 1.208 . S
O126 Cd127 2.223 . S
O126 C134 1.315 . S
Cd127 O126 2.223 . S
Cd127 O130 2.297 . S
Cd127 O131 2.439 . S
Cd127 O137 2.240 . S
Cd128 O129 2.240 . S
Cd128 O136 2.223 . S
Cd128 O138 2.297 . S
Cd128 O139 2.439 . S
O129 Cd128 2.240 . S
O129 C134 1.279 . S
O130 Cd127 2.297 . S
O130 C132 1.247 . S
O131 Cd127 2.439 . S
O131 C132 1.208 . S
C132 O130 1.247 . S
C132 O131 1.208 . S
C133 O138 1.247 . S
C133 O139 1.208 . S
C134 O126 1.315 . S
C134 O129 1.279 . S
C135 O136 1.315 . S
C135 O137 1.279 . S
O136 Cd128 2.223 . S
O136 C135 1.315 . S
O137 Cd127 2.240 . S
O137 C135 1.279 . S
O138 Cd128 2.297 . S
O138 C133 1.247 . S
O139 Cd128 2.439 . S
O139 C133 1.208 . S
O140 Cd141 2.223 . S
O140 C148 1.315 . S
Cd141 O140 2.223 . S
Cd141 O144 2.297 . S
Cd141 O145 2.439 . S
Cd141 O151 2.240 . S
Cd142 O143 2.240 . S
Cd142 O150 2.223 . S
Cd142 O152 2.297 . S
Cd142 O153 2.439 . S
O143 Cd142 2.240 . S
O143 C148 1.279 . S
O144 Cd141 2.297 . S
O144 C146 1.247 . S
O145 Cd141 2.439 . S
O145 C146 1.208 . S
C146 O144 1.247 . S
C146 O145 1.208 . S
C147 O152 1.247 . S
C147 O153 1.208 . S
C148 O140 1.315 . S
C148 O143 1.279 . S
C149 O150 1.315 . S
C149 O151 1.279 . S
O150 Cd142 2.223 . S
O150 C149 1.315 . S
O151 Cd141 2.240 . S
O151 C149 1.279 . S
O152 Cd142 2.297 . S
O152 C147 1.247 . S
O153 Cd142 2.439 . S
O153 C147 1.208 . S
O154 Cd155 2.223 . S
O154 C162 1.315 . S
Cd155 O154 2.223 . S
Cd155 O158 2.297 . S
Cd155 O159 2.439 . S
Cd155 O165 2.240 . S
Cd156 O157 2.240 . S
Cd156 O164 2.223 . S
Cd156 O166 2.297 . S
Cd156 O167 2.439 . S
O157 Cd156 2.240 . S
O157 C162 1.279 . S
O158 Cd155 2.297 . S
O158 C160 1.247 . S
O159 Cd155 2.439 . S
O159 C160 1.208 . S
C160 O158 1.247 . S
C160 O159 1.208 . S
C161 O166 1.247 . S
C161 O167 1.208 . S
C162 O154 1.315 . S
C162 O157 1.279 . S
C163 O164 1.315 . S
C163 O165 1.279 . S
O164 Cd156 2.223 . S
O164 C163 1.315 . S
O165 Cd155 2.240 . S
O165 C163 1.279 . S
O166 Cd156 2.297 . S
O166 C161 1.247 . S
O167 Cd156 2.439 . S
O167 C161 1.208 . S
H168 C176 0.929 . S
H169 C178 0.930 . S
H170 C180 0.930 . S
H171 C183 0.929 . S
H172 C186 0.930 . S
H173 C188 0.960 . S
H174 C188 0.960 . S
H175 C188 0.960 . S
C176 H168 0.929 . S
C176 C177 1.377 . S
C176 C178 1.384 . S
C177 C176 1.377 . S
C177 C183 1.390 . S
C178 H169 0.930 . S
C178 C176 1.384 . S
C178 C179 1.372 . S
C179 C178 1.372 . S
C179 C180 1.400 . S
C179 C184 1.490 . S
C180 H170 0.930 . S
C180 C179 1.400 . S
C180 C183 1.386 . S
H181 C197 0.930 . S
H182 C198 0.931 . S
C183 H171 0.929 . S
C183 C177 1.390 . S
C183 C180 1.386 . S
C184 C179 1.490 . S
C184 C186 1.395 . S
C184 C187 1.403 . S
H185 C191 0.930 . S
C186 H172 0.930 . S
C186 C184 1.395 . S
C186 C189 1.403 . S
C187 C184 1.403 . S
C187 C188 1.524 . S
C187 C191 1.400 . S
C188 H173 0.960 . S
C188 H174 0.960 . S
C188 H175 0.960 . S
C188 C187 1.524 . S
C189 C186 1.403 . S
C189 C190 1.392 . S
C189 C193 1.495 . S
C190 C189 1.392 . S
C190 C191 1.385 . S
C190 C192 1.478 . S
C191 H185 0.930 . S
C191 C187 1.400 . S
C191 C190 1.385 . S
C192 C190 1.478 . S
C192 C194 1.381 . S
C192 C198 1.383 . S
C193 C189 1.495 . S
C193 H199 0.959 . S
C193 H200 0.961 . S
C193 H201 0.960 . S
C194 C192 1.381 . S
C194 C195 1.394 . S
C194 H202 0.930 . S
C195 C194 1.394 . S
C195 C196 1.383 . S
C195 H203 0.929 . S
C196 C195 1.383 . S
C196 C197 1.377 . S
C197 H181 0.930 . S
C197 C196 1.377 . S
C197 C198 1.379 . S
C198 H182 0.931 . S
C198 C192 1.383 . S
C198 C197 1.379 . S
H199 C193 0.959 . S
H200 C193 0.961 . S
H201 C193 0.960 . S
H202 C194 0.930 . S
H203 C195 0.929 . S
H204 C212 0.929 . S
H205 C214 0.930 . S
H206 C216 0.930 . S
H207 C219 0.929 . S
H208 C222 0.930 . S
H209 C224 0.960 . S
H210 C224 0.960 . S
H211 C224 0.960 . S
C212 H204 0.929 . S
C212 C213 1.377 . S
C212 C214 1.384 . S
C213 C212 1.377 . S
C213 C219 1.390 . S
C214 H205 0.930 . S
C214 C212 1.384 . S
C214 C215 1.372 . S
C215 C214 1.372 . S
C215 C216 1.400 . S
C215 C220 1.490 . S
C216 H206 0.930 . S
C216 C215 1.400 . S
C216 C219 1.386 . S
H217 C233 0.930 . S
H218 C234 0.931 . S
C219 H207 0.929 . S
C219 C213 1.390 . S
C219 C216 1.386 . S
C220 C215 1.490 . S
C220 C222 1.395 . S
C220 C223 1.403 . S
H221 C227 0.930 . S
C222 H208 0.930 . S
C222 C220 1.395 . S
C222 C225 1.403 . S
C223 C220 1.403 . S
C223 C224 1.524 . S
C223 C227 1.400 . S
C224 H209 0.960 . S
C224 H210 0.960 . S
C224 H211 0.960 . S
C224 C223 1.524 . S
C225 C222 1.403 . S
C225 C226 1.392 . S
C225 C229 1.495 . S
C226 C225 1.392 . S
C226 C227 1.385 . S
C226 C228 1.478 . S
C227 H221 0.930 . S
C227 C223 1.400 . S
C227 C226 1.385 . S
C228 C226 1.478 . S
C228 C230 1.381 . S
C228 C234 1.383 . S
C229 C225 1.495 . S
C229 H235 0.959 . S
C229 H236 0.961 . S
C229 H237 0.960 . S
C230 C228 1.381 . S
C230 C231 1.394 . S
C230 H238 0.930 . S
C231 C230 1.394 . S
C231 C232 1.383 . S
C231 H239 0.929 . S
C232 C231 1.383 . S
C232 C233 1.377 . S
C233 H217 0.930 . S
C233 C232 1.377 . S
C233 C234 1.379 . S
C234 H218 0.931 . S
C234 C228 1.383 . S
C234 C233 1.379 . S
H235 C229 0.959 . S
H236 C229 0.961 . S
H237 C229 0.960 . S
H238 C230 0.930 . S
H239 C231 0.929 . S
H240 C248 0.929 . S
H241 C250 0.930 . S
H242 C252 0.930 . S
H243 C255 0.929 . S
H244 C258 0.930 . S
H245 C260 0.960 . S
H246 C260 0.960 . S
H247 C260 0.960 . S
C248 H240 0.929 . S
C248 C249 1.377 . S
C248 C250 1.384 . S
C249 C248 1.377 . S
C249 C255 1.390 . S
C250 H241 0.930 . S
C250 C248 1.384 . S
C250 C251 1.372 . S
C251 C250 1.372 . S
C251 C252 1.400 . S
C251 C256 1.490 . S
C252 H242 0.930 . S
C252 C251 1.400 . S
C252 C255 1.386 . S
H253 C269 0.930 . S
H254 C270 0.931 . S
C255 H243 0.929 . S
C255 C249 1.390 . S
C255 C252 1.386 . S
C256 C251 1.490 . S
C256 C258 1.395 . S
C256 C259 1.403 . S
H257 C263 0.930 . S
C258 H244 0.930 . S
C258 C256 1.395 . S
C258 C261 1.403 . S
C259 C256 1.403 . S
C259 C260 1.524 . S
C259 C263 1.400 . S
C260 H245 0.960 . S
C260 H246 0.960 . S
C260 H247 0.960 . S
C260 C259 1.524 . S
C261 C258 1.403 . S
C261 C262 1.392 . S
C261 C265 1.495 . S
C262 C261 1.392 . S
C262 C263 1.385 . S
C262 C264 1.478 . S
C263 H257 0.930 . S
C263 C259 1.400 . S
C263 C262 1.385 . S
C264 C262 1.478 . S
C264 C266 1.381 . S
C264 C270 1.383 . S
C265 C261 1.495 . S
C265 H271 0.959 . S
C265 H272 0.961 . S
C265 H273 0.960 . S
C266 C264 1.381 . S
C266 C267 1.394 . S
C266 H274 0.930 . S
C267 C266 1.394 . S
C267 C268 1.383 . S
C267 H275 0.929 . S
C268 C267 1.383 . S
C268 C269 1.377 . S
C269 H253 0.930 . S
C269 C268 1.377 . S
C269 C270 1.379 . S
C270 H254 0.931 . S
C270 C264 1.383 . S
C270 C269 1.379 . S
H271 C265 0.959 . S
H272 C265 0.961 . S
H273 C265 0.960 . S
H274 C266 0.930 . S
H275 C267 0.929 . S
H276 C284 0.929 . S
H277 C286 0.930 . S
H278 C288 0.930 . S
H279 C291 0.929 . S
H280 C294 0.930 . S
H281 C296 0.960 . S
H282 C296 0.960 . S
H283 C296 0.960 . S
C284 H276 0.929 . S
C284 C285 1.377 . S
C284 C286 1.384 . S
C285 C284 1.377 . S
C285 C291 1.390 . S
C286 H277 0.930 . S
C286 C284 1.384 . S
C286 C287 1.372 . S
C287 C286 1.372 . S
C287 C288 1.400 . S
C287 C292 1.490 . S
C288 H278 0.930 . S
C288 C287 1.400 . S
C288 C291 1.386 . S
H289 C305 0.930 . S
H290 C306 0.931 . S
C291 H279 0.929 . S
C291 C285 1.390 . S
C291 C288 1.386 . S
C292 C287 1.490 . S
C292 C294 1.395 . S
C292 C295 1.403 . S
H293 C299 0.930 . S
C294 H280 0.930 . S
C294 C292 1.395 . S
C294 C297 1.403 . S
C295 C292 1.403 . S
C295 C296 1.524 . S
C295 C299 1.400 . S
C296 H281 0.960 . S
C296 H282 0.960 . S
C296 H283 0.960 . S
C296 C295 1.524 . S
C297 C294 1.403 . S
C297 C298 1.392 . S
C297 C301 1.495 . S
C298 C297 1.392 . S
C298 C299 1.385 . S
C298 C300 1.478 . S
C299 H293 0.930 . S
C299 C295 1.400 . S
C299 C298 1.385 . S
C300 C298 1.478 . S
C300 C302 1.381 . S
C300 C306 1.383 . S
C301 C297 1.495 . S
C301 H307 0.959 . S
C301 H308 0.961 . S
C301 H309 0.960 . S
C302 C300 1.381 . S
C302 C303 1.394 . S
C302 H310 0.930 . S
C303 C302 1.394 . S
C303 C304 1.383 . S
C303 H311 0.929 . S
C304 C303 1.383 . S
C304 C305 1.377 . S
C305 H289 0.930 . S
C305 C304 1.377 . S
C305 C306 1.379 . S
C306 H290 0.931 . S
C306 C300 1.383 . S
C306 C305 1.379 . S
H307 C301 0.959 . S
H308 C301 0.961 . S
H309 C301 0.960 . S
H310 C302 0.930 . S
H311 C303 0.929 . S
H312 C320 0.929 . S
H313 C322 0.930 . S
H314 C324 0.930 . S
H315 C327 0.929 . S
H316 C330 0.930 . S
H317 C332 0.960 . S
H318 C332 0.960 . S
H319 C332 0.960 . S
C320 H312 0.929 . S
C320 C321 1.377 . S
C320 C322 1.384 . S
C321 C320 1.377 . S
C321 C327 1.390 . S
C322 H313 0.930 . S
C322 C320 1.384 . S
C322 C323 1.372 . S
C323 C322 1.372 . S
C323 C324 1.400 . S
C323 C328 1.490 . S
C324 H314 0.930 . S
C324 C323 1.400 . S
C324 C327 1.386 . S
H325 C341 0.930 . S
H326 C342 0.931 . S
C327 H315 0.929 . S
C327 C321 1.390 . S
C327 C324 1.386 . S
C328 C323 1.490 . S
C328 C330 1.395 . S
C328 C331 1.403 . S
H329 C335 0.930 . S
C330 H316 0.930 . S
C330 C328 1.395 . S
C330 C333 1.403 1_556 S
C331 C328 1.403 . S
C331 C332 1.524 . S
C331 C335 1.400 . S
C332 H317 0.960 . S
C332 H318 0.960 . S
C332 H319 0.960 . S
C332 C331 1.524 . S
C333 C330 1.403 1_554 S
C333 C334 1.392 . S
C333 C337 1.495 . S
C334 C333 1.392 . S
C334 C335 1.385 1_554 S
C334 C336 1.478 . S
C335 H329 0.930 . S
C335 C331 1.400 . S
C335 C334 1.385 1_556 S
C336 C334 1.478 . S
C336 C338 1.381 . S
C336 C342 1.383 . S
C337 C333 1.495 . S
C337 H343 0.959 . S
C337 H344 0.961 . S
C337 H345 0.960 . S
C338 C336 1.381 . S
C338 C339 1.394 . S
C338 H346 0.930 . S
C339 C338 1.394 . S
C339 C340 1.383 . S
C339 H347 0.929 . S
C340 C339 1.383 . S
C340 C341 1.377 . S
C341 H325 0.930 . S
C341 C340 1.377 . S
C341 C342 1.379 . S
C342 H326 0.931 . S
C342 C336 1.383 . S
C342 C341 1.379 . S
H343 C337 0.959 . S
H344 C337 0.961 . S
H345 C337 0.960 . S
H346 C338 0.930 . S
H347 C339 0.929 . S
H348 C356 0.929 . S
H349 C358 0.930 . S
H350 C360 0.930 . S
H351 C363 0.929 . S
H352 C366 0.930 . S
H353 C368 0.960 . S
H354 C368 0.960 . S
H355 C368 0.960 . S
C356 H348 0.929 . S
C356 C357 1.377 . S
C356 C358 1.384 . S
C357 C356 1.377 . S
C357 C363 1.390 . S
C358 H349 0.930 . S
C358 C356 1.384 . S
C358 C359 1.372 . S
C359 C358 1.372 . S
C359 C360 1.400 . S
C359 C364 1.490 . S
C360 H350 0.930 . S
C360 C359 1.400 . S
C360 C363 1.386 . S
H361 C377 0.930 . S
H362 C378 0.931 . S
C363 H351 0.929 . S
C363 C357 1.390 . S
C363 C360 1.386 . S
C364 C359 1.490 . S
C364 C366 1.395 . S
C364 C367 1.403 . S
H365 C371 0.930 . S
C366 H352 0.930 . S
C366 C364 1.395 . S
C366 C369 1.403 . S
C367 C364 1.403 . S
C367 C368 1.524 . S
C367 C371 1.400 . S
C368 H353 0.960 . S
C368 H354 0.960 . S
C368 H355 0.960 . S
C368 C367 1.524 . S
C369 C366 1.403 . S
C369 C370 1.392 . S
C369 C373 1.495 . S
C370 C369 1.392 . S
C370 C371 1.385 . S
C370 C372 1.478 . S
C371 H365 0.930 . S
C371 C367 1.400 . S
C371 C370 1.385 . S
C372 C370 1.478 . S
C372 C374 1.381 . S
C372 C378 1.383 . S
C373 C369 1.495 . S
C373 H379 0.959 . S
C373 H380 0.961 . S
C373 H381 0.960 . S
C374 C372 1.381 . S
C374 C375 1.394 1_554 S
C374 H382 0.930 . S
C375 C374 1.394 1_556 S
C375 C376 1.384 . S
C375 H383 0.929 . S
C376 C375 1.384 . S
C376 C377 1.368 1_556 S
C377 H361 0.930 . S
C377 C376 1.368 1_554 S
C377 C378 1.379 . S
C378 H362 0.931 . S
C378 C372 1.383 . S
C378 C377 1.379 . S
H379 C373 0.959 . S
H380 C373 0.961 . S
H381 C373 0.960 . S
H382 C374 0.930 . S
H383 C375 0.929 . S
H384 C392 0.929 . S
H385 C394 0.930 . S
H386 C396 0.930 . S
H387 C399 0.929 . S
H388 C402 0.930 . S
H389 C404 0.960 . S
H390 C404 0.960 . S
H391 C404 0.960 . S
C392 H384 0.929 . S
C392 C393 1.377 . S
C392 C394 1.384 . S
C393 C392 1.377 . S
C393 C399 1.390 . S
C394 H385 0.930 . S
C394 C392 1.384 . S
C394 C395 1.372 . S
C395 C394 1.372 . S
C395 C396 1.400 . S
C395 C400 1.490 . S
C396 H386 0.930 . S
C396 C395 1.400 . S
C396 C399 1.386 . S
H397 C413 0.930 . S
H398 C414 0.931 . S
C399 H387 0.929 . S
C399 C393 1.390 . S
C399 C396 1.386 . S
C400 C395 1.490 . S
C400 C402 1.395 . S
C400 C403 1.403 . S
H401 C407 0.930 . S
C402 H388 0.930 . S
C402 C400 1.395 . S
C402 C405 1.403 . S
C403 C400 1.403 . S
C403 C404 1.524 . S
C403 C407 1.400 . S
C404 H389 0.960 . S
C404 H390 0.960 . S
C404 H391 0.960 . S
C404 C403 1.524 . S
C405 C402 1.403 . S
C405 C406 1.392 . S
C405 C409 1.495 . S
C406 C405 1.392 . S
C406 C407 1.385 . S
C406 C408 1.478 . S
C407 H401 0.930 . S
C407 C403 1.400 . S
C407 C406 1.385 . S
C408 C406 1.478 . S
C408 C410 1.381 . S
C408 C414 1.383 . S
C409 C405 1.495 . S
C409 H415 0.959 . S
C409 H416 0.961 . S
C409 H417 0.960 . S
C410 C408 1.381 . S
C410 C411 1.394 . S
C410 H418 0.930 . S
C411 C410 1.394 . S
C411 C412 1.383 . S
C411 H419 0.929 . S
C412 C411 1.383 . S
C412 C413 1.377 . S
C413 H397 0.930 . S
C413 C412 1.377 . S
C413 C414 1.379 . S
C414 H398 0.931 . S
C414 C408 1.383 . S
C414 C413 1.379 . S
H415 C409 0.959 . S
H416 C409 0.961 . S
H417 C409 0.960 . S
H418 C410 0.930 . S
H419 C411 0.929 . S
H420 C428 0.929 . S
H421 C430 0.930 . S
H422 C432 0.930 . S
H423 C435 0.929 . S
H424 C438 0.930 . S
H425 C440 0.960 . S
H426 C440 0.960 . S
H427 C440 0.960 . S
C428 H420 0.929 . S
C428 C429 1.377 . S
C428 C430 1.384 . S
C429 C428 1.377 . S
C429 C435 1.390 . S
C430 H421 0.930 . S
C430 C428 1.384 . S
C430 C431 1.372 . S
C431 C430 1.372 . S
C431 C432 1.400 . S
C431 C436 1.490 . S
C432 H422 0.930 . S
C432 C431 1.400 . S
C432 C435 1.386 . S
H433 C449 0.930 . S
H434 C450 0.931 . S
C435 H423 0.929 . S
C435 C429 1.390 . S
C435 C432 1.386 . S
C436 C431 1.490 . S
C436 C438 1.395 . S
C436 C439 1.403 . S
H437 C443 0.930 . S
C438 H424 0.930 . S
C438 C436 1.395 . S
C438 C441 1.403 . S
C439 C436 1.403 . S
C439 C440 1.524 . S
C439 C443 1.400 . S
C440 H425 0.960 . S
C440 H426 0.960 . S
C440 H427 0.960 . S
C440 C439 1.524 . S
C441 C438 1.403 . S
C441 C442 1.392 . S
C441 C445 1.495 . S
C442 C441 1.392 . S
C442 C443 1.385 . S
C442 C444 1.478 . S
C443 H437 0.930 . S
C443 C439 1.400 . S
C443 C442 1.385 . S
C444 C442 1.478 . S
C444 C446 1.381 . S
C444 C450 1.383 . S
C445 C441 1.495 . S
C445 H451 0.959 . S
C445 H452 0.961 . S
C445 H453 0.960 . S
C446 C444 1.381 . S
C446 C447 1.394 . S
C446 H454 0.930 . S
C447 C446 1.394 . S
C447 C448 1.383 . S
C447 H455 0.929 . S
C448 C447 1.383 . S
C448 C449 1.377 . S
C449 H433 0.930 . S
C449 C448 1.377 . S
C449 C450 1.379 . S
C450 H434 0.931 . S
C450 C444 1.383 . S
C450 C449 1.379 . S
H451 C445 0.959 . S
H452 C445 0.961 . S
H453 C445 0.960 . S
H454 C446 0.930 . S
H455 C447 0.929 . S
H456 C464 0.929 . S
H457 C466 0.930 . S
H458 C468 0.930 . S
H459 C471 0.929 . S
H460 C474 0.930 . S
H461 C476 0.960 . S
H462 C476 0.960 . S
H463 C476 0.960 . S
C464 H456 0.929 . S
C464 C465 1.377 . S
C464 C466 1.384 . S
C465 C464 1.377 . S
C465 C471 1.390 . S
C466 H457 0.930 . S
C466 C464 1.384 . S
C466 C467 1.372 . S
C467 C466 1.372 . S
C467 C468 1.400 . S
C467 C472 1.490 . S
C468 H458 0.930 . S
C468 C467 1.400 . S
C468 C471 1.386 . S
H469 C485 0.930 . S
H470 C486 0.931 . S
C471 H459 0.929 . S
C471 C465 1.390 . S
C471 C468 1.386 . S
C472 C467 1.490 . S
C472 C474 1.395 . S
C472 C475 1.403 . S
H473 C479 0.930 . S
C474 H460 0.930 . S
C474 C472 1.395 . S
C474 C477 1.403 . S
C475 C472 1.403 . S
C475 C476 1.524 . S
C475 C479 1.400 . S
C476 H461 0.960 . S
C476 H462 0.960 . S
C476 H463 0.960 . S
C476 C475 1.524 . S
C477 C474 1.403 . S
C477 C478 1.392 . S
C477 C481 1.495 . S
C478 C477 1.392 . S
C478 C479 1.385 . S
C478 C480 1.478 . S
C479 H473 0.930 . S
C479 C475 1.400 . S
C479 C478 1.385 . S
C480 C478 1.478 . S
C480 C482 1.381 . S
C480 C486 1.383 . S
C481 C477 1.495 . S
C481 H487 0.959 . S
C481 H488 0.961 . S
C481 H489 0.960 . S
C482 C480 1.381 . S
C482 C483 1.394 . S
C482 H490 0.930 . S
C483 C482 1.394 . S
C483 C484 1.383 . S
C483 H491 0.929 . S
C484 C483 1.383 . S
C484 C485 1.377 . S
C485 H469 0.930 . S
C485 C484 1.377 . S
C485 C486 1.379 . S
C486 H470 0.931 . S
C486 C480 1.383 . S
C486 C485 1.379 . S
H487 C481 0.959 . S
H488 C481 0.961 . S
H489 C481 0.960 . S
H490 C482 0.930 . S
H491 C483 0.929 . S
H492 C500 0.929 . S
H493 C502 0.930 . S
H494 C504 0.930 . S
H495 C507 0.929 . S
H496 C510 0.930 . S
H497 C512 0.960 . S
H498 C512 0.960 . S
H499 C512 0.960 . S
C500 H492 0.929 . S
C500 C501 1.377 . S
C500 C502 1.384 . S
C501 C500 1.377 . S
C501 C507 1.390 . S
C502 H493 0.930 . S
C502 C500 1.384 . S
C502 C503 1.372 . S
C503 C502 1.372 . S
C503 C504 1.400 . S
C503 C508 1.490 . S
C504 H494 0.930 . S
C504 C503 1.400 . S
C504 C507 1.386 . S
H505 C521 0.930 . S
H506 C522 0.931 . S
C507 H495 0.929 . S
C507 C501 1.390 . S
C507 C504 1.386 . S
C508 C503 1.490 . S
C508 C510 1.395 . S
C508 C511 1.403 . S
H509 C515 0.930 . S
C510 H496 0.930 . S
C510 C508 1.395 . S
C510 C513 1.403 . S
C511 C508 1.403 . S
C511 C512 1.524 . S
C511 C515 1.400 . S
C512 H497 0.960 . S
C512 H498 0.960 . S
C512 H499 0.960 . S
C512 C511 1.524 . S
C513 C510 1.403 . S
C513 C514 1.392 . S
C513 C517 1.495 . S
C514 C513 1.392 . S
C514 C515 1.385 . S
C514 C516 1.478 . S
C515 H509 0.930 . S
C515 C511 1.400 . S
C515 C514 1.385 . S
C516 C514 1.478 . S
C516 C518 1.381 . S
C516 C522 1.383 . S
C517 C513 1.495 . S
C517 H523 0.959 . S
C517 H524 0.961 . S
C517 H525 0.960 . S
C518 C516 1.381 . S
C518 C519 1.394 . S
C518 H526 0.930 . S
C519 C518 1.394 . S
C519 C520 1.383 . S
C519 H527 0.929 . S
C520 C519 1.383 . S
C520 C521 1.377 . S
C521 H505 0.930 . S
C521 C520 1.377 . S
C521 C522 1.379 . S
C522 H506 0.931 . S
C522 C516 1.383 . S
C522 C521 1.379 . S
H523 C517 0.959 . S
H524 C517 0.961 . S
H525 C517 0.960 . S
H526 C518 0.930 . S
H527 C519 0.929 . S
H528 C536 0.929 . S
H529 C538 0.930 . S
H530 C540 0.930 . S
H531 C543 0.929 . S
H532 C546 0.930 . S
H533 C548 0.960 . S
H534 C548 0.960 . S
H535 C548 0.960 . S
C536 H528 0.929 . S
C536 C537 1.377 . S
C536 C538 1.384 . S
C537 C536 1.377 . S
C537 C543 1.390 . S
C538 H529 0.930 . S
C538 C536 1.384 . S
C538 C539 1.372 . S
C539 C538 1.372 . S
C539 C540 1.400 . S
C539 C544 1.490 . S
C540 H530 0.930 . S
C540 C539 1.400 . S
C540 C543 1.386 . S
H541 C557 0.930 . S
H542 C558 0.931 . S
C543 H531 0.929 . S
C543 C537 1.390 . S
C543 C540 1.386 . S
C544 C539 1.490 . S
C544 C546 1.395 . S
C544 C547 1.403 . S
H545 C551 0.930 . S
C546 H532 0.930 . S
C546 C544 1.395 . S
C546 C549 1.403 . S
C547 C544 1.403 . S
C547 C548 1.524 . S
C547 C551 1.400 . S
C548 H533 0.960 . S
C548 H534 0.960 . S
C548 H535 0.960 . S
C548 C547 1.524 . S
C549 C546 1.403 . S
C549 C550 1.392 . S
C549 C553 1.495 . S
C550 C549 1.392 . S
C550 C551 1.385 . S
C550 C552 1.478 . S
C551 H545 0.930 . S
C551 C547 1.400 . S
C551 C550 1.385 . S
C552 C550 1.478 . S
C552 C554 1.381 . S
C552 C558 1.383 . S
C553 C549 1.495 . S
C553 H559 0.959 . S
C553 H560 0.961 . S
C553 H561 0.960 . S
C554 C552 1.381 . S
C554 C555 1.394 . S
C554 H562 0.930 . S
C555 C554 1.394 . S
C555 C556 1.383 . S
C555 H563 0.929 . S
C556 C555 1.383 . S
C556 C557 1.377 . S
C557 H541 0.930 . S
C557 C556 1.377 . S
C557 C558 1.379 . S
C558 H542 0.931 . S
C558 C552 1.383 . S
C558 C557 1.379 . S
H559 C553 0.959 . S
H560 C553 0.961 . S
H561 C553 0.960 . S
H562 C554 0.930 . S
H563 C555 0.929 . S
H564 C572 0.929 . S
H565 C574 0.930 1_554 S
H566 C576 0.930 . S
H567 C579 0.929 . S
H568 C582 0.930 . S
H569 C584 0.960 . S
H570 C584 0.960 . S
H571 C584 0.960 . S
C572 H564 0.929 . S
C572 C573 1.377 . S
C572 C574 1.384 . S
C573 C572 1.377 . S
C573 C579 1.390 . S
C574 H565 0.930 1_556 S
C574 C572 1.384 . S
C574 C575 1.372 . S
C575 C574 1.372 . S
C575 C576 1.400 . S
C575 C580 1.490 . S
C576 H566 0.930 . S
C576 C575 1.400 . S
C576 C579 1.386 . S
H577 C593 0.930 . S
H578 C594 0.931 . S
C579 H567 0.929 . S
C579 C573 1.390 . S
C579 C576 1.386 . S
C580 C575 1.490 . S
C580 C582 1.395 . S
C580 C583 1.403 . S
H581 C587 0.930 . S
C582 H568 0.930 . S
C582 C580 1.395 . S
C582 C585 1.403 . S
C583 C580 1.403 . S
C583 C584 1.524 . S
C583 C587 1.400 . S
C584 H569 0.960 . S
C584 H570 0.960 . S
C584 H571 0.960 . S
C584 C583 1.524 . S
C585 C582 1.403 . S
C585 C586 1.392 . S
C585 C589 1.495 . S
C586 C585 1.392 . S
C586 C587 1.385 . S
C586 C588 1.478 . S
C587 H581 0.930 . S
C587 C583 1.400 . S
C587 C586 1.385 . S
C588 C586 1.478 . S
C588 C590 1.381 1_556 S
C588 C594 1.383 . S
C589 C585 1.495 . S
C589 H595 0.959 . S
C589 H596 0.961 . S
C589 H597 0.960 1_556 S
C590 C588 1.381 1_554 S
C590 C591 1.394 . S
C590 H598 0.930 . S
C591 C590 1.394 . S
C591 C592 1.383 . S
C591 H599 0.929 . S
C592 C591 1.383 . S
C592 C593 1.377 1_554 S
C593 H577 0.930 . S
C593 C592 1.377 1_556 S
C593 C594 1.379 . S
C594 H578 0.931 . S
C594 C588 1.383 . S
C594 C593 1.379 . S
H595 C589 0.959 . S
H596 C589 0.961 . S
H597 C589 0.960 1_554 S
H598 C590 0.930 . S
H599 C591 0.929 . S
H600 C608 0.929 . S
H601 C610 0.930 . S
H602 C612 0.930 . S
H603 C615 0.929 . S
H604 C618 0.930 . S
H605 C620 0.960 . S
H606 C620 0.960 . S
H607 C620 0.960 . S
C608 H600 0.929 . S
C608 C609 1.377 . S
C608 C610 1.384 . S
C609 C608 1.377 . S
C609 C615 1.390 . S
C610 H601 0.930 . S
C610 C608 1.384 . S
C610 C611 1.372 . S
C611 C610 1.372 . S
C611 C612 1.400 . S
C611 C616 1.490 . S
C612 H602 0.930 . S
C612 C611 1.400 . S
C612 C615 1.386 . S
H613 C629 0.930 . S
H614 C630 0.931 . S
C615 H603 0.929 . S
C615 C609 1.390 . S
C615 C612 1.386 . S
C616 C611 1.490 . S
C616 C618 1.395 . S
C616 C619 1.403 . S
H617 C623 0.930 . S
C618 H604 0.930 . S
C618 C616 1.395 . S
C618 C621 1.403 . S
C619 C616 1.403 . S
C619 C620 1.524 . S
C619 C623 1.400 . S
C620 H605 0.960 . S
C620 H606 0.960 . S
C620 H607 0.960 . S
C620 C619 1.524 . S
C621 C618 1.403 . S
C621 C622 1.392 . S
C621 C625 1.495 . S
C622 C621 1.392 . S
C622 C623 1.385 . S
C622 C624 1.478 . S
C623 H617 0.930 . S
C623 C619 1.400 . S
C623 C622 1.385 . S
C624 C622 1.478 . S
C624 C626 1.381 . S
C624 C630 1.383 . S
C625 C621 1.495 . S
C625 H631 0.959 . S
C625 H632 0.961 . S
C625 H633 0.960 . S
C626 C624 1.381 . S
C626 C627 1.394 . S
C626 H634 0.930 . S
C627 C626 1.394 . S
C627 C628 1.383 . S
C627 H635 0.929 . S
C628 C627 1.383 . S
C628 C629 1.377 . S
C629 H613 0.930 . S
C629 C628 1.377 . S
C629 C630 1.379 . S
C630 H614 0.931 . S
C630 C624 1.383 . S
C630 C629 1.379 . S
H631 C625 0.959 . S
H632 C625 0.961 . S
H633 C625 0.960 . S
H634 C626 0.930 . S
H635 C627 0.929 . S
H636 C644 0.929 . S
H637 C646 0.930 . S
H638 C648 0.930 . S
H639 C651 0.929 . S
H640 C654 0.930 . S
H641 C656 0.960 . S
H642 C656 0.960 . S
H643 C656 0.960 . S
C644 H636 0.929 . S
C644 C645 1.377 . S
C644 C646 1.384 . S
C645 C644 1.377 . S
C645 C651 1.390 . S
C646 H637 0.930 . S
C646 C644 1.384 . S
C646 C647 1.372 . S
C647 C646 1.372 . S
C647 C648 1.400 . S
C647 C652 1.490 . S
C648 H638 0.930 . S
C648 C647 1.400 . S
C648 C651 1.386 . S
H649 C665 0.930 . S
H650 C666 0.931 . S
C651 H639 0.929 . S
C651 C645 1.390 . S
C651 C648 1.386 . S
C652 C647 1.490 . S
C652 C654 1.395 1_554 S
C652 C655 1.403 . S
H653 C659 0.930 . S
C654 H640 0.930 . S
C654 C652 1.395 1_556 S
C654 C657 1.403 . S
C655 C652 1.403 . S
C655 C656 1.524 . S
C655 C659 1.400 1_554 S
C656 H641 0.960 . S
C656 H642 0.960 . S
C656 H643 0.960 . S
C656 C655 1.524 . S
C657 C654 1.403 . S
C657 C658 1.392 . S
C657 C661 1.495 . S
C658 C657 1.392 . S
C658 C659 1.385 . S
C658 C660 1.478 . S
C659 H653 0.930 . S
C659 C655 1.400 1_556 S
C659 C658 1.385 . S
C660 C658 1.478 . S
C660 C662 1.381 . S
C660 C666 1.383 . S
C661 C657 1.495 . S
C661 H667 0.959 . S
C661 H668 0.961 . S
C661 H669 0.960 . S
C662 C660 1.381 . S
C662 C663 1.394 . S
C662 H670 0.930 . S
C663 C662 1.394 . S
C663 C664 1.383 . S
C663 H671 0.929 . S
C664 C663 1.383 . S
C664 C665 1.377 . S
C665 H649 0.930 . S
C665 C664 1.377 . S
C665 C666 1.379 . S
C666 H650 0.931 . S
C666 C660 1.383 . S
C666 C665 1.379 . S
H667 C661 0.959 . S
H668 C661 0.961 . S
H669 C661 0.960 . S
H670 C662 0.930 . S
H671 C663 0.929 . S
H672 C680 0.929 . S
H673 C682 0.930 . S
H674 C684 0.930 . S
H675 C687 0.929 . S
H676 C690 0.930 . S
H677 C692 0.960 . S
H678 C692 0.960 . S
H679 C692 0.960 . S
C680 H672 0.929 . S
C680 C681 1.377 . S
C680 C682 1.384 . S
C681 C680 1.377 . S
C681 C687 1.390 . S
C682 H673 0.930 . S
C682 C680 1.384 . S
C682 C683 1.372 . S
C683 C682 1.372 . S
C683 C684 1.400 . S
C683 C688 1.490 . S
C684 H674 0.930 . S
C684 C683 1.400 . S
C684 C687 1.386 . S
H685 C701 0.930 1_556 S
H686 C702 0.931 . S
C687 H675 0.929 . S
C687 C681 1.390 . S
C687 C684 1.386 . S
C688 C683 1.490 . S
C688 C690 1.395 . S
C688 C691 1.403 . S
H689 C695 0.930 . S
C690 H676 0.930 . S
C690 C688 1.395 . S
C690 C693 1.403 . S
C691 C688 1.403 . S
C691 C692 1.524 . S
C691 C695 1.400 . S
C692 H677 0.960 . S
C692 H678 0.960 . S
C692 H679 0.960 . S
C692 C691 1.524 . S
C693 C690 1.403 . S
C693 C694 1.392 . S
C693 C697 1.495 . S
C694 C693 1.392 . S
C694 C695 1.385 . S
C694 C696 1.478 . S
C695 H689 0.930 . S
C695 C691 1.400 . S
C695 C694 1.385 . S
C696 C694 1.478 . S
C696 C698 1.381 . S
C696 C702 1.383 . S
C697 C693 1.495 . S
C697 H703 0.959 . S
C697 H704 0.961 . S
C697 H705 0.960 . S
C698 C696 1.381 . S
C698 C699 1.394 . S
C698 H706 0.930 . S
C699 C698 1.394 . S
C699 C700 1.383 1_554 S
C699 H707 0.929 . S
C700 C699 1.383 1_556 S
C700 C701 1.377 1_556 S
C701 H685 0.930 1_554 S
C701 C700 1.377 1_554 S
C701 C702 1.379 . S
C702 H686 0.931 . S
C702 C696 1.383 . S
C702 C701 1.379 . S
H703 C697 0.959 . S
H704 C697 0.961 . S
H705 C697 0.960 . S
H706 C698 0.930 . S
H707 C699 0.929 . S
H708 C716 0.929 . S
H709 C718 0.930 . S
H710 C720 0.930 . S
H711 C723 0.929 . S
H712 C726 0.930 . S
H713 C728 0.960 . S
H714 C728 0.960 . S
H715 C728 0.960 . S
C716 H708 0.929 . S
C716 C717 1.377 . S
C716 C718 1.384 . S
C717 C716 1.377 . S
C717 C723 1.390 . S
C718 H709 0.930 . S
C718 C716 1.384 . S
C718 C719 1.372 . S
C719 C718 1.372 . S
C719 C720 1.400 . S
C719 C724 1.490 . S
C720 H710 0.930 . S
C720 C719 1.400 . S
C720 C723 1.386 . S
H721 C737 0.930 . S
H722 C738 0.931 . S
C723 H711 0.929 . S
C723 C717 1.390 . S
C723 C720 1.386 . S
C724 C719 1.490 . S
C724 C726 1.395 . S
C724 C727 1.403 . S
H725 C731 0.930 . S
C726 H712 0.930 . S
C726 C724 1.395 . S
C726 C729 1.403 . S
C727 C724 1.403 . S
C727 C728 1.524 . S
C727 C731 1.400 . S
C728 H713 0.960 . S
C728 H714 0.960 . S
C728 H715 0.960 . S
C728 C727 1.524 . S
C729 C726 1.403 . S
C729 C730 1.392 . S
C729 C733 1.495 . S
C730 C729 1.392 . S
C730 C731 1.385 . S
C730 C732 1.478 . S
C731 H725 0.930 . S
C731 C727 1.400 . S
C731 C730 1.385 . S
C732 C730 1.478 . S
C732 C734 1.381 . S
C732 C738 1.383 . S
C733 C729 1.495 . S
C733 H739 0.959 . S
C733 H740 0.961 . S
C733 H741 0.960 . S
C734 C732 1.381 . S
C734 C735 1.394 . S
C734 H742 0.930 . S
C735 C734 1.394 . S
C735 C736 1.383 . S
C735 H743 0.929 . S
C736 C735 1.383 . S
C736 C737 1.377 . S
C737 H721 0.930 . S
C737 C736 1.377 . S
C737 C738 1.379 . S
C738 H722 0.931 . S
C738 C732 1.383 . S
C738 C737 1.379 . S
H739 C733 0.959 . S
H740 C733 0.961 . S
H741 C733 0.960 . S
H742 C734 0.930 . S
H743 C735 0.929 . S
H744 C752 0.929 . S
H745 C754 0.930 . S
H746 C756 0.930 . S
H747 C759 0.929 . S
H748 C762 0.930 . S
H749 C764 0.960 . S
H750 C764 0.960 . S
H751 C764 0.960 . S
C752 H744 0.929 . S
C752 C753 1.377 . S
C752 C754 1.384 . S
C753 C752 1.377 . S
C753 C759 1.390 . S
C754 H745 0.930 . S
C754 C752 1.384 . S
C754 C755 1.372 . S
C755 C754 1.372 . S
C755 C756 1.400 . S
C755 C760 1.490 . S
C756 H746 0.930 . S
C756 C755 1.400 . S
C756 C759 1.386 . S
H757 C773 0.930 . S
H758 C774 0.931 . S
C759 H747 0.929 . S
C759 C753 1.390 . S
C759 C756 1.386 . S
C760 C755 1.490 . S
C760 C762 1.395 . S
C760 C763 1.403 . S
H761 C767 0.930 . S
C762 H748 0.930 . S
C762 C760 1.395 . S
C762 C765 1.403 . S
C763 C760 1.403 . S
C763 C764 1.524 . S
C763 C767 1.400 . S
C764 H749 0.960 . S
C764 H750 0.960 . S
C764 H751 0.960 . S
C764 C763 1.524 . S
C765 C762 1.403 . S
C765 C766 1.392 . S
C765 C769 1.495 . S
C766 C765 1.392 . S
C766 C767 1.385 . S
C766 C768 1.478 . S
C767 H761 0.930 . S
C767 C763 1.400 . S
C767 C766 1.385 . S
C768 C766 1.478 . S
C768 C770 1.381 . S
C768 C774 1.383 . S
C769 C765 1.495 . S
C769 H775 0.959 . S
C769 H776 0.961 . S
C769 H777 0.960 . S
C770 C768 1.381 . S
C770 C771 1.394 . S
C770 H778 0.930 . S
C771 C770 1.394 . S
C771 C772 1.383 . S
C771 H779 0.929 . S
C772 C771 1.383 . S
C772 C773 1.377 . S
C773 H757 0.930 . S
C773 C772 1.377 . S
C773 C774 1.379 . S
C774 H758 0.931 . S
C774 C768 1.383 . S
C774 C773 1.379 . S
H775 C769 0.959 . S
H776 C769 0.961 . S
H777 C769 0.960 . S
H778 C770 0.930 . S
H779 C771 0.929 . S
H780 C788 0.929 . S
H781 C790 0.930 . S
H782 C792 0.930 . S
H783 C795 0.929 . S
H784 C798 0.930 . S
H785 C800 0.960 . S
H786 C800 0.960 . S
H787 C800 0.960 . S
C788 H780 0.929 . S
C788 C789 1.377 . S
C788 C790 1.384 . S
C789 C788 1.377 . S
C789 C795 1.390 . S
C790 H781 0.930 . S
C790 C788 1.384 . S
C790 C791 1.372 . S
C791 C790 1.372 . S
C791 C792 1.400 . S
C791 C796 1.490 . S
C792 H782 0.930 . S
C792 C791 1.400 . S
C792 C795 1.386 . S
H793 C809 0.930 . S
H794 C810 0.931 . S
C795 H783 0.929 . S
C795 C789 1.390 . S
C795 C792 1.386 . S
C796 C791 1.490 . S
C796 C798 1.395 . S
C796 C799 1.403 . S
H797 C803 0.930 . S
C798 H784 0.930 . S
C798 C796 1.395 . S
C798 C801 1.403 . S
C799 C796 1.403 . S
C799 C800 1.524 . S
C799 C803 1.400 . S
C800 H785 0.960 . S
C800 H786 0.960 . S
C800 H787 0.960 . S
C800 C799 1.524 . S
C801 C798 1.403 . S
C801 C802 1.392 . S
C801 C805 1.495 . S
C802 C801 1.392 . S
C802 C803 1.385 . S
C802 C804 1.478 . S
C803 H797 0.930 . S
C803 C799 1.400 . S
C803 C802 1.385 . S
C804 C802 1.478 . S
C804 C806 1.381 . S
C804 C810 1.383 . S
C805 C801 1.495 . S
C805 H811 0.959 . S
C805 H812 0.961 . S
C805 H813 0.960 . S
C806 C804 1.381 . S
C806 C807 1.394 . S
C806 H814 0.930 . S
C807 C806 1.394 . S
C807 C808 1.383 . S
C807 H815 0.929 . S
C808 C807 1.383 . S
C808 C809 1.377 . S
C809 H793 0.930 . S
C809 C808 1.377 . S
C809 C810 1.379 . S
C810 H794 0.931 . S
C810 C804 1.383 . S
C810 C809 1.379 . S
H811 C805 0.959 . S
H812 C805 0.961 . S
H813 C805 0.960 . S
H814 C806 0.930 . S
H815 C807 0.929 . S
H816 C824 0.929 . S
H817 C826 0.930 . S
H818 C828 0.930 . S
H819 C831 0.917 1_554 S
H820 C834 0.930 . S
H821 C836 0.960 . S
H822 C836 0.960 . S
H823 C836 0.960 . S
C824 H816 0.929 . S
C824 C825 1.377 . S
C824 C826 1.384 . S
C825 C824 1.377 . S
C825 C831 1.394 . S
C826 H817 0.930 . S
C826 C824 1.384 . S
C826 C827 1.372 . S
C827 C826 1.372 . S
C827 C828 1.400 . S
C827 C832 1.490 . S
C828 H818 0.930 . S
C828 C827 1.400 . S
C828 C831 1.393 . S
H829 C845 0.930 . S
H830 C846 0.931 . S
C831 H819 0.917 1_556 S
C831 C825 1.394 . S
C831 C828 1.393 . S
C832 C827 1.490 . S
C832 C834 1.395 . S
C832 C835 1.403 . S
H833 C839 0.930 . S
C834 H820 0.930 . S
C834 C832 1.395 . S
C834 C837 1.403 1_455 S
C835 C832 1.403 . S
C835 C836 1.524 . S
C835 C839 1.400 1_455 S
C836 H821 0.960 . S
C836 H822 0.960 . S
C836 H823 0.960 . S
C836 C835 1.524 . S
C837 C834 1.403 1_655 S
C837 C838 1.392 . S
C837 C841 1.495 . S
C838 C837 1.392 . S
C838 C839 1.385 . S
C838 C840 1.478 . S
C839 H833 0.930 . S
C839 C835 1.400 1_655 S
C839 C838 1.385 . S
C840 C838 1.478 . S
C840 C842 1.381 . S
C840 C846 1.383 . S
C841 C837 1.495 . S
C841 H847 0.959 . S
C841 H848 0.961 . S
C841 H849 0.960 . S
C842 C840 1.381 . S
C842 C843 1.394 . S
C842 H850 0.930 . S
C843 C842 1.394 . S
C843 C844 1.383 . S
C843 H851 0.929 . S
C844 C843 1.383 . S
C844 C845 1.377 . S
C845 H829 0.930 . S
C845 C844 1.377 . S
C845 C846 1.379 . S
C846 H830 0.931 . S
C846 C840 1.383 . S
C846 C845 1.379 . S
H847 C841 0.959 . S
H848 C841 0.961 . S
H849 C841 0.960 . S
H850 C842 0.930 . S
H851 C843 0.929 . S
H852 C860 0.929 . S
H853 C862 0.930 . S
H854 C864 0.930 . S
H855 C867 0.929 . S
H856 C870 0.930 . S
H857 C872 0.960 . S
H858 C872 0.960 . S
H859 C872 0.960 . S
C860 H852 0.929 . S
C860 C861 1.377 . S
C860 C862 1.384 . S
C861 C860 1.377 . S
C861 C867 1.390 1_556 S
C862 H853 0.930 . S
C862 C860 1.384 . S
C862 C863 1.372 1_556 S
C863 C862 1.372 1_554 S
C863 C864 1.400 . S
C863 C868 1.490 . S
C864 H854 0.930 . S
C864 C863 1.400 . S
C864 C867 1.386 . S
H865 C881 0.930 . S
H866 C882 0.931 . S
C867 H855 0.929 . S
C867 C861 1.390 1_554 S
C867 C864 1.386 . S
C868 C863 1.490 . S
C868 C870 1.395 . S
C868 C871 1.403 . S
H869 C875 0.930 . S
C870 H856 0.930 . S
C870 C868 1.395 . S
C870 C873 1.403 1_565 S
C871 C868 1.403 . S
C871 C872 1.524 . S
C871 C875 1.400 1_565 S
C872 H857 0.960 . S
C872 H858 0.960 . S
C872 H859 0.960 . S
C872 C871 1.524 . S
C873 C870 1.403 1_545 S
C873 C874 1.392 . S
C873 C877 1.495 . S
C874 C873 1.392 . S
C874 C875 1.385 . S
C874 C876 1.478 . S
C875 H869 0.930 . S
C875 C871 1.400 1_545 S
C875 C874 1.385 . S
C876 C874 1.478 . S
C876 C878 1.381 . S
C876 C882 1.383 . S
C877 C873 1.495 . S
C877 H883 0.959 . S
C877 H884 0.961 . S
C877 H885 0.960 . S
C878 C876 1.381 . S
C878 C879 1.394 . S
C878 H886 0.930 . S
C879 C878 1.394 . S
C879 C880 1.383 . S
C879 H887 0.929 . S
C880 C879 1.383 . S
C880 C881 1.377 . S
C881 H865 0.930 . S
C881 C880 1.377 . S
C881 C882 1.379 . S
C882 H866 0.931 . S
C882 C876 1.383 . S
C882 C881 1.379 . S
H883 C877 0.959 . S
H884 C877 0.961 . S
H885 C877 0.960 . S
H886 C878 0.930 . S
H887 C879 0.929 . S
H888 C896 0.929 . S
H889 C898 0.930 . S
H890 C900 0.930 . S
H891 C903 0.929 . S
H892 C906 0.930 . S
H893 C908 0.960 . S
H894 C908 0.960 . S
H895 C908 0.960 . S
C896 H888 0.929 . S
C896 C897 1.377 . S
C896 C898 1.384 . S
C897 C896 1.377 . S
C897 C903 1.390 . S
C898 H889 0.930 . S
C898 C896 1.384 . S
C898 C899 1.372 . S
C899 C898 1.372 . S
C899 C900 1.400 . S
C899 C904 1.490 . S
C900 H890 0.930 . S
C900 C899 1.400 . S
C900 C903 1.386 . S
H901 C917 0.930 . S
H902 C918 0.931 . S
C903 H891 0.929 . S
C903 C897 1.390 . S
C903 C900 1.386 . S
C904 C899 1.490 . S
C904 C906 1.395 . S
C904 C907 1.403 . S
H905 C911 0.930 . S
C906 H892 0.930 . S
C906 C904 1.395 . S
C906 C909 1.403 . S
C907 C904 1.403 . S
C907 C908 1.524 . S
C907 C911 1.400 . S
C908 H893 0.960 . S
C908 H894 0.960 . S
C908 H895 0.960 . S
C908 C907 1.524 . S
C909 C906 1.403 . S
C909 C910 1.392 . S
C909 C913 1.495 . S
C910 C909 1.392 . S
C910 C911 1.385 . S
C910 C912 1.478 . S
C911 H905 0.930 . S
C911 C907 1.400 . S
C911 C910 1.385 . S
C912 C910 1.478 . S
C912 C914 1.381 . S
C912 C918 1.383 . S
C913 C909 1.495 . S
C913 H919 0.959 . S
C913 H920 0.961 . S
C913 H921 0.960 . S
C914 C912 1.381 . S
C914 C915 1.394 . S
C914 H922 0.930 . S
C915 C914 1.394 . S
C915 C916 1.383 . S
C915 H923 0.929 . S
C916 C915 1.383 . S
C916 C917 1.377 . S
C917 H901 0.930 . S
C917 C916 1.377 . S
C917 C918 1.379 . S
C918 H902 0.931 . S
C918 C912 1.383 . S
C918 C917 1.379 . S
H919 C913 0.959 . S
H920 C913 0.961 . S
H921 C913 0.960 . S
H922 C914 0.930 . S
H923 C915 0.929 . S
H924 C932 0.929 . S
H925 C934 0.930 . S
H926 C936 0.930 . S
H927 C939 0.929 . S
H928 C942 0.930 . S
H929 C944 0.960 . S
H930 C944 0.960 . S
H931 C944 0.960 . S
C932 H924 0.929 . S
C932 C933 1.377 . S
C932 C934 1.384 . S
C933 C932 1.377 . S
C933 C939 1.390 . S
C934 H925 0.930 . S
C934 C932 1.384 . S
C934 C935 1.372 . S
C935 C934 1.372 . S
C935 C936 1.400 . S
C935 C940 1.490 . S
C936 H926 0.930 . S
C936 C935 1.400 . S
C936 C939 1.386 . S
H937 C953 0.930 . S
H938 C954 0.931 . S
C939 H927 0.929 . S
C939 C933 1.390 . S
C939 C936 1.386 . S
C940 C935 1.490 . S
C940 C942 1.395 . S
C940 C943 1.403 . S
H941 C947 0.930 . S
C942 H928 0.930 . S
C942 C940 1.395 . S
C942 C945 1.403 1_455 S
C943 C940 1.403 . S
C943 C944 1.524 . S
C943 C947 1.400 1_455 S
C944 H929 0.960 . S
C944 H930 0.960 . S
C944 H931 0.960 . S
C944 C943 1.524 . S
C945 C942 1.403 1_655 S
C945 C946 1.392 . S
C945 C949 1.495 . S
C946 C945 1.392 . S
C946 C947 1.385 . S
C946 C948 1.478 . S
C947 H941 0.930 . S
C947 C943 1.400 1_655 S
C947 C946 1.385 . S
C948 C946 1.478 . S
C948 C950 1.381 . S
C948 C954 1.383 . S
C949 C945 1.495 . S
C949 H955 0.959 . S
C949 H956 0.961 . S
C949 H957 0.960 . S
C950 C948 1.381 . S
C950 C951 1.394 . S
C950 H958 0.930 . S
C951 C950 1.394 . S
C951 C952 1.383 . S
C951 H959 0.929 . S
C952 C951 1.383 . S
C952 C953 1.377 . S
C953 H937 0.930 . S
C953 C952 1.377 . S
C953 C954 1.379 . S
C954 H938 0.931 . S
C954 C948 1.383 . S
C954 C953 1.379 . S
H955 C949 0.959 . S
H956 C949 0.961 . S
H957 C949 0.960 . S
H958 C950 0.930 . S
H959 C951 0.929 . S
H960 C968 0.929 . S
H961 C970 0.930 . S
H962 C972 0.930 . S
H963 C975 0.929 . S
H964 C978 0.930 . S
H965 C980 0.960 . S
H966 C980 0.960 . S
H967 C980 0.960 . S
C968 H960 0.929 . S
C968 C969 1.377 . S
C968 C970 1.384 . S
C969 C968 1.377 . S
C969 C975 1.390 . S
C970 H961 0.930 . S
C970 C968 1.384 . S
C970 C971 1.372 . S
C971 C970 1.372 . S
C971 C972 1.400 . S
C971 C976 1.490 . S
C972 H962 0.930 . S
C972 C971 1.400 . S
C972 C975 1.386 . S
H973 C989 0.930 . S
H974 C990 0.931 . S
C975 H963 0.929 . S
C975 C969 1.390 . S
C975 C972 1.386 . S
C976 C971 1.490 . S
C976 C978 1.395 . S
C976 C979 1.403 . S
H977 C983 0.930 . S
C978 H964 0.930 . S
C978 C976 1.395 . S
C978 C981 1.403 1_545 S
C979 C976 1.403 . S
C979 C980 1.524 . S
C979 C983 1.400 1_545 S
C980 H965 0.960 . S
C980 H966 0.960 . S
C980 H967 0.960 . S
C980 C979 1.524 . S
C981 C978 1.403 1_565 S
C981 C982 1.392 . S
C981 C985 1.495 . S
C982 C981 1.392 . S
C982 C983 1.385 . S
C982 C984 1.478 . S
C983 H977 0.930 . S
C983 C979 1.400 1_565 S
C983 C982 1.385 . S
C984 C982 1.478 . S
C984 C986 1.381 . S
C984 C990 1.383 . S
C985 C981 1.495 . S
C985 H991 0.959 . S
C985 H992 0.961 . S
C985 H993 0.960 . S
C986 C984 1.381 . S
C986 C987 1.394 . S
C986 H994 0.930 . S
C987 C986 1.394 . S
C987 C988 1.383 . S
C987 H995 0.929 . S
C988 C987 1.383 . S
C988 C989 1.377 . S
C989 H973 0.930 . S
C989 C988 1.377 . S
C989 C990 1.379 . S
C990 H974 0.931 . S
C990 C984 1.383 . S
C990 C989 1.379 . S
H991 C985 0.959 . S
H992 C985 0.961 . S
H993 C985 0.960 . S
H994 C986 0.930 . S
H995 C987 0.929 . S
H996 C1004 0.929 . S
H997 C1006 0.930 . S
H998 C1008 0.930 . S
H999 C1011 0.929 . S
H1000 C1014 0.930 . S
H1001 C1016 0.960 . S
H1002 C1016 0.960 . S
H1003 C1016 0.960 . S
C1004 H996 0.929 . S
C1004 C1005 1.377 . S
C1004 C1006 1.384 . S
C1005 C1004 1.377 . S
C1005 C1011 1.390 . S
C1006 H997 0.930 . S
C1006 C1004 1.384 . S
C1006 C1007 1.372 . S
C1007 C1006 1.372 . S
C1007 C1008 1.400 . S
C1007 C1012 1.490 . S
C1008 H998 0.930 . S
C1008 C1007 1.400 . S
C1008 C1011 1.386 . S
H1009 C1025 0.930 . S
H1010 C1026 0.931 . S
C1011 H999 0.929 . S
C1011 C1005 1.390 . S
C1011 C1008 1.386 . S
C1012 C1007 1.490 . S
C1012 C1014 1.395 . S
C1012 C1015 1.403 . S
H1013 C1019 0.930 . S
C1014 H1000 0.930 . S
C1014 C1012 1.395 . S
C1014 C1017 1.403 . S
C1015 C1012 1.403 . S
C1015 C1016 1.524 . S
C1015 C1019 1.400 . S
C1016 H1001 0.960 . S
C1016 H1002 0.960 . S
C1016 H1003 0.960 . S
C1016 C1015 1.524 . S
C1017 C1014 1.403 . S
C1017 C1018 1.392 . S
C1017 C1021 1.495 . S
C1018 C1017 1.392 . S
C1018 C1019 1.385 . S
C1018 C1020 1.478 . S
C1019 H1013 0.930 . S
C1019 C1015 1.400 . S
C1019 C1018 1.385 . S
C1020 C1018 1.478 . S
C1020 C1022 1.381 . S
C1020 C1026 1.383 . S
C1021 C1017 1.495 . S
C1021 H1027 0.959 . S
C1021 H1028 0.961 . S
C1021 H1029 0.960 . S
C1022 C1020 1.381 . S
C1022 C1023 1.394 . S
C1022 H1030 0.930 . S
C1023 C1022 1.394 . S
C1023 C1024 1.383 . S
C1023 H1031 0.929 . S
C1024 C1023 1.383 . S
C1024 C1025 1.377 . S
C1025 H1009 0.930 . S
C1025 C1024 1.377 . S
C1025 C1026 1.379 . S
C1026 H1010 0.931 . S
C1026 C1020 1.383 . S
C1026 C1025 1.379 . S
H1027 C1021 0.959 . S
H1028 C1021 0.961 . S
H1029 C1021 0.960 . S
H1030 C1022 0.930 . S
H1031 C1023 0.929 . S
C177 C9 2.174 . S
C196 C149 2.172 . S
C213 C163 2.172 . S
C232 C23 2.163 . S
C249 C37 2.172 . S
C268 C93 2.166 . S
C285 C51 2.173 . S
C304 C107 2.165 1_556 S
C321 C65 2.170 . S
C340 C121 2.152 . S
C357 C135 2.171 . S
C376 C79 2.167 . S
C393 C8 1.620 . S
C412 C120 1.608 . S
C429 C22 1.620 . S
C448 C134 1.605 . S
C465 C148 1.619 . S
C484 C36 1.627 . S
C501 C50 1.617 . S
C520 C162 1.605 . S
C537 C64 1.620 . S
C556 C92 1.620 . S
C573 C78 1.618 . S
C592 C106 1.627 . S
C609 C147 0.670 . S
C628 C7 0.651 . S
C645 C21 0.671 . S
C664 C161 0.623 . S
C681 C35 0.651 . S
C700 C91 0.668 . S
C717 C49 0.651 . S
C736 C105 0.677 . S
C753 C119 0.651 . S
C772 C63 0.674 . S
C789 C77 0.650 . S
C808 C133 0.682 . S
C825 C6 1.512 1_556 S
C844 C160 1.507 . S
C861 C90 1.508 . S
C880 C20 1.512 . S
C897 C104 1.512 . S
C916 C34 1.512 . S
C933 C118 1.512 . S
C952 C48 1.508 . S
C969 C132 1.508 . S
C988 C62 1.512 . S
C1005 C146 1.512 . S
C1024 C76 1.508 . S
