# Generated by pormake.
# Topology sod-g, (3)-cn, num edge types: 1
# Building blocks:
#     Node 0, Type 0, BuildingBlock: OLANEW_clean_sbu_2, # of connection points: 3
#     Node 1, Type 0, BuildingBlock: OLANEW_clean_sbu_2, # of connection points: 3
#     Node 2, Type 0, BuildingBlock: OLANEW_clean_sbu_2, # of connection points: 3
#     Node 3, Type 0, BuildingBlock: OLANEW_clean_sbu_2, # of connection points: 3
#     Node 4, Type 0, BuildingBlock: OLANEW_clean_sbu_2, # of connection points: 3
#     Node 5, Type 0, BuildingBlock: OLANEW_clean_sbu_2, # of connection points: 3
#     Node 6, Type 0, BuildingBlock: OLANEW_clean_sbu_2, # of connection points: 3
#     Node 7, Type 0, BuildingBlock: OLANEW_clean_sbu_2, # of connection points: 3
#     Node 8, Type 0, BuildingBlock: OLANEW_clean_sbu_2, # of connection points: 3
#     Node 9, Type 0, BuildingBlock: OLANEW_clean_sbu_2, # of connection points: 3
#     Node 10, Type 0, BuildingBlock: OLANEW_clean_sbu_2, # of connection points: 3
#     Node 11, Type 0, BuildingBlock: OLANEW_clean_sbu_2, # of connection points: 3
#     Node 12, Type 0, BuildingBlock: OLANEW_clean_sbu_2, # of connection points: 3
#     Node 13, Type 0, BuildingBlock: OLANEW_clean_sbu_2, # of connection points: 3
#     Node 14, Type 0, BuildingBlock: OLANEW_clean_sbu_2, # of connection points: 3
#     Node 15, Type 0, BuildingBlock: OLANEW_clean_sbu_2, # of connection points: 3
#     Node 16, Type 0, BuildingBlock: OLANEW_clean_sbu_2, # of connection points: 3
#     Node 17, Type 0, BuildingBlock: OLANEW_clean_sbu_2, # of connection points: 3
#     Node 18, Type 0, BuildingBlock: OLANEW_clean_sbu_2, # of connection points: 3
#     Node 19, Type 0, BuildingBlock: OLANEW_clean_sbu_2, # of connection points: 3
#     Node 20, Type 0, BuildingBlock: OLANEW_clean_sbu_2, # of connection points: 3
#     Node 21, Type 0, BuildingBlock: OLANEW_clean_sbu_2, # of connection points: 3
#     Node 22, Type 0, BuildingBlock: OLANEW_clean_sbu_2, # of connection points: 3
#     Node 23, Type 0, BuildingBlock: OLANEW_clean_sbu_2, # of connection points: 3
#     Node 24, Type 0, BuildingBlock: OLANEW_clean_sbu_2, # of connection points: 3
#     Node 25, Type 0, BuildingBlock: OLANEW_clean_sbu_2, # of connection points: 3
#     Node 26, Type 0, BuildingBlock: OLANEW_clean_sbu_2, # of connection points: 3
#     Node 27, Type 0, BuildingBlock: OLANEW_clean_sbu_2, # of connection points: 3
#     Node 28, Type 0, BuildingBlock: OLANEW_clean_sbu_2, # of connection points: 3
#     Node 29, Type 0, BuildingBlock: OLANEW_clean_sbu_2, # of connection points: 3
#     Node 30, Type 0, BuildingBlock: OLANEW_clean_sbu_2, # of connection points: 3
#     Node 31, Type 0, BuildingBlock: OLANEW_clean_sbu_2, # of connection points: 3
#     Node 32, Type 0, BuildingBlock: OLANEW_clean_sbu_2, # of connection points: 3
#     Node 33, Type 0, BuildingBlock: OLANEW_clean_sbu_2, # of connection points: 3
#     Node 34, Type 0, BuildingBlock: OLANEW_clean_sbu_2, # of connection points: 3
#     Node 35, Type 0, BuildingBlock: OLANEW_clean_sbu_2, # of connection points: 3
#     Node 36, Type 0, BuildingBlock: OLANEW_clean_sbu_2, # of connection points: 3
#     Node 37, Type 0, BuildingBlock: OLANEW_clean_sbu_2, # of connection points: 3
#     Node 38, Type 0, BuildingBlock: OLANEW_clean_sbu_2, # of connection points: 3
#     Node 39, Type 0, BuildingBlock: OLANEW_clean_sbu_2, # of connection points: 3
#     Node 40, Type 0, BuildingBlock: OLANEW_clean_sbu_2, # of connection points: 3
#     Node 41, Type 0, BuildingBlock: OLANEW_clean_sbu_2, # of connection points: 3
#     Node 42, Type 0, BuildingBlock: OLANEW_clean_sbu_2, # of connection points: 3
#     Node 43, Type 0, BuildingBlock: OLANEW_clean_sbu_2, # of connection points: 3
#     Node 44, Type 0, BuildingBlock: OLANEW_clean_sbu_2, # of connection points: 3
#     Node 45, Type 0, BuildingBlock: OLANEW_clean_sbu_2, # of connection points: 3
#     Node 46, Type 0, BuildingBlock: OLANEW_clean_sbu_2, # of connection points: 3
#     Node 47, Type 0, BuildingBlock: OLANEW_clean_sbu_2, # of connection points: 3
#     Edge 48, Type (0, 0), BuildingBlock: TEMPAE_clean_linker_10, # of connection points: 2
#     Edge 49, Type (0, 0), BuildingBlock: TEMPAE_clean_linker_10, # of connection points: 2
#     Edge 50, Type (0, 0), BuildingBlock: TEMPAE_clean_linker_10, # of connection points: 2
#     Edge 51, Type (0, 0), BuildingBlock: TEMPAE_clean_linker_10, # of connection points: 2
#     Edge 52, Type (0, 0), BuildingBlock: TEMPAE_clean_linker_10, # of connection points: 2
#     Edge 53, Type (0, 0), BuildingBlock: TEMPAE_clean_linker_10, # of connection points: 2
#     Edge 54, Type (0, 0), BuildingBlock: TEMPAE_clean_linker_10, # of connection points: 2
#     Edge 55, Type (0, 0), BuildingBlock: TEMPAE_clean_linker_10, # of connection points: 2
#     Edge 56, Type (0, 0), BuildingBlock: TEMPAE_clean_linker_10, # of connection points: 2
#     Edge 57, Type (0, 0), BuildingBlock: TEMPAE_clean_linker_10, # of connection points: 2
#     Edge 58, Type (0, 0), BuildingBlock: TEMPAE_clean_linker_10, # of connection points: 2
#     Edge 59, Type (0, 0), BuildingBlock: TEMPAE_clean_linker_10, # of connection points: 2
#     Edge 60, Type (0, 0), BuildingBlock: TEMPAE_clean_linker_10, # of connection points: 2
#     Edge 61, Type (0, 0), BuildingBlock: TEMPAE_clean_linker_10, # of connection points: 2
#     Edge 62, Type (0, 0), BuildingBlock: TEMPAE_clean_linker_10, # of connection points: 2
#     Edge 63, Type (0, 0), BuildingBlock: TEMPAE_clean_linker_10, # of connection points: 2
#     Edge 64, Type (0, 0), BuildingBlock: TEMPAE_clean_linker_10, # of connection points: 2
#     Edge 65, Type (0, 0), BuildingBlock: TEMPAE_clean_linker_10, # of connection points: 2
#     Edge 66, Type (0, 0), BuildingBlock: TEMPAE_clean_linker_10, # of connection points: 2
#     Edge 67, Type (0, 0), BuildingBlock: TEMPAE_clean_linker_10, # of connection points: 2
#     Edge 68, Type (0, 0), BuildingBlock: TEMPAE_clean_linker_10, # of connection points: 2
#     Edge 69, Type (0, 0), BuildingBlock: TEMPAE_clean_linker_10, # of connection points: 2
#     Edge 70, Type (0, 0), BuildingBlock: TEMPAE_clean_linker_10, # of connection points: 2
#     Edge 71, Type (0, 0), BuildingBlock: TEMPAE_clean_linker_10, # of connection points: 2
#     Edge 72, Type (0, 0), BuildingBlock: TEMPAE_clean_linker_10, # of connection points: 2
#     Edge 73, Type (0, 0), BuildingBlock: TEMPAE_clean_linker_10, # of connection points: 2
#     Edge 74, Type (0, 0), BuildingBlock: TEMPAE_clean_linker_10, # of connection points: 2
#     Edge 75, Type (0, 0), BuildingBlock: TEMPAE_clean_linker_10, # of connection points: 2
#     Edge 76, Type (0, 0), BuildingBlock: TEMPAE_clean_linker_10, # of connection points: 2
#     Edge 77, Type (0, 0), BuildingBlock: TEMPAE_clean_linker_10, # of connection points: 2
#     Edge 78, Type (0, 0), BuildingBlock: TEMPAE_clean_linker_10, # of connection points: 2
#     Edge 79, Type (0, 0), BuildingBlock: TEMPAE_clean_linker_10, # of connection points: 2
#     Edge 80, Type (0, 0), BuildingBlock: TEMPAE_clean_linker_10, # of connection points: 2
#     Edge 81, Type (0, 0), BuildingBlock: TEMPAE_clean_linker_10, # of connection points: 2
#     Edge 82, Type (0, 0), BuildingBlock: TEMPAE_clean_linker_10, # of connection points: 2
#     Edge 83, Type (0, 0), BuildingBlock: TEMPAE_clean_linker_10, # of connection points: 2
#     Edge 84, Type (0, 0), BuildingBlock: TEMPAE_clean_linker_10, # of connection points: 2
#     Edge 85, Type (0, 0), BuildingBlock: TEMPAE_clean_linker_10, # of connection points: 2
#     Edge 86, Type (0, 0), BuildingBlock: TEMPAE_clean_linker_10, # of connection points: 2
#     Edge 87, Type (0, 0), BuildingBlock: TEMPAE_clean_linker_10, # of connection points: 2
#     Edge 88, Type (0, 0), BuildingBlock: TEMPAE_clean_linker_10, # of connection points: 2
#     Edge 89, Type (0, 0), BuildingBlock: TEMPAE_clean_linker_10, # of connection points: 2
#     Edge 90, Type (0, 0), BuildingBlock: TEMPAE_clean_linker_10, # of connection points: 2
#     Edge 91, Type (0, 0), BuildingBlock: TEMPAE_clean_linker_10, # of connection points: 2
#     Edge 92, Type (0, 0), BuildingBlock: TEMPAE_clean_linker_10, # of connection points: 2
#     Edge 93, Type (0, 0), BuildingBlock: TEMPAE_clean_linker_10, # of connection points: 2
#     Edge 94, Type (0, 0), BuildingBlock: TEMPAE_clean_linker_10, # of connection points: 2
#     Edge 95, Type (0, 0), BuildingBlock: TEMPAE_clean_linker_10, # of connection points: 2
#     Edge 96, Type (0, 0), BuildingBlock: TEMPAE_clean_linker_10, # of connection points: 2
#     Edge 97, Type (0, 0), BuildingBlock: TEMPAE_clean_linker_10, # of connection points: 2
#     Edge 98, Type (0, 0), BuildingBlock: TEMPAE_clean_linker_10, # of connection points: 2
#     Edge 99, Type (0, 0), BuildingBlock: TEMPAE_clean_linker_10, # of connection points: 2
#     Edge 100, Type (0, 0), BuildingBlock: TEMPAE_clean_linker_10, # of connection points: 2
#     Edge 101, Type (0, 0), BuildingBlock: TEMPAE_clean_linker_10, # of connection points: 2
#     Edge 102, Type (0, 0), BuildingBlock: TEMPAE_clean_linker_10, # of connection points: 2
#     Edge 103, Type (0, 0), BuildingBlock: TEMPAE_clean_linker_10, # of connection points: 2
#     Edge 104, Type (0, 0), BuildingBlock: TEMPAE_clean_linker_10, # of connection points: 2
#     Edge 105, Type (0, 0), BuildingBlock: TEMPAE_clean_linker_10, # of connection points: 2
#     Edge 106, Type (0, 0), BuildingBlock: TEMPAE_clean_linker_10, # of connection points: 2
#     Edge 107, Type (0, 0), BuildingBlock: TEMPAE_clean_linker_10, # of connection points: 2
#     Edge 108, Type (0, 0), BuildingBlock: TEMPAE_clean_linker_10, # of connection points: 2
#     Edge 109, Type (0, 0), BuildingBlock: TEMPAE_clean_linker_10, # of connection points: 2
#     Edge 110, Type (0, 0), BuildingBlock: TEMPAE_clean_linker_10, # of connection points: 2
#     Edge 111, Type (0, 0), BuildingBlock: TEMPAE_clean_linker_10, # of connection points: 2
#     Edge 112, Type (0, 0), BuildingBlock: TEMPAE_clean_linker_10, # of connection points: 2
#     Edge 113, Type (0, 0), BuildingBlock: TEMPAE_clean_linker_10, # of connection points: 2
#     Edge 114, Type (0, 0), BuildingBlock: TEMPAE_clean_linker_10, # of connection points: 2
#     Edge 115, Type (0, 0), BuildingBlock: TEMPAE_clean_linker_10, # of connection points: 2
#     Edge 116, Type (0, 0), BuildingBlock: TEMPAE_clean_linker_10, # of connection points: 2
#     Edge 117, Type (0, 0), BuildingBlock: TEMPAE_clean_linker_10, # of connection points: 2
#     Edge 118, Type (0, 0), BuildingBlock: TEMPAE_clean_linker_10, # of connection points: 2
#     Edge 119, Type (0, 0), BuildingBlock: TEMPAE_clean_linker_10, # of connection points: 2
# Relax obj value: 0.024
# Max RMSD: 0.011
# Mean RMSD: 0.011
data_MOF--net-sod-g--node1-OLANEW_clean_sbu_2--edge1-TEMPAE_clean_linker_10
_symmetry_space_group_name_H-M    P1
_symmetry_Int_Tables_number       1
_symmetry_cell_setting            triclinic
loop_
_symmetry_equiv_pos_as_xyz
'x, y, z'
_cell_length_a     103.52255
_cell_length_b     103.54478
_cell_length_c     103.54121
_cell_angle_alpha  90.003336
_cell_angle_beta   90.001031
_cell_angle_gamma 89.999851
loop_
_atom_site_label
_atom_site_type_symbol
_atom_site_fract_x
_atom_site_fract_y
_atom_site_fract_z
_atom_type_partial_charge
O0 O 0.04288 0.49135 0.15439 0.0
Cd1 Cd 0.06492 0.48338 0.15686 0.0
O2 O 0.04136 0.49354 0.17539 0.0
Cd3 Cd 0.03106 0.49709 0.19354 0.0
O4 O 0.02413 0.49533 0.21341 0.0
C5 C 0.01785 0.48523 0.21646 0.0
O6 O 0.01521 0.47673 0.20741 0.0
C7 C 0.03637 0.49473 0.16422 0.0
C8 C 0.08065 0.49529 0.13858 0.0
O9 O 0.0751 0.48449 0.13616 0.0
O10 O 0.07895 0.50032 0.14976 0.0
O11 O 0.53554 0.0385 0.1294 0.0
Cd12 Cd 0.54839 0.05818 0.12812 0.0
O13 O 0.539 0.03855 0.15028 0.0
Cd14 Cd 0.53509 0.03141 0.16973 0.0
O15 O 0.53056 0.02553 0.18941 0.0
C16 C 0.53313 0.03349 0.19837 0.0
O17 O 0.53833 0.04466 0.19532 0.0
C18 C 0.53381 0.03341 0.14041 0.0
C19 C 0.53348 0.07779 0.11739 0.0
O20 O 0.54071 0.07066 0.11032 0.0
O21 O 0.53347 0.07578 0.1296 0.0
O22 O 0.94339 0.53427 0.14017 0.0
Cd23 Cd 0.92102 0.54101 0.13727 0.0
O24 O 0.93835 0.53038 0.16032 0.0
Cd25 Cd 0.94318 0.5257 0.1803 0.0
O26 O 0.95127 0.52454 0.19967 0.0
C27 C 0.96348 0.52489 0.20082 0.0
O28 O 0.9706 0.52572 0.19037 0.0
C29 C 0.94665 0.5302 0.15126 0.0
C30 C 0.90825 0.52214 0.12304 0.0
O31 O 0.9134 0.53194 0.1175 0.0
O32 O 0.90889 0.52142 0.13538 0.0
O33 O 0.47418 0.94822 0.14162 0.0
Cd34 Cd 0.46396 0.92722 0.14462 0.0
O35 O 0.47564 0.95035 0.16261 0.0
Cd36 Cd 0.48256 0.95936 0.18041 0.0
O37 O 0.48576 0.9649 0.20047 0.0
C38 C 0.48533 0.97655 0.20432 0.0
O39 O 0.48336 0.98579 0.19585 0.0
C40 C 0.4779 0.95468 0.15135 0.0
C41 C 0.48026 0.90906 0.13336 0.0
O42 O 0.471 0.91421 0.12694 0.0
O43 O 0.4815 0.91218 0.14528 0.0
O44 O 0.04833 0.51748 0.8526 0.0
Cd45 Cd 0.07014 0.52636 0.85246 0.0
O46 O 0.04976 0.51502 0.83165 0.0
Cd47 Cd 0.04229 0.51065 0.81239 0.0
O48 O 0.03734 0.51089 0.79194 0.0
C49 C 0.02587 0.51256 0.7879 0.0
O50 O 0.01643 0.51364 0.79631 0.0
C51 C 0.04339 0.51361 0.84206 0.0
C52 C 0.08591 0.5099 0.8667 0.0
O53 O 0.08039 0.51963 0.872 0.0
O54 O 0.08424 0.50817 0.85455 0.0
O55 O 0.45666 0.04115 0.86612 0.0
Cd56 Cd 0.44426 0.06105 0.86798 0.0
O57 O 0.46079 0.04717 0.84624 0.0
Cd58 Cd 0.46893 0.04323 0.82714 0.0
O59 O 0.47457 0.03603 0.80817 0.0
C60 C 0.47201 0.04297 0.79839 0.0
O61 O 0.46648 0.05425 0.8002 0.0
C62 C 0.46249 0.03927 0.85549 0.0
C63 C 0.46161 0.07995 0.87596 0.0
O64 O 0.45473 0.07373 0.88416 0.0
O65 O 0.45991 0.07756 0.86393 0.0
O66 O 0.95371 0.4647 0.85853 0.0
Cd67 Cd 0.93191 0.45599 0.86038 0.0
O68 O 0.94937 0.46812 0.83813 0.0
Cd69 Cd 0.95476 0.4735 0.81847 0.0
O70 O 0.96038 0.47527 0.7983 0.0
C71 C 0.97158 0.47889 0.7948 0.0
O72 O 0.98014 0.48203 0.80363 0.0
C73 C 0.95711 0.46911 0.84761 0.0
C74 C 0.91676 0.47451 0.87259 0.0
O75 O 0.92227 0.46549 0.87903 0.0
O76 O 0.91813 0.47455 0.86029 0.0
O77 O 0.52692 0.95794 0.85376 0.0
Cd78 Cd 0.53945 0.93811 0.85161 0.0
O79 O 0.52627 0.96015 0.83271 0.0
Cd80 Cd 0.52139 0.97044 0.8149 0.0
O81 O 0.5192 0.97874 0.79566 0.0
C82 C 0.51462 0.97153 0.78686 0.0
O83 O 0.51095 0.95976 0.7899 0.0
C84 C 0.52293 0.96401 0.84388 0.0
C85 C 0.52695 0.91964 0.8666 0.0
O86 O 0.53622 0.92641 0.87124 0.0
O87 O 0.52394 0.92127 0.8547 0.0
O88 O 0.1419 0.03141 0.45829 0.0
Cd89 Cd 0.1446 0.04719 0.44104 0.0
O90 O 0.16294 0.03032 0.46051 0.0
Cd91 Cd 0.18062 0.02227 0.46888 0.0
O92 O 0.19981 0.01549 0.47444 0.0
C93 C 0.20713 0.02309 0.4807 0.0
O94 O 0.20268 0.03449 0.48406 0.0
C95 C 0.1517 0.02703 0.46422 0.0
C96 C 0.13503 0.07062 0.4501 0.0
O97 O 0.12777 0.06269 0.44396 0.0
O98 O 0.14695 0.06762 0.4516 0.0
O99 O 0.95398 0.13873 0.4597 0.0
Cd100 Cd 0.93177 0.13528 0.4527 0.0
O101 O 0.94722 0.15711 0.46773 0.0
Cd102 Cd 0.95134 0.17608 0.47599 0.0
O103 O 0.95984 0.19497 0.47953 0.0
C104 C 0.96888 0.19859 0.47205 0.0
O105 O 0.97281 0.1907 0.46291 0.0
C106 C 0.95632 0.14907 0.46587 0.0
C107 C 0.91795 0.12383 0.4727 0.0
O108 O 0.92338 0.11697 0.46393 0.0
O109 O 0.91888 0.13614 0.47186 0.0
O110 O 0.86463 0.96617 0.46552 0.0
Cd111 Cd 0.86459 0.94949 0.4489 0.0
O112 O 0.84356 0.96448 0.4666 0.0
Cd113 Cd 0.82441 0.97031 0.47338 0.0
O114 O 0.8044 0.97524 0.47776 0.0
C115 C 0.79699 0.96646 0.48205 0.0
O116 O 0.80177 0.95487 0.48408 0.0
C117 C 0.85402 0.96944 0.47072 0.0
C118 C 0.87563 0.92743 0.45955 0.0
O119 O 0.8825 0.93565 0.45335 0.0
O120 O 0.86345 0.92947 0.46039 0.0
O121 O 0.05648 0.85107 0.46081 0.0
Cd122 Cd 0.07892 0.85345 0.4541 0.0
O123 O 0.06368 0.8368 0.47473 0.0
Cd124 Cd 0.05914 0.82136 0.48838 0.0
O125 O 0.04912 0.80323 0.49216 0.0
C126 C 0.0392 0.80121 0.48521 0.0
O127 O 0.03561 0.81019 0.477 0.0
C128 C 0.05436 0.84325 0.47001 0.0
C129 C 0.09144 0.86771 0.47312 0.0
O130 O 0.08655 0.87323 0.46318 0.0
O131 O 0.09075 0.85537 0.47386 0.0
O132 O 0.12851 0.96565 0.54477 0.0
Cd133 Cd 0.12604 0.94786 0.55996 0.0
O134 O 0.14911 0.96075 0.54413 0.0
Cd135 Cd 0.16871 0.96452 0.53714 0.0
O136 O 0.18805 0.97024 0.53103 0.0
C137 C 0.19717 0.96224 0.53278 0.0
O138 O 0.19446 0.95094 0.53789 0.0
C139 C 0.13965 0.96737 0.53995 0.0
C140 C 0.11979 0.92649 0.5449 0.0
O141 O 0.11096 0.93341 0.55013 0.0
O142 O 0.1316 0.92935 0.54726 0.0
O143 O 0.05414 0.16 0.49872 0.0
Cd144 Cd 0.07625 0.1641 0.5058 0.0
O145 O 0.05001 0.18072 0.49931 0.0
Cd146 Cd 0.03761 0.1978 0.49874 0.0
O147 O 0.02827 0.2164 0.50171 0.0
C148 C 0.01659 0.21753 0.50531 0.0
O149 O 0.00954 0.20709 0.50684 0.0
C150 C 0.04627 0.16925 0.49703 0.0
C151 C 0.09232 0.14563 0.49472 0.0
O152 O 0.08709 0.14373 0.50579 0.0
O153 O 0.09017 0.15643 0.48906 0.0
O154 O 0.86636 0.03677 0.54842 0.0
Cd155 Cd 0.86801 0.05576 0.56221 0.0
O156 O 0.84591 0.04151 0.54569 0.0
Cd157 Cd 0.82664 0.03767 0.53789 0.0
O158 O 0.807 0.03283 0.53194 0.0
C159 C 0.79784 0.03811 0.53816 0.0
O160 O 0.80069 0.04617 0.54753 0.0
C161 C 0.85564 0.03456 0.54288 0.0
C162 C 0.87773 0.07518 0.54639 0.0
O163 O 0.88527 0.06829 0.55339 0.0
O164 O 0.86554 0.07325 0.54733 0.0
O165 O 0.96032 0.84385 0.51373 0.0
Cd166 Cd 0.93876 0.84199 0.52305 0.0
O167 O 0.95962 0.82313 0.51002 0.0
Cd168 Cd 0.96493 0.80356 0.50407 0.0
O169 O 0.97042 0.7834 0.50645 0.0
C170 C 0.98099 0.78059 0.51204 0.0
O171 O 0.98877 0.78999 0.51555 0.0
C172 C 0.96572 0.83379 0.50926 0.0
C173 C 0.92227 0.85886 0.5102 0.0
O174 O 0.92825 0.86235 0.52047 0.0
O175 O 0.9239 0.84727 0.50617 0.0
O176 O 0.47559 0.15538 0.03325 0.0
Cd177 Cd 0.46358 0.15686 0.05346 0.0
O178 O 0.47851 0.17627 0.03363 0.0
Cd179 Cd 0.48555 0.19536 0.02798 0.0
O180 O 0.48531 0.21592 0.02355 0.0
C181 C 0.48041 0.21984 0.013 0.0
O182 O 0.47623 0.21127 0.00462 0.0
C183 C 0.48046 0.16543 0.02818 0.0
C184 C 0.47617 0.14127 0.07135 0.0
O185 O 0.46683 0.13687 0.06452 0.0
O186 O 0.47926 0.15319 0.07001 0.0
O187 O 0.46909 0.86287 0.96932 0.0
Cd188 Cd 0.45493 0.86453 0.95059 0.0
O189 O 0.47362 0.8435 0.96231 0.0
Cd190 Cd 0.4829 0.82453 0.96154 0.0
O191 O 0.48545 0.8037 0.96316 0.0
C192 C 0.48106 0.79803 0.97313 0.0
O193 O 0.4757 0.805 0.98228 0.0
C194 C 0.47535 0.8524 0.97061 0.0
C195 C 0.46913 0.87463 0.93013 0.0
O196 O 0.46252 0.88198 0.93758 0.0
O197 O 0.46878 0.86243 0.93219 0.0
O198 O 0.13887 0.44648 0.96465 0.0
Cd199 Cd 0.13724 0.43127 0.94677 0.0
O200 O 0.15473 0.45506 0.95356 0.0
Cd201 Cd 0.17097 0.46848 0.95238 0.0
O202 O 0.19041 0.4754 0.95653 0.0
C203 C 0.19326 0.47933 0.96781 0.0
O204 O 0.18413 0.4799 0.9766 0.0
C205 C 0.14734 0.45525 0.96335 0.0
C206 C 0.12753 0.44526 0.92598 0.0
O207 O 0.12 0.43897 0.93352 0.0
O208 O 0.13972 0.44452 0.92799 0.0
O209 O 0.54458 0.14639 0.9483 0.0
Cd210 Cd 0.55469 0.14247 0.92739 0.0
O211 O 0.52952 0.15627 0.93711 0.0
Cd212 Cd 0.51279 0.1691 0.93733 0.0
O213 O 0.50568 0.18709 0.94556 0.0
C214 C 0.51055 0.19735 0.94093 0.0
O215 O 0.51846 0.1964 0.93105 0.0
C216 C 0.53387 0.15238 0.94791 0.0
C217 C 0.53629 0.13017 0.91215 0.0
O218 O 0.54452 0.12367 0.91874 0.0
O219 O 0.5371 0.14252 0.9124 0.0
O220 O 0.86683 0.54418 0.96432 0.0
Cd221 Cd 0.86902 0.55975 0.94681 0.0
O222 O 0.84646 0.54269 0.9589 0.0
Cd223 Cd 0.82659 0.53577 0.96067 0.0
O224 O 0.80603 0.53145 0.96201 0.0
C225 C 0.79821 0.54091 0.96221 0.0
O226 O 0.80288 0.5527 0.9617 0.0
C227 C 0.85591 0.53879 0.96573 0.0
C228 C 0.87795 0.54543 0.92591 0.0
O229 O 0.88581 0.55144 0.93336 0.0
O230 O 0.86581 0.54671 0.92801 0.0
O231 O 0.55026 0.85368 0.04229 0.0
Cd232 Cd 0.5637 0.85398 0.06162 0.0
O233 O 0.53822 0.83996 0.053 0.0
Cd234 Cd 0.52267 0.82571 0.05342 0.0
O235 O 0.51442 0.80706 0.04826 0.0
C236 C 0.51172 0.80482 0.0365 0.0
O237 O 0.51312 0.81415 0.02802 0.0
C238 C 0.54021 0.84667 0.04292 0.0
C239 C 0.54841 0.86404 0.08129 0.0
O240 O 0.55567 0.87137 0.07444 0.0
O241 O 0.54878 0.85186 0.07915 0.0
O242 O 0.13744 0.53613 0.02732 0.0
Cd243 Cd 0.13659 0.55274 0.04398 0.0
O244 O 0.15634 0.53079 0.03507 0.0
Cd245 Cd 0.17442 0.52001 0.03718 0.0
O246 O 0.19484 0.51505 0.0355 0.0
C247 C 0.20067 0.51768 0.02502 0.0
O248 O 0.19408 0.52278 0.01545 0.0
C249 C 0.14731 0.52886 0.02693 0.0
C250 C 0.12561 0.54214 0.06612 0.0
O251 O 0.11865 0.54793 0.05768 0.0
O252 O 0.13783 0.54162 0.0642 0.0
O253 O 0.86685 0.45504 0.02467 0.0
Cd254 Cd 0.86873 0.43893 0.04173 0.0
O255 O 0.84642 0.45641 0.02989 0.0
Cd256 Cd 0.82652 0.46327 0.02819 0.0
O257 O 0.80587 0.46741 0.02766 0.0
C258 C 0.79869 0.46142 0.0356 0.0
O259 O 0.80404 0.45324 0.04371 0.0
C260 C 0.85594 0.46047 0.02327 0.0
C261 C 0.87601 0.45265 0.06365 0.0
O262 O 0.88447 0.44729 0.05638 0.0
O263 O 0.86406 0.45102 0.06086 0.0
O264 O 0.54123 0.94982 0.64242 0.0
Cd265 Cd 0.56142 0.93795 0.64007 0.0
O266 O 0.55185 0.9616 0.65644 0.0
Cd267 Cd 0.55198 0.97604 0.6718 0.0
O268 O 0.54736 0.9825 0.69128 0.0
C269 C 0.53572 0.98516 0.69412 0.0
O270 O 0.52696 0.98484 0.68496 0.0
C271 C 0.54156 0.95934 0.65014 0.0
C272 C 0.57865 0.9545 0.62778 0.0
O273 O 0.57185 0.94643 0.62132 0.0
O274 O 0.57763 0.95442 0.64012 0.0
O275 O 0.03609 0.54692 0.62807 0.0
Cd276 Cd 0.04781 0.56729 0.62697 0.0
O277 O 0.03359 0.55051 0.64878 0.0
Cd278 Cd 0.02705 0.54472 0.66802 0.0
O279 O 0.02217 0.53664 0.68685 0.0
C280 C 0.02225 0.54401 0.69665 0.0
O281 O 0.02496 0.5563 0.69505 0.0
C282 C 0.03122 0.54369 0.63884 0.0
C283 C 0.02992 0.58541 0.61841 0.0
O284 O 0.03739 0.57956 0.61045 0.0
O285 O 0.03132 0.58308 0.63049 0.0
O286 O 0.46113 0.02401 0.64159 0.0
Cd287 Cd 0.44097 0.03616 0.64114 0.0
O288 O 0.45674 0.01963 0.66174 0.0
Cd289 Cd 0.45845 0.01144 0.68116 0.0
O290 O 0.46228 0.01035 0.70184 0.0
C291 C 0.47301 0.01446 0.70619 0.0
O292 O 0.48175 0.01868 0.69801 0.0
C293 C 0.46416 0.01831 0.65202 0.0
C294 C 0.42258 0.02127 0.62841 0.0
O295 O 0.42936 0.02964 0.62231 0.0
O296 O 0.42427 0.02018 0.64062 0.0
O297 O 0.96406 0.46453 0.63354 0.0
Cd298 Cd 0.95064 0.44526 0.63521 0.0
O299 O 0.96737 0.46294 0.65436 0.0
Cd300 Cd 0.97478 0.4698 0.67293 0.0
O301 O 0.97913 0.47617 0.69254 0.0
C302 C 0.98596 0.46909 0.69987 0.0
O303 O 0.99069 0.45825 0.69527 0.0
C304 C 0.96966 0.46854 0.64368 0.0
C305 C 0.96604 0.42453 0.62783 0.0
O306 O 0.95886 0.43039 0.61963 0.0
O307 O 0.96557 0.4282 0.63965 0.0
O308 O 0.53507 0.03211 0.35936 0.0
Cd309 Cd 0.55617 0.04254 0.35977 0.0
O310 O 0.5393 0.02681 0.33936 0.0
Cd311 Cd 0.53504 0.01922 0.32012 0.0
O312 O 0.53317 0.01563 0.29947 0.0
C313 C 0.52287 0.01848 0.29343 0.0
O314 O 0.513 0.02312 0.29992 0.0
C315 C 0.53177 0.02634 0.34905 0.0
C316 C 0.57365 0.02551 0.37103 0.0
O317 O 0.56773 0.03402 0.37782 0.0
O318 O 0.57154 0.02529 0.35884 0.0
O319 O 0.97649 0.53596 0.35671 0.0
Cd320 Cd 0.96385 0.55573 0.35464 0.0
O321 O 0.983 0.5393 0.33692 0.0
Cd322 Cd 0.99364 0.53572 0.31904 0.0
O323 O 0.99558 0.53017 0.29886 0.0
C324 C 0.99667 0.53897 0.2904 0.0
O325 O 0.99756 0.55104 0.29422 0.0
C326 C 0.98326 0.53244 0.34711 0.0
C327 C 0.97585 0.57515 0.36879 0.0
O328 O 0.96698 0.56812 0.37382 0.0
O329 O 0.97885 0.57316 0.35695 0.0
O330 O 0.44371 0.97347 0.36135 0.0
Cd331 Cd 0.42215 0.96409 0.36272 0.0
O332 O 0.44079 0.9754 0.3405 0.0
Cd333 Cd 0.44715 0.97993 0.32091 0.0
O334 O 0.45373 0.98238 0.30109 0.0
C335 C 0.46527 0.98555 0.29833 0.0
O336 O 0.47353 0.98767 0.30773 0.0
C337 C 0.44776 0.9773 0.35043 0.0
C338 C 0.40662 0.98157 0.37595 0.0
O339 O 0.41239 0.97237 0.3819 0.0
O340 O 0.4079 0.98226 0.36366 0.0
O341 O 0.05047 0.45438 0.36228 0.0
Cd342 Cd 0.06219 0.43407 0.36424 0.0
O343 O 0.03777 0.44406 0.34881 0.0
Cd344 Cd 0.02261 0.44525 0.33417 0.0
O345 O 0.01569 0.45267 0.31571 0.0
C346 C 0.02469 0.45592 0.30804 0.0
O347 O 0.03672 0.45443 0.31182 0.0
C348 C 0.04061 0.45427 0.355 0.0
C349 C 0.0461 0.41696 0.37727 0.0
O350 O 0.05442 0.42381 0.38337 0.0
O351 O 0.04569 0.41791 0.36494 0.0
O352 O 0.63321 0.52789 0.95885 0.0
Cd353 Cd 0.63168 0.54486 0.94261 0.0
O354 O 0.6537 0.53285 0.96015 0.0
Cd355 Cd 0.67369 0.53091 0.96665 0.0
O356 O 0.69456 0.53061 0.9694 0.0
C357 C 0.70156 0.52949 0.95939 0.0
O358 O 0.69591 0.52834 0.94808 0.0
C359 C 0.64414 0.52626 0.96418 0.0
C360 C 0.62418 0.56729 0.95539 0.0
O361 O 0.61582 0.55981 0.95014 0.0
O362 O 0.63615 0.56436 0.95423 0.0
O363 O 0.46434 0.63556 0.95328 0.0
Cd364 Cd 0.44435 0.63247 0.94123 0.0
O365 O 0.45787 0.65543 0.95668 0.0
Cd366 Cd 0.46129 0.67502 0.96375 0.0
O367 O 0.4673 0.6945 0.96895 0.0
C368 C 0.4603 0.70385 0.96524 0.0
O369 O 0.44969 0.70133 0.95873 0.0
C370 C 0.46608 0.64649 0.95856 0.0
C371 C 0.42618 0.62256 0.95837 0.0
O372 O 0.43305 0.61507 0.95131 0.0
O373 O 0.42763 0.63478 0.95702 0.0
O374 O 0.35216 0.45173 0.97587 0.0
Cd375 Cd 0.34955 0.43096 0.9651 0.0
O376 O 0.3315 0.45622 0.97448 0.0
Cd377 Cd 0.31412 0.4673 0.97933 0.0
O378 O 0.29497 0.47581 0.98185 0.0
C379 C 0.28653 0.46918 0.98781 0.0
O380 O 0.2899 0.45792 0.9926 0.0
C381 C 0.34277 0.45922 0.97833 0.0
C382 C 0.36336 0.41324 0.97987 0.0
O383 O 0.3686 0.41892 0.9702 0.0
O384 O 0.35142 0.41556 0.9822 0.0
O385 O 0.54816 0.34331 0.98982 0.0
Cd386 Cd 0.56959 0.3403 0.98052 0.0
O387 O 0.54516 0.32244 0.99056 0.0
Cd388 Cd 0.53621 0.30376 0.99467 0.0
O389 O 0.52905 0.28424 0.99141 0.0
C390 C 0.5185 0.28251 0.98539 0.0
O391 O 0.51169 0.29263 0.98188 0.0
C392 C 0.54107 0.33379 0.99293 0.0
C393 C 0.58619 0.35666 0.99389 0.0
O394 O 0.58068 0.36033 0.98343 0.0
O395 O 0.58421 0.34507 0.99776 0.0
O396 O 0.63417 0.46494 0.04644 0.0
Cd397 Cd 0.63275 0.44803 0.06274 0.0
O398 O 0.65446 0.45945 0.04431 0.0
Cd399 Cd 0.67418 0.46101 0.03695 0.0
O400 O 0.69482 0.46163 0.03285 0.0
C401 C 0.70178 0.47003 0.03847 0.0
O402 O 0.69623 0.47834 0.0463 0.0
C403 C 0.64492 0.46629 0.04069 0.0
C404 C 0.62445 0.4257 0.05028 0.0
O405 O 0.61638 0.43341 0.05565 0.0
O406 O 0.6365 0.42836 0.05115 0.0
O407 O 0.5508 0.6503 0.01763 0.0
Cd408 Cd 0.57196 0.65189 0.02784 0.0
O409 O 0.54971 0.67137 0.01617 0.0
Cd410 Cd 0.54026 0.68973 0.01168 0.0
O411 O 0.53342 0.70962 0.01104 0.0
C412 C 0.52154 0.71275 0.01129 0.0
O413 O 0.51272 0.70363 0.01149 0.0
C414 C 0.54487 0.66033 0.01382 0.0
C415 C 0.58827 0.63562 0.01401 0.0
O416 O 0.58235 0.63163 0.02413 0.0
O417 O 0.58685 0.64747 0.01074 0.0
O418 O 0.36394 0.54258 0.03742 0.0
Cd419 Cd 0.36465 0.56374 0.04771 0.0
O420 O 0.34282 0.54277 0.03897 0.0
Cd421 Cd 0.32376 0.53516 0.03395 0.0
O422 O 0.30453 0.52779 0.02949 0.0
C423 C 0.2951 0.53506 0.03239 0.0
O424 O 0.29751 0.54633 0.0377 0.0
C425 C 0.35312 0.53726 0.03519 0.0
C426 C 0.37628 0.58047 0.03018 0.0
O427 O 0.38294 0.57471 0.0389 0.0
O428 O 0.36404 0.57864 0.03005 0.0
O429 O 0.4595 0.35823 0.05264 0.0
Cd430 Cd 0.4391 0.36242 0.06366 0.0
O431 O 0.448 0.35048 0.0366 0.0
Cd432 Cd 0.4477 0.33881 0.01906 0.0
O433 O 0.45413 0.3207 0.01053 0.0
C434 C 0.44792 0.31066 0.01387 0.0
O435 O 0.43765 0.31202 0.02119 0.0
C436 C 0.45894 0.35315 0.04149 0.0
C437 C 0.42122 0.37194 0.04597 0.0
O438 O 0.4284 0.37958 0.05256 0.0
O439 O 0.42234 0.35977 0.04793 0.0
O440 O 0.9416 0.64249 0.54344 0.0
Cd441 Cd 0.93249 0.63897 0.56487 0.0
O442 O 0.95616 0.65409 0.55353 0.0
Cd443 Cd 0.97383 0.66572 0.55403 0.0
O444 O 0.98388 0.68312 0.5477 0.0
C445 C 0.98029 0.69359 0.55297 0.0
O446 O 0.97189 0.69303 0.56248 0.0
C447 C 0.95169 0.64946 0.54305 0.0
C448 C 0.95212 0.62884 0.58017 0.0
O449 O 0.94425 0.62143 0.57413 0.0
O450 O 0.95041 0.64106 0.57933 0.0
O451 O 0.97334 0.35816 0.46875 0.0
Cd452 Cd 0.96233 0.35946 0.44798 0.0
O453 O 0.98031 0.33922 0.46253 0.0
Cd454 Cd 0.99089 0.32099 0.46398 0.0
O455 O 0.99281 0.30028 0.46715 0.0
C456 C 0.9822 0.29416 0.46635 0.0
O457 O 0.97162 0.30068 0.46377 0.0
C458 C 0.97991 0.34806 0.47106 0.0
C459 C 0.97903 0.37052 0.43008 0.0
O460 O 0.97099 0.37746 0.43645 0.0
O461 O 0.97896 0.35829 0.43199 0.0
O462 O 0.63705 0.95491 0.45769 0.0
Cd463 Cd 0.63549 0.94222 0.43792 0.0
O464 O 0.65751 0.95797 0.45331 0.0
Cd465 Cd 0.67699 0.96492 0.45756 0.0
O466 O 0.69718 0.96921 0.46164 0.0
C467 C 0.70108 0.97274 0.47274 0.0
O468 O 0.69264 0.97421 0.4821 0.0
C469 C 0.64776 0.96019 0.46045 0.0
C470 C 0.62341 0.95778 0.41965 0.0
O471 O 0.61689 0.94995 0.42667 0.0
O472 O 0.63572 0.95792 0.42098 0.0
O473 O 0.02085 0.64593 0.46741 0.0
Cd474 Cd 0.0362 0.64648 0.44955 0.0
O475 O 0.01463 0.66525 0.46144 0.0
Cd476 Cd 0.00452 0.68333 0.4653 0.0
O477 O 0.00441 0.70362 0.47092 0.0
C478 C 0.01403 0.70998 0.46675 0.0
O479 O 0.02249 0.70406 0.45937 0.0
C480 C 0.01347 0.6556 0.46892 0.0
C481 C 0.02559 0.63277 0.42905 0.0
O482 O 0.03306 0.62726 0.43724 0.0
O483 O 0.02342 0.64488 0.43038 0.0
O484 O 0.35648 0.05032 0.47055 0.0
Cd485 Cd 0.35841 0.06521 0.45242 0.0
O486 O 0.34141 0.04119 0.4588 0.0
Cd487 Cd 0.32561 0.02732 0.45704 0.0
O488 O 0.30615 0.01984 0.45989 0.0
C489 C 0.30235 0.01667 0.47113 0.0
O490 O 0.31057 0.01724 0.48077 0.0
C491 C 0.34832 0.0413 0.46894 0.0
C492 C 0.36739 0.05045 0.43184 0.0
O493 O 0.37523 0.05666 0.43914 0.0
O494 O 0.35526 0.05169 0.43394 0.0
O495 O 0.04139 0.352 0.55413 0.0
Cd496 Cd 0.05178 0.35347 0.5752 0.0
O497 O 0.02776 0.33877 0.5635 0.0
Cd498 Cd 0.01251 0.32427 0.56216 0.0
O499 O 0.00658 0.30518 0.55564 0.0
C500 C 0.00041 0.30361 0.54515 0.0
O501 O 0.99659 0.31383 0.53868 0.0
C502 C 0.03136 0.34496 0.55352 0.0
C503 C 0.03498 0.36724 0.591 0.0
O504 O 0.04399 0.37296 0.58472 0.0
O505 O 0.03423 0.35491 0.59016 0.0
O506 O 0.63604 0.02716 0.53809 0.0
Cd507 Cd 0.63439 0.0397 0.55794 0.0
O508 O 0.65665 0.02499 0.54224 0.0
Cd509 Cd 0.67649 0.01906 0.5381 0.0
O510 O 0.69724 0.01672 0.53543 0.0
C511 C 0.70293 0.02299 0.52655 0.0
O512 O 0.69603 0.03034 0.51884 0.0
C513 C 0.64695 0.02236 0.53519 0.0
C514 C 0.62385 0.02348 0.5766 0.0
O515 O 0.61666 0.031 0.56988 0.0
O516 O 0.63608 0.02396 0.57478 0.0
O517 O 0.35524 0.9626 0.53622 0.0
Cd518 Cd 0.35567 0.94818 0.55482 0.0
O519 O 0.33567 0.96796 0.54202 0.0
Cd520 Cd 0.31724 0.97835 0.54192 0.0
O521 O 0.29688 0.98274 0.5387 0.0
C522 C 0.29171 0.97966 0.52799 0.0
O523 O 0.29894 0.97443 0.51897 0.0
C524 C 0.34523 0.96946 0.53442 0.0
C525 C 0.36864 0.96124 0.57441 0.0
O526 O 0.37465 0.95355 0.5668 0.0
O527 O 0.35639 0.9624 0.57302 0.0
C528 C 0.97036 0.53089 0.14691 0.0
C529 C 0.9599 0.5254 0.15351 0.0
C530 C 0.98296 0.52619 0.14868 0.0
C531 C 0.98509 0.51567 0.15716 0.0
C532 C 0.97454 0.51004 0.16378 0.0
C533 C 0.96205 0.51494 0.16182 0.0
C534 C 0.99398 0.53247 0.1415 0.0
C535 C 0.97642 0.49878 0.17286 0.0
C536 C 0.01529 0.49533 0.15261 0.0
C537 C 0.02321 0.49992 0.16257 0.0
C538 C 0.00284 0.50036 0.15075 0.0
C539 C 0.99833 0.51037 0.15891 0.0
C540 C 0.00644 0.51522 0.1688 0.0
C541 C 0.01876 0.50987 0.17056 0.0
C542 C 0.9945 0.49496 0.14006 0.0
C543 C 0.00208 0.52592 0.17767 0.0
H544 H 0.96869 0.53892 0.14041 0.0
H545 H 0.95393 0.51035 0.16656 0.0
H546 H 0.00129 0.53608 0.14847 0.0
H547 H 0.99885 0.52526 0.13525 0.0
H548 H 0.99072 0.54067 0.13539 0.0
H549 H 0.96727 0.4958 0.1776 0.0
H550 H 0.98038 0.49041 0.16748 0.0
H551 H 0.98353 0.50134 0.18046 0.0
H552 H 0.01878 0.48769 0.14636 0.0
H553 H 0.02503 0.51372 0.178 0.0
H554 H 0.99172 0.50278 0.13329 0.0
H555 H 0.98545 0.49095 0.14418 0.0
H556 H 0.99947 0.48723 0.13453 0.0
H557 H 0.99749 0.53387 0.17213 0.0
H558 H 0.01016 0.52995 0.18346 0.0
H559 H 0.99476 0.52202 0.1844 0.0
C560 C 0.51396 0.02107 0.13471 0.0
C561 C 0.52545 0.02197 0.14179 0.0
C562 C 0.50572 0.01041 0.1362 0.0
C563 C 0.50924 0.00033 0.14475 0.0
C564 C 0.52096 0.00113 0.15175 0.0
C565 C 0.52892 0.01198 0.15021 0.0
C566 C 0.4932 0.00999 0.12873 0.0
C567 C 0.52515 0.99047 0.16079 0.0
C568 C 0.48388 0.97719 0.15768 0.0
C569 C 0.48551 0.96656 0.14948 0.0
C570 C 0.49135 0.98839 0.15608 0.0
C571 C 0.5008 0.98882 0.1462 0.0
C572 C 0.50238 0.97813 0.13782 0.0
C573 C 0.49459 0.96718 0.13948 0.0
C574 C 0.48923 -0.0003 0.16505 0.0
C575 C 0.51247 0.97815 0.12728 0.0
H576 H 0.5113 0.02883 0.12821 0.0
H577 H 0.53798 0.01254 0.15542 0.0
H578 H 0.49304 0.00139 0.12234 0.0
H579 H 0.48495 0.00907 0.1355 0.0
H580 H 0.49175 0.01875 0.12271 0.0
H581 H 0.53458 0.99256 0.16546 0.0
H582 H 0.51779 0.98906 0.16844 0.0
H583 H 0.52595 0.98124 0.1554 0.0
H584 H 0.47664 0.97682 0.16523 0.0
H585 H 0.49585 0.95893 0.13315 0.0
H586 H 0.48819 0.00877 0.15944 0.0
H587 H 0.49774 0.00085 0.17145 0.0
H588 H 0.48051 0.99842 0.17117 0.0
H589 H 0.51083 0.98639 0.12064 0.0
H590 H 0.51241 0.96908 0.12156 0.0
H591 H 0.5222 0.97942 0.13158 0.0
C592 C 0.97119 0.48608 0.83791 0.0
C593 C 0.96982 0.47536 0.84605 0.0
C594 C 0.9831 0.49244 0.8367 0.0
C595 C 0.99383 0.48802 0.84391 0.0
C596 C 0.99249 0.47719 0.85216 0.0
C597 C 0.98046 0.47103 0.8532 0.0
C598 C 0.98411 0.50403 0.82791 0.0
C599 C 0.00375 0.47218 0.85998 0.0
C600 C 0.02766 0.49748 0.83344 0.0
C601 C 0.03051 0.50751 0.84207 0.0
C602 C 0.01567 0.49118 0.83378 0.0
C603 C 0.00638 0.49492 0.84309 0.0
C604 C 0.00919 0.50507 0.85181 0.0
C605 C 0.02126 0.5112 0.85123 0.0
C606 C 0.01303 0.48037 0.82435 0.0
C607 C 0.99951 0.50936 0.86184 0.0
H608 H 0.96286 0.48978 0.83279 0.0
H609 H 0.97938 0.46279 0.85957 0.0
H610 H 0.98635 0.51277 0.8337 0.0
H611 H 0.99213 0.50271 0.82093 0.0
H612 H 0.97505 0.50579 0.82242 0.0
H613 H 0.00119 0.46345 0.86567 0.0
H614 H 0.01193 0.46978 0.8535 0.0
H615 H 0.00716 0.47978 0.86673 0.0
H616 H 0.03497 0.49422 0.8267 0.0
H617 H 0.02348 0.51891 0.85797 0.0
H618 H 0.00415 0.48248 0.81874 0.0
H619 H 0.01132 0.47123 0.82969 0.0
H620 H 0.02114 0.47887 0.81749 0.0
H621 H 0.99032 0.51218 0.8571 0.0
H622 H 0.00306 0.51765 0.86765 0.0
H623 H 0.9973 0.50124 0.86847 0.0
C624 C 0.4684 0.01626 0.85965 0.0
C625 C 0.47128 0.02818 0.85395 0.0
C626 C 0.47677 0.00569 0.85818 0.0
C627 C 0.48831 0.00718 0.85098 0.0
C628 C 0.49135 0.01929 0.84543 0.0
C629 C 0.48283 0.02967 0.84707 0.0
C630 C 0.47323 0.99291 0.86424 0.0
C631 C 0.50362 0.02129 0.83778 0.0
C632 C 0.51566 0.98334 0.85626 0.0
C633 C 0.51433 0.97525 0.84549 0.0
C634 C 0.50725 0.99379 0.85818 0.0
C635 C 0.49722 0.99609 0.84918 0.0
C636 C 0.49577 0.98787 0.83835 0.0
C637 C 0.50431 0.97749 0.83668 0.0
C638 C 0.50911 0.00239 0.86981 0.0
C639 C 0.48513 0.98997 0.82858 0.0
H640 H 0.45952 0.01517 0.86509 0.0
H641 H 0.48533 0.03904 0.84313 0.0
H642 H 0.47243 0.98538 0.85665 0.0
H643 H 0.48094 0.9898 0.87099 0.0
H644 H 0.46394 0.99337 0.86959 0.0
H645 H 0.50453 0.03133 0.83409 0.0
H646 H 0.51214 0.01911 0.8439 0.0
H647 H 0.50387 0.01456 0.82945 0.0
H648 H 0.52334 0.98153 0.86314 0.0
H649 H 0.50289 0.97092 0.82868 0.0
H650 H 0.50024 0.0024 0.87581 0.0
H651 H 0.51082 0.01248 0.86665 0.0
H652 H 0.51737 0.99926 0.87591 0.0
H653 H 0.47558 0.9894 0.83341 0.0
H654 H 0.4854 0.98276 0.82064 0.0
H655 H 0.48596 -0.00023 0.82432 0.0
C656 C 0.14951 0.97312 0.51884 0.0
C657 C 0.14148 0.9765 0.5292 0.0
C658 C 0.15119 0.98144 0.50832 0.0
C659 C 0.14457 0.99339 0.50811 0.0
C660 C 0.13634 0.99682 0.51849 0.0
C661 C 0.13481 0.98826 0.5289 0.0
C662 C 0.15994 0.97738 0.49737 0.0
C663 C 0.12917 0.00952 0.5186 0.0
C664 C 0.15809 0.01936 0.48612 0.0
C665 C 0.14996 0.01835 0.47536 0.0
C666 C 0.15638 0.01138 0.49691 0.0
C667 C 0.14623 0.00222 0.49694 0.0
C668 C 0.13787 0.00127 0.48615 0.0
C669 C 0.13979 0.00943 0.47551 0.0
C670 C 0.1654 0.01275 0.50829 0.0
C671 C 0.12701 0.99154 0.4858 0.0
H672 H 0.15424 0.96378 0.51881 0.0
H673 H 0.12849 0.99079 0.53686 0.0
H674 H 0.15435 0.9769 0.48824 0.0
H675 H 0.16769 0.98465 0.49598 0.0
H676 H 0.16449 0.96783 0.49912 0.0
H677 H 0.12329 0.0108 0.52748 0.0
H678 H 0.13613 0.01764 0.51788 0.0
H679 H 0.1227 0.01013 0.51009 0.0
H680 H 0.16563 0.02662 0.48623 0.0
H681 H 0.13342 0.00874 0.46722 0.0
H682 H 0.1705 0.00349 0.51005 0.0
H683 H 0.1598 0.01502 0.51714 0.0
H684 H 0.17272 0.02045 0.50679 0.0
H685 H 0.13098 0.98163 0.48667 0.0
H686 H 0.12129 0.99215 0.47674 0.0
H687 H 0.12043 0.99308 0.49411 0.0
C688 C 0.02706 0.15479 0.49604 0.0
C689 C 0.03295 0.16651 0.4927 0.0
C690 C 0.01454 0.15183 0.49178 0.0
C691 C 0.00781 0.16077 0.48394 0.0
C692 C 0.01373 0.17261 0.4805 0.0
C693 C 0.02629 0.17528 0.48484 0.0
C694 C 0.00853 0.13912 0.49567 0.0
C695 C 0.00683 0.1824 0.47217 0.0
C696 C 0.98027 0.1482 0.46322 0.0
C697 C 0.9695 0.15188 0.47051 0.0
C698 C 0.99283 0.15107 0.46745 0.0
C699 C 0.99459 0.15771 0.47929 0.0
C700 C 0.98373 0.16127 0.48677 0.0
C701 C 0.97132 0.15817 0.48235 0.0
C702 C 0.0042 0.14707 0.45924 0.0
C703 C 0.98522 0.16831 0.49946 0.0
H704 H 0.03222 0.14795 0.50206 0.0
H705 H 0.03101 0.18409 0.48176 0.0
H706 H 0.99939 0.14087 0.50099 0.0
H707 H 0.00608 0.13341 0.48694 0.0
H708 H 0.01503 0.13326 0.50188 0.0
H709 H 0.0128 0.19112 0.47032 0.0
H710 H 0.00417 0.178 0.46277 0.0
H711 H 0.99773 0.18546 0.47693 0.0
H712 H 0.97886 0.14323 0.4541 0.0
H713 H 0.96302 0.16052 0.48828 0.0
H714 H 0.01067 0.14062 0.46484 0.0
H715 H 0.00993 0.15571 0.4565 0.0
H716 H 0.00118 0.14198 0.4503 0.0
H717 H 0.99099 0.16239 0.50627 0.0
H718 H 0.97577 0.17055 0.50401 0.0
H719 H 0.99053 0.1775 0.49794 0.0
C720 C 0.84512 0.97756 0.49161 0.0
C721 C 0.85395 0.97884 0.48143 0.0
C722 C 0.8451 0.98631 0.50195 0.0
C723 C 0.85424 0.99646 0.50217 0.0
C724 C 0.86332 0.99768 0.49201 0.0
C725 C 0.8631 0.9888 0.48178 0.0
C726 C 0.83533 0.98466 0.51265 0.0
C727 C 0.87321 0.0084 0.49191 0.0
C728 C 0.84714 0.02648 0.52189 0.0
C729 C 0.85473 0.02444 0.5329 0.0
C730 C 0.8467 0.01733 0.51193 0.0
C731 C 0.8542 0.00595 0.51293 0.0
C732 C 0.86191 0.00383 0.52403 0.0
C733 C 0.86213 0.01316 0.53388 0.0
C734 C 0.83843 0.01997 0.5002 0.0
C735 C 0.87005 0.99181 0.52542 0.0
H736 H 0.83842 0.96953 0.49166 0.0
H737 H 0.87001 0.98972 0.47396 0.0
H738 H 0.84037 0.98326 0.522 0.0
H739 H 0.82936 0.99351 0.51355 0.0
H740 H 0.82881 0.9763 0.51098 0.0
H741 H 0.87967 0.00791 0.48336 0.0
H742 H 0.86827 0.01791 0.49193 0.0
H743 H 0.87922 0.00792 0.50077 0.0
H744 H 0.84189 0.03546 0.52081 0.0
H745 H 0.86813 0.01165 0.54233 0.0
H746 H 0.83165 0.01184 0.49856 0.0
H747 H 0.84464 0.02075 0.4915 0.0
H748 H 0.83276 0.02903 0.50117 0.0
H749 H 0.86389 0.98309 0.52451 0.0
H750 H 0.87518 0.99143 0.53484 0.0
H751 H 0.87731 0.99141 0.51756 0.0
C752 C 0.03055 0.84059 0.46711 0.0
C753 C 0.04126 0.84169 0.47529 0.0
C754 C 0.01809 0.83889 0.47222 0.0
C755 C 0.01634 0.83871 0.48579 0.0
C756 C 0.02714 0.84005 0.49406 0.0
C757 C 0.03949 0.84142 0.48869 0.0
C758 C 0.00683 0.83715 0.46312 0.0
C759 C 0.02565 0.84021 0.50857 0.0
C760 C 0.98334 0.84702 0.49943 0.0
C761 C 0.97867 0.83484 0.50316 0.0
C762 C 0.99555 0.84841 0.49371 0.0
C763 C 0.0032 0.83733 0.49142 0.0
C764 C 0.99854 0.82501 0.49506 0.0
C765 C 0.98648 0.82397 0.50114 0.0
C766 C 0.00034 0.86176 0.49031 0.0
C767 C 0.00632 0.81293 0.4926 0.0
H768 H 0.03197 0.84079 0.45674 0.0
H769 H 0.04778 0.84251 0.495 0.0
H770 H 0.0019 0.82786 0.46518 0.0
H771 H -0.00035 0.84495 0.46463 0.0
H772 H 0.00987 0.83722 0.45283 0.0
H773 H 0.03501 0.84165 0.51362 0.0
H774 H 0.01896 0.84806 0.51147 0.0
H775 H 0.02137 0.83098 0.51192 0.0
H776 H 0.97747 0.85552 0.50101 0.0
H777 H 0.98339 0.81464 0.50455 0.0
H778 H 0.00249 0.86234 0.47983 0.0
H779 H 0.00947 0.86379 0.49555 0.0
H780 H 0.99321 0.8694 0.49277 0.0
H781 H 0.00921 0.81249 0.4823 0.0
H782 H 0.00088 0.80399 0.49499 0.0
H783 H 0.01529 0.81312 0.49845 0.0
C784 C 0.53263 0.15892 0.97112 0.0
C785 C 0.52647 0.15482 0.95981 0.0
C786 C 0.52547 0.16137 0.9824 0.0
C787 C 0.51193 0.15936 0.98236 0.0
C788 C 0.50573 0.15508 0.97095 0.0
C789 C 0.51308 0.15291 0.95981 0.0
C790 C 0.53237 0.16611 0.99433 0.0
C791 C 0.49136 0.15257 0.97058 0.0
C792 C 0.49486 0.15239 0.01399 0.0
C793 C 0.48864 0.16416 0.01651 0.0
C794 C 0.50259 0.15076 0.003 0.0
C795 C 0.50426 0.16121 0.99435 0.0
C796 C 0.49808 0.17315 0.99685 0.0
C797 C 0.49018 0.17442 0.0078 0.0
C798 C 0.50882 0.1378 0.00055 0.0
C799 C 0.49961 0.18451 0.98782 0.0
H800 H 0.543 0.16038 0.97108 0.0
H801 H 0.50838 0.14945 0.95111 0.0
H802 H 0.52803 0.17534 0.99763 0.0
H803 H 0.53119 0.15902 0.00228 0.0
H804 H 0.54286 0.16764 0.99263 0.0
H805 H 0.48802 0.1494 0.96089 0.0
H806 H 0.48881 0.14499 0.97771 0.0
H807 H 0.486 0.16143 0.97331 0.0
H808 H 0.49368 0.14439 0.02064 0.0
H809 H 0.48494 0.18331 0.00929 0.0
H810 H 0.51945 0.13891 -0.00023 0.0
H811 H 0.50534 0.1338 0.99123 0.0
H812 H 0.50668 0.13071 0.00831 0.0
H813 H 0.50999 0.18636 0.98588 0.0
H814 H 0.4952 0.19345 0.99178 0.0
H815 H 0.49496 0.18229 0.97843 0.0
C816 C 0.48799 0.8388 0.98619 0.0
C817 C 0.48475 0.85099 0.98131 0.0
C818 C 0.4974 0.8374 0.99584 0.0
C819 C 0.50321 0.84854 0.00122 0.0
C820 C 0.49963 0.86092 0.99666 0.0
C821 C 0.49052 0.86199 0.98669 0.0
C822 C 0.50086 0.82398 0.00037 0.0
C823 C 0.50538 0.87306 0.00237 0.0
C824 C 0.5176 0.84656 0.03485 0.0
C825 C 0.53086 0.84647 0.03219 0.0
C826 C 0.50848 0.84705 0.02486 0.0
C827 C 0.51276 0.84734 0.01188 0.0
C828 C 0.52616 0.84699 0.00913 0.0
C829 C 0.53508 0.84674 0.01935 0.0
C830 C 0.49429 0.84754 0.02819 0.0
C831 C 0.53105 0.84689 0.99539 0.0
H832 H 0.48301 0.83033 0.98272 0.0
H833 H 0.48797 0.87147 0.98305 0.0
H834 H 0.51135 0.82312 0.00236 0.0
H835 H 0.49557 0.82186 0.00944 0.0
H836 H 0.49815 0.81653 0.99314 0.0
H837 H 0.5014 0.88196 0.99788 0.0
H838 H 0.50346 0.87339 0.01291 0.0
H839 H 0.51601 0.87303 0.00107 0.0
H840 H 0.51435 0.84666 0.0448 0.0
H841 H 0.54536 0.84666 0.01731 0.0
H842 H 0.48922 0.8392 0.02377 0.0
H843 H 0.48991 0.85645 0.02417 0.0
H844 H 0.49258 0.84735 0.03878 0.0
H845 H 0.52664 0.83873 0.99002 0.0
H846 H 0.54173 0.84599 0.99488 0.0
H847 H 0.52814 0.85592 0.99042 0.0
C848 C 0.15972 0.51309 0.01331 0.0
C849 C 0.14788 0.51814 0.01747 0.0
C850 C 0.16025 0.50243 0.00497 0.0
C851 C 0.14863 0.49717 6e-05 0.0
C852 C 0.13663 0.50257 0.00378 0.0
C853 C 0.1364 0.5129 0.01254 0.0
C854 C 0.17329 0.497 0.00132 0.0
C855 C 0.12404 0.4975 0.99843 0.0
C856 C 0.14987 0.47851 0.96858 0.0
C857 C 0.14835 0.46577 0.97287 0.0
C858 C 0.1501 0.48882 0.97734 0.0
C859 C 0.14897 0.48628 0.99072 0.0
C860 C 0.14773 0.47338 0.99512 0.0
C861 C 0.14722 0.46326 0.9861 0.0
C862 C 0.15124 0.50244 0.97225 0.0
C863 C 0.14697 0.47029 0.00935 0.0
H864 H 0.16861 0.51759 0.0163 0.0
H865 H 0.12719 0.51685 0.01559 0.0
H866 H 0.17302 0.48631 0.00077 0.0
H867 H 0.17612 0.50077 0.9917 0.0
H868 H 0.18088 0.49985 0.00835 0.0
H869 H 0.11556 0.50299 0.00205 0.0
H870 H 0.12415 0.49805 0.98772 0.0
H871 H 0.12282 0.4872 0.00108 0.0
H872 H 0.15047 0.48044 0.95831 0.0
H873 H 0.14606 0.45339 0.98938 0.0
H874 H 0.16002 0.5071 0.97622 0.0
H875 H 0.14281 0.50824 0.97546 0.0
H876 H 0.15175 0.50276 0.96154 0.0
H877 H 0.15543 0.47448 0.01444 0.0
H878 H 0.14669 0.45973 0.01121 0.0
H879 H 0.13818 0.47474 0.01358 0.0
C880 C 0.86267 0.47264 0.00359 0.0
C881 C 0.85463 0.4716 0.01443 0.0
C882 C 0.86228 0.48362 0.99565 0.0
C883 C 0.85368 0.49381 0.99868 0.0
C884 C 0.84544 0.49276 0.00953 0.0
C885 C 0.8461 0.48171 0.01735 0.0
C886 C 0.87125 0.48441 0.98418 0.0
C887 C 0.83617 0.50344 0.01308 0.0
C888 C 0.8624 0.52698 0.9857 0.0
C889 C 0.85451 0.52781 0.97474 0.0
C890 C 0.86203 0.51608 0.99375 0.0
C891 C 0.85361 0.50574 0.99069 0.0
C892 C 0.84549 0.50661 0.97974 0.0
C893 C 0.84613 0.51759 0.97183 0.0
C894 C 0.87087 0.51549 0.00533 0.0
C895 C 0.8364 0.49578 0.97615 0.0
H896 H 0.86936 0.46489 0.00138 0.0
H897 H 0.84032 0.48125 0.02604 0.0
H898 H 0.86562 0.48607 0.97522 0.0
H899 H 0.87791 0.49272 0.98534 0.0
H900 H 0.87709 0.47549 0.98295 0.0
H901 H 0.82989 0.5008 0.02137 0.0
H902 H 0.84166 0.51229 0.01564 0.0
H903 H 0.82995 0.50587 0.0047 0.0
H904 H 0.86899 0.53482 0.98791 0.0
H905 H 0.84047 0.51788 0.96305 0.0
H906 H 0.87774 0.50734 0.00423 0.0
H907 H 0.86518 0.51367 0.01423 0.0
H908 H 0.87649 0.52454 0.00664 0.0
H909 H 0.84204 0.48703 0.97361 0.0
H910 H 0.83011 0.49833 0.96784 0.0
H911 H 0.83018 0.49325 0.9845 0.0
C912 C 0.53194 0.98124 0.65216 0.0
C913 C 0.53023 0.96783 0.65161 0.0
C914 C 0.5213 0.98959 0.65274 0.0
C915 C 0.50866 0.98437 0.65296 0.0
C916 C 0.50691 0.9708 0.65275 0.0
C917 C 0.51773 0.96268 0.65186 0.0
C918 C 0.52356 0.00399 0.65283 0.0
C919 C 0.4936 0.9649 0.65343 0.0
C920 C 0.48176 0.0067 0.6641 0.0
C921 C 0.47578 0.00993 0.6524 0.0
C922 C 0.49219 0.99807 0.66451 0.0
C923 C 0.49728 0.99313 0.65283 0.0
C924 C 0.49167 0.99679 0.64091 0.0
C925 C 0.4809 0.00502 0.64086 0.0
C926 C 0.49779 0.99448 0.67748 0.0
C927 C 0.49706 0.99205 0.62821 0.0
H928 H 0.54161 0.98522 0.6517 0.0
H929 H 0.51645 0.95229 0.65146 0.0
H930 H 0.5186 0.00851 0.64447 0.0
H931 H 0.51941 0.00828 0.66171 0.0
H932 H 0.53399 0.00648 0.65239 0.0
H933 H 0.49392 0.95418 0.6539 0.0
H934 H 0.48843 0.96857 0.66208 0.0
H935 H 0.48788 0.96778 0.64484 0.0
H936 H 0.47851 0.01107 0.67296 0.0
H937 H 0.47645 0.00756 0.63173 0.0
H938 H 0.50629 0.00068 0.67948 0.0
H939 H 0.50097 0.98425 0.67768 0.0
H940 H 0.4907 0.99597 0.6854 0.0
H941 H 0.50741 0.99472 0.62741 0.0
H942 H 0.49181 0.99611 0.61978 0.0
H943 H 0.49648 0.98136 0.62776 0.0
C944 C 0.01177 0.53273 0.6478 0.0
C945 C 0.02259 0.53238 0.63968 0.0
C946 C 0.00324 0.52225 0.64851 0.0
C947 C 0.00547 0.51125 0.64072 0.0
C948 C 0.01629 0.5109 0.63235 0.0
C949 C 0.02471 0.52152 0.63189 0.0
C950 C 0.99179 0.523 0.65752 0.0
C951 C 0.01893 0.49935 0.62386 0.0
C952 C 0.98969 0.47981 0.65092 0.0
C953 C 0.97875 0.4795 0.64296 0.0
C954 C 0.99849 0.49008 0.65028 0.0
C955 C 0.99639 0.50016 0.64129 0.0
C956 C 0.98549 0.49976 0.63303 0.0
C957 C 0.97681 0.48939 0.63394 0.0
C958 C 0.01002 0.49015 0.65921 0.0
C959 C 0.98296 0.51033 0.62331 0.0
H960 H 0.00974 0.54136 0.65334 0.0
H961 H 0.033 0.52132 0.62549 0.0
H962 H 0.98269 0.5223 0.6519 0.0
H963 H 0.99195 0.51475 0.66436 0.0
H964 H 0.99163 0.53212 0.66317 0.0
H965 H 0.02779 0.50058 0.61794 0.0
H966 H 0.02003 0.49056 0.62989 0.0
H967 H 0.01062 0.49767 0.6173 0.0
H968 H 0.99156 0.47187 0.65746 0.0
H969 H 0.96842 0.48908 0.62768 0.0
H970 H 0.00992 0.49901 0.66524 0.0
H971 H 0.01908 0.4903 0.65348 0.0
H972 H 0.01021 0.48161 0.6657 0.0
H973 H 0.98175 0.51971 0.62836 0.0
H974 H 0.97418 0.50845 0.61744 0.0
H975 H 0.99135 0.51133 0.61671 0.0
C976 C 0.46198 0.9941 0.34057 0.0
C977 C 0.4603 0.98401 0.34944 0.0
C978 C 0.47367 0.00092 0.3399 0.0
C979 C 0.48381 0.99773 0.34849 0.0
C980 C 0.48215 0.98758 0.3575 0.0
C981 C 0.47039 0.98086 0.35789 0.0
C982 C 0.47505 0.01172 0.3302 0.0
C983 C 0.49274 0.98393 0.36684 0.0
C984 C 0.51806 0.00826 0.34075 0.0
C985 C 0.51937 0.0193 0.34848 0.0
C986 C 0.50646 0.00127 0.34047 0.0
C987 C 0.49601 0.00527 0.34832 0.0
C988 C 0.4973 0.01637 0.35621 0.0
C989 C 0.50898 0.02324 0.3562 0.0
C990 C 0.50544 0.98949 0.33192 0.0
C991 C 0.48638 0.02091 0.36476 0.0
H992 H 0.45402 0.99698 0.33444 0.0
H993 H 0.46906 0.97314 0.36484 0.0
H994 H 0.47625 0.02105 0.33533 0.0
H995 H 0.48382 0.01023 0.32422 0.0
H996 H 0.46655 0.01246 0.32369 0.0
H997 H 0.49003 0.9756 0.37303 0.0
H998 H 0.50168 0.98145 0.36148 0.0
H999 H 0.49505 0.99227 0.37316 0.0
H1000 H 0.52624 0.0048 0.33524 0.0
H1001 H 0.50999 0.03171 0.36227 0.0
H1002 H 0.49706 0.99047 0.32531 0.0
H1003 H 0.50375 0.98078 0.33793 0.0
H1004 H 0.51428 0.98795 0.32604 0.0
H1005 H 0.47765 0.02283 0.35885 0.0
H1006 H 0.48888 0.02982 0.37018 0.0
H1007 H 0.48383 0.01324 0.37179 0.0
C1008 C 0.0379 0.47806 0.35219 0.0
C1009 C 0.03242 0.46581 0.35373 0.0
C1010 C 0.03003 0.48903 0.35081 0.0
C1011 C 0.01642 0.48767 0.35136 0.0
C1012 C 0.01088 0.4753 0.35316 0.0
C1013 C 0.01897 0.46451 0.35422 0.0
C1014 C 0.03625 0.50204 0.34865 0.0
C1015 C 0.99644 0.47349 0.35412 0.0
C1016 C 0.99645 0.51711 0.36016 0.0
C1017 C 0.99154 0.52084 0.3481 0.0
C1018 C 0.00455 0.50631 0.36136 0.0
C1019 C 0.00793 0.49917 0.35021 0.0
C1020 C 0.0029 0.5028 0.33802 0.0
C1021 C 0.99456 0.51345 0.33717 0.0
C1022 C 0.00943 0.50253 0.37457 0.0
C1023 C 0.0063 0.49542 0.3259 0.0
H1024 H 0.04833 0.47902 0.35183 0.0
H1025 H 0.01477 0.45502 0.35567 0.0
H1026 H 0.03262 0.50633 0.33952 0.0
H1027 H 0.03359 0.50872 0.35658 0.0
H1028 H 0.04695 0.5014 0.34814 0.0
H1029 H 0.99371 0.46323 0.35573 0.0
H1030 H 0.99255 0.47937 0.36219 0.0
H1031 H 0.9917 0.4769 0.34514 0.0
H1032 H 0.99404 0.52271 0.36867 0.0
H1033 H 0.9902 0.51576 0.32798 0.0
H1034 H 0.02014 0.50283 0.37474 0.0
H1035 H 0.0065 0.49246 0.3768 0.0
H1036 H 0.00571 0.50897 0.3823 0.0
H1037 H 0.01695 0.49481 0.32483 0.0
H1038 H 0.00223 0.49998 0.31708 0.0
H1039 H 0.0026 0.48539 0.32657 0.0
C1040 C 0.63733 0.50629 0.97579 0.0
C1041 C 0.64547 0.51707 0.97501 0.0
C1042 C 0.63782 0.49794 0.98645 0.0
C1043 C 0.64661 0.50049 0.9966 0.0
C1044 C 0.65495 0.51129 0.99582 0.0
C1045 C 0.65421 0.51951 0.98507 0.0
C1046 C 0.62875 0.48653 0.98695 0.0
C1047 C 0.66442 0.51435 0.00648 0.0
C1048 C 0.63822 0.48651 0.02944 0.0
C1049 C 0.64606 0.47548 0.02983 0.0
C1050 C 0.6385 0.49488 0.01878 0.0
C1051 C 0.64676 0.49209 0.00824 0.0
C1052 C 0.65479 0.48104 0.00864 0.0
C1053 C 0.65427 0.47281 0.0194 0.0
C1054 C 0.62977 0.50656 0.0187 0.0
C1055 C 0.66369 0.47772 0.99757 0.0
H1056 H 0.63049 0.50444 0.96807 0.0
H1057 H 0.66012 0.52813 0.98481 0.0
H1058 H 0.63431 0.47746 0.98823 0.0
H1059 H 0.6222 0.48746 0.99538 0.0
H1060 H 0.62278 0.48566 0.97807 0.0
H1061 H 0.67074 0.52268 0.00405 0.0
H1062 H 0.6591 0.51662 0.0155 0.0
H1063 H 0.6706 0.50583 0.00849 0.0
H1064 H 0.63179 0.48854 0.03744 0.0
H1065 H 0.65991 0.46401 0.01937 0.0
H1066 H 0.62281 0.50583 0.01058 0.0
H1067 H 0.63553 0.51545 0.01715 0.0
H1068 H 0.62425 0.5076 0.02784 0.0
H1069 H 0.6579 0.47561 0.9888 0.0
H1070 H 0.66987 0.46922 -0.00028 0.0
H1071 H 0.67 0.48607 0.99528 0.0
C1072 C 0.48937 0.64309 0.96375 0.0
C1073 C 0.47748 0.64875 0.9668 0.0
C1074 C 0.50025 0.64515 0.97158 0.0
C1075 C 0.49912 0.65295 0.98277 0.0
C1076 C 0.48707 0.65853 0.98598 0.0
C1077 C 0.47637 0.65629 0.97799 0.0
C1078 C 0.51296 0.63904 0.96785 0.0
C1079 C 0.48546 0.66681 0.99788 0.0
C1080 C 0.52448 0.64853 0.00887 0.0
C1081 C 0.53272 0.65899 0.00648 0.0
C1082 C 0.51337 0.64657 0.00136 0.0
C1083 C 0.51054 0.65521 0.99115 0.0
C1084 C 0.51878 0.66585 0.98876 0.0
C1085 C 0.52983 0.66757 0.99642 0.0
C1086 C 0.50477 0.63514 0.00423 0.0
C1087 C 0.51611 0.67524 0.97793 0.0
H1088 H 0.49019 0.63716 0.95516 0.0
H1089 H 0.46705 0.66022 0.98066 0.0
H1090 H 0.5204 0.64663 0.96648 0.0
H1091 H 0.51638 0.63263 0.97573 0.0
H1092 H 0.51223 0.63329 0.95882 0.0
H1093 H 0.47547 0.67059 0.9989 0.0
H1094 H 0.48789 0.66112 0.00663 0.0
H1095 H 0.49223 0.67511 0.99752 0.0
H1096 H 0.52676 0.64183 0.01659 0.0
H1097 H 0.53646 0.67533 0.99417 0.0
H1098 H 0.50452 0.62857 0.99578 0.0
H1099 H 0.49472 0.63845 0.00598 0.0
H1100 H 0.50809 0.62959 0.01279 0.0
H1101 H 0.51647 0.67011 0.96853 0.0
H1102 H 0.52317 0.68332 0.9777 0.0
H1103 H 0.50626 0.67934 0.97894 0.0
C1104 C 0.35392 0.4703 0.99649 0.0
C1105 C 0.34491 0.47076 0.98639 0.0
C1106 C 0.35576 0.48094 0.00466 0.0
C1107 C 0.34853 0.49235 0.00255 0.0
C1108 C 0.33965 0.49297 0.99216 0.0
C1109 C 0.33797 0.48215 0.98418 0.0
C1110 C 0.36528 0.4799 0.01567 0.0
C1111 C 0.33189 0.50503 0.98953 0.0
C1112 C 0.34345 0.51575 0.03027 0.0
C1113 C 0.3525 0.52538 0.02739 0.0
C1114 C 0.34215 0.50486 0.02232 0.0
C1115 C 0.35014 0.50359 0.0113 0.0
C1116 C 0.35956 0.51312 0.00858 0.0
C1117 C 0.36068 0.52388 0.01673 0.0
C1118 C 0.3321 0.49481 0.02563 0.0
C1119 C 0.36824 0.51209 0.9969 0.0
H1120 H 0.35931 0.46149 0.99819 0.0
H1121 H 0.33134 0.48266 0.9761 0.0
H1122 H 0.37265 0.48764 0.0149 0.0
H1123 H 0.36019 0.48127 0.025 0.0
H1124 H 0.37028 0.47041 0.01585 0.0
H1125 H 0.32552 0.50399 0.98096 0.0
H1126 H 0.32581 0.50738 0.99803 0.0
H1127 H 0.33847 0.51333 0.98793 0.0
H1128 H 0.33741 0.51672 0.03876 0.0
H1129 H 0.36769 0.53134 0.01453 0.0
H1130 H 0.33674 0.48521 0.02668 0.0
H1131 H 0.32497 0.49404 0.01767 0.0
H1132 H 0.32686 0.49712 0.0347 0.0
H1133 H 0.37366 0.50286 0.99713 0.0
H1134 H 0.37526 0.52019 0.99632 0.0
H1135 H 0.3623 0.51207 0.98797 0.0
C1136 C 0.4717 0.35263 0.02117 0.0
C1137 C 0.47085 0.34996 0.0344 0.0
C1138 C 0.48291 0.34966 0.01418 0.0
C1139 C 0.49346 0.34377 0.02058 0.0
C1140 C 0.4926 0.34098 0.03395 0.0
C1141 C 0.48133 0.34427 0.04075 0.0
C1142 C 0.48356 0.35306 1e-05 0.0
C1143 C 0.50358 0.33451 0.04105 0.0
C1144 C 0.5187 0.32706 -0.00022 0.0
C1145 C 0.5287 0.33619 -0.00026 0.0
C1146 C 0.50724 0.32927 0.00672 0.0
C1147 C 0.5056 0.34108 0.01341 0.0
C1148 C 0.51549 0.3505 0.01308 0.0
C1149 C 0.52693 0.3479 0.00633 0.0
C1150 C 0.49689 0.31899 0.00684 0.0
C1151 C 0.51399 0.36334 0.01985 0.0
H1152 H 0.46366 0.35727 0.01633 0.0
H1153 H 0.48062 0.34219 0.05099 0.0
H1154 H 0.49157 0.35997 0.9983 0.0
H1155 H 0.48563 0.3443 0.9942 0.0
H1156 H 0.47443 0.35745 0.99645 0.0
H1157 H 0.50116 0.33249 0.0513 0.0
H1158 H 0.50611 0.32529 0.03622 0.0
H1159 H 0.51228 0.34075 0.04076 0.0
H1160 H 0.51964 0.31831 0.9942 0.0
H1161 H 0.53457 0.35507 0.0063 0.0
H1162 H 0.48811 0.32263 0.00191 0.0
H1163 H 0.49412 0.31664 0.01692 0.0
H1164 H 0.50005 0.30997 0.00196 0.0
H1165 H 0.50526 0.36839 0.01622 0.0
H1166 H 0.52249 0.36973 0.01841 0.0
H1167 H 0.51264 0.36179 0.03036 0.0
C1168 C 0.00685 0.6508 0.49153 0.0
C1169 C 0.00377 0.65566 0.47931 0.0
C1170 C 0.99758 0.65053 0.50141 0.0
C1171 C 0.98484 0.65482 0.49882 0.0
C1172 C 0.98167 0.65962 0.48642 0.0
C1173 C 0.99124 0.66014 0.47684 0.0
C1174 C 0.00141 0.64568 0.51461 0.0
C1175 C 0.96813 0.66402 0.48323 0.0
C1176 C 0.95992 0.64127 0.52198 0.0
C1177 C 0.95862 0.65147 0.53076 0.0
C1178 C 0.96795 0.64245 0.51113 0.0
C1179 C 0.97486 0.65409 0.50911 0.0
C1180 C 0.97286 0.66471 0.51748 0.0
C1181 C 0.96463 0.66329 0.52814 0.0
C1182 C 0.96949 0.63107 0.50215 0.0
C1183 C 0.97995 0.67733 0.51567 0.0
H1184 H 0.01656 0.64735 0.4934 0.0
H1185 H 0.98884 0.66369 0.46729 0.0
H1186 H 0.99924 0.65313 0.52201 0.0
H1187 H 0.99571 0.63696 0.51709 0.0
H1188 H 0.01184 0.64321 0.51518 0.0
H1189 H 0.96725 0.66748 0.47311 0.0
H1190 H 0.96125 0.65593 0.4847 0.0
H1191 H 0.96518 0.67193 0.48982 0.0
H1192 H 0.95511 0.63217 0.5239 0.0
H1193 H 0.96308 0.6714 0.53458 0.0
H1194 H 0.97935 0.62699 0.50317 0.0
H1195 H 0.96834 0.63417 0.49196 0.0
H1196 H 0.96237 0.62331 0.50421 0.0
H1197 H 0.99005 0.67618 0.51908 0.0
H1198 H 0.97538 0.68529 0.52122 0.0
H1199 H 0.98034 0.68015 0.50535 0.0
C1200 C 0.03018 0.34386 0.52946 0.0
C1201 C 0.02389 0.34412 0.54143 0.0
C1202 C 0.02308 0.34369 0.5179 0.0
C1203 C 0.00942 0.34417 0.51837 0.0
C1204 C 0.00304 0.34436 0.53046 0.0
C1205 C 0.01037 0.34426 0.54185 0.0
C1206 C 0.03018 0.34305 0.50518 0.0
C1207 C 0.9885 0.34503 0.53136 0.0
C1208 C 0.99198 0.3581 0.4893 0.0
C1209 C 0.98723 0.34695 0.48327 0.0
C1210 C 0.99918 0.3573 0.50075 0.0
C1211 C 0.00181 0.34505 0.50622 0.0
C1212 C 0.99695 0.33376 0.50022 0.0
C1213 C 0.98948 0.33489 0.48897 0.0
C1214 C 0.00396 0.36959 0.50699 0.0
C1215 C 0.99924 0.32048 0.50578 0.0
H1216 H 0.04065 0.34374 0.52915 0.0
H1217 H 0.00551 0.34475 0.55111 0.0
H1218 H 0.02664 0.3347 0.49946 0.0
H1219 H 0.02822 0.3519 0.49947 0.0
H1220 H 0.04079 0.3421 0.50649 0.0
H1221 H 0.98503 0.34475 0.54151 0.0
H1222 H 0.98501 0.35407 0.52678 0.0
H1223 H 0.9841 0.33685 0.52602 0.0
H1224 H 0.99016 0.36746 0.48499 0.0
H1225 H 0.98518 0.32631 0.48484 0.0
H1226 H 0.01466 0.36951 0.5075 0.0
H1227 H 0.0003 0.37024 0.51705 0.0
H1228 H 0.00086 0.37836 0.50165 0.0
H1229 H 0.00892 0.31967 0.51032 0.0
H1230 H 0.99831 0.31285 0.49828 0.0
H1231 H 0.99186 0.31859 0.51329 0.0
C1232 C 0.65681 0.00329 0.52416 0.0
C1233 C 0.64813 0.01367 0.52393 0.0
C1234 C 0.65751 0.99455 0.51384 0.0
C1235 C 0.64914 0.99611 0.50315 0.0
C1236 C 0.64036 0.00659 0.50285 0.0
C1237 C 0.63993 0.01523 0.51328 0.0
C1238 C 0.66697 0.98347 0.51451 0.0
C1239 C 0.63127 0.00856 0.49161 0.0
C1240 C 0.65683 0.97977 0.47126 0.0
C1241 C 0.64869 0.96896 0.47167 0.0
C1242 C 0.65732 0.98852 0.48158 0.0
C1243 C 0.64926 0.98655 0.49244 0.0
C1244 C 0.64101 0.97565 0.49291 0.0
C1245 C 0.6408 0.96699 0.48249 0.0
C1246 C 0.66623 4e-05 0.48073 0.0
C1247 C 0.63226 0.97324 0.50433 0.0
H1248 H 0.66274 0.00169 0.53262 0.0
H1249 H 0.63313 0.02319 0.51313 0.0
H1250 H 0.66164 0.97417 0.51477 0.0
H1251 H 0.67315 0.98335 0.50575 0.0
H1252 H 0.67329 0.98403 0.52316 0.0
H1253 H 0.62529 0.0174 0.4927 0.0
H1254 H 0.63683 0.00928 0.48248 0.0
H1255 H 0.62473 0.00011 0.4907 0.0
H1256 H 0.66247 0.98168 0.46268 0.0
H1257 H 0.63442 0.9587 0.48277 0.0
H1258 H 0.67256 0.00047 0.48937 0.0
H1259 H 0.66046 0.00907 0.48056 0.0
H1260 H 0.67242 -0.00025 0.47197 0.0
H1261 H 0.63803 0.9728 0.51335 0.0
H1262 H 0.62671 0.96411 0.50336 0.0
H1263 H 0.62534 0.98135 0.50538 0.0
C1264 C 0.35699 0.9847 0.51994 0.0
C1265 C 0.34523 0.97949 0.52423 0.0
C1266 C 0.35728 0.99469 0.5108 0.0
C1267 C 0.34552 -0.0002 0.50604 0.0
C1268 C 0.33364 0.99448 0.51019 0.0
C1269 C 0.33368 0.98414 0.51894 0.0
C1270 C 0.37017 -0.00018 0.50627 0.0
C1271 C 0.32085 -0.00038 0.5054 0.0
C1272 C 0.34728 0.03355 0.49175 0.0
C1273 C 0.34709 0.03086 0.47851 0.0
C1274 C 0.34639 0.02353 0.50085 0.0
C1275 C 0.34572 0.01055 0.49654 0.0
C1276 C 0.34561 0.00783 0.48315 0.0
C1277 C 0.34618 0.01804 0.4743 0.0
C1278 C 0.34611 0.0268 0.51505 0.0
C1279 C 0.34518 0.99413 0.47818 0.0
H1280 H 0.36599 0.98107 0.52386 0.0
H1281 H 0.32464 0.97961 0.52145 0.0
H1282 H 0.37081 0.99919 0.49559 0.0
H1283 H 0.37112 0.01015 0.50892 0.0
H1284 H 0.37842 0.99443 0.51052 0.0
H1285 H 0.31269 0.99644 0.51159 0.0
H1286 H 0.3209 0.01033 0.5051 0.0
H1287 H 0.31909 0.99605 0.49546 0.0
H1288 H 0.34797 0.04349 0.49497 0.0
H1289 H 0.34631 0.01598 0.46403 0.0
H1290 H 0.35464 0.02255 0.51995 0.0
H1291 H 0.33738 0.02255 0.51959 0.0
H1292 H 0.34609 0.03739 0.51679 0.0
H1293 H 0.35347 0.98857 0.48208 0.0
H1294 H 0.34547 0.99367 0.46746 0.0
H1295 H 0.33623 0.98929 0.48155 0.0
C1296 C 0.01767 0.49134 0.23989 0.0
C1297 C 0.01529 0.48217 0.2302 0.0
C1298 C 0.01703 0.48795 0.25301 0.0
C1299 C 0.01435 0.475 0.25648 0.0
C1300 C 0.01105 0.46595 0.24679 0.0
C1301 C 0.01147 0.46966 0.23376 0.0
C1302 C 0.0199 0.49805 0.26311 0.0
C1303 C 0.00781 0.45214 0.25014 0.0
C1304 C 0.03181 0.46196 0.28586 0.0
C1305 C 0.02186 0.46102 0.29499 0.0
C1306 C 0.02942 0.46655 0.27336 0.0
C1307 C 0.01677 0.47047 0.2699 0.0
C1308 C 0.00667 0.46963 0.27911 0.0
C1309 C 0.00935 0.46491 0.29155 0.0
C1310 C 0.04042 0.46696 0.26378 0.0
C1311 C 0.99302 0.4738 0.27614 0.0
H1312 H 0.02046 0.50107 0.23724 0.0
H1313 H 0.00945 0.46255 0.22636 0.0
H1314 H 0.01316 0.49712 0.2714 0.0
H1315 H 0.02985 0.49664 0.26683 0.0
H1316 H 0.01914 0.50799 0.25913 0.0
H1317 H 0.00461 0.44651 0.24159 0.0
H1318 H 0.01643 0.44736 0.25437 0.0
H1319 H 4e-05 0.45189 0.25753 0.0
H1320 H 0.0415 0.45893 0.28842 0.0
H1321 H 0.00162 0.46434 0.2986 0.0
H1322 H 0.04196 0.47701 0.26041 0.0
H1323 H 0.03799 0.46102 0.25519 0.0
H1324 H 0.04962 0.46332 0.26794 0.0
H1325 H 0.99107 0.4748 0.26566 0.0
H1326 H 0.99121 0.48325 0.28087 0.0
H1327 H 0.98602 0.4668 0.28027 0.0
C1328 C 0.51248 0.02383 0.27225 0.0
C1329 C 0.52269 0.01817 0.27913 0.0
C1330 C 0.51306 0.02515 0.25877 0.0
C1331 C 0.52411 0.02071 0.25204 0.0
C1332 C 0.53406 0.01427 0.25885 0.0
C1333 C 0.53323 0.01307 0.27231 0.0
C1334 C 0.50217 0.03194 0.25185 0.0
C1335 C 0.54595 0.0093 0.25201 0.0
C1336 C 0.5243 0.01864 0.21537 0.0
C1337 C 0.5305 0.03023 0.21205 0.0
C1338 C 0.52198 0.01544 0.22835 0.0
C1339 C 0.52597 0.02403 0.2382 0.0
C1340 C 0.53213 0.03578 0.23489 0.0
C1341 C 0.53429 0.03875 0.22187 0.0
C1342 C 0.5152 0.00293 0.23151 0.0
C1343 C 0.53658 0.04518 0.24513 0.0
H1344 H 0.50424 0.0277 0.27742 0.0
H1345 H 0.54109 0.00854 0.27753 0.0
H1346 H 0.50515 0.04198 0.24959 0.0
H1347 H 0.49988 0.02708 0.24259 0.0
H1348 H 0.49328 0.03234 0.25784 0.0
H1349 H 0.55222 0.00347 0.25848 0.0
H1350 H 0.54318 0.00329 0.24358 0.0
H1351 H 0.55166 0.01758 0.2483 0.0
H1352 H 0.52125 0.01205 0.20782 0.0
H1353 H 0.53907 0.04772 0.2194 0.0
H1354 H 0.50595 0.0051 0.23642 0.0
H1355 H 0.5211 0.9971 0.23829 0.0
H1356 H 0.51314 0.99706 0.22277 0.0
H1357 H 0.52827 0.04819 0.25119 0.0
H1358 H 0.54111 0.05396 0.24094 0.0
H1359 H 0.5437 0.04043 0.25159 0.0
C1360 C 0.98302 0.5244 0.21506 0.0
C1361 C 0.96956 0.52531 0.21375 0.0
C1362 C 0.98896 0.52563 0.22718 0.0
C1363 C 0.98125 0.52802 0.2382 0.0
C1364 C 0.96763 0.52857 0.23699 0.0
C1365 C 0.96195 0.52715 0.22479 0.0
C1366 C 0.0035 0.52487 0.22799 0.0
C1367 C 0.95907 0.53105 0.24855 0.0
C1368 C 0.99281 0.52309 0.27256 0.0
C1369 C 0.99484 0.53589 0.27656 0.0
C1370 C 0.98906 0.52029 0.25983 0.0
C1371 C 0.98729 0.53052 0.25096 0.0
C1372 C 0.99018 0.54334 0.25469 0.0
C1373 C 0.99394 0.54588 0.26745 0.0
C1374 C 0.98641 0.50648 0.25602 0.0
C1375 C 0.98864 0.55447 0.2454 0.0
H1376 H 0.98897 0.52288 0.2066 0.0
H1377 H 0.95154 0.52783 0.22387 0.0
H1378 H 0.00755 0.53477 0.22737 0.0
H1379 H 0.00674 0.52058 0.23725 0.0
H1380 H 0.00758 0.51912 0.2199 0.0
H1381 H 0.94864 0.53077 0.24604 0.0
H1382 H 0.96096 0.52376 0.25616 0.0
H1383 H 0.96131 0.54068 0.2527 0.0
H1384 H 0.99367 0.51528 0.27948 0.0
H1385 H 0.99564 0.55577 0.27041 0.0
H1386 H 0.99159 0.50407 0.24695 0.0
H1387 H 0.97594 0.50519 0.25417 0.0
H1388 H 0.98939 0.49957 0.26364 0.0
H1389 H 0.99404 0.55249 0.23635 0.0
H1390 H 0.99213 0.56374 0.24953 0.0
H1391 H 0.9783 0.55557 0.24279 0.0
C1392 C 0.48232 0.99178 0.22291 0.0
C1393 C 0.48537 0.97939 0.21835 0.0
C1394 C 0.48053 0.99408 0.23616 0.0
C1395 C 0.48181 0.98375 0.24501 0.0
C1396 C 0.4857 0.97143 0.24054 0.0
C1397 C 0.48745 0.96941 0.22727 0.0
C1398 C 0.47657 0.0074 0.24056 0.0
C1399 C 0.48722 0.96016 0.24968 0.0
C1400 C 0.48229 0.98892 0.28139 0.0
C1401 C 0.46945 0.98605 0.28466 0.0
C1402 C 0.48645 0.98855 0.26847 0.0
C1403 C 0.47753 0.98528 0.25863 0.0
C1404 C 0.46449 0.98275 0.26185 0.0
C1405 C 0.46061 0.98318 0.2748 0.0
C1406 C 0.50038 0.9915 0.26536 0.0
C1407 C 0.45467 0.9792 0.25165 0.0
H1408 H 0.48081 -0.00041 0.2161 0.0
H1409 H 0.48996 0.95984 0.22386 0.0
H1410 H 0.46602 0.00751 0.24243 0.0
H1411 H 0.48151 0.01006 0.24968 0.0
H1412 H 0.47875 0.01485 0.23315 0.0
H1413 H 0.49152 0.95159 0.24487 0.0
H1414 H 0.49339 0.96289 0.258 0.0
H1415 H 0.47762 0.95741 0.25357 0.0
H1416 H 0.48916 0.99125 0.28894 0.0
H1417 H 0.45065 0.98101 0.27721 0.0
H1418 H 0.50085 -3e-05 0.25884 0.0
H1419 H 0.50485 0.98327 0.26015 0.0
H1420 H 0.50617 0.99359 0.27414 0.0
H1421 H 0.45426 0.98681 0.24412 0.0
H1422 H 0.44483 0.97789 0.25571 0.0
H1423 H 0.4576 0.97008 0.24682 0.0
C1424 C 0.01694 0.52565 0.71155 0.0
C1425 C 0.02039 0.53865 0.70979 0.0
C1426 C 0.01622 0.52025 0.72397 0.0
C1427 C 0.01912 0.528 0.73485 0.0
C1428 C 0.0221 0.54124 0.73315 0.0
C1429 C 0.02265 0.54641 0.72065 0.0
C1430 C 0.01264 0.5062 0.72546 0.0
C1431 C 0.02525 0.54984 0.74451 0.0
C1432 C 0.01138 0.51887 0.76952 0.0
C1433 C 0.02353 0.51481 0.77396 0.0
C1434 C 0.00955 0.52252 0.75658 0.0
C1435 C 0.02014 0.52218 0.74794 0.0
C1436 C 0.03222 0.51741 0.7522 0.0
C1437 C 0.03375 0.51375 0.76514 0.0
C1438 C 0.99645 0.52734 0.75239 0.0
C1439 C 0.04376 0.51683 0.74328 0.0
H1440 H 0.01501 0.51963 0.70321 0.0
H1441 H 0.02526 0.55647 0.71939 0.0
H1442 H 0.02069 0.50081 0.73003 0.0
H1443 H 0.00417 0.50532 0.73193 0.0
H1444 H 0.01027 0.50156 0.71607 0.0
H1445 H 0.02679 0.56005 0.74159 0.0
H1446 H 0.01732 0.5495 0.7517 0.0
H1447 H 0.03413 0.54631 0.74936 0.0
H1448 H 0.00338 0.5196 0.77623 0.0
H1449 H 0.04314 0.51048 0.76844 0.0
H1450 H 0.99416 0.52422 0.7424 0.0
H1451 H 0.99644 0.53806 0.75253 0.0
H1452 H 0.98869 0.5239 0.75896 0.0
H1453 H 0.04125 0.51157 0.73429 0.0
H1454 H 0.0522 0.51202 0.74784 0.0
H1455 H 0.04662 0.52678 0.74049 0.0
C1456 C 0.46513 0.0126 0.72894 0.0
C1457 C 0.47492 0.01611 0.72027 0.0
C1458 C 0.466 0.01577 0.74208 0.0
C1459 C 0.47694 0.02257 0.74665 0.0
C1460 C 0.48727 0.02531 0.73814 0.0
C1461 C 0.48611 0.0221 0.72502 0.0
C1462 C 0.45483 0.01254 0.7509 0.0
C1463 C 0.49921 0.03232 0.74269 0.0
C1464 C 0.47021 0.04533 0.77448 0.0
C1465 C 0.4743 0.03807 0.78515 0.0
C1466 C 0.47136 0.0405 0.76189 0.0
C1467 C 0.47681 0.02812 0.75989 0.0
C1468 C 0.48145 0.02093 0.77055 0.0
C1469 C 0.48007 0.02597 0.78308 0.0
C1470 C 0.46637 0.0485 0.75076 0.0
C1471 C 0.48746 0.00776 0.76879 0.0
H1472 H 0.45651 0.00783 0.72539 0.0
H1473 H 0.49382 0.0247 0.71842 0.0
H1474 H 0.45837 0.00768 0.75976 0.0
H1475 H 0.44994 0.02158 0.75393 0.0
H1476 H 0.44761 0.00619 0.74615 0.0
H1477 H 0.50731 0.03137 0.7357 0.0
H1478 H 0.49697 0.04274 0.74384 0.0
H1479 H 0.50242 0.02863 0.75222 0.0
H1480 H 0.4658 0.05471 0.77596 0.0
H1481 H 0.48332 0.02031 0.79127 0.0
H1482 H 0.45832 0.04334 0.74591 0.0
H1483 H 0.4741 0.04993 0.74348 0.0
H1484 H 0.46282 0.05813 0.75391 0.0
H1485 H 0.47978 0.0006 0.76668 0.0
H1486 H 0.49274 0.00456 0.77756 0.0
H1487 H 0.49423 0.00773 0.76048 0.0
C1488 C 0.98735 0.48285 0.77679 0.0
C1489 C 0.97507 0.47885 0.78093 0.0
C1490 C 0.99082 0.48224 0.76367 0.0
C1491 C 0.98178 0.47757 0.75454 0.0
C1492 C 0.96934 0.4737 0.75865 0.0
C1493 C 0.96613 0.47441 0.77176 0.0
C1494 C 0.00412 0.48659 0.75959 0.0
C1495 C 0.95944 0.46858 0.74922 0.0
C1496 C 0.98276 0.48408 0.71858 0.0
C1497 C 0.987 0.47212 0.71381 0.0
C1498 C 0.98191 0.48636 0.73191 0.0
C1499 C 0.98524 0.4764 0.74065 0.0
C1500 C 0.99033 0.46463 0.73591 0.0
C1501 C 0.99123 0.46266 0.72253 0.0
C1502 C 0.97662 0.49912 0.73656 0.0
C1503 C 0.99397 0.45375 0.74492 0.0
H1504 H 0.99429 0.48636 0.78379 0.0
H1505 H 0.95662 0.47131 0.77485 0.0
H1506 H 0.00901 0.47892 0.75394 0.0
H1507 H 0.00325 0.49513 0.75321 0.0
H1508 H 0.01031 0.48916 0.76797 0.0
H1509 H 0.95021 0.46593 0.754 0.0
H1510 H 0.95738 0.47594 0.74171 0.0
H1511 H 0.9633 0.45991 0.74423 0.0
H1512 H 0.97965 0.49152 0.7119 0.0
H1513 H 0.9946 0.45343 0.71894 0.0
H1514 H 0.98164 0.50237 0.74545 0.0
H1515 H 0.96623 0.49799 0.73892 0.0
H1516 H 0.97755 0.50676 0.72908 0.0
H1517 H 0.0002 0.45735 0.75285 0.0
H1518 H 0.99911 0.44583 0.73983 0.0
H1519 H 0.98509 0.44972 0.74938 0.0
C1520 C 0.51786 0.98848 0.76986 0.0
C1521 C 0.51503 0.97564 0.77317 0.0
C1522 C 0.51985 0.99206 0.75692 0.0
C1523 C 0.51926 0.98252 0.74715 0.0
C1524 C 0.51573 0.96971 0.75038 0.0
C1525 C 0.51355 0.96646 0.76334 0.0
C1526 C 0.52326 0.00589 0.75383 0.0
C1527 C 0.51504 0.95922 0.74026 0.0
C1528 C 0.5189 0.98915 0.7111 0.0
C1529 C 0.53181 0.98658 0.70781 0.0
C1530 C 0.51477 0.98866 0.72402 0.0
C1531 C 0.52373 0.98541 0.73381 0.0
C1532 C 0.5369 0.98356 0.73062 0.0
C1533 C 0.54079 0.98424 0.71768 0.0
C1534 C 0.50071 0.99101 0.72712 0.0
C1535 C 0.54677 0.98006 0.74079 0.0
H1536 H 0.51884 0.99568 0.7774 0.0
H1537 H 0.5113 0.95653 0.7658 0.0
H1538 H 0.53382 0.00666 0.75218 0.0
H1539 H 0.51833 0.00912 0.74488 0.0
H1540 H 0.52061 0.01252 0.76184 0.0
H1541 H 0.51124 0.94999 0.74421 0.0
H1542 H 0.50878 0.96228 0.73213 0.0
H1543 H 0.52483 0.95744 0.73628 0.0
H1544 H 0.51193 0.99112 0.70355 0.0
H1545 H 0.55079 0.98234 0.71526 0.0
H1546 H 0.49979 0.99795 0.73523 0.0
H1547 H 0.49613 0.98185 0.73024 0.0
H1548 H 0.4953 0.99478 0.71866 0.0
H1549 H 0.54649 0.98713 0.74883 0.0
H1550 H 0.55675 0.97976 0.73685 0.0
H1551 H 0.54444 0.97043 0.74489 0.0
C1552 C 0.28403 0.01109 0.48601 0.0
C1553 C 0.28845 0.01424 0.47358 0.0
C1554 C 0.27073 0.01052 0.48874 0.0
C1555 C 0.26172 0.01329 0.47884 0.0
C1556 C 0.26614 0.01572 0.46613 0.0
C1557 C 0.27943 0.01609 0.46365 0.0
C1558 C 0.26634 0.00748 0.50231 0.0
C1559 C 0.25684 0.01866 0.45527 0.0
C1560 C 0.22559 0.00741 0.48007 0.0
C1561 C 0.22098 0.01993 0.48246 0.0
C1562 C 0.23891 0.00481 0.47987 0.0
C1563 C 0.24777 0.01502 0.48185 0.0
C1564 C 0.24314 0.02748 0.4851 0.0
C1565 C 0.2298 0.02975 0.48546 0.0
C1566 C 0.24343 0.99132 0.47673 0.0
C1567 C 0.25227 0.03866 0.48726 0.0
H1568 H 0.29094 0.00945 0.4937 0.0
H1569 H 0.28275 0.01841 0.45399 0.0
H1570 H 0.26181 0.01615 0.50668 0.0
H1571 H 0.2589 -0.00023 0.50215 0.0
H1572 H 0.27446 0.00435 0.50858 0.0
H1573 H 0.2618 0.01961 0.4458 0.0
H1574 H 0.24947 0.01093 0.4545 0.0
H1575 H 0.25168 0.02782 0.45734 0.0
H1576 H 0.21882 -0.00028 0.47794 0.0
H1577 H 0.22632 0.03943 0.48741 0.0
H1578 H 0.25226 0.9888 0.48225 0.0
H1579 H 0.24582 0.99073 0.46631 0.0
H1580 H 0.23583 0.98403 0.47883 0.0
H1581 H 0.25984 0.03599 0.49434 0.0
H1582 H 0.24719 0.04742 0.49081 0.0
H1583 H 0.25719 0.04108 0.47805 0.0
C1584 C 0.97135 0.21975 0.48342 0.0
C1585 C 0.97367 0.21203 0.47254 0.0
C1586 C 0.97434 0.23297 0.48332 0.0
C1587 C 0.97954 0.23861 0.47201 0.0
C1588 C 0.98257 0.23072 0.46127 0.0
C1589 C 0.9797 0.21748 0.46171 0.0
C1590 C 0.97132 0.24102 0.49508 0.0
C1591 C 0.98805 0.23638 0.449 0.0
C1592 C 0.97023 0.27332 0.46514 0.0
C1593 C 0.98167 0.27998 0.46802 0.0
C1594 C 0.96947 0.25988 0.46641 0.0
C1595 C 0.98035 0.2529 0.47084 0.0
C1596 C 0.99188 0.25955 0.47396 0.0
C1597 C 0.99245 0.27303 0.4724 0.0
C1598 C 0.95701 0.25313 0.46288 0.0
C1599 C 0.00361 0.25245 0.47889 0.0
H1600 H 0.96688 0.21554 0.49189 0.0
H1601 H 0.98158 0.21155 0.45329 0.0
H1602 H 0.97967 0.24728 0.49751 0.0
H1603 H 0.963 0.24744 0.49302 0.0
H1604 H 0.96892 0.23497 0.5036 0.0
H1605 H 0.99094 0.22881 0.44197 0.0
H1606 H 0.98071 0.24268 0.44439 0.0
H1607 H 0.99658 0.24248 0.45117 0.0
H1608 H 0.96187 0.2786 0.46172 0.0
H1609 H 0.0013 0.27812 0.47471 0.0
H1610 H 0.95317 0.24786 0.47138 0.0
H1611 H 0.95884 0.2459 0.45519 0.0
H1612 H 0.94949 0.25996 0.45943 0.0
H1613 H 0.00083 0.24556 0.4866 0.0
H1614 H 0.01107 0.25914 0.48273 0.0
H1615 H 0.00796 0.24675 0.47093 0.0
C1616 C 0.72395 0.97264 0.46508 0.0
C1617 C 0.71511 0.97413 0.47524 0.0
C1618 C 0.73729 0.97271 0.46736 0.0
C1619 C 0.74194 0.97431 0.48012 0.0
C1620 C 0.73311 0.97642 0.49035 0.0
C1621 C 0.71977 0.97629 0.48779 0.0
C1622 C 0.74639 0.97056 0.45616 0.0
C1623 C 0.73772 0.97831 0.50405 0.0
C1624 C 0.77447 0.95843 0.48525 0.0
C1625 C 0.78294 0.96882 0.48336 0.0
C1626 C 0.76105 0.96023 0.4849 0.0
C1627 C 0.75598 0.97274 0.48272 0.0
C1628 C 0.76446 0.9834 0.48164 0.0
C1629 C 0.77786 0.98131 0.4819 0.0
C1630 C 0.75232 0.9486 0.48614 0.0
C1631 C 0.75941 0.99692 0.47953 0.0
H1632 H 0.72046 0.97109 0.45534 0.0
H1633 H 0.71301 0.97753 0.49568 0.0
H1634 H 0.75376 0.97833 0.45582 0.0
H1635 H 0.75158 0.96127 0.45747 0.0
H1636 H 0.74127 0.97029 0.44674 0.0
H1637 H 0.72979 0.98135 0.51061 0.0
H1638 H 0.74184 0.96912 0.50773 0.0
H1639 H 0.74551 0.98566 0.50443 0.0
H1640 H 0.7783 0.94877 0.48647 0.0
H1641 H 0.78435 0.98942 0.4806 0.0
H1642 H 0.74744 0.94677 0.47678 0.0
H1643 H 0.74468 0.95044 0.49343 0.0
H1644 H 0.7577 0.93976 0.48896 0.0
H1645 H 0.75543 0.99772 0.46961 0.0
H1646 H 0.76709 0.00432 0.48072 0.0
H1647 H 0.75145 0.99909 0.48636 0.0
C1648 C 0.02295 0.78587 0.47612 0.0
C1649 C 0.03285 0.78839 0.48503 0.0
C1650 C 0.01818 0.77331 0.47436 0.0
C1651 C 0.02346 0.76304 0.48166 0.0
C1652 C 0.03271 0.76568 0.49138 0.0
C1653 C 0.03732 0.77834 0.49294 0.0
C1654 C 0.00813 0.77093 0.46406 0.0
C1655 C 0.03837 0.75501 0.49954 0.0
C1656 C 0.00814 0.72966 0.47965 0.0
C1657 C 0.01605 0.72365 0.47043 0.0
C1658 C 0.01035 0.74251 0.48342 0.0
C1659 C 0.02073 0.74946 0.47785 0.0
C1660 C 0.02865 0.74347 0.46845 0.0
C1661 C 0.02622 0.73065 0.46488 0.0
C1662 C 0.00178 0.74854 0.49352 0.0
C1663 C 0.03976 0.75057 0.46219 0.0
H1664 H 0.01931 0.79359 0.47006 0.0
H1665 H 0.04483 0.78024 0.49998 0.0
H1666 H 0.01266 0.76582 0.45579 0.0
H1667 H 0.0003 0.76465 0.46782 0.0
H1668 H 0.0038 0.78006 0.46046 0.0
H1669 H 0.04426 0.75883 0.50766 0.0
H1670 H 0.03059 0.74883 0.50354 0.0
H1671 H 0.04461 0.74879 0.49345 0.0
H1672 H 0.0003 0.72428 0.48404 0.0
H1673 H 0.03236 0.7261 0.45772 0.0
H1674 H 0.99852 0.75827 0.49045 0.0
H1675 H 0.00736 0.74974 0.50258 0.0
H1676 H 0.99316 0.7425 0.49561 0.0
H1677 H 0.03615 0.75938 0.45727 0.0
H1678 H 0.04494 0.74453 0.45499 0.0
H1679 H 0.04676 0.75371 0.46967 0.0
C1680 C 0.21372 0.97762 0.52391 0.0
C1681 C 0.21073 0.96584 0.52995 0.0
C1682 C 0.22663 0.98136 0.52193 0.0
C1683 C 0.23672 0.97316 0.52617 0.0
C1684 C 0.23373 0.96112 0.53192 0.0
C1685 C 0.22079 0.95759 0.53369 0.0
C1686 C 0.22949 0.99411 0.51546 0.0
C1687 C 0.24421 0.95207 0.53654 0.0
C1688 C 0.27162 0.9749 0.51542 0.0
C1689 C 0.2775 0.98019 0.52643 0.0
C1690 C 0.25816 0.97342 0.51474 0.0
C1691 C 0.25044 0.9773 0.52534 0.0
C1692 C 0.25624 0.98356 0.53601 0.0
C1693 C 0.26971 0.98494 0.53643 0.0
C1694 C 0.25235 0.96685 0.5031 0.0
C1695 C 0.24832 0.98798 0.54744 0.0
H1696 H 0.20599 0.98398 0.52087 0.0
H1697 H 0.21857 0.94846 0.5383 0.0
H1698 H 0.23511 0.0004 0.52207 0.0
H1699 H 0.23551 0.99251 0.50675 0.0
H1700 H 0.22055 0.9993 0.51253 0.0
H1701 H 0.24027 0.94288 0.54041 0.0
H1702 H 0.25091 0.94979 0.5285 0.0
H1703 H 0.24995 0.95682 0.54425 0.0
H1704 H 0.27754 0.97137 0.50754 0.0
H1705 H 0.27416 0.98921 0.54489 0.0
H1706 H 0.24305 0.97139 0.50034 0.0
H1707 H 0.25038 0.95659 0.50546 0.0
H1708 H 0.25898 0.96714 0.49466 0.0
H1709 H 0.23982 0.99361 0.54417 0.0
H1710 H 0.25404 0.994 0.55424 0.0
H1711 H 0.24466 0.97942 0.55275 0.0
C1712 C -0.00033 0.23156 0.51554 0.0
C1713 C 0.0116 0.23036 0.50921 0.0
C1714 C 0.99573 0.24345 0.52077 0.0
C1715 C 0.00386 0.25437 0.51951 0.0
C1716 C 0.0155 0.25338 0.51241 0.0
C1717 C 0.01926 0.24139 0.50741 0.0
C1718 C 0.98317 0.24422 0.52812 0.0
C1719 C 0.02429 0.26488 0.51059 0.0
C1720 C 0.99369 0.28878 0.52721 0.0
C1721 C 0.99944 0.29057 0.53935 0.0
C1722 C 0.99448 0.27684 0.5208 0.0
C1723 C 0.00107 0.26645 0.52676 0.0
C1724 C 0.00623 0.268 0.53933 0.0
C1725 C 0.00532 0.28001 0.54548 0.0
C1726 C 0.9886 0.2755 0.50753 0.0
C1727 C 0.01339 0.25717 0.54601 0.0
H1728 H 0.99362 0.22312 0.51684 0.0
H1729 H 0.02839 0.24061 0.50235 0.0
H1730 H 0.98512 0.24643 0.53842 0.0
H1731 H 0.97714 0.25218 0.52424 0.0
H1732 H 0.97759 0.23507 0.52759 0.0
H1733 H 0.03252 0.26272 0.50406 0.0
H1734 H 0.01879 0.27313 0.50653 0.0
H1735 H 0.02819 0.26797 0.52009 0.0
H1736 H 0.98892 0.29681 0.52251 0.0
H1737 H 0.00971 0.28126 0.5549 0.0
H1738 H 0.98002 0.26912 0.50808 0.0
H1739 H 0.99555 0.27096 0.50077 0.0
H1740 H 0.98554 0.28495 0.50346 0.0
H1741 H 0.00746 0.24825 0.54605 0.0
H1742 H 0.01596 0.25963 0.55614 0.0
H1743 H 0.02242 0.25501 0.54065 0.0
C1744 C 0.78099 0.02614 0.52543 0.0
C1745 C 0.78418 0.03509 0.53511 0.0
C1746 C 0.76803 0.02311 0.52271 0.0
C1747 C 0.75808 0.0292 0.52983 0.0
C1748 C 0.76125 0.03829 0.53955 0.0
C1749 C 0.77425 0.04111 0.54206 0.0
C1750 C 0.76499 0.01337 0.51228 0.0
C1751 C 0.75091 0.045 0.54736 0.0
C1752 C 0.72358 0.0322 0.51801 0.0
C1753 C 0.71722 0.02323 0.52593 0.0
C1754 C 0.73703 0.03375 0.51863 0.0
C1755 C 0.74428 0.0261 0.52734 0.0
C1756 C 0.73802 0.01646 0.53474 0.0
C1757 C 0.72456 0.01516 0.53397 0.0
C1758 C 0.74336 0.04411 0.51055 0.0
C1759 C 0.74545 0.00801 0.54402 0.0
H1760 H 0.78862 0.02143 0.52001 0.0
H1761 H 0.7766 0.04804 0.54954 0.0
H1762 H 0.75946 0.00518 0.51642 0.0
H1763 H 0.75881 0.01786 0.50477 0.0
H1764 H 0.77384 0.00951 0.50759 0.0
H1765 H 0.755 0.05192 0.55447 0.0
H1766 H 0.74428 0.05034 0.54084 0.0
H1767 H 0.74504 0.03776 0.55264 0.0
H1768 H 0.718 0.03841 0.5117 0.0
H1769 H 0.71974 0.0081 0.54001 0.0
H1770 H 0.75198 0.0402 0.50553 0.0
H1771 H 0.74669 0.05206 0.51692 0.0
H1772 H 0.73666 0.04819 0.50324 0.0
H1773 H 0.75403 0.00378 0.5392 0.0
H1774 H 0.73943 4e-05 0.54794 0.0
H1775 H 0.74898 0.01395 0.55221 0.0
C1776 C 0.97454 0.75739 0.51358 0.0
C1777 C 0.98358 0.76715 0.51616 0.0
C1778 C 0.97594 0.74502 0.5189 0.0
C1779 C 0.98665 0.74232 0.52695 0.0
C1780 C 0.99624 0.75186 0.52892 0.0
C1781 C 0.99457 0.76419 0.52353 0.0
C1782 C 0.96556 0.73507 0.51646 0.0
C1783 C 0.00794 0.74924 0.5372 0.0
C1784 C 0.97906 0.71763 0.55279 0.0
C1785 C 0.9838 0.70622 0.54725 0.0
C1786 C 0.98053 0.72955 0.54654 0.0
C1787 C 0.98691 0.73008 0.53446 0.0
C1788 C 0.99241 0.71874 0.52918 0.0
C1789 C 0.99082 0.70692 0.53566 0.0
C1790 C 0.97461 0.74145 0.55256 0.0
C1791 C 0.99936 0.71893 0.51635 0.0
H1792 H 0.9661 0.75954 0.50778 0.0
H1793 H 0.00169 0.77163 0.52544 0.0
H1794 H 0.96993 0.72586 0.51316 0.0
H1795 H 0.96031 0.73304 0.52558 0.0
H1796 H 0.95845 0.73832 0.5091 0.0
H1797 H 0.01533 0.75697 0.5363 0.0
H1798 H 0.00497 0.74856 0.54747 0.0
H1799 H 0.01241 0.73987 0.53454 0.0
H1800 H 0.97375 0.71722 0.5618 0.0
H1801 H 0.99464 0.69817 0.53139 0.0
H1802 H 0.96654 0.74494 0.54643 0.0
H1803 H 0.98185 0.74932 0.55313 0.0
H1804 H 0.97081 0.73957 0.56242 0.0
H1805 H 0.99221 0.72017 0.50846 0.0
H1806 H 0.00479 0.70985 0.51458 0.0
H1807 H 0.00616 0.72719 0.51584 0.0
C1808 C 0.4808 0.24271 0.02074 0.0
C1809 C 0.4779 0.23378 0.01097 0.0
C1810 C 0.47691 0.25564 0.01974 0.0
C1811 C 0.47007 0.25977 0.00866 0.0
C1812 C 0.46798 0.25106 0.99834 0.0
C1813 C 0.47176 0.23811 -0.00031 0.0
C1814 C 0.47958 0.26474 0.03081 0.0
C1815 C 0.46135 0.25532 0.98609 0.0
C1816 C 0.44606 0.28666 0.01482 0.0
C1817 C 0.45305 0.29762 0.01103 0.0
C1818 C 0.45136 0.27426 0.01364 0.0
C1819 C 0.46395 0.27276 0.00851 0.0
C1820 C 0.47083 0.28373 0.00411 0.0
C1821 C 0.4653 0.29604 0.00544 0.0
C1822 C 0.44368 0.26281 0.01841 0.0
C1823 C 0.48428 0.2827 0.9986 0.0
H1824 H 0.48567 0.2395 0.02944 0.0
H1825 H 0.4696 0.23132 0.99202 0.0
H1826 H 0.48455 0.27353 0.02723 0.0
H1827 H 0.47032 0.26786 0.03522 0.0
H1828 H 0.48564 0.26023 0.03843 0.0
H1829 H 0.46159 0.24774 0.9785 0.0
H1830 H 0.45113 0.25776 0.98818 0.0
H1831 H 0.46605 0.26417 0.98226 0.0
H1832 H 0.43656 0.28778 0.01908 0.0
H1833 H 0.47077 0.30445 0.00247 0.0
H1834 H 0.44879 0.25822 0.02664 0.0
H1835 H 0.44282 0.25546 0.01066 0.0
H1836 H 0.43382 0.26556 0.02163 0.0
H1837 H 0.49141 0.28423 0.00646 0.0
H1838 H 0.48594 0.29027 0.99119 0.0
H1839 H 0.48612 0.27311 0.99423 0.0
C1840 C 0.48536 0.77631 0.96346 0.0
C1841 C 0.48047 0.78376 0.97366 0.0
C1842 C 0.48331 0.76293 0.963 0.0
C1843 C 0.47621 0.75686 0.97299 0.0
C1844 C 0.47197 0.76419 0.98371 0.0
C1845 C 0.47413 0.77756 0.98392 0.0
C1846 C 0.48809 0.75541 0.95145 0.0
C1847 C 0.46445 0.75809 0.99461 0.0
C1848 C 0.45651 0.72757 0.96332 0.0
C1849 C 0.46424 0.71737 0.96772 0.0
C1850 C 0.46026 0.74045 0.96512 0.0
C1851 C 0.47203 0.74321 0.9715 0.0
C1852 C 0.4798 0.73299 0.97617 0.0
C1853 C 0.47582 0.72016 0.97422 0.0
C1854 C 0.45168 0.7511 0.96004 0.0
C1855 C 0.49237 0.7356 0.98308 0.0
H1856 H 0.49039 0.78099 0.95557 0.0
H1857 H 0.47043 0.78321 0.99192 0.0
H1858 H 0.49336 0.74665 0.95461 0.0
H1859 H 0.47972 0.75218 0.94559 0.0
H1860 H 0.49456 0.76126 0.9452 0.0
H1861 H 0.46423 0.76436 0.00332 0.0
H1862 H 0.45436 0.7564 0.99143 0.0
H1863 H 0.46861 0.74859 0.99731 0.0
H1864 H 0.44754 0.72552 0.95832 0.0
H1865 H 0.48184 0.71233 0.97768 0.0
H1866 H 0.45702 0.75694 0.95281 0.0
H1867 H 0.44889 0.75768 0.96802 0.0
H1868 H 0.44274 0.74733 0.95545 0.0
H1869 H 0.49932 0.74019 0.97634 0.0
H1870 H 0.49681 0.72664 0.98698 0.0
H1871 H 0.49079 0.74247 0.99113 0.0
C1872 C 0.21031 0.48524 0.98401 0.0
C1873 C 0.20696 0.48135 0.97145 0.0
C1874 C 0.22329 0.48541 0.98803 0.0
C1875 C 0.23307 0.4815 0.97931 0.0
C1876 C 0.22978 0.4783 0.96642 0.0
C1877 C 0.21679 0.47834 0.96264 0.0
C1878 C 0.22649 0.48924 0.00172 0.0
C1879 C 0.23992 0.47408 0.95681 0.0
C1880 C 0.26919 0.48565 0.98385 0.0
C1881 C 0.27279 0.47316 0.98771 0.0
C1882 C 0.25613 0.48888 0.98203 0.0
C1883 C 0.24653 0.47932 0.98385 0.0
C1884 C 0.25007 0.46696 0.9885 0.0
C1885 C 0.26315 0.46408 0.99049 0.0
C1886 C 0.25272 0.50231 0.97749 0.0
C1887 C 0.24015 0.45645 0.99051 0.0
H1888 H 0.20278 0.48776 0.99084 0.0
H1889 H 0.21432 0.47543 0.9529 0.0
H1890 H 0.23031 0.48078 0.00707 0.0
H1891 H 0.23415 0.49672 0.00176 0.0
H1892 H 0.21792 0.49301 0.00698 0.0
H1893 H 0.23587 0.47262 0.94698 0.0
H1894 H 0.24775 0.48136 0.95623 0.0
H1895 H 0.24434 0.46487 0.96006 0.0
H1896 H 0.27658 0.49279 0.98188 0.0
H1897 H 0.26584 0.45444 0.99356 0.0
H1898 H 0.24371 0.50578 0.98215 0.0
H1899 H 0.25106 0.50215 0.96691 0.0
H1900 H 0.2606 0.5093 0.97956 0.0
H1901 H 0.23207 0.46003 0.99657 0.0
H1902 H 0.24433 0.44775 0.99518 0.0
H1903 H 0.23603 0.45357 0.98104 0.0
C1904 C 0.52313 0.25892 0.98313 0.0
C1905 C 0.51486 0.26942 0.9809 0.0
C1906 C 0.52077 0.24686 0.97744 0.0
C1907 C 0.5098 0.24522 0.96945 0.0
C1908 C 0.50089 0.25547 0.96798 0.0
C1909 C 0.5036 0.26751 0.97359 0.0
C1910 C 0.53034 0.23605 0.97947 0.0
C1911 C 0.48873 0.25382 0.96011 0.0
C1912 C 0.51445 0.22108 0.94239 0.0
C1913 C 0.50883 0.2099 0.94756 0.0
C1914 C 0.51437 0.23274 0.94924 0.0
C1915 C 0.50848 0.23328 0.96158 0.0
C1916 C 0.50223 0.2222 0.96659 0.0
C1917 C 0.50249 0.21063 0.95952 0.0
C1918 C 0.5211 0.24436 0.94352 0.0
C1919 C 0.49583 0.22223 0.97967 0.0
H1920 H 0.53177 0.26024 0.98889 0.0
H1921 H 0.49707 0.27552 0.97193 0.0
H1922 H 0.52528 0.22727 0.98295 0.0
H1923 H 0.53503 0.23358 0.97015 0.0
H1924 H 0.53798 0.23864 0.98655 0.0
H1925 H 0.48218 0.26228 0.96097 0.0
H1926 H 0.49128 0.2525 0.94979 0.0
H1927 H 0.48346 0.24504 0.96328 0.0
H1928 H 0.51929 0.22063 0.93311 0.0
H1929 H 0.49809 0.20205 0.96359 0.0
H1930 H 0.52943 0.24709 0.94969 0.0
H1931 H 0.51442 0.25273 0.94325 0.0
H1932 H 0.52469 0.24251 0.93358 0.0
H1933 H 0.50285 0.21882 0.98702 0.0
H1934 H 0.48745 0.21553 0.97982 0.0
H1935 H 0.4925 0.23199 0.98251 0.0
C1936 C 0.77555 0.54921 0.96195 0.0
C1937 C 0.78408 0.53871 0.96262 0.0
C1938 C 0.76214 0.54732 0.9619 0.0
C1939 C 0.75713 0.53462 0.96257 0.0
C1940 C 0.76567 0.52398 0.96349 0.0
C1941 C 0.77906 0.52615 0.96348 0.0
C1942 C 0.75333 0.5589 0.96089 0.0
C1943 C 0.76066 0.51031 0.96429 0.0
C1944 C 0.72192 0.53132 0.97237 0.0
C1945 C 0.71583 0.53009 0.96032 0.0
C1946 C 0.7354 0.53251 0.97328 0.0
C1947 C 0.74294 0.5325 0.96188 0.0
C1948 C 0.73688 0.53098 0.94972 0.0
C1949 C 0.7234 0.52977 0.94909 0.0
C1950 C 0.74154 0.53404 0.98642 0.0
C1951 C 0.7446 0.53092 0.93735 0.0
H1952 H 0.77934 0.55895 0.96131 0.0
H1953 H 0.78558 0.51799 0.96405 0.0
H1954 H 0.7475 0.55827 0.95192 0.0
H1955 H 0.74647 0.55904 0.96913 0.0
H1956 H 0.75875 0.56816 0.9608 0.0
H1957 H 0.76857 0.50314 0.96544 0.0
H1958 H 0.75391 0.50934 0.97255 0.0
H1959 H 0.75517 0.50793 0.9554 0.0
H1960 H 0.71614 0.53152 0.9811 0.0
H1961 H 0.71879 0.52879 0.93975 0.0
H1962 H 0.74632 0.54361 0.98709 0.0
H1963 H 0.74913 0.52661 0.98784 0.0
H1964 H 0.73439 0.53322 0.99438 0.0
H1965 H 0.74957 0.54034 0.93614 0.0
H1966 H 0.73847 0.52917 0.92872 0.0
H1967 H 0.75218 0.52336 0.93776 0.0
C1968 C 0.52748 0.73607 0.01258 0.0
C1969 C 0.51788 0.72651 0.01271 0.0
C1970 C 0.52454 0.74896 0.0154 0.0
C1971 C 0.51165 0.75245 0.01834 0.0
C1972 C 0.50177 0.74301 0.01778 0.0
C1973 C 0.50502 0.73012 0.01502 0.0
C1974 C 0.53537 0.75873 0.01588 0.0
C1975 C 0.48789 0.74638 0.02065 0.0
C1976 C 0.51036 0.78114 0.04086 0.0
C1977 C 0.50921 0.79142 0.03213 0.0
C1978 C 0.5103 0.76831 0.03656 0.0
C1979 C 0.50894 0.76568 0.02321 0.0
C1980 C 0.5067 0.77596 0.01448 0.0
C1981 C 0.50692 0.78874 0.01903 0.0
C1982 C 0.51266 0.75762 0.04621 0.0
C1983 C 0.50483 0.77349 0.00023 0.0
H1984 H 0.53743 0.73341 0.01068 0.0
H1985 H 0.49751 0.72282 0.01504 0.0
H1986 H 0.53303 0.76719 0.00974 0.0
H1987 H 0.53656 0.76229 0.02593 0.0
H1988 H 0.54473 0.75462 0.01261 0.0
H1989 H 0.48115 0.73883 0.01707 0.0
H1990 H 0.48658 0.74728 0.03124 0.0
H1991 H 0.48523 0.75577 0.01624 0.0
H1992 H 0.51199 0.7831 0.05102 0.0
H1993 H 0.50583 0.79662 0.01224 0.0
H1994 H 0.5223 0.75328 0.04444 0.0
H1995 H 0.50538 0.74985 0.04504 0.0
H1996 H 0.51232 0.76114 0.05634 0.0
H1997 H 0.51407 0.7702 0.99591 0.0
H1998 H 0.50159 0.78229 0.99501 0.0
H1999 H 0.49764 0.7657 0.99869 0.0
C2000 C 0.27884 0.51897 0.02424 0.0
C2001 C 0.2816 0.53092 0.03006 0.0
C2002 C 0.266 0.51498 0.02226 0.0
C2003 C 0.25576 0.52312 0.02622 0.0
C2004 C 0.25851 0.53522 0.03197 0.0
C2005 C 0.27138 0.53896 0.03381 0.0
C2006 C 0.2634 0.50208 0.01597 0.0
C2007 C 0.24785 0.54421 0.0363 0.0
C2008 C 0.22152 0.52187 0.01356 0.0
C2009 C 0.21493 0.51682 0.02427 0.0
C2010 C 0.23502 0.52305 0.01362 0.0
C2011 C 0.24206 0.51911 0.02465 0.0
C2012 C 0.23556 0.51302 0.03502 0.0
C2013 C 0.22206 0.51196 0.03472 0.0
C2014 C 0.2416 0.52941 0.00226 0.0
C2015 C 0.24276 0.50849 0.04687 0.0
H2016 H 0.28669 0.51272 0.02127 0.0
H2017 H 0.27341 0.5482 0.03829 0.0
H2018 H 0.2578 0.49583 0.02263 0.0
H2019 H 0.25742 0.50345 0.00719 0.0
H2020 H 0.27243 0.49698 0.01322 0.0
H2021 H 0.25164 0.55334 0.04046 0.0
H2022 H 0.24151 0.54662 0.028 0.0
H2023 H 0.24178 0.53937 0.04368 0.0
H2024 H 0.21612 0.52547 0.00535 0.0
H2025 H 0.21706 0.50785 0.04294 0.0
H2026 H 0.2508 0.52448 -0.00012 0.0
H2027 H 0.24393 0.53957 0.00478 0.0
H2028 H 0.23534 0.52945 0.99354 0.0
H2029 H 0.25148 0.50293 0.04409 0.0
H2030 H 0.23663 0.50237 0.05321 0.0
H2031 H 0.24602 0.517 0.05251 0.0
C2032 C 0.72375 0.4784 0.04408 0.0
C2033 C 0.716 0.46988 0.03694 0.0
C2034 C 0.73728 0.47774 0.04344 0.0
C2035 C 0.74319 0.46837 0.03544 0.0
C2036 C 0.73543 0.46002 0.02789 0.0
C2037 C 0.72193 0.46086 0.02874 0.0
C2038 C 0.74524 0.48682 0.05162 0.0
C2039 C 0.74139 0.44993 0.0192 0.0
C2040 C 0.77871 0.47193 0.02683 0.0
C2041 C 0.78452 0.46341 0.03562 0.0
C2042 C 0.76526 0.4737 0.02667 0.0
C2043 C 0.75746 0.46679 0.03552 0.0
C2044 C 0.76328 0.45823 0.04446 0.0
C2045 C 0.77673 0.45665 0.0444 0.0
C2046 C 0.75938 0.4829 0.01701 0.0
C2047 C 0.75528 0.4507 0.05406 0.0
H2048 H 0.71927 0.48542 0.05042 0.0
H2049 H 0.71602 0.45429 0.02313 0.0
H2050 H 0.75074 0.48122 0.05891 0.0
H2051 H 0.75238 0.492 0.04554 0.0
H2052 H 0.73919 0.49406 0.05674 0.0
H2053 H 0.73404 0.44471 0.01338 0.0
H2054 H 0.74844 0.45448 0.01254 0.0
H2055 H 0.74675 0.44278 0.02511 0.0
H2056 H 0.78466 0.47719 0.02001 0.0
H2057 H 0.78113 0.45005 0.05124 0.0
H2058 H 0.75379 0.49049 0.0221 0.0
H2059 H 0.75253 0.47764 0.01066 0.0
H2060 H 0.7668 0.48764 0.01086 0.0
H2061 H 0.7496 0.45742 0.06018 0.0
H2062 H 0.76131 0.44453 0.06045 0.0
H2063 H 0.7483 0.44444 0.04888 0.0
C2064 C 0.12717 0.52842 0.08596 0.0
C2065 C 0.11965 0.53587 0.0775 0.0
C2066 C 0.1215 0.52184 0.09638 0.0
C2067 C 0.10801 0.52279 0.09839 0.0
C2068 C 0.10042 0.53051 0.09004 0.0
C2069 C 0.10633 0.53694 0.07969 0.0
C2070 C 0.1299 0.51367 0.10507 0.0
C2071 C 0.08601 0.5318 0.09192 0.0
C2072 C 0.09025 0.4963 0.11644 0.0
C2073 C 0.08838 0.50199 0.12859 0.0
C2074 C 0.09688 0.50286 0.10661 0.0
C2075 C 0.10173 0.51542 0.10898 0.0
C2076 C 0.10013 0.5211 0.12131 0.0
C2077 C 0.09349 0.51431 0.13098 0.0
C2078 C 0.09846 0.49645 0.0936 0.0
C2079 C 0.10517 0.53449 0.12419 0.0
H2080 H 0.13747 0.52753 0.08434 0.0
H2081 H 0.10045 0.5427 0.07321 0.0
H2082 H 0.1287 0.51672 0.11527 0.0
H2083 H 0.12686 0.50342 0.10444 0.0
H2084 H 0.14029 0.51433 0.10248 0.0
H2085 H 0.08156 0.53854 0.08486 0.0
H2086 H 0.08134 0.52222 0.09089 0.0
H2087 H 0.08389 0.53533 0.10182 0.0
H2088 H 0.08637 0.48677 0.11452 0.0
H2089 H 0.09209 0.51877 0.14034 0.0
H2090 H 0.10881 0.49621 0.09084 0.0
H2091 H 0.0933 0.50214 0.08612 0.0
H2092 H 0.09464 0.48643 0.0935 0.0
H2093 H 0.11564 0.53504 0.122 0.0
H2094 H 0.10364 0.5373 0.13443 0.0
H2095 H 0.10023 0.54163 0.11792 0.0
C2096 C 0.48005 0.11971 0.08151 0.0
C2097 C 0.48371 0.13265 0.07991 0.0
C2098 C 0.48781 0.11109 0.08852 0.0
C2099 C 0.49954 0.11551 0.09399 0.0
C2100 C 0.50305 0.12867 0.09282 0.0
C2101 C 0.49507 0.1371 0.08582 0.0
C2102 C 0.48369 0.09715 0.08967 0.0
C2103 C 0.51549 0.13373 0.09851 0.0
C2104 C 0.51605 0.09448 0.11912 0.0
C2105 C 0.52513 0.08783 0.11156 0.0
C2106 C 0.5077 0.10361 0.11356 0.0
C2107 C 0.50852 0.10619 0.10017 0.0
C2108 C 0.51781 0.09966 0.09254 0.0
C2109 C 0.52597 0.09053 0.09832 0.0
C2110 C 0.49788 0.11035 0.12198 0.0
C2111 C 0.51902 0.10221 0.07823 0.0
H2112 H 0.47126 0.11622 0.07703 0.0
H2113 H 0.49796 0.14709 0.08463 0.0
H2114 H 0.49059 0.09091 0.08435 0.0
H2115 H 0.48385 0.09406 0.09992 0.0
H2116 H 0.47385 0.09548 0.08573 0.0
H2117 H 0.51635 0.14439 0.09756 0.0
H2118 H 0.51616 0.13115 0.10888 0.0
H2119 H 0.52382 0.12918 0.09355 0.0
H2120 H 0.51532 0.09242 0.12936 0.0
H2121 H 0.53298 0.08546 0.09243 0.0
H2122 H 0.48799 0.10803 0.11857 0.0
H2123 H 0.49908 0.12097 0.12125 0.0
H2124 H 0.49871 0.1075 0.13229 0.0
H2125 H 0.50985 0.09968 0.07329 0.0
H2126 H 0.52698 0.09658 0.07374 0.0
H2127 H 0.52081 0.11263 0.07649 0.0
C2128 C 0.90061 0.51319 0.10198 0.0
C2129 C 0.90222 0.51172 0.11534 0.0
C2130 C 0.89566 0.50312 0.0944 0.0
C2131 C 0.89233 0.49125 0.10032 0.0
C2132 C 0.89367 0.48978 0.11384 0.0
C2133 C 0.89857 0.50006 0.12121 0.0
C2134 C 0.89426 0.50509 0.08002 0.0
C2135 C 0.89026 0.47724 0.12046 0.0
C2136 C 0.87081 0.46925 0.08042 0.0
C2137 C 0.87996 0.46134 0.0743 0.0
C2138 C 0.87465 0.47873 0.08931 0.0
C2139 C 0.88792 0.48027 0.0922 0.0
C2140 C 0.89712 0.47188 0.08655 0.0
C2141 C 0.89303 0.46254 0.07763 0.0
C2142 C 0.86456 0.48752 0.09513 0.0
C2143 C 0.91135 0.47312 0.08949 0.0
H2144 H 0.90336 0.52219 0.09739 0.0
H2145 H 0.8998 0.49884 0.13153 0.0
H2146 H 0.90067 0.49828 0.07478 0.0
H2147 H 0.8842 0.50299 0.07697 0.0
H2148 H 0.89673 0.51509 0.07701 0.0
H2149 H 0.89125 0.47787 0.13113 0.0
H2150 H 0.88019 0.47443 0.11811 0.0
H2151 H 0.89665 0.46942 0.11689 0.0
H2152 H 0.86069 0.46838 0.0779 0.0
H2153 H 0.90014 0.45641 0.07299 0.0
H2154 H 0.86592 0.49748 0.09141 0.0
H2155 H 0.86564 0.48792 0.10578 0.0
H2156 H 0.85458 0.48435 0.0928 0.0
H2157 H 0.91501 0.48244 0.08567 0.0
H2158 H 0.91711 0.46517 0.08517 0.0
H2159 H 0.91297 0.47317 0.10009 0.0
C2160 C 0.50069 0.89612 0.13366 0.0
C2161 C 0.48974 0.9005 0.12696 0.0
C2162 C 0.51046 0.8892 0.12729 0.0
C2163 C 0.50923 0.8866 0.11393 0.0
C2164 C 0.49795 0.8905 0.10725 0.0
C2165 C 0.48835 0.89741 0.11384 0.0
C2166 C 0.52232 0.88515 0.13474 0.0
C2167 C 0.49625 0.88784 0.09301 0.0
C2168 C 0.53897 0.88297 0.09291 0.0
C2169 C 0.53926 0.8696 0.09076 0.0
C2170 C 0.52949 0.88856 0.1008 0.0
C2171 C 0.52006 0.8806 0.10668 0.0
C2172 C 0.52058 0.86705 0.10496 0.0
C2173 C 0.53019 0.8617 0.09702 0.0
C2174 C 0.5293 0.90305 0.10245 0.0
C2175 C 0.51071 0.85825 0.11111 0.0
H2176 H 0.50183 0.89845 0.1438 0.0
H2177 H 0.4799 0.9007 0.10861 0.0
H2178 H 0.52435 0.87475 0.13315 0.0
H2179 H 0.53083 0.89062 0.1312 0.0
H2180 H 0.52129 0.88689 0.14527 0.0
H2181 H 0.48656 0.89075 0.08945 0.0
H2182 H 0.50368 0.8932 0.08743 0.0
H2183 H 0.49766 0.87741 0.09099 0.0
H2184 H 0.54597 0.88913 0.08815 0.0
H2185 H 0.53035 0.85136 0.09542 0.0
H2186 H 0.52916 0.9056 0.11286 0.0
H2187 H 0.52037 0.90706 0.09806 0.0
H2188 H 0.53777 0.90779 0.09787 0.0
H2189 H 0.50998 0.86024 0.12162 0.0
H2190 H 0.51308 0.84788 0.10972 0.0
H2191 H 0.50106 0.86014 0.10684 0.0
C2192 C 0.09796 0.48907 0.86897 0.0
C2193 C 0.09347 0.50061 0.87449 0.0
C2194 C 0.10422 0.4797 0.87652 0.0
C2195 C 0.10609 0.48198 0.88986 0.0
C2196 C 0.10196 0.49378 0.89539 0.0
C2197 C 0.09567 0.50294 0.88765 0.0
C2198 C 0.10848 0.46722 0.87029 0.0
C2199 C 0.10387 0.49659 0.90958 0.0
C2200 C 0.10895 0.45396 0.91327 0.0
C2201 C 0.12225 0.45379 0.91579 0.0
C2202 C 0.10362 0.46283 0.90452 0.0
C2203 C 0.11179 0.4718 0.89822 0.0
C2204 C 0.12528 0.47142 0.90042 0.0
C2205 C 0.13036 0.46239 0.90916 0.0
C2206 C 0.08919 0.46286 0.90234 0.0
C2207 C 0.13428 0.48086 0.8939 0.0
H2208 H 0.09629 0.48719 0.85881 0.0
H2209 H 0.09229 0.51185 0.89197 0.0
H2210 H 0.11885 0.46543 0.8723 0.0
H2211 H 0.10297 0.45904 0.87448 0.0
H2212 H 0.10699 0.46726 0.85966 0.0
H2213 H 0.10074 0.50651 0.91223 0.0
H2214 H 0.09829 0.48957 0.91544 0.0
H2215 H 0.1142 0.49545 0.91222 0.0
H2216 H 0.10263 0.44731 0.91831 0.0
H2217 H 0.14065 0.46234 0.91108 0.0
H2218 H 0.08703 0.46219 0.89187 0.0
H2219 H 0.08503 0.47208 0.90587 0.0
H2220 H 0.08429 0.45476 0.90739 0.0
H2221 H 0.13282 0.48067 0.88329 0.0
H2222 H 0.1446 0.47876 0.89599 0.0
H2223 H 0.13209 0.49081 0.89722 0.0
C2224 C 0.51518 0.13073 0.90043 0.0
C2225 C 0.52571 0.12362 0.90514 0.0
C2226 C 0.50448 0.12451 0.89489 0.0
C2227 C 0.50438 0.11088 0.89395 0.0
C2228 C 0.51518 0.10369 0.89826 0.0
C2229 C 0.52569 0.11014 0.90386 0.0
C2230 C 0.4931 0.13249 0.89046 0.0
C2231 C 0.51549 0.08913 0.8973 0.0
C2232 C 0.47281 0.09233 0.89339 0.0
C2233 C 0.4718 0.08898 0.8803 0.0
C2234 C 0.48314 0.09985 0.89787 0.0
C2235 C 0.49275 0.10403 0.88908 0.0
C2236 C 0.49157 0.10103 0.87579 0.0
C2237 C 0.48106 0.09359 0.87155 0.0
C2238 C 0.484 0.10298 0.91209 0.0
C2239 C 0.50165 0.10527 0.86615 0.0
H2240 H 0.5151 0.14116 0.90142 0.0
H2241 H 0.53382 0.10459 0.90743 0.0
H2242 H 0.4906 0.13009 0.88032 0.0
H2243 H 0.48453 0.13019 0.89648 0.0
H2244 H 0.49501 0.14303 0.89113 0.0
H2245 H 0.52493 0.08505 0.90037 0.0
H2246 H 0.50779 0.08494 0.90347 0.0
H2247 H 0.51354 0.08606 0.88722 0.0
H2248 H 0.46565 0.08886 0.90019 0.0
H2249 H 0.48036 0.09101 0.86143 0.0
H2250 H 0.48521 0.11353 0.9135 0.0
H2251 H 0.4926 0.09819 0.91633 0.0
H2252 H 0.4753 0.09977 0.9175 0.0
H2253 H 0.50329 0.11583 0.86688 0.0
H2254 H 0.49887 0.10291 0.85606 0.0
H2255 H 0.51097 0.10045 0.86834 0.0
C2256 C 0.8743 0.52776 0.90985 0.0
C2257 C 0.88278 0.53641 0.91594 0.0
C2258 C 0.87899 0.51797 0.90173 0.0
C2259 C 0.89244 0.51687 0.89959 0.0
C2260 C 0.90097 0.52599 0.90516 0.0
C2261 C 0.89604 0.53562 0.91331 0.0
C2262 C 0.8696 0.50841 0.89597 0.0
C2263 C 0.91538 0.52523 0.90299 0.0
C2264 C 0.90723 0.48413 0.89255 0.0
C2265 C 0.90957 0.48492 0.87924 0.0
C2266 C 0.90131 0.49433 0.8992 0.0
C2267 C 0.89774 0.50564 0.8924 0.0
C2268 C 0.89976 0.50638 0.8789 0.0
C2269 C 0.90562 0.49597 0.87247 0.0
C2270 C 0.8992 0.49314 0.91359 0.0
C2271 C 0.89611 0.5183 0.87134 0.0
H2272 H 0.86404 0.5283 0.91183 0.0
H2273 H 0.90264 0.54232 0.91792 0.0
H2274 H 0.87128 0.50738 0.88544 0.0
H2275 H 0.87114 0.49877 0.9004 0.0
H2276 H 0.85938 0.51129 0.89756 0.0
H2277 H 0.92056 0.53369 0.90709 0.0
H2278 H 0.91924 0.51634 0.90756 0.0
H2279 H 0.91754 0.52463 0.89251 0.0
H2280 H 0.91019 0.4756 0.89784 0.0
H2281 H 0.90742 0.49666 0.86218 0.0
H2282 H 0.88891 0.49498 0.91597 0.0
H2283 H 0.90504 0.50051 0.91873 0.0
H2284 H 0.9019 0.48345 0.91732 0.0
H2285 H 0.88584 0.5208 0.87308 0.0
H2286 H 0.89761 0.51704 0.86079 0.0
H2287 H 0.90202 0.52661 0.87465 0.0
C2288 C 0.50786 0.90533 0.87042 0.0
C2289 C 0.51932 0.91094 0.87499 0.0
C2290 C 0.49971 0.89838 0.87872 0.0
C2291 C 0.50315 0.89695 0.89186 0.0
C2292 C 0.51501 0.90204 0.89638 0.0
C2293 C 0.52294 0.90901 0.88789 0.0
C2294 C 0.48713 0.89309 0.87355 0.0
C2295 C 0.51907 0.90059 0.91032 0.0
C2296 C 0.47678 0.89338 0.91702 0.0
C2297 C 0.4773 0.88013 0.91977 0.0
C2298 C 0.48496 0.8989 0.90775 0.0
C2299 C 0.49395 0.891 0.90113 0.0
C2300 C 0.49437 0.87758 0.90368 0.0
C2301 C 0.486 0.87229 0.91295 0.0
C2302 C 0.48415 0.91325 0.90522 0.0
C2303 C 0.50386 0.86887 0.89683 0.0
H2304 H 0.505 0.90677 0.86045 0.0
H2305 H 0.53182 0.91324 0.89148 0.0
H2306 H 0.48608 0.88275 0.87615 0.0
H2307 H 0.47893 0.89835 0.87802 0.0
H2308 H 0.4864 0.89406 0.86289 0.0
H2309 H 0.52905 0.90417 0.91204 0.0
H2310 H 0.51236 0.90609 0.91661 0.0
H2311 H 0.51855 0.89032 0.9133 0.0
H2312 H 0.47005 0.89949 0.9222 0.0
H2313 H 0.48648 0.86204 0.91504 0.0
H2314 H 0.48249 0.91506 0.89479 0.0
H2315 H 0.49344 0.91791 0.90783 0.0
H2316 H 0.47629 0.91794 0.91081 0.0
H2317 H 0.50277 0.86984 0.88622 0.0
H2318 H 0.50257 0.85856 0.8995 0.0
H2319 H 0.51387 0.87181 0.89927 0.0
C2320 C 0.13751 0.09084 0.46313 0.0
C2321 C 0.12965 0.08256 0.45583 0.0
C2322 C 0.13231 0.10169 0.46939 0.0
C2323 C 0.11893 0.10429 0.46832 0.0
C2324 C 0.111 0.09614 0.46072 0.0
C2325 C 0.11646 0.08538 0.45456 0.0
C2326 C 0.14106 0.11018 0.47739 0.0
C2327 C 0.09669 0.09861 0.45935 0.0
C2328 C 0.10167 0.12337 0.49439 0.0
C2329 C 0.10007 0.13542 0.48841 0.0
C2330 C 0.10811 0.11326 0.48809 0.0
C2331 C 0.11307 0.11524 0.47551 0.0
C2332 C 0.11186 0.12749 0.46957 0.0
C2333 C 0.10536 0.13744 0.47609 0.0
C2334 C 0.10924 0.10032 0.49474 0.0
C2335 C 0.11708 0.12998 0.45619 0.0
H2336 H 0.14772 0.08873 0.46416 0.0
H2337 H 0.11031 0.07905 0.44894 0.0
H2338 H 0.14019 0.12039 0.47424 0.0
H2339 H 0.13808 0.10977 0.48767 0.0
H2340 H 0.15135 0.10723 0.47669 0.0
H2341 H 0.09196 0.09164 0.4527 0.0
H2342 H 0.09196 0.09792 0.46894 0.0
H2343 H 0.095 0.10853 0.45567 0.0
H2344 H 0.09765 0.12174 0.50391 0.0
H2345 H 0.10419 0.14673 0.47141 0.0
H2346 H 0.11948 0.09718 0.495 0.0
H2347 H 0.10378 0.09293 0.48922 0.0
H2348 H 0.10547 0.10056 0.50478 0.0
H2349 H 0.12743 0.12726 0.45568 0.0
H2350 H 0.11608 0.14026 0.45327 0.0
H2351 H 0.11185 0.12389 0.44909 0.0
C2352 C 0.907 0.12506 0.49422 0.0
C2353 C 0.91115 0.11767 0.48365 0.0
C2354 C 0.90112 0.11921 0.50495 0.0
C2355 C 0.89927 0.10567 0.50505 0.0
C2356 C 0.90319 0.0982 0.49429 0.0
C2357 C 0.90913 0.10428 0.48374 0.0
C2358 C 0.89711 0.12748 0.51628 0.0
C2359 C 0.90128 0.08374 0.49398 0.0
C2360 C 0.89632 0.08684 0.53631 0.0
C2361 C 0.88302 0.08434 0.53677 0.0
C2362 C 0.90167 0.09426 0.52631 0.0
C2363 C 0.89353 0.09919 0.51649 0.0
C2364 C 0.88004 0.09714 0.51719 0.0
C2365 C 0.87493 0.08977 0.52735 0.0
C2366 C 0.9161 0.09637 0.52598 0.0
C2367 C 0.87106 0.10221 0.50687 0.0
H2368 H 0.90855 0.13542 0.49423 0.0
H2369 H 0.91226 0.09851 0.47559 0.0
H2370 H 0.88671 0.12604 0.5184 0.0
H2371 H 0.90256 0.12452 0.52502 0.0
H2372 H 0.89886 0.13792 0.51453 0.0
H2373 H 0.90447 0.07939 0.48471 0.0
H2374 H 0.9068 0.07918 0.50196 0.0
H2375 H 0.89094 0.08136 0.4955 0.0
H2376 H 0.90262 0.08273 0.54359 0.0
H2377 H 0.86463 0.08787 0.52763 0.0
H2378 H 0.91831 0.10678 0.52478 0.0
H2379 H 0.9203 0.09122 0.51757 0.0
H2380 H 0.92094 0.09283 0.53488 0.0
H2381 H 0.8727 0.11268 0.50531 0.0
H2382 H 0.86073 0.10067 0.50935 0.0
H2383 H 0.8731 0.09725 0.49759 0.0
C2384 C 0.87437 0.90824 0.4742 0.0
C2385 C 0.8817 0.91627 0.4661 0.0
C2386 C 0.88022 0.89826 0.48127 0.0
C2387 C 0.89369 0.89625 0.48017 0.0
C2388 C 0.90108 0.90407 0.47173 0.0
C2389 C 0.89499 0.914 0.46481 0.0
C2390 C 0.87205 0.89012 0.49019 0.0
C2391 C 0.91547 0.90216 0.47025 0.0
C2392 C 0.91222 0.88066 0.50765 0.0
C2393 C 0.91417 0.86812 0.50293 0.0
C2394 C 0.90528 0.88981 0.50047 0.0
C2395 C 0.90022 0.88635 0.48825 0.0
C2396 C 0.90187 0.87362 0.48356 0.0
C2397 C 0.90882 0.86464 0.49097 0.0
C2398 C 0.90365 0.90328 0.50583 0.0
C2399 C 0.89661 0.86959 0.47057 0.0
H2400 H 0.86409 0.90994 0.47525 0.0
H2401 H 0.90072 0.92013 0.45855 0.0
H2402 H 0.8734 0.87972 0.488 0.0
H2403 H 0.87515 0.89166 0.50034 0.0
H2404 H 0.8616 0.89247 0.48943 0.0
H2405 H 0.9197 0.90864 0.46281 0.0
H2406 H 0.92035 0.90406 0.47959 0.0
H2407 H 0.91758 0.89201 0.46755 0.0
H2408 H 0.91628 0.88341 0.5169 0.0
H2409 H 0.91028 0.85496 0.48726 0.0
H2410 H 0.89327 0.90594 0.50603 0.0
H2411 H 0.90862 0.91033 0.49947 0.0
H2412 H 0.90762 0.90424 0.51575 0.0
H2413 H 0.88612 0.87169 0.47001 0.0
H2414 H 0.89815 0.85916 0.46862 0.0
H2415 H 0.9014 0.87525 0.46283 0.0
C2416 C 0.12605 0.9104 0.52799 0.0
C2417 C 0.11643 0.91614 0.53563 0.0
C2418 C 0.12284 0.90169 0.51811 0.0
C2419 C 0.10971 0.8986 0.51588 0.0
C2420 C 0.10001 0.90392 0.52393 0.0
C2421 C 0.10349 0.91266 0.53368 0.0
C2422 C 0.13343 0.89624 0.5097 0.0
C2423 C 0.08591 0.90075 0.52193 0.0
C2424 C 0.09861 0.88881 0.48238 0.0
C2425 C 0.09712 0.87542 0.48373 0.0
C2426 C 0.10304 0.89641 0.49268 0.0
C2427 C 0.10598 0.89048 0.50464 0.0
C2428 C 0.10483 0.87693 0.50598 0.0
C2429 C 0.10045 0.86955 0.49548 0.0
C2430 C 0.10426 0.91083 0.49085 0.0
C2431 C 0.10784 0.87029 0.51861 0.0
H2432 H 0.13608 0.91305 0.52943 0.0
H2433 H 0.09601 0.917 0.53958 0.0
H2434 H 0.13266 0.88557 0.50917 0.0
H2435 H 0.13239 0.9 0.49972 0.0
H2436 H 0.14321 0.89881 0.51331 0.0
H2437 H 0.07967 0.90494 0.52959 0.0
H2438 H 0.08267 0.90456 0.51245 0.0
H2439 H 0.08448 0.89014 0.52177 0.0
H2440 H 0.09611 0.89341 0.47332 0.0
H2441 H 0.0993 0.8592 0.49661 0.0
H2442 H 0.11414 0.91406 0.49347 0.0
H2443 H 0.09741 0.9159 0.49735 0.0
H2444 H 0.10224 0.91384 0.48075 0.0
H2445 H 0.11771 0.87286 0.52189 0.0
H2446 H 0.10714 0.85961 0.51785 0.0
H2447 H 0.10101 0.87363 0.52616 0.0
C2448 C 0.60484 0.01429 0.5883 0.0
C2449 C 0.61812 0.01401 0.58564 0.0
C2450 C 0.59906 0.00472 0.59594 0.0
C2451 C 0.60673 0.99457 0.60096 0.0
C2452 C 0.6202 0.99443 0.59863 0.0
C2453 C 0.62574 0.00419 0.59104 0.0
C2454 C 0.58467 0.00526 0.59833 0.0
C2455 C 0.62867 0.98374 0.60378 0.0
C2456 C 0.59214 0.97455 0.62801 0.0
C2457 C 0.58685 0.96414 0.62114 0.0
C2458 C 0.5989 0.98441 0.62161 0.0
C2459 C 0.60049 0.98376 0.60806 0.0
C2460 C 0.59558 0.97304 0.60114 0.0
C2461 C 0.58877 0.96338 0.60776 0.0
C2462 C 0.60395 0.99573 0.6293 0.0
C2463 C 0.5972 0.97194 0.58668 0.0
H2464 H 0.59889 0.02188 0.58422 0.0
H2465 H 0.63601 0.0039 0.58901 0.0
H2466 H 0.57993 0.99683 0.59373 0.0
H2467 H 0.58265 0.00472 0.60884 0.0
H2468 H 0.58023 0.01422 0.59443 0.0
H2469 H 0.63907 0.98546 0.60178 0.0
H2470 H 0.62733 0.9827 0.61436 0.0
H2471 H 0.62583 0.97443 0.59929 0.0
H2472 H 0.59066 0.97522 0.63835 0.0
H2473 H 0.58476 0.95533 0.60239 0.0
H2474 H 0.59887 0.00467 0.6263 0.0
H2475 H 0.61438 0.9972 0.62733 0.0
H2476 H 0.60259 0.99441 0.63986 0.0
H2477 H 0.59196 0.97994 0.58184 0.0
H2478 H 0.59348 0.96263 0.58286 0.0
H2479 H 0.60755 0.97285 0.58404 0.0
C2480 C 0.00968 0.59804 0.6222 0.0
C2481 C 0.01936 0.59381 0.61371 0.0
C2482 C 0.99878 0.60466 0.61761 0.0
C2483 C 0.99759 0.60717 0.60423 0.0
C2484 C 0.00761 0.60345 0.59569 0.0
C2485 C 0.01835 0.59677 0.60053 0.0
C2486 C 0.98828 0.60846 0.62699 0.0
C2487 C 0.00674 0.60607 0.58137 0.0
C2488 C 0.96439 0.61005 0.58904 0.0
C2489 C 0.96325 0.62343 0.58732 0.0
C2490 C 0.97537 0.60468 0.59486 0.0
C2491 C 0.98551 0.61288 0.59898 0.0
C2492 C 0.98429 0.62642 0.59757 0.0
C2493 C 0.97315 0.63154 0.59179 0.0
C2494 C 0.97626 0.59018 0.59631 0.0
C2495 C 0.99493 0.63545 0.6018 0.0
H2496 H 0.01038 0.59578 0.6324 0.0
H2497 H 0.02582 0.59359 0.59392 0.0
H2498 H 0.98577 0.61881 0.62581 0.0
H2499 H 0.97941 0.60279 0.62494 0.0
H2500 H 0.99113 0.60675 0.63719 0.0
H2501 H 0.01578 0.60346 0.5762 0.0
H2502 H 0.99866 0.60044 0.57716 0.0
H2503 H 0.00466 0.61644 0.57961 0.0
H2504 H 0.95676 0.60372 0.58565 0.0
H2505 H 0.97236 0.64189 0.59046 0.0
H2506 H 0.97828 0.58761 0.60651 0.0
H2507 H 0.9844 0.58646 0.59041 0.0
H2508 H 0.96727 0.58522 0.59323 0.0
H2509 H 0.99747 0.63365 0.61205 0.0
H2510 H 0.99219 0.64577 0.6007 0.0
H2511 H 0.00374 0.63362 0.59598 0.0
C2512 C 0.411 0.0147 0.60828 0.0
C2513 C 0.41347 0.01273 0.62144 0.0
C2514 C 0.40306 0.0062 0.60133 0.0
C2515 C 0.39754 0.99543 0.60768 0.0
C2516 C 0.39976 0.99353 0.62103 0.0
C2517 C 0.40768 0.00224 0.62777 0.0
C2518 C 0.40082 0.00861 0.58711 0.0
C2519 C 0.39407 0.98212 0.6281 0.0
C2520 C 0.36946 0.97915 0.59061 0.0
C2521 C 0.37575 0.96916 0.58395 0.0
C2522 C 0.37637 0.98758 0.59867 0.0
C2523 C 0.38986 0.98591 0.60017 0.0
C2524 C 0.39616 0.97553 0.59388 0.0
C2525 C 0.38904 0.96731 0.58581 0.0
C2526 C 0.36933 0.99856 0.6052 0.0
C2527 C 0.41052 0.97336 0.59534 0.0
H2528 H 0.41539 0.02281 0.60333 0.0
H2529 H 0.40956 0.00064 0.63794 0.0
H2530 H 0.40489 0.00052 0.58138 0.0
H2531 H 0.39031 0.009 0.58505 0.0
H2532 H 0.40532 0.01776 0.58377 0.0
H2533 H 0.39622 0.98236 0.63861 0.0
H2534 H 0.38345 0.98186 0.62677 0.0
H2535 H 0.398 0.97302 0.62402 0.0
H2536 H 0.3592 0.98066 0.58921 0.0
H2537 H 0.39395 0.95957 0.58075 0.0
H2538 H 0.37282 0.0079 0.60128 0.0
H2539 H 0.37138 0.99856 0.61571 0.0
H2540 H 0.35871 0.99801 0.60376 0.0
H2541 H 0.41586 0.98163 0.5911 0.0
H2542 H 0.41379 0.96436 0.59051 0.0
H2543 H 0.41315 0.97285 0.60571 0.0
C2544 C 0.01435 0.3686 0.60352 0.0
C2545 C 0.02525 0.37473 0.5983 0.0
C2546 C 0.00441 0.37578 0.60931 0.0
C2547 C 0.00544 0.3894 0.60991 0.0
C2548 C 0.01664 0.39559 0.6051 0.0
C2549 C 0.0264 0.38818 0.59934 0.0
C2550 C 0.99261 0.36885 0.61434 0.0
C2551 C 0.01813 0.41009 0.60565 0.0
C2552 C 0.97551 0.41045 0.61067 0.0
C2553 C 0.97524 0.41443 0.62361 0.0
C2554 C 0.98503 0.40192 0.6062 0.0
C2555 C 0.99453 0.39729 0.61487 0.0
C2556 C 0.99403 0.40087 0.62805 0.0
C2557 C 0.98436 0.40939 0.63228 0.0
C2558 C 0.98519 0.39825 0.59208 0.0
C2559 C 0.00399 0.39611 0.63758 0.0
H2560 H 0.01338 0.3582 0.60275 0.0
H2561 H 0.03482 0.39299 0.59537 0.0
H2562 H 0.99057 0.37181 0.62444 0.0
H2563 H 0.98407 0.37156 0.60846 0.0
H2564 H 0.99372 0.35818 0.61403 0.0
H2565 H 0.02776 0.41334 0.60219 0.0
H2566 H 0.0106 0.41472 0.59959 0.0
H2567 H 0.01674 0.41358 0.61569 0.0
H2568 H 0.96846 0.41425 0.60393 0.0
H2569 H 0.98422 0.41241 0.6423 0.0
H2570 H 0.9855 0.38759 0.59102 0.0
H2571 H 0.99402 0.40217 0.58744 0.0
H2572 H 0.97663 0.40197 0.5868 0.0
H2573 H 0.00481 0.38544 0.6371 0.0
H2574 H 0.00164 0.39894 0.64766 0.0
H2575 H 0.01359 0.40015 0.63506 0.0
C2576 C 0.58504 0.01675 0.39042 0.0
C2577 C 0.58221 0.01587 0.37721 0.0
C2578 C 0.5924 0.00721 0.39662 0.0
C2579 C 0.59697 0.99651 0.38945 0.0
C2580 C 0.59442 0.99572 0.37604 0.0
C2581 C 0.58709 0.00544 0.37007 0.0
C2582 C 0.59501 0.00845 0.41092 0.0
C2583 C 0.59911 0.98443 0.36809 0.0
C2584 C 0.62384 0.97687 0.40484 0.0
C2585 C 0.61685 0.96695 0.41086 0.0
C2586 C 0.61754 0.98639 0.39752 0.0
C2587 C 0.60395 0.98591 0.39614 0.0
C2588 C 0.5969 0.97564 0.40178 0.0
C2589 C 0.60343 0.9663 0.40911 0.0
C2590 C 0.62537 0.99721 0.39167 0.0
C2591 C 0.5824 0.97474 0.40043 0.0
H2592 H 0.58135 0.02481 0.39599 0.0
H2593 H 0.58494 0.00469 0.35985 0.0
H2594 H 0.59037 0.00033 0.41616 0.0
H2595 H 0.60554 0.00785 0.41281 0.0
H2596 H 0.59132 0.01767 0.41496 0.0
H2597 H 0.59689 0.98559 0.35766 0.0
H2598 H 0.6097 0.98323 0.36924 0.0
H2599 H 0.5945 0.9754 0.37158 0.0
H2600 H 0.63421 0.97745 0.40615 0.0
H2601 H 0.59797 0.95863 0.41368 0.0
H2602 H 0.62268 0.0065 0.39629 0.0
H2603 H 0.62321 0.99812 0.38121 0.0
H2604 H 0.63592 0.99572 0.39289 0.0
H2605 H 0.5778 0.9831 0.40531 0.0
H2606 H 0.57846 0.96571 0.4047 0.0
H2607 H 0.57961 0.97514 0.3901 0.0
C2608 C 0.9936 0.59134 0.37157 0.0
C2609 C 0.98281 0.58488 0.37662 0.0
C2610 C 0.00084 0.59987 0.37923 0.0
C2611 C 0.99716 0.602 0.39221 0.0
C2612 C 0.98605 0.59582 0.39725 0.0
C2613 C 0.97903 0.58731 0.3894 0.0
C2614 C 0.01263 0.6063 0.37354 0.0
C2615 C 0.98178 0.59792 0.41103 0.0
C2616 C 0.02196 0.61206 0.4172 0.0
C2617 C 0.01913 0.62521 0.41879 0.0
C2618 C 0.01515 0.6045 0.40827 0.0
C2619 C 0.00523 0.61021 0.40079 0.0
C2620 C 0.0026 0.62356 0.40204 0.0
C2621 C 0.0096 0.63092 0.41101 0.0
C2622 C 0.0183 0.5903 0.40713 0.0
C2623 C 0.99208 0.62997 0.39422 0.0
H2624 H 0.99658 0.58952 0.3617 0.0
H2625 H 0.97067 0.5824 0.39336 0.0
H2626 H 0.01209 0.61691 0.3749 0.0
H2627 H 0.02141 0.60289 0.37866 0.0
H2628 H 0.01376 0.60421 0.36308 0.0
H2629 H 0.97256 0.5929 0.41326 0.0
H2630 H 0.98932 0.59433 0.41775 0.0
H2631 H 0.98052 0.60839 0.41295 0.0
H2632 H 0.02934 0.6076 0.42312 0.0
H2633 H 0.00736 0.64108 0.41218 0.0
H2634 H 0.02027 0.58775 0.39692 0.0
H2635 H 0.00988 0.58447 0.41031 0.0
H2636 H 0.0268 0.58752 0.41306 0.0
H2637 H 0.99347 0.62797 0.38379 0.0
H2638 H 0.99184 0.6406 0.39569 0.0
H2639 H 0.98256 0.62592 0.397 0.0
C2640 C 0.3855 0.04082 0.41911 0.0
C2641 C 0.37226 0.04141 0.4219 0.0
C2642 C 0.39045 0.03138 0.41075 0.0
C2643 C 0.38196 0.02225 0.40513 0.0
C2644 C 0.36853 0.02307 0.40754 0.0
C2645 C 0.36383 0.03268 0.41586 0.0
C2646 C 0.40483 0.0309 0.40831 0.0
C2647 C 0.3592 0.01348 0.40174 0.0
C2648 C 0.39494 0.00271 0.37693 0.0
C2649 C 0.39929 0.9915 0.38317 0.0
C2650 C 0.38899 0.01271 0.3839 0.0
C2651 C 0.38729 0.0114 0.3974 0.0
C2652 C 0.39126 -9e-05 0.40367 0.0
C2653 C 0.39725 0.99012 0.39648 0.0
C2654 C 0.38491 0.02483 0.37689 0.0
C2655 C 0.3895 0.99811 0.41804 0.0
H2656 H 0.39206 0.04757 0.42369 0.0
H2657 H 0.35358 0.03305 0.41799 0.0
H2658 H 0.40888 0.02187 0.41242 0.0
H2659 H 0.4068 0.03078 0.39778 0.0
H2660 H 0.40998 0.03923 0.41268 0.0
H2661 H 0.34897 0.01601 0.40378 0.0
H2662 H 0.36055 0.0129 0.39113 0.0
H2663 H 0.36115 0.00372 0.40573 0.0
H2664 H 0.39649 0.00385 0.36664 0.0
H2665 H 0.40053 0.98146 0.40136 0.0
H2666 H 0.39071 0.03313 0.3804 0.0
H2667 H 0.37464 0.02704 0.37896 0.0
H2668 H 0.38619 0.02402 0.36627 0.0
H2669 H 0.39535 0.00537 0.42333 0.0
H2670 H 0.39244 0.98833 0.42131 0.0
H2671 H 0.37925 -0.00031 0.42073 0.0
C2672 C 0.99851 0.36918 0.41583 0.0
C2673 C 0.98846 0.37654 0.42118 0.0
C2674 C 0.00803 0.37496 0.4081 0.0
C2675 C 0.00742 0.38839 0.40561 0.0
C2676 C 0.9971 0.39579 0.41067 0.0
C2677 C 0.98777 0.38978 0.41844 0.0
C2678 C 0.01893 0.36678 0.4029 0.0
C2679 C 0.99607 0.41011 0.40813 0.0
C2680 C 0.0379 0.40712 0.39773 0.0
C2681 C 0.03678 0.40874 0.38433 0.0
C2682 C 0.02859 0.4002 0.40472 0.0
C2683 C 0.01785 0.39485 0.39815 0.0
C2684 C 0.01682 0.39617 0.38459 0.0
C2685 C 0.02633 0.40307 0.37783 0.0
C2686 C 0.03007 0.39889 0.41917 0.0
C2687 C 0.00547 0.39064 0.37728 0.0
H2688 H 0.99912 0.35894 0.41792 0.0
H2689 H 0.98 0.39551 0.42249 0.0
H2690 H 0.01962 0.36787 0.39226 0.0
H2691 H 0.02824 0.37011 0.40704 0.0
H2692 H 0.01768 0.35638 0.40522 0.0
H2693 H 0.9871 0.41435 0.41224 0.0
H2694 H 0.00449 0.41517 0.4124 0.0
H2695 H 0.99623 0.412 0.39758 0.0
H2696 H 0.04597 0.41143 0.40282 0.0
H2697 H 0.02538 0.4043 0.36747 0.0
H2698 H 0.02959 0.38858 0.42202 0.0
H2699 H 0.022 0.40394 0.4241 0.0
H2700 H 0.03933 0.40301 0.42271 0.0
H2701 H 0.00444 0.38019 0.37939 0.0
H2702 H 0.00645 0.39192 0.36667 0.0
H2703 H 0.99644 0.39543 0.38048 0.0
C2704 C 0.62904 0.58543 0.97062 0.0
C2705 C 0.62006 0.57857 0.96314 0.0
C2706 C 0.62506 0.59542 0.97888 0.0
C2707 C 0.6118 0.59865 0.97961 0.0
C2708 C 0.60275 0.59204 0.97177 0.0
C2709 C 0.60698 0.58206 0.96366 0.0
C2710 C 0.63497 0.60224 0.98713 0.0
C2711 C 0.58853 0.59528 0.9722 0.0
C2712 C 0.59743 0.6137 0.00973 0.0
C2713 C 0.59572 0.62656 0.00584 0.0
C2714 C 0.60316 0.60463 0.00146 0.0
C2715 C 0.6072 0.6085 0.98898 0.0
C2716 C 0.60601 0.62158 0.98521 0.0
C2717 C 0.6003 0.63047 0.9937 0.0
C2718 C 0.60438 0.59078 0.00589 0.0
C2719 C 0.61021 0.62606 0.97198 0.0
H2720 H 0.63917 0.58277 0.97029 0.0
H2721 H 0.59999 0.57684 0.95787 0.0
H2722 H 0.63425 0.61284 0.98579 0.0
H2723 H 0.63306 0.60021 0.99747 0.0
H2724 H 0.64499 0.59915 0.98483 0.0
H2725 H 0.58285 0.5897 0.965 0.0
H2726 H 0.58464 0.59319 0.98196 0.0
H2727 H 0.58706 0.60573 0.97035 0.0
H2728 H 0.59399 0.61063 0.01912 0.0
H2729 H 0.59903 0.6404 0.99063 0.0
H2730 H 0.61443 0.58732 0.0045 0.0
H2731 H 0.598 0.58454 -4e-05 0.0
H2732 H 0.60172 0.58956 0.01621 0.0
H2733 H 0.62026 0.62292 0.96999 0.0
H2734 H 0.60966 0.63672 0.97094 0.0
H2735 H 0.60395 0.62158 0.96452 0.0
C2736 C 0.39594 0.59091 0.02085 0.0
C2737 C 0.38267 0.58833 0.0201 0.0
C2738 C 0.40238 0.59732 0.0108 0.0
C2739 C 0.39539 0.60115 -0.00031 0.0
C2740 C 0.38191 0.59894 0.99904 0.0
C2741 C 0.3757 0.59259 0.00928 0.0
C2742 C 0.41675 0.59962 0.0119 0.0
C2743 C 0.37415 0.60286 0.98733 0.0
C2744 C 0.41162 0.62539 0.97746 0.0
C2745 C 0.41735 0.61724 0.96827 0.0
C2746 C 0.40417 0.62032 0.9876 0.0
C2747 C 0.40235 0.60681 0.98849 0.0
C2748 C 0.40774 0.59858 0.97899 0.0
C2749 C 0.41521 0.60389 0.96902 0.0
C2750 C 0.39861 0.62939 0.99758 0.0
C2751 C 0.4059 0.58412 0.97955 0.0
H2752 H 0.40138 0.58771 0.0292 0.0
H2753 H 0.36544 0.59062 0.00862 0.0
H2754 H 0.42189 0.59398 0.00438 0.0
H2755 H 0.41898 0.60996 0.01021 0.0
H2756 H 0.4206 0.5968 0.02151 0.0
H2757 H 0.36363 0.60123 0.98869 0.0
H2758 H 0.37577 0.61321 0.98509 0.0
H2759 H 0.3774 0.59722 0.97882 0.0
H2760 H 0.41325 0.63572 0.97696 0.0
H2761 H 0.41955 0.59754 0.96192 0.0
H2762 H 0.40311 0.62744 0.00711 0.0
H2763 H 0.38808 0.62773 0.99864 0.0
H2764 H 0.40024 0.63969 0.99507 0.0
H2765 H 0.41057 0.58023 0.98838 0.0
H2766 H 0.41009 0.57914 0.97102 0.0
H2767 H 0.39547 0.58173 0.98013 0.0
C2768 C 0.38411 0.40244 0.98589 0.0
C2769 C 0.37112 0.40507 0.98867 0.0
C2770 C 0.392 0.39602 0.99485 0.0
C2771 C 0.38678 0.39223 0.0069 0.0
C2772 C 0.37354 0.39436 0.00954 0.0
C2773 C 0.36585 0.40072 0.00037 0.0
C2774 C 0.40605 0.3938 0.99163 0.0
C2775 C 0.36763 0.39046 0.02229 0.0
C2776 C 0.40567 0.36864 0.02775 0.0
C2777 C 0.41212 0.37704 0.03621 0.0
C2778 C 0.39735 0.37342 0.01816 0.0
C2779 C 0.39538 0.3869 0.01709 0.0
C2780 C 0.40175 0.39541 0.02569 0.0
C2781 C 0.41007 0.39038 0.03512 0.0
C2782 C 0.39078 0.36407 0.00909 0.0
C2783 C 0.39983 0.40985 0.0249 0.0
H2784 H 0.38824 0.40571 0.97684 0.0
H2785 H 0.35581 0.4027 0.0026 0.0
H2786 H 0.4122 0.39977 0.99806 0.0
H2787 H 0.40868 0.38355 0.99333 0.0
H2788 H 0.40834 0.3963 0.98145 0.0
H2789 H 0.35699 0.39188 0.02245 0.0
H2790 H 0.36975 0.38018 0.0244 0.0
H2791 H 0.37195 0.39629 0.03018 0.0
H2792 H 0.40724 0.35832 0.0285 0.0
H2793 H 0.41499 0.39693 0.04163 0.0
H2794 H 0.39369 0.36616 0.99899 0.0
H2795 H 0.38015 0.36528 0.00964 0.0
H2796 H 0.3932 0.35386 0.01132 0.0
H2797 H 0.40299 0.41343 0.01531 0.0
H2798 H 0.40529 0.41512 0.03249 0.0
H2799 H 0.38942 0.41223 0.02592 0.0
C2800 C 0.62861 0.4071 0.03539 0.0
C2801 C 0.6199 0.41443 0.04274 0.0
C2802 C 0.62425 0.39703 0.02742 0.0
C2803 C 0.61088 0.39422 0.02684 0.0
C2804 C 0.6021 0.40134 0.03453 0.0
C2805 C 0.60671 0.41138 0.04236 0.0
C2806 C 0.63389 0.38964 0.01934 0.0
C2807 C 0.58777 0.39857 0.03424 0.0
C2808 C 0.59595 0.37847 0.99735 0.0
C2809 C 0.59387 0.36582 0.00173 0.0
C2810 C 0.60196 0.38769 0.00526 0.0
C2811 C 0.60593 0.38417 0.01786 0.0
C2812 C 0.60435 0.37129 0.02214 0.0
C2813 C 0.59836 0.36225 0.01401 0.0
C2814 C 0.60357 0.40131 0.00032 0.0
C2815 C 0.60849 0.36719 0.03551 0.0
H2816 H 0.63882 0.40941 0.03562 0.0
H2817 H 0.59992 0.41697 0.04804 0.0
H2818 H 0.6329 0.37912 0.02109 0.0
H2819 H 0.63192 0.39132 0.00894 0.0
H2820 H 0.64401 0.39254 0.02142 0.0
H2821 H 0.58231 0.40462 0.04122 0.0
H2822 H 0.58393 0.4004 0.02441 0.0
H2823 H 0.58597 0.38826 0.0365 0.0
H2824 H 0.59258 0.38129 0.98785 0.0
H2825 H 0.59681 0.35249 0.01745 0.0
H2826 H 0.61373 0.40452 0.00152 0.0
H2827 H 0.59742 0.40797 0.00604 0.0
H2828 H 0.60088 0.40223 0.98997 0.0
H2829 H 0.61866 0.37004 0.03731 0.0
H2830 H 0.60757 0.3566 0.03697 0.0
H2831 H 0.60244 0.37217 0.04282 0.0
loop_
_geom_bond_atom_site_label_1
_geom_bond_atom_site_label_2
_geom_bond_distance
_geom_bond_site_symmetry_2
_ccdc_geom_bond_type
O0 Cd1 2.300 . S
O0 C7 1.275 . S
Cd1 O0 2.300 . S
Cd1 O9 2.381 . S
Cd1 O10 2.378 . S
O2 Cd3 2.385 . S
O2 C7 1.255 . S
Cd3 O2 2.385 . S
Cd3 O4 2.317 . S
O4 Cd3 2.317 . S
O4 C5 1.232 . S
C5 O4 1.232 . S
C5 O6 1.218 . S
O6 C5 1.218 . S
C7 O0 1.275 . S
C7 O2 1.255 . S
C8 O9 1.258 . S
C8 O10 1.256 . S
O9 Cd1 2.381 . S
O9 C8 1.258 . S
O10 Cd1 2.378 . S
O10 C8 1.256 . S
O11 Cd12 2.300 . S
O11 C18 1.275 . S
Cd12 O11 2.300 . S
Cd12 O20 2.381 . S
Cd12 O21 2.378 . S
O13 Cd14 2.385 . S
O13 C18 1.255 . S
Cd14 O13 2.385 . S
Cd14 O15 2.317 . S
O15 Cd14 2.317 . S
O15 C16 1.232 . S
C16 O15 1.232 . S
C16 O17 1.218 . S
O17 C16 1.218 . S
C18 O11 1.275 . S
C18 O13 1.255 . S
C19 O20 1.258 . S
C19 O21 1.256 . S
O20 Cd12 2.381 . S
O20 C19 1.258 . S
O21 Cd12 2.378 . S
O21 C19 1.256 . S
O22 Cd23 2.300 . S
O22 C29 1.275 . S
Cd23 O22 2.300 . S
Cd23 O31 2.381 . S
Cd23 O32 2.378 . S
O24 Cd25 2.385 . S
O24 C29 1.255 . S
Cd25 O24 2.385 . S
Cd25 O26 2.317 . S
O26 Cd25 2.317 . S
O26 C27 1.232 . S
C27 O26 1.232 . S
C27 O28 1.218 . S
O28 C27 1.218 . S
C29 O22 1.275 . S
C29 O24 1.255 . S
C30 O31 1.258 . S
C30 O32 1.256 . S
O31 Cd23 2.381 . S
O31 C30 1.258 . S
O32 Cd23 2.378 . S
O32 C30 1.256 . S
O33 Cd34 2.300 . S
O33 C40 1.275 . S
Cd34 O33 2.300 . S
Cd34 O42 2.381 . S
Cd34 O43 2.378 . S
O35 Cd36 2.385 . S
O35 C40 1.255 . S
Cd36 O35 2.385 . S
Cd36 O37 2.317 . S
O37 Cd36 2.317 . S
O37 C38 1.232 . S
C38 O37 1.232 . S
C38 O39 1.218 . S
O39 C38 1.218 . S
C40 O33 1.275 . S
C40 O35 1.255 . S
C41 O42 1.258 . S
C41 O43 1.256 . S
O42 Cd34 2.381 . S
O42 C41 1.258 . S
O43 Cd34 2.378 . S
O43 C41 1.256 . S
O44 Cd45 2.300 . S
O44 C51 1.275 . S
Cd45 O44 2.300 . S
Cd45 O53 2.381 . S
Cd45 O54 2.378 . S
O46 Cd47 2.385 . S
O46 C51 1.255 . S
Cd47 O46 2.385 . S
Cd47 O48 2.317 . S
O48 Cd47 2.317 . S
O48 C49 1.232 . S
C49 O48 1.232 . S
C49 O50 1.218 . S
O50 C49 1.218 . S
C51 O44 1.275 . S
C51 O46 1.255 . S
C52 O53 1.258 . S
C52 O54 1.256 . S
O53 Cd45 2.381 . S
O53 C52 1.258 . S
O54 Cd45 2.378 . S
O54 C52 1.256 . S
O55 Cd56 2.300 . S
O55 C62 1.275 . S
Cd56 O55 2.300 . S
Cd56 O64 2.381 . S
Cd56 O65 2.378 . S
O57 Cd58 2.385 . S
O57 C62 1.255 . S
Cd58 O57 2.385 . S
Cd58 O59 2.317 . S
O59 Cd58 2.317 . S
O59 C60 1.232 . S
C60 O59 1.232 . S
C60 O61 1.218 . S
O61 C60 1.218 . S
C62 O55 1.275 . S
C62 O57 1.255 . S
C63 O64 1.258 . S
C63 O65 1.256 . S
O64 Cd56 2.381 . S
O64 C63 1.258 . S
O65 Cd56 2.378 . S
O65 C63 1.256 . S
O66 Cd67 2.300 . S
O66 C73 1.275 . S
Cd67 O66 2.300 . S
Cd67 O75 2.381 . S
Cd67 O76 2.378 . S
O68 Cd69 2.385 . S
O68 C73 1.255 . S
Cd69 O68 2.385 . S
Cd69 O70 2.317 . S
O70 Cd69 2.317 . S
O70 C71 1.232 . S
C71 O70 1.232 . S
C71 O72 1.218 . S
O72 C71 1.218 . S
C73 O66 1.275 . S
C73 O68 1.255 . S
C74 O75 1.258 . S
C74 O76 1.256 . S
O75 Cd67 2.381 . S
O75 C74 1.258 . S
O76 Cd67 2.378 . S
O76 C74 1.256 . S
O77 Cd78 2.300 . S
O77 C84 1.275 . S
Cd78 O77 2.300 . S
Cd78 O86 2.381 . S
Cd78 O87 2.378 . S
O79 Cd80 2.385 . S
O79 C84 1.255 . S
Cd80 O79 2.385 . S
Cd80 O81 2.317 . S
O81 Cd80 2.317 . S
O81 C82 1.232 . S
C82 O81 1.232 . S
C82 O83 1.218 . S
O83 C82 1.218 . S
C84 O77 1.275 . S
C84 O79 1.255 . S
C85 O86 1.258 . S
C85 O87 1.256 . S
O86 Cd78 2.381 . S
O86 C85 1.258 . S
O87 Cd78 2.378 . S
O87 C85 1.256 . S
O88 Cd89 2.300 . S
O88 C95 1.275 . S
Cd89 O88 2.300 . S
Cd89 O97 2.381 . S
Cd89 O98 2.378 . S
O90 Cd91 2.385 . S
O90 C95 1.255 . S
Cd91 O90 2.385 . S
Cd91 O92 2.317 . S
O92 Cd91 2.317 . S
O92 C93 1.232 . S
C93 O92 1.232 . S
C93 O94 1.218 . S
O94 C93 1.218 . S
C95 O88 1.275 . S
C95 O90 1.255 . S
C96 O97 1.258 . S
C96 O98 1.256 . S
O97 Cd89 2.381 . S
O97 C96 1.258 . S
O98 Cd89 2.378 . S
O98 C96 1.256 . S
O99 Cd100 2.300 . S
O99 C106 1.275 . S
Cd100 O99 2.300 . S
Cd100 O108 2.381 . S
Cd100 O109 2.378 . S
O101 Cd102 2.385 . S
O101 C106 1.255 . S
Cd102 O101 2.385 . S
Cd102 O103 2.317 . S
O103 Cd102 2.317 . S
O103 C104 1.232 . S
C104 O103 1.232 . S
C104 O105 1.218 . S
O105 C104 1.218 . S
C106 O99 1.275 . S
C106 O101 1.255 . S
C107 O108 1.258 . S
C107 O109 1.256 . S
O108 Cd100 2.381 . S
O108 C107 1.258 . S
O109 Cd100 2.378 . S
O109 C107 1.256 . S
O110 Cd111 2.300 . S
O110 C117 1.275 . S
Cd111 O110 2.300 . S
Cd111 O119 2.381 . S
Cd111 O120 2.378 . S
O112 Cd113 2.385 . S
O112 C117 1.255 . S
Cd113 O112 2.385 . S
Cd113 O114 2.317 . S
O114 Cd113 2.317 . S
O114 C115 1.232 . S
C115 O114 1.232 . S
C115 O116 1.218 . S
O116 C115 1.218 . S
C117 O110 1.275 . S
C117 O112 1.255 . S
C118 O119 1.258 . S
C118 O120 1.256 . S
O119 Cd111 2.381 . S
O119 C118 1.258 . S
O120 Cd111 2.378 . S
O120 C118 1.256 . S
O121 Cd122 2.300 . S
O121 C128 1.275 . S
Cd122 O121 2.300 . S
Cd122 O130 2.381 . S
Cd122 O131 2.378 . S
O123 Cd124 2.385 . S
O123 C128 1.255 . S
Cd124 O123 2.385 . S
Cd124 O125 2.317 . S
O125 Cd124 2.317 . S
O125 C126 1.232 . S
C126 O125 1.232 . S
C126 O127 1.218 . S
O127 C126 1.218 . S
C128 O121 1.275 . S
C128 O123 1.255 . S
C129 O130 1.258 . S
C129 O131 1.256 . S
O130 Cd122 2.381 . S
O130 C129 1.258 . S
O131 Cd122 2.378 . S
O131 C129 1.256 . S
O132 Cd133 2.300 . S
O132 C139 1.275 . S
Cd133 O132 2.300 . S
Cd133 O141 2.381 . S
Cd133 O142 2.378 . S
O134 Cd135 2.385 . S
O134 C139 1.255 . S
Cd135 O134 2.385 . S
Cd135 O136 2.317 . S
O136 Cd135 2.317 . S
O136 C137 1.232 . S
C137 O136 1.232 . S
C137 O138 1.218 . S
O138 C137 1.218 . S
C139 O132 1.275 . S
C139 O134 1.255 . S
C140 O141 1.258 . S
C140 O142 1.256 . S
O141 Cd133 2.381 . S
O141 C140 1.258 . S
O142 Cd133 2.378 . S
O142 C140 1.256 . S
O143 Cd144 2.300 . S
O143 C150 1.275 . S
Cd144 O143 2.300 . S
Cd144 O152 2.381 . S
Cd144 O153 2.378 . S
O145 Cd146 2.385 . S
O145 C150 1.255 . S
Cd146 O145 2.385 . S
Cd146 O147 2.317 . S
O147 Cd146 2.317 . S
O147 C148 1.232 . S
C148 O147 1.232 . S
C148 O149 1.218 . S
O149 C148 1.218 . S
C150 O143 1.275 . S
C150 O145 1.255 . S
C151 O152 1.258 . S
C151 O153 1.256 . S
O152 Cd144 2.381 . S
O152 C151 1.258 . S
O153 Cd144 2.378 . S
O153 C151 1.256 . S
O154 Cd155 2.300 . S
O154 C161 1.275 . S
Cd155 O154 2.300 . S
Cd155 O163 2.381 . S
Cd155 O164 2.378 . S
O156 Cd157 2.385 . S
O156 C161 1.255 . S
Cd157 O156 2.385 . S
Cd157 O158 2.317 . S
O158 Cd157 2.317 . S
O158 C159 1.232 . S
C159 O158 1.232 . S
C159 O160 1.218 . S
O160 C159 1.218 . S
C161 O154 1.275 . S
C161 O156 1.255 . S
C162 O163 1.258 . S
C162 O164 1.256 . S
O163 Cd155 2.381 . S
O163 C162 1.258 . S
O164 Cd155 2.378 . S
O164 C162 1.256 . S
O165 Cd166 2.300 . S
O165 C172 1.275 . S
Cd166 O165 2.300 . S
Cd166 O174 2.381 . S
Cd166 O175 2.378 . S
O167 Cd168 2.385 . S
O167 C172 1.255 . S
Cd168 O167 2.385 . S
Cd168 O169 2.317 . S
O169 Cd168 2.317 . S
O169 C170 1.232 . S
C170 O169 1.232 . S
C170 O171 1.218 . S
O171 C170 1.218 . S
C172 O165 1.275 . S
C172 O167 1.255 . S
C173 O174 1.258 . S
C173 O175 1.256 . S
O174 Cd166 2.381 . S
O174 C173 1.258 . S
O175 Cd166 2.378 . S
O175 C173 1.256 . S
O176 Cd177 2.300 . S
O176 C183 1.275 . S
Cd177 O176 2.300 . S
Cd177 O185 2.381 . S
Cd177 O186 2.378 . S
O178 Cd179 2.385 . S
O178 C183 1.255 . S
Cd179 O178 2.385 . S
Cd179 O180 2.317 . S
O180 Cd179 2.317 . S
O180 C181 1.232 . S
C181 O180 1.232 . S
C181 O182 1.218 . S
O182 C181 1.218 . S
C183 O176 1.275 . S
C183 O178 1.255 . S
C184 O185 1.258 . S
C184 O186 1.256 . S
O185 Cd177 2.381 . S
O185 C184 1.258 . S
O186 Cd177 2.378 . S
O186 C184 1.256 . S
O187 Cd188 2.300 . S
O187 C194 1.275 . S
Cd188 O187 2.300 . S
Cd188 O196 2.381 . S
Cd188 O197 2.378 . S
O189 Cd190 2.385 . S
O189 C194 1.255 . S
Cd190 O189 2.385 . S
Cd190 O191 2.317 . S
O191 Cd190 2.317 . S
O191 C192 1.232 . S
C192 O191 1.232 . S
C192 O193 1.218 . S
O193 C192 1.218 . S
C194 O187 1.275 . S
C194 O189 1.255 . S
C195 O196 1.258 . S
C195 O197 1.256 . S
O196 Cd188 2.381 . S
O196 C195 1.258 . S
O197 Cd188 2.378 . S
O197 C195 1.256 . S
O198 Cd199 2.300 . S
O198 C205 1.275 . S
Cd199 O198 2.300 . S
Cd199 O207 2.381 . S
Cd199 O208 2.378 . S
O200 Cd201 2.385 . S
O200 C205 1.255 . S
Cd201 O200 2.385 . S
Cd201 O202 2.317 . S
O202 Cd201 2.317 . S
O202 C203 1.232 . S
C203 O202 1.232 . S
C203 O204 1.218 . S
O204 C203 1.218 . S
C205 O198 1.275 . S
C205 O200 1.255 . S
C206 O207 1.258 . S
C206 O208 1.256 . S
O207 Cd199 2.381 . S
O207 C206 1.258 . S
O208 Cd199 2.378 . S
O208 C206 1.256 . S
O209 Cd210 2.300 . S
O209 C216 1.275 . S
Cd210 O209 2.300 . S
Cd210 O218 2.381 . S
Cd210 O219 2.378 . S
O211 Cd212 2.385 . S
O211 C216 1.255 . S
Cd212 O211 2.385 . S
Cd212 O213 2.317 . S
O213 Cd212 2.317 . S
O213 C214 1.232 . S
C214 O213 1.232 . S
C214 O215 1.218 . S
O215 C214 1.218 . S
C216 O209 1.275 . S
C216 O211 1.255 . S
C217 O218 1.258 . S
C217 O219 1.256 . S
O218 Cd210 2.381 . S
O218 C217 1.258 . S
O219 Cd210 2.378 . S
O219 C217 1.256 . S
O220 Cd221 2.300 . S
O220 C227 1.275 . S
Cd221 O220 2.300 . S
Cd221 O229 2.381 . S
Cd221 O230 2.378 . S
O222 Cd223 2.385 . S
O222 C227 1.255 . S
Cd223 O222 2.385 . S
Cd223 O224 2.317 . S
O224 Cd223 2.317 . S
O224 C225 1.232 . S
C225 O224 1.232 . S
C225 O226 1.218 . S
O226 C225 1.218 . S
C227 O220 1.275 . S
C227 O222 1.255 . S
C228 O229 1.258 . S
C228 O230 1.256 . S
O229 Cd221 2.381 . S
O229 C228 1.258 . S
O230 Cd221 2.378 . S
O230 C228 1.256 . S
O231 Cd232 2.300 . S
O231 C238 1.275 . S
Cd232 O231 2.300 . S
Cd232 O240 2.381 . S
Cd232 O241 2.378 . S
O233 Cd234 2.385 . S
O233 C238 1.255 . S
Cd234 O233 2.385 . S
Cd234 O235 2.317 . S
O235 Cd234 2.317 . S
O235 C236 1.232 . S
C236 O235 1.232 . S
C236 O237 1.218 . S
O237 C236 1.218 . S
C238 O231 1.275 . S
C238 O233 1.255 . S
C239 O240 1.258 . S
C239 O241 1.256 . S
O240 Cd232 2.381 . S
O240 C239 1.258 . S
O241 Cd232 2.378 . S
O241 C239 1.256 . S
O242 Cd243 2.300 . S
O242 C249 1.275 . S
Cd243 O242 2.300 . S
Cd243 O251 2.381 . S
Cd243 O252 2.378 . S
O244 Cd245 2.385 . S
O244 C249 1.255 . S
Cd245 O244 2.385 . S
Cd245 O246 2.317 . S
O246 Cd245 2.317 . S
O246 C247 1.232 . S
C247 O246 1.232 . S
C247 O248 1.218 . S
O248 C247 1.218 . S
C249 O242 1.275 . S
C249 O244 1.255 . S
C250 O251 1.258 . S
C250 O252 1.256 . S
O251 Cd243 2.381 . S
O251 C250 1.258 . S
O252 Cd243 2.378 . S
O252 C250 1.256 . S
O253 Cd254 2.300 . S
O253 C260 1.275 . S
Cd254 O253 2.300 . S
Cd254 O262 2.381 . S
Cd254 O263 2.378 . S
O255 Cd256 2.385 . S
O255 C260 1.255 . S
Cd256 O255 2.385 . S
Cd256 O257 2.317 . S
O257 Cd256 2.317 . S
O257 C258 1.232 . S
C258 O257 1.232 . S
C258 O259 1.218 . S
O259 C258 1.218 . S
C260 O253 1.275 . S
C260 O255 1.255 . S
C261 O262 1.258 . S
C261 O263 1.256 . S
O262 Cd254 2.381 . S
O262 C261 1.258 . S
O263 Cd254 2.378 . S
O263 C261 1.256 . S
O264 Cd265 2.300 . S
O264 C271 1.275 . S
Cd265 O264 2.300 . S
Cd265 O273 2.381 . S
Cd265 O274 2.378 . S
O266 Cd267 2.385 . S
O266 C271 1.255 . S
Cd267 O266 2.385 . S
Cd267 O268 2.317 . S
O268 Cd267 2.317 . S
O268 C269 1.232 . S
C269 O268 1.232 . S
C269 O270 1.218 . S
O270 C269 1.218 . S
C271 O264 1.275 . S
C271 O266 1.255 . S
C272 O273 1.258 . S
C272 O274 1.256 . S
O273 Cd265 2.381 . S
O273 C272 1.258 . S
O274 Cd265 2.378 . S
O274 C272 1.256 . S
O275 Cd276 2.300 . S
O275 C282 1.275 . S
Cd276 O275 2.300 . S
Cd276 O284 2.381 . S
Cd276 O285 2.378 . S
O277 Cd278 2.385 . S
O277 C282 1.255 . S
Cd278 O277 2.385 . S
Cd278 O279 2.317 . S
O279 Cd278 2.317 . S
O279 C280 1.232 . S
C280 O279 1.232 . S
C280 O281 1.218 . S
O281 C280 1.218 . S
C282 O275 1.275 . S
C282 O277 1.255 . S
C283 O284 1.258 . S
C283 O285 1.256 . S
O284 Cd276 2.381 . S
O284 C283 1.258 . S
O285 Cd276 2.378 . S
O285 C283 1.256 . S
O286 Cd287 2.300 . S
O286 C293 1.275 . S
Cd287 O286 2.300 . S
Cd287 O295 2.381 . S
Cd287 O296 2.378 . S
O288 Cd289 2.385 . S
O288 C293 1.255 . S
Cd289 O288 2.385 . S
Cd289 O290 2.317 . S
O290 Cd289 2.317 . S
O290 C291 1.232 . S
C291 O290 1.232 . S
C291 O292 1.218 . S
O292 C291 1.218 . S
C293 O286 1.275 . S
C293 O288 1.255 . S
C294 O295 1.258 . S
C294 O296 1.256 . S
O295 Cd287 2.381 . S
O295 C294 1.258 . S
O296 Cd287 2.378 . S
O296 C294 1.256 . S
O297 Cd298 2.300 . S
O297 C304 1.275 . S
Cd298 O297 2.300 . S
Cd298 O306 2.381 . S
Cd298 O307 2.378 . S
O299 Cd300 2.385 . S
O299 C304 1.255 . S
Cd300 O299 2.385 . S
Cd300 O301 2.317 . S
O301 Cd300 2.317 . S
O301 C302 1.232 . S
C302 O301 1.232 . S
C302 O303 1.218 . S
O303 C302 1.218 . S
C304 O297 1.275 . S
C304 O299 1.255 . S
C305 O306 1.258 . S
C305 O307 1.256 . S
O306 Cd298 2.381 . S
O306 C305 1.258 . S
O307 Cd298 2.378 . S
O307 C305 1.256 . S
O308 Cd309 2.300 . S
O308 C315 1.275 . S
Cd309 O308 2.300 . S
Cd309 O317 2.381 . S
Cd309 O318 2.378 . S
O310 Cd311 2.385 . S
O310 C315 1.255 . S
Cd311 O310 2.385 . S
Cd311 O312 2.317 . S
O312 Cd311 2.317 . S
O312 C313 1.232 . S
C313 O312 1.232 . S
C313 O314 1.218 . S
O314 C313 1.218 . S
C315 O308 1.275 . S
C315 O310 1.255 . S
C316 O317 1.258 . S
C316 O318 1.256 . S
O317 Cd309 2.381 . S
O317 C316 1.258 . S
O318 Cd309 2.378 . S
O318 C316 1.256 . S
O319 Cd320 2.300 . S
O319 C326 1.275 . S
Cd320 O319 2.300 . S
Cd320 O328 2.381 . S
Cd320 O329 2.378 . S
O321 Cd322 2.385 . S
O321 C326 1.255 . S
Cd322 O321 2.385 . S
Cd322 O323 2.317 . S
O323 Cd322 2.317 . S
O323 C324 1.232 . S
C324 O323 1.232 . S
C324 O325 1.218 . S
O325 C324 1.218 . S
C326 O319 1.275 . S
C326 O321 1.255 . S
C327 O328 1.258 . S
C327 O329 1.256 . S
O328 Cd320 2.381 . S
O328 C327 1.258 . S
O329 Cd320 2.378 . S
O329 C327 1.256 . S
O330 Cd331 2.300 . S
O330 C337 1.275 . S
Cd331 O330 2.300 . S
Cd331 O339 2.381 . S
Cd331 O340 2.378 . S
O332 Cd333 2.385 . S
O332 C337 1.255 . S
Cd333 O332 2.385 . S
Cd333 O334 2.317 . S
O334 Cd333 2.317 . S
O334 C335 1.232 . S
C335 O334 1.232 . S
C335 O336 1.218 . S
O336 C335 1.218 . S
C337 O330 1.275 . S
C337 O332 1.255 . S
C338 O339 1.258 . S
C338 O340 1.256 . S
O339 Cd331 2.381 . S
O339 C338 1.258 . S
O340 Cd331 2.378 . S
O340 C338 1.256 . S
O341 Cd342 2.300 . S
O341 C348 1.275 . S
Cd342 O341 2.300 . S
Cd342 O350 2.381 . S
Cd342 O351 2.378 . S
O343 Cd344 2.385 . S
O343 C348 1.255 . S
Cd344 O343 2.385 . S
Cd344 O345 2.317 . S
O345 Cd344 2.317 . S
O345 C346 1.232 . S
C346 O345 1.232 . S
C346 O347 1.218 . S
O347 C346 1.218 . S
C348 O341 1.275 . S
C348 O343 1.255 . S
C349 O350 1.258 . S
C349 O351 1.256 . S
O350 Cd342 2.381 . S
O350 C349 1.258 . S
O351 Cd342 2.378 . S
O351 C349 1.256 . S
O352 Cd353 2.300 . S
O352 C359 1.275 . S
Cd353 O352 2.300 . S
Cd353 O361 2.381 . S
Cd353 O362 2.378 . S
O354 Cd355 2.385 . S
O354 C359 1.255 . S
Cd355 O354 2.385 . S
Cd355 O356 2.317 . S
O356 Cd355 2.317 . S
O356 C357 1.232 . S
C357 O356 1.232 . S
C357 O358 1.218 . S
O358 C357 1.218 . S
C359 O352 1.275 . S
C359 O354 1.255 . S
C360 O361 1.258 . S
C360 O362 1.256 . S
O361 Cd353 2.381 . S
O361 C360 1.258 . S
O362 Cd353 2.378 . S
O362 C360 1.256 . S
O363 Cd364 2.300 . S
O363 C370 1.275 . S
Cd364 O363 2.300 . S
Cd364 O372 2.381 . S
Cd364 O373 2.378 . S
O365 Cd366 2.385 . S
O365 C370 1.255 . S
Cd366 O365 2.385 . S
Cd366 O367 2.317 . S
O367 Cd366 2.317 . S
O367 C368 1.232 . S
C368 O367 1.232 . S
C368 O369 1.218 . S
O369 C368 1.218 . S
C370 O363 1.275 . S
C370 O365 1.255 . S
C371 O372 1.258 . S
C371 O373 1.256 . S
O372 Cd364 2.381 . S
O372 C371 1.258 . S
O373 Cd364 2.378 . S
O373 C371 1.256 . S
O374 Cd375 2.300 . S
O374 C381 1.275 . S
Cd375 O374 2.300 . S
Cd375 O383 2.381 . S
Cd375 O384 2.378 . S
O376 Cd377 2.385 . S
O376 C381 1.255 . S
Cd377 O376 2.385 . S
Cd377 O378 2.317 . S
O378 Cd377 2.317 . S
O378 C379 1.232 . S
C379 O378 1.232 . S
C379 O380 1.218 . S
O380 C379 1.218 . S
C381 O374 1.275 . S
C381 O376 1.255 . S
C382 O383 1.258 . S
C382 O384 1.256 . S
O383 Cd375 2.381 . S
O383 C382 1.258 . S
O384 Cd375 2.378 . S
O384 C382 1.256 . S
O385 Cd386 2.300 . S
O385 C392 1.275 . S
Cd386 O385 2.300 . S
Cd386 O394 2.381 . S
Cd386 O395 2.378 . S
O387 Cd388 2.385 . S
O387 C392 1.255 . S
Cd388 O387 2.385 . S
Cd388 O389 2.317 . S
O389 Cd388 2.317 . S
O389 C390 1.232 . S
C390 O389 1.232 . S
C390 O391 1.218 . S
O391 C390 1.218 . S
C392 O385 1.275 . S
C392 O387 1.255 . S
C393 O394 1.258 . S
C393 O395 1.256 . S
O394 Cd386 2.381 . S
O394 C393 1.258 . S
O395 Cd386 2.378 . S
O395 C393 1.256 . S
O396 Cd397 2.300 . S
O396 C403 1.275 . S
Cd397 O396 2.300 . S
Cd397 O405 2.381 . S
Cd397 O406 2.378 . S
O398 Cd399 2.385 . S
O398 C403 1.255 . S
Cd399 O398 2.385 . S
Cd399 O400 2.317 . S
O400 Cd399 2.317 . S
O400 C401 1.232 . S
C401 O400 1.232 . S
C401 O402 1.218 . S
O402 C401 1.218 . S
C403 O396 1.275 . S
C403 O398 1.255 . S
C404 O405 1.258 . S
C404 O406 1.256 . S
O405 Cd397 2.381 . S
O405 C404 1.258 . S
O406 Cd397 2.378 . S
O406 C404 1.256 . S
O407 Cd408 2.300 . S
O407 C414 1.275 . S
Cd408 O407 2.300 . S
Cd408 O416 2.381 . S
Cd408 O417 2.378 . S
O409 Cd410 2.385 . S
O409 C414 1.255 . S
Cd410 O409 2.385 . S
Cd410 O411 2.317 . S
O411 Cd410 2.317 . S
O411 C412 1.232 . S
C412 O411 1.232 . S
C412 O413 1.218 . S
O413 C412 1.218 . S
C414 O407 1.275 . S
C414 O409 1.255 . S
C415 O416 1.258 . S
C415 O417 1.256 . S
O416 Cd408 2.381 . S
O416 C415 1.258 . S
O417 Cd408 2.378 . S
O417 C415 1.256 . S
O418 Cd419 2.300 . S
O418 C425 1.275 . S
Cd419 O418 2.300 . S
Cd419 O427 2.381 . S
Cd419 O428 2.378 . S
O420 Cd421 2.385 . S
O420 C425 1.255 . S
Cd421 O420 2.385 . S
Cd421 O422 2.317 . S
O422 Cd421 2.317 . S
O422 C423 1.232 . S
C423 O422 1.232 . S
C423 O424 1.218 . S
O424 C423 1.218 . S
C425 O418 1.275 . S
C425 O420 1.255 . S
C426 O427 1.258 . S
C426 O428 1.256 . S
O427 Cd419 2.381 . S
O427 C426 1.258 . S
O428 Cd419 2.378 . S
O428 C426 1.256 . S
O429 Cd430 2.300 . S
O429 C436 1.275 . S
Cd430 O429 2.300 . S
Cd430 O438 2.381 . S
Cd430 O439 2.378 . S
O431 Cd432 2.385 . S
O431 C436 1.255 . S
Cd432 O431 2.385 . S
Cd432 O433 2.317 . S
O433 Cd432 2.317 . S
O433 C434 1.232 . S
C434 O433 1.232 . S
C434 O435 1.218 . S
O435 C434 1.218 . S
C436 O429 1.275 . S
C436 O431 1.255 . S
C437 O438 1.258 . S
C437 O439 1.256 . S
O438 Cd430 2.381 . S
O438 C437 1.258 . S
O439 Cd430 2.378 . S
O439 C437 1.256 . S
O440 Cd441 2.300 . S
O440 C447 1.275 . S
Cd441 O440 2.300 . S
Cd441 O449 2.381 . S
Cd441 O450 2.378 . S
O442 Cd443 2.385 . S
O442 C447 1.255 . S
Cd443 O442 2.385 . S
Cd443 O444 2.317 . S
O444 Cd443 2.317 . S
O444 C445 1.232 . S
C445 O444 1.232 . S
C445 O446 1.218 . S
O446 C445 1.218 . S
C447 O440 1.275 . S
C447 O442 1.255 . S
C448 O449 1.258 . S
C448 O450 1.256 . S
O449 Cd441 2.381 . S
O449 C448 1.258 . S
O450 Cd441 2.378 . S
O450 C448 1.256 . S
O451 Cd452 2.300 . S
O451 C458 1.275 . S
Cd452 O451 2.300 . S
Cd452 O460 2.381 . S
Cd452 O461 2.378 . S
O453 Cd454 2.385 . S
O453 C458 1.255 . S
Cd454 O453 2.385 . S
Cd454 O455 2.317 . S
O455 Cd454 2.317 . S
O455 C456 1.232 . S
C456 O455 1.232 . S
C456 O457 1.218 . S
O457 C456 1.218 . S
C458 O451 1.275 . S
C458 O453 1.255 . S
C459 O460 1.258 . S
C459 O461 1.256 . S
O460 Cd452 2.381 . S
O460 C459 1.258 . S
O461 Cd452 2.378 . S
O461 C459 1.256 . S
O462 Cd463 2.300 . S
O462 C469 1.275 . S
Cd463 O462 2.300 . S
Cd463 O471 2.381 . S
Cd463 O472 2.378 . S
O464 Cd465 2.385 . S
O464 C469 1.255 . S
Cd465 O464 2.385 . S
Cd465 O466 2.317 . S
O466 Cd465 2.317 . S
O466 C467 1.232 . S
C467 O466 1.232 . S
C467 O468 1.218 . S
O468 C467 1.218 . S
C469 O462 1.275 . S
C469 O464 1.255 . S
C470 O471 1.258 . S
C470 O472 1.256 . S
O471 Cd463 2.381 . S
O471 C470 1.258 . S
O472 Cd463 2.378 . S
O472 C470 1.256 . S
O473 Cd474 2.300 . S
O473 C480 1.275 . S
Cd474 O473 2.300 . S
Cd474 O482 2.381 . S
Cd474 O483 2.378 . S
O475 Cd476 2.385 . S
O475 C480 1.255 . S
Cd476 O475 2.385 . S
Cd476 O477 2.317 . S
O477 Cd476 2.317 . S
O477 C478 1.232 . S
C478 O477 1.232 . S
C478 O479 1.218 . S
O479 C478 1.218 . S
C480 O473 1.275 . S
C480 O475 1.255 . S
C481 O482 1.258 . S
C481 O483 1.256 . S
O482 Cd474 2.381 . S
O482 C481 1.258 . S
O483 Cd474 2.378 . S
O483 C481 1.256 . S
O484 Cd485 2.300 . S
O484 C491 1.275 . S
Cd485 O484 2.300 . S
Cd485 O493 2.381 . S
Cd485 O494 2.378 . S
O486 Cd487 2.385 . S
O486 C491 1.255 . S
Cd487 O486 2.385 . S
Cd487 O488 2.317 . S
O488 Cd487 2.317 . S
O488 C489 1.232 . S
C489 O488 1.232 . S
C489 O490 1.218 . S
O490 C489 1.218 . S
C491 O484 1.275 . S
C491 O486 1.255 . S
C492 O493 1.258 . S
C492 O494 1.256 . S
O493 Cd485 2.381 . S
O493 C492 1.258 . S
O494 Cd485 2.378 . S
O494 C492 1.256 . S
O495 Cd496 2.300 . S
O495 C502 1.275 . S
Cd496 O495 2.300 . S
Cd496 O504 2.381 . S
Cd496 O505 2.378 . S
O497 Cd498 2.385 . S
O497 C502 1.255 . S
Cd498 O497 2.385 . S
Cd498 O499 2.317 . S
O499 Cd498 2.317 . S
O499 C500 1.232 . S
C500 O499 1.232 . S
C500 O501 1.218 . S
O501 C500 1.218 . S
C502 O495 1.275 . S
C502 O497 1.255 . S
C503 O504 1.258 . S
C503 O505 1.256 . S
O504 Cd496 2.381 . S
O504 C503 1.258 . S
O505 Cd496 2.378 . S
O505 C503 1.256 . S
O506 Cd507 2.300 . S
O506 C513 1.275 . S
Cd507 O506 2.300 . S
Cd507 O515 2.381 . S
Cd507 O516 2.378 . S
O508 Cd509 2.385 . S
O508 C513 1.255 . S
Cd509 O508 2.385 . S
Cd509 O510 2.317 . S
O510 Cd509 2.317 . S
O510 C511 1.232 . S
C511 O510 1.232 . S
C511 O512 1.218 . S
O512 C511 1.218 . S
C513 O506 1.275 . S
C513 O508 1.255 . S
C514 O515 1.258 . S
C514 O516 1.256 . S
O515 Cd507 2.381 . S
O515 C514 1.258 . S
O516 Cd507 2.378 . S
O516 C514 1.256 . S
O517 Cd518 2.300 . S
O517 C524 1.275 . S
Cd518 O517 2.300 . S
Cd518 O526 2.381 . S
Cd518 O527 2.378 . S
O519 Cd520 2.385 . S
O519 C524 1.255 . S
Cd520 O519 2.385 . S
Cd520 O521 2.317 . S
O521 Cd520 2.317 . S
O521 C522 1.232 . S
C522 O521 1.232 . S
C522 O523 1.218 . S
O523 C522 1.218 . S
C524 O517 1.275 . S
C524 O519 1.255 . S
C525 O526 1.258 . S
C525 O527 1.256 . S
O526 Cd518 2.381 . S
O526 C525 1.258 . S
O527 Cd518 2.378 . S
O527 C525 1.256 . S
C528 C529 1.391 . S
C528 C530 1.394 . S
C528 H544 0.931 . S
C529 C528 1.391 . S
C529 C533 1.376 . S
C530 C528 1.394 . S
C530 C531 1.369 . S
C530 C534 1.531 1_655 S
C531 C530 1.369 . S
C531 C532 1.410 . S
C531 C539 1.503 1_655 S
C532 C531 1.410 . S
C532 C533 1.392 . S
C532 C535 1.511 . S
C533 C529 1.376 . S
C533 C532 1.392 . S
C533 H545 0.929 . S
C534 C530 1.531 1_455 S
C534 H546 0.960 . S
C534 H547 0.962 . S
C534 H548 0.960 . S
C535 C532 1.511 . S
C535 H549 0.961 . S
C535 H550 0.961 . S
C535 H551 0.961 . S
C536 C537 1.370 . S
C536 C538 1.363 . S
C536 H552 0.931 . S
C537 C536 1.370 . S
C537 C541 1.408 . S
C538 C536 1.363 . S
C538 C539 1.370 . S
C538 C542 1.571 . S
C539 C531 1.503 1_455 S
C539 C538 1.370 . S
C539 C540 1.403 . S
C540 C539 1.403 . S
C540 C541 1.404 . S
C540 C543 1.539 . S
C541 C537 1.408 . S
C541 C540 1.404 . S
C541 H553 0.930 . S
C542 C538 1.571 . S
C542 H554 0.963 . S
C542 H555 0.887 1_455 S
C542 H556 0.988 . S
C543 C540 1.539 . S
C543 H557 0.958 . S
C543 H558 0.961 . S
C543 H559 0.960 . S
H544 C528 0.931 . S
H545 C533 0.929 . S
H546 C534 0.960 . S
H547 C534 0.962 . S
H548 C534 0.960 . S
H549 C535 0.961 . S
H550 C535 0.961 . S
H551 C535 0.961 . S
H552 C536 0.931 . S
H553 C541 0.930 . S
H554 C542 0.963 . S
H555 C542 0.887 1_655 S
H556 C542 0.988 . S
H557 C543 0.958 . S
H558 C543 0.961 . S
H559 C543 0.960 . S
C560 C561 1.391 . S
C560 C562 1.394 . S
C560 H576 0.931 . S
C561 C560 1.391 . S
C561 C565 1.376 . S
C562 C560 1.394 . S
C562 C563 1.369 . S
C562 C566 1.531 . S
C563 C562 1.369 . S
C563 C564 1.410 . S
C563 C571 1.503 1_545 S
C564 C563 1.410 . S
C564 C565 1.392 . S
C564 C567 1.511 1_545 S
C565 C561 1.376 . S
C565 C564 1.392 . S
C565 H577 0.929 . S
C566 C562 1.531 . S
C566 H578 0.960 . S
C566 H579 0.962 . S
C566 H580 0.960 . S
C567 C564 1.511 1_565 S
C567 H581 0.961 . S
C567 H582 0.961 . S
C567 H583 0.961 . S
C568 C569 1.370 . S
C568 C570 1.363 . S
C568 H584 0.931 . S
C569 C568 1.370 . S
C569 C573 1.408 . S
C570 C568 1.363 . S
C570 C571 1.370 . S
C570 C574 1.524 1_565 S
C571 C563 1.503 1_565 S
C571 C570 1.370 . S
C571 C572 1.403 . S
C572 C571 1.403 . S
C572 C573 1.404 . S
C572 C575 1.539 . S
C573 C569 1.408 . S
C573 C572 1.404 . S
C573 H585 0.930 . S
C574 C570 1.524 1_545 S
C574 H586 0.956 . S
C574 H587 0.961 . S
C574 H588 0.961 . S
C575 C572 1.539 . S
C575 H589 0.958 . S
C575 H590 0.961 . S
C575 H591 0.960 . S
H576 C560 0.931 . S
H577 C565 0.929 . S
H578 C566 0.960 . S
H579 C566 0.962 . S
H580 C566 0.960 . S
H581 C567 0.961 . S
H582 C567 0.961 . S
H583 C567 0.961 . S
H584 C568 0.931 . S
H585 C573 0.930 . S
H586 C574 0.956 . S
H587 C574 0.961 . S
H588 C574 0.961 . S
H589 C575 0.958 . S
H590 C575 0.961 . S
H591 C575 0.960 . S
C592 C593 1.391 . S
C592 C594 1.394 . S
C592 H608 0.931 . S
C593 C592 1.391 . S
C593 C597 1.376 . S
C594 C592 1.394 . S
C594 C595 1.369 . S
C594 C598 1.531 . S
C595 C594 1.369 . S
C595 C596 1.410 . S
C595 C603 1.503 1_655 S
C596 C595 1.410 . S
C596 C597 1.392 . S
C596 C599 1.511 1_655 S
C597 C593 1.376 . S
C597 C596 1.392 . S
C597 H609 0.929 . S
C598 C594 1.531 . S
C598 H610 0.960 . S
C598 H611 0.962 . S
C598 H612 0.960 . S
C599 C596 1.511 1_455 S
C599 H613 0.961 . S
C599 H614 0.961 . S
C599 H615 0.961 . S
C600 C601 1.370 . S
C600 C602 1.363 . S
C600 H616 0.931 . S
C601 C600 1.370 . S
C601 C605 1.408 . S
C602 C600 1.363 . S
C602 C603 1.370 . S
C602 C606 1.485 1_455 S
C603 C595 1.503 1_455 S
C603 C602 1.370 . S
C603 C604 1.403 . S
C604 C603 1.403 . S
C604 C605 1.404 . S
C604 C607 1.539 . S
C605 C601 1.408 . S
C605 C604 1.404 . S
C605 H617 0.930 . S
C606 C602 1.485 1_655 S
C606 H618 1.012 . S
C606 H619 0.970 . S
C606 H620 0.939 1_655 S
C607 C604 1.539 . S
C607 H621 0.958 . S
C607 H622 0.961 . S
C607 H623 0.960 . S
H608 C592 0.931 . S
H609 C597 0.929 . S
H610 C598 0.960 . S
H611 C598 0.962 . S
H612 C598 0.960 . S
H613 C599 0.961 . S
H614 C599 0.961 . S
H615 C599 0.961 . S
H616 C600 0.931 . S
H617 C605 0.930 . S
H618 C606 1.012 . S
H619 C606 0.970 . S
H620 C606 0.939 1_455 S
H621 C607 0.958 . S
H622 C607 0.961 . S
H623 C607 0.960 . S
C624 C625 1.391 . S
C624 C626 1.394 . S
C624 H640 0.931 . S
C625 C624 1.391 . S
C625 C629 1.376 . S
C626 C624 1.394 . S
C626 C627 1.369 . S
C626 C630 1.531 1_545 S
C627 C626 1.369 . S
C627 C628 1.410 . S
C627 C635 1.503 1_545 S
C628 C627 1.410 . S
C628 C629 1.392 . S
C628 C631 1.511 . S
C629 C625 1.376 . S
C629 C628 1.392 . S
C629 H641 0.929 . S
C630 C626 1.531 1_565 S
C630 H642 0.960 . S
C630 H643 0.962 . S
C630 H644 0.960 . S
C631 C628 1.511 . S
C631 H645 0.961 . S
C631 H646 0.961 . S
C631 H647 0.961 . S
C632 C633 1.370 . S
C632 C634 1.363 . S
C632 H648 0.931 . S
C633 C632 1.370 . S
C633 C637 1.408 . S
C634 C632 1.363 . S
C634 C635 1.370 . S
C634 C638 1.524 . S
C635 C627 1.503 1_565 S
C635 C634 1.370 . S
C635 C636 1.403 . S
C636 C635 1.403 . S
C636 C637 1.404 . S
C636 C639 1.539 . S
C637 C633 1.408 . S
C637 C636 1.404 . S
C637 H649 0.930 . S
C638 C634 1.524 . S
C638 H650 0.956 . S
C638 H651 0.955 1_565 S
C638 H652 0.961 . S
C639 C636 1.539 . S
C639 H653 0.958 . S
C639 H654 0.961 . S
C639 H655 0.960 1_565 S
H640 C624 0.931 . S
H641 C629 0.929 . S
H642 C630 0.960 . S
H643 C630 0.962 . S
H644 C630 0.960 . S
H645 C631 0.961 . S
H646 C631 0.961 . S
H647 C631 0.961 . S
H648 C632 0.931 . S
H649 C637 0.930 . S
H650 C638 0.956 . S
H651 C638 0.955 1_545 S
H652 C638 0.961 . S
H653 C639 0.958 . S
H654 C639 0.961 . S
H655 C639 0.960 1_545 S
C656 C657 1.391 . S
C656 C658 1.394 . S
C656 H672 0.931 . S
C657 C656 1.391 . S
C657 C661 1.376 . S
C658 C656 1.394 . S
C658 C659 1.369 . S
C658 C662 1.531 . S
C659 C658 1.369 . S
C659 C660 1.410 . S
C659 C667 1.503 1_565 S
C660 C659 1.410 . S
C660 C661 1.392 . S
C660 C663 1.511 1_565 S
C661 C657 1.376 . S
C661 C660 1.392 . S
C661 H673 0.929 . S
C662 C658 1.531 . S
C662 H674 0.960 . S
C662 H675 0.962 . S
C662 H676 0.960 . S
C663 C660 1.511 1_545 S
C663 H677 0.961 . S
C663 H678 0.961 . S
C663 H679 0.964 . S
C664 C665 1.370 . S
C664 C666 1.363 . S
C664 H680 0.931 . S
C665 C664 1.370 . S
C665 C669 1.408 . S
C666 C664 1.363 . S
C666 C667 1.370 . S
C666 C670 1.524 . S
C667 C659 1.503 1_545 S
C667 C666 1.370 . S
C667 C668 1.403 . S
C668 C667 1.403 . S
C668 C669 1.404 . S
C668 C671 1.539 1_545 S
C669 C665 1.408 . S
C669 C668 1.404 . S
C669 H681 0.930 . S
C670 C666 1.524 . S
C670 H682 0.956 . S
C670 H683 0.961 . S
C670 H684 0.961 . S
C671 C668 1.539 1_565 S
C671 H685 0.958 . S
C671 H686 0.976 . S
C671 H687 0.960 . S
H672 C656 0.931 . S
H673 C661 0.929 . S
H674 C662 0.960 . S
H675 C662 0.962 . S
H676 C662 0.960 . S
H677 C663 0.961 . S
H678 C663 0.961 . S
H679 C663 0.964 . S
H680 C664 0.931 . S
H681 C669 0.930 . S
H682 C670 0.956 . S
H683 C670 0.961 . S
H684 C670 0.961 . S
H685 C671 0.958 . S
H686 C671 0.976 . S
H687 C671 0.960 . S
C688 C689 1.391 . S
C688 C690 1.394 . S
C688 H704 0.931 . S
C689 C688 1.391 . S
C689 C693 1.376 . S
C690 C688 1.394 . S
C690 C691 1.369 . S
C690 C694 1.531 1_455 S
C691 C690 1.369 . S
C691 C692 1.410 . S
C691 C699 1.503 1_455 S
C692 C691 1.410 . S
C692 C693 1.392 . S
C692 C695 1.511 . S
C693 C689 1.376 . S
C693 C692 1.392 . S
C693 H705 0.929 . S
C694 C690 1.531 1_655 S
C694 H706 0.960 . S
C694 H707 0.962 . S
C694 H708 0.960 . S
C695 C692 1.511 . S
C695 H709 0.961 . S
C695 H710 0.961 . S
C695 H711 0.961 . S
C696 C697 1.370 . S
C696 C698 1.363 . S
C696 H712 0.931 . S
C697 C696 1.370 . S
C697 C701 1.408 . S
C698 C696 1.363 . S
C698 C699 1.370 . S
C698 C702 1.524 1_655 S
C699 C691 1.503 1_655 S
C699 C698 1.370 . S
C699 C700 1.403 . S
C700 C699 1.403 . S
C700 C701 1.404 . S
C700 C703 1.539 . S
C701 C697 1.408 . S
C701 C700 1.404 . S
C701 H713 0.930 . S
C702 C698 1.524 1_455 S
C702 H714 0.956 . S
C702 H715 0.961 . S
C702 H716 0.961 . S
C703 C700 1.539 . S
C703 H717 0.958 . S
C703 H718 0.961 . S
C703 H719 0.960 . S
H704 C688 0.931 . S
H705 C693 0.929 . S
H706 C694 0.960 . S
H707 C694 0.962 . S
H708 C694 0.960 . S
H709 C695 0.961 . S
H710 C695 0.961 . S
H711 C695 0.961 . S
H712 C696 0.931 . S
H713 C701 0.930 . S
H714 C702 0.956 . S
H715 C702 0.961 . S
H716 C702 0.961 . S
H717 C703 0.958 . S
H718 C703 0.961 . S
H719 C703 0.960 . S
C720 C721 1.391 . S
C720 C722 1.394 . S
C720 H736 0.931 . S
C721 C720 1.391 . S
C721 C725 1.376 . S
C722 C720 1.394 . S
C722 C723 1.369 . S
C722 C726 1.531 . S
C723 C722 1.369 . S
C723 C724 1.410 . S
C723 C731 1.503 1_565 S
C724 C723 1.410 . S
C724 C725 1.392 . S
C724 C727 1.511 1_565 S
C725 C721 1.376 . S
C725 C724 1.392 . S
C725 H737 0.929 . S
C726 C722 1.531 . S
C726 H738 0.960 . S
C726 H739 0.962 . S
C726 H740 0.960 . S
C727 C724 1.511 1_545 S
C727 H741 0.961 . S
C727 H742 0.961 . S
C727 H743 0.961 . S
C728 C729 1.370 . S
C728 C730 1.363 . S
C728 H744 0.931 . S
C729 C728 1.370 . S
C729 C733 1.408 . S
C730 C728 1.363 . S
C730 C731 1.370 . S
C730 C734 1.524 . S
C731 C723 1.503 1_545 S
C731 C730 1.370 . S
C731 C732 1.403 . S
C732 C731 1.403 . S
C732 C733 1.404 . S
C732 C735 1.539 1_545 S
C733 C729 1.408 . S
C733 C732 1.404 . S
C733 H745 0.930 . S
C734 C730 1.524 . S
C734 H746 0.956 . S
C734 H747 0.961 . S
C734 H748 0.961 . S
C735 C732 1.539 1_565 S
C735 H749 0.958 . S
C735 H750 0.937 1_565 S
C735 H751 0.960 . S
H736 C720 0.931 . S
H737 C725 0.929 . S
H738 C726 0.960 . S
H739 C726 0.962 . S
H740 C726 0.960 . S
H741 C727 0.961 . S
H742 C727 0.961 . S
H743 C727 0.961 . S
H744 C728 0.931 . S
H745 C733 0.930 . S
H746 C734 0.956 . S
H747 C734 0.961 . S
H748 C734 0.961 . S
H749 C735 0.958 . S
H750 C735 0.937 1_545 S
H751 C735 0.960 . S
C752 C753 1.391 . S
C752 C754 1.394 . S
C752 H768 0.931 . S
C753 C752 1.391 . S
C753 C757 1.376 . S
C754 C752 1.394 . S
C754 C755 1.369 . S
C754 C758 1.531 1_455 S
C755 C754 1.369 . S
C755 C756 1.410 . S
C755 C763 1.503 1_455 S
C756 C755 1.410 . S
C756 C757 1.392 . S
C756 C759 1.511 . S
C757 C753 1.376 . S
C757 C756 1.392 . S
C757 H769 0.929 . S
C758 C754 1.531 1_655 S
C758 H770 0.960 . S
C758 H771 0.962 . S
C758 H772 0.960 . S
C759 C756 1.511 . S
C759 H773 0.961 . S
C759 H774 0.961 . S
C759 H775 0.961 . S
C760 C761 1.370 . S
C760 C762 1.363 . S
C760 H776 0.931 . S
C761 C760 1.370 . S
C761 C765 1.408 . S
C762 C760 1.363 . S
C762 C763 1.370 . S
C762 C766 1.524 . S
C763 C755 1.503 1_655 S
C763 C762 1.370 . S
C763 C764 1.403 . S
C764 C763 1.403 . S
C764 C765 1.404 . S
C764 C767 1.523 1_655 S
C765 C761 1.408 . S
C765 C764 1.404 . S
C765 H777 0.930 . S
C766 C762 1.524 . S
C766 H778 0.956 . S
C766 H779 0.961 . S
C766 H780 0.961 . S
C767 C764 1.523 1_455 S
C767 H781 0.951 1_455 S
C767 H782 0.960 1_455 S
C767 H783 0.985 . S
H768 C752 0.931 . S
H769 C757 0.929 . S
H770 C758 0.960 . S
H771 C758 0.962 . S
H772 C758 0.960 . S
H773 C759 0.961 . S
H774 C759 0.961 . S
H775 C759 0.961 . S
H776 C760 0.931 . S
H777 C765 0.930 . S
H778 C766 0.956 . S
H779 C766 0.961 . S
H780 C766 0.961 . S
H781 C767 0.951 1_655 S
H782 C767 0.960 1_655 S
H783 C767 0.985 . S
C784 C785 1.391 . S
C784 C786 1.394 . S
C784 H800 0.931 . S
C785 C784 1.391 . S
C785 C789 1.376 . S
C786 C784 1.394 . S
C786 C787 1.369 . S
C786 C790 1.531 1_556 S
C787 C786 1.369 . S
C787 C788 1.410 . S
C787 C795 1.503 1_556 S
C788 C787 1.410 . S
C788 C789 1.392 . S
C788 C791 1.511 . S
C789 C785 1.376 . S
C789 C788 1.392 . S
C789 H801 0.929 . S
C790 C786 1.531 1_554 S
C790 H802 0.960 . S
C790 H803 0.962 . S
C790 H804 0.960 . S
C791 C788 1.511 . S
C791 H805 0.961 . S
C791 H806 0.961 . S
C791 H807 0.961 . S
C792 C793 1.370 . S
C792 C794 1.363 . S
C792 H808 0.931 . S
C793 C792 1.370 . S
C793 C797 1.408 . S
C794 C792 1.363 . S
C794 C795 1.370 . S
C794 C798 1.524 . S
C795 C787 1.503 1_554 S
C795 C794 1.370 . S
C795 C796 1.403 . S
C796 C795 1.403 . S
C796 C797 1.404 . S
C796 C799 1.539 . S
C797 C793 1.408 . S
C797 C796 1.404 . S
C797 H809 0.930 . S
C798 C794 1.524 . S
C798 H810 0.956 . S
C798 H811 0.961 1_554 S
C798 H812 0.961 . S
C799 C796 1.539 . S
C799 H813 0.958 . S
C799 H814 0.961 . S
C799 H815 0.960 1_554 S
H800 C784 0.931 . S
H801 C789 0.929 . S
H802 C790 0.960 . S
H803 C790 0.962 . S
H804 C790 0.960 . S
H805 C791 0.961 . S
H806 C791 0.961 . S
H807 C791 0.961 . S
H808 C792 0.931 . S
H809 C797 0.930 . S
H810 C798 0.956 . S
H811 C798 0.961 1_556 S
H812 C798 0.961 . S
H813 C799 0.958 . S
H814 C799 0.961 . S
H815 C799 0.960 1_556 S
C816 C817 1.391 . S
C816 C818 1.394 . S
C816 H832 0.931 . S
C817 C816 1.391 . S
C817 C821 1.376 . S
C818 C816 1.394 . S
C818 C819 1.369 . S
C818 C822 1.531 1_556 S
C819 C818 1.369 . S
C819 C820 1.410 . S
C819 C827 1.503 1_556 S
C820 C819 1.410 . S
C820 C821 1.392 . S
C820 C823 1.511 . S
C821 C817 1.376 . S
C821 C820 1.392 . S
C821 H833 0.929 . S
C822 C818 1.531 1_554 S
C822 H834 0.960 . S
C822 H835 0.962 . S
C822 H836 0.929 1_554 S
C823 C820 1.511 . S
C823 H837 0.961 . S
C823 H838 0.961 . S
C823 H839 0.961 . S
C824 C825 1.370 . S
C824 C826 1.363 . S
C824 H840 0.931 . S
C825 C824 1.370 . S
C825 C829 1.408 . S
C826 C824 1.363 . S
C826 C827 1.370 . S
C826 C830 1.524 . S
C827 C819 1.503 1_554 S
C827 C826 1.370 . S
C827 C828 1.403 . S
C828 C827 1.403 . S
C828 C829 1.404 . S
C828 C831 1.539 1_554 S
C829 C825 1.408 . S
C829 C828 1.404 . S
C829 H841 0.930 . S
C830 C826 1.524 . S
C830 H842 0.956 . S
C830 H843 0.961 . S
C830 H844 0.961 . S
C831 C828 1.539 1_556 S
C831 H845 0.958 . S
C831 H846 0.961 . S
C831 H847 0.960 . S
H832 C816 0.931 . S
H833 C821 0.929 . S
H834 C822 0.960 . S
H835 C822 0.962 . S
H836 C822 0.929 1_556 S
H837 C823 0.961 . S
H838 C823 0.961 . S
H839 C823 0.961 . S
H840 C824 0.931 . S
H841 C829 0.930 . S
H842 C830 0.956 . S
H843 C830 0.961 . S
H844 C830 0.961 . S
H845 C831 0.958 . S
H846 C831 0.961 . S
H847 C831 0.960 . S
C848 C849 1.391 . S
C848 C850 1.394 . S
C848 H864 0.931 . S
C849 C848 1.391 . S
C849 C853 1.376 . S
C850 C848 1.394 . S
C850 C851 1.369 . S
C850 C854 1.531 . S
C851 C850 1.369 . S
C851 C852 1.410 . S
C851 C859 1.503 1_554 S
C852 C851 1.410 . S
C852 C853 1.392 . S
C852 C855 1.511 . S
C853 C849 1.376 . S
C853 C852 1.392 . S
C853 H865 0.929 . S
C854 C850 1.531 . S
C854 H866 0.960 . S
C854 H867 0.962 . S
C854 H868 0.960 . S
C855 C852 1.511 . S
C855 H869 0.961 . S
C855 H870 0.961 1_554 S
C855 H871 0.961 . S
C856 C857 1.370 . S
C856 C858 1.363 . S
C856 H872 0.931 . S
C857 C856 1.370 . S
C857 C861 1.408 . S
C858 C856 1.363 . S
C858 C859 1.370 . S
C858 C862 1.524 . S
C859 C851 1.503 1_556 S
C859 C858 1.370 . S
C859 C860 1.403 . S
C860 C859 1.403 . S
C860 C861 1.404 . S
C860 C863 1.539 1_556 S
C861 C857 1.408 . S
C861 C860 1.404 . S
C861 H873 0.930 . S
C862 C858 1.524 . S
C862 H874 0.956 . S
C862 H875 0.961 . S
C862 H876 0.961 . S
C863 C860 1.539 1_554 S
C863 H877 0.958 . S
C863 H878 0.961 . S
C863 H879 0.960 . S
H864 C848 0.931 . S
H865 C853 0.929 . S
H866 C854 0.960 . S
H867 C854 0.962 . S
H868 C854 0.960 . S
H869 C855 0.961 . S
H870 C855 0.961 1_556 S
H871 C855 0.961 . S
H872 C856 0.931 . S
H873 C861 0.930 . S
H874 C862 0.956 . S
H875 C862 0.961 . S
H876 C862 0.961 . S
H877 C863 0.958 . S
H878 C863 0.961 . S
H879 C863 0.960 . S
C880 C881 1.391 . S
C880 C882 1.394 . S
C880 H896 0.931 . S
C881 C880 1.391 . S
C881 C885 1.376 . S
C882 C880 1.394 . S
C882 C883 1.369 . S
C882 C886 1.531 . S
C883 C882 1.369 . S
C883 C884 1.410 . S
C883 C891 1.503 1_554 S
C884 C883 1.410 . S
C884 C885 1.392 . S
C884 C887 1.511 . S
C885 C881 1.376 . S
C885 C884 1.392 . S
C885 H897 0.929 . S
C886 C882 1.531 . S
C886 H898 0.960 1_554 S
C886 H899 0.962 . S
C886 H900 0.960 . S
C887 C884 1.511 . S
C887 H901 0.961 . S
C887 H902 0.949 1_554 S
C887 H903 0.961 1_554 S
C888 C889 1.370 . S
C888 C890 1.363 . S
C888 H904 0.931 . S
C889 C888 1.370 . S
C889 C893 1.408 . S
C890 C888 1.363 . S
C890 C891 1.370 . S
C890 C894 1.524 1_556 S
C891 C883 1.503 1_556 S
C891 C890 1.370 . S
C891 C892 1.403 . S
C892 C891 1.403 . S
C892 C893 1.404 . S
C892 C895 1.539 . S
C893 C889 1.408 . S
C893 C892 1.404 . S
C893 H905 0.930 . S
C894 C890 1.524 1_554 S
C894 H906 0.956 . S
C894 H907 0.961 . S
C894 H908 0.961 . S
C895 C892 1.539 . S
C895 H909 0.958 . S
C895 H910 0.961 . S
C895 H911 0.960 . S
H896 C880 0.931 . S
H897 C885 0.929 . S
H898 C886 0.960 1_556 S
H899 C886 0.962 . S
H900 C886 0.960 . S
H901 C887 0.961 . S
H902 C887 0.949 1_556 S
H903 C887 0.961 1_556 S
H904 C888 0.931 . S
H905 C893 0.930 . S
H906 C894 0.956 . S
H907 C894 0.961 . S
H908 C894 0.961 . S
H909 C895 0.958 . S
H910 C895 0.961 . S
H911 C895 0.960 . S
C912 C913 1.391 . S
C912 C914 1.358 1_565 S
C912 H928 0.931 . S
C913 C912 1.391 . S
C913 C917 1.376 . S
C914 C912 1.358 1_545 S
C914 C915 1.343 1_545 S
C914 C918 1.595 . S
C915 C914 1.343 1_565 S
C915 C916 1.410 . S
C915 C923 1.503 1_565 S
C916 C915 1.410 . S
C916 C917 1.392 . S
C916 C919 1.511 . S
C917 C913 1.376 . S
C917 C916 1.392 . S
C917 H929 0.929 . S
C918 C914 1.595 . S
C918 H930 0.960 . S
C918 H931 0.962 . S
C918 H932 0.960 . S
C919 C916 1.511 . S
C919 H933 0.961 . S
C919 H934 0.961 . S
C919 H935 0.961 . S
C920 C921 1.370 . S
C920 C922 1.363 . S
C920 H936 0.931 . S
C921 C920 1.370 . S
C921 C925 1.408 . S
C922 C920 1.363 . S
C922 C923 1.370 . S
C922 C926 1.524 . S
C923 C915 1.503 1_545 S
C923 C922 1.370 . S
C923 C924 1.403 . S
C924 C923 1.403 . S
C924 C925 1.404 . S
C924 C927 1.505 1_545 S
C925 C921 1.408 . S
C925 C924 1.404 . S
C925 H937 0.930 . S
C926 C922 1.524 . S
C926 H938 0.956 . S
C926 H939 0.961 1_545 S
C926 H940 0.961 . S
C927 C924 1.505 1_565 S
C927 H941 0.913 1_565 S
C927 H942 0.980 . S
C927 H943 1.028 . S
H928 C912 0.931 . S
H929 C917 0.929 . S
H930 C918 0.960 . S
H931 C918 0.962 . S
H932 C918 0.960 . S
H933 C919 0.961 . S
H934 C919 0.961 . S
H935 C919 0.961 . S
H936 C920 0.931 . S
H937 C925 0.930 . S
H938 C926 0.956 . S
H939 C926 0.961 1_565 S
H940 C926 0.961 . S
H941 C927 0.913 1_545 S
H942 C927 0.980 . S
H943 C927 1.028 . S
C944 C945 1.391 . S
C944 C946 1.394 . S
C944 H960 0.931 . S
C945 C944 1.391 . S
C945 C949 1.376 . S
C946 C944 1.394 . S
C946 C947 1.369 . S
C946 C950 1.531 1_455 S
C947 C946 1.369 . S
C947 C948 1.410 . S
C947 C955 1.503 1_455 S
C948 C947 1.410 . S
C948 C949 1.392 . S
C948 C951 1.511 . S
C949 C945 1.376 . S
C949 C948 1.392 . S
C949 H961 0.929 . S
C950 C946 1.531 1_655 S
C950 H962 0.960 . S
C950 H963 0.962 1_655 S
C950 H964 0.960 . S
C951 C948 1.511 . S
C951 H965 0.961 . S
C951 H966 0.961 . S
C951 H967 0.961 1_455 S
C952 C953 1.370 . S
C952 C954 1.360 1_655 S
C952 H968 0.931 . S
C953 C952 1.370 . S
C953 C957 1.408 . S
C954 C952 1.360 1_455 S
C954 C955 1.368 1_455 S
C954 C958 1.530 . S
C955 C947 1.503 1_655 S
C955 C954 1.368 1_655 S
C955 C956 1.403 . S
C956 C955 1.403 . S
C956 C957 1.404 . S
C956 C959 1.539 . S
C957 C953 1.408 . S
C957 C956 1.404 . S
C957 H969 0.930 . S
C958 C954 1.530 . S
C958 H970 0.956 . S
C958 H971 0.961 . S
C958 H972 0.961 . S
C959 C956 1.539 . S
C959 H973 0.958 . S
C959 H974 0.961 . S
C959 H975 0.960 . S
H960 C944 0.931 . S
H961 C949 0.929 . S
H962 C950 0.960 . S
H963 C950 0.962 1_455 S
H964 C950 0.960 . S
H965 C951 0.961 . S
H966 C951 0.961 . S
H967 C951 0.961 1_655 S
H968 C952 0.931 . S
H969 C957 0.930 . S
H970 C958 0.956 . S
H971 C958 0.961 . S
H972 C958 0.961 . S
H973 C959 0.958 . S
H974 C959 0.961 . S
H975 C959 0.960 . S
C976 C977 1.391 . S
C976 C978 1.394 . S
C976 H992 0.931 . S
C977 C976 1.391 . S
C977 C981 1.376 . S
C978 C976 1.394 . S
C978 C979 1.369 . S
C978 C982 1.531 1_565 S
C979 C978 1.369 . S
C979 C980 1.410 . S
C979 C987 1.503 1_565 S
C980 C979 1.410 . S
C980 C981 1.392 . S
C980 C983 1.511 . S
C981 C977 1.376 . S
C981 C980 1.392 . S
C981 H993 0.929 . S
C982 C978 1.531 1_545 S
C982 H994 0.960 . S
C982 H995 0.962 . S
C982 H996 0.960 . S
C983 C980 1.511 . S
C983 H997 0.961 . S
C983 H998 0.961 . S
C983 H999 0.961 . S
C984 C985 1.370 . S
C984 C986 1.370 . S
C984 H1000 0.931 . S
C985 C984 1.370 . S
C985 C989 1.408 . S
C986 C984 1.370 . S
C986 C987 1.376 . S
C986 C990 1.511 1_545 S
C987 C979 1.503 1_545 S
C987 C986 1.376 . S
C987 C988 1.403 . S
C988 C987 1.403 . S
C988 C989 1.404 . S
C988 C991 1.539 . S
C989 C985 1.408 . S
C989 C988 1.404 . S
C989 H1001 0.930 . S
C990 C986 1.511 1_565 S
C990 H1002 0.956 . S
C990 H1003 0.961 . S
C990 H1004 0.961 . S
C991 C988 1.539 . S
C991 H1005 0.958 . S
C991 H1006 0.961 . S
C991 H1007 0.960 . S
H992 C976 0.931 . S
H993 C981 0.929 . S
H994 C982 0.960 . S
H995 C982 0.962 . S
H996 C982 0.960 . S
H997 C983 0.961 . S
H998 C983 0.961 . S
H999 C983 0.961 . S
H1000 C984 0.931 . S
H1001 C989 0.930 . S
H1002 C990 0.956 . S
H1003 C990 0.961 . S
H1004 C990 0.961 . S
H1005 C991 0.958 . S
H1006 C991 0.961 . S
H1007 C991 0.960 . S
C1008 C1009 1.391 . S
C1008 C1010 1.394 . S
C1008 H1024 0.931 . S
C1009 C1008 1.391 . S
C1009 C1013 1.376 . S
C1010 C1008 1.394 . S
C1010 C1011 1.369 . S
C1010 C1014 1.531 . S
C1011 C1010 1.369 . S
C1011 C1012 1.410 1_455 S
C1011 C1019 1.503 1_455 S
C1012 C1011 1.410 1_655 S
C1012 C1013 1.392 1_655 S
C1012 C1015 1.511 . S
C1013 C1009 1.376 . S
C1013 C1012 1.392 1_455 S
C1013 H1025 0.929 . S
C1014 C1010 1.531 . S
C1014 H1026 0.960 . S
C1014 H1027 0.962 . S
C1014 H1028 0.960 . S
C1015 C1012 1.511 . S
C1015 H1029 0.961 . S
C1015 H1030 0.961 . S
C1015 H1031 0.961 . S
C1016 C1017 1.370 . S
C1016 C1018 1.363 . S
C1016 H1032 0.931 . S
C1017 C1016 1.370 . S
C1017 C1021 1.408 . S
C1018 C1016 1.363 . S
C1018 C1019 1.370 . S
C1018 C1022 1.524 1_655 S
C1019 C1011 1.503 1_655 S
C1019 C1018 1.370 . S
C1019 C1020 1.403 . S
C1020 C1019 1.403 . S
C1020 C1021 1.404 . S
C1020 C1023 1.539 . S
C1021 C1017 1.408 . S
C1021 C1020 1.404 . S
C1021 H1033 0.930 . S
C1022 C1018 1.524 1_455 S
C1022 H1034 0.956 . S
C1022 H1035 0.961 . S
C1022 H1036 0.961 . S
C1023 C1020 1.539 . S
C1023 H1037 0.958 . S
C1023 H1038 0.961 . S
C1023 H1039 0.960 . S
H1024 C1008 0.931 . S
H1025 C1013 0.929 . S
H1026 C1014 0.960 . S
H1027 C1014 0.962 . S
H1028 C1014 0.960 . S
H1029 C1015 0.961 . S
H1030 C1015 0.961 . S
H1031 C1015 0.961 . S
H1032 C1016 0.931 . S
H1033 C1021 0.930 . S
H1034 C1022 0.956 . S
H1035 C1022 0.961 . S
H1036 C1022 0.961 . S
H1037 C1023 0.958 . S
H1038 C1023 0.961 . S
H1039 C1023 0.960 . S
C1040 C1041 1.391 . S
C1040 C1042 1.394 . S
C1040 H1056 0.931 . S
C1041 C1040 1.391 . S
C1041 C1045 1.376 . S
C1042 C1040 1.394 . S
C1042 C1043 1.369 . S
C1042 C1046 1.531 . S
C1043 C1042 1.369 . S
C1043 C1044 1.410 . S
C1043 C1051 1.503 1_556 S
C1044 C1043 1.410 . S
C1044 C1045 1.392 . S
C1044 C1047 1.511 . S
C1045 C1041 1.376 . S
C1045 C1044 1.392 . S
C1045 H1057 0.929 . S
C1046 C1042 1.531 . S
C1046 H1058 0.960 . S
C1046 H1059 0.962 1_556 S
C1046 H1060 0.960 . S
C1047 C1044 1.511 . S
C1047 H1061 0.961 . S
C1047 H1062 0.961 . S
C1047 H1063 0.961 . S
C1048 C1049 1.370 . S
C1048 C1050 1.363 . S
C1048 H1064 0.931 . S
C1049 C1048 1.370 . S
C1049 C1053 1.408 . S
C1050 C1048 1.363 . S
C1050 C1051 1.370 . S
C1050 C1054 1.524 . S
C1051 C1043 1.503 1_554 S
C1051 C1050 1.370 . S
C1051 C1052 1.403 1_554 S
C1052 C1051 1.403 1_556 S
C1052 C1053 1.404 1_556 S
C1052 C1055 1.539 . S
C1053 C1049 1.408 . S
C1053 C1052 1.404 1_554 S
C1053 H1065 0.930 . S
C1054 C1050 1.524 . S
C1054 H1066 0.956 . S
C1054 H1067 0.961 . S
C1054 H1068 0.961 . S
C1055 C1052 1.539 . S
C1055 H1069 0.958 . S
C1055 H1070 0.961 . S
C1055 H1071 0.960 . S
H1056 C1040 0.931 . S
H1057 C1045 0.929 . S
H1058 C1046 0.960 . S
H1059 C1046 0.962 1_554 S
H1060 C1046 0.960 . S
H1061 C1047 0.961 . S
H1062 C1047 0.961 . S
H1063 C1047 0.961 . S
H1064 C1048 0.931 . S
H1065 C1053 0.930 . S
H1066 C1054 0.956 . S
H1067 C1054 0.961 . S
H1068 C1054 0.961 . S
H1069 C1055 0.958 . S
H1070 C1055 0.961 . S
H1071 C1055 0.960 . S
C1072 C1073 1.391 . S
C1072 C1074 1.394 . S
C1072 H1088 0.931 . S
C1073 C1072 1.391 . S
C1073 C1077 1.376 . S
C1074 C1072 1.394 . S
C1074 C1075 1.369 . S
C1074 C1078 1.531 . S
C1075 C1074 1.369 . S
C1075 C1076 1.410 . S
C1075 C1083 1.503 1_556 S
C1076 C1075 1.410 . S
C1076 C1077 1.392 . S
C1076 C1079 1.511 1_556 S
C1077 C1073 1.376 . S
C1077 C1076 1.392 . S
C1077 H1089 0.929 . S
C1078 C1074 1.531 . S
C1078 H1090 0.960 . S
C1078 H1091 0.962 . S
C1078 H1092 0.960 . S
C1079 C1076 1.511 1_554 S
C1079 H1093 0.961 . S
C1079 H1094 0.961 . S
C1079 H1095 0.961 . S
C1080 C1081 1.370 . S
C1080 C1082 1.363 . S
C1080 H1096 0.931 . S
C1081 C1080 1.370 . S
C1081 C1085 1.408 . S
C1082 C1080 1.363 . S
C1082 C1083 1.370 . S
C1082 C1086 1.524 . S
C1083 C1075 1.503 1_554 S
C1083 C1082 1.370 . S
C1083 C1084 1.390 1_554 S
C1084 C1083 1.390 1_556 S
C1084 C1085 1.370 1_556 S
C1084 C1087 1.585 . S
C1085 C1081 1.408 . S
C1085 C1084 1.370 1_554 S
C1085 H1097 0.930 . S
C1086 C1082 1.524 . S
C1086 H1098 0.956 . S
C1086 H1099 0.961 . S
C1086 H1100 0.961 . S
C1087 C1084 1.585 . S
C1087 H1101 0.958 . S
C1087 H1102 0.961 . S
C1087 H1103 0.960 . S
H1088 C1072 0.931 . S
H1089 C1077 0.929 . S
H1090 C1078 0.960 . S
H1091 C1078 0.962 . S
H1092 C1078 0.960 . S
H1093 C1079 0.961 . S
H1094 C1079 0.961 . S
H1095 C1079 0.961 . S
H1096 C1080 0.931 . S
H1097 C1085 0.930 . S
H1098 C1086 0.956 . S
H1099 C1086 0.961 . S
H1100 C1086 0.961 . S
H1101 C1087 0.958 . S
H1102 C1087 0.961 . S
H1103 C1087 0.960 . S
C1104 C1105 1.391 . S
C1104 C1106 1.394 . S
C1104 H1120 0.931 . S
C1105 C1104 1.391 . S
C1105 C1109 1.376 . S
C1106 C1104 1.394 . S
C1106 C1107 1.369 . S
C1106 C1110 1.531 1_556 S
C1107 C1106 1.369 . S
C1107 C1108 1.410 . S
C1107 C1115 1.503 1_556 S
C1108 C1107 1.410 . S
C1108 C1109 1.392 . S
C1108 C1111 1.511 . S
C1109 C1105 1.376 . S
C1109 C1108 1.392 . S
C1109 H1121 0.929 . S
C1110 C1106 1.531 1_554 S
C1110 H1122 0.960 . S
C1110 H1123 0.962 . S
C1110 H1124 0.960 . S
C1111 C1108 1.511 . S
C1111 H1125 0.961 . S
C1111 H1126 0.961 . S
C1111 H1127 0.961 . S
C1112 C1113 1.370 . S
C1112 C1114 1.363 . S
C1112 H1128 0.931 . S
C1113 C1112 1.370 . S
C1113 C1117 1.408 . S
C1114 C1112 1.363 . S
C1114 C1115 1.370 . S
C1114 C1118 1.524 . S
C1115 C1107 1.503 1_554 S
C1115 C1114 1.370 . S
C1115 C1116 1.412 . S
C1116 C1115 1.412 . S
C1116 C1117 1.434 . S
C1116 C1119 1.500 1_554 S
C1117 C1113 1.408 . S
C1117 C1116 1.434 . S
C1117 H1129 0.930 . S
C1118 C1114 1.524 . S
C1118 H1130 0.956 . S
C1118 H1131 0.961 . S
C1118 H1132 0.961 . S
C1119 C1116 1.500 1_556 S
C1119 H1133 0.958 . S
C1119 H1134 0.961 . S
C1119 H1135 0.960 . S
H1120 C1104 0.931 . S
H1121 C1109 0.929 . S
H1122 C1110 0.960 . S
H1123 C1110 0.962 . S
H1124 C1110 0.960 . S
H1125 C1111 0.961 . S
H1126 C1111 0.961 . S
H1127 C1111 0.961 . S
H1128 C1112 0.931 . S
H1129 C1117 0.930 . S
H1130 C1118 0.956 . S
H1131 C1118 0.961 . S
H1132 C1118 0.961 . S
H1133 C1119 0.958 . S
H1134 C1119 0.961 . S
H1135 C1119 0.960 . S
C1136 C1137 1.391 . S
C1136 C1138 1.394 . S
C1136 H1152 0.931 . S
C1137 C1136 1.391 . S
C1137 C1141 1.376 . S
C1138 C1136 1.394 . S
C1138 C1139 1.369 . S
C1138 C1142 1.531 1_554 S
C1139 C1138 1.369 . S
C1139 C1140 1.410 . S
C1139 C1147 1.503 1_554 S
C1140 C1139 1.410 . S
C1140 C1141 1.392 . S
C1140 C1143 1.511 . S
C1141 C1137 1.376 . S
C1141 C1140 1.392 . S
C1141 H1153 0.929 . S
C1142 C1138 1.531 1_556 S
C1142 H1154 0.960 . S
C1142 H1155 0.962 . S
C1142 H1156 0.960 . S
C1143 C1140 1.511 . S
C1143 H1157 0.961 . S
C1143 H1158 0.961 . S
C1143 H1159 0.961 . S
C1144 C1145 1.370 . S
C1144 C1146 1.363 . S
C1144 H1160 0.931 . S
C1145 C1144 1.370 . S
C1145 C1149 1.408 . S
C1146 C1144 1.363 . S
C1146 C1147 1.370 . S
C1146 C1150 1.524 . S
C1147 C1139 1.503 1_556 S
C1147 C1146 1.370 . S
C1147 C1148 1.403 . S
C1148 C1147 1.403 . S
C1148 C1149 1.404 . S
C1148 C1151 1.539 1_556 S
C1149 C1145 1.408 . S
C1149 C1148 1.404 . S
C1149 H1161 0.930 . S
C1150 C1146 1.524 . S
C1150 H1162 0.956 . S
C1150 H1163 0.961 . S
C1150 H1164 0.961 . S
C1151 C1148 1.539 1_554 S
C1151 H1165 0.958 . S
C1151 H1166 0.961 . S
C1151 H1167 0.960 . S
H1152 C1136 0.931 . S
H1153 C1141 0.929 . S
H1154 C1142 0.960 . S
H1155 C1142 0.962 . S
H1156 C1142 0.960 . S
H1157 C1143 0.961 . S
H1158 C1143 0.961 . S
H1159 C1143 0.961 . S
H1160 C1144 0.931 . S
H1161 C1149 0.930 . S
H1162 C1150 0.956 . S
H1163 C1150 0.961 . S
H1164 C1150 0.961 . S
H1165 C1151 0.958 . S
H1166 C1151 0.961 . S
H1167 C1151 0.960 . S
C1168 C1169 1.391 . S
C1168 C1170 1.394 . S
C1168 H1184 0.931 . S
C1169 C1168 1.391 . S
C1169 C1173 1.376 . S
C1170 C1168 1.394 . S
C1170 C1171 1.369 . S
C1170 C1174 1.531 . S
C1171 C1170 1.369 . S
C1171 C1172 1.391 1_455 S
C1171 C1179 1.503 1_455 S
C1172 C1171 1.391 1_655 S
C1172 C1173 1.367 1_655 S
C1172 C1175 1.556 . S
C1173 C1169 1.376 . S
C1173 C1172 1.367 1_455 S
C1173 H1185 0.929 . S
C1174 C1170 1.531 . S
C1174 H1186 0.960 . S
C1174 H1187 0.962 . S
C1174 H1188 0.960 . S
C1175 C1172 1.556 . S
C1175 H1189 0.961 . S
C1175 H1190 0.961 . S
C1175 H1191 0.961 . S
C1176 C1177 1.370 . S
C1176 C1178 1.363 . S
C1176 H1192 0.931 . S
C1177 C1176 1.370 . S
C1177 C1181 1.408 . S
C1178 C1176 1.363 . S
C1178 C1179 1.370 . S
C1178 C1182 1.524 . S
C1179 C1171 1.503 1_655 S
C1179 C1178 1.370 . S
C1179 C1180 1.403 . S
C1180 C1179 1.403 . S
C1180 C1181 1.404 . S
C1180 C1183 1.539 1_655 S
C1181 C1177 1.408 . S
C1181 C1180 1.404 . S
C1181 H1193 0.930 . S
C1182 C1178 1.524 . S
C1182 H1194 0.941 1_655 S
C1182 H1195 0.961 . S
C1182 H1196 0.961 . S
C1183 C1180 1.539 1_455 S
C1183 H1197 0.958 . S
C1183 H1198 0.961 1_455 S
C1183 H1199 0.960 . S
H1184 C1168 0.931 . S
H1185 C1173 0.929 . S
H1186 C1174 0.960 . S
H1187 C1174 0.962 . S
H1188 C1174 0.960 . S
H1189 C1175 0.961 . S
H1190 C1175 0.961 . S
H1191 C1175 0.961 . S
H1192 C1176 0.931 . S
H1193 C1181 0.930 . S
H1194 C1182 0.941 1_455 S
H1195 C1182 0.961 . S
H1196 C1182 0.961 . S
H1197 C1183 0.958 . S
H1198 C1183 0.961 1_655 S
H1199 C1183 0.960 . S
C1200 C1201 1.391 . S
C1200 C1202 1.394 . S
C1200 H1216 0.931 . S
C1201 C1200 1.391 . S
C1201 C1205 1.376 . S
C1202 C1200 1.394 . S
C1202 C1203 1.369 . S
C1202 C1206 1.531 . S
C1203 C1202 1.369 . S
C1203 C1204 1.410 1_455 S
C1203 C1211 1.503 1_455 S
C1204 C1203 1.410 1_655 S
C1204 C1205 1.392 1_655 S
C1204 C1207 1.511 . S
C1205 C1201 1.376 . S
C1205 C1204 1.392 1_455 S
C1205 H1217 0.929 . S
C1206 C1202 1.531 . S
C1206 H1218 0.960 . S
C1206 H1219 0.962 . S
C1206 H1220 0.960 . S
C1207 C1204 1.511 . S
C1207 H1221 0.961 . S
C1207 H1222 0.961 . S
C1207 H1223 0.961 . S
C1208 C1209 1.370 . S
C1208 C1210 1.363 . S
C1208 H1224 0.931 . S
C1209 C1208 1.370 . S
C1209 C1213 1.408 . S
C1210 C1208 1.363 . S
C1210 C1211 1.370 . S
C1210 C1214 1.524 1_655 S
C1211 C1203 1.503 1_655 S
C1211 C1210 1.370 . S
C1211 C1212 1.403 . S
C1212 C1211 1.403 . S
C1212 C1213 1.404 . S
C1212 C1215 1.539 . S
C1213 C1209 1.408 . S
C1213 C1212 1.404 . S
C1213 H1225 0.930 . S
C1214 C1210 1.524 1_455 S
C1214 H1226 0.956 . S
C1214 H1227 0.961 . S
C1214 H1228 0.961 . S
C1215 C1212 1.539 . S
C1215 H1229 0.958 . S
C1215 H1230 0.961 . S
C1215 H1231 0.960 . S
H1216 C1200 0.931 . S
H1217 C1205 0.929 . S
H1218 C1206 0.960 . S
H1219 C1206 0.962 . S
H1220 C1206 0.960 . S
H1221 C1207 0.961 . S
H1222 C1207 0.961 . S
H1223 C1207 0.961 . S
H1224 C1208 0.931 . S
H1225 C1213 0.930 . S
H1226 C1214 0.956 . S
H1227 C1214 0.961 . S
H1228 C1214 0.961 . S
H1229 C1215 0.958 . S
H1230 C1215 0.961 . S
H1231 C1215 0.960 . S
C1232 C1233 1.391 . S
C1232 C1234 1.439 . S
C1232 H1248 0.931 . S
C1233 C1232 1.391 . S
C1233 C1237 1.376 . S
C1234 C1232 1.439 . S
C1234 C1235 1.377 . S
C1234 C1238 1.480 1_545 S
C1235 C1234 1.377 . S
C1235 C1236 1.410 . S
C1235 C1243 1.503 1_545 S
C1236 C1235 1.410 . S
C1236 C1237 1.392 . S
C1236 C1239 1.511 . S
C1237 C1233 1.376 . S
C1237 C1236 1.392 . S
C1237 H1249 0.929 . S
C1238 C1234 1.480 1_565 S
C1238 H1250 0.960 . S
C1238 H1251 0.962 . S
C1238 H1252 0.960 . S
C1239 C1236 1.511 . S
C1239 H1253 0.961 . S
C1239 H1254 0.961 . S
C1239 H1255 0.961 . S
C1240 C1241 1.370 . S
C1240 C1242 1.363 . S
C1240 H1256 0.931 . S
C1241 C1240 1.370 . S
C1241 C1245 1.408 . S
C1242 C1240 1.363 . S
C1242 C1243 1.370 . S
C1242 C1246 1.524 1_565 S
C1243 C1235 1.503 1_565 S
C1243 C1242 1.370 . S
C1243 C1244 1.403 . S
C1244 C1243 1.403 . S
C1244 C1245 1.404 . S
C1244 C1247 1.539 . S
C1245 C1241 1.408 . S
C1245 C1244 1.404 . S
C1245 H1257 0.930 . S
C1246 C1242 1.524 1_545 S
C1246 H1258 0.956 . S
C1246 H1259 0.961 . S
C1246 H1260 0.961 . S
C1247 C1244 1.539 . S
C1247 H1261 0.958 . S
C1247 H1262 0.961 . S
C1247 H1263 0.960 . S
H1248 C1232 0.931 . S
H1249 C1237 0.929 . S
H1250 C1238 0.960 . S
H1251 C1238 0.962 . S
H1252 C1238 0.960 . S
H1253 C1239 0.961 . S
H1254 C1239 0.961 . S
H1255 C1239 0.961 . S
H1256 C1240 0.931 . S
H1257 C1245 0.930 . S
H1258 C1246 0.956 . S
H1259 C1246 0.961 . S
H1260 C1246 0.961 . S
H1261 C1247 0.958 . S
H1262 C1247 0.961 . S
H1263 C1247 0.960 . S
C1264 C1265 1.391 . S
C1264 C1266 1.394 . S
C1264 H1280 0.931 . S
C1265 C1264 1.391 . S
C1265 C1269 1.376 . S
C1266 C1264 1.394 . S
C1266 C1267 1.369 . S
C1266 C1270 1.531 . S
C1267 C1266 1.369 . S
C1267 C1268 1.410 . S
C1267 C1275 1.503 1_565 S
C1268 C1267 1.410 . S
C1268 C1269 1.392 . S
C1268 C1271 1.501 1_565 S
C1269 C1265 1.376 . S
C1269 C1268 1.392 . S
C1269 H1281 0.929 . S
C1270 C1266 1.531 . S
C1270 H1282 0.960 . S
C1270 H1283 0.962 . S
C1270 H1284 0.960 . S
C1271 C1268 1.501 1_545 S
C1271 H1285 0.966 . S
C1271 H1286 0.978 . S
C1271 H1287 0.949 1_545 S
C1272 C1273 1.370 . S
C1272 C1274 1.363 . S
C1272 H1288 0.931 . S
C1273 C1272 1.370 . S
C1273 C1277 1.408 . S
C1274 C1272 1.363 . S
C1274 C1275 1.370 . S
C1274 C1278 1.524 . S
C1275 C1267 1.503 1_545 S
C1275 C1274 1.370 . S
C1275 C1276 1.403 1_545 S
C1276 C1275 1.403 1_565 S
C1276 C1277 1.404 1_565 S
C1276 C1279 1.539 . S
C1277 C1273 1.408 . S
C1277 C1276 1.404 1_545 S
C1277 H1289 0.930 . S
C1278 C1274 1.524 . S
C1278 H1290 0.956 . S
C1278 H1291 0.961 . S
C1278 H1292 0.961 . S
C1279 C1276 1.539 . S
C1279 H1293 0.958 . S
C1279 H1294 0.961 . S
C1279 H1295 0.960 . S
H1280 C1264 0.931 . S
H1281 C1269 0.929 . S
H1282 C1270 0.960 . S
H1283 C1270 0.962 . S
H1284 C1270 0.960 . S
H1285 C1271 0.966 . S
H1286 C1271 0.978 . S
H1287 C1271 0.949 1_565 S
H1288 C1272 0.931 . S
H1289 C1277 0.930 . S
H1290 C1278 0.956 . S
H1291 C1278 0.961 . S
H1292 C1278 0.961 . S
H1293 C1279 0.958 . S
H1294 C1279 0.961 . S
H1295 C1279 0.960 . S
C1296 C1297 1.391 . S
C1296 C1298 1.394 . S
C1296 H1312 0.931 . S
C1297 C1296 1.391 . S
C1297 C1301 1.376 . S
C1298 C1296 1.394 . S
C1298 C1299 1.369 . S
C1298 C1302 1.531 . S
C1299 C1298 1.369 . S
C1299 C1300 1.410 . S
C1299 C1307 1.503 . S
C1300 C1299 1.410 . S
C1300 C1301 1.392 . S
C1300 C1303 1.511 . S
C1301 C1297 1.376 . S
C1301 C1300 1.392 . S
C1301 H1313 0.929 . S
C1302 C1298 1.531 . S
C1302 H1314 0.960 . S
C1302 H1315 0.962 . S
C1302 H1316 0.960 . S
C1303 C1300 1.511 . S
C1303 H1317 0.961 . S
C1303 H1318 0.961 . S
C1303 H1319 0.961 . S
C1304 C1305 1.370 . S
C1304 C1306 1.363 . S
C1304 H1320 0.931 . S
C1305 C1304 1.370 . S
C1305 C1309 1.408 . S
C1306 C1304 1.363 . S
C1306 C1307 1.370 . S
C1306 C1310 1.524 . S
C1307 C1299 1.503 . S
C1307 C1306 1.370 . S
C1307 C1308 1.403 . S
C1308 C1307 1.403 . S
C1308 C1309 1.404 . S
C1308 C1311 1.539 . S
C1309 C1305 1.408 . S
C1309 C1308 1.404 . S
C1309 H1321 0.930 . S
C1310 C1306 1.524 . S
C1310 H1322 0.956 . S
C1310 H1323 0.961 . S
C1310 H1324 0.961 . S
C1311 C1308 1.539 . S
C1311 H1325 0.958 . S
C1311 H1326 0.961 . S
C1311 H1327 0.960 . S
H1312 C1296 0.931 . S
H1313 C1301 0.929 . S
H1314 C1302 0.960 . S
H1315 C1302 0.962 . S
H1316 C1302 0.960 . S
H1317 C1303 0.961 . S
H1318 C1303 0.961 . S
H1319 C1303 0.961 . S
H1320 C1304 0.931 . S
H1321 C1309 0.930 . S
H1322 C1310 0.956 . S
H1323 C1310 0.961 . S
H1324 C1310 0.961 . S
H1325 C1311 0.958 . S
H1326 C1311 0.961 . S
H1327 C1311 0.960 . S
C1328 C1329 1.391 . S
C1328 C1330 1.394 . S
C1328 H1344 0.931 . S
C1329 C1328 1.391 . S
C1329 C1333 1.376 . S
C1330 C1328 1.394 . S
C1330 C1331 1.369 . S
C1330 C1334 1.531 . S
C1331 C1330 1.369 . S
C1331 C1332 1.410 . S
C1331 C1339 1.503 . S
C1332 C1331 1.410 . S
C1332 C1333 1.392 . S
C1332 C1335 1.511 . S
C1333 C1329 1.376 . S
C1333 C1332 1.392 . S
C1333 H1345 0.929 . S
C1334 C1330 1.531 . S
C1334 H1346 0.960 . S
C1334 H1347 0.962 . S
C1334 H1348 0.960 . S
C1335 C1332 1.511 . S
C1335 H1349 0.961 . S
C1335 H1350 0.961 . S
C1335 H1351 0.961 . S
C1336 C1337 1.370 . S
C1336 C1338 1.363 . S
C1336 H1352 0.931 . S
C1337 C1336 1.370 . S
C1337 C1341 1.408 . S
C1338 C1336 1.363 . S
C1338 C1339 1.370 . S
C1338 C1342 1.524 . S
C1339 C1331 1.503 . S
C1339 C1338 1.370 . S
C1339 C1340 1.403 . S
C1340 C1339 1.403 . S
C1340 C1341 1.404 . S
C1340 C1343 1.539 . S
C1341 C1337 1.408 . S
C1341 C1340 1.404 . S
C1341 H1353 0.930 . S
C1342 C1338 1.524 . S
C1342 H1354 0.956 . S
C1342 H1355 0.961 . S
C1342 H1356 0.961 . S
C1343 C1340 1.539 . S
C1343 H1357 0.958 . S
C1343 H1358 0.961 . S
C1343 H1359 0.960 . S
H1344 C1328 0.931 . S
H1345 C1333 0.929 . S
H1346 C1334 0.960 . S
H1347 C1334 0.962 . S
H1348 C1334 0.960 . S
H1349 C1335 0.961 . S
H1350 C1335 0.961 . S
H1351 C1335 0.961 . S
H1352 C1336 0.931 . S
H1353 C1341 0.930 . S
H1354 C1342 0.956 . S
H1355 C1342 0.961 . S
H1356 C1342 0.961 . S
H1357 C1343 0.958 . S
H1358 C1343 0.961 . S
H1359 C1343 0.960 . S
C1360 C1361 1.391 . S
C1360 C1362 1.394 . S
C1360 H1376 0.931 . S
C1361 C1360 1.391 . S
C1361 C1365 1.376 . S
C1362 C1360 1.394 . S
C1362 C1363 1.369 . S
C1362 C1366 1.531 . S
C1363 C1362 1.369 . S
C1363 C1364 1.410 . S
C1363 C1371 1.503 . S
C1364 C1363 1.410 . S
C1364 C1365 1.392 . S
C1364 C1367 1.511 . S
C1365 C1361 1.376 . S
C1365 C1364 1.392 . S
C1365 H1377 0.929 . S
C1366 C1362 1.531 . S
C1366 H1378 0.960 . S
C1366 H1379 0.962 . S
C1366 H1380 0.960 . S
C1367 C1364 1.511 . S
C1367 H1381 0.961 . S
C1367 H1382 0.961 . S
C1367 H1383 0.961 . S
C1368 C1369 1.370 . S
C1368 C1370 1.363 . S
C1368 H1384 0.931 . S
C1369 C1368 1.370 . S
C1369 C1373 1.408 . S
C1370 C1368 1.363 . S
C1370 C1371 1.370 . S
C1370 C1374 1.524 . S
C1371 C1363 1.503 . S
C1371 C1370 1.370 . S
C1371 C1372 1.403 . S
C1372 C1371 1.403 . S
C1372 C1373 1.404 . S
C1372 C1375 1.539 . S
C1373 C1369 1.408 . S
C1373 C1372 1.404 . S
C1373 H1385 0.930 . S
C1374 C1370 1.524 . S
C1374 H1386 0.956 . S
C1374 H1387 0.961 . S
C1374 H1388 0.961 . S
C1375 C1372 1.539 . S
C1375 H1389 0.958 . S
C1375 H1390 0.961 . S
C1375 H1391 0.960 . S
H1376 C1360 0.931 . S
H1377 C1365 0.929 . S
H1378 C1366 0.960 . S
H1379 C1366 0.962 . S
H1380 C1366 0.960 . S
H1381 C1367 0.961 . S
H1382 C1367 0.961 . S
H1383 C1367 0.961 . S
H1384 C1368 0.931 . S
H1385 C1373 0.930 . S
H1386 C1374 0.956 . S
H1387 C1374 0.961 . S
H1388 C1374 0.961 . S
H1389 C1375 0.958 . S
H1390 C1375 0.961 . S
H1391 C1375 0.960 . S
C1392 C1393 1.391 . S
C1392 C1394 1.394 . S
C1392 H1408 0.931 . S
C1393 C1392 1.391 . S
C1393 C1397 1.376 . S
C1394 C1392 1.394 . S
C1394 C1395 1.369 . S
C1394 C1398 1.531 . S
C1395 C1394 1.369 . S
C1395 C1396 1.410 . S
C1395 C1403 1.503 . S
C1396 C1395 1.410 . S
C1396 C1397 1.392 . S
C1396 C1399 1.511 . S
C1397 C1393 1.376 . S
C1397 C1396 1.392 . S
C1397 H1409 0.929 . S
C1398 C1394 1.531 . S
C1398 H1410 0.960 . S
C1398 H1411 0.962 . S
C1398 H1412 0.960 . S
C1399 C1396 1.511 . S
C1399 H1413 0.961 . S
C1399 H1414 0.961 . S
C1399 H1415 0.961 . S
C1400 C1401 1.370 . S
C1400 C1402 1.363 . S
C1400 H1416 0.931 . S
C1401 C1400 1.370 . S
C1401 C1405 1.408 . S
C1402 C1400 1.363 . S
C1402 C1403 1.370 . S
C1402 C1406 1.524 . S
C1403 C1395 1.503 . S
C1403 C1402 1.370 . S
C1403 C1404 1.403 . S
C1404 C1403 1.403 . S
C1404 C1405 1.404 . S
C1404 C1407 1.539 . S
C1405 C1401 1.408 . S
C1405 C1404 1.404 . S
C1405 H1417 0.930 . S
C1406 C1402 1.524 . S
C1406 H1418 0.956 . S
C1406 H1419 0.961 . S
C1406 H1420 0.961 . S
C1407 C1404 1.539 . S
C1407 H1421 0.958 . S
C1407 H1422 0.961 . S
C1407 H1423 0.960 . S
H1408 C1392 0.931 . S
H1409 C1397 0.929 . S
H1410 C1398 0.960 . S
H1411 C1398 0.962 . S
H1412 C1398 0.960 . S
H1413 C1399 0.961 . S
H1414 C1399 0.961 . S
H1415 C1399 0.961 . S
H1416 C1400 0.931 . S
H1417 C1405 0.930 . S
H1418 C1406 0.956 . S
H1419 C1406 0.961 . S
H1420 C1406 0.961 . S
H1421 C1407 0.958 . S
H1422 C1407 0.961 . S
H1423 C1407 0.960 . S
C1424 C1425 1.391 . S
C1424 C1426 1.394 . S
C1424 H1440 0.931 . S
C1425 C1424 1.391 . S
C1425 C1429 1.376 . S
C1426 C1424 1.394 . S
C1426 C1427 1.369 . S
C1426 C1430 1.531 . S
C1427 C1426 1.369 . S
C1427 C1428 1.410 . S
C1427 C1435 1.503 . S
C1428 C1427 1.410 . S
C1428 C1429 1.392 . S
C1428 C1431 1.511 . S
C1429 C1425 1.376 . S
C1429 C1428 1.392 . S
C1429 H1441 0.929 . S
C1430 C1426 1.531 . S
C1430 H1442 0.960 . S
C1430 H1443 0.962 . S
C1430 H1444 0.960 . S
C1431 C1428 1.511 . S
C1431 H1445 0.961 . S
C1431 H1446 0.961 . S
C1431 H1447 0.961 . S
C1432 C1433 1.370 . S
C1432 C1434 1.363 . S
C1432 H1448 0.931 . S
C1433 C1432 1.370 . S
C1433 C1437 1.408 . S
C1434 C1432 1.363 . S
C1434 C1435 1.370 . S
C1434 C1438 1.524 . S
C1435 C1427 1.503 . S
C1435 C1434 1.370 . S
C1435 C1436 1.403 . S
C1436 C1435 1.403 . S
C1436 C1437 1.404 . S
C1436 C1439 1.539 . S
C1437 C1433 1.408 . S
C1437 C1436 1.404 . S
C1437 H1449 0.930 . S
C1438 C1434 1.524 . S
C1438 H1450 0.956 . S
C1438 H1451 0.961 . S
C1438 H1452 0.961 . S
C1439 C1436 1.539 . S
C1439 H1453 0.958 . S
C1439 H1454 0.961 . S
C1439 H1455 0.960 . S
H1440 C1424 0.931 . S
H1441 C1429 0.929 . S
H1442 C1430 0.960 . S
H1443 C1430 0.962 . S
H1444 C1430 0.960 . S
H1445 C1431 0.961 . S
H1446 C1431 0.961 . S
H1447 C1431 0.961 . S
H1448 C1432 0.931 . S
H1449 C1437 0.930 . S
H1450 C1438 0.956 . S
H1451 C1438 0.961 . S
H1452 C1438 0.961 . S
H1453 C1439 0.958 . S
H1454 C1439 0.961 . S
H1455 C1439 0.960 . S
C1456 C1457 1.391 . S
C1456 C1458 1.394 . S
C1456 H1472 0.931 . S
C1457 C1456 1.391 . S
C1457 C1461 1.376 . S
C1458 C1456 1.394 . S
C1458 C1459 1.369 . S
C1458 C1462 1.531 . S
C1459 C1458 1.369 . S
C1459 C1460 1.410 . S
C1459 C1467 1.503 . S
C1460 C1459 1.410 . S
C1460 C1461 1.392 . S
C1460 C1463 1.511 . S
C1461 C1457 1.376 . S
C1461 C1460 1.392 . S
C1461 H1473 0.929 . S
C1462 C1458 1.531 . S
C1462 H1474 0.960 . S
C1462 H1475 0.962 . S
C1462 H1476 0.960 . S
C1463 C1460 1.511 . S
C1463 H1477 0.961 . S
C1463 H1478 0.961 . S
C1463 H1479 0.961 . S
C1464 C1465 1.370 . S
C1464 C1466 1.363 . S
C1464 H1480 0.931 . S
C1465 C1464 1.370 . S
C1465 C1469 1.408 . S
C1466 C1464 1.363 . S
C1466 C1467 1.370 . S
C1466 C1470 1.524 . S
C1467 C1459 1.503 . S
C1467 C1466 1.370 . S
C1467 C1468 1.403 . S
C1468 C1467 1.403 . S
C1468 C1469 1.404 . S
C1468 C1471 1.539 . S
C1469 C1465 1.408 . S
C1469 C1468 1.404 . S
C1469 H1481 0.930 . S
C1470 C1466 1.524 . S
C1470 H1482 0.956 . S
C1470 H1483 0.961 . S
C1470 H1484 0.961 . S
C1471 C1468 1.539 . S
C1471 H1485 0.958 . S
C1471 H1486 0.961 . S
C1471 H1487 0.960 . S
H1472 C1456 0.931 . S
H1473 C1461 0.929 . S
H1474 C1462 0.960 . S
H1475 C1462 0.962 . S
H1476 C1462 0.960 . S
H1477 C1463 0.961 . S
H1478 C1463 0.961 . S
H1479 C1463 0.961 . S
H1480 C1464 0.931 . S
H1481 C1469 0.930 . S
H1482 C1470 0.956 . S
H1483 C1470 0.961 . S
H1484 C1470 0.961 . S
H1485 C1471 0.958 . S
H1486 C1471 0.961 . S
H1487 C1471 0.960 . S
C1488 C1489 1.391 . S
C1488 C1490 1.394 . S
C1488 H1504 0.931 . S
C1489 C1488 1.391 . S
C1489 C1493 1.376 . S
C1490 C1488 1.394 . S
C1490 C1491 1.369 . S
C1490 C1494 1.531 . S
C1491 C1490 1.369 . S
C1491 C1492 1.410 . S
C1491 C1499 1.503 . S
C1492 C1491 1.410 . S
C1492 C1493 1.392 . S
C1492 C1495 1.511 . S
C1493 C1489 1.376 . S
C1493 C1492 1.392 . S
C1493 H1505 0.929 . S
C1494 C1490 1.531 . S
C1494 H1506 0.960 . S
C1494 H1507 0.962 . S
C1494 H1508 0.960 . S
C1495 C1492 1.511 . S
C1495 H1509 0.961 . S
C1495 H1510 0.961 . S
C1495 H1511 0.961 . S
C1496 C1497 1.370 . S
C1496 C1498 1.363 . S
C1496 H1512 0.931 . S
C1497 C1496 1.370 . S
C1497 C1501 1.408 . S
C1498 C1496 1.363 . S
C1498 C1499 1.370 . S
C1498 C1502 1.524 . S
C1499 C1491 1.503 . S
C1499 C1498 1.370 . S
C1499 C1500 1.403 . S
C1500 C1499 1.403 . S
C1500 C1501 1.404 . S
C1500 C1503 1.539 . S
C1501 C1497 1.408 . S
C1501 C1500 1.404 . S
C1501 H1513 0.930 . S
C1502 C1498 1.524 . S
C1502 H1514 0.956 . S
C1502 H1515 0.961 . S
C1502 H1516 0.961 . S
C1503 C1500 1.539 . S
C1503 H1517 0.958 . S
C1503 H1518 0.961 . S
C1503 H1519 0.960 . S
H1504 C1488 0.931 . S
H1505 C1493 0.929 . S
H1506 C1494 0.960 . S
H1507 C1494 0.962 . S
H1508 C1494 0.960 . S
H1509 C1495 0.961 . S
H1510 C1495 0.961 . S
H1511 C1495 0.961 . S
H1512 C1496 0.931 . S
H1513 C1501 0.930 . S
H1514 C1502 0.956 . S
H1515 C1502 0.961 . S
H1516 C1502 0.961 . S
H1517 C1503 0.958 . S
H1518 C1503 0.961 . S
H1519 C1503 0.960 . S
C1520 C1521 1.391 . S
C1520 C1522 1.394 . S
C1520 H1536 0.931 . S
C1521 C1520 1.391 . S
C1521 C1525 1.376 . S
C1522 C1520 1.394 . S
C1522 C1523 1.369 . S
C1522 C1526 1.531 . S
C1523 C1522 1.369 . S
C1523 C1524 1.410 . S
C1523 C1531 1.503 . S
C1524 C1523 1.410 . S
C1524 C1525 1.392 . S
C1524 C1527 1.511 . S
C1525 C1521 1.376 . S
C1525 C1524 1.392 . S
C1525 H1537 0.929 . S
C1526 C1522 1.531 . S
C1526 H1538 0.960 . S
C1526 H1539 0.962 . S
C1526 H1540 0.960 . S
C1527 C1524 1.511 . S
C1527 H1541 0.961 . S
C1527 H1542 0.961 . S
C1527 H1543 0.961 . S
C1528 C1529 1.370 . S
C1528 C1530 1.363 . S
C1528 H1544 0.931 . S
C1529 C1528 1.370 . S
C1529 C1533 1.408 . S
C1530 C1528 1.363 . S
C1530 C1531 1.370 . S
C1530 C1534 1.524 . S
C1531 C1523 1.503 . S
C1531 C1530 1.370 . S
C1531 C1532 1.403 . S
C1532 C1531 1.403 . S
C1532 C1533 1.404 . S
C1532 C1535 1.539 . S
C1533 C1529 1.408 . S
C1533 C1532 1.404 . S
C1533 H1545 0.930 . S
C1534 C1530 1.524 . S
C1534 H1546 0.956 . S
C1534 H1547 0.961 . S
C1534 H1548 0.961 . S
C1535 C1532 1.539 . S
C1535 H1549 0.958 . S
C1535 H1550 0.961 . S
C1535 H1551 0.960 . S
H1536 C1520 0.931 . S
H1537 C1525 0.929 . S
H1538 C1526 0.960 . S
H1539 C1526 0.962 . S
H1540 C1526 0.960 . S
H1541 C1527 0.961 . S
H1542 C1527 0.961 . S
H1543 C1527 0.961 . S
H1544 C1528 0.931 . S
H1545 C1533 0.930 . S
H1546 C1534 0.956 . S
H1547 C1534 0.961 . S
H1548 C1534 0.961 . S
H1549 C1535 0.958 . S
H1550 C1535 0.961 . S
H1551 C1535 0.960 . S
C1552 C1553 1.391 . S
C1552 C1554 1.394 . S
C1552 H1568 0.931 . S
C1553 C1552 1.391 . S
C1553 C1557 1.376 . S
C1554 C1552 1.394 . S
C1554 C1555 1.369 . S
C1554 C1558 1.531 . S
C1555 C1554 1.369 . S
C1555 C1556 1.410 . S
C1555 C1563 1.503 . S
C1556 C1555 1.410 . S
C1556 C1557 1.392 . S
C1556 C1559 1.511 . S
C1557 C1553 1.376 . S
C1557 C1556 1.392 . S
C1557 H1569 0.929 . S
C1558 C1554 1.531 . S
C1558 H1570 0.960 . S
C1558 H1571 0.962 . S
C1558 H1572 0.960 . S
C1559 C1556 1.511 . S
C1559 H1573 0.961 . S
C1559 H1574 0.961 . S
C1559 H1575 0.961 . S
C1560 C1561 1.370 . S
C1560 C1562 1.363 . S
C1560 H1576 0.931 . S
C1561 C1560 1.370 . S
C1561 C1565 1.408 . S
C1562 C1560 1.363 . S
C1562 C1563 1.370 . S
C1562 C1566 1.524 . S
C1563 C1555 1.503 . S
C1563 C1562 1.370 . S
C1563 C1564 1.403 . S
C1564 C1563 1.403 . S
C1564 C1565 1.404 . S
C1564 C1567 1.539 . S
C1565 C1561 1.408 . S
C1565 C1564 1.404 . S
C1565 H1577 0.930 . S
C1566 C1562 1.524 . S
C1566 H1578 0.956 . S
C1566 H1579 0.961 . S
C1566 H1580 0.961 . S
C1567 C1564 1.539 . S
C1567 H1581 0.958 . S
C1567 H1582 0.961 . S
C1567 H1583 0.960 . S
H1568 C1552 0.931 . S
H1569 C1557 0.929 . S
H1570 C1558 0.960 . S
H1571 C1558 0.962 . S
H1572 C1558 0.960 . S
H1573 C1559 0.961 . S
H1574 C1559 0.961 . S
H1575 C1559 0.961 . S
H1576 C1560 0.931 . S
H1577 C1565 0.930 . S
H1578 C1566 0.956 . S
H1579 C1566 0.961 . S
H1580 C1566 0.961 . S
H1581 C1567 0.958 . S
H1582 C1567 0.961 . S
H1583 C1567 0.960 . S
C1584 C1585 1.391 . S
C1584 C1586 1.394 . S
C1584 H1600 0.931 . S
C1585 C1584 1.391 . S
C1585 C1589 1.376 . S
C1586 C1584 1.394 . S
C1586 C1587 1.369 . S
C1586 C1590 1.531 . S
C1587 C1586 1.369 . S
C1587 C1588 1.410 . S
C1587 C1595 1.503 . S
C1588 C1587 1.410 . S
C1588 C1589 1.392 . S
C1588 C1591 1.511 . S
C1589 C1585 1.376 . S
C1589 C1588 1.392 . S
C1589 H1601 0.929 . S
C1590 C1586 1.531 . S
C1590 H1602 0.960 . S
C1590 H1603 0.962 . S
C1590 H1604 0.960 . S
C1591 C1588 1.511 . S
C1591 H1605 0.961 . S
C1591 H1606 0.961 . S
C1591 H1607 0.961 . S
C1592 C1593 1.370 . S
C1592 C1594 1.363 . S
C1592 H1608 0.931 . S
C1593 C1592 1.370 . S
C1593 C1597 1.408 . S
C1594 C1592 1.363 . S
C1594 C1595 1.370 . S
C1594 C1598 1.524 . S
C1595 C1587 1.503 . S
C1595 C1594 1.370 . S
C1595 C1596 1.403 . S
C1596 C1595 1.403 . S
C1596 C1597 1.404 . S
C1596 C1599 1.539 . S
C1597 C1593 1.408 . S
C1597 C1596 1.404 . S
C1597 H1609 0.930 . S
C1598 C1594 1.524 . S
C1598 H1610 0.956 . S
C1598 H1611 0.961 . S
C1598 H1612 0.961 . S
C1599 C1596 1.539 . S
C1599 H1613 0.958 . S
C1599 H1614 0.961 . S
C1599 H1615 0.960 . S
H1600 C1584 0.931 . S
H1601 C1589 0.929 . S
H1602 C1590 0.960 . S
H1603 C1590 0.962 . S
H1604 C1590 0.960 . S
H1605 C1591 0.961 . S
H1606 C1591 0.961 . S
H1607 C1591 0.961 . S
H1608 C1592 0.931 . S
H1609 C1597 0.930 . S
H1610 C1598 0.956 . S
H1611 C1598 0.961 . S
H1612 C1598 0.961 . S
H1613 C1599 0.958 . S
H1614 C1599 0.961 . S
H1615 C1599 0.960 . S
C1616 C1617 1.391 . S
C1616 C1618 1.394 . S
C1616 H1632 0.931 . S
C1617 C1616 1.391 . S
C1617 C1621 1.376 . S
C1618 C1616 1.394 . S
C1618 C1619 1.369 . S
C1618 C1622 1.531 . S
C1619 C1618 1.369 . S
C1619 C1620 1.410 . S
C1619 C1627 1.503 . S
C1620 C1619 1.410 . S
C1620 C1621 1.392 . S
C1620 C1623 1.511 . S
C1621 C1617 1.376 . S
C1621 C1620 1.392 . S
C1621 H1633 0.929 . S
C1622 C1618 1.531 . S
C1622 H1634 0.960 . S
C1622 H1635 0.962 . S
C1622 H1636 0.960 . S
C1623 C1620 1.511 . S
C1623 H1637 0.961 . S
C1623 H1638 0.961 . S
C1623 H1639 0.961 . S
C1624 C1625 1.370 . S
C1624 C1626 1.363 . S
C1624 H1640 0.931 . S
C1625 C1624 1.370 . S
C1625 C1629 1.408 . S
C1626 C1624 1.363 . S
C1626 C1627 1.370 . S
C1626 C1630 1.524 . S
C1627 C1619 1.503 . S
C1627 C1626 1.370 . S
C1627 C1628 1.403 . S
C1628 C1627 1.403 . S
C1628 C1629 1.404 . S
C1628 C1631 1.539 . S
C1629 C1625 1.408 . S
C1629 C1628 1.404 . S
C1629 H1641 0.930 . S
C1630 C1626 1.524 . S
C1630 H1642 0.956 . S
C1630 H1643 0.961 . S
C1630 H1644 0.961 . S
C1631 C1628 1.539 . S
C1631 H1645 0.958 . S
C1631 H1646 0.961 . S
C1631 H1647 0.960 . S
H1632 C1616 0.931 . S
H1633 C1621 0.929 . S
H1634 C1622 0.960 . S
H1635 C1622 0.962 . S
H1636 C1622 0.960 . S
H1637 C1623 0.961 . S
H1638 C1623 0.961 . S
H1639 C1623 0.961 . S
H1640 C1624 0.931 . S
H1641 C1629 0.930 . S
H1642 C1630 0.956 . S
H1643 C1630 0.961 . S
H1644 C1630 0.961 . S
H1645 C1631 0.958 . S
H1646 C1631 0.961 . S
H1647 C1631 0.960 . S
C1648 C1649 1.391 . S
C1648 C1650 1.394 . S
C1648 H1664 0.931 . S
C1649 C1648 1.391 . S
C1649 C1653 1.376 . S
C1650 C1648 1.394 . S
C1650 C1651 1.369 . S
C1650 C1654 1.531 . S
C1651 C1650 1.369 . S
C1651 C1652 1.410 . S
C1651 C1659 1.503 . S
C1652 C1651 1.410 . S
C1652 C1653 1.392 . S
C1652 C1655 1.511 . S
C1653 C1649 1.376 . S
C1653 C1652 1.392 . S
C1653 H1665 0.929 . S
C1654 C1650 1.531 . S
C1654 H1666 0.960 . S
C1654 H1667 0.962 . S
C1654 H1668 0.960 . S
C1655 C1652 1.511 . S
C1655 H1669 0.961 . S
C1655 H1670 0.961 . S
C1655 H1671 0.961 . S
C1656 C1657 1.370 . S
C1656 C1658 1.363 . S
C1656 H1672 0.931 . S
C1657 C1656 1.370 . S
C1657 C1661 1.408 . S
C1658 C1656 1.363 . S
C1658 C1659 1.370 . S
C1658 C1662 1.524 . S
C1659 C1651 1.503 . S
C1659 C1658 1.370 . S
C1659 C1660 1.403 . S
C1660 C1659 1.403 . S
C1660 C1661 1.404 . S
C1660 C1663 1.539 . S
C1661 C1657 1.408 . S
C1661 C1660 1.404 . S
C1661 H1673 0.930 . S
C1662 C1658 1.524 . S
C1662 H1674 0.956 . S
C1662 H1675 0.961 . S
C1662 H1676 0.961 . S
C1663 C1660 1.539 . S
C1663 H1677 0.958 . S
C1663 H1678 0.961 . S
C1663 H1679 0.960 . S
H1664 C1648 0.931 . S
H1665 C1653 0.929 . S
H1666 C1654 0.960 . S
H1667 C1654 0.962 . S
H1668 C1654 0.960 . S
H1669 C1655 0.961 . S
H1670 C1655 0.961 . S
H1671 C1655 0.961 . S
H1672 C1656 0.931 . S
H1673 C1661 0.930 . S
H1674 C1662 0.956 . S
H1675 C1662 0.961 . S
H1676 C1662 0.961 . S
H1677 C1663 0.958 . S
H1678 C1663 0.961 . S
H1679 C1663 0.960 . S
C1680 C1681 1.391 . S
C1680 C1682 1.394 . S
C1680 H1696 0.931 . S
C1681 C1680 1.391 . S
C1681 C1685 1.376 . S
C1682 C1680 1.394 . S
C1682 C1683 1.369 . S
C1682 C1686 1.531 . S
C1683 C1682 1.369 . S
C1683 C1684 1.410 . S
C1683 C1691 1.503 . S
C1684 C1683 1.410 . S
C1684 C1685 1.392 . S
C1684 C1687 1.511 . S
C1685 C1681 1.376 . S
C1685 C1684 1.392 . S
C1685 H1697 0.929 . S
C1686 C1682 1.531 . S
C1686 H1698 0.960 . S
C1686 H1699 0.962 . S
C1686 H1700 0.960 . S
C1687 C1684 1.511 . S
C1687 H1701 0.961 . S
C1687 H1702 0.961 . S
C1687 H1703 0.961 . S
C1688 C1689 1.370 . S
C1688 C1690 1.363 . S
C1688 H1704 0.931 . S
C1689 C1688 1.370 . S
C1689 C1693 1.408 . S
C1690 C1688 1.363 . S
C1690 C1691 1.370 . S
C1690 C1694 1.524 . S
C1691 C1683 1.503 . S
C1691 C1690 1.370 . S
C1691 C1692 1.403 . S
C1692 C1691 1.403 . S
C1692 C1693 1.404 . S
C1692 C1695 1.539 . S
C1693 C1689 1.408 . S
C1693 C1692 1.404 . S
C1693 H1705 0.930 . S
C1694 C1690 1.524 . S
C1694 H1706 0.956 . S
C1694 H1707 0.961 . S
C1694 H1708 0.961 . S
C1695 C1692 1.539 . S
C1695 H1709 0.958 . S
C1695 H1710 0.961 . S
C1695 H1711 0.960 . S
H1696 C1680 0.931 . S
H1697 C1685 0.929 . S
H1698 C1686 0.960 . S
H1699 C1686 0.962 . S
H1700 C1686 0.960 . S
H1701 C1687 0.961 . S
H1702 C1687 0.961 . S
H1703 C1687 0.961 . S
H1704 C1688 0.931 . S
H1705 C1693 0.930 . S
H1706 C1694 0.956 . S
H1707 C1694 0.961 . S
H1708 C1694 0.961 . S
H1709 C1695 0.958 . S
H1710 C1695 0.961 . S
H1711 C1695 0.960 . S
C1712 C1713 1.391 . S
C1712 C1714 1.394 . S
C1712 H1728 0.931 . S
C1713 C1712 1.391 . S
C1713 C1717 1.376 . S
C1714 C1712 1.394 . S
C1714 C1715 1.369 . S
C1714 C1718 1.531 . S
C1715 C1714 1.369 . S
C1715 C1716 1.410 . S
C1715 C1723 1.503 . S
C1716 C1715 1.410 . S
C1716 C1717 1.392 . S
C1716 C1719 1.511 . S
C1717 C1713 1.376 . S
C1717 C1716 1.392 . S
C1717 H1729 0.929 . S
C1718 C1714 1.531 . S
C1718 H1730 0.960 . S
C1718 H1731 0.962 . S
C1718 H1732 0.960 . S
C1719 C1716 1.511 . S
C1719 H1733 0.961 . S
C1719 H1734 0.961 . S
C1719 H1735 0.961 . S
C1720 C1721 1.370 . S
C1720 C1722 1.363 . S
C1720 H1736 0.931 . S
C1721 C1720 1.370 . S
C1721 C1725 1.408 . S
C1722 C1720 1.363 . S
C1722 C1723 1.370 . S
C1722 C1726 1.524 . S
C1723 C1715 1.503 . S
C1723 C1722 1.370 . S
C1723 C1724 1.403 . S
C1724 C1723 1.403 . S
C1724 C1725 1.404 . S
C1724 C1727 1.539 . S
C1725 C1721 1.408 . S
C1725 C1724 1.404 . S
C1725 H1737 0.930 . S
C1726 C1722 1.524 . S
C1726 H1738 0.956 . S
C1726 H1739 0.961 . S
C1726 H1740 0.961 . S
C1727 C1724 1.539 . S
C1727 H1741 0.958 . S
C1727 H1742 0.961 . S
C1727 H1743 0.960 . S
H1728 C1712 0.931 . S
H1729 C1717 0.929 . S
H1730 C1718 0.960 . S
H1731 C1718 0.962 . S
H1732 C1718 0.960 . S
H1733 C1719 0.961 . S
H1734 C1719 0.961 . S
H1735 C1719 0.961 . S
H1736 C1720 0.931 . S
H1737 C1725 0.930 . S
H1738 C1726 0.956 . S
H1739 C1726 0.961 . S
H1740 C1726 0.961 . S
H1741 C1727 0.958 . S
H1742 C1727 0.961 . S
H1743 C1727 0.960 . S
C1744 C1745 1.391 . S
C1744 C1746 1.394 . S
C1744 H1760 0.931 . S
C1745 C1744 1.391 . S
C1745 C1749 1.376 . S
C1746 C1744 1.394 . S
C1746 C1747 1.369 . S
C1746 C1750 1.531 . S
C1747 C1746 1.369 . S
C1747 C1748 1.410 . S
C1747 C1755 1.503 . S
C1748 C1747 1.410 . S
C1748 C1749 1.392 . S
C1748 C1751 1.511 . S
C1749 C1745 1.376 . S
C1749 C1748 1.392 . S
C1749 H1761 0.929 . S
C1750 C1746 1.531 . S
C1750 H1762 0.960 . S
C1750 H1763 0.962 . S
C1750 H1764 0.960 . S
C1751 C1748 1.511 . S
C1751 H1765 0.961 . S
C1751 H1766 0.961 . S
C1751 H1767 0.961 . S
C1752 C1753 1.370 . S
C1752 C1754 1.363 . S
C1752 H1768 0.931 . S
C1753 C1752 1.370 . S
C1753 C1757 1.408 . S
C1754 C1752 1.363 . S
C1754 C1755 1.370 . S
C1754 C1758 1.524 . S
C1755 C1747 1.503 . S
C1755 C1754 1.370 . S
C1755 C1756 1.403 . S
C1756 C1755 1.403 . S
C1756 C1757 1.404 . S
C1756 C1759 1.539 . S
C1757 C1753 1.408 . S
C1757 C1756 1.404 . S
C1757 H1769 0.930 . S
C1758 C1754 1.524 . S
C1758 H1770 0.956 . S
C1758 H1771 0.961 . S
C1758 H1772 0.961 . S
C1759 C1756 1.539 . S
C1759 H1773 0.958 . S
C1759 H1774 0.961 . S
C1759 H1775 0.960 . S
H1760 C1744 0.931 . S
H1761 C1749 0.929 . S
H1762 C1750 0.960 . S
H1763 C1750 0.962 . S
H1764 C1750 0.960 . S
H1765 C1751 0.961 . S
H1766 C1751 0.961 . S
H1767 C1751 0.961 . S
H1768 C1752 0.931 . S
H1769 C1757 0.930 . S
H1770 C1758 0.956 . S
H1771 C1758 0.961 . S
H1772 C1758 0.961 . S
H1773 C1759 0.958 . S
H1774 C1759 0.961 . S
H1775 C1759 0.960 . S
C1776 C1777 1.391 . S
C1776 C1778 1.394 . S
C1776 H1792 0.931 . S
C1777 C1776 1.391 . S
C1777 C1781 1.376 . S
C1778 C1776 1.394 . S
C1778 C1779 1.369 . S
C1778 C1782 1.531 . S
C1779 C1778 1.369 . S
C1779 C1780 1.410 . S
C1779 C1787 1.503 . S
C1780 C1779 1.410 . S
C1780 C1781 1.392 . S
C1780 C1783 1.511 . S
C1781 C1777 1.376 . S
C1781 C1780 1.392 . S
C1781 H1793 0.929 . S
C1782 C1778 1.531 . S
C1782 H1794 0.960 . S
C1782 H1795 0.962 . S
C1782 H1796 0.960 . S
C1783 C1780 1.511 . S
C1783 H1797 0.961 . S
C1783 H1798 0.961 . S
C1783 H1799 0.961 . S
C1784 C1785 1.370 . S
C1784 C1786 1.363 . S
C1784 H1800 0.931 . S
C1785 C1784 1.370 . S
C1785 C1789 1.408 . S
C1786 C1784 1.363 . S
C1786 C1787 1.370 . S
C1786 C1790 1.524 . S
C1787 C1779 1.503 . S
C1787 C1786 1.370 . S
C1787 C1788 1.403 . S
C1788 C1787 1.403 . S
C1788 C1789 1.404 . S
C1788 C1791 1.539 . S
C1789 C1785 1.408 . S
C1789 C1788 1.404 . S
C1789 H1801 0.930 . S
C1790 C1786 1.524 . S
C1790 H1802 0.956 . S
C1790 H1803 0.961 . S
C1790 H1804 0.961 . S
C1791 C1788 1.539 . S
C1791 H1805 0.958 . S
C1791 H1806 0.961 . S
C1791 H1807 0.960 . S
H1792 C1776 0.931 . S
H1793 C1781 0.929 . S
H1794 C1782 0.960 . S
H1795 C1782 0.962 . S
H1796 C1782 0.960 . S
H1797 C1783 0.961 . S
H1798 C1783 0.961 . S
H1799 C1783 0.961 . S
H1800 C1784 0.931 . S
H1801 C1789 0.930 . S
H1802 C1790 0.956 . S
H1803 C1790 0.961 . S
H1804 C1790 0.961 . S
H1805 C1791 0.958 . S
H1806 C1791 0.961 . S
H1807 C1791 0.960 . S
C1808 C1809 1.391 . S
C1808 C1810 1.394 . S
C1808 H1824 0.931 . S
C1809 C1808 1.391 . S
C1809 C1813 1.376 . S
C1810 C1808 1.394 . S
C1810 C1811 1.369 . S
C1810 C1814 1.531 . S
C1811 C1810 1.369 . S
C1811 C1812 1.410 . S
C1811 C1819 1.503 . S
C1812 C1811 1.410 . S
C1812 C1813 1.392 . S
C1812 C1815 1.511 . S
C1813 C1809 1.376 . S
C1813 C1812 1.392 . S
C1813 H1825 0.929 . S
C1814 C1810 1.531 . S
C1814 H1826 0.960 . S
C1814 H1827 0.962 . S
C1814 H1828 0.960 . S
C1815 C1812 1.511 . S
C1815 H1829 0.961 . S
C1815 H1830 0.961 . S
C1815 H1831 0.961 . S
C1816 C1817 1.370 . S
C1816 C1818 1.363 . S
C1816 H1832 0.931 . S
C1817 C1816 1.370 . S
C1817 C1821 1.408 . S
C1818 C1816 1.363 . S
C1818 C1819 1.370 . S
C1818 C1822 1.524 . S
C1819 C1811 1.503 . S
C1819 C1818 1.370 . S
C1819 C1820 1.403 . S
C1820 C1819 1.403 . S
C1820 C1821 1.404 . S
C1820 C1823 1.539 . S
C1821 C1817 1.408 . S
C1821 C1820 1.404 . S
C1821 H1833 0.930 . S
C1822 C1818 1.524 . S
C1822 H1834 0.956 . S
C1822 H1835 0.961 . S
C1822 H1836 0.961 . S
C1823 C1820 1.539 . S
C1823 H1837 0.958 . S
C1823 H1838 0.961 . S
C1823 H1839 0.960 . S
H1824 C1808 0.931 . S
H1825 C1813 0.929 . S
H1826 C1814 0.960 . S
H1827 C1814 0.962 . S
H1828 C1814 0.960 . S
H1829 C1815 0.961 . S
H1830 C1815 0.961 . S
H1831 C1815 0.961 . S
H1832 C1816 0.931 . S
H1833 C1821 0.930 . S
H1834 C1822 0.956 . S
H1835 C1822 0.961 . S
H1836 C1822 0.961 . S
H1837 C1823 0.958 . S
H1838 C1823 0.961 . S
H1839 C1823 0.960 . S
C1840 C1841 1.391 . S
C1840 C1842 1.394 . S
C1840 H1856 0.931 . S
C1841 C1840 1.391 . S
C1841 C1845 1.376 . S
C1842 C1840 1.394 . S
C1842 C1843 1.369 . S
C1842 C1846 1.531 . S
C1843 C1842 1.369 . S
C1843 C1844 1.410 . S
C1843 C1851 1.503 . S
C1844 C1843 1.410 . S
C1844 C1845 1.392 . S
C1844 C1847 1.511 . S
C1845 C1841 1.376 . S
C1845 C1844 1.392 . S
C1845 H1857 0.929 . S
C1846 C1842 1.531 . S
C1846 H1858 0.960 . S
C1846 H1859 0.962 . S
C1846 H1860 0.960 . S
C1847 C1844 1.511 . S
C1847 H1861 0.961 . S
C1847 H1862 0.961 . S
C1847 H1863 0.961 . S
C1848 C1849 1.370 . S
C1848 C1850 1.363 . S
C1848 H1864 0.931 . S
C1849 C1848 1.370 . S
C1849 C1853 1.408 . S
C1850 C1848 1.363 . S
C1850 C1851 1.370 . S
C1850 C1854 1.524 . S
C1851 C1843 1.503 . S
C1851 C1850 1.370 . S
C1851 C1852 1.403 . S
C1852 C1851 1.403 . S
C1852 C1853 1.404 . S
C1852 C1855 1.539 . S
C1853 C1849 1.408 . S
C1853 C1852 1.404 . S
C1853 H1865 0.930 . S
C1854 C1850 1.524 . S
C1854 H1866 0.956 . S
C1854 H1867 0.961 . S
C1854 H1868 0.961 . S
C1855 C1852 1.539 . S
C1855 H1869 0.958 . S
C1855 H1870 0.961 . S
C1855 H1871 0.960 . S
H1856 C1840 0.931 . S
H1857 C1845 0.929 . S
H1858 C1846 0.960 . S
H1859 C1846 0.962 . S
H1860 C1846 0.960 . S
H1861 C1847 0.961 . S
H1862 C1847 0.961 . S
H1863 C1847 0.961 . S
H1864 C1848 0.931 . S
H1865 C1853 0.930 . S
H1866 C1854 0.956 . S
H1867 C1854 0.961 . S
H1868 C1854 0.961 . S
H1869 C1855 0.958 . S
H1870 C1855 0.961 . S
H1871 C1855 0.960 . S
C1872 C1873 1.391 . S
C1872 C1874 1.394 . S
C1872 H1888 0.931 . S
C1873 C1872 1.391 . S
C1873 C1877 1.376 . S
C1874 C1872 1.394 . S
C1874 C1875 1.369 . S
C1874 C1878 1.531 . S
C1875 C1874 1.369 . S
C1875 C1876 1.410 . S
C1875 C1883 1.503 . S
C1876 C1875 1.410 . S
C1876 C1877 1.392 . S
C1876 C1879 1.511 . S
C1877 C1873 1.376 . S
C1877 C1876 1.392 . S
C1877 H1889 0.929 . S
C1878 C1874 1.531 . S
C1878 H1890 0.960 . S
C1878 H1891 0.962 . S
C1878 H1892 0.960 . S
C1879 C1876 1.511 . S
C1879 H1893 0.961 . S
C1879 H1894 0.961 . S
C1879 H1895 0.961 . S
C1880 C1881 1.370 . S
C1880 C1882 1.363 . S
C1880 H1896 0.931 . S
C1881 C1880 1.370 . S
C1881 C1885 1.408 . S
C1882 C1880 1.363 . S
C1882 C1883 1.370 . S
C1882 C1886 1.524 . S
C1883 C1875 1.503 . S
C1883 C1882 1.370 . S
C1883 C1884 1.403 . S
C1884 C1883 1.403 . S
C1884 C1885 1.404 . S
C1884 C1887 1.539 . S
C1885 C1881 1.408 . S
C1885 C1884 1.404 . S
C1885 H1897 0.930 . S
C1886 C1882 1.524 . S
C1886 H1898 0.956 . S
C1886 H1899 0.961 . S
C1886 H1900 0.961 . S
C1887 C1884 1.539 . S
C1887 H1901 0.958 . S
C1887 H1902 0.961 . S
C1887 H1903 0.960 . S
H1888 C1872 0.931 . S
H1889 C1877 0.929 . S
H1890 C1878 0.960 . S
H1891 C1878 0.962 . S
H1892 C1878 0.960 . S
H1893 C1879 0.961 . S
H1894 C1879 0.961 . S
H1895 C1879 0.961 . S
H1896 C1880 0.931 . S
H1897 C1885 0.930 . S
H1898 C1886 0.956 . S
H1899 C1886 0.961 . S
H1900 C1886 0.961 . S
H1901 C1887 0.958 . S
H1902 C1887 0.961 . S
H1903 C1887 0.960 . S
C1904 C1905 1.391 . S
C1904 C1906 1.394 . S
C1904 H1920 0.931 . S
C1905 C1904 1.391 . S
C1905 C1909 1.376 . S
C1906 C1904 1.394 . S
C1906 C1907 1.369 . S
C1906 C1910 1.531 . S
C1907 C1906 1.369 . S
C1907 C1908 1.410 . S
C1907 C1915 1.503 . S
C1908 C1907 1.410 . S
C1908 C1909 1.392 . S
C1908 C1911 1.511 . S
C1909 C1905 1.376 . S
C1909 C1908 1.392 . S
C1909 H1921 0.929 . S
C1910 C1906 1.531 . S
C1910 H1922 0.960 . S
C1910 H1923 0.962 . S
C1910 H1924 0.960 . S
C1911 C1908 1.511 . S
C1911 H1925 0.961 . S
C1911 H1926 0.961 . S
C1911 H1927 0.961 . S
C1912 C1913 1.370 . S
C1912 C1914 1.363 . S
C1912 H1928 0.931 . S
C1913 C1912 1.370 . S
C1913 C1917 1.408 . S
C1914 C1912 1.363 . S
C1914 C1915 1.370 . S
C1914 C1918 1.524 . S
C1915 C1907 1.503 . S
C1915 C1914 1.370 . S
C1915 C1916 1.403 . S
C1916 C1915 1.403 . S
C1916 C1917 1.404 . S
C1916 C1919 1.539 . S
C1917 C1913 1.408 . S
C1917 C1916 1.404 . S
C1917 H1929 0.930 . S
C1918 C1914 1.524 . S
C1918 H1930 0.956 . S
C1918 H1931 0.961 . S
C1918 H1932 0.961 . S
C1919 C1916 1.539 . S
C1919 H1933 0.958 . S
C1919 H1934 0.961 . S
C1919 H1935 0.960 . S
H1920 C1904 0.931 . S
H1921 C1909 0.929 . S
H1922 C1910 0.960 . S
H1923 C1910 0.962 . S
H1924 C1910 0.960 . S
H1925 C1911 0.961 . S
H1926 C1911 0.961 . S
H1927 C1911 0.961 . S
H1928 C1912 0.931 . S
H1929 C1917 0.930 . S
H1930 C1918 0.956 . S
H1931 C1918 0.961 . S
H1932 C1918 0.961 . S
H1933 C1919 0.958 . S
H1934 C1919 0.961 . S
H1935 C1919 0.960 . S
C1936 C1937 1.391 . S
C1936 C1938 1.394 . S
C1936 H1952 0.931 . S
C1937 C1936 1.391 . S
C1937 C1941 1.376 . S
C1938 C1936 1.394 . S
C1938 C1939 1.369 . S
C1938 C1942 1.531 . S
C1939 C1938 1.369 . S
C1939 C1940 1.410 . S
C1939 C1947 1.503 . S
C1940 C1939 1.410 . S
C1940 C1941 1.392 . S
C1940 C1943 1.511 . S
C1941 C1937 1.376 . S
C1941 C1940 1.392 . S
C1941 H1953 0.929 . S
C1942 C1938 1.531 . S
C1942 H1954 0.960 . S
C1942 H1955 0.962 . S
C1942 H1956 0.960 . S
C1943 C1940 1.511 . S
C1943 H1957 0.961 . S
C1943 H1958 0.961 . S
C1943 H1959 0.961 . S
C1944 C1945 1.370 . S
C1944 C1946 1.363 . S
C1944 H1960 0.931 . S
C1945 C1944 1.370 . S
C1945 C1949 1.408 . S
C1946 C1944 1.363 . S
C1946 C1947 1.370 . S
C1946 C1950 1.524 . S
C1947 C1939 1.503 . S
C1947 C1946 1.370 . S
C1947 C1948 1.403 . S
C1948 C1947 1.403 . S
C1948 C1949 1.404 . S
C1948 C1951 1.539 . S
C1949 C1945 1.408 . S
C1949 C1948 1.404 . S
C1949 H1961 0.930 . S
C1950 C1946 1.524 . S
C1950 H1962 0.956 . S
C1950 H1963 0.961 . S
C1950 H1964 0.961 . S
C1951 C1948 1.539 . S
C1951 H1965 0.958 . S
C1951 H1966 0.961 . S
C1951 H1967 0.960 . S
H1952 C1936 0.931 . S
H1953 C1941 0.929 . S
H1954 C1942 0.960 . S
H1955 C1942 0.962 . S
H1956 C1942 0.960 . S
H1957 C1943 0.961 . S
H1958 C1943 0.961 . S
H1959 C1943 0.961 . S
H1960 C1944 0.931 . S
H1961 C1949 0.930 . S
H1962 C1950 0.956 . S
H1963 C1950 0.961 . S
H1964 C1950 0.961 . S
H1965 C1951 0.958 . S
H1966 C1951 0.961 . S
H1967 C1951 0.960 . S
C1968 C1969 1.391 . S
C1968 C1970 1.394 . S
C1968 H1984 0.931 . S
C1969 C1968 1.391 . S
C1969 C1973 1.376 . S
C1970 C1968 1.394 . S
C1970 C1971 1.369 . S
C1970 C1974 1.531 . S
C1971 C1970 1.369 . S
C1971 C1972 1.410 . S
C1971 C1979 1.503 . S
C1972 C1971 1.410 . S
C1972 C1973 1.392 . S
C1972 C1975 1.511 . S
C1973 C1969 1.376 . S
C1973 C1972 1.392 . S
C1973 H1985 0.929 . S
C1974 C1970 1.531 . S
C1974 H1986 0.960 . S
C1974 H1987 0.962 . S
C1974 H1988 0.960 . S
C1975 C1972 1.511 . S
C1975 H1989 0.961 . S
C1975 H1990 0.961 . S
C1975 H1991 0.961 . S
C1976 C1977 1.370 . S
C1976 C1978 1.363 . S
C1976 H1992 0.931 . S
C1977 C1976 1.370 . S
C1977 C1981 1.408 . S
C1978 C1976 1.363 . S
C1978 C1979 1.370 . S
C1978 C1982 1.524 . S
C1979 C1971 1.503 . S
C1979 C1978 1.370 . S
C1979 C1980 1.403 . S
C1980 C1979 1.403 . S
C1980 C1981 1.404 . S
C1980 C1983 1.539 . S
C1981 C1977 1.408 . S
C1981 C1980 1.404 . S
C1981 H1993 0.930 . S
C1982 C1978 1.524 . S
C1982 H1994 0.956 . S
C1982 H1995 0.961 . S
C1982 H1996 0.961 . S
C1983 C1980 1.539 . S
C1983 H1997 0.958 . S
C1983 H1998 0.961 . S
C1983 H1999 0.960 . S
H1984 C1968 0.931 . S
H1985 C1973 0.929 . S
H1986 C1974 0.960 . S
H1987 C1974 0.962 . S
H1988 C1974 0.960 . S
H1989 C1975 0.961 . S
H1990 C1975 0.961 . S
H1991 C1975 0.961 . S
H1992 C1976 0.931 . S
H1993 C1981 0.930 . S
H1994 C1982 0.956 . S
H1995 C1982 0.961 . S
H1996 C1982 0.961 . S
H1997 C1983 0.958 . S
H1998 C1983 0.961 . S
H1999 C1983 0.960 . S
C2000 C2001 1.391 . S
C2000 C2002 1.394 . S
C2000 H2016 0.931 . S
C2001 C2000 1.391 . S
C2001 C2005 1.376 . S
C2002 C2000 1.394 . S
C2002 C2003 1.369 . S
C2002 C2006 1.531 . S
C2003 C2002 1.369 . S
C2003 C2004 1.410 . S
C2003 C2011 1.503 . S
C2004 C2003 1.410 . S
C2004 C2005 1.392 . S
C2004 C2007 1.511 . S
C2005 C2001 1.376 . S
C2005 C2004 1.392 . S
C2005 H2017 0.929 . S
C2006 C2002 1.531 . S
C2006 H2018 0.960 . S
C2006 H2019 0.962 . S
C2006 H2020 0.960 . S
C2007 C2004 1.511 . S
C2007 H2021 0.961 . S
C2007 H2022 0.961 . S
C2007 H2023 0.961 . S
C2008 C2009 1.370 . S
C2008 C2010 1.363 . S
C2008 H2024 0.931 . S
C2009 C2008 1.370 . S
C2009 C2013 1.408 . S
C2010 C2008 1.363 . S
C2010 C2011 1.370 . S
C2010 C2014 1.524 . S
C2011 C2003 1.503 . S
C2011 C2010 1.370 . S
C2011 C2012 1.403 . S
C2012 C2011 1.403 . S
C2012 C2013 1.404 . S
C2012 C2015 1.539 . S
C2013 C2009 1.408 . S
C2013 C2012 1.404 . S
C2013 H2025 0.930 . S
C2014 C2010 1.524 . S
C2014 H2026 0.956 . S
C2014 H2027 0.961 . S
C2014 H2028 0.961 . S
C2015 C2012 1.539 . S
C2015 H2029 0.958 . S
C2015 H2030 0.961 . S
C2015 H2031 0.960 . S
H2016 C2000 0.931 . S
H2017 C2005 0.929 . S
H2018 C2006 0.960 . S
H2019 C2006 0.962 . S
H2020 C2006 0.960 . S
H2021 C2007 0.961 . S
H2022 C2007 0.961 . S
H2023 C2007 0.961 . S
H2024 C2008 0.931 . S
H2025 C2013 0.930 . S
H2026 C2014 0.956 . S
H2027 C2014 0.961 . S
H2028 C2014 0.961 . S
H2029 C2015 0.958 . S
H2030 C2015 0.961 . S
H2031 C2015 0.960 . S
C2032 C2033 1.391 . S
C2032 C2034 1.394 . S
C2032 H2048 0.931 . S
C2033 C2032 1.391 . S
C2033 C2037 1.376 . S
C2034 C2032 1.394 . S
C2034 C2035 1.369 . S
C2034 C2038 1.531 . S
C2035 C2034 1.369 . S
C2035 C2036 1.410 . S
C2035 C2043 1.503 . S
C2036 C2035 1.410 . S
C2036 C2037 1.392 . S
C2036 C2039 1.511 . S
C2037 C2033 1.376 . S
C2037 C2036 1.392 . S
C2037 H2049 0.929 . S
C2038 C2034 1.531 . S
C2038 H2050 0.960 . S
C2038 H2051 0.962 . S
C2038 H2052 0.960 . S
C2039 C2036 1.511 . S
C2039 H2053 0.961 . S
C2039 H2054 0.961 . S
C2039 H2055 0.961 . S
C2040 C2041 1.370 . S
C2040 C2042 1.363 . S
C2040 H2056 0.931 . S
C2041 C2040 1.370 . S
C2041 C2045 1.408 . S
C2042 C2040 1.363 . S
C2042 C2043 1.370 . S
C2042 C2046 1.524 . S
C2043 C2035 1.503 . S
C2043 C2042 1.370 . S
C2043 C2044 1.403 . S
C2044 C2043 1.403 . S
C2044 C2045 1.404 . S
C2044 C2047 1.539 . S
C2045 C2041 1.408 . S
C2045 C2044 1.404 . S
C2045 H2057 0.930 . S
C2046 C2042 1.524 . S
C2046 H2058 0.956 . S
C2046 H2059 0.961 . S
C2046 H2060 0.961 . S
C2047 C2044 1.539 . S
C2047 H2061 0.958 . S
C2047 H2062 0.961 . S
C2047 H2063 0.960 . S
H2048 C2032 0.931 . S
H2049 C2037 0.929 . S
H2050 C2038 0.960 . S
H2051 C2038 0.962 . S
H2052 C2038 0.960 . S
H2053 C2039 0.961 . S
H2054 C2039 0.961 . S
H2055 C2039 0.961 . S
H2056 C2040 0.931 . S
H2057 C2045 0.930 . S
H2058 C2046 0.956 . S
H2059 C2046 0.961 . S
H2060 C2046 0.961 . S
H2061 C2047 0.958 . S
H2062 C2047 0.961 . S
H2063 C2047 0.960 . S
C2064 C2065 1.391 . S
C2064 C2066 1.394 . S
C2064 H2080 0.931 . S
C2065 C2064 1.391 . S
C2065 C2069 1.376 . S
C2066 C2064 1.394 . S
C2066 C2067 1.369 . S
C2066 C2070 1.531 . S
C2067 C2066 1.369 . S
C2067 C2068 1.410 . S
C2067 C2075 1.503 . S
C2068 C2067 1.410 . S
C2068 C2069 1.392 . S
C2068 C2071 1.511 . S
C2069 C2065 1.376 . S
C2069 C2068 1.392 . S
C2069 H2081 0.929 . S
C2070 C2066 1.531 . S
C2070 H2082 0.960 . S
C2070 H2083 0.962 . S
C2070 H2084 0.960 . S
C2071 C2068 1.511 . S
C2071 H2085 0.961 . S
C2071 H2086 0.961 . S
C2071 H2087 0.961 . S
C2072 C2073 1.370 . S
C2072 C2074 1.363 . S
C2072 H2088 0.931 . S
C2073 C2072 1.370 . S
C2073 C2077 1.408 . S
C2074 C2072 1.363 . S
C2074 C2075 1.370 . S
C2074 C2078 1.524 . S
C2075 C2067 1.503 . S
C2075 C2074 1.370 . S
C2075 C2076 1.403 . S
C2076 C2075 1.403 . S
C2076 C2077 1.404 . S
C2076 C2079 1.539 . S
C2077 C2073 1.408 . S
C2077 C2076 1.404 . S
C2077 H2089 0.930 . S
C2078 C2074 1.524 . S
C2078 H2090 0.956 . S
C2078 H2091 0.961 . S
C2078 H2092 0.961 . S
C2079 C2076 1.539 . S
C2079 H2093 0.958 . S
C2079 H2094 0.961 . S
C2079 H2095 0.960 . S
H2080 C2064 0.931 . S
H2081 C2069 0.929 . S
H2082 C2070 0.960 . S
H2083 C2070 0.962 . S
H2084 C2070 0.960 . S
H2085 C2071 0.961 . S
H2086 C2071 0.961 . S
H2087 C2071 0.961 . S
H2088 C2072 0.931 . S
H2089 C2077 0.930 . S
H2090 C2078 0.956 . S
H2091 C2078 0.961 . S
H2092 C2078 0.961 . S
H2093 C2079 0.958 . S
H2094 C2079 0.961 . S
H2095 C2079 0.960 . S
C2096 C2097 1.391 . S
C2096 C2098 1.394 . S
C2096 H2112 0.931 . S
C2097 C2096 1.391 . S
C2097 C2101 1.376 . S
C2098 C2096 1.394 . S
C2098 C2099 1.369 . S
C2098 C2102 1.531 . S
C2099 C2098 1.369 . S
C2099 C2100 1.410 . S
C2099 C2107 1.503 . S
C2100 C2099 1.410 . S
C2100 C2101 1.392 . S
C2100 C2103 1.511 . S
C2101 C2097 1.376 . S
C2101 C2100 1.392 . S
C2101 H2113 0.929 . S
C2102 C2098 1.531 . S
C2102 H2114 0.960 . S
C2102 H2115 0.962 . S
C2102 H2116 0.960 . S
C2103 C2100 1.511 . S
C2103 H2117 0.961 . S
C2103 H2118 0.961 . S
C2103 H2119 0.961 . S
C2104 C2105 1.370 . S
C2104 C2106 1.363 . S
C2104 H2120 0.931 . S
C2105 C2104 1.370 . S
C2105 C2109 1.408 . S
C2106 C2104 1.363 . S
C2106 C2107 1.370 . S
C2106 C2110 1.524 . S
C2107 C2099 1.503 . S
C2107 C2106 1.370 . S
C2107 C2108 1.403 . S
C2108 C2107 1.403 . S
C2108 C2109 1.404 . S
C2108 C2111 1.539 . S
C2109 C2105 1.408 . S
C2109 C2108 1.404 . S
C2109 H2121 0.930 . S
C2110 C2106 1.524 . S
C2110 H2122 0.956 . S
C2110 H2123 0.961 . S
C2110 H2124 0.961 . S
C2111 C2108 1.539 . S
C2111 H2125 0.958 . S
C2111 H2126 0.961 . S
C2111 H2127 0.960 . S
H2112 C2096 0.931 . S
H2113 C2101 0.929 . S
H2114 C2102 0.960 . S
H2115 C2102 0.962 . S
H2116 C2102 0.960 . S
H2117 C2103 0.961 . S
H2118 C2103 0.961 . S
H2119 C2103 0.961 . S
H2120 C2104 0.931 . S
H2121 C2109 0.930 . S
H2122 C2110 0.956 . S
H2123 C2110 0.961 . S
H2124 C2110 0.961 . S
H2125 C2111 0.958 . S
H2126 C2111 0.961 . S
H2127 C2111 0.960 . S
C2128 C2129 1.391 . S
C2128 C2130 1.394 . S
C2128 H2144 0.931 . S
C2129 C2128 1.391 . S
C2129 C2133 1.376 . S
C2130 C2128 1.394 . S
C2130 C2131 1.369 . S
C2130 C2134 1.531 . S
C2131 C2130 1.369 . S
C2131 C2132 1.410 . S
C2131 C2139 1.503 . S
C2132 C2131 1.410 . S
C2132 C2133 1.392 . S
C2132 C2135 1.511 . S
C2133 C2129 1.376 . S
C2133 C2132 1.392 . S
C2133 H2145 0.929 . S
C2134 C2130 1.531 . S
C2134 H2146 0.960 . S
C2134 H2147 0.962 . S
C2134 H2148 0.960 . S
C2135 C2132 1.511 . S
C2135 H2149 0.961 . S
C2135 H2150 0.961 . S
C2135 H2151 0.961 . S
C2136 C2137 1.370 . S
C2136 C2138 1.363 . S
C2136 H2152 0.931 . S
C2137 C2136 1.370 . S
C2137 C2141 1.408 . S
C2138 C2136 1.363 . S
C2138 C2139 1.370 . S
C2138 C2142 1.524 . S
C2139 C2131 1.503 . S
C2139 C2138 1.370 . S
C2139 C2140 1.403 . S
C2140 C2139 1.403 . S
C2140 C2141 1.404 . S
C2140 C2143 1.539 . S
C2141 C2137 1.408 . S
C2141 C2140 1.404 . S
C2141 H2153 0.930 . S
C2142 C2138 1.524 . S
C2142 H2154 0.956 . S
C2142 H2155 0.961 . S
C2142 H2156 0.961 . S
C2143 C2140 1.539 . S
C2143 H2157 0.958 . S
C2143 H2158 0.961 . S
C2143 H2159 0.960 . S
H2144 C2128 0.931 . S
H2145 C2133 0.929 . S
H2146 C2134 0.960 . S
H2147 C2134 0.962 . S
H2148 C2134 0.960 . S
H2149 C2135 0.961 . S
H2150 C2135 0.961 . S
H2151 C2135 0.961 . S
H2152 C2136 0.931 . S
H2153 C2141 0.930 . S
H2154 C2142 0.956 . S
H2155 C2142 0.961 . S
H2156 C2142 0.961 . S
H2157 C2143 0.958 . S
H2158 C2143 0.961 . S
H2159 C2143 0.960 . S
C2160 C2161 1.391 . S
C2160 C2162 1.394 . S
C2160 H2176 0.931 . S
C2161 C2160 1.391 . S
C2161 C2165 1.376 . S
C2162 C2160 1.394 . S
C2162 C2163 1.369 . S
C2162 C2166 1.531 . S
C2163 C2162 1.369 . S
C2163 C2164 1.410 . S
C2163 C2171 1.503 . S
C2164 C2163 1.410 . S
C2164 C2165 1.392 . S
C2164 C2167 1.511 . S
C2165 C2161 1.376 . S
C2165 C2164 1.392 . S
C2165 H2177 0.929 . S
C2166 C2162 1.531 . S
C2166 H2178 0.960 . S
C2166 H2179 0.962 . S
C2166 H2180 0.960 . S
C2167 C2164 1.511 . S
C2167 H2181 0.961 . S
C2167 H2182 0.961 . S
C2167 H2183 0.961 . S
C2168 C2169 1.370 . S
C2168 C2170 1.363 . S
C2168 H2184 0.931 . S
C2169 C2168 1.370 . S
C2169 C2173 1.408 . S
C2170 C2168 1.363 . S
C2170 C2171 1.370 . S
C2170 C2174 1.524 . S
C2171 C2163 1.503 . S
C2171 C2170 1.370 . S
C2171 C2172 1.403 . S
C2172 C2171 1.403 . S
C2172 C2173 1.404 . S
C2172 C2175 1.539 . S
C2173 C2169 1.408 . S
C2173 C2172 1.404 . S
C2173 H2185 0.930 . S
C2174 C2170 1.524 . S
C2174 H2186 0.956 . S
C2174 H2187 0.961 . S
C2174 H2188 0.961 . S
C2175 C2172 1.539 . S
C2175 H2189 0.958 . S
C2175 H2190 0.961 . S
C2175 H2191 0.960 . S
H2176 C2160 0.931 . S
H2177 C2165 0.929 . S
H2178 C2166 0.960 . S
H2179 C2166 0.962 . S
H2180 C2166 0.960 . S
H2181 C2167 0.961 . S
H2182 C2167 0.961 . S
H2183 C2167 0.961 . S
H2184 C2168 0.931 . S
H2185 C2173 0.930 . S
H2186 C2174 0.956 . S
H2187 C2174 0.961 . S
H2188 C2174 0.961 . S
H2189 C2175 0.958 . S
H2190 C2175 0.961 . S
H2191 C2175 0.960 . S
C2192 C2193 1.391 . S
C2192 C2194 1.394 . S
C2192 H2208 0.931 . S
C2193 C2192 1.391 . S
C2193 C2197 1.376 . S
C2194 C2192 1.394 . S
C2194 C2195 1.369 . S
C2194 C2198 1.531 . S
C2195 C2194 1.369 . S
C2195 C2196 1.410 . S
C2195 C2203 1.503 . S
C2196 C2195 1.410 . S
C2196 C2197 1.392 . S
C2196 C2199 1.511 . S
C2197 C2193 1.376 . S
C2197 C2196 1.392 . S
C2197 H2209 0.929 . S
C2198 C2194 1.531 . S
C2198 H2210 0.960 . S
C2198 H2211 0.962 . S
C2198 H2212 0.960 . S
C2199 C2196 1.511 . S
C2199 H2213 0.961 . S
C2199 H2214 0.961 . S
C2199 H2215 0.961 . S
C2200 C2201 1.370 . S
C2200 C2202 1.363 . S
C2200 H2216 0.931 . S
C2201 C2200 1.370 . S
C2201 C2205 1.408 . S
C2202 C2200 1.363 . S
C2202 C2203 1.370 . S
C2202 C2206 1.524 . S
C2203 C2195 1.503 . S
C2203 C2202 1.370 . S
C2203 C2204 1.403 . S
C2204 C2203 1.403 . S
C2204 C2205 1.404 . S
C2204 C2207 1.539 . S
C2205 C2201 1.408 . S
C2205 C2204 1.404 . S
C2205 H2217 0.930 . S
C2206 C2202 1.524 . S
C2206 H2218 0.956 . S
C2206 H2219 0.961 . S
C2206 H2220 0.961 . S
C2207 C2204 1.539 . S
C2207 H2221 0.958 . S
C2207 H2222 0.961 . S
C2207 H2223 0.960 . S
H2208 C2192 0.931 . S
H2209 C2197 0.929 . S
H2210 C2198 0.960 . S
H2211 C2198 0.962 . S
H2212 C2198 0.960 . S
H2213 C2199 0.961 . S
H2214 C2199 0.961 . S
H2215 C2199 0.961 . S
H2216 C2200 0.931 . S
H2217 C2205 0.930 . S
H2218 C2206 0.956 . S
H2219 C2206 0.961 . S
H2220 C2206 0.961 . S
H2221 C2207 0.958 . S
H2222 C2207 0.961 . S
H2223 C2207 0.960 . S
C2224 C2225 1.391 . S
C2224 C2226 1.394 . S
C2224 H2240 0.931 . S
C2225 C2224 1.391 . S
C2225 C2229 1.376 . S
C2226 C2224 1.394 . S
C2226 C2227 1.369 . S
C2226 C2230 1.531 . S
C2227 C2226 1.369 . S
C2227 C2228 1.410 . S
C2227 C2235 1.503 . S
C2228 C2227 1.410 . S
C2228 C2229 1.392 . S
C2228 C2231 1.511 . S
C2229 C2225 1.376 . S
C2229 C2228 1.392 . S
C2229 H2241 0.929 . S
C2230 C2226 1.531 . S
C2230 H2242 0.960 . S
C2230 H2243 0.962 . S
C2230 H2244 0.960 . S
C2231 C2228 1.511 . S
C2231 H2245 0.961 . S
C2231 H2246 0.961 . S
C2231 H2247 0.961 . S
C2232 C2233 1.370 . S
C2232 C2234 1.363 . S
C2232 H2248 0.931 . S
C2233 C2232 1.370 . S
C2233 C2237 1.408 . S
C2234 C2232 1.363 . S
C2234 C2235 1.370 . S
C2234 C2238 1.524 . S
C2235 C2227 1.503 . S
C2235 C2234 1.370 . S
C2235 C2236 1.403 . S
C2236 C2235 1.403 . S
C2236 C2237 1.404 . S
C2236 C2239 1.539 . S
C2237 C2233 1.408 . S
C2237 C2236 1.404 . S
C2237 H2249 0.930 . S
C2238 C2234 1.524 . S
C2238 H2250 0.956 . S
C2238 H2251 0.961 . S
C2238 H2252 0.961 . S
C2239 C2236 1.539 . S
C2239 H2253 0.958 . S
C2239 H2254 0.961 . S
C2239 H2255 0.960 . S
H2240 C2224 0.931 . S
H2241 C2229 0.929 . S
H2242 C2230 0.960 . S
H2243 C2230 0.962 . S
H2244 C2230 0.960 . S
H2245 C2231 0.961 . S
H2246 C2231 0.961 . S
H2247 C2231 0.961 . S
H2248 C2232 0.931 . S
H2249 C2237 0.930 . S
H2250 C2238 0.956 . S
H2251 C2238 0.961 . S
H2252 C2238 0.961 . S
H2253 C2239 0.958 . S
H2254 C2239 0.961 . S
H2255 C2239 0.960 . S
C2256 C2257 1.391 . S
C2256 C2258 1.394 . S
C2256 H2272 0.931 . S
C2257 C2256 1.391 . S
C2257 C2261 1.376 . S
C2258 C2256 1.394 . S
C2258 C2259 1.369 . S
C2258 C2262 1.531 . S
C2259 C2258 1.369 . S
C2259 C2260 1.410 . S
C2259 C2267 1.503 . S
C2260 C2259 1.410 . S
C2260 C2261 1.392 . S
C2260 C2263 1.511 . S
C2261 C2257 1.376 . S
C2261 C2260 1.392 . S
C2261 H2273 0.929 . S
C2262 C2258 1.531 . S
C2262 H2274 0.960 . S
C2262 H2275 0.962 . S
C2262 H2276 0.960 . S
C2263 C2260 1.511 . S
C2263 H2277 0.961 . S
C2263 H2278 0.961 . S
C2263 H2279 0.961 . S
C2264 C2265 1.370 . S
C2264 C2266 1.363 . S
C2264 H2280 0.931 . S
C2265 C2264 1.370 . S
C2265 C2269 1.408 . S
C2266 C2264 1.363 . S
C2266 C2267 1.370 . S
C2266 C2270 1.524 . S
C2267 C2259 1.503 . S
C2267 C2266 1.370 . S
C2267 C2268 1.403 . S
C2268 C2267 1.403 . S
C2268 C2269 1.404 . S
C2268 C2271 1.539 . S
C2269 C2265 1.408 . S
C2269 C2268 1.404 . S
C2269 H2281 0.930 . S
C2270 C2266 1.524 . S
C2270 H2282 0.956 . S
C2270 H2283 0.961 . S
C2270 H2284 0.961 . S
C2271 C2268 1.539 . S
C2271 H2285 0.958 . S
C2271 H2286 0.961 . S
C2271 H2287 0.960 . S
H2272 C2256 0.931 . S
H2273 C2261 0.929 . S
H2274 C2262 0.960 . S
H2275 C2262 0.962 . S
H2276 C2262 0.960 . S
H2277 C2263 0.961 . S
H2278 C2263 0.961 . S
H2279 C2263 0.961 . S
H2280 C2264 0.931 . S
H2281 C2269 0.930 . S
H2282 C2270 0.956 . S
H2283 C2270 0.961 . S
H2284 C2270 0.961 . S
H2285 C2271 0.958 . S
H2286 C2271 0.961 . S
H2287 C2271 0.960 . S
C2288 C2289 1.391 . S
C2288 C2290 1.394 . S
C2288 H2304 0.931 . S
C2289 C2288 1.391 . S
C2289 C2293 1.376 . S
C2290 C2288 1.394 . S
C2290 C2291 1.369 . S
C2290 C2294 1.531 . S
C2291 C2290 1.369 . S
C2291 C2292 1.410 . S
C2291 C2299 1.503 . S
C2292 C2291 1.410 . S
C2292 C2293 1.392 . S
C2292 C2295 1.511 . S
C2293 C2289 1.376 . S
C2293 C2292 1.392 . S
C2293 H2305 0.929 . S
C2294 C2290 1.531 . S
C2294 H2306 0.960 . S
C2294 H2307 0.962 . S
C2294 H2308 0.960 . S
C2295 C2292 1.511 . S
C2295 H2309 0.961 . S
C2295 H2310 0.961 . S
C2295 H2311 0.961 . S
C2296 C2297 1.370 . S
C2296 C2298 1.363 . S
C2296 H2312 0.931 . S
C2297 C2296 1.370 . S
C2297 C2301 1.408 . S
C2298 C2296 1.363 . S
C2298 C2299 1.370 . S
C2298 C2302 1.524 . S
C2299 C2291 1.503 . S
C2299 C2298 1.370 . S
C2299 C2300 1.403 . S
C2300 C2299 1.403 . S
C2300 C2301 1.404 . S
C2300 C2303 1.539 . S
C2301 C2297 1.408 . S
C2301 C2300 1.404 . S
C2301 H2313 0.930 . S
C2302 C2298 1.524 . S
C2302 H2314 0.956 . S
C2302 H2315 0.961 . S
C2302 H2316 0.961 . S
C2303 C2300 1.539 . S
C2303 H2317 0.958 . S
C2303 H2318 0.961 . S
C2303 H2319 0.960 . S
H2304 C2288 0.931 . S
H2305 C2293 0.929 . S
H2306 C2294 0.960 . S
H2307 C2294 0.962 . S
H2308 C2294 0.960 . S
H2309 C2295 0.961 . S
H2310 C2295 0.961 . S
H2311 C2295 0.961 . S
H2312 C2296 0.931 . S
H2313 C2301 0.930 . S
H2314 C2302 0.956 . S
H2315 C2302 0.961 . S
H2316 C2302 0.961 . S
H2317 C2303 0.958 . S
H2318 C2303 0.961 . S
H2319 C2303 0.960 . S
C2320 C2321 1.391 . S
C2320 C2322 1.394 . S
C2320 H2336 0.931 . S
C2321 C2320 1.391 . S
C2321 C2325 1.376 . S
C2322 C2320 1.394 . S
C2322 C2323 1.369 . S
C2322 C2326 1.531 . S
C2323 C2322 1.369 . S
C2323 C2324 1.410 . S
C2323 C2331 1.503 . S
C2324 C2323 1.410 . S
C2324 C2325 1.392 . S
C2324 C2327 1.511 . S
C2325 C2321 1.376 . S
C2325 C2324 1.392 . S
C2325 H2337 0.929 . S
C2326 C2322 1.531 . S
C2326 H2338 0.960 . S
C2326 H2339 0.962 . S
C2326 H2340 0.960 . S
C2327 C2324 1.511 . S
C2327 H2341 0.961 . S
C2327 H2342 0.961 . S
C2327 H2343 0.961 . S
C2328 C2329 1.370 . S
C2328 C2330 1.363 . S
C2328 H2344 0.931 . S
C2329 C2328 1.370 . S
C2329 C2333 1.408 . S
C2330 C2328 1.363 . S
C2330 C2331 1.370 . S
C2330 C2334 1.524 . S
C2331 C2323 1.503 . S
C2331 C2330 1.370 . S
C2331 C2332 1.403 . S
C2332 C2331 1.403 . S
C2332 C2333 1.404 . S
C2332 C2335 1.539 . S
C2333 C2329 1.408 . S
C2333 C2332 1.404 . S
C2333 H2345 0.930 . S
C2334 C2330 1.524 . S
C2334 H2346 0.956 . S
C2334 H2347 0.961 . S
C2334 H2348 0.961 . S
C2335 C2332 1.539 . S
C2335 H2349 0.958 . S
C2335 H2350 0.961 . S
C2335 H2351 0.960 . S
H2336 C2320 0.931 . S
H2337 C2325 0.929 . S
H2338 C2326 0.960 . S
H2339 C2326 0.962 . S
H2340 C2326 0.960 . S
H2341 C2327 0.961 . S
H2342 C2327 0.961 . S
H2343 C2327 0.961 . S
H2344 C2328 0.931 . S
H2345 C2333 0.930 . S
H2346 C2334 0.956 . S
H2347 C2334 0.961 . S
H2348 C2334 0.961 . S
H2349 C2335 0.958 . S
H2350 C2335 0.961 . S
H2351 C2335 0.960 . S
C2352 C2353 1.391 . S
C2352 C2354 1.394 . S
C2352 H2368 0.931 . S
C2353 C2352 1.391 . S
C2353 C2357 1.376 . S
C2354 C2352 1.394 . S
C2354 C2355 1.369 . S
C2354 C2358 1.531 . S
C2355 C2354 1.369 . S
C2355 C2356 1.410 . S
C2355 C2363 1.503 . S
C2356 C2355 1.410 . S
C2356 C2357 1.392 . S
C2356 C2359 1.511 . S
C2357 C2353 1.376 . S
C2357 C2356 1.392 . S
C2357 H2369 0.929 . S
C2358 C2354 1.531 . S
C2358 H2370 0.960 . S
C2358 H2371 0.962 . S
C2358 H2372 0.960 . S
C2359 C2356 1.511 . S
C2359 H2373 0.961 . S
C2359 H2374 0.961 . S
C2359 H2375 0.961 . S
C2360 C2361 1.370 . S
C2360 C2362 1.363 . S
C2360 H2376 0.931 . S
C2361 C2360 1.370 . S
C2361 C2365 1.408 . S
C2362 C2360 1.363 . S
C2362 C2363 1.370 . S
C2362 C2366 1.524 . S
C2363 C2355 1.503 . S
C2363 C2362 1.370 . S
C2363 C2364 1.403 . S
C2364 C2363 1.403 . S
C2364 C2365 1.404 . S
C2364 C2367 1.539 . S
C2365 C2361 1.408 . S
C2365 C2364 1.404 . S
C2365 H2377 0.930 . S
C2366 C2362 1.524 . S
C2366 H2378 0.956 . S
C2366 H2379 0.961 . S
C2366 H2380 0.961 . S
C2367 C2364 1.539 . S
C2367 H2381 0.958 . S
C2367 H2382 0.961 . S
C2367 H2383 0.960 . S
H2368 C2352 0.931 . S
H2369 C2357 0.929 . S
H2370 C2358 0.960 . S
H2371 C2358 0.962 . S
H2372 C2358 0.960 . S
H2373 C2359 0.961 . S
H2374 C2359 0.961 . S
H2375 C2359 0.961 . S
H2376 C2360 0.931 . S
H2377 C2365 0.930 . S
H2378 C2366 0.956 . S
H2379 C2366 0.961 . S
H2380 C2366 0.961 . S
H2381 C2367 0.958 . S
H2382 C2367 0.961 . S
H2383 C2367 0.960 . S
C2384 C2385 1.391 . S
C2384 C2386 1.394 . S
C2384 H2400 0.931 . S
C2385 C2384 1.391 . S
C2385 C2389 1.376 . S
C2386 C2384 1.394 . S
C2386 C2387 1.369 . S
C2386 C2390 1.531 . S
C2387 C2386 1.369 . S
C2387 C2388 1.410 . S
C2387 C2395 1.503 . S
C2388 C2387 1.410 . S
C2388 C2389 1.392 . S
C2388 C2391 1.511 . S
C2389 C2385 1.376 . S
C2389 C2388 1.392 . S
C2389 H2401 0.929 . S
C2390 C2386 1.531 . S
C2390 H2402 0.960 . S
C2390 H2403 0.962 . S
C2390 H2404 0.960 . S
C2391 C2388 1.511 . S
C2391 H2405 0.961 . S
C2391 H2406 0.961 . S
C2391 H2407 0.961 . S
C2392 C2393 1.370 . S
C2392 C2394 1.363 . S
C2392 H2408 0.931 . S
C2393 C2392 1.370 . S
C2393 C2397 1.408 . S
C2394 C2392 1.363 . S
C2394 C2395 1.370 . S
C2394 C2398 1.524 . S
C2395 C2387 1.503 . S
C2395 C2394 1.370 . S
C2395 C2396 1.403 . S
C2396 C2395 1.403 . S
C2396 C2397 1.404 . S
C2396 C2399 1.539 . S
C2397 C2393 1.408 . S
C2397 C2396 1.404 . S
C2397 H2409 0.930 . S
C2398 C2394 1.524 . S
C2398 H2410 0.956 . S
C2398 H2411 0.961 . S
C2398 H2412 0.961 . S
C2399 C2396 1.539 . S
C2399 H2413 0.958 . S
C2399 H2414 0.961 . S
C2399 H2415 0.960 . S
H2400 C2384 0.931 . S
H2401 C2389 0.929 . S
H2402 C2390 0.960 . S
H2403 C2390 0.962 . S
H2404 C2390 0.960 . S
H2405 C2391 0.961 . S
H2406 C2391 0.961 . S
H2407 C2391 0.961 . S
H2408 C2392 0.931 . S
H2409 C2397 0.930 . S
H2410 C2398 0.956 . S
H2411 C2398 0.961 . S
H2412 C2398 0.961 . S
H2413 C2399 0.958 . S
H2414 C2399 0.961 . S
H2415 C2399 0.960 . S
C2416 C2417 1.391 . S
C2416 C2418 1.394 . S
C2416 H2432 0.931 . S
C2417 C2416 1.391 . S
C2417 C2421 1.376 . S
C2418 C2416 1.394 . S
C2418 C2419 1.369 . S
C2418 C2422 1.531 . S
C2419 C2418 1.369 . S
C2419 C2420 1.410 . S
C2419 C2427 1.503 . S
C2420 C2419 1.410 . S
C2420 C2421 1.392 . S
C2420 C2423 1.511 . S
C2421 C2417 1.376 . S
C2421 C2420 1.392 . S
C2421 H2433 0.929 . S
C2422 C2418 1.531 . S
C2422 H2434 0.960 . S
C2422 H2435 0.962 . S
C2422 H2436 0.960 . S
C2423 C2420 1.511 . S
C2423 H2437 0.961 . S
C2423 H2438 0.961 . S
C2423 H2439 0.961 . S
C2424 C2425 1.370 . S
C2424 C2426 1.363 . S
C2424 H2440 0.931 . S
C2425 C2424 1.370 . S
C2425 C2429 1.408 . S
C2426 C2424 1.363 . S
C2426 C2427 1.370 . S
C2426 C2430 1.524 . S
C2427 C2419 1.503 . S
C2427 C2426 1.370 . S
C2427 C2428 1.403 . S
C2428 C2427 1.403 . S
C2428 C2429 1.404 . S
C2428 C2431 1.539 . S
C2429 C2425 1.408 . S
C2429 C2428 1.404 . S
C2429 H2441 0.930 . S
C2430 C2426 1.524 . S
C2430 H2442 0.956 . S
C2430 H2443 0.961 . S
C2430 H2444 0.961 . S
C2431 C2428 1.539 . S
C2431 H2445 0.958 . S
C2431 H2446 0.961 . S
C2431 H2447 0.960 . S
H2432 C2416 0.931 . S
H2433 C2421 0.929 . S
H2434 C2422 0.960 . S
H2435 C2422 0.962 . S
H2436 C2422 0.960 . S
H2437 C2423 0.961 . S
H2438 C2423 0.961 . S
H2439 C2423 0.961 . S
H2440 C2424 0.931 . S
H2441 C2429 0.930 . S
H2442 C2430 0.956 . S
H2443 C2430 0.961 . S
H2444 C2430 0.961 . S
H2445 C2431 0.958 . S
H2446 C2431 0.961 . S
H2447 C2431 0.960 . S
C2448 C2449 1.391 . S
C2448 C2450 1.394 . S
C2448 H2464 0.931 . S
C2449 C2448 1.391 . S
C2449 C2453 1.376 . S
C2450 C2448 1.394 . S
C2450 C2451 1.369 . S
C2450 C2454 1.531 . S
C2451 C2450 1.369 . S
C2451 C2452 1.410 1_545 S
C2451 C2459 1.503 1_545 S
C2452 C2451 1.410 1_565 S
C2452 C2453 1.392 1_565 S
C2452 C2455 1.511 . S
C2453 C2449 1.376 . S
C2453 C2452 1.392 1_545 S
C2453 H2465 0.929 . S
C2454 C2450 1.531 . S
C2454 H2466 0.960 . S
C2454 H2467 0.962 . S
C2454 H2468 0.960 . S
C2455 C2452 1.511 . S
C2455 H2469 0.961 . S
C2455 H2470 0.961 . S
C2455 H2471 0.961 . S
C2456 C2457 1.370 . S
C2456 C2458 1.363 . S
C2456 H2472 0.931 . S
C2457 C2456 1.370 . S
C2457 C2461 1.408 . S
C2458 C2456 1.363 . S
C2458 C2459 1.370 . S
C2458 C2462 1.524 . S
C2459 C2451 1.503 1_565 S
C2459 C2458 1.370 . S
C2459 C2460 1.403 . S
C2460 C2459 1.403 . S
C2460 C2461 1.404 . S
C2460 C2463 1.539 . S
C2461 C2457 1.408 . S
C2461 C2460 1.404 . S
C2461 H2473 0.930 . S
C2462 C2458 1.524 . S
C2462 H2474 0.956 1_565 S
C2462 H2475 0.961 . S
C2462 H2476 0.961 . S
C2463 C2460 1.539 . S
C2463 H2477 0.958 1_565 S
C2463 H2478 0.961 . S
C2463 H2479 0.960 . S
H2464 C2448 0.931 . S
H2465 C2453 0.929 . S
H2466 C2454 0.960 . S
H2467 C2454 0.962 . S
H2468 C2454 0.960 . S
H2469 C2455 0.961 . S
H2470 C2455 0.961 . S
H2471 C2455 0.961 . S
H2472 C2456 0.931 . S
H2473 C2461 0.930 . S
H2474 C2462 0.956 1_545 S
H2475 C2462 0.961 . S
H2476 C2462 0.961 . S
H2477 C2463 0.958 1_545 S
H2478 C2463 0.961 . S
H2479 C2463 0.960 . S
C2480 C2481 1.391 . S
C2480 C2482 1.394 . S
C2480 H2496 0.931 . S
C2481 C2480 1.391 . S
C2481 C2485 1.376 . S
C2482 C2480 1.394 . S
C2482 C2483 1.369 . S
C2482 C2486 1.531 1_455 S
C2483 C2482 1.369 . S
C2483 C2484 1.410 . S
C2483 C2491 1.503 1_455 S
C2484 C2483 1.410 . S
C2484 C2485 1.392 . S
C2484 C2487 1.511 . S
C2485 C2481 1.376 . S
C2485 C2484 1.392 . S
C2485 H2497 0.929 . S
C2486 C2482 1.531 1_655 S
C2486 H2498 0.960 . S
C2486 H2499 0.962 . S
C2486 H2500 0.957 1_655 S
C2487 C2484 1.511 . S
C2487 H2501 0.961 . S
C2487 H2502 0.961 . S
C2487 H2503 0.961 . S
C2488 C2489 1.370 . S
C2488 C2490 1.363 . S
C2488 H2504 0.931 . S
C2489 C2488 1.370 . S
C2489 C2493 1.408 . S
C2490 C2488 1.363 . S
C2490 C2491 1.370 . S
C2490 C2494 1.524 . S
C2491 C2483 1.503 1_655 S
C2491 C2490 1.370 . S
C2491 C2492 1.403 1_655 S
C2492 C2491 1.403 1_455 S
C2492 C2493 1.404 1_455 S
C2492 C2495 1.539 . S
C2493 C2489 1.408 . S
C2493 C2492 1.404 1_655 S
C2493 H2505 0.930 . S
C2494 C2490 1.524 . S
C2494 H2506 0.956 . S
C2494 H2507 0.961 . S
C2494 H2508 0.961 . S
C2495 C2492 1.539 . S
C2495 H2509 0.958 . S
C2495 H2510 0.961 . S
C2495 H2511 0.960 . S
H2496 C2480 0.931 . S
H2497 C2485 0.929 . S
H2498 C2486 0.960 . S
H2499 C2486 0.962 . S
H2500 C2486 0.957 1_455 S
H2501 C2487 0.961 . S
H2502 C2487 0.961 . S
H2503 C2487 0.961 . S
H2504 C2488 0.931 . S
H2505 C2493 0.930 . S
H2506 C2494 0.956 . S
H2507 C2494 0.961 . S
H2508 C2494 0.961 . S
H2509 C2495 0.958 . S
H2510 C2495 0.961 . S
H2511 C2495 0.960 . S
C2512 C2513 1.391 . S
C2512 C2514 1.394 . S
C2512 H2528 0.931 . S
C2513 C2512 1.391 . S
C2513 C2517 1.376 . S
C2514 C2512 1.394 . S
C2514 C2515 1.369 . S
C2514 C2518 1.531 . S
C2515 C2514 1.369 . S
C2515 C2516 1.416 . S
C2515 C2523 1.503 1_545 S
C2516 C2515 1.416 . S
C2516 C2517 1.430 . S
C2516 C2519 1.471 1_545 S
C2517 C2513 1.376 . S
C2517 C2516 1.430 . S
C2517 H2529 0.929 . S
C2518 C2514 1.531 . S
C2518 H2530 0.960 . S
C2518 H2531 0.962 . S
C2518 H2532 0.960 . S
C2519 C2516 1.471 1_565 S
C2519 H2533 0.961 . S
C2519 H2534 0.961 . S
C2519 H2535 0.961 . S
C2520 C2521 1.370 . S
C2520 C2522 1.370 . S
C2520 H2536 0.931 . S
C2521 C2520 1.370 . S
C2521 C2525 1.408 . S
C2522 C2520 1.370 . S
C2522 C2523 1.376 . S
C2522 C2526 1.512 1_565 S
C2523 C2515 1.503 1_565 S
C2523 C2522 1.376 . S
C2523 C2524 1.403 . S
C2524 C2523 1.403 . S
C2524 C2525 1.404 . S
C2524 C2527 1.539 . S
C2525 C2521 1.408 . S
C2525 C2524 1.404 . S
C2525 H2537 0.930 . S
C2526 C2522 1.512 1_545 S
C2526 H2538 0.956 . S
C2526 H2539 0.961 . S
C2526 H2540 0.961 . S
C2527 C2524 1.539 . S
C2527 H2541 0.958 . S
C2527 H2542 0.961 . S
C2527 H2543 0.960 . S
H2528 C2512 0.931 . S
H2529 C2517 0.929 . S
H2530 C2518 0.960 . S
H2531 C2518 0.962 . S
H2532 C2518 0.960 . S
H2533 C2519 0.961 . S
H2534 C2519 0.961 . S
H2535 C2519 0.961 . S
H2536 C2520 0.931 . S
H2537 C2525 0.930 . S
H2538 C2526 0.956 . S
H2539 C2526 0.961 . S
H2540 C2526 0.961 . S
H2541 C2527 0.958 . S
H2542 C2527 0.961 . S
H2543 C2527 0.960 . S
C2544 C2545 1.391 . S
C2544 C2546 1.350 1_455 S
C2544 H2560 0.931 . S
C2545 C2544 1.391 . S
C2545 C2549 1.376 . S
C2546 C2544 1.350 1_655 S
C2546 C2547 1.335 1_655 S
C2546 C2550 1.613 . S
C2547 C2546 1.335 1_455 S
C2547 C2548 1.410 . S
C2547 C2555 1.503 1_455 S
C2548 C2547 1.410 . S
C2548 C2549 1.392 . S
C2548 C2551 1.511 . S
C2549 C2545 1.376 . S
C2549 C2548 1.392 . S
C2549 H2561 0.929 . S
C2550 C2546 1.613 . S
C2550 H2562 0.960 . S
C2550 H2563 0.962 . S
C2550 H2564 0.960 . S
C2551 C2548 1.511 . S
C2551 H2565 0.961 . S
C2551 H2566 0.961 . S
C2551 H2567 0.961 . S
C2552 C2553 1.370 . S
C2552 C2554 1.363 . S
C2552 H2568 0.931 . S
C2553 C2552 1.370 . S
C2553 C2557 1.408 . S
C2554 C2552 1.363 . S
C2554 C2555 1.370 . S
C2554 C2558 1.524 . S
C2555 C2547 1.503 1_655 S
C2555 C2554 1.370 . S
C2555 C2556 1.403 . S
C2556 C2555 1.403 . S
C2556 C2557 1.404 . S
C2556 C2559 1.539 1_655 S
C2557 C2553 1.408 . S
C2557 C2556 1.404 . S
C2557 H2569 0.930 . S
C2558 C2554 1.524 . S
C2558 H2570 0.956 . S
C2558 H2571 0.878 1_655 S
C2558 H2572 0.961 . S
C2559 C2556 1.539 1_455 S
C2559 H2573 0.958 1_455 S
C2559 H2574 0.961 . S
C2559 H2575 0.960 . S
H2560 C2544 0.931 . S
H2561 C2549 0.929 . S
H2562 C2550 0.960 . S
H2563 C2550 0.962 . S
H2564 C2550 0.960 . S
H2565 C2551 0.961 . S
H2566 C2551 0.961 . S
H2567 C2551 0.961 . S
H2568 C2552 0.931 . S
H2569 C2557 0.930 . S
H2570 C2558 0.956 . S
H2571 C2558 0.878 1_455 S
H2572 C2558 0.961 . S
H2573 C2559 0.958 1_655 S
H2574 C2559 0.961 . S
H2575 C2559 0.960 . S
C2576 C2577 1.391 . S
C2576 C2578 1.394 . S
C2576 H2592 0.931 . S
C2577 C2576 1.391 . S
C2577 C2581 1.376 . S
C2578 C2576 1.394 . S
C2578 C2579 1.369 . S
C2578 C2582 1.531 . S
C2579 C2578 1.369 . S
C2579 C2580 1.410 1_545 S
C2579 C2587 1.503 1_545 S
C2580 C2579 1.410 1_565 S
C2580 C2581 1.392 1_565 S
C2580 C2583 1.511 . S
C2581 C2577 1.376 . S
C2581 C2580 1.392 1_545 S
C2581 H2593 0.929 . S
C2582 C2578 1.531 . S
C2582 H2594 0.960 . S
C2582 H2595 0.962 . S
C2582 H2596 0.960 . S
C2583 C2580 1.511 . S
C2583 H2597 0.961 . S
C2583 H2598 0.961 . S
C2583 H2599 0.961 . S
C2584 C2585 1.370 . S
C2584 C2586 1.363 . S
C2584 H2600 0.931 . S
C2585 C2584 1.370 . S
C2585 C2589 1.408 . S
C2586 C2584 1.363 . S
C2586 C2587 1.370 . S
C2586 C2590 1.524 . S
C2587 C2579 1.503 1_565 S
C2587 C2586 1.370 . S
C2587 C2588 1.403 . S
C2588 C2587 1.403 . S
C2588 C2589 1.404 . S
C2588 C2591 1.539 . S
C2589 C2585 1.408 . S
C2589 C2588 1.404 . S
C2589 H2601 0.930 . S
C2590 C2586 1.524 . S
C2590 H2602 0.956 1_565 S
C2590 H2603 0.961 . S
C2590 H2604 0.961 . S
C2591 C2588 1.539 . S
C2591 H2605 0.958 1_565 S
C2591 H2606 0.961 . S
C2591 H2607 0.969 . S
H2592 C2576 0.931 . S
H2593 C2581 0.929 . S
H2594 C2582 0.960 . S
H2595 C2582 0.962 . S
H2596 C2582 0.960 . S
H2597 C2583 0.961 . S
H2598 C2583 0.961 . S
H2599 C2583 0.961 . S
H2600 C2584 0.931 . S
H2601 C2589 0.930 . S
H2602 C2590 0.956 1_545 S
H2603 C2590 0.961 . S
H2604 C2590 0.961 . S
H2605 C2591 0.958 1_545 S
H2606 C2591 0.961 . S
H2607 C2591 0.969 . S
C2608 C2609 1.391 . S
C2608 C2610 1.394 1_655 S
C2608 H2624 0.931 . S
C2609 C2608 1.391 . S
C2609 C2613 1.376 . S
C2610 C2608 1.394 1_455 S
C2610 C2611 1.369 1_455 S
C2610 C2614 1.531 . S
C2611 C2610 1.369 1_655 S
C2611 C2612 1.410 . S
C2611 C2619 1.503 1_655 S
C2612 C2611 1.410 . S
C2612 C2613 1.392 . S
C2612 C2615 1.511 . S
C2613 C2609 1.376 . S
C2613 C2612 1.392 . S
C2613 H2625 0.929 . S
C2614 C2610 1.531 . S
C2614 H2626 0.960 . S
C2614 H2627 0.962 . S
C2614 H2628 0.960 . S
C2615 C2612 1.511 . S
C2615 H2629 0.961 . S
C2615 H2630 0.961 . S
C2615 H2631 0.961 . S
C2616 C2617 1.370 . S
C2616 C2618 1.363 . S
C2616 H2632 0.931 . S
C2617 C2616 1.370 . S
C2617 C2621 1.408 . S
C2618 C2616 1.363 . S
C2618 C2619 1.370 . S
C2618 C2622 1.524 . S
C2619 C2611 1.503 1_455 S
C2619 C2618 1.370 . S
C2619 C2620 1.403 . S
C2620 C2619 1.403 . S
C2620 C2621 1.404 . S
C2620 C2623 1.539 . S
C2621 C2617 1.408 . S
C2621 C2620 1.404 . S
C2621 H2633 0.930 . S
C2622 C2618 1.524 . S
C2622 H2634 0.956 . S
C2622 H2635 0.961 1_455 S
C2622 H2636 0.961 . S
C2623 C2620 1.539 . S
C2623 H2637 0.958 . S
C2623 H2638 0.961 . S
C2623 H2639 0.960 1_455 S
H2624 C2608 0.931 . S
H2625 C2613 0.929 . S
H2626 C2614 0.960 . S
H2627 C2614 0.962 . S
H2628 C2614 0.960 . S
H2629 C2615 0.961 . S
H2630 C2615 0.961 . S
H2631 C2615 0.961 . S
H2632 C2616 0.931 . S
H2633 C2621 0.930 . S
H2634 C2622 0.956 . S
H2635 C2622 0.961 1_655 S
H2636 C2622 0.961 . S
H2637 C2623 0.958 . S
H2638 C2623 0.961 . S
H2639 C2623 0.960 1_655 S
C2640 C2641 1.391 . S
C2640 C2642 1.394 . S
C2640 H2656 0.931 . S
C2641 C2640 1.391 . S
C2641 C2645 1.376 . S
C2642 C2640 1.394 . S
C2642 C2643 1.369 . S
C2642 C2646 1.531 . S
C2643 C2642 1.369 . S
C2643 C2644 1.410 1_545 S
C2643 C2651 1.503 1_545 S
C2644 C2643 1.410 1_565 S
C2644 C2645 1.392 1_565 S
C2644 C2647 1.511 . S
C2645 C2641 1.376 . S
C2645 C2644 1.392 1_545 S
C2645 H2657 0.929 . S
C2646 C2642 1.531 . S
C2646 H2658 0.960 . S
C2646 H2659 0.962 . S
C2646 H2660 0.960 . S
C2647 C2644 1.511 . S
C2647 H2661 0.961 . S
C2647 H2662 0.961 . S
C2647 H2663 0.961 . S
C2648 C2649 1.370 . S
C2648 C2650 1.363 . S
C2648 H2664 0.931 . S
C2649 C2648 1.370 . S
C2649 C2653 1.408 . S
C2650 C2648 1.363 . S
C2650 C2651 1.370 . S
C2650 C2654 1.524 1_565 S
C2651 C2643 1.503 1_565 S
C2651 C2650 1.370 . S
C2651 C2652 1.403 . S
C2652 C2651 1.403 . S
C2652 C2653 1.404 . S
C2652 C2655 1.539 . S
C2653 C2649 1.408 . S
C2653 C2652 1.404 . S
C2653 H2665 0.930 . S
C2654 C2650 1.524 1_545 S
C2654 H2666 0.956 . S
C2654 H2667 0.959 . S
C2654 H2668 0.968 . S
C2655 C2652 1.539 . S
C2655 H2669 0.958 . S
C2655 H2670 0.961 . S
C2655 H2671 0.960 . S
H2656 C2640 0.931 . S
H2657 C2645 0.929 . S
H2658 C2646 0.960 . S
H2659 C2646 0.962 . S
H2660 C2646 0.960 . S
H2661 C2647 0.961 . S
H2662 C2647 0.961 . S
H2663 C2647 0.961 . S
H2664 C2648 0.931 . S
H2665 C2653 0.930 . S
H2666 C2654 0.956 . S
H2667 C2654 0.959 . S
H2668 C2654 0.968 . S
H2669 C2655 0.958 . S
H2670 C2655 0.961 . S
H2671 C2655 0.960 . S
C2672 C2673 1.391 . S
C2672 C2674 1.394 . S
C2672 H2688 0.931 . S
C2673 C2672 1.391 . S
C2673 C2677 1.376 . S
C2674 C2672 1.394 . S
C2674 C2675 1.369 . S
C2674 C2678 1.531 . S
C2675 C2674 1.369 . S
C2675 C2676 1.410 . S
C2675 C2683 1.503 1_655 S
C2676 C2675 1.410 . S
C2676 C2677 1.392 . S
C2676 C2679 1.511 . S
C2677 C2673 1.376 . S
C2677 C2676 1.392 . S
C2677 H2689 0.929 . S
C2678 C2674 1.531 . S
C2678 H2690 0.960 . S
C2678 H2691 0.962 1_655 S
C2678 H2692 0.960 . S
C2679 C2676 1.511 . S
C2679 H2693 0.961 . S
C2679 H2694 0.903 1_655 S
C2679 H2695 0.961 . S
C2680 C2681 1.370 . S
C2680 C2682 1.363 . S
C2680 H2696 0.931 . S
C2681 C2680 1.370 . S
C2681 C2685 1.408 . S
C2682 C2680 1.363 . S
C2682 C2683 1.370 . S
C2682 C2686 1.524 . S
C2683 C2675 1.503 1_455 S
C2683 C2682 1.370 . S
C2683 C2684 1.403 1_455 S
C2684 C2683 1.403 1_655 S
C2684 C2685 1.404 1_655 S
C2684 C2687 1.539 . S
C2685 C2681 1.408 . S
C2685 C2684 1.404 1_455 S
C2685 H2697 0.930 . S
C2686 C2682 1.524 . S
C2686 H2698 0.956 . S
C2686 H2699 0.961 . S
C2686 H2700 0.961 . S
C2687 C2684 1.539 . S
C2687 H2701 0.958 . S
C2687 H2702 0.961 . S
C2687 H2703 0.960 . S
H2688 C2672 0.931 . S
H2689 C2677 0.929 . S
H2690 C2678 0.960 . S
H2691 C2678 0.962 1_455 S
H2692 C2678 0.960 . S
H2693 C2679 0.961 . S
H2694 C2679 0.903 1_455 S
H2695 C2679 0.961 . S
H2696 C2680 0.931 . S
H2697 C2685 0.930 . S
H2698 C2686 0.956 . S
H2699 C2686 0.961 . S
H2700 C2686 0.961 . S
H2701 C2687 0.958 . S
H2702 C2687 0.961 . S
H2703 C2687 0.960 . S
C2704 C2705 1.391 . S
C2704 C2706 1.439 . S
C2704 H2720 0.931 . S
C2705 C2704 1.391 . S
C2705 C2709 1.376 . S
C2706 C2704 1.439 . S
C2706 C2707 1.399 . S
C2706 C2710 1.458 1_556 S
C2707 C2706 1.399 . S
C2707 C2708 1.410 . S
C2707 C2715 1.503 1_556 S
C2708 C2707 1.410 . S
C2708 C2709 1.392 . S
C2708 C2711 1.511 . S
C2709 C2705 1.376 . S
C2709 C2708 1.392 . S
C2709 H2721 0.929 . S
C2710 C2706 1.458 1_554 S
C2710 H2722 0.960 . S
C2710 H2723 0.962 . S
C2710 H2724 0.960 . S
C2711 C2708 1.511 . S
C2711 H2725 0.961 . S
C2711 H2726 0.961 . S
C2711 H2727 0.961 . S
C2712 C2713 1.370 . S
C2712 C2714 1.363 . S
C2712 H2728 0.931 . S
C2713 C2712 1.370 . S
C2713 C2717 1.408 . S
C2714 C2712 1.363 . S
C2714 C2715 1.370 . S
C2714 C2718 1.524 . S
C2715 C2707 1.503 1_554 S
C2715 C2714 1.370 . S
C2715 C2716 1.403 . S
C2716 C2715 1.403 . S
C2716 C2717 1.404 . S
C2716 C2719 1.539 1_554 S
C2717 C2713 1.408 . S
C2717 C2716 1.404 . S
C2717 H2729 0.930 . S
C2718 C2714 1.524 . S
C2718 H2730 0.956 . S
C2718 H2731 0.961 . S
C2718 H2732 0.961 . S
C2719 C2716 1.539 1_556 S
C2719 H2733 0.958 . S
C2719 H2734 0.961 . S
C2719 H2735 0.960 . S
H2720 C2704 0.931 . S
H2721 C2709 0.929 . S
H2722 C2710 0.960 . S
H2723 C2710 0.962 . S
H2724 C2710 0.960 . S
H2725 C2711 0.961 . S
H2726 C2711 0.961 . S
H2727 C2711 0.961 . S
H2728 C2712 0.931 . S
H2729 C2717 0.930 . S
H2730 C2718 0.956 . S
H2731 C2718 0.961 . S
H2732 C2718 0.961 . S
H2733 C2719 0.958 . S
H2734 C2719 0.961 . S
H2735 C2719 0.960 . S
C2736 C2737 1.391 . S
C2736 C2738 1.394 . S
C2736 H2752 0.931 . S
C2737 C2736 1.391 . S
C2737 C2741 1.376 . S
C2738 C2736 1.394 . S
C2738 C2739 1.369 . S
C2738 C2742 1.531 1_554 S
C2739 C2738 1.369 . S
C2739 C2740 1.410 . S
C2739 C2747 1.503 1_554 S
C2740 C2739 1.410 . S
C2740 C2741 1.392 . S
C2740 C2743 1.511 . S
C2741 C2737 1.376 . S
C2741 C2740 1.392 . S
C2741 H2753 0.929 . S
C2742 C2738 1.531 1_556 S
C2742 H2754 0.960 . S
C2742 H2755 0.934 1_556 S
C2742 H2756 0.960 . S
C2743 C2740 1.511 . S
C2743 H2757 0.961 . S
C2743 H2758 0.961 . S
C2743 H2759 0.907 1_554 S
C2744 C2745 1.370 . S
C2744 C2746 1.344 1_556 S
C2744 H2760 0.931 . S
C2745 C2744 1.370 . S
C2745 C2749 1.408 . S
C2746 C2744 1.344 1_554 S
C2746 C2747 1.352 1_554 S
C2746 C2750 1.563 . S
C2747 C2739 1.503 1_556 S
C2747 C2746 1.352 1_556 S
C2747 C2748 1.403 . S
C2748 C2747 1.403 . S
C2748 C2749 1.404 . S
C2748 C2751 1.539 . S
C2749 C2745 1.408 . S
C2749 C2748 1.404 . S
C2749 H2761 0.930 . S
C2750 C2746 1.563 . S
C2750 H2762 0.956 . S
C2750 H2763 0.961 . S
C2750 H2764 0.961 . S
C2751 C2748 1.539 . S
C2751 H2765 0.958 . S
C2751 H2766 0.961 . S
C2751 H2767 0.960 . S
H2752 C2736 0.931 . S
H2753 C2741 0.929 . S
H2754 C2742 0.960 . S
H2755 C2742 0.934 1_554 S
H2756 C2742 0.960 . S
H2757 C2743 0.961 . S
H2758 C2743 0.961 . S
H2759 C2743 0.907 1_556 S
H2760 C2744 0.931 . S
H2761 C2749 0.930 . S
H2762 C2750 0.956 . S
H2763 C2750 0.961 . S
H2764 C2750 0.961 . S
H2765 C2751 0.958 . S
H2766 C2751 0.961 . S
H2767 C2751 0.960 . S
C2768 C2769 1.391 . S
C2768 C2770 1.394 . S
C2768 H2784 0.931 . S
C2769 C2768 1.391 . S
C2769 C2773 1.376 . S
C2770 C2768 1.394 . S
C2770 C2771 1.369 . S
C2770 C2774 1.531 . S
C2771 C2770 1.369 . S
C2771 C2772 1.412 . S
C2771 C2779 1.503 1_556 S
C2772 C2771 1.412 . S
C2772 C2773 1.405 . S
C2772 C2775 1.497 1_556 S
C2773 C2769 1.376 . S
C2773 C2772 1.405 . S
C2773 H2785 0.929 . S
C2774 C2770 1.531 . S
C2774 H2786 0.960 . S
C2774 H2787 0.962 . S
C2774 H2788 0.960 . S
C2775 C2772 1.497 1_554 S
C2775 H2789 0.961 . S
C2775 H2790 0.961 . S
C2775 H2791 0.961 . S
C2776 C2777 1.370 . S
C2776 C2778 1.383 . S
C2776 H2792 0.931 . S
C2777 C2776 1.370 . S
C2777 C2781 1.408 . S
C2778 C2776 1.383 . S
C2778 C2779 1.385 . S
C2778 C2782 1.491 1_554 S
C2779 C2771 1.503 1_554 S
C2779 C2778 1.385 . S
C2779 C2780 1.403 . S
C2780 C2779 1.403 . S
C2780 C2781 1.404 . S
C2780 C2783 1.539 . S
C2781 C2777 1.408 . S
C2781 C2780 1.404 . S
C2781 H2793 0.930 . S
C2782 C2778 1.491 1_556 S
C2782 H2794 0.956 . S
C2782 H2795 0.961 . S
C2782 H2796 0.961 . S
C2783 C2780 1.539 . S
C2783 H2797 0.958 . S
C2783 H2798 0.961 . S
C2783 H2799 0.960 . S
H2784 C2768 0.931 . S
H2785 C2773 0.929 . S
H2786 C2774 0.960 . S
H2787 C2774 0.962 . S
H2788 C2774 0.960 . S
H2789 C2775 0.961 . S
H2790 C2775 0.961 . S
H2791 C2775 0.961 . S
H2792 C2776 0.931 . S
H2793 C2781 0.930 . S
H2794 C2782 0.956 . S
H2795 C2782 0.961 . S
H2796 C2782 0.961 . S
H2797 C2783 0.958 . S
H2798 C2783 0.961 . S
H2799 C2783 0.960 . S
C2800 C2801 1.391 . S
C2800 C2802 1.394 . S
C2800 H2816 0.931 . S
C2801 C2800 1.391 . S
C2801 C2805 1.376 . S
C2802 C2800 1.394 . S
C2802 C2803 1.369 . S
C2802 C2806 1.560 . S
C2803 C2802 1.369 . S
C2803 C2804 1.410 . S
C2803 C2811 1.503 1_554 S
C2804 C2803 1.410 . S
C2804 C2805 1.392 . S
C2804 C2807 1.511 . S
C2805 C2801 1.376 . S
C2805 C2804 1.392 . S
C2805 H2817 0.929 . S
C2806 C2802 1.560 . S
C2806 H2818 0.960 . S
C2806 H2819 0.901 1_554 S
C2806 H2820 0.996 . S
C2807 C2804 1.511 . S
C2807 H2821 0.961 . S
C2807 H2822 0.961 . S
C2807 H2823 0.961 . S
C2808 C2809 1.370 . S
C2808 C2810 1.363 . S
C2808 H2824 0.931 . S
C2809 C2808 1.370 . S
C2809 C2813 1.408 . S
C2810 C2808 1.363 . S
C2810 C2811 1.370 . S
C2810 C2814 1.524 . S
C2811 C2803 1.503 1_556 S
C2811 C2810 1.370 . S
C2811 C2812 1.403 1_556 S
C2812 C2811 1.403 1_554 S
C2812 C2813 1.404 1_554 S
C2812 C2815 1.539 . S
C2813 C2809 1.408 . S
C2813 C2812 1.404 1_556 S
C2813 H2825 0.930 . S
C2814 C2810 1.524 . S
C2814 H2826 0.956 . S
C2814 H2827 0.961 . S
C2814 H2828 0.961 . S
C2815 C2812 1.539 . S
C2815 H2829 0.958 . S
C2815 H2830 0.961 . S
C2815 H2831 0.960 . S
H2816 C2800 0.931 . S
H2817 C2805 0.929 . S
H2818 C2806 0.960 . S
H2819 C2806 0.901 1_556 S
H2820 C2806 0.996 . S
H2821 C2807 0.961 . S
H2822 C2807 0.961 . S
H2823 C2807 0.961 . S
H2824 C2808 0.931 . S
H2825 C2813 0.930 . S
H2826 C2814 0.956 . S
H2827 C2814 0.961 . S
H2828 C2814 0.961 . S
H2829 C2815 0.958 . S
H2830 C2815 0.961 . S
H2831 C2815 0.960 . S
C529 C29 1.463 . S
C537 C7 1.452 . S
C561 C18 1.476 . S
C569 C40 1.438 . S
C593 C73 1.465 . S
C601 C51 1.442 . S
C625 C62 1.436 . S
C633 C84 1.462 . S
C657 C139 1.416 . S
C665 C95 1.463 . S
C689 C150 1.475 . S
C697 C106 1.446 . S
C721 C117 1.418 . S
C729 C161 1.462 . S
C753 C128 1.432 . S
C761 C172 1.464 . S
C785 C216 1.448 . S
C793 C183 1.458 . S
C817 C194 1.419 . S
C825 C238 1.468 . S
C849 C249 1.408 . S
C857 C205 1.468 . S
C881 C260 1.491 . S
C889 C227 1.435 . S
C913 C271 1.458 . S
C921 C293 1.445 . S
C945 C282 1.407 . S
C953 C304 1.469 . S
C977 C337 1.409 . S
C985 C315 1.467 . S
C1009 C348 1.431 . S
C1017 C326 1.464 . S
C1041 C359 1.490 . S
C1049 C403 1.435 . S
C1073 C370 1.484 . S
C1081 C414 1.441 . S
C1105 C381 1.478 . S
C1113 C425 1.438 . S
C1137 C436 1.471 . S
C1145 C392 1.440 . S
C1169 C480 1.464 . S
C1177 C447 1.451 . S
C1201 C502 1.428 . S
C1209 C458 1.465 . S
C1233 C513 1.413 . S
C1241 C469 1.465 . S
C1265 C524 1.489 . S
C1273 C491 1.438 . S
C1297 C5 1.178 . S
C1305 C346 1.197 . S
C1329 C313 1.258 . S
C1337 C16 1.255 . S
C1361 C27 1.290 . S
C1369 C324 1.243 . S
C1393 C38 1.293 . S
C1401 C335 1.234 . S
C1425 C280 1.269 . S
C1433 C49 1.212 . S
C1457 C291 1.157 . S
C1465 C60 1.205 . S
C1489 C71 1.279 . S
C1497 C302 1.250 . S
C1521 C82 1.246 . S
C1529 C269 1.203 . S
C1553 C489 1.259 . S
C1561 C93 1.254 . S
C1585 C104 1.189 . S
C1593 C456 1.196 . S
C1617 C467 1.154 . S
C1625 C115 1.207 . S
C1649 C126 1.269 . S
C1657 C478 1.253 . S
C1681 C137 1.269 . S
C1689 C522 1.212 . S
C1713 C148 1.292 . S
C1721 C500 1.232 . S
C1745 C159 1.237 . S
C1753 C511 1.200 . S
C1777 C170 1.169 . S
C1785 C445 1.199 . S
C1809 C181 1.171 . S
C1817 C434 1.199 . S
C1841 C192 1.201 . S
C1849 C368 1.196 . S
C1873 C203 1.279 . S
C1881 C379 1.251 . S
C1905 C390 1.162 . S
C1913 C214 1.202 . S
C1937 C225 1.230 . S
C1945 C357 1.253 . S
C1969 C412 1.153 . S
C1977 C236 1.222 . S
C2001 C423 1.239 . S
C2009 C247 1.201 . S
C2033 C401 1.267 . S
C2041 C258 1.254 . S
C2065 C250 1.662 . S
C2073 C8 1.621 . S
C2097 C184 1.615 . S
C2105 C19 1.644 . S
C2129 C30 1.607 . S
C2137 C261 1.646 . S
C2161 C41 1.658 . S
C2169 C239 1.622 . S
C2193 C52 1.659 . S
C2201 C206 1.621 . S
C2225 C217 1.627 . S
C2233 C63 1.633 . S
C2257 C228 1.659 . S
C2265 C74 1.621 . S
C2289 C85 1.645 . S
C2297 C195 1.626 . S
C2321 C96 1.658 . S
C2329 C151 1.622 . S
C2353 C107 1.657 . S
C2361 C162 1.626 . S
C2385 C118 1.662 . S
C2393 C173 1.623 . S
C2417 C140 1.661 . S
C2425 C129 1.623 . S
C2449 C514 1.631 . S
C2457 C272 1.638 . S
C2481 C283 1.658 . S
C2489 C448 1.621 . S
C2513 C294 1.603 . S
C2521 C525 1.647 . S
C2545 C503 1.639 . S
C2553 C305 1.628 . S
C2577 C316 1.637 . S
C2585 C470 1.635 . S
C2609 C327 1.631 . S
C2617 C481 1.631 . S
C2641 C492 1.622 . S
C2649 C338 1.641 . S
C2673 C459 1.663 . S
C2681 C349 1.621 . S
C2705 C360 1.648 . S
C2713 C415 1.625 . S
C2737 C426 1.599 . S
C2745 C371 1.646 . S
C2769 C382 1.604 . S
C2777 C437 1.647 . S
C2801 C404 1.661 . S
C2809 C393 1.621 . S
