# Generated by pormake.
# Topology unj, (4)-cn, num edge types: 1
# Building blocks:
#     Node 0, Type 0, BuildingBlock: CEKHIL_clean_sbu_0, # of connection points: 4
#     Node 1, Type 0, BuildingBlock: CEKHIL_clean_sbu_0, # of connection points: 4
#     Node 2, Type 0, BuildingBlock: CEKHIL_clean_sbu_0, # of connection points: 4
#     Node 3, Type 0, BuildingBlock: CEKHIL_clean_sbu_0, # of connection points: 4
#     Node 4, Type 0, BuildingBlock: CEKHIL_clean_sbu_0, # of connection points: 4
#     Node 5, Type 0, BuildingBlock: CEKHIL_clean_sbu_0, # of connection points: 4
#     Edge 6, Type (0, 0), BuildingBlock: MIFKUJ_clean_linker_0, # of connection points: 2
#     Edge 7, Type (0, 0), BuildingBlock: MIFKUJ_clean_linker_0, # of connection points: 2
#     Edge 8, Type (0, 0), BuildingBlock: MIFKUJ_clean_linker_0, # of connection points: 2
#     Edge 9, Type (0, 0), BuildingBlock: MIFKUJ_clean_linker_0, # of connection points: 2
#     Edge 10, Type (0, 0), BuildingBlock: MIFKUJ_clean_linker_0, # of connection points: 2
#     Edge 11, Type (0, 0), BuildingBlock: MIFKUJ_clean_linker_0, # of connection points: 2
#     Edge 12, Type (0, 0), BuildingBlock: MIFKUJ_clean_linker_0, # of connection points: 2
#     Edge 13, Type (0, 0), BuildingBlock: MIFKUJ_clean_linker_0, # of connection points: 2
#     Edge 14, Type (0, 0), BuildingBlock: MIFKUJ_clean_linker_0, # of connection points: 2
#     Edge 15, Type (0, 0), BuildingBlock: MIFKUJ_clean_linker_0, # of connection points: 2
#     Edge 16, Type (0, 0), BuildingBlock: MIFKUJ_clean_linker_0, # of connection points: 2
#     Edge 17, Type (0, 0), BuildingBlock: MIFKUJ_clean_linker_0, # of connection points: 2
# Relax obj value: 0.029
# Max RMSD: 0.081
# Mean RMSD: 0.081
data_MOF--net-unj--node1-CEKHIL_clean_sbu_0--edge1-MIFKUJ_clean_linker_0
_symmetry_space_group_name_H-M    P1
_symmetry_Int_Tables_number       1
_symmetry_cell_setting            triclinic
loop_
_symmetry_equiv_pos_as_xyz
'x, y, z'
_cell_length_a     42.259993
_cell_length_b     42.342033
_cell_length_c     47.261396
_cell_angle_alpha  90.066618
_cell_angle_beta   89.927698
_cell_angle_gamma 120.16769
loop_
_atom_site_label
_atom_site_type_symbol
_atom_site_fract_x
_atom_site_fract_y
_atom_site_fract_z
_atom_type_partial_charge
Co0 Co 0.49673 0.26223 0.5845 0.0
O1 O 0.50428 0.30683 0.60209 0.0
O2 O 0.45233 0.25413 0.60307 0.0
C3 C 0.52379 0.28876 0.54295 0.0
O4 O 0.47694 0.21075 0.56811 0.0
Co5 Co 0.56019 0.2509 0.5641 0.0
O6 O 0.5214 0.20621 0.54552 0.0
C7 C 0.54384 0.24828 0.62524 0.0
C8 C 0.47018 0.28854 0.60984 0.0
C9 C 0.48802 0.19334 0.55235 0.0
O10 O 0.51435 0.24917 0.62009 0.0
O11 O 0.56666 0.25116 0.60616 0.0
O12 O 0.48994 0.27956 0.54783 0.0
O13 O 0.54057 0.28355 0.56361 0.0
Co14 Co 0.24711 0.49858 0.75156 0.0
O15 O 0.20897 0.50324 0.77015 0.0
O16 O 0.21397 0.45378 0.7715 0.0
C17 C 0.24205 0.52255 0.71026 0.0
O18 O 0.28106 0.48212 0.73416 0.0
Co19 Co 0.31737 0.56479 0.728 0.0
O20 O 0.32858 0.52843 0.71173 0.0
C21 C 0.30691 0.55288 0.78983 0.0
C22 C 0.19561 0.46973 0.77849 0.0
C23 C 0.31017 0.4949 0.71876 0.0
O24 O 0.27981 0.52017 0.78599 0.0
O25 O 0.32262 0.57546 0.76952 0.0
O26 O 0.22048 0.48808 0.7156 0.0
O27 O 0.26466 0.5414 0.73003 0.0
Co28 Co 0.75887 0.2409 0.9161 0.0
O29 O 0.71571 0.20284 0.93479 0.0
O30 O 0.76994 0.20678 0.9346 0.0
C31 C 0.73069 0.23868 0.87477 0.0
O32 O 0.80938 0.27451 0.8986 0.0
Co33 Co 0.76424 0.31319 0.89554 0.0
O34 O 0.81213 0.32448 0.87953 0.0
C35 C 0.76407 0.29829 0.95649 0.0
C36 C 0.73574 0.18893 0.94216 0.0
C37 C 0.8264 0.30481 0.88476 0.0
O38 O 0.77128 0.27264 0.95124 0.0
O39 O 0.7562 0.31442 0.93721 0.0
O40 O 0.74143 0.21535 0.87977 0.0
O41 O 0.73498 0.2605 0.89532 0.0
Co42 Co 0.52906 0.75379 0.08461 0.0
O43 O 0.52244 0.71017 0.10308 0.0
O44 O 0.57337 0.76373 0.10449 0.0
C45 C 0.50414 0.72547 0.04322 0.0
O46 O 0.5479 0.80464 0.06722 0.0
Co47 Co 0.46481 0.7614 0.06133 0.0
O48 O 0.5027 0.80849 0.04534 0.0
C49 C 0.48022 0.76906 0.12282 0.0
C50 C 0.5562 0.72933 0.11136 0.0
C51 C 0.53617 0.82199 0.05212 0.0
O52 O 0.50927 0.76674 0.1192 0.0
O53 O 0.45836 0.7656 0.1028 0.0
O54 O 0.5383 0.73672 0.04868 0.0
O55 O 0.48579 0.72998 0.06302 0.0
Co56 Co 0.78179 0.52095 0.25117 0.0
O57 O 0.82067 0.51591 0.26789 0.0
O58 O 0.81749 0.56643 0.26901 0.0
C59 C 0.78159 0.4935 0.2099 0.0
O60 O 0.7476 0.53781 0.23497 0.0
Co61 Co 0.70796 0.4541 0.2329 0.0
O62 O 0.69894 0.4907 0.21426 0.0
C63 C 0.7233 0.47255 0.29348 0.0
C64 C 0.83555 0.54995 0.27528 0.0
C65 C 0.7181 0.52462 0.22002 0.0
O66 O 0.75224 0.50313 0.28742 0.0
O67 O 0.70383 0.44838 0.27506 0.0
O68 O 0.80499 0.52793 0.21395 0.0
O69 O 0.76067 0.47669 0.23114 0.0
Co70 Co 0.26897 0.77474 0.41757 0.0
O71 O 0.31137 0.81212 0.43755 0.0
O72 O 0.25703 0.80793 0.43666 0.0
C73 C 0.29941 0.77943 0.37684 0.0
O74 O 0.21901 0.74202 0.3989 0.0
Co75 Co 0.2637 0.70406 0.39319 0.0
O76 O 0.21895 0.69682 0.37399 0.0
C77 C 0.25908 0.71286 0.45523 0.0
C78 C 0.29097 0.82568 0.4448 0.0
C79 C 0.20359 0.71473 0.38166 0.0
O80 O 0.25543 0.74115 0.45166 0.0
O81 O 0.26572 0.69708 0.43486 0.0
O82 O 0.28773 0.802 0.38201 0.0
O83 O 0.29386 0.75637 0.39664 0.0
H84 H 0.44946 0.1699 0.50314 0.0
H85 H 0.41182 0.10628 0.48694 0.0
H86 H 0.43249 0.06837 0.56566 0.0
H87 H 0.4698 0.13187 0.58183 0.0
H88 H 0.44636 0.03839 0.51719 0.0
H89 H 0.34987 0.05733 0.55393 0.0
H90 H 0.31543 0.09005 0.55693 0.0
H91 H 0.29012 0.07146 0.46837 0.0
H92 H 0.32481 0.03903 0.46477 0.0
H93 H 0.33505 0.84953 0.4914 0.0
H94 H 0.36376 0.91041 0.51286 0.0
H95 H 0.31435 0.94476 0.44895 0.0
H96 H 0.28283 0.88285 0.42952 0.0
H97 H 0.31509 0.97769 0.49111 0.0
H98 H 0.41177 0.96446 0.45033 0.0
H99 H 0.44984 0.93633 0.44201 0.0
H100 H 0.47967 0.94941 0.52986 0.0
H101 H 0.44145 0.97727 0.53876 0.0
C102 C 0.44524 0.14783 0.5171 0.0
C103 C 0.46194 0.15547 0.54382 0.0
C104 C 0.42387 0.11158 0.50787 0.0
C105 C 0.4192 0.08251 0.52515 0.0
C106 C 0.43565 0.0903 0.552 0.0
C107 C 0.45672 0.12647 0.56129 0.0
C108 C 0.39867 0.04409 0.51479 0.0
C109 C 0.41751 0.02486 0.51181 0.0
C110 C 0.36145 0.02696 0.50674 0.0
C111 C 0.34016 0.04599 0.50904 0.0
C112 C 0.33715 0.06042 0.53506 0.0
C113 C 0.31755 0.07888 0.53688 0.0
C114 C 0.30065 0.08289 0.51285 0.0
C115 C 0.30322 0.06835 0.48697 0.0
C116 C 0.32281 0.04988 0.48504 0.0
C117 C 0.33004 0.87008 0.4823 0.0
C118 C 0.30674 0.86161 0.45891 0.0
C119 C 0.34686 0.90511 0.49429 0.0
C120 C 0.34243 0.93305 0.48212 0.0
C121 C 0.3185 0.92411 0.45894 0.0
C122 C 0.30047 0.88868 0.44774 0.0
C123 C 0.36273 0.97149 0.49322 0.0
C124 C 0.34393 0.99091 0.49639 0.0
C125 C 0.40043 0.98929 0.50056 0.0
C126 C 0.42346 0.9726 0.49526 0.0
C127 C 0.42628 0.96113 0.4679 0.0
C128 C 0.44791 0.94527 0.46308 0.0
C129 C 0.46708 0.94099 0.48541 0.0
C130 C 0.46476 0.95269 0.51259 0.0
C131 C 0.44315 0.96854 0.51753 0.0
H132 H 0.4838 0.92869 0.48163 0.0
H133 H 0.28552 0.09722 0.51429 0.0
H134 H 0.39792 0.25855 0.62458 0.0
H135 H 0.36779 0.28953 0.6456 0.0
H136 H 0.47123 0.3904 0.64821 0.0
H137 H 0.50153 0.35956 0.62746 0.0
H138 H 0.43377 0.38146 0.69617 0.0
H139 H 0.40839 0.37447 0.59676 0.0
H140 H 0.38605 0.3442 0.55058 0.0
H141 H 0.27777 0.27976 0.58478 0.0
H142 H 0.2996 0.30932 0.63131 0.0
H143 H 0.37919 0.51439 0.70123 0.0
H144 H 0.40246 0.47476 0.68605 0.0
H145 H 0.29605 0.38007 0.69946 0.0
H146 H 0.27243 0.41973 0.71521 0.0
H147 H 0.33054 0.38121 0.64603 0.0
H148 H 0.3568 0.39329 0.74513 0.0
H149 H 0.38058 0.42639 0.79012 0.0
H150 H 0.48898 0.48411 0.7551 0.0
H151 H 0.46575 0.45173 0.70972 0.0
C152 C 0.41431 0.28727 0.62982 0.0
C153 C 0.45215 0.30659 0.62425 0.0
C154 C 0.397 0.30501 0.64171 0.0
C155 C 0.41712 0.34247 0.64822 0.0
C156 C 0.45506 0.36153 0.64338 0.0
C157 C 0.47236 0.34384 0.63144 0.0
C158 C 0.39869 0.36204 0.6596 0.0
C159 C 0.41139 0.38159 0.68506 0.0
C160 C 0.36891 0.36169 0.6455 0.0
C161 C 0.35573 0.34377 0.6176 0.0
C162 C 0.37989 0.35359 0.59451 0.0
C163 C 0.36731 0.33662 0.56825 0.0
C164 C 0.33054 0.30998 0.56477 0.0
C165 C 0.30626 0.30033 0.58753 0.0
C166 C 0.31872 0.3172 0.61384 0.0
C167 C 0.36059 0.48514 0.70098 0.0
C168 C 0.32386 0.47028 0.70946 0.0
C169 C 0.37404 0.4625 0.69238 0.0
C170 C 0.35108 0.42444 0.69175 0.0
C171 C 0.31426 0.40938 0.69984 0.0
C172 C 0.30086 0.43207 0.70892 0.0
C173 C 0.36588 0.40079 0.68239 0.0
C174 C 0.3526 0.38063 0.65728 0.0
C175 C 0.39532 0.40082 0.69666 0.0
C176 C 0.40945 0.42031 0.72393 0.0
C177 C 0.38565 0.41328 0.74693 0.0
C178 C 0.39904 0.43187 0.77252 0.0
C179 C 0.43625 0.45741 0.77544 0.0
C180 C 0.46016 0.46435 0.75279 0.0
C181 C 0.44689 0.44585 0.72714 0.0
H182 H 0.44657 0.47176 0.79527 0.0
H183 H 0.32084 0.29689 0.54443 0.0
H184 H 0.8612 0.26562 0.87457 0.0
H185 H 0.92384 0.28905 0.8572 0.0
H186 H 0.94091 0.39848 0.85723 0.0
H187 H 0.87829 0.37512 0.8732 0.0
H188 H 0.96687 0.38973 0.81151 0.0
H189 H 0.97754 0.36216 0.90933 0.0
H190 H 0.96213 0.32225 0.95116 0.0
H191 H 0.9907 0.25215 0.90583 0.0
H192 H 1.00589 0.29143 0.86362 0.0
H193 H 0.15688 0.49923 0.80104 0.0
H194 H 0.09501 0.4672 0.82047 0.0
H195 H 0.09021 0.36399 0.8078 0.0
H196 H 0.1528 0.39613 0.78884 0.0
H197 H 0.05716 0.36394 0.85704 0.0
H198 H 0.05025 0.39454 0.76034 0.0
H199 H 0.06641 0.43537 0.71904 0.0
H200 H 0.03075 0.50072 0.76311 0.0
H201 H 0.01483 0.46056 0.80482 0.0
C202 C 0.87841 0.29467 0.87091 0.0
C203 C 0.86464 0.31844 0.87515 0.0
C204 C 0.91434 0.30811 0.86113 0.0
C205 C 0.93751 0.34572 0.8561 0.0
C206 C 0.92375 0.36938 0.86072 0.0
C207 C 0.88781 0.35593 0.86992 0.0
C208 C 0.9757 0.36084 0.84526 0.0
C209 C 0.98663 0.38434 0.82177 0.0
C210 C 1.00145 0.353 0.85785 0.0
C211 C 0.99247 0.32951 0.88325 0.0
C212 C 0.9803 0.33809 0.90824 0.0
C213 C 0.97165 0.31561 0.93202 0.0
C214 C 0.97534 0.28463 0.93113 0.0
C215 C 0.9878 0.27612 0.90648 0.0
C216 C 0.99646 0.2985 0.88263 0.0
C217 C 0.14288 0.46973 0.80265 0.0
C218 C 0.1597 0.45022 0.79317 0.0
C219 C 0.10737 0.45141 0.81365 0.0
C220 C 0.08753 0.41307 0.81502 0.0
C221 C 0.10484 0.39355 0.8068 0.0
C222 C 0.14062 0.41195 0.79596 0.0
C223 C 0.04837 0.39366 0.82401 0.0
C224 C 0.03727 0.36919 0.84687 0.0
C225 C 0.02238 0.4007 0.81097 0.0
C226 C 0.0316 0.42468 0.78578 0.0
C227 C 0.04605 0.41774 0.76128 0.0
C228 C 0.05515 0.44075 0.73779 0.0
C229 C 0.04967 0.47066 0.73847 0.0
C230 C 0.03499 0.47756 0.76262 0.0
C231 C 0.02589 0.45466 0.78618 0.0
H232 H 0.05674 0.48845 0.72027 0.0
H233 H 0.96862 0.26725 0.94956 0.0
H234 H 0.59616 0.84824 0.01754 0.0
H235 H 0.63335 0.911 0.99979 0.0
H236 H 0.57068 0.94434 0.05126 0.0
H237 H 0.53227 0.88134 0.06733 0.0
H238 H 0.57704 0.97172 0.00302 0.0
H239 H 0.66611 0.966 0.06475 0.0
H240 H 0.7036 0.94 0.08131 0.0
H241 H 0.75335 0.95733 0.99923 0.0
H242 H 0.7159 0.98308 0.98212 0.0
H243 H 0.68219 0.16171 0.98238 0.0
H244 H 0.65278 0.10101 0.00399 0.0
H245 H 0.72117 0.07354 0.95394 0.0
H246 H 0.75264 0.13538 0.93425 0.0
H247 H 0.71261 0.04243 1.00029 0.0
H248 H 0.62452 0.04676 0.93785 0.0
H249 H 0.58647 0.07117 0.91937 0.0
H250 H 0.53398 0.05432 1.00026 0.0
H251 H 0.57197 0.03017 0.01929 0.0
C252 C 0.59081 0.86923 0.02522 0.0
C253 C 0.56159 0.86021 0.04385 0.0
C254 C 0.61215 0.90516 0.01522 0.0
C255 C 0.60533 0.93289 0.02439 0.0
C256 C 0.57661 0.9237 0.04368 0.0
C257 C 0.55476 0.88774 0.05301 0.0
C258 C 0.62641 0.971 0.013 0.0
C259 C 0.60673 0.9873 0.00287 0.0
C260 C 0.66517 0.99119 0.01165 0.0
C261 C 0.68802 0.9762 0.02212 0.0
C262 C 0.68494 0.96412 0.05022 0.0
C263 C 0.70619 0.94945 0.0597 0.0
C264 C 0.73078 0.94695 0.04132 0.0
C265 C 0.73428 0.95926 0.01345 0.0
C266 C 0.7131 0.97394 0.00386 0.0
C267 C 0.69115 0.14277 0.9763 0.0
C268 C 0.71957 0.15314 0.95661 0.0
C269 C 0.67405 0.10785 0.9884 0.0
C270 C 0.68371 0.08186 0.98 0.0
C271 C 0.71288 0.09273 0.96081 0.0
C272 C 0.73089 0.12811 0.9495 0.0
C273 C 0.6632 0.04336 0.99076 0.0
C274 C 0.68294 0.02691 1.00057 0.0
C275 C 0.6244 0.0228 0.99159 0.0
C276 C 0.60128 0.03694 0.98003 0.0
C277 C 0.60496 0.04841 0.95171 0.0
C278 C 0.5834 0.06219 0.94115 0.0
C279 C 0.55789 0.06436 0.95865 0.0
C280 C 0.55377 0.05264 0.98673 0.0
C281 C 0.57527 0.03887 0.99741 0.0
H282 H 0.54126 0.07508 0.95044 0.0
H283 H 0.74716 0.93553 0.04869 0.0
H284 H 0.7514 0.59974 0.22438 0.0
H285 H 0.72833 0.63904 0.20716 0.0
H286 H 0.63128 0.54427 0.17563 0.0
H287 H 0.65429 0.5052 0.19202 0.0
H288 H 0.65452 0.59531 0.13779 0.0
H289 H 0.63289 0.59021 0.23816 0.0
H290 H 0.64971 0.59759 0.28868 0.0
H291 H 0.723 0.71233 0.27592 0.0
H292 H 0.70696 0.70553 0.22521 0.0
H293 H 0.52892 0.65671 0.12111 0.0
H294 H 0.56078 0.627 0.14073 0.0
H295 H 0.65732 0.73209 0.15384 0.0
H296 H 0.62557 0.76222 0.13392 0.0
H297 H 0.64049 0.68198 0.19998 0.0
H298 H 0.6571 0.68601 0.09934 0.0
H299 H 0.63721 0.67691 0.0495 0.0
H300 H 0.57005 0.56157 0.06382 0.0
H301 H 0.58911 0.57004 0.11387 0.0
C302 C 0.72517 0.58728 0.21375 0.0
C303 C 0.7048 0.54919 0.20965 0.0
C304 C 0.71189 0.6098 0.20403 0.0
C305 C 0.67781 0.59469 0.19026 0.0
C306 C 0.65765 0.55674 0.18608 0.0
C307 C 0.67091 0.53434 0.19559 0.0
C308 C 0.66292 0.61795 0.17981 0.0
C309 C 0.65122 0.614 0.15154 0.0
C310 C 0.65934 0.64315 0.1974 0.0
C311 C 0.66907 0.64727 0.22784 0.0
C312 C 0.65284 0.61695 0.24608 0.0
C313 C 0.66218 0.62104 0.27475 0.0
C314 C 0.6875 0.65539 0.28548 0.0
C315 C 0.70346 0.68573 0.26756 0.0
C316 C 0.69424 0.68178 0.23886 0.0
C317 C 0.55682 0.67363 0.1284 0.0
C318 C 0.57474 0.71189 0.12582 0.0
C319 C 0.57504 0.65655 0.13954 0.0
C320 C 0.61157 0.67727 0.14848 0.0
C321 C 0.62916 0.71555 0.14701 0.0
C322 C 0.611 0.73272 0.13558 0.0
C323 C 0.6315 0.65859 0.15828 0.0
C324 C 0.64415 0.66348 0.18629 0.0
C325 C 0.63567 0.63394 0.14057 0.0
C326 C 0.6243 0.62872 0.11042 0.0
C327 C 0.63786 0.65874 0.09192 0.0
C328 C 0.62677 0.65369 0.06362 0.0
C329 C 0.60231 0.61869 0.05352 0.0
C330 C 0.58896 0.58866 0.07168 0.0
C331 C 0.59993 0.59357 0.10001 0.0
H332 H 0.59377 0.61484 0.0316 0.0
H333 H 0.69469 0.6585 0.30769 0.0
H334 H 0.16546 0.66299 0.34134 0.0
H335 H 0.10316 0.64065 0.32504 0.0
H336 H 0.0932 0.71544 0.38129 0.0
H337 H 0.1559 0.73793 0.39812 0.0
H338 H 0.032 0.64747 0.38301 0.0
H339 H 0.10311 0.73283 0.31162 0.0
H340 H 0.15288 0.76276 0.27665 0.0
H341 H 0.10861 0.66286 0.22931 0.0
H342 H 0.05886 0.63212 0.26425 0.0
H343 H 0.86715 0.61376 0.30598 0.0
H344 H 0.92933 0.64617 0.32601 0.0
H345 H 0.94967 0.56312 0.2929 0.0
H346 H 0.88753 0.53013 0.27373 0.0
H347 H 1.00525 0.64244 0.28034 0.0
H348 H 0.93798 0.55657 0.35538 0.0
H349 H 0.88822 0.52757 0.39046 0.0
H350 H 0.92544 0.63137 0.43064 0.0
H351 H 0.97511 0.66111 0.39545 0.0
C352 C 0.15024 0.67492 0.35028 0.0
C353 C 0.16595 0.70243 0.37105 0.0
C354 C 0.11452 0.66213 0.34081 0.0
C355 C 0.09351 0.67658 0.35169 0.0
C356 C 0.10889 0.70392 0.37253 0.0
C357 C 0.14484 0.71689 0.38201 0.0
C358 C 0.05546 0.6626 0.34125 0.0
C359 C 0.02624 0.64705 0.36061 0.0
C360 C 0.04774 0.66165 0.31198 0.0
C361 C 0.07738 0.68009 0.29069 0.0
C362 C 0.10412 0.71715 0.29386 0.0
C363 C 0.13231 0.73428 0.27403 0.0
C364 C 0.13395 0.71471 0.25081 0.0
C365 C 0.10732 0.67798 0.24733 0.0
C366 C 0.07908 0.6607 0.26712 0.0
C367 C 0.88483 0.60234 0.30318 0.0
C368 C 0.87241 0.56934 0.28838 0.0
C369 C 0.92028 0.62085 0.31461 0.0
C370 C 0.94407 0.60704 0.31085 0.0
C371 C 0.93175 0.57424 0.29599 0.0
C372 C 0.89616 0.55534 0.28518 0.0
C373 C 0.98205 0.62682 0.32203 0.0
C374 C 1.01117 0.64341 0.30276 0.0
C375 C 0.98963 0.62897 0.35133 0.0
C376 C 0.95991 0.61115 0.37254 0.0
C377 C 0.93529 0.57329 0.37149 0.0
C378 C 0.90717 0.55669 0.39144 0.0
C379 C 0.90357 0.57763 0.4127 0.0
C380 C 0.92819 0.6152 0.41411 0.0
C381 C 0.95634 0.63194 0.39417 0.0
H382 H 0.88178 0.56473 0.42812 0.0
H383 H 0.1558 0.72801 0.23548 0.0
H384 H 0.50654 0.3266 0.50519 0.0
H385 H 0.54264 0.36207 0.46446 0.0
H386 H 0.6207 0.32673 0.48017 0.0
H387 H 0.58569 0.29294 0.52175 0.0
H388 H 0.65668 0.39425 0.46878 0.0
H389 H 0.55451 0.29284 0.42364 0.0
H390 H 0.48943 0.2499 0.41332 0.0
H391 H 0.47581 0.33891 0.38567 0.0
H392 H 0.54072 0.38245 0.39617 0.0
H393 H 0.74161 0.43714 0.33192 0.0
H394 H 0.70992 0.41016 0.3766 0.0
H395 H 0.64292 0.45944 0.36474 0.0
H396 H 0.67438 0.48593 0.31983 0.0
H397 H 0.60201 0.38747 0.37462 0.0
H398 H 0.70813 0.48813 0.41768 0.0
H399 H 0.77437 0.52793 0.42581 0.0
H400 H 0.78167 0.4359 0.45522 0.0
H401 H 0.71557 0.39544 0.44689 0.0
C402 C 0.53118 0.3261 0.49972 0.0
C403 C 0.54323 0.30691 0.51656 0.0
C404 C 0.55182 0.34633 0.47636 0.0
C405 C 0.58434 0.34687 0.46887 0.0
C406 C 0.59589 0.327 0.48545 0.0
C407 C 0.57571 0.30747 0.50914 0.0
C408 C 0.60688 0.36878 0.44428 0.0
C409 C 0.6447 0.39237 0.44812 0.0
C410 C 0.59141 0.36707 0.41734 0.0
C411 C 0.55238 0.34093 0.41097 0.0
C412 C 0.53757 0.30328 0.41555 0.0
C413 C 0.50072 0.27883 0.40964 0.0
C414 C 0.47848 0.29168 0.39892 0.0
C415 C 0.49306 0.329 0.39402 0.0
C416 C 0.52988 0.35357 0.39992 0.0
C417 C 0.72097 0.44315 0.33945 0.0
C418 C 0.71081 0.46412 0.32295 0.0
C419 C 0.70279 0.42767 0.36489 0.0
C420 C 0.67413 0.43293 0.37416 0.0
C421 C 0.66498 0.4551 0.35807 0.0
C422 C 0.68314 0.47051 0.33263 0.0
C423 C 0.65164 0.41275 0.39917 0.0
C424 C 0.61386 0.38944 0.39536 0.0
C425 C 0.66727 0.41426 0.42595 0.0
C426 C 0.70692 0.43871 0.43146 0.0
C427 C 0.7239 0.47634 0.42573 0.0
C428 C 0.76142 0.49902 0.43039 0.0
C429 C 0.78223 0.48444 0.44097 0.0
C430 C 0.76553 0.44716 0.44701 0.0
C431 C 0.72802 0.42435 0.44236 0.0
H432 H 0.81129 0.50204 0.44451 0.0
H433 H 0.44996 0.27271 0.39436 0.0
H434 H 0.27324 0.6591 0.46979 0.0
H435 H 0.26507 0.62953 0.51511 0.0
H436 H 0.22882 0.69925 0.5517 0.0
H437 H 0.23706 0.72976 0.50563 0.0
H438 H 0.28047 0.6891 0.58552 0.0
H439 H 0.1658 0.61552 0.53753 0.0
H440 H 0.12764 0.58182 0.49652 0.0
H441 H 0.17258 0.51066 0.49752 0.0
H442 H 0.21137 0.54424 0.53829 0.0
H443 H 0.23557 0.58261 0.70966 0.0
H444 H 0.23201 0.61564 0.66862 0.0
H445 H 0.2394 0.53832 0.61326 0.0
H446 H 0.23987 0.50352 0.65468 0.0
H447 H 0.19631 0.55505 0.59056 0.0
H448 H 0.31564 0.62968 0.63189 0.0
H449 H 0.35943 0.66395 0.67006 0.0
H450 H 0.31279 0.73315 0.67883 0.0
H451 H 0.26844 0.69901 0.64094 0.0
C452 C 0.26343 0.66841 0.48728 0.0
C453 C 0.25534 0.69668 0.48381 0.0
C454 C 0.25876 0.65129 0.51328 0.0
C455 C 0.2457 0.66169 0.53661 0.0
C456 C 0.23866 0.69066 0.53378 0.0
C457 C 0.24334 0.708 0.50749 0.0
C458 C 0.23945 0.64156 0.56362 0.0
C459 C 0.26149 0.65994 0.58696 0.0
C460 C 0.21558 0.60331 0.56502 0.0
C461 C 0.19157 0.58249 0.54093 0.0
C462 C 0.16764 0.59277 0.52894 0.0
C463 C 0.14589 0.57368 0.50573 0.0
C464 C 0.1477 0.54413 0.49441 0.0
C465 C 0.17117 0.53353 0.50633 0.0
C466 C 0.19299 0.55254 0.52952 0.0
C467 C 0.23609 0.57257 0.68866 0.0
C468 C 0.23818 0.54077 0.68514 0.0
C469 C 0.23443 0.59166 0.66519 0.0
C470 C 0.23661 0.58031 0.63767 0.0
C471 C 0.23785 0.54786 0.6342 0.0
C472 C 0.23818 0.52799 0.65779 0.0
C473 C 0.23795 0.60233 0.61259 0.0
C474 C 0.21497 0.58429 0.5895 0.0
C475 C 0.26161 0.6408 0.6112 0.0
C476 C 0.2885 0.66156 0.63379 0.0
C477 C 0.31461 0.65209 0.64207 0.0
C478 C 0.33953 0.6715 0.66364 0.0
C479 C 0.33882 0.70065 0.67691 0.0
C480 C 0.31327 0.71053 0.66857 0.0
C481 C 0.28826 0.69119 0.64703 0.0
H482 H 0.35812 0.71562 0.69362 0.0
H483 H 0.13089 0.52943 0.47641 0.0
H484 H 0.72739 0.29597 0.85218 0.0
H485 H 0.69304 0.2959 0.81069 0.0
H486 H 0.6563 0.18177 0.79699 0.0
H487 H 0.69252 0.18242 0.83772 0.0
H488 H 0.66911 0.21314 0.74882 0.0
H489 H 0.60144 0.21528 0.82997 0.0
H490 H 0.59273 0.23875 0.87536 0.0
H491 H 0.62247 0.34144 0.83617 0.0
H492 H 0.63179 0.31874 0.79062 0.0
H493 H 0.5322 0.18626 0.65105 0.0
H494 H 0.55928 0.18189 0.69574 0.0
H495 H 0.60664 0.298 0.70826 0.0
H496 H 0.57852 0.30199 0.664 0.0
H497 H 0.5855 0.26303 0.7578 0.0
H498 H 0.65545 0.2612 0.67738 0.0
H499 H 0.6637 0.23745 0.63197 0.0
H500 H 0.62851 0.13306 0.67034 0.0
H501 H 0.61963 0.15609 0.7159 0.0
C502 C 0.71226 0.27095 0.84015 0.0
C503 C 0.71245 0.23913 0.84823 0.0
C504 C 0.69229 0.27082 0.81657 0.0
C505 C 0.67102 0.23853 0.80111 0.0
C506 C 0.67219 0.20699 0.80864 0.0
C507 C 0.69294 0.20736 0.83188 0.0
C508 C 0.64761 0.23769 0.77716 0.0
C509 C 0.6504 0.2235 0.75101 0.0
C510 C 0.62359 0.25185 0.77964 0.0
C511 C 0.61756 0.26538 0.80694 0.0
C512 C 0.60629 0.24292 0.83107 0.0
C513 C 0.60123 0.25609 0.85682 0.0
C514 C 0.60711 0.29158 0.85866 0.0
C515 C 0.61795 0.31396 0.83472 0.0
C516 C 0.62307 0.30094 0.80892 0.0
C517 C 0.54745 0.21053 0.66389 0.0
C518 C 0.55301 0.24435 0.6545 0.0
C519 C 0.56325 0.20815 0.68921 0.0
C520 C 0.58567 0.23976 0.7051 0.0
C521 C 0.58953 0.27326 0.69639 0.0
C522 C 0.57339 0.27554 0.67121 0.0
C523 C 0.60707 0.23848 0.72963 0.0
C524 C 0.604 0.25238 0.7558 0.0
C525 C 0.63072 0.22394 0.72723 0.0
C526 C 0.63657 0.21027 0.69996 0.0
C527 C 0.6493 0.23313 0.67608 0.0
C528 C 0.6541 0.2198 0.65032 0.0
C529 C 0.64655 0.18374 0.64825 0.0
C530 C 0.63431 0.16097 0.67196 0.0
C531 C 0.62942 0.17416 0.69776 0.0
H532 H 0.65026 0.17346 0.62829 0.0
H533 H 0.60322 0.30173 0.87862 0.0
H534 H 0.35024 0.62318 0.80661 0.0
H535 H 0.3812 0.64571 0.85156 0.0
H536 H 0.32986 0.53566 0.88377 0.0
H537 H 0.29817 0.5124 0.8382 0.0
H538 H 0.33315 0.58996 0.92315 0.0
H539 H 0.41406 0.57104 0.86304 0.0
H540 H 0.44653 0.57624 0.81835 0.0
H541 H 0.50258 0.69322 0.8245 0.0
H542 H 0.47007 0.68873 0.86903 0.0
H543 H 0.45238 0.65429 0.04119 0.0
H544 H 0.41802 0.61887 0.99983 0.0
H545 H 0.4778 0.71452 0.94733 0.0
H546 H 0.51387 0.74916 0.98862 0.0
H547 H 0.4689 0.65973 0.91916 0.0
H548 H 0.38567 0.68117 0.97469 0.0
H549 H 0.3516 0.67931 0.01768 0.0
H550 H 0.29871 0.56222 0.01887 0.0
H551 H 0.3328 0.56343 0.97607 0.0
C552 C 0.34524 0.60353 0.82316 0.0
C553 C 0.32211 0.56582 0.81857 0.0
C554 C 0.36304 0.61658 0.84891 0.0
C555 C 0.35843 0.59234 0.87076 0.0
C556 C 0.33396 0.55477 0.867 0.0
C557 C 0.31589 0.54155 0.84102 0.0
C558 C 0.38057 0.60685 0.8969 0.0
C559 C 0.36283 0.60458 0.92252 0.0
C560 C 0.41928 0.62677 0.89578 0.0
C561 C 0.4395 0.62953 0.86932 0.0
C562 C 0.43319 0.59787 0.8548 0.0
C563 C 0.45161 0.60069 0.8295 0.0
C564 C 0.47658 0.63504 0.81858 0.0
C565 C 0.48326 0.66664 0.83299 0.0
C566 C 0.46489 0.66397 0.85829 0.0
C567 C 0.45835 0.66747 0.02067 0.0
C568 C 0.48561 0.70423 0.01783 0.0
C569 C 0.43848 0.64738 0.99711 0.0
C570 C 0.44451 0.66415 0.97045 0.0
C571 C 0.47247 0.70088 0.96761 0.0
C572 C 0.49307 0.7207 0.99112 0.0
C573 C 0.42162 0.64365 0.9456 0.0
C574 C 0.43924 0.64478 0.9201 0.0
C575 C 0.38277 0.62318 0.94677 0.0
C576 C 0.36206 0.62242 0.97236 0.0
C577 C 0.36693 0.65505 0.98423 0.0
C578 C 0.3476 0.65411 0.00854 0.0
C579 C 0.32308 0.62067 0.02105 0.0
C580 C 0.31775 0.5881 0.00919 0.0
C581 C 0.33704 0.5889 0.9849 0.0
H582 H 0.30816 0.62 0.03988 0.0
H583 H 0.49077 0.63717 0.79897 0.0
H584 H 0.81597 0.31448 0.99765 0.0
H585 H 0.82172 0.34663 0.04246 0.0
H586 H 0.71922 0.34227 0.02552 0.0
H587 H 0.71438 0.31182 0.98063 0.0
H588 H 0.76657 0.40783 0.03878 0.0
H589 H 0.7313 0.28936 0.07835 0.0
H590 H 0.73709 0.23502 0.08687 0.0
H591 H 0.84356 0.30268 0.12312 0.0
H592 H 0.83858 0.35749 0.11449 0.0
H593 H 0.73708 0.42117 0.19878 0.0
H594 H 0.737 0.38711 0.15707 0.0
H595 H 0.82425 0.48609 0.12055 0.0
H596 H 0.82434 0.52056 0.16237 0.0
H597 H 0.78888 0.37521 0.13447 0.0
H598 H 0.81092 0.48125 0.04887 0.0
H599 H 0.79886 0.53191 0.04112 0.0
H600 H 0.70736 0.48181 0.09808 0.0
H601 H 0.71862 0.43069 0.10588 0.0
C602 C 0.7944 0.31976 0.00393 0.0
C603 C 0.76478 0.3108 0.98577 0.0
C604 C 0.79768 0.33818 0.02947 0.0
C605 C 0.77097 0.34713 0.03738 0.0
C606 C 0.74045 0.3362 0.01981 0.0
C607 C 0.73755 0.31854 0.99424 0.0
C608 C 0.77526 0.36963 0.06293 0.0
C609 C 0.77159 0.40065 0.05966 0.0
C610 C 0.78176 0.36047 0.09027 0.0
C611 C 0.78472 0.32754 0.0955 0.0
C612 C 0.75606 0.29267 0.08794 0.0
C613 C 0.75917 0.26178 0.09282 0.0
C614 C 0.79071 0.2654 0.10545 0.0
C615 C 0.81917 0.29992 0.11329 0.0
C616 C 0.8162 0.33089 0.10843 0.0
C617 C 0.75618 0.4358 0.18184 0.0
C618 C 0.78064 0.47363 0.18382 0.0
C619 C 0.75627 0.4162 0.15809 0.0
C620 C 0.78062 0.43398 0.13569 0.0
C621 C 0.80506 0.47182 0.13753 0.0
C622 C 0.80504 0.4915 0.16138 0.0
C623 C 0.7796 0.41285 0.11022 0.0
C624 C 0.78416 0.38239 0.11349 0.0
C625 C 0.7731 0.42197 0.08292 0.0
C626 C 0.76592 0.45242 0.0782 0.0
C627 C 0.78819 0.48104 0.05968 0.0
C628 C 0.7815 0.50982 0.05529 0.0
C629 C 0.75245 0.51014 0.06919 0.0
C630 C 0.72995 0.48161 0.08743 0.0
C631 C 0.73651 0.45277 0.09187 0.0
H632 H 0.74732 0.53245 0.06577 0.0
H633 H 0.79307 0.24146 0.10921 0.0
H634 H 0.31642 0.82492 0.33082 0.0
H635 H 0.35036 0.82586 0.28827 0.0
H636 H 0.35906 0.73546 0.32099 0.0
H637 H 0.32565 0.73452 0.36331 0.0
H638 H 0.42389 0.78814 0.30054 0.0
H639 H 0.29864 0.72225 0.26941 0.0
H640 H 0.23688 0.71299 0.26138 0.0
H641 H 0.28192 0.80727 0.20743 0.0
H642 H 0.34404 0.81743 0.21548 0.0
H643 H 0.47915 0.73622 0.17308 0.0
H644 H 0.45141 0.74034 0.21763 0.0
H645 H 0.43201 0.82228 0.18059 0.0
H646 H 0.45792 0.81678 0.13597 0.0
H647 H 0.37294 0.77435 0.20394 0.0
H648 H 0.4987 0.84012 0.23475 0.0
H649 H 0.56032 0.84923 0.24322 0.0
H650 H 0.5147 0.75552 0.2978 0.0
H651 H 0.45274 0.74558 0.28938 0.0
C652 C 0.32544 0.80518 0.32881 0.0
C653 C 0.3183 0.77964 0.35039 0.0
C654 C 0.34479 0.8057 0.30453 0.0
C655 C 0.35719 0.78065 0.30144 0.0
C656 C 0.34994 0.75514 0.32295 0.0
C657 C 0.33063 0.75455 0.34709 0.0
C658 C 0.37782 0.78082 0.2759 0.0
C659 C 0.41268 0.78484 0.27939 0.0
C660 C 0.36342 0.77706 0.24833 0.0
C661 C 0.32604 0.77082 0.24329 0.0
C662 C 0.29541 0.74118 0.25601 0.0
C663 C 0.26033 0.73574 0.25143 0.0
C664 C 0.25549 0.75959 0.23397 0.0
C665 C 0.28571 0.78886 0.22099 0.0
C666 C 0.32086 0.79446 0.22554 0.0
C667 C 0.46968 0.75564 0.1748 0.0
C668 C 0.47062 0.77619 0.15121 0.0
C669 C 0.45382 0.75803 0.20023 0.0
C670 C 0.43957 0.78172 0.2026 0.0
C671 C 0.44242 0.80358 0.17934 0.0
C672 C 0.45746 0.80062 0.15389 0.0
C673 C 0.41946 0.7822 0.22839 0.0
C674 C 0.38447 0.77801 0.225 0.0
C675 C 0.4338 0.78586 0.25604 0.0
C676 C 0.47106 0.79193 0.26122 0.0
C677 C 0.50179 0.82131 0.2484 0.0
C678 C 0.53678 0.82665 0.25322 0.0
C679 C 0.54141 0.80292 0.27098 0.0
C680 C 0.51107 0.77386 0.28403 0.0
C681 C 0.47602 0.76839 0.27926 0.0
H682 H 0.56853 0.80709 0.27468 0.0
H683 H 0.22832 0.75534 0.23045 0.0
loop_
_geom_bond_atom_site_label_1
_geom_bond_atom_site_label_2
_geom_bond_distance
_geom_bond_site_symmetry_2
_ccdc_geom_bond_type
Co0 O1 2.216 . S
Co0 O2 2.091 . S
Co0 O4 2.004 . S
Co0 O10 2.021 . S
Co0 O12 2.137 . S
Co0 O13 2.244 . S
O1 Co0 2.216 . S
O1 C8 1.247 . S
O2 Co0 2.091 . S
O2 C8 1.261 . S
C3 O12 1.247 . S
C3 O13 1.272 . S
O4 Co0 2.004 . S
O4 C9 1.259 . S
Co5 O6 2.061 . S
Co5 O11 2.052 . S
Co5 O13 2.135 . S
O6 Co5 2.061 . S
O6 C9 1.235 . S
C7 O10 1.238 . S
C7 O11 1.241 . S
C8 O1 1.247 . S
C8 O2 1.261 . S
C9 O4 1.259 . S
C9 O6 1.235 . S
O10 Co0 2.021 . S
O10 C7 1.238 . S
O11 Co5 2.052 . S
O11 C7 1.241 . S
O12 Co0 2.137 . S
O12 C3 1.247 . S
O13 Co0 2.244 . S
O13 C3 1.272 . S
O13 Co5 2.135 . S
Co14 O15 2.216 . S
Co14 O16 2.091 . S
Co14 O18 2.004 . S
Co14 O24 2.021 . S
Co14 O26 2.137 . S
Co14 O27 2.244 . S
O15 Co14 2.216 . S
O15 C22 1.247 . S
O16 Co14 2.091 . S
O16 C22 1.261 . S
C17 O26 1.247 . S
C17 O27 1.272 . S
O18 Co14 2.004 . S
O18 C23 1.259 . S
Co19 O20 2.061 . S
Co19 O25 2.052 . S
Co19 O27 2.135 . S
O20 Co19 2.061 . S
O20 C23 1.235 . S
C21 O24 1.238 . S
C21 O25 1.241 . S
C22 O15 1.247 . S
C22 O16 1.261 . S
C23 O18 1.259 . S
C23 O20 1.235 . S
O24 Co14 2.021 . S
O24 C21 1.238 . S
O25 Co19 2.052 . S
O25 C21 1.241 . S
O26 Co14 2.137 . S
O26 C17 1.247 . S
O27 Co14 2.244 . S
O27 C17 1.272 . S
O27 Co19 2.135 . S
Co28 O29 2.216 . S
Co28 O30 2.091 . S
Co28 O32 2.004 . S
Co28 O38 2.021 . S
Co28 O40 2.137 . S
Co28 O41 2.244 . S
O29 Co28 2.216 . S
O29 C36 1.247 . S
O30 Co28 2.091 . S
O30 C36 1.261 . S
C31 O40 1.247 . S
C31 O41 1.272 . S
O32 Co28 2.004 . S
O32 C37 1.259 . S
Co33 O34 2.061 . S
Co33 O39 2.052 . S
Co33 O41 2.135 . S
O34 Co33 2.061 . S
O34 C37 1.235 . S
C35 O38 1.238 . S
C35 O39 1.241 . S
C36 O29 1.247 . S
C36 O30 1.261 . S
C37 O32 1.259 . S
C37 O34 1.235 . S
O38 Co28 2.021 . S
O38 C35 1.238 . S
O39 Co33 2.052 . S
O39 C35 1.241 . S
O40 Co28 2.137 . S
O40 C31 1.247 . S
O41 Co28 2.244 . S
O41 C31 1.272 . S
O41 Co33 2.135 . S
Co42 O43 2.216 . S
Co42 O44 2.091 . S
Co42 O46 2.004 . S
Co42 O52 2.021 . S
Co42 O54 2.137 . S
Co42 O55 2.244 . S
O43 Co42 2.216 . S
O43 C50 1.247 . S
O44 Co42 2.091 . S
O44 C50 1.261 . S
C45 O54 1.247 . S
C45 O55 1.272 . S
O46 Co42 2.004 . S
O46 C51 1.259 . S
Co47 O48 2.061 . S
Co47 O53 2.052 . S
Co47 O55 2.135 . S
O48 Co47 2.061 . S
O48 C51 1.235 . S
C49 O52 1.238 . S
C49 O53 1.241 . S
C50 O43 1.247 . S
C50 O44 1.261 . S
C51 O46 1.259 . S
C51 O48 1.235 . S
O52 Co42 2.021 . S
O52 C49 1.238 . S
O53 Co47 2.052 . S
O53 C49 1.241 . S
O54 Co42 2.137 . S
O54 C45 1.247 . S
O55 Co42 2.244 . S
O55 C45 1.272 . S
O55 Co47 2.135 . S
Co56 O57 2.216 . S
Co56 O58 2.091 . S
Co56 O60 2.004 . S
Co56 O66 2.021 . S
Co56 O68 2.137 . S
Co56 O69 2.244 . S
O57 Co56 2.216 . S
O57 C64 1.247 . S
O58 Co56 2.091 . S
O58 C64 1.261 . S
C59 O68 1.247 . S
C59 O69 1.272 . S
O60 Co56 2.004 . S
O60 C65 1.259 . S
Co61 O62 2.061 . S
Co61 O67 2.052 . S
Co61 O69 2.135 . S
O62 Co61 2.061 . S
O62 C65 1.235 . S
C63 O66 1.238 . S
C63 O67 1.241 . S
C64 O57 1.247 . S
C64 O58 1.261 . S
C65 O60 1.259 . S
C65 O62 1.235 . S
O66 Co56 2.021 . S
O66 C63 1.238 . S
O67 Co61 2.052 . S
O67 C63 1.241 . S
O68 Co56 2.137 . S
O68 C59 1.247 . S
O69 Co56 2.244 . S
O69 C59 1.272 . S
O69 Co61 2.135 . S
Co70 O71 2.216 . S
Co70 O72 2.091 . S
Co70 O74 2.004 . S
Co70 O80 2.021 . S
Co70 O82 2.137 . S
Co70 O83 2.244 . S
O71 Co70 2.216 . S
O71 C78 1.247 . S
O72 Co70 2.091 . S
O72 C78 1.261 . S
C73 O82 1.247 . S
C73 O83 1.272 . S
O74 Co70 2.004 . S
O74 C79 1.259 . S
Co75 O76 2.061 . S
Co75 O81 2.052 . S
Co75 O83 2.135 . S
O76 Co75 2.061 . S
O76 C79 1.235 . S
C77 O80 1.238 . S
C77 O81 1.241 . S
C78 O71 1.247 . S
C78 O72 1.261 . S
C79 O74 1.259 . S
C79 O76 1.235 . S
O80 Co70 2.021 . S
O80 C77 1.238 . S
O81 Co75 2.052 . S
O81 C77 1.241 . S
O82 Co70 2.137 . S
O82 C73 1.247 . S
O83 Co70 2.244 . S
O83 C73 1.272 . S
O83 Co75 2.135 . S
H84 C102 0.951 . S
H85 C104 0.951 . S
H86 C106 0.950 . S
H87 C107 0.950 . S
H88 C109 0.950 . S
H89 C112 0.950 . S
H90 C113 0.950 . S
H91 C115 0.950 . S
H92 C116 0.950 . S
H93 C117 0.951 . S
H94 C119 0.951 . S
H95 C121 0.950 . S
H96 C122 0.950 . S
H97 C124 0.950 . S
H98 C127 0.950 . S
H99 C128 0.950 . S
H100 C130 0.950 . S
H101 C131 0.950 . S
C102 H84 0.951 . S
C102 C103 1.366 . S
C102 C104 1.388 . S
C103 C102 1.366 . S
C103 C107 1.385 . S
C104 H85 0.951 . S
C104 C102 1.388 . S
C104 C105 1.366 . S
C105 C104 1.366 . S
C105 C106 1.414 . S
C105 C108 1.499 . S
C106 H86 0.950 . S
C106 C105 1.414 . S
C106 C107 1.374 . S
C107 H87 0.950 . S
C107 C103 1.385 . S
C107 C106 1.374 . S
C108 C105 1.499 . S
C108 C109 1.373 . S
C108 C110 1.389 . S
C109 H88 0.950 . S
C109 C108 1.373 . S
C109 C125 1.377 1_545 S
C110 C108 1.389 . S
C110 C111 1.524 . S
C110 C124 1.377 1_545 S
C111 C110 1.524 . S
C111 C112 1.397 . S
C111 C116 1.363 . S
C112 H89 0.950 . S
C112 C111 1.397 . S
C112 C113 1.334 . S
C113 H90 0.950 . S
C113 C112 1.334 . S
C113 C114 1.287 . S
C114 C113 1.287 . S
C114 C115 1.524 . S
C114 H133 0.913 . S
C115 H91 0.950 . S
C115 C114 1.524 . S
C115 C116 1.415 . S
C116 H92 0.950 . S
C116 C111 1.363 . S
C116 C115 1.415 . S
C117 H93 0.951 . S
C117 C118 1.366 . S
C117 C119 1.388 . S
C118 C117 1.366 . S
C118 C122 1.385 . S
C119 H94 0.951 . S
C119 C117 1.388 . S
C119 C120 1.366 . S
C120 C119 1.366 . S
C120 C121 1.414 . S
C120 C123 1.499 . S
C121 H95 0.950 . S
C121 C120 1.414 . S
C121 C122 1.374 . S
C122 H96 0.950 . S
C122 C118 1.385 . S
C122 C121 1.374 . S
C123 C120 1.499 . S
C123 C124 1.373 . S
C123 C125 1.389 . S
C124 H97 0.950 . S
C124 C110 1.377 1_565 S
C124 C123 1.373 . S
C125 C109 1.377 1_565 S
C125 C123 1.389 . S
C125 C126 1.524 . S
C126 C125 1.524 . S
C126 C127 1.397 . S
C126 C131 1.363 . S
C127 H98 0.950 . S
C127 C126 1.397 . S
C127 C128 1.334 . S
C128 H99 0.950 . S
C128 C127 1.334 . S
C128 C129 1.287 . S
C129 C128 1.287 . S
C129 C130 1.524 . S
C129 H132 0.999 . S
C130 H100 0.950 . S
C130 C129 1.524 . S
C130 C131 1.415 . S
C131 H101 0.950 . S
C131 C126 1.363 . S
C131 C130 1.415 . S
H132 C129 0.999 . S
H133 C114 0.913 . S
H134 C152 0.951 . S
H135 C154 0.951 . S
H136 C156 0.950 . S
H137 C157 0.950 . S
H138 C159 0.950 . S
H139 C162 0.950 . S
H140 C163 0.950 . S
H141 C165 0.950 . S
H142 C166 0.950 . S
H143 C167 0.951 . S
H144 C169 0.951 . S
H145 C171 0.950 . S
H146 C172 0.950 . S
H147 C174 0.950 . S
H148 C177 0.950 . S
H149 C178 0.950 . S
H150 C180 0.950 . S
H151 C181 0.950 . S
C152 H134 0.951 . S
C152 C153 1.366 . S
C152 C154 1.388 . S
C153 C152 1.366 . S
C153 C157 1.385 . S
C154 H135 0.951 . S
C154 C152 1.388 . S
C154 C155 1.366 . S
C155 C154 1.366 . S
C155 C156 1.414 . S
C155 C158 1.499 . S
C156 H136 0.950 . S
C156 C155 1.414 . S
C156 C157 1.374 . S
C157 H137 0.950 . S
C157 C153 1.385 . S
C157 C156 1.374 . S
C158 C155 1.499 . S
C158 C159 1.373 . S
C158 C160 1.389 . S
C159 H138 0.950 . S
C159 C158 1.373 . S
C159 C175 1.377 . S
C160 C158 1.389 . S
C160 C161 1.524 . S
C160 C174 1.377 . S
C161 C160 1.524 . S
C161 C162 1.397 . S
C161 C166 1.363 . S
C162 H139 0.950 . S
C162 C161 1.397 . S
C162 C163 1.334 . S
C163 H140 0.950 . S
C163 C162 1.334 . S
C163 C164 1.287 . S
C164 C163 1.287 . S
C164 C165 1.524 . S
C164 H183 0.913 . S
C165 H141 0.950 . S
C165 C164 1.524 . S
C165 C166 1.415 . S
C166 H142 0.950 . S
C166 C161 1.363 . S
C166 C165 1.415 . S
C167 H143 0.951 . S
C167 C168 1.366 . S
C167 C169 1.388 . S
C168 C167 1.366 . S
C168 C172 1.385 . S
C169 H144 0.951 . S
C169 C167 1.388 . S
C169 C170 1.366 . S
C170 C169 1.366 . S
C170 C171 1.414 . S
C170 C173 1.499 . S
C171 H145 0.950 . S
C171 C170 1.414 . S
C171 C172 1.374 . S
C172 H146 0.950 . S
C172 C168 1.385 . S
C172 C171 1.374 . S
C173 C170 1.499 . S
C173 C174 1.373 . S
C173 C175 1.389 . S
C174 H147 0.950 . S
C174 C160 1.377 . S
C174 C173 1.373 . S
C175 C159 1.377 . S
C175 C173 1.389 . S
C175 C176 1.524 . S
C176 C175 1.524 . S
C176 C177 1.397 . S
C176 C181 1.363 . S
C177 H148 0.950 . S
C177 C176 1.397 . S
C177 C178 1.334 . S
C178 H149 0.950 . S
C178 C177 1.334 . S
C178 C179 1.287 . S
C179 C178 1.287 . S
C179 C180 1.524 . S
C179 H182 0.999 . S
C180 H150 0.950 . S
C180 C179 1.524 . S
C180 C181 1.415 . S
C181 H151 0.950 . S
C181 C176 1.363 . S
C181 C180 1.415 . S
H182 C179 0.999 . S
H183 C164 0.913 . S
H184 C202 0.951 . S
H185 C204 0.951 . S
H186 C206 0.950 . S
H187 C207 0.950 . S
H188 C209 0.950 . S
H189 C212 0.950 . S
H190 C213 0.950 . S
H191 C215 0.950 . S
H192 C216 0.950 . S
H193 C217 0.951 . S
H194 C219 0.951 . S
H195 C221 0.950 . S
H196 C222 0.950 . S
H197 C224 0.950 . S
H198 C227 0.950 . S
H199 C228 0.950 . S
H200 C230 0.950 . S
H201 C231 0.950 1_655 S
C202 H184 0.951 . S
C202 C203 1.366 . S
C202 C204 1.388 . S
C203 C202 1.366 . S
C203 C207 1.385 . S
C204 H185 0.951 . S
C204 C202 1.388 . S
C204 C205 1.366 . S
C205 C204 1.366 . S
C205 C206 1.414 . S
C205 C208 1.499 . S
C206 H186 0.950 . S
C206 C205 1.414 . S
C206 C207 1.374 . S
C207 H187 0.950 . S
C207 C203 1.385 . S
C207 C206 1.374 . S
C208 C205 1.499 . S
C208 C209 1.373 . S
C208 C210 1.389 . S
C209 H188 0.950 . S
C209 C208 1.373 . S
C209 C225 1.377 1_655 S
C210 C208 1.389 . S
C210 C211 1.524 . S
C210 C224 1.377 1_655 S
C211 C210 1.524 . S
C211 C212 1.397 . S
C211 C216 1.363 . S
C212 H189 0.950 . S
C212 C211 1.397 . S
C212 C213 1.334 . S
C213 H190 0.950 . S
C213 C212 1.334 . S
C213 C214 1.287 . S
C214 C213 1.287 . S
C214 C215 1.524 . S
C214 H233 0.913 . S
C215 H191 0.950 . S
C215 C214 1.524 . S
C215 C216 1.415 . S
C216 H192 0.950 . S
C216 C211 1.363 . S
C216 C215 1.415 . S
C217 H193 0.951 . S
C217 C218 1.366 . S
C217 C219 1.388 . S
C218 C217 1.366 . S
C218 C222 1.385 . S
C219 H194 0.951 . S
C219 C217 1.388 . S
C219 C220 1.366 . S
C220 C219 1.366 . S
C220 C221 1.414 . S
C220 C223 1.499 . S
C221 H195 0.950 . S
C221 C220 1.414 . S
C221 C222 1.374 . S
C222 H196 0.950 . S
C222 C218 1.385 . S
C222 C221 1.374 . S
C223 C220 1.499 . S
C223 C224 1.373 . S
C223 C225 1.389 . S
C224 H197 0.950 . S
C224 C210 1.377 1_455 S
C224 C223 1.373 . S
C225 C209 1.377 1_455 S
C225 C223 1.389 . S
C225 C226 1.524 . S
C226 C225 1.524 . S
C226 C227 1.397 . S
C226 C231 1.363 . S
C227 H198 0.950 . S
C227 C226 1.397 . S
C227 C228 1.334 . S
C228 H199 0.950 . S
C228 C227 1.334 . S
C228 C229 1.287 . S
C229 C228 1.287 . S
C229 C230 1.524 . S
C229 H232 0.999 . S
C230 H200 0.950 . S
C230 C229 1.524 . S
C230 C231 1.415 . S
C231 H201 0.950 1_455 S
C231 C226 1.363 . S
C231 C230 1.415 . S
H232 C229 0.999 . S
H233 C214 0.913 . S
H234 C252 0.951 . S
H235 C254 0.951 1_556 S
H236 C256 0.950 . S
H237 C257 0.950 . S
H238 C259 0.950 . S
H239 C262 0.950 . S
H240 C263 0.950 . S
H241 C265 0.950 . S
H242 C266 0.950 . S
H243 C267 0.951 . S
H244 C269 0.951 1_554 S
H245 C271 0.950 . S
H246 C272 0.950 . S
H247 C274 0.950 . S
H248 C277 0.950 . S
H249 C278 0.950 . S
H250 C280 0.950 . S
H251 C281 0.950 . S
C252 H234 0.951 . S
C252 C253 1.366 . S
C252 C254 1.388 . S
C253 C252 1.366 . S
C253 C257 1.385 . S
C254 H235 0.951 1_554 S
C254 C252 1.388 . S
C254 C255 1.366 . S
C255 C254 1.366 . S
C255 C256 1.414 . S
C255 C258 1.499 . S
C256 H236 0.950 . S
C256 C255 1.414 . S
C256 C257 1.374 . S
C257 H237 0.950 . S
C257 C253 1.385 . S
C257 C256 1.374 . S
C258 C255 1.499 . S
C258 C259 1.373 . S
C258 C260 1.400 . S
C259 H238 0.950 . S
C259 C258 1.373 . S
C259 C275 1.375 1_565 S
C260 C258 1.400 . S
C260 C261 1.525 . S
C260 C274 1.366 1_564 S
C261 C260 1.525 . S
C261 C262 1.397 . S
C261 C266 1.363 1_554 S
C262 H239 0.950 . S
C262 C261 1.397 . S
C262 C263 1.334 . S
C263 H240 0.950 . S
C263 C262 1.334 . S
C263 C264 1.287 . S
C264 C263 1.287 . S
C264 C265 1.524 1_554 S
C264 H283 0.913 . S
C265 H241 0.950 . S
C265 C264 1.524 1_556 S
C265 C266 1.415 . S
C266 H242 0.950 . S
C266 C261 1.363 1_556 S
C266 C265 1.415 . S
C267 H243 0.951 . S
C267 C268 1.366 . S
C267 C269 1.388 . S
C268 C267 1.366 . S
C268 C272 1.385 . S
C269 H244 0.951 1_556 S
C269 C267 1.388 . S
C269 C270 1.366 . S
C270 C269 1.366 . S
C270 C271 1.414 . S
C270 C273 1.499 . S
C271 H245 0.950 . S
C271 C270 1.414 . S
C271 C272 1.374 . S
C272 H246 0.950 . S
C272 C268 1.385 . S
C272 C271 1.374 . S
C273 C270 1.499 . S
C273 C274 1.373 . S
C273 C275 1.391 1_556 S
C274 H247 0.950 . S
C274 C260 1.366 1_546 S
C274 C273 1.373 . S
C275 C259 1.375 1_545 S
C275 C273 1.391 1_554 S
C275 C276 1.525 1_554 S
C276 C275 1.525 1_556 S
C276 C277 1.397 . S
C276 C281 1.363 1_556 S
C277 H248 0.950 . S
C277 C276 1.397 . S
C277 C278 1.334 . S
C278 H249 0.950 . S
C278 C277 1.334 . S
C278 C279 1.287 . S
C279 C278 1.287 . S
C279 C280 1.524 1_556 S
C279 H282 0.999 . S
C280 H250 0.950 . S
C280 C279 1.524 1_554 S
C280 C281 1.415 . S
C281 H251 0.950 . S
C281 C276 1.363 1_554 S
C281 C280 1.415 . S
H282 C279 0.999 . S
H283 C264 0.913 . S
H284 C302 0.951 . S
H285 C304 0.951 . S
H286 C306 0.950 . S
H287 C307 0.950 . S
H288 C309 0.950 . S
H289 C312 0.950 . S
H290 C313 0.950 . S
H291 C315 0.950 . S
H292 C316 0.950 . S
H293 C317 0.951 . S
H294 C319 0.951 . S
H295 C321 0.950 . S
H296 C322 0.950 . S
H297 C324 0.950 . S
H298 C327 0.950 . S
H299 C328 0.950 . S
H300 C330 0.950 . S
H301 C331 0.950 . S
C302 H284 0.951 . S
C302 C303 1.366 . S
C302 C304 1.388 . S
C303 C302 1.366 . S
C303 C307 1.385 . S
C304 H285 0.951 . S
C304 C302 1.388 . S
C304 C305 1.366 . S
C305 C304 1.366 . S
C305 C306 1.414 . S
C305 C308 1.499 . S
C306 H286 0.950 . S
C306 C305 1.414 . S
C306 C307 1.374 . S
C307 H287 0.950 . S
C307 C303 1.385 . S
C307 C306 1.374 . S
C308 C305 1.499 . S
C308 C309 1.373 . S
C308 C310 1.389 . S
C309 H288 0.950 . S
C309 C308 1.373 . S
C309 C325 1.377 . S
C310 C308 1.389 . S
C310 C311 1.524 . S
C310 C324 1.377 . S
C311 C310 1.524 . S
C311 C312 1.397 . S
C311 C316 1.363 . S
C312 H289 0.950 . S
C312 C311 1.397 . S
C312 C313 1.334 . S
C313 H290 0.950 . S
C313 C312 1.334 . S
C313 C314 1.287 . S
C314 C313 1.287 . S
C314 C315 1.524 . S
C314 H333 0.913 . S
C315 H291 0.950 . S
C315 C314 1.524 . S
C315 C316 1.415 . S
C316 H292 0.950 . S
C316 C311 1.363 . S
C316 C315 1.415 . S
C317 H293 0.951 . S
C317 C318 1.366 . S
C317 C319 1.388 . S
C318 C317 1.366 . S
C318 C322 1.385 . S
C319 H294 0.951 . S
C319 C317 1.388 . S
C319 C320 1.366 . S
C320 C319 1.366 . S
C320 C321 1.414 . S
C320 C323 1.499 . S
C321 H295 0.950 . S
C321 C320 1.414 . S
C321 C322 1.374 . S
C322 H296 0.950 . S
C322 C318 1.385 . S
C322 C321 1.374 . S
C323 C320 1.499 . S
C323 C324 1.373 . S
C323 C325 1.389 . S
C324 H297 0.950 . S
C324 C310 1.377 . S
C324 C323 1.373 . S
C325 C309 1.377 . S
C325 C323 1.389 . S
C325 C326 1.524 . S
C326 C325 1.524 . S
C326 C327 1.397 . S
C326 C331 1.363 . S
C327 H298 0.950 . S
C327 C326 1.397 . S
C327 C328 1.334 . S
C328 H299 0.950 . S
C328 C327 1.334 . S
C328 C329 1.287 . S
C329 C328 1.287 . S
C329 C330 1.524 . S
C329 H332 0.999 . S
C330 H300 0.950 . S
C330 C329 1.524 . S
C330 C331 1.415 . S
C331 H301 0.950 . S
C331 C326 1.363 . S
C331 C330 1.415 . S
H332 C329 0.999 . S
H333 C314 0.913 . S
H334 C352 0.951 . S
H335 C354 0.951 . S
H336 C356 0.950 . S
H337 C357 0.950 . S
H338 C359 0.950 . S
H339 C362 0.950 . S
H340 C363 0.950 . S
H341 C365 0.950 . S
H342 C366 0.950 . S
H343 C367 0.951 . S
H344 C369 0.951 . S
H345 C371 0.950 . S
H346 C372 0.950 . S
H347 C374 0.951 . S
H348 C377 0.950 . S
H349 C378 0.950 . S
H350 C380 0.950 . S
H351 C381 0.950 . S
C352 H334 0.951 . S
C352 C353 1.366 . S
C352 C354 1.388 . S
C353 C352 1.366 . S
C353 C357 1.385 . S
C354 H335 0.951 . S
C354 C352 1.388 . S
C354 C355 1.366 . S
C355 C354 1.366 . S
C355 C356 1.414 . S
C355 C358 1.499 . S
C356 H336 0.950 . S
C356 C355 1.414 . S
C356 C357 1.374 . S
C357 H337 0.950 . S
C357 C353 1.385 . S
C357 C356 1.374 . S
C358 C355 1.499 . S
C358 C359 1.373 . S
C358 C360 1.389 . S
C359 H338 0.950 . S
C359 C358 1.373 . S
C359 C375 1.377 1_455 S
C360 C358 1.389 . S
C360 C361 1.524 . S
C360 C374 1.373 1_455 S
C361 C360 1.524 . S
C361 C362 1.397 . S
C361 C366 1.363 . S
C362 H339 0.950 . S
C362 C361 1.397 . S
C362 C363 1.334 . S
C363 H340 0.950 . S
C363 C362 1.334 . S
C363 C364 1.287 . S
C364 C363 1.287 . S
C364 C365 1.524 . S
C364 H383 0.913 . S
C365 H341 0.950 . S
C365 C364 1.524 . S
C365 C366 1.415 . S
C366 H342 0.950 . S
C366 C361 1.363 . S
C366 C365 1.415 . S
C367 H343 0.951 . S
C367 C368 1.366 . S
C367 C369 1.388 . S
C368 C367 1.366 . S
C368 C372 1.385 . S
C369 H344 0.951 . S
C369 C367 1.388 . S
C369 C370 1.366 . S
C370 C369 1.366 . S
C370 C371 1.414 . S
C370 C373 1.499 . S
C371 H345 0.950 . S
C371 C370 1.414 . S
C371 C372 1.374 . S
C372 H346 0.950 . S
C372 C368 1.385 . S
C372 C371 1.374 . S
C373 C370 1.499 . S
C373 C374 1.376 . S
C373 C375 1.389 . S
C374 H347 0.951 . S
C374 C360 1.373 1_655 S
C374 C373 1.376 . S
C375 C359 1.377 1_655 S
C375 C373 1.389 . S
C375 C376 1.524 . S
C376 C375 1.524 . S
C376 C377 1.397 . S
C376 C381 1.363 . S
C377 H348 0.950 . S
C377 C376 1.397 . S
C377 C378 1.334 . S
C378 H349 0.950 . S
C378 C377 1.334 . S
C378 C379 1.287 . S
C379 C378 1.287 . S
C379 C380 1.524 . S
C379 H382 0.999 . S
C380 H350 0.950 . S
C380 C379 1.524 . S
C380 C381 1.415 . S
C381 H351 0.950 . S
C381 C376 1.363 . S
C381 C380 1.415 . S
H382 C379 0.999 . S
H383 C364 0.913 . S
H384 C402 0.951 . S
H385 C404 0.951 . S
H386 C406 0.950 . S
H387 C407 0.950 . S
H388 C409 0.950 . S
H389 C412 0.950 . S
H390 C413 0.950 . S
H391 C415 0.950 . S
H392 C416 0.950 . S
H393 C417 0.951 . S
H394 C419 0.951 . S
H395 C421 0.950 . S
H396 C422 0.950 . S
H397 C424 0.950 . S
H398 C427 0.950 . S
H399 C428 0.950 . S
H400 C430 0.950 . S
H401 C431 0.950 . S
C402 H384 0.951 . S
C402 C403 1.366 . S
C402 C404 1.388 . S
C403 C402 1.366 . S
C403 C407 1.385 . S
C404 H385 0.951 . S
C404 C402 1.388 . S
C404 C405 1.366 . S
C405 C404 1.366 . S
C405 C406 1.414 . S
C405 C408 1.499 . S
C406 H386 0.950 . S
C406 C405 1.414 . S
C406 C407 1.374 . S
C407 H387 0.950 . S
C407 C403 1.385 . S
C407 C406 1.374 . S
C408 C405 1.499 . S
C408 C409 1.373 . S
C408 C410 1.389 . S
C409 H388 0.950 . S
C409 C408 1.373 . S
C409 C425 1.377 . S
C410 C408 1.389 . S
C410 C411 1.524 . S
C410 C424 1.377 . S
C411 C410 1.524 . S
C411 C412 1.397 . S
C411 C416 1.363 . S
C412 H389 0.950 . S
C412 C411 1.397 . S
C412 C413 1.334 . S
C413 H390 0.950 . S
C413 C412 1.334 . S
C413 C414 1.287 . S
C414 C413 1.287 . S
C414 C415 1.524 . S
C414 H433 0.913 . S
C415 H391 0.950 . S
C415 C414 1.524 . S
C415 C416 1.415 . S
C416 H392 0.950 . S
C416 C411 1.363 . S
C416 C415 1.415 . S
C417 H393 0.951 . S
C417 C418 1.366 . S
C417 C419 1.388 . S
C418 C417 1.366 . S
C418 C422 1.385 . S
C419 H394 0.951 . S
C419 C417 1.388 . S
C419 C420 1.366 . S
C420 C419 1.366 . S
C420 C421 1.414 . S
C420 C423 1.499 . S
C421 H395 0.950 . S
C421 C420 1.414 . S
C421 C422 1.374 . S
C422 H396 0.950 . S
C422 C418 1.385 . S
C422 C421 1.374 . S
C423 C420 1.499 . S
C423 C424 1.373 . S
C423 C425 1.389 . S
C424 H397 0.950 . S
C424 C410 1.377 . S
C424 C423 1.373 . S
C425 C409 1.377 . S
C425 C423 1.389 . S
C425 C426 1.524 . S
C426 C425 1.524 . S
C426 C427 1.397 . S
C426 C431 1.363 . S
C427 H398 0.950 . S
C427 C426 1.397 . S
C427 C428 1.334 . S
C428 H399 0.950 . S
C428 C427 1.334 . S
C428 C429 1.287 . S
C429 C428 1.287 . S
C429 C430 1.524 . S
C429 H432 0.999 . S
C430 H400 0.950 . S
C430 C429 1.524 . S
C430 C431 1.415 . S
C431 H401 0.950 . S
C431 C426 1.363 . S
C431 C430 1.415 . S
H432 C429 0.999 . S
H433 C414 0.913 . S
H434 C452 0.951 . S
H435 C454 0.951 . S
H436 C456 0.950 . S
H437 C457 0.950 . S
H438 C459 0.950 . S
H439 C462 0.950 . S
H440 C463 0.950 . S
H441 C465 0.950 . S
H442 C466 0.950 . S
H443 C467 0.951 . S
H444 C469 0.951 . S
H445 C471 0.950 . S
H446 C472 0.950 . S
H447 C474 0.950 . S
H448 C477 0.950 . S
H449 C478 0.950 . S
H450 C480 0.950 . S
H451 C481 0.950 . S
C452 H434 0.951 . S
C452 C453 1.366 . S
C452 C454 1.388 . S
C453 C452 1.366 . S
C453 C457 1.385 . S
C454 H435 0.951 . S
C454 C452 1.388 . S
C454 C455 1.366 . S
C455 C454 1.366 . S
C455 C456 1.414 . S
C455 C458 1.499 . S
C456 H436 0.950 . S
C456 C455 1.414 . S
C456 C457 1.374 . S
C457 H437 0.950 . S
C457 C453 1.385 . S
C457 C456 1.374 . S
C458 C455 1.499 . S
C458 C459 1.373 . S
C458 C460 1.389 . S
C459 H438 0.950 . S
C459 C458 1.373 . S
C459 C475 1.377 . S
C460 C458 1.389 . S
C460 C461 1.524 . S
C460 C474 1.377 . S
C461 C460 1.524 . S
C461 C462 1.397 . S
C461 C466 1.363 . S
C462 H439 0.950 . S
C462 C461 1.397 . S
C462 C463 1.334 . S
C463 H440 0.950 . S
C463 C462 1.334 . S
C463 C464 1.287 . S
C464 C463 1.287 . S
C464 C465 1.524 . S
C464 H483 0.913 . S
C465 H441 0.950 . S
C465 C464 1.524 . S
C465 C466 1.415 . S
C466 H442 0.950 . S
C466 C461 1.363 . S
C466 C465 1.415 . S
C467 H443 0.951 . S
C467 C468 1.366 . S
C467 C469 1.388 . S
C468 C467 1.366 . S
C468 C472 1.385 . S
C469 H444 0.951 . S
C469 C467 1.388 . S
C469 C470 1.366 . S
C470 C469 1.366 . S
C470 C471 1.414 . S
C470 C473 1.499 . S
C471 H445 0.950 . S
C471 C470 1.414 . S
C471 C472 1.374 . S
C472 H446 0.950 . S
C472 C468 1.385 . S
C472 C471 1.374 . S
C473 C470 1.499 . S
C473 C474 1.373 . S
C473 C475 1.389 . S
C474 H447 0.950 . S
C474 C460 1.377 . S
C474 C473 1.373 . S
C475 C459 1.377 . S
C475 C473 1.389 . S
C475 C476 1.524 . S
C476 C475 1.524 . S
C476 C477 1.397 . S
C476 C481 1.363 . S
C477 H448 0.950 . S
C477 C476 1.397 . S
C477 C478 1.334 . S
C478 H449 0.950 . S
C478 C477 1.334 . S
C478 C479 1.287 . S
C479 C478 1.287 . S
C479 C480 1.524 . S
C479 H482 0.999 . S
C480 H450 0.950 . S
C480 C479 1.524 . S
C480 C481 1.415 . S
C481 H451 0.950 . S
C481 C476 1.363 . S
C481 C480 1.415 . S
H482 C479 0.999 . S
H483 C464 0.913 . S
H484 C502 0.951 . S
H485 C504 0.951 . S
H486 C506 0.950 . S
H487 C507 0.950 . S
H488 C509 0.950 . S
H489 C512 0.950 . S
H490 C513 0.950 . S
H491 C515 0.950 . S
H492 C516 0.950 . S
H493 C517 0.951 . S
H494 C519 0.951 . S
H495 C521 0.950 . S
H496 C522 0.950 . S
H497 C524 0.950 . S
H498 C527 0.950 . S
H499 C528 0.950 . S
H500 C530 0.950 . S
H501 C531 0.950 . S
C502 H484 0.951 . S
C502 C503 1.366 . S
C502 C504 1.388 . S
C503 C502 1.366 . S
C503 C507 1.385 . S
C504 H485 0.951 . S
C504 C502 1.388 . S
C504 C505 1.366 . S
C505 C504 1.366 . S
C505 C506 1.414 . S
C505 C508 1.499 . S
C506 H486 0.950 . S
C506 C505 1.414 . S
C506 C507 1.374 . S
C507 H487 0.950 . S
C507 C503 1.385 . S
C507 C506 1.374 . S
C508 C505 1.499 . S
C508 C509 1.373 . S
C508 C510 1.389 . S
C509 H488 0.950 . S
C509 C508 1.373 . S
C509 C525 1.377 . S
C510 C508 1.389 . S
C510 C511 1.524 . S
C510 C524 1.377 . S
C511 C510 1.524 . S
C511 C512 1.397 . S
C511 C516 1.363 . S
C512 H489 0.950 . S
C512 C511 1.397 . S
C512 C513 1.334 . S
C513 H490 0.950 . S
C513 C512 1.334 . S
C513 C514 1.287 . S
C514 C513 1.287 . S
C514 C515 1.524 . S
C514 H533 0.913 . S
C515 H491 0.950 . S
C515 C514 1.524 . S
C515 C516 1.415 . S
C516 H492 0.950 . S
C516 C511 1.363 . S
C516 C515 1.415 . S
C517 H493 0.951 . S
C517 C518 1.366 . S
C517 C519 1.388 . S
C518 C517 1.366 . S
C518 C522 1.385 . S
C519 H494 0.951 . S
C519 C517 1.388 . S
C519 C520 1.366 . S
C520 C519 1.366 . S
C520 C521 1.414 . S
C520 C523 1.499 . S
C521 H495 0.950 . S
C521 C520 1.414 . S
C521 C522 1.374 . S
C522 H496 0.950 . S
C522 C518 1.385 . S
C522 C521 1.374 . S
C523 C520 1.499 . S
C523 C524 1.373 . S
C523 C525 1.389 . S
C524 H497 0.950 . S
C524 C510 1.377 . S
C524 C523 1.373 . S
C525 C509 1.377 . S
C525 C523 1.389 . S
C525 C526 1.524 . S
C526 C525 1.524 . S
C526 C527 1.397 . S
C526 C531 1.363 . S
C527 H498 0.950 . S
C527 C526 1.397 . S
C527 C528 1.334 . S
C528 H499 0.950 . S
C528 C527 1.334 . S
C528 C529 1.287 . S
C529 C528 1.287 . S
C529 C530 1.524 . S
C529 H532 0.999 . S
C530 H500 0.950 . S
C530 C529 1.524 . S
C530 C531 1.415 . S
C531 H501 0.950 . S
C531 C526 1.363 . S
C531 C530 1.415 . S
H532 C529 0.999 . S
H533 C514 0.913 . S
H534 C552 0.951 . S
H535 C554 0.951 . S
H536 C556 0.950 . S
H537 C557 0.950 . S
H538 C559 0.950 . S
H539 C562 0.950 . S
H540 C563 0.950 . S
H541 C565 0.950 . S
H542 C566 0.950 . S
H543 C567 0.951 . S
H544 C569 0.951 . S
H545 C571 0.950 . S
H546 C572 0.950 . S
H547 C574 0.950 . S
H548 C577 0.950 . S
H549 C578 0.950 . S
H550 C580 0.960 . S
H551 C581 0.950 . S
C552 H534 0.951 . S
C552 C553 1.366 . S
C552 C554 1.388 . S
C553 C552 1.366 . S
C553 C557 1.385 . S
C554 H535 0.951 . S
C554 C552 1.388 . S
C554 C555 1.366 . S
C555 C554 1.366 . S
C555 C556 1.414 . S
C555 C558 1.499 . S
C556 H536 0.950 . S
C556 C555 1.414 . S
C556 C557 1.374 . S
C557 H537 0.950 . S
C557 C553 1.385 . S
C557 C556 1.374 . S
C558 C555 1.499 . S
C558 C559 1.373 . S
C558 C560 1.389 . S
C559 H538 0.950 . S
C559 C558 1.373 . S
C559 C575 1.377 . S
C560 C558 1.389 . S
C560 C561 1.524 . S
C560 C574 1.377 . S
C561 C560 1.524 . S
C561 C562 1.397 . S
C561 C566 1.363 . S
C562 H539 0.950 . S
C562 C561 1.397 . S
C562 C563 1.334 . S
C563 H540 0.950 . S
C563 C562 1.334 . S
C563 C564 1.287 . S
C564 C563 1.287 . S
C564 C565 1.524 . S
C564 H583 0.913 . S
C565 H541 0.950 . S
C565 C564 1.524 . S
C565 C566 1.415 . S
C566 H542 0.950 . S
C566 C561 1.363 . S
C566 C565 1.415 . S
C567 H543 0.951 . S
C567 C568 1.366 . S
C567 C569 1.388 1_554 S
C568 C567 1.366 . S
C568 C572 1.385 1_554 S
C569 H544 0.951 . S
C569 C567 1.388 1_556 S
C569 C570 1.366 . S
C570 C569 1.366 . S
C570 C571 1.414 . S
C570 C573 1.499 . S
C571 H545 0.950 . S
C571 C570 1.414 . S
C571 C572 1.374 . S
C572 H546 0.950 . S
C572 C568 1.385 1_556 S
C572 C571 1.374 . S
C573 C570 1.499 . S
C573 C574 1.373 . S
C573 C575 1.389 . S
C574 H547 0.950 . S
C574 C560 1.377 . S
C574 C573 1.373 . S
C575 C559 1.377 . S
C575 C573 1.389 . S
C575 C576 1.524 . S
C576 C575 1.524 . S
C576 C577 1.397 . S
C576 C581 1.363 . S
C577 H548 0.950 . S
C577 C576 1.397 . S
C577 C578 1.334 1_556 S
C578 H549 0.950 . S
C578 C577 1.334 1_554 S
C578 C579 1.287 . S
C579 C578 1.287 . S
C579 C580 1.533 . S
C579 H582 0.999 . S
C580 H550 0.960 . S
C580 C579 1.533 . S
C580 C581 1.394 1_554 S
C581 H551 0.950 . S
C581 C576 1.363 . S
C581 C580 1.394 1_556 S
H582 C579 0.999 . S
H583 C564 0.913 . S
H584 C602 0.951 1_556 S
H585 C604 0.951 . S
H586 C606 0.950 . S
H587 C607 0.950 . S
H588 C609 0.950 . S
H589 C612 0.950 . S
H590 C613 0.950 . S
H591 C615 0.950 . S
H592 C616 0.950 . S
H593 C617 0.951 . S
H594 C619 0.951 . S
H595 C621 0.950 . S
H596 C622 0.950 . S
H597 C624 0.950 . S
H598 C627 0.950 . S
H599 C628 0.950 . S
H600 C630 0.950 . S
H601 C631 0.950 . S
C602 H584 0.951 1_554 S
C602 C603 1.366 1_554 S
C602 C604 1.388 . S
C603 C602 1.366 1_556 S
C603 C607 1.385 . S
C604 H585 0.951 . S
C604 C602 1.388 . S
C604 C605 1.366 . S
C605 C604 1.366 . S
C605 C606 1.414 . S
C605 C608 1.499 . S
C606 H586 0.950 . S
C606 C605 1.414 . S
C606 C607 1.374 1_554 S
C607 H587 0.950 . S
C607 C603 1.385 . S
C607 C606 1.374 1_556 S
C608 C605 1.499 . S
C608 C609 1.373 . S
C608 C610 1.389 . S
C609 H588 0.950 . S
C609 C608 1.373 . S
C609 C625 1.377 . S
C610 C608 1.389 . S
C610 C611 1.524 . S
C610 C624 1.377 . S
C611 C610 1.524 . S
C611 C612 1.397 . S
C611 C616 1.363 . S
C612 H589 0.950 . S
C612 C611 1.397 . S
C612 C613 1.334 . S
C613 H590 0.950 . S
C613 C612 1.334 . S
C613 C614 1.287 . S
C614 C613 1.287 . S
C614 C615 1.524 . S
C614 H633 0.913 . S
C615 H591 0.950 . S
C615 C614 1.524 . S
C615 C616 1.415 . S
C616 H592 0.950 . S
C616 C611 1.363 . S
C616 C615 1.415 . S
C617 H593 0.951 . S
C617 C618 1.366 . S
C617 C619 1.388 . S
C618 C617 1.366 . S
C618 C622 1.385 . S
C619 H594 0.951 . S
C619 C617 1.388 . S
C619 C620 1.366 . S
C620 C619 1.366 . S
C620 C621 1.414 . S
C620 C623 1.499 . S
C621 H595 0.950 . S
C621 C620 1.414 . S
C621 C622 1.374 . S
C622 H596 0.950 . S
C622 C618 1.385 . S
C622 C621 1.374 . S
C623 C620 1.499 . S
C623 C624 1.373 . S
C623 C625 1.389 . S
C624 H597 0.950 . S
C624 C610 1.377 . S
C624 C623 1.373 . S
C625 C609 1.377 . S
C625 C623 1.389 . S
C625 C626 1.524 . S
C626 C625 1.524 . S
C626 C627 1.397 . S
C626 C631 1.363 . S
C627 H598 0.950 . S
C627 C626 1.397 . S
C627 C628 1.334 . S
C628 H599 0.950 . S
C628 C627 1.334 . S
C628 C629 1.287 . S
C629 C628 1.287 . S
C629 C630 1.524 . S
C629 H632 0.999 . S
C630 H600 0.950 . S
C630 C629 1.524 . S
C630 C631 1.415 . S
C631 H601 0.950 . S
C631 C626 1.363 . S
C631 C630 1.415 . S
H632 C629 0.999 . S
H633 C614 0.913 . S
H634 C652 0.951 . S
H635 C654 0.951 . S
H636 C656 0.950 . S
H637 C657 0.950 . S
H638 C659 0.950 . S
H639 C662 0.950 . S
H640 C663 0.950 . S
H641 C665 0.950 . S
H642 C666 0.950 . S
H643 C667 0.951 . S
H644 C669 0.951 . S
H645 C671 0.950 . S
H646 C672 0.950 . S
H647 C674 0.950 . S
H648 C677 0.950 . S
H649 C678 0.950 . S
H650 C680 0.950 . S
H651 C681 0.950 . S
C652 H634 0.951 . S
C652 C653 1.366 . S
C652 C654 1.388 . S
C653 C652 1.366 . S
C653 C657 1.385 . S
C654 H635 0.951 . S
C654 C652 1.388 . S
C654 C655 1.366 . S
C655 C654 1.366 . S
C655 C656 1.414 . S
C655 C658 1.499 . S
C656 H636 0.950 . S
C656 C655 1.414 . S
C656 C657 1.374 . S
C657 H637 0.950 . S
C657 C653 1.385 . S
C657 C656 1.374 . S
C658 C655 1.499 . S
C658 C659 1.373 . S
C658 C660 1.389 . S
C659 H638 0.950 . S
C659 C658 1.373 . S
C659 C675 1.377 . S
C660 C658 1.389 . S
C660 C661 1.524 . S
C660 C674 1.377 . S
C661 C660 1.524 . S
C661 C662 1.397 . S
C661 C666 1.363 . S
C662 H639 0.950 . S
C662 C661 1.397 . S
C662 C663 1.334 . S
C663 H640 0.950 . S
C663 C662 1.334 . S
C663 C664 1.287 . S
C664 C663 1.287 . S
C664 C665 1.524 . S
C664 H683 0.913 . S
C665 H641 0.950 . S
C665 C664 1.524 . S
C665 C666 1.415 . S
C666 H642 0.950 . S
C666 C661 1.363 . S
C666 C665 1.415 . S
C667 H643 0.951 . S
C667 C668 1.366 . S
C667 C669 1.388 . S
C668 C667 1.366 . S
C668 C672 1.385 . S
C669 H644 0.951 . S
C669 C667 1.388 . S
C669 C670 1.366 . S
C670 C669 1.366 . S
C670 C671 1.414 . S
C670 C673 1.499 . S
C671 H645 0.950 . S
C671 C670 1.414 . S
C671 C672 1.374 . S
C672 H646 0.950 . S
C672 C668 1.385 . S
C672 C671 1.374 . S
C673 C670 1.499 . S
C673 C674 1.373 . S
C673 C675 1.389 . S
C674 H647 0.950 . S
C674 C660 1.377 . S
C674 C673 1.373 . S
C675 C659 1.377 . S
C675 C673 1.389 . S
C675 C676 1.524 . S
C676 C675 1.524 . S
C676 C677 1.397 . S
C676 C681 1.363 . S
C677 H648 0.950 . S
C677 C676 1.397 . S
C677 C678 1.334 . S
C678 H649 0.950 . S
C678 C677 1.334 . S
C678 C679 1.287 . S
C679 C678 1.287 . S
C679 C680 1.524 . S
C679 H682 0.999 . S
C680 H650 0.950 . S
C680 C679 1.524 . S
C680 C681 1.415 . S
C681 H651 0.950 . S
C681 C676 1.363 . S
C681 C680 1.415 . S
H682 C679 0.999 . S
H683 C664 0.913 . S
C103 C9 1.639 . S
C118 C78 1.647 . S
C153 C8 1.648 . S
C168 C23 1.639 . S
C203 C37 1.639 . S
C218 C22 1.647 . S
C253 C51 1.639 . S
C268 C36 1.647 . S
C303 C65 1.639 . S
C318 C50 1.647 . S
C353 C79 1.639 . S
C368 C64 1.647 . S
C403 C3 1.441 . S
C418 C63 1.411 . S
C453 C77 1.412 . S
C468 C17 1.441 . S
C503 C31 1.441 . S
C518 C7 1.412 . S
C553 C21 1.412 . S
C568 C45 1.441 . S
C603 C35 1.411 . S
C618 C59 1.441 . S
C653 C73 1.441 . S
C668 C49 1.411 . S
