# Generated by pormake.
# Topology smk, (6)-cn, num edge types: 1
# Building blocks:
#     Node 0, Type 0, BuildingBlock: JUFBIX_clean_sbu_0, # of connection points: 6
#     Node 1, Type 0, BuildingBlock: JUFBIX_clean_sbu_0, # of connection points: 6
#     Node 2, Type 0, BuildingBlock: JUFBIX_clean_sbu_0, # of connection points: 6
#     Node 3, Type 0, BuildingBlock: JUFBIX_clean_sbu_0, # of connection points: 6
#     Node 4, Type 0, BuildingBlock: JUFBIX_clean_sbu_0, # of connection points: 6
#     Node 5, Type 0, BuildingBlock: JUFBIX_clean_sbu_0, # of connection points: 6
#     Edge 6, Type (0, 0), BuildingBlock: MIFKUJ_clean_linker_0, # of connection points: 2
#     Edge 7, Type (0, 0), BuildingBlock: MIFKUJ_clean_linker_0, # of connection points: 2
#     Edge 8, Type (0, 0), BuildingBlock: MIFKUJ_clean_linker_0, # of connection points: 2
#     Edge 9, Type (0, 0), BuildingBlock: MIFKUJ_clean_linker_0, # of connection points: 2
#     Edge 10, Type (0, 0), BuildingBlock: MIFKUJ_clean_linker_0, # of connection points: 2
#     Edge 11, Type (0, 0), BuildingBlock: MIFKUJ_clean_linker_0, # of connection points: 2
#     Edge 12, Type (0, 0), BuildingBlock: MIFKUJ_clean_linker_0, # of connection points: 2
#     Edge 13, Type (0, 0), BuildingBlock: MIFKUJ_clean_linker_0, # of connection points: 2
#     Edge 14, Type (0, 0), BuildingBlock: MIFKUJ_clean_linker_0, # of connection points: 2
#     Edge 15, Type (0, 0), BuildingBlock: MIFKUJ_clean_linker_0, # of connection points: 2
#     Edge 16, Type (0, 0), BuildingBlock: MIFKUJ_clean_linker_0, # of connection points: 2
#     Edge 17, Type (0, 0), BuildingBlock: MIFKUJ_clean_linker_0, # of connection points: 2
#     Edge 18, Type (0, 0), BuildingBlock: MIFKUJ_clean_linker_0, # of connection points: 2
#     Edge 19, Type (0, 0), BuildingBlock: MIFKUJ_clean_linker_0, # of connection points: 2
#     Edge 20, Type (0, 0), BuildingBlock: MIFKUJ_clean_linker_0, # of connection points: 2
#     Edge 21, Type (0, 0), BuildingBlock: MIFKUJ_clean_linker_0, # of connection points: 2
#     Edge 22, Type (0, 0), BuildingBlock: MIFKUJ_clean_linker_0, # of connection points: 2
#     Edge 23, Type (0, 0), BuildingBlock: MIFKUJ_clean_linker_0, # of connection points: 2
# Relax obj value: 0.356
# Max RMSD: 0.249
# Mean RMSD: 0.249
data_MOF--net-smk--node1-JUFBIX_clean_sbu_0--edge1-MIFKUJ_clean_linker_0
_symmetry_space_group_name_H-M    P1
_symmetry_Int_Tables_number       1
_symmetry_cell_setting            triclinic
loop_
_symmetry_equiv_pos_as_xyz
'x, y, z'
_cell_length_a     57.457928
_cell_length_b     57.374488
_cell_length_c     18.94425
_cell_angle_alpha  90.193923
_cell_angle_beta   89.71397
_cell_angle_gamma 120.06629
loop_
_atom_site_label
_atom_site_type_symbol
_atom_site_fract_x
_atom_site_fract_y
_atom_site_fract_z
_atom_type_partial_charge
Co0 Co 0.42426 0.20055 0.5181 0.0
C1 C 0.40854 0.14619 0.51158 0.0
Co2 Co 0.45841 0.19291 0.52128 0.0
C3 C 0.39216 0.22589 0.54795 0.0
C4 C 0.37401 0.19405 0.472 0.0
N5 N 0.39584 0.2073 0.51337 0.0
N6 N 0.36879 0.22463 0.5299 0.0
C7 C 0.3574 0.20458 0.48202 0.0
H8 H 0.40624 0.23985 0.58611 0.0
H9 H 0.37048 0.17785 0.43632 0.0
C10 C 0.47487 0.24703 0.52505 0.0
N11 N 0.48649 0.18575 0.52506 0.0
C12 C 0.506 0.19343 0.57412 0.0
C13 C 0.49137 0.17094 0.47823 0.0
N14 N 0.52292 0.18411 0.55935 0.0
C15 C 0.51378 0.17 0.49895 0.0
C16 C 0.44385 0.19816 0.38851 0.0
O17 O 0.44977 0.23857 0.51945 0.0
O18 O 0.4829 0.23008 0.52889 0.0
O19 O 0.4614 0.19556 0.42228 0.0
O20 O 0.42595 0.20069 0.42087 0.0
O21 O 0.4338 0.15567 0.51307 0.0
H22 H 0.47924 0.16121 0.43221 0.0
H23 H 0.50788 0.20579 0.61944 0.0
O24 O 0.39941 0.16232 0.51576 0.0
O25 O 0.42239 0.19995 0.61553 0.0
O26 O 0.45476 0.19016 0.61967 0.0
C27 C 0.43742 0.1941 0.65083 0.0
H28 H 0.3386 0.19824 0.45502 0.0
H29 H 0.52237 0.1593 0.4724 0.0
Co30 Co 0.20341 0.41106 0.78695 0.0
C31 C 0.14879 0.39261 0.77108 0.0
Co32 Co 0.19351 0.44373 0.78318 0.0
C33 C 0.23213 0.38222 0.75888 0.0
C34 C 0.19735 0.35996 0.82425 0.0
N35 N 0.21179 0.38373 0.79069 0.0
N36 N 0.23068 0.3583 0.77069 0.0
C37 C 0.20882 0.34428 0.81181 0.0
H38 H 0.24718 0.39799 0.72586 0.0
H39 H 0.17936 0.35423 0.85497 0.0
C40 C 0.24772 0.46277 0.80135 0.0
N41 N 0.18463 0.47064 0.7795 0.0
C42 C 0.19533 0.49289 0.73856 0.0
C43 C 0.16472 0.47125 0.8159 0.0
N44 N 0.18277 0.50728 0.74765 0.0
C45 C 0.16354 0.4937 0.79653 0.0
C46 C 0.19148 0.42412 0.91545 0.0
O47 O 0.24065 0.43786 0.79921 0.0
O48 O 0.22996 0.46961 0.795 0.0
O49 O 0.18873 0.44152 0.88118 0.0
O50 O 0.19845 0.40905 0.88397 0.0
O51 O 0.15696 0.41766 0.77178 0.0
H52 H 0.15167 0.45613 0.85354 0.0
H53 H 0.21158 0.498 0.7015 0.0
O54 O 0.16593 0.3848 0.7756 0.0
O55 O 0.20806 0.41306 0.68959 0.0
O56 O 0.19835 0.44553 0.68556 0.0
C57 C 0.20486 0.43 0.65451 0.0
H58 H 0.2016 0.32408 0.83136 0.0
H59 H 0.14962 0.49956 0.81719 0.0
Co60 Co 0.81255 0.223 0.876 0.0
C61 C 0.86718 0.25806 0.89279 0.0
Co62 Co 0.8232 0.26587 0.8825 0.0
C63 C 0.78395 0.16463 0.8972 0.0
C64 C 0.81536 0.1782 0.81981 0.0
N65 N 0.80347 0.18713 0.86549 0.0
N66 N 0.78309 0.1421 0.87216 0.0
C67 C 0.80282 0.15062 0.8235 0.0
H68 H 0.77032 0.16472 0.93672 0.0
H69 H 0.83204 0.19095 0.78553 0.0
C70 C 0.76902 0.23155 0.8618 0.0
N71 N 0.83297 0.30191 0.89202 0.0
C72 C 0.82368 0.31355 0.93772 0.0
C73 C 0.85288 0.3226 0.85615 0.0
N74 N 0.83719 0.34073 0.93209 0.0
C75 C 0.85548 0.34637 0.88042 0.0
C76 C 0.82496 0.25022 0.74858 0.0
O77 O 0.77565 0.21343 0.86425 0.0
O78 O 0.78697 0.25614 0.86935 0.0
O79 O 0.82864 0.27028 0.78515 0.0
O80 O 0.81776 0.22784 0.77828 0.0
O81 O 0.85956 0.27536 0.89445 0.0
H82 H 0.86512 0.32058 0.81574 0.0
H83 H 0.80787 0.30233 0.97579 0.0
O84 O 0.84962 0.23324 0.88675 0.0
O85 O 0.80729 0.21859 0.97377 0.0
O86 O 0.81725 0.2609 0.97944 0.0
C87 C 0.80989 0.23852 0.00728 0.0
H88 H 0.80801 0.1378 0.7933 0.0
H89 H 0.86979 0.36628 0.86129 0.0
Co90 Co 0.60229 0.78495 0.07646 0.0
C91 C 0.62216 0.75071 0.05006 0.0
Co92 Co 0.57015 0.74219 0.06838 0.0
C93 C 0.63044 0.84303 0.05407 0.0
C94 C 0.6503 0.83078 0.128 0.0
N95 N 0.6287 0.82102 0.08525 0.0
N96 N 0.65209 0.86606 0.07647 0.0
C97 C 0.66459 0.85839 0.12302 0.0
H98 H 0.61584 0.84222 0.01676 0.0
H99 H 0.65528 0.81858 0.16108 0.0
C100 C 0.55001 0.77569 0.09841 0.0
N101 N 0.54431 0.70605 0.06081 0.0
C102 C 0.52126 0.69413 0.02326 0.0
C103 C 0.5456 0.68558 0.09155 0.0
N104 N 0.50823 0.66698 0.02911 0.0
C105 C 0.52354 0.66162 0.07228 0.0
C106 C 0.5898 0.75745 0.20234 0.0
O107 O 0.57476 0.79385 0.09543 0.0
O108 O 0.54337 0.7513 0.08677 0.0
O109 O 0.57279 0.73776 0.1658 0.0
O110 O 0.60462 0.78005 0.17323 0.0
O111 O 0.59726 0.7333 0.05065 0.0
H112 H 0.56172 0.68792 0.12552 0.0
H113 H 0.51451 0.70516 -0.00884 0.0
O114 O 0.62937 0.77541 0.05907 0.0
O115 O 0.59968 0.78939 -0.02106 0.0
O116 O 0.56767 0.74701 0.97361 0.0
C117 C 0.5826 0.76966 0.94447 0.0
H118 H 0.68296 0.8718 0.1508 0.0
H119 H 0.51902 0.64181 0.08941 0.0
Co120 Co 0.79792 0.59219 0.21183 0.0
C121 C 0.76121 0.6099 0.19244 0.0
Co122 Co 0.75531 0.55946 0.21617 0.0
C123 C 0.85557 0.62306 0.24243 0.0
C124 C 0.84317 0.64117 0.16352 0.0
N125 N 0.83371 0.61966 0.20673 0.0
N126 N 0.87816 0.64601 0.22349 0.0
C127 C 0.87032 0.65738 0.17386 0.0
H128 H 0.85487 0.60917 0.28204 0.0
H129 H 0.83109 0.64478 0.12636 0.0
C130 C 0.7913 0.54109 0.23103 0.0
N131 N 0.7195 0.53238 0.21965 0.0
C132 C 0.70641 0.51286 0.26838 0.0
C133 C 0.70054 0.52867 0.17218 0.0
N134 N 0.67997 0.49717 0.25323 0.0
C135 C 0.67635 0.50712 0.19249 0.0
C136 C 0.77723 0.56879 0.08375 0.0
O137 O 0.8088 0.56595 0.22432 0.0
O138 O 0.76648 0.534 0.23183 0.0
O139 O 0.75607 0.55411 0.11907 0.0
O140 O 0.79788 0.58724 0.11429 0.0
O141 O 0.74435 0.58499 0.19927 0.0
H142 H 0.7041 0.54093 0.12571 0.0
H143 H 0.71607 0.51054 0.31458 0.0
O144 O 0.78617 0.61794 0.19802 0.0
O145 O 0.79767 0.59678 0.30962 0.0
O146 O 0.75507 0.56515 0.31316 0.0
C147 C 0.77613 0.58271 0.34441 0.0
H148 H 0.88341 0.6759 0.14602 0.0
H149 H 0.65763 0.49923 0.16396 0.0
Co150 Co 0.23354 0.80625 0.44598 0.0
C151 C 0.27012 0.86068 0.42437 0.0
Co152 Co 0.27609 0.81592 0.44106 0.0
C153 C 0.17551 0.77866 0.41999 0.0
C154 C 0.18955 0.81325 0.48688 0.0
N155 N 0.19795 0.79846 0.45103 0.0
N156 N 0.15356 0.7808 0.43464 0.0
C157 C 0.16242 0.80253 0.47686 0.0
H158 H 0.17542 0.76346 0.38581 0.0
H159 H 0.20244 0.83096 0.51781 0.0
C160 C 0.2403 0.76192 0.46527 0.0
N161 N 0.31189 0.82449 0.4369 0.0
C162 C 0.32383 0.8143 0.39519 0.0
C163 C 0.33206 0.84375 0.4754 0.0
N164 N 0.35071 0.82653 0.40606 0.0
C165 C 0.35578 0.84498 0.45691 0.0
C166 C 0.2591 0.81926 0.57388 0.0
O167 O 0.22269 0.76921 0.46239 0.0
O168 O 0.26499 0.77938 0.45656 0.0
O169 O 0.27899 0.8218 0.53842 0.0
O170 O 0.23704 0.81247 0.54329 0.0
O171 O 0.28699 0.85254 0.42602 0.0
H172 H 0.32972 0.85632 0.51415 0.0
H173 H 0.31301 0.7986 0.35664 0.0
O174 O 0.24518 0.84358 0.43059 0.0
O175 O 0.23042 0.79998 0.34835 0.0
O176 O 0.2726 0.80966 0.34433 0.0
C177 C 0.25042 0.80229 0.31358 0.0
H178 H 0.15014 0.81016 0.4991 0.0
H179 H 0.37521 0.85843 0.4798 0.0
H180 H 0.48294 0.22285 0.28925 0.0
H181 H 0.47636 0.21769 0.1605 0.0
H182 H 0.3927 0.15842 0.19278 0.0
H183 H 0.39895 0.16425 0.32045 0.0
H184 H 0.42185 0.14523 0.08857 0.0
H185 H 0.40029 0.21158 0.1609 0.0
H186 H 0.40602 0.25285 0.21726 0.0
H187 H 0.47328 0.30099 0.08152 0.0
H188 H 0.46874 0.25994 0.02646 0.0
H189 H 0.40033 0.1983 0.73067 0.0
H190 H 0.39406 0.19231 0.85799 0.0
H191 H 0.45978 0.17629 0.86965 0.0
H192 H 0.46608 0.18188 0.74218 0.0
H193 H 0.43062 0.2229 0.95387 0.0
H194 H 0.44648 0.13099 -0.0025 0.0
H195 H 0.43501 0.08825 0.94016 0.0
H196 H 0.36869 0.08821 0.83654 0.0
H197 H 0.37953 0.13071 0.89598 0.0
C198 C 0.46333 0.20869 0.26823 0.0
C199 C 0.44133 0.19415 0.31311 0.0
C200 C 0.45959 0.20576 0.19555 0.0
C201 C 0.43405 0.18779 0.16846 0.0
C202 C 0.41245 0.17234 0.21357 0.0
C203 C 0.416 0.17579 0.2858 0.0
C204 C 0.42943 0.18599 0.09281 0.0
C205 C 0.42378 0.16213 0.05825 0.0
C206 C 0.43086 0.20781 0.05504 0.0
C207 C 0.43445 0.23257 0.09034 0.0
C208 C 0.41671 0.2309 0.14414 0.0
C209 C 0.41969 0.25429 0.17575 0.0
C210 C 0.44005 0.27953 0.15317 0.0
C211 C 0.45755 0.28142 0.0991 0.0
C212 C 0.45488 0.25809 0.06797 0.0
C213 C 0.41338 0.19338 0.76031 0.0
C214 C 0.43381 0.1907 0.72699 0.0
C215 C 0.40965 0.18985 0.83267 0.0
C216 C 0.42626 0.18358 0.87219 0.0
C217 C 0.44651 0.18065 0.83917 0.0
C218 C 0.45023 0.18411 0.76675 0.0
C219 C 0.42421 0.18256 0.94893 0.0
C220 C 0.42853 0.2059 -0.01812 0.0
C221 C 0.42081 0.16 -0.01493 0.0
C222 C 0.41398 0.13419 0.95192 0.0
C223 C 0.42937 0.1218 0.96443 0.0
C224 C 0.423 0.09762 0.93062 0.0
C225 C 0.40119 0.08556 0.88441 0.0
C226 C 0.38566 0.09761 0.87207 0.0
C227 C 0.39194 0.12178 0.90571 0.0
H228 H 0.3963 0.06686 0.85827 0.0
H229 H 0.44223 0.29762 0.17744 0.0
H230 H 0.2029 0.39067 0.57097 0.0
H231 H 0.19904 0.38803 0.4429 0.0
H232 H 0.20694 0.46694 0.43753 0.0
H233 H 0.2099 0.46938 0.56614 0.0
H234 H 0.16393 0.43051 0.36606 0.0
H235 H 0.25794 0.45662 0.38162 0.0
H236 H 0.29622 0.45247 0.42404 0.0
H237 H 0.26138 0.37328 0.33378 0.0
H238 H 0.22272 0.37682 0.29165 0.0
H239 H 0.19049 0.46062 0.00302 0.0
H240 H 0.18802 0.45781 0.13162 0.0
H241 H 0.17877 0.37836 0.12188 0.0
H242 H 0.18186 0.38127 -0.00649 0.0
H243 H 0.22012 0.41188 0.20165 0.0
H244 H 0.12769 0.3863 0.17951 0.0
H245 H 0.08886 0.3895 0.13744 0.0
H246 H 0.11965 0.46624 0.23966 0.0
H247 H 0.15891 0.46371 0.28147 0.0
C248 C 0.20427 0.40763 0.54236 0.0
C249 C 0.20649 0.43015 0.57788 0.0
C250 C 0.20212 0.40611 0.46943 0.0
C251 C 0.20282 0.42735 0.43147 0.0
C252 C 0.20627 0.45038 0.46658 0.0
C253 C 0.20802 0.45175 0.53962 0.0
C254 C 0.19813 0.42476 0.35548 0.0
C255 C 0.17639 0.42681 0.32971 0.0
C256 C 0.21387 0.41887 0.30941 0.0
C257 C 0.23733 0.41691 0.33399 0.0
C258 C 0.25837 0.43826 0.37121 0.0
C259 C 0.28014 0.43602 0.39514 0.0
C260 C 0.2812 0.4126 0.38176 0.0
C261 C 0.26053 0.39141 0.34417 0.0
C262 C 0.2387 0.39353 0.32018 0.0
C263 C 0.18748 0.44242 0.02841 0.0
C264 C 0.18685 0.42137 -0.01088 0.0
C265 C 0.18587 0.44075 0.10152 0.0
C266 C 0.18314 0.41784 0.13546 0.0
C267 C 0.18093 0.39617 0.09602 0.0
C268 C 0.18285 0.39794 0.02309 0.0
C269 C 0.18612 0.41799 0.21192 0.0
C270 C 0.20754 0.41544 0.2379 0.0
C271 C 0.17003 0.42333 0.2581 0.0
C272 C 0.14638 0.4249 0.23318 0.0
C273 C 0.12631 0.40397 0.19255 0.0
C274 C 0.10419 0.40564 0.16883 0.0
C275 C 0.10182 0.42808 0.18574 0.0
C276 C 0.12153 0.44887 0.22655 0.0
C277 C 0.1437 0.44731 0.25035 0.0
H278 H 0.08468 0.42933 0.16733 0.0
H279 H 0.29806 0.41089 0.40043 0.0
H280 H 0.79703 0.26966 0.08668 0.0
H281 H 0.79395 0.26992 0.21499 0.0
H282 H 0.80764 0.20259 0.22642 0.0
H283 H 0.81011 0.20176 0.09739 0.0
H284 H 0.77147 0.20183 0.32943 0.0
H285 H 0.86022 0.26356 0.23125 0.0
H286 H 0.89055 0.3004 0.15157 0.0
H287 H 0.86724 0.35317 0.25009 0.0
H288 H 0.8365 0.3165 0.32977 0.0
H289 H 0.82918 0.21575 0.65846 0.0
H290 H 0.82439 0.21446 0.53048 0.0
H291 H 0.8185 0.28656 0.53814 0.0
H292 H 0.82395 0.2884 0.66627 0.0
H293 H 0.84751 0.28613 0.42638 0.0
H294 H 0.76233 0.2271 0.53205 0.0
H295 H 0.73079 0.19086 0.6113 0.0
H296 H 0.74517 0.13392 0.50005 0.0
H297 H 0.77713 0.16992 0.42076 0.0
C298 C 0.79898 0.25466 0.11653 0.0
C299 C 0.8045 0.23611 0.0829 0.0
C300 C 0.79703 0.25474 0.18947 0.0
C301 C 0.80112 0.23663 0.22934 0.0
C302 C 0.80454 0.21673 0.19584 0.0
C303 C 0.80613 0.2164 0.12257 0.0
C304 C 0.80542 0.24075 0.30534 0.0
C305 C 0.78814 0.22011 0.35092 0.0
C306 C 0.82684 0.26501 0.33246 0.0
C307 C 0.84593 0.28726 0.28602 0.0
C308 C 0.8615 0.283 0.23571 0.0
C309 C 0.87875 0.30384 0.19056 0.0
C310 C 0.88077 0.32909 0.19566 0.0
C311 C 0.86564 0.33359 0.24616 0.0
C312 C 0.84833 0.31281 0.29138 0.0
C313 C 0.82728 0.23155 0.63269 0.0
C314 C 0.8265 0.25194 0.67182 0.0
C315 C 0.82445 0.23072 0.55993 0.0
C316 C 0.82037 0.25 0.52589 0.0
C317 C 0.82139 0.27141 0.56416 0.0
C318 C 0.82452 0.27243 0.63701 0.0
C319 C 0.81381 0.24701 0.45074 0.0
C320 C 0.83067 0.2679 0.40521 0.0
C321 C 0.79183 0.22309 0.42386 0.0
C322 C 0.77229 0.20127 0.47077 0.0
C323 C 0.7589 0.20689 0.52474 0.0
C324 C 0.74093 0.18639 0.56965 0.0
C325 C 0.73602 0.16012 0.56079 0.0
C326 C 0.749 0.15428 0.50687 0.0
C327 C 0.76703 0.17472 0.46186 0.0
H328 H 0.72211 0.14427 0.59564 0.0
H329 H 0.8941 0.34519 0.16057 0.0
H330 H 0.63055 0.79048 0.28923 0.0
H331 H 0.62952 0.79069 0.41799 0.0
H332 H 0.55087 0.71942 0.41638 0.0
H333 H 0.55174 0.71898 0.28727 0.0
H334 H 0.55352 0.76331 0.48738 0.0
H335 H 0.60037 0.71427 0.47905 0.0
H336 H 0.63583 0.70453 0.44216 0.0
H337 H 0.69584 0.77854 0.53615 0.0
H338 H 0.66079 0.789 0.57253 0.0
H339 H 0.54214 0.73632 0.85689 0.0
H340 H 0.54314 0.73655 0.72803 0.0
H341 H 0.62126 0.80847 0.73048 0.0
H342 H 0.62037 0.80859 0.85964 0.0
H343 H 0.6191 0.76448 0.65867 0.0
H344 H 0.57268 0.81369 0.66721 0.0
H345 H 0.53782 0.8249 0.69924 0.0
H346 H 0.47752 0.75196 0.60147 0.0
H347 H 0.51193 0.74001 0.57001 0.0
C348 C 0.61327 0.77456 0.31639 0.0
C349 C 0.59106 0.7549 0.27875 0.0
C350 C 0.61279 0.77463 0.38971 0.0
C351 C 0.5901 0.7551 0.42597 0.0
C352 C 0.56851 0.7346 0.3887 0.0
C353 C 0.56908 0.73435 0.31528 0.0
C354 C 0.58774 0.75804 0.50206 0.0
C355 C 0.56749 0.76308 0.52533 0.0
C356 C 0.60675 0.75871 0.55008 0.0
C357 C 0.62793 0.75253 0.52807 0.0
C358 C 0.62115 0.72861 0.49131 0.0
C359 C 0.64117 0.72292 0.47065 0.0
C360 C 0.66805 0.74088 0.48694 0.0
C361 C 0.67499 0.76462 0.52372 0.0
C362 C 0.65505 0.77043 0.5444 0.0
C363 C 0.5593 0.75248 0.82993 0.0
C364 C 0.58134 0.77225 0.8679 0.0
C365 C 0.55974 0.75267 0.75653 0.0
C366 C 0.58229 0.77249 0.72041 0.0
C367 C 0.60372 0.79306 0.758 0.0
C368 C 0.60315 0.7931 0.8315 0.0
C369 C 0.58477 0.7697 0.64421 0.0
C370 C 0.60507 0.76469 0.62086 0.0
C371 C 0.56583 0.76912 0.59602 0.0
C372 C 0.54488 0.77575 0.61718 0.0
C373 C 0.55194 0.7998 0.65352 0.0
C374 C 0.53226 0.80635 0.67133 0.0
C375 C 0.50546 0.78911 0.65264 0.0
C376 C 0.49828 0.76526 0.61612 0.0
C377 C 0.51786 0.75858 0.59834 0.0
H378 H 0.49027 0.79426 0.66628 0.0
H379 H 0.68352 0.73642 0.47095 0.0
H380 H 0.73277 0.55872 0.43183 0.0
H381 H 0.73333 0.55774 0.56035 0.0
H382 H 0.81931 0.61119 0.55875 0.0
H383 H 0.81906 0.61224 0.42987 0.0
H384 H 0.8031 0.56381 0.63056 0.0
H385 H 0.78069 0.63346 0.61977 0.0
H386 H 0.75555 0.65597 0.585 0.0
H387 H 0.68411 0.5929 0.68241 0.0
H388 H 0.70867 0.5697 0.71658 0.0
H389 H 0.82038 0.59269 -0.00427 0.0
H390 H 0.81957 0.59181 0.86918 0.0
H391 H 0.73394 0.53658 0.87326 0.0
H392 H 0.73446 0.53733 0.0 0.0
H393 H 0.74967 0.58415 0.80042 0.0
H394 H 0.77226 0.51459 0.81183 0.0
H395 H 0.79795 0.49305 0.85023 0.0
H396 H 0.86942 0.5567 0.75454 0.0
H397 H 0.84427 0.57887 0.71646 0.0
C398 C 0.75174 0.57063 0.45884 0.0
C399 C 0.77594 0.58529 0.42115 0.0
C400 C 0.75198 0.57016 0.53208 0.0
C401 C 0.77636 0.58439 0.56826 0.0
C402 C 0.80036 0.60011 0.53107 0.0
C403 C 0.80015 0.60069 0.45775 0.0
C404 C 0.77705 0.5805 0.64427 0.0
C405 C 0.79178 0.56862 0.66807 0.0
C406 C 0.76147 0.58602 0.69194 0.0
C407 C 0.74647 0.59965 0.66997 0.0
C408 C 0.75953 0.62418 0.63295 0.0
C409 C 0.74539 0.63711 0.61352 0.0
C410 C 0.71823 0.62583 0.63126 0.0
C411 C 0.70514 0.60159 0.66851 0.0
C412 C 0.71916 0.58853 0.68791 0.0
C413 C 0.80146 0.58001 0.97134 0.0
C414 C 0.77741 0.5654 0.00742 0.0
C415 C 0.80109 0.57937 0.8981 0.0
C416 C 0.7767 0.56412 0.8626 0.0
C417 C 0.75289 0.54839 0.90047 0.0
C418 C 0.75325 0.54889 0.97376 0.0
C419 C 0.77564 0.56742 0.78655 0.0
C420 C 0.76087 0.57922 0.76279 0.0
C421 C 0.79118 0.56185 0.73901 0.0
C422 C 0.8064 0.54853 0.76181 0.0
C423 C 0.79351 0.52414 0.79952 0.0
C424 C 0.80796 0.51178 0.82112 0.0
C425 C 0.8353 0.52353 0.80498 0.0
C426 C 0.84824 0.54763 0.76706 0.0
C427 C 0.83388 0.56009 0.74538 0.0
H428 H 0.84646 0.51394 0.82174 0.0
H429 H 0.70734 0.63591 0.61632 0.0
H430 H 0.28528 0.79565 0.23081 0.0
H431 H 0.28571 0.79432 0.10222 0.0
H432 H 0.21196 0.79694 0.09667 0.0
H433 H 0.21106 0.79782 0.22564 0.0
H434 H 0.21596 0.76435 -0.00905 0.0
H435 H 0.26836 0.85481 0.08958 0.0
H436 H 0.30315 0.88858 0.16811 0.0
H437 H 0.36287 0.87513 0.06939 0.0
H438 H 0.32837 0.84115 -0.00938 0.0
H439 H 0.22252 0.82022 0.66341 0.0
H440 H 0.22193 0.81658 0.79176 0.0
H441 H 0.29834 0.81924 0.78527 0.0
H442 H 0.29941 0.82339 0.65703 0.0
H443 H 0.2941 0.84721 0.89645 0.0
H444 H 0.24331 0.76089 0.78833 0.0
H445 H 0.20912 0.72721 0.70857 0.0
H446 H 0.14684 0.73111 0.82488 0.0
H447 H 0.18075 0.7653 0.90432 0.0
C448 C 0.26892 0.79551 0.20222 0.0
C449 C 0.24846 0.7975 0.23763 0.0
C450 C 0.26915 0.79461 0.12908 0.0
C451 C 0.24914 0.79606 0.09089 0.0
C452 C 0.22756 0.7959 0.12597 0.0
C453 C 0.22718 0.79657 0.19931 0.0
C454 C 0.2525 0.80115 0.01505 0.0
C455 C 0.23286 0.7825 0.97166 0.0
C456 C 0.27496 0.82463 -0.01193 0.0
C457 C 0.29579 0.84536 0.03459 0.0
C458 C 0.2889 0.859 0.08486 0.0
C459 C 0.30856 0.87818 0.12936 0.0
C460 C 0.33519 0.88396 0.12383 0.0
C461 C 0.34224 0.87063 0.07362 0.0
C462 C 0.32266 0.85146 0.02894 0.0
C463 C 0.23941 0.8205 0.68946 0.0
C464 C 0.26079 0.82161 0.65061 0.0
C465 C 0.239 0.81838 0.76246 0.0
C466 C 0.25979 0.81704 0.79695 0.0
C467 C 0.28208 0.82008 0.75889 0.0
C468 C 0.28261 0.8224 0.68589 0.0
C469 C 0.25737 0.81058 0.8721 0.0
C470 C 0.27723 0.82896 0.91757 0.0
C471 C 0.23518 0.78675 0.89884 0.0
C472 C 0.21463 0.76583 0.85191 0.0
C473 C 0.22235 0.75468 0.79659 0.0
C474 C 0.20302 0.73549 0.75147 0.0
C475 C 0.17583 0.72702 0.76165 0.0
C476 C 0.16792 0.73771 0.81704 0.0
C477 C 0.18719 0.757 0.86212 0.0
H478 H 0.16088 0.71217 0.72667 0.0
H479 H 0.35038 0.89879 0.15836 0.0
H480 H 0.3532 0.11684 0.51975 0.0
H481 H 0.32413 0.06829 0.49836 0.0
H482 H 0.39414 0.06111 0.45695 0.0
H483 H 0.42312 0.1091 0.47861 0.0
H484 H 0.35454 0.03543 0.356 0.0
H485 H 0.36359 0.04069 0.60972 0.0
H486 H 0.36032 0.05643 0.72861 0.0
H487 H 0.27525 0.02301 0.70217 0.0
H488 H 0.27811 1.00731 0.58262 0.0
H489 H 0.32134 0.90112 0.39962 0.0
H490 H 0.33882 0.94945 0.40697 0.0
H491 H 0.25909 0.93544 0.45095 0.0
H492 H 0.24133 0.88664 0.44448 0.0
H493 H 0.29652 0.9721 0.54241 0.0
H494 H 0.28773 0.96025 0.29281 0.0
H495 H 0.29269 0.94304 0.17763 0.0
H496 H 0.37863 0.98849 0.19732 0.0
H497 H 0.37421 1.00562 0.31322 0.0
C498 C 0.36235 0.10485 0.50637 0.0
C499 C 0.39048 0.11685 0.50116 0.0
C500 C 0.34574 0.07716 0.49416 0.0
C501 C 0.357 0.06112 0.47591 0.0
C502 C 0.38502 0.07311 0.47057 0.0
C503 C 0.40156 0.10058 0.48344 0.0
C504 C 0.33993 0.03176 0.46261 0.0
C505 C 0.34185 0.02156 0.39672 0.0
C506 C 0.3229 1.01375 0.51518 0.0
C507 C 0.32112 0.02316 0.58692 0.0
C508 C 0.34423 0.03693 0.629 0.0
C509 C 0.34245 0.04579 0.69656 0.0
C510 C 0.31761 0.04084 0.72284 0.0
C511 C 0.29449 0.0269 0.68167 0.0
C512 C 0.29617 1.018 0.61403 0.0
C513 C 0.30739 0.90823 0.41002 0.0
C514 C 0.2799 0.88998 0.42127 0.0
C515 C 0.31743 0.93594 0.41403 0.0
C516 C 0.30025 0.94613 0.4289 0.0
C517 C 0.2727 0.92802 0.43922 0.0
C518 C 0.26256 0.90017 0.43504 0.0
C519 C 0.31157 0.97568 0.43621 0.0
C520 C 0.30864 0.98595 0.50099 0.0
C521 C 0.32782 0.99379 0.38267 0.0
C522 C 0.33061 0.98412 0.31198 0.0
C523 C 0.30769 0.96649 0.27276 0.0
C524 C 0.31041 0.95674 0.20732 0.0
C525 C 0.33596 0.96463 0.18023 0.0
C526 C 0.35885 0.98239 0.21838 0.0
C527 C 0.35625 0.99216 0.28392 0.0
H528 H 0.33801 0.957 0.12965 0.0
H529 H 0.31627 0.04771 0.77517 0.0
H530 H 0.39657 0.27596 0.5803 0.0
H531 H 0.37784 0.30408 0.61872 0.0
H532 H 0.29785 0.23877 0.57521 0.0
H533 H 0.31632 0.21073 0.53717 0.0
H534 H 0.3044 0.28478 0.52297 0.0
H535 H 0.3229 0.2555 0.7447 0.0
H536 H 0.35178 0.25057 0.83224 0.0
H537 H 0.40169 0.33656 0.84455 0.0
H538 H 0.37328 0.34197 0.75632 0.0
H539 H 0.21538 0.30787 0.72737 0.0
H540 H 0.24423 0.2911 0.68228 0.0
H541 H 0.31374 0.3702 0.70591 0.0
H542 H 0.28467 0.38724 0.75052 0.0
H543 H 0.31874 0.32494 0.76236 0.0
H544 H 0.29692 0.35421 0.5514 0.0
H545 H 0.26732 0.35902 0.46637 0.0
H546 H 0.22371 0.27344 0.43389 0.0
H547 H 0.25274 0.26803 0.51998 0.0
C548 C 0.37499 0.26752 0.57962 0.0
C549 C 0.35798 0.24109 0.55528 0.0
C550 C 0.3643 0.28364 0.60144 0.0
C551 C 0.33639 0.27355 0.59996 0.0
C552 C 0.31944 0.24713 0.57627 0.0
C553 C 0.33007 0.2311 0.55436 0.0
C554 C 0.32451 0.29027 0.62253 0.0
C555 C 0.30746 0.29342 0.57546 0.0
C556 C 0.32915 0.30238 0.69019 0.0
C557 C 0.34617 0.29913 0.74331 0.0
C558 C 0.34017 0.27334 0.76565 0.0
C559 C 0.35642 0.27046 0.81546 0.0
C560 C 0.37861 0.29323 0.84377 0.0
C561 C 0.38453 0.31893 0.82247 0.0
C562 C 0.36836 0.32192 0.77259 0.0
C563 C 0.23681 0.32168 0.7231 0.0
C564 C 0.24782 0.34883 0.74258 0.0
C565 C 0.25324 0.31212 0.69708 0.0
C566 C 0.28109 0.32942 0.69071 0.0
C567 C 0.29228 0.35655 0.71048 0.0
C568 C 0.2757 0.36627 0.73544 0.0
C569 C 0.29815 0.3187 0.66344 0.0
C570 C 0.31609 0.31666 0.70951 0.0
C571 C 0.29436 0.3076 0.59486 0.0
C572 C 0.2769 0.3107 0.54265 0.0
C573 C 0.28087 0.33637 0.52664 0.0
C574 C 0.26422 0.33922 0.47812 0.0
C575 C 0.24363 0.31656 0.44474 0.0
C576 C 0.23967 0.29098 0.4598 0.0
C577 C 0.25623 0.28801 0.50845 0.0
H578 H 0.23077 0.31881 0.40714 0.0
H579 H 0.39116 0.29096 0.88234 0.0
H580 H 0.8919 0.22748 0.88831 0.0
H581 H 0.93973 0.24358 0.86491 0.0
H582 H 0.95569 0.32542 0.86135 0.0
H583 H 0.9085 0.30981 0.8858 0.0
H584 H 0.97323 0.30795 0.73777 0.0
H585 H 0.97618 0.30812 -0.00734 0.0
H586 H 0.96305 0.28656 0.10968 0.0
H587 H 0.99057 0.23202 0.05105 0.0
H588 H 1.00351 0.25304 0.93534 0.0
H589 H 0.10852 0.40394 0.75516 0.0
H590 H 0.06054 0.37378 0.76991 0.0
H591 H 0.07395 0.30711 0.80377 0.0
H592 H 0.12264 0.33764 0.79052 0.0
H593 H 0.04007 0.30716 0.90103 0.0
H594 H 0.04376 0.31088 0.65173 0.0
H595 H 0.05693 0.33147 0.53365 0.0
H596 H 1.01631 0.37593 0.57253 0.0
H597 H 1.00323 0.35594 0.69129 0.0
C598 C 0.90571 0.24893 0.88385 0.0
C599 C 0.89633 0.26734 0.88875 0.0
C600 C 0.93298 0.25806 0.87032 0.0
C601 C 0.95112 0.28566 0.86084 0.0
C602 C 0.94195 0.30403 0.86807 0.0
C603 C 0.91494 0.29503 0.88243 0.0
C604 C 0.97946 0.29571 0.83983 0.0
C605 C 0.98791 0.30785 0.77339 0.0
C606 C 0.99826 0.2945 0.88524 0.0
C607 C 0.99045 0.28189 0.95596 0.0
C608 C 0.97915 0.29133 0.00445 0.0
C609 C 0.97181 0.27926 0.07098 0.0
C610 C 0.97587 0.25786 0.0877 0.0
C611 C 0.98737 0.24855 0.03797 0.0
C612 C 0.99472 0.26054 0.97344 0.0
C613 C 0.10138 0.38281 0.76477 0.0
C614 C 0.11948 0.37321 0.77146 0.0
C615 C 0.07381 0.36551 0.7729 0.0
C616 C 0.06351 0.33806 0.78706 0.0
C617 C 0.08143 0.32819 0.79255 0.0
C618 C 0.10921 0.34561 0.78452 0.0
C619 C 0.03416 0.32042 0.79973 0.0
C620 C 1.02541 0.30678 0.86449 0.0
C621 C 1.01494 0.31995 0.75233 0.0
C622 C 1.0226 0.33196 0.68066 0.0
C623 C 0.03777 0.32517 0.63531 0.0
C624 C 0.04521 0.33673 0.56821 0.0
C625 C 0.03749 0.35501 0.54563 0.0
C626 C 1.02227 0.36175 0.59008 0.0
C627 C 1.01479 0.35027 0.65726 0.0
H628 H 0.04328 0.36394 0.49367 0.0
H629 H 0.97019 0.24855 0.13926 0.0
H630 H 0.6743 0.91029 0.15934 0.0
H631 H 0.69196 0.95708 0.12221 0.0
H632 H 0.66764 0.93045 0.91037 0.0
H633 H 0.64955 0.88344 0.94772 0.0
H634 H 0.72339 0.97268 0.92952 0.0
H635 H 0.63377 0.95199 -0.01017 0.0
H636 H 0.59429 0.93553 0.06829 0.0
H637 H 0.64183 0.99595 0.22158 0.0
H638 H 0.68173 1.01253 0.14446 0.0
H639 H 0.76068 0.09897 0.78599 0.0
H640 H 0.73397 0.05167 0.82025 0.0
H641 H 0.73929 0.07531 0.03666 0.0
H642 H 0.76527 0.1229 0.00166 0.0
H643 H 0.69175 0.03379 0.01439 0.0
H644 H 0.7811 0.05328 0.96487 0.0
H645 H 0.82272 0.06985 0.89485 0.0
H646 H 0.77892 1.01207 0.73246 0.0
H647 H 0.73694 0.99538 0.80111 0.0
C648 C 0.67256 0.91443 0.10451 0.0
C649 C 0.66063 0.89329 0.05526 0.0
C650 C 0.68251 0.94111 0.08345 0.0
C651 C 0.68105 0.94721 0.01254 0.0
C652 C 0.66888 0.92613 0.9654 0.0
C653 C 0.65845 0.89934 -0.01537 0.0
C654 C 0.69358 0.9757 -0.01048 0.0
C655 C 0.7162 0.98596 0.9474 0.0
C656 C 0.68481 0.9932 0.0153 0.0
C657 C 0.66081 0.98334 0.06163 0.0
C658 C 0.63588 0.96162 0.04054 0.0
C659 C 0.6134 0.95229 0.08472 0.0
C660 C 0.61556 0.96464 0.14996 0.0
C661 C 0.64019 0.98639 0.17107 0.0
C662 C 0.66274 0.99577 0.12711 0.0
C663 C 0.75597 0.09403 0.84126 0.0
C664 C 0.76527 0.11453 0.89236 0.0
C665 C 0.74079 0.067 0.8609 0.0
C666 C 0.73518 0.05978 0.93237 0.0
C667 C 0.74346 0.0803 -0.01878 0.0
C668 C 0.75827 0.10747 0.96343 0.0
C669 C 0.72158 0.03088 0.9537 0.0
C670 C 0.69888 1.02054 -0.00409 0.0
C671 C 0.73061 1.01335 0.92919 0.0
C672 C 0.75583 0.02327 0.88781 0.0
C673 C 0.78031 0.04424 0.91399 0.0
C674 C 0.80397 0.05363 0.87459 0.0
C675 C 0.80345 0.04207 0.80916 0.0
C676 C 0.77928 0.02103 0.7831 0.0
C677 C 0.75555 1.01158 0.82225 0.0
H678 H 0.82179 0.04937 0.77874 0.0
H679 H 0.59814 0.9574 0.18408 0.0
H680 H 0.71099 0.59701 0.15001 0.0
H681 H 0.69496 0.62734 0.11501 0.0
H682 H 0.77304 0.69583 0.15815 0.0
H683 H 0.78956 0.66537 0.19269 0.0
H684 H 0.72789 0.69946 0.21406 0.0
H685 H 0.75867 0.68249 -0.00359 0.0
H686 H 0.76355 0.65505 0.90559 0.0
H687 H 0.67848 0.61425 0.86823 0.0
H688 H 0.67298 0.6411 0.96189 0.0
H689 H 0.67655 0.77999 0.07522 0.0
H690 H 0.70747 0.76244 0.08713 0.0
H691 H 0.64346 0.68302 0.03168 0.0
H692 H 0.61274 0.70036 0.01869 0.0
H693 H 0.69016 0.69222 0.9767 0.0
H694 H 0.65849 0.70251 0.20436 0.0
H695 H 0.65203 0.72903 0.29723 0.0
H696 H 0.73752 0.78112 0.31193 0.0
H697 H 0.74446 0.75509 0.21846 0.0
C698 C 0.72483 0.61851 0.15241 0.0
C699 C 0.75159 0.62877 0.17422 0.0
C700 C 0.71563 0.63583 0.132 0.0
C701 C 0.73287 0.66381 0.13334 0.0
C702 C 0.75946 0.67426 0.1565 0.0
C703 C 0.76885 0.65686 0.17613 0.0
C704 C 0.72263 0.68177 0.11075 0.0
C705 C 0.72022 0.6984 0.16122 0.0
C706 C 0.71222 0.67999 0.04211 0.0
C707 C 0.71539 0.66372 -0.01439 0.0
C708 C 0.74095 0.6675 0.97099 0.0
C709 C 0.74383 0.65207 0.91807 0.0
C710 C 0.72134 0.63289 0.88109 0.0
C711 C 0.6959 0.62911 0.89694 0.0
C712 C 0.69289 0.64445 0.94993 0.0
C713 C 0.66924 0.75891 0.06412 0.0
C714 C 0.64212 0.74154 0.04657 0.0
C715 C 0.68689 0.74887 0.07134 0.0
C716 C 0.67768 0.7213 0.06137 0.0
C717 C 0.65105 0.70433 0.03978 0.0
C718 C 0.63345 0.7143 0.03262 0.0
C719 C 0.69483 0.70943 0.07833 0.0
C720 C 0.69841 0.6938 0.02691 0.0
C721 C 0.70611 0.71195 0.14623 0.0
C722 C 0.70198 0.72708 0.20386 0.0
C723 C 0.6759 0.71969 0.2272 0.0
C724 C 0.67215 0.73463 0.27992 0.0
C725 C 0.69435 0.75684 0.31014 0.0
C726 C 0.72035 0.76398 0.28825 0.0
C727 C 0.7242 0.74914 0.23545 0.0
H728 H 0.69141 0.76851 0.35055 0.0
H729 H 0.72362 0.62099 0.84007 0.0
H730 H 0.90206 0.61769 0.26466 0.0
H731 H 0.94931 0.63624 0.29864 0.0
H732 H 0.96244 0.71676 0.27508 0.0
H733 H 0.91569 0.69831 0.2399 0.0
H734 H 1.00119 0.71405 0.21304 0.0
H735 H 0.95737 0.68563 0.4403 0.0
H736 H 0.92555 0.65301 0.52665 0.0
H737 H 0.96342 0.60509 0.50504 0.0
H738 H 0.99527 0.63728 0.41784 0.0
H739 H 0.11812 0.79725 0.40534 0.0
H740 H 0.07165 0.76961 0.36665 0.0
H741 H 0.08051 0.69929 0.36668 0.0
H742 H 0.12741 0.72711 0.40608 0.0
H743 H 0.03202 0.6914 0.43298 0.0
H744 H 0.07922 0.72384 0.21442 0.0
H745 H 0.11137 0.75802 0.13166 0.0
H746 H 0.06693 0.79984 0.14018 0.0
H747 H 0.03472 0.76613 0.22386 0.0
C748 C 0.91502 0.63932 0.26763 0.0
C749 C 0.90522 0.65655 0.24921 0.0
C750 C 0.94203 0.64994 0.28704 0.0
C751 C 0.95958 0.67798 0.28962 0.0
C752 C 0.9495 0.69509 0.2729 0.0
C753 C 0.92272 0.68453 0.25279 0.0
C754 C 0.98863 0.68988 0.30749 0.0
C755 C 1.00782 0.70918 0.26147 0.0
C756 C 0.99756 0.68299 0.36946 0.0
C757 C 0.97848 0.66368 0.42195 0.0
C758 C 0.95877 0.66802 0.45355 0.0
C759 C 0.94076 0.64964 0.50272 0.0
C760 C 0.94241 0.62695 0.52115 0.0
C761 C 0.96213 0.62264 0.49061 0.0
C762 C 0.98017 0.64096 0.44135 0.0
C763 C 0.11021 0.7759 0.39742 0.0
C764 C 0.12644 0.76436 0.40901 0.0
C765 C 0.08367 0.76013 0.37488 0.0
C766 C 0.07261 0.7324 0.36347 0.0
C767 C 0.08865 0.72067 0.37511 0.0
C768 C 0.11546 0.73658 0.39705 0.0
C769 C 0.04425 0.71604 0.33957 0.0
C770 C 1.02528 0.69592 0.3842 0.0
C771 C 0.03543 0.7223 0.2766 0.0
C772 C 0.05465 0.74253 0.22581 0.0
C773 C 0.07641 0.74043 0.19906 0.0
C774 C 0.09463 0.75971 0.15191 0.0
C775 C 0.09122 0.78111 0.13076 0.0
C776 C 0.06955 0.78325 0.15662 0.0
C777 C 0.05128 0.76404 0.20384 0.0
H778 H 0.10535 0.79602 0.09426 0.0
H779 H 0.92844 0.61273 0.55923 0.0
H780 H 0.46752 0.28772 0.47595 0.0
H781 H 0.50269 0.33356 0.44579 0.0
H782 H 0.56293 0.31762 0.52991 0.0
H783 H 0.52799 0.27179 0.5599 0.0
H784 H 0.57422 0.37138 0.55511 0.0
H785 H 0.55296 0.30834 0.36602 0.0
H786 H 0.52222 0.27209 0.28587 0.0
H787 H 0.4952 0.32382 0.20145 0.0
H788 H 0.52545 0.36018 0.28201 0.0
H789 H 0.68743 0.46504 0.34495 0.0
H790 H 0.6525 0.42524 0.40628 0.0
H791 H 0.59147 0.43768 0.31173 0.0
H792 H 0.62609 0.47756 0.25148 0.0
H793 H 0.58077 0.38603 0.29596 0.0
H794 H 0.6065 0.45098 0.48424 0.0
H795 H 0.63849 0.48588 0.56554 0.0
H796 H 0.65958 0.42975 0.65115 0.0
H797 H 0.62798 0.3946 0.5696 0.0
C798 C 0.48816 0.29418 0.48966 0.0
C799 C 0.49501 0.27604 0.51948 0.0
C800 C 0.50824 0.32036 0.47231 0.0
C801 C 0.53543 0.32885 0.48497 0.0
C802 C 0.54209 0.31148 0.51974 0.0
C803 C 0.52208 0.28524 0.53645 0.0
C804 C 0.55698 0.35437 0.45408 0.0
C805 C 0.57581 0.3746 0.49849 0.0
C806 C 0.55904 0.35847 0.38022 0.0
C807 C 0.54122 0.33686 0.33056 0.0
C808 C 0.5403 0.31189 0.33071 0.0
C809 C 0.52296 0.29131 0.28522 0.0
C810 C 0.50663 0.29554 0.23881 0.0
C811 C 0.50774 0.32045 0.23755 0.0
C812 C 0.525 0.34108 0.2831 0.0
C813 C 0.66663 0.45958 0.33802 0.0
C814 C 0.65965 0.47448 0.29264 0.0
C815 C 0.64666 0.43678 0.37308 0.0
C816 C 0.61936 0.42851 0.36365 0.0
C817 C 0.61239 0.44359 0.31947 0.0
C818 C 0.63227 0.46636 0.28468 0.0
C819 C 0.59789 0.40346 0.39693 0.0
C820 C 0.57913 0.38308 0.35271 0.0
C821 C 0.59623 0.39919 0.47084 0.0
C822 C 0.61506 0.42023 0.52032 0.0
C823 C 0.61811 0.44613 0.52001 0.0
C824 C 0.63615 0.46595 0.56621 0.0
C825 C 0.65111 0.46006 0.61335 0.0
C826 C 0.648 0.4343 0.61454 0.0
C827 C 0.63001 0.41441 0.56839 0.0
H828 H 0.66508 0.47544 0.64906 0.0
H829 H 0.49321 0.27953 0.20379 0.0
H830 H 0.14774 0.52506 0.72402 0.0
H831 H 0.15724 0.56701 0.66731 0.0
H832 H 0.23926 0.58669 0.63077 0.0
H833 H 0.23011 0.54504 0.68971 0.0
H834 H 0.23739 0.62897 0.68251 0.0
H835 H 0.19408 0.56615 0.49556 0.0
H836 H 0.15863 0.52502 0.43843 0.0
H837 H 0.1014 0.55099 0.4765 0.0
H838 H 0.13643 0.59213 0.53479 0.0
H839 H 0.27224 0.7394 0.45953 0.0
H840 H 0.26139 0.69458 0.49831 0.0
H841 H 0.1807 0.67599 0.55003 0.0
H842 H 0.1913 0.72092 0.51029 0.0
H843 H 0.18231 0.63295 0.48698 0.0
H844 H 0.22664 0.6956 0.67711 0.0
H845 H 0.2632 0.73717 0.72986 0.0
H846 H 0.31968 0.71107 0.68212 0.0
H847 H 0.28356 0.66959 0.62772 0.0
C848 C 0.16786 0.53834 0.70438 0.0
C849 C 0.1882 0.53167 0.71177 0.0
C850 C 0.17317 0.56221 0.67114 0.0
C851 C 0.19888 0.57988 0.64404 0.0
C852 C 0.21923 0.57329 0.65103 0.0
C853 C 0.21392 0.54938 0.68431 0.0
C854 C 0.20473 0.60571 0.61099 0.0
C855 C 0.22561 0.62978 0.639 0.0
C856 C 0.18899 0.60684 0.55519 0.0
C857 C 0.16784 0.58211 0.52018 0.0
C858 C 0.17389 0.56299 0.49231 0.0
C859 C 0.15387 0.53969 0.4596 0.0
C860 C 0.12776 0.53536 0.454 0.0
C861 C 0.12163 0.55436 0.48096 0.0
C862 C 0.14156 0.57769 0.51378 0.0
C863 C 0.25208 0.72574 0.47853 0.0
C864 C 0.23268 0.73382 0.48244 0.0
C865 C 0.24594 0.70012 0.50078 0.0
C866 C 0.22038 0.68212 0.5281 0.0
C867 C 0.20057 0.68963 0.52927 0.0
C868 C 0.20667 0.71531 0.50667 0.0
C869 C 0.21489 0.65606 0.55864 0.0
C870 C 0.19409 0.63203 0.53032 0.0
C871 C 0.23079 0.65491 0.6139 0.0
C872 C 0.25244 0.67962 0.64776 0.0
C873 C 0.24689 0.69882 0.67744 0.0
C874 C 0.26752 0.72235 0.70767 0.0
C875 C 0.29374 0.72678 0.70928 0.0
C876 C 0.29937 0.70763 0.68078 0.0
C877 C 0.27883 0.68411 0.65023 0.0
H878 H 0.30968 0.74502 0.73271 0.0
H879 H 0.1123 0.51731 0.42863 0.0
H880 H 0.75191 0.26511 0.81477 0.0
H881 H 0.70672 0.25358 0.77988 0.0
H882 H 0.67733 0.17083 0.83918 0.0
H883 H 0.72313 0.18211 0.87099 0.0
H884 H 0.65627 0.17052 0.72308 0.0
H885 H 0.66276 0.21529 0.93761 0.0
H886 H 0.68294 0.2509 0.02596 0.0
H887 H 0.68135 0.30769 0.88402 0.0
H888 H 0.66151 0.27253 0.79228 0.0
H889 H 0.52865 0.18802 0.70162 0.0
H890 H 0.56678 0.19211 0.76958 0.0
H891 H 0.60718 0.19367 0.57546 0.0
H892 H 0.56897 0.18889 0.50802 0.0
H893 H 0.61677 0.22784 0.78126 0.0
H894 H 0.64427 0.16465 0.59091 0.0
H895 H 0.62094 0.12493 0.51342 0.0
H896 H 0.54831 0.09722 0.63395 0.0
H897 H 0.57129 0.13655 0.7128 0.0
C898 C 0.7358 0.24448 0.82115 0.0
C899 C 0.74107 0.22452 0.84589 0.0
C900 C 0.70985 0.23794 0.8016 0.0
C901 C 0.68836 0.21141 0.80815 0.0
C902 C 0.69351 0.19146 0.83381 0.0
C903 C 0.71966 0.19792 0.85214 0.0
C904 C 0.661 0.20444 0.78383 0.0
C905 C 0.64757 0.18295 0.73635 0.0
C906 C 0.64905 0.22004 0.80268 0.0
C907 C 0.66076 0.24127 0.85789 0.0
C908 C 0.66684 0.23541 0.92506 0.0
C909 C 0.67821 0.25552 0.97659 0.0
C910 C 0.68346 0.28155 0.96177 0.0
C911 C 0.67727 0.28751 0.89542 0.0
C912 C 0.66592 0.26748 0.84367 0.0
C913 C 0.54575 0.18934 0.67368 0.0
C914 C 0.54576 0.18788 0.59958 0.0
C915 C 0.56749 0.19161 0.71247 0.0
C916 C 0.58967 0.19262 0.6778 0.0
C917 C 0.59001 0.19208 0.60367 0.0
C918 C 0.56819 0.18945 0.56507 0.0
C919 C 0.61274 0.19468 0.71839 0.0
C920 C 0.62531 0.21521 0.76889 0.0
C921 C 0.62339 0.17756 0.70437 0.0
C922 C 0.60948 0.1537 0.65745 0.0
C923 C 0.62336 0.15002 0.60111 0.0
C924 C 0.61018 0.12758 0.55689 0.0
C925 C 0.58314 0.1086 0.56864 0.0
C926 C 0.56923 0.11198 0.62476 0.0
C927 C 0.58232 0.13436 0.66918 0.0
H928 H 0.57298 0.09126 0.53432 0.0
H929 H 0.69228 0.2971 -0.0004 0.0
H930 H 0.49256 0.61523 -0.00428 0.0
H931 H 0.44935 0.58145 0.94979 0.0
H932 H 0.42406 0.6406 0.9404 0.0
H933 H 0.46713 0.67443 -0.01138 0.0
H934 H 0.38597 0.59468 -0.00319 0.0
H935 H 0.4402 0.61849 0.79042 0.0
H936 H 0.47918 0.62682 0.71703 0.0
H937 H 0.45914 0.54448 0.74268 0.0
H938 H 0.42024 0.53575 0.81712 0.0
H939 H 0.26832 0.51707 0.8034 0.0
H940 H 0.31382 0.55193 0.83349 0.0
H941 H 0.33696 0.49162 0.85876 0.0
H942 H 0.29117 0.4563 0.82805 0.0
H943 H 0.37618 0.53822 0.78964 0.0
H944 H 0.32257 0.51511 -0.00124 0.0
H945 H 0.28321 0.50693 0.07027 0.0
H946 H 0.30224 0.58866 0.03779 0.0
H947 H 0.3415 0.59721 0.96722 0.0
C948 C 0.47782 0.62109 -0.01627 0.0
C949 C 0.48328 0.64754 -0.00349 0.0
C950 C 0.4532 0.60179 0.95756 0.0
C951 C 0.43353 0.60852 0.94086 0.0
C952 C 0.43899 0.63498 0.95269 0.0
C953 C 0.46368 0.65435 -0.02112 0.0
C954 C 0.40684 0.58758 0.9143 0.0
C955 C 0.38383 0.58266 0.95247 0.0
C956 C 0.40408 0.57137 0.85476 0.0
C957 C 0.42744 0.57654 0.80993 0.0
C958 C 0.44423 0.60221 0.78092 0.0
C959 C 0.46629 0.607 0.73903 0.0
C960 C 0.47167 0.58621 0.72535 0.0
C961 C 0.45496 0.56057 0.75339 0.0
C962 C 0.43289 0.55569 0.79538 0.0
C963 C 0.28305 0.51111 0.81485 0.0
C964 C 0.27601 0.48382 0.81408 0.0
C965 C 0.30908 0.53112 0.83212 0.0
C966 C 0.32864 0.52432 0.84938 0.0
C967 C 0.32209 0.49724 0.84583 0.0
C968 C 0.29593 0.47711 0.82849 0.0
C969 C 0.35546 0.54548 0.87422 0.0
C970 C 0.37842 0.55035 0.83592 0.0
C971 C 0.35823 0.56172 0.93359 0.0
C972 C 0.33483 0.55673 0.97807 0.0
C973 C 0.31825 0.53129 0.00645 0.0
C974 C 0.29597 0.52659 0.04725 0.0
C975 C 0.29019 0.54724 0.05843 0.0
C976 C 0.30673 0.57267 0.02901 0.0
C977 C 0.32901 0.57746 -0.01195 0.0
H978 H 0.27293 0.54356 0.09002 0.0
H979 H 0.48876 0.58995 0.69289 0.0
H980 H 0.75914 0.48664 0.24627 0.0
H981 H 0.76978 0.45199 0.21197 0.0
H982 H 0.85168 0.51328 0.16804 0.0
H983 H 0.84116 0.54817 0.20178 0.0
H984 H 0.82839 0.48097 0.056 0.0
H985 H 0.83706 0.46847 0.30192 0.0
H986 H 0.82321 0.4608 0.42698 0.0
H987 H 0.75432 0.38473 0.37373 0.0
H988 H 0.76753 0.39211 0.24813 0.0
H989 H 0.87459 0.39278 0.95865 0.0
H990 H 0.86823 0.42595 0.02111 0.0
H991 H 0.78585 0.36587 0.06446 0.0
H992 H 0.79196 0.33243 -0.00114 0.0
H993 H 0.81034 0.39757 0.18045 0.0
H994 H 0.79943 0.41076 0.93834 0.0
H995 H 0.81117 0.41853 0.81193 0.0
H996 H 0.88229 0.49336 0.86126 0.0
H997 H 0.87117 0.48585 -0.01398 0.0
C998 C 0.77961 0.49277 0.23108 0.0
C999 C 0.79924 0.52022 0.22615 0.0
C1000 C 0.78568 0.47288 0.21166 0.0
C1001 C 0.81151 0.48002 0.18722 0.0
C1002 C 0.83159 0.50732 0.18657 0.0
C1003 C 0.82557 0.52724 0.20622 0.0
C1004 C 0.81664 0.45942 0.15457 0.0
C1005 C 0.82501 0.46301 0.08378 0.0
C1006 C 0.81117 0.43548 0.18991 0.0
C1007 C 0.80317 0.43096 0.26545 0.0
C1008 C 0.81883 0.45021 0.31675 0.0
C1009 C 0.81112 0.44589 0.38778 0.0
C1010 C 0.78787 0.42233 0.40827 0.0
C1011 C 0.77231 0.40299 0.35777 0.0
C1012 C 0.77992 0.40722 0.28666 0.0
C1013 C 0.85502 0.38656 -0.02084 0.0
C1014 C 0.83367 0.35994 0.97355 0.0
C1015 C 0.85146 0.40558 0.01647 0.0
C1016 C 0.82646 0.39851 0.04679 0.0
C1017 C 0.80532 0.37177 0.04138 0.0
C1018 C 0.80886 0.35266 0.00391 0.0
C1019 C 0.82235 0.41933 0.08221 0.0
C1020 C 0.814 0.41569 0.15312 0.0
C1021 C 0.82764 0.44322 0.04693 0.0
C1022 C 0.83464 0.44756 0.97285 0.0
C1023 C 0.81774 0.42872 0.92232 0.0
C1024 C 0.82424 0.43312 0.85056 0.0
C1025 C 0.84751 0.45638 0.8286 0.0
C1026 C 0.86432 0.47531 0.87837 0.0
C1027 C 0.85791 0.471 0.9502 0.0
H1028 H 0.85248 0.45979 0.773 0.0
H1029 H 0.78194 0.41902 0.46329 0.0
H1030 H 0.55748 0.82235 0.15917 0.0
H1031 H 0.52292 0.83107 0.20735 0.0
H1032 H 0.46109 0.75272 0.13728 0.0
H1033 H 0.49545 0.74376 0.08935 0.0
H1034 H 0.44811 0.79237 0.11181 0.0
H1035 H 0.47912 0.76082 0.30328 0.0
H1036 H 0.51168 0.75964 0.38544 0.0
H1037 H 0.53482 0.83936 0.45735 0.0
H1038 H 0.50276 0.84124 0.37468 0.0
H1039 H 0.3412 0.78174 0.33189 0.0
H1040 H 0.37454 0.77355 0.2738 0.0
H1041 H 0.43785 0.85139 0.342 0.0
H1042 H 0.40488 0.86012 0.39841 0.0
H1043 H 0.44946 0.81113 0.36808 0.0
H1044 H 0.41852 0.84262 0.17548 0.0
H1045 H 0.38428 0.84266 0.09761 0.0
H1046 H 0.36002 0.76213 0.0305 0.0
H1047 H 0.39384 0.76143 0.10893 0.0
C1048 C 0.53652 0.8071 0.15323 0.0
C1049 C 0.52923 0.78232 0.12068 0.0
C1050 C 0.5168 0.81206 0.18116 0.0
C1051 C 0.48945 0.7924 0.17662 0.0
C1052 C 0.48207 0.76812 0.14155 0.0
C1053 C 0.50176 0.76303 0.11429 0.0
C1054 C 0.46856 0.79682 0.21026 0.0
C1055 C 0.44823 0.79618 0.16797 0.0
C1056 C 0.46894 0.80214 0.28344 0.0
C1057 C 0.48874 0.8013 0.33203 0.0
C1058 C 0.49139 0.77825 0.3359 0.0
C1059 C 0.50971 0.77742 0.38274 0.0
C1060 C 0.52536 0.79944 0.42643 0.0
C1061 C 0.52273 0.82234 0.42335 0.0
C1062 C 0.5045 0.82331 0.37649 0.0
C1063 C 0.36214 0.79729 0.33398 0.0
C1064 C 0.37018 0.82158 0.37048 0.0
C1065 C 0.38121 0.79251 0.30085 0.0
C1066 C 0.40869 0.81188 0.30356 0.0
C1067 C 0.41678 0.83608 0.33967 0.0
C1068 C 0.39778 0.84096 0.37229 0.0
C1069 C 0.42918 0.80693 0.26958 0.0
C1070 C 0.4494 0.80739 0.31188 0.0
C1071 C 0.42866 0.80139 0.19657 0.0
C1072 C 0.40852 0.80187 0.14869 0.0
C1073 C 0.40574 0.82483 0.14457 0.0
C1074 C 0.38643 0.82499 0.10026 0.0
C1075 C 0.36993 0.80238 0.05929 0.0
C1076 C 0.37278 0.77961 0.06237 0.0
C1077 C 0.39203 0.77932 0.10671 0.0
H1078 H 0.35498 0.80254 0.02506 0.0
H1079 H 0.53946 0.79876 0.46282 0.0
loop_
_geom_bond_atom_site_label_1
_geom_bond_atom_site_label_2
_geom_bond_distance
_geom_bond_site_symmetry_2
_ccdc_geom_bond_type
Co0 N5 2.057 . S
Co0 O17 2.021 . S
Co0 O20 2.062 . S
Co0 O24 2.117 . S
Co0 O25 2.020 . S
C1 O21 1.259 . S
C1 O24 1.258 . S
Co2 N11 2.057 . S
Co2 O18 2.117 . S
Co2 O19 2.020 . S
Co2 O21 2.021 . S
Co2 O26 2.062 . S
C3 N5 1.316 . S
C3 N6 1.347 . S
C3 H8 0.931 . S
C4 N5 1.375 . S
C4 C7 1.350 . S
C4 H9 0.930 . S
N5 Co0 2.057 . S
N5 C3 1.316 . S
N5 C4 1.375 . S
N6 C3 1.347 . S
N6 C7 1.373 . S
C7 C4 1.350 . S
C7 N6 1.373 . S
C7 H28 0.931 . S
H8 C3 0.931 . S
H9 C4 0.930 . S
C10 O17 1.259 . S
C10 O18 1.258 . S
N11 Co2 2.057 . S
N11 C12 1.316 . S
N11 C13 1.375 . S
C12 N11 1.316 . S
C12 N14 1.347 . S
C12 H23 0.931 . S
C13 N11 1.375 . S
C13 C15 1.350 . S
C13 H22 0.930 . S
N14 C12 1.347 . S
N14 C15 1.373 . S
C15 C13 1.350 . S
C15 N14 1.373 . S
C15 H29 0.931 . S
C16 O19 1.256 . S
C16 O20 1.255 . S
O17 Co0 2.021 . S
O17 C10 1.259 . S
O18 Co2 2.117 . S
O18 C10 1.258 . S
O19 Co2 2.020 . S
O19 C16 1.256 . S
O20 Co0 2.062 . S
O20 C16 1.255 . S
O21 C1 1.259 . S
O21 Co2 2.021 . S
H22 C13 0.930 . S
H23 C12 0.931 . S
O24 Co0 2.117 . S
O24 C1 1.258 . S
O25 Co0 2.020 . S
O25 C27 1.256 . S
O26 Co2 2.062 . S
O26 C27 1.255 . S
C27 O25 1.256 . S
C27 O26 1.255 . S
H28 C7 0.931 . S
H29 C15 0.931 . S
Co30 N35 2.057 . S
Co30 O47 2.021 . S
Co30 O50 2.062 . S
Co30 O54 2.117 . S
Co30 O55 2.020 . S
C31 O51 1.259 . S
C31 O54 1.258 . S
Co32 N41 2.057 . S
Co32 O48 2.117 . S
Co32 O49 2.020 . S
Co32 O51 2.021 . S
Co32 O56 2.062 . S
C33 N35 1.316 . S
C33 N36 1.347 . S
C33 H38 0.931 . S
C34 N35 1.375 . S
C34 C37 1.350 . S
C34 H39 0.930 . S
N35 Co30 2.057 . S
N35 C33 1.316 . S
N35 C34 1.375 . S
N36 C33 1.347 . S
N36 C37 1.373 . S
C37 C34 1.350 . S
C37 N36 1.373 . S
C37 H58 0.931 . S
H38 C33 0.931 . S
H39 C34 0.930 . S
C40 O47 1.259 . S
C40 O48 1.258 . S
N41 Co32 2.057 . S
N41 C42 1.316 . S
N41 C43 1.375 . S
C42 N41 1.316 . S
C42 N44 1.347 . S
C42 H53 0.931 . S
C43 N41 1.375 . S
C43 C45 1.350 . S
C43 H52 0.930 . S
N44 C42 1.347 . S
N44 C45 1.373 . S
C45 C43 1.350 . S
C45 N44 1.373 . S
C45 H59 0.931 . S
C46 O49 1.256 . S
C46 O50 1.255 . S
O47 Co30 2.021 . S
O47 C40 1.259 . S
O48 Co32 2.117 . S
O48 C40 1.258 . S
O49 Co32 2.020 . S
O49 C46 1.256 . S
O50 Co30 2.062 . S
O50 C46 1.255 . S
O51 C31 1.259 . S
O51 Co32 2.021 . S
H52 C43 0.930 . S
H53 C42 0.931 . S
O54 Co30 2.117 . S
O54 C31 1.258 . S
O55 Co30 2.020 . S
O55 C57 1.256 . S
O56 Co32 2.062 . S
O56 C57 1.255 . S
C57 O55 1.256 . S
C57 O56 1.255 . S
H58 C37 0.931 . S
H59 C45 0.931 . S
Co60 N65 2.057 . S
Co60 O77 2.021 . S
Co60 O80 2.062 . S
Co60 O84 2.117 . S
Co60 O85 2.020 1_556 S
C61 O81 1.259 . S
C61 O84 1.258 . S
Co62 N71 2.057 . S
Co62 O78 2.117 . S
Co62 O79 2.020 . S
Co62 O81 2.021 . S
Co62 O86 2.062 1_556 S
C63 N65 1.316 . S
C63 N66 1.347 . S
C63 H68 0.931 . S
C64 N65 1.375 . S
C64 C67 1.350 . S
C64 H69 0.930 . S
N65 Co60 2.057 . S
N65 C63 1.316 . S
N65 C64 1.375 . S
N66 C63 1.347 . S
N66 C67 1.373 . S
C67 C64 1.350 . S
C67 N66 1.373 . S
C67 H88 0.931 . S
H68 C63 0.931 . S
H69 C64 0.930 . S
C70 O77 1.259 . S
C70 O78 1.258 . S
N71 Co62 2.057 . S
N71 C72 1.316 . S
N71 C73 1.375 . S
C72 N71 1.316 . S
C72 N74 1.345 1_556 S
C72 H83 0.931 . S
C73 N71 1.375 . S
C73 C75 1.350 . S
C73 H82 0.930 . S
N74 C72 1.345 1_554 S
N74 C75 1.371 1_554 S
C75 C73 1.350 . S
C75 N74 1.371 1_556 S
C75 H89 0.931 . S
C76 O79 1.256 . S
C76 O80 1.255 . S
O77 Co60 2.021 . S
O77 C70 1.259 . S
O78 Co62 2.117 . S
O78 C70 1.258 . S
O79 Co62 2.020 . S
O79 C76 1.256 . S
O80 Co60 2.062 . S
O80 C76 1.255 . S
O81 C61 1.259 . S
O81 Co62 2.021 . S
H82 C73 0.930 . S
H83 C72 0.931 . S
O84 Co60 2.117 . S
O84 C61 1.258 . S
O85 Co60 2.020 1_554 S
O85 C87 1.256 . S
O86 Co62 2.062 1_554 S
O86 C87 1.255 . S
C87 O85 1.256 . S
C87 O86 1.255 . S
H88 C67 0.931 . S
H89 C75 0.931 . S
Co90 N95 2.057 . S
Co90 O107 2.021 . S
Co90 O110 2.062 . S
Co90 O114 2.117 . S
Co90 O115 2.020 1_554 S
C91 O111 1.259 . S
C91 O114 1.258 . S
Co92 N101 2.057 . S
Co92 O108 2.117 . S
Co92 O109 2.020 . S
Co92 O111 2.021 . S
Co92 O116 2.062 1_554 S
C93 N95 1.316 . S
C93 N96 1.347 . S
C93 H98 0.931 . S
C94 N95 1.375 . S
C94 C97 1.350 . S
C94 H99 0.930 . S
N95 Co90 2.057 . S
N95 C93 1.316 . S
N95 C94 1.375 . S
N96 C93 1.347 . S
N96 C97 1.373 . S
C97 C94 1.350 . S
C97 N96 1.373 . S
C97 H118 0.931 . S
H98 C93 0.931 . S
H99 C94 0.930 . S
C100 O107 1.259 . S
C100 O108 1.258 . S
N101 Co92 2.057 . S
N101 C102 1.316 . S
N101 C103 1.375 . S
C102 N101 1.316 . S
C102 N104 1.347 . S
C102 H113 0.931 . S
C103 N101 1.375 . S
C103 C105 1.350 . S
C103 H112 0.930 . S
N104 C102 1.347 . S
N104 C105 1.373 . S
C105 C103 1.350 . S
C105 N104 1.373 . S
C105 H119 0.931 . S
C106 O109 1.256 . S
C106 O110 1.255 . S
O107 Co90 2.021 . S
O107 C100 1.259 . S
O108 Co92 2.117 . S
O108 C100 1.258 . S
O109 Co92 2.020 . S
O109 C106 1.256 . S
O110 Co90 2.062 . S
O110 C106 1.255 . S
O111 C91 1.259 . S
O111 Co92 2.021 . S
H112 C103 0.930 . S
H113 C102 0.931 . S
O114 Co90 2.117 . S
O114 C91 1.258 . S
O115 Co90 2.020 1_556 S
O115 C117 1.256 . S
O116 Co92 2.062 1_556 S
O116 C117 1.255 . S
C117 O115 1.256 . S
C117 O116 1.255 . S
H118 C97 0.931 . S
H119 C105 0.931 . S
Co120 N125 2.057 . S
Co120 O137 2.021 . S
Co120 O140 2.062 . S
Co120 O144 2.117 . S
Co120 O145 2.020 . S
C121 O141 1.259 . S
C121 O144 1.258 . S
Co122 N131 2.057 . S
Co122 O138 2.117 . S
Co122 O139 2.020 . S
Co122 O141 2.021 . S
Co122 O146 2.062 . S
C123 N125 1.316 . S
C123 N126 1.347 . S
C123 H128 0.931 . S
C124 N125 1.375 . S
C124 C127 1.350 . S
C124 H129 0.930 . S
N125 Co120 2.057 . S
N125 C123 1.316 . S
N125 C124 1.375 . S
N126 C123 1.347 . S
N126 C127 1.373 . S
C127 C124 1.350 . S
C127 N126 1.373 . S
C127 H148 0.931 . S
H128 C123 0.931 . S
H129 C124 0.930 . S
C130 O137 1.259 . S
C130 O138 1.258 . S
N131 Co122 2.057 . S
N131 C132 1.316 . S
N131 C133 1.375 . S
C132 N131 1.316 . S
C132 N134 1.347 . S
C132 H143 0.931 . S
C133 N131 1.375 . S
C133 C135 1.350 . S
C133 H142 0.930 . S
N134 C132 1.347 . S
N134 C135 1.373 . S
C135 C133 1.350 . S
C135 N134 1.373 . S
C135 H149 0.931 . S
C136 O139 1.256 . S
C136 O140 1.255 . S
O137 Co120 2.021 . S
O137 C130 1.259 . S
O138 Co122 2.117 . S
O138 C130 1.258 . S
O139 Co122 2.020 . S
O139 C136 1.256 . S
O140 Co120 2.062 . S
O140 C136 1.255 . S
O141 C121 1.259 . S
O141 Co122 2.021 . S
H142 C133 0.930 . S
H143 C132 0.931 . S
O144 Co120 2.117 . S
O144 C121 1.258 . S
O145 Co120 2.020 . S
O145 C147 1.256 . S
O146 Co122 2.062 . S
O146 C147 1.255 . S
C147 O145 1.256 . S
C147 O146 1.255 . S
H148 C127 0.931 . S
H149 C135 0.931 . S
Co150 N155 2.057 . S
Co150 O167 2.021 . S
Co150 O170 2.062 . S
Co150 O174 2.117 . S
Co150 O175 2.020 . S
C151 O171 1.259 . S
C151 O174 1.258 . S
Co152 N161 2.057 . S
Co152 O168 2.117 . S
Co152 O169 2.020 . S
Co152 O171 2.021 . S
Co152 O176 2.062 . S
C153 N155 1.316 . S
C153 N156 1.347 . S
C153 H158 0.931 . S
C154 N155 1.375 . S
C154 C157 1.350 . S
C154 H159 0.930 . S
N155 Co150 2.057 . S
N155 C153 1.316 . S
N155 C154 1.375 . S
N156 C153 1.347 . S
N156 C157 1.373 . S
C157 C154 1.350 . S
C157 N156 1.373 . S
C157 H178 0.931 . S
H158 C153 0.931 . S
H159 C154 0.930 . S
C160 O167 1.259 . S
C160 O168 1.258 . S
N161 Co152 2.057 . S
N161 C162 1.316 . S
N161 C163 1.375 . S
C162 N161 1.316 . S
C162 N164 1.347 . S
C162 H173 0.931 . S
C163 N161 1.375 . S
C163 C165 1.350 . S
C163 H172 0.930 . S
N164 C162 1.347 . S
N164 C165 1.373 . S
C165 C163 1.350 . S
C165 N164 1.373 . S
C165 H179 0.931 . S
C166 O169 1.256 . S
C166 O170 1.255 . S
O167 Co150 2.021 . S
O167 C160 1.259 . S
O168 Co152 2.117 . S
O168 C160 1.258 . S
O169 Co152 2.020 . S
O169 C166 1.256 . S
O170 Co150 2.062 . S
O170 C166 1.255 . S
O171 C151 1.259 . S
O171 Co152 2.021 . S
H172 C163 0.930 . S
H173 C162 0.931 . S
O174 Co150 2.117 . S
O174 C151 1.258 . S
O175 Co150 2.020 . S
O175 C177 1.256 . S
O176 Co152 2.062 . S
O176 C177 1.255 . S
C177 O175 1.256 . S
C177 O176 1.255 . S
H178 C157 0.931 . S
H179 C165 0.931 . S
H180 C198 0.951 . S
H181 C200 0.951 . S
H182 C202 0.950 . S
H183 C203 0.950 . S
H184 C205 0.950 . S
H185 C208 0.950 . S
H186 C209 0.950 . S
H187 C211 0.950 . S
H188 C212 0.950 . S
H189 C213 0.951 . S
H190 C215 0.951 . S
H191 C217 0.950 . S
H192 C218 0.950 . S
H193 C220 0.950 . S
H194 C223 0.950 . S
H195 C224 0.950 . S
H196 C226 0.950 . S
H197 C227 0.950 . S
C198 H180 0.951 . S
C198 C199 1.366 . S
C198 C200 1.388 . S
C199 C198 1.366 . S
C199 C203 1.385 . S
C200 H181 0.951 . S
C200 C198 1.388 . S
C200 C201 1.366 . S
C201 C200 1.366 . S
C201 C202 1.414 . S
C201 C204 1.499 . S
C202 H182 0.950 . S
C202 C201 1.414 . S
C202 C203 1.374 . S
C203 H183 0.950 . S
C203 C199 1.385 . S
C203 C202 1.374 . S
C204 C201 1.499 . S
C204 C205 1.373 . S
C204 C206 1.389 . S
C205 H184 0.950 . S
C205 C204 1.373 . S
C205 C221 1.377 . S
C206 C204 1.389 . S
C206 C207 1.524 . S
C206 C220 1.377 . S
C207 C206 1.524 . S
C207 C208 1.397 . S
C207 C212 1.363 . S
C208 H185 0.950 . S
C208 C207 1.397 . S
C208 C209 1.334 . S
C209 H186 0.950 . S
C209 C208 1.334 . S
C209 C210 1.287 . S
C210 C209 1.287 . S
C210 C211 1.524 . S
C210 H229 0.913 . S
C211 H187 0.950 . S
C211 C210 1.524 . S
C211 C212 1.415 . S
C212 H188 0.950 . S
C212 C207 1.363 . S
C212 C211 1.415 . S
C213 H189 0.951 . S
C213 C214 1.366 . S
C213 C215 1.388 . S
C214 C213 1.366 . S
C214 C218 1.385 . S
C215 H190 0.951 . S
C215 C213 1.388 . S
C215 C216 1.366 . S
C216 C215 1.366 . S
C216 C217 1.414 . S
C216 C219 1.499 1_556 S
C217 H191 0.950 . S
C217 C216 1.414 . S
C217 C218 1.374 . S
C218 H192 0.950 . S
C218 C214 1.385 . S
C218 C217 1.374 . S
C219 C216 1.499 1_554 S
C219 C220 1.373 . S
C219 C221 1.389 . S
C220 H193 0.950 . S
C220 C206 1.377 . S
C220 C219 1.373 . S
C221 C205 1.377 . S
C221 C219 1.389 . S
C221 C222 1.524 . S
C222 C221 1.524 . S
C222 C223 1.397 . S
C222 C227 1.363 . S
C223 H194 0.950 . S
C223 C222 1.397 . S
C223 C224 1.334 1_554 S
C224 H195 0.950 . S
C224 C223 1.334 1_556 S
C224 C225 1.287 1_556 S
C225 C224 1.287 1_554 S
C225 C226 1.524 . S
C225 H228 0.999 1_554 S
C226 H196 0.950 . S
C226 C225 1.524 . S
C226 C227 1.415 . S
C227 H197 0.950 . S
C227 C222 1.363 . S
C227 C226 1.415 . S
H228 C225 0.999 1_556 S
H229 C210 0.913 . S
H230 C248 0.951 . S
H231 C250 0.951 . S
H232 C252 0.950 . S
H233 C253 0.950 . S
H234 C255 0.950 . S
H235 C258 0.950 . S
H236 C259 0.950 . S
H237 C261 0.950 . S
H238 C262 0.950 . S
H239 C263 0.951 . S
H240 C265 0.951 . S
H241 C267 0.950 . S
H242 C268 0.950 . S
H243 C270 0.950 . S
H244 C273 0.950 . S
H245 C274 0.950 . S
H246 C276 0.950 . S
H247 C277 0.950 . S
C248 H230 0.951 . S
C248 C249 1.366 . S
C248 C250 1.388 . S
C249 C248 1.366 . S
C249 C253 1.385 . S
C250 H231 0.951 . S
C250 C248 1.388 . S
C250 C251 1.366 . S
C251 C250 1.366 . S
C251 C252 1.414 . S
C251 C254 1.499 . S
C252 H232 0.950 . S
C252 C251 1.414 . S
C252 C253 1.374 . S
C253 H233 0.950 . S
C253 C249 1.385 . S
C253 C252 1.374 . S
C254 C251 1.499 . S
C254 C255 1.373 . S
C254 C256 1.389 . S
C255 H234 0.950 . S
C255 C254 1.373 . S
C255 C271 1.377 . S
C256 C254 1.389 . S
C256 C257 1.524 . S
C256 C270 1.377 . S
C257 C256 1.524 . S
C257 C258 1.397 . S
C257 C262 1.363 . S
C258 H235 0.950 . S
C258 C257 1.397 . S
C258 C259 1.334 . S
C259 H236 0.950 . S
C259 C258 1.334 . S
C259 C260 1.287 . S
C260 C259 1.287 . S
C260 C261 1.524 . S
C260 H279 0.913 . S
C261 H237 0.950 . S
C261 C260 1.524 . S
C261 C262 1.415 . S
C262 H238 0.950 . S
C262 C257 1.363 . S
C262 C261 1.415 . S
C263 H239 0.951 . S
C263 C264 1.366 . S
C263 C265 1.388 1_556 S
C264 C263 1.366 . S
C264 C268 1.385 . S
C265 H240 0.951 . S
C265 C263 1.388 1_554 S
C265 C266 1.366 . S
C266 C265 1.366 . S
C266 C267 1.414 . S
C266 C269 1.499 . S
C267 H241 0.950 . S
C267 C266 1.414 . S
C267 C268 1.374 1_554 S
C268 H242 0.950 . S
C268 C264 1.385 . S
C268 C267 1.374 1_556 S
C269 C266 1.499 . S
C269 C270 1.373 . S
C269 C271 1.389 . S
C270 H243 0.950 . S
C270 C256 1.377 . S
C270 C269 1.373 . S
C271 C255 1.377 . S
C271 C269 1.389 . S
C271 C272 1.524 . S
C272 C271 1.524 . S
C272 C273 1.397 . S
C272 C277 1.363 . S
C273 H244 0.950 . S
C273 C272 1.397 . S
C273 C274 1.334 . S
C274 H245 0.950 . S
C274 C273 1.334 . S
C274 C275 1.287 . S
C275 C274 1.287 . S
C275 C276 1.524 . S
C275 H278 0.999 . S
C276 H246 0.950 . S
C276 C275 1.524 . S
C276 C277 1.415 . S
C277 H247 0.950 . S
C277 C272 1.363 . S
C277 C276 1.415 . S
H278 C275 0.999 . S
H279 C260 0.913 . S
H280 C298 0.951 . S
H281 C300 0.951 . S
H282 C302 0.950 . S
H283 C303 0.950 . S
H284 C305 0.950 . S
H285 C308 0.950 . S
H286 C309 0.950 . S
H287 C311 0.950 . S
H288 C312 0.950 . S
H289 C313 0.951 . S
H290 C315 0.951 . S
H291 C317 0.950 . S
H292 C318 0.950 . S
H293 C320 0.950 . S
H294 C323 0.950 . S
H295 C324 0.950 . S
H296 C326 0.950 . S
H297 C327 0.950 . S
C298 H280 0.951 . S
C298 C299 1.366 . S
C298 C300 1.388 . S
C299 C298 1.366 . S
C299 C303 1.385 . S
C300 H281 0.951 . S
C300 C298 1.388 . S
C300 C301 1.366 . S
C301 C300 1.366 . S
C301 C302 1.414 . S
C301 C304 1.499 . S
C302 H282 0.950 . S
C302 C301 1.414 . S
C302 C303 1.374 . S
C303 H283 0.950 . S
C303 C299 1.385 . S
C303 C302 1.374 . S
C304 C301 1.499 . S
C304 C305 1.373 . S
C304 C306 1.389 . S
C305 H284 0.950 . S
C305 C304 1.373 . S
C305 C321 1.377 . S
C306 C304 1.389 . S
C306 C307 1.524 . S
C306 C320 1.377 . S
C307 C306 1.524 . S
C307 C308 1.397 . S
C307 C312 1.363 . S
C308 H285 0.950 . S
C308 C307 1.397 . S
C308 C309 1.334 . S
C309 H286 0.950 . S
C309 C308 1.334 . S
C309 C310 1.287 . S
C310 C309 1.287 . S
C310 C311 1.524 . S
C310 H329 0.913 . S
C311 H287 0.950 . S
C311 C310 1.524 . S
C311 C312 1.415 . S
C312 H288 0.950 . S
C312 C307 1.363 . S
C312 C311 1.415 . S
C313 H289 0.951 . S
C313 C314 1.366 . S
C313 C315 1.388 . S
C314 C313 1.366 . S
C314 C318 1.385 . S
C315 H290 0.951 . S
C315 C313 1.388 . S
C315 C316 1.366 . S
C316 C315 1.366 . S
C316 C317 1.414 . S
C316 C319 1.499 . S
C317 H291 0.950 . S
C317 C316 1.414 . S
C317 C318 1.374 . S
C318 H292 0.950 . S
C318 C314 1.385 . S
C318 C317 1.374 . S
C319 C316 1.499 . S
C319 C320 1.373 . S
C319 C321 1.389 . S
C320 H293 0.950 . S
C320 C306 1.377 . S
C320 C319 1.373 . S
C321 C305 1.377 . S
C321 C319 1.389 . S
C321 C322 1.524 . S
C322 C321 1.524 . S
C322 C323 1.397 . S
C322 C327 1.363 . S
C323 H294 0.950 . S
C323 C322 1.397 . S
C323 C324 1.334 . S
C324 H295 0.950 . S
C324 C323 1.334 . S
C324 C325 1.287 . S
C325 C324 1.287 . S
C325 C326 1.524 . S
C325 H328 0.999 . S
C326 H296 0.950 . S
C326 C325 1.524 . S
C326 C327 1.415 . S
C327 H297 0.950 . S
C327 C322 1.363 . S
C327 C326 1.415 . S
H328 C325 0.999 . S
H329 C310 0.913 . S
H330 C348 0.951 . S
H331 C350 0.951 . S
H332 C352 0.950 . S
H333 C353 0.950 . S
H334 C355 0.950 . S
H335 C358 0.950 . S
H336 C359 0.950 . S
H337 C361 0.950 . S
H338 C362 0.950 . S
H339 C363 0.951 . S
H340 C365 0.951 . S
H341 C367 0.950 . S
H342 C368 0.950 . S
H343 C370 0.950 . S
H344 C373 0.950 . S
H345 C374 0.950 . S
H346 C376 0.950 . S
H347 C377 0.950 . S
C348 H330 0.951 . S
C348 C349 1.366 . S
C348 C350 1.388 . S
C349 C348 1.366 . S
C349 C353 1.385 . S
C350 H331 0.951 . S
C350 C348 1.388 . S
C350 C351 1.366 . S
C351 C350 1.366 . S
C351 C352 1.414 . S
C351 C354 1.499 . S
C352 H332 0.950 . S
C352 C351 1.414 . S
C352 C353 1.374 . S
C353 H333 0.950 . S
C353 C349 1.385 . S
C353 C352 1.374 . S
C354 C351 1.499 . S
C354 C355 1.373 . S
C354 C356 1.389 . S
C355 H334 0.950 . S
C355 C354 1.373 . S
C355 C371 1.377 . S
C356 C354 1.389 . S
C356 C357 1.524 . S
C356 C370 1.377 . S
C357 C356 1.524 . S
C357 C358 1.397 . S
C357 C362 1.363 . S
C358 H335 0.950 . S
C358 C357 1.397 . S
C358 C359 1.334 . S
C359 H336 0.950 . S
C359 C358 1.334 . S
C359 C360 1.287 . S
C360 C359 1.287 . S
C360 C361 1.524 . S
C360 H379 0.913 . S
C361 H337 0.950 . S
C361 C360 1.524 . S
C361 C362 1.415 . S
C362 H338 0.950 . S
C362 C357 1.363 . S
C362 C361 1.415 . S
C363 H339 0.951 . S
C363 C364 1.366 . S
C363 C365 1.388 . S
C364 C363 1.366 . S
C364 C368 1.385 . S
C365 H340 0.951 . S
C365 C363 1.388 . S
C365 C366 1.366 . S
C366 C365 1.366 . S
C366 C367 1.414 . S
C366 C369 1.499 . S
C367 H341 0.950 . S
C367 C366 1.414 . S
C367 C368 1.374 . S
C368 H342 0.950 . S
C368 C364 1.385 . S
C368 C367 1.374 . S
C369 C366 1.499 . S
C369 C370 1.373 . S
C369 C371 1.389 . S
C370 H343 0.950 . S
C370 C356 1.377 . S
C370 C369 1.373 . S
C371 C355 1.377 . S
C371 C369 1.389 . S
C371 C372 1.524 . S
C372 C371 1.524 . S
C372 C373 1.397 . S
C372 C377 1.363 . S
C373 H344 0.950 . S
C373 C372 1.397 . S
C373 C374 1.334 . S
C374 H345 0.950 . S
C374 C373 1.334 . S
C374 C375 1.287 . S
C375 C374 1.287 . S
C375 C376 1.524 . S
C375 H378 0.999 . S
C376 H346 0.950 . S
C376 C375 1.524 . S
C376 C377 1.415 . S
C377 H347 0.950 . S
C377 C372 1.363 . S
C377 C376 1.415 . S
H378 C375 0.999 . S
H379 C360 0.913 . S
H380 C398 0.951 . S
H381 C400 0.951 . S
H382 C402 0.950 . S
H383 C403 0.950 . S
H384 C405 0.950 . S
H385 C408 0.950 . S
H386 C409 0.950 . S
H387 C411 0.950 . S
H388 C412 0.950 . S
H389 C413 0.951 . S
H390 C415 0.951 . S
H391 C417 0.944 1_556 S
H392 C418 0.950 . S
H393 C420 0.950 . S
H394 C423 0.950 . S
H395 C424 0.950 . S
H396 C426 0.950 . S
H397 C427 0.950 . S
C398 H380 0.951 . S
C398 C399 1.366 . S
C398 C400 1.388 . S
C399 C398 1.366 . S
C399 C403 1.385 . S
C400 H381 0.951 . S
C400 C398 1.388 . S
C400 C401 1.366 . S
C401 C400 1.366 . S
C401 C402 1.414 . S
C401 C404 1.499 . S
C402 H382 0.950 . S
C402 C401 1.414 . S
C402 C403 1.374 . S
C403 H383 0.950 . S
C403 C399 1.385 . S
C403 C402 1.374 . S
C404 C401 1.499 . S
C404 C405 1.373 . S
C404 C406 1.389 . S
C405 H384 0.950 . S
C405 C404 1.373 . S
C405 C421 1.377 . S
C406 C404 1.389 . S
C406 C407 1.524 . S
C406 C420 1.377 . S
C407 C406 1.524 . S
C407 C408 1.397 . S
C407 C412 1.363 . S
C408 H385 0.950 . S
C408 C407 1.397 . S
C408 C409 1.334 . S
C409 H386 0.950 . S
C409 C408 1.334 . S
C409 C410 1.287 . S
C410 C409 1.287 . S
C410 C411 1.524 . S
C410 H429 0.913 . S
C411 H387 0.950 . S
C411 C410 1.524 . S
C411 C412 1.415 . S
C412 H388 0.950 . S
C412 C407 1.363 . S
C412 C411 1.415 . S
C413 H389 0.951 . S
C413 C414 1.366 . S
C413 C415 1.388 1_554 S
C414 C413 1.366 . S
C414 C418 1.385 . S
C415 H390 0.951 . S
C415 C413 1.388 1_556 S
C415 C416 1.366 . S
C416 C415 1.366 . S
C416 C417 1.407 1_556 S
C416 C419 1.499 . S
C417 H391 0.944 1_554 S
C417 C416 1.407 1_554 S
C417 C418 1.387 . S
C418 H392 0.950 . S
C418 C414 1.385 . S
C418 C417 1.387 . S
C419 C416 1.499 . S
C419 C420 1.373 . S
C419 C421 1.389 . S
C420 H393 0.950 . S
C420 C406 1.377 . S
C420 C419 1.373 . S
C421 C405 1.377 . S
C421 C419 1.389 . S
C421 C422 1.524 . S
C422 C421 1.524 . S
C422 C423 1.397 . S
C422 C427 1.363 . S
C423 H394 0.950 . S
C423 C422 1.397 . S
C423 C424 1.334 . S
C424 H395 0.950 . S
C424 C423 1.334 . S
C424 C425 1.287 . S
C425 C424 1.287 . S
C425 C426 1.524 . S
C425 H428 0.999 . S
C426 H396 0.950 . S
C426 C425 1.524 . S
C426 C427 1.415 . S
C427 H397 0.950 . S
C427 C422 1.363 . S
C427 C426 1.415 . S
H428 C425 0.999 . S
H429 C410 0.913 . S
H430 C448 0.951 . S
H431 C450 0.951 . S
H432 C452 0.950 . S
H433 C453 0.950 . S
H434 C455 0.950 . S
H435 C458 0.949 1_554 S
H436 C459 0.950 . S
H437 C461 0.950 . S
H438 C462 0.950 . S
H439 C463 0.951 . S
H440 C465 0.951 . S
H441 C467 0.950 . S
H442 C468 0.950 . S
H443 C470 0.950 . S
H444 C473 0.950 . S
H445 C474 0.950 . S
H446 C476 0.950 . S
H447 C477 0.950 . S
C448 H430 0.951 . S
C448 C449 1.366 . S
C448 C450 1.388 . S
C449 C448 1.366 . S
C449 C453 1.385 . S
C450 H431 0.951 . S
C450 C448 1.388 . S
C450 C451 1.366 . S
C451 C450 1.366 . S
C451 C452 1.414 . S
C451 C454 1.499 1_554 S
C452 H432 0.950 . S
C452 C451 1.414 . S
C452 C453 1.374 . S
C453 H433 0.950 . S
C453 C449 1.385 . S
C453 C452 1.374 . S
C454 C451 1.499 1_556 S
C454 C455 1.373 . S
C454 C456 1.389 . S
C455 H434 0.950 . S
C455 C454 1.373 . S
C455 C471 1.377 . S
C456 C454 1.389 . S
C456 C457 1.524 . S
C456 C470 1.377 . S
C457 C456 1.524 . S
C457 C458 1.397 . S
C457 C462 1.363 . S
C458 H435 0.949 1_556 S
C458 C457 1.397 . S
C458 C459 1.334 1_556 S
C459 H436 0.950 . S
C459 C458 1.334 1_554 S
C459 C460 1.287 . S
C460 C459 1.287 . S
C460 C461 1.524 1_554 S
C460 H479 0.913 . S
C461 H437 0.950 . S
C461 C460 1.524 1_556 S
C461 C462 1.415 . S
C462 H438 0.950 . S
C462 C457 1.363 . S
C462 C461 1.415 . S
C463 H439 0.951 . S
C463 C464 1.366 . S
C463 C465 1.388 . S
C464 C463 1.366 . S
C464 C468 1.385 . S
C465 H440 0.951 . S
C465 C463 1.388 . S
C465 C466 1.366 . S
C466 C465 1.366 . S
C466 C467 1.414 . S
C466 C469 1.499 . S
C467 H441 0.950 . S
C467 C466 1.414 . S
C467 C468 1.374 . S
C468 H442 0.950 . S
C468 C464 1.385 . S
C468 C467 1.374 . S
C469 C466 1.499 . S
C469 C470 1.373 . S
C469 C471 1.389 . S
C470 H443 0.950 . S
C470 C456 1.377 . S
C470 C469 1.373 . S
C471 C455 1.377 . S
C471 C469 1.389 . S
C471 C472 1.524 . S
C472 C471 1.524 . S
C472 C473 1.397 . S
C472 C477 1.363 . S
C473 H444 0.950 . S
C473 C472 1.397 . S
C473 C474 1.334 . S
C474 H445 0.950 . S
C474 C473 1.334 . S
C474 C475 1.287 . S
C475 C474 1.287 . S
C475 C476 1.524 . S
C475 H478 0.999 . S
C476 H446 0.950 . S
C476 C475 1.524 . S
C476 C477 1.415 . S
C477 H447 0.950 . S
C477 C472 1.363 . S
C477 C476 1.415 . S
H478 C475 0.999 . S
H479 C460 0.913 . S
H480 C498 0.951 . S
H481 C500 0.951 . S
H482 C502 0.950 . S
H483 C503 0.950 . S
H484 C505 0.950 . S
H485 C508 0.950 1_545 S
H486 C509 0.949 1_545 S
H487 C511 0.950 . S
H488 C512 0.950 . S
H489 C513 0.951 . S
H490 C515 0.951 . S
H491 C517 0.950 . S
H492 C518 0.950 . S
H493 C520 0.950 . S
H494 C523 0.950 . S
H495 C524 0.950 . S
H496 C526 0.950 . S
H497 C527 0.950 . S
C498 H480 0.951 . S
C498 C499 1.366 . S
C498 C500 1.388 . S
C499 C498 1.366 . S
C499 C503 1.385 . S
C500 H481 0.951 . S
C500 C498 1.388 . S
C500 C501 1.366 . S
C501 C500 1.366 . S
C501 C502 1.414 . S
C501 C504 1.499 . S
C502 H482 0.950 . S
C502 C501 1.414 . S
C502 C503 1.374 . S
C503 H483 0.950 . S
C503 C499 1.385 . S
C503 C502 1.374 . S
C504 C501 1.499 . S
C504 C505 1.373 . S
C504 C506 1.389 1_545 S
C505 H484 0.950 . S
C505 C504 1.373 . S
C505 C521 1.377 1_545 S
C506 C504 1.389 1_565 S
C506 C507 1.524 . S
C506 C520 1.377 . S
C507 C506 1.524 . S
C507 C508 1.397 . S
C507 C512 1.363 . S
C508 H485 0.950 1_565 S
C508 C507 1.397 . S
C508 C509 1.343 . S
C509 H486 0.949 1_565 S
C509 C508 1.343 . S
C509 C510 1.282 . S
C510 C509 1.282 . S
C510 C511 1.524 . S
C510 H529 0.913 . S
C511 H487 0.950 . S
C511 C510 1.524 . S
C511 C512 1.415 . S
C512 H488 0.950 . S
C512 C507 1.363 . S
C512 C511 1.415 . S
C513 H489 0.951 . S
C513 C514 1.366 . S
C513 C515 1.388 . S
C514 C513 1.366 . S
C514 C518 1.385 . S
C515 H490 0.951 . S
C515 C513 1.388 . S
C515 C516 1.366 . S
C516 C515 1.366 . S
C516 C517 1.414 . S
C516 C519 1.499 . S
C517 H491 0.950 . S
C517 C516 1.414 . S
C517 C518 1.374 . S
C518 H492 0.950 . S
C518 C514 1.385 . S
C518 C517 1.374 . S
C519 C516 1.499 . S
C519 C520 1.373 . S
C519 C521 1.389 . S
C520 H493 0.950 . S
C520 C506 1.377 . S
C520 C519 1.373 . S
C521 C505 1.377 1_565 S
C521 C519 1.389 . S
C521 C522 1.524 . S
C522 C521 1.524 . S
C522 C523 1.397 . S
C522 C527 1.363 . S
C523 H494 0.950 . S
C523 C522 1.397 . S
C523 C524 1.334 . S
C524 H495 0.950 . S
C524 C523 1.334 . S
C524 C525 1.287 . S
C525 C524 1.287 . S
C525 C526 1.524 . S
C525 H528 0.999 . S
C526 H496 0.950 . S
C526 C525 1.524 . S
C526 C527 1.415 . S
C527 H497 0.950 . S
C527 C522 1.363 . S
C527 C526 1.415 . S
H528 C525 0.999 . S
H529 C510 0.913 . S
H530 C548 0.951 . S
H531 C550 0.951 . S
H532 C552 0.950 . S
H533 C553 0.950 . S
H534 C555 0.950 . S
H535 C558 0.950 . S
H536 C559 0.950 . S
H537 C561 0.950 . S
H538 C562 0.950 . S
H539 C563 0.951 . S
H540 C565 0.951 . S
H541 C567 0.950 . S
H542 C568 0.950 . S
H543 C570 0.950 . S
H544 C573 0.950 . S
H545 C574 0.950 . S
H546 C576 0.950 . S
H547 C577 0.950 . S
C548 H530 0.951 . S
C548 C549 1.366 . S
C548 C550 1.388 . S
C549 C548 1.366 . S
C549 C553 1.385 . S
C550 H531 0.951 . S
C550 C548 1.388 . S
C550 C551 1.366 . S
C551 C550 1.366 . S
C551 C552 1.414 . S
C551 C554 1.499 . S
C552 H532 0.950 . S
C552 C551 1.414 . S
C552 C553 1.374 . S
C553 H533 0.950 . S
C553 C549 1.385 . S
C553 C552 1.374 . S
C554 C551 1.499 . S
C554 C555 1.373 . S
C554 C556 1.389 . S
C555 H534 0.950 . S
C555 C554 1.373 . S
C555 C571 1.377 . S
C556 C554 1.389 . S
C556 C557 1.524 . S
C556 C570 1.377 . S
C557 C556 1.524 . S
C557 C558 1.397 . S
C557 C562 1.363 . S
C558 H535 0.950 . S
C558 C557 1.397 . S
C558 C559 1.334 . S
C559 H536 0.950 . S
C559 C558 1.334 . S
C559 C560 1.287 . S
C560 C559 1.287 . S
C560 C561 1.524 . S
C560 H579 0.913 . S
C561 H537 0.950 . S
C561 C560 1.524 . S
C561 C562 1.415 . S
C562 H538 0.950 . S
C562 C557 1.363 . S
C562 C561 1.415 . S
C563 H539 0.951 . S
C563 C564 1.366 . S
C563 C565 1.388 . S
C564 C563 1.366 . S
C564 C568 1.385 . S
C565 H540 0.951 . S
C565 C563 1.388 . S
C565 C566 1.366 . S
C566 C565 1.366 . S
C566 C567 1.414 . S
C566 C569 1.499 . S
C567 H541 0.950 . S
C567 C566 1.414 . S
C567 C568 1.374 . S
C568 H542 0.950 . S
C568 C564 1.385 . S
C568 C567 1.374 . S
C569 C566 1.499 . S
C569 C570 1.373 . S
C569 C571 1.389 . S
C570 H543 0.950 . S
C570 C556 1.377 . S
C570 C569 1.373 . S
C571 C555 1.377 . S
C571 C569 1.389 . S
C571 C572 1.524 . S
C572 C571 1.524 . S
C572 C573 1.397 . S
C572 C577 1.363 . S
C573 H544 0.950 . S
C573 C572 1.397 . S
C573 C574 1.334 . S
C574 H545 0.950 . S
C574 C573 1.334 . S
C574 C575 1.287 . S
C575 C574 1.287 . S
C575 C576 1.524 . S
C575 H578 0.999 . S
C576 H546 0.950 . S
C576 C575 1.524 . S
C576 C577 1.415 . S
C577 H547 0.950 . S
C577 C572 1.363 . S
C577 C576 1.415 . S
H578 C575 0.999 . S
H579 C560 0.913 . S
H580 C598 0.951 1_554 S
H581 C600 0.951 . S
H582 C602 0.950 . S
H583 C603 0.950 . S
H584 C605 0.950 . S
H585 C608 0.950 1_556 S
H586 C609 0.950 . S
H587 C611 0.950 . S
H588 C612 0.973 . S
H589 C613 0.951 . S
H590 C615 0.951 . S
H591 C617 0.950 . S
H592 C618 0.950 . S
H593 C620 0.950 . S
H594 C623 0.941 1_455 S
H595 C624 0.950 . S
H596 C626 0.950 . S
H597 C627 0.950 . S
C598 H580 0.951 1_556 S
C598 C599 1.366 . S
C598 C600 1.388 . S
C599 C598 1.366 . S
C599 C603 1.385 . S
C600 H581 0.951 . S
C600 C598 1.388 . S
C600 C601 1.366 . S
C601 C600 1.366 . S
C601 C602 1.414 . S
C601 C604 1.499 . S
C602 H582 0.950 . S
C602 C601 1.414 . S
C602 C603 1.374 . S
C603 H583 0.950 . S
C603 C599 1.385 . S
C603 C602 1.374 . S
C604 C601 1.499 . S
C604 C605 1.373 . S
C604 C606 1.389 . S
C605 H584 0.950 . S
C605 C604 1.373 . S
C605 C621 1.377 . S
C606 C604 1.389 . S
C606 C607 1.524 . S
C606 C620 1.377 1_655 S
C607 C606 1.524 . S
C607 C608 1.397 1_556 S
C607 C612 1.363 1_556 S
C608 H585 0.950 1_554 S
C608 C607 1.397 1_554 S
C608 C609 1.334 . S
C609 H586 0.950 . S
C609 C608 1.334 . S
C609 C610 1.287 . S
C610 C609 1.287 . S
C610 C611 1.524 . S
C610 H629 0.913 . S
C611 H587 0.950 . S
C611 C610 1.524 . S
C611 C612 1.415 . S
C612 H588 0.973 . S
C612 C607 1.363 1_554 S
C612 C611 1.415 . S
C613 H589 0.951 . S
C613 C614 1.366 . S
C613 C615 1.388 . S
C614 C613 1.366 . S
C614 C618 1.385 . S
C615 H590 0.951 . S
C615 C613 1.388 . S
C615 C616 1.366 . S
C616 C615 1.366 . S
C616 C617 1.414 . S
C616 C619 1.499 . S
C617 H591 0.950 . S
C617 C616 1.414 . S
C617 C618 1.374 . S
C618 H592 0.950 . S
C618 C614 1.385 . S
C618 C617 1.374 . S
C619 C616 1.499 . S
C619 C620 1.373 . S
C619 C621 1.389 1_455 S
C620 H593 0.950 . S
C620 C606 1.377 1_455 S
C620 C619 1.373 . S
C621 C605 1.377 . S
C621 C619 1.389 1_655 S
C621 C622 1.524 . S
C622 C621 1.524 . S
C622 C623 1.407 . S
C622 C627 1.363 . S
C623 H594 0.941 1_655 S
C623 C622 1.407 . S
C623 C624 1.332 1_655 S
C624 H595 0.950 . S
C624 C623 1.332 1_455 S
C624 C625 1.287 1_455 S
C625 C624 1.287 1_655 S
C625 C626 1.524 . S
C625 H628 0.999 . S
C626 H596 0.950 . S
C626 C625 1.524 . S
C626 C627 1.415 . S
C627 H597 0.950 . S
C627 C622 1.363 . S
C627 C626 1.415 . S
H628 C625 0.999 . S
H629 C610 0.913 . S
H630 C648 0.951 . S
H631 C650 0.951 . S
H632 C652 0.950 . S
H633 C653 0.950 1_556 S
H634 C655 0.950 . S
H635 C658 0.950 1_556 S
H636 C659 0.950 1_556 S
H637 C661 0.950 . S
H638 C662 0.950 . S
H639 C663 0.951 . S
H640 C665 0.951 . S
H641 C667 0.950 . S
H642 C668 0.946 1_554 S
H643 C670 0.950 1_545 S
H644 C673 0.950 . S
H645 C674 0.950 1_554 S
H646 C676 0.938 1_565 S
H647 C677 0.950 . S
C648 H630 0.951 . S
C648 C649 1.366 . S
C648 C650 1.388 . S
C649 C648 1.366 . S
C649 C653 1.385 . S
C650 H631 0.951 . S
C650 C648 1.388 . S
C650 C651 1.366 . S
C651 C650 1.366 . S
C651 C652 1.414 1_554 S
C651 C654 1.499 . S
C652 H632 0.950 . S
C652 C651 1.414 1_556 S
C652 C653 1.374 1_556 S
C653 H633 0.950 1_554 S
C653 C649 1.385 . S
C653 C652 1.374 1_554 S
C654 C651 1.499 . S
C654 C655 1.373 1_554 S
C654 C656 1.389 . S
C655 H634 0.950 . S
C655 C654 1.373 1_556 S
C655 C671 1.377 . S
C656 C654 1.389 . S
C656 C657 1.524 . S
C656 C670 1.377 . S
C657 C656 1.524 . S
C657 C658 1.397 . S
C657 C662 1.363 . S
C658 H635 0.950 1_554 S
C658 C657 1.397 . S
C658 C659 1.334 . S
C659 H636 0.950 1_554 S
C659 C658 1.334 . S
C659 C660 1.287 . S
C660 C659 1.287 . S
C660 C661 1.524 . S
C660 H679 0.913 . S
C661 H637 0.950 . S
C661 C660 1.524 . S
C661 C662 1.415 . S
C662 H638 0.950 . S
C662 C657 1.363 . S
C662 C661 1.415 . S
C663 H639 0.951 . S
C663 C664 1.366 . S
C663 C665 1.388 . S
C664 C663 1.366 . S
C664 C668 1.390 . S
C665 H640 0.951 . S
C665 C663 1.388 . S
C665 C666 1.366 . S
C666 C665 1.366 . S
C666 C667 1.414 1_556 S
C666 C669 1.499 . S
C667 H641 0.950 . S
C667 C666 1.414 1_554 S
C667 C668 1.372 1_554 S
C668 H642 0.946 1_556 S
C668 C664 1.390 . S
C668 C667 1.372 1_556 S
C669 C666 1.499 . S
C669 C670 1.373 1_546 S
C669 C671 1.389 1_545 S
C670 H643 0.950 1_565 S
C670 C656 1.377 . S
C670 C669 1.373 1_564 S
C671 C655 1.377 . S
C671 C669 1.389 1_565 S
C671 C672 1.524 1_565 S
C672 C671 1.524 1_545 S
C672 C673 1.397 1_556 S
C672 C677 1.363 1_545 S
C673 H644 0.950 . S
C673 C672 1.397 1_554 S
C673 C674 1.334 1_554 S
C674 H645 0.950 1_556 S
C674 C673 1.334 1_556 S
C674 C675 1.287 . S
C675 C674 1.287 . S
C675 C676 1.534 . S
C675 H678 0.999 . S
C676 H646 0.938 1_545 S
C676 C675 1.534 . S
C676 C677 1.418 1_545 S
C677 H647 0.950 . S
C677 C672 1.363 1_565 S
C677 C676 1.418 1_565 S
H678 C675 0.999 . S
H679 C660 0.913 . S
H680 C698 0.951 . S
H681 C700 0.951 . S
H682 C702 0.950 . S
H683 C703 0.950 . S
H684 C705 0.950 . S
H685 C708 0.950 . S
H686 C709 0.950 . S
H687 C711 0.950 . S
H688 C712 0.950 . S
H689 C713 0.951 . S
H690 C715 0.951 . S
H691 C717 0.950 . S
H692 C718 0.950 . S
H693 C720 0.950 . S
H694 C723 0.950 . S
H695 C724 0.950 . S
H696 C726 0.950 . S
H697 C727 0.950 . S
C698 H680 0.951 . S
C698 C699 1.366 . S
C698 C700 1.388 . S
C699 C698 1.366 . S
C699 C703 1.385 . S
C700 H681 0.951 . S
C700 C698 1.388 . S
C700 C701 1.366 . S
C701 C700 1.366 . S
C701 C702 1.414 . S
C701 C704 1.499 . S
C702 H682 0.950 . S
C702 C701 1.414 . S
C702 C703 1.374 . S
C703 H683 0.950 . S
C703 C699 1.385 . S
C703 C702 1.374 . S
C704 C701 1.499 . S
C704 C705 1.373 . S
C704 C706 1.389 . S
C705 H684 0.950 . S
C705 C704 1.373 . S
C705 C721 1.377 . S
C706 C704 1.389 . S
C706 C707 1.524 . S
C706 C720 1.377 . S
C707 C706 1.524 . S
C707 C708 1.397 . S
C707 C712 1.363 . S
C708 H685 0.950 . S
C708 C707 1.397 . S
C708 C709 1.334 . S
C709 H686 0.950 . S
C709 C708 1.334 . S
C709 C710 1.287 . S
C710 C709 1.287 . S
C710 C711 1.524 . S
C710 H729 0.913 . S
C711 H687 0.950 . S
C711 C710 1.524 . S
C711 C712 1.415 . S
C712 H688 0.950 . S
C712 C707 1.363 . S
C712 C711 1.415 . S
C713 H689 0.951 . S
C713 C714 1.366 . S
C713 C715 1.388 . S
C714 C713 1.366 . S
C714 C718 1.385 . S
C715 H690 0.951 . S
C715 C713 1.388 . S
C715 C716 1.366 . S
C716 C715 1.366 . S
C716 C717 1.414 . S
C716 C719 1.499 . S
C717 H691 0.950 . S
C717 C716 1.414 . S
C717 C718 1.374 . S
C718 H692 0.950 . S
C718 C714 1.385 . S
C718 C717 1.374 . S
C719 C716 1.499 . S
C719 C720 1.373 . S
C719 C721 1.389 . S
C720 H693 0.950 . S
C720 C706 1.377 . S
C720 C719 1.373 . S
C721 C705 1.377 . S
C721 C719 1.389 . S
C721 C722 1.524 . S
C722 C721 1.524 . S
C722 C723 1.397 . S
C722 C727 1.363 . S
C723 H694 0.950 . S
C723 C722 1.397 . S
C723 C724 1.334 . S
C724 H695 0.950 . S
C724 C723 1.334 . S
C724 C725 1.287 . S
C725 C724 1.287 . S
C725 C726 1.524 . S
C725 H728 0.999 . S
C726 H696 0.950 . S
C726 C725 1.524 . S
C726 C727 1.415 . S
C727 H697 0.950 . S
C727 C722 1.363 . S
C727 C726 1.415 . S
H728 C725 0.999 . S
H729 C710 0.913 . S
H730 C748 0.951 . S
H731 C750 0.951 . S
H732 C752 0.950 . S
H733 C753 0.950 . S
H734 C755 0.950 . S
H735 C758 0.950 . S
H736 C759 0.950 . S
H737 C761 0.950 . S
H738 C762 0.950 . S
H739 C763 0.951 . S
H740 C765 0.951 . S
H741 C767 0.950 . S
H742 C768 0.950 . S
H743 C770 0.945 1_455 S
H744 C773 0.950 . S
H745 C774 0.950 . S
H746 C776 0.950 . S
H747 C777 0.950 1_655 S
C748 H730 0.951 . S
C748 C749 1.366 . S
C748 C750 1.388 . S
C749 C748 1.366 . S
C749 C753 1.385 . S
C750 H731 0.951 . S
C750 C748 1.388 . S
C750 C751 1.366 . S
C751 C750 1.366 . S
C751 C752 1.414 . S
C751 C754 1.499 . S
C752 H732 0.950 . S
C752 C751 1.414 . S
C752 C753 1.374 . S
C753 H733 0.950 . S
C753 C749 1.385 . S
C753 C752 1.374 . S
C754 C751 1.499 . S
C754 C755 1.373 . S
C754 C756 1.389 . S
C755 H734 0.950 . S
C755 C754 1.373 . S
C755 C771 1.377 . S
C756 C754 1.389 . S
C756 C757 1.524 . S
C756 C770 1.377 . S
C757 C756 1.524 . S
C757 C758 1.397 . S
C757 C762 1.363 . S
C758 H735 0.950 . S
C758 C757 1.397 . S
C758 C759 1.334 . S
C759 H736 0.950 . S
C759 C758 1.334 . S
C759 C760 1.287 . S
C760 C759 1.287 . S
C760 C761 1.524 . S
C760 H779 0.913 . S
C761 H737 0.950 . S
C761 C760 1.524 . S
C761 C762 1.415 . S
C762 H738 0.950 . S
C762 C757 1.363 . S
C762 C761 1.415 . S
C763 H739 0.951 . S
C763 C764 1.366 . S
C763 C765 1.388 . S
C764 C763 1.366 . S
C764 C768 1.385 . S
C765 H740 0.951 . S
C765 C763 1.388 . S
C765 C766 1.366 . S
C766 C765 1.366 . S
C766 C767 1.414 . S
C766 C769 1.499 . S
C767 H741 0.950 . S
C767 C766 1.414 . S
C767 C768 1.374 . S
C768 H742 0.950 . S
C768 C764 1.385 . S
C768 C767 1.374 . S
C769 C766 1.499 . S
C769 C770 1.373 1_455 S
C769 C771 1.389 1_455 S
C770 H743 0.945 1_655 S
C770 C756 1.377 . S
C770 C769 1.373 1_655 S
C771 C755 1.377 . S
C771 C769 1.389 1_655 S
C771 C772 1.524 1_655 S
C772 C771 1.524 1_455 S
C772 C773 1.397 . S
C772 C777 1.363 . S
C773 H744 0.950 . S
C773 C772 1.397 . S
C773 C774 1.334 . S
C774 H745 0.950 . S
C774 C773 1.334 . S
C774 C775 1.287 . S
C775 C774 1.287 . S
C775 C776 1.524 . S
C775 H778 0.999 . S
C776 H746 0.950 . S
C776 C775 1.524 . S
C776 C777 1.415 . S
C777 H747 0.950 1_455 S
C777 C772 1.363 . S
C777 C776 1.415 . S
H778 C775 0.999 . S
H779 C760 0.913 . S
H780 C798 0.951 . S
H781 C800 0.951 . S
H782 C802 0.950 . S
H783 C803 0.950 . S
H784 C805 0.950 . S
H785 C808 0.950 . S
H786 C809 0.950 . S
H787 C811 0.950 . S
H788 C812 0.950 . S
H789 C813 0.951 . S
H790 C815 0.951 . S
H791 C817 0.950 . S
H792 C818 0.950 . S
H793 C820 0.950 . S
H794 C823 0.950 . S
H795 C824 0.950 . S
H796 C826 0.950 . S
H797 C827 0.950 . S
C798 H780 0.951 . S
C798 C799 1.366 . S
C798 C800 1.388 . S
C799 C798 1.366 . S
C799 C803 1.385 . S
C800 H781 0.951 . S
C800 C798 1.388 . S
C800 C801 1.366 . S
C801 C800 1.366 . S
C801 C802 1.414 . S
C801 C804 1.499 . S
C802 H782 0.950 . S
C802 C801 1.414 . S
C802 C803 1.374 . S
C803 H783 0.950 . S
C803 C799 1.385 . S
C803 C802 1.374 . S
C804 C801 1.499 . S
C804 C805 1.373 . S
C804 C806 1.389 . S
C805 H784 0.950 . S
C805 C804 1.373 . S
C805 C821 1.377 . S
C806 C804 1.389 . S
C806 C807 1.524 . S
C806 C820 1.377 . S
C807 C806 1.524 . S
C807 C808 1.397 . S
C807 C812 1.363 . S
C808 H785 0.950 . S
C808 C807 1.397 . S
C808 C809 1.334 . S
C809 H786 0.950 . S
C809 C808 1.334 . S
C809 C810 1.287 . S
C810 C809 1.287 . S
C810 C811 1.524 . S
C810 H829 0.913 . S
C811 H787 0.950 . S
C811 C810 1.524 . S
C811 C812 1.415 . S
C812 H788 0.950 . S
C812 C807 1.363 . S
C812 C811 1.415 . S
C813 H789 0.951 . S
C813 C814 1.366 . S
C813 C815 1.388 . S
C814 C813 1.366 . S
C814 C818 1.385 . S
C815 H790 0.951 . S
C815 C813 1.388 . S
C815 C816 1.366 . S
C816 C815 1.366 . S
C816 C817 1.414 . S
C816 C819 1.499 . S
C817 H791 0.950 . S
C817 C816 1.414 . S
C817 C818 1.374 . S
C818 H792 0.950 . S
C818 C814 1.385 . S
C818 C817 1.374 . S
C819 C816 1.499 . S
C819 C820 1.373 . S
C819 C821 1.389 . S
C820 H793 0.950 . S
C820 C806 1.377 . S
C820 C819 1.373 . S
C821 C805 1.377 . S
C821 C819 1.389 . S
C821 C822 1.524 . S
C822 C821 1.524 . S
C822 C823 1.397 . S
C822 C827 1.363 . S
C823 H794 0.950 . S
C823 C822 1.397 . S
C823 C824 1.334 . S
C824 H795 0.950 . S
C824 C823 1.334 . S
C824 C825 1.287 . S
C825 C824 1.287 . S
C825 C826 1.524 . S
C825 H828 0.999 . S
C826 H796 0.950 . S
C826 C825 1.524 . S
C826 C827 1.415 . S
C827 H797 0.950 . S
C827 C822 1.363 . S
C827 C826 1.415 . S
H828 C825 0.999 . S
H829 C810 0.913 . S
H830 C848 0.951 . S
H831 C850 0.951 . S
H832 C852 0.950 . S
H833 C853 0.950 . S
H834 C855 0.950 . S
H835 C858 0.950 . S
H836 C859 0.950 . S
H837 C861 0.950 . S
H838 C862 0.950 . S
H839 C863 0.951 . S
H840 C865 0.951 . S
H841 C867 0.950 . S
H842 C868 0.950 . S
H843 C870 0.950 . S
H844 C873 0.950 . S
H845 C874 0.950 . S
H846 C876 0.950 . S
H847 C877 0.950 . S
C848 H830 0.951 . S
C848 C849 1.366 . S
C848 C850 1.388 . S
C849 C848 1.366 . S
C849 C853 1.385 . S
C850 H831 0.951 . S
C850 C848 1.388 . S
C850 C851 1.366 . S
C851 C850 1.366 . S
C851 C852 1.414 . S
C851 C854 1.499 . S
C852 H832 0.950 . S
C852 C851 1.414 . S
C852 C853 1.374 . S
C853 H833 0.950 . S
C853 C849 1.385 . S
C853 C852 1.374 . S
C854 C851 1.499 . S
C854 C855 1.373 . S
C854 C856 1.389 . S
C855 H834 0.950 . S
C855 C854 1.373 . S
C855 C871 1.377 . S
C856 C854 1.389 . S
C856 C857 1.524 . S
C856 C870 1.377 . S
C857 C856 1.524 . S
C857 C858 1.397 . S
C857 C862 1.363 . S
C858 H835 0.950 . S
C858 C857 1.397 . S
C858 C859 1.334 . S
C859 H836 0.950 . S
C859 C858 1.334 . S
C859 C860 1.287 . S
C860 C859 1.287 . S
C860 C861 1.524 . S
C860 H879 0.913 . S
C861 H837 0.950 . S
C861 C860 1.524 . S
C861 C862 1.415 . S
C862 H838 0.950 . S
C862 C857 1.363 . S
C862 C861 1.415 . S
C863 H839 0.951 . S
C863 C864 1.366 . S
C863 C865 1.388 . S
C864 C863 1.366 . S
C864 C868 1.385 . S
C865 H840 0.951 . S
C865 C863 1.388 . S
C865 C866 1.366 . S
C866 C865 1.366 . S
C866 C867 1.414 . S
C866 C869 1.499 . S
C867 H841 0.950 . S
C867 C866 1.414 . S
C867 C868 1.374 . S
C868 H842 0.950 . S
C868 C864 1.385 . S
C868 C867 1.374 . S
C869 C866 1.499 . S
C869 C870 1.373 . S
C869 C871 1.389 . S
C870 H843 0.950 . S
C870 C856 1.377 . S
C870 C869 1.373 . S
C871 C855 1.377 . S
C871 C869 1.389 . S
C871 C872 1.524 . S
C872 C871 1.524 . S
C872 C873 1.397 . S
C872 C877 1.363 . S
C873 H844 0.950 . S
C873 C872 1.397 . S
C873 C874 1.334 . S
C874 H845 0.950 . S
C874 C873 1.334 . S
C874 C875 1.287 . S
C875 C874 1.287 . S
C875 C876 1.524 . S
C875 H878 0.999 . S
C876 H846 0.950 . S
C876 C875 1.524 . S
C876 C877 1.415 . S
C877 H847 0.950 . S
C877 C872 1.363 . S
C877 C876 1.415 . S
H878 C875 0.999 . S
H879 C860 0.913 . S
H880 C898 0.951 . S
H881 C900 0.951 . S
H882 C902 0.950 . S
H883 C903 0.950 1_554 S
H884 C905 0.950 . S
H885 C908 0.950 . S
H886 C909 0.950 . S
H887 C911 0.950 . S
H888 C912 0.950 . S
H889 C913 0.951 . S
H890 C915 0.951 . S
H891 C917 0.950 . S
H892 C918 0.950 . S
H893 C920 0.950 . S
H894 C923 0.950 . S
H895 C924 0.950 . S
H896 C926 0.950 . S
H897 C927 0.950 . S
C898 H880 0.951 . S
C898 C899 1.366 . S
C898 C900 1.388 . S
C899 C898 1.366 . S
C899 C903 1.385 . S
C900 H881 0.951 . S
C900 C898 1.388 . S
C900 C901 1.366 . S
C901 C900 1.366 . S
C901 C902 1.414 . S
C901 C904 1.499 . S
C902 H882 0.950 . S
C902 C901 1.414 . S
C902 C903 1.374 . S
C903 H883 0.950 1_556 S
C903 C899 1.385 . S
C903 C902 1.374 . S
C904 C901 1.499 . S
C904 C905 1.373 . S
C904 C906 1.389 . S
C905 H884 0.950 . S
C905 C904 1.373 . S
C905 C921 1.377 . S
C906 C904 1.389 . S
C906 C907 1.524 . S
C906 C920 1.377 . S
C907 C906 1.524 . S
C907 C908 1.397 . S
C907 C912 1.363 . S
C908 H885 0.950 . S
C908 C907 1.397 . S
C908 C909 1.334 . S
C909 H886 0.950 . S
C909 C908 1.334 . S
C909 C910 1.287 . S
C910 C909 1.287 . S
C910 C911 1.524 . S
C910 H929 0.913 . S
C911 H887 0.950 . S
C911 C910 1.524 . S
C911 C912 1.415 . S
C912 H888 0.950 . S
C912 C907 1.363 . S
C912 C911 1.415 . S
C913 H889 0.951 . S
C913 C914 1.366 . S
C913 C915 1.388 . S
C914 C913 1.366 . S
C914 C918 1.385 . S
C915 H890 0.951 . S
C915 C913 1.388 . S
C915 C916 1.366 . S
C916 C915 1.366 . S
C916 C917 1.414 . S
C916 C919 1.499 . S
C917 H891 0.950 . S
C917 C916 1.414 . S
C917 C918 1.374 . S
C918 H892 0.950 . S
C918 C914 1.385 . S
C918 C917 1.374 . S
C919 C916 1.499 . S
C919 C920 1.373 . S
C919 C921 1.389 . S
C920 H893 0.950 . S
C920 C906 1.377 . S
C920 C919 1.373 . S
C921 C905 1.377 . S
C921 C919 1.389 . S
C921 C922 1.524 . S
C922 C921 1.524 . S
C922 C923 1.397 . S
C922 C927 1.363 . S
C923 H894 0.950 . S
C923 C922 1.397 . S
C923 C924 1.334 . S
C924 H895 0.950 . S
C924 C923 1.334 . S
C924 C925 1.287 . S
C925 C924 1.287 . S
C925 C926 1.524 . S
C925 H928 0.999 . S
C926 H896 0.950 . S
C926 C925 1.524 . S
C926 C927 1.415 . S
C927 H897 0.950 . S
C927 C922 1.363 . S
C927 C926 1.415 . S
H928 C925 0.999 . S
H929 C910 0.913 . S
H930 C948 0.951 . S
H931 C950 0.951 . S
H932 C952 0.950 . S
H933 C953 0.950 . S
H934 C955 0.950 . S
H935 C958 0.950 . S
H936 C959 0.950 . S
H937 C961 0.950 . S
H938 C962 0.950 . S
H939 C963 0.951 . S
H940 C965 0.951 . S
H941 C967 0.950 . S
H942 C968 0.950 . S
H943 C970 0.950 . S
H944 C973 0.950 . S
H945 C974 0.950 . S
H946 C976 0.950 . S
H947 C977 0.950 . S
C948 H930 0.951 . S
C948 C949 1.366 . S
C948 C950 1.388 . S
C949 C948 1.366 . S
C949 C953 1.385 . S
C950 H931 0.951 . S
C950 C948 1.388 . S
C950 C951 1.366 . S
C951 C950 1.366 . S
C951 C952 1.414 . S
C951 C954 1.499 . S
C952 H932 0.950 . S
C952 C951 1.414 . S
C952 C953 1.374 . S
C953 H933 0.950 . S
C953 C949 1.385 . S
C953 C952 1.374 . S
C954 C951 1.499 . S
C954 C955 1.373 . S
C954 C956 1.389 . S
C955 H934 0.950 . S
C955 C954 1.373 . S
C955 C971 1.377 . S
C956 C954 1.389 . S
C956 C957 1.524 . S
C956 C970 1.377 . S
C957 C956 1.524 . S
C957 C958 1.397 . S
C957 C962 1.363 . S
C958 H935 0.950 . S
C958 C957 1.397 . S
C958 C959 1.334 . S
C959 H936 0.950 . S
C959 C958 1.334 . S
C959 C960 1.287 . S
C960 C959 1.287 . S
C960 C961 1.524 . S
C960 H979 0.913 . S
C961 H937 0.950 . S
C961 C960 1.524 . S
C961 C962 1.415 . S
C962 H938 0.950 . S
C962 C957 1.363 . S
C962 C961 1.415 . S
C963 H939 0.951 . S
C963 C964 1.366 . S
C963 C965 1.388 . S
C964 C963 1.366 . S
C964 C968 1.385 . S
C965 H940 0.951 . S
C965 C963 1.388 . S
C965 C966 1.366 . S
C966 C965 1.366 . S
C966 C967 1.414 . S
C966 C969 1.499 . S
C967 H941 0.950 . S
C967 C966 1.414 . S
C967 C968 1.374 . S
C968 H942 0.950 . S
C968 C964 1.385 . S
C968 C967 1.374 . S
C969 C966 1.499 . S
C969 C970 1.373 . S
C969 C971 1.389 . S
C970 H943 0.950 . S
C970 C956 1.377 . S
C970 C969 1.373 . S
C971 C955 1.377 . S
C971 C969 1.389 . S
C971 C972 1.524 . S
C972 C971 1.524 . S
C972 C973 1.397 . S
C972 C977 1.363 . S
C973 H944 0.950 . S
C973 C972 1.397 . S
C973 C974 1.334 1_556 S
C974 H945 0.950 . S
C974 C973 1.334 1_554 S
C974 C975 1.287 . S
C975 C974 1.287 . S
C975 C976 1.524 . S
C975 H978 0.999 . S
C976 H946 0.950 . S
C976 C975 1.524 . S
C976 C977 1.415 1_554 S
C977 H947 0.950 . S
C977 C972 1.363 . S
C977 C976 1.415 1_556 S
H978 C975 0.999 . S
H979 C960 0.913 . S
H980 C998 0.951 . S
H981 C1000 0.951 . S
H982 C1002 0.950 . S
H983 C1003 0.950 . S
H984 C1005 0.950 . S
H985 C1008 0.950 . S
H986 C1009 0.950 . S
H987 C1011 0.950 . S
H988 C1012 0.950 . S
H989 C1013 0.951 1_556 S
H990 C1015 0.951 . S
H991 C1017 0.950 . S
H992 C1018 0.950 . S
H993 C1020 0.950 . S
H994 C1023 0.950 . S
H995 C1024 0.950 . S
H996 C1026 0.950 . S
H997 C1027 0.950 . S
C998 H980 0.951 . S
C998 C999 1.366 . S
C998 C1000 1.388 . S
C999 C998 1.366 . S
C999 C1003 1.385 . S
C1000 H981 0.951 . S
C1000 C998 1.388 . S
C1000 C1001 1.366 . S
C1001 C1000 1.366 . S
C1001 C1002 1.414 . S
C1001 C1004 1.499 . S
C1002 H982 0.950 . S
C1002 C1001 1.414 . S
C1002 C1003 1.374 . S
C1003 H983 0.950 . S
C1003 C999 1.385 . S
C1003 C1002 1.374 . S
C1004 C1001 1.499 . S
C1004 C1005 1.373 . S
C1004 C1006 1.389 . S
C1005 H984 0.950 . S
C1005 C1004 1.373 . S
C1005 C1021 1.377 . S
C1006 C1004 1.389 . S
C1006 C1007 1.524 . S
C1006 C1020 1.377 . S
C1007 C1006 1.524 . S
C1007 C1008 1.397 . S
C1007 C1012 1.363 . S
C1008 H985 0.950 . S
C1008 C1007 1.397 . S
C1008 C1009 1.334 . S
C1009 H986 0.950 . S
C1009 C1008 1.334 . S
C1009 C1010 1.287 . S
C1010 C1009 1.287 . S
C1010 C1011 1.524 . S
C1010 H1029 0.913 . S
C1011 H987 0.950 . S
C1011 C1010 1.524 . S
C1011 C1012 1.415 . S
C1012 H988 0.950 . S
C1012 C1007 1.363 . S
C1012 C1011 1.415 . S
C1013 H989 0.951 1_554 S
C1013 C1014 1.366 . S
C1013 C1015 1.388 . S
C1014 C1013 1.366 . S
C1014 C1018 1.385 . S
C1015 H990 0.951 . S
C1015 C1013 1.388 . S
C1015 C1016 1.366 . S
C1016 C1015 1.366 . S
C1016 C1017 1.414 . S
C1016 C1019 1.499 . S
C1017 H991 0.950 . S
C1017 C1016 1.414 . S
C1017 C1018 1.374 . S
C1018 H992 0.950 . S
C1018 C1014 1.385 . S
C1018 C1017 1.374 . S
C1019 C1016 1.499 . S
C1019 C1020 1.373 . S
C1019 C1021 1.389 . S
C1020 H993 0.950 . S
C1020 C1006 1.377 . S
C1020 C1019 1.373 . S
C1021 C1005 1.377 . S
C1021 C1019 1.389 . S
C1021 C1022 1.524 1_554 S
C1022 C1021 1.524 1_556 S
C1022 C1023 1.397 . S
C1022 C1027 1.363 . S
C1023 H994 0.950 . S
C1023 C1022 1.397 . S
C1023 C1024 1.334 . S
C1024 H995 0.950 . S
C1024 C1023 1.334 . S
C1024 C1025 1.287 . S
C1025 C1024 1.287 . S
C1025 C1026 1.524 . S
C1025 H1028 0.999 . S
C1026 H996 0.950 . S
C1026 C1025 1.524 . S
C1026 C1027 1.415 . S
C1027 H997 0.950 . S
C1027 C1022 1.363 . S
C1027 C1026 1.415 . S
H1028 C1025 0.999 . S
H1029 C1010 0.913 . S
H1030 C1048 0.951 . S
H1031 C1050 0.951 . S
H1032 C1052 0.950 . S
H1033 C1053 0.950 . S
H1034 C1055 0.950 . S
H1035 C1058 0.950 . S
H1036 C1059 0.950 . S
H1037 C1061 0.950 . S
H1038 C1062 0.950 . S
H1039 C1063 0.951 . S
H1040 C1065 0.951 . S
H1041 C1067 0.950 . S
H1042 C1068 0.950 . S
H1043 C1070 0.950 . S
H1044 C1073 0.950 . S
H1045 C1074 0.950 . S
H1046 C1076 0.950 . S
H1047 C1077 0.950 . S
C1048 H1030 0.951 . S
C1048 C1049 1.366 . S
C1048 C1050 1.388 . S
C1049 C1048 1.366 . S
C1049 C1053 1.385 . S
C1050 H1031 0.951 . S
C1050 C1048 1.388 . S
C1050 C1051 1.366 . S
C1051 C1050 1.366 . S
C1051 C1052 1.414 . S
C1051 C1054 1.499 . S
C1052 H1032 0.950 . S
C1052 C1051 1.414 . S
C1052 C1053 1.374 . S
C1053 H1033 0.950 . S
C1053 C1049 1.385 . S
C1053 C1052 1.374 . S
C1054 C1051 1.499 . S
C1054 C1055 1.373 . S
C1054 C1056 1.389 . S
C1055 H1034 0.950 . S
C1055 C1054 1.373 . S
C1055 C1071 1.377 . S
C1056 C1054 1.389 . S
C1056 C1057 1.524 . S
C1056 C1070 1.377 . S
C1057 C1056 1.524 . S
C1057 C1058 1.397 . S
C1057 C1062 1.363 . S
C1058 H1035 0.950 . S
C1058 C1057 1.397 . S
C1058 C1059 1.334 . S
C1059 H1036 0.950 . S
C1059 C1058 1.334 . S
C1059 C1060 1.287 . S
C1060 C1059 1.287 . S
C1060 C1061 1.524 . S
C1060 H1079 0.913 . S
C1061 H1037 0.950 . S
C1061 C1060 1.524 . S
C1061 C1062 1.415 . S
C1062 H1038 0.950 . S
C1062 C1057 1.363 . S
C1062 C1061 1.415 . S
C1063 H1039 0.951 . S
C1063 C1064 1.366 . S
C1063 C1065 1.388 . S
C1064 C1063 1.366 . S
C1064 C1068 1.385 . S
C1065 H1040 0.951 . S
C1065 C1063 1.388 . S
C1065 C1066 1.366 . S
C1066 C1065 1.366 . S
C1066 C1067 1.414 . S
C1066 C1069 1.499 . S
C1067 H1041 0.950 . S
C1067 C1066 1.414 . S
C1067 C1068 1.374 . S
C1068 H1042 0.950 . S
C1068 C1064 1.385 . S
C1068 C1067 1.374 . S
C1069 C1066 1.499 . S
C1069 C1070 1.373 . S
C1069 C1071 1.389 . S
C1070 H1043 0.950 . S
C1070 C1056 1.377 . S
C1070 C1069 1.373 . S
C1071 C1055 1.377 . S
C1071 C1069 1.389 . S
C1071 C1072 1.524 . S
C1072 C1071 1.524 . S
C1072 C1073 1.397 . S
C1072 C1077 1.363 . S
C1073 H1044 0.950 . S
C1073 C1072 1.397 . S
C1073 C1074 1.334 . S
C1074 H1045 0.950 . S
C1074 C1073 1.334 . S
C1074 C1075 1.287 . S
C1075 C1074 1.287 . S
C1075 C1076 1.524 . S
C1075 H1078 0.999 . S
C1076 H1046 0.950 . S
C1076 C1075 1.524 . S
C1076 C1077 1.415 . S
C1077 H1047 0.950 . S
C1077 C1072 1.363 . S
C1077 C1076 1.415 . S
H1078 C1075 0.999 . S
H1079 C1060 0.913 . S
C199 C16 0.815 . S
C214 C27 0.815 . S
C249 C57 0.815 . S
C264 C46 0.815 . S
C299 C87 0.815 . S
C314 C76 0.815 . S
C349 C106 0.815 . S
C364 C117 0.815 . S
C399 C147 0.815 . S
C414 C136 0.815 . S
C449 C177 0.815 . S
C464 C166 0.815 . S
C499 C1 1.927 . S
C514 C151 1.927 . S
C549 N6 1.558 . S
C564 N36 1.558 . S
C599 C61 1.926 . S
C614 C31 1.926 . S
C649 N96 1.558 . S
C664 N66 1.558 . S
C699 C121 1.927 . S
C714 C91 1.926 . S
C749 N126 1.559 . S
C764 N156 1.559 . S
C799 C10 1.838 . S
C814 N134 1.713 . S
C849 N44 1.712 . S
C864 C160 1.837 . S
C899 C70 1.837 . S
C914 N14 1.712 . S
C949 N104 1.713 1_556 S
C964 C40 1.838 . S
C999 C130 1.837 . S
C1014 N74 1.719 . S
C1049 C100 1.837 . S
C1064 N164 1.713 . S
