# Generated by pormake.
# Topology uoy, (4)-cn, num edge types: 1
# Building blocks:
#     Node 0, Type 0, BuildingBlock: GALJAG_clean_sbu_0, # of connection points: 4
#     Node 1, Type 0, BuildingBlock: GALJAG_clean_sbu_0, # of connection points: 4
#     Node 2, Type 0, BuildingBlock: GALJAG_clean_sbu_0, # of connection points: 4
#     Node 3, Type 0, BuildingBlock: GALJAG_clean_sbu_0, # of connection points: 4
#     Node 4, Type 0, BuildingBlock: GALJAG_clean_sbu_0, # of connection points: 4
#     Node 5, Type 0, BuildingBlock: GALJAG_clean_sbu_0, # of connection points: 4
#     Node 6, Type 0, BuildingBlock: GALJAG_clean_sbu_0, # of connection points: 4
#     Node 7, Type 0, BuildingBlock: GALJAG_clean_sbu_0, # of connection points: 4
#     Node 8, Type 0, BuildingBlock: GALJAG_clean_sbu_0, # of connection points: 4
#     Node 9, Type 0, BuildingBlock: GALJAG_clean_sbu_0, # of connection points: 4
#     Node 10, Type 0, BuildingBlock: GALJAG_clean_sbu_0, # of connection points: 4
#     Node 11, Type 0, BuildingBlock: GALJAG_clean_sbu_0, # of connection points: 4
#     Node 12, Type 0, BuildingBlock: GALJAG_clean_sbu_0, # of connection points: 4
#     Node 13, Type 0, BuildingBlock: GALJAG_clean_sbu_0, # of connection points: 4
#     Node 14, Type 0, BuildingBlock: GALJAG_clean_sbu_0, # of connection points: 4
#     Node 15, Type 0, BuildingBlock: GALJAG_clean_sbu_0, # of connection points: 4
#     Edge 16, Type (0, 0), BuildingBlock: EYOCIG_clean_linker_4, # of connection points: 2
#     Edge 17, Type (0, 0), BuildingBlock: EYOCIG_clean_linker_4, # of connection points: 2
#     Edge 18, Type (0, 0), BuildingBlock: EYOCIG_clean_linker_4, # of connection points: 2
#     Edge 19, Type (0, 0), BuildingBlock: EYOCIG_clean_linker_4, # of connection points: 2
#     Edge 20, Type (0, 0), BuildingBlock: EYOCIG_clean_linker_4, # of connection points: 2
#     Edge 21, Type (0, 0), BuildingBlock: EYOCIG_clean_linker_4, # of connection points: 2
#     Edge 22, Type (0, 0), BuildingBlock: EYOCIG_clean_linker_4, # of connection points: 2
#     Edge 23, Type (0, 0), BuildingBlock: EYOCIG_clean_linker_4, # of connection points: 2
#     Edge 24, Type (0, 0), BuildingBlock: EYOCIG_clean_linker_4, # of connection points: 2
#     Edge 25, Type (0, 0), BuildingBlock: EYOCIG_clean_linker_4, # of connection points: 2
#     Edge 26, Type (0, 0), BuildingBlock: EYOCIG_clean_linker_4, # of connection points: 2
#     Edge 27, Type (0, 0), BuildingBlock: EYOCIG_clean_linker_4, # of connection points: 2
#     Edge 28, Type (0, 0), BuildingBlock: EYOCIG_clean_linker_4, # of connection points: 2
#     Edge 29, Type (0, 0), BuildingBlock: EYOCIG_clean_linker_4, # of connection points: 2
#     Edge 30, Type (0, 0), BuildingBlock: EYOCIG_clean_linker_4, # of connection points: 2
#     Edge 31, Type (0, 0), BuildingBlock: EYOCIG_clean_linker_4, # of connection points: 2
#     Edge 32, Type (0, 0), BuildingBlock: EYOCIG_clean_linker_4, # of connection points: 2
#     Edge 33, Type (0, 0), BuildingBlock: EYOCIG_clean_linker_4, # of connection points: 2
#     Edge 34, Type (0, 0), BuildingBlock: EYOCIG_clean_linker_4, # of connection points: 2
#     Edge 35, Type (0, 0), BuildingBlock: EYOCIG_clean_linker_4, # of connection points: 2
#     Edge 36, Type (0, 0), BuildingBlock: EYOCIG_clean_linker_4, # of connection points: 2
#     Edge 37, Type (0, 0), BuildingBlock: EYOCIG_clean_linker_4, # of connection points: 2
#     Edge 38, Type (0, 0), BuildingBlock: EYOCIG_clean_linker_4, # of connection points: 2
#     Edge 39, Type (0, 0), BuildingBlock: EYOCIG_clean_linker_4, # of connection points: 2
#     Edge 40, Type (0, 0), BuildingBlock: EYOCIG_clean_linker_4, # of connection points: 2
#     Edge 41, Type (0, 0), BuildingBlock: EYOCIG_clean_linker_4, # of connection points: 2
#     Edge 42, Type (0, 0), BuildingBlock: EYOCIG_clean_linker_4, # of connection points: 2
#     Edge 43, Type (0, 0), BuildingBlock: EYOCIG_clean_linker_4, # of connection points: 2
#     Edge 44, Type (0, 0), BuildingBlock: EYOCIG_clean_linker_4, # of connection points: 2
#     Edge 45, Type (0, 0), BuildingBlock: EYOCIG_clean_linker_4, # of connection points: 2
#     Edge 46, Type (0, 0), BuildingBlock: EYOCIG_clean_linker_4, # of connection points: 2
#     Edge 47, Type (0, 0), BuildingBlock: EYOCIG_clean_linker_4, # of connection points: 2
# Relax obj value: 0.037
# Max RMSD: 0.056
# Mean RMSD: 0.056
data_MOF--net-uoy--node1-GALJAG_clean_sbu_0--edge1-EYOCIG_clean_linker_4
_symmetry_space_group_name_H-M    P1
_symmetry_Int_Tables_number       1
_symmetry_cell_setting            triclinic
loop_
_symmetry_equiv_pos_as_xyz
'x, y, z'
_cell_length_a     21.89928
_cell_length_b     21.898048
_cell_length_c     86.759506
_cell_angle_alpha  90.045594
_cell_angle_beta   89.889735
_cell_angle_gamma 89.877938
loop_
_atom_site_label
_atom_site_type_symbol
_atom_site_fract_x
_atom_site_fract_y
_atom_site_fract_z
_atom_type_partial_charge
In0 In 0.24985 0.11416 0.18883 0.0
O1 O 0.24172 0.20183 0.17491 0.0
O2 O 0.24468 0.11711 0.16264 0.0
C3 C 0.27039 0.14811 0.21804 0.0
C4 C 0.13592 0.06877 0.18828 0.0
C5 C 0.36062 0.06237 0.18765 0.0
O6 O 0.26834 0.1865 0.20717 0.0
O7 O 0.25736 0.09391 0.21444 0.0
O8 O 0.31232 0.03091 0.18781 0.0
O9 O 0.35324 0.1194 0.18698 0.0
C10 C 0.2392 0.17444 0.1621 0.0
O11 O 0.18266 0.03598 0.18613 0.0
O12 O 0.14619 0.12424 0.19131 0.0
In13 In 0.88544 0.74999 0.4389 0.0
O14 O 0.96351 0.68258 0.43616 0.0
O15 O 0.87514 0.64641 0.44124 0.0
C16 C 0.93663 0.8608 0.43709 0.0
C17 C 0.82482 0.74125 0.41223 0.0
C18 C 0.85185 0.77039 0.46812 0.0
O19 O 0.96835 0.81255 0.43754 0.0
O20 O 0.87962 0.85325 0.43675 0.0
O21 O 0.81339 0.76816 0.45729 0.0
O22 O 0.90619 0.75783 0.46447 0.0
C23 C 0.93067 0.636 0.43826 0.0
O24 O 0.79753 0.74299 0.42507 0.0
O25 O 0.88222 0.74546 0.41275 0.0
In26 In 0.24942 0.38543 0.68891 0.0
O27 O 0.25687 0.29718 0.67515 0.0
O28 O 0.25415 0.38159 0.66277 0.0
C29 C 0.23107 0.35268 0.7183 0.0
C30 C 0.36248 0.43276 0.68809 0.0
C31 C 0.1382 0.43591 0.68734 0.0
O32 O 0.23239 0.31388 0.70751 0.0
O33 O 0.24299 0.40688 0.71448 0.0
O34 O 0.18614 0.46789 0.68762 0.0
O35 O 0.1462 0.37894 0.68697 0.0
C36 C 0.25862 0.3242 0.66229 0.0
O37 O 0.31508 0.46453 0.68595 0.0
O38 O 0.35338 0.3771 0.69115 0.0
In39 In 0.61395 0.74954 0.93887 0.0
O40 O 0.53517 0.81569 0.93572 0.0
O41 O 0.62264 0.85351 0.94088 0.0
C42 C 0.56072 0.6395 0.93746 0.0
C43 C 0.67619 0.75993 0.91238 0.0
C44 C 0.64726 0.73141 0.96826 0.0
O45 O 0.53008 0.6884 0.93764 0.0
O46 O 0.6179 0.64584 0.93699 0.0
O47 O 0.68577 0.73209 0.9574 0.0
O48 O 0.59305 0.74374 0.96452 0.0
C49 C 0.56721 0.8629 0.93764 0.0
O50 O 0.70276 0.75748 0.92529 0.0
O51 O 0.6189 0.75453 0.91272 0.0
In52 In 0.25006 0.38539 0.06873 0.0
O53 O 0.24151 0.29676 0.08234 0.0
O54 O 0.24476 0.3808 0.09487 0.0
C55 C 0.27004 0.3524 0.03941 0.0
C56 C 0.13699 0.43289 0.06949 0.0
C57 C 0.35992 0.4389 0.07024 0.0
O58 O 0.26863 0.31352 0.05017 0.0
O59 O 0.25702 0.40639 0.04321 0.0
O60 O 0.31097 0.46945 0.07001 0.0
O61 O 0.35367 0.38171 0.07069 0.0
C62 C 0.23912 0.32352 0.09524 0.0
O63 O 0.18426 0.46454 0.07165 0.0
O64 O 0.14616 0.37727 0.06636 0.0
In65 In 0.61389 0.74983 0.31869 0.0
O66 O 0.53549 0.68321 0.32164 0.0
O67 O 0.6236 0.64585 0.31674 0.0
C68 C 0.56075 0.85998 0.31995 0.0
C69 C 0.67336 0.74145 0.34556 0.0
C70 C 0.64922 0.76819 0.28945 0.0
O71 O 0.53007 0.81124 0.31967 0.0
O72 O 0.6179 0.85345 0.32053 0.0
O73 O 0.68691 0.76708 0.30045 0.0
O74 O 0.59468 0.75615 0.29296 0.0
C75 C 0.56809 0.63612 0.31986 0.0
O76 O 0.70135 0.74333 0.33282 0.0
O77 O 0.61602 0.74572 0.34483 0.0
In78 In 0.24957 0.11393 0.56868 0.0
O79 O 0.25696 0.20116 0.58286 0.0
O80 O 0.25406 0.11569 0.59479 0.0
C81 C 0.23028 0.14704 0.53936 0.0
C82 C 0.36312 0.06777 0.56986 0.0
C83 C 0.13819 0.064 0.57038 0.0
O84 O 0.23216 0.18583 0.55015 0.0
O85 O 0.24263 0.09281 0.54311 0.0
O86 O 0.18609 0.03173 0.56995 0.0
O87 O 0.14637 0.12094 0.57077 0.0
C88 C 0.25872 0.17298 0.59557 0.0
O89 O 0.31606 0.0353 0.57163 0.0
O90 O 0.35347 0.12329 0.56672 0.0
In91 In 0.88528 0.74952 0.8187 0.0
O92 O 0.79745 0.75773 0.83277 0.0
O93 O 0.88262 0.75505 0.84479 0.0
C94 C 0.85289 0.73047 0.7893 0.0
C95 C 0.93209 0.86273 0.81933 0.0
C96 C 0.93782 0.63928 0.82042 0.0
O97 O 0.81394 0.73149 0.80008 0.0
O98 O 0.9069 0.74295 0.79314 0.0
O99 O 0.96873 0.68787 0.82007 0.0
O100 O 0.88065 0.64605 0.82076 0.0
C101 C 0.82536 0.76028 0.8455 0.0
O102 O 0.96406 0.81552 0.82151 0.0
O103 O 0.87646 0.85337 0.8163 0.0
In104 In 0.74973 0.6142 0.68883 0.0
O105 O 0.68228 0.53621 0.68613 0.0
O106 O 0.64608 0.62464 0.6912 0.0
C107 C 0.8597 0.56068 0.68726 0.0
C108 C 0.73948 0.67414 0.66204 0.0
C109 C 0.77016 0.64889 0.71801 0.0
O110 O 0.81089 0.5301 0.68762 0.0
O111 O 0.85327 0.61787 0.68678 0.0
O112 O 0.76828 0.68689 0.70706 0.0
O113 O 0.75743 0.59453 0.71449 0.0
C114 C 0.63562 0.56922 0.68817 0.0
O115 O 0.74205 0.70195 0.6748 0.0
O116 O 0.74464 0.61685 0.66271 0.0
In117 In 0.38548 0.24993 0.93889 0.0
O118 O 0.2976 0.24292 0.92504 0.0
O119 O 0.38229 0.24604 0.91273 0.0
C120 C 0.35167 0.27011 0.96811 0.0
C121 C 0.4315 0.13618 0.93771 0.0
C122 C 0.43633 0.36103 0.93756 0.0
O123 O 0.31312 0.26772 0.9573 0.0
O124 O 0.40595 0.25745 0.96445 0.0
O125 O 0.46826 0.3129 0.93784 0.0
O126 O 0.37939 0.35323 0.93695 0.0
C127 C 0.32492 0.24149 0.9122 0.0
O128 O 0.46402 0.18314 0.93587 0.0
O129 O 0.37604 0.14603 0.9409 0.0
In130 In 0.74945 0.88547 0.1889 0.0
O131 O 0.75643 0.79725 0.17511 0.0
O132 O 0.75408 0.88165 0.16274 0.0
C133 C 0.73156 0.8509 0.21818 0.0
C134 C 0.86278 0.93218 0.18822 0.0
C135 C 0.63907 0.93811 0.1877 0.0
O136 O 0.73241 0.8129 0.20722 0.0
O137 O 0.74333 0.90536 0.21458 0.0
O138 O 0.68765 0.96907 0.18783 0.0
O139 O 0.64592 0.88099 0.18716 0.0
C140 C 0.75843 0.82426 0.16226 0.0
O141 O 0.81562 0.96422 0.18603 0.0
O142 O 0.8533 0.87656 0.19122 0.0
In143 In 0.11398 0.24949 0.4389 0.0
O144 O 0.0351 0.3158 0.43616 0.0
O145 O 0.12282 0.35328 0.44126 0.0
C146 C 0.06317 0.13849 0.43712 0.0
C147 C 0.17466 0.2585 0.41222 0.0
C148 C 0.14867 0.22908 0.46803 0.0
O149 O 0.03127 0.18661 0.43758 0.0
O150 O 0.12014 0.14627 0.43676 0.0
O151 O 0.1868 0.23177 0.4571 0.0
O152 O 0.09416 0.2413 0.46454 0.0
C153 C 0.06718 0.36286 0.43828 0.0
O154 O 0.20186 0.25687 0.42505 0.0
O155 O 0.11729 0.25413 0.41276 0.0
In156 In 0.74991 0.8856 0.56871 0.0
O157 O 0.68354 0.96439 0.5718 0.0
O158 O 0.646 0.87673 0.56667 0.0
C159 C 0.86059 0.93725 0.5705 0.0
C160 C 0.73947 0.82318 0.59514 0.0
C161 C 0.76979 0.85248 0.5394 0.0
O162 O 0.8122 0.9687 0.5701 0.0
O163 O 0.85329 0.8802 0.57088 0.0
O164 O 0.76792 0.81383 0.55019 0.0
O165 O 0.75717 0.90668 0.54312 0.0
C166 C 0.63642 0.93217 0.5699 0.0
O167 O 0.74175 0.79679 0.58219 0.0
O168 O 0.74483 0.88052 0.59487 0.0
In169 In 0.11407 0.24985 0.81869 0.0
O170 O 0.03573 0.18258 0.82132 0.0
O171 O 0.12423 0.14616 0.81638 0.0
C172 C 0.06359 0.36118 0.82028 0.0
C173 C 0.17316 0.24116 0.84556 0.0
C174 C 0.14947 0.26956 0.78956 0.0
O175 O 0.03155 0.31327 0.81982 0.0
O176 O 0.12053 0.35308 0.82075 0.0
O177 O 0.18734 0.26721 0.80052 0.0
O178 O 0.09486 0.2577 0.79306 0.0
C179 C 0.06868 0.13584 0.81929 0.0
O180 O 0.20116 0.24285 0.83282 0.0
O181 O 0.11579 0.24539 0.84484 0.0
In182 In 0.74962 0.61407 0.06869 0.0
O183 O 0.75663 0.70103 0.08294 0.0
O184 O 0.75416 0.61546 0.09482 0.0
C185 C 0.73039 0.64995 0.03957 0.0
C186 C 0.86377 0.56916 0.06944 0.0
C187 C 0.63847 0.5633 0.07005 0.0
O188 O 0.73254 0.68751 0.05062 0.0
O189 O 0.74216 0.59518 0.04296 0.0
O190 O 0.68658 0.53132 0.06968 0.0
O191 O 0.64632 0.62024 0.07064 0.0
C192 C 0.75862 0.67277 0.09563 0.0
O193 O 0.81723 0.53606 0.07138 0.0
O194 O 0.85321 0.62462 0.06646 0.0
In195 In 0.38558 0.24962 0.31867 0.0
O196 O 0.29818 0.2567 0.33282 0.0
O197 O 0.3835 0.25374 0.34479 0.0
C198 C 0.35227 0.23032 0.28935 0.0
C199 C 0.43217 0.36302 0.31986 0.0
C200 C 0.43627 0.13845 0.31997 0.0
O201 O 0.31353 0.23232 0.30017 0.0
O202 O 0.40648 0.24255 0.29308 0.0
O203 O 0.46816 0.18646 0.3197 0.0
O204 O 0.3793 0.14634 0.32056 0.0
C205 C 0.32618 0.25828 0.34554 0.0
O206 O 0.46437 0.3157 0.32169 0.0
O207 O 0.37665 0.35369 0.31669 0.0
C208 C 0.22621 0.26414 0.1215 0.0
C209 C 0.23209 0.29096 0.10947 0.0
C210 C 0.22624 0.23258 0.13567 0.0
C211 C 0.23214 0.20641 0.14779 0.0
C212 C 0.76465 0.73312 0.386 0.0
C213 C 0.79252 0.73684 0.39792 0.0
C214 C 0.73184 0.73312 0.37203 0.0
C215 C 0.70471 0.73693 0.36 0.0
C216 C 0.26753 0.23103 0.6221 0.0
C217 C 0.2635 0.20412 0.61004 0.0
C218 C 0.26748 0.26372 0.6361 0.0
C219 C 0.26343 0.29164 0.64801 0.0
C220 C 0.76722 0.77268 0.87196 0.0
C221 C 0.79406 0.76701 0.85992 0.0
C222 C 0.73562 0.77258 0.88612 0.0
C223 C 0.70895 0.76682 0.89818 0.0
C224 C 0.72725 0.76354 0.62138 0.0
C225 C 0.7328 0.79017 0.60931 0.0
C226 C 0.72722 0.73218 0.63558 0.0
C227 C 0.73282 0.7056 0.64765 0.0
C228 C 0.26489 0.23342 0.88594 0.0
C229 C 0.29269 0.23712 0.89787 0.0
C230 C 0.23201 0.23334 0.87198 0.0
C231 C 0.20466 0.23692 0.85998 0.0
C232 C 0.7676 0.7309 0.12213 0.0
C233 C 0.76349 0.70389 0.11009 0.0
C234 C 0.76754 0.7637 0.1361 0.0
C235 C 0.76337 0.79169 0.14799 0.0
C236 C 0.23492 0.26656 0.386 0.0
C237 C 0.20703 0.26287 0.39793 0.0
C238 C 0.26772 0.26656 0.37203 0.0
C239 C 0.29481 0.26277 0.35999 0.0
C240 C 0.3066 0.17842 0.24603 0.0
C241 C 0.29002 0.16416 0.23329 0.0
C242 C 0.32388 0.19617 0.26105 0.0
C243 C 0.33668 0.21174 0.27398 0.0
C244 C 0.82244 0.8062 0.4962 0.0
C245 C 0.83577 0.78986 0.48337 0.0
C246 C 0.80488 0.82365 0.51121 0.0
C247 C 0.78886 0.83675 0.52409 0.0
C248 C 0.19933 0.3227 0.74665 0.0
C249 C 0.21388 0.3369 0.73375 0.0
C250 C 0.18185 0.30449 0.76162 0.0
C251 C 0.16659 0.28849 0.77434 0.0
C252 C 0.69625 0.68229 0.01155 0.0
C253 C 0.71183 0.6676 0.02435 0.0
C254 C 0.67797 0.69991 0.99659 0.0
C255 C 0.66336 0.71436 0.98371 0.0
C256 C 0.30486 0.32342 0.01122 0.0
C257 C 0.28889 0.33719 0.02405 0.0
C258 C 0.32215 0.30599 0.99619 0.0
C259 C 0.33574 0.2896 0.98338 0.0
C260 C 0.68198 0.80044 0.26132 0.0
C261 C 0.66656 0.78566 0.27412 0.0
C262 C 0.7002 0.81873 0.24641 0.0
C263 C 0.71459 0.83397 0.23357 0.0
C264 C 0.17898 0.19294 0.49603 0.0
C265 C 0.16533 0.20942 0.48323 0.0
C266 C 0.19623 0.1756 0.51107 0.0
C267 C 0.21176 0.16267 0.52399 0.0
C268 C 0.80567 0.68008 0.746 0.0
C269 C 0.78942 0.66555 0.73324 0.0
C270 C 0.82377 0.69778 0.76096 0.0
C271 C 0.83759 0.71277 0.77386 0.0
C272 C 0.02667 0.01787 0.18717 0.0
C273 C 0.07537 0.0435 0.18781 0.0
C274 C 0.97116 0.98487 0.18717 0.0
C275 C 0.92286 0.95848 0.18778 0.0
C276 C 0.01462 0.4713 0.43717 0.0
C277 C 0.04096 0.42296 0.43781 0.0
C278 C 0.9816 0.52678 0.43715 0.0
C279 C 0.95593 0.57549 0.43779 0.0
C280 C 0.47063 0.48592 0.68679 0.0
C281 C 0.42242 0.45938 0.68751 0.0
C282 C 0.52617 0.51887 0.68678 0.0
C283 C 0.57496 0.54428 0.68755 0.0
C284 C 0.48252 0.02715 0.93544 0.0
C285 C 0.45694 0.0758 0.93659 0.0
C286 C 0.51527 0.97146 0.93543 0.0
C287 C 0.54121 0.92301 0.93656 0.0
C288 C 0.02889 0.48611 0.07093 0.0
C289 C 0.0771 0.45957 0.07015 0.0
C290 C 0.97332 0.51903 0.07095 0.0
C291 C 0.92445 0.54432 0.07014 0.0
C292 C 0.51691 0.52723 0.32214 0.0
C293 C 0.54262 0.57577 0.32098 0.0
C294 C 0.48407 0.47159 0.32213 0.0
C295 C 0.4581 0.42319 0.32097 0.0
C296 C 0.52763 0.98367 0.57218 0.0
C297 C 0.57619 0.95793 0.57102 0.0
C298 C 0.47195 0.01643 0.57218 0.0
C299 C 0.42341 0.04216 0.571 0.0
C300 C 0.01801 0.02648 0.82047 0.0
C301 C 0.04355 0.07523 0.81981 0.0
C302 C 0.985 0.97098 0.82046 0.0
C303 C 0.9585 0.92275 0.81981 0.0
C304 C 0.52965 0.98802 0.18953 0.0
C305 C 0.57986 0.96575 0.1887 0.0
C306 C 0.47061 0.01372 0.18953 0.0
C307 C 0.42016 0.03542 0.18868 0.0
C308 C 0.9865 0.97039 0.43752 0.0
C309 C 0.96349 0.92046 0.43732 0.0
C310 C 0.01372 0.02873 0.43753 0.0
C311 C 0.03657 0.07872 0.43734 0.0
C312 C 0.02779 0.48391 0.68825 0.0
C313 C 0.07836 0.46233 0.68783 0.0
C314 C 0.96885 0.50983 0.68823 0.0
C315 C 0.91876 0.53251 0.68779 0.0
C316 C 0.48396 0.47151 0.939 0.0
C317 C 0.46266 0.42088 0.93835 0.0
C318 C 0.5098 0.5305 0.93897 0.0
C319 C 0.53257 0.58049 0.93829 0.0
C320 C 0.52787 0.5158 0.0689 0.0
C321 C 0.57857 0.53701 0.06942 0.0
C322 C 0.46886 0.49001 0.06895 0.0
C323 C 0.4189 0.46716 0.06954 0.0
C324 C 0.48416 0.02807 0.31844 0.0
C325 C 0.46273 0.07867 0.31914 0.0
C326 C 0.51005 0.96911 0.31846 0.0
C327 C 0.5327 0.91905 0.31913 0.0
C328 C 0.96983 0.98789 0.5699 0.0
C329 C 0.92009 0.96448 0.57018 0.0
C330 C 0.02813 0.01521 0.56987 0.0
C331 C 0.07823 0.03782 0.5701 0.0
C332 C 0.98877 0.53017 0.81968 0.0
C333 C 0.96574 0.58011 0.82001 0.0
C334 C 0.0154 0.47155 0.81964 0.0
C335 C 0.03726 0.42108 0.81993 0.0
loop_
_geom_bond_atom_site_label_1
_geom_bond_atom_site_label_2
_geom_bond_distance
_geom_bond_site_symmetry_2
_ccdc_geom_bond_type
In0 O1 2.294 . S
In0 O2 2.326 . S
In0 O6 2.266 . S
In0 O7 2.326 . S
In0 O8 2.266 . S
In0 O9 2.326 . S
In0 O11 2.294 . S
In0 O12 2.326 . S
O1 In0 2.294 . S
O1 C10 1.240 . S
O2 In0 2.326 . S
O2 C10 1.252 . S
C3 O6 1.252 . S
C3 O7 1.260 . S
C4 O11 1.240 . S
C4 O12 1.252 . S
C5 O8 1.252 . S
C5 O9 1.260 . S
O6 In0 2.266 . S
O6 C3 1.252 . S
O7 In0 2.326 . S
O7 C3 1.260 . S
O8 In0 2.266 . S
O8 C5 1.252 . S
O9 In0 2.326 . S
O9 C5 1.260 . S
C10 O1 1.240 . S
C10 O2 1.252 . S
O11 In0 2.294 . S
O11 C4 1.240 . S
O12 In0 2.326 . S
O12 C4 1.252 . S
In13 O14 2.294 . S
In13 O15 2.326 . S
In13 O19 2.266 . S
In13 O20 2.326 . S
In13 O21 2.266 . S
In13 O22 2.326 . S
In13 O24 2.294 . S
In13 O25 2.326 . S
O14 In13 2.294 . S
O14 C23 1.240 . S
O15 In13 2.326 . S
O15 C23 1.252 . S
C16 O19 1.252 . S
C16 O20 1.260 . S
C17 O24 1.240 . S
C17 O25 1.252 . S
C18 O21 1.252 . S
C18 O22 1.260 . S
O19 In13 2.266 . S
O19 C16 1.252 . S
O20 In13 2.326 . S
O20 C16 1.260 . S
O21 In13 2.266 . S
O21 C18 1.252 . S
O22 In13 2.326 . S
O22 C18 1.260 . S
C23 O14 1.240 . S
C23 O15 1.252 . S
O24 In13 2.294 . S
O24 C17 1.240 . S
O25 In13 2.326 . S
O25 C17 1.252 . S
In26 O27 2.294 . S
In26 O28 2.326 . S
In26 O32 2.266 . S
In26 O33 2.326 . S
In26 O34 2.266 . S
In26 O35 2.326 . S
In26 O37 2.294 . S
In26 O38 2.326 . S
O27 In26 2.294 . S
O27 C36 1.240 . S
O28 In26 2.326 . S
O28 C36 1.252 . S
C29 O32 1.252 . S
C29 O33 1.260 . S
C30 O37 1.240 . S
C30 O38 1.252 . S
C31 O34 1.252 . S
C31 O35 1.260 . S
O32 In26 2.266 . S
O32 C29 1.252 . S
O33 In26 2.326 . S
O33 C29 1.260 . S
O34 In26 2.266 . S
O34 C31 1.252 . S
O35 In26 2.326 . S
O35 C31 1.260 . S
C36 O27 1.240 . S
C36 O28 1.252 . S
O37 In26 2.294 . S
O37 C30 1.240 . S
O38 In26 2.326 . S
O38 C30 1.252 . S
In39 O40 2.294 . S
In39 O41 2.326 . S
In39 O45 2.266 . S
In39 O46 2.326 . S
In39 O47 2.266 . S
In39 O48 2.326 . S
In39 O50 2.294 . S
In39 O51 2.326 . S
O40 In39 2.294 . S
O40 C49 1.240 . S
O41 In39 2.326 . S
O41 C49 1.252 . S
C42 O45 1.252 . S
C42 O46 1.260 . S
C43 O50 1.240 . S
C43 O51 1.252 . S
C44 O47 1.252 . S
C44 O48 1.260 . S
O45 In39 2.266 . S
O45 C42 1.252 . S
O46 In39 2.326 . S
O46 C42 1.260 . S
O47 In39 2.266 . S
O47 C44 1.252 . S
O48 In39 2.326 . S
O48 C44 1.260 . S
C49 O40 1.240 . S
C49 O41 1.252 . S
O50 In39 2.294 . S
O50 C43 1.240 . S
O51 In39 2.326 . S
O51 C43 1.252 . S
In52 O53 2.294 . S
In52 O54 2.326 . S
In52 O58 2.266 . S
In52 O59 2.326 . S
In52 O60 2.266 . S
In52 O61 2.326 . S
In52 O63 2.294 . S
In52 O64 2.326 . S
O53 In52 2.294 . S
O53 C62 1.240 . S
O54 In52 2.326 . S
O54 C62 1.252 . S
C55 O58 1.252 . S
C55 O59 1.260 . S
C56 O63 1.240 . S
C56 O64 1.252 . S
C57 O60 1.252 . S
C57 O61 1.260 . S
O58 In52 2.266 . S
O58 C55 1.252 . S
O59 In52 2.326 . S
O59 C55 1.260 . S
O60 In52 2.266 . S
O60 C57 1.252 . S
O61 In52 2.326 . S
O61 C57 1.260 . S
C62 O53 1.240 . S
C62 O54 1.252 . S
O63 In52 2.294 . S
O63 C56 1.240 . S
O64 In52 2.326 . S
O64 C56 1.252 . S
In65 O66 2.294 . S
In65 O67 2.326 . S
In65 O71 2.266 . S
In65 O72 2.326 . S
In65 O73 2.266 . S
In65 O74 2.326 . S
In65 O76 2.294 . S
In65 O77 2.326 . S
O66 In65 2.294 . S
O66 C75 1.240 . S
O67 In65 2.326 . S
O67 C75 1.252 . S
C68 O71 1.252 . S
C68 O72 1.260 . S
C69 O76 1.240 . S
C69 O77 1.252 . S
C70 O73 1.252 . S
C70 O74 1.260 . S
O71 In65 2.266 . S
O71 C68 1.252 . S
O72 In65 2.326 . S
O72 C68 1.260 . S
O73 In65 2.266 . S
O73 C70 1.252 . S
O74 In65 2.326 . S
O74 C70 1.260 . S
C75 O66 1.240 . S
C75 O67 1.252 . S
O76 In65 2.294 . S
O76 C69 1.240 . S
O77 In65 2.326 . S
O77 C69 1.252 . S
In78 O79 2.294 . S
In78 O80 2.326 . S
In78 O84 2.266 . S
In78 O85 2.326 . S
In78 O86 2.266 . S
In78 O87 2.326 . S
In78 O89 2.294 . S
In78 O90 2.326 . S
O79 In78 2.294 . S
O79 C88 1.240 . S
O80 In78 2.326 . S
O80 C88 1.252 . S
C81 O84 1.252 . S
C81 O85 1.260 . S
C82 O89 1.240 . S
C82 O90 1.252 . S
C83 O86 1.252 . S
C83 O87 1.260 . S
O84 In78 2.266 . S
O84 C81 1.252 . S
O85 In78 2.326 . S
O85 C81 1.260 . S
O86 In78 2.266 . S
O86 C83 1.252 . S
O87 In78 2.326 . S
O87 C83 1.260 . S
C88 O79 1.240 . S
C88 O80 1.252 . S
O89 In78 2.294 . S
O89 C82 1.240 . S
O90 In78 2.326 . S
O90 C82 1.252 . S
In91 O92 2.294 . S
In91 O93 2.326 . S
In91 O97 2.266 . S
In91 O98 2.326 . S
In91 O99 2.266 . S
In91 O100 2.326 . S
In91 O102 2.294 . S
In91 O103 2.326 . S
O92 In91 2.294 . S
O92 C101 1.240 . S
O93 In91 2.326 . S
O93 C101 1.252 . S
C94 O97 1.252 . S
C94 O98 1.260 . S
C95 O102 1.240 . S
C95 O103 1.252 . S
C96 O99 1.252 . S
C96 O100 1.260 . S
O97 In91 2.266 . S
O97 C94 1.252 . S
O98 In91 2.326 . S
O98 C94 1.260 . S
O99 In91 2.266 . S
O99 C96 1.252 . S
O100 In91 2.326 . S
O100 C96 1.260 . S
C101 O92 1.240 . S
C101 O93 1.252 . S
O102 In91 2.294 . S
O102 C95 1.240 . S
O103 In91 2.326 . S
O103 C95 1.252 . S
In104 O105 2.294 . S
In104 O106 2.326 . S
In104 O110 2.266 . S
In104 O111 2.326 . S
In104 O112 2.266 . S
In104 O113 2.326 . S
In104 O115 2.294 . S
In104 O116 2.326 . S
O105 In104 2.294 . S
O105 C114 1.240 . S
O106 In104 2.326 . S
O106 C114 1.252 . S
C107 O110 1.252 . S
C107 O111 1.260 . S
C108 O115 1.240 . S
C108 O116 1.252 . S
C109 O112 1.252 . S
C109 O113 1.260 . S
O110 In104 2.266 . S
O110 C107 1.252 . S
O111 In104 2.326 . S
O111 C107 1.260 . S
O112 In104 2.266 . S
O112 C109 1.252 . S
O113 In104 2.326 . S
O113 C109 1.260 . S
C114 O105 1.240 . S
C114 O106 1.252 . S
O115 In104 2.294 . S
O115 C108 1.240 . S
O116 In104 2.326 . S
O116 C108 1.252 . S
In117 O118 2.294 . S
In117 O119 2.326 . S
In117 O123 2.266 . S
In117 O124 2.326 . S
In117 O125 2.266 . S
In117 O126 2.326 . S
In117 O128 2.294 . S
In117 O129 2.326 . S
O118 In117 2.294 . S
O118 C127 1.240 . S
O119 In117 2.326 . S
O119 C127 1.252 . S
C120 O123 1.252 . S
C120 O124 1.260 . S
C121 O128 1.240 . S
C121 O129 1.252 . S
C122 O125 1.252 . S
C122 O126 1.260 . S
O123 In117 2.266 . S
O123 C120 1.252 . S
O124 In117 2.326 . S
O124 C120 1.260 . S
O125 In117 2.266 . S
O125 C122 1.252 . S
O126 In117 2.326 . S
O126 C122 1.260 . S
C127 O118 1.240 . S
C127 O119 1.252 . S
O128 In117 2.294 . S
O128 C121 1.240 . S
O129 In117 2.326 . S
O129 C121 1.252 . S
In130 O131 2.294 . S
In130 O132 2.326 . S
In130 O136 2.266 . S
In130 O137 2.326 . S
In130 O138 2.266 . S
In130 O139 2.326 . S
In130 O141 2.294 . S
In130 O142 2.326 . S
O131 In130 2.294 . S
O131 C140 1.240 . S
O132 In130 2.326 . S
O132 C140 1.252 . S
C133 O136 1.252 . S
C133 O137 1.260 . S
C134 O141 1.240 . S
C134 O142 1.252 . S
C135 O138 1.252 . S
C135 O139 1.260 . S
O136 In130 2.266 . S
O136 C133 1.252 . S
O137 In130 2.326 . S
O137 C133 1.260 . S
O138 In130 2.266 . S
O138 C135 1.252 . S
O139 In130 2.326 . S
O139 C135 1.260 . S
C140 O131 1.240 . S
C140 O132 1.252 . S
O141 In130 2.294 . S
O141 C134 1.240 . S
O142 In130 2.326 . S
O142 C134 1.252 . S
In143 O144 2.294 . S
In143 O145 2.326 . S
In143 O149 2.266 . S
In143 O150 2.326 . S
In143 O151 2.266 . S
In143 O152 2.326 . S
In143 O154 2.294 . S
In143 O155 2.326 . S
O144 In143 2.294 . S
O144 C153 1.240 . S
O145 In143 2.326 . S
O145 C153 1.252 . S
C146 O149 1.252 . S
C146 O150 1.260 . S
C147 O154 1.240 . S
C147 O155 1.252 . S
C148 O151 1.252 . S
C148 O152 1.260 . S
O149 In143 2.266 . S
O149 C146 1.252 . S
O150 In143 2.326 . S
O150 C146 1.260 . S
O151 In143 2.266 . S
O151 C148 1.252 . S
O152 In143 2.326 . S
O152 C148 1.260 . S
C153 O144 1.240 . S
C153 O145 1.252 . S
O154 In143 2.294 . S
O154 C147 1.240 . S
O155 In143 2.326 . S
O155 C147 1.252 . S
In156 O157 2.294 . S
In156 O158 2.326 . S
In156 O162 2.266 . S
In156 O163 2.326 . S
In156 O164 2.266 . S
In156 O165 2.326 . S
In156 O167 2.294 . S
In156 O168 2.326 . S
O157 In156 2.294 . S
O157 C166 1.240 . S
O158 In156 2.326 . S
O158 C166 1.252 . S
C159 O162 1.252 . S
C159 O163 1.260 . S
C160 O167 1.240 . S
C160 O168 1.252 . S
C161 O164 1.252 . S
C161 O165 1.260 . S
O162 In156 2.266 . S
O162 C159 1.252 . S
O163 In156 2.326 . S
O163 C159 1.260 . S
O164 In156 2.266 . S
O164 C161 1.252 . S
O165 In156 2.326 . S
O165 C161 1.260 . S
C166 O157 1.240 . S
C166 O158 1.252 . S
O167 In156 2.294 . S
O167 C160 1.240 . S
O168 In156 2.326 . S
O168 C160 1.252 . S
In169 O170 2.294 . S
In169 O171 2.326 . S
In169 O175 2.266 . S
In169 O176 2.326 . S
In169 O177 2.266 . S
In169 O178 2.326 . S
In169 O180 2.294 . S
In169 O181 2.326 . S
O170 In169 2.294 . S
O170 C179 1.240 . S
O171 In169 2.326 . S
O171 C179 1.252 . S
C172 O175 1.252 . S
C172 O176 1.260 . S
C173 O180 1.240 . S
C173 O181 1.252 . S
C174 O177 1.252 . S
C174 O178 1.260 . S
O175 In169 2.266 . S
O175 C172 1.252 . S
O176 In169 2.326 . S
O176 C172 1.260 . S
O177 In169 2.266 . S
O177 C174 1.252 . S
O178 In169 2.326 . S
O178 C174 1.260 . S
C179 O170 1.240 . S
C179 O171 1.252 . S
O180 In169 2.294 . S
O180 C173 1.240 . S
O181 In169 2.326 . S
O181 C173 1.252 . S
In182 O183 2.294 . S
In182 O184 2.326 . S
In182 O188 2.266 . S
In182 O189 2.326 . S
In182 O190 2.266 . S
In182 O191 2.326 . S
In182 O193 2.294 . S
In182 O194 2.326 . S
O183 In182 2.294 . S
O183 C192 1.240 . S
O184 In182 2.326 . S
O184 C192 1.252 . S
C185 O188 1.252 . S
C185 O189 1.260 . S
C186 O193 1.240 . S
C186 O194 1.252 . S
C187 O190 1.252 . S
C187 O191 1.260 . S
O188 In182 2.266 . S
O188 C185 1.252 . S
O189 In182 2.326 . S
O189 C185 1.260 . S
O190 In182 2.266 . S
O190 C187 1.252 . S
O191 In182 2.326 . S
O191 C187 1.260 . S
C192 O183 1.240 . S
C192 O184 1.252 . S
O193 In182 2.294 . S
O193 C186 1.240 . S
O194 In182 2.326 . S
O194 C186 1.252 . S
In195 O196 2.294 . S
In195 O197 2.326 . S
In195 O201 2.266 . S
In195 O202 2.326 . S
In195 O203 2.266 . S
In195 O204 2.326 . S
In195 O206 2.294 . S
In195 O207 2.326 . S
O196 In195 2.294 . S
O196 C205 1.240 . S
O197 In195 2.326 . S
O197 C205 1.252 . S
C198 O201 1.252 . S
C198 O202 1.260 . S
C199 O206 1.240 . S
C199 O207 1.252 . S
C200 O203 1.252 . S
C200 O204 1.260 . S
O201 In195 2.266 . S
O201 C198 1.252 . S
O202 In195 2.326 . S
O202 C198 1.260 . S
O203 In195 2.266 . S
O203 C200 1.252 . S
O204 In195 2.326 . S
O204 C200 1.260 . S
C205 O196 1.240 . S
C205 O197 1.252 . S
O206 In195 2.294 . S
O206 C199 1.240 . S
O207 In195 2.326 . S
O207 C199 1.252 . S
C208 C209 1.170 . S
C208 C210 1.380 . S
C209 C208 1.170 . S
C210 C208 1.380 . S
C210 C211 1.170 . S
C211 C210 1.170 . S
C212 C213 1.170 . S
C212 C214 1.380 . S
C213 C212 1.170 . S
C214 C212 1.380 . S
C214 C215 1.170 . S
C215 C214 1.170 . S
C216 C217 1.170 . S
C216 C218 1.380 . S
C217 C216 1.170 . S
C218 C216 1.380 . S
C218 C219 1.170 . S
C219 C218 1.170 . S
C220 C221 1.170 . S
C220 C222 1.380 . S
C221 C220 1.170 . S
C222 C220 1.380 . S
C222 C223 1.170 . S
C223 C222 1.170 . S
C224 C225 1.170 . S
C224 C226 1.380 . S
C225 C224 1.170 . S
C226 C224 1.380 . S
C226 C227 1.170 . S
C227 C226 1.170 . S
C228 C229 1.170 . S
C228 C230 1.380 . S
C229 C228 1.170 . S
C230 C228 1.380 . S
C230 C231 1.170 . S
C231 C230 1.170 . S
C232 C233 1.170 . S
C232 C234 1.380 . S
C233 C232 1.170 . S
C234 C232 1.380 . S
C234 C235 1.170 . S
C235 C234 1.170 . S
C236 C237 1.170 . S
C236 C238 1.380 . S
C237 C236 1.170 . S
C238 C236 1.380 . S
C238 C239 1.170 . S
C239 C238 1.170 . S
C240 C241 1.170 . S
C240 C242 1.380 . S
C241 C240 1.170 . S
C242 C240 1.380 . S
C242 C243 1.170 . S
C243 C242 1.170 . S
C244 C245 1.170 . S
C244 C246 1.380 . S
C245 C244 1.170 . S
C246 C244 1.380 . S
C246 C247 1.170 . S
C247 C246 1.170 . S
C248 C249 1.170 . S
C248 C250 1.380 . S
C249 C248 1.170 . S
C250 C248 1.380 . S
C250 C251 1.170 . S
C251 C250 1.170 . S
C252 C253 1.170 . S
C252 C254 1.380 1_554 S
C253 C252 1.170 . S
C254 C252 1.380 1_556 S
C254 C255 1.170 . S
C255 C254 1.170 . S
C256 C257 1.170 . S
C256 C258 1.380 1_554 S
C257 C256 1.170 . S
C258 C256 1.380 1_556 S
C258 C259 1.170 . S
C259 C258 1.170 . S
C260 C261 1.170 . S
C260 C262 1.380 . S
C261 C260 1.170 . S
C262 C260 1.380 . S
C262 C263 1.170 . S
C263 C262 1.170 . S
C264 C265 1.170 . S
C264 C266 1.380 . S
C265 C264 1.170 . S
C266 C264 1.380 . S
C266 C267 1.170 . S
C267 C266 1.170 . S
C268 C269 1.170 . S
C268 C270 1.380 . S
C269 C268 1.170 . S
C270 C268 1.380 . S
C270 C271 1.170 . S
C271 C270 1.170 . S
C272 C273 1.170 . S
C272 C274 1.380 1_445 S
C273 C272 1.170 . S
C274 C272 1.380 1_665 S
C274 C275 1.170 . S
C275 C274 1.170 . S
C276 C277 1.170 . S
C276 C278 1.380 1_455 S
C277 C276 1.170 . S
C278 C276 1.380 1_655 S
C278 C279 1.170 . S
C279 C278 1.170 . S
C280 C281 1.170 . S
C280 C282 1.380 . S
C281 C280 1.170 . S
C282 C280 1.380 . S
C282 C283 1.170 . S
C283 C282 1.170 . S
C284 C285 1.170 . S
C284 C286 1.380 1_545 S
C285 C284 1.170 . S
C286 C284 1.380 1_565 S
C286 C287 1.170 . S
C287 C286 1.170 . S
C288 C289 1.170 . S
C288 C290 1.380 1_455 S
C289 C288 1.170 . S
C290 C288 1.380 1_655 S
C290 C291 1.170 . S
C291 C290 1.170 . S
C292 C293 1.170 . S
C292 C294 1.380 . S
C293 C292 1.170 . S
C294 C292 1.380 . S
C294 C295 1.170 . S
C295 C294 1.170 . S
C296 C297 1.170 . S
C296 C298 1.380 1_565 S
C297 C296 1.170 . S
C298 C296 1.380 1_545 S
C298 C299 1.170 . S
C299 C298 1.170 . S
C300 C301 1.170 . S
C300 C302 1.380 1_445 S
C301 C300 1.170 . S
C302 C300 1.380 1_665 S
C302 C303 1.170 . S
C303 C302 1.170 . S
C304 C305 1.170 . S
C304 C306 1.380 1_565 S
C305 C304 1.170 . S
C306 C304 1.380 1_545 S
C306 C307 1.170 . S
C307 C306 1.170 . S
C308 C309 1.170 . S
C308 C310 1.380 1_665 S
C309 C308 1.170 . S
C310 C308 1.380 1_445 S
C310 C311 1.170 . S
C311 C310 1.170 . S
C312 C313 1.170 . S
C312 C314 1.380 1_455 S
C313 C312 1.170 . S
C314 C312 1.380 1_655 S
C314 C315 1.170 . S
C315 C314 1.170 . S
C316 C317 1.170 . S
C316 C318 1.380 . S
C317 C316 1.170 . S
C318 C316 1.380 . S
C318 C319 1.170 . S
C319 C318 1.170 . S
C320 C321 1.170 . S
C320 C322 1.380 . S
C321 C320 1.170 . S
C322 C320 1.380 . S
C322 C323 1.170 . S
C323 C322 1.170 . S
C324 C325 1.170 . S
C324 C326 1.380 1_545 S
C325 C324 1.170 . S
C326 C324 1.380 1_565 S
C326 C327 1.170 . S
C327 C326 1.170 . S
C328 C329 1.170 . S
C328 C330 1.380 1_665 S
C329 C328 1.170 . S
C330 C328 1.380 1_445 S
C330 C331 1.170 . S
C331 C330 1.170 . S
C332 C333 1.170 . S
C332 C334 1.380 1_655 S
C333 C332 1.170 . S
C334 C332 1.380 1_455 S
C334 C335 1.170 . S
C335 C334 1.170 . S
C209 C62 1.559 . S
C211 C10 1.560 . S
C213 C17 1.554 . S
C215 C69 1.555 . S
C217 C88 1.556 . S
C219 C36 1.554 . S
C221 C101 1.560 . S
C223 C43 1.558 . S
C225 C160 1.558 . S
C227 C108 1.560 . S
C229 C127 1.554 . S
C231 C173 1.555 . S
C233 C192 1.556 . S
C235 C140 1.554 . S
C237 C147 1.554 . S
C239 C205 1.556 . S
C241 C3 1.526 . S
C243 C198 1.527 . S
C245 C18 1.526 . S
C247 C161 1.526 . S
C249 C29 1.532 . S
C251 C174 1.530 . S
C253 C185 1.531 . S
C255 C44 1.533 . S
C257 C55 1.526 . S
C259 C120 1.526 . S
C261 C70 1.534 . S
C263 C133 1.535 . S
C265 C148 1.527 . S
C267 C81 1.528 . S
C269 C109 1.528 . S
C271 C94 1.529 . S
C273 C4 1.573 . S
C275 C134 1.566 . S
C277 C153 1.566 . S
C279 C23 1.573 . S
C281 C30 1.563 . S
C283 C114 1.575 . S
C285 C121 1.569 . S
C287 C49 1.565 . S
C289 C56 1.563 . S
C291 C186 1.575 . S
C293 C75 1.569 . S
C295 C199 1.565 . S
C297 C166 1.566 . S
C299 C82 1.567 . S
C301 C179 1.573 . S
C303 C95 1.565 . S
C305 C135 1.456 . S
C307 C5 1.455 . S
C309 C16 1.457 . S
C311 C146 1.457 . S
C313 C31 1.455 . S
C315 C107 1.458 . S
C317 C122 1.454 . S
C319 C42 1.458 . S
C321 C187 1.455 . S
C323 C57 1.458 . S
C325 C200 1.455 . S
C327 C68 1.457 . S
C329 C159 1.458 . S
C331 C83 1.456 . S
C333 C96 1.458 . S
C335 C172 1.455 . S
