# Generated by pormake.
# Topology umk, (4)-cn, num edge types: 1
# Building blocks:
#     Node 0, Type 0, BuildingBlock: NAHDIM_clean_sbu_0, # of connection points: 4
#     Node 1, Type 0, BuildingBlock: NAHDIM_clean_sbu_0, # of connection points: 4
#     Node 2, Type 0, BuildingBlock: NAHDIM_clean_sbu_0, # of connection points: 4
#     Node 3, Type 0, BuildingBlock: NAHDIM_clean_sbu_0, # of connection points: 4
#     Node 4, Type 0, BuildingBlock: NAHDIM_clean_sbu_0, # of connection points: 4
#     Node 5, Type 0, BuildingBlock: NAHDIM_clean_sbu_0, # of connection points: 4
#     Node 6, Type 0, BuildingBlock: NAHDIM_clean_sbu_0, # of connection points: 4
#     Node 7, Type 0, BuildingBlock: NAHDIM_clean_sbu_0, # of connection points: 4
#     Node 8, Type 0, BuildingBlock: NAHDIM_clean_sbu_0, # of connection points: 4
#     Node 9, Type 0, BuildingBlock: NAHDIM_clean_sbu_0, # of connection points: 4
#     Node 10, Type 0, BuildingBlock: NAHDIM_clean_sbu_0, # of connection points: 4
#     Node 11, Type 0, BuildingBlock: NAHDIM_clean_sbu_0, # of connection points: 4
#     Node 12, Type 0, BuildingBlock: NAHDIM_clean_sbu_0, # of connection points: 4
#     Node 13, Type 0, BuildingBlock: NAHDIM_clean_sbu_0, # of connection points: 4
#     Node 14, Type 0, BuildingBlock: NAHDIM_clean_sbu_0, # of connection points: 4
#     Node 15, Type 0, BuildingBlock: NAHDIM_clean_sbu_0, # of connection points: 4
#     Node 16, Type 0, BuildingBlock: NAHDIM_clean_sbu_0, # of connection points: 4
#     Node 17, Type 0, BuildingBlock: NAHDIM_clean_sbu_0, # of connection points: 4
#     Node 18, Type 0, BuildingBlock: NAHDIM_clean_sbu_0, # of connection points: 4
#     Node 19, Type 0, BuildingBlock: NAHDIM_clean_sbu_0, # of connection points: 4
#     Node 20, Type 0, BuildingBlock: NAHDIM_clean_sbu_0, # of connection points: 4
#     Node 21, Type 0, BuildingBlock: NAHDIM_clean_sbu_0, # of connection points: 4
#     Node 22, Type 0, BuildingBlock: NAHDIM_clean_sbu_0, # of connection points: 4
#     Node 23, Type 0, BuildingBlock: NAHDIM_clean_sbu_0, # of connection points: 4
#     Edge 24, Type (0, 0), BuildingBlock: XUDNAN_clean_linker_2, # of connection points: 2
#     Edge 25, Type (0, 0), BuildingBlock: XUDNAN_clean_linker_2, # of connection points: 2
#     Edge 26, Type (0, 0), BuildingBlock: XUDNAN_clean_linker_2, # of connection points: 2
#     Edge 27, Type (0, 0), BuildingBlock: XUDNAN_clean_linker_2, # of connection points: 2
#     Edge 28, Type (0, 0), BuildingBlock: XUDNAN_clean_linker_2, # of connection points: 2
#     Edge 29, Type (0, 0), BuildingBlock: XUDNAN_clean_linker_2, # of connection points: 2
#     Edge 30, Type (0, 0), BuildingBlock: XUDNAN_clean_linker_2, # of connection points: 2
#     Edge 31, Type (0, 0), BuildingBlock: XUDNAN_clean_linker_2, # of connection points: 2
#     Edge 32, Type (0, 0), BuildingBlock: XUDNAN_clean_linker_2, # of connection points: 2
#     Edge 33, Type (0, 0), BuildingBlock: XUDNAN_clean_linker_2, # of connection points: 2
#     Edge 34, Type (0, 0), BuildingBlock: XUDNAN_clean_linker_2, # of connection points: 2
#     Edge 35, Type (0, 0), BuildingBlock: XUDNAN_clean_linker_2, # of connection points: 2
#     Edge 36, Type (0, 0), BuildingBlock: XUDNAN_clean_linker_2, # of connection points: 2
#     Edge 37, Type (0, 0), BuildingBlock: XUDNAN_clean_linker_2, # of connection points: 2
#     Edge 38, Type (0, 0), BuildingBlock: XUDNAN_clean_linker_2, # of connection points: 2
#     Edge 39, Type (0, 0), BuildingBlock: XUDNAN_clean_linker_2, # of connection points: 2
#     Edge 40, Type (0, 0), BuildingBlock: XUDNAN_clean_linker_2, # of connection points: 2
#     Edge 41, Type (0, 0), BuildingBlock: XUDNAN_clean_linker_2, # of connection points: 2
#     Edge 42, Type (0, 0), BuildingBlock: XUDNAN_clean_linker_2, # of connection points: 2
#     Edge 43, Type (0, 0), BuildingBlock: XUDNAN_clean_linker_2, # of connection points: 2
#     Edge 44, Type (0, 0), BuildingBlock: XUDNAN_clean_linker_2, # of connection points: 2
#     Edge 45, Type (0, 0), BuildingBlock: XUDNAN_clean_linker_2, # of connection points: 2
#     Edge 46, Type (0, 0), BuildingBlock: XUDNAN_clean_linker_2, # of connection points: 2
#     Edge 47, Type (0, 0), BuildingBlock: XUDNAN_clean_linker_2, # of connection points: 2
#     Edge 48, Type (0, 0), BuildingBlock: XUDNAN_clean_linker_2, # of connection points: 2
#     Edge 49, Type (0, 0), BuildingBlock: XUDNAN_clean_linker_2, # of connection points: 2
#     Edge 50, Type (0, 0), BuildingBlock: XUDNAN_clean_linker_2, # of connection points: 2
#     Edge 51, Type (0, 0), BuildingBlock: XUDNAN_clean_linker_2, # of connection points: 2
#     Edge 52, Type (0, 0), BuildingBlock: XUDNAN_clean_linker_2, # of connection points: 2
#     Edge 53, Type (0, 0), BuildingBlock: XUDNAN_clean_linker_2, # of connection points: 2
#     Edge 54, Type (0, 0), BuildingBlock: XUDNAN_clean_linker_2, # of connection points: 2
#     Edge 55, Type (0, 0), BuildingBlock: XUDNAN_clean_linker_2, # of connection points: 2
#     Edge 56, Type (0, 0), BuildingBlock: XUDNAN_clean_linker_2, # of connection points: 2
#     Edge 57, Type (0, 0), BuildingBlock: XUDNAN_clean_linker_2, # of connection points: 2
#     Edge 58, Type (0, 0), BuildingBlock: XUDNAN_clean_linker_2, # of connection points: 2
#     Edge 59, Type (0, 0), BuildingBlock: XUDNAN_clean_linker_2, # of connection points: 2
#     Edge 60, Type (0, 0), BuildingBlock: XUDNAN_clean_linker_2, # of connection points: 2
#     Edge 61, Type (0, 0), BuildingBlock: XUDNAN_clean_linker_2, # of connection points: 2
#     Edge 62, Type (0, 0), BuildingBlock: XUDNAN_clean_linker_2, # of connection points: 2
#     Edge 63, Type (0, 0), BuildingBlock: XUDNAN_clean_linker_2, # of connection points: 2
#     Edge 64, Type (0, 0), BuildingBlock: XUDNAN_clean_linker_2, # of connection points: 2
#     Edge 65, Type (0, 0), BuildingBlock: XUDNAN_clean_linker_2, # of connection points: 2
#     Edge 66, Type (0, 0), BuildingBlock: XUDNAN_clean_linker_2, # of connection points: 2
#     Edge 67, Type (0, 0), BuildingBlock: XUDNAN_clean_linker_2, # of connection points: 2
#     Edge 68, Type (0, 0), BuildingBlock: XUDNAN_clean_linker_2, # of connection points: 2
#     Edge 69, Type (0, 0), BuildingBlock: XUDNAN_clean_linker_2, # of connection points: 2
#     Edge 70, Type (0, 0), BuildingBlock: XUDNAN_clean_linker_2, # of connection points: 2
#     Edge 71, Type (0, 0), BuildingBlock: XUDNAN_clean_linker_2, # of connection points: 2
# Relax obj value: 0.112
# Max RMSD: 0.131
# Mean RMSD: 0.131
data_MOF--net-umk--node1-NAHDIM_clean_sbu_0--edge1-XUDNAN_clean_linker_2
_symmetry_space_group_name_H-M    P1
_symmetry_Int_Tables_number       1
_symmetry_cell_setting            triclinic
loop_
_symmetry_equiv_pos_as_xyz
'x, y, z'
_cell_length_a     66.724182
_cell_length_b     66.696024
_cell_length_c     42.016509
_cell_angle_alpha  90.001797
_cell_angle_beta   89.983964
_cell_angle_gamma 119.98091
loop_
_atom_site_label
_atom_site_type_symbol
_atom_site_fract_x
_atom_site_fract_y
_atom_site_fract_z
_atom_type_partial_charge
C0 C 0.30198 0.46473 0.04567 0.0
O1 O 0.31953 0.4855 0.05131 0.0
O2 O 0.33312 0.45765 0.11923 0.0
Zn3 Zn 0.33232 0.4501 0.07268 0.0
O4 O 0.361 0.47549 0.05175 0.0
C5 C 0.33383 0.40831 0.08891 0.0
O6 O 0.33356 0.41464 0.11844 0.0
O7 O 0.30368 0.44711 0.05268 0.0
C8 C 0.37951 0.47474 0.05544 0.0
O9 O 0.3789 0.45783 0.07223 0.0
C10 C 0.34228 0.47863 0.1281 0.0
O11 O 0.351 0.49511 0.10657 0.0
O12 O 0.33262 0.4203 0.06629 0.0
C13 C 0.81699 0.28473 0.55647 0.0
O14 O 0.81009 0.29975 0.56177 0.0
O15 O 0.85055 0.31969 0.63121 0.0
Zn16 Zn 0.85851 0.32034 0.58497 0.0
O17 O 0.85562 0.34532 0.56225 0.0
C18 C 0.90586 0.33707 0.60303 0.0
O19 O 0.89944 0.34367 0.62867 0.0
O20 O 0.83726 0.2897 0.56475 0.0
C21 C 0.86714 0.36629 0.57118 0.0
O22 O 0.88112 0.37163 0.59569 0.0
C23 C 0.83522 0.32407 0.64141 0.0
O24 O 0.82324 0.32879 0.62101 0.0
O25 O 0.89121 0.32667 0.58103 0.0
C26 C 0.56247 0.8436 0.05918 0.0
O27 O 0.58005 0.85966 0.07526 0.0
O28 O 0.52752 0.8653 0.11508 0.0
Zn29 Zn 0.54174 0.87234 0.07123 0.0
O30 O 0.52158 0.87816 0.04164 0.0
C31 C 0.58567 0.90835 0.09728 0.0
O32 O 0.58023 0.89441 0.12186 0.0
O33 O 0.54478 0.8457 0.05449 0.0
C34 C 0.49988 0.86905 0.04562 0.0
O35 O 0.48993 0.85475 0.06953 0.0
C36 C 0.52946 0.8516 0.13418 0.0
O37 O 0.54065 0.84106 0.12503 0.0
O38 O 0.57237 0.902 0.07318 0.0
C39 C 0.71639 0.56818 0.55882 0.0
O40 O 0.71692 0.5801 0.58403 0.0
O41 O 0.67072 0.54174 0.61561 0.0
Zn42 Zn 0.66784 0.5471 0.56932 0.0
O43 O 0.64092 0.51827 0.55181 0.0
C44 C 0.65712 0.58258 0.58676 0.0
O45 O 0.65843 0.57598 0.61576 0.0
O46 O 0.69695 0.55332 0.54734 0.0
C47 C 0.62204 0.50974 0.56724 0.0
O48 O 0.62122 0.52008 0.59343 0.0
C49 C 0.67456 0.52569 0.62412 0.0
O50 O 0.67708 0.51306 0.60223 0.0
O51 O 0.66131 0.57323 0.56327 0.0
C52 C 0.1725 0.7171 0.04739 0.0
O53 O 0.18086 0.70307 0.05041 0.0
O54 O 0.13818 0.6742 0.11506 0.0
Zn55 Zn 0.13176 0.67687 0.06886 0.0
O56 O 0.13867 0.65578 0.04277 0.0
C57 C 0.0847 0.66485 0.08494 0.0
O58 O 0.09285 0.67027 0.11405 0.0
O59 O 0.15139 0.70971 0.05408 0.0
C60 C 0.12792 0.63431 0.04929 0.0
O61 O 0.11289 0.6268 0.07277 0.0
C62 C 0.15437 0.67045 0.12324 0.0
O63 O 0.16721 0.6685 0.10114 0.0
O64 O 0.09824 0.66675 0.06241 0.0
C65 C 0.46112 0.17447 0.5459 0.0
O66 O 0.48349 0.18229 0.54735 0.0
O67 O 0.4706 0.14467 0.61972 0.0
Zn68 Zn 0.45899 0.13459 0.575 0.0
O69 O 0.48371 0.13583 0.5462 0.0
C70 C 0.4303 0.08741 0.59675 0.0
O71 O 0.44553 0.09403 0.61989 0.0
O72 O 0.44724 0.15451 0.55687 0.0
C73 C 0.47788 0.12898 0.51772 0.0
O74 O 0.45653 0.12197 0.50868 0.0
C75 C 0.48908 0.14584 0.62996 0.0
O76 O 0.50158 0.14112 0.6105 0.0
O77 O 0.43256 0.10185 0.57537 0.0
C78 C 0.53416 0.69607 0.96838 0.0
O79 O 0.51665 0.6882 0.9485 0.0
O80 O 0.52998 0.66272 0.89968 0.0
Zn81 Zn 0.53805 0.65781 0.94397 0.0
O82 O 0.51204 0.62809 0.96271 0.0
C83 C 0.58354 0.66607 0.92302 0.0
O84 O 0.58403 0.6822 0.90454 0.0
O85 O 0.54541 0.68542 0.97101 0.0
C86 C 0.51414 0.61013 0.96216 0.0
O87 O 0.53267 0.61144 0.94926 0.0
C88 C 0.52442 0.64706 0.87877 0.0
O89 O 0.52335 0.62752 0.88683 0.0
O90 O 0.56644 0.65483 0.94151 0.0
C91 C 0.83662 0.5448 0.46193 0.0
O92 O 0.82715 0.52834 0.44045 0.0
O93 O 0.86774 0.54052 0.39712 0.0
Zn94 Zn 0.87603 0.54225 0.4433 0.0
O95 O 0.86783 0.5104 0.45819 0.0
C96 C 0.92234 0.57902 0.42833 0.0
O97 O 0.91249 0.58073 0.40221 0.0
O98 O 0.85804 0.55368 0.46792 0.0
C99 C 0.87782 0.50747 0.48199 0.0
O100 O 0.89355 0.52566 0.49752 0.0
C101 C 0.8748 0.53115 0.37713 0.0
O102 O 0.88753 0.52244 0.38709 0.0
O103 O 0.91013 0.56406 0.4492 0.0
C104 C 0.29247 0.86243 0.95371 0.0
O105 O 0.29229 0.88085 0.94304 0.0
O106 O 0.33671 0.87041 0.88018 0.0
Zn107 Zn 0.33865 0.88213 0.92475 0.0
O108 O 0.3658 0.88216 0.94516 0.0
C109 C 0.33624 0.92303 0.90474 0.0
O110 O 0.32154 0.90922 0.88325 0.0
O111 O 0.31003 0.86019 0.94877 0.0
C112 C 0.38551 0.89396 0.93213 0.0
O113 O 0.38737 0.90601 0.90643 0.0
C114 C 0.31858 0.86166 0.86313 0.0
O115 O 0.29951 0.86019 0.87434 0.0
O116 O 0.34474 0.91496 0.92465 0.0
C117 C 0.43254 0.29109 0.44716 0.0
O118 O 0.41333 0.2911 0.44037 0.0
O119 O 0.4656 0.34705 0.3846 0.0
Zn120 Zn 0.4549 0.33977 0.43009 0.0
O121 O 0.478 0.36461 0.45871 0.0
C122 C 0.4118 0.3384 0.4133 0.0
O123 O 0.41682 0.33529 0.38415 0.0
O124 O 0.45185 0.30961 0.44391 0.0
C125 C 0.49951 0.37648 0.45282 0.0
O126 O 0.50767 0.37253 0.42656 0.0
C127 C 0.45985 0.3313 0.36377 0.0
O128 O 0.44679 0.30954 0.37215 0.0
O129 O 0.42506 0.33991 0.436 0.0
C130 C 0.17551 0.47717 0.94637 0.0
O131 O 0.18139 0.49907 0.94385 0.0
O132 O 0.14192 0.47139 0.8638 0.0
Zn133 Zn 0.13553 0.47009 0.91068 0.0
O134 O 0.14055 0.50099 0.92518 0.0
C135 C 0.08676 0.4452 0.90083 0.0
O136 O 0.09275 0.46028 0.87754 0.0
O137 O 0.15656 0.46179 0.93424 0.0
C138 C 0.13114 0.50249 0.95067 0.0
O139 O 0.11827 0.48366 0.96734 0.0
C140 C 0.16207 0.48375 0.85222 0.0
O141 O 0.17949 0.49615 0.87141 0.0
O142 O 0.10241 0.44583 0.91872 0.0
C143 C 0.69683 0.15295 0.43738 0.0
O144 O 0.69707 0.13558 0.42302 0.0
O145 O 0.65756 0.13987 0.36316 0.0
Zn146 Zn 0.65139 0.13262 0.40971 0.0
O147 O 0.62351 0.13458 0.42329 0.0
C148 C 0.65205 0.0902 0.39853 0.0
O149 O 0.66468 0.10165 0.37385 0.0
O150 O 0.67903 0.15513 0.43503 0.0
C151 C 0.60551 0.12572 0.40593 0.0
O152 O 0.60566 0.11579 0.37899 0.0
C153 C 0.65828 0.15734 0.34994 0.0
O154 O 0.65493 0.17182 0.36724 0.0
O155 O 0.64476 0.10009 0.41734 0.0
C156 C 0.69163 0.52649 0.94992 0.0
O157 O 0.67427 0.50512 0.9512 0.0
O158 O 0.66179 0.5294 0.86764 0.0
Zn159 Zn 0.65878 0.53328 0.91432 0.0
O160 O 0.63337 0.50331 0.9323 0.0
C161 C 0.66376 0.57797 0.90567 0.0
O162 O 0.68098 0.58062 0.88758 0.0
O163 O 0.68899 0.54176 0.93552 0.0
C164 C 0.61322 0.49936 0.93948 0.0
O165 O 0.60787 0.51563 0.93508 0.0
C166 C 0.6665 0.51441 0.857 0.0
O167 O 0.66923 0.50085 0.87708 0.0
O168 O 0.65171 0.55892 0.92026 0.0
C169 C 0.16037 0.70568 0.42856 0.0
O170 O 0.14454 0.70533 0.40959 0.0
O171 O 0.13942 0.65912 0.36771 0.0
Zn172 Zn 0.13518 0.65766 0.41507 0.0
O173 O 0.13617 0.63011 0.43236 0.0
C174 C 0.08977 0.65332 0.40684 0.0
O175 O 0.0954 0.65687 0.37657 0.0
O176 O 0.16002 0.68686 0.43462 0.0
C177 C 0.11873 0.61046 0.42621 0.0
O178 O 0.10206 0.60948 0.40844 0.0
C179 C 0.15616 0.65765 0.35592 0.0
O180 O 0.17031 0.65514 0.3751 0.0
O181 O 0.10419 0.6536 0.42681 0.0
C182 C 0.46325 0.15504 0.95253 0.0
O183 O 0.4445 0.1435 0.93522 0.0
O184 O 0.49167 0.13608 0.87959 0.0
Zn185 Zn 0.48028 0.12554 0.92429 0.0
O186 O 0.50274 0.11829 0.94601 0.0
C187 C 0.43301 0.09084 0.90409 0.0
O188 O 0.43492 0.10611 0.8828 0.0
O189 O 0.47941 0.15027 0.95054 0.0
C190 C 0.49612 0.10551 0.97062 0.0
O191 O 0.47481 0.0973 0.98082 0.0
C192 C 0.48538 0.14739 0.8619 0.0
O193 O 0.47089 0.15361 0.87303 0.0
O194 O 0.44949 0.09597 0.92349 0.0
C195 C 0.27171 0.44079 0.41093 0.0
O196 O 0.27551 0.43608 0.38194 0.0
O197 O 0.32597 0.46536 0.37206 0.0
Zn198 Zn 0.32074 0.45845 0.41885 0.0
O199 O 0.34304 0.48657 0.44376 0.0
C200 C 0.32418 0.41759 0.4085 0.0
O201 O 0.31827 0.41961 0.37936 0.0
O202 O 0.28843 0.45017 0.43049 0.0
C203 C 0.36385 0.49139 0.4478 0.0
O204 O 0.37066 0.47762 0.43566 0.0
C205 C 0.33375 0.48559 0.3608 0.0
O206 O 0.33862 0.50286 0.38024 0.0
O207 O 0.32588 0.43201 0.42959 0.0
C208 C 0.84278 0.28084 0.93212 0.0
O209 O 0.84898 0.28241 0.90213 0.0
O210 O 0.8607 0.32939 0.88315 0.0
Zn211 Zn 0.86987 0.33057 0.92895 0.0
O212 O 0.86436 0.3535 0.95278 0.0
C213 C 0.91744 0.35368 0.91015 0.0
O214 O 0.90895 0.35965 0.88612 0.0
O215 O 0.85021 0.2992 0.94854 0.0
C216 C 0.87141 0.37374 0.94199 0.0
O217 O 0.88232 0.37967 0.91457 0.0
C218 C 0.8426 0.32972 0.87464 0.0
O219 O 0.82912 0.33091 0.89643 0.0
O220 O 0.90378 0.3406 0.93172 0.0
C221 C 0.52223 0.83543 0.45315 0.0
O222 O 0.50092 0.83101 0.44864 0.0
O223 O 0.51796 0.86813 0.38249 0.0
Zn224 Zn 0.53165 0.87826 0.42614 0.0
O225 O 0.50969 0.88205 0.45492 0.0
C226 C 0.56647 0.92498 0.44177 0.0
O227 O 0.55394 0.92078 0.46766 0.0
O228 O 0.53893 0.85508 0.44516 0.0
C229 C 0.4882 0.87338 0.44956 0.0
O230 O 0.47915 0.86092 0.4238 0.0
C231 C 0.52473 0.85728 0.36467 0.0
O232 O 0.53985 0.8519 0.37578 0.0
O233 O 0.56066 0.90905 0.42121 0.0
C234 C 0.4662 0.28426 0.06808 0.0
O235 O 0.48243 0.29942 0.08691 0.0
O236 O 0.46066 0.32313 0.11895 0.0
Zn237 Zn 0.45443 0.31896 0.07171 0.0
O238 O 0.48208 0.34385 0.04834 0.0
C239 C 0.41225 0.31961 0.08367 0.0
O240 O 0.41538 0.31419 0.11257 0.0
O241 O 0.45065 0.28837 0.05807 0.0
C242 C 0.48335 0.36239 0.03812 0.0
O243 O 0.46585 0.36588 0.04268 0.0
C244 C 0.47168 0.3432 0.13126 0.0
O245 O 0.47949 0.36145 0.11275 0.0
O246 O 0.42623 0.32153 0.06172 0.0
C247 C 0.13536 0.43106 0.51362 0.0
O248 O 0.11575 0.42786 0.50178 0.0
O249 O 0.1309 0.45343 0.61264 0.0
Zn250 Zn 0.1186 0.44315 0.56844 0.0
O251 O 0.11378 0.467 0.5463 0.0
C252 C 0.07377 0.41464 0.59247 0.0
O253 O 0.0815 0.43224 0.6122 0.0
O254 O 0.14025 0.43728 0.54248 0.0
C255 C 0.12948 0.48763 0.54032 0.0
O256 O 0.15077 0.49484 0.54977 0.0
C257 C 0.15216 0.46527 0.62004 0.0
O258 O 0.16796 0.47184 0.59766 0.0
O259 O 0.08729 0.41465 0.57114 0.0
C260 C 0.71937 0.15352 0.05286 0.0
O261 O 0.72031 0.15926 0.08294 0.0
O262 O 0.67757 0.1275 0.11473 0.0
Zn263 Zn 0.67443 0.11484 0.07039 0.0
O264 O 0.64527 0.1118 0.05189 0.0
C265 C 0.67812 0.07604 0.09492 0.0
O266 O 0.69083 0.09073 0.11721 0.0
O267 O 0.70171 0.13537 0.04259 0.0
C268 C 0.6266 0.09832 0.06645 0.0
O269 O 0.62751 0.08732 0.09185 0.0
C270 C 0.67409 0.14427 0.12013 0.0
O271 O 0.66958 0.15404 0.09615 0.0
O272 O 0.67015 0.08287 0.07257 0.0
C273 C 0.51929 0.70172 0.55531 0.0
O274 O 0.49802 0.68684 0.56408 0.0
O275 O 0.52371 0.67009 0.6287 0.0
Zn276 Zn 0.52739 0.66709 0.58178 0.0
O277 O 0.49729 0.64169 0.56393 0.0
C278 C 0.56689 0.66075 0.59444 0.0
O279 O 0.56522 0.66684 0.62361 0.0
O280 O 0.53522 0.697 0.56053 0.0
C281 C 0.4948 0.62255 0.55411 0.0
O282 O 0.51236 0.61886 0.55573 0.0
C283 C 0.51571 0.6525 0.6468 0.0
O284 O 0.50971 0.63217 0.63445 0.0
O285 O 0.55298 0.66005 0.57322 0.0
C286 C 0.82627 0.533 0.05404 0.0
O287 O 0.8198 0.51324 0.06855 0.0
O288 O 0.86272 0.54029 0.12495 0.0
Zn289 Zn 0.86918 0.54141 0.07818 0.0
O290 O 0.86382 0.5103 0.06435 0.0
C291 C 0.91576 0.57968 0.08916 0.0
O292 O 0.908 0.57961 0.11792 0.0
O293 O 0.84746 0.54859 0.05468 0.0
C294 C 0.87075 0.50779 0.03728 0.0
O295 O 0.88134 0.5258 0.01833 0.0
C296 C 0.87049 0.53098 0.14394 0.0
O297 O 0.88274 0.52214 0.13251 0.0
O298 O 0.9022 0.56536 0.06858 0.0
C299 C 0.28809 0.83204 0.5459 0.0
O300 O 0.30063 0.82429 0.55948 0.0
O301 O 0.31608 0.86186 0.6217 0.0
Zn302 Zn 0.32139 0.87329 0.57644 0.0
O303 O 0.34927 0.87324 0.55817 0.0
C304 C 0.33599 0.91916 0.59952 0.0
O305 O 0.33944 0.91073 0.62589 0.0
O306 O 0.29362 0.85305 0.54988 0.0
C307 C 0.36889 0.88521 0.57139 0.0
O308 O 0.37049 0.8971 0.59711 0.0
C309 C 0.32407 0.84957 0.63295 0.0
O310 O 0.33546 0.84299 0.61419 0.0
O311 O 0.32763 0.90607 0.57539 0.0
H312 H 0.32784 0.44888 0.179 0.0
H313 H 0.3588 0.52163 0.15433 0.0
H314 H 0.36019 0.53143 0.21123 0.0
H315 H 0.2921 0.44911 0.24251 0.0
H316 H 0.29618 0.42923 0.26695 0.0
H317 H 0.29778 0.42798 0.22427 0.0
H318 H 0.33869 0.43277 0.2289 0.0
H319 H 0.33722 0.43403 0.2716 0.0
H320 H 0.36097 0.45717 0.2503 0.0
H321 H 0.35781 0.53325 0.27086 0.0
H322 H 0.35218 0.52692 0.3289 0.0
H323 H 0.32309 0.45304 0.31423 0.0
C324 C 0.33491 0.46688 0.18552 0.0
C325 C 0.34318 0.48449 0.16219 0.0
C326 C 0.35236 0.50783 0.17177 0.0
C327 C 0.35322 0.51359 0.20403 0.0
C328 C 0.3449 0.4958 0.2264 0.0
C329 C 0.33596 0.47294 0.21757 0.0
C330 C 0.32816 0.45711 0.24628 0.0
C331 C 0.302 0.43984 0.24491 0.0
C332 C 0.3421 0.44453 0.24945 0.0
C333 C 0.33403 0.47465 0.27261 0.0
C334 C 0.34366 0.49687 0.26069 0.0
C335 C 0.35032 0.51593 0.2805 0.0
C336 C 0.34703 0.51215 0.31341 0.0
C337 C 0.33721 0.48951 0.32611 0.0
C338 C 0.33068 0.47058 0.30531 0.0
H339 H 0.86076 0.32018 0.68934 0.0
H340 H 0.80189 0.32964 0.67179 0.0
H341 H 0.79678 0.33151 0.72983 0.0
H342 H 0.83811 0.28443 0.75917 0.0
H343 H 0.86582 0.29734 0.77879 0.0
H344 H 0.86432 0.29617 0.73598 0.0
H345 H 0.89147 0.34064 0.7333 0.0
H346 H 0.89303 0.34196 0.77608 0.0
H347 H 0.88377 0.3593 0.75459 0.0
H348 H 0.7985 0.33268 0.7901 0.0
H349 H 0.80728 0.33363 0.84746 0.0
H350 H 0.86535 0.32396 0.82448 0.0
C351 C 0.84668 0.3225 0.69762 0.0
C352 C 0.83166 0.32468 0.67604 0.0
C353 C 0.81358 0.3279 0.68791 0.0
C354 C 0.81054 0.32896 0.72081 0.0
C355 C 0.82574 0.32684 0.74142 0.0
C356 C 0.84347 0.3237 0.73024 0.0
C357 C 0.85777 0.32238 0.75719 0.0
C358 C 0.85641 0.29867 0.75781 0.0
C359 C 0.883 0.34225 0.75516 0.0
C360 C 0.84537 0.32531 0.78535 0.0
C361 C 0.82689 0.32777 0.77585 0.0
C362 C 0.81293 0.33075 0.79781 0.0
C363 C 0.81804 0.33126 0.83031 0.0
C364 C 0.837 0.32889 0.84046 0.0
C365 C 0.85075 0.32586 0.81754 0.0
H366 H 0.53801 0.83665 0.31957 0.0
H367 H 0.49656 0.86956 0.33296 0.0
H368 H 0.48933 0.86739 0.27513 0.0
H369 H 0.56607 0.86618 0.25196 0.0
H370 H 0.56645 0.8423 0.23246 0.0
H371 H 0.56542 0.84312 0.27516 0.0
H372 H 0.52821 0.80282 0.27553 0.0
H373 H 0.5292 0.80181 0.23271 0.0
H374 H 0.50356 0.79821 0.25227 0.0
H375 H 0.49118 0.86665 0.21559 0.0
H376 H 0.50102 0.86628 0.159 0.0
H377 H 0.54064 0.83322 0.18465 0.0
C378 C 0.52694 0.84289 0.31048 0.0
C379 C 0.51784 0.85326 0.3308 0.0
C380 C 0.50366 0.86147 0.31787 0.0
C381 C 0.49941 0.86027 0.28505 0.0
C382 C 0.50922 0.85056 0.26556 0.0
C383 C 0.52247 0.84177 0.27784 0.0
C384 C 0.53256 0.83393 0.25163 0.0
C385 C 0.55919 0.84718 0.25289 0.0
C386 C 0.52279 0.80763 0.25313 0.0
C387 C 0.52371 0.84057 0.22267 0.0
C388 C 0.51005 0.84988 0.23117 0.0
C389 C 0.50147 0.85897 0.2086 0.0
C390 C 0.50723 0.85877 0.17654 0.0
C391 C 0.52147 0.84959 0.16742 0.0
C392 C 0.5294 0.84 0.1908 0.0
H393 H 0.66277 0.54059 0.80981 0.0
H394 H 0.6761 0.48398 0.82589 0.0
H395 H 0.68037 0.48105 0.76789 0.0
H396 H 0.62926 0.51797 0.73903 0.0
H397 H 0.64078 0.54589 0.72026 0.0
H398 H 0.63914 0.54363 0.76299 0.0
H399 H 0.68309 0.57297 0.76691 0.0
H400 H 0.68488 0.57529 0.72418 0.0
H401 H 0.70325 0.56735 0.74567 0.0
H402 H 0.6827 0.48413 0.70787 0.0
H403 H 0.68265 0.49281 0.65068 0.0
H404 H 0.66793 0.54748 0.67479 0.0
C405 C 0.66661 0.52756 0.80122 0.0
C406 C 0.66909 0.5125 0.82238 0.0
C407 C 0.67412 0.49571 0.8101 0.0
C408 C 0.6766 0.49392 0.77722 0.0
C409 C 0.67403 0.50907 0.75704 0.0
C410 C 0.66915 0.52556 0.7686 0.0
C411 C 0.66703 0.53965 0.74198 0.0
C412 C 0.6426 0.53659 0.74102 0.0
C413 C 0.68568 0.56533 0.74486 0.0
C414 C 0.67138 0.52845 0.71357 0.0
C415 C 0.67542 0.51088 0.72268 0.0
C416 C 0.6796 0.49789 0.70046 0.0
C417 C 0.67954 0.50295 0.66805 0.0
C418 C 0.67531 0.52083 0.65827 0.0
C419 C 0.67129 0.53375 0.68146 0.0
H420 H 0.13071 0.66407 0.31002 0.0
H421 H 0.18966 0.65401 0.32304 0.0
H422 H 0.19564 0.65619 0.26486 0.0
H423 H 0.10912 0.63026 0.23865 0.0
H424 H 0.10044 0.64933 0.22085 0.0
H425 H 0.10081 0.64693 0.26352 0.0
H426 H 0.12793 0.69132 0.26789 0.0
H427 H 0.12766 0.69386 0.22525 0.0
H428 H 0.15478 0.70499 0.24605 0.0
H429 H 0.19515 0.65943 0.20528 0.0
H430 H 0.18831 0.66364 0.14856 0.0
H431 H 0.12979 0.67177 0.17478 0.0
C432 C 0.14487 0.6623 0.30068 0.0
C433 C 0.15972 0.65886 0.32109 0.0
C434 C 0.17807 0.65666 0.30788 0.0
C435 C 0.1816 0.65787 0.27487 0.0
C436 C 0.16666 0.6613 0.25545 0.0
C437 C 0.14867 0.66349 0.26785 0.0
C438 C 0.13513 0.66714 0.24184 0.0
C439 C 0.10988 0.64723 0.24118 0.0
C440 C 0.13647 0.69073 0.24548 0.0
C441 C 0.14832 0.66666 0.21283 0.0
C442 C 0.16643 0.66326 0.22118 0.0
C443 C 0.18103 0.66212 0.19844 0.0
C444 C 0.177 0.66453 0.16629 0.0
C445 C 0.15853 0.66806 0.15722 0.0
C446 C 0.14407 0.66914 0.18091 0.0
H447 H 0.46406 0.1561 0.81251 0.0
H448 H 0.52225 0.1466 0.83496 0.0
H449 H 0.53199 0.14932 0.77783 0.0
H450 H 0.44628 0.12068 0.74565 0.0
H451 H 0.43744 0.13786 0.72294 0.0
H452 H 0.43699 0.13853 0.76571 0.0
H453 H 0.46343 0.18314 0.76486 0.0
H454 H 0.4639 0.18262 0.72198 0.0
H455 H 0.49067 0.19579 0.74398 0.0
H456 H 0.53337 0.14963 0.71823 0.0
H457 H 0.52557 0.14626 0.66048 0.0
H458 H 0.46583 0.15452 0.67689 0.0
C459 C 0.4792 0.15519 0.80547 0.0
C460 C 0.49254 0.15136 0.82815 0.0
C461 C 0.51186 0.14963 0.81795 0.0
C462 C 0.51758 0.15124 0.78558 0.0
C463 C 0.50377 0.15453 0.76373 0.0
C464 C 0.48498 0.15649 0.77323 0.0
C465 C 0.47172 0.15783 0.74484 0.0
C466 C 0.44663 0.13751 0.7448 0.0
C467 C 0.47249 0.18124 0.74386 0.0
C468 C 0.48566 0.15575 0.71792 0.0
C469 C 0.50427 0.15421 0.7293 0.0
C470 C 0.519 0.15107 0.709 0.0
C471 C 0.5144 0.14915 0.67623 0.0
C472 C 0.49511 0.15015 0.66412 0.0
C473 C 0.48081 0.15385 0.68533 0.0
H474 H 0.50737 0.62033 0.69311 0.0
H475 H 0.52261 0.69109 0.67913 0.0
H476 H 0.52359 0.69647 0.73736 0.0
H477 H 0.47125 0.60818 0.7645 0.0
H478 H 0.48248 0.59134 0.78271 0.0
H479 H 0.48084 0.59241 0.73998 0.0
H480 H 0.52467 0.60646 0.73587 0.0
H481 H 0.52645 0.60549 0.77851 0.0
H482 H 0.54505 0.63196 0.75744 0.0
H483 H 0.52532 0.69492 0.79693 0.0
H484 H 0.52851 0.68682 0.85346 0.0
H485 H 0.51268 0.61726 0.82831 0.0
C486 C 0.51054 0.63684 0.70226 0.0
C487 C 0.51481 0.65526 0.68158 0.0
C488 C 0.51924 0.67671 0.69453 0.0
C489 C 0.51977 0.67992 0.72756 0.0
C490 C 0.5158 0.66151 0.74729 0.0
C491 C 0.51124 0.64038 0.73513 0.0
C492 C 0.50896 0.62385 0.76142 0.0
C493 C 0.48442 0.60269 0.76219 0.0
C494 C 0.52739 0.61652 0.7581 0.0
C495 C 0.51344 0.63915 0.79022 0.0
C496 C 0.51708 0.66071 0.7816 0.0
C497 C 0.52231 0.67804 0.804 0.0
C498 C 0.5241 0.67327 0.83605 0.0
C499 C 0.52083 0.6514 0.84532 0.0
C500 C 0.51518 0.6341 0.82204 0.0
H501 H 0.89076 0.51638 0.32738 0.0
H502 H 0.84757 0.54623 0.34949 0.0
H503 H 0.84041 0.54785 0.2922 0.0
H504 H 0.91748 0.55057 0.25914 0.0
H505 H 0.91815 0.52771 0.23713 0.0
H506 H 0.9188 0.52762 0.27996 0.0
H507 H 0.88274 0.48648 0.28065 0.0
H508 H 0.882 0.48642 0.23778 0.0
H509 H 0.85683 0.48128 0.2602 0.0
H510 H 0.83936 0.54787 0.23262 0.0
H511 H 0.84444 0.54623 0.17469 0.0
H512 H 0.88828 0.51633 0.19151 0.0
C513 C 0.87961 0.52304 0.32023 0.0
C514 C 0.86969 0.53114 0.34292 0.0
C515 C 0.85535 0.53991 0.33253 0.0
C516 C 0.85114 0.54087 0.30005 0.0
C517 C 0.86136 0.53295 0.2783 0.0
C518 C 0.87525 0.52416 0.28792 0.0
C519 C 0.88477 0.51751 0.25966 0.0
C520 C 0.91137 0.5317 0.25894 0.0
C521 C 0.87606 0.49137 0.25958 0.0
C522 C 0.87428 0.5242 0.23265 0.0
C523 C 0.86076 0.53297 0.24392 0.0
C524 C 0.84978 0.5409 0.22349 0.0
C525 C 0.85281 0.53992 0.19063 0.0
C526 C 0.86672 0.53111 0.17857 0.0
C527 C 0.87743 0.52303 0.19996 0.0
H528 H 0.29732 0.85569 0.67692 0.0
H529 H 0.34854 0.83408 0.66713 0.0
H530 H 0.35002 0.83131 0.72557 0.0
H531 H 0.32164 0.89136 0.74207 0.0
H532 H 0.29475 0.88395 0.76156 0.0
H533 H 0.29561 0.88159 0.71901 0.0
H534 H 0.26344 0.83849 0.72189 0.0
H535 H 0.26235 0.84075 0.76453 0.0
H536 H 0.26731 0.81887 0.74723 0.0
H537 H 0.35009 0.83637 0.78456 0.0
H538 H 0.3464 0.84589 0.84032 0.0
H539 H 0.29358 0.86207 0.81192 0.0
C540 C 0.3085 0.84991 0.68704 0.0
C541 C 0.32283 0.84511 0.66751 0.0
C542 C 0.33732 0.83772 0.68163 0.0
C543 C 0.33829 0.83611 0.7148 0.0
C544 C 0.32438 0.84155 0.7334 0.0
C545 C 0.30947 0.84794 0.72004 0.0
C546 C 0.29724 0.85402 0.74534 0.0
C547 C 0.30265 0.87922 0.74178 0.0
C548 C 0.27103 0.83701 0.74471 0.0
C549 C 0.30821 0.85087 0.77501 0.0
C550 C 0.32378 0.84362 0.76761 0.0
C551 C 0.33757 0.84153 0.79075 0.0
C552 C 0.33545 0.84708 0.82227 0.0
C553 C 0.3195 0.8544 0.83033 0.0
C554 C 0.3055 0.85597 0.80646 0.0
H555 H 0.44664 0.30223 0.3122 0.0
H556 H 0.48764 0.3746 0.33909 0.0
H557 H 0.49681 0.38531 0.28256 0.0
H558 H 0.48344 0.30414 0.24643 0.0
H559 H 0.45921 0.2845 0.22222 0.0
H560 H 0.45712 0.28238 0.26498 0.0
H561 H 0.4205 0.28649 0.26307 0.0
H562 H 0.42251 0.28867 0.22036 0.0
H563 H 0.42185 0.31115 0.24336 0.0
H564 H 0.49969 0.38838 0.22303 0.0
H565 H 0.49627 0.38354 0.16468 0.0
H566 H 0.45345 0.30917 0.17677 0.0
C567 C 0.45779 0.32031 0.30628 0.0
C568 C 0.46646 0.33757 0.33009 0.0
C569 C 0.48081 0.36106 0.32127 0.0
C570 C 0.48615 0.36732 0.28922 0.0
C571 C 0.47707 0.3499 0.26632 0.0
C572 C 0.46326 0.32687 0.27443 0.0
C573 C 0.45495 0.31162 0.24515 0.0
C574 C 0.46424 0.29466 0.24468 0.0
C575 C 0.42838 0.29873 0.24286 0.0
C576 C 0.46597 0.32971 0.21929 0.0
C577 C 0.47875 0.35167 0.232 0.0
C578 C 0.48989 0.37126 0.21278 0.0
C579 C 0.4878 0.36833 0.17967 0.0
C580 C 0.47466 0.34598 0.16614 0.0
C581 C 0.46378 0.32646 0.18634 0.0
H582 H 0.12349 0.45129 0.67175 0.0
H583 H 0.19577 0.49253 0.64469 0.0
H584 H 0.20642 0.50204 0.70135 0.0
H585 H 0.12446 0.48821 0.73437 0.0
H586 H 0.10489 0.46451 0.75943 0.0
H587 H 0.10316 0.4612 0.71682 0.0
H588 H 0.10808 0.42515 0.72188 0.0
H589 H 0.10983 0.42835 0.7645 0.0
H590 H 0.13274 0.42753 0.74286 0.0
H591 H 0.20892 0.50699 0.76136 0.0
H592 H 0.20313 0.50661 0.81954 0.0
H593 H 0.12919 0.46172 0.80625 0.0
C594 C 0.14159 0.46238 0.67763 0.0
C595 C 0.15881 0.47121 0.65377 0.0
C596 C 0.18228 0.48556 0.66258 0.0
C597 C 0.18849 0.49107 0.69467 0.0
C598 C 0.17102 0.48202 0.71757 0.0
C599 C 0.14806 0.46795 0.7094 0.0
C600 C 0.13257 0.46023 0.7384 0.0
C601 C 0.11526 0.46908 0.73717 0.0
C602 C 0.12008 0.43375 0.74212 0.0
C603 C 0.15038 0.47219 0.76427 0.0
C604 C 0.17247 0.4847 0.75186 0.0
C605 C 0.1917 0.49723 0.77132 0.0
C606 C 0.18824 0.49692 0.80433 0.0
C607 C 0.16572 0.48412 0.81746 0.0
C608 C 0.14663 0.47164 0.79702 0.0
H609 H 0.66726 0.13119 0.30849 0.0
H610 H 0.65781 0.191 0.31282 0.0
H611 H 0.66281 0.19548 0.25444 0.0
H612 H 0.7108 0.15288 0.24601 0.0
H613 H 0.69963 0.1248 0.22787 0.0
H614 H 0.69642 0.12709 0.27007 0.0
H615 H 0.65206 0.10021 0.26492 0.0
H616 H 0.65512 0.09783 0.22275 0.0
H617 H 0.6361 0.10767 0.23737 0.0
H618 H 0.66684 0.19205 0.19514 0.0
H619 H 0.6698 0.18114 0.13984 0.0
H620 H 0.67704 0.1239 0.17514 0.0
C621 C 0.66641 0.14537 0.29727 0.0
C622 C 0.66215 0.16076 0.31523 0.0
C623 C 0.66111 0.17902 0.29955 0.0
C624 C 0.66394 0.18172 0.26642 0.0
C625 C 0.66794 0.1661 0.24942 0.0
C626 C 0.66926 0.14834 0.26436 0.0
C627 C 0.67304 0.13346 0.24069 0.0
C628 C 0.69636 0.13464 0.24651 0.0
C629 C 0.65287 0.10831 0.24149 0.0
C630 C 0.6733 0.1454 0.20998 0.0
C631 C 0.67043 0.16424 0.21547 0.0
C632 C 0.66929 0.17744 0.19058 0.0
C633 C 0.67096 0.1711 0.15926 0.0
C634 C 0.67374 0.15173 0.15316 0.0
C635 C 0.67514 0.13892 0.17898 0.0
H636 H 0.21857 0.50593 0.9712 0.0
H637 H 0.16787 0.43337 0.95684 0.0
H638 H 0.19448 0.4223 0.98161 0.0
H639 H 0.2683 0.50134 0.95334 0.0
H640 H 0.28631 0.52198 0.98309 0.0
H641 H 0.26296 0.52422 0.9653 0.0
H642 H 0.24588 0.52281 0.02122 0.0
H643 H 0.26922 0.52064 0.0392 0.0
H644 H 0.23966 0.49905 0.04754 0.0
H645 H 0.22686 0.41913 0.00672 0.0
H646 H 0.2628 0.42408 0.03071 0.0
H647 H 0.29239 0.49872 0.0284 0.0
C648 C 0.21298 0.4877 0.97342 0.0
C649 C 0.19113 0.47051 0.96211 0.0
C650 C 0.18453 0.44685 0.96535 0.0
C651 C 0.19951 0.44038 0.97939 0.0
C652 C 0.22098 0.45777 0.99007 0.0
C653 C 0.22771 0.48093 0.98732 0.0
C654 C 0.25189 0.49621 0.00019 0.0
C655 C 0.26833 0.51186 0.97391 0.0
C656 C 0.25164 0.51051 0.02873 0.0
C657 C 0.25778 0.478 0.0104 0.0
C658 C 0.23969 0.45595 0.00445 0.0
C659 C 0.24113 0.43632 0.01158 0.0
C660 C 0.26163 0.43932 0.02517 0.0
C661 C 0.28042 0.46179 0.03143 0.0
C662 C 0.27835 0.48132 0.02393 0.0
H663 H 0.7028 0.19225 0.46667 0.0
H664 H 0.73681 0.15221 0.44944 0.0
H665 H 0.77094 0.18104 0.47947 0.0
H666 H 0.75287 0.2478 0.45758 0.0
H667 H 0.74478 0.26113 0.48849 0.0
H668 H 0.72276 0.23691 0.46663 0.0
H669 H 0.70581 0.21475 0.51948 0.0
H670 H 0.72779 0.23892 0.54152 0.0
H671 H 0.72434 0.21052 0.54655 0.0
H672 H 0.8016 0.21464 0.51052 0.0
H673 H 0.82681 0.25086 0.53958 0.0
H674 H 0.7726 0.26881 0.53597 0.0
C675 C 0.71736 0.18944 0.46932 0.0
C676 C 0.71713 0.16995 0.45575 0.0
C677 C 0.7366 0.16701 0.45964 0.0
C678 C 0.75604 0.18326 0.4767 0.0
C679 C 0.75571 0.20231 0.48967 0.0
C680 C 0.73688 0.20547 0.48616 0.0
C681 C 0.74107 0.22768 0.50179 0.0
C682 C 0.74033 0.24436 0.47714 0.0
C683 C 0.72372 0.22266 0.52895 0.0
C684 C 0.76528 0.23662 0.51445 0.0
C685 C 0.77339 0.2217 0.50735 0.0
C686 C 0.79543 0.22643 0.51629 0.0
C687 C 0.8096 0.24704 0.53279 0.0
C688 C 0.80168 0.26267 0.54005 0.0
C689 C 0.77917 0.25723 0.53083 0.0
H690 H 0.53066 0.80917 0.02083 0.0
H691 H 0.59434 0.83041 0.07305 0.0
H692 H 0.59361 0.79454 0.05636 0.0
H693 H 0.50353 0.74867 0.03852 0.0
H694 H 0.49065 0.73962 -0.00033 0.0
H695 H 0.49621 0.76698 0.01566 0.0
H696 H 0.52046 0.78807 0.96574 0.0
H697 H 0.51488 0.76076 0.94952 0.0
H698 H 0.54425 0.78402 0.95434 0.0
H699 H 0.58556 0.75609 0.03467 0.0
H700 H 0.57185 0.71869 0.00743 0.0
H701 H 0.51372 0.72298 0.96884 0.0
C702 C 0.54449 0.80632 0.02875 0.0
C703 C 0.56254 0.82257 0.0483 0.0
C704 C 0.58035 0.81823 0.05802 0.0
C705 C 0.58005 0.79788 0.04874 0.0
C706 C 0.5619 0.78215 0.02966 0.0
C707 C 0.54453 0.7862 0.0196 0.0
C708 C 0.52715 0.76669 0.99884 0.0
C709 C 0.50296 0.75479 0.0141 0.0
C710 C 0.52667 0.77541 0.96511 0.0
C711 C 0.53743 0.75096 0.99886 0.0
C712 C 0.55741 0.76015 0.01687 0.0
C713 C 0.56996 0.74874 0.02045 0.0
C714 C 0.56199 0.72748 0.00493 0.0
C715 C 0.54171 0.7179 0.98597 0.0
C716 C 0.52926 0.72982 0.98314 0.0
H717 H 0.72058 0.54314 0.51034 0.0
H718 H 0.76087 0.59766 0.57839 0.0
H719 H 0.7965 0.59884 0.5594 0.0
H720 H 0.7507 0.5129 0.51953 0.0
H721 H 0.74903 0.50499 0.47819 0.0
H722 H 0.72702 0.50976 0.49527 0.0
H723 H 0.73462 0.54048 0.45202 0.0
H724 H 0.75657 0.5357 0.43464 0.0
H725 H 0.76353 0.56446 0.44643 0.0
H726 H 0.82733 0.5923 0.5352 0.0
H727 H 0.85111 0.57913 0.50684 0.0
H728 H 0.79028 0.52881 0.45506 0.0
C729 C 0.73692 0.55559 0.52097 0.0
C730 C 0.73796 0.57035 0.5458 0.0
C731 C 0.75967 0.58622 0.55927 0.0
C732 C 0.77999 0.58703 0.54865 0.0
C733 C 0.77827 0.57191 0.52451 0.0
C734 C 0.7573 0.55659 0.51073 0.0
C735 C 0.75995 0.54152 0.48613 0.0
C736 C 0.74584 0.51577 0.49535 0.0
C737 C 0.75328 0.54581 0.45283 0.0
C738 C 0.78565 0.5505 0.48856 0.0
C739 C 0.79596 0.5681 0.51069 0.0
C740 C 0.81948 0.57865 0.51763 0.0
C741 C 0.83283 0.57101 0.50146 0.0
C742 C 0.82256 0.55295 0.47872 0.0
C743 C 0.79868 0.54269 0.47222 0.0
H744 H 0.2877 0.82208 0.97704 0.0
H745 H 0.25095 0.86011 0.96671 0.0
H746 H 0.21638 0.82756 0.99166 0.0
H747 H 0.24084 0.76709 0.95781 0.0
H748 H 0.24857 0.75174 0.98604 0.0
H749 H 0.27066 0.77856 0.96918 0.0
H750 H 0.28387 0.79554 0.0258 0.0
H751 H 0.26185 0.76873 0.04287 0.0
H752 H 0.26307 0.79555 0.05319 0.0
H753 H 0.18531 0.78986 0.01577 0.0
H754 H 0.16046 0.75039 0.03703 0.0
H755 H 0.21816 0.73772 0.0309 0.0
C756 C 0.27249 0.82374 0.98024 0.0
C757 C 0.27203 0.84367 0.96996 0.0
C758 C 0.2517 0.84502 0.97447 0.0
C759 C 0.232 0.82663 0.98862 0.0
C760 C 0.23301 0.80713 0.99816 0.0
C761 C 0.25278 0.80564 0.99421 0.0
C762 C 0.24931 0.7826 0.00548 0.0
C763 C 0.25253 0.76921 0.97798 0.0
C764 C 0.26548 0.7858 0.03351 0.0
C765 C 0.22437 0.77116 0.01606 0.0
C766 C 0.21525 0.78557 0.01184 0.0
C767 C 0.19231 0.77848 0.01933 0.0
C768 C 0.17834 0.75603 0.03136 0.0
C769 C 0.18737 0.74097 0.03564 0.0
C770 C 0.21073 0.7488 0.028 0.0
H771 H 0.48604 0.2185 0.52209 0.0
H772 H 0.41578 0.16199 0.53594 0.0
H773 H 0.40073 0.18519 0.51059 0.0
H774 H 0.4744 0.26422 0.53891 0.0
H775 H 0.49424 0.28348 0.50931 0.0
H776 H 0.49941 0.26215 0.52787 0.0
H777 H 0.5008 0.24592 0.47235 0.0
H778 H 0.49556 0.26716 0.45362 0.0
H779 H 0.47671 0.23682 0.44551 0.0
H780 H 0.39334 0.21479 0.4842 0.0
H781 H 0.39424 0.24903 0.46007 0.0
H782 H 0.46934 0.28592 0.46384 0.0
C783 C 0.46748 0.21096 0.51976 0.0
C784 C 0.45209 0.18843 0.53098 0.0
C785 C 0.42792 0.17924 0.52755 0.0
C786 C 0.41919 0.19225 0.51311 0.0
C787 C 0.43486 0.21439 0.50227 0.0
C788 C 0.45848 0.2237 0.50549 0.0
C789 C 0.4716 0.24806 0.4924 0.0
C790 C 0.48574 0.2655 0.5187 0.0
C791 C 0.48708 0.24957 0.4643 0.0
C792 C 0.45166 0.25105 0.48148 0.0
C793 C 0.4306 0.23142 0.48723 0.0
C794 C 0.40973 0.23025 0.47951 0.0
C795 C 0.41042 0.24976 0.4658 0.0
C796 C 0.43184 0.27014 0.46007 0.0
C797 C 0.45267 0.27061 0.46784 0.0
H798 H 0.78035 0.50199 0.04492 0.0
H799 H 0.83339 0.57292 0.02514 0.0
H800 H 0.80452 0.57931 0.99708 0.0
H801 H 0.75119 0.49138 0.9702 0.0
H802 H 0.72277 0.47388 0.98709 0.0
H803 H 0.74754 0.47514 0.00616 0.0
H804 H 0.73715 0.48819 0.05875 0.0
H805 H 0.71235 0.48699 0.03983 0.0
H806 H 0.73372 0.51335 0.05873 0.0
H807 H 0.76978 0.57781 0.97098 0.0
H808 H 0.73199 0.56827 0.94785 0.0
H809 H 0.70214 0.49823 0.98452 0.0
C810 C 0.78593 0.51891 0.03479 0.0
C811 C 0.80911 0.53697 0.03727 0.0
C812 C 0.8157 0.55881 0.02353 0.0
C813 C 0.79944 0.56263 0.00759 0.0
C814 C 0.77672 0.54441 0.00558 0.0
C815 C 0.76998 0.52298 0.01875 0.0
C816 C 0.74461 0.50617 0.01288 0.0
C817 C 0.74135 0.48542 0.99289 0.0
C818 C 0.73117 0.49822 0.04443 0.0
C819 C 0.73811 0.52148 0.99426 0.0
C820 C 0.75682 0.54349 0.99038 0.0
C821 C 0.755 0.56063 0.97387 0.0
C822 C 0.73347 0.55504 0.96085 0.0
C823 C 0.71412 0.5325 0.96436 0.0
C824 C 0.71658 0.51561 0.98139 0.0
H825 H 0.19618 0.71229 0.46725 0.0
H826 H 0.16469 0.74859 0.42273 0.0
H827 H 0.1941 0.78506 0.44775 0.0
H828 H 0.21014 0.74275 0.54126 0.0
H829 H 0.23722 0.74318 0.5458 0.0
H830 H 0.21385 0.72005 0.52406 0.0
H831 H 0.24064 0.72908 0.47503 0.0
H832 H 0.2641 0.75223 0.49664 0.0
H833 H 0.25527 0.75797 0.45878 0.0
H834 H 0.2266 0.8174 0.47835 0.0
H835 H 0.26022 0.84337 0.51157 0.0
H836 H 0.27035 0.78569 0.53549 0.0
C837 C 0.19545 0.72789 0.46268 0.0
C838 C 0.17812 0.7276 0.44306 0.0
C839 C 0.17782 0.74841 0.43768 0.0
C840 C 0.19443 0.7692 0.45179 0.0
C841 C 0.21121 0.76885 0.4711 0.0
C842 C 0.21188 0.74875 0.47648 0.0
C843 C 0.23167 0.75298 0.49824 0.0
C844 C 0.22267 0.73891 0.52917 0.0
C845 C 0.24894 0.74776 0.48114 0.0
C846 C 0.24202 0.77862 0.50436 0.0
C847 C 0.22997 0.78745 0.48853 0.0
C848 C 0.23621 0.81069 0.49081 0.0
C849 C 0.2553 0.82529 0.50975 0.0
C850 C 0.26792 0.81657 0.52609 0.0
C851 C 0.26111 0.79291 0.52325 0.0
H852 H 0.43732 0.1767 0.95511 0.0
H853 H 0.49498 0.17485 9e-05 0.0
H854 H 0.5001 0.20589 0.03668 0.0
H855 H 0.46239 0.23781 0.95727 0.0
H856 H 0.43565 0.23738 0.96535 0.0
H857 H 0.43529 0.21379 0.94402 0.0
H858 H 0.40683 0.1848 0.98553 0.0
H859 H 0.40713 0.20833 0.00703 0.0
H860 H 0.41446 0.18898 0.02713 0.0
H861 H 0.50023 0.23793 0.06684 0.0
H862 H 0.49622 0.27025 0.08772 0.0
H863 H 0.43883 0.25211 0.02311 0.0
C864 C 0.45085 0.18266 0.97289 0.0
C865 C 0.46571 0.1733 0.97478 0.0
C866 C 0.48341 0.18178 0.99811 0.0
C867 C 0.48641 0.19935 0.01913 0.0
C868 C 0.47161 0.20831 0.01651 0.0
C869 C 0.45421 0.20036 0.99397 0.0
C870 C 0.44151 0.21388 0.99527 0.0
C871 C 0.44386 0.22646 0.9636 0.0
C872 C 0.41597 0.19805 0.00429 0.0
C873 C 0.45471 0.23083 0.02176 0.0
C874 C 0.47185 0.22713 0.03383 0.0
C875 C 0.4868 0.24096 0.05774 0.0
C876 C 0.48438 0.2593 0.06942 0.0
C877 C 0.46721 0.26372 0.05709 0.0
C878 C 0.45202 0.24907 0.03319 0.0
H879 H 0.17882 0.44026 0.52983 0.0
H880 H 0.1301 0.41725 0.4512 0.0
H881 H 0.15917 0.41552 0.4166 0.0
H882 H 0.22843 0.47707 0.48487 0.0
H883 H 0.24754 0.47047 0.50704 0.0
H884 H 0.22238 0.46838 0.526 0.0
H885 H 0.20847 0.42576 0.54135 0.0
H886 H 0.23364 0.42772 0.52249 0.0
H887 H 0.20514 0.40535 0.51076 0.0
H888 H 0.19433 0.41789 0.39009 0.0
H889 H 0.23279 0.4245 0.37381 0.0
H890 H 0.25806 0.44631 0.47004 0.0
C891 C 0.17412 0.43459 0.50544 0.0
C892 C 0.15217 0.42881 0.49324 0.0
C893 C 0.14681 0.4217 0.46109 0.0
C894 C 0.16319 0.42065 0.44126 0.0
C895 C 0.18477 0.42671 0.454 0.0
C896 C 0.19022 0.43351 0.48537 0.0
C897 C 0.21487 0.43999 0.49302 0.0
C898 C 0.22914 0.46549 0.50333 0.0
C899 C 0.21556 0.42373 0.5184 0.0
C900 C 0.22257 0.43607 0.46093 0.0
C901 C 0.20496 0.42826 0.43876 0.0
C902 C 0.20822 0.42388 0.4073 0.0
C903 C 0.23011 0.42769 0.39829 0.0
C904 C 0.24842 0.43592 0.42064 0.0
C905 C 0.24443 0.43999 0.45237 0.0
H906 H 0.82666 0.27177 0.99343 0.0
H907 H 0.81999 0.23889 0.9018 0.0
H908 H 0.78912 0.20189 0.92372 0.0
H909 H 0.81579 0.22178 0.0426 0.0
H910 H 0.79981 0.22784 0.07194 0.0
H911 H 0.82261 0.25119 0.04965 0.0
H912 H 0.7939 0.26437 0.03129 0.0
H913 H 0.77102 0.24103 0.05335 0.0
H914 H 0.76755 0.244 0.01137 0.0
H915 H 0.75676 0.16945 0.95433 0.0
H916 H 0.72628 0.14359 0.99194 0.0
H917 H 0.75476 0.19763 0.06371 0.0
C918 C 0.81897 0.25673 0.97806 0.0
C919 C 0.82576 0.25822 0.94589 0.0
C920 C 0.81514 0.23815 0.92655 0.0
C921 C 0.79759 0.21705 0.93878 0.0
C922 C 0.79103 0.2163 0.97044 0.0
C923 C 0.80153 0.23556 0.98989 0.0
C924 C 0.79066 0.23043 0.02267 0.0
C925 C 0.80827 0.23296 0.04822 0.0
C926 C 0.78016 0.24587 0.03008 0.0
C927 C 0.77207 0.2054 0.01842 0.0
C928 C 0.7726 0.19754 0.98818 0.0
C929 C 0.75635 0.17532 0.9782 0.0
C930 C 0.73907 0.16079 -0.0003 0.0
C931 C 0.73822 0.16855 0.03081 0.0
C932 C 0.75511 0.19109 0.04024 0.0
H933 H 0.49041 0.79323 0.47734 0.0
H934 H 0.56411 0.8378 0.46134 0.0
H935 H 0.57143 0.80829 0.48549 0.0
H936 H 0.49524 0.77152 0.55319 0.0
H937 H 0.47134 0.74277 0.54623 0.0
H938 H 0.47192 0.76726 0.52723 0.0
H939 H 0.46774 0.74815 0.47205 0.0
H940 H 0.46713 0.7236 0.49088 0.0
H941 H 0.48819 0.73933 0.46032 0.0
H942 H 0.57064 0.77389 0.51134 0.0
H943 H 0.56186 0.73729 0.53766 0.0
H944 H 0.48871 0.71564 0.53716 0.0
C945 C 0.5081 0.7968 0.47882 0.0
C946 C 0.52669 0.8178 0.46743 0.0
C947 C 0.54959 0.82182 0.46995 0.0
C948 C 0.55392 0.80517 0.48359 0.0
C949 C 0.53518 0.78467 0.49463 0.0
C950 C 0.51273 0.78044 0.49245 0.0
C951 C 0.49568 0.75712 0.50641 0.0
C952 C 0.4828 0.75984 0.53496 0.0
C953 C 0.47869 0.74111 0.48089 0.0
C954 C 0.51205 0.74888 0.51681 0.0
C955 C 0.53474 0.76497 0.50975 0.0
C956 C 0.55293 0.76116 0.51702 0.0
C957 C 0.54776 0.74031 0.53195 0.0
C958 C 0.5246 0.72362 0.53951 0.0
C959 C 0.50659 0.72806 0.53178 0.0
H960 H 0.344 0.38346 0.13136 0.0
H961 H 0.33635 0.39165 0.03036 0.0
H962 H 0.3507 0.36488 0.01818 0.0
H963 H 0.39596 0.38541 0.12631 0.0
H964 H 0.39041 0.3642 0.15673 0.0
H965 H 0.37569 0.38056 0.15786 0.0
H966 H 0.33608 0.34254 0.1585 0.0
H967 H 0.35072 0.326 0.15755 0.0
H968 H 0.32938 0.32126 0.12774 0.0
H969 H 0.37165 0.3426 0.01666 0.0
H970 H 0.39654 0.32553 0.02617 0.0
H971 H 0.38975 0.33105 0.12805 0.0
C972 C 0.34467 0.37909 0.10671 0.0
C973 C 0.33899 0.38962 0.08184 0.0
C974 C 0.34052 0.38375 0.04986 0.0
C975 C 0.3486 0.36849 0.04268 0.0
C976 C 0.35481 0.35903 0.06773 0.0
C977 C 0.35268 0.36388 0.09914 0.0
C978 C 0.36261 0.35327 0.12151 0.0
C979 C 0.38233 0.37198 0.14177 0.0
C980 C 0.34356 0.33466 0.14256 0.0
C981 C 0.37159 0.34259 0.09772 0.0
C982 C 0.36666 0.34583 0.06684 0.0
C983 C 0.37515 0.33947 0.04074 0.0
C984 C 0.38934 0.32987 0.04636 0.0
C985 C 0.39488 0.32675 0.07783 0.0
C986 C 0.38541 0.33273 0.10373 0.0
H987 H 0.04078 0.41028 0.63481 0.0
H988 H 0.05065 0.37923 0.54977 0.0
H989 H 0.0084 0.35297 0.54617 0.0
H990 H 0.99064 0.35665 0.66699 0.0
H991 H 0.97695 0.37233 0.68139 0.0
H992 H 0.00806 0.38631 0.67966 0.0
H993 H 0.00914 0.41913 0.64535 0.0
H994 H 0.97811 0.4052 0.64671 0.0
H995 H 0.99278 0.41192 0.60885 0.0
H996 H 0.96502 0.33381 0.54794 0.0
H997 H 0.92394 0.32208 0.55626 0.0
H998 H 0.94277 0.36546 0.6405 0.0
C999 C 0.03415 0.3976 0.61583 0.0
C1000 C 0.04901 0.39679 0.59258 0.0
C1001 C 0.03959 0.3801 0.56794 0.0
C1002 C 0.01562 0.3651 0.56571 0.0
C1003 C 0.0014 0.36687 0.58849 0.0
C1004 C 0.01034 0.38252 0.61331 0.0
C1005 C 0.99134 0.38216 0.63338 0.0
C1006 C 0.99178 0.37386 0.66737 0.0
C1007 C 0.99295 0.40602 0.63355 0.0
C1008 C 0.97029 0.36448 0.61531 0.0
C1009 C 0.97641 0.35568 0.58968 0.0
C1010 C 0.95999 0.34027 0.56826 0.0
C1011 C 0.93672 0.3338 0.5731 0.0
C1012 C 0.93015 0.34277 0.59912 0.0
C1013 C 0.94719 0.35806 0.62064 0.0
H1014 H 0.59705 0.94346 0.05477 0.0
H1015 H 0.61831 0.92761 0.14448 0.0
H1016 H 0.6481 0.9688 0.15051 0.0
H1017 H 0.65521 0.99022 0.02894 0.0
H1018 H 0.64335 0.00696 0.01225 0.0
H1019 H 0.62635 0.97581 0.01267 0.0
H1020 H 0.59356 0.97814 0.0425 0.0
H1021 H 0.61045 0.00921 0.04233 0.0
H1022 H 0.59997 0.99392 0.07946 0.0
H1023 H 0.67226 0.01236 0.14978 0.0
H1024 H 0.68837 0.05444 0.14261 0.0
H1025 H 0.65075 0.04136 0.05365 0.0
C1026 C 0.60836 0.94849 0.0753 0.0
C1027 C 0.60542 0.93228 0.09908 0.0
C1028 C 0.62031 0.9397 0.12587 0.0
C1029 C 0.63732 0.96306 0.12945 0.0
C1030 C 0.6393 0.97871 0.10596 0.0
C1031 C 0.62529 0.97168 0.0793 0.0
C1032 C 0.62931 0.9921 0.05901 0.0
C1033 C 0.63914 0.99121 0.02628 0.0
C1034 C 0.607 0.99341 0.05566 0.0
C1035 C 0.64719 0.01179 0.07895 0.0
C1036 C 0.65303 0.00376 0.10569 0.0
C1037 C 0.6681 0.01884 0.12867 0.0
C1038 C 0.67713 0.04271 0.12441 0.0
C1039 C 0.67087 0.05121 0.09754 0.0
C1040 C 0.65606 0.03547 0.07432 0.0
H1041 H 0.6431 0.60273 0.63169 0.0
H1042 H 0.65012 0.59798 0.52963 0.0
H1043 H 0.63084 0.62085 0.52061 0.0
H1044 H 0.5877 0.59473 0.63019 0.0
H1045 H 0.59206 0.61471 0.66191 0.0
H1046 H 0.60902 0.6006 0.66057 0.0
H1047 H 0.64676 0.64045 0.66149 0.0
H1048 H 0.62989 0.65472 0.66304 0.0
H1049 H 0.65112 0.66193 0.63207 0.0
H1050 H 0.60672 0.63997 0.52253 0.0
H1051 H 0.58085 0.65537 0.53538 0.0
H1052 H 0.59027 0.64833 0.63616 0.0
C1053 C 0.64107 0.60692 0.60745 0.0
C1054 C 0.64817 0.59859 0.58137 0.0
C1055 C 0.6449 0.60423 0.55 0.0
C1056 C 0.63399 0.61724 0.54462 0.0
C1057 C 0.62665 0.62465 0.57086 0.0
C1058 C 0.63026 0.6199 0.60167 0.0
C1059 C 0.61935 0.62852 0.62563 0.0
C1060 C 0.60094 0.60844 0.64574 0.0
C1061 C 0.63789 0.64754 0.6468 0.0
C1062 C 0.60846 0.63826 0.60346 0.0
C1063 C 0.61299 0.63599 0.57197 0.0
C1064 C 0.60339 0.64222 0.5471 0.0
C1065 C 0.58865 0.65086 0.55463 0.0
C1066 C 0.58371 0.65322 0.58676 0.0
C1067 C 0.59404 0.64711 0.61139 0.0
H1068 H 0.95133 0.60461 0.13068 0.0
H1069 H 0.93604 0.58874 0.03035 0.0
H1070 H 0.97771 0.61184 0.01794 0.0
H1071 H 0.00051 0.66387 0.12063 0.0
H1072 H 0.01643 0.66077 0.15306 0.0
H1073 H 0.98525 0.64515 0.15365 0.0
H1074 H 0.98536 0.60658 0.16052 0.0
H1075 H 0.01648 0.62204 0.15984 0.0
H1076 H 0.00054 0.59885 0.13199 0.0
H1077 H 0.02093 0.63393 0.01686 0.0
H1078 H 0.06286 0.65302 0.0272 0.0
H1079 H 0.05003 0.65407 0.12837 0.0
C1080 C 0.95669 0.60638 0.10602 0.0
C1081 C 0.94044 0.595 0.08144 0.0
C1082 C 0.9482 0.59736 0.04955 0.0
C1083 C 0.97181 0.6105 0.04225 0.0
C1084 C 0.9874 0.62116 0.06711 0.0
C1085 C 0.98018 0.61928 0.09834 0.0
C1086 C 0.00057 0.63102 0.12084 0.0
C1087 C 0.00069 0.65142 0.13805 0.0
C1088 C 0.00074 0.61358 0.14469 0.0
C1089 C 0.02039 0.63935 0.09742 0.0
C1090 C 0.01241 0.63371 0.06653 0.0
C1091 C 0.02741 0.63866 0.04091 0.0
C1092 C 0.0512 0.64947 0.04705 0.0
C1093 C 0.05974 0.65509 0.07859 0.0
C1094 C 0.04408 0.65019 0.10398 0.0
H1095 H 0.42123 0.05176 0.6375 0.0
H1096 H 0.3971 0.06793 0.55048 0.0
H1097 H 0.36751 0.02675 0.54453 0.0
H1098 H 0.4166 0.00013 0.61106 0.0
H1099 H 0.40702 0.98517 0.64855 0.0
H1100 H 0.42459 0.0162 0.64784 0.0
H1101 H 0.39336 0.01967 0.68017 0.0
H1102 H 0.37566 0.98857 0.681 0.0
H1103 H 0.36403 0.00589 0.66562 0.0
H1104 H 0.34338 0.98349 0.54502 0.0
H1105 H 0.32612 0.9413 0.55244 0.0
H1106 H 0.36542 0.95355 0.63968 0.0
C1107 C 0.40948 0.04673 0.61747 0.0
C1108 C 0.41146 0.06307 0.59449 0.0
C1109 C 0.39588 0.05573 0.56845 0.0
C1110 C 0.37897 0.03238 0.56489 0.0
C1111 C 0.37774 0.01666 0.58771 0.0
C1112 C 0.39247 0.02353 0.61361 0.0
C1113 C 0.38849 0.00302 0.63367 0.0
C1114 C 0.41048 0.00102 0.63535 0.0
C1115 C 0.37987 0.00437 0.6671 0.0
C1116 C 0.36967 0.98348 0.61451 0.0
C1117 C 0.36358 0.9917 0.58822 0.0
C1118 C 0.34772 0.97684 0.56579 0.0
C1119 C 0.33807 0.95292 0.57016 0.0
C1120 C 0.3443 0.94417 0.59675 0.0
C1121 C 0.36 0.9597 0.61942 0.0
H1122 H 0.58377 0.62983 0.95271 0.0
H1123 H 0.62279 0.68576 0.88596 0.0
H1124 H 0.64994 0.67112 0.87758 0.0
H1125 H 0.63296 0.62688 0.98684 0.0
H1126 H 0.6166 0.59575 0.98961 0.0
H1127 H 0.60211 0.61233 0.99302 0.0
H1128 H 0.57451 0.58854 0.94707 0.0
H1129 H 0.58895 0.57199 0.94337 0.0
H1130 H 0.58653 0.58705 0.90929 0.0
H1131 H 0.67081 0.6483 0.87337 0.0
H1132 H 0.68333 0.61912 0.8731 0.0
H1133 H 0.62973 0.57804 0.94189 0.0
C1134 C 0.59827 0.63934 0.93677 0.0
C1135 C 0.60123 0.65902 0.92009 0.0
C1136 C 0.62025 0.6707 0.89911 0.0
C1137 C 0.63577 0.66254 0.89424 0.0
C1138 C 0.632 0.64275 0.9106 0.0
C1139 C 0.61374 0.63137 0.93152 0.0
C1140 C 0.61236 0.60956 0.94442 0.0
C1141 C 0.61625 0.61124 0.98062 0.0
C1142 C 0.58922 0.58802 0.93549 0.0
C1143 C 0.63241 0.6101 0.92695 0.0
C1144 C 0.64373 0.62949 0.90784 0.0
C1145 C 0.66223 0.63318 0.88849 0.0
C1146 C 0.66919 0.61649 0.88847 0.0
C1147 C 0.65752 0.59631 0.90749 0.0
C1148 C 0.63909 0.59332 0.92719 0.0
H1149 H 0.95486 0.60246 0.38243 0.0
H1150 H 0.94687 0.58703 0.48353 0.0
H1151 H 0.98935 0.60846 0.48985 0.0
H1152 H 0.00129 0.59322 0.37129 0.0
H1153 H 0.01607 0.61594 0.3424 0.0
H1154 H 0.98516 0.60223 0.34651 0.0
H1155 H 0.98856 0.64218 0.35637 0.0
H1156 H 0.01955 0.65605 0.35225 0.0
H1157 H 0.00709 0.66053 0.38772 0.0
H1158 H 0.0323 0.62853 0.4845 0.0
H1159 H 0.07282 0.64438 0.46762 0.0
H1160 H 0.05288 0.64596 0.36966 0.0
C1161 C 0.96204 0.60404 0.40602 0.0
C1162 C 0.94761 0.59327 0.43255 0.0
C1163 C 0.95764 0.59523 0.46291 0.0
C1164 C 0.98172 0.60745 0.46676 0.0
C1165 C 0.99548 0.61755 0.44001 0.0
C1166 C 0.98603 0.61596 0.41021 0.0
C1167 C 0.00463 0.62653 0.3849 0.0
C1168 C 0.0016 0.60839 0.35981 0.0
C1169 C 0.00498 0.64758 0.3694 0.0
C1170 C 0.02599 0.63378 0.40502 0.0
C1171 C 0.02035 0.62877 0.4368 0.0
C1172 C 0.03698 0.63277 0.45975 0.0
C1173 C 0.05995 0.64175 0.44989 0.0
C1174 C 0.06604 0.64644 0.41731 0.0
C1175 C 0.04884 0.64277 0.39476 0.0
H1176 H 0.42594 0.05451 0.94189 0.0
H1177 H 0.39531 0.07303 0.86433 0.0
H1178 H 0.36436 0.03215 0.85978 0.0
H1179 H 0.41802 0.00368 0.9089 0.0
H1180 H 0.41163 0.98786 0.9458 0.0
H1181 H 0.42935 0.01887 0.9459 0.0
H1182 H 0.4015 0.02185 0.98615 0.0
H1183 H 0.38369 0.99076 0.9863 0.0
H1184 H 0.37112 0.00848 0.97688 0.0
H1185 H 0.33932 0.98865 0.85993 0.0
H1186 H 0.32234 0.9463 0.86476 0.0
H1187 H 0.36966 0.9567 0.94219 0.0
C1188 C 0.41246 0.05012 0.92439 0.0
C1189 C 0.41302 0.067 0.90352 0.0
C1190 C 0.3952 0.06042 0.88067 0.0
C1191 C 0.37751 0.03724 0.87795 0.0
C1192 C 0.37783 0.02095 0.89841 0.0
C1193 C 0.39477 0.02714 0.92133 0.0
C1194 C 0.39234 0.00618 0.93873 0.0
C1195 C 0.41412 0.00403 0.93456 0.0
C1196 C 0.38683 0.00686 0.97411 0.0
C1197 C 0.37182 0.98712 0.92134 0.0
C1198 C 0.36348 0.99595 0.89844 0.0
C1199 C 0.34549 0.98155 0.8781 0.0
C1200 C 0.33599 0.95752 0.88099 0.0
C1201 C 0.34461 0.94817 0.90392 0.0
C1202 C 0.3625 0.96325 0.92464 0.0
H1203 H 0.33511 0.39329 0.36638 0.0
H1204 H 0.33024 0.40389 0.46735 0.0
H1205 H 0.34674 0.37891 0.47959 0.0
H1206 H 0.32438 0.33243 0.37191 0.0
H1207 H 0.34533 0.33776 0.34118 0.0
H1208 H 0.32905 0.35268 0.34043 0.0
H1209 H 0.3673 0.39206 0.33869 0.0
H1210 H 0.38364 0.37732 0.33952 0.0
H1211 H 0.3887 0.39883 0.36928 0.0
H1212 H 0.36864 0.35774 0.4808 0.0
H1213 H 0.39538 0.34298 0.47091 0.0
H1214 H 0.38653 0.34651 0.36909 0.0
C1215 C 0.33683 0.38976 0.39108 0.0
C1216 C 0.33124 0.40037 0.41593 0.0
C1217 C 0.33433 0.39585 0.44794 0.0
C1218 C 0.34357 0.38158 0.45513 0.0
C1219 C 0.34954 0.37191 0.43005 0.0
C1220 C 0.34622 0.37573 0.39864 0.0
C1221 C 0.35663 0.36568 0.37611 0.0
C1222 C 0.33771 0.34596 0.35624 0.0
C1223 C 0.37517 0.3846 0.35467 0.0
C1224 C 0.36724 0.35655 0.39975 0.0
C1225 C 0.36253 0.35987 0.43073 0.0
C1226 C 0.3721 0.35465 0.45667 0.0
C1227 C 0.38733 0.34634 0.4508 0.0
C1228 C 0.39299 0.34354 0.41923 0.0
C1229 C 0.38227 0.34812 0.39348 0.0
H1230 H 0.04943 0.43866 0.86567 0.0
H1231 H 0.06831 0.41327 0.94904 0.0
H1232 H 0.02697 0.38569 0.95933 0.0
H1233 H -0.00036 0.43662 0.89864 0.0
H1234 H 0.98314 0.42746 0.86227 0.0
H1235 H 0.01422 0.44433 0.8607 0.0
H1236 H 0.01527 0.4126 0.8263 0.0
H1237 H 0.98416 0.39561 0.82776 0.0
H1238 H 0.00138 0.38321 0.84067 0.0
H1239 H 0.98334 0.36207 0.96177 0.0
H1240 H 0.94094 0.34429 0.95601 0.0
H1241 H 0.95113 0.38511 0.87075 0.0
C1242 C 0.04493 0.42721 0.88599 0.0
C1243 C 0.06211 0.42812 0.90654 0.0
C1244 C 0.05544 0.41286 0.93291 0.0
C1245 C 0.03202 0.39712 0.93895 0.0
C1246 C 0.01551 0.39679 0.9183 0.0
C1247 C 0.02169 0.41139 0.8923 0.0
C1248 C 0.00064 0.40804 0.87421 0.0
C1249 C -0.00066 0.43044 0.87396 0.0
C1250 C 0.00035 0.39934 0.84022 0.0
C1251 C 0.98161 0.38951 0.89435 0.0
C1252 C 0.9905 0.38315 0.9196 0.0
C1253 C 0.97618 0.3668 0.94196 0.0
C1254 C 0.95213 0.35681 0.9385 0.0
C1255 C 0.9427 0.36325 0.9129 0.0
C1256 C 0.95774 0.37968 0.89048 0.0
H1257 H 0.57593 0.96491 0.47243 0.0
H1258 H 0.59863 0.93874 0.394 0.0
H1259 H 0.62653 0.97882 0.37788 0.0
H1260 H 0.57547 0.00897 0.43061 0.0
H1261 H 0.58547 0.02963 0.46276 0.0
H1262 H 0.57011 -0.00086 0.47134 0.0
H1263 H 0.60424 0.00386 0.50621 0.0
H1264 H 0.61969 0.03447 0.49792 0.0
H1265 H 0.63297 0.01723 0.48955 0.0
H1266 H 0.64856 0.02144 0.36669 0.0
H1267 H 0.66288 0.06329 0.36114 0.0
H1268 H 0.62519 0.06142 0.4464 0.0
C1269 C 0.58721 0.96758 0.45241 0.0
C1270 C 0.58521 0.94872 0.43459 0.0
C1271 C 0.59993 0.95295 0.40808 0.0
C1272 C 0.61588 0.97565 0.3988 0.0
C1273 C 0.61693 0.99388 0.41634 0.0
C1274 C 0.60308 0.99009 0.44271 0.0
C1275 C 0.60596 0.01256 0.45566 0.0
C1276 C 0.58289 0.01256 0.45503 0.0
C1277 C 0.61634 0.01731 0.48933 0.0
C1278 C 0.62299 0.02949 0.43182 0.0
C1279 C 0.6294 0.01845 0.40963 0.0
C1280 C 0.64393 0.03034 0.3842 0.0
C1281 C 0.65193 0.0541 0.3812 0.0
C1282 C 0.64519 0.06564 0.40335 0.0
C1283 C 0.63081 0.05315 0.4292 0.0
H1284 H 0.46962 0.59758 0.98015 0.0
H1285 H 0.51843 0.57254 0.97548 0.0
H1286 H 0.48919 0.53534 0.99848 0.0
H1287 H 0.4428 0.57015 0.0543 0.0
H1288 H 0.41409 0.56298 0.04205 0.0
H1289 H 0.43892 0.58793 0.02544 0.0
H1290 H 0.42492 0.572 0.96859 0.0
H1291 H 0.40007 0.54699 0.98504 0.0
H1292 H 0.41928 0.54335 0.95857 0.0
H1293 H 0.45547 0.5014 0.023 0.0
H1294 H 0.41833 0.47183 0.04597 0.0
H1295 H 0.39046 0.51782 0.03313 0.0
C1296 C 0.47414 0.58428 0.98407 0.0
C1297 C 0.49633 0.58799 0.97611 0.0
C1298 C 0.50154 0.5701 0.98134 0.0
C1299 C 0.48507 0.5489 0.99444 0.0
C1300 C 0.46339 0.54577 0.00197 0.0
C1301 C 0.45778 0.56286 0.99686 0.0
C1302 C 0.43302 0.55475 0.00669 0.0
C1303 C 0.43217 0.56985 0.03373 0.0
C1304 C 0.41847 0.55424 0.97801 0.0
C1305 C 0.4257 0.53051 0.01824 0.0
C1306 C 0.44356 0.52579 0.01543 0.0
C1307 C 0.44128 0.50481 0.0252 0.0
C1308 C 0.42015 0.48815 0.03828 0.0
C1309 C 0.40151 0.4925 0.0412 0.0
C1310 C 0.40435 0.51394 0.0309 0.0
H1311 H 0.89103 0.41309 0.58219 0.0
H1312 H 0.83824 0.3606 0.52141 0.0
H1313 H 0.83476 0.39096 0.49257 0.0
H1314 H 0.86567 0.44967 0.58797 0.0
H1315 H 0.89314 0.47618 0.58695 0.0
H1316 H 0.89124 0.45028 0.6031 0.0
H1317 H 0.92284 0.45405 0.56369 0.0
H1318 H 0.92484 0.47996 0.54742 0.0
H1319 H 0.91886 0.45602 0.5216 0.0
H1320 H 0.83735 0.42705 0.46994 0.0
H1321 H 0.84602 0.46635 0.45488 0.0
H1322 H 0.89715 0.49521 0.53045 0.0
C1323 C 0.87867 0.40794 0.56289 0.0
C1324 C 0.86489 0.38445 0.55408 0.0
C1325 C 0.849 0.37848 0.52859 0.0
C1326 C 0.84687 0.39559 0.51208 0.0
C1327 C 0.86075 0.41857 0.52134 0.0
C1328 C 0.87635 0.42478 0.54612 0.0
C1329 C 0.88945 0.45074 0.55105 0.0
C1330 C 0.88457 0.45708 0.58424 0.0
C1331 C 0.91554 0.46078 0.5456 0.0
C1332 C 0.8788 0.45818 0.52511 0.0
C1333 C 0.86227 0.43936 0.50828 0.0
C1334 C 0.85023 0.44192 0.48299 0.0
C1335 C 0.85528 0.46432 0.47463 0.0
C1336 C 0.87224 0.48388 0.4915 0.0
C1337 C 0.88405 0.48064 0.51712 0.0
H1338 H 0.38709 0.86941 0.98351 0.0
H1339 H 0.42999 0.91742 0.90984 0.0
H1340 H 0.46387 0.91601 0.93062 0.0
H1341 H 0.42976 0.89215 0.04586 0.0
H1342 H 0.42103 0.86412 0.06273 0.0
H1343 H 0.40021 0.86903 0.04212 0.0
H1344 H 0.39066 0.83453 0.00461 0.0
H1345 H 0.4115 0.82956 0.02503 0.0
H1346 H 0.41365 0.83413 0.9826 0.0
H1347 H 0.49296 0.90921 0.95916 0.0
H1348 H 0.51546 0.89797 0.99402 0.0
H1349 H 0.45346 0.8543 0.04892 0.0
C1350 C 0.40361 0.87969 0.97177 0.0
C1351 C 0.4059 0.89354 0.94504 0.0
C1352 C 0.42782 0.90669 0.93035 0.0
C1353 C 0.44716 0.90599 0.94196 0.0
C1354 C 0.44427 0.89206 0.96823 0.0
C1355 C 0.42307 0.87918 0.983 0.0
C1356 C 0.42462 0.8656 0.01083 0.0
C1357 C 0.41855 0.87319 0.04224 0.0
C1358 C 0.40919 0.8394 0.00543 0.0
C1359 C 0.45001 0.87286 0.00941 0.0
C1360 C 0.46103 0.88811 0.98466 0.0
C1361 C 0.48453 0.89728 0.97863 0.0
C1362 C 0.49715 0.89077 0.99856 0.0
C1363 C 0.48623 0.87524 0.02421 0.0
C1364 C 0.46232 0.86615 0.02951 0.0
H1365 H 0.54595 0.40743 0.4459 0.0
H1366 H 0.48797 0.3872 0.51024 0.0
H1367 H 0.51331 0.41843 0.54706 0.0
H1368 H 0.58978 0.4226 0.50683 0.0
H1369 H 0.61168 0.44692 0.48486 0.0
H1370 H 0.58915 0.42245 0.46393 0.0
H1371 H 0.57811 0.44962 0.43423 0.0
H1372 H 0.60057 0.47416 0.45508 0.0
H1373 H 0.57113 0.46829 0.45685 0.0
H1374 H 0.54447 0.45236 0.57619 0.0
H1375 H 0.57957 0.48692 0.59579 0.0
H1376 H 0.61733 0.48517 0.51258 0.0
C1377 C 0.53861 0.40946 0.46782 0.0
C1378 C 0.51497 0.39484 0.47518 0.0
C1379 C 0.50602 0.39818 0.50405 0.0
C1380 C 0.52028 0.41585 0.52517 0.0
C1381 C 0.54344 0.43003 0.5171 0.0
C1382 C 0.55258 0.42704 0.48917 0.0
C1383 C 0.57795 0.44502 0.48591 0.0
C1384 C 0.59303 0.43356 0.48536 0.0
C1385 C 0.58218 0.46017 0.45626 0.0
C1386 C 0.58156 0.45866 0.51625 0.0
C1387 C 0.56145 0.44967 0.53393 0.0
C1388 C 0.56037 0.45953 0.56263 0.0
C1389 C 0.5804 0.47917 0.57354 0.0
C1390 C 0.6012 0.48875 0.55574 0.0
C1391 C 0.60172 0.47823 0.52678 0.0
H1392 H 0.11048 0.51097 0.00122 0.0
H1393 H 0.15907 0.54507 0.92392 0.0
H1394 H 0.16407 0.58269 0.94123 0.0
H1395 H 0.08289 0.54502 0.9967 0.0
H1396 H 0.07932 0.54565 0.03915 0.0
H1397 H 0.08006 0.52153 0.02114 0.0
H1398 H 0.11378 0.52816 0.05843 0.0
H1399 H 0.11314 0.5523 0.07657 0.0
H1400 H 0.13964 0.55619 0.0595 0.0
H1401 H 0.16345 0.61655 0.96672 0.0
H1402 H 0.1569 0.64406 0.99816 0.0
H1403 H 0.10846 0.58756 0.05834 0.0
C1404 C 0.12226 0.52634 0.98798 0.0
C1405 C 0.13441 0.52508 0.96123 0.0
C1406 C 0.14956 0.54561 0.94448 0.0
C1407 C 0.15254 0.56706 0.95414 0.0
C1408 C 0.14023 0.56767 0.98056 0.0
C1409 C 0.12538 0.54785 0.99722 0.0
C1410 C 0.1139 0.55314 0.02445 0.0
C1411 C 0.08748 0.54059 0.02008 0.0
C1412 C 0.12052 0.54709 0.05664 0.0
C1413 C 0.12455 0.57904 0.02045 0.0
C1414 C 0.13975 0.58711 0.99507 0.0
C1415 C 0.1516 0.61044 0.98667 0.0
C1416 C 0.14776 0.62592 0.00467 0.0
C1417 C 0.13215 0.61797 0.03069 0.0
C1418 C 0.12049 0.5942 0.0386 0.0
H1419 H 0.52337 0.14191 0.52874 0.0
H1420 H 0.47001 0.11396 0.456 0.0
H1421 H 0.49725 0.11127 0.41897 0.0
H1422 H 0.57155 0.17615 0.47547 0.0
H1423 H 0.59134 0.17028 0.49721 0.0
H1424 H 0.56786 0.17075 0.51771 0.0
H1425 H 0.55373 0.12931 0.5389 0.0
H1426 H 0.57714 0.1287 0.51846 0.0
H1427 H 0.54769 0.10636 0.51113 0.0
H1428 H 0.52973 0.11017 0.39051 0.0
H1429 H 0.56543 0.1112 0.37239 0.0
H1430 H 0.59775 0.14023 0.46344 0.0
C1431 C 0.51745 0.13537 0.50496 0.0
C1432 C 0.49455 0.12816 0.49528 0.0
C1433 C 0.48747 0.11962 0.46398 0.0
C1434 C 0.50282 0.11803 0.44274 0.0
C1435 C 0.52521 0.12512 0.4531 0.0
C1436 C 0.53255 0.1337 0.48342 0.0
C1437 C 0.55739 0.13973 0.48879 0.0
C1438 C 0.57295 0.16577 0.49516 0.0
C1439 C 0.55907 0.12515 0.51592 0.0
C1440 C 0.56278 0.13297 0.45686 0.0
C1441 C 0.54399 0.12463 0.4366 0.0
C1442 C 0.54461 0.1168 0.40608 0.0
C1443 C 0.56496 0.11742 0.39603 0.0
C1444 C 0.58441 0.12585 0.41644 0.0
C1445 C 0.58325 0.13383 0.44718 0.0
H1446 H 0.49324 0.40542 0.01718 0.0
H1447 H 0.52182 0.3596 0.02335 0.0
H1448 H 0.55778 0.38943 0.99797 0.0
H1449 H 0.51808 0.43052 0.94071 0.0
H1450 H 0.52373 0.45903 0.95152 0.0
H1451 H 0.49997 0.43388 0.96957 0.0
H1452 H 0.51639 0.45006 0.02554 0.0
H1453 H 0.54021 0.47525 0.00767 0.0
H1454 H 0.54573 0.45771 0.03498 0.0
H1455 H 0.59082 0.42429 0.97296 0.0
H1456 H 0.6189 0.46202 0.94982 0.0
H1457 H 0.56895 0.48532 0.95988 0.0
C1458 C 0.507 0.40159 0.01305 0.0
C1459 C 0.50468 0.38014 0.02223 0.0
C1460 C 0.52317 0.37589 0.01654 0.0
C1461 C 0.54367 0.39271 0.00211 0.0
C1462 C 0.54542 0.41369 0.99351 0.0
C1463 C 0.52761 0.41821 0.99872 0.0
C1464 C 0.53411 0.44233 0.98765 0.0
C1465 C 0.51802 0.44137 0.96076 0.0
C1466 C 0.53411 0.45721 0.01563 0.0
C1467 C 0.55839 0.45069 0.97551 0.0
C1468 C 0.56455 0.43387 0.97908 0.0
C1469 C 0.5862 0.43759 0.96996 0.0
C1470 C 0.60203 0.4591 0.95685 0.0
C1471 C 0.59614 0.47665 0.95298 0.0
C1472 C 0.57397 0.47227 0.96242 0.0
H1473 H 0.15121 0.60566 0.46047 0.0
H1474 H 0.08102 0.56702 0.42395 0.0
H1475 H 0.07635 0.53156 0.44914 0.0
H1476 H 0.16503 0.55996 0.44965 0.0
H1477 H 0.18195 0.56688 0.48558 0.0
H1478 H 0.17995 0.58927 0.46434 0.0
H1479 H 0.1652 0.59942 0.51552 0.0
H1480 H 0.16707 0.57701 0.53689 0.0
H1481 H 0.14009 0.57707 0.5357 0.0
H1482 H 0.07867 0.50073 0.4795 0.0
H1483 H 0.08842 0.47576 0.51128 0.0
H1484 H 0.15743 0.53402 0.5274 0.0
C1485 C 0.1349 0.58972 0.45766 0.0
C1486 C 0.11647 0.58912 0.44026 0.0
C1487 C 0.09541 0.56791 0.43709 0.0
C1488 C 0.09255 0.54767 0.45136 0.0
C1489 C 0.11097 0.54891 0.46855 0.0
C1490 C 0.13179 0.5693 0.47159 0.0
C1491 C 0.14881 0.56582 0.49133 0.0
C1492 C 0.1702 0.57077 0.47153 0.0
C1493 C 0.15569 0.58071 0.52166 0.0
C1494 C 0.13421 0.5403 0.49908 0.0
C1495 C 0.11243 0.53094 0.48575 0.0
C1496 C 0.0957 0.50781 0.48994 0.0
C1497 C 0.10142 0.49379 0.50812 0.0
C1498 C 0.12372 0.50291 0.52179 0.0
C1499 C 0.14028 0.52651 0.51717 0.0
H1500 H 0.61866 0.11954 0.01585 0.0
H1501 H 0.58391 0.07061 0.09261 0.0
H1502 H 0.54661 0.06633 0.0755 0.0
H1503 H 0.58554 0.14794 0.0209 0.0
H1504 H 0.58482 0.15174 0.97852 0.0
H1505 H 0.60872 0.15038 0.99612 0.0
H1506 H 0.60125 0.11657 0.95842 0.0
H1507 H 0.57732 0.11784 0.94069 0.0
H1508 H 0.57296 0.09105 0.95739 0.0
H1509 H 0.51332 0.06824 0.05119 0.0
H1510 H 0.48623 0.07606 0.02103 0.0
H1511 H 0.5426 0.12353 0.95989 0.0
C1512 C 0.6032 0.10782 0.02896 0.0
C1513 C 0.60421 0.09539 0.05557 0.0
C1514 C 0.58358 0.08031 0.07215 0.0
C1515 C 0.56229 0.07774 0.06261 0.0
C1516 C 0.56193 0.09033 0.0364 0.0
C1517 C 0.5818 0.10503 0.01976 0.0
C1518 C 0.5767 0.11688 0.99279 0.0
C1519 C 0.58972 0.1433 0.99737 0.0
C1520 C 0.58239 0.11018 0.9604 0.0
C1521 C 0.55088 0.10666 0.99704 0.0
C1522 C 0.54269 0.09136 0.02229 0.0
C1523 C 0.5195 0.08011 0.03126 0.0
C1524 C 0.50425 0.0847 0.01401 0.0
C1525 C 0.51227 0.10037 0.98807 0.0
C1526 C 0.5359 0.11136 0.97948 0.0
H1527 H 0.48481 0.58139 0.52628 0.0
H1528 H 0.45433 0.62361 0.55093 0.0
H1529 H 0.41726 0.59426 0.52735 0.0
H1530 H 0.45683 0.56216 0.45103 0.0
H1531 H 0.45284 0.53346 0.45465 0.0
H1532 H 0.47675 0.55743 0.47441 0.0
H1533 H 0.46326 0.53589 0.52835 0.0
H1534 H 0.43931 0.51183 0.50876 0.0
H1535 H 0.4341 0.52585 0.54182 0.0
H1536 H 0.38367 0.56056 0.50051 0.0
H1537 H 0.35609 0.52514 0.47165 0.0
H1538 H 0.40875 0.50525 0.464 0.0
C1539 C 0.47032 0.58444 0.52689 0.0
C1540 C 0.47246 0.60479 0.54051 0.0
C1541 C 0.4531 0.60815 0.54063 0.0
C1542 C 0.43196 0.59157 0.52733 0.0
C1543 C 0.43049 0.57176 0.51398 0.0
C1544 C 0.44914 0.56813 0.51363 0.0
C1545 C 0.44313 0.54559 0.49723 0.0
C1546 C 0.45829 0.54993 0.46757 0.0
C1547 C 0.44506 0.5288 0.52043 0.0
C1548 C 0.4182 0.53717 0.48826 0.0
C1549 C 0.41121 0.55246 0.49826 0.0
C1550 C 0.38893 0.54844 0.49259 0.0
C1551 C 0.3734 0.52826 0.47619 0.0
C1552 C 0.38025 0.51242 0.46554 0.0
C1553 C 0.40297 0.51701 0.47178 0.0
H1554 H 0.88645 0.41914 0.92727 0.0
H1555 H 0.84833 0.3664 0.99855 0.0
H1556 H 0.84313 0.39474 0.03 0.0
H1557 H 0.91667 0.46589 0.98143 0.0
H1558 H 0.91524 0.48703 0.95628 0.0
H1559 H 0.91525 0.46239 0.9388 0.0
H1560 H 0.87696 0.4514 0.90941 0.0
H1561 H 0.87685 0.47604 0.92678 0.0
H1562 H 0.85224 0.44745 0.93193 0.0
H1563 H 0.84302 0.42902 0.0544 0.0
H1564 H 0.84792 0.46689 0.07001 0.0
H1565 H 0.88607 0.49716 0.98271 0.0
C1566 C 0.87688 0.41348 0.94939 0.0
C1567 C 0.86778 0.39054 0.96043 0.0
C1568 C 0.85546 0.38389 0.9896 0.0
C1569 C 0.8524 0.39984 0.00762 0.0
C1570 C 0.86172 0.42235 0.99614 0.0
C1571 C 0.87368 0.42917 0.96769 0.0
C1572 C 0.88237 0.45451 0.96102 0.0
C1573 C 0.90896 0.46826 0.95929 0.0
C1574 C 0.87144 0.45752 0.93048 0.0
C1575 C 0.87355 0.46091 0.99027 0.0
C1576 C 0.86164 0.4421 0.0102 0.0
C1577 C 0.85223 0.44386 0.03894 0.0
C1578 C 0.85513 0.46545 0.0476 0.0
C1579 C 0.86735 0.48499 0.02757 0.0
C1580 C 0.87656 0.48256 0.99849 0.0
H1581 H 0.4414 0.85693 0.44624 0.0
H1582 H 0.50214 0.89918 0.50413 0.0
H1583 H 0.47811 0.90637 0.54182 0.0
H1584 H 0.41484 0.89175 0.45648 0.0
H1585 H 0.38581 0.86743 0.45821 0.0
H1586 H 0.40772 0.86528 0.43593 0.0
H1587 H 0.3997 0.82902 0.46855 0.0
H1588 H 0.37776 0.83106 0.49094 0.0
H1589 H 0.40133 0.83071 0.51138 0.0
H1590 H 0.44773 0.90942 0.57286 0.0
H1591 H 0.41289 0.90804 0.59528 0.0
H1592 H 0.3719 0.8637 0.51734 0.0
C1593 C 0.44966 0.86766 0.46686 0.0
C1594 C 0.47366 0.87748 0.47222 0.0
C1595 C 0.48378 0.89144 0.49951 0.0
C1596 C 0.47029 0.89564 0.52108 0.0
C1597 C 0.4467 0.88573 0.51506 0.0
C1598 C 0.43645 0.87201 0.48867 0.0
C1599 C 0.41075 0.86357 0.48768 0.0
C1600 C 0.40442 0.87255 0.4578 0.0
C1601 C 0.39655 0.83701 0.48977 0.0
C1602 C 0.40821 0.87477 0.51758 0.0
C1603 C 0.42915 0.88745 0.53303 0.0
C1604 C 0.43121 0.89951 0.56102 0.0
C1605 C 0.41132 0.89862 0.57356 0.0
C1606 C 0.38966 0.88575 0.55809 0.0
C1607 C 0.38818 0.87365 0.52977 0.0
loop_
_geom_bond_atom_site_label_1
_geom_bond_atom_site_label_2
_geom_bond_distance
_geom_bond_site_symmetry_2
_ccdc_geom_bond_type
C0 O1 1.160 . S
C0 O7 1.185 . S
O1 C0 1.160 . S
O2 Zn3 1.899 . S
O2 C10 1.284 . S
Zn3 O2 1.899 . S
Zn3 O4 2.032 . S
Zn3 O7 2.086 . S
Zn3 O12 1.977 . S
O4 Zn3 2.032 . S
O4 C8 1.278 . S
C5 O6 1.203 . S
C5 O12 1.267 . S
O6 C5 1.203 . S
O7 C0 1.185 . S
O7 Zn3 2.086 . S
C8 O4 1.278 . S
C8 O9 1.211 . S
O9 C8 1.211 . S
C10 O2 1.284 . S
C10 O11 1.273 . S
O11 C10 1.273 . S
O12 Zn3 1.977 . S
O12 C5 1.267 . S
C13 O14 1.160 . S
C13 O20 1.185 . S
O14 C13 1.160 . S
O15 Zn16 1.899 . S
O15 C23 1.284 . S
Zn16 O15 1.899 . S
Zn16 O17 2.032 . S
Zn16 O20 2.086 . S
Zn16 O25 1.977 . S
O17 Zn16 2.032 . S
O17 C21 1.278 . S
C18 O19 1.203 . S
C18 O25 1.267 . S
O19 C18 1.203 . S
O20 C13 1.185 . S
O20 Zn16 2.086 . S
C21 O17 1.278 . S
C21 O22 1.211 . S
O22 C21 1.211 . S
C23 O15 1.284 . S
C23 O24 1.273 . S
O24 C23 1.273 . S
O25 Zn16 1.977 . S
O25 C18 1.267 . S
C26 O27 1.160 . S
C26 O33 1.185 . S
O27 C26 1.160 . S
O28 Zn29 1.899 . S
O28 C36 1.284 . S
Zn29 O28 1.899 . S
Zn29 O30 2.032 . S
Zn29 O33 2.086 . S
Zn29 O38 1.977 . S
O30 Zn29 2.032 . S
O30 C34 1.278 . S
C31 O32 1.203 . S
C31 O38 1.267 . S
O32 C31 1.203 . S
O33 C26 1.185 . S
O33 Zn29 2.086 . S
C34 O30 1.278 . S
C34 O35 1.211 . S
O35 C34 1.211 . S
C36 O28 1.284 . S
C36 O37 1.273 . S
O37 C36 1.273 . S
O38 Zn29 1.977 . S
O38 C31 1.267 . S
C39 O40 1.160 . S
C39 O46 1.185 . S
O40 C39 1.160 . S
O41 Zn42 1.899 . S
O41 C49 1.284 . S
Zn42 O41 1.899 . S
Zn42 O43 2.032 . S
Zn42 O46 2.086 . S
Zn42 O51 1.977 . S
O43 Zn42 2.032 . S
O43 C47 1.278 . S
C44 O45 1.203 . S
C44 O51 1.267 . S
O45 C44 1.203 . S
O46 C39 1.185 . S
O46 Zn42 2.086 . S
C47 O43 1.278 . S
C47 O48 1.211 . S
O48 C47 1.211 . S
C49 O41 1.284 . S
C49 O50 1.273 . S
O50 C49 1.273 . S
O51 Zn42 1.977 . S
O51 C44 1.267 . S
C52 O53 1.160 . S
C52 O59 1.185 . S
O53 C52 1.160 . S
O54 Zn55 1.899 . S
O54 C62 1.284 . S
Zn55 O54 1.899 . S
Zn55 O56 2.032 . S
Zn55 O59 2.086 . S
Zn55 O64 1.977 . S
O56 Zn55 2.032 . S
O56 C60 1.278 . S
C57 O58 1.203 . S
C57 O64 1.267 . S
O58 C57 1.203 . S
O59 C52 1.185 . S
O59 Zn55 2.086 . S
C60 O56 1.278 . S
C60 O61 1.211 . S
O61 C60 1.211 . S
C62 O54 1.284 . S
C62 O63 1.273 . S
O63 C62 1.273 . S
O64 Zn55 1.977 . S
O64 C57 1.267 . S
C65 O66 1.160 . S
C65 O72 1.185 . S
O66 C65 1.160 . S
O67 Zn68 1.899 . S
O67 C75 1.284 . S
Zn68 O67 1.899 . S
Zn68 O69 2.032 . S
Zn68 O72 2.086 . S
Zn68 O77 1.977 . S
O69 Zn68 2.032 . S
O69 C73 1.278 . S
C70 O71 1.203 . S
C70 O77 1.267 . S
O71 C70 1.203 . S
O72 C65 1.185 . S
O72 Zn68 2.086 . S
C73 O69 1.278 . S
C73 O74 1.211 . S
O74 C73 1.211 . S
C75 O67 1.284 . S
C75 O76 1.273 . S
O76 C75 1.273 . S
O77 Zn68 1.977 . S
O77 C70 1.267 . S
C78 O79 1.160 . S
C78 O85 1.185 . S
O79 C78 1.160 . S
O80 Zn81 1.899 . S
O80 C88 1.284 . S
Zn81 O80 1.899 . S
Zn81 O82 2.032 . S
Zn81 O85 2.086 . S
Zn81 O90 1.977 . S
O82 Zn81 2.032 . S
O82 C86 1.278 . S
C83 O84 1.203 . S
C83 O90 1.267 . S
O84 C83 1.203 . S
O85 C78 1.185 . S
O85 Zn81 2.086 . S
C86 O82 1.278 . S
C86 O87 1.211 . S
O87 C86 1.211 . S
C88 O80 1.284 . S
C88 O89 1.273 . S
O89 C88 1.273 . S
O90 Zn81 1.977 . S
O90 C83 1.267 . S
C91 O92 1.160 . S
C91 O98 1.185 . S
O92 C91 1.160 . S
O93 Zn94 1.899 . S
O93 C101 1.284 . S
Zn94 O93 1.899 . S
Zn94 O95 2.032 . S
Zn94 O98 2.086 . S
Zn94 O103 1.977 . S
O95 Zn94 2.032 . S
O95 C99 1.278 . S
C96 O97 1.203 . S
C96 O103 1.267 . S
O97 C96 1.203 . S
O98 C91 1.185 . S
O98 Zn94 2.086 . S
C99 O95 1.278 . S
C99 O100 1.211 . S
O100 C99 1.211 . S
C101 O93 1.284 . S
C101 O102 1.273 . S
O102 C101 1.273 . S
O103 Zn94 1.977 . S
O103 C96 1.267 . S
C104 O105 1.160 . S
C104 O111 1.185 . S
O105 C104 1.160 . S
O106 Zn107 1.899 . S
O106 C114 1.284 . S
Zn107 O106 1.899 . S
Zn107 O108 2.032 . S
Zn107 O111 2.086 . S
Zn107 O116 1.977 . S
O108 Zn107 2.032 . S
O108 C112 1.278 . S
C109 O110 1.203 . S
C109 O116 1.267 . S
O110 C109 1.203 . S
O111 C104 1.185 . S
O111 Zn107 2.086 . S
C112 O108 1.278 . S
C112 O113 1.211 . S
O113 C112 1.211 . S
C114 O106 1.284 . S
C114 O115 1.273 . S
O115 C114 1.273 . S
O116 Zn107 1.977 . S
O116 C109 1.267 . S
C117 O118 1.160 . S
C117 O124 1.185 . S
O118 C117 1.160 . S
O119 Zn120 1.899 . S
O119 C127 1.284 . S
Zn120 O119 1.899 . S
Zn120 O121 2.032 . S
Zn120 O124 2.086 . S
Zn120 O129 1.977 . S
O121 Zn120 2.032 . S
O121 C125 1.278 . S
C122 O123 1.203 . S
C122 O129 1.267 . S
O123 C122 1.203 . S
O124 C117 1.185 . S
O124 Zn120 2.086 . S
C125 O121 1.278 . S
C125 O126 1.211 . S
O126 C125 1.211 . S
C127 O119 1.284 . S
C127 O128 1.273 . S
O128 C127 1.273 . S
O129 Zn120 1.977 . S
O129 C122 1.267 . S
C130 O131 1.160 . S
C130 O137 1.185 . S
O131 C130 1.160 . S
O132 Zn133 1.899 . S
O132 C140 1.284 . S
Zn133 O132 1.899 . S
Zn133 O134 2.032 . S
Zn133 O137 2.086 . S
Zn133 O142 1.977 . S
O134 Zn133 2.032 . S
O134 C138 1.278 . S
C135 O136 1.203 . S
C135 O142 1.267 . S
O136 C135 1.203 . S
O137 C130 1.185 . S
O137 Zn133 2.086 . S
C138 O134 1.278 . S
C138 O139 1.211 . S
O139 C138 1.211 . S
C140 O132 1.284 . S
C140 O141 1.273 . S
O141 C140 1.273 . S
O142 Zn133 1.977 . S
O142 C135 1.267 . S
C143 O144 1.160 . S
C143 O150 1.185 . S
O144 C143 1.160 . S
O145 Zn146 1.899 . S
O145 C153 1.284 . S
Zn146 O145 1.899 . S
Zn146 O147 2.032 . S
Zn146 O150 2.086 . S
Zn146 O155 1.977 . S
O147 Zn146 2.032 . S
O147 C151 1.278 . S
C148 O149 1.203 . S
C148 O155 1.267 . S
O149 C148 1.203 . S
O150 C143 1.185 . S
O150 Zn146 2.086 . S
C151 O147 1.278 . S
C151 O152 1.211 . S
O152 C151 1.211 . S
C153 O145 1.284 . S
C153 O154 1.273 . S
O154 C153 1.273 . S
O155 Zn146 1.977 . S
O155 C148 1.267 . S
C156 O157 1.160 . S
C156 O163 1.185 . S
O157 C156 1.160 . S
O158 Zn159 1.899 . S
O158 C166 1.284 . S
Zn159 O158 1.899 . S
Zn159 O160 2.032 . S
Zn159 O163 2.086 . S
Zn159 O168 1.977 . S
O160 Zn159 2.032 . S
O160 C164 1.278 . S
C161 O162 1.203 . S
C161 O168 1.267 . S
O162 C161 1.203 . S
O163 C156 1.185 . S
O163 Zn159 2.086 . S
C164 O160 1.278 . S
C164 O165 1.211 . S
O165 C164 1.211 . S
C166 O158 1.284 . S
C166 O167 1.273 . S
O167 C166 1.273 . S
O168 Zn159 1.977 . S
O168 C161 1.267 . S
C169 O170 1.160 . S
C169 O176 1.185 . S
O170 C169 1.160 . S
O171 Zn172 1.899 . S
O171 C179 1.284 . S
Zn172 O171 1.899 . S
Zn172 O173 2.032 . S
Zn172 O176 2.086 . S
Zn172 O181 1.977 . S
O173 Zn172 2.032 . S
O173 C177 1.278 . S
C174 O175 1.203 . S
C174 O181 1.267 . S
O175 C174 1.203 . S
O176 C169 1.185 . S
O176 Zn172 2.086 . S
C177 O173 1.278 . S
C177 O178 1.211 . S
O178 C177 1.211 . S
C179 O171 1.284 . S
C179 O180 1.273 . S
O180 C179 1.273 . S
O181 Zn172 1.977 . S
O181 C174 1.267 . S
C182 O183 1.160 . S
C182 O189 1.185 . S
O183 C182 1.160 . S
O184 Zn185 1.899 . S
O184 C192 1.284 . S
Zn185 O184 1.899 . S
Zn185 O186 2.032 . S
Zn185 O189 2.086 . S
Zn185 O194 1.977 . S
O186 Zn185 2.032 . S
O186 C190 1.278 . S
C187 O188 1.203 . S
C187 O194 1.267 . S
O188 C187 1.203 . S
O189 C182 1.185 . S
O189 Zn185 2.086 . S
C190 O186 1.278 . S
C190 O191 1.211 . S
O191 C190 1.211 . S
C192 O184 1.284 . S
C192 O193 1.273 . S
O193 C192 1.273 . S
O194 Zn185 1.977 . S
O194 C187 1.267 . S
C195 O196 1.160 . S
C195 O202 1.185 . S
O196 C195 1.160 . S
O197 Zn198 1.899 . S
O197 C205 1.284 . S
Zn198 O197 1.899 . S
Zn198 O199 2.032 . S
Zn198 O202 2.086 . S
Zn198 O207 1.977 . S
O199 Zn198 2.032 . S
O199 C203 1.278 . S
C200 O201 1.203 . S
C200 O207 1.267 . S
O201 C200 1.203 . S
O202 C195 1.185 . S
O202 Zn198 2.086 . S
C203 O199 1.278 . S
C203 O204 1.211 . S
O204 C203 1.211 . S
C205 O197 1.284 . S
C205 O206 1.273 . S
O206 C205 1.273 . S
O207 Zn198 1.977 . S
O207 C200 1.267 . S
C208 O209 1.160 . S
C208 O215 1.185 . S
O209 C208 1.160 . S
O210 Zn211 1.899 . S
O210 C218 1.284 . S
Zn211 O210 1.899 . S
Zn211 O212 2.032 . S
Zn211 O215 2.086 . S
Zn211 O220 1.977 . S
O212 Zn211 2.032 . S
O212 C216 1.278 . S
C213 O214 1.203 . S
C213 O220 1.267 . S
O214 C213 1.203 . S
O215 C208 1.185 . S
O215 Zn211 2.086 . S
C216 O212 1.278 . S
C216 O217 1.211 . S
O217 C216 1.211 . S
C218 O210 1.284 . S
C218 O219 1.273 . S
O219 C218 1.273 . S
O220 Zn211 1.977 . S
O220 C213 1.267 . S
C221 O222 1.160 . S
C221 O228 1.185 . S
O222 C221 1.160 . S
O223 Zn224 1.899 . S
O223 C231 1.284 . S
Zn224 O223 1.899 . S
Zn224 O225 2.032 . S
Zn224 O228 2.086 . S
Zn224 O233 1.977 . S
O225 Zn224 2.032 . S
O225 C229 1.278 . S
C226 O227 1.203 . S
C226 O233 1.267 . S
O227 C226 1.203 . S
O228 C221 1.185 . S
O228 Zn224 2.086 . S
C229 O225 1.278 . S
C229 O230 1.211 . S
O230 C229 1.211 . S
C231 O223 1.284 . S
C231 O232 1.273 . S
O232 C231 1.273 . S
O233 Zn224 1.977 . S
O233 C226 1.267 . S
C234 O235 1.160 . S
C234 O241 1.185 . S
O235 C234 1.160 . S
O236 Zn237 1.899 . S
O236 C244 1.284 . S
Zn237 O236 1.899 . S
Zn237 O238 2.032 . S
Zn237 O241 2.086 . S
Zn237 O246 1.977 . S
O238 Zn237 2.032 . S
O238 C242 1.278 . S
C239 O240 1.203 . S
C239 O246 1.267 . S
O240 C239 1.203 . S
O241 C234 1.185 . S
O241 Zn237 2.086 . S
C242 O238 1.278 . S
C242 O243 1.211 . S
O243 C242 1.211 . S
C244 O236 1.284 . S
C244 O245 1.273 . S
O245 C244 1.273 . S
O246 Zn237 1.977 . S
O246 C239 1.267 . S
C247 O248 1.160 . S
C247 O254 1.185 . S
O248 C247 1.160 . S
O249 Zn250 1.899 . S
O249 C257 1.284 . S
Zn250 O249 1.899 . S
Zn250 O251 2.032 . S
Zn250 O254 2.086 . S
Zn250 O259 1.977 . S
O251 Zn250 2.032 . S
O251 C255 1.278 . S
C252 O253 1.203 . S
C252 O259 1.267 . S
O253 C252 1.203 . S
O254 C247 1.185 . S
O254 Zn250 2.086 . S
C255 O251 1.278 . S
C255 O256 1.211 . S
O256 C255 1.211 . S
C257 O249 1.284 . S
C257 O258 1.273 . S
O258 C257 1.273 . S
O259 Zn250 1.977 . S
O259 C252 1.267 . S
C260 O261 1.160 . S
C260 O267 1.185 . S
O261 C260 1.160 . S
O262 Zn263 1.899 . S
O262 C270 1.284 . S
Zn263 O262 1.899 . S
Zn263 O264 2.032 . S
Zn263 O267 2.086 . S
Zn263 O272 1.977 . S
O264 Zn263 2.032 . S
O264 C268 1.278 . S
C265 O266 1.203 . S
C265 O272 1.267 . S
O266 C265 1.203 . S
O267 C260 1.185 . S
O267 Zn263 2.086 . S
C268 O264 1.278 . S
C268 O269 1.211 . S
O269 C268 1.211 . S
C270 O262 1.284 . S
C270 O271 1.273 . S
O271 C270 1.273 . S
O272 Zn263 1.977 . S
O272 C265 1.267 . S
C273 O274 1.160 . S
C273 O280 1.185 . S
O274 C273 1.160 . S
O275 Zn276 1.899 . S
O275 C283 1.284 . S
Zn276 O275 1.899 . S
Zn276 O277 2.032 . S
Zn276 O280 2.086 . S
Zn276 O285 1.977 . S
O277 Zn276 2.032 . S
O277 C281 1.278 . S
C278 O279 1.203 . S
C278 O285 1.267 . S
O279 C278 1.203 . S
O280 C273 1.185 . S
O280 Zn276 2.086 . S
C281 O277 1.278 . S
C281 O282 1.211 . S
O282 C281 1.211 . S
C283 O275 1.284 . S
C283 O284 1.273 . S
O284 C283 1.273 . S
O285 Zn276 1.977 . S
O285 C278 1.267 . S
C286 O287 1.160 . S
C286 O293 1.185 . S
O287 C286 1.160 . S
O288 Zn289 1.899 . S
O288 C296 1.284 . S
Zn289 O288 1.899 . S
Zn289 O290 2.032 . S
Zn289 O293 2.086 . S
Zn289 O298 1.977 . S
O290 Zn289 2.032 . S
O290 C294 1.278 . S
C291 O292 1.203 . S
C291 O298 1.267 . S
O292 C291 1.203 . S
O293 C286 1.185 . S
O293 Zn289 2.086 . S
C294 O290 1.278 . S
C294 O295 1.211 . S
O295 C294 1.211 . S
C296 O288 1.284 . S
C296 O297 1.273 . S
O297 C296 1.273 . S
O298 Zn289 1.977 . S
O298 C291 1.267 . S
C299 O300 1.160 . S
C299 O306 1.185 . S
O300 C299 1.160 . S
O301 Zn302 1.899 . S
O301 C309 1.284 . S
Zn302 O301 1.899 . S
Zn302 O303 2.032 . S
Zn302 O306 2.086 . S
Zn302 O311 1.977 . S
O303 Zn302 2.032 . S
O303 C307 1.278 . S
C304 O305 1.203 . S
C304 O311 1.267 . S
O305 C304 1.203 . S
O306 C299 1.185 . S
O306 Zn302 2.086 . S
C307 O303 1.278 . S
C307 O308 1.211 . S
O308 C307 1.211 . S
C309 O301 1.284 . S
C309 O310 1.273 . S
O310 C309 1.273 . S
O311 Zn302 1.977 . S
O311 C304 1.267 . S
H312 C324 0.930 . S
H313 C326 0.930 . S
H314 C327 0.930 . S
H315 C331 0.959 . S
H316 C331 0.959 . S
H317 C331 0.961 . S
H318 C332 0.960 . S
H319 C332 0.961 . S
H320 C332 0.959 . S
H321 C335 0.929 . S
H322 C336 0.931 . S
H323 C338 0.930 . S
C324 H312 0.930 . S
C324 C325 1.399 . S
C324 C329 1.399 . S
C325 C324 1.399 . S
C325 C326 1.376 . S
C326 H313 0.930 . S
C326 C325 1.376 . S
C326 C327 1.388 . S
C327 H314 0.930 . S
C327 C326 1.388 . S
C327 C328 1.390 . S
C328 C327 1.390 . S
C328 C329 1.394 . S
C328 C334 1.465 . S
C329 C324 1.399 . S
C329 C328 1.394 . S
C329 C330 1.516 . S
C330 C329 1.516 . S
C330 C331 1.502 . S
C330 C332 1.561 . S
C330 C333 1.526 . S
C331 H315 0.959 . S
C331 H316 0.959 . S
C331 H317 0.961 . S
C331 C330 1.502 . S
C332 H318 0.960 . S
C332 H319 0.961 . S
C332 H320 0.959 . S
C332 C330 1.561 . S
C333 C330 1.526 . S
C333 C334 1.396 . S
C333 C338 1.390 . S
C334 C328 1.465 . S
C334 C333 1.396 . S
C334 C335 1.399 . S
C335 H321 0.929 . S
C335 C334 1.399 . S
C335 C336 1.385 . S
C336 H322 0.931 . S
C336 C335 1.385 . S
C336 C337 1.389 . S
C337 C336 1.389 . S
C337 C338 1.387 . S
C338 H323 0.930 . S
C338 C333 1.390 . S
C338 C337 1.387 . S
H339 C351 0.930 . S
H340 C353 0.930 . S
H341 C354 0.930 . S
H342 C358 0.959 . S
H343 C358 0.959 . S
H344 C358 0.961 . S
H345 C359 0.960 . S
H346 C359 0.961 . S
H347 C359 0.959 . S
H348 C362 0.929 . S
H349 C363 0.931 . S
H350 C365 0.930 . S
C351 H339 0.930 . S
C351 C352 1.399 . S
C351 C356 1.399 . S
C352 C351 1.399 . S
C352 C353 1.376 . S
C353 H340 0.930 . S
C353 C352 1.376 . S
C353 C354 1.388 . S
C354 H341 0.930 . S
C354 C353 1.388 . S
C354 C355 1.390 . S
C355 C354 1.390 . S
C355 C356 1.394 . S
C355 C361 1.465 . S
C356 C351 1.399 . S
C356 C355 1.394 . S
C356 C357 1.516 . S
C357 C356 1.516 . S
C357 C358 1.502 . S
C357 C359 1.561 . S
C357 C360 1.526 . S
C358 H342 0.959 . S
C358 H343 0.959 . S
C358 H344 0.961 . S
C358 C357 1.502 . S
C359 H345 0.960 . S
C359 H346 0.961 . S
C359 H347 0.959 . S
C359 C357 1.561 . S
C360 C357 1.526 . S
C360 C361 1.396 . S
C360 C365 1.390 . S
C361 C355 1.465 . S
C361 C360 1.396 . S
C361 C362 1.399 . S
C362 H348 0.929 . S
C362 C361 1.399 . S
C362 C363 1.385 . S
C363 H349 0.931 . S
C363 C362 1.385 . S
C363 C364 1.389 . S
C364 C363 1.389 . S
C364 C365 1.387 . S
C365 H350 0.930 . S
C365 C360 1.390 . S
C365 C364 1.387 . S
H366 C378 0.930 . S
H367 C380 0.930 . S
H368 C381 0.930 . S
H369 C385 0.959 . S
H370 C385 0.959 . S
H371 C385 0.961 . S
H372 C386 0.960 . S
H373 C386 0.961 . S
H374 C386 0.959 . S
H375 C389 0.929 . S
H376 C390 0.931 . S
H377 C392 0.930 . S
C378 H366 0.930 . S
C378 C379 1.399 . S
C378 C383 1.399 . S
C379 C378 1.399 . S
C379 C380 1.376 . S
C380 H367 0.930 . S
C380 C379 1.376 . S
C380 C381 1.388 . S
C381 H368 0.930 . S
C381 C380 1.388 . S
C381 C382 1.390 . S
C382 C381 1.390 . S
C382 C383 1.394 . S
C382 C388 1.465 . S
C383 C378 1.399 . S
C383 C382 1.394 . S
C383 C384 1.516 . S
C384 C383 1.516 . S
C384 C385 1.502 . S
C384 C386 1.561 . S
C384 C387 1.526 . S
C385 H369 0.959 . S
C385 H370 0.959 . S
C385 H371 0.961 . S
C385 C384 1.502 . S
C386 H372 0.960 . S
C386 H373 0.961 . S
C386 H374 0.959 . S
C386 C384 1.561 . S
C387 C384 1.526 . S
C387 C388 1.396 . S
C387 C392 1.390 . S
C388 C382 1.465 . S
C388 C387 1.396 . S
C388 C389 1.399 . S
C389 H375 0.929 . S
C389 C388 1.399 . S
C389 C390 1.385 . S
C390 H376 0.931 . S
C390 C389 1.385 . S
C390 C391 1.389 . S
C391 C390 1.389 . S
C391 C392 1.387 . S
C392 H377 0.930 . S
C392 C387 1.390 . S
C392 C391 1.387 . S
H393 C405 0.930 . S
H394 C407 0.930 . S
H395 C408 0.930 . S
H396 C412 0.959 . S
H397 C412 0.959 . S
H398 C412 0.961 . S
H399 C413 0.960 . S
H400 C413 0.961 . S
H401 C413 0.959 . S
H402 C416 0.929 . S
H403 C417 0.931 . S
H404 C419 0.930 . S
C405 H393 0.930 . S
C405 C406 1.399 . S
C405 C410 1.399 . S
C406 C405 1.399 . S
C406 C407 1.376 . S
C407 H394 0.930 . S
C407 C406 1.376 . S
C407 C408 1.388 . S
C408 H395 0.930 . S
C408 C407 1.388 . S
C408 C409 1.390 . S
C409 C408 1.390 . S
C409 C410 1.394 . S
C409 C415 1.465 . S
C410 C405 1.399 . S
C410 C409 1.394 . S
C410 C411 1.516 . S
C411 C410 1.516 . S
C411 C412 1.502 . S
C411 C413 1.561 . S
C411 C414 1.526 . S
C412 H396 0.959 . S
C412 H397 0.959 . S
C412 H398 0.961 . S
C412 C411 1.502 . S
C413 H399 0.960 . S
C413 H400 0.961 . S
C413 H401 0.959 . S
C413 C411 1.561 . S
C414 C411 1.526 . S
C414 C415 1.396 . S
C414 C419 1.390 . S
C415 C409 1.465 . S
C415 C414 1.396 . S
C415 C416 1.399 . S
C416 H402 0.929 . S
C416 C415 1.399 . S
C416 C417 1.385 . S
C417 H403 0.931 . S
C417 C416 1.385 . S
C417 C418 1.389 . S
C418 C417 1.389 . S
C418 C419 1.387 . S
C419 H404 0.930 . S
C419 C414 1.390 . S
C419 C418 1.387 . S
H420 C432 0.930 . S
H421 C434 0.930 . S
H422 C435 0.930 . S
H423 C439 0.959 . S
H424 C439 0.959 . S
H425 C439 0.961 . S
H426 C440 0.960 . S
H427 C440 0.961 . S
H428 C440 0.959 . S
H429 C443 0.929 . S
H430 C444 0.931 . S
H431 C446 0.930 . S
C432 H420 0.930 . S
C432 C433 1.399 . S
C432 C437 1.399 . S
C433 C432 1.399 . S
C433 C434 1.376 . S
C434 H421 0.930 . S
C434 C433 1.376 . S
C434 C435 1.388 . S
C435 H422 0.930 . S
C435 C434 1.388 . S
C435 C436 1.390 . S
C436 C435 1.390 . S
C436 C437 1.394 . S
C436 C442 1.465 . S
C437 C432 1.399 . S
C437 C436 1.394 . S
C437 C438 1.516 . S
C438 C437 1.516 . S
C438 C439 1.502 . S
C438 C440 1.561 . S
C438 C441 1.526 . S
C439 H423 0.959 . S
C439 H424 0.959 . S
C439 H425 0.961 . S
C439 C438 1.502 . S
C440 H426 0.960 . S
C440 H427 0.961 . S
C440 H428 0.959 . S
C440 C438 1.561 . S
C441 C438 1.526 . S
C441 C442 1.396 . S
C441 C446 1.390 . S
C442 C436 1.465 . S
C442 C441 1.396 . S
C442 C443 1.399 . S
C443 H429 0.929 . S
C443 C442 1.399 . S
C443 C444 1.385 . S
C444 H430 0.931 . S
C444 C443 1.385 . S
C444 C445 1.389 . S
C445 C444 1.389 . S
C445 C446 1.387 . S
C446 H431 0.930 . S
C446 C441 1.390 . S
C446 C445 1.387 . S
H447 C459 0.930 . S
H448 C461 0.930 . S
H449 C462 0.930 . S
H450 C466 0.959 . S
H451 C466 0.959 . S
H452 C466 0.961 . S
H453 C467 0.960 . S
H454 C467 0.961 . S
H455 C467 0.959 . S
H456 C470 0.929 . S
H457 C471 0.931 . S
H458 C473 0.930 . S
C459 H447 0.930 . S
C459 C460 1.399 . S
C459 C464 1.399 . S
C460 C459 1.399 . S
C460 C461 1.376 . S
C461 H448 0.930 . S
C461 C460 1.376 . S
C461 C462 1.388 . S
C462 H449 0.930 . S
C462 C461 1.388 . S
C462 C463 1.390 . S
C463 C462 1.390 . S
C463 C464 1.394 . S
C463 C469 1.465 . S
C464 C459 1.399 . S
C464 C463 1.394 . S
C464 C465 1.516 . S
C465 C464 1.516 . S
C465 C466 1.502 . S
C465 C467 1.561 . S
C465 C468 1.526 . S
C466 H450 0.959 . S
C466 H451 0.959 . S
C466 H452 0.961 . S
C466 C465 1.502 . S
C467 H453 0.960 . S
C467 H454 0.961 . S
C467 H455 0.959 . S
C467 C465 1.561 . S
C468 C465 1.526 . S
C468 C469 1.396 . S
C468 C473 1.390 . S
C469 C463 1.465 . S
C469 C468 1.396 . S
C469 C470 1.399 . S
C470 H456 0.929 . S
C470 C469 1.399 . S
C470 C471 1.385 . S
C471 H457 0.931 . S
C471 C470 1.385 . S
C471 C472 1.389 . S
C472 C471 1.389 . S
C472 C473 1.387 . S
C473 H458 0.930 . S
C473 C468 1.390 . S
C473 C472 1.387 . S
H474 C486 0.930 . S
H475 C488 0.930 . S
H476 C489 0.930 . S
H477 C493 0.959 . S
H478 C493 0.959 . S
H479 C493 0.961 . S
H480 C494 0.960 . S
H481 C494 0.961 . S
H482 C494 0.959 . S
H483 C497 0.929 . S
H484 C498 0.931 . S
H485 C500 0.930 . S
C486 H474 0.930 . S
C486 C487 1.399 . S
C486 C491 1.399 . S
C487 C486 1.399 . S
C487 C488 1.376 . S
C488 H475 0.930 . S
C488 C487 1.376 . S
C488 C489 1.388 . S
C489 H476 0.930 . S
C489 C488 1.388 . S
C489 C490 1.390 . S
C490 C489 1.390 . S
C490 C491 1.394 . S
C490 C496 1.465 . S
C491 C486 1.399 . S
C491 C490 1.394 . S
C491 C492 1.516 . S
C492 C491 1.516 . S
C492 C493 1.502 . S
C492 C494 1.561 . S
C492 C495 1.526 . S
C493 H477 0.959 . S
C493 H478 0.959 . S
C493 H479 0.961 . S
C493 C492 1.502 . S
C494 H480 0.960 . S
C494 H481 0.961 . S
C494 H482 0.959 . S
C494 C492 1.561 . S
C495 C492 1.526 . S
C495 C496 1.396 . S
C495 C500 1.390 . S
C496 C490 1.465 . S
C496 C495 1.396 . S
C496 C497 1.399 . S
C497 H483 0.929 . S
C497 C496 1.399 . S
C497 C498 1.385 . S
C498 H484 0.931 . S
C498 C497 1.385 . S
C498 C499 1.389 . S
C499 C498 1.389 . S
C499 C500 1.387 . S
C500 H485 0.930 . S
C500 C495 1.390 . S
C500 C499 1.387 . S
H501 C513 0.930 . S
H502 C515 0.930 . S
H503 C516 0.930 . S
H504 C520 0.959 . S
H505 C520 0.959 . S
H506 C520 0.961 . S
H507 C521 0.960 . S
H508 C521 0.961 . S
H509 C521 0.959 . S
H510 C524 0.929 . S
H511 C525 0.931 . S
H512 C527 0.930 . S
C513 H501 0.930 . S
C513 C514 1.399 . S
C513 C518 1.399 . S
C514 C513 1.399 . S
C514 C515 1.376 . S
C515 H502 0.930 . S
C515 C514 1.376 . S
C515 C516 1.388 . S
C516 H503 0.930 . S
C516 C515 1.388 . S
C516 C517 1.390 . S
C517 C516 1.390 . S
C517 C518 1.394 . S
C517 C523 1.465 . S
C518 C513 1.399 . S
C518 C517 1.394 . S
C518 C519 1.516 . S
C519 C518 1.516 . S
C519 C520 1.502 . S
C519 C521 1.561 . S
C519 C522 1.526 . S
C520 H504 0.959 . S
C520 H505 0.959 . S
C520 H506 0.961 . S
C520 C519 1.502 . S
C521 H507 0.960 . S
C521 H508 0.961 . S
C521 H509 0.959 . S
C521 C519 1.561 . S
C522 C519 1.526 . S
C522 C523 1.396 . S
C522 C527 1.390 . S
C523 C517 1.465 . S
C523 C522 1.396 . S
C523 C524 1.399 . S
C524 H510 0.929 . S
C524 C523 1.399 . S
C524 C525 1.385 . S
C525 H511 0.931 . S
C525 C524 1.385 . S
C525 C526 1.389 . S
C526 C525 1.389 . S
C526 C527 1.387 . S
C527 H512 0.930 . S
C527 C522 1.390 . S
C527 C526 1.387 . S
H528 C540 0.930 . S
H529 C542 0.930 . S
H530 C543 0.930 . S
H531 C547 0.959 . S
H532 C547 0.959 . S
H533 C547 0.961 . S
H534 C548 0.960 . S
H535 C548 0.961 . S
H536 C548 0.959 . S
H537 C551 0.929 . S
H538 C552 0.931 . S
H539 C554 0.930 . S
C540 H528 0.930 . S
C540 C541 1.399 . S
C540 C545 1.399 . S
C541 C540 1.399 . S
C541 C542 1.376 . S
C542 H529 0.930 . S
C542 C541 1.376 . S
C542 C543 1.388 . S
C543 H530 0.930 . S
C543 C542 1.388 . S
C543 C544 1.390 . S
C544 C543 1.390 . S
C544 C545 1.394 . S
C544 C550 1.465 . S
C545 C540 1.399 . S
C545 C544 1.394 . S
C545 C546 1.516 . S
C546 C545 1.516 . S
C546 C547 1.502 . S
C546 C548 1.561 . S
C546 C549 1.526 . S
C547 H531 0.959 . S
C547 H532 0.959 . S
C547 H533 0.961 . S
C547 C546 1.502 . S
C548 H534 0.960 . S
C548 H535 0.961 . S
C548 H536 0.959 . S
C548 C546 1.561 . S
C549 C546 1.526 . S
C549 C550 1.396 . S
C549 C554 1.390 . S
C550 C544 1.465 . S
C550 C549 1.396 . S
C550 C551 1.399 . S
C551 H537 0.929 . S
C551 C550 1.399 . S
C551 C552 1.385 . S
C552 H538 0.931 . S
C552 C551 1.385 . S
C552 C553 1.389 . S
C553 C552 1.389 . S
C553 C554 1.387 . S
C554 H539 0.930 . S
C554 C549 1.390 . S
C554 C553 1.387 . S
H555 C567 0.930 . S
H556 C569 0.930 . S
H557 C570 0.930 . S
H558 C574 0.959 . S
H559 C574 0.959 . S
H560 C574 0.961 . S
H561 C575 0.960 . S
H562 C575 0.961 . S
H563 C575 0.959 . S
H564 C578 0.929 . S
H565 C579 0.931 . S
H566 C581 0.930 . S
C567 H555 0.930 . S
C567 C568 1.399 . S
C567 C572 1.399 . S
C568 C567 1.399 . S
C568 C569 1.376 . S
C569 H556 0.930 . S
C569 C568 1.376 . S
C569 C570 1.388 . S
C570 H557 0.930 . S
C570 C569 1.388 . S
C570 C571 1.390 . S
C571 C570 1.390 . S
C571 C572 1.394 . S
C571 C577 1.465 . S
C572 C567 1.399 . S
C572 C571 1.394 . S
C572 C573 1.516 . S
C573 C572 1.516 . S
C573 C574 1.502 . S
C573 C575 1.561 . S
C573 C576 1.526 . S
C574 H558 0.959 . S
C574 H559 0.959 . S
C574 H560 0.961 . S
C574 C573 1.502 . S
C575 H561 0.960 . S
C575 H562 0.961 . S
C575 H563 0.959 . S
C575 C573 1.561 . S
C576 C573 1.526 . S
C576 C577 1.396 . S
C576 C581 1.390 . S
C577 C571 1.465 . S
C577 C576 1.396 . S
C577 C578 1.399 . S
C578 H564 0.929 . S
C578 C577 1.399 . S
C578 C579 1.385 . S
C579 H565 0.931 . S
C579 C578 1.385 . S
C579 C580 1.389 . S
C580 C579 1.389 . S
C580 C581 1.387 . S
C581 H566 0.930 . S
C581 C576 1.390 . S
C581 C580 1.387 . S
H582 C594 0.930 . S
H583 C596 0.930 . S
H584 C597 0.930 . S
H585 C601 0.959 . S
H586 C601 0.959 . S
H587 C601 0.961 . S
H588 C602 0.960 . S
H589 C602 0.961 . S
H590 C602 0.959 . S
H591 C605 0.929 . S
H592 C606 0.931 . S
H593 C608 0.930 . S
C594 H582 0.930 . S
C594 C595 1.399 . S
C594 C599 1.399 . S
C595 C594 1.399 . S
C595 C596 1.376 . S
C596 H583 0.930 . S
C596 C595 1.376 . S
C596 C597 1.388 . S
C597 H584 0.930 . S
C597 C596 1.388 . S
C597 C598 1.390 . S
C598 C597 1.390 . S
C598 C599 1.394 . S
C598 C604 1.465 . S
C599 C594 1.399 . S
C599 C598 1.394 . S
C599 C600 1.516 . S
C600 C599 1.516 . S
C600 C601 1.502 . S
C600 C602 1.561 . S
C600 C603 1.526 . S
C601 H585 0.959 . S
C601 H586 0.959 . S
C601 H587 0.961 . S
C601 C600 1.502 . S
C602 H588 0.960 . S
C602 H589 0.961 . S
C602 H590 0.959 . S
C602 C600 1.561 . S
C603 C600 1.526 . S
C603 C604 1.396 . S
C603 C608 1.390 . S
C604 C598 1.465 . S
C604 C603 1.396 . S
C604 C605 1.399 . S
C605 H591 0.929 . S
C605 C604 1.399 . S
C605 C606 1.385 . S
C606 H592 0.931 . S
C606 C605 1.385 . S
C606 C607 1.389 . S
C607 C606 1.389 . S
C607 C608 1.387 . S
C608 H593 0.930 . S
C608 C603 1.390 . S
C608 C607 1.387 . S
H609 C621 0.930 . S
H610 C623 0.930 . S
H611 C624 0.930 . S
H612 C628 0.959 . S
H613 C628 0.959 . S
H614 C628 0.961 . S
H615 C629 0.960 . S
H616 C629 0.961 . S
H617 C629 0.959 . S
H618 C632 0.929 . S
H619 C633 0.931 . S
H620 C635 0.930 . S
C621 H609 0.930 . S
C621 C622 1.399 . S
C621 C626 1.399 . S
C622 C621 1.399 . S
C622 C623 1.376 . S
C623 H610 0.930 . S
C623 C622 1.376 . S
C623 C624 1.388 . S
C624 H611 0.930 . S
C624 C623 1.388 . S
C624 C625 1.390 . S
C625 C624 1.390 . S
C625 C626 1.394 . S
C625 C631 1.465 . S
C626 C621 1.399 . S
C626 C625 1.394 . S
C626 C627 1.516 . S
C627 C626 1.516 . S
C627 C628 1.502 . S
C627 C629 1.561 . S
C627 C630 1.526 . S
C628 H612 0.959 . S
C628 H613 0.959 . S
C628 H614 0.961 . S
C628 C627 1.502 . S
C629 H615 0.960 . S
C629 H616 0.961 . S
C629 H617 0.959 . S
C629 C627 1.561 . S
C630 C627 1.526 . S
C630 C631 1.396 . S
C630 C635 1.390 . S
C631 C625 1.465 . S
C631 C630 1.396 . S
C631 C632 1.399 . S
C632 H618 0.929 . S
C632 C631 1.399 . S
C632 C633 1.385 . S
C633 H619 0.931 . S
C633 C632 1.385 . S
C633 C634 1.389 . S
C634 C633 1.389 . S
C634 C635 1.387 . S
C635 H620 0.930 . S
C635 C630 1.390 . S
C635 C634 1.387 . S
H636 C648 0.930 . S
H637 C650 0.930 . S
H638 C651 0.930 . S
H639 C655 0.959 . S
H640 C655 0.959 . S
H641 C655 0.961 . S
H642 C656 0.960 . S
H643 C656 0.961 . S
H644 C656 0.959 . S
H645 C659 0.929 . S
H646 C660 0.931 . S
H647 C662 0.930 . S
C648 H636 0.930 . S
C648 C649 1.399 . S
C648 C653 1.399 . S
C649 C648 1.399 . S
C649 C650 1.376 . S
C650 H637 0.930 . S
C650 C649 1.376 . S
C650 C651 1.388 . S
C651 H638 0.930 . S
C651 C650 1.388 . S
C651 C652 1.390 . S
C652 C651 1.390 . S
C652 C653 1.394 . S
C652 C658 1.465 1_556 S
C653 C648 1.399 . S
C653 C652 1.394 . S
C653 C654 1.516 1_556 S
C654 C653 1.516 1_554 S
C654 C655 1.502 1_554 S
C654 C656 1.561 . S
C654 C657 1.526 . S
C655 H639 0.959 . S
C655 H640 0.959 . S
C655 H641 0.961 . S
C655 C654 1.502 1_556 S
C656 H642 0.960 . S
C656 H643 0.961 . S
C656 H644 0.959 . S
C656 C654 1.561 . S
C657 C654 1.526 . S
C657 C658 1.396 . S
C657 C662 1.390 . S
C658 C652 1.465 1_554 S
C658 C657 1.396 . S
C658 C659 1.399 . S
C659 H645 0.929 . S
C659 C658 1.399 . S
C659 C660 1.385 . S
C660 H646 0.931 . S
C660 C659 1.385 . S
C660 C661 1.389 . S
C661 C660 1.389 . S
C661 C662 1.387 . S
C662 H647 0.930 . S
C662 C657 1.390 . S
C662 C661 1.387 . S
H663 C675 0.930 . S
H664 C677 0.930 . S
H665 C678 0.930 . S
H666 C682 0.959 . S
H667 C682 0.959 . S
H668 C682 0.961 . S
H669 C683 0.960 . S
H670 C683 0.961 . S
H671 C683 0.959 . S
H672 C686 0.929 . S
H673 C687 0.931 . S
H674 C689 0.930 . S
C675 H663 0.930 . S
C675 C676 1.399 . S
C675 C680 1.399 . S
C676 C675 1.399 . S
C676 C677 1.376 . S
C677 H664 0.930 . S
C677 C676 1.376 . S
C677 C678 1.388 . S
C678 H665 0.930 . S
C678 C677 1.388 . S
C678 C679 1.390 . S
C679 C678 1.390 . S
C679 C680 1.394 . S
C679 C685 1.465 . S
C680 C675 1.399 . S
C680 C679 1.394 . S
C680 C681 1.516 . S
C681 C680 1.516 . S
C681 C682 1.502 . S
C681 C683 1.561 . S
C681 C684 1.526 . S
C682 H666 0.959 . S
C682 H667 0.959 . S
C682 H668 0.961 . S
C682 C681 1.502 . S
C683 H669 0.960 . S
C683 H670 0.961 . S
C683 H671 0.959 . S
C683 C681 1.561 . S
C684 C681 1.526 . S
C684 C685 1.396 . S
C684 C689 1.390 . S
C685 C679 1.465 . S
C685 C684 1.396 . S
C685 C686 1.399 . S
C686 H672 0.929 . S
C686 C685 1.399 . S
C686 C687 1.385 . S
C687 H673 0.931 . S
C687 C686 1.385 . S
C687 C688 1.389 . S
C688 C687 1.389 . S
C688 C689 1.387 . S
C689 H674 0.930 . S
C689 C684 1.390 . S
C689 C688 1.387 . S
H690 C702 0.930 1_556 S
H691 C704 0.930 . S
H692 C705 0.930 . S
H693 C709 0.959 . S
H694 C709 0.959 . S
H695 C709 0.961 . S
H696 C710 0.960 . S
H697 C710 0.961 . S
H698 C710 0.959 . S
H699 C713 0.929 . S
H700 C714 0.931 . S
H701 C716 0.930 . S
C702 H690 0.930 1_554 S
C702 C703 1.399 . S
C702 C707 1.399 1_554 S
C703 C702 1.399 . S
C703 C704 1.376 . S
C704 H691 0.930 . S
C704 C703 1.376 . S
C704 C705 1.388 . S
C705 H692 0.930 . S
C705 C704 1.388 . S
C705 C706 1.390 . S
C706 C705 1.390 . S
C706 C707 1.394 1_554 S
C706 C712 1.465 . S
C707 C702 1.399 1_556 S
C707 C706 1.394 1_556 S
C707 C708 1.516 . S
C708 C707 1.516 . S
C708 C709 1.502 . S
C708 C710 1.561 . S
C708 C711 1.526 . S
C709 H693 0.959 . S
C709 H694 0.959 . S
C709 H695 0.961 . S
C709 C708 1.502 . S
C710 H696 0.960 . S
C710 H697 0.961 . S
C710 H698 0.959 . S
C710 C708 1.561 . S
C711 C708 1.526 . S
C711 C712 1.396 1_556 S
C711 C716 1.390 . S
C712 C706 1.465 . S
C712 C711 1.396 1_554 S
C712 C713 1.399 . S
C713 H699 0.929 . S
C713 C712 1.399 . S
C713 C714 1.385 . S
C714 H700 0.931 . S
C714 C713 1.385 . S
C714 C715 1.389 1_554 S
C715 C714 1.389 1_556 S
C715 C716 1.387 . S
C716 H701 0.930 . S
C716 C711 1.390 . S
C716 C715 1.387 . S
H717 C729 0.930 . S
H718 C731 0.930 . S
H719 C732 0.930 . S
H720 C736 0.959 . S
H721 C736 0.959 . S
H722 C736 0.961 . S
H723 C737 0.960 . S
H724 C737 0.961 . S
H725 C737 0.959 . S
H726 C740 0.929 . S
H727 C741 0.931 . S
H728 C743 0.930 . S
C729 H717 0.930 . S
C729 C730 1.399 . S
C729 C734 1.399 . S
C730 C729 1.399 . S
C730 C731 1.376 . S
C731 H718 0.930 . S
C731 C730 1.376 . S
C731 C732 1.388 . S
C732 H719 0.930 . S
C732 C731 1.388 . S
C732 C733 1.390 . S
C733 C732 1.390 . S
C733 C734 1.394 . S
C733 C739 1.465 . S
C734 C729 1.399 . S
C734 C733 1.394 . S
C734 C735 1.516 . S
C735 C734 1.516 . S
C735 C736 1.502 . S
C735 C737 1.561 . S
C735 C738 1.526 . S
C736 H720 0.959 . S
C736 H721 0.959 . S
C736 H722 0.961 . S
C736 C735 1.502 . S
C737 H723 0.960 . S
C737 H724 0.961 . S
C737 H725 0.959 . S
C737 C735 1.561 . S
C738 C735 1.526 . S
C738 C739 1.396 . S
C738 C743 1.390 . S
C739 C733 1.465 . S
C739 C738 1.396 . S
C739 C740 1.399 . S
C740 H726 0.929 . S
C740 C739 1.399 . S
C740 C741 1.385 . S
C741 H727 0.931 . S
C741 C740 1.385 . S
C741 C742 1.389 . S
C742 C741 1.389 . S
C742 C743 1.387 . S
C743 H728 0.930 . S
C743 C738 1.390 . S
C743 C742 1.387 . S
H744 C756 0.930 1_554 S
H745 C758 0.930 . S
H746 C759 0.930 . S
H747 C763 0.959 . S
H748 C763 0.959 . S
H749 C763 0.961 . S
H750 C764 0.960 . S
H751 C764 0.961 . S
H752 C764 0.959 . S
H753 C767 0.929 . S
H754 C768 0.931 1_556 S
H755 C770 0.930 . S
C756 H744 0.930 1_556 S
C756 C757 1.399 . S
C756 C761 1.399 1_556 S
C757 C756 1.399 . S
C757 C758 1.376 . S
C758 H745 0.930 . S
C758 C757 1.376 . S
C758 C759 1.388 . S
C759 H746 0.930 . S
C759 C758 1.388 . S
C759 C760 1.390 . S
C760 C759 1.390 . S
C760 C761 1.394 1_556 S
C760 C766 1.465 . S
C761 C756 1.399 1_554 S
C761 C760 1.394 1_554 S
C761 C762 1.516 . S
C762 C761 1.516 . S
C762 C763 1.502 . S
C762 C764 1.561 . S
C762 C765 1.526 . S
C763 H747 0.959 . S
C763 H748 0.959 . S
C763 H749 0.961 . S
C763 C762 1.502 . S
C764 H750 0.960 . S
C764 H751 0.961 . S
C764 H752 0.959 . S
C764 C762 1.561 . S
C765 C762 1.526 . S
C765 C766 1.396 1_554 S
C765 C770 1.390 . S
C766 C760 1.465 . S
C766 C765 1.396 1_556 S
C766 C767 1.399 . S
C767 H753 0.929 . S
C767 C766 1.399 . S
C767 C768 1.385 1_556 S
C768 H754 0.931 1_554 S
C768 C767 1.385 1_554 S
C768 C769 1.389 . S
C769 C768 1.389 . S
C769 C770 1.387 . S
C770 H755 0.930 . S
C770 C765 1.390 . S
C770 C769 1.387 . S
H771 C783 0.930 . S
H772 C785 0.930 . S
H773 C786 0.930 . S
H774 C790 0.959 . S
H775 C790 0.959 . S
H776 C790 0.961 . S
H777 C791 0.960 . S
H778 C791 0.961 . S
H779 C791 0.959 . S
H780 C794 0.929 . S
H781 C795 0.931 . S
H782 C797 0.930 . S
C783 H771 0.930 . S
C783 C784 1.399 . S
C783 C788 1.399 . S
C784 C783 1.399 . S
C784 C785 1.376 . S
C785 H772 0.930 . S
C785 C784 1.376 . S
C785 C786 1.388 . S
C786 H773 0.930 . S
C786 C785 1.388 . S
C786 C787 1.390 . S
C787 C786 1.390 . S
C787 C788 1.394 . S
C787 C793 1.465 . S
C788 C783 1.399 . S
C788 C787 1.394 . S
C788 C789 1.516 . S
C789 C788 1.516 . S
C789 C790 1.502 . S
C789 C791 1.561 . S
C789 C792 1.526 . S
C790 H774 0.959 . S
C790 H775 0.959 . S
C790 H776 0.961 . S
C790 C789 1.502 . S
C791 H777 0.960 . S
C791 H778 0.961 . S
C791 H779 0.959 . S
C791 C789 1.561 . S
C792 C789 1.526 . S
C792 C793 1.396 . S
C792 C797 1.390 . S
C793 C787 1.465 . S
C793 C792 1.396 . S
C793 C794 1.399 . S
C794 H780 0.929 . S
C794 C793 1.399 . S
C794 C795 1.385 . S
C795 H781 0.931 . S
C795 C794 1.385 . S
C795 C796 1.389 . S
C796 C795 1.389 . S
C796 C797 1.387 . S
C797 H782 0.930 . S
C797 C792 1.390 . S
C797 C796 1.387 . S
H798 C810 0.930 . S
H799 C812 0.930 . S
H800 C813 0.930 . S
H801 C817 0.959 . S
H802 C817 0.959 . S
H803 C817 0.961 . S
H804 C818 0.960 . S
H805 C818 0.961 . S
H806 C818 0.959 . S
H807 C821 0.929 . S
H808 C822 0.931 . S
H809 C824 0.930 . S
C810 H798 0.930 . S
C810 C811 1.399 . S
C810 C815 1.399 . S
C811 C810 1.399 . S
C811 C812 1.376 . S
C812 H799 0.930 . S
C812 C811 1.376 . S
C812 C813 1.388 . S
C813 H800 0.930 . S
C813 C812 1.388 . S
C813 C814 1.390 . S
C814 C813 1.390 . S
C814 C815 1.394 . S
C814 C820 1.465 1_554 S
C815 C810 1.399 . S
C815 C814 1.394 . S
C815 C816 1.511 1_554 S
C816 C815 1.511 1_556 S
C816 C817 1.515 . S
C816 C818 1.548 1_556 S
C816 C819 1.530 . S
C817 H801 0.959 . S
C817 H802 0.959 . S
C817 H803 0.961 . S
C817 C816 1.515 . S
C818 H804 0.960 . S
C818 H805 0.961 . S
C818 H806 0.959 . S
C818 C816 1.548 1_554 S
C819 C816 1.530 . S
C819 C820 1.396 . S
C819 C824 1.390 . S
C820 C814 1.465 1_556 S
C820 C819 1.396 . S
C820 C821 1.399 . S
C821 H807 0.929 . S
C821 C820 1.399 . S
C821 C822 1.385 . S
C822 H808 0.931 . S
C822 C821 1.385 . S
C822 C823 1.389 . S
C823 C822 1.389 . S
C823 C824 1.387 . S
C824 H809 0.930 . S
C824 C819 1.390 . S
C824 C823 1.387 . S
H825 C837 0.930 . S
H826 C839 0.930 . S
H827 C840 0.930 . S
H828 C844 0.959 . S
H829 C844 0.959 . S
H830 C844 0.961 . S
H831 C845 0.960 . S
H832 C845 0.961 . S
H833 C845 0.959 . S
H834 C848 0.929 . S
H835 C849 0.931 . S
H836 C851 0.930 . S
C837 H825 0.930 . S
C837 C838 1.399 . S
C837 C842 1.399 . S
C838 C837 1.399 . S
C838 C839 1.376 . S
C839 H826 0.930 . S
C839 C838 1.376 . S
C839 C840 1.388 . S
C840 H827 0.930 . S
C840 C839 1.388 . S
C840 C841 1.390 . S
C841 C840 1.390 . S
C841 C842 1.394 . S
C841 C847 1.465 . S
C842 C837 1.399 . S
C842 C841 1.394 . S
C842 C843 1.516 . S
C843 C842 1.516 . S
C843 C844 1.502 . S
C843 C845 1.561 . S
C843 C846 1.526 . S
C844 H828 0.959 . S
C844 H829 0.959 . S
C844 H830 0.961 . S
C844 C843 1.502 . S
C845 H831 0.960 . S
C845 H832 0.961 . S
C845 H833 0.959 . S
C845 C843 1.561 . S
C846 C843 1.526 . S
C846 C847 1.396 . S
C846 C851 1.390 . S
C847 C841 1.465 . S
C847 C846 1.396 . S
C847 C848 1.399 . S
C848 H834 0.929 . S
C848 C847 1.399 . S
C848 C849 1.385 . S
C849 H835 0.931 . S
C849 C848 1.385 . S
C849 C850 1.389 . S
C850 C849 1.389 . S
C850 C851 1.387 . S
C851 H836 0.930 . S
C851 C846 1.390 . S
C851 C850 1.387 . S
H852 C864 0.930 . S
H853 C866 0.919 1_554 S
H854 C867 0.930 . S
H855 C871 0.959 . S
H856 C871 0.959 . S
H857 C871 0.961 . S
H858 C872 0.960 . S
H859 C872 0.961 . S
H860 C872 0.959 . S
H861 C875 0.929 . S
H862 C876 0.931 . S
H863 C878 0.930 1_556 S
C864 H852 0.930 . S
C864 C865 1.399 . S
C864 C869 1.399 . S
C865 C864 1.399 . S
C865 C866 1.407 . S
C866 H853 0.919 1_556 S
C866 C865 1.407 . S
C866 C867 1.370 1_556 S
C867 H854 0.930 . S
C867 C866 1.370 1_554 S
C867 C868 1.390 . S
C868 C867 1.390 . S
C868 C869 1.394 1_554 S
C868 C874 1.465 . S
C869 C864 1.399 . S
C869 C868 1.394 1_556 S
C869 C870 1.516 . S
C870 C869 1.516 . S
C870 C871 1.502 . S
C870 C872 1.561 . S
C870 C873 1.526 . S
C871 H855 0.959 . S
C871 H856 0.959 . S
C871 H857 0.961 . S
C871 C870 1.502 . S
C872 H858 0.960 . S
C872 H859 0.961 . S
C872 H860 0.959 . S
C872 C870 1.561 . S
C873 C870 1.526 . S
C873 C874 1.396 1_556 S
C873 C878 1.390 1_556 S
C874 C868 1.465 . S
C874 C873 1.396 1_554 S
C874 C875 1.399 . S
C875 H861 0.929 . S
C875 C874 1.399 . S
C875 C876 1.385 . S
C876 H862 0.931 . S
C876 C875 1.385 . S
C876 C877 1.389 . S
C877 C876 1.389 . S
C877 C878 1.387 . S
C878 H863 0.930 1_554 S
C878 C873 1.390 1_554 S
C878 C877 1.387 . S
H879 C891 0.930 . S
H880 C893 0.930 . S
H881 C894 0.930 . S
H882 C898 0.959 . S
H883 C898 0.959 . S
H884 C898 0.961 . S
H885 C899 0.960 . S
H886 C899 0.961 . S
H887 C899 0.959 . S
H888 C902 0.929 . S
H889 C903 0.931 . S
H890 C905 0.930 . S
C891 H879 0.930 . S
C891 C892 1.399 . S
C891 C896 1.399 . S
C892 C891 1.399 . S
C892 C893 1.376 . S
C893 H880 0.930 . S
C893 C892 1.376 . S
C893 C894 1.388 . S
C894 H881 0.930 . S
C894 C893 1.388 . S
C894 C895 1.390 . S
C895 C894 1.390 . S
C895 C896 1.394 . S
C895 C901 1.465 . S
C896 C891 1.399 . S
C896 C895 1.394 . S
C896 C897 1.516 . S
C897 C896 1.516 . S
C897 C898 1.502 . S
C897 C899 1.561 . S
C897 C900 1.526 . S
C898 H882 0.959 . S
C898 H883 0.959 . S
C898 H884 0.961 . S
C898 C897 1.502 . S
C899 H885 0.960 . S
C899 H886 0.961 . S
C899 H887 0.959 . S
C899 C897 1.561 . S
C900 C897 1.526 . S
C900 C901 1.396 . S
C900 C905 1.390 . S
C901 C895 1.465 . S
C901 C900 1.396 . S
C901 C902 1.399 . S
C902 H888 0.929 . S
C902 C901 1.399 . S
C902 C903 1.385 . S
C903 H889 0.931 . S
C903 C902 1.385 . S
C903 C904 1.389 . S
C904 C903 1.389 . S
C904 C905 1.387 . S
C905 H890 0.930 . S
C905 C900 1.390 . S
C905 C904 1.387 . S
H906 C918 0.930 1_554 S
H907 C920 0.930 . S
H908 C921 0.930 . S
H909 C925 0.959 . S
H910 C925 0.959 . S
H911 C925 0.961 . S
H912 C926 0.960 . S
H913 C926 0.961 . S
H914 C926 0.959 . S
H915 C929 0.929 . S
H916 C930 0.931 . S
H917 C932 0.930 . S
C918 H906 0.930 1_556 S
C918 C919 1.399 . S
C918 C923 1.399 1_556 S
C919 C918 1.399 . S
C919 C920 1.376 . S
C920 H907 0.930 . S
C920 C919 1.376 . S
C920 C921 1.388 . S
C921 H908 0.930 . S
C921 C920 1.388 . S
C921 C922 1.390 . S
C922 C921 1.390 . S
C922 C923 1.394 1_556 S
C922 C928 1.465 . S
C923 C918 1.399 1_554 S
C923 C922 1.394 1_554 S
C923 C924 1.516 . S
C924 C923 1.516 . S
C924 C925 1.502 . S
C924 C926 1.561 . S
C924 C927 1.526 . S
C925 H909 0.959 . S
C925 H910 0.959 . S
C925 H911 0.961 . S
C925 C924 1.502 . S
C926 H912 0.960 . S
C926 H913 0.961 . S
C926 H914 0.959 . S
C926 C924 1.561 . S
C927 C924 1.526 . S
C927 C928 1.396 1_554 S
C927 C932 1.390 . S
C928 C922 1.465 . S
C928 C927 1.396 1_556 S
C928 C929 1.399 . S
C929 H915 0.929 . S
C929 C928 1.399 . S
C929 C930 1.385 . S
C930 H916 0.931 . S
C930 C929 1.385 . S
C930 C931 1.389 1_556 S
C931 C930 1.389 1_554 S
C931 C932 1.387 . S
C932 H917 0.930 . S
C932 C927 1.390 . S
C932 C931 1.387 . S
H933 C945 0.930 . S
H934 C947 0.930 . S
H935 C948 0.930 . S
H936 C952 0.959 . S
H937 C952 0.959 . S
H938 C952 0.961 . S
H939 C953 0.960 . S
H940 C953 0.961 . S
H941 C953 0.959 . S
H942 C956 0.929 . S
H943 C957 0.931 . S
H944 C959 0.930 . S
C945 H933 0.930 . S
C945 C946 1.399 . S
C945 C950 1.399 . S
C946 C945 1.399 . S
C946 C947 1.376 . S
C947 H934 0.930 . S
C947 C946 1.376 . S
C947 C948 1.388 . S
C948 H935 0.930 . S
C948 C947 1.388 . S
C948 C949 1.390 . S
C949 C948 1.390 . S
C949 C950 1.394 . S
C949 C955 1.465 . S
C950 C945 1.399 . S
C950 C949 1.394 . S
C950 C951 1.516 . S
C951 C950 1.516 . S
C951 C952 1.502 . S
C951 C953 1.561 . S
C951 C954 1.526 . S
C952 H936 0.959 . S
C952 H937 0.959 . S
C952 H938 0.961 . S
C952 C951 1.502 . S
C953 H939 0.960 . S
C953 H940 0.961 . S
C953 H941 0.959 . S
C953 C951 1.561 . S
C954 C951 1.526 . S
C954 C955 1.396 . S
C954 C959 1.390 . S
C955 C949 1.465 . S
C955 C954 1.396 . S
C955 C956 1.399 . S
C956 H942 0.929 . S
C956 C955 1.399 . S
C956 C957 1.385 . S
C957 H943 0.931 . S
C957 C956 1.385 . S
C957 C958 1.389 . S
C958 C957 1.389 . S
C958 C959 1.387 . S
C959 H944 0.930 . S
C959 C954 1.390 . S
C959 C958 1.387 . S
H960 C972 0.930 . S
H961 C974 0.930 . S
H962 C975 0.930 . S
H963 C979 0.959 . S
H964 C979 0.959 . S
H965 C979 0.961 . S
H966 C980 0.960 . S
H967 C980 0.961 . S
H968 C980 0.959 . S
H969 C983 0.929 . S
H970 C984 0.931 . S
H971 C986 0.930 . S
C972 H960 0.930 . S
C972 C973 1.399 . S
C972 C977 1.399 . S
C973 C972 1.399 . S
C973 C974 1.376 . S
C974 H961 0.930 . S
C974 C973 1.376 . S
C974 C975 1.388 . S
C975 H962 0.930 . S
C975 C974 1.388 . S
C975 C976 1.390 . S
C976 C975 1.390 . S
C976 C977 1.394 . S
C976 C982 1.465 . S
C977 C972 1.399 . S
C977 C976 1.394 . S
C977 C978 1.516 . S
C978 C977 1.516 . S
C978 C979 1.502 . S
C978 C980 1.561 . S
C978 C981 1.526 . S
C979 H963 0.959 . S
C979 H964 0.959 . S
C979 H965 0.961 . S
C979 C978 1.502 . S
C980 H966 0.960 . S
C980 H967 0.961 . S
C980 H968 0.959 . S
C980 C978 1.561 . S
C981 C978 1.526 . S
C981 C982 1.396 . S
C981 C986 1.390 . S
C982 C976 1.465 . S
C982 C981 1.396 . S
C982 C983 1.399 . S
C983 H969 0.929 . S
C983 C982 1.399 . S
C983 C984 1.385 . S
C984 H970 0.931 . S
C984 C983 1.385 . S
C984 C985 1.389 . S
C985 C984 1.389 . S
C985 C986 1.387 . S
C986 H971 0.930 . S
C986 C981 1.390 . S
C986 C985 1.387 . S
H987 C999 0.930 . S
H988 C1001 0.930 . S
H989 C1002 0.930 . S
H990 C1006 0.951 . S
H991 C1006 0.978 . S
H992 C1006 0.938 1_455 S
H993 C1007 0.958 1_455 S
H994 C1007 0.963 . S
H995 C1007 0.961 . S
H996 C1010 0.929 . S
H997 C1011 0.931 . S
H998 C1013 0.930 . S
C999 H987 0.930 . S
C999 C1000 1.399 . S
C999 C1004 1.399 . S
C1000 C999 1.399 . S
C1000 C1001 1.376 . S
C1001 H988 0.930 . S
C1001 C1000 1.376 . S
C1001 C1002 1.388 . S
C1002 H989 0.930 . S
C1002 C1001 1.388 . S
C1002 C1003 1.390 . S
C1003 C1002 1.390 . S
C1003 C1004 1.394 . S
C1003 C1009 1.465 1_455 S
C1004 C999 1.399 . S
C1004 C1003 1.394 . S
C1004 C1005 1.517 1_455 S
C1005 C1004 1.517 1_655 S
C1005 C1006 1.515 . S
C1005 C1007 1.559 . S
C1005 C1008 1.525 . S
C1006 H990 0.951 . S
C1006 H991 0.978 . S
C1006 H992 0.938 1_655 S
C1006 C1005 1.515 . S
C1007 H993 0.958 1_655 S
C1007 H994 0.963 . S
C1007 H995 0.961 . S
C1007 C1005 1.559 . S
C1008 C1005 1.525 . S
C1008 C1009 1.396 . S
C1008 C1013 1.390 . S
C1009 C1003 1.465 1_655 S
C1009 C1008 1.396 . S
C1009 C1010 1.399 . S
C1010 H996 0.929 . S
C1010 C1009 1.399 . S
C1010 C1011 1.385 . S
C1011 H997 0.931 . S
C1011 C1010 1.385 . S
C1011 C1012 1.389 . S
C1012 C1011 1.389 . S
C1012 C1013 1.387 . S
C1013 H998 0.930 . S
C1013 C1008 1.390 . S
C1013 C1012 1.387 . S
H1014 C1026 0.930 . S
H1015 C1028 0.930 . S
H1016 C1029 0.930 . S
H1017 C1033 0.954 . S
H1018 C1033 0.977 . S
H1019 C1033 0.936 1_565 S
H1020 C1034 0.957 1_565 S
H1021 C1034 0.963 . S
H1022 C1034 0.961 1_554 S
H1023 C1037 0.929 . S
H1024 C1038 0.931 . S
H1025 C1040 0.930 . S
C1026 H1014 0.930 . S
C1026 C1027 1.399 . S
C1026 C1031 1.399 . S
C1027 C1026 1.399 . S
C1027 C1028 1.376 . S
C1028 H1015 0.930 . S
C1028 C1027 1.376 . S
C1028 C1029 1.388 . S
C1029 H1016 0.930 . S
C1029 C1028 1.388 . S
C1029 C1030 1.390 . S
C1030 C1029 1.390 . S
C1030 C1031 1.394 . S
C1030 C1036 1.465 1_565 S
C1031 C1026 1.399 . S
C1031 C1030 1.394 . S
C1031 C1032 1.517 1_565 S
C1032 C1031 1.517 1_545 S
C1032 C1033 1.516 . S
C1032 C1034 1.560 1_554 S
C1032 C1035 1.525 . S
C1033 H1017 0.954 . S
C1033 H1018 0.977 . S
C1033 H1019 0.936 1_545 S
C1033 C1032 1.516 . S
C1034 H1020 0.957 1_545 S
C1034 H1021 0.963 . S
C1034 H1022 0.961 1_556 S
C1034 C1032 1.560 1_556 S
C1035 C1032 1.525 . S
C1035 C1036 1.396 . S
C1035 C1040 1.390 . S
C1036 C1030 1.465 1_545 S
C1036 C1035 1.396 . S
C1036 C1037 1.399 . S
C1037 H1023 0.929 . S
C1037 C1036 1.399 . S
C1037 C1038 1.385 . S
C1038 H1024 0.931 . S
C1038 C1037 1.385 . S
C1038 C1039 1.389 . S
C1039 C1038 1.389 . S
C1039 C1040 1.387 . S
C1040 H1025 0.930 . S
C1040 C1035 1.390 . S
C1040 C1039 1.387 . S
H1041 C1053 0.930 . S
H1042 C1055 0.930 . S
H1043 C1056 0.930 . S
H1044 C1060 0.959 . S
H1045 C1060 0.959 . S
H1046 C1060 0.961 . S
H1047 C1061 0.960 . S
H1048 C1061 0.961 . S
H1049 C1061 0.959 . S
H1050 C1064 0.929 . S
H1051 C1065 0.931 . S
H1052 C1067 0.930 . S
C1053 H1041 0.930 . S
C1053 C1054 1.399 . S
C1053 C1058 1.399 . S
C1054 C1053 1.399 . S
C1054 C1055 1.376 . S
C1055 H1042 0.930 . S
C1055 C1054 1.376 . S
C1055 C1056 1.388 . S
C1056 H1043 0.930 . S
C1056 C1055 1.388 . S
C1056 C1057 1.390 . S
C1057 C1056 1.390 . S
C1057 C1058 1.394 . S
C1057 C1063 1.465 . S
C1058 C1053 1.399 . S
C1058 C1057 1.394 . S
C1058 C1059 1.516 . S
C1059 C1058 1.516 . S
C1059 C1060 1.502 . S
C1059 C1061 1.561 . S
C1059 C1062 1.526 . S
C1060 H1044 0.959 . S
C1060 H1045 0.959 . S
C1060 H1046 0.961 . S
C1060 C1059 1.502 . S
C1061 H1047 0.960 . S
C1061 H1048 0.961 . S
C1061 H1049 0.959 . S
C1061 C1059 1.561 . S
C1062 C1059 1.526 . S
C1062 C1063 1.396 . S
C1062 C1067 1.390 . S
C1063 C1057 1.465 . S
C1063 C1062 1.396 . S
C1063 C1064 1.399 . S
C1064 H1050 0.929 . S
C1064 C1063 1.399 . S
C1064 C1065 1.385 . S
C1065 H1051 0.931 . S
C1065 C1064 1.385 . S
C1065 C1066 1.389 . S
C1066 C1065 1.389 . S
C1066 C1067 1.387 . S
C1067 H1052 0.930 . S
C1067 C1062 1.390 . S
C1067 C1066 1.387 . S
H1068 C1080 0.930 . S
H1069 C1082 0.930 . S
H1070 C1083 0.930 . S
H1071 C1087 0.952 . S
H1072 C1087 0.978 . S
H1073 C1087 0.937 1_655 S
H1074 C1088 0.957 1_655 S
H1075 C1088 0.963 . S
H1076 C1088 0.961 . S
H1077 C1091 0.929 . S
H1078 C1092 0.931 . S
H1079 C1094 0.930 . S
C1080 H1068 0.930 . S
C1080 C1081 1.399 . S
C1080 C1085 1.399 . S
C1081 C1080 1.399 . S
C1081 C1082 1.376 . S
C1082 H1069 0.930 . S
C1082 C1081 1.376 . S
C1082 C1083 1.388 . S
C1083 H1070 0.930 . S
C1083 C1082 1.388 . S
C1083 C1084 1.390 . S
C1084 C1083 1.390 . S
C1084 C1085 1.394 . S
C1084 C1090 1.465 1_655 S
C1085 C1080 1.399 . S
C1085 C1084 1.394 . S
C1085 C1086 1.517 1_655 S
C1086 C1085 1.517 1_455 S
C1086 C1087 1.515 . S
C1086 C1088 1.560 . S
C1086 C1089 1.525 . S
C1087 H1071 0.952 . S
C1087 H1072 0.978 . S
C1087 H1073 0.937 1_455 S
C1087 C1086 1.515 . S
C1088 H1074 0.957 1_455 S
C1088 H1075 0.963 . S
C1088 H1076 0.961 . S
C1088 C1086 1.560 . S
C1089 C1086 1.525 . S
C1089 C1090 1.396 . S
C1089 C1094 1.390 . S
C1090 C1084 1.465 1_455 S
C1090 C1089 1.396 . S
C1090 C1091 1.399 . S
C1091 H1077 0.929 . S
C1091 C1090 1.399 . S
C1091 C1092 1.385 . S
C1092 H1078 0.931 . S
C1092 C1091 1.385 . S
C1092 C1093 1.389 . S
C1093 C1092 1.389 . S
C1093 C1094 1.387 . S
C1094 H1079 0.930 . S
C1094 C1089 1.390 . S
C1094 C1093 1.387 . S
H1095 C1107 0.930 . S
H1096 C1109 0.930 . S
H1097 C1110 0.930 . S
H1098 C1114 0.963 . S
H1099 C1114 0.985 . S
H1100 C1114 0.946 1_545 S
H1101 C1115 0.958 1_545 S
H1102 C1115 0.964 . S
H1103 C1115 0.957 . S
H1104 C1118 0.929 . S
H1105 C1119 0.931 . S
H1106 C1121 0.930 . S
C1107 H1095 0.930 . S
C1107 C1108 1.399 . S
C1107 C1112 1.399 . S
C1108 C1107 1.399 . S
C1108 C1109 1.376 . S
C1109 H1096 0.930 . S
C1109 C1108 1.376 . S
C1109 C1110 1.388 . S
C1110 H1097 0.930 . S
C1110 C1109 1.388 . S
C1110 C1111 1.390 . S
C1111 C1110 1.390 . S
C1111 C1112 1.394 . S
C1111 C1117 1.465 1_545 S
C1112 C1107 1.399 . S
C1112 C1111 1.394 . S
C1112 C1113 1.517 1_545 S
C1113 C1112 1.517 1_565 S
C1113 C1114 1.487 . S
C1113 C1115 1.561 . S
C1113 C1116 1.525 . S
C1114 H1098 0.963 . S
C1114 H1099 0.985 . S
C1114 H1100 0.946 1_565 S
C1114 C1113 1.487 . S
C1115 H1101 0.958 1_565 S
C1115 H1102 0.964 . S
C1115 H1103 0.957 . S
C1115 C1113 1.561 . S
C1116 C1113 1.525 . S
C1116 C1117 1.396 . S
C1116 C1121 1.390 . S
C1117 C1111 1.465 1_565 S
C1117 C1116 1.396 . S
C1117 C1118 1.399 . S
C1118 H1104 0.929 . S
C1118 C1117 1.399 . S
C1118 C1119 1.385 . S
C1119 H1105 0.931 . S
C1119 C1118 1.385 . S
C1119 C1120 1.389 . S
C1120 C1119 1.389 . S
C1120 C1121 1.387 . S
C1121 H1106 0.930 . S
C1121 C1116 1.390 . S
C1121 C1120 1.387 . S
H1122 C1134 0.930 . S
H1123 C1136 0.930 . S
H1124 C1137 0.930 . S
H1125 C1141 0.959 . S
H1126 C1141 0.959 1_554 S
H1127 C1141 0.961 1_554 S
H1128 C1142 0.960 . S
H1129 C1142 0.961 . S
H1130 C1142 0.959 1_556 S
H1131 C1145 0.929 . S
H1132 C1146 0.931 . S
H1133 C1148 0.930 . S
C1134 H1122 0.930 . S
C1134 C1135 1.399 . S
C1134 C1139 1.399 . S
C1135 C1134 1.399 . S
C1135 C1136 1.376 . S
C1136 H1123 0.930 . S
C1136 C1135 1.376 . S
C1136 C1137 1.388 . S
C1137 H1124 0.930 . S
C1137 C1136 1.388 . S
C1137 C1138 1.390 . S
C1138 C1137 1.390 . S
C1138 C1139 1.394 . S
C1138 C1144 1.465 . S
C1139 C1134 1.399 . S
C1139 C1138 1.394 . S
C1139 C1140 1.516 . S
C1140 C1139 1.516 . S
C1140 C1141 1.502 . S
C1140 C1142 1.561 1_556 S
C1140 C1143 1.526 . S
C1141 H1125 0.959 . S
C1141 H1126 0.959 1_556 S
C1141 H1127 0.961 1_556 S
C1141 C1140 1.502 . S
C1142 H1128 0.960 . S
C1142 H1129 0.961 . S
C1142 H1130 0.959 1_554 S
C1142 C1140 1.561 1_554 S
C1143 C1140 1.526 . S
C1143 C1144 1.396 . S
C1143 C1148 1.390 . S
C1144 C1138 1.465 . S
C1144 C1143 1.396 . S
C1144 C1145 1.399 . S
C1145 H1131 0.929 . S
C1145 C1144 1.399 . S
C1145 C1146 1.385 . S
C1146 H1132 0.931 . S
C1146 C1145 1.385 . S
C1146 C1147 1.389 . S
C1147 C1146 1.389 . S
C1147 C1148 1.387 . S
C1148 H1133 0.930 . S
C1148 C1143 1.390 . S
C1148 C1147 1.387 . S
H1149 C1161 0.930 . S
H1150 C1163 0.930 . S
H1151 C1164 0.930 . S
H1152 C1168 0.974 . S
H1153 C1168 0.977 . S
H1154 C1168 0.940 1_655 S
H1155 C1169 0.957 1_655 S
H1156 C1169 0.963 . S
H1157 C1169 0.958 . S
H1158 C1172 0.929 . S
H1159 C1173 0.931 . S
H1160 C1175 0.930 . S
C1161 H1149 0.930 . S
C1161 C1162 1.399 . S
C1161 C1166 1.399 . S
C1162 C1161 1.399 . S
C1162 C1163 1.376 . S
C1163 H1150 0.930 . S
C1163 C1162 1.376 . S
C1163 C1164 1.388 . S
C1164 H1151 0.930 . S
C1164 C1163 1.388 . S
C1164 C1165 1.390 . S
C1165 C1164 1.390 . S
C1165 C1166 1.394 . S
C1165 C1171 1.465 1_655 S
C1166 C1161 1.399 . S
C1166 C1165 1.394 . S
C1166 C1167 1.517 1_655 S
C1167 C1166 1.517 1_455 S
C1167 C1168 1.490 . S
C1167 C1169 1.563 . S
C1167 C1170 1.525 . S
C1168 H1152 0.974 . S
C1168 H1153 0.977 . S
C1168 H1154 0.940 1_455 S
C1168 C1167 1.490 . S
C1169 H1155 0.957 1_455 S
C1169 H1156 0.963 . S
C1169 H1157 0.958 . S
C1169 C1167 1.563 . S
C1170 C1167 1.525 . S
C1170 C1171 1.396 . S
C1170 C1175 1.390 . S
C1171 C1165 1.465 1_455 S
C1171 C1170 1.396 . S
C1171 C1172 1.399 . S
C1172 H1158 0.929 . S
C1172 C1171 1.399 . S
C1172 C1173 1.385 . S
C1173 H1159 0.931 . S
C1173 C1172 1.385 . S
C1173 C1174 1.389 . S
C1174 C1173 1.389 . S
C1174 C1175 1.387 . S
C1175 H1160 0.930 . S
C1175 C1170 1.390 . S
C1175 C1174 1.387 . S
H1176 C1188 0.930 . S
H1177 C1190 0.930 . S
H1178 C1191 0.930 . S
H1179 C1195 0.971 . S
H1180 C1195 0.959 1_554 S
H1181 C1195 0.943 1_545 S
H1182 C1196 0.958 1_545 S
H1183 C1196 0.963 . S
H1184 C1196 0.957 1_556 S
H1185 C1199 0.929 . S
H1186 C1200 0.931 . S
H1187 C1202 0.930 . S
C1188 H1176 0.930 . S
C1188 C1189 1.399 . S
C1188 C1193 1.399 . S
C1189 C1188 1.399 . S
C1189 C1190 1.376 . S
C1190 H1177 0.930 . S
C1190 C1189 1.376 . S
C1190 C1191 1.388 . S
C1191 H1178 0.930 . S
C1191 C1190 1.388 . S
C1191 C1192 1.390 . S
C1192 C1191 1.390 . S
C1192 C1193 1.394 . S
C1192 C1198 1.465 1_545 S
C1193 C1188 1.399 . S
C1193 C1192 1.394 . S
C1193 C1194 1.517 1_545 S
C1194 C1193 1.517 1_565 S
C1194 C1195 1.487 . S
C1194 C1196 1.563 1_556 S
C1194 C1197 1.525 . S
C1195 H1179 0.971 . S
C1195 H1180 0.959 1_556 S
C1195 H1181 0.943 1_565 S
C1195 C1194 1.487 . S
C1196 H1182 0.958 1_565 S
C1196 H1183 0.963 . S
C1196 H1184 0.957 1_554 S
C1196 C1194 1.563 1_554 S
C1197 C1194 1.525 . S
C1197 C1198 1.396 . S
C1197 C1202 1.390 . S
C1198 C1192 1.465 1_565 S
C1198 C1197 1.396 . S
C1198 C1199 1.399 . S
C1199 H1185 0.929 . S
C1199 C1198 1.399 . S
C1199 C1200 1.385 . S
C1200 H1186 0.931 . S
C1200 C1199 1.385 . S
C1200 C1201 1.389 . S
C1201 C1200 1.389 . S
C1201 C1202 1.387 . S
C1202 H1187 0.930 . S
C1202 C1197 1.390 . S
C1202 C1201 1.387 . S
H1203 C1215 0.930 . S
H1204 C1217 0.930 . S
H1205 C1218 0.930 . S
H1206 C1222 0.959 . S
H1207 C1222 0.959 . S
H1208 C1222 0.961 . S
H1209 C1223 0.960 . S
H1210 C1223 0.961 . S
H1211 C1223 0.959 . S
H1212 C1226 0.929 . S
H1213 C1227 0.931 . S
H1214 C1229 0.930 . S
C1215 H1203 0.930 . S
C1215 C1216 1.399 . S
C1215 C1220 1.399 . S
C1216 C1215 1.399 . S
C1216 C1217 1.376 . S
C1217 H1204 0.930 . S
C1217 C1216 1.376 . S
C1217 C1218 1.388 . S
C1218 H1205 0.930 . S
C1218 C1217 1.388 . S
C1218 C1219 1.390 . S
C1219 C1218 1.390 . S
C1219 C1220 1.394 . S
C1219 C1225 1.465 . S
C1220 C1215 1.399 . S
C1220 C1219 1.394 . S
C1220 C1221 1.516 . S
C1221 C1220 1.516 . S
C1221 C1222 1.502 . S
C1221 C1223 1.561 . S
C1221 C1224 1.526 . S
C1222 H1206 0.959 . S
C1222 H1207 0.959 . S
C1222 H1208 0.961 . S
C1222 C1221 1.502 . S
C1223 H1209 0.960 . S
C1223 H1210 0.961 . S
C1223 H1211 0.959 . S
C1223 C1221 1.561 . S
C1224 C1221 1.526 . S
C1224 C1225 1.396 . S
C1224 C1229 1.390 . S
C1225 C1219 1.465 . S
C1225 C1224 1.396 . S
C1225 C1226 1.399 . S
C1226 H1212 0.929 . S
C1226 C1225 1.399 . S
C1226 C1227 1.385 . S
C1227 H1213 0.931 . S
C1227 C1226 1.385 . S
C1227 C1228 1.389 . S
C1228 C1227 1.389 . S
C1228 C1229 1.387 . S
C1229 H1214 0.930 . S
C1229 C1224 1.390 . S
C1229 C1228 1.387 . S
H1230 C1242 0.930 . S
H1231 C1244 0.930 . S
H1232 C1245 0.930 . S
H1233 C1249 0.971 . S
H1234 C1249 0.981 . S
H1235 C1249 0.943 1_455 S
H1236 C1250 0.958 1_455 S
H1237 C1250 0.963 . S
H1238 C1250 0.957 . S
H1239 C1253 0.929 . S
H1240 C1254 0.931 . S
H1241 C1256 0.930 . S
C1242 H1230 0.930 . S
C1242 C1243 1.399 . S
C1242 C1247 1.399 . S
C1243 C1242 1.399 . S
C1243 C1244 1.376 . S
C1244 H1231 0.930 . S
C1244 C1243 1.376 . S
C1244 C1245 1.388 . S
C1245 H1232 0.930 . S
C1245 C1244 1.388 . S
C1245 C1246 1.390 . S
C1246 C1245 1.390 . S
C1246 C1247 1.394 . S
C1246 C1252 1.465 1_455 S
C1247 C1242 1.399 . S
C1247 C1246 1.394 . S
C1247 C1248 1.517 1_455 S
C1248 C1247 1.517 1_655 S
C1248 C1249 1.487 . S
C1248 C1250 1.563 . S
C1248 C1251 1.525 . S
C1249 H1233 0.971 . S
C1249 H1234 0.981 . S
C1249 H1235 0.943 1_655 S
C1249 C1248 1.487 . S
C1250 H1236 0.958 1_655 S
C1250 H1237 0.963 . S
C1250 H1238 0.957 . S
C1250 C1248 1.563 . S
C1251 C1248 1.525 . S
C1251 C1252 1.396 . S
C1251 C1256 1.390 . S
C1252 C1246 1.465 1_655 S
C1252 C1251 1.396 . S
C1252 C1253 1.399 . S
C1253 H1239 0.929 . S
C1253 C1252 1.399 . S
C1253 C1254 1.385 . S
C1254 H1240 0.931 . S
C1254 C1253 1.385 . S
C1254 C1255 1.389 . S
C1255 C1254 1.389 . S
C1255 C1256 1.387 . S
C1256 H1241 0.930 . S
C1256 C1251 1.390 . S
C1256 C1255 1.387 . S
H1257 C1269 0.930 . S
H1258 C1271 0.930 . S
H1259 C1272 0.930 . S
H1260 C1276 0.969 . S
H1261 C1276 0.982 . S
H1262 C1276 0.944 1_565 S
H1263 C1277 0.958 1_565 S
H1264 C1277 0.964 . S
H1265 C1277 0.957 . S
H1266 C1280 0.929 . S
H1267 C1281 0.931 . S
H1268 C1283 0.930 . S
C1269 H1257 0.930 . S
C1269 C1270 1.399 . S
C1269 C1274 1.399 . S
C1270 C1269 1.399 . S
C1270 C1271 1.376 . S
C1271 H1258 0.930 . S
C1271 C1270 1.376 . S
C1271 C1272 1.388 . S
C1272 H1259 0.930 . S
C1272 C1271 1.388 . S
C1272 C1273 1.390 . S
C1273 C1272 1.390 . S
C1273 C1274 1.394 . S
C1273 C1279 1.465 1_565 S
C1274 C1269 1.399 . S
C1274 C1273 1.394 . S
C1274 C1275 1.517 1_565 S
C1275 C1274 1.517 1_545 S
C1275 C1276 1.487 . S
C1275 C1277 1.563 . S
C1275 C1278 1.525 . S
C1276 H1260 0.969 . S
C1276 H1261 0.982 . S
C1276 H1262 0.944 1_545 S
C1276 C1275 1.487 . S
C1277 H1263 0.958 1_545 S
C1277 H1264 0.964 . S
C1277 H1265 0.957 . S
C1277 C1275 1.563 . S
C1278 C1275 1.525 . S
C1278 C1279 1.396 . S
C1278 C1283 1.390 . S
C1279 C1273 1.465 1_545 S
C1279 C1278 1.396 . S
C1279 C1280 1.399 . S
C1280 H1266 0.929 . S
C1280 C1279 1.399 . S
C1280 C1281 1.385 . S
C1281 H1267 0.931 . S
C1281 C1280 1.385 . S
C1281 C1282 1.389 . S
C1282 C1281 1.389 . S
C1282 C1283 1.387 . S
C1283 H1268 0.930 . S
C1283 C1278 1.390 . S
C1283 C1282 1.387 . S
H1284 C1296 0.930 . S
H1285 C1298 0.930 . S
H1286 C1299 0.930 . S
H1287 C1303 0.959 . S
H1288 C1303 0.959 . S
H1289 C1303 0.961 . S
H1290 C1304 0.960 . S
H1291 C1304 0.961 . S
H1292 C1304 0.959 . S
H1293 C1307 0.929 . S
H1294 C1308 0.931 . S
H1295 C1310 0.930 . S
C1296 H1284 0.930 . S
C1296 C1297 1.399 . S
C1296 C1301 1.399 . S
C1297 C1296 1.399 . S
C1297 C1298 1.376 . S
C1298 H1285 0.930 . S
C1298 C1297 1.376 . S
C1298 C1299 1.388 . S
C1299 H1286 0.930 . S
C1299 C1298 1.388 . S
C1299 C1300 1.390 . S
C1300 C1299 1.390 . S
C1300 C1301 1.394 . S
C1300 C1306 1.465 1_556 S
C1301 C1296 1.399 . S
C1301 C1300 1.394 . S
C1301 C1302 1.516 . S
C1302 C1301 1.516 . S
C1302 C1303 1.502 1_556 S
C1302 C1304 1.561 . S
C1302 C1305 1.526 1_556 S
C1303 H1287 0.959 . S
C1303 H1288 0.959 . S
C1303 H1289 0.961 . S
C1303 C1302 1.502 1_554 S
C1304 H1290 0.960 . S
C1304 H1291 0.961 . S
C1304 H1292 0.959 . S
C1304 C1302 1.561 . S
C1305 C1302 1.526 1_554 S
C1305 C1306 1.396 . S
C1305 C1310 1.390 . S
C1306 C1300 1.465 1_554 S
C1306 C1305 1.396 . S
C1306 C1307 1.399 . S
C1307 H1293 0.929 . S
C1307 C1306 1.399 . S
C1307 C1308 1.385 . S
C1308 H1294 0.931 . S
C1308 C1307 1.385 . S
C1308 C1309 1.389 . S
C1309 C1308 1.389 . S
C1309 C1310 1.387 . S
C1310 H1295 0.930 . S
C1310 C1305 1.390 . S
C1310 C1309 1.387 . S
H1311 C1323 0.930 . S
H1312 C1325 0.930 . S
H1313 C1326 0.930 . S
H1314 C1330 0.959 . S
H1315 C1330 0.959 . S
H1316 C1330 0.961 . S
H1317 C1331 0.960 . S
H1318 C1331 0.961 . S
H1319 C1331 0.959 . S
H1320 C1334 0.929 . S
H1321 C1335 0.931 . S
H1322 C1337 0.930 . S
C1323 H1311 0.930 . S
C1323 C1324 1.399 . S
C1323 C1328 1.399 . S
C1324 C1323 1.399 . S
C1324 C1325 1.376 . S
C1325 H1312 0.930 . S
C1325 C1324 1.376 . S
C1325 C1326 1.388 . S
C1326 H1313 0.930 . S
C1326 C1325 1.388 . S
C1326 C1327 1.390 . S
C1327 C1326 1.390 . S
C1327 C1328 1.394 . S
C1327 C1333 1.465 . S
C1328 C1323 1.399 . S
C1328 C1327 1.394 . S
C1328 C1329 1.516 . S
C1329 C1328 1.516 . S
C1329 C1330 1.502 . S
C1329 C1331 1.561 . S
C1329 C1332 1.526 . S
C1330 H1314 0.959 . S
C1330 H1315 0.959 . S
C1330 H1316 0.961 . S
C1330 C1329 1.502 . S
C1331 H1317 0.960 . S
C1331 H1318 0.961 . S
C1331 H1319 0.959 . S
C1331 C1329 1.561 . S
C1332 C1329 1.526 . S
C1332 C1333 1.396 . S
C1332 C1337 1.390 . S
C1333 C1327 1.465 . S
C1333 C1332 1.396 . S
C1333 C1334 1.399 . S
C1334 H1320 0.929 . S
C1334 C1333 1.399 . S
C1334 C1335 1.385 . S
C1335 H1321 0.931 . S
C1335 C1334 1.385 . S
C1335 C1336 1.389 . S
C1336 C1335 1.389 . S
C1336 C1337 1.387 . S
C1337 H1322 0.930 . S
C1337 C1332 1.390 . S
C1337 C1336 1.387 . S
H1338 C1350 0.930 1_554 S
H1339 C1352 0.930 . S
H1340 C1353 0.930 . S
H1341 C1357 0.959 . S
H1342 C1357 0.959 . S
H1343 C1357 0.961 . S
H1344 C1358 0.960 . S
H1345 C1358 0.961 . S
H1346 C1358 0.959 . S
H1347 C1361 0.929 . S
H1348 C1362 0.936 . S
H1349 C1364 0.930 . S
C1350 H1338 0.930 1_556 S
C1350 C1351 1.399 . S
C1350 C1355 1.399 1_556 S
C1351 C1350 1.399 . S
C1351 C1352 1.376 . S
C1352 H1339 0.930 . S
C1352 C1351 1.376 . S
C1352 C1353 1.388 . S
C1353 H1340 0.930 . S
C1353 C1352 1.388 . S
C1353 C1354 1.390 . S
C1354 C1353 1.390 . S
C1354 C1355 1.394 1_556 S
C1354 C1360 1.465 . S
C1355 C1350 1.399 1_554 S
C1355 C1354 1.394 1_554 S
C1355 C1356 1.516 . S
C1356 C1355 1.516 . S
C1356 C1357 1.502 . S
C1356 C1358 1.561 . S
C1356 C1359 1.526 . S
C1357 H1341 0.959 . S
C1357 H1342 0.959 . S
C1357 H1343 0.961 . S
C1357 C1356 1.502 . S
C1358 H1344 0.960 . S
C1358 H1345 0.961 . S
C1358 H1346 0.959 . S
C1358 C1356 1.561 . S
C1359 C1356 1.526 . S
C1359 C1360 1.396 1_554 S
C1359 C1364 1.390 . S
C1360 C1354 1.465 . S
C1360 C1359 1.396 1_556 S
C1360 C1361 1.399 . S
C1361 H1347 0.929 . S
C1361 C1360 1.399 . S
C1361 C1362 1.393 . S
C1362 H1348 0.936 . S
C1362 C1361 1.393 . S
C1362 C1363 1.377 1_556 S
C1363 C1362 1.377 1_554 S
C1363 C1364 1.387 . S
C1364 H1349 0.930 . S
C1364 C1359 1.390 . S
C1364 C1363 1.387 . S
H1365 C1377 0.930 . S
H1366 C1379 0.930 . S
H1367 C1380 0.930 . S
H1368 C1384 0.959 . S
H1369 C1384 0.959 . S
H1370 C1384 0.961 . S
H1371 C1385 0.960 . S
H1372 C1385 0.961 . S
H1373 C1385 0.959 . S
H1374 C1388 0.929 . S
H1375 C1389 0.931 . S
H1376 C1391 0.930 . S
C1377 H1365 0.930 . S
C1377 C1378 1.399 . S
C1377 C1382 1.399 . S
C1378 C1377 1.399 . S
C1378 C1379 1.376 . S
C1379 H1366 0.930 . S
C1379 C1378 1.376 . S
C1379 C1380 1.388 . S
C1380 H1367 0.930 . S
C1380 C1379 1.388 . S
C1380 C1381 1.390 . S
C1381 C1380 1.390 . S
C1381 C1382 1.394 . S
C1381 C1387 1.465 . S
C1382 C1377 1.399 . S
C1382 C1381 1.394 . S
C1382 C1383 1.516 . S
C1383 C1382 1.516 . S
C1383 C1384 1.502 . S
C1383 C1385 1.561 . S
C1383 C1386 1.526 . S
C1384 H1368 0.959 . S
C1384 H1369 0.959 . S
C1384 H1370 0.961 . S
C1384 C1383 1.502 . S
C1385 H1371 0.960 . S
C1385 H1372 0.961 . S
C1385 H1373 0.959 . S
C1385 C1383 1.561 . S
C1386 C1383 1.526 . S
C1386 C1387 1.396 . S
C1386 C1391 1.390 . S
C1387 C1381 1.465 . S
C1387 C1386 1.396 . S
C1387 C1388 1.399 . S
C1388 H1374 0.929 . S
C1388 C1387 1.399 . S
C1388 C1389 1.385 . S
C1389 H1375 0.931 . S
C1389 C1388 1.385 . S
C1389 C1390 1.389 . S
C1390 C1389 1.389 . S
C1390 C1391 1.387 . S
C1391 H1376 0.930 . S
C1391 C1386 1.390 . S
C1391 C1390 1.387 . S
H1392 C1404 0.930 . S
H1393 C1406 0.930 . S
H1394 C1407 0.930 . S
H1395 C1411 0.959 . S
H1396 C1411 0.959 . S
H1397 C1411 0.961 . S
H1398 C1412 0.960 . S
H1399 C1412 0.961 . S
H1400 C1412 0.959 . S
H1401 C1415 0.929 . S
H1402 C1416 0.931 . S
H1403 C1418 0.930 . S
C1404 H1392 0.930 . S
C1404 C1405 1.399 . S
C1404 C1409 1.411 . S
C1405 C1404 1.399 . S
C1405 C1406 1.376 . S
C1406 H1393 0.930 . S
C1406 C1405 1.376 . S
C1406 C1407 1.388 . S
C1407 H1394 0.930 . S
C1407 C1406 1.388 . S
C1407 C1408 1.390 . S
C1408 C1407 1.390 . S
C1408 C1409 1.408 . S
C1408 C1414 1.468 . S
C1409 C1404 1.411 . S
C1409 C1408 1.408 . S
C1409 C1410 1.491 1_556 S
C1410 C1409 1.491 1_554 S
C1410 C1411 1.502 . S
C1410 C1412 1.561 . S
C1410 C1413 1.526 . S
C1411 H1395 0.959 . S
C1411 H1396 0.959 . S
C1411 H1397 0.961 . S
C1411 C1410 1.502 . S
C1412 H1398 0.960 . S
C1412 H1399 0.961 . S
C1412 H1400 0.959 . S
C1412 C1410 1.561 . S
C1413 C1410 1.526 . S
C1413 C1414 1.392 1_554 S
C1413 C1418 1.390 . S
C1414 C1408 1.468 . S
C1414 C1413 1.392 1_556 S
C1414 C1415 1.400 . S
C1415 H1401 0.929 . S
C1415 C1414 1.400 . S
C1415 C1416 1.385 1_556 S
C1416 H1402 0.931 . S
C1416 C1415 1.385 1_554 S
C1416 C1417 1.389 . S
C1417 C1416 1.389 . S
C1417 C1418 1.387 . S
C1418 H1403 0.930 . S
C1418 C1413 1.390 . S
C1418 C1417 1.387 . S
H1419 C1431 0.930 . S
H1420 C1433 0.930 . S
H1421 C1434 0.930 . S
H1422 C1438 0.959 . S
H1423 C1438 0.959 . S
H1424 C1438 0.961 . S
H1425 C1439 0.960 . S
H1426 C1439 0.961 . S
H1427 C1439 0.959 . S
H1428 C1442 0.929 . S
H1429 C1443 0.931 . S
H1430 C1445 0.930 . S
C1431 H1419 0.930 . S
C1431 C1432 1.399 . S
C1431 C1436 1.399 . S
C1432 C1431 1.399 . S
C1432 C1433 1.376 . S
C1433 H1420 0.930 . S
C1433 C1432 1.376 . S
C1433 C1434 1.388 . S
C1434 H1421 0.930 . S
C1434 C1433 1.388 . S
C1434 C1435 1.390 . S
C1435 C1434 1.390 . S
C1435 C1436 1.394 . S
C1435 C1441 1.465 . S
C1436 C1431 1.399 . S
C1436 C1435 1.394 . S
C1436 C1437 1.516 . S
C1437 C1436 1.516 . S
C1437 C1438 1.502 . S
C1437 C1439 1.561 . S
C1437 C1440 1.526 . S
C1438 H1422 0.959 . S
C1438 H1423 0.959 . S
C1438 H1424 0.961 . S
C1438 C1437 1.502 . S
C1439 H1425 0.960 . S
C1439 H1426 0.961 . S
C1439 H1427 0.959 . S
C1439 C1437 1.561 . S
C1440 C1437 1.526 . S
C1440 C1441 1.396 . S
C1440 C1445 1.390 . S
C1441 C1435 1.465 . S
C1441 C1440 1.396 . S
C1441 C1442 1.399 . S
C1442 H1428 0.929 . S
C1442 C1441 1.399 . S
C1442 C1443 1.385 . S
C1443 H1429 0.931 . S
C1443 C1442 1.385 . S
C1443 C1444 1.389 . S
C1444 C1443 1.389 . S
C1444 C1445 1.387 . S
C1445 H1430 0.930 . S
C1445 C1440 1.390 . S
C1445 C1444 1.387 . S
H1446 C1458 0.930 . S
H1447 C1460 0.930 1_556 S
H1448 C1461 0.930 . S
H1449 C1465 0.959 . S
H1450 C1465 0.959 . S
H1451 C1465 0.961 . S
H1452 C1466 0.960 . S
H1453 C1466 0.961 . S
H1454 C1466 0.959 . S
H1455 C1469 0.929 . S
H1456 C1470 0.931 . S
H1457 C1472 0.930 1_554 S
C1458 H1446 0.930 . S
C1458 C1459 1.399 . S
C1458 C1463 1.399 . S
C1459 C1458 1.399 . S
C1459 C1460 1.376 . S
C1460 H1447 0.930 1_554 S
C1460 C1459 1.376 . S
C1460 C1461 1.388 1_554 S
C1461 H1448 0.930 . S
C1461 C1460 1.388 1_556 S
C1461 C1462 1.390 . S
C1462 C1461 1.390 . S
C1462 C1463 1.394 1_556 S
C1462 C1468 1.465 . S
C1463 C1458 1.399 . S
C1463 C1462 1.394 1_554 S
C1463 C1464 1.516 . S
C1464 C1463 1.516 . S
C1464 C1465 1.502 . S
C1464 C1466 1.561 . S
C1464 C1467 1.526 . S
C1465 H1449 0.959 . S
C1465 H1450 0.959 . S
C1465 H1451 0.961 . S
C1465 C1464 1.502 . S
C1466 H1452 0.960 . S
C1466 H1453 0.961 . S
C1466 H1454 0.959 . S
C1466 C1464 1.561 . S
C1467 C1464 1.526 . S
C1467 C1468 1.396 1_554 S
C1467 C1472 1.390 1_554 S
C1468 C1462 1.465 . S
C1468 C1467 1.396 1_556 S
C1468 C1469 1.399 . S
C1469 H1455 0.929 . S
C1469 C1468 1.399 . S
C1469 C1470 1.385 . S
C1470 H1456 0.931 . S
C1470 C1469 1.385 . S
C1470 C1471 1.389 . S
C1471 C1470 1.389 . S
C1471 C1472 1.387 . S
C1472 H1457 0.930 1_556 S
C1472 C1467 1.390 1_556 S
C1472 C1471 1.387 . S
H1473 C1485 0.930 . S
H1474 C1487 0.930 . S
H1475 C1488 0.930 . S
H1476 C1492 0.959 . S
H1477 C1492 0.959 . S
H1478 C1492 0.961 . S
H1479 C1493 0.960 . S
H1480 C1493 0.961 . S
H1481 C1493 0.959 . S
H1482 C1496 0.929 . S
H1483 C1497 0.931 . S
H1484 C1499 0.930 . S
C1485 H1473 0.930 . S
C1485 C1486 1.399 . S
C1485 C1490 1.399 . S
C1486 C1485 1.399 . S
C1486 C1487 1.376 . S
C1487 H1474 0.930 . S
C1487 C1486 1.376 . S
C1487 C1488 1.388 . S
C1488 H1475 0.930 . S
C1488 C1487 1.388 . S
C1488 C1489 1.390 . S
C1489 C1488 1.390 . S
C1489 C1490 1.394 . S
C1489 C1495 1.465 . S
C1490 C1485 1.399 . S
C1490 C1489 1.394 . S
C1490 C1491 1.516 . S
C1491 C1490 1.516 . S
C1491 C1492 1.502 . S
C1491 C1493 1.561 . S
C1491 C1494 1.526 . S
C1492 H1476 0.959 . S
C1492 H1477 0.959 . S
C1492 H1478 0.961 . S
C1492 C1491 1.502 . S
C1493 H1479 0.960 . S
C1493 H1480 0.961 . S
C1493 H1481 0.959 . S
C1493 C1491 1.561 . S
C1494 C1491 1.526 . S
C1494 C1495 1.396 . S
C1494 C1499 1.390 . S
C1495 C1489 1.465 . S
C1495 C1494 1.396 . S
C1495 C1496 1.399 . S
C1496 H1482 0.929 . S
C1496 C1495 1.399 . S
C1496 C1497 1.385 . S
C1497 H1483 0.931 . S
C1497 C1496 1.385 . S
C1497 C1498 1.389 . S
C1498 C1497 1.389 . S
C1498 C1499 1.387 . S
C1499 H1484 0.930 . S
C1499 C1494 1.390 . S
C1499 C1498 1.387 . S
H1500 C1512 0.930 . S
H1501 C1514 0.930 . S
H1502 C1515 0.930 . S
H1503 C1519 0.959 . S
H1504 C1519 0.959 . S
H1505 C1519 0.961 . S
H1506 C1520 0.960 . S
H1507 C1520 0.961 . S
H1508 C1520 0.959 . S
H1509 C1523 0.929 . S
H1510 C1524 0.931 . S
H1511 C1526 0.930 . S
C1512 H1500 0.930 . S
C1512 C1513 1.399 . S
C1512 C1517 1.399 . S
C1513 C1512 1.399 . S
C1513 C1514 1.376 . S
C1514 H1501 0.930 . S
C1514 C1513 1.376 . S
C1514 C1515 1.388 . S
C1515 H1502 0.930 . S
C1515 C1514 1.388 . S
C1515 C1516 1.390 . S
C1516 C1515 1.390 . S
C1516 C1517 1.394 . S
C1516 C1522 1.465 1_554 S
C1517 C1512 1.399 . S
C1517 C1516 1.394 . S
C1517 C1518 1.516 1_554 S
C1518 C1517 1.516 1_556 S
C1518 C1519 1.502 1_556 S
C1518 C1520 1.561 . S
C1518 C1521 1.526 . S
C1519 H1503 0.959 . S
C1519 H1504 0.959 . S
C1519 H1505 0.961 . S
C1519 C1518 1.502 1_554 S
C1520 H1506 0.960 . S
C1520 H1507 0.961 . S
C1520 H1508 0.959 . S
C1520 C1518 1.561 . S
C1521 C1518 1.526 . S
C1521 C1522 1.396 . S
C1521 C1526 1.390 . S
C1522 C1516 1.465 1_556 S
C1522 C1521 1.396 . S
C1522 C1523 1.399 . S
C1523 H1509 0.929 . S
C1523 C1522 1.399 . S
C1523 C1524 1.385 . S
C1524 H1510 0.931 . S
C1524 C1523 1.385 . S
C1524 C1525 1.389 . S
C1525 C1524 1.389 . S
C1525 C1526 1.387 . S
C1526 H1511 0.930 . S
C1526 C1521 1.390 . S
C1526 C1525 1.387 . S
H1527 C1539 0.930 . S
H1528 C1541 0.930 . S
H1529 C1542 0.930 . S
H1530 C1546 0.959 . S
H1531 C1546 0.959 . S
H1532 C1546 0.961 . S
H1533 C1547 0.960 . S
H1534 C1547 0.961 . S
H1535 C1547 0.959 . S
H1536 C1550 0.929 . S
H1537 C1551 0.931 . S
H1538 C1553 0.930 . S
C1539 H1527 0.930 . S
C1539 C1540 1.399 . S
C1539 C1544 1.399 . S
C1540 C1539 1.399 . S
C1540 C1541 1.376 . S
C1541 H1528 0.930 . S
C1541 C1540 1.376 . S
C1541 C1542 1.388 . S
C1542 H1529 0.930 . S
C1542 C1541 1.388 . S
C1542 C1543 1.390 . S
C1543 C1542 1.390 . S
C1543 C1544 1.394 . S
C1543 C1549 1.465 . S
C1544 C1539 1.399 . S
C1544 C1543 1.394 . S
C1544 C1545 1.516 . S
C1545 C1544 1.516 . S
C1545 C1546 1.502 . S
C1545 C1547 1.561 . S
C1545 C1548 1.526 . S
C1546 H1530 0.959 . S
C1546 H1531 0.959 . S
C1546 H1532 0.961 . S
C1546 C1545 1.502 . S
C1547 H1533 0.960 . S
C1547 H1534 0.961 . S
C1547 H1535 0.959 . S
C1547 C1545 1.561 . S
C1548 C1545 1.526 . S
C1548 C1549 1.396 . S
C1548 C1553 1.390 . S
C1549 C1543 1.465 . S
C1549 C1548 1.396 . S
C1549 C1550 1.399 . S
C1550 H1536 0.929 . S
C1550 C1549 1.399 . S
C1550 C1551 1.385 . S
C1551 H1537 0.931 . S
C1551 C1550 1.385 . S
C1551 C1552 1.389 . S
C1552 C1551 1.389 . S
C1552 C1553 1.387 . S
C1553 H1538 0.930 . S
C1553 C1548 1.390 . S
C1553 C1552 1.387 . S
H1554 C1566 0.930 . S
H1555 C1568 0.930 . S
H1556 C1569 0.930 . S
H1557 C1573 0.959 . S
H1558 C1573 0.959 . S
H1559 C1573 0.961 . S
H1560 C1574 0.960 . S
H1561 C1574 0.961 . S
H1562 C1574 0.959 . S
H1563 C1577 0.929 . S
H1564 C1578 0.931 . S
H1565 C1580 0.930 1_556 S
C1566 H1554 0.930 . S
C1566 C1567 1.399 . S
C1566 C1571 1.399 . S
C1567 C1566 1.399 . S
C1567 C1568 1.376 . S
C1568 H1555 0.930 . S
C1568 C1567 1.376 . S
C1568 C1569 1.388 1_556 S
C1569 H1556 0.930 . S
C1569 C1568 1.388 1_554 S
C1569 C1570 1.390 . S
C1570 C1569 1.390 . S
C1570 C1571 1.394 1_554 S
C1570 C1576 1.465 . S
C1571 C1566 1.399 . S
C1571 C1570 1.394 1_556 S
C1571 C1572 1.516 . S
C1572 C1571 1.516 . S
C1572 C1573 1.502 . S
C1572 C1574 1.561 . S
C1572 C1575 1.528 1_556 S
C1573 H1557 0.959 . S
C1573 H1558 0.959 . S
C1573 H1559 0.961 . S
C1573 C1572 1.502 . S
C1574 H1560 0.960 . S
C1574 H1561 0.961 . S
C1574 H1562 0.959 . S
C1574 C1572 1.561 . S
C1575 C1572 1.528 1_554 S
C1575 C1576 1.395 . S
C1575 C1580 1.389 . S
C1576 C1570 1.465 . S
C1576 C1575 1.395 . S
C1576 C1577 1.399 . S
C1577 H1563 0.929 . S
C1577 C1576 1.399 . S
C1577 C1578 1.385 . S
C1578 H1564 0.931 . S
C1578 C1577 1.385 . S
C1578 C1579 1.389 . S
C1579 C1578 1.389 . S
C1579 C1580 1.387 . S
C1580 H1565 0.930 1_554 S
C1580 C1575 1.389 . S
C1580 C1579 1.387 . S
H1581 C1593 0.930 . S
H1582 C1595 0.930 . S
H1583 C1596 0.930 . S
H1584 C1600 0.959 . S
H1585 C1600 0.959 . S
H1586 C1600 0.961 . S
H1587 C1601 0.960 . S
H1588 C1601 0.961 . S
H1589 C1601 0.959 . S
H1590 C1604 0.929 . S
H1591 C1605 0.931 . S
H1592 C1607 0.930 . S
C1593 H1581 0.930 . S
C1593 C1594 1.399 . S
C1593 C1598 1.399 . S
C1594 C1593 1.399 . S
C1594 C1595 1.376 . S
C1595 H1582 0.930 . S
C1595 C1594 1.376 . S
C1595 C1596 1.388 . S
C1596 H1583 0.930 . S
C1596 C1595 1.388 . S
C1596 C1597 1.390 . S
C1597 C1596 1.390 . S
C1597 C1598 1.394 . S
C1597 C1603 1.465 . S
C1598 C1593 1.399 . S
C1598 C1597 1.394 . S
C1598 C1599 1.516 . S
C1599 C1598 1.516 . S
C1599 C1600 1.502 . S
C1599 C1601 1.561 . S
C1599 C1602 1.526 . S
C1600 H1584 0.959 . S
C1600 H1585 0.959 . S
C1600 H1586 0.961 . S
C1600 C1599 1.502 . S
C1601 H1587 0.960 . S
C1601 H1588 0.961 . S
C1601 H1589 0.959 . S
C1601 C1599 1.561 . S
C1602 C1599 1.526 . S
C1602 C1603 1.396 . S
C1602 C1607 1.390 . S
C1603 C1597 1.465 . S
C1603 C1602 1.396 . S
C1603 C1604 1.399 . S
C1604 H1590 0.929 . S
C1604 C1603 1.399 . S
C1604 C1605 1.385 . S
C1605 H1591 0.931 . S
C1605 C1604 1.385 . S
C1605 C1606 1.389 . S
C1606 C1605 1.389 . S
C1606 C1607 1.387 . S
C1607 H1592 0.930 . S
C1607 C1602 1.390 . S
C1607 C1606 1.387 . S
C325 C10 1.427 . S
C337 C205 1.428 . S
C352 C23 1.435 . S
C364 C218 1.431 . S
C379 C231 1.429 . S
C391 C36 1.432 . S
C406 C166 1.451 . S
C418 C49 1.445 . S
C433 C179 1.432 . S
C445 C62 1.430 . S
C460 C192 1.428 . S
C472 C75 1.432 . S
C487 C283 1.463 . S
C499 C88 1.466 . S
C514 C101 1.468 . S
C526 C296 1.467 . S
C541 C309 1.429 . S
C553 C114 1.433 . S
C568 C127 1.435 . S
C580 C244 1.431 . S
C595 C257 1.446 . S
C607 C140 1.440 . S
C622 C153 1.440 . S
C634 C270 1.447 . S
C649 C130 1.134 . S
C661 C0 1.112 . S
C676 C143 1.086 . S
C688 C13 1.147 . S
C703 C26 1.067 . S
C715 C78 1.149 . S
C730 C39 1.068 . S
C742 C91 1.149 . S
C757 C104 1.096 . S
C769 C52 1.143 . S
C784 C65 1.149 . S
C796 C117 1.068 . S
C811 C286 1.091 . S
C823 C156 1.127 . S
C838 C169 1.064 . S
C850 C299 1.146 . S
C865 C182 1.138 . S
C877 C234 1.078 . S
C892 C247 1.128 . S
C904 C195 1.070 . S
C919 C208 1.062 . S
C931 C260 1.137 . S
C946 C221 1.112 . S
C958 C273 1.108 . S
C973 C5 1.184 . S
C985 C239 1.168 . S
C1000 C252 1.197 . S
C1012 C18 1.212 . S
C1027 C31 1.135 . S
C1039 C265 1.136 . S
C1054 C44 1.238 . S
C1066 C278 1.240 . S
C1081 C291 1.192 . S
C1093 C57 1.208 . S
C1108 C70 1.229 . S
C1120 C304 1.236 . S
C1135 C83 1.134 . S
C1147 C161 1.138 . S
C1162 C96 1.239 . S
C1174 C174 1.231 . S
C1189 C187 1.189 . S
C1201 C109 1.173 . S
C1216 C200 1.204 . S
C1228 C122 1.218 . S
C1243 C135 1.240 . S
C1255 C213 1.239 . S
C1270 C226 1.195 . S
C1282 C148 1.179 . S
C1297 C86 1.461 . S
C1309 C8 1.456 . S
C1324 C21 1.477 . S
C1336 C99 1.498 . S
C1351 C112 1.505 . S
C1363 C34 1.485 . S
C1378 C125 1.462 . S
C1390 C47 1.479 . S
C1405 C138 1.528 . S
C1417 C60 1.519 . S
C1432 C73 1.468 . S
C1444 C151 1.457 . S
C1459 C242 1.518 . S
C1471 C164 1.517 . S
C1486 C177 1.458 . S
C1498 C255 1.460 . S
C1513 C268 1.456 . S
C1525 C190 1.456 . S
C1540 C281 1.508 . S
C1552 C203 1.506 . S
C1567 C216 1.523 . S
C1579 C294 1.521 . S
C1594 C229 1.464 . S
C1606 C307 1.464 . S
