# Generated by pormake.
# Topology uoc, (4)-cn, num edge types: 1
# Building blocks:
#     Node 0, Type 0, BuildingBlock: KUFVIS_clean_sbu_0, # of connection points: 4
#     Node 1, Type 0, BuildingBlock: KUFVIS_clean_sbu_0, # of connection points: 4
#     Node 2, Type 0, BuildingBlock: KUFVIS_clean_sbu_0, # of connection points: 4
#     Node 3, Type 0, BuildingBlock: KUFVIS_clean_sbu_0, # of connection points: 4
#     Node 4, Type 0, BuildingBlock: KUFVIS_clean_sbu_0, # of connection points: 4
#     Node 5, Type 0, BuildingBlock: KUFVIS_clean_sbu_0, # of connection points: 4
#     Node 6, Type 0, BuildingBlock: KUFVIS_clean_sbu_0, # of connection points: 4
#     Node 7, Type 0, BuildingBlock: KUFVIS_clean_sbu_0, # of connection points: 4
#     Edge 8, Type (0, 0), BuildingBlock: AJUNOK_clean_linker_0, # of connection points: 2
#     Edge 9, Type (0, 0), BuildingBlock: AJUNOK_clean_linker_0, # of connection points: 2
#     Edge 10, Type (0, 0), BuildingBlock: AJUNOK_clean_linker_0, # of connection points: 2
#     Edge 11, Type (0, 0), BuildingBlock: AJUNOK_clean_linker_0, # of connection points: 2
#     Edge 12, Type (0, 0), BuildingBlock: AJUNOK_clean_linker_0, # of connection points: 2
#     Edge 13, Type (0, 0), BuildingBlock: AJUNOK_clean_linker_0, # of connection points: 2
#     Edge 14, Type (0, 0), BuildingBlock: AJUNOK_clean_linker_0, # of connection points: 2
#     Edge 15, Type (0, 0), BuildingBlock: AJUNOK_clean_linker_0, # of connection points: 2
#     Edge 16, Type (0, 0), BuildingBlock: AJUNOK_clean_linker_0, # of connection points: 2
#     Edge 17, Type (0, 0), BuildingBlock: AJUNOK_clean_linker_0, # of connection points: 2
#     Edge 18, Type (0, 0), BuildingBlock: AJUNOK_clean_linker_0, # of connection points: 2
#     Edge 19, Type (0, 0), BuildingBlock: AJUNOK_clean_linker_0, # of connection points: 2
#     Edge 20, Type (0, 0), BuildingBlock: AJUNOK_clean_linker_0, # of connection points: 2
#     Edge 21, Type (0, 0), BuildingBlock: AJUNOK_clean_linker_0, # of connection points: 2
#     Edge 22, Type (0, 0), BuildingBlock: AJUNOK_clean_linker_0, # of connection points: 2
#     Edge 23, Type (0, 0), BuildingBlock: AJUNOK_clean_linker_0, # of connection points: 2
# Relax obj value: 0.117
# Max RMSD: 0.130
# Mean RMSD: 0.128
data_MOF--net-uoc--node1-KUFVIS_clean_sbu_0--edge1-AJUNOK_clean_linker_0
_symmetry_space_group_name_H-M    P1
_symmetry_Int_Tables_number       1
_symmetry_cell_setting            triclinic
loop_
_symmetry_equiv_pos_as_xyz
'x, y, z'
_cell_length_a     20.231823
_cell_length_b     20.236723
_cell_length_c     39.205876
_cell_angle_alpha  89.669333
_cell_angle_beta   89.626966
_cell_angle_gamma 89.081264
loop_
_atom_site_label
_atom_site_type_symbol
_atom_site_fract_x
_atom_site_fract_y
_atom_site_fract_z
_atom_type_partial_charge
Mn0 Mn 0.11455 0.26233 0.12875 0.0
Mn1 Mn 0.24858 0.16211 0.13568 0.0
C2 C 0.16851 0.24881 0.1812 0.0
C3 C 0.06128 0.36413 0.11697 0.0
C4 C 0.10879 0.11156 0.1333 0.0
O5 O 0.14187 0.24839 0.07838 0.0
O6 O 0.2339 0.18873 0.0885 0.0
C7 C 0.35229 0.25583 0.11525 0.0
N8 N 0.32805 0.21069 0.13774 0.0
C9 C 0.43509 0.1909 0.16192 0.0
C10 C 0.46141 0.23841 0.13966 0.0
C11 C 0.4195 0.27193 0.11661 0.0
C12 C 0.36681 0.18159 0.16149 0.0
H13 H 0.32087 0.27784 0.09595 0.0
C14 C 0.19396 0.21748 0.06815 0.0
O15 O 0.03126 0.30825 0.11514 0.0
O16 O 0.12367 0.36105 0.12473 0.0
N17 N 0.27101 0.12941 0.17964 0.0
C18 C 0.23766 0.08324 0.19806 0.0
C19 C 0.27287 0.03956 0.2193 0.0
C20 C 0.342 0.04254 0.22041 0.0
C21 C 0.37496 0.0928 0.2027 0.0
C22 C 0.33698 0.13642 0.18288 0.0
H23 H 0.18513 0.07714 0.19489 0.0
O24 O 0.10772 0.27006 0.17969 0.0
O25 O 0.1972 0.23831 0.15205 0.0
O26 O 0.08001 0.16782 0.13162 0.0
O27 O 0.17134 0.10473 0.1339 0.0
C28 C 0.44429 0.09794 0.20166 0.0
C29 C 0.47421 0.14883 0.18253 0.0
H30 H 0.51391 0.2481 0.13932 0.0
H31 H 0.43956 0.3077 0.09889 0.0
H32 H 0.24724 1.00109 0.23308 0.0
H33 H 0.36926 1.00458 0.23409 0.0
H34 H 0.47513 0.06297 0.21556 0.0
H35 H 0.52751 0.15304 0.18257 0.0
Mn36 Mn 0.73518 0.59035 0.37637 0.0
Mn37 Mn 0.82317 0.72589 0.39355 0.0
C38 C 0.73305 0.63294 0.43066 0.0
C39 C 0.63682 0.54272 0.35914 0.0
C40 C 0.88586 0.58894 0.38566 0.0
O41 O 0.75524 0.62734 0.32932 0.0
O42 O 0.80791 0.72044 0.34326 0.0
C43 C 0.7232 0.82779 0.3747 0.0
N44 N 0.76444 0.8002 0.39831 0.0
C45 C 0.72999 0.87956 0.4406 0.0
C46 C 0.68745 0.90909 0.41666 0.0
C47 C 0.68398 0.88301 0.38359 0.0
C48 C 0.76808 0.82482 0.43023 0.0
H49 H 0.72016 0.80766 0.34931 0.0
C50 C 0.78394 0.68092 0.32119 0.0
O51 O 0.69294 0.51077 0.35697 0.0
O52 O 0.63876 0.60329 0.36954 0.0
N53 N 0.84137 0.73754 0.441 0.0
C54 C 0.88288 0.7017 0.46147 0.0
C55 C 0.89114 0.72059 0.49558 0.0
C56 C 0.85695 0.77629 0.50824 0.0
C57 C 0.81513 0.81286 0.48659 0.0
C58 C 0.80933 0.79202 0.45274 0.0
H59 H 0.90878 0.65846 0.45202 0.0
O60 O 0.71789 0.57188 0.42538 0.0
O61 O 0.74928 0.66751 0.40386 0.0
O62 O 0.83206 0.55806 0.38087 0.0
O63 O 0.88741 0.65146 0.38999 0.0
C64 C 0.77795 0.86841 0.49745 0.0
C65 C 0.73531 0.90165 0.47449 0.0
H66 H 0.65687 0.95149 0.42346 0.0
H67 H 0.65102 0.90534 0.36503 0.0
H68 H 0.92332 0.69195 0.51215 0.0
H69 H 0.8628 0.7902 0.53467 0.0
H70 H 0.78112 0.88544 0.52352 0.0
H71 H 0.70639 0.94382 0.48325 0.0
Mn72 Mn 0.41775 0.2783 0.61644 0.0
Mn73 Mn 0.28097 0.18901 0.6024 0.0
C74 C 0.3715 0.27745 0.5631 0.0
C75 C 0.47093 0.37583 0.63049 0.0
C76 C 0.41806 0.12688 0.60842 0.0
O77 O 0.38325 0.26143 0.66445 0.0
O78 O 0.29137 0.2052 0.6521 0.0
C79 C 0.18127 0.28962 0.62348 0.0
N80 N 0.20668 0.24824 0.59928 0.0
C81 C 0.12405 0.28314 0.55883 0.0
C82 C 0.09681 0.32591 0.58337 0.0
C83 C 0.12564 0.32923 0.61581 0.0
C84 C 0.17957 0.24495 0.56792 0.0
H85 H 0.20338 0.29245 0.64842 0.0
C86 C 0.33092 0.23119 0.67344 0.0
O87 O 0.50014 0.31851 0.63336 0.0
O88 O 0.40908 0.37605 0.62188 0.0
N89 N 0.26442 0.16976 0.5555 0.0
C90 C 0.29572 0.12481 0.53499 0.0
C91 C 0.27303 0.11549 0.5016 0.0
C92 C 0.21792 0.15179 0.4898 0.0
C93 C 0.18529 0.19625 0.51172 0.0
C94 C 0.20983 0.20303 0.54482 0.0
H95 H 0.33806 0.0967 0.54392 0.0
O96 O 0.43312 0.29213 0.56693 0.0
O97 O 0.33842 0.2631 0.59064 0.0
O98 O 0.44806 0.18113 0.61288 0.0
O99 O 0.35547 0.12423 0.60439 0.0
C100 C 0.12941 0.23412 0.50203 0.0
C101 C 0.09886 0.2776 0.52555 0.0
H102 H 0.05403 0.35669 0.57753 0.0
H103 H 0.10505 0.36231 0.63485 0.0
H104 H 0.29815 0.08068 0.48493 0.0
H105 H 0.20093 0.1449 0.46394 0.0
H106 H 0.10961 0.23029 0.47653 0.0
H107 H 0.05614 0.30673 0.51774 0.0
Mn108 Mn 0.7511 0.89376 0.86294 0.0
Mn109 Mn 0.84995 0.75892 0.85578 0.0
C110 C 0.7651 0.84108 0.81021 0.0
C111 C 0.64948 0.94729 0.87483 0.0
C112 C 0.90226 0.89808 0.85895 0.0
O113 O 0.76403 0.86541 0.91315 0.0
O114 O 0.82339 0.77298 0.90331 0.0
C115 C 0.75332 0.65704 0.87517 0.0
N116 N 0.79911 0.68087 0.85289 0.0
C117 C 0.80925 0.57641 0.82459 0.0
C118 C 0.76134 0.55065 0.84681 0.0
C119 C 0.73247 0.59152 0.87189 0.0
C120 C 0.82417 0.64336 0.82746 0.0
H121 H 0.73412 0.68742 0.89566 0.0
C122 C 0.79442 0.8132 0.92355 0.0
O123 O 0.7055 0.97703 0.87695 0.0
O124 O 0.65234 0.88514 0.86661 0.0
N125 N 0.8821 0.73719 0.81152 0.0
C126 C 0.92947 0.76939 0.79337 0.0
C127 C 0.96888 0.73411 0.77006 0.0
C128 C 0.96022 0.66594 0.76644 0.0
C129 C 0.90861 0.63457 0.78387 0.0
C130 C 0.87002 0.67258 0.80625 0.0
H131 H 0.93968 0.82072 0.79806 0.0
O132 O 0.74413 0.90191 0.81204 0.0
O133 O 0.77479 0.81164 0.83925 0.0
O134 O 0.8461 0.92719 0.86057 0.0
O135 O 0.90872 0.83541 0.85813 0.0
C136 C 0.89736 0.56617 0.78203 0.0
C137 C 0.84594 0.53755 0.80131 0.0
H138 H 0.74754 0.49925 0.84538 0.0
H139 H 0.69621 0.57182 0.88946 0.0
H140 H 0.00835 0.75855 0.75645 0.0
H141 H 0.99525 0.63794 0.75124 0.0
H142 H 0.92858 0.53495 0.76621 0.0
H143 H 0.83722 0.48506 0.79923 0.0
Mn144 Mn 0.61401 0.77188 0.63044 0.0
Mn145 Mn 0.75205 0.68078 0.6289 0.0
C146 C 0.67559 0.76057 0.68104 0.0
C147 C 0.56217 0.87382 0.61799 0.0
C148 C 0.61305 0.62488 0.62833 0.0
O149 O 0.63186 0.75011 0.57944 0.0
O150 O 0.73939 0.72882 0.58584 0.0
C151 C 0.85767 0.77871 0.61978 0.0
N152 N 0.83157 0.7268 0.63721 0.0
C153 C 0.93666 0.69827 0.66166 0.0
C154 C 0.96471 0.75232 0.64466 0.0
C155 C 0.92471 0.79343 0.62407 0.0
C156 C 0.86861 0.6894 0.65856 0.0
H157 H 0.82784 0.80759 0.60224 0.0
C158 C 0.68831 0.73268 0.56729 0.0
O159 O 0.5295 0.81914 0.6191 0.0
O160 O 0.62538 0.86886 0.62312 0.0
N161 N 0.77177 0.63242 0.66951 0.0
C162 C 0.73645 0.58351 0.68469 0.0
C163 C 0.76933 0.53563 0.70455 0.0
C164 C 0.83828 0.53765 0.70775 0.0
C165 C 0.87312 0.59038 0.69328 0.0
C166 C 0.83723 0.63815 0.67501 0.0
H167 H 0.6841 0.57943 0.68064 0.0
O168 O 0.61559 0.7842 0.68151 0.0
O169 O 0.6992 0.7493 0.65087 0.0
O170 O 0.58225 0.67751 0.63708 0.0
O171 O 0.67426 0.62449 0.62004 0.0
C172 C 0.94239 0.59546 0.69457 0.0
C173 C 0.97396 0.65049 0.67975 0.0
H174 H 0.01708 0.7618 0.6466 0.0
H175 H 0.94611 0.83461 0.61044 0.0
H176 H 0.74204 0.49552 0.71597 0.0
H177 H 0.86386 0.49798 0.72107 0.0
H178 H 0.97188 0.55779 0.70734 0.0
H179 H 0.02711 0.65462 0.68168 0.0
Mn180 Mn 0.24666 0.09472 0.87528 0.0
Mn181 Mn 0.33433 0.23187 0.89021 0.0
C182 C 0.24635 0.13966 0.92886 0.0
C183 C 0.148 0.04494 0.85985 0.0
C184 C 0.39788 0.09509 0.8833 0.0
O185 O 0.26402 0.13049 0.82781 0.0
O186 O 0.31808 0.22385 0.84023 0.0
C187 C 0.23251 0.33138 0.87057 0.0
N188 N 0.27441 0.30543 0.89436 0.0
C189 C 0.23801 0.38511 0.93607 0.0
C190 C 0.19483 0.413 0.91193 0.0
C191 C 0.19198 0.38591 0.87906 0.0
C192 C 0.27725 0.33086 0.92612 0.0
H193 H 0.22988 0.31047 0.84534 0.0
C194 C 0.29233 0.18386 0.81897 0.0
O195 O 0.20446 0.01371 0.85728 0.0
O196 O 0.1497 0.10597 0.86954 0.0
N197 N 0.35333 0.24621 0.93737 0.0
C198 C 0.39765 0.21361 0.95768 0.0
C199 C 0.40626 0.23436 0.99147 0.0
C200 C 0.36955 0.28862 0.00397 0.0
C201 C 0.32527 0.32226 0.98238 0.0
C202 C 0.3194 0.29983 0.94881 0.0
H203 H 0.42554 0.1715 0.94836 0.0
O204 O 0.23183 0.0781 0.92461 0.0
O205 O 0.26127 0.1732 0.90157 0.0
O206 O 0.34412 0.06388 0.87895 0.0
O207 O 0.3993 0.15776 0.88726 0.0
C208 C 0.28648 0.37696 0.9929 0.0
C209 C 0.24281 0.4083 0.96977 0.0
H210 H 0.16326 0.45485 0.91843 0.0
H211 H 0.15849 0.40691 0.86036 0.0
H212 H 0.44068 0.20824 0.00794 0.0
H213 H 0.37575 0.30399 0.03016 0.0
H214 H 0.28961 0.39512 0.01876 0.0
H215 H 0.21286 0.45 0.97824 0.0
Mn216 Mn 0.91344 0.76685 0.11753 0.0
Mn217 Mn 0.77592 0.67921 0.10429 0.0
C218 C 0.86787 0.76521 0.06402 0.0
C219 C 0.96298 0.86576 0.13231 0.0
C220 C 0.91286 0.61553 0.11014 0.0
O221 O 0.87924 0.75077 0.16547 0.0
O222 O 0.78595 0.69608 0.15424 0.0
C223 C 0.67789 0.78195 0.12471 0.0
N224 N 0.70255 0.73955 0.10078 0.0
C225 C 0.62186 0.77652 0.05975 0.0
C226 C 0.59529 0.82021 0.08405 0.0
C227 C 0.62352 0.823 0.11665 0.0
C228 C 0.676 0.73674 0.06927 0.0
H229 H 0.69972 0.78461 0.14971 0.0
C230 C 0.82649 0.72234 0.17507 0.0
O231 O 0.99457 0.80951 0.13488 0.0
O232 O 0.90189 0.86378 0.12277 0.0
N233 N 0.75942 0.65963 0.05739 0.0
C234 C 0.79088 0.61485 0.03685 0.0
C235 C 0.76892 0.60627 0.00327 0.0
C236 C 0.71467 0.64351 0.99121 0.0
C237 C 0.68219 0.68825 0.01304 0.0
C238 C 0.70578 0.69406 0.04638 0.0
H239 H 0.83309 0.58669 0.0458 0.0
O240 O 0.92933 0.78029 0.06803 0.0
O241 O 0.83454 0.75153 0.09163 0.0
O242 O 0.94417 0.66932 0.11425 0.0
O243 O 0.85004 0.61407 0.10659 0.0
C244 C 0.62757 0.72757 0.00296 0.0
C245 C 0.59747 0.77173 0.02628 0.0
H246 H 0.55357 0.8522 0.07788 0.0
H247 H 0.60355 0.85689 0.13547 0.0
H248 H 0.79418 0.57153 0.98662 0.0
H249 H 0.69841 0.63737 0.96516 0.0
H250 H 0.60852 0.72448 0.97727 0.0
H251 H 0.55583 0.80208 0.01815 0.0
Mn252 Mn 0.24029 0.39189 0.36226 0.0
Mn253 Mn 0.34052 0.25783 0.35682 0.0
C254 C 0.25279 0.33567 0.31051 0.0
C255 C 0.13839 0.4439 0.37505 0.0
C256 C 0.39064 0.3981 0.3572 0.0
O257 O 0.25726 0.36813 0.41273 0.0
O258 O 0.31346 0.2734 0.40395 0.0
C259 C 0.2468 0.15449 0.37759 0.0
N260 N 0.29214 0.17823 0.35505 0.0
C261 C 0.31269 0.07058 0.33175 0.0
C262 C 0.26506 0.04472 0.35411 0.0
C263 C 0.23106 0.08717 0.37673 0.0
C264 C 0.32168 0.13893 0.33167 0.0
H265 H 0.22448 0.1864 0.39661 0.0
C266 C 0.28708 0.31607 0.42369 0.0
O267 O 0.19376 0.47514 0.37543 0.0
O268 O 0.14209 0.38128 0.36788 0.0
N269 N 0.37405 0.23435 0.31312 0.0
C270 C 0.42088 0.26714 0.29487 0.0
C271 C 0.46506 0.23144 0.27411 0.0
C272 C 0.46207 0.16232 0.27339 0.0
C273 C 0.41135 0.12982 0.29097 0.0
C274 C 0.36718 0.16828 0.31027 0.0
H275 H 0.42707 0.31969 0.29778 0.0
O276 O 0.23013 0.396 0.31145 0.0
O277 O 0.26432 0.3084 0.33991 0.0
O278 O 0.33432 0.42698 0.35765 0.0
O279 O 0.39754 0.33552 0.35832 0.0
C280 C 0.4063 0.06051 0.29242 0.0
C281 C 0.35519 0.03101 0.31157 0.0
H282 H 0.25564 0.99219 0.35484 0.0
H283 H 0.19522 0.06748 0.39454 0.0
H284 H 0.50391 0.25672 0.26043 0.0
H285 H 0.50042 0.13473 0.26014 0.0
H286 H 0.44154 0.02938 0.27886 0.0
H287 H 0.35115 0.9777 0.31192 0.0
C288 C 0.2596 0.15986 0.02313 0.0
C289 C 0.20887 0.20623 0.03138 0.0
C290 C 0.2723 0.14063 0.98973 0.0
C291 C 0.23722 0.16877 0.96271 0.0
H292 H 0.28898 0.13572 0.0427 0.0
H293 H 0.30982 0.10286 0.98501 0.0
S294 S 0.09953 0.29127 0.96893 0.0
N295 N 0.1228 0.27934 0.00887 0.0
N296 N 0.14848 0.24367 0.94531 0.0
C297 C 0.18718 0.21586 0.96984 0.0
C298 C 0.17295 0.23482 0.00432 0.0
C299 C 0.75909 0.65851 0.25967 0.0
C300 C 0.79186 0.69661 0.28416 0.0
C301 C 0.76908 0.66854 0.22461 0.0
C302 C 0.81272 0.71679 0.21234 0.0
H303 H 0.72595 0.6197 0.26756 0.0
H304 H 0.74362 0.63677 0.20705 0.0
S305 S 0.90705 0.83367 0.26537 0.0
N306 N 0.86712 0.78753 0.29329 0.0
N307 N 0.88589 0.80616 0.22751 0.0
C308 C 0.84425 0.7568 0.23643 0.0
C309 C 0.83378 0.74685 0.27221 0.0
C310 C 0.37051 0.2478 0.50266 0.0
C311 C 0.34204 0.28406 0.52921 0.0
C312 C 0.34958 0.25702 0.46925 0.0
C313 C 0.30089 0.30512 0.46052 0.0
H314 H 0.40956 0.21185 0.50777 0.0
H315 H 0.37402 0.227 0.45002 0.0
S316 S 0.21518 0.41738 0.5214 0.0
N317 N 0.26521 0.37202 0.54551 0.0
N318 N 0.22618 0.39096 0.48192 0.0
C319 C 0.27247 0.34268 0.48706 0.0
C320 C 0.29326 0.3321 0.52155 0.0
C321 C 0.71706 0.75274 0.77444 0.0
C322 C 0.76103 0.80552 0.77742 0.0
C323 C 0.69423 0.73296 0.7423 0.0
C324 C 0.71631 0.76382 0.71215 0.0
H325 H 0.69519 0.73108 0.7971 0.0
H326 H 0.65548 0.69671 0.74118 0.0
S327 S 0.83974 0.89667 0.70619 0.0
N328 N 0.83136 0.88299 0.74757 0.0
N329 N 0.79045 0.84415 0.68725 0.0
C330 C 0.76555 0.81161 0.71474 0.0
C331 C 0.7874 0.83295 0.74742 0.0
C332 C 0.20064 0.24869 0.27584 0.0
C333 C 0.24853 0.29794 0.27853 0.0
C334 C 0.17846 0.22809 0.24376 0.0
C335 C 0.20526 0.25431 0.21348 0.0
H336 H 0.17566 0.23073 0.29852 0.0
H337 H 0.13727 0.19463 0.24262 0.0
S338 S 0.33904 0.37674 0.20712 0.0
N339 N 0.32631 0.36771 0.24855 0.0
N340 N 0.28749 0.32621 0.18834 0.0
C341 C 0.25794 0.29835 0.21599 0.0
C342 C 0.27885 0.32097 0.24856 0.0
C343 C 0.66606 0.73764 0.50386 0.0
C344 C 0.69631 0.70722 0.53219 0.0
C345 C 0.67923 0.71453 0.47059 0.0
C346 C 0.72295 0.66068 0.46494 0.0
H347 H 0.63353 0.78013 0.50733 0.0
H348 H 0.65509 0.7387 0.44921 0.0
S349 S 0.80748 0.55901 0.53067 0.0
N350 N 0.76701 0.61659 0.55233 0.0
N351 N 0.7909 0.57406 0.49019 0.0
C352 C 0.75052 0.62816 0.4931 0.0
C353 C 0.73772 0.65148 0.52662 0.0
C354 C 0.35927 0.24978 0.73491 0.0
C355 C 0.31658 0.22288 0.71055 0.0
C356 C 0.34994 0.2385 0.76991 0.0
C357 C 0.29787 0.19937 0.78206 0.0
H358 H 0.40117 0.27889 0.72697 0.0
H359 H 0.38512 0.25905 0.78749 0.0
S360 S 0.16803 0.12259 0.72963 0.0
N361 N 0.21688 0.15902 0.70167 0.0
N362 N 0.20007 0.1377 0.76732 0.0
C363 C 0.25341 0.17402 0.75822 0.0
C364 C 0.26251 0.18586 0.72256 0.0
C365 C 0.8677 0.73612 0.00333 0.0
C366 C 0.83894 0.77228 0.0299 0.0
C367 C 0.84974 0.74789 0.96959 0.0
C368 C 0.80411 0.79868 0.96054 0.0
H369 H 0.90521 0.69868 0.00867 0.0
H370 H 0.87438 0.71798 0.95039 0.0
S371 S 0.71735 0.91027 0.02146 0.0
N372 N 0.76389 0.86189 0.04587 0.0
N373 N 0.73055 0.88565 0.98183 0.0
C374 C 0.77466 0.83543 0.98714 0.0
C375 C 0.79232 0.82222 0.02191 0.0
C376 C 0.10087 0.98889 0.14053 0.0
C377 C 0.06884 0.05048 0.13514 0.0
C378 C 0.0658 0.92986 0.14108 0.0
C379 C 0.99709 0.92959 0.13621 0.0
H380 H 0.15392 0.98575 0.14392 0.0
H381 H 0.09329 0.88392 0.14441 0.0
S382 S 0.88822 0.07731 0.12375 0.0
N383 N 0.96323 0.1075 0.12679 0.0
N384 N 0.89731 0.99647 0.12785 0.0
C385 C 0.96381 0.99081 0.13207 0.0
C386 C 0.99962 0.05117 0.13151 0.0
C387 C 0.01377 0.44937 0.37287 0.0
C388 C 0.07408 0.47952 0.38063 0.0
C389 C 0.95318 0.4844 0.37522 0.0
C390 C 0.95022 0.55117 0.38542 0.0
H391 H 0.01338 0.39873 0.36409 0.0
H392 H 0.90848 0.45917 0.36825 0.0
S393 S 0.09396 0.65125 0.41159 0.0
N394 N 0.12653 0.57887 0.40116 0.0
N395 N 0.01382 0.64449 0.40542 0.0
C396 C 0.01025 0.5811 0.39435 0.0
C397 C 0.07171 0.54541 0.392 0.0
C398 C 0.47453 0.4994 0.63479 0.0
C399 C 0.50833 0.43823 0.63249 0.0
C400 C 0.50857 0.55935 0.63348 0.0
C401 C 0.57776 0.56068 0.62917 0.0
H402 H 0.4212 0.50109 0.63739 0.0
H403 H 0.48016 0.605 0.63546 0.0
S404 S 0.68954 0.41352 0.62157 0.0
N405 N 0.61505 0.38253 0.62604 0.0
N406 N 0.67877 0.49441 0.62261 0.0
C407 C 0.61211 0.49955 0.62682 0.0
C408 C 0.57754 0.43864 0.6288 0.0
C409 C 0.52493 0.95411 0.87229 0.0
C410 C 0.58552 0.98414 0.87956 0.0
C411 C 0.46465 0.98978 0.8741 0.0
C412 C 0.46222 0.05719 0.88319 0.0
H413 H 0.52402 0.9029 0.86446 0.0
H414 H 0.41972 0.96439 0.86769 0.0
S415 S 0.60697 0.15799 0.90699 0.0
N416 N 0.63889 0.0846 0.898 0.0
N417 N 0.52672 0.15143 0.90111 0.0
C418 C 0.52256 0.08727 0.89136 0.0
C419 C 0.58374 0.05088 0.88965 0.0
C420 C 0.0185 0.54887 0.1186 0.0
C421 C 0.95088 0.55127 0.1099 0.0
C422 C 0.05438 0.48866 0.11996 0.0
C423 C 0.02435 0.42813 0.11257 0.0
H424 H 0.04391 0.59376 0.12506 0.0
H425 H 0.10573 0.48956 0.12754 0.0
S426 S 0.84998 0.40669 0.08597 0.0
N427 N 0.85644 0.48682 0.09222 0.0
N428 N 0.92366 0.37484 0.09439 0.0
C429 C 0.95739 0.42992 0.10284 0.0
C430 C 0.9208 0.491 0.10163 0.0
C431 C 0.51329 0.40564 0.34967 0.0
C432 C 0.45177 0.43789 0.35498 0.0
C433 C 0.57247 0.44048 0.34931 0.0
C434 C 0.57295 0.50914 0.35433 0.0
H435 H 0.51626 0.35258 0.34632 0.0
H436 H 0.61836 0.4128 0.34617 0.0
S437 S 0.42542 0.61853 0.36634 0.0
N438 N 0.39499 0.54365 0.36315 0.0
N439 N 0.50631 0.60915 0.36247 0.0
C440 C 0.51177 0.54267 0.3582 0.0
C441 C 0.45126 0.5071 0.35853 0.0
C442 C 0.42428 1.00249 0.60688 0.0
C443 C 0.45709 0.06333 0.60883 0.0
C444 C 0.45881 0.94187 0.60904 0.0
C445 C 0.52787 0.93901 0.61315 0.0
H446 H 0.37106 1.00133 0.60423 0.0
H447 H 0.4307 0.89683 0.60802 0.0
S448 S 0.63866 0.0833 0.61758 0.0
N449 N 0.56395 0.11627 0.6136 0.0
N450 N 0.62844 1.00256 0.6176 0.0
C451 C 0.56176 0.99923 0.61419 0.0
C452 C 0.52657 0.06116 0.61205 0.0
C453 C 0.02523 0.90626 0.85188 0.0
C454 C 0.9635 0.93804 0.85731 0.0
C455 C 0.08419 0.94162 0.85122 0.0
C456 C 0.08427 0.01038 0.85604 0.0
H457 H 0.02849 0.85322 0.84848 0.0
H458 H 0.13024 0.91434 0.84783 0.0
S459 S 0.93615 0.11858 0.86893 0.0
N460 N 0.90624 0.04348 0.86588 0.0
N461 N 0.017 0.1098 0.86464 0.0
C462 C 0.0229 0.04334 0.86035 0.0
C463 C 0.96266 0.00728 0.86101 0.0
loop_
_geom_bond_atom_site_label_1
_geom_bond_atom_site_label_2
_geom_bond_distance
_geom_bond_site_symmetry_2
_ccdc_geom_bond_type
Mn0 O5 2.095 . S
Mn0 O15 2.162 . S
Mn0 O16 2.297 . S
Mn0 O24 2.385 . S
Mn0 O25 2.209 . S
Mn0 O26 2.094 . S
Mn1 O6 2.121 . S
Mn1 N8 2.257 . S
Mn1 N17 2.282 . S
Mn1 O25 2.215 . S
Mn1 O27 2.117 . S
C2 O24 1.234 . S
C2 O25 1.283 . S
C3 O15 1.281 . S
C3 O16 1.236 . S
C4 O26 1.240 . S
C4 O27 1.264 . S
O5 Mn0 2.095 . S
O5 C14 1.250 . S
O6 Mn1 2.121 . S
O6 C14 1.258 . S
C7 N8 1.326 . S
C7 C11 1.460 . S
C7 H13 0.929 . S
N8 Mn1 2.257 . S
N8 C7 1.326 . S
N8 C12 1.362 . S
C9 C10 1.258 . S
C9 C12 1.431 . S
C9 C29 1.449 . S
C10 C9 1.258 . S
C10 C11 1.477 . S
C10 H30 0.931 . S
C11 C7 1.460 . S
C11 C10 1.477 . S
C11 H31 0.930 . S
C12 N8 1.362 . S
C12 C9 1.431 . S
C12 C22 1.476 . S
H13 C7 0.929 . S
C14 O5 1.250 . S
C14 O6 1.258 . S
O15 Mn0 2.162 . S
O15 C3 1.281 . S
O16 Mn0 2.297 . S
O16 C3 1.236 . S
N17 Mn1 2.282 . S
N17 C18 1.328 . S
N17 C22 1.318 . S
C18 N17 1.328 . S
C18 C19 1.457 . S
C18 H23 0.929 . S
C19 C18 1.457 . S
C19 C20 1.291 . S
C19 H32 0.931 . S
C20 C19 1.291 . S
C20 C21 1.373 . S
C20 H33 0.929 . S
C21 C20 1.373 . S
C21 C22 1.396 . S
C21 C28 1.403 . S
C22 C12 1.476 . S
C22 N17 1.318 . S
C22 C21 1.396 . S
H23 C18 0.929 . S
O24 Mn0 2.385 . S
O24 C2 1.234 . S
O25 Mn0 2.209 . S
O25 Mn1 2.215 . S
O25 C2 1.283 . S
O26 Mn0 2.094 . S
O26 C4 1.240 . S
O27 Mn1 2.117 . S
O27 C4 1.264 . S
C28 C21 1.403 . S
C28 C29 1.399 . S
C28 H34 0.929 . S
C29 C9 1.449 . S
C29 C28 1.399 . S
C29 H35 0.930 . S
H30 C10 0.931 . S
H31 C11 0.930 . S
H32 C19 0.931 . S
H33 C20 0.929 . S
H34 C28 0.929 . S
H35 C29 0.930 . S
Mn36 O41 2.095 . S
Mn36 O51 2.162 . S
Mn36 O52 2.297 . S
Mn36 O60 2.385 . S
Mn36 O61 2.209 . S
Mn36 O62 2.094 . S
Mn37 O42 2.121 . S
Mn37 N44 2.257 . S
Mn37 N53 2.282 . S
Mn37 O61 2.215 . S
Mn37 O63 2.117 . S
C38 O60 1.234 . S
C38 O61 1.283 . S
C39 O51 1.281 . S
C39 O52 1.236 . S
C40 O62 1.240 . S
C40 O63 1.264 . S
O41 Mn36 2.095 . S
O41 C50 1.250 . S
O42 Mn37 2.121 . S
O42 C50 1.258 . S
C43 N44 1.326 . S
C43 C47 1.460 . S
C43 H49 0.929 . S
N44 Mn37 2.257 . S
N44 C43 1.326 . S
N44 C48 1.362 . S
C45 C46 1.258 . S
C45 C48 1.431 . S
C45 C65 1.449 . S
C46 C45 1.258 . S
C46 C47 1.477 . S
C46 H66 0.931 1_565 S
C47 C43 1.460 . S
C47 C46 1.477 . S
C47 H67 0.930 . S
C48 N44 1.362 . S
C48 C45 1.431 . S
C48 C58 1.476 . S
H49 C43 0.929 . S
C50 O41 1.250 . S
C50 O42 1.258 . S
O51 Mn36 2.162 . S
O51 C39 1.281 . S
O52 Mn36 2.297 . S
O52 C39 1.236 . S
N53 Mn37 2.282 . S
N53 C54 1.328 . S
N53 C58 1.318 . S
C54 N53 1.328 . S
C54 C55 1.457 . S
C54 H59 0.929 . S
C55 C54 1.457 . S
C55 C56 1.291 . S
C55 H68 0.931 . S
C56 C55 1.291 . S
C56 C57 1.373 . S
C56 H69 0.929 . S
C57 C56 1.373 . S
C57 C58 1.396 . S
C57 C64 1.403 . S
C58 C48 1.476 . S
C58 N53 1.318 . S
C58 C57 1.396 . S
H59 C54 0.929 . S
O60 Mn36 2.385 . S
O60 C38 1.234 . S
O61 Mn36 2.209 . S
O61 Mn37 2.215 . S
O61 C38 1.283 . S
O62 Mn36 2.094 . S
O62 C40 1.240 . S
O63 Mn37 2.117 . S
O63 C40 1.264 . S
C64 C57 1.403 . S
C64 C65 1.399 . S
C64 H70 0.929 . S
C65 C45 1.449 . S
C65 C64 1.399 . S
C65 H71 0.930 . S
H66 C46 0.931 1_545 S
H67 C47 0.930 . S
H68 C55 0.931 . S
H69 C56 0.929 . S
H70 C64 0.929 . S
H71 C65 0.930 . S
Mn72 O77 2.095 . S
Mn72 O87 2.162 . S
Mn72 O88 2.297 . S
Mn72 O96 2.385 . S
Mn72 O97 2.209 . S
Mn72 O98 2.094 . S
Mn73 O78 2.121 . S
Mn73 N80 2.257 . S
Mn73 N89 2.282 . S
Mn73 O97 2.215 . S
Mn73 O99 2.117 . S
C74 O96 1.234 . S
C74 O97 1.283 . S
C75 O87 1.281 . S
C75 O88 1.236 . S
C76 O98 1.240 . S
C76 O99 1.264 . S
O77 Mn72 2.095 . S
O77 C86 1.250 . S
O78 Mn73 2.121 . S
O78 C86 1.258 . S
C79 N80 1.326 . S
C79 C83 1.460 . S
C79 H85 0.929 . S
N80 Mn73 2.257 . S
N80 C79 1.326 . S
N80 C84 1.362 . S
C81 C82 1.258 . S
C81 C84 1.431 . S
C81 C101 1.449 . S
C82 C81 1.258 . S
C82 C83 1.477 . S
C82 H102 0.931 1_455 S
C83 C79 1.460 . S
C83 C82 1.477 . S
C83 H103 0.930 . S
C84 N80 1.362 . S
C84 C81 1.431 . S
C84 C94 1.476 . S
H85 C79 0.929 . S
C86 O77 1.250 . S
C86 O78 1.258 . S
O87 Mn72 2.162 . S
O87 C75 1.281 . S
O88 Mn72 2.297 . S
O88 C75 1.236 . S
N89 Mn73 2.282 . S
N89 C90 1.328 . S
N89 C94 1.318 . S
C90 N89 1.328 . S
C90 C91 1.457 . S
C90 H95 0.929 . S
C91 C90 1.457 . S
C91 C92 1.291 . S
C91 H104 0.931 . S
C92 C91 1.291 . S
C92 C93 1.373 . S
C92 H105 0.929 . S
C93 C92 1.373 . S
C93 C94 1.396 . S
C93 C100 1.403 . S
C94 C84 1.476 . S
C94 N89 1.318 . S
C94 C93 1.396 . S
H95 C90 0.929 . S
O96 Mn72 2.385 . S
O96 C74 1.234 . S
O97 Mn72 2.209 . S
O97 Mn73 2.215 . S
O97 C74 1.283 . S
O98 Mn72 2.094 . S
O98 C76 1.240 . S
O99 Mn73 2.117 . S
O99 C76 1.264 . S
C100 C93 1.403 . S
C100 C101 1.399 . S
C100 H106 0.929 . S
C101 C81 1.449 . S
C101 C100 1.399 . S
C101 H107 0.930 . S
H102 C82 0.931 1_655 S
H103 C83 0.930 . S
H104 C91 0.931 . S
H105 C92 0.929 . S
H106 C100 0.929 . S
H107 C101 0.930 . S
Mn108 O113 2.095 . S
Mn108 O123 2.162 . S
Mn108 O124 2.297 . S
Mn108 O132 2.385 . S
Mn108 O133 2.209 . S
Mn108 O134 2.094 . S
Mn109 O114 2.121 . S
Mn109 N116 2.257 . S
Mn109 N125 2.282 . S
Mn109 O133 2.215 . S
Mn109 O135 2.117 . S
C110 O132 1.234 . S
C110 O133 1.283 . S
C111 O123 1.281 . S
C111 O124 1.236 . S
C112 O134 1.240 . S
C112 O135 1.264 . S
O113 Mn108 2.095 . S
O113 C122 1.250 . S
O114 Mn109 2.121 . S
O114 C122 1.258 . S
C115 N116 1.326 . S
C115 C119 1.460 . S
C115 H121 0.929 . S
N116 Mn109 2.257 . S
N116 C115 1.326 . S
N116 C120 1.362 . S
C117 C118 1.258 . S
C117 C120 1.431 . S
C117 C137 1.449 . S
C118 C117 1.258 . S
C118 C119 1.477 . S
C118 H138 0.931 . S
C119 C115 1.460 . S
C119 C118 1.477 . S
C119 H139 0.930 . S
C120 N116 1.362 . S
C120 C117 1.431 . S
C120 C130 1.476 . S
H121 C115 0.929 . S
C122 O113 1.250 . S
C122 O114 1.258 . S
O123 Mn108 2.162 . S
O123 C111 1.281 . S
O124 Mn108 2.297 . S
O124 C111 1.236 . S
N125 Mn109 2.282 . S
N125 C126 1.328 . S
N125 C130 1.318 . S
C126 N125 1.328 . S
C126 C127 1.457 . S
C126 H131 0.929 . S
C127 C126 1.457 . S
C127 C128 1.291 . S
C127 H140 0.931 . S
C128 C127 1.291 . S
C128 C129 1.373 . S
C128 H141 0.929 . S
C129 C128 1.373 . S
C129 C130 1.396 . S
C129 C136 1.403 . S
C130 C120 1.476 . S
C130 N125 1.318 . S
C130 C129 1.396 . S
H131 C126 0.929 . S
O132 Mn108 2.385 . S
O132 C110 1.234 . S
O133 Mn108 2.209 . S
O133 Mn109 2.215 . S
O133 C110 1.283 . S
O134 Mn108 2.094 . S
O134 C112 1.240 . S
O135 Mn109 2.117 . S
O135 C112 1.264 . S
C136 C129 1.403 . S
C136 C137 1.399 . S
C136 H142 0.929 . S
C137 C117 1.449 . S
C137 C136 1.399 . S
C137 H143 0.930 . S
H138 C118 0.931 . S
H139 C119 0.930 . S
H140 C127 0.931 . S
H141 C128 0.929 . S
H142 C136 0.929 . S
H143 C137 0.930 . S
Mn144 O149 2.095 . S
Mn144 O159 2.162 . S
Mn144 O160 2.297 . S
Mn144 O168 2.385 . S
Mn144 O169 2.209 . S
Mn144 O170 2.094 . S
Mn145 O150 2.121 . S
Mn145 N152 2.257 . S
Mn145 N161 2.282 . S
Mn145 O169 2.215 . S
Mn145 O171 2.117 . S
C146 O168 1.234 . S
C146 O169 1.283 . S
C147 O159 1.281 . S
C147 O160 1.236 . S
C148 O170 1.240 . S
C148 O171 1.264 . S
O149 Mn144 2.095 . S
O149 C158 1.250 . S
O150 Mn145 2.121 . S
O150 C158 1.258 . S
C151 N152 1.326 . S
C151 C155 1.460 . S
C151 H157 0.929 . S
N152 Mn145 2.257 . S
N152 C151 1.326 . S
N152 C156 1.362 . S
C153 C154 1.258 . S
C153 C156 1.431 . S
C153 C173 1.449 . S
C154 C153 1.258 . S
C154 C155 1.477 . S
C154 H174 0.931 1_655 S
C155 C151 1.460 . S
C155 C154 1.477 . S
C155 H175 0.930 . S
C156 N152 1.362 . S
C156 C153 1.431 . S
C156 C166 1.476 . S
H157 C151 0.929 . S
C158 O149 1.250 . S
C158 O150 1.258 . S
O159 Mn144 2.162 . S
O159 C147 1.281 . S
O160 Mn144 2.297 . S
O160 C147 1.236 . S
N161 Mn145 2.282 . S
N161 C162 1.328 . S
N161 C166 1.318 . S
C162 N161 1.328 . S
C162 C163 1.457 . S
C162 H167 0.929 . S
C163 C162 1.457 . S
C163 C164 1.291 . S
C163 H176 0.931 . S
C164 C163 1.291 . S
C164 C165 1.373 . S
C164 H177 0.929 . S
C165 C164 1.373 . S
C165 C166 1.396 . S
C165 C172 1.403 . S
C166 C156 1.476 . S
C166 N161 1.318 . S
C166 C165 1.396 . S
H167 C162 0.929 . S
O168 Mn144 2.385 . S
O168 C146 1.234 . S
O169 Mn144 2.209 . S
O169 Mn145 2.215 . S
O169 C146 1.283 . S
O170 Mn144 2.094 . S
O170 C148 1.240 . S
O171 Mn145 2.117 . S
O171 C148 1.264 . S
C172 C165 1.403 . S
C172 C173 1.399 . S
C172 H178 0.929 . S
C173 C153 1.449 . S
C173 C172 1.399 . S
C173 H179 0.930 . S
H174 C154 0.931 1_455 S
H175 C155 0.930 . S
H176 C163 0.931 . S
H177 C164 0.929 . S
H178 C172 0.929 . S
H179 C173 0.930 . S
Mn180 O185 2.095 . S
Mn180 O195 2.162 . S
Mn180 O196 2.297 . S
Mn180 O204 2.385 . S
Mn180 O205 2.209 . S
Mn180 O206 2.094 . S
Mn181 O186 2.121 . S
Mn181 N188 2.257 . S
Mn181 N197 2.282 . S
Mn181 O205 2.215 . S
Mn181 O207 2.117 . S
C182 O204 1.234 . S
C182 O205 1.283 . S
C183 O195 1.281 . S
C183 O196 1.236 . S
C184 O206 1.240 . S
C184 O207 1.264 . S
O185 Mn180 2.095 . S
O185 C194 1.250 . S
O186 Mn181 2.121 . S
O186 C194 1.258 . S
C187 N188 1.326 . S
C187 C191 1.460 . S
C187 H193 0.929 . S
N188 Mn181 2.257 . S
N188 C187 1.326 . S
N188 C192 1.362 . S
C189 C190 1.258 . S
C189 C192 1.431 . S
C189 C209 1.449 . S
C190 C189 1.258 . S
C190 C191 1.477 . S
C190 H210 0.931 . S
C191 C187 1.460 . S
C191 C190 1.477 . S
C191 H211 0.930 . S
C192 N188 1.362 . S
C192 C189 1.431 . S
C192 C202 1.476 . S
H193 C187 0.929 . S
C194 O185 1.250 . S
C194 O186 1.258 . S
O195 Mn180 2.162 . S
O195 C183 1.281 . S
O196 Mn180 2.297 . S
O196 C183 1.236 . S
N197 Mn181 2.282 . S
N197 C198 1.328 . S
N197 C202 1.318 . S
C198 N197 1.328 . S
C198 C199 1.457 . S
C198 H203 0.929 . S
C199 C198 1.457 . S
C199 C200 1.291 1_556 S
C199 H212 0.931 1_556 S
C200 C199 1.291 1_554 S
C200 C201 1.373 1_554 S
C200 H213 0.929 . S
C201 C200 1.373 1_556 S
C201 C202 1.396 . S
C201 C208 1.403 . S
C202 C192 1.476 . S
C202 N197 1.318 . S
C202 C201 1.396 . S
H203 C198 0.929 . S
O204 Mn180 2.385 . S
O204 C182 1.234 . S
O205 Mn180 2.209 . S
O205 Mn181 2.215 . S
O205 C182 1.283 . S
O206 Mn180 2.094 . S
O206 C184 1.240 . S
O207 Mn181 2.117 . S
O207 C184 1.264 . S
C208 C201 1.403 . S
C208 C209 1.399 . S
C208 H214 0.929 1_556 S
C209 C189 1.449 . S
C209 C208 1.399 . S
C209 H215 0.930 . S
H210 C190 0.931 . S
H211 C191 0.930 . S
H212 C199 0.931 1_554 S
H213 C200 0.929 . S
H214 C208 0.929 1_554 S
H215 C209 0.930 . S
Mn216 O221 2.095 . S
Mn216 O231 2.162 . S
Mn216 O232 2.297 . S
Mn216 O240 2.385 . S
Mn216 O241 2.209 . S
Mn216 O242 2.094 . S
Mn217 O222 2.121 . S
Mn217 N224 2.257 . S
Mn217 N233 2.282 . S
Mn217 O241 2.215 . S
Mn217 O243 2.117 . S
C218 O240 1.234 . S
C218 O241 1.283 . S
C219 O231 1.281 . S
C219 O232 1.236 . S
C220 O242 1.240 . S
C220 O243 1.264 . S
O221 Mn216 2.095 . S
O221 C230 1.250 . S
O222 Mn217 2.121 . S
O222 C230 1.258 . S
C223 N224 1.326 . S
C223 C227 1.460 . S
C223 H229 0.929 . S
N224 Mn217 2.257 . S
N224 C223 1.326 . S
N224 C228 1.362 . S
C225 C226 1.258 . S
C225 C228 1.431 . S
C225 C245 1.449 . S
C226 C225 1.258 . S
C226 C227 1.477 . S
C226 H246 0.931 . S
C227 C223 1.460 . S
C227 C226 1.477 . S
C227 H247 0.930 . S
C228 N224 1.362 . S
C228 C225 1.431 . S
C228 C238 1.476 . S
H229 C223 0.929 . S
C230 O221 1.250 . S
C230 O222 1.258 . S
O231 Mn216 2.162 . S
O231 C219 1.281 . S
O232 Mn216 2.297 . S
O232 C219 1.236 . S
N233 Mn217 2.282 . S
N233 C234 1.328 . S
N233 C238 1.318 . S
C234 N233 1.328 . S
C234 C235 1.457 . S
C234 H239 0.929 . S
C235 C234 1.457 . S
C235 C236 1.291 1_554 S
C235 H248 0.931 1_554 S
C236 C235 1.291 1_556 S
C236 C237 1.373 1_556 S
C236 H249 0.929 . S
C237 C236 1.373 1_554 S
C237 C238 1.396 . S
C237 C244 1.403 . S
C238 C228 1.476 . S
C238 N233 1.318 . S
C238 C237 1.396 . S
H239 C234 0.929 . S
O240 Mn216 2.385 . S
O240 C218 1.234 . S
O241 Mn216 2.209 . S
O241 Mn217 2.215 . S
O241 C218 1.283 . S
O242 Mn216 2.094 . S
O242 C220 1.240 . S
O243 Mn217 2.117 . S
O243 C220 1.264 . S
C244 C237 1.403 . S
C244 C245 1.399 . S
C244 H250 0.929 1_554 S
C245 C225 1.449 . S
C245 C244 1.399 . S
C245 H251 0.930 . S
H246 C226 0.931 . S
H247 C227 0.930 . S
H248 C235 0.931 1_556 S
H249 C236 0.929 . S
H250 C244 0.929 1_556 S
H251 C245 0.930 . S
Mn252 O257 2.095 . S
Mn252 O267 2.162 . S
Mn252 O268 2.297 . S
Mn252 O276 2.385 . S
Mn252 O277 2.209 . S
Mn252 O278 2.094 . S
Mn253 O258 2.121 . S
Mn253 N260 2.257 . S
Mn253 N269 2.282 . S
Mn253 O277 2.215 . S
Mn253 O279 2.117 . S
C254 O276 1.234 . S
C254 O277 1.283 . S
C255 O267 1.281 . S
C255 O268 1.236 . S
C256 O278 1.240 . S
C256 O279 1.264 . S
O257 Mn252 2.095 . S
O257 C266 1.250 . S
O258 Mn253 2.121 . S
O258 C266 1.258 . S
C259 N260 1.326 . S
C259 C263 1.460 . S
C259 H265 0.929 . S
N260 Mn253 2.257 . S
N260 C259 1.326 . S
N260 C264 1.362 . S
C261 C262 1.258 . S
C261 C264 1.431 . S
C261 C281 1.449 . S
C262 C261 1.258 . S
C262 C263 1.477 . S
C262 H282 0.931 1_545 S
C263 C259 1.460 . S
C263 C262 1.477 . S
C263 H283 0.930 . S
C264 N260 1.362 . S
C264 C261 1.431 . S
C264 C274 1.476 . S
H265 C259 0.929 . S
C266 O257 1.250 . S
C266 O258 1.258 . S
O267 Mn252 2.162 . S
O267 C255 1.281 . S
O268 Mn252 2.297 . S
O268 C255 1.236 . S
N269 Mn253 2.282 . S
N269 C270 1.328 . S
N269 C274 1.318 . S
C270 N269 1.328 . S
C270 C271 1.457 . S
C270 H275 0.929 . S
C271 C270 1.457 . S
C271 C272 1.291 . S
C271 H284 0.931 . S
C272 C271 1.291 . S
C272 C273 1.373 . S
C272 H285 0.929 . S
C273 C272 1.373 . S
C273 C274 1.396 . S
C273 C280 1.403 . S
C274 C264 1.476 . S
C274 N269 1.318 . S
C274 C273 1.396 . S
H275 C270 0.929 . S
O276 Mn252 2.385 . S
O276 C254 1.234 . S
O277 Mn252 2.209 . S
O277 Mn253 2.215 . S
O277 C254 1.283 . S
O278 Mn252 2.094 . S
O278 C256 1.240 . S
O279 Mn253 2.117 . S
O279 C256 1.264 . S
C280 C273 1.403 . S
C280 C281 1.399 . S
C280 H286 0.929 . S
C281 C261 1.449 . S
C281 C280 1.399 . S
C281 H287 0.930 . S
H282 C262 0.931 1_565 S
H283 C263 0.930 . S
H284 C271 0.931 . S
H285 C272 0.929 . S
H286 C280 0.929 . S
H287 C281 0.930 . S
C288 C289 1.369 . S
C288 C290 1.419 1_554 S
C288 H292 0.930 . S
C289 C288 1.369 . S
C289 C298 1.429 . S
C290 C288 1.419 1_556 S
C290 C291 1.363 . S
C290 H293 0.929 . S
C291 C290 1.363 . S
C291 C297 1.428 . S
H292 C288 0.930 . S
H293 C290 0.929 . S
S294 N295 1.613 1_556 S
S294 N296 1.610 . S
N295 S294 1.613 1_554 S
N295 C298 1.350 . S
N296 S294 1.610 . S
N296 C297 1.351 . S
C297 C291 1.428 . S
C297 N296 1.351 . S
C297 C298 1.434 1_556 S
C298 C289 1.429 . S
C298 N295 1.350 . S
C298 C297 1.434 1_554 S
C299 C300 1.369 . S
C299 C301 1.419 . S
C299 H303 0.930 . S
C300 C299 1.369 . S
C300 C309 1.429 . S
C301 C299 1.419 . S
C301 C302 1.363 . S
C301 H304 0.929 . S
C302 C301 1.363 . S
C302 C308 1.428 . S
H303 C299 0.930 . S
H304 C301 0.929 . S
S305 N306 1.613 . S
S305 N307 1.610 . S
N306 S305 1.613 . S
N306 C309 1.350 . S
N307 S305 1.610 . S
N307 C308 1.351 . S
C308 C302 1.428 . S
C308 N307 1.351 . S
C308 C309 1.434 . S
C309 C300 1.429 . S
C309 N306 1.350 . S
C309 C308 1.434 . S
C310 C311 1.369 . S
C310 C312 1.419 . S
C310 H314 0.930 . S
C311 C310 1.369 . S
C311 C320 1.429 . S
C312 C310 1.419 . S
C312 C313 1.363 . S
C312 H315 0.929 . S
C313 C312 1.363 . S
C313 C319 1.428 . S
H314 C310 0.930 . S
H315 C312 0.929 . S
S316 N317 1.613 . S
S316 N318 1.610 . S
N317 S316 1.613 . S
N317 C320 1.350 . S
N318 S316 1.610 . S
N318 C319 1.351 . S
C319 C313 1.428 . S
C319 N318 1.351 . S
C319 C320 1.434 . S
C320 C311 1.429 . S
C320 N317 1.350 . S
C320 C319 1.434 . S
C321 C322 1.369 . S
C321 C323 1.419 . S
C321 H325 0.930 . S
C322 C321 1.369 . S
C322 C331 1.429 . S
C323 C321 1.419 . S
C323 C324 1.363 . S
C323 H326 0.929 . S
C324 C323 1.363 . S
C324 C330 1.428 . S
H325 C321 0.930 . S
H326 C323 0.929 . S
S327 N328 1.613 . S
S327 N329 1.610 . S
N328 S327 1.613 . S
N328 C331 1.350 . S
N329 S327 1.610 . S
N329 C330 1.351 . S
C330 C324 1.428 . S
C330 N329 1.351 . S
C330 C331 1.434 . S
C331 C322 1.429 . S
C331 N328 1.350 . S
C331 C330 1.434 . S
C332 C333 1.369 . S
C332 C334 1.419 . S
C332 H336 0.930 . S
C333 C332 1.369 . S
C333 C342 1.429 . S
C334 C332 1.419 . S
C334 C335 1.363 . S
C334 H337 0.929 . S
C335 C334 1.363 . S
C335 C341 1.428 . S
H336 C332 0.930 . S
H337 C334 0.929 . S
S338 N339 1.613 . S
S338 N340 1.610 . S
N339 S338 1.613 . S
N339 C342 1.350 . S
N340 S338 1.610 . S
N340 C341 1.351 . S
C341 C335 1.428 . S
C341 N340 1.351 . S
C341 C342 1.434 . S
C342 C333 1.429 . S
C342 N339 1.350 . S
C342 C341 1.434 . S
C343 C344 1.369 . S
C343 C345 1.419 . S
C343 H347 0.930 . S
C344 C343 1.369 . S
C344 C353 1.429 . S
C345 C343 1.419 . S
C345 C346 1.363 . S
C345 H348 0.929 . S
C346 C345 1.363 . S
C346 C352 1.428 . S
H347 C343 0.930 . S
H348 C345 0.929 . S
S349 N350 1.613 . S
S349 N351 1.610 . S
N350 S349 1.613 . S
N350 C353 1.350 . S
N351 S349 1.610 . S
N351 C352 1.351 . S
C352 C346 1.428 . S
C352 N351 1.351 . S
C352 C353 1.434 . S
C353 C344 1.429 . S
C353 N350 1.350 . S
C353 C352 1.434 . S
C354 C355 1.369 . S
C354 C356 1.419 . S
C354 H358 0.930 . S
C355 C354 1.369 . S
C355 C364 1.429 . S
C356 C354 1.419 . S
C356 C357 1.363 . S
C356 H359 0.929 . S
C357 C356 1.363 . S
C357 C363 1.428 . S
H358 C354 0.930 . S
H359 C356 0.929 . S
S360 N361 1.613 . S
S360 N362 1.610 . S
N361 S360 1.613 . S
N361 C364 1.350 . S
N362 S360 1.610 . S
N362 C363 1.351 . S
C363 C357 1.428 . S
C363 N362 1.351 . S
C363 C364 1.434 . S
C364 C355 1.429 . S
C364 N361 1.350 . S
C364 C363 1.434 . S
C365 C366 1.369 . S
C365 C367 1.419 1_554 S
C365 H369 0.930 . S
C366 C365 1.369 . S
C366 C375 1.429 . S
C367 C365 1.419 1_556 S
C367 C368 1.363 . S
C367 H370 0.929 . S
C368 C367 1.363 . S
C368 C374 1.428 . S
H369 C365 0.930 . S
H370 C367 0.929 . S
S371 N372 1.613 . S
S371 N373 1.610 1_554 S
N372 S371 1.613 . S
N372 C375 1.350 . S
N373 S371 1.610 1_556 S
N373 C374 1.351 . S
C374 C368 1.428 . S
C374 N373 1.351 . S
C374 C375 1.434 1_556 S
C375 C366 1.429 . S
C375 N372 1.350 . S
C375 C374 1.434 1_554 S
C376 C377 1.369 . S
C376 C378 1.419 1_445 S
C376 H380 0.930 . S
C377 C376 1.369 . S
C377 C386 1.429 . S
C378 C376 1.419 1_665 S
C378 C379 1.363 . S
C378 H381 0.929 . S
C379 C378 1.363 . S
C379 C385 1.428 . S
H380 C376 0.930 . S
H381 C378 0.929 . S
S382 N383 1.613 1_655 S
S382 N384 1.610 1_545 S
N383 S382 1.613 1_455 S
N383 C386 1.350 . S
N384 S382 1.610 1_565 S
N384 C385 1.351 . S
C385 C379 1.428 . S
C385 N384 1.351 . S
C385 C386 1.434 1_665 S
C386 C377 1.429 . S
C386 N383 1.350 . S
C386 C385 1.434 1_445 S
C387 C388 1.369 . S
C387 C389 1.419 1_455 S
C387 H391 0.930 . S
C388 C387 1.369 . S
C388 C397 1.429 . S
C389 C387 1.419 1_655 S
C389 C390 1.363 . S
C389 H392 0.929 . S
C390 C389 1.363 . S
C390 C396 1.428 . S
H391 C387 0.930 . S
H392 C389 0.929 . S
S393 N394 1.613 . S
S393 N395 1.610 1_455 S
N394 S393 1.613 . S
N394 C397 1.350 . S
N395 S393 1.610 1_655 S
N395 C396 1.351 . S
C396 C390 1.428 . S
C396 N395 1.351 . S
C396 C397 1.434 1_655 S
C397 C388 1.429 . S
C397 N394 1.350 . S
C397 C396 1.434 1_455 S
C398 C399 1.369 . S
C398 C400 1.419 . S
C398 H402 0.930 . S
C399 C398 1.369 . S
C399 C408 1.429 . S
C400 C398 1.419 . S
C400 C401 1.363 . S
C400 H403 0.929 . S
C401 C400 1.363 . S
C401 C407 1.428 . S
H402 C398 0.930 . S
H403 C400 0.929 . S
S404 N405 1.613 . S
S404 N406 1.610 . S
N405 S404 1.613 . S
N405 C408 1.350 . S
N406 S404 1.610 . S
N406 C407 1.351 . S
C407 C401 1.428 . S
C407 N406 1.351 . S
C407 C408 1.434 . S
C408 C399 1.429 . S
C408 N405 1.350 . S
C408 C407 1.434 . S
C409 C410 1.369 . S
C409 C411 1.419 . S
C409 H413 0.930 . S
C410 C409 1.369 . S
C410 C419 1.429 1_565 S
C411 C409 1.419 . S
C411 C412 1.363 1_565 S
C411 H414 0.929 . S
C412 C411 1.363 1_545 S
C412 C418 1.428 . S
H413 C409 0.930 . S
H414 C411 0.929 . S
S415 N416 1.613 . S
S415 N417 1.610 . S
N416 S415 1.613 . S
N416 C419 1.350 . S
N417 S415 1.610 . S
N417 C418 1.351 . S
C418 C412 1.428 . S
C418 N417 1.351 . S
C418 C419 1.434 . S
C419 C410 1.429 1_545 S
C419 N416 1.350 . S
C419 C418 1.434 . S
C420 C421 1.369 1_455 S
C420 C422 1.419 . S
C420 H424 0.930 . S
C421 C420 1.369 1_655 S
C421 C430 1.429 . S
C422 C420 1.419 . S
C422 C423 1.363 . S
C422 H425 0.929 . S
C423 C422 1.363 . S
C423 C429 1.428 1_455 S
H424 C420 0.930 . S
H425 C422 0.929 . S
S426 N427 1.613 . S
S426 N428 1.610 . S
N427 S426 1.613 . S
N427 C430 1.350 . S
N428 S426 1.610 . S
N428 C429 1.351 . S
C429 C423 1.428 1_655 S
C429 N428 1.351 . S
C429 C430 1.434 . S
C430 C421 1.429 . S
C430 N427 1.350 . S
C430 C429 1.434 . S
C431 C432 1.369 . S
C431 C433 1.419 . S
C431 H435 0.930 . S
C432 C431 1.369 . S
C432 C441 1.429 . S
C433 C431 1.419 . S
C433 C434 1.363 . S
C433 H436 0.929 . S
C434 C433 1.363 . S
C434 C440 1.428 . S
H435 C431 0.930 . S
H436 C433 0.929 . S
S437 N438 1.613 . S
S437 N439 1.610 . S
N438 S437 1.613 . S
N438 C441 1.350 . S
N439 S437 1.610 . S
N439 C440 1.351 . S
C440 C434 1.428 . S
C440 N439 1.351 . S
C440 C441 1.434 . S
C441 C432 1.429 . S
C441 N438 1.350 . S
C441 C440 1.434 . S
C442 C443 1.369 1_565 S
C442 C444 1.419 . S
C442 H446 0.930 . S
C443 C442 1.369 1_545 S
C443 C452 1.429 . S
C444 C442 1.419 . S
C444 C445 1.363 . S
C444 H447 0.929 . S
C445 C444 1.363 . S
C445 C451 1.428 1_565 S
H446 C442 0.930 . S
H447 C444 0.929 . S
S448 N449 1.613 . S
S448 N450 1.610 . S
N449 S448 1.613 . S
N449 C452 1.350 . S
N450 S448 1.610 . S
N450 C451 1.351 . S
C451 C445 1.428 1_545 S
C451 N450 1.351 . S
C451 C452 1.434 . S
C452 C443 1.429 . S
C452 N449 1.350 . S
C452 C451 1.434 . S
C453 C454 1.369 . S
C453 C455 1.419 1_655 S
C453 H457 0.930 . S
C454 C453 1.369 . S
C454 C463 1.429 1_565 S
C455 C453 1.419 1_455 S
C455 C456 1.363 1_565 S
C455 H458 0.929 . S
C456 C455 1.363 1_545 S
C456 C462 1.428 1_455 S
H457 C453 0.930 . S
H458 C455 0.929 . S
S459 N460 1.613 . S
S459 N461 1.610 . S
N460 S459 1.613 . S
N460 C463 1.350 . S
N461 S459 1.610 . S
N461 C462 1.351 . S
C462 C456 1.428 1_655 S
C462 N461 1.351 . S
C462 C463 1.434 . S
C463 C454 1.429 1_545 S
C463 N460 1.350 . S
C463 C462 1.434 . S
C289 C14 1.295 . S
C291 C182 1.265 . S
C300 C50 1.260 . S
C302 C230 1.261 . S
C311 C74 1.267 . S
C313 C266 1.297 . S
C322 C110 1.300 . S
C324 C146 1.302 . S
C333 C254 1.298 . S
C335 C2 1.307 . S
C344 C158 1.295 . S
C346 C38 1.264 . S
C355 C86 1.261 . S
C357 C194 1.261 . S
C366 C218 1.271 . S
C368 C122 1.299 . S
C377 C4 1.573 . S
C379 C219 1.561 . S
C388 C255 1.560 . S
C390 C40 1.574 . S
C399 C75 1.559 . S
C401 C148 1.573 . S
C410 C111 1.560 . S
C412 C184 1.574 . S
C421 C220 1.574 . S
C423 C3 1.560 . S
C432 C256 1.573 . S
C434 C39 1.561 . S
C443 C76 1.574 . S
C445 C147 1.564 . S
C454 C112 1.573 . S
C456 C183 1.562 . S
