# Generated by pormake.
# Topology uni, (4)-cn, num edge types: 1
# Building blocks:
#     Node 0, Type 0, BuildingBlock: ICAMEG_clean_sbu_1, # of connection points: 4
#     Node 1, Type 0, BuildingBlock: ICAMEG_clean_sbu_1, # of connection points: 4
#     Node 2, Type 0, BuildingBlock: ICAMEG_clean_sbu_1, # of connection points: 4
#     Node 3, Type 0, BuildingBlock: ICAMEG_clean_sbu_1, # of connection points: 4
#     Node 4, Type 0, BuildingBlock: ICAMEG_clean_sbu_1, # of connection points: 4
#     Node 5, Type 0, BuildingBlock: ICAMEG_clean_sbu_1, # of connection points: 4
#     Edge 6, Type (0, 0), BuildingBlock: FUNLAD_clean_linker_0, # of connection points: 2
#     Edge 7, Type (0, 0), BuildingBlock: FUNLAD_clean_linker_0, # of connection points: 2
#     Edge 8, Type (0, 0), BuildingBlock: FUNLAD_clean_linker_0, # of connection points: 2
#     Edge 9, Type (0, 0), BuildingBlock: FUNLAD_clean_linker_0, # of connection points: 2
#     Edge 10, Type (0, 0), BuildingBlock: FUNLAD_clean_linker_0, # of connection points: 2
#     Edge 11, Type (0, 0), BuildingBlock: FUNLAD_clean_linker_0, # of connection points: 2
#     Edge 12, Type (0, 0), BuildingBlock: FUNLAD_clean_linker_0, # of connection points: 2
#     Edge 13, Type (0, 0), BuildingBlock: FUNLAD_clean_linker_0, # of connection points: 2
#     Edge 14, Type (0, 0), BuildingBlock: FUNLAD_clean_linker_0, # of connection points: 2
#     Edge 15, Type (0, 0), BuildingBlock: FUNLAD_clean_linker_0, # of connection points: 2
#     Edge 16, Type (0, 0), BuildingBlock: FUNLAD_clean_linker_0, # of connection points: 2
#     Edge 17, Type (0, 0), BuildingBlock: FUNLAD_clean_linker_0, # of connection points: 2
# Relax obj value: 0.140
# Max RMSD: 0.183
# Mean RMSD: 0.183
data_MOF--net-uni--node1-ICAMEG_clean_sbu_1--edge1-FUNLAD_clean_linker_0
_symmetry_space_group_name_H-M    P1
_symmetry_Int_Tables_number       1
_symmetry_cell_setting            triclinic
loop_
_symmetry_equiv_pos_as_xyz
'x, y, z'
_cell_length_a     46.731843
_cell_length_b     46.704644
_cell_length_c     28.357625
_cell_angle_alpha  89.9673
_cell_angle_beta   90.020152
_cell_angle_gamma 120.01712
loop_
_atom_site_label
_atom_site_type_symbol
_atom_site_fract_x
_atom_site_fract_y
_atom_site_fract_z
_atom_type_partial_charge
Co0 Co 0.64228 0.01863 0.04575 0.0
Co1 Co 0.69908 0.07352 0.12301 0.0
O2 O 0.67759 0.06355 0.06095 0.0
C3 C 0.62361 0.06439 0.99468 0.0
O4 O 0.64626 0.09046 0.01712 0.0
C5 C 0.75837 0.10717 0.05977 0.0
O6 O 0.74906 0.07933 0.03716 0.0
O7 O 0.71202 0.03943 0.11286 0.0
O8 O 0.66383 0.99882 0.0852 0.0
H9 H 0.72707 0.04496 0.28087 0.0
H10 H 0.68159 0.06698 0.97057 0.0
O11 O 0.6191 0.0357 1.00403 0.0
H12 H 0.69242 0.96907 0.93923 0.0
H13 H 0.55938 0.92781 0.94085 0.0
H14 H 0.60347 0.95786 0.10243 0.0
H15 H 0.65895 0.96952 1.00596 0.0
H16 H 0.60486 0.984 0.9586 0.0
O17 O 0.74119 0.10827 0.09378 0.0
H18 H 0.69916 0.03304 0.20367 0.0
H19 H 0.74675 0.13573 0.17268 0.0
H20 H 0.55821 0.90127 0.0861 0.0
H21 H 0.71494 0.06745 0.90315 0.0
H22 H 0.53584 0.88594 1.00482 0.0
H23 H 0.72062 0.01825 0.88707 0.0
O24 O 0.61658 0.01974 0.10148 0.0
H25 H 0.6874 0.17127 0.0778 0.0
H26 H 0.66635 0.08889 0.20168 0.0
H27 H 0.64902 0.1302 0.2143 0.0
H28 H 0.65961 0.17187 0.15214 0.0
H29 H 0.70392 0.1292 0.06635 0.0
H30 H 0.77536 0.14873 0.24943 0.0
H31 H 0.7655 0.10317 0.3042 0.0
O32 O 0.65745 0.03963 0.15476 0.0
C33 C 0.69245 0.00909 0.10303 0.0
C34 C 0.73151 0.06504 0.25736 0.0
C35 C 0.75864 0.12327 0.23969 0.0
N36 N 0.72115 0.08365 0.18377 0.0
C37 C 0.71571 0.05844 0.21362 0.0
C38 C 0.74242 0.11574 0.19621 0.0
C39 C 0.75308 0.0977 0.27041 0.0
C40 C 0.68347 0.04529 0.96358 0.0
N41 N 0.66784 0.01807 0.99197 0.0
C42 C 0.70261 0.04578 0.92543 0.0
C43 C 0.70584 0.01821 0.91649 0.0
C44 C 0.69004 0.99062 0.94574 0.0
C45 C 0.67114 0.99104 0.98357 0.0
C46 C 0.56892 0.93418 0.97641 0.0
C47 C 0.59398 0.95135 0.06693 0.0
C48 C 0.59459 0.96601 0.98673 0.0
N49 N 0.6069 0.9742 0.03152 0.0
C50 C 0.5683 0.91928 0.05791 0.0
C51 C 0.55574 0.9107 0.01231 0.0
C52 C 0.62685 0.02527 0.14407 0.0
C53 C 0.68262 0.15323 0.10513 0.0
C54 C 0.67074 0.10668 0.17422 0.0
C55 C 0.66102 0.13014 0.18169 0.0
C56 C 0.667 0.15353 0.14683 0.0
N57 N 0.68593 0.10645 0.13312 0.0
C58 C 0.69198 0.12938 0.09889 0.0
Co59 Co 0.67097 0.6456 0.21036 0.0
Co60 Co 0.67277 0.7058 0.28072 0.0
O61 O 0.66364 0.68294 0.22001 0.0
C62 C 0.60348 0.62033 0.16923 0.0
O63 O 0.5939 0.62816 0.20828 0.0
C64 C 0.70519 0.7609 0.21154 0.0
O65 O 0.7175 0.74454 0.19016 0.0
O66 O 0.719 0.7145 0.27897 0.0
O67 O 0.71037 0.6654 0.25343 0.0
H68 H 0.71813 0.73284 0.44549 0.0
H69 H 0.66602 0.6818 0.12772 0.0
O70 O 0.63271 0.62519 0.16558 0.0
H71 H 0.77545 0.69084 0.1143 0.0
H72 H 0.67633 0.55786 0.11389 0.0
H73 H 0.68684 0.60464 0.27304 0.0
H74 H 0.73819 0.66003 0.18008 0.0
H75 H 0.66856 0.60577 0.1265 0.0
O76 O 0.68691 0.74875 0.24772 0.0
H77 H 0.70538 0.70361 0.36923 0.0
H78 H 0.661 0.75826 0.32019 0.0
H79 H 0.69507 0.55687 0.26194 0.0
H80 H 0.70233 0.71247 0.06098 0.0
H81 H 0.68983 0.53317 0.18189 0.0
H82 H 0.75755 0.71726 0.05406 0.0
O83 O 0.64134 0.62171 0.26479 0.0
H84 H 0.57172 0.70116 0.21095 0.0
H85 H 0.61889 0.67933 0.35282 0.0
H86 H 0.561 0.66681 0.35385 0.0
H87 H 0.53707 0.6778 0.28257 0.0
H88 H 0.62944 0.71302 0.21132 0.0
H89 H 0.67351 0.78828 0.39577 0.0
H90 H 0.70215 0.77552 0.45914 0.0
O91 O 0.6584 0.6636 0.31612 0.0
C92 C 0.72879 0.6938 0.27186 0.0
C93 C 0.70555 0.73855 0.41821 0.0
C94 C 0.68054 0.76969 0.39028 0.0
N95 N 0.68224 0.72903 0.34044 0.0
C96 C 0.6982 0.72202 0.375 0.0
C97 C 0.67359 0.75267 0.34752 0.0
C98 C 0.6966 0.76251 0.42583 0.0
C99 C 0.68988 0.6835 0.12473 0.0
N100 N 0.69995 0.66911 0.15781 0.0
C101 C 0.71039 0.70102 0.08695 0.0
C102 C 0.74139 0.70374 0.08313 0.0
C103 C 0.75146 0.68896 0.11695 0.0
C104 C 0.73031 0.67165 0.15426 0.0
C105 C 0.67873 0.568 0.14893 0.0
C106 C 0.68467 0.59456 0.23807 0.0
C107 C 0.67427 0.59508 0.15632 0.0
N108 N 0.67745 0.60813 0.20044 0.0
C109 C 0.68929 0.56747 0.23201 0.0
C110 C 0.68631 0.55416 0.18709 0.0
C111 C 0.64293 0.63276 0.3065 0.0
C112 C 0.58189 0.69634 0.24227 0.0
C113 C 0.60863 0.68407 0.3216 0.0
C114 C 0.57585 0.67701 0.32244 0.0
C115 C 0.56245 0.6832 0.28245 0.0
N116 N 0.62756 0.69701 0.28208 0.0
C117 C 0.61459 0.70312 0.24273 0.0
Co118 Co 0.08509 0.67483 0.37104 0.0
Co119 Co 0.01962 0.67678 0.42147 0.0
O120 O 0.04079 0.66919 0.36739 0.0
C121 C 0.04597 0.60846 0.32559 0.0
O122 O 0.02477 0.59893 0.3606 0.0
C123 C 0.99545 0.71943 0.38187 0.0
O124 O 0.01224 0.7407 0.41537 0.0
O125 O 0.05814 0.72241 0.42809 0.0
O126 O 0.10032 0.71338 0.41498 0.0
H127 H 0.0166 0.71741 0.58441 0.0
H128 H 0.0551 0.67347 0.27827 0.0
O129 O 0.07136 0.63727 0.32565 0.0
H130 H 0.15923 0.78037 0.28337 0.0
H131 H 0.18622 0.67738 0.30433 0.0
H132 H 0.13289 0.68784 0.44819 0.0
H133 H 0.14299 0.74141 0.35001 0.0
H134 H 0.13093 0.67179 0.30051 0.0
O135 O 0.9974 0.69326 0.37725 0.0
H136 H 0.04245 0.7069 0.51578 0.0
H137 H 0.95115 0.66345 0.44195 0.0
H138 H 0.18832 0.69385 0.45355 0.0
H139 H 0.07058 0.71156 0.21058 0.0
H140 H 0.21535 0.68862 0.38125 0.0
H141 H 0.12295 0.76548 0.2129 0.0
O142 O 0.07173 0.64399 0.42615 0.0
H143 H 0.93291 0.58041 0.32946 0.0
H144 H 0.98098 0.61999 0.48711 0.0
H145 H 0.93517 0.56279 0.47764 0.0
H146 H 0.91072 0.54267 0.39836 0.0
H147 H 0.97908 0.63732 0.34043 0.0
H148 H 0.92433 0.67354 0.50975 0.0
H149 H 0.95713 0.70069 0.58165 0.0
O150 O 0.0408 0.65993 0.46645 0.0
C151 C 0.08889 0.7317 0.42895 0.0
C152 C 1.00205 0.70554 0.55329 0.0
C153 C 0.95026 0.68091 0.5114 0.0
N154 N 0.99834 0.68453 0.47493 0.0
C155 C 0.01655 0.69952 0.51433 0.0
C156 C 0.96558 0.67526 0.47313 0.0
C157 C 0.96868 0.69615 0.55172 0.0
C158 C 0.07802 0.69681 0.27945 0.0
N159 N 0.09815 0.70514 0.31804 0.0
C160 C 0.08662 0.71832 0.24105 0.0
C161 C 0.11599 0.74858 0.24239 0.0
C162 C 0.13634 0.75695 0.28193 0.0
C163 C 0.12696 0.73483 0.31965 0.0
C164 C 0.17472 0.67975 0.33607 0.0
C165 C 0.14457 0.68569 0.41654 0.0
C166 C 0.14337 0.67653 0.33415 0.0
N167 N 0.12878 0.67969 0.37406 0.0
C168 C 0.17592 0.68905 0.41981 0.0
C169 C 0.19106 0.68608 0.37924 0.0
C170 C 0.05704 0.64468 0.46377 0.0
C171 C 0.9433 0.58891 0.36421 0.0
C172 C 0.97068 0.61139 0.45246 0.0
C173 C 0.94462 0.57899 0.44734 0.0
C174 C 0.93089 0.56773 0.40286 0.0
N175 N 0.98269 0.63207 0.4144 0.0
C176 C 0.96936 0.62117 0.37068 0.0
Co177 Co 0.46057 0.08378 0.54774 0.0
Co178 Co 0.39196 0.0206 0.5983 0.0
O179 O 0.4208 0.04022 0.54378 0.0
C180 C 0.48254 0.04245 0.49491 0.0
O181 O 0.46818 0.01879 0.52636 0.0
C182 C 0.32524 0.99669 0.55788 0.0
O183 O 0.32054 0.01366 0.59086 0.0
O184 O 0.38617 0.06009 0.60236 0.0
O185 O 0.43897 0.0998 0.59351 0.0
H186 H 0.34927 0.02222 0.76027 0.0
H187 H 0.42987 0.05562 0.45514 0.0
O188 O 0.48289 0.06967 0.50036 0.0
H189 H 0.43303 0.16256 0.4652 0.0
H190 H 0.56077 0.18407 0.48208 0.0
H191 H 0.49747 0.1297 0.62592 0.0
H192 H 0.45516 0.14398 0.52979 0.0
H193 H 0.50974 0.12982 0.47749 0.0
O194 O 0.35326 0.99838 0.55414 0.0
H195 H 0.38566 0.04594 0.69109 0.0
H196 H 0.33554 0.95319 0.62114 0.0
H197 H 0.54823 0.18408 0.63206 0.0
H198 H 0.40781 0.07344 0.38945 0.0
H199 H 0.58026 0.21164 0.55978 0.0
H200 H 0.40925 0.12724 0.39427 0.0
O201 O 0.47716 0.06823 0.60136 0.0
H202 H 0.39755 0.92966 0.51177 0.0
H203 H 0.40888 0.98235 0.66651 0.0
H204 H 0.4182 0.93504 0.66004 0.0
H205 H 0.41241 0.90824 0.58225 0.0
H206 H 0.38899 0.97741 0.51969 0.0
H207 H 0.29858 0.92849 0.68953 0.0
H208 H 0.30535 0.96309 0.75977 0.0
O209 O 0.43027 0.04187 0.6432 0.0
C210 C 0.40903 0.09032 0.60447 0.0
C211 C 0.34608 0.00689 0.72989 0.0
C212 C 0.31764 0.95428 0.6902 0.0
N213 N 0.36278 1.00099 0.65214 0.0
C214 C 0.36661 0.02018 0.69061 0.0
C215 C 0.33865 0.96841 0.65158 0.0
C216 C 0.32144 0.97371 0.72958 0.0
C217 C 0.43076 0.07915 0.45741 0.0
N218 N 0.44389 0.09876 0.49626 0.0
C219 C 0.41816 0.08907 0.42014 0.0
C220 C 0.41894 0.11925 0.42288 0.0
C221 C 0.43227 0.13907 0.46267 0.0
C222 C 0.44467 0.12836 0.49923 0.0
C223 C 0.54702 0.17232 0.51383 0.0
C224 C 0.51119 0.14158 0.59427 0.0
C225 C 0.51815 0.14154 0.51147 0.0
N226 N 0.50053 0.12665 0.55138 0.0
C227 C 0.53995 0.17235 0.59799 0.0
C228 C 0.55793 0.18779 0.55742 0.0
C229 C 0.46168 0.05544 0.63979 0.0
C230 C 0.40006 0.94106 0.54588 0.0
C231 C 0.40661 0.97107 0.63246 0.0
C232 C 0.41175 0.94415 0.62906 0.0
C233 C 0.40845 0.9291 0.58542 0.0
N234 N 0.39835 0.98267 0.59353 0.0
C235 C 0.39509 0.96802 0.55064 0.0
Co236 Co 0.42348 0.45552 0.71649 0.0
Co237 Co 0.42495 0.39919 0.79135 0.0
O238 O 0.43388 0.42042 0.72909 0.0
C239 C 0.48547 0.47415 0.65859 0.0
O240 O 0.48804 0.44932 0.67522 0.0
C241 C 0.39682 0.33874 0.72952 0.0
O242 O 0.37673 0.34698 0.70912 0.0
O243 O 0.37747 0.38574 0.78516 0.0
O244 O 0.38368 0.43371 0.75882 0.0
H245 H 0.37423 0.37116 0.95307 0.0
H246 H 0.42942 0.41588 0.63846 0.0
O247 O 0.46242 0.4792 0.67261 0.0
H248 H 0.31977 0.40515 0.61823 0.0
H249 H 0.41185 0.53844 0.61661 0.0
H250 H 0.4031 0.49391 0.777 0.0
H251 H 0.35628 0.43856 0.68304 0.0
H252 H 0.42342 0.49315 0.63115 0.0
O253 O 0.4168 0.35702 0.76138 0.0
H254 H 0.38708 0.39876 0.87554 0.0
H255 H 0.44214 0.35236 0.83785 0.0
H256 H 0.39096 0.53897 0.76393 0.0
H257 H 0.39391 0.3826 0.57292 0.0
H258 H 0.39533 0.56155 0.68325 0.0
H259 H 0.33857 0.37699 0.56239 0.0
O260 O 0.45218 0.48139 0.77053 0.0
H261 H 0.53289 0.41247 0.73503 0.0
H262 H 0.47597 0.43209 0.86671 0.0
H263 H 0.53518 0.45018 0.87386 0.0
H264 H 0.56405 0.44033 0.80774 0.0
H265 H 0.47374 0.3951 0.72916 0.0
H266 H 0.42967 0.32407 0.91483 0.0
H267 H 0.39559 0.3335 0.97314 0.0
O268 O 0.43373 0.44089 0.82415 0.0
C269 C 0.36609 0.40501 0.77687 0.0
C270 C 0.38918 0.36692 0.92801 0.0
C271 C 0.42026 0.34045 0.90652 0.0
N272 N 0.41551 0.37736 0.85228 0.0
C273 C 0.3966 0.38254 0.88407 0.0
C274 C 0.42717 0.35649 0.86293 0.0
C275 C 0.40115 0.34577 0.93923 0.0
C276 C 0.40571 0.41414 0.63385 0.0
N277 N 0.39539 0.42987 0.66416 0.0
C278 C 0.38554 0.39499 0.59676 0.0
C279 C 0.35447 0.39178 0.59093 0.0
C280 C 0.34392 0.40757 0.62224 0.0
C281 C 0.36475 0.42649 0.65891 0.0
C282 C 0.40982 0.52878 0.65191 0.0
C283 C 0.40488 0.50347 0.74175 0.0
C284 C 0.41645 0.5032 0.6604 0.0
N285 N 0.41375 0.49075 0.70487 0.0
C286 C 0.39805 0.52905 0.73458 0.0
C287 C 0.40054 0.54173 0.68931 0.0
C288 C 0.44955 0.47146 0.81308 0.0
C289 C 0.52061 0.41694 0.76406 0.0
C290 C 0.48839 0.42801 0.83756 0.0
C291 C 0.52191 0.43817 0.84193 0.0
C292 C 0.53808 0.4326 0.80484 0.0
N293 N 0.47144 0.41279 0.79735 0.0
C294 C 0.48711 0.40714 0.76095 0.0
Co295 Co 0.01384 0.42513 0.86998 0.0
Co296 Co 0.07475 0.421 0.93 0.0
O297 O 0.0577 0.42961 0.87197 0.0
C298 C 0.05699 0.48861 0.81857 0.0
O299 O 0.07999 0.49697 0.85079 0.0
C300 C 0.10083 0.37839 0.89578 0.0
O301 O 0.08306 0.35701 0.92866 0.0
O302 O 0.03562 0.3755 0.93227 0.0
O303 O 0.99596 0.38761 0.91627 0.0
H304 H 0.06584 0.3777 0.09477 0.0
H305 H 0.04662 0.42308 0.78168 0.0
O306 O 0.02965 0.46164 0.82231 0.0
H307 H 0.94056 0.31802 0.78518 0.0
H308 H 0.91616 0.42286 0.7909 0.0
H309 H 0.96422 0.41597 0.94239 0.0
H310 H 0.95537 0.35882 0.84905 0.0
H311 H 0.97079 0.42686 0.79342 0.0
O312 O 0.09926 0.40469 0.89025 0.0
H313 H 0.04523 0.38968 0.02159 0.0
H314 H 0.14106 0.43283 0.961 0.0
H315 H 0.90939 0.41155 0.94144 0.0
H316 H 0.03264 0.3831 0.71675 0.0
H317 H 0.885 0.415 0.86528 0.0
H318 H 0.97929 0.33011 0.71829 0.0
O319 O 0.02657 0.45751 0.92267 0.0
H320 H 0.16982 0.51769 0.84948 0.0
H321 H 0.10841 0.47672 0.99874 0.0
H322 H 0.15564 0.53357 0.99464 0.0
H323 H 0.18681 0.55438 0.91967 0.0
H324 H 0.12207 0.46117 0.85486 0.0
H325 H 0.1627 0.42128 0.0335 0.0
H326 H 0.12497 0.39353 0.10104 0.0
O327 O 0.05093 0.43782 0.97052 0.0
C328 C 1.00528 0.36766 0.93067 0.0
C329 C 0.08252 0.38982 0.06559 0.0
C330 C 0.13689 0.41428 0.03121 0.0
N331 N 0.09191 0.412 0.9871 0.0
C332 C 0.071 0.39668 0.02407 0.0
C333 C 0.1245 0.42078 0.99027 0.0
C334 C 0.11571 0.39871 0.06909 0.0
C335 C 0.02328 0.40016 0.78246 0.0
N336 N 1.0018 0.39337 0.81905 0.0
C337 C 0.01553 0.37758 0.74566 0.0
C338 C 0.98561 0.34784 0.74656 0.0
C339 C 0.96387 0.34104 0.78408 0.0
C340 C 0.97245 0.3642 0.82025 0.0
C341 C 0.92651 0.4213 0.82431 0.0
C342 C 0.95373 0.41737 0.90909 0.0
C343 C 0.95749 0.42366 0.82597 0.0
N344 N 0.97064 0.42151 0.86801 0.0
C345 C 0.92269 0.41491 0.90878 0.0
C346 C 0.90904 0.41687 0.86605 0.0
C347 C 0.03758 0.45554 0.96306 0.0
C348 C 0.1565 0.50888 0.8824 0.0
C349 C 0.12164 0.48563 0.96584 0.0
C350 C 0.14848 0.51783 0.96382 0.0
C351 C 0.16598 0.52947 0.92176 0.0
N352 N 0.11249 0.46555 0.92708 0.0
C353 C 0.12954 0.47682 0.88573 0.0
C354 C 0.5739 0.01666 0.18025 0.0
C355 C 0.60321 0.01536 0.18384 0.0
C356 C 0.55472 0.01253 0.22054 0.0
C357 C 0.56439 0.00664 0.26497 0.0
C358 C 0.5925 1.00324 0.26768 0.0
C359 C 0.61187 0.00791 0.2278 0.0
C360 C 0.54678 0.00521 0.30951 0.0
C361 C 0.53246 0.02374 0.31661 0.0
C362 C 0.51971 0.02732 0.36318 0.0
C363 C 0.51806 0.05607 0.37138 0.0
C364 C 0.50664 0.06104 0.41435 0.0
C365 C 0.49608 0.03715 0.45038 0.0
H366 H 0.50929 0.98038 0.39383 0.0
C367 C 0.49736 0.0081 0.44223 0.0
C368 C 0.50912 1.00323 0.3991 0.0
H369 H 0.48908 0.98903 0.46899 0.0
H370 H 0.56665 0.02239 0.14686 0.0
H371 H 0.53267 0.01443 0.21693 0.0
H372 H 0.60037 0.99839 0.30123 0.0
H373 H 0.63421 0.0065 0.23166 0.0
H374 H 0.54924 0.99167 0.33887 0.0
H375 H 0.53287 0.03956 0.28819 0.0
H376 H 0.52588 0.07501 0.34447 0.0
H377 H 0.50576 0.08361 0.41896 0.0
C378 C 0.63056 0.62175 0.39271 0.0
C379 C 0.62634 0.60945 0.34636 0.0
C380 C 0.61414 0.60077 0.43054 0.0
C381 C 0.59266 0.56677 0.42325 0.0
C382 C 0.58928 0.55415 0.37726 0.0
C383 C 0.60582 0.57526 0.33914 0.0
C384 C 0.57382 0.54416 0.46306 0.0
C385 C 0.56459 0.55468 0.50145 0.0
C386 C 0.54488 0.53319 0.54156 0.0
C387 C 0.52685 0.5435 0.56937 0.0
C388 C 0.5081 0.52457 0.6076 0.0
C389 C 0.50724 0.49495 0.61965 0.0
H390 H 0.55872 0.49541 0.53399 0.0
C391 C 0.52592 0.48489 0.59262 0.0
C392 C 0.54448 0.50375 0.55382 0.0
H393 H 0.52577 0.46218 0.60092 0.0
H394 H 0.64654 0.64781 0.40004 0.0
H395 H 0.6186 0.61138 0.46553 0.0
H396 H 0.57325 0.52799 0.37064 0.0
H397 H 0.60216 0.56486 0.30404 0.0
H398 H 0.5658 0.51809 0.45925 0.0
H399 H 0.57002 0.58016 0.50264 0.0
H400 H 0.52692 0.5662 0.56116 0.0
H401 H 0.49415 0.53319 0.62767 0.0
C402 C 0.03643 0.50183 0.74494 0.0
C403 C 0.06271 0.50947 0.77612 0.0
C404 C 0.04134 0.52038 0.70405 0.0
C405 C 0.07271 0.54724 0.69315 0.0
C406 C 0.09918 0.55464 0.7238 0.0
C407 C 0.0942 0.53612 0.76512 0.0
C408 C 0.07813 0.56737 0.64971 0.0
C409 C 0.05448 0.57296 0.63249 0.0
C410 C 0.05796 0.59286 0.58966 0.0
C411 C 0.03887 0.60826 0.58693 0.0
C412 C 0.03926 0.62543 0.54654 0.0
C413 C 0.05825 0.62716 0.50696 0.0
H414 H 0.09229 0.58293 0.55138 0.0
C415 C 0.07772 0.61195 0.50963 0.0
C416 C 0.0777 0.59504 0.55073 0.0
H417 H 0.09274 0.61288 0.47994 0.0
H418 H 0.01189 0.48132 0.75189 0.0
H419 H 0.02054 0.51321 0.68065 0.0
H420 H 0.12366 0.57501 0.71603 0.0
H421 H 0.11506 0.54244 0.78809 0.0
H422 H 0.10236 0.57904 0.63324 0.0
H423 H 0.03159 0.56385 0.65217 0.0
H424 H 0.02339 0.60694 0.61627 0.0
H425 H 0.02419 0.63703 0.5464 0.0
C426 C 0.58036 0.03997 0.93149 0.0
C427 C 0.6059 0.06815 0.95364 0.0
C428 C 0.56546 0.04281 0.89037 0.0
C429 C 0.5755 0.07401 0.87028 0.0
C430 C 0.60089 0.10222 0.89252 0.0
C431 C 0.61578 0.09938 0.9339 0.0
C432 C 0.5608 0.07761 0.82538 0.0
C433 C 0.52973 0.05561 0.81175 0.0
C434 C 0.5138 0.0578 0.76735 0.0
C435 C 0.47919 0.04096 0.76556 0.0
C436 C 0.46265 0.04064 0.72445 0.0
C437 C 0.48022 0.05673 0.68329 0.0
H438 H 0.5584 0.08706 0.72621 0.0
C439 C 0.515 0.07375 0.68486 0.0
C440 C 0.53167 0.07435 0.72652 0.0
H441 H 0.52935 0.08648 0.65394 0.0
H442 H 0.5722 0.01548 0.94541 0.0
H443 H 0.54675 0.02033 0.87379 0.0
H444 H 0.60933 0.12655 0.87773 0.0
H445 H 0.63557 0.12159 0.94972 0.0
H446 H 0.5755 0.09958 0.80422 0.0
H447 H 0.51424 0.03542 0.83541 0.0
H448 H 0.46471 0.02788 0.79625 0.0
H449 H 0.4359 0.02743 0.7251 0.0
C450 C 0.59304 0.6025 0.08473 0.0
C451 C 0.58071 0.60578 0.12845 0.0
C452 C 0.57194 0.58776 0.04634 0.0
C453 C 0.53783 0.5759 0.05055 0.0
C454 C 0.5255 0.57938 0.09413 0.0
C455 C 0.54672 0.59442 0.13258 0.0
C456 C 0.51435 0.55732 0.01157 0.0
C457 C 0.52313 0.56092 0.9656 0.0
C458 C 0.50131 0.53899 0.92723 0.0
C459 C 0.50819 0.54978 0.8801 0.0
C460 C 0.49049 0.52846 0.84284 0.0
C461 C 0.46579 0.49567 0.85193 0.0
H462 H 0.47019 0.49676 0.97177 0.0
C463 C 0.45833 0.48521 0.89916 0.0
C464 C 0.47583 0.5065 0.93626 0.0
H465 H 0.43949 0.46013 0.90764 0.0
H466 H 0.61909 0.61097 0.08015 0.0
H467 H 0.58241 0.58473 0.014 0.0
H468 H 0.49929 0.57015 0.09858 0.0
H469 H 0.5364 0.5965 0.16573 0.0
H470 H 0.48899 0.53997 0.02146 0.0
H471 H 0.54755 0.58051 0.95534 0.0
H472 H 0.52786 0.57458 0.872 0.0
H473 H 0.497 0.53731 0.80695 0.0
C474 C 0.04075 0.46742 0.04985 0.0
C475 C 0.03459 0.47405 1.00364 0.0
C476 C 0.03933 0.48552 0.08816 0.0
C477 C 0.03184 0.51088 0.08128 0.0
C478 C 0.02557 0.51745 0.0352 0.0
C479 C 0.0266 0.49906 0.99685 0.0
C480 C 0.03289 0.53244 0.12079 0.0
C481 C 0.02695 0.52252 0.16626 0.0
C482 C 0.03091 0.54511 0.20601 0.0
C483 C 0.01224 0.53211 0.24742 0.0
C484 C 0.01664 0.5526 0.28616 0.0
C485 C 0.04037 0.58644 0.28463 0.0
H486 H 0.07001 0.58983 0.17378 0.0
C487 C 0.05916 0.59936 0.24325 0.0
C488 C 0.05447 0.57902 0.20444 0.0
H489 H 0.07768 0.62531 0.24076 0.0
H490 H 0.04706 0.44841 0.05654 0.0
H491 H 0.04521 0.48026 0.12286 0.0
H492 H 0.02006 0.53706 0.02878 0.0
H493 H 0.02185 0.50494 0.9618 0.0
H494 H 0.03833 0.55728 0.11178 0.0
H495 H 0.0183 0.4968 0.17483 0.0
H496 H 0.99417 0.50601 0.2498 0.0
H497 H 1.00182 0.54184 0.31748 0.0
C498 C 0.70642 0.81456 0.22257 0.0
C499 C 0.71112 0.79307 0.19307 0.0
C500 C 0.70943 0.84386 0.20489 0.0
C501 C 0.71696 0.85226 0.15708 0.0
C502 C 0.72214 0.83103 0.12772 0.0
C503 C 0.71966 0.80189 0.14564 0.0
C504 C 0.71612 0.88105 0.13624 0.0
C505 C 0.72336 0.90856 0.16089 0.0
C506 C 0.71714 0.93478 0.14249 0.0
C507 C 0.73652 0.96749 0.15843 0.0
C508 C 0.72927 0.99199 0.14458 0.0
C509 C 0.70196 0.98404 0.11536 0.0
H510 H 0.67409 0.90187 0.10082 0.0
C511 C 0.68264 0.95124 0.09947 0.0
C512 C 0.69022 0.92699 0.11261 0.0
H513 H 0.66113 0.94397 0.07753 0.0
H514 H 0.69983 0.80847 0.25932 0.0
H515 H 0.70441 0.8591 0.22834 0.0
H516 H 0.7276 0.83674 0.09063 0.0
H517 H 0.72322 0.78573 0.122 0.0
H518 H 0.70878 0.87922 0.0995 0.0
H519 H 0.73383 0.91193 0.19604 0.0
H520 H 0.75713 0.97403 0.18201 0.0
H521 H 0.74452 0.0169 0.15781 0.0
C522 C 0.96065 0.74589 0.36943 0.0
C523 C 0.96895 0.72186 0.35659 0.0
C524 C 0.93236 0.74491 0.351 0.0
C525 C 0.91173 0.71979 0.31927 0.0
C526 C 0.92123 0.69708 0.30434 0.0
C527 C 0.94938 0.69797 0.32288 0.0
C528 C 0.87964 0.7154 0.30199 0.0
C529 C 0.86242 0.72779 0.32363 0.0
C530 C 0.82836 0.71911 0.30916 0.0
C531 C 0.81692 0.74119 0.31866 0.0
C532 C 0.78464 0.73316 0.30668 0.0
C533 C 0.76294 0.7026 0.28549 0.0
H534 H 0.81378 0.67005 0.28243 0.0
C535 C 0.77428 0.68027 0.27691 0.0
C536 C 0.80649 0.68837 0.28859 0.0
H537 H 0.75825 0.65629 0.2613 0.0
H538 H 0.97531 0.76481 0.39506 0.0
H539 H 0.9267 0.76363 0.36228 0.0
H540 H 0.90611 0.67769 0.27953 0.0
H541 H 0.9551 0.67917 0.31195 0.0
H542 H 0.86888 0.69955 0.27144 0.0
H543 H 0.87294 0.74424 0.35357 0.0
H544 H 0.83306 0.76483 0.33517 0.0
H545 H 0.77672 0.75089 0.31411 0.0
C546 C 0.147 0.7762 0.44588 0.0
C547 C 0.11297 0.76541 0.44618 0.0
C548 C 0.17013 0.80819 0.46004 0.0
C549 C 0.15994 0.83041 0.47492 0.0
C550 C 0.12594 0.81944 0.47667 0.0
C551 C 0.10267 0.78735 0.46212 0.0
C552 C 0.18431 0.86444 0.49101 0.0
C553 C 0.21528 0.88137 0.47335 0.0
C554 C 0.24232 0.91345 0.49205 0.0
C555 C 0.2748 0.92394 0.47731 0.0
C556 C 0.3016 0.95193 0.49697 0.0
C557 C 0.29662 0.97039 0.53178 0.0
H558 H 0.21263 0.92646 0.53675 0.0
C559 C 0.26405 0.96112 0.54468 0.0
C560 C 0.23716 0.93295 0.5251 0.0
H561 H 0.25932 0.97487 0.57128 0.0
H562 H 0.156 0.75996 0.43464 0.0
H563 H 0.19598 0.81515 0.46007 0.0
H564 H 0.11738 0.83586 0.48878 0.0
H565 H 0.07668 0.77984 0.46324 0.0
H566 H 0.17635 0.87515 0.51829 0.0
H567 H 0.2219 0.87034 0.44472 0.0
H568 H 0.27966 0.90973 0.45162 0.0
H569 H 0.32631 0.95841 0.48595 0.0
C570 C 0.37446 0.28525 0.68365 0.0
C571 C 0.39692 0.30799 0.71646 0.0
C572 C 0.37541 0.25644 0.67214 0.0
C573 C 0.39889 0.24996 0.69338 0.0
C574 C 0.42109 0.27272 0.72613 0.0
C575 C 0.42012 0.3012 0.73758 0.0
C576 C 0.403 0.22124 0.68093 0.0
C577 C 0.38069 0.19375 0.65797 0.0
C578 C 0.38792 0.16703 0.64511 0.0
C579 C 0.3621 0.13409 0.64114 0.0
C580 C 0.36871 0.10882 0.6289 0.0
C581 C 0.40131 0.11613 0.61995 0.0
H582 H 0.44091 0.19934 0.63641 0.0
C583 C 0.42698 0.14916 0.6237 0.0
C584 C 0.42039 0.17421 0.63563 0.0
H585 H 0.4524 0.15598 0.61677 0.0
H586 H 0.35633 0.28977 0.66668 0.0
H587 H 0.35828 0.23987 0.64601 0.0
H588 H 0.43959 0.26862 0.74286 0.0
H589 H 0.43793 0.31805 0.76291 0.0
H590 H 0.42583 0.22272 0.69266 0.0
H591 H 0.35644 0.19014 0.64963 0.0
H592 H 0.33681 0.12787 0.64774 0.0
H593 H 0.3483 0.08371 0.62599 0.0
C594 C 0.13609 0.35215 0.88548 0.0
C595 C 0.12696 0.37522 0.8707 0.0
C596 C 0.16371 0.35231 0.86588 0.0
C597 C 0.18272 0.37558 0.83095 0.0
C598 C 0.1724 0.39735 0.81451 0.0
C599 C 0.14502 0.39733 0.83426 0.0
C600 C 0.214 0.37913 0.81162 0.0
C601 C 0.23244 0.36809 0.83314 0.0
C602 C 0.26617 0.37697 0.8166 0.0
C603 C 0.27895 0.35611 0.82709 0.0
C604 C 0.31123 0.3648 0.81382 0.0
C605 C 0.33156 0.39483 0.79033 0.0
H606 H 0.27835 0.42451 0.78623 0.0
C607 C 0.31876 0.41578 0.78034 0.0
C608 C 0.28662 0.40704 0.79332 0.0
H609 H 0.3337 0.43934 0.76293 0.0
H610 H 0.1226 0.33465 0.91333 0.0
H611 H 0.1701 0.33442 0.87864 0.0
H612 H 0.18628 0.41533 0.78734 0.0
H613 H 0.13857 0.4153 0.82176 0.0
H614 H 0.22326 0.39347 0.77941 0.0
H615 H 0.22339 0.353 0.86466 0.0
H616 H 0.26394 0.33302 0.84563 0.0
H617 H 0.32032 0.34816 0.82242 0.0
C618 C 0.94598 0.32636 0.94664 0.0
C619 C 0.97925 0.33423 0.94612 0.0
C620 C 0.92092 0.29482 0.95918 0.0
C621 C 0.92833 0.2702 0.97223 0.0
C622 C 0.96147 0.27779 0.97128 0.0
C623 C 0.98674 0.30955 0.95863 0.0
C624 C 0.9017 0.23642 0.98591 0.0
C625 C 0.8737 0.23133 1.0071 0.0
C626 C 0.84562 0.19849 0.02089 0.0
C627 C 0.8236 0.19776 0.05506 0.0
C628 C 0.79567 0.16811 0.06765 0.0
C629 C 0.78868 0.1382 0.04604 0.0
H630 H 0.85499 0.16829 0.972 0.0
C631 C 0.81068 0.13871 0.01174 0.0
C632 C 0.83898 0.16861 0.99928 0.0
H633 H 0.80596 0.11612 0.99434 0.0
H634 H 0.93906 0.3445 0.93687 0.0
H635 H 0.89565 0.28973 0.95775 0.0
H636 H 0.96786 0.25919 0.9807 0.0
H637 H 0.01204 0.31464 0.95828 0.0
H638 H 0.90588 0.21582 0.98014 0.0
H639 H 0.87148 0.25266 0.01668 0.0
H640 H 0.82788 0.22035 0.07207 0.0
H641 H 0.77933 0.16884 0.0941 0.0
loop_
_geom_bond_atom_site_label_1
_geom_bond_atom_site_label_2
_geom_bond_distance
_geom_bond_site_symmetry_2
_ccdc_geom_bond_type
Co0 O2 2.143 . S
Co0 O8 2.074 . S
Co0 O11 2.093 1_554 S
Co0 O24 2.097 . S
Co0 N41 2.151 1_554 S
Co0 N49 2.214 1_545 S
Co1 O2 2.160 . S
Co1 O7 2.058 . S
Co1 O17 2.057 . S
Co1 O32 2.037 . S
Co1 N36 2.145 . S
Co1 N57 2.257 . S
O2 Co0 2.143 . S
O2 Co1 2.160 . S
C3 O4 1.278 . S
C3 O11 1.224 . S
O4 C3 1.278 . S
C5 O6 1.245 1_554 S
C5 O17 1.232 . S
O6 C5 1.245 1_556 S
O7 Co1 2.058 . S
O7 C33 1.269 . S
O8 Co0 2.074 . S
O8 C33 1.257 . S
H9 C34 0.930 . S
H10 C40 0.930 . S
O11 Co0 2.093 1_556 S
O11 C3 1.224 . S
H12 C44 0.929 . S
H13 C46 0.930 1_556 S
H14 C47 0.930 . S
H15 C45 0.929 1_554 S
H16 C48 0.928 1_556 S
O17 Co1 2.057 . S
O17 C5 1.232 . S
H18 C37 0.929 . S
H19 C38 0.929 . S
H20 C50 0.931 . S
H21 C42 0.929 . S
H22 C51 0.930 . S
H23 C43 0.931 . S
O24 Co0 2.097 . S
O24 C52 1.214 . S
H25 C53 0.929 . S
H26 C54 0.929 . S
H27 C55 0.930 . S
H28 C56 0.929 . S
H29 C58 0.930 . S
H30 C35 0.930 . S
H31 C39 0.930 . S
O32 Co1 2.037 . S
O32 C52 1.234 . S
C33 O7 1.269 . S
C33 O8 1.257 . S
C34 H9 0.930 . S
C34 C37 1.388 . S
C34 C39 1.418 . S
C35 H30 0.930 . S
C35 C38 1.404 . S
C35 C39 1.353 . S
N36 Co1 2.145 . S
N36 C37 1.397 . S
N36 C38 1.334 . S
C37 H18 0.929 . S
C37 C34 1.388 . S
C37 N36 1.397 . S
C38 H19 0.929 . S
C38 C35 1.404 . S
C38 N36 1.334 . S
C39 H31 0.930 . S
C39 C34 1.418 . S
C39 C35 1.353 . S
C40 H10 0.930 . S
C40 N41 1.330 . S
C40 C42 1.446 . S
N41 Co0 2.151 1_556 S
N41 C40 1.330 . S
N41 C45 1.418 1_545 S
C42 H21 0.929 . S
C42 C40 1.446 . S
C42 C43 1.332 1_545 S
C43 H23 0.931 . S
C43 C42 1.332 1_565 S
C43 C44 1.267 . S
C44 H12 0.929 . S
C44 C43 1.267 . S
C44 C45 1.251 . S
C45 H15 0.929 1_556 S
C45 N41 1.418 1_565 S
C45 C44 1.251 . S
C46 H13 0.930 1_554 S
C46 C48 1.406 . S
C46 C51 1.261 . S
C47 H14 0.930 . S
C47 N49 1.325 . S
C47 C50 1.357 . S
C48 H16 0.928 1_554 S
C48 C46 1.406 . S
C48 N49 1.261 . S
N49 Co0 2.214 1_565 S
N49 C47 1.325 . S
N49 C48 1.261 . S
C50 H20 0.931 . S
C50 C47 1.357 . S
C50 C51 1.312 . S
C51 H22 0.930 . S
C51 C46 1.261 . S
C51 C50 1.312 . S
C52 O24 1.214 . S
C52 O32 1.234 . S
C53 H25 0.929 . S
C53 C56 1.391 . S
C53 C58 1.391 . S
C54 H26 0.929 . S
C54 C55 1.390 . S
C54 N57 1.391 . S
C55 H27 0.930 . S
C55 C54 1.390 . S
C55 C56 1.392 . S
C56 H28 0.929 . S
C56 C53 1.391 . S
C56 C55 1.392 . S
N57 Co1 2.257 . S
N57 C54 1.391 . S
N57 C58 1.388 . S
C58 H29 0.930 . S
C58 C53 1.391 . S
C58 N57 1.388 . S
Co59 O61 2.143 . S
Co59 O67 2.074 . S
Co59 O70 2.093 . S
Co59 O83 2.097 . S
Co59 N100 2.151 . S
Co59 N108 2.214 . S
Co60 O61 2.160 . S
Co60 O66 2.058 . S
Co60 O76 2.057 . S
Co60 O91 2.037 . S
Co60 N95 2.145 . S
Co60 N116 2.257 . S
O61 Co59 2.143 . S
O61 Co60 2.160 . S
C62 O63 1.278 . S
C62 O70 1.224 . S
O63 C62 1.278 . S
C64 O65 1.245 . S
C64 O76 1.232 . S
O65 C64 1.245 . S
O66 Co60 2.058 . S
O66 C92 1.269 . S
O67 Co59 2.074 . S
O67 C92 1.257 . S
H68 C93 0.930 . S
H69 C99 0.930 . S
O70 Co59 2.093 . S
O70 C62 1.224 . S
H71 C103 0.929 . S
H72 C105 0.930 . S
H73 C106 0.930 . S
H74 C104 0.929 . S
H75 C107 0.928 . S
O76 Co60 2.057 . S
O76 C64 1.232 . S
H77 C96 0.929 . S
H78 C97 0.929 . S
H79 C109 0.931 . S
H80 C101 0.929 . S
H81 C110 0.930 . S
H82 C102 0.931 . S
O83 Co59 2.097 . S
O83 C111 1.214 . S
H84 C112 0.929 . S
H85 C113 0.929 . S
H86 C114 0.930 . S
H87 C115 0.929 . S
H88 C117 0.930 . S
H89 C94 0.930 . S
H90 C98 0.930 . S
O91 Co60 2.037 . S
O91 C111 1.234 . S
C92 O66 1.269 . S
C92 O67 1.257 . S
C93 H68 0.930 . S
C93 C96 1.388 . S
C93 C98 1.418 . S
C94 H89 0.930 . S
C94 C97 1.404 . S
C94 C98 1.353 . S
N95 Co60 2.145 . S
N95 C96 1.397 . S
N95 C97 1.334 . S
C96 H77 0.929 . S
C96 C93 1.388 . S
C96 N95 1.397 . S
C97 H78 0.929 . S
C97 C94 1.404 . S
C97 N95 1.334 . S
C98 H90 0.930 . S
C98 C93 1.418 . S
C98 C94 1.353 . S
C99 H69 0.930 . S
C99 N100 1.330 . S
C99 C101 1.446 . S
N100 Co59 2.151 . S
N100 C99 1.330 . S
N100 C104 1.418 . S
C101 H80 0.929 . S
C101 C99 1.446 . S
C101 C102 1.332 . S
C102 H82 0.931 . S
C102 C101 1.332 . S
C102 C103 1.267 . S
C103 H71 0.929 . S
C103 C102 1.267 . S
C103 C104 1.251 . S
C104 H74 0.929 . S
C104 N100 1.418 . S
C104 C103 1.251 . S
C105 H72 0.930 . S
C105 C107 1.406 . S
C105 C110 1.261 . S
C106 H73 0.930 . S
C106 N108 1.325 . S
C106 C109 1.357 . S
C107 H75 0.928 . S
C107 C105 1.406 . S
C107 N108 1.261 . S
N108 Co59 2.214 . S
N108 C106 1.325 . S
N108 C107 1.261 . S
C109 H79 0.931 . S
C109 C106 1.357 . S
C109 C110 1.312 . S
C110 H81 0.930 . S
C110 C105 1.261 . S
C110 C109 1.312 . S
C111 O83 1.214 . S
C111 O91 1.234 . S
C112 H84 0.929 . S
C112 C115 1.391 . S
C112 C117 1.391 . S
C113 H85 0.929 . S
C113 C114 1.390 . S
C113 N116 1.391 . S
C114 H86 0.930 . S
C114 C113 1.390 . S
C114 C115 1.392 . S
C115 H87 0.929 . S
C115 C112 1.391 . S
C115 C114 1.392 . S
N116 Co60 2.257 . S
N116 C113 1.391 . S
N116 C117 1.388 . S
C117 H88 0.930 . S
C117 C112 1.391 . S
C117 N116 1.388 . S
Co118 O120 2.143 . S
Co118 O126 2.074 . S
Co118 O129 2.093 . S
Co118 O142 2.097 . S
Co118 N159 2.151 . S
Co118 N167 2.214 . S
Co119 O120 2.160 1_655 S
Co119 O125 2.059 1_655 S
Co119 O135 2.056 . S
Co119 O150 2.038 1_655 S
Co119 N154 2.144 . S
Co119 N175 2.256 . S
O120 Co118 2.143 . S
O120 Co119 2.160 1_455 S
C121 O122 1.278 1_455 S
C121 O129 1.224 . S
O122 C121 1.278 1_655 S
C123 O124 1.245 . S
C123 O135 1.232 . S
O124 C123 1.245 . S
O125 Co119 2.059 1_455 S
O125 C151 1.269 . S
O126 Co118 2.074 . S
O126 C151 1.257 . S
H127 C152 0.930 . S
H128 C158 0.930 . S
O129 Co118 2.093 . S
O129 C121 1.224 . S
H130 C162 0.929 . S
H131 C164 0.930 . S
H132 C165 0.930 . S
H133 C163 0.929 . S
H134 C166 0.928 . S
O135 Co119 2.056 . S
O135 C123 1.232 . S
H136 C155 0.929 1_455 S
H137 C156 0.929 . S
H138 C168 0.931 . S
H139 C160 0.929 . S
H140 C169 0.930 . S
H141 C161 0.931 . S
O142 Co118 2.097 . S
O142 C170 1.214 . S
H143 C171 0.929 . S
H144 C172 0.929 . S
H145 C173 0.930 . S
H146 C174 0.929 . S
H147 C176 0.930 . S
H148 C153 0.930 . S
H149 C157 0.930 . S
O150 Co119 2.038 1_455 S
O150 C170 1.234 . S
C151 O125 1.269 . S
C151 O126 1.257 . S
C152 H127 0.930 . S
C152 C155 1.388 . S
C152 C157 1.418 . S
C153 H148 0.930 . S
C153 C156 1.404 . S
C153 C157 1.353 . S
N154 Co119 2.144 . S
N154 C155 1.397 . S
N154 C156 1.334 . S
C155 H136 0.929 1_655 S
C155 C152 1.388 . S
C155 N154 1.397 . S
C156 H137 0.929 . S
C156 C153 1.404 . S
C156 N154 1.334 . S
C157 H149 0.930 . S
C157 C152 1.418 . S
C157 C153 1.353 . S
C158 H128 0.930 . S
C158 N159 1.330 . S
C158 C160 1.446 . S
N159 Co118 2.151 . S
N159 C158 1.330 . S
N159 C163 1.418 . S
C160 H139 0.929 . S
C160 C158 1.446 . S
C160 C161 1.332 . S
C161 H141 0.931 . S
C161 C160 1.332 . S
C161 C162 1.267 . S
C162 H130 0.929 . S
C162 C161 1.267 . S
C162 C163 1.251 . S
C163 H133 0.929 . S
C163 N159 1.418 . S
C163 C162 1.251 . S
C164 H131 0.930 . S
C164 C166 1.406 . S
C164 C169 1.261 . S
C165 H132 0.930 . S
C165 N167 1.325 . S
C165 C168 1.357 . S
C166 H134 0.928 . S
C166 C164 1.406 . S
C166 N167 1.261 . S
N167 Co118 2.214 . S
N167 C165 1.325 . S
N167 C166 1.261 . S
C168 H138 0.931 . S
C168 C165 1.357 . S
C168 C169 1.312 . S
C169 H140 0.930 . S
C169 C164 1.261 . S
C169 C168 1.312 . S
C170 O142 1.214 . S
C170 O150 1.234 . S
C171 H143 0.929 . S
C171 C174 1.391 . S
C171 C176 1.391 . S
C172 H144 0.929 . S
C172 C173 1.390 . S
C172 N175 1.391 . S
C173 H145 0.930 . S
C173 C172 1.390 . S
C173 C174 1.392 . S
C174 H146 0.929 . S
C174 C171 1.391 . S
C174 C173 1.392 . S
N175 Co119 2.256 . S
N175 C172 1.391 . S
N175 C176 1.388 . S
C176 H147 0.930 . S
C176 C171 1.391 . S
C176 N175 1.388 . S
Co177 O179 2.143 . S
Co177 O185 2.074 . S
Co177 O188 2.093 . S
Co177 O201 2.097 . S
Co177 N218 2.151 . S
Co177 N226 2.214 . S
Co178 O179 2.160 . S
Co178 O184 2.058 . S
Co178 O194 2.057 1_545 S
Co178 O209 2.037 . S
Co178 N213 2.145 1_545 S
Co178 N234 2.257 1_545 S
O179 Co177 2.143 . S
O179 Co178 2.160 . S
C180 O181 1.269 1_545 S
C180 O188 1.224 . S
O181 C180 1.269 1_565 S
C182 O183 1.245 . S
C182 O194 1.232 . S
O183 C182 1.245 . S
O184 Co178 2.058 . S
O184 C210 1.269 . S
O185 Co177 2.074 . S
O185 C210 1.257 . S
H186 C211 0.930 . S
H187 C217 0.930 . S
O188 Co177 2.093 . S
O188 C180 1.224 . S
H189 C221 0.929 . S
H190 C223 0.930 . S
H191 C224 0.930 . S
H192 C222 0.929 . S
H193 C225 0.928 . S
O194 Co178 2.057 1_565 S
O194 C182 1.232 . S
H195 C214 0.915 1_545 S
H196 C215 0.929 . S
H197 C227 0.931 . S
H198 C219 0.929 . S
H199 C228 0.930 . S
H200 C220 0.931 . S
O201 Co177 2.097 . S
O201 C229 1.214 . S
H202 C230 0.929 . S
H203 C231 0.929 . S
H204 C232 0.930 . S
H205 C233 0.929 . S
H206 C235 0.930 . S
H207 C212 0.930 . S
H208 C216 0.930 . S
O209 Co178 2.037 . S
O209 C229 1.234 . S
C210 O184 1.269 . S
C210 O185 1.257 . S
C211 H186 0.930 . S
C211 C214 1.392 . S
C211 C216 1.418 . S
C212 H207 0.930 . S
C212 C215 1.404 . S
C212 C216 1.353 . S
N213 Co178 2.145 1_565 S
N213 C214 1.408 . S
N213 C215 1.334 . S
C214 H195 0.915 1_565 S
C214 C211 1.392 . S
C214 N213 1.408 . S
C215 H196 0.929 . S
C215 C212 1.404 . S
C215 N213 1.334 . S
C216 H208 0.930 . S
C216 C211 1.418 . S
C216 C212 1.353 . S
C217 H187 0.930 . S
C217 N218 1.330 . S
C217 C219 1.446 . S
N218 Co177 2.151 . S
N218 C217 1.330 . S
N218 C222 1.418 . S
C219 H198 0.929 . S
C219 C217 1.446 . S
C219 C220 1.332 . S
C220 H200 0.931 . S
C220 C219 1.332 . S
C220 C221 1.267 . S
C221 H189 0.929 . S
C221 C220 1.267 . S
C221 C222 1.251 . S
C222 H192 0.929 . S
C222 N218 1.418 . S
C222 C221 1.251 . S
C223 H190 0.930 . S
C223 C225 1.406 . S
C223 C228 1.261 . S
C224 H191 0.930 . S
C224 N226 1.325 . S
C224 C227 1.357 . S
C225 H193 0.928 . S
C225 C223 1.406 . S
C225 N226 1.261 . S
N226 Co177 2.214 . S
N226 C224 1.325 . S
N226 C225 1.261 . S
C227 H197 0.931 . S
C227 C224 1.357 . S
C227 C228 1.312 . S
C228 H199 0.930 . S
C228 C223 1.261 . S
C228 C227 1.312 . S
C229 O201 1.214 . S
C229 O209 1.234 . S
C230 H202 0.929 . S
C230 C233 1.391 . S
C230 C235 1.391 . S
C231 H203 0.929 . S
C231 C232 1.390 . S
C231 N234 1.391 . S
C232 H204 0.930 . S
C232 C231 1.390 . S
C232 C233 1.392 . S
C233 H205 0.929 . S
C233 C230 1.391 . S
C233 C232 1.392 . S
N234 Co178 2.257 1_565 S
N234 C231 1.391 . S
N234 C235 1.388 . S
C235 H206 0.930 . S
C235 C230 1.391 . S
C235 N234 1.388 . S
Co236 O238 2.143 . S
Co236 O244 2.074 . S
Co236 O247 2.093 . S
Co236 O260 2.097 . S
Co236 N277 2.151 . S
Co236 N285 2.214 . S
Co237 O238 2.160 . S
Co237 O243 2.058 . S
Co237 O253 2.057 . S
Co237 O268 2.037 . S
Co237 N272 2.145 . S
Co237 N293 2.257 . S
O238 Co236 2.143 . S
O238 Co237 2.160 . S
C239 O240 1.278 . S
C239 O247 1.224 . S
O240 C239 1.278 . S
C241 O242 1.245 . S
C241 O253 1.232 . S
O242 C241 1.245 . S
O243 Co237 2.058 . S
O243 C269 1.269 . S
O244 Co236 2.074 . S
O244 C269 1.257 . S
H245 C270 0.930 . S
H246 C276 0.930 . S
O247 Co236 2.093 . S
O247 C239 1.224 . S
H248 C280 0.929 . S
H249 C282 0.930 . S
H250 C283 0.930 . S
H251 C281 0.929 . S
H252 C284 0.928 . S
O253 Co237 2.057 . S
O253 C241 1.232 . S
H254 C273 0.929 . S
H255 C274 0.929 . S
H256 C286 0.931 . S
H257 C278 0.929 . S
H258 C287 0.930 . S
H259 C279 0.931 . S
O260 Co236 2.097 . S
O260 C288 1.214 . S
H261 C289 0.929 . S
H262 C290 0.929 . S
H263 C291 0.930 . S
H264 C292 0.929 . S
H265 C294 0.930 . S
H266 C271 0.930 . S
H267 C275 0.930 . S
O268 Co237 2.037 . S
O268 C288 1.234 . S
C269 O243 1.269 . S
C269 O244 1.257 . S
C270 H245 0.930 . S
C270 C273 1.388 . S
C270 C275 1.418 . S
C271 H266 0.930 . S
C271 C274 1.404 . S
C271 C275 1.353 . S
N272 Co237 2.145 . S
N272 C273 1.397 . S
N272 C274 1.334 . S
C273 H254 0.929 . S
C273 C270 1.388 . S
C273 N272 1.397 . S
C274 H255 0.929 . S
C274 C271 1.404 . S
C274 N272 1.334 . S
C275 H267 0.930 . S
C275 C270 1.418 . S
C275 C271 1.353 . S
C276 H246 0.930 . S
C276 N277 1.330 . S
C276 C278 1.446 . S
N277 Co236 2.151 . S
N277 C276 1.330 . S
N277 C281 1.418 . S
C278 H257 0.929 . S
C278 C276 1.446 . S
C278 C279 1.332 . S
C279 H259 0.931 . S
C279 C278 1.332 . S
C279 C280 1.267 . S
C280 H248 0.929 . S
C280 C279 1.267 . S
C280 C281 1.251 . S
C281 H251 0.929 . S
C281 N277 1.418 . S
C281 C280 1.251 . S
C282 H249 0.930 . S
C282 C284 1.406 . S
C282 C287 1.261 . S
C283 H250 0.930 . S
C283 N285 1.325 . S
C283 C286 1.357 . S
C284 H252 0.928 . S
C284 C282 1.406 . S
C284 N285 1.261 . S
N285 Co236 2.214 . S
N285 C283 1.325 . S
N285 C284 1.261 . S
C286 H256 0.931 . S
C286 C283 1.357 . S
C286 C287 1.312 . S
C287 H258 0.930 . S
C287 C282 1.261 . S
C287 C286 1.312 . S
C288 O260 1.214 . S
C288 O268 1.234 . S
C289 H261 0.929 . S
C289 C292 1.391 . S
C289 C294 1.391 . S
C290 H262 0.929 . S
C290 C291 1.390 . S
C290 N293 1.391 . S
C291 H263 0.930 . S
C291 C290 1.390 . S
C291 C292 1.392 . S
C292 H264 0.929 . S
C292 C289 1.391 . S
C292 C291 1.392 . S
N293 Co237 2.257 . S
N293 C290 1.391 . S
N293 C294 1.388 . S
C294 H265 0.930 . S
C294 C289 1.391 . S
C294 N293 1.388 . S
Co295 O297 2.143 . S
Co295 O303 2.074 1_455 S
Co295 O306 2.093 . S
Co295 O319 2.097 . S
Co295 N336 2.151 1_455 S
Co295 N344 2.214 1_455 S
Co296 O297 2.160 . S
Co296 O302 2.058 . S
Co296 O312 2.057 . S
Co296 O327 2.037 . S
Co296 N331 2.145 . S
Co296 N352 2.257 . S
O297 Co295 2.143 . S
O297 Co296 2.160 . S
C298 O299 1.278 . S
C298 O306 1.224 . S
O299 C298 1.278 . S
C300 O301 1.245 . S
C300 O312 1.232 . S
O301 C300 1.245 . S
O302 Co296 2.058 . S
O302 C328 1.269 . S
O303 Co295 2.074 1_655 S
O303 C328 1.258 1_655 S
H304 C329 0.930 . S
H305 C335 0.930 . S
O306 Co295 2.093 . S
O306 C298 1.224 . S
H307 C339 0.929 . S
H308 C341 0.930 . S
H309 C342 0.930 . S
H310 C340 0.929 . S
H311 C343 0.928 . S
O312 Co296 2.057 . S
O312 C300 1.232 . S
H313 C332 0.929 . S
H314 C333 0.929 . S
H315 C345 0.931 . S
H316 C337 0.918 1_455 S
H317 C346 0.930 . S
H318 C338 0.931 . S
O319 Co295 2.097 . S
O319 C347 1.214 . S
H320 C348 0.929 . S
H321 C349 0.929 . S
H322 C350 0.930 . S
H323 C351 0.929 . S
H324 C353 0.930 . S
H325 C330 0.930 . S
H326 C334 0.930 . S
O327 Co296 2.037 . S
O327 C347 1.234 . S
C328 O302 1.269 . S
C328 O303 1.258 1_455 S
C329 H304 0.930 . S
C329 C332 1.388 . S
C329 C334 1.418 . S
C330 H325 0.930 . S
C330 C333 1.404 1_554 S
C330 C334 1.353 . S
N331 Co296 2.145 . S
N331 C332 1.397 1_556 S
N331 C333 1.334 . S
C332 H313 0.929 . S
C332 C329 1.388 . S
C332 N331 1.397 1_554 S
C333 H314 0.929 . S
C333 C330 1.404 1_556 S
C333 N331 1.334 . S
C334 H326 0.930 . S
C334 C329 1.418 . S
C334 C330 1.353 . S
C335 H305 0.930 . S
C335 N336 1.330 1_455 S
C335 C337 1.444 1_455 S
N336 Co295 2.151 1_655 S
N336 C335 1.330 1_655 S
N336 C340 1.418 . S
C337 H316 0.918 1_655 S
C337 C335 1.444 1_655 S
C337 C338 1.347 . S
C338 H318 0.931 . S
C338 C337 1.347 . S
C338 C339 1.267 . S
C339 H307 0.929 . S
C339 C338 1.267 . S
C339 C340 1.251 . S
C340 H310 0.929 . S
C340 N336 1.418 . S
C340 C339 1.251 . S
C341 H308 0.930 . S
C341 C343 1.406 . S
C341 C346 1.261 . S
C342 H309 0.930 . S
C342 N344 1.325 . S
C342 C345 1.357 . S
C343 H311 0.928 . S
C343 C341 1.406 . S
C343 N344 1.261 . S
N344 Co295 2.214 1_655 S
N344 C342 1.325 . S
N344 C343 1.261 . S
C345 H315 0.931 . S
C345 C342 1.357 . S
C345 C346 1.312 . S
C346 H317 0.930 . S
C346 C341 1.261 . S
C346 C345 1.312 . S
C347 O319 1.214 . S
C347 O327 1.234 . S
C348 H320 0.929 . S
C348 C351 1.391 . S
C348 C353 1.391 . S
C349 H321 0.929 . S
C349 C350 1.390 . S
C349 N352 1.391 . S
C350 H322 0.930 . S
C350 C349 1.390 . S
C350 C351 1.392 . S
C351 H323 0.929 . S
C351 C348 1.391 . S
C351 C350 1.392 . S
N352 Co296 2.257 . S
N352 C349 1.391 . S
N352 C353 1.388 . S
C353 H324 0.930 . S
C353 C348 1.391 . S
C353 N352 1.388 . S
C354 C355 1.386 . S
C354 C356 1.383 . S
C354 H370 0.951 . S
C355 C354 1.386 . S
C355 C359 1.383 . S
C356 C354 1.383 . S
C356 C357 1.402 . S
C356 H371 0.951 . S
C357 C356 1.402 . S
C357 C358 1.375 . S
C357 C360 1.481 . S
C358 C357 1.375 . S
C358 C359 1.367 . S
C358 H372 0.951 1_545 S
C359 C355 1.383 . S
C359 C358 1.367 . S
C359 H373 0.950 . S
C360 C357 1.481 . S
C360 C361 1.297 . S
C360 H374 0.950 . S
C361 C360 1.297 . S
C361 C362 1.479 . S
C361 H375 0.950 . S
C362 C361 1.479 . S
C362 C363 1.375 . S
C362 C368 1.419 . S
C363 C362 1.375 . S
C363 C364 1.369 . S
C363 H376 0.950 . S
C364 C363 1.369 . S
C364 C365 1.392 . S
C364 H377 0.951 . S
C365 C364 1.392 . S
C365 C367 1.384 . S
H366 C368 0.927 1_565 S
C367 C365 1.384 . S
C367 C368 1.392 . S
C367 H369 0.950 1_545 S
C368 C362 1.419 . S
C368 H366 0.927 1_545 S
C368 C367 1.392 . S
H369 C367 0.950 1_565 S
H370 C354 0.951 . S
H371 C356 0.951 . S
H372 C358 0.951 1_565 S
H373 C359 0.950 . S
H374 C360 0.950 . S
H375 C361 0.950 . S
H376 C363 0.950 . S
H377 C364 0.951 . S
C378 C379 1.386 . S
C378 C380 1.383 . S
C378 H394 0.951 . S
C379 C378 1.386 . S
C379 C383 1.383 . S
C380 C378 1.383 . S
C380 C381 1.402 . S
C380 H395 0.951 . S
C381 C380 1.402 . S
C381 C382 1.375 . S
C381 C384 1.481 . S
C382 C381 1.375 . S
C382 C383 1.367 . S
C382 H396 0.951 . S
C383 C379 1.383 . S
C383 C382 1.367 . S
C383 H397 0.950 . S
C384 C381 1.481 . S
C384 C385 1.297 . S
C384 H398 0.950 . S
C385 C384 1.297 . S
C385 C386 1.479 . S
C385 H399 0.950 . S
C386 C385 1.479 . S
C386 C387 1.375 . S
C386 C392 1.404 . S
C387 C386 1.375 . S
C387 C388 1.369 . S
C387 H400 0.950 . S
C388 C387 1.369 . S
C388 C389 1.392 . S
C388 H401 0.951 . S
C389 C388 1.392 . S
C389 C391 1.384 . S
H390 C392 0.949 . S
C391 C389 1.384 . S
C391 C392 1.385 . S
C391 H393 0.950 . S
C392 C386 1.404 . S
C392 H390 0.949 . S
C392 C391 1.385 . S
H393 C391 0.950 . S
H394 C378 0.951 . S
H395 C380 0.951 . S
H396 C382 0.951 . S
H397 C383 0.950 . S
H398 C384 0.950 . S
H399 C385 0.950 . S
H400 C387 0.950 . S
H401 C388 0.951 . S
C402 C403 1.386 . S
C402 C404 1.383 . S
C402 H418 0.951 . S
C403 C402 1.386 . S
C403 C407 1.383 . S
C404 C402 1.383 . S
C404 C405 1.402 . S
C404 H419 0.951 . S
C405 C404 1.402 . S
C405 C406 1.375 . S
C405 C408 1.481 . S
C406 C405 1.375 . S
C406 C407 1.367 . S
C406 H420 0.951 . S
C407 C403 1.383 . S
C407 C406 1.367 . S
C407 H421 0.950 . S
C408 C405 1.481 . S
C408 C409 1.297 . S
C408 H422 0.950 . S
C409 C408 1.297 . S
C409 C410 1.479 . S
C409 H423 0.950 . S
C410 C409 1.479 . S
C410 C411 1.375 . S
C410 C416 1.404 . S
C411 C410 1.375 . S
C411 C412 1.369 . S
C411 H424 0.950 . S
C412 C411 1.369 . S
C412 C413 1.392 . S
C412 H425 0.951 . S
C413 C412 1.392 . S
C413 C415 1.384 . S
H414 C416 0.949 . S
C415 C413 1.384 . S
C415 C416 1.385 . S
C415 H417 0.950 . S
C416 C410 1.404 . S
C416 H414 0.949 . S
C416 C415 1.385 . S
H417 C415 0.950 . S
H418 C402 0.951 . S
H419 C404 0.951 . S
H420 C406 0.951 . S
H421 C407 0.950 . S
H422 C408 0.950 . S
H423 C409 0.950 . S
H424 C411 0.950 . S
H425 C412 0.951 . S
C426 C427 1.386 . S
C426 C428 1.383 . S
C426 H442 0.951 . S
C427 C426 1.386 . S
C427 C431 1.383 . S
C428 C426 1.383 . S
C428 C429 1.402 . S
C428 H443 0.951 . S
C429 C428 1.402 . S
C429 C430 1.375 . S
C429 C432 1.481 . S
C430 C429 1.375 . S
C430 C431 1.367 . S
C430 H444 0.951 . S
C431 C427 1.383 . S
C431 C430 1.367 . S
C431 H445 0.950 . S
C432 C429 1.481 . S
C432 C433 1.297 . S
C432 H446 0.950 . S
C433 C432 1.297 . S
C433 C434 1.479 . S
C433 H447 0.950 . S
C434 C433 1.479 . S
C434 C435 1.375 . S
C434 C440 1.404 . S
C435 C434 1.375 . S
C435 C436 1.369 . S
C435 H448 0.950 . S
C436 C435 1.369 . S
C436 C437 1.392 . S
C436 H449 0.951 . S
C437 C436 1.392 . S
C437 C439 1.384 . S
H438 C440 0.949 . S
C439 C437 1.384 . S
C439 C440 1.385 . S
C439 H441 0.950 . S
C440 C434 1.404 . S
C440 H438 0.949 . S
C440 C439 1.385 . S
H441 C439 0.950 . S
H442 C426 0.951 . S
H443 C428 0.951 . S
H444 C430 0.951 . S
H445 C431 0.950 . S
H446 C432 0.950 . S
H447 C433 0.950 . S
H448 C435 0.950 . S
H449 C436 0.951 . S
C450 C451 1.386 . S
C450 C452 1.383 . S
C450 H466 0.951 . S
C451 C450 1.386 . S
C451 C455 1.383 . S
C452 C450 1.383 . S
C452 C453 1.402 . S
C452 H467 0.951 . S
C453 C452 1.402 . S
C453 C454 1.375 . S
C453 C456 1.481 1_554 S
C454 C453 1.375 . S
C454 C455 1.367 . S
C454 H468 0.951 . S
C455 C451 1.383 . S
C455 C454 1.367 . S
C455 H469 0.950 . S
C456 C453 1.481 1_556 S
C456 C457 1.297 . S
C456 H470 0.950 . S
C457 C456 1.297 . S
C457 C458 1.479 . S
C457 H471 0.950 . S
C458 C457 1.479 . S
C458 C459 1.375 . S
C458 C464 1.404 . S
C459 C458 1.375 . S
C459 C460 1.369 . S
C459 H472 0.950 . S
C460 C459 1.369 . S
C460 C461 1.392 . S
C460 H473 0.951 . S
C461 C460 1.392 . S
C461 C463 1.384 . S
H462 C464 0.949 . S
C463 C461 1.384 . S
C463 C464 1.385 . S
C463 H465 0.950 . S
C464 C458 1.404 . S
C464 H462 0.949 . S
C464 C463 1.385 . S
H465 C463 0.950 . S
H466 C450 0.951 . S
H467 C452 0.951 . S
H468 C454 0.951 . S
H469 C455 0.950 . S
H470 C456 0.950 . S
H471 C457 0.950 . S
H472 C459 0.950 . S
H473 C460 0.951 . S
C474 C475 1.386 . S
C474 C476 1.383 . S
C474 H490 0.951 . S
C475 C474 1.386 . S
C475 C479 1.380 1_554 S
C476 C474 1.383 . S
C476 C477 1.402 . S
C476 H491 0.951 . S
C477 C476 1.402 . S
C477 C478 1.375 . S
C477 C480 1.481 . S
C478 C477 1.375 . S
C478 C479 1.359 1_554 S
C478 H492 0.951 . S
C479 C475 1.380 1_556 S
C479 C478 1.359 1_556 S
C479 H493 0.960 . S
C480 C477 1.481 . S
C480 C481 1.297 . S
C480 H494 0.950 . S
C481 C480 1.297 . S
C481 C482 1.479 . S
C481 H495 0.950 . S
C482 C481 1.479 . S
C482 C483 1.375 . S
C482 C488 1.404 . S
C483 C482 1.375 . S
C483 C484 1.369 . S
C483 H496 0.950 . S
C484 C483 1.369 . S
C484 C485 1.392 . S
C484 H497 0.951 . S
C485 C484 1.392 . S
C485 C487 1.384 . S
H486 C488 0.949 . S
C487 C485 1.384 . S
C487 C488 1.385 . S
C487 H489 0.950 . S
C488 C482 1.404 . S
C488 H486 0.949 . S
C488 C487 1.385 . S
H489 C487 0.950 . S
H490 C474 0.951 . S
H491 C476 0.951 . S
H492 C478 0.951 . S
H493 C479 0.960 . S
H494 C480 0.950 . S
H495 C481 0.950 . S
H496 C483 0.950 . S
H497 C484 0.951 . S
C498 C499 1.386 . S
C498 C500 1.383 . S
C498 H514 0.951 . S
C499 C498 1.386 . S
C499 C503 1.383 . S
C500 C498 1.383 . S
C500 C501 1.402 . S
C500 H515 0.951 . S
C501 C500 1.402 . S
C501 C502 1.375 . S
C501 C504 1.481 . S
C502 C501 1.375 . S
C502 C503 1.367 . S
C502 H516 0.951 . S
C503 C499 1.383 . S
C503 C502 1.367 . S
C503 H517 0.950 . S
C504 C501 1.481 . S
C504 C505 1.297 . S
C504 H518 0.950 . S
C505 C504 1.297 . S
C505 C506 1.479 . S
C505 H519 0.950 . S
C506 C505 1.479 . S
C506 C507 1.375 . S
C506 C512 1.404 . S
C507 C506 1.375 . S
C507 C508 1.369 . S
C507 H520 0.950 . S
C508 C507 1.369 . S
C508 C509 1.392 . S
C508 H521 0.951 1_565 S
C509 C508 1.392 . S
C509 C511 1.384 . S
H510 C512 0.949 . S
C511 C509 1.384 . S
C511 C512 1.385 . S
C511 H513 0.950 . S
C512 C506 1.404 . S
C512 H510 0.949 . S
C512 C511 1.385 . S
H513 C511 0.950 . S
H514 C498 0.951 . S
H515 C500 0.951 . S
H516 C502 0.951 . S
H517 C503 0.950 . S
H518 C504 0.950 . S
H519 C505 0.950 . S
H520 C507 0.950 . S
H521 C508 0.951 1_545 S
C522 C523 1.386 . S
C522 C524 1.383 . S
C522 H538 0.951 . S
C523 C522 1.386 . S
C523 C527 1.383 . S
C524 C522 1.383 . S
C524 C525 1.402 . S
C524 H539 0.951 . S
C525 C524 1.402 . S
C525 C526 1.375 . S
C525 C528 1.481 . S
C526 C525 1.375 . S
C526 C527 1.367 . S
C526 H540 0.951 . S
C527 C523 1.383 . S
C527 C526 1.367 . S
C527 H541 0.950 . S
C528 C525 1.481 . S
C528 C529 1.297 . S
C528 H542 0.950 . S
C529 C528 1.297 . S
C529 C530 1.479 . S
C529 H543 0.950 . S
C530 C529 1.479 . S
C530 C531 1.375 . S
C530 C536 1.404 . S
C531 C530 1.375 . S
C531 C532 1.369 . S
C531 H544 0.950 . S
C532 C531 1.369 . S
C532 C533 1.392 . S
C532 H545 0.951 . S
C533 C532 1.392 . S
C533 C535 1.384 . S
H534 C536 0.949 . S
C535 C533 1.384 . S
C535 C536 1.385 . S
C535 H537 0.950 . S
C536 C530 1.404 . S
C536 H534 0.949 . S
C536 C535 1.385 . S
H537 C535 0.950 . S
H538 C522 0.951 . S
H539 C524 0.951 . S
H540 C526 0.951 . S
H541 C527 0.950 . S
H542 C528 0.950 . S
H543 C529 0.950 . S
H544 C531 0.950 . S
H545 C532 0.951 . S
C546 C547 1.386 . S
C546 C548 1.383 . S
C546 H562 0.951 . S
C547 C546 1.386 . S
C547 C551 1.383 . S
C548 C546 1.383 . S
C548 C549 1.402 . S
C548 H563 0.951 . S
C549 C548 1.402 . S
C549 C550 1.375 . S
C549 C552 1.481 . S
C550 C549 1.375 . S
C550 C551 1.367 . S
C550 H564 0.951 . S
C551 C547 1.383 . S
C551 C550 1.367 . S
C551 H565 0.950 . S
C552 C549 1.481 . S
C552 C553 1.297 . S
C552 H566 0.950 . S
C553 C552 1.297 . S
C553 C554 1.479 . S
C553 H567 0.950 . S
C554 C553 1.479 . S
C554 C555 1.375 . S
C554 C560 1.404 . S
C555 C554 1.375 . S
C555 C556 1.369 . S
C555 H568 0.950 . S
C556 C555 1.369 . S
C556 C557 1.392 . S
C556 H569 0.951 . S
C557 C556 1.392 . S
C557 C559 1.384 . S
H558 C560 0.949 . S
C559 C557 1.384 . S
C559 C560 1.385 . S
C559 H561 0.950 . S
C560 C554 1.404 . S
C560 H558 0.949 . S
C560 C559 1.385 . S
H561 C559 0.950 . S
H562 C546 0.951 . S
H563 C548 0.951 . S
H564 C550 0.951 . S
H565 C551 0.950 . S
H566 C552 0.950 . S
H567 C553 0.950 . S
H568 C555 0.950 . S
H569 C556 0.951 . S
C570 C571 1.386 . S
C570 C572 1.383 . S
C570 H586 0.951 . S
C571 C570 1.386 . S
C571 C575 1.383 . S
C572 C570 1.383 . S
C572 C573 1.402 . S
C572 H587 0.951 . S
C573 C572 1.402 . S
C573 C574 1.375 . S
C573 C576 1.481 . S
C574 C573 1.375 . S
C574 C575 1.367 . S
C574 H588 0.951 . S
C575 C571 1.383 . S
C575 C574 1.367 . S
C575 H589 0.950 . S
C576 C573 1.481 . S
C576 C577 1.297 . S
C576 H590 0.950 . S
C577 C576 1.297 . S
C577 C578 1.479 . S
C577 H591 0.950 . S
C578 C577 1.479 . S
C578 C579 1.375 . S
C578 C584 1.404 . S
C579 C578 1.375 . S
C579 C580 1.369 . S
C579 H592 0.950 . S
C580 C579 1.369 . S
C580 C581 1.392 . S
C580 H593 0.951 . S
C581 C580 1.392 . S
C581 C583 1.384 . S
H582 C584 0.949 . S
C583 C581 1.384 . S
C583 C584 1.385 . S
C583 H585 0.950 . S
C584 C578 1.404 . S
C584 H582 0.949 . S
C584 C583 1.385 . S
H585 C583 0.950 . S
H586 C570 0.951 . S
H587 C572 0.951 . S
H588 C574 0.951 . S
H589 C575 0.950 . S
H590 C576 0.950 . S
H591 C577 0.950 . S
H592 C579 0.950 . S
H593 C580 0.951 . S
C594 C595 1.386 . S
C594 C596 1.383 . S
C594 H610 0.951 . S
C595 C594 1.386 . S
C595 C599 1.383 . S
C596 C594 1.383 . S
C596 C597 1.402 . S
C596 H611 0.951 . S
C597 C596 1.402 . S
C597 C598 1.375 . S
C597 C600 1.481 . S
C598 C597 1.375 . S
C598 C599 1.367 . S
C598 H612 0.951 . S
C599 C595 1.383 . S
C599 C598 1.367 . S
C599 H613 0.950 . S
C600 C597 1.481 . S
C600 C601 1.297 . S
C600 H614 0.950 . S
C601 C600 1.297 . S
C601 C602 1.479 . S
C601 H615 0.950 . S
C602 C601 1.479 . S
C602 C603 1.375 . S
C602 C608 1.404 . S
C603 C602 1.375 . S
C603 C604 1.369 . S
C603 H616 0.950 . S
C604 C603 1.369 . S
C604 C605 1.392 . S
C604 H617 0.951 . S
C605 C604 1.392 . S
C605 C607 1.384 . S
H606 C608 0.949 . S
C607 C605 1.384 . S
C607 C608 1.385 . S
C607 H609 0.950 . S
C608 C602 1.404 . S
C608 H606 0.949 . S
C608 C607 1.385 . S
H609 C607 0.950 . S
H610 C594 0.951 . S
H611 C596 0.951 . S
H612 C598 0.951 . S
H613 C599 0.950 . S
H614 C600 0.950 . S
H615 C601 0.950 . S
H616 C603 0.950 . S
H617 C604 0.951 . S
C618 C619 1.386 . S
C618 C620 1.383 . S
C618 H634 0.951 1_556 S
C619 C618 1.386 . S
C619 C623 1.383 . S
C620 C618 1.383 . S
C620 C621 1.402 . S
C620 H635 0.951 1_556 S
C621 C620 1.402 . S
C621 C622 1.375 . S
C621 C624 1.481 . S
C622 C621 1.375 . S
C622 C623 1.367 . S
C622 H636 0.951 . S
C623 C619 1.383 . S
C623 C622 1.367 . S
C623 H637 0.950 . S
C624 C621 1.481 . S
C624 C625 1.289 1_556 S
C624 H638 0.950 . S
C625 C624 1.289 1_554 S
C625 C626 1.480 . S
C625 H639 0.958 . S
C626 C625 1.480 . S
C626 C627 1.375 . S
C626 C632 1.404 1_554 S
C627 C626 1.375 . S
C627 C628 1.369 . S
C627 H640 0.950 . S
C628 C627 1.369 . S
C628 C629 1.392 . S
C628 H641 0.951 . S
C629 C628 1.392 . S
C629 C631 1.384 1_554 S
H630 C632 0.949 . S
C631 C629 1.384 1_556 S
C631 C632 1.385 . S
C631 H633 0.950 . S
C632 C626 1.404 1_556 S
C632 H630 0.949 . S
C632 C631 1.385 . S
H633 C631 0.950 . S
H634 C618 0.951 1_554 S
H635 C620 0.951 1_554 S
H636 C622 0.951 . S
H637 C623 0.950 . S
H638 C624 0.950 . S
H639 C625 0.958 . S
H640 C627 0.950 . S
H641 C628 0.951 . S
C355 C52 1.883 . S
C365 C180 1.876 . S
C379 C111 1.872 . S
C389 C239 1.849 . S
C403 C298 1.874 . S
C413 C170 1.876 . S
C427 C3 1.875 . S
C437 C229 1.878 . S
C451 C62 1.867 . S
C461 C288 1.870 . S
C475 C347 1.868 1_554 S
C485 C121 1.837 . S
C499 C64 1.385 . S
C509 C33 1.365 1_565 S
C523 C123 1.374 . S
C533 C92 1.344 . S
C547 C151 1.363 . S
C557 C182 1.359 . S
C571 C241 1.379 . S
C581 C210 1.362 . S
C595 C300 1.375 . S
C605 C269 1.345 . S
C619 C328 1.363 1_655 S
C629 C5 1.359 . S
