# Generated by pormake.
# Topology vbb, (4)-cn, num edge types: 1
# Building blocks:
#     Node 0, Type 0, BuildingBlock: QUQFOY_clean_sbu_1, # of connection points: 4
#     Node 1, Type 0, BuildingBlock: QUQFOY_clean_sbu_1, # of connection points: 4
#     Node 2, Type 0, BuildingBlock: QUQFOY_clean_sbu_1, # of connection points: 4
#     Node 3, Type 0, BuildingBlock: QUQFOY_clean_sbu_1, # of connection points: 4
#     Node 4, Type 0, BuildingBlock: QUQFOY_clean_sbu_1, # of connection points: 4
#     Node 5, Type 0, BuildingBlock: QUQFOY_clean_sbu_1, # of connection points: 4
#     Node 6, Type 0, BuildingBlock: QUQFOY_clean_sbu_1, # of connection points: 4
#     Node 7, Type 0, BuildingBlock: QUQFOY_clean_sbu_1, # of connection points: 4
#     Node 8, Type 0, BuildingBlock: QUQFOY_clean_sbu_1, # of connection points: 4
#     Node 9, Type 0, BuildingBlock: QUQFOY_clean_sbu_1, # of connection points: 4
#     Node 10, Type 0, BuildingBlock: QUQFOY_clean_sbu_1, # of connection points: 4
#     Node 11, Type 0, BuildingBlock: QUQFOY_clean_sbu_1, # of connection points: 4
#     Node 12, Type 0, BuildingBlock: QUQFOY_clean_sbu_1, # of connection points: 4
#     Node 13, Type 0, BuildingBlock: QUQFOY_clean_sbu_1, # of connection points: 4
#     Node 14, Type 0, BuildingBlock: QUQFOY_clean_sbu_1, # of connection points: 4
#     Node 15, Type 0, BuildingBlock: QUQFOY_clean_sbu_1, # of connection points: 4
#     Node 16, Type 0, BuildingBlock: QUQFOY_clean_sbu_1, # of connection points: 4
#     Node 17, Type 0, BuildingBlock: QUQFOY_clean_sbu_1, # of connection points: 4
#     Node 18, Type 0, BuildingBlock: QUQFOY_clean_sbu_1, # of connection points: 4
#     Node 19, Type 0, BuildingBlock: QUQFOY_clean_sbu_1, # of connection points: 4
#     Node 20, Type 0, BuildingBlock: QUQFOY_clean_sbu_1, # of connection points: 4
#     Node 21, Type 0, BuildingBlock: QUQFOY_clean_sbu_1, # of connection points: 4
#     Node 22, Type 0, BuildingBlock: QUQFOY_clean_sbu_1, # of connection points: 4
#     Node 23, Type 0, BuildingBlock: QUQFOY_clean_sbu_1, # of connection points: 4
#     Node 24, Type 0, BuildingBlock: QUQFOY_clean_sbu_1, # of connection points: 4
#     Node 25, Type 0, BuildingBlock: QUQFOY_clean_sbu_1, # of connection points: 4
#     Node 26, Type 0, BuildingBlock: QUQFOY_clean_sbu_1, # of connection points: 4
#     Node 27, Type 0, BuildingBlock: QUQFOY_clean_sbu_1, # of connection points: 4
#     Node 28, Type 0, BuildingBlock: QUQFOY_clean_sbu_1, # of connection points: 4
#     Node 29, Type 0, BuildingBlock: QUQFOY_clean_sbu_1, # of connection points: 4
#     Node 30, Type 0, BuildingBlock: QUQFOY_clean_sbu_1, # of connection points: 4
#     Node 31, Type 0, BuildingBlock: QUQFOY_clean_sbu_1, # of connection points: 4
#     Edge 32, Type (0, 0), BuildingBlock: ZUJKAS_clean_linker_0, # of connection points: 2
#     Edge 33, Type (0, 0), BuildingBlock: ZUJKAS_clean_linker_0, # of connection points: 2
#     Edge 34, Type (0, 0), BuildingBlock: ZUJKAS_clean_linker_0, # of connection points: 2
#     Edge 35, Type (0, 0), BuildingBlock: ZUJKAS_clean_linker_0, # of connection points: 2
#     Edge 36, Type (0, 0), BuildingBlock: ZUJKAS_clean_linker_0, # of connection points: 2
#     Edge 37, Type (0, 0), BuildingBlock: ZUJKAS_clean_linker_0, # of connection points: 2
#     Edge 38, Type (0, 0), BuildingBlock: ZUJKAS_clean_linker_0, # of connection points: 2
#     Edge 39, Type (0, 0), BuildingBlock: ZUJKAS_clean_linker_0, # of connection points: 2
#     Edge 40, Type (0, 0), BuildingBlock: ZUJKAS_clean_linker_0, # of connection points: 2
#     Edge 41, Type (0, 0), BuildingBlock: ZUJKAS_clean_linker_0, # of connection points: 2
#     Edge 42, Type (0, 0), BuildingBlock: ZUJKAS_clean_linker_0, # of connection points: 2
#     Edge 43, Type (0, 0), BuildingBlock: ZUJKAS_clean_linker_0, # of connection points: 2
#     Edge 44, Type (0, 0), BuildingBlock: ZUJKAS_clean_linker_0, # of connection points: 2
#     Edge 45, Type (0, 0), BuildingBlock: ZUJKAS_clean_linker_0, # of connection points: 2
#     Edge 46, Type (0, 0), BuildingBlock: ZUJKAS_clean_linker_0, # of connection points: 2
#     Edge 47, Type (0, 0), BuildingBlock: ZUJKAS_clean_linker_0, # of connection points: 2
#     Edge 48, Type (0, 0), BuildingBlock: ZUJKAS_clean_linker_0, # of connection points: 2
#     Edge 49, Type (0, 0), BuildingBlock: ZUJKAS_clean_linker_0, # of connection points: 2
#     Edge 50, Type (0, 0), BuildingBlock: ZUJKAS_clean_linker_0, # of connection points: 2
#     Edge 51, Type (0, 0), BuildingBlock: ZUJKAS_clean_linker_0, # of connection points: 2
#     Edge 52, Type (0, 0), BuildingBlock: ZUJKAS_clean_linker_0, # of connection points: 2
#     Edge 53, Type (0, 0), BuildingBlock: ZUJKAS_clean_linker_0, # of connection points: 2
#     Edge 54, Type (0, 0), BuildingBlock: ZUJKAS_clean_linker_0, # of connection points: 2
#     Edge 55, Type (0, 0), BuildingBlock: ZUJKAS_clean_linker_0, # of connection points: 2
#     Edge 56, Type (0, 0), BuildingBlock: ZUJKAS_clean_linker_0, # of connection points: 2
#     Edge 57, Type (0, 0), BuildingBlock: ZUJKAS_clean_linker_0, # of connection points: 2
#     Edge 58, Type (0, 0), BuildingBlock: ZUJKAS_clean_linker_0, # of connection points: 2
#     Edge 59, Type (0, 0), BuildingBlock: ZUJKAS_clean_linker_0, # of connection points: 2
#     Edge 60, Type (0, 0), BuildingBlock: ZUJKAS_clean_linker_0, # of connection points: 2
#     Edge 61, Type (0, 0), BuildingBlock: ZUJKAS_clean_linker_0, # of connection points: 2
#     Edge 62, Type (0, 0), BuildingBlock: ZUJKAS_clean_linker_0, # of connection points: 2
#     Edge 63, Type (0, 0), BuildingBlock: ZUJKAS_clean_linker_0, # of connection points: 2
#     Edge 64, Type (0, 0), BuildingBlock: ZUJKAS_clean_linker_0, # of connection points: 2
#     Edge 65, Type (0, 0), BuildingBlock: ZUJKAS_clean_linker_0, # of connection points: 2
#     Edge 66, Type (0, 0), BuildingBlock: ZUJKAS_clean_linker_0, # of connection points: 2
#     Edge 67, Type (0, 0), BuildingBlock: ZUJKAS_clean_linker_0, # of connection points: 2
#     Edge 68, Type (0, 0), BuildingBlock: ZUJKAS_clean_linker_0, # of connection points: 2
#     Edge 69, Type (0, 0), BuildingBlock: ZUJKAS_clean_linker_0, # of connection points: 2
#     Edge 70, Type (0, 0), BuildingBlock: ZUJKAS_clean_linker_0, # of connection points: 2
#     Edge 71, Type (0, 0), BuildingBlock: ZUJKAS_clean_linker_0, # of connection points: 2
#     Edge 72, Type (0, 0), BuildingBlock: ZUJKAS_clean_linker_0, # of connection points: 2
#     Edge 73, Type (0, 0), BuildingBlock: ZUJKAS_clean_linker_0, # of connection points: 2
#     Edge 74, Type (0, 0), BuildingBlock: ZUJKAS_clean_linker_0, # of connection points: 2
#     Edge 75, Type (0, 0), BuildingBlock: ZUJKAS_clean_linker_0, # of connection points: 2
#     Edge 76, Type (0, 0), BuildingBlock: ZUJKAS_clean_linker_0, # of connection points: 2
#     Edge 77, Type (0, 0), BuildingBlock: ZUJKAS_clean_linker_0, # of connection points: 2
#     Edge 78, Type (0, 0), BuildingBlock: ZUJKAS_clean_linker_0, # of connection points: 2
#     Edge 79, Type (0, 0), BuildingBlock: ZUJKAS_clean_linker_0, # of connection points: 2
#     Edge 80, Type (0, 0), BuildingBlock: ZUJKAS_clean_linker_0, # of connection points: 2
#     Edge 81, Type (0, 0), BuildingBlock: ZUJKAS_clean_linker_0, # of connection points: 2
#     Edge 82, Type (0, 0), BuildingBlock: ZUJKAS_clean_linker_0, # of connection points: 2
#     Edge 83, Type (0, 0), BuildingBlock: ZUJKAS_clean_linker_0, # of connection points: 2
#     Edge 84, Type (0, 0), BuildingBlock: ZUJKAS_clean_linker_0, # of connection points: 2
#     Edge 85, Type (0, 0), BuildingBlock: ZUJKAS_clean_linker_0, # of connection points: 2
#     Edge 86, Type (0, 0), BuildingBlock: ZUJKAS_clean_linker_0, # of connection points: 2
#     Edge 87, Type (0, 0), BuildingBlock: ZUJKAS_clean_linker_0, # of connection points: 2
#     Edge 88, Type (0, 0), BuildingBlock: ZUJKAS_clean_linker_0, # of connection points: 2
#     Edge 89, Type (0, 0), BuildingBlock: ZUJKAS_clean_linker_0, # of connection points: 2
#     Edge 90, Type (0, 0), BuildingBlock: ZUJKAS_clean_linker_0, # of connection points: 2
#     Edge 91, Type (0, 0), BuildingBlock: ZUJKAS_clean_linker_0, # of connection points: 2
#     Edge 92, Type (0, 0), BuildingBlock: ZUJKAS_clean_linker_0, # of connection points: 2
#     Edge 93, Type (0, 0), BuildingBlock: ZUJKAS_clean_linker_0, # of connection points: 2
#     Edge 94, Type (0, 0), BuildingBlock: ZUJKAS_clean_linker_0, # of connection points: 2
#     Edge 95, Type (0, 0), BuildingBlock: ZUJKAS_clean_linker_0, # of connection points: 2
# Relax obj value: 0.069
# Max RMSD: 0.228
# Mean RMSD: 0.228
data_MOF--net-vbb--node1-QUQFOY_clean_sbu_1--edge1-ZUJKAS_clean_linker_0
_symmetry_space_group_name_H-M    P1
_symmetry_Int_Tables_number       1
_symmetry_cell_setting            triclinic
loop_
_symmetry_equiv_pos_as_xyz
'x, y, z'
_cell_length_a     57.983159
_cell_length_b     48.986449
_cell_length_c     140.7159
_cell_angle_alpha  90.084441
_cell_angle_beta   90.002977
_cell_angle_gamma 90.031996
loop_
_atom_site_label
_atom_site_type_symbol
_atom_site_fract_x
_atom_site_fract_y
_atom_site_fract_z
_atom_type_partial_charge
O0 O 0.48564 0.01164 0.07107 0.0
Cd1 Cd 0.4863 0.01127 0.08569 0.0
Cd2 Cd 0.46857 0.06256 0.08264 0.0
O3 O 0.46377 0.04804 0.06874 0.0
O4 O 0.48337 0.97207 0.09014 0.0
O5 O 0.45601 0.00303 0.09172 0.0
C6 C 0.46256 0.97811 0.09268 0.0
C7 C 0.4429 0.07817 0.09432 0.0
C8 C 0.47455 0.02726 0.06548 0.0
C9 C 0.51651 0.05865 0.09055 0.0
O10 O 0.50175 0.07274 0.08603 0.0
O11 O 0.51286 0.03338 0.09218 0.0
O12 O 0.44858 0.09383 0.0873 0.0
O13 O 0.44986 0.05323 0.09405 0.0
O14 O 0.76101 0.2477 0.07117 0.0
Cd15 Cd 0.75877 0.24936 0.08576 0.0
Cd16 Cd 0.77716 0.19819 0.0834 0.0
O17 O 0.78155 0.21012 0.0692 0.0
O18 O 0.76123 0.28923 0.08924 0.0
O19 O 0.78743 0.25832 0.09303 0.0
C20 C 0.78103 0.28349 0.09293 0.0
C21 C 0.80345 0.18223 0.09473 0.0
C22 C 0.77152 0.23108 0.06573 0.0
C23 C 0.7285 0.20295 0.0911 0.0
O24 O 0.74414 0.18835 0.08732 0.0
O25 O 0.73111 0.2287 0.09191 0.0
O26 O 0.79656 0.1665 0.08791 0.0
O27 O 0.79747 0.20754 0.09441 0.0
O28 O 0.48503 0.24637 0.21076 0.0
Cd29 Cd 0.4859 0.248 0.19615 0.0
Cd30 Cd 0.46923 0.19529 0.19882 0.0
O31 O 0.4654 0.2081 0.21298 0.0
O32 O 0.48128 0.28735 0.19211 0.0
O33 O 0.45564 0.25466 0.18989 0.0
C34 C 0.46096 0.28009 0.18928 0.0
C35 C 0.44267 0.17904 0.18759 0.0
C36 C 0.47519 0.22947 0.21631 0.0
C37 C 0.51703 0.20226 0.19054 0.0
O38 O 0.50232 0.18708 0.19465 0.0
O39 O 0.51329 0.22777 0.18955 0.0
O40 O 0.45027 0.16307 0.1942 0.0
O41 O 0.44824 0.20444 0.18808 0.0
O42 O 0.76106 0.01273 0.21085 0.0
Cd43 Cd 0.75873 0.01127 0.19625 0.0
Cd44 Cd 0.77791 0.06218 0.19885 0.0
O45 O 0.78221 0.04979 0.213 0.0
O46 O 0.76027 0.97126 0.19283 0.0
O47 O 0.78713 1.0013 0.18896 0.0
C48 C 0.78021 0.97633 0.18913 0.0
C49 C 0.80442 0.07684 0.18739 0.0
C50 C 0.77182 0.02891 0.21637 0.0
C51 C 0.72913 0.05851 0.19114 0.0
O52 O 0.74499 0.07263 0.195 0.0
O53 O 0.73139 0.03274 0.19017 0.0
O54 O 0.79786 0.09317 0.1941 0.0
O55 O 0.79793 0.05172 0.18791 0.0
O56 O 0.508 0.99629 0.96027 0.0
Cd57 Cd 0.50754 0.99783 0.94566 0.0
Cd58 Cd 0.52526 0.94574 0.94834 0.0
O59 O 0.52813 0.95845 0.96255 0.0
O60 O 0.5124 0.03698 0.94152 0.0
O61 O 0.53799 0.00411 0.93954 0.0
C62 C 0.53277 0.02956 0.93882 0.0
C63 C 0.55258 0.92839 0.93764 0.0
C64 C 0.51791 0.97957 0.96586 0.0
C65 C 0.47756 0.95166 0.93968 0.0
O66 O 0.49259 0.93683 0.94374 0.0
O67 O 0.48053 0.97736 0.93893 0.0
O68 O 0.54418 0.91301 0.94425 0.0
O69 O 0.54743 0.95395 0.93787 0.0
O70 O 0.23586 0.76464 0.96142 0.0
Cd71 Cd 0.23562 0.76288 0.9468 0.0
Cd72 Cd 0.21824 0.81467 0.9496 0.0
O73 O 0.21469 0.80165 0.96373 0.0
O74 O 0.23261 0.72327 0.9428 0.0
O75 O 0.20512 0.75396 0.94105 0.0
C76 C 0.21171 0.72898 0.94031 0.0
C77 C 0.1914 0.82919 0.93825 0.0
C78 C 0.22548 0.78096 0.96702 0.0
C79 C 0.26555 0.80954 0.94099 0.0
O80 O 0.25109 0.82422 0.94546 0.0
O81 O 0.26189 0.78407 0.93981 0.0
O82 O 0.19817 0.8457 0.94487 0.0
O83 O 0.19798 0.80414 0.93879 0.0
O84 O 0.51032 0.75859 0.82159 0.0
Cd85 Cd 0.50823 0.75669 0.83618 0.0
Cd86 Cd 0.52717 0.80765 0.83388 0.0
O87 O 0.53143 0.79575 0.81966 0.0
O88 O 0.51052 0.71669 0.83945 0.0
O89 O 0.53697 0.74732 0.84329 0.0
C90 C 0.53049 0.72219 0.84306 0.0
C91 C 0.55376 0.82299 0.84522 0.0
C92 C 0.52108 0.775 0.81617 0.0
C93 C 0.47852 0.80344 0.84166 0.0
O94 O 0.49425 0.81781 0.83784 0.0
O95 O 0.48089 0.77765 0.84246 0.0
O96 O 0.54693 0.83899 0.83848 0.0
O97 O 0.54749 0.79778 0.8448 0.0
O98 O 0.23607 0.99438 0.8219 0.0
Cd99 Cd 0.23681 0.99546 0.83652 0.0
Cd100 Cd 0.21901 0.94378 0.83363 0.0
O101 O 0.21465 0.95753 0.81963 0.0
O102 O 0.23303 0.03477 0.84078 0.0
O103 O 0.20659 1.00284 0.84269 0.0
C104 C 0.21249 0.02805 0.84349 0.0
C105 C 0.19279 0.92763 0.845 0.0
C106 C 0.22529 0.97833 0.81633 0.0
C107 C 0.26706 0.94858 0.84167 0.0
O108 O 0.25216 0.93417 0.83733 0.0
O109 O 0.2636 0.97401 0.84304 0.0
O110 O 0.19934 0.91201 0.83808 0.0
O111 O 0.19923 0.95276 0.84478 0.0
O112 O 0.48972 0.50809 0.57232 0.0
Cd113 Cd 0.4897 0.50593 0.58692 0.0
Cd114 Cd 0.47087 0.55754 0.58448 0.0
O115 O 0.46817 0.54491 0.57023 0.0
O116 O 0.48494 0.46666 0.59101 0.0
O117 O 0.45899 0.49926 0.59271 0.0
C118 C 0.46437 0.47389 0.59352 0.0
C119 C 0.44364 0.57416 0.59537 0.0
C120 C 0.47921 0.52452 0.56682 0.0
C121 C 0.51847 0.55293 0.59317 0.0
O122 O 0.50337 0.56739 0.589 0.0
O123 O 0.51589 0.52717 0.59393 0.0
O124 O 0.4512 0.58964 0.58861 0.0
O125 O 0.44945 0.54881 0.59516 0.0
O126 O 0.75786 0.7458 0.57196 0.0
Cd127 Cd 0.75801 0.74642 0.58659 0.0
Cd128 Cd 0.77519 0.69491 0.58342 0.0
O129 O 0.77904 0.70893 0.56941 0.0
O130 O 0.76212 0.78552 0.591 0.0
O131 O 0.7887 0.75356 0.59242 0.0
C132 C 0.78284 0.77873 0.59342 0.0
C133 C 0.80144 0.67787 0.59462 0.0
C134 C 0.76832 0.72985 0.56625 0.0
C135 C 0.72775 0.69969 0.5919 0.0
O136 O 0.74218 0.68537 0.58727 0.0
O137 O 0.73156 0.72499 0.59339 0.0
O138 O 0.79455 0.66268 0.58764 0.0
O139 O 0.79541 0.70316 0.59453 0.0
O140 O 0.48626 0.74558 0.71091 0.0
Cd141 Cd 0.48637 0.74669 0.69628 0.0
Cd142 Cd 0.46943 0.69446 0.6993 0.0
O143 O 0.46581 0.70804 0.71337 0.0
O144 O 0.48207 0.78593 0.69204 0.0
O145 O 0.45579 0.7537 0.69034 0.0
C146 C 0.46146 0.77896 0.68949 0.0
C147 C 0.44281 0.67819 0.6881 0.0
C148 C 0.47617 0.7292 0.71658 0.0
C149 C 0.51686 0.70031 0.69073 0.0
O150 O 0.50241 0.68561 0.69519 0.0
O151 O 0.51305 0.7257 0.68946 0.0
O152 O 0.45009 0.66238 0.69481 0.0
O153 O 0.44873 0.7035 0.68846 0.0
O154 O 0.7556 0.50819 0.7101 0.0
Cd155 Cd 0.75511 0.50654 0.69548 0.0
Cd156 Cd 0.77426 0.5578 0.69826 0.0
O157 O 0.77715 0.54489 0.71246 0.0
O158 O 0.75837 0.46697 0.69153 0.0
O159 O 0.78513 0.49834 0.68923 0.0
C160 C 0.7789 0.47317 0.68867 0.0
C161 C 0.80151 0.57341 0.68722 0.0
C162 C 0.76615 0.52429 0.71572 0.0
C163 C 0.72644 0.55391 0.68964 0.0
O164 O 0.74174 0.56804 0.69385 0.0
O165 O 0.72881 0.52816 0.68873 0.0
O166 O 0.79417 0.5894 0.69389 0.0
O167 O 0.79545 0.54814 0.6876 0.0
O168 O 0.51113 0.49621 0.46133 0.0
Cd169 Cd 0.50925 0.49691 0.44667 0.0
Cd170 Cd 0.52673 0.44633 0.44978 0.0
O171 O 0.53343 0.46023 0.46354 0.0
O172 O 0.51067 0.53687 0.44309 0.0
O173 O 0.53797 0.50708 0.43958 0.0
C174 C 0.53082 0.53194 0.43957 0.0
C175 C 0.55101 0.43115 0.43757 0.0
C176 C 0.52264 0.48086 0.46687 0.0
C177 C 0.47802 0.45017 0.44275 0.0
O178 O 0.49297 0.43649 0.44732 0.0
O179 O 0.48198 0.47499 0.44051 0.0
O180 O 0.5461 0.41527 0.44462 0.0
O181 O 0.54397 0.45605 0.43802 0.0
O182 O 0.23356 0.26058 0.46184 0.0
Cd183 Cd 0.23526 0.26041 0.44715 0.0
Cd184 Cd 0.21874 0.31142 0.45075 0.0
O185 O 0.2125 0.29739 0.4645 0.0
O186 O 0.23358 0.22053 0.44347 0.0
O187 O 0.2065 0.2506 0.43999 0.0
C188 C 0.21349 0.22568 0.43993 0.0
C189 C 0.1939 0.32706 0.43885 0.0
C190 C 0.22278 0.27613 0.46758 0.0
C191 C 0.26716 0.30652 0.44333 0.0
O192 O 0.25253 0.32042 0.448 0.0
O193 O 0.2628 0.28183 0.44102 0.0
O194 O 0.19985 0.34303 0.44576 0.0
O195 O 0.2003 0.30191 0.4393 0.0
O196 O 0.51123 0.25936 0.32138 0.0
Cd197 Cd 0.51066 0.25805 0.336 0.0
Cd198 Cd 0.52699 0.3105 0.3332 0.0
O199 O 0.53091 0.29752 0.31907 0.0
O200 O 0.5152 0.2188 0.34011 0.0
O201 O 0.54103 0.25137 0.34219 0.0
C202 C 0.5356 0.22597 0.34286 0.0
C203 C 0.55326 0.32747 0.3444 0.0
C204 C 0.52106 0.27614 0.31578 0.0
C205 C 0.47938 0.30361 0.34157 0.0
O206 O 0.49388 0.31874 0.33732 0.0
O207 O 0.48331 0.27819 0.34266 0.0
O208 O 0.54564 0.34306 0.33768 0.0
O209 O 0.54796 0.30196 0.34402 0.0
O210 O 0.23592 0.49284 0.3219 0.0
Cd211 Cd 0.23838 0.49495 0.33647 0.0
Cd212 Cd 0.2187 0.44455 0.3343 0.0
O213 O 0.21399 0.45628 0.32011 0.0
O214 O 0.23691 0.53508 0.33966 0.0
O215 O 0.20999 0.50527 0.34369 0.0
C216 C 0.21694 0.53023 0.34336 0.0
C217 C 0.1924 0.4297 0.34581 0.0
C218 C 0.22466 0.47666 0.31655 0.0
C219 C 0.26768 0.44777 0.34175 0.0
O220 O 0.25163 0.43371 0.33801 0.0
O221 O 0.26564 0.47358 0.34262 0.0
O222 O 0.19877 0.41359 0.33901 0.0
O223 O 0.19894 0.45482 0.34538 0.0
O224 O 0.98644 0.01256 0.57201 0.0
Cd225 Cd 0.98597 0.01143 0.58664 0.0
Cd226 Cd 0.96937 0.06334 0.58363 0.0
O227 O 0.96607 0.05007 0.56951 0.0
O228 O 0.98234 0.97208 0.59075 0.0
O229 O 0.95527 0.00339 0.59238 0.0
C230 C 0.9615 0.97829 0.59319 0.0
C231 C 0.94251 0.07928 0.59476 0.0
C232 C 0.97652 0.02897 0.56632 0.0
C233 C 0.01645 0.05758 0.59242 0.0
O234 O 0.00221 0.07239 0.5879 0.0
O235 O 0.01251 0.03219 0.59361 0.0
O236 O 0.9499 0.09521 0.58809 0.0
O237 O 0.94844 0.05397 0.59437 0.0
O238 O 0.258 0.24461 0.57257 0.0
Cd239 Cd 0.25761 0.24651 0.58717 0.0
Cd240 Cd 0.27598 0.19466 0.58456 0.0
O241 O 0.27877 0.2072 0.57034 0.0
O242 O 0.2614 0.28596 0.59122 0.0
O243 O 0.28795 0.25421 0.59321 0.0
C244 C 0.28201 0.27944 0.5939 0.0
C245 C 0.30345 0.17911 0.5955 0.0
C246 C 0.26819 0.228 0.56701 0.0
C247 C 0.2283 0.19969 0.59318 0.0
O248 O 0.24342 0.18506 0.58908 0.0
O249 O 0.23104 0.22543 0.59396 0.0
O250 O 0.2958 0.16299 0.58892 0.0
O251 O 0.29746 0.20438 0.59509 0.0
O252 O 0.9867 0.24828 0.71064 0.0
Cd253 Cd 0.98777 0.24993 0.69603 0.0
Cd254 Cd 0.96894 0.19854 0.69854 0.0
O255 O 0.96555 0.21116 0.71275 0.0
O256 O 0.98404 0.28941 0.69211 0.0
O257 O 0.95789 0.25742 0.68958 0.0
C258 C 0.96372 0.28274 0.68912 0.0
C259 C 0.94194 0.18213 0.68752 0.0
C260 C 0.97615 0.23189 0.71614 0.0
C261 C 0.01714 0.20301 0.69031 0.0
O262 O 0.00167 0.18861 0.69429 0.0
O263 O 0.01466 0.22877 0.68949 0.0
O264 O 0.94934 0.16656 0.69428 0.0
O265 O 0.94785 0.20746 0.68776 0.0
O266 O 0.25675 0.0105 0.71094 0.0
Cd267 Cd 0.25709 0.00961 0.69632 0.0
Cd268 Cd 0.27486 0.06091 0.69935 0.0
O269 O 0.27858 0.04693 0.71337 0.0
O270 O 0.2606 0.97037 0.69198 0.0
O271 O 0.28783 1.00162 0.69066 0.0
C272 C 0.28153 0.9766 0.68967 0.0
C273 C 0.3015 0.07684 0.68813 0.0
C274 C 0.26752 0.02633 0.71659 0.0
C275 C 0.22743 0.05676 0.69086 0.0
O276 O 0.24201 0.07105 0.69542 0.0
O277 O 0.23094 0.03135 0.68947 0.0
O278 O 0.29501 0.09241 0.69507 0.0
O279 O 0.2948 0.05179 0.68826 0.0
O280 O 0.01137 0.99731 0.46133 0.0
Cd281 Cd 0.00901 0.99838 0.44674 0.0
Cd282 Cd 0.02818 0.94776 0.44931 0.0
O283 O 0.03272 0.96044 0.46343 0.0
O284 O 0.01081 0.03826 0.44321 0.0
O285 O 0.03754 0.00793 0.43947 0.0
C286 C 0.03077 0.03295 0.43957 0.0
C287 C 0.0545 0.93219 0.43791 0.0
C288 C 0.02229 0.98126 0.46682 0.0
C289 C 0.97928 0.951 0.44179 0.0
O290 O 0.99521 0.93699 0.44562 0.0
O291 O 0.98154 0.97674 0.44076 0.0
O292 O 0.04812 0.91648 0.4448 0.0
O293 O 0.04794 0.95731 0.43818 0.0
O294 O 0.73392 0.76019 0.46132 0.0
Cd295 Cd 0.73633 0.75849 0.44673 0.0
Cd296 Cd 0.7188 0.80995 0.44916 0.0
O297 O 0.71359 0.79793 0.4633 0.0
O298 O 0.73402 0.71845 0.4434 0.0
O299 O 0.70774 0.74906 0.43945 0.0
C300 C 0.71419 0.72393 0.43968 0.0
C301 C 0.6932 0.82527 0.43745 0.0
C302 C 0.72341 0.77682 0.46676 0.0
C303 C 0.76755 0.80455 0.44176 0.0
O304 O 0.75215 0.81932 0.44562 0.0
O305 O 0.76433 0.77895 0.44068 0.0
O306 O 0.69963 0.84137 0.44424 0.0
O307 O 0.6993 0.80002 0.43798 0.0
O308 O 0.0122 0.76163 0.32184 0.0
Cd309 Cd 0.01081 0.75895 0.33644 0.0
Cd310 Cd 0.02851 0.81061 0.33427 0.0
O311 O 0.03196 0.79983 0.31991 0.0
O312 O 0.01368 0.71885 0.33944 0.0
O313 O 0.03987 0.74967 0.34339 0.0
C314 C 0.03363 0.72445 0.34303 0.0
C315 C 0.05547 0.82601 0.34543 0.0
C316 C 0.02201 0.77882 0.31641 0.0
C317 C 0.98037 0.80444 0.34247 0.0
O318 O 0.99569 0.81951 0.3387 0.0
O319 O 0.9832 0.77867 0.34299 0.0
O320 O 0.04773 0.84229 0.33894 0.0
O321 O 0.0499 0.80058 0.34481 0.0
O322 O 0.73827 0.99379 0.32156 0.0
Cd323 Cd 0.73828 0.99429 0.33621 0.0
Cd324 Cd 0.72104 0.94282 0.3329 0.0
O325 O 0.71717 0.95689 0.31891 0.0
O326 O 0.73523 0.03358 0.34054 0.0
O327 O 0.70791 1.00258 0.3422 0.0
C328 C 0.71443 0.02757 0.34309 0.0
C329 C 0.69467 0.92683 0.34422 0.0
C330 C 0.72787 0.97791 0.31581 0.0
C331 C 0.76856 0.94743 0.34135 0.0
O332 O 0.75405 0.93318 0.33674 0.0
O333 O 0.76479 0.97271 0.34289 0.0
O334 O 0.70146 0.91105 0.33739 0.0
O335 O 0.70091 0.95205 0.34392 0.0
O336 O 0.98663 0.5083 0.07235 0.0
Cd337 Cd 0.9875 0.50805 0.08705 0.0
Cd338 Cd 0.97076 0.55859 0.08356 0.0
O339 O 0.96492 0.54456 0.06975 0.0
O340 O 0.9855 0.4683 0.09076 0.0
O341 O 0.95829 0.49858 0.09388 0.0
C342 C 0.96523 0.47364 0.09407 0.0
C343 C 0.94589 0.57515 0.09533 0.0
C344 C 0.9757 0.52367 0.06662 0.0
C345 C 0.01884 0.55427 0.09126 0.0
O346 O 0.00439 0.56799 0.08645 0.0
O347 O 0.01452 0.52956 0.0935 0.0
O348 O 0.95179 0.5905 0.08826 0.0
O349 O 0.95221 0.54994 0.09509 0.0
O350 O 0.25834 0.74693 0.07237 0.0
Cd351 Cd 0.2588 0.74691 0.08706 0.0
Cd352 Cd 0.27434 0.69554 0.08322 0.0
O353 O 0.28042 0.71097 0.06961 0.0
O354 O 0.26291 0.78597 0.09163 0.0
O355 O 0.28974 0.75423 0.09269 0.0
C356 C 0.28377 0.77928 0.09387 0.0
C357 C 0.29856 0.6787 0.09518 0.0
C358 C 0.26938 0.73179 0.06658 0.0
C359 C 0.22694 0.70104 0.09116 0.0
O360 O 0.24049 0.68741 0.08588 0.0
O361 O 0.23236 0.72509 0.09386 0.0
O362 O 0.29281 0.66324 0.0881 0.0
O363 O 0.2923 0.70388 0.09489 0.0
O364 O 0.9837 0.74925 0.21134 0.0
Cd365 Cd 0.98508 0.74959 0.19664 0.0
Cd366 Cd 0.96905 0.69847 0.20016 0.0
O367 O 0.96282 0.71227 0.21395 0.0
O368 O 0.98302 0.78943 0.193 0.0
O369 O 0.95609 0.75904 0.18961 0.0
C370 C 0.96291 0.78403 0.18953 0.0
C371 C 0.94463 0.68233 0.18817 0.0
C372 C 0.97308 0.73354 0.21706 0.0
C373 C 0.01726 0.70399 0.19266 0.0
O374 O 0.00288 0.68997 0.1974 0.0
O375 O 0.01262 0.72857 0.19034 0.0
O376 O 0.95061 0.66652 0.1951 0.0
O377 O 0.95064 0.70762 0.18866 0.0
O378 O 0.25543 0.50795 0.21109 0.0
Cd379 Cd 0.25576 0.50851 0.19642 0.0
Cd380 Cd 0.27266 0.55904 0.20028 0.0
O381 O 0.27851 0.54305 0.21384 0.0
O382 O 0.25897 0.46956 0.19165 0.0
O383 O 0.28656 0.50045 0.19077 0.0
C384 C 0.28001 0.47565 0.18946 0.0
C385 C 0.29719 0.57562 0.18837 0.0
C386 C 0.26701 0.52257 0.21687 0.0
C387 C 0.22506 0.5557 0.19248 0.0
O388 O 0.23907 0.56876 0.19773 0.0
O389 O 0.22977 0.53146 0.18976 0.0
O390 O 0.29214 0.59077 0.19562 0.0
O391 O 0.29008 0.55074 0.18845 0.0
O392 O 0.00916 0.4937 0.96124 0.0
Cd393 Cd 0.00933 0.49522 0.94663 0.0
Cd394 Cd 0.02622 0.4433 0.94936 0.0
O395 O 0.03002 0.45643 0.9635 0.0
O396 O 0.01358 0.53454 0.94252 0.0
O397 O 0.04003 0.50252 0.94083 0.0
C398 C 0.03426 0.52777 0.94002 0.0
C399 C 0.05249 0.42695 0.93805 0.0
C400 C 0.01943 0.47727 0.96682 0.0
C401 C 0.97883 0.44904 0.94089 0.0
O402 O 0.99321 0.43422 0.94532 0.0
O403 O 0.98269 0.47446 0.93971 0.0
O404 O 0.0456 0.41133 0.94489 0.0
O405 O 0.04649 0.45223 0.93836 0.0
O406 O 0.73775 0.25904 0.96046 0.0
Cd407 Cd 0.73822 0.25802 0.94585 0.0
Cd408 Cd 0.71962 0.30916 0.94861 0.0
O409 O 0.71615 0.29572 0.96273 0.0
O410 O 0.73466 0.21883 0.94151 0.0
O411 O 0.70783 0.25041 0.93981 0.0
C412 C 0.71397 0.22529 0.93893 0.0
C413 C 0.69301 0.32586 0.9375 0.0
C414 C 0.72701 0.27509 0.96603 0.0
C415 C 0.76749 0.30533 0.94031 0.0
O416 O 0.75234 0.31954 0.94456 0.0
O417 O 0.76472 0.27969 0.93921 0.0
O418 O 0.69987 0.34109 0.94447 0.0
O419 O 0.69916 0.3006 0.93759 0.0
O420 O 0.00906 0.25972 0.82174 0.0
Cd421 Cd 0.00877 0.25837 0.83637 0.0
Cd422 Cd 0.02602 0.31044 0.83353 0.0
O423 O 0.02958 0.29724 0.8194 0.0
O424 O 0.01224 0.21896 0.84049 0.0
O425 O 0.03909 0.25041 0.84242 0.0
C426 C 0.03289 0.22529 0.84317 0.0
C427 C 0.05273 0.32585 0.84483 0.0
C428 C 0.01919 0.27619 0.81613 0.0
C429 C 0.97846 0.30485 0.84199 0.0
O430 O 0.9931 0.31962 0.83767 0.0
O431 O 0.98204 0.27936 0.84312 0.0
O432 O 0.04569 0.34202 0.83818 0.0
O433 O 0.04655 0.30064 0.84434 0.0
O434 O 0.73646 0.49497 0.82134 0.0
Cd435 Cd 0.73833 0.49706 0.83594 0.0
Cd436 Cd 0.71911 0.44601 0.8335 0.0
O437 O 0.71518 0.45798 0.81926 0.0
O438 O 0.73629 0.53715 0.8392 0.0
O439 O 0.70964 0.5068 0.84302 0.0
C440 C 0.7163 0.53185 0.84282 0.0
C441 C 0.6924 0.43144 0.84491 0.0
C442 C 0.72576 0.47866 0.81585 0.0
C443 C 0.76769 0.45011 0.84145 0.0
O444 O 0.75195 0.43584 0.83758 0.0
O445 O 0.76545 0.47591 0.84227 0.0
O446 O 0.69919 0.41499 0.83828 0.0
O447 O 0.69873 0.4566 0.84432 0.0
H448 H 0.43001 0.13103 0.09833 0.0
H449 H 0.42048 0.14981 0.11401 0.0
H450 H 0.42357 0.06903 0.12607 0.0
H451 H 0.43219 0.05007 0.11045 0.0
H452 H 0.39058 0.09894 0.13472 0.0
H453 H 0.472 0.15852 0.13295 0.0
H454 H 0.45183 0.16665 0.12371 0.0
H455 H 0.46454 0.13318 0.12418 0.0
C456 C 0.42806 0.11719 0.10427 0.0
C457 C 0.43218 0.08909 0.10313 0.0
C458 C 0.42286 0.12799 0.11326 0.0
C459 C 0.42204 0.11095 0.1213 0.0
C460 C 0.42433 0.08267 0.12002 0.0
H461 H 0.43692 0.12558 0.1821 0.0
H462 H 0.4275 0.10924 0.16609 0.0
C463 C 0.42928 0.07185 0.11105 0.0
C464 C 0.42074 0.12246 0.13111 0.0
H465 H 0.44953 0.16376 0.14673 0.0
C466 C 0.4034 0.11324 0.13732 0.0
C467 C 0.43764 0.14087 0.13459 0.0
C468 C 0.45769 0.15021 0.12856 0.0
C469 C 0.40248 0.12198 0.14686 0.0
C470 C 0.41937 0.14034 0.15029 0.0
C471 C 0.43647 0.14985 0.14406 0.0
C472 C 0.42042 0.14938 0.16038 0.0
C473 C 0.38346 0.1116 0.15321 0.0
C474 C 0.41899 0.17726 0.16259 0.0
C475 C 0.42429 0.18663 0.17172 0.0
C476 C 0.43142 0.16834 0.17885 0.0
C477 C 0.43134 0.1402 0.17681 0.0
C478 C 0.42595 0.13082 0.16765 0.0
H479 H 0.36898 0.10278 0.14904 0.0
H480 H 0.39044 0.09541 0.15791 0.0
H481 H 0.37672 0.12825 0.15779 0.0
H482 H 0.41481 0.19196 0.1571 0.0
H483 H 0.42413 0.20843 0.17302 0.0
H484 H 0.81978 0.04704 0.17224 0.0
H485 H 0.82894 0.06396 0.15637 0.0
H486 H 0.82204 0.14679 0.16635 0.0
H487 H 0.81292 0.13002 0.1823 0.0
H488 H 0.79617 0.09473 0.14653 0.0
H489 H 0.879 0.15108 0.14885 0.0
H490 H 0.87026 0.12615 0.1576 0.0
H491 H 0.85823 0.15994 0.15781 0.0
C492 C 0.82088 0.06889 0.17116 0.0
C493 C 0.8155 0.08717 0.17856 0.0
C494 C 0.82608 0.07853 0.16205 0.0
C495 C 0.82624 0.10665 0.16015 0.0
C496 C 0.82239 0.12501 0.16766 0.0
H497 H 0.81478 0.20964 0.11101 0.0
H498 H 0.82346 0.18984 0.12651 0.0
C499 C 0.81714 0.11538 0.1768 0.0
C500 C 0.82722 0.11645 0.15014 0.0
H501 H 0.85662 0.15795 0.13482 0.0
C502 C 0.80957 0.10827 0.14393 0.0
C503 C 0.84454 0.13435 0.14679 0.0
C504 C 0.86422 0.14327 0.15307 0.0
C505 C 0.80831 0.11808 0.13457 0.0
C506 C 0.82562 0.13605 0.13118 0.0
C507 C 0.84347 0.14401 0.13736 0.0
C508 C 0.82441 0.14812 0.12147 0.0
C509 C 0.7878 0.11006 0.12856 0.0
C510 C 0.82326 0.13145 0.11333 0.0
C511 C 0.81809 0.14272 0.10443 0.0
C512 C 0.81429 0.17094 0.10347 0.0
C513 C 0.81749 0.1878 0.11148 0.0
C514 C 0.82245 0.1765 0.12038 0.0
H515 H 0.77341 0.10197 0.13295 0.0
H516 H 0.78131 0.12772 0.12441 0.0
H517 H 0.79302 0.09381 0.1235 0.0
H518 H 0.82534 0.10956 0.11394 0.0
H519 H 0.81591 0.12915 0.09841 0.0
H520 H 0.56525 0.87607 0.84938 0.0
H521 H 0.57512 0.89467 0.86501 0.0
H522 H 0.57549 0.81333 0.87669 0.0
H523 H 0.56632 0.79461 0.8611 0.0
H524 H 0.5468 0.89086 0.87975 0.0
H525 H 0.62996 0.8449 0.89033 0.0
H526 H 0.61972 0.84423 0.87821 0.0
H527 H 0.60948 0.81953 0.88669 0.0
C528 C 0.56822 0.86207 0.8552 0.0
C529 C 0.56492 0.83384 0.85396 0.0
C530 C 0.57376 0.87275 0.86416 0.0
C531 C 0.57621 0.85545 0.87207 0.0
C532 C 0.57425 0.82714 0.87071 0.0
H533 H 0.55656 0.8745 0.93247 0.0
H534 H 0.5661 0.85707 0.9166 0.0
C535 C 0.56885 0.81644 0.86175 0.0
C536 C 0.57759 0.86706 0.88187 0.0
H537 H 0.6066 0.86312 0.90303 0.0
C538 C 0.56013 0.88511 0.88477 0.0
C539 C 0.59481 0.85939 0.8885 0.0
C540 C 0.61467 0.84116 0.88575 0.0
C541 C 0.559 0.89503 0.89412 0.0
C542 C 0.57596 0.887 0.90079 0.0
C543 C 0.59361 0.86923 0.89791 0.0
C544 C 0.57495 0.89658 0.91081 0.0
C545 C 0.53921 0.91342 0.89689 0.0
C546 C 0.57789 0.92434 0.91295 0.0
C547 C 0.57251 0.93435 0.922 0.0
C548 C 0.56409 0.91677 0.92911 0.0
C549 C 0.56305 0.88859 0.92718 0.0
C550 C 0.56843 0.87859 0.9181 0.0
H551 H 0.5253 0.91348 0.89146 0.0
H552 H 0.53173 0.90698 0.9038 0.0
H553 H 0.54564 0.93463 0.89771 0.0
H554 H 0.58315 0.93852 0.90746 0.0
H555 H 0.57363 0.95615 0.92323 0.0
H556 H 0.18028 0.95566 0.86095 0.0
H557 H 0.17122 0.93669 0.8765 0.0
H558 H 0.1709 0.85561 0.86454 0.0
H559 H 0.18087 0.87443 0.84893 0.0
H560 H 0.13859 0.9055 0.88492 0.0
H561 H 0.22184 0.84952 0.88388 0.0
H562 H 0.21406 0.8744 0.87503 0.0
H563 H 0.20237 0.84039 0.87449 0.0
C564 C 0.17787 0.9338 0.86155 0.0
C565 C 0.1817 0.91652 0.8537 0.0
C566 C 0.17266 0.92297 0.87049 0.0
C567 C 0.17104 0.89464 0.87178 0.0
C568 C 0.17275 0.87749 0.86378 0.0
H569 H 0.17422 0.79852 0.92368 0.0
H570 H 0.1648 0.81413 0.90768 0.0
C571 C 0.1782 0.8883 0.85483 0.0
C572 C 0.16962 0.88327 0.88159 0.0
H573 H 0.19895 0.84363 0.8975 0.0
C574 C 0.15171 0.89183 0.88765 0.0
C575 C 0.18691 0.8657 0.88523 0.0
C576 C 0.20751 0.85714 0.87937 0.0
C577 C 0.15063 0.88325 0.8972 0.0
C578 C 0.16792 0.86575 0.90079 0.0
C579 C 0.18558 0.85688 0.89471 0.0
C580 C 0.16885 0.85703 0.91091 0.0
C581 C 0.13102 0.8929 0.90338 0.0
C582 C 0.17349 0.87603 0.91815 0.0
C583 C 0.17894 0.86715 0.92736 0.0
C584 C 0.17995 0.83909 0.92946 0.0
C585 C 0.17365 0.82028 0.92234 0.0
C586 C 0.16829 0.82915 0.91316 0.0
H587 H 0.11644 0.90091 0.89909 0.0
H588 H 0.12462 0.87608 0.90796 0.0
H589 H 0.13725 0.90954 0.90808 0.0
H590 H 0.17436 0.89762 0.91655 0.0
H591 H 0.18386 0.88217 0.93264 0.0
H592 H 0.43243 0.62765 0.59918 0.0
H593 H 0.42277 0.64703 0.61474 0.0
H594 H 0.42148 0.56621 0.62682 0.0
H595 H 0.43018 0.54669 0.61129 0.0
H596 H 0.38975 0.5983 0.6353 0.0
H597 H 0.47392 0.65231 0.63398 0.0
H598 H 0.45458 0.66179 0.6246 0.0
H599 H 0.46556 0.62746 0.62518 0.0
C600 C 0.42945 0.61396 0.60509 0.0
C601 C 0.43241 0.58563 0.60399 0.0
C602 C 0.42418 0.62509 0.61402 0.0
C603 C 0.42217 0.60815 0.62205 0.0
C604 C 0.42319 0.57976 0.62079 0.0
H605 H 0.43618 0.6246 0.68291 0.0
H606 H 0.42679 0.60771 0.66696 0.0
C607 C 0.42818 0.56861 0.61186 0.0
C608 C 0.42107 0.6198 0.63184 0.0
H609 H 0.45104 0.65963 0.64754 0.0
C610 C 0.40309 0.61182 0.63796 0.0
C611 C 0.43867 0.63715 0.63539 0.0
C612 C 0.45939 0.64499 0.62949 0.0
C613 C 0.4022 0.62086 0.64747 0.0
C614 C 0.41972 0.63827 0.65095 0.0
C615 C 0.4375 0.64647 0.64483 0.0
C616 C 0.42063 0.64774 0.66099 0.0
C617 C 0.38253 0.61185 0.65373 0.0
C618 C 0.41965 0.67576 0.66302 0.0
C619 C 0.42491 0.68544 0.67212 0.0
C620 C 0.43154 0.66732 0.67939 0.0
C621 C 0.43099 0.6391 0.67751 0.0
C622 C 0.42563 0.6294 0.66838 0.0
H623 H 0.36807 0.6031 0.64953 0.0
H624 H 0.38879 0.59598 0.65872 0.0
H625 H 0.37598 0.62925 0.65802 0.0
H626 H 0.4159 0.69027 0.65743 0.0
H627 H 0.42511 0.7073 0.67329 0.0
H628 H 0.80721 0.62687 0.68182 0.0
H629 H 0.81627 0.6433 0.66579 0.0
H630 H 0.82932 0.56073 0.65669 0.0
H631 H 0.82028 0.54411 0.67262 0.0
H632 H 0.8556 0.63462 0.65185 0.0
H633 H 0.77177 0.58852 0.64114 0.0
H634 H 0.77911 0.59496 0.6534 0.0
H635 H 0.7916 0.56645 0.64725 0.0
C636 C 0.81272 0.61228 0.6765 0.0
C637 C 0.81279 0.58414 0.6785 0.0
C638 C 0.81782 0.62171 0.66732 0.0
C639 C 0.82307 0.60318 0.66001 0.0
C640 C 0.82503 0.57535 0.66219 0.0
H641 H 0.81061 0.62401 0.59857 0.0
H642 H 0.82045 0.60465 0.6141 0.0
C643 C 0.81994 0.56591 0.67134 0.0
C644 C 0.8239 0.61244 0.64995 0.0
H645 H 0.79344 0.60984 0.62919 0.0
C646 C 0.8421 0.62915 0.64687 0.0
C647 C 0.80629 0.60521 0.64345 0.0
C648 C 0.78596 0.58797 0.64644 0.0
C649 C 0.84316 0.63874 0.63744 0.0
C650 C 0.82526 0.63196 0.63098 0.0
C651 C 0.80727 0.61492 0.63408 0.0
C652 C 0.82371 0.64368 0.62121 0.0
C653 C 0.8636 0.65577 0.63447 0.0
C654 C 0.82294 0.67209 0.61992 0.0
C655 C 0.81756 0.68319 0.61104 0.0
C656 C 0.81248 0.66615 0.60324 0.0
C657 C 0.81453 0.63774 0.60439 0.0
C658 C 0.82003 0.62664 0.61329 0.0
H659 H 0.879 0.65107 0.63887 0.0
H660 H 0.86799 0.65245 0.62688 0.0
H661 H 0.85944 0.67768 0.63551 0.0
H662 H 0.82513 0.68575 0.62591 0.0
H663 H 0.81602 0.70516 0.61044 0.0
H664 H 0.55949 0.45931 0.4212 0.0
H665 H 0.56814 0.44045 0.40556 0.0
H666 H 0.57454 0.36016 0.41779 0.0
H667 H 0.5651 0.3788 0.43349 0.0
H668 H 0.60242 0.41171 0.39695 0.0
H669 H 0.52288 0.34877 0.39898 0.0
H670 H 0.52956 0.37474 0.40763 0.0
H671 H 0.54329 0.34185 0.40825 0.0
C672 C 0.56311 0.43768 0.42063 0.0
C673 C 0.56125 0.4205 0.42861 0.0
C674 C 0.56807 0.42692 0.41164 0.0
C675 C 0.57138 0.39875 0.41042 0.0
C676 C 0.57141 0.38185 0.4185 0.0
H677 H 0.57179 0.29908 0.35922 0.0
H678 H 0.58047 0.3165 0.37508 0.0
C679 C 0.56623 0.39258 0.4275 0.0
C680 C 0.57297 0.38708 0.40065 0.0
H681 H 0.54558 0.34389 0.38523 0.0
C682 C 0.59007 0.39677 0.3944 0.0
C683 C 0.55668 0.36781 0.39725 0.0
C684 C 0.53693 0.35785 0.40333 0.0
C685 C 0.59136 0.38761 0.38492 0.0
C686 C 0.57507 0.36838 0.38157 0.0
C687 C 0.55819 0.35846 0.38783 0.0
C688 C 0.57439 0.35881 0.37152 0.0
C689 C 0.61016 0.39845 0.37856 0.0
C690 C 0.56882 0.3769 0.36413 0.0
C691 C 0.56383 0.36698 0.35499 0.0
C692 C 0.56417 0.33875 0.35312 0.0
C693 C 0.57132 0.32093 0.36039 0.0
C694 C 0.57625 0.33085 0.36949 0.0
H695 H 0.62447 0.4077 0.38272 0.0
H696 H 0.61726 0.38197 0.37399 0.0
H697 H 0.60288 0.41443 0.37386 0.0
H698 H 0.56693 0.39852 0.36555 0.0
H699 H 0.55822 0.38125 0.3496 0.0
H700 H 0.18117 0.37668 0.35007 0.0
H701 H 0.17185 0.35831 0.36577 0.0
H702 H 0.17135 0.43986 0.37735 0.0
H703 H 0.18008 0.45836 0.36169 0.0
H704 H 0.20101 0.36333 0.38043 0.0
H705 H 0.11715 0.40742 0.39117 0.0
H706 H 0.12707 0.40771 0.379 0.0
H707 H 0.13721 0.43299 0.38731 0.0
C708 C 0.17829 0.39078 0.35588 0.0
C709 C 0.18145 0.41901 0.3546 0.0
C710 C 0.17306 0.38023 0.36488 0.0
C711 C 0.17076 0.39766 0.37278 0.0
C712 C 0.17253 0.42596 0.37138 0.0
H713 H 0.18786 0.38048 0.43348 0.0
H714 H 0.1789 0.39708 0.41746 0.0
C715 C 0.17767 0.43653 0.36239 0.0
C716 C 0.16974 0.38621 0.38259 0.0
H717 H 0.14078 0.38948 0.40376 0.0
C718 C 0.18761 0.36873 0.38547 0.0
C719 C 0.15244 0.39348 0.38924 0.0
C720 C 0.13226 0.41123 0.3865 0.0
C721 C 0.18903 0.35895 0.39483 0.0
C722 C 0.1719 0.36646 0.4015 0.0
C723 C 0.15387 0.38372 0.39864 0.0
C724 C 0.17304 0.35692 0.41152 0.0
C725 C 0.20933 0.34136 0.39757 0.0
C726 C 0.17162 0.32897 0.41361 0.0
C727 C 0.17673 0.31943 0.42273 0.0
C728 C 0.18326 0.33768 0.42999 0.0
C729 C 0.18286 0.36587 0.42808 0.0
C730 C 0.1778 0.3754 0.41891 0.0
H731 H 0.22345 0.3424 0.39225 0.0
H732 H 0.21632 0.34761 0.4046 0.0
H733 H 0.20364 0.31979 0.39811 0.0
H734 H 0.16762 0.31438 0.40805 0.0
H735 H 0.17672 0.2976 0.42396 0.0
H736 H 0.93712 0.13278 0.60022 0.0
H737 H 0.92774 0.14922 0.61623 0.0
H738 H 0.91388 0.06672 0.62515 0.0
H739 H 0.92321 0.05009 0.60923 0.0
H740 H 0.88779 0.14036 0.63008 0.0
H741 H 0.97159 0.09441 0.64083 0.0
H742 H 0.96443 0.10115 0.62857 0.0
H743 H 0.9519 0.07244 0.63457 0.0
C744 C 0.93137 0.11822 0.6055 0.0
C745 C 0.93115 0.09008 0.60345 0.0
C746 C 0.92608 0.12765 0.61466 0.0
C747 C 0.92048 0.10913 0.62191 0.0
C748 C 0.91839 0.08132 0.61968 0.0
H749 H 0.9324 0.12848 0.68336 0.0
H750 H 0.92245 0.10962 0.66776 0.0
C751 C 0.92368 0.07188 0.61055 0.0
C752 C 0.91953 0.11831 0.63198 0.0
H753 H 0.94975 0.11546 0.65279 0.0
C754 C 0.90126 0.13487 0.63508 0.0
C755 C 0.93709 0.11106 0.63849 0.0
C756 C 0.95749 0.09395 0.63549 0.0
C757 C 0.90005 0.14428 0.64454 0.0
C758 C 0.91788 0.13744 0.65101 0.0
C759 C 0.93596 0.12057 0.64789 0.0
C760 C 0.91925 0.14887 0.66083 0.0
C761 C 0.87955 0.16116 0.64752 0.0
C762 C 0.92003 0.17724 0.66226 0.0
C763 C 0.92547 0.18806 0.67119 0.0
C764 C 0.93061 0.17077 0.67889 0.0
C765 C 0.92846 0.1424 0.67761 0.0
C766 C 0.92288 0.13158 0.66867 0.0
H767 H 0.86422 0.15656 0.64306 0.0
H768 H 0.87503 0.15761 0.65509 0.0
H769 H 0.8837 0.18311 0.64659 0.0
H770 H 0.91785 0.19108 0.65634 0.0
H771 H 0.92707 0.21 0.67189 0.0
H772 H 0.32185 0.20873 0.61008 0.0
H773 H 0.33134 0.19225 0.62596 0.0
H774 H 0.31973 0.10941 0.61678 0.0
H775 H 0.31014 0.12573 0.60081 0.0
H776 H 0.29664 0.16336 0.63612 0.0
H777 H 0.3779 0.10373 0.63406 0.0
H778 H 0.37015 0.12919 0.62533 0.0
H779 H 0.3568 0.09612 0.62506 0.0
C780 C 0.32199 0.18691 0.61133 0.0
C781 C 0.31507 0.16856 0.60416 0.0
C782 C 0.3274 0.17754 0.62044 0.0
C783 C 0.32627 0.14961 0.62258 0.0
C784 C 0.32104 0.13103 0.61527 0.0
H785 H 0.31344 0.04917 0.67202 0.0
H786 H 0.32276 0.06859 0.65656 0.0
C787 C 0.31555 0.14041 0.60612 0.0
C788 C 0.32717 0.14049 0.63265 0.0
H789 H 0.35583 0.09921 0.64824 0.0
C790 C 0.30976 0.14961 0.63881 0.0
C791 C 0.34412 0.12233 0.63611 0.0
C792 C 0.36344 0.11237 0.62984 0.0
C793 C 0.30835 0.14041 0.64824 0.0
C794 C 0.32531 0.12218 0.65175 0.0
C795 C 0.34297 0.11337 0.64561 0.0
C796 C 0.32375 0.11041 0.6615 0.0
C797 C 0.28798 0.14928 0.65418 0.0
C798 C 0.32242 0.12725 0.6696 0.0
C799 C 0.3168 0.11619 0.67849 0.0
C800 C 0.31279 0.08802 0.67948 0.0
C801 C 0.31626 0.07099 0.67154 0.0
C802 C 0.32161 0.08207 0.66265 0.0
H803 H 0.27375 0.15749 0.64973 0.0
H804 H 0.28113 0.13203 0.65844 0.0
H805 H 0.29349 0.16568 0.65913 0.0
H806 H 0.32468 0.14911 0.66896 0.0
H807 H 0.31444 0.12987 0.68447 0.0
H808 H 0.06297 0.87937 0.35058 0.0
H809 H 0.07238 0.89625 0.36649 0.0
H810 H 0.08179 0.8136 0.3762 0.0
H811 H 0.07234 0.79653 0.36036 0.0
H812 H 0.0486 0.8431 0.38632 0.0
H813 H 0.12985 0.9024 0.38364 0.0
H814 H 0.10859 0.91061 0.3748 0.0
H815 H 0.12144 0.87724 0.37489 0.0
C816 C 0.0678 0.8648 0.356 0.0
C817 C 0.06677 0.83657 0.35418 0.0
C818 C 0.07323 0.87451 0.36512 0.0
C819 C 0.07786 0.85621 0.37255 0.0
C820 C 0.07833 0.82812 0.37058 0.0
H821 H 0.06817 0.87943 0.43434 0.0
H822 H 0.0779 0.8597 0.41884 0.0
C823 C 0.07297 0.8184 0.36149 0.0
C824 C 0.07895 0.86595 0.38258 0.0
H825 H 0.1076 0.9087 0.39776 0.0
C826 C 0.0617 0.85715 0.38886 0.0
C827 C 0.09587 0.88451 0.38585 0.0
C828 C 0.11513 0.89412 0.37948 0.0
C829 C 0.06041 0.86702 0.39822 0.0
C830 C 0.07729 0.8857 0.40153 0.0
C831 C 0.09478 0.89422 0.39528 0.0
C832 C 0.07591 0.89799 0.41122 0.0
C833 C 0.04026 0.85832 0.40432 0.0
C834 C 0.07327 0.92632 0.41224 0.0
C835 C 0.06815 0.93771 0.42112 0.0
C836 C 0.06546 0.92099 0.42918 0.0
C837 C 0.06994 0.89288 0.42829 0.0
C838 C 0.07529 0.88153 0.4194 0.0
H839 H 0.02601 0.84958 0.4 0.0
H840 H 0.04604 0.84239 0.40938 0.0
H841 H 0.03336 0.8758 0.40846 0.0
H842 H 0.07387 0.93951 0.40607 0.0
H843 H 0.06492 0.95946 0.42153 0.0
H844 H 0.68278 0.87839 0.43296 0.0
H845 H 0.67353 0.89643 0.41719 0.0
H846 H 0.67215 0.81456 0.40591 0.0
H847 H 0.68076 0.79641 0.42162 0.0
H848 H 0.70199 0.89118 0.40243 0.0
H849 H 0.61795 0.84664 0.39216 0.0
H850 H 0.6282 0.8465 0.40428 0.0
H851 H 0.63806 0.82109 0.39596 0.0
C852 C 0.67975 0.86417 0.42719 0.0
C853 C 0.68257 0.83594 0.42858 0.0
C854 C 0.67456 0.87453 0.41815 0.0
C855 C 0.67197 0.8569 0.41032 0.0
C856 C 0.67352 0.82863 0.41182 0.0
H857 H 0.68943 0.87326 0.34958 0.0
H858 H 0.68044 0.85661 0.3656 0.0
C859 C 0.6786 0.81826 0.42085 0.0
C860 C 0.67075 0.86807 0.40047 0.0
H861 H 0.64136 0.86407 0.37939 0.0
C862 C 0.6885 0.88556 0.39746 0.0
C863 C 0.65331 0.86055 0.3939 0.0
C864 C 0.63319 0.84287 0.39676 0.0
C865 C 0.68968 0.8951 0.38807 0.0
C866 C 0.67247 0.88729 0.38147 0.0
C867 C 0.65455 0.87003 0.38446 0.0
C868 C 0.67338 0.89663 0.37142 0.0
C869 C 0.7098 0.91285 0.38519 0.0
C870 C 0.67126 0.92446 0.36926 0.0
C871 C 0.67635 0.93402 0.36014 0.0
C872 C 0.68361 0.91591 0.35295 0.0
C873 C 0.68384 0.88775 0.35493 0.0
C874 C 0.67878 0.8782 0.36409 0.0
H875 H 0.72392 0.91239 0.39052 0.0
H876 H 0.71684 0.90624 0.37822 0.0
H877 H 0.70387 0.93428 0.38447 0.0
H878 H 0.66682 0.939 0.37477 0.0
H879 H 0.67586 0.95582 0.35887 0.0
H880 H 0.93896 0.62873 0.18288 0.0
H881 H 0.93088 0.61162 0.16683 0.0
H882 H 0.92009 0.69399 0.15709 0.0
H883 H 0.92827 0.71127 0.17303 0.0
H884 H 0.89325 0.61899 0.15281 0.0
H885 H 0.97667 0.66523 0.14179 0.0
H886 H 0.96901 0.66034 0.1541 0.0
H887 H 0.95668 0.68804 0.14747 0.0
C888 C 0.93425 0.64316 0.17739 0.0
C889 C 0.9345 0.6714 0.17923 0.0
C890 C 0.9297 0.63334 0.16821 0.0
C891 C 0.92533 0.65157 0.16073 0.0
C892 C 0.92379 0.67958 0.16272 0.0
H893 H 0.93583 0.62873 0.09933 0.0
H894 H 0.92651 0.64815 0.11491 0.0
C895 C 0.92837 0.68941 0.17187 0.0
C896 C 0.92462 0.64168 0.15073 0.0
H897 H 0.95478 0.64376 0.12989 0.0
C898 C 0.90663 0.62445 0.14777 0.0
C899 C 0.9421 0.64883 0.14416 0.0
C900 C 0.96234 0.66644 0.14701 0.0
C901 C 0.90559 0.61433 0.1384 0.0
C902 C 0.92328 0.62117 0.13187 0.0
C903 C 0.9411 0.63866 0.13483 0.0
C904 C 0.92471 0.60921 0.12213 0.0
C905 C 0.88541 0.59667 0.13557 0.0
C906 C 0.9262 0.58082 0.1209 0.0
C907 C 0.93134 0.56967 0.11199 0.0
C908 C 0.93541 0.58667 0.1041 0.0
C909 C 0.9327 0.61502 0.10522 0.0
C910 C 0.92748 0.62617 0.11415 0.0
H911 H 0.87008 0.60088 0.14007 0.0
H912 H 0.88066 0.59985 0.12801 0.0
H913 H 0.89011 0.57489 0.13654 0.0
H914 H 0.92469 0.56726 0.12694 0.0
H915 H 0.93341 0.54775 0.11142 0.0
H916 H 0.31029 0.5477 0.17249 0.0
H917 H 0.31907 0.56648 0.1569 0.0
H918 H 0.3162 0.64798 0.16847 0.0
H919 H 0.30676 0.62924 0.18414 0.0
H920 H 0.28843 0.64253 0.15343 0.0
H921 H 0.37347 0.59986 0.14372 0.0
H922 H 0.35364 0.57375 0.14732 0.0
H923 H 0.36269 0.59929 0.15576 0.0
C924 C 0.31212 0.56962 0.17181 0.0
C925 C 0.30772 0.58697 0.17959 0.0
C926 C 0.31732 0.58035 0.16286 0.0
C927 C 0.31855 0.60868 0.16147 0.0
C928 C 0.31545 0.62603 0.16935 0.0
H929 H 0.31651 0.70749 0.11003 0.0
H930 H 0.32463 0.69062 0.12601 0.0
C931 C 0.31017 0.61529 0.17833 0.0
C932 C 0.32004 0.62005 0.15166 0.0
H933 H 0.35017 0.61645 0.13076 0.0
C934 C 0.30215 0.63716 0.14854 0.0
C935 C 0.3378 0.61284 0.1452 0.0
C936 C 0.3581 0.59565 0.1482 0.0
C937 C 0.30115 0.64657 0.13913 0.0
C938 C 0.31866 0.63899 0.13264 0.0
C939 C 0.33673 0.62217 0.13574 0.0
C940 C 0.31802 0.6483 0.12259 0.0
C941 C 0.28094 0.66395 0.13611 0.0
C942 C 0.31281 0.6299 0.11523 0.0
C943 C 0.30824 0.63948 0.10602 0.0
C944 C 0.3088 0.66763 0.10405 0.0
C945 C 0.31577 0.6857 0.1113 0.0
C946 C 0.32036 0.67612 0.12046 0.0
H947 H 0.26671 0.66346 0.1414 0.0
H948 H 0.2867 0.68543 0.13533 0.0
H949 H 0.27412 0.65703 0.12914 0.0
H950 H 0.31098 0.60832 0.11672 0.0
H951 H 0.30284 0.62504 0.10062 0.0
H952 H 0.05975 0.37914 0.85027 0.0
H953 H 0.06915 0.39533 0.8663 0.0
H954 H 0.07938 0.31231 0.87547 0.0
H955 H 0.07009 0.29597 0.85953 0.0
H956 H 0.04497 0.34217 0.88559 0.0
H957 H 0.12744 0.3996 0.88367 0.0
H958 H 0.10652 0.40754 0.87464 0.0
H959 H 0.11932 0.37419 0.87495 0.0
C960 C 0.06479 0.36439 0.8556 0.0
C961 C 0.06403 0.33624 0.85361 0.0
C962 C 0.07018 0.37369 0.86478 0.0
C963 C 0.075 0.35503 0.8721 0.0
C964 C 0.07576 0.32708 0.86994 0.0
H965 H 0.064 0.37365 0.93405 0.0
H966 H 0.07349 0.35465 0.91841 0.0
C967 C 0.07047 0.31779 0.8608 0.0
C968 C 0.07599 0.36415 0.88218 0.0
H969 H 0.10562 0.40427 0.89789 0.0
C970 C 0.05838 0.35549 0.88832 0.0
C971 C 0.09334 0.38175 0.88569 0.0
C972 C 0.11287 0.39123 0.87944 0.0
C973 C 0.05721 0.36456 0.89778 0.0
C974 C 0.0746 0.38216 0.90135 0.0
C975 C 0.09242 0.39057 0.89522 0.0
C976 C 0.07343 0.39363 0.91117 0.0
C977 C 0.03667 0.35618 0.90371 0.0
C978 C 0.07205 0.42199 0.91248 0.0
C979 C 0.06713 0.43292 0.92144 0.0
C980 C 0.06336 0.41573 0.92931 0.0
C981 C 0.06662 0.38747 0.92815 0.0
C982 C 0.0718 0.37655 0.91917 0.0
H983 H 0.02221 0.34863 0.89923 0.0
H984 H 0.04179 0.33943 0.90856 0.0
H985 H 0.03029 0.37351 0.90807 0.0
H986 H 0.07345 0.43565 0.90646 0.0
H987 H 0.06489 0.4548 0.92206 0.0
H988 H 0.68065 0.29908 0.92125 0.0
H989 H 0.67205 0.31932 0.90583 0.0
H990 H 0.67196 0.39945 0.91855 0.0
H991 H 0.6814 0.37936 0.93401 0.0
H992 H 0.6396 0.3517 0.89763 0.0
H993 H 0.72339 0.4065 0.89939 0.0
H994 H 0.71527 0.38092 0.90795 0.0
H995 H 0.70392 0.41501 0.90885 0.0
C996 C 0.67837 0.32099 0.92084 0.0
C997 C 0.68209 0.33762 0.92887 0.0
C998 C 0.67344 0.33255 0.91198 0.0
C999 C 0.67202 0.36099 0.91094 0.0
C1000 C 0.67365 0.3775 0.91911 0.0
H1001 H 0.67697 0.46154 0.85998 0.0
H1002 H 0.66777 0.44494 0.87589 0.0
C1003 C 0.6788 0.36595 0.92797 0.0
C1004 C 0.67083 0.37318 0.90124 0.0
H1005 H 0.70065 0.41394 0.88582 0.0
C1006 C 0.65288 0.36543 0.89507 0.0
C1007 C 0.68831 0.39088 0.89782 0.0
C1008 C 0.70894 0.39864 0.9038 0.0
C1009 C 0.65191 0.37497 0.88563 0.0
C1010 C 0.6694 0.39258 0.88225 0.0
C1011 C 0.68713 0.40062 0.88844 0.0
C1012 C 0.67047 0.40219 0.87222 0.0
C1013 C 0.63216 0.36622 0.87935 0.0
C1014 C 0.67436 0.38366 0.86475 0.0
C1015 C 0.67965 0.39311 0.85559 0.0
C1016 C 0.68129 0.42128 0.85376 0.0
C1017 C 0.67587 0.43971 0.86111 0.0
C1018 C 0.67065 0.43026 0.87024 0.0
H1019 H 0.61735 0.3585 0.88358 0.0
H1020 H 0.62621 0.3834 0.87484 0.0
H1021 H 0.63806 0.34954 0.8746 0.0
H1022 H 0.67469 0.36192 0.86612 0.0
H1023 H 0.6839 0.37835 0.85013 0.0
H1024 H 0.32824 0.76973 0.09911 0.0
H1025 H 0.35889 0.80317 0.10149 0.0
H1026 H 0.31015 0.86856 0.09752 0.0
H1027 H 0.27916 0.83509 0.09505 0.0
H1028 H 0.36921 0.84296 0.08651 0.0
H1029 H 0.35008 0.89079 0.12151 0.0
H1030 H 0.33978 0.85716 0.11831 0.0
H1031 H 0.32633 0.88689 0.11337 0.0
C1032 C 0.32386 0.79121 0.09891 0.0
C1033 C 0.30123 0.79974 0.09683 0.0
C1034 C 0.34145 0.81029 0.10028 0.0
C1035 C 0.33678 0.83829 0.09971 0.0
C1036 C 0.31403 0.847 0.09809 0.0
H1037 H 0.41724 0.98542 0.09712 0.0
H1038 H 0.388 0.95043 0.09962 0.0
C1039 C 0.29636 0.82786 0.09667 0.0
C1040 C 0.35613 0.85809 0.09982 0.0
H1041 H 0.3801 0.91054 0.11241 0.0
C1042 C 0.37173 0.85764 0.0922 0.0
C1043 C 0.3592 0.87724 0.10722 0.0
C1044 C 0.3431 0.87811 0.11562 0.0
C1045 C 0.39005 0.87632 0.09165 0.0
C1046 C 0.3933 0.89546 0.09909 0.0
C1047 C 0.37775 0.89573 0.10676 0.0
C1048 C 0.41178 0.91651 0.09868 0.0
C1049 C 0.40513 0.87602 0.0829 0.0
C1050 C 0.43511 0.90921 0.09767 0.0
C1051 C 0.45195 0.92926 0.09613 0.0
C1052 C 0.44577 0.95698 0.0957 0.0
C1053 C 0.42263 0.96426 0.09734 0.0
C1054 C 0.40583 0.94425 0.09879 0.0
H1055 H 0.39677 0.8651 0.07689 0.0
H1056 H 0.40932 0.89709 0.08057 0.0
H1057 H 0.42151 0.86532 0.08455 0.0
H1058 H 0.44021 0.88796 0.09782 0.0
H1059 H 0.46964 0.92299 0.09497 0.0
H1060 H 0.81295 0.28101 0.10713 0.0
H1061 H 0.8433 0.31428 0.11066 0.0
H1062 H 0.81779 0.36602 0.08818 0.0
H1063 H 0.78646 0.33387 0.08521 0.0
H1064 H 0.87718 0.3279 0.10116 0.0
H1065 H 0.82958 0.42368 0.10656 0.0
H1066 H 0.81498 0.39125 0.10597 0.0
H1067 H 0.8217 0.40988 0.09524 0.0
C1068 C 0.81346 0.29995 0.10317 0.0
C1069 C 0.79719 0.30509 0.096 0.0
C1070 C 0.8309 0.3189 0.10514 0.0
C1071 C 0.83283 0.34308 0.0998 0.0
C1072 C 0.81634 0.34822 0.09268 0.0
H1073 H 0.9608 0.42315 0.08629 0.0
H1074 H 0.92951 0.3907 0.08887 0.0
C1075 C 0.79845 0.3297 0.09093 0.0
C1076 C 0.85315 0.36153 0.10106 0.0
H1077 H 0.86918 0.42857 0.10127 0.0
C1078 C 0.87533 0.34992 0.10138 0.0
C1079 C 0.85105 0.39031 0.10158 0.0
C1080 C 0.828 0.4044 0.10244 0.0
C1081 C 0.8953 0.36616 0.10179 0.0
C1082 C 0.89323 0.39495 0.10134 0.0
C1083 C 0.87103 0.40655 0.10144 0.0
C1084 C 0.91361 0.41345 0.10037 0.0
C1085 C 0.91829 0.35205 0.10286 0.0
C1086 C 0.91509 0.43759 0.10578 0.0
C1087 C 0.93251 0.45671 0.10402 0.0
C1088 C 0.94921 0.45177 0.097 0.0
C1089 C 0.94845 0.42716 0.0919 0.0
C1090 C 0.93057 0.40847 0.09343 0.0
H1091 H 0.91644 0.33271 0.1069 0.0
H1092 H 0.92504 0.34668 0.09572 0.0
H1093 H 0.93107 0.36515 0.10657 0.0
H1094 H 0.90232 0.44208 0.11118 0.0
H1095 H 0.93263 0.47566 0.108 0.0
H1096 H 0.46396 0.33612 0.18935 0.0
H1097 H 0.43233 0.36867 0.18683 0.0
H1098 H 0.3863 0.30214 0.18029 0.0
H1099 H 0.41761 0.26958 0.18273 0.0
H1100 H 0.39736 0.37411 0.16982 0.0
H1101 H 0.36072 0.34451 0.20492 0.0
H1102 H 0.3907 0.33916 0.20197 0.0
H1103 H 0.36895 0.31747 0.19694 0.0
C1104 C 0.44723 0.32847 0.18719 0.0
C1105 C 0.44328 0.30024 0.18632 0.0
C1106 C 0.42919 0.34708 0.18576 0.0
C1107 C 0.40698 0.33772 0.18347 0.0
C1108 C 0.4033 0.30972 0.18212 0.0
H1109 H 0.27375 0.42022 0.18767 0.0
H1110 H 0.30358 0.38572 0.18475 0.0
C1111 C 0.42126 0.29116 0.18351 0.0
C1112 C 0.38721 0.35686 0.18323 0.0
H1113 H 0.34001 0.37666 0.19598 0.0
C1114 C 0.38477 0.37472 0.17552 0.0
C1115 C 0.37074 0.35734 0.19063 0.0
C1116 C 0.37282 0.33875 0.19914 0.0
C1117 C 0.36618 0.39312 0.17502 0.0
C1118 C 0.34997 0.39409 0.18255 0.0
C1119 C 0.35232 0.37587 0.19019 0.0
C1120 C 0.33132 0.41491 0.18303 0.0
C1121 C 0.36396 0.41105 0.16636 0.0
C1122 C 0.33688 0.44279 0.18292 0.0
C1123 C 0.31988 0.46246 0.18451 0.0
C1124 C 0.29695 0.45474 0.18639 0.0
C1125 C 0.29121 0.42685 0.18621 0.0
C1126 C 0.30827 0.40712 0.18457 0.0
H1127 H 0.37235 0.40159 0.16007 0.0
H1128 H 0.34561 0.41516 0.16463 0.0
H1129 H 0.37269 0.43082 0.16774 0.0
H1130 H 0.35457 0.44937 0.18201 0.0
H1131 H 0.32497 0.48374 0.18464 0.0
H1132 H 0.81232 0.97747 0.17498 0.0
H1133 H 0.84232 0.94355 0.17177 0.0
H1134 H 0.81565 0.89335 0.19446 0.0
H1135 H 0.78467 0.92614 0.19711 0.0
H1136 H 0.87578 0.9301 0.18154 0.0
H1137 H 0.82751 0.83452 0.17655 0.0
H1138 H 0.81318 0.86713 0.17685 0.0
H1139 H 0.81947 0.84904 0.18773 0.0
C1140 C 0.81247 0.95871 0.17905 0.0
C1141 C 0.796 0.95421 0.18619 0.0
C1142 C 0.82973 0.93939 0.17727 0.0
C1143 C 0.83126 0.91548 0.18277 0.0
C1144 C 0.81452 0.91093 0.18984 0.0
H1145 H 0.95846 0.83472 0.19718 0.0
H1146 H 0.92734 0.86724 0.1944 0.0
C1147 C 0.79682 0.92982 0.1914 0.0
C1148 C 0.85146 0.89673 0.18174 0.0
H1149 H 0.86696 0.82952 0.18199 0.0
C1150 C 0.87374 0.90809 0.18145 0.0
C1151 C 0.84914 0.86795 0.18139 0.0
C1152 C 0.82599 0.85405 0.18053 0.0
C1153 C 0.89359 0.89164 0.18122 0.0
C1154 C 0.89128 0.86289 0.18183 0.0
C1155 C 0.86899 0.85152 0.18171 0.0
C1156 C 0.9115 0.84424 0.18295 0.0
C1157 C 0.91672 0.90546 0.18017 0.0
C1158 C 0.91294 0.81993 0.17764 0.0
C1159 C 0.93028 0.80079 0.1795 0.0
C1160 C 0.94692 0.80586 0.18653 0.0
C1161 C 0.94617 0.83061 0.19156 0.0
C1162 C 0.92839 0.84933 0.18992 0.0
H1163 H 0.91513 0.92468 0.17604 0.0
H1164 H 0.92338 0.91101 0.18731 0.0
H1165 H 0.92946 0.8921 0.17657 0.0
H1166 H 0.90023 0.81535 0.17222 0.0
H1167 H 0.93038 0.78175 0.17557 0.0
H1168 H 0.71985 0.16978 0.93748 0.0
H1169 H 0.6899 0.13539 0.93463 0.0
H1170 H 0.63937 0.19925 0.93131 0.0
H1171 H 0.66913 0.23355 0.93388 0.0
H1172 H 0.65321 0.12715 0.94578 0.0
H1173 H 0.62189 0.15044 0.90956 0.0
H1174 H 0.64858 0.16409 0.91416 0.0
H1175 H 0.6215 0.17998 0.9171 0.0
C1176 C 0.70247 0.17649 0.93591 0.0
C1177 C 0.69691 0.20442 0.93591 0.0
C1178 C 0.68535 0.15682 0.93431 0.0
C1179 C 0.66238 0.16469 0.93263 0.0
C1180 C 0.657 0.19259 0.93233 0.0
H1181 H 0.5296 0.08554 0.93844 0.0
H1182 H 0.56121 0.11815 0.93595 0.0
C1183 C 0.67408 0.21223 0.93389 0.0
C1184 C 0.64367 0.14392 0.93219 0.0
H1185 H 0.59678 0.1231 0.9193 0.0
C1186 C 0.64109 0.12605 0.93992 0.0
C1187 C 0.62771 0.14254 0.92457 0.0
C1188 C 0.63018 0.16012 0.91584 0.0
C1189 C 0.62273 0.10742 0.94035 0.0
C1190 C 0.60654 0.10648 0.93285 0.0
C1191 C 0.60917 0.12404 0.92506 0.0
C1192 C 0.58685 0.08719 0.93307 0.0
C1193 C 0.6204 0.08923 0.94895 0.0
C1194 C 0.59071 0.05913 0.93197 0.0
C1195 C 0.57276 0.04053 0.93334 0.0
C1196 C 0.55056 0.04962 0.93588 0.0
C1197 C 0.54646 0.07788 0.9365 0.0
C1198 C 0.56449 0.09652 0.93508 0.0
H1199 H 0.63217 0.09544 0.9548 0.0
H1200 H 0.60239 0.08951 0.95164 0.0
H1201 H 0.62457 0.0679 0.94691 0.0
H1202 H 0.60783 0.05158 0.93035 0.0
H1203 H 0.57653 0.01893 0.93277 0.0
H1204 H 0.16609 0.7355 0.93627 0.0
H1205 H 0.1371 0.70003 0.93406 0.0
H1206 H 0.18999 0.63834 0.93567 0.0
H1207 H 0.21918 0.67386 0.93823 0.0
H1208 H 0.12925 0.65989 0.92135 0.0
H1209 H 0.1474 0.61502 0.95678 0.0
H1210 H 0.15955 0.64713 0.95304 0.0
H1211 H 0.17192 0.61548 0.94901 0.0
C1212 C 0.17167 0.71441 0.93607 0.0
C1213 C 0.19495 0.7075 0.93756 0.0
C1214 C 0.15502 0.69412 0.93479 0.0
C1215 C 0.16124 0.66646 0.93493 0.0
C1216 C 0.18468 0.65952 0.93581 0.0
H1217 H 0.07886 0.5185 0.93485 0.0
H1218 H 0.10933 0.55218 0.93245 0.0
C1219 C 0.20138 0.67985 0.93719 0.0
C1220 C 0.14298 0.64513 0.93461 0.0
H1221 H 0.11984 0.59233 0.94728 0.0
C1222 C 0.12722 0.64508 0.92701 0.0
C1223 C 0.14016 0.62598 0.94206 0.0
C1224 C 0.15549 0.62598 0.95073 0.0
C1225 C 0.10888 0.62629 0.92663 0.0
C1226 C 0.10623 0.60715 0.93405 0.0
C1227 C 0.12204 0.607 0.94159 0.0
C1228 C 0.08703 0.58715 0.93425 0.0
C1229 C 0.09255 0.62685 0.9183 0.0
C1230 C 0.06426 0.59568 0.93591 0.0
C1231 C 0.04671 0.57642 0.93735 0.0
C1232 C 0.0517 0.54833 0.93715 0.0
C1233 C 0.07437 0.53996 0.93507 0.0
C1234 C 0.09186 0.55917 0.93369 0.0
H1235 H 0.09931 0.63944 0.91236 0.0
H1236 H 0.08924 0.60583 0.91566 0.0
H1237 H 0.07581 0.63561 0.92061 0.0
H1238 H 0.06025 0.61721 0.93649 0.0
H1239 H 0.02947 0.58354 0.93897 0.0
H1240 H 0.56266 0.72321 0.8572 0.0
H1241 H 0.59373 0.69025 0.85987 0.0
H1242 H 0.56783 0.64088 0.83676 0.0
H1243 H 0.53576 0.67263 0.83466 0.0
H1244 H 0.58369 0.60894 0.84902 0.0
H1245 H 0.65 0.68921 0.84453 0.0
H1246 H 0.63216 0.69559 0.85467 0.0
H1247 H 0.61976 0.69599 0.84291 0.0
C1248 C 0.56338 0.70496 0.85286 0.0
C1249 C 0.54686 0.70043 0.84573 0.0
C1250 C 0.58136 0.68634 0.85427 0.0
C1251 C 0.58379 0.66351 0.84828 0.0
C1252 C 0.56657 0.65837 0.84146 0.0
H1253 H 0.71105 0.58135 0.83441 0.0
H1254 H 0.67911 0.61327 0.8366 0.0
C1255 C 0.54815 0.67649 0.84026 0.0
C1256 C 0.60447 0.64539 0.84885 0.0
H1257 H 0.66344 0.64543 0.84888 0.0
C1258 C 0.60113 0.61698 0.84895 0.0
C1259 C 0.62734 0.65569 0.84861 0.0
C1260 C 0.63255 0.68575 0.84757 0.0
C1261 C 0.61978 0.59868 0.84863 0.0
C1262 C 0.64266 0.60899 0.8488 0.0
C1263 C 0.646 0.6374 0.84888 0.0
C1264 C 0.66331 0.59084 0.84818 0.0
C1265 C 0.61455 0.56861 0.84762 0.0
C1266 C 0.66582 0.5681 0.85419 0.0
C1267 C 0.68372 0.5494 0.85272 0.0
C1268 C 0.7001 0.55376 0.84553 0.0
C1269 C 0.69876 0.57763 0.84006 0.0
C1270 C 0.68042 0.59584 0.8413 0.0
H1271 H 0.59705 0.56513 0.84462 0.0
H1272 H 0.62726 0.55832 0.84293 0.0
H1273 H 0.61505 0.55885 0.85472 0.0
H1274 H 0.65355 0.56432 0.85983 0.0
H1275 H 0.68447 0.5312 0.85708 0.0
H1276 H 0.02696 0.16974 0.84436 0.0
H1277 H 0.05682 0.13533 0.84728 0.0
H1278 H 0.10722 0.19919 0.85111 0.0
H1279 H 0.07755 0.23349 0.84849 0.0
H1280 H 0.09389 0.12738 0.83631 0.0
H1281 H 0.12396 0.15002 0.87279 0.0
H1282 H 0.09743 0.16372 0.86808 0.0
H1283 H 0.12462 0.17968 0.86535 0.0
C1284 C 0.04428 0.17643 0.84606 0.0
C1285 C 0.04984 0.20436 0.84619 0.0
C1286 C 0.06136 0.15675 0.8477 0.0
C1287 C 0.08426 0.16462 0.84953 0.0
C1288 C 0.08963 0.19253 0.84996 0.0
H1289 H 0.21647 0.084 0.84345 0.0
H1290 H 0.18536 0.11728 0.84594 0.0
C1291 C 0.0726 0.21217 0.84837 0.0
C1292 C 0.10296 0.14388 0.85001 0.0
H1293 H 0.14933 0.12276 0.86313 0.0
C1294 C 0.1058 0.12617 0.84224 0.0
C1295 C 0.11865 0.14237 0.85772 0.0
C1296 C 0.11589 0.15979 0.8665 0.0
C1297 C 0.12413 0.10752 0.84186 0.0
C1298 C 0.14004 0.10644 0.84946 0.0
C1299 C 0.13717 0.12385 0.85729 0.0
C1300 C 0.15954 0.08694 0.84933 0.0
C1301 C 0.12669 0.08936 0.83326 0.0
C1302 C 0.15541 0.05906 0.85071 0.0
C1303 C 0.17307 0.04008 0.84933 0.0
C1304 C 0.19522 0.04863 0.8465 0.0
C1305 C 0.19963 0.07676 0.84563 0.0
C1306 C 0.18189 0.09578 0.84704 0.0
H1307 H 0.11485 0.09532 0.82741 0.0
H1308 H 0.14471 0.09002 0.83058 0.0
H1309 H 0.12284 0.06794 0.83528 0.0
H1310 H 0.13828 0.05189 0.85251 0.0
H1311 H 0.16907 0.0186 0.85011 0.0
H1312 H 0.46759 0.41788 0.59383 0.0
H1313 H 0.43597 0.38523 0.5963 0.0
H1314 H 0.38931 0.45176 0.6019 0.0
H1315 H 0.42059 0.48442 0.59951 0.0
H1316 H 0.39972 0.3813 0.6132 0.0
H1317 H 0.36574 0.40682 0.57727 0.0
H1318 H 0.39555 0.41227 0.58049 0.0
H1319 H 0.37365 0.43471 0.58496 0.0
C1320 C 0.45071 0.42552 0.59577 0.0
C1321 C 0.44659 0.45376 0.5964 0.0
C1322 C 0.43268 0.40685 0.59717 0.0
C1323 C 0.41032 0.41618 0.59919 0.0
C1324 C 0.40643 0.44422 0.60029 0.0
H1325 H 0.27676 0.33513 0.59479 0.0
H1326 H 0.30707 0.36922 0.59747 0.0
C1327 C 0.42437 0.46283 0.59892 0.0
C1328 C 0.39062 0.39693 0.59943 0.0
H1329 H 0.34423 0.37586 0.58641 0.0
C1330 C 0.38755 0.38003 0.60736 0.0
C1331 C 0.37471 0.3956 0.59184 0.0
C1332 C 0.37749 0.41316 0.5831 0.0
C1333 C 0.36882 0.36182 0.60791 0.0
C1334 C 0.35311 0.36007 0.60022 0.0
C1335 C 0.35616 0.37725 0.59233 0.0
C1336 C 0.33415 0.33961 0.59988 0.0
C1337 C 0.36586 0.34498 0.6168 0.0
C1338 C 0.33917 0.31165 0.60047 0.0
C1339 C 0.32189 0.2922 0.59903 0.0
C1340 C 0.29921 0.30025 0.59681 0.0
C1341 C 0.29401 0.32826 0.59652 0.0
C1342 C 0.31134 0.34775 0.59801 0.0
H1343 H 0.37408 0.35499 0.62303 0.0
H1344 H 0.34735 0.34147 0.61842 0.0
H1345 H 0.37432 0.32488 0.61577 0.0
H1346 H 0.35668 0.30477 0.60166 0.0
H1347 H 0.32656 0.27081 0.59927 0.0
H1348 H 0.82736 0.76938 0.59867 0.0
H1349 H 0.85786 0.80301 0.60113 0.0
H1350 H 0.80886 0.86812 0.59711 0.0
H1351 H 0.77806 0.83449 0.59459 0.0
H1352 H 0.86854 0.84271 0.58634 0.0
H1353 H 0.84789 0.89087 0.62113 0.0
H1354 H 0.83761 0.8573 0.61786 0.0
H1355 H 0.82444 0.88711 0.61285 0.0
C1356 C 0.8229 0.79084 0.59848 0.0
C1357 C 0.80025 0.79925 0.59639 0.0
C1358 C 0.8404 0.81003 0.59989 0.0
C1359 C 0.83561 0.83802 0.59934 0.0
C1360 C 0.81285 0.84658 0.59768 0.0
H1361 H 0.91586 0.9857 0.59706 0.0
H1362 H 0.88644 0.95072 0.59929 0.0
C1363 C 0.79528 0.82735 0.59622 0.0
C1364 C 0.85485 0.85797 0.59953 0.0
H1365 H 0.87796 0.91095 0.61213 0.0
C1366 C 0.87074 0.85753 0.59201 0.0
C1367 C 0.8575 0.87733 0.60689 0.0
C1368 C 0.84109 0.87823 0.6152 0.0
C1369 C 0.88894 0.87637 0.59153 0.0
C1370 C 0.89178 0.89571 0.59894 0.0
C1371 C 0.87592 0.896 0.6065 0.0
C1372 C 0.91024 0.91678 0.59863 0.0
C1373 C 0.90437 0.87603 0.58289 0.0
C1374 C 0.93362 0.90946 0.59786 0.0
C1375 C 0.95056 0.92948 0.59647 0.0
C1376 C 0.94444 0.95721 0.59598 0.0
C1377 C 0.9212 0.96453 0.59735 0.0
C1378 C 0.90431 0.94454 0.59865 0.0
H1379 H 0.89628 0.865 0.57684 0.0
H1380 H 0.90861 0.89708 0.58055 0.0
H1381 H 0.92071 0.86541 0.58466 0.0
H1382 H 0.9387 0.88821 0.59808 0.0
H1383 H 0.96831 0.92318 0.59552 0.0
H1384 H 0.41722 0.76908 0.68395 0.0
H1385 H 0.38646 0.80229 0.68148 0.0
H1386 H 0.43462 0.86805 0.68606 0.0
H1387 H 0.4657 0.83484 0.68861 0.0
H1388 H 0.37499 0.84164 0.69642 0.0
H1389 H 0.396 0.89049 0.66183 0.0
H1390 H 0.4064 0.85695 0.66503 0.0
H1391 H 0.41929 0.88679 0.6702 0.0
C1392 C 0.42146 0.7906 0.68427 0.0
C1393 C 0.44395 0.79931 0.68653 0.0
C1394 C 0.4038 0.80954 0.68285 0.0
C1395 C 0.40827 0.83759 0.68355 0.0
C1396 C 0.43089 0.84647 0.68537 0.0
H1397 H 0.32715 0.98423 0.68586 0.0
H1398 H 0.35668 0.94944 0.68361 0.0
C1399 C 0.44861 0.82748 0.68685 0.0
C1400 C 0.38883 0.85723 0.68333 0.0
H1401 H 0.36549 0.90996 0.67074 0.0
C1402 C 0.37278 0.85648 0.69078 0.0
C1403 C 0.38615 0.8766 0.67599 0.0
C1404 C 0.40274 0.8778 0.66775 0.0
C1405 C 0.35438 0.87506 0.69123 0.0
C1406 C 0.35153 0.89443 0.68386 0.0
C1407 C 0.36754 0.89499 0.67635 0.0
C1408 C 0.33297 0.91537 0.68417 0.0
C1409 C 0.33878 0.87442 0.69982 0.0
C1410 C 0.30961 0.90791 0.68489 0.0
C1411 C 0.29259 0.92784 0.68629 0.0
C1412 C 0.29864 0.95559 0.68685 0.0
C1413 C 0.32186 0.96304 0.68552 0.0
C1414 C 0.33882 0.94315 0.68421 0.0
H1415 H 0.34681 0.86338 0.70587 0.0
H1416 H 0.33437 0.89539 0.70221 0.0
H1417 H 0.32255 0.86367 0.69796 0.0
H1418 H 0.30459 0.88664 0.68461 0.0
H1419 H 0.27485 0.92144 0.68721 0.0
H1420 H 0.82044 0.48111 0.68003 0.0
H1421 H 0.85116 0.44765 0.6777 0.0
H1422 H 0.80706 0.38431 0.68873 0.0
H1423 H 0.77609 0.41775 0.69109 0.0
H1424 H 0.8508 0.39025 0.69806 0.0
H1425 H 0.86046 0.38316 0.65886 0.0
H1426 H 0.85929 0.41726 0.66357 0.0
H1427 H 0.83445 0.39551 0.66449 0.0
C1428 C 0.81706 0.45994 0.68177 0.0
C1429 C 0.79582 0.45208 0.68576 0.0
C1430 C 0.83464 0.44082 0.68039 0.0
C1431 C 0.83136 0.41347 0.68299 0.0
C1432 C 0.80988 0.40531 0.68663 0.0
H1433 H 0.92276 0.27402 0.68007 0.0
H1434 H 0.89141 0.30675 0.67777 0.0
C1435 C 0.79218 0.42441 0.68794 0.0
C1436 C 0.85107 0.39416 0.68283 0.0
H1437 H 0.89021 0.36312 0.6682 0.0
C1438 C 0.85934 0.38421 0.69153 0.0
C1439 C 0.86219 0.38636 0.67429 0.0
C1440 C 0.85359 0.3959 0.66475 0.0
C1441 C 0.87865 0.36698 0.69194 0.0
C1442 C 0.89005 0.35961 0.68344 0.0
C1443 C 0.88158 0.36913 0.67471 0.0
C1444 C 0.91022 0.34105 0.68356 0.0
C1445 C 0.88666 0.35655 0.70147 0.0
C1446 C 0.93146 0.34976 0.68728 0.0
C1447 C 0.94953 0.33114 0.68855 0.0
C1448 C 0.94653 0.30347 0.68619 0.0
C1449 C 0.92561 0.29518 0.682 0.0
C1450 C 0.90767 0.31384 0.68066 0.0
H1451 H 0.87395 0.36077 0.7072 0.0
H1452 H 0.88982 0.33421 0.70115 0.0
H1453 H 0.90318 0.36662 0.70339 0.0
H1454 H 0.93376 0.37076 0.68952 0.0
H1455 H 0.96538 0.33814 0.69182 0.0
H1456 H 0.53511 0.58232 0.4475 0.0
H1457 H 0.56613 0.61513 0.44487 0.0
H1458 H 0.59299 0.5646 0.42226 0.0
H1459 H 0.56297 0.5307 0.42546 0.0
H1460 H 0.62634 0.57808 0.43211 0.0
H1461 H 0.57838 0.67372 0.42694 0.0
H1462 H 0.57023 0.65934 0.43812 0.0
H1463 H 0.56397 0.64114 0.42724 0.0
C1464 C 0.54731 0.57859 0.44181 0.0
C1465 C 0.54654 0.55411 0.43663 0.0
C1466 C 0.56504 0.59748 0.44026 0.0
C1467 C 0.58185 0.59283 0.43322 0.0
C1468 C 0.58035 0.56884 0.42774 0.0
H1469 H 0.68164 0.72588 0.4257 0.0
H1470 H 0.65126 0.69239 0.4225 0.0
C1471 C 0.56308 0.54953 0.42951 0.0
C1472 C 0.60212 0.61151 0.43222 0.0
H1473 H 0.61785 0.67869 0.43235 0.0
C1474 C 0.62437 0.60009 0.43198 0.0
C1475 C 0.59989 0.6403 0.43182 0.0
C1476 C 0.57679 0.65425 0.43093 0.0
C1477 C 0.64427 0.61647 0.43173 0.0
C1478 C 0.64205 0.64524 0.43227 0.0
C1479 C 0.6198 0.65668 0.43211 0.0
C1480 C 0.66234 0.66386 0.43334 0.0
C1481 C 0.66736 0.60255 0.43073 0.0
C1482 C 0.67918 0.65894 0.44033 0.0
C1483 C 0.69708 0.6776 0.4419 0.0
C1484 C 0.69802 0.70212 0.43677 0.0
C1485 C 0.6814 0.70702 0.42971 0.0
C1486 C 0.66393 0.68794 0.42793 0.0
H1487 H 0.66573 0.58319 0.42666 0.0
H1488 H 0.68015 0.61576 0.42709 0.0
H1489 H 0.674 0.59724 0.43789 0.0
H1490 H 0.67803 0.64121 0.44489 0.0
H1491 H 0.70934 0.6736 0.44754 0.0
H1492 H 0.03521 0.0834 0.44741 0.0
H1493 H 0.06632 0.11605 0.44478 0.0
H1494 H 0.09344 0.06499 0.42237 0.0
H1495 H 0.0633 0.03122 0.42558 0.0
H1496 H 0.12673 0.07894 0.43218 0.0
H1497 H 0.07849 0.17419 0.42669 0.0
H1498 H 0.07025 0.16009 0.4379 0.0
H1499 H 0.06417 0.14157 0.42707 0.0
C1500 C 0.0475 0.07949 0.44177 0.0
C1501 C 0.04674 0.05492 0.43664 0.0
C1502 C 0.06528 0.0983 0.44021 0.0
C1503 C 0.08216 0.09349 0.43322 0.0
C1504 C 0.08073 0.06936 0.42781 0.0
H1505 H 0.1812 0.22734 0.42587 0.0
H1506 H 0.15119 0.19348 0.42253 0.0
C1507 C 0.06339 0.05013 0.42958 0.0
C1508 C 0.10238 0.11225 0.43218 0.0
H1509 H 0.11783 0.17951 0.43224 0.0
C1510 C 0.12468 0.10094 0.43201 0.0
C1511 C 0.10005 0.14101 0.43172 0.0
C1512 C 0.07691 0.15482 0.43074 0.0
C1513 C 0.14452 0.11744 0.43177 0.0
C1514 C 0.14218 0.14621 0.43226 0.0
C1515 C 0.11988 0.15751 0.43204 0.0
C1516 C 0.16237 0.16497 0.43337 0.0
C1517 C 0.16768 0.10363 0.43083 0.0
C1518 C 0.17918 0.16018 0.44039 0.0
C1519 C 0.1969 0.17904 0.44202 0.0
C1520 C 0.19766 0.20365 0.43693 0.0
C1521 C 0.1811 0.20841 0.42984 0.0
C1522 C 0.16384 0.18912 0.42799 0.0
H1523 H 0.16616 0.08426 0.42676 0.0
H1524 H 0.18047 0.11689 0.42721 0.0
H1525 H 0.17423 0.09836 0.43801 0.0
H1526 H 0.17812 0.14241 0.44492 0.0
H1527 H 0.20912 0.17516 0.44768 0.0
H1528 H 0.72111 0.08296 0.34452 0.0
H1529 H 0.69164 0.11792 0.34734 0.0
H1530 H 0.64021 0.05502 0.35069 0.0
H1531 H 0.66949 0.02016 0.34815 0.0
H1532 H 0.65513 0.12681 0.33618 0.0
H1533 H 0.62329 0.10425 0.37237 0.0
H1534 H 0.64981 0.09007 0.36781 0.0
H1535 H 0.62251 0.07466 0.36486 0.0
C1536 C 0.70363 0.07659 0.34609 0.0
C1537 C 0.69768 0.04876 0.3461 0.0
C1538 C 0.68679 0.09659 0.34768 0.0
C1539 C 0.66371 0.08915 0.34935 0.0
C1540 C 0.65793 0.06134 0.34966 0.0
H1541 H 0.53192 0.17003 0.34322 0.0
H1542 H 0.56319 0.13707 0.34579 0.0
C1543 C 0.67473 0.04139 0.34813 0.0
C1544 C 0.64528 0.11025 0.34976 0.0
H1545 H 0.59852 0.13182 0.36257 0.0
C1546 C 0.64298 0.12812 0.34202 0.0
C1547 C 0.62927 0.11191 0.35735 0.0
C1548 C 0.63147 0.09437 0.36611 0.0
C1549 C 0.62483 0.14701 0.34154 0.0
C1550 C 0.60858 0.14821 0.34902 0.0
C1551 C 0.61095 0.13067 0.35682 0.0
C1552 C 0.58908 0.16773 0.34874 0.0
C1553 C 0.6228 0.1652 0.33293 0.0
C1554 C 0.59318 0.19574 0.34985 0.0
C1555 C 0.57542 0.21455 0.34843 0.0
C1556 C 0.55317 0.20571 0.34583 0.0
C1557 C 0.54883 0.17751 0.34521 0.0
C1558 C 0.56666 0.15866 0.34667 0.0
H1559 H 0.6346 0.15884 0.32712 0.0
H1560 H 0.60483 0.16509 0.3302 0.0
H1561 H 0.62712 0.18649 0.33497 0.0
H1562 H 0.61034 0.2031 0.35151 0.0
H1563 H 0.57937 0.2361 0.34901 0.0
H1564 H 0.18498 0.53064 0.3576 0.0
H1565 H 0.15464 0.5646 0.36023 0.0
H1566 H 0.18114 0.61235 0.33689 0.0
H1567 H 0.21251 0.57961 0.3348 0.0
H1568 H 0.16603 0.64522 0.34903 0.0
H1569 H 0.09819 0.56651 0.34504 0.0
H1570 H 0.11606 0.56011 0.35517 0.0
H1571 H 0.12826 0.55886 0.34339 0.0
C1572 C 0.18456 0.54875 0.35319 0.0
C1573 C 0.20104 0.55253 0.346 0.0
C1574 C 0.16699 0.56795 0.35459 0.0
C1575 C 0.16491 0.59061 0.34852 0.0
C1576 C 0.18212 0.59501 0.34164 0.0
H1577 H 0.03865 0.67477 0.33467 0.0
H1578 H 0.0704 0.64262 0.33683 0.0
C1579 C 0.20014 0.57631 0.34046 0.0
C1580 C 0.14459 0.60931 0.34907 0.0
H1581 H 0.08563 0.6108 0.34922 0.0
C1582 C 0.14845 0.63764 0.34904 0.0
C1583 C 0.12153 0.5996 0.34892 0.0
C1584 C 0.11574 0.56964 0.34803 0.0
C1585 C 0.13013 0.6564 0.34867 0.0
C1586 C 0.10707 0.6467 0.34891 0.0
C1587 C 0.10321 0.61838 0.34914 0.0
C1588 C 0.08672 0.66532 0.34824 0.0
C1589 C 0.1359 0.68628 0.34751 0.0
C1590 C 0.08462 0.68841 0.35414 0.0
C1591 C 0.06682 0.70726 0.35269 0.0
C1592 C 0.05014 0.70274 0.34562 0.0
C1593 C 0.05117 0.67865 0.34022 0.0
C1594 C 0.0694 0.66029 0.34145 0.0
H1595 H 0.15342 0.68918 0.34447 0.0
H1596 H 0.12332 0.6967 0.34281 0.0
H1597 H 0.13566 0.69635 0.35458 0.0
H1598 H 0.09707 0.69227 0.35971 0.0
H1599 H 0.06631 0.7256 0.35699 0.0
H1600 H 0.46326 0.06117 0.05052 0.0
H1601 H 0.46976 0.05264 0.03351 0.0
H1602 H 0.49599 0.9725 0.04 0.0
H1603 H 0.48942 0.98063 0.05686 0.0
H1604 H 0.51274 0.04077 0.02496 0.0
H1605 H 0.45064 0.95668 0.01849 0.0
H1606 H 0.449 0.97855 0.02881 0.0
H1607 H 0.46937 0.95089 0.02844 0.0
C1608 C 0.47 0.04155 0.0483 0.0
C1609 C 0.47577 0.0216 0.05508 0.0
C1610 C 0.47381 0.03675 0.03858 0.0
C1611 C 0.48315 0.0118 0.03545 0.0
C1612 C 0.48839 0.99169 0.0422 0.0
H1613 H 0.52809 0.94466 0.98069 0.0
H1614 H 0.5212 0.95253 0.99772 0.0
C1615 C 0.48472 0.99649 0.05187 0.0
C1616 C 0.48881 0.00719 0.02524 0.0
H1617 H 0.47871 0.96445 1.00645 0.0
C1618 C 0.50516 0.02422 0.02089 0.0
C1619 C 0.47914 0.98538 0.01996 0.0
C1620 C 0.46091 0.96695 0.02412 0.0
C1621 C 0.51235 0.01981 1.01146 0.0
C1622 C 0.50263 0.99806 1.00616 0.0
C1623 C 0.4863 0.98099 1.01052 0.0
C1624 C 0.50821 0.99361 0.99593 0.0
C1625 C 0.53066 0.03819 1.00732 0.0
C1626 C 0.50325 0.01402 0.98926 0.0
C1627 C 0.50719 0.00962 0.97959 0.0
C1628 C 0.51607 0.98458 0.97628 0.0
C1629 C 0.52141 0.96423 0.98298 0.0
C1630 C 0.51737 0.96866 0.99271 0.0
H1631 H 0.5411 0.04813 1.01298 0.0
H1632 H 0.54241 0.02666 1.00255 0.0
H1633 H 0.52226 0.05453 1.00311 0.0
H1634 H 0.49576 0.03322 0.99152 0.0
H1635 H 0.50279 0.0258 0.97467 0.0
H1636 H 0.78142 0.19538 0.05106 0.0
H1637 H 0.7748 0.20274 0.03399 0.0
H1638 H 0.75132 0.28454 0.03982 0.0
H1639 H 0.75809 0.2776 0.05671 0.0
H1640 H 0.73253 0.21535 0.02535 0.0
H1641 H 0.79619 0.29705 0.01808 0.0
H1642 H 0.79734 0.2762 0.02864 0.0
H1643 H 0.77772 0.30457 0.02797 0.0
C1644 C 0.77529 0.2151 0.04868 0.0
C1645 C 0.77035 0.23588 0.05529 0.0
C1646 C 0.77138 0.21924 0.03892 0.0
C1647 C 0.76278 0.24432 0.03559 0.0
C1648 C 0.75837 0.26521 0.04216 0.0
H1649 H 0.71686 0.31002 0.98089 0.0
H1650 H 0.72401 0.3023 0.9979 0.0
C1651 C 0.76215 0.26109 0.05186 0.0
C1652 C 0.75703 0.24837 0.02535 0.0
H1653 H 0.76727 0.2899 1.00628 0.0
C1654 C 0.74028 0.23149 0.02116 0.0
C1655 C 0.76695 0.26962 0.01989 0.0
C1656 C 0.78571 0.28775 0.02384 0.0
C1657 C 0.7329 0.23558 1.01173 0.0
C1658 C 0.74276 0.25689 1.00629 0.0
C1659 C 0.75954 0.27374 1.01047 0.0
C1660 C 0.73682 0.26113 0.99608 0.0
C1661 C 0.71422 0.2174 1.00776 0.0
C1662 C 0.74153 0.24059 0.98941 0.0
C1663 C 0.73749 0.24493 0.97974 0.0
C1664 C 0.72868 0.27001 0.97645 0.0
C1665 C 0.72347 0.29042 0.98316 0.0
C1666 C 0.72766 0.28607 0.99288 0.0
H1667 H 0.704 0.20759 1.01349 0.0
H1668 H 0.70234 0.22907 1.0031 0.0
H1669 H 0.72226 0.20097 1.00345 0.0
H1670 H 0.74898 0.22137 0.99166 0.0
H1671 H 0.74177 0.22872 0.97481 0.0
H1672 H 0.4665 0.19384 0.23109 0.0
H1673 H 0.47356 0.20173 0.24811 0.0
H1674 H 0.49546 0.28397 0.24202 0.0
H1675 H 0.48828 0.27648 0.22518 0.0
H1676 H 0.51606 0.21586 0.25648 0.0
H1677 H 0.45071 0.29555 0.26396 0.0
H1678 H 0.44966 0.27433 0.25347 0.0
H1679 H 0.46871 0.3033 0.25394 0.0
C1680 C 0.4724 0.21375 0.2334 0.0
C1681 C 0.47676 0.2345 0.22674 0.0
C1682 C 0.47654 0.21819 0.24313 0.0
C1683 C 0.48481 0.24356 0.24637 0.0
C1684 C 0.48868 0.26441 0.23975 0.0
H1685 H 0.52976 0.31154 0.30095 0.0
H1686 H 0.5226 0.30347 0.28395 0.0
C1687 C 0.48466 0.25999 0.23008 0.0
C1688 C 0.49075 0.24798 0.25657 0.0
H1689 H 0.47992 0.28932 0.27566 0.0
C1690 C 0.50802 0.23176 0.2607 0.0
C1691 C 0.48045 0.26894 0.26206 0.0
C1692 C 0.4612 0.28638 0.25817 0.0
C1693 C 0.51552 0.23623 0.27008 0.0
C1694 C 0.50523 0.2572 0.27557 0.0
C1695 C 0.48796 0.27341 0.27145 0.0
C1696 C 0.51123 0.2617 0.28576 0.0
C1697 C 0.53475 0.21879 0.27398 0.0
C1698 C 0.50735 0.24095 0.29241 0.0
C1699 C 0.51142 0.24548 0.30208 0.0
C1700 C 0.51941 0.27097 0.30537 0.0
C1701 C 0.5238 0.29163 0.29867 0.0
C1702 C 0.51959 0.28708 0.28896 0.0
H1703 H 0.54519 0.2095 0.26819 0.0
H1704 H 0.54635 0.23087 0.27865 0.0
H1705 H 0.52724 0.20196 0.27825 0.0
H1706 H 0.50051 0.22139 0.29017 0.0
H1707 H 0.50778 0.22906 0.307 0.0
H1708 H 0.75689 0.98263 0.22514 0.0
H1709 H 0.75003 0.97516 0.242 0.0
H1710 H 0.77673 0.05533 0.24828 0.0
H1711 H 0.78336 0.06327 0.23125 0.0
H1712 H 0.77867 0.97497 0.25754 0.0
H1713 H 0.71308 0.05707 0.2608 0.0
H1714 H 0.7234 0.04502 0.24945 0.0
H1715 H 0.74066 0.06804 0.25642 0.0
C1716 C 0.76147 0.99874 0.23007 0.0
C1717 C 0.77052 0.02371 0.22679 0.0
C1718 C 0.75753 0.99436 0.23975 0.0
C1719 C 0.76241 0.01483 0.24642 0.0
C1720 C 0.77234 0.03943 0.24325 0.0
H1721 H 0.74396 0.02431 0.30742 0.0
H1722 H 0.75153 0.03249 0.29064 0.0
C1723 C 0.77635 0.04384 0.23351 0.0
C1724 C 0.75666 0.01024 0.25663 0.0
H1725 H 0.72293 0.03348 0.27487 0.0
C1726 C 0.76647 0.98777 0.26133 0.0
C1727 C 0.74061 0.0268 0.26157 0.0
C1728 C 0.72863 0.05045 0.2568 0.0
C1729 C 0.761 0.98168 0.27084 0.0
C1730 C 0.74491 0.9982 0.27576 0.0
C1731 C 0.73515 0.02072 0.27108 0.0
C1732 C 0.73884 0.99325 0.28592 0.0
C1733 C 0.7729 0.95797 0.27559 0.0
C1734 C 0.72853 0.96867 0.28888 0.0
C1735 C 0.72408 0.96387 0.29855 0.0
C1736 C 0.72987 0.98358 0.30544 0.0
C1737 C 0.73939 0.00853 0.30236 0.0
C1738 C 0.74374 0.01331 0.29274 0.0
H1739 H 0.78852 0.95141 0.27163 0.0
H1740 H 0.77801 0.96331 0.28297 0.0
H1741 H 0.76087 0.94038 0.27592 0.0
H1742 H 0.72414 0.95308 0.28372 0.0
H1743 H 0.71671 0.94447 0.30065 0.0
H1744 H 0.21278 0.81477 0.98187 0.0
H1745 H 0.21969 0.8074 0.99891 0.0
H1746 H 0.25016 0.72912 0.99271 0.0
H1747 H 0.24306 0.73602 0.97583 0.0
H1748 H 0.22095 0.72705 1.00807 0.0
H1749 H 0.28275 0.8131 1.0118 0.0
H1750 H 0.2549 0.82235 1.00725 0.0
H1751 H 0.2734 0.80049 1.00038 0.0
C1752 C 0.22075 0.7959 0.98415 0.0
C1753 C 0.22748 0.77611 0.97744 0.0
C1754 C 0.2249 0.79181 0.99389 0.0
C1755 C 0.23589 0.76791 0.99709 0.0
C1756 C 0.24183 0.74779 0.99043 0.0
H1757 H 0.2826 0.6997 0.05138 0.0
H1758 H 0.27543 0.70836 0.03445 0.0
C1759 C 0.23774 0.75184 0.98075 0.0
C1760 C 0.24147 0.76361 1.00732 0.0
H1761 H 0.2734 0.78883 0.0258 0.0
C1762 C 0.23243 0.74056 1.01194 0.0
C1763 C 0.25656 0.78114 1.01237 0.0
C1764 C 0.26766 0.80554 1.0077 0.0
C1765 C 0.23777 0.73477 0.02148 0.0
C1766 C 0.25294 0.75223 0.02652 0.0
C1767 C 0.26189 0.77536 0.02192 0.0
C1768 C 0.25891 0.74748 0.03669 0.0
C1769 C 0.2267 0.71034 0.02615 0.0
C1770 C 0.25291 0.76702 0.04355 0.0
C1771 C 0.25711 0.76222 0.05318 0.0
C1772 C 0.26758 0.73779 0.05623 0.0
C1773 C 0.27448 0.71869 0.04931 0.0
C1774 C 0.27019 0.72351 0.03963 0.0
H1775 H 0.21149 0.70293 0.02209 0.0
H1776 H 0.23942 0.69346 0.02652 0.0
H1777 H 0.22116 0.71528 0.03351 0.0
H1778 H 0.24435 0.78574 0.04146 0.0
H1779 H 0.25166 0.77752 0.05827 0.0
H1780 H 0.4666 0.69449 0.73152 0.0
H1781 H 0.47398 0.70269 0.74849 0.0
H1782 H 0.49834 0.78371 0.74203 0.0
H1783 H 0.49087 0.77592 0.72522 0.0
H1784 H 0.51707 0.71553 0.75677 0.0
H1785 H 0.45373 0.79779 0.76392 0.0
H1786 H 0.45208 0.77616 0.75354 0.0
H1787 H 0.47196 0.80433 0.75386 0.0
C1788 C 0.47313 0.71421 0.73374 0.0
C1789 C 0.47808 0.73453 0.72698 0.0
C1790 C 0.47745 0.71883 0.74344 0.0
C1791 C 0.4865 0.74395 0.74656 0.0
C1792 C 0.49098 0.76437 0.73984 0.0
H1793 H 0.53127 0.81052 0.80151 0.0
H1794 H 0.52476 0.80302 0.78443 0.0
C1795 C 0.48678 0.75977 0.73019 0.0
C1796 C 0.49253 0.74848 0.75674 0.0
H1797 H 0.48232 0.79036 0.77576 0.0
C1798 C 0.50934 0.73176 0.76094 0.0
C1799 C 0.48267 0.76988 0.76217 0.0
C1800 C 0.46396 0.78793 0.75818 0.0
C1801 C 0.51677 0.73606 0.77035 0.0
C1802 C 0.50684 0.75738 0.77579 0.0
C1803 C 0.49008 0.77417 0.77158 0.0
C1804 C 0.51252 0.76153 0.78602 0.0
C1805 C 0.53551 0.71802 0.77432 0.0
C1806 C 0.50793 0.74074 0.79259 0.0
C1807 C 0.51164 0.74494 0.8023 0.0
C1808 C 0.51994 0.77014 0.80573 0.0
C1809 C 0.52505 0.79082 0.79912 0.0
C1810 C 0.52121 0.7866 0.78936 0.0
H1811 H 0.54599 0.70861 0.76858 0.0
H1812 H 0.54715 0.72966 0.77911 0.0
H1813 H 0.52751 0.70127 0.77848 0.0
H1814 H 0.50081 0.72142 0.79025 0.0
H1815 H 0.50744 0.72851 0.80714 0.0
H1816 H 0.25023 0.98094 0.72524 0.0
H1817 H 0.24317 0.97353 0.7421 0.0
H1818 H 0.27327 0.05188 0.74855 0.0
H1819 H 0.28019 0.05974 0.73155 0.0
H1820 H 0.2726 0.97169 0.7576 0.0
H1821 H 0.20963 0.05649 0.76121 0.0
H1822 H 0.21917 0.04394 0.7498 0.0
H1823 H 0.23737 0.06625 0.75664 0.0
C1824 C 0.25549 0.99666 0.73021 0.0
C1825 C 0.26564 0.02109 0.72699 0.0
C1826 C 0.25143 0.99231 0.73988 0.0
C1827 C 0.25727 0.01231 0.7466 0.0
C1828 C 0.26817 0.03636 0.74348 0.0
H1829 H 0.24185 0.0239 0.80755 0.0
H1830 H 0.24861 0.03116 0.79067 0.0
C1831 C 0.27232 0.04073 0.73376 0.0
C1832 C 0.2516 0.00783 0.75681 0.0
H1833 H 0.21938 0.03266 0.77525 0.0
C1834 C 0.26093 0.98499 0.76146 0.0
C1835 C 0.23625 0.02508 0.76183 0.0
C1836 C 0.22482 0.0492 0.75712 0.0
C1837 C 0.25573 0.97926 0.77102 0.0
C1838 C 0.24039 0.99652 0.77604 0.0
C1839 C 0.23104 0.01934 0.77139 0.0
C1840 C 0.23481 0.99213 0.78627 0.0
C1841 C 0.26721 0.95518 0.77573 0.0
C1842 C 0.22415 0.968 0.78945 0.0
C1843 C 0.2202 0.9637 0.79919 0.0
C1844 C 0.2268 0.98351 0.80592 0.0
C1845 C 0.23665 0.00805 0.80262 0.0
C1846 C 0.24054 0.01231 0.79294 0.0
H1847 H 0.28243 0.94795 0.77164 0.0
H1848 H 0.27284 0.96044 0.78305 0.0
H1849 H 0.25472 0.93807 0.7762 0.0
H1850 H 0.21912 0.95235 0.78442 0.0
H1851 H 0.21255 0.94462 0.80146 0.0
H1852 H 0.53605 0.44756 0.48169 0.0
H1853 H 0.52942 0.45517 0.49874 0.0
H1854 H 0.49934 0.53364 0.49259 0.0
H1855 H 0.50614 0.52647 0.47569 0.0
H1856 H 0.5283 0.5351 0.50825 0.0
H1857 H 0.46558 0.44977 0.51111 0.0
H1858 H 0.49344 0.44026 0.50661 0.0
H1859 H 0.4754 0.46278 0.49982 0.0
C1860 C 0.52831 0.46658 0.48399 0.0
C1861 C 0.52149 0.48628 0.47728 0.0
C1862 C 0.52431 0.4708 0.49373 0.0
C1863 C 0.51341 0.49476 0.49694 0.0
C1864 C 0.50759 0.51492 0.4903 0.0
H1865 H 0.46698 0.55919 0.55217 0.0
H1866 H 0.47425 0.55266 0.5351 0.0
C1867 C 0.51151 0.51072 0.48061 0.0
C1868 C 0.50751 0.49882 0.50716 0.0
H1869 H 0.4751 0.47289 0.52534 0.0
C1870 C 0.51664 0.52152 0.51199 0.0
C1871 C 0.49215 0.48123 0.51203 0.0
C1872 C 0.48087 0.45727 0.50713 0.0
C1873 C 0.51125 0.52677 0.52157 0.0
C1874 C 0.49593 0.50914 0.52644 0.0
C1875 C 0.48675 0.48648 0.52161 0.0
C1876 C 0.49017 0.51294 0.53669 0.0
C1877 C 0.5225 0.55073 0.52648 0.0
C1878 C 0.49584 0.49244 0.54322 0.0
C1879 C 0.49156 0.49601 0.55292 0.0
C1880 C 0.48136 0.52018 0.55637 0.0
C1881 C 0.47488 0.54036 0.54978 0.0
C1882 C 0.47924 0.53676 0.54003 0.0
H1883 H 0.53771 0.55835 0.52248 0.0
H1884 H 0.50987 0.56767 0.52704 0.0
H1885 H 0.52807 0.54517 0.53377 0.0
H1886 H 0.50412 0.47382 0.54084 0.0
H1887 H 0.49668 0.47989 0.55773 0.0
H1888 H 0.7781 0.69549 0.5512 0.0
H1889 H 0.77067 0.70391 0.53425 0.0
H1890 H 0.74599 0.78465 0.54096 0.0
H1891 H 0.75347 0.77662 0.55775 0.0
H1892 H 0.72725 0.71681 0.52606 0.0
H1893 H 0.79069 0.79912 0.51905 0.0
H1894 H 0.79246 0.77722 0.52934 0.0
H1895 H 0.77258 0.80536 0.52917 0.0
C1896 C 0.77149 0.7152 0.54904 0.0
C1897 C 0.76644 0.73536 0.55587 0.0
C1898 C 0.76713 0.71994 0.53936 0.0
C1899 C 0.75797 0.74504 0.5363 0.0
C1900 C 0.75342 0.76533 0.54309 0.0
H1901 H 0.71366 0.81243 0.48148 0.0
H1902 H 0.72012 0.80476 0.49855 0.0
C1903 C 0.75763 0.76059 0.55272 0.0
C1904 C 0.75189 0.74968 0.52614 0.0
H1905 H 0.76213 0.7917 0.5072 0.0
C1906 C 0.735 0.73305 0.52192 0.0
C1907 C 0.76177 0.77111 0.52075 0.0
C1908 C 0.78053 0.7891 0.52477 0.0
C1909 C 0.72753 0.73747 0.51253 0.0
C1910 C 0.7375 0.7588 0.50712 0.0
C1911 C 0.75433 0.77549 0.51135 0.0
C1912 C 0.73178 0.76305 0.49689 0.0
C1913 C 0.70867 0.71955 0.50855 0.0
C1914 C 0.73604 0.7422 0.49028 0.0
C1915 C 0.73234 0.74649 0.48059 0.0
C1916 C 0.72439 0.77185 0.4772 0.0
C1917 C 0.71959 0.7926 0.48384 0.0
C1918 C 0.72341 0.78828 0.49359 0.0
H1919 H 0.69811 0.7103 0.5143 0.0
H1920 H 0.69712 0.73123 0.50376 0.0
H1921 H 0.71656 0.70267 0.50441 0.0
H1922 H 0.74293 0.72276 0.49259 0.0
H1923 H 0.73629 0.73001 0.47572 0.0
H1924 H 0.7127 0.44477 0.80101 0.0
H1925 H 0.71957 0.45208 0.78394 0.0
H1926 H 0.74931 0.53081 0.79006 0.0
H1927 H 0.74269 0.5238 0.80695 0.0
H1928 H 0.70521 0.4953 0.7714 0.0
H1929 H 0.80045 0.49193 0.77496 0.0
H1930 H 0.78129 0.4798 0.78414 0.0
H1931 H 0.78663 0.51575 0.78281 0.0
C1932 C 0.7205 0.46373 0.79871 0.0
C1933 C 0.72731 0.48354 0.8054 0.0
C1934 C 0.72449 0.46785 0.78895 0.0
C1935 C 0.73547 0.49174 0.78574 0.0
C1936 C 0.74136 0.51194 0.79237 0.0
H1937 H 0.77933 0.55748 0.73071 0.0
H1938 H 0.77204 0.54985 0.74773 0.0
C1939 C 0.7374 0.50789 0.80206 0.0
C1940 C 0.74096 0.49582 0.77548 0.0
H1941 H 0.78571 0.50684 0.76009 0.0
C1942 C 0.72281 0.49762 0.76892 0.0
C1943 C 0.76394 0.49906 0.77224 0.0
C1944 C 0.78424 0.49631 0.77888 0.0
C1945 C 0.72698 0.50308 0.75925 0.0
C1946 C 0.74997 0.50633 0.756 0.0
C1947 C 0.76811 0.5045 0.76257 0.0
C1948 C 0.75549 0.51064 0.74576 0.0
C1949 C 0.70666 0.50594 0.75262 0.0
C1950 C 0.74932 0.49081 0.73903 0.0
C1951 C 0.75349 0.49505 0.72937 0.0
C1952 C 0.7641 0.51923 0.72614 0.0
C1953 C 0.77112 0.53868 0.73293 0.0
C1954 C 0.7669 0.53437 0.74265 0.0
H1955 H 0.6905 0.51049 0.75656 0.0
H1956 H 0.70966 0.52238 0.74734 0.0
H1957 H 0.70413 0.48648 0.74872 0.0
H1958 H 0.74105 0.47203 0.74126 0.0
H1959 H 0.74802 0.47942 0.72441 0.0
H1960 H 0.23778 0.22914 0.47591 0.0
H1961 H 0.24457 0.22043 0.49272 0.0
H1962 H 0.21881 0.30057 0.49964 0.0
H1963 H 0.21161 0.3094 0.48273 0.0
H1964 H 0.27401 0.24845 0.50437 0.0
H1965 H 0.18501 0.25283 0.51876 0.0
H1966 H 0.19091 0.24988 0.50621 0.0
H1967 H 0.19324 0.28243 0.51206 0.0
C1968 C 0.23321 0.24486 0.48099 0.0
C1969 C 0.22411 0.27003 0.47793 0.0
C1970 C 0.23719 0.23982 0.49063 0.0
C1971 C 0.23212 0.25973 0.49748 0.0
C1972 C 0.2225 0.28467 0.49451 0.0
H1973 H 0.25268 0.27383 0.55811 0.0
H1974 H 0.24529 0.28064 0.54125 0.0
C1975 C 0.21841 0.28973 0.48483 0.0
C1976 C 0.23811 0.25473 0.50764 0.0
H1977 H 0.21545 0.25116 0.53003 0.0
C1978 C 0.26117 0.2489 0.50998 0.0
C1979 C 0.2214 0.25528 0.51497 0.0
C1980 C 0.19621 0.26019 0.51289 0.0
C1981 C 0.26805 0.24421 0.51943 0.0
C1982 C 0.25135 0.24492 0.52676 0.0
C1983 C 0.22827 0.2506 0.52442 0.0
C1984 C 0.25747 0.2408 0.53695 0.0
C1985 C 0.29323 0.23928 0.52151 0.0
C1986 C 0.26711 0.21615 0.5402 0.0
C1987 C 0.27152 0.21216 0.54992 0.0
C1988 C 0.26616 0.23267 0.55658 0.0
C1989 C 0.25698 0.25749 0.55323 0.0
C1990 C 0.25266 0.26145 0.54356 0.0
H1991 H 0.30444 0.24593 0.51554 0.0
H1992 H 0.29864 0.25023 0.52806 0.0
H1993 H 0.29606 0.21713 0.52264 0.0
H1994 H 0.27063 0.19971 0.53526 0.0
H1995 H 0.2784 0.19274 0.55225 0.0
H1996 H 0.23997 0.52212 0.3074 0.0
H1997 H 0.24604 0.52867 0.29046 0.0
H1998 H 0.21819 0.44864 0.28484 0.0
H1999 H 0.21229 0.44164 0.30198 0.0
H2000 H 0.2602 0.45842 0.27566 0.0
H2001 H 0.20036 0.54454 0.26934 0.0
H2002 H 0.21984 0.55078 0.27901 0.0
H2003 H 0.19898 0.52369 0.27989 0.0
C2004 C 0.23481 0.50593 0.30259 0.0
C2005 C 0.22558 0.4813 0.3061 0.0
C2006 C 0.23819 0.50983 0.29286 0.0
C2007 C 0.23231 0.48934 0.28633 0.0
C2008 C 0.22273 0.46484 0.28975 0.0
H2009 H 0.24985 0.47646 0.22512 0.0
H2010 H 0.2427 0.46795 0.24192 0.0
C2011 C 0.21925 0.46091 0.29954 0.0
C2012 C 0.23751 0.49316 0.27605 0.0
H2013 H 0.22854 0.53623 0.2573 0.0
C2014 C 0.25309 0.47526 0.27161 0.0
C2015 C 0.2284 0.51528 0.27077 0.0
C2016 C 0.2108 0.53452 0.27496 0.0
C2017 C 0.2602 0.47924 0.26215 0.0
C2018 C 0.25128 0.50154 0.25692 0.0
C2019 C 0.23557 0.51931 0.26133 0.0
C2020 C 0.25725 0.50617 0.24675 0.0
C2021 C 0.27765 0.45992 0.2579 0.0
C2022 C 0.26779 0.53061 0.24381 0.0
C2023 C 0.27197 0.53561 0.23414 0.0
C2024 C 0.26537 0.51639 0.22721 0.0
C2025 C 0.25522 0.49174 0.23023 0.0
C2026 C 0.25119 0.48673 0.23987 0.0
H2027 H 0.28735 0.44871 0.26347 0.0
H2028 H 0.26856 0.44467 0.25342 0.0
H2029 H 0.29014 0.47104 0.25334 0.0
H2030 H 0.27252 0.54599 0.249 0.0
H2031 H 0.27965 0.55487 0.23207 0.0
H2032 H 0.00839 0.02795 0.47564 0.0
H2033 H 0.00154 0.03549 0.49252 0.0
H2034 H 0.02544 0.95406 0.49862 0.0
H2035 H 0.03266 0.94636 0.48162 0.0
H2036 H 0.97117 0.00704 0.50373 0.0
H2037 H 0.05987 0.99967 0.51837 0.0
H2038 H 0.05427 0.00388 0.50583 0.0
H2039 H 0.05108 0.97095 0.51129 0.0
C2040 C 0.01253 0.01167 0.48056 0.0
C2041 C 0.02109 0.98648 0.47724 0.0
C2042 C 0.00853 0.01604 0.49023 0.0
C2043 C 0.01303 0.99544 0.49688 0.0
C2044 C 0.02217 0.97046 0.49366 0.0
H2045 H 0.99181 0.98252 0.55768 0.0
H2046 H -0.00072 0.97476 0.54087 0.0
C2047 C 0.02628 0.96606 0.48393 0.0
C2048 C 0.00691 0.99988 0.50706 0.0
H2049 H 0.02933 1.00267 0.5295 0.0
C2050 C 0.98392 0.00616 0.50936 0.0
C2051 C 0.0235 0.99875 0.51442 0.0
C2052 C 0.04861 0.99319 0.51238 0.0
C2053 C 0.977 0.01092 0.51881 0.0
C2054 C 0.99359 0.00986 0.52617 0.0
C2055 C 0.01659 0.00353 0.52387 0.0
C2056 C 0.98748 0.01453 0.53634 0.0
C2057 C 0.95187 0.01638 0.52083 0.0
C2058 C 0.97805 0.03946 0.53946 0.0
C2059 C 0.97357 0.04399 0.54915 0.0
C2060 C 0.97867 0.02375 0.55592 0.0
C2061 C 0.98769 0.99866 0.55271 0.0
C2062 C 0.99206 0.99416 0.54307 0.0
H2063 H 0.94063 0.00954 0.51489 0.0
H2064 H 0.94627 0.00593 0.52744 0.0
H2065 H 0.94928 0.03865 0.5218 0.0
H2066 H 0.97473 0.05571 0.53444 0.0
H2067 H 0.96684 0.06361 0.55136 0.0
H2068 H 0.99165 0.27774 0.7251 0.0
H2069 H -0.00123 0.28464 0.74198 0.0
H2070 H 0.97239 0.20419 0.74793 0.0
H2071 H 0.96494 0.19707 0.73089 0.0
H2072 H 0.95722 0.24509 0.76087 0.0
H2073 H 0.05219 0.24893 0.75635 0.0
H2074 H 0.03683 0.27248 0.74891 0.0
H2075 H 0.03312 0.23635 0.74719 0.0
C2076 C 0.9872 0.26145 0.72996 0.0
C2077 C 0.97789 0.23668 0.72658 0.0
C2078 C 0.99145 0.26542 0.73964 0.0
C2079 C 0.98669 0.24471 0.74621 0.0
C2080 C 0.97645 0.22037 0.74297 0.0
H2081 H 0.00338 0.23018 0.80735 0.0
H2082 H 0.99605 0.22287 0.7905 0.0
C2083 C 0.97212 0.21636 0.73323 0.0
C2084 C 0.99259 0.24865 0.75643 0.0
H2085 H 0.03762 0.262 0.77148 0.0
C2086 C 0.97481 0.24859 0.7632 0.0
C2087 C 0.01556 0.25338 0.75948 0.0
C2088 C 0.03557 0.25256 0.75263 0.0
C2089 C 0.97929 0.25368 0.77287 0.0
C2090 C 0.00225 0.25846 0.77591 0.0
C2091 C 0.02003 0.25848 0.76915 0.0
C2092 C 0.00815 0.26266 0.78612 0.0
C2093 C 0.95928 0.2545 0.77972 0.0
C2094 C 0.01846 0.28706 0.78928 0.0
C2095 C 0.02291 0.29131 0.79899 0.0
C2096 C 0.0172 0.27116 0.80571 0.0
C2097 C 0.00779 0.24634 0.80243 0.0
C2098 C 0.00341 0.24213 0.79277 0.0
H2099 H 0.94265 0.25802 0.776 0.0
H2100 H 0.95808 0.23463 0.78347 0.0
H2101 H 0.96169 0.27079 0.78513 0.0
H2102 H 0.0225 0.3031 0.78425 0.0
H2103 H 0.03016 0.31063 0.80125 0.0
H2104 H 0.96336 0.69949 0.23214 0.0
H2105 H 0.97126 0.70798 0.24902 0.0
H2106 H 0.99475 0.78921 0.2423 0.0
H2107 H 0.98729 0.7808 0.2255 0.0
H2108 H 0.02539 0.76237 0.25351 0.0
H2109 H 0.93755 0.75327 0.26878 0.0
H2110 H 0.94622 0.72418 0.26188 0.0
H2111 H 0.94257 0.75672 0.25618 0.0
C2112 C 0.96978 0.71932 0.23428 0.0
C2113 C 0.97467 0.73942 0.22744 0.0
C2114 C 0.97428 0.72419 0.24395 0.0
C2115 C 0.98348 0.74935 0.24697 0.0
C2116 C 0.98771 0.76965 0.24017 0.0
H2117 H 0.03045 0.81548 0.3019 0.0
H2118 H 0.02218 0.80917 0.28491 0.0
C2119 C 0.98334 0.76479 0.23054 0.0
C2120 C 0.98994 0.75418 0.2571 0.0
H2121 H 0.96865 0.75539 0.27975 0.0
C2122 C 0.01294 0.761 0.25925 0.0
C2123 C 0.97374 0.75245 0.2646 0.0
C2124 C 0.94859 0.74651 0.26277 0.0
C2125 C 0.02026 0.7655 0.26866 0.0
C2126 C 0.00409 0.76354 0.27616 0.0
C2127 C 0.98107 0.75689 0.27401 0.0
C2128 C 0.01073 0.76728 0.28632 0.0
C2129 C 0.04537 0.77157 0.27052 0.0
C2130 C 0.00714 0.74592 0.29277 0.0
C2131 C 0.01176 0.74949 0.30243 0.0
C2132 C 0.02005 0.77461 0.30595 0.0
C2133 C 0.0243 0.79582 0.29944 0.0
C2134 C 0.01958 0.79221 0.28972 0.0
H2135 H 0.0564 0.76601 0.26436 0.0
H2136 H 0.04749 0.79375 0.27187 0.0
H2137 H 0.0516 0.76038 0.27688 0.0
H2138 H 0.0004 0.72649 0.29034 0.0
H2139 H 0.00833 0.73262 0.3072 0.0
H2140 H 0.03083 0.44273 0.98162 0.0
H2141 H 0.02307 0.4498 0.99864 0.0
H2142 H 0.99564 0.52965 0.99257 0.0
H2143 H 0.00308 0.52281 0.97571 0.0
H2144 H 0.03763 0.49124 1.01153 0.0
H2145 H 0.94264 0.49286 1.00694 0.0
H2146 H 0.96194 0.48056 0.99782 0.0
H2147 H 0.95769 0.51662 0.99947 0.0
C2148 C 0.02334 0.46188 0.98393 0.0
C2149 C 0.01739 0.48206 0.97725 0.0
C2150 C 0.01884 0.46586 0.99365 0.0
C2151 C 0.00823 0.49 0.99686 0.0
C2152 C 0.00325 0.51057 0.99025 0.0
H2153 H 0.9636 0.55662 0.05151 0.0
H2154 H 0.97118 0.54825 0.03457 0.0
C2155 C 0.00768 0.50664 0.98059 0.0
C2156 C 0.00222 0.49391 1.00707 0.0
H2157 H 0.95695 0.50649 0.02205 0.0
C2158 C 0.01998 0.49436 1.01384 0.0
C2159 C 0.97918 0.49815 1.01009 0.0
C2160 C 0.95922 0.49679 1.00322 0.0
C2161 C 0.0154 0.49953 0.0235 0.0
C2162 C 0.99235 0.50385 0.02652 0.0
C2163 C 0.97459 0.5033 0.01975 0.0
C2164 C 0.98637 0.50837 0.03671 0.0
C2165 C 0.03538 0.50102 0.03036 0.0
C2166 C 0.99158 0.48839 0.0435 0.0
C2167 C 0.98726 0.49309 0.05314 0.0
C2168 C 0.97741 0.51784 0.05625 0.0
C2169 C 0.97118 0.53736 0.04939 0.0
C2170 C 0.97559 0.53263 0.0397 0.0
H2171 H 0.05196 0.50483 0.02662 0.0
H2172 H 0.03271 0.51739 0.03571 0.0
H2173 H 0.0369 0.48128 0.03417 0.0
H2174 H -0.0007 0.46922 0.04136 0.0
H2175 H 0.99208 0.47742 0.05818 0.0
H2176 H 0.52545 0.11314 0.09091 0.0
H2177 H 0.56212 0.13576 0.09391 0.0
H2178 H 0.59367 0.05806 0.10001 0.0
H2179 H 0.5568 0.03494 0.09688 0.0
H2180 H 0.59275 0.13703 0.10967 0.0
H2181 H 0.63149 0.0889 0.07756 0.0
H2182 H 0.60088 0.08833 0.07983 0.0
H2183 H 0.61977 0.06589 0.08624 0.0
C2184 C 0.5401 0.10075 0.09296 0.0
C2185 C 0.53826 0.07213 0.09352 0.0
C2186 C 0.56104 0.1138 0.09472 0.0
C2187 C 0.58067 0.09859 0.09705 0.0
C2188 C 0.57874 0.07013 0.09808 0.0
H2189 H 0.72364 0.14984 0.0961 0.0
H2190 H 0.68804 0.12491 0.09912 0.0
C2191 C 0.55767 0.05697 0.09634 0.0
C2192 C 0.60328 0.11262 0.09769 0.0
H2193 H 0.65462 0.11955 0.08611 0.0
C2194 C 0.60641 0.13308 0.10458 0.0
C2195 C 0.62094 0.10758 0.09098 0.0
C2196 C 0.61817 0.08666 0.08318 0.0
C2197 C 0.6268 0.14862 0.10495 0.0
C2198 C 0.64427 0.14388 0.09813 0.0
C2199 C 0.64123 0.12314 0.09134 0.0
C2200 C 0.66587 0.16018 0.09774 0.0
C2201 C 0.62949 0.16978 0.11267 0.0
C2202 C 0.66536 0.18855 0.09618 0.0
C2203 C 0.68586 0.20302 0.09453 0.0
C2204 C 0.70708 0.1892 0.09424 0.0
C2205 C 0.70754 0.16104 0.09618 0.0
C2206 C 0.68719 0.14674 0.09792 0.0
H2207 H 0.61797 0.16551 0.1188 0.0
H2208 H 0.64758 0.17073 0.11524 0.0
H2209 H 0.62481 0.19011 0.10979 0.0
H2210 H 0.64907 0.19929 0.09581 0.0
H2211 H 0.68497 0.22465 0.093 0.0
H2212 H 0.55871 0.22713 0.18691 0.0
H2213 H 0.5958 0.20436 0.18393 0.0
H2214 H 0.56174 0.1261 0.18432 0.0
H2215 H 0.52494 0.14846 0.1872 0.0
H2216 H 0.61458 0.16694 0.19678 0.0
H2217 H 0.60449 0.11857 0.16142 0.0
H2218 H 0.5862 0.1461 0.16546 0.0
H2219 H 0.58088 0.11167 0.16931 0.0
C2220 C 0.55909 0.20514 0.18613 0.0
C2221 C 0.53892 0.18961 0.18735 0.0
C2222 C 0.58026 0.19216 0.18445 0.0
C2223 C 0.58148 0.16354 0.18379 0.0
C2224 C 0.56118 0.14819 0.1846 0.0
H2225 H 0.68557 0.03726 0.18848 0.0
H2226 H 0.64984 0.06322 0.18579 0.0
C2227 C 0.54016 0.16105 0.18634 0.0
C2228 C 0.60406 0.14932 0.18345 0.0
H2229 H 0.63477 0.10099 0.1713 0.0
C2230 C 0.61917 0.15285 0.19114 0.0
C2231 C 0.60983 0.13062 0.17615 0.0
C2232 C 0.59459 0.12666 0.16757 0.0
C2233 C 0.63956 0.1376 0.19188 0.0
C2234 C 0.64527 0.11872 0.18462 0.0
C2235 C 0.63032 0.11541 0.17686 0.0
C2236 C 0.66685 0.1025 0.18504 0.0
C2237 C 0.65442 0.1412 0.20061 0.0
C2238 C 0.68821 0.11586 0.18512 0.0
C2239 C 0.70845 0.10123 0.18672 0.0
C2240 C 0.70783 0.0728 0.18815 0.0
C2241 C 0.68658 0.05913 0.18743 0.0
C2242 C 0.66619 0.07392 0.1859 0.0
H2243 H 0.64478 0.15093 0.20653 0.0
H2244 H 0.66125 0.12128 0.2031 0.0
H2245 H 0.66929 0.15454 0.19884 0.0
H2246 H 0.68916 0.13781 0.18425 0.0
H2247 H 0.72458 0.11235 0.18707 0.0
H2248 H 0.43408 0.9736 0.938 0.0
H2249 H 0.39806 0.94821 0.93527 0.0
H2250 H 0.43705 0.87428 0.93098 0.0
H2251 H 0.47281 0.89919 0.93389 0.0
H2252 H 0.38048 0.91317 0.92047 0.0
H2253 H 0.39656 0.857 0.9541 0.0
H2254 H 0.41252 0.88719 0.95085 0.0
H2255 H 0.41959 0.85476 0.94561 0.0
C2256 C 0.43494 0.95206 0.93629 0.0
C2257 C 0.45619 0.93828 0.93631 0.0
C2258 C 0.41439 0.93757 0.93475 0.0
C2259 C 0.41491 0.90924 0.93315 0.0
C2260 C 0.43624 0.89599 0.93243 0.0
H2261 H 0.30634 0.78511 0.93569 0.0
H2262 H 0.34299 0.80807 0.93206 0.0
C2263 C 0.45665 0.91029 0.93407 0.0
C2264 C 0.39329 0.89304 0.93299 0.0
H2265 H 0.36452 0.84299 0.94501 0.0
C2266 C 0.37697 0.8978 0.92582 0.0
C2267 C 0.38878 0.87295 0.93998 0.0
C2268 C 0.40516 0.86777 0.94813 0.0
C2269 C 0.35625 0.88289 0.92544 0.0
C2270 C 0.35168 0.863 0.93248 0.0
C2271 C 0.36817 0.85801 0.93956 0.0
C2272 C 0.3291 0.84894 0.93326 0.0
C2273 C 0.33946 0.88848 0.91749 0.0
C2274 C 0.30918 0.86428 0.93505 0.0
C2275 C 0.2884 0.8513 0.93716 0.0
C2276 C 0.28705 0.82262 0.93757 0.0
C2277 C 0.3068 0.80719 0.9354 0.0
C2278 C 0.32772 0.82028 0.93334 0.0
H2279 H 0.34824 0.89753 0.91123 0.0
H2280 H 0.33046 0.86952 0.91524 0.0
H2281 H 0.3263 0.90327 0.92 0.0
H2282 H 0.30991 0.88637 0.93524 0.0
H2283 H 0.27351 0.86384 0.93876 0.0
H2284 H 0.47398 0.85693 0.84626 0.0
H2285 H 0.43858 0.88216 0.84934 0.0
H2286 H 0.39927 0.80769 0.84691 0.0
H2287 H 0.43497 0.78202 0.84401 0.0
H2288 H 0.4044 0.88645 0.83649 0.0
H2289 H 0.36962 0.84346 0.86999 0.0
H2290 H 0.39904 0.83806 0.86622 0.0
H2291 H 0.37606 0.81815 0.86114 0.0
C2292 C 0.45786 0.84577 0.84654 0.0
C2293 C 0.45724 0.81748 0.84482 0.0
C2294 C 0.43763 0.86026 0.84832 0.0
C2295 C 0.41626 0.84687 0.84841 0.0
C2296 C 0.41561 0.8184 0.84707 0.0
H2297 H 0.27562 0.89409 0.8427 0.0
H2298 H 0.31232 0.87151 0.84558 0.0
C2299 C 0.43599 0.80376 0.84537 0.0
C2300 C 0.39475 0.86326 0.84886 0.0
H2301 H 0.34405 0.87145 0.8609 0.0
C2302 C 0.39134 0.8834 0.84191 0.0
C2303 C 0.3777 0.85923 0.85591 0.0
C2304 C 0.38083 0.83873 0.86379 0.0
C2305 C 0.3711 0.89903 0.84162 0.0
C2306 C 0.35388 0.89472 0.84857 0.0
C2307 C 0.35737 0.87486 0.85562 0.0
C2308 C 0.3313 0.90884 0.84805 0.0
C2309 C 0.3679 0.91923 0.83363 0.0
C2310 C 0.3296 0.93741 0.84878 0.0
C2311 C 0.3085 0.95054 0.8471 0.0
C2312 C 0.28884 0.93525 0.84466 0.0
C2313 C 0.29046 0.90657 0.84444 0.0
C2314 C 0.31142 0.89355 0.84614 0.0
H2315 H 0.38078 0.91632 0.82788 0.0
H2316 H 0.35036 0.91741 0.83053 0.0
H2317 H 0.36987 0.94026 0.83646 0.0
H2318 H 0.34472 0.94956 0.85039 0.0
H2319 H 0.30781 0.97262 0.84737 0.0
H2320 H 0.71885 0.64524 0.59252 0.0
H2321 H 0.68248 0.6227 0.59605 0.0
H2322 H 0.65136 0.70055 0.60238 0.0
H2323 H 0.68795 0.72361 0.5987 0.0
H2324 H 0.6531 0.62146 0.61207 0.0
H2325 H 0.61185 0.66954 0.58052 0.0
H2326 H 0.64261 0.67035 0.58243 0.0
H2327 H 0.62406 0.69254 0.58912 0.0
C2328 C 0.70437 0.65769 0.59472 0.0
C2329 C 0.70623 0.68633 0.59518 0.0
C2330 C 0.6836 0.64468 0.5968 0.0
C2331 C 0.66415 0.65995 0.59934 0.0
C2332 C 0.66613 0.68844 0.60029 0.0
H2333 H 0.52187 0.60552 0.59896 0.0
H2334 H 0.55688 0.63134 0.60232 0.0
C2335 C 0.68705 0.70156 0.59823 0.0
C2336 C 0.64161 0.64588 0.60027 0.0
H2337 H 0.58971 0.63827 0.58917 0.0
C2338 C 0.6391 0.6253 0.60714 0.0
C2339 C 0.62349 0.65077 0.59377 0.0
C2340 C 0.62556 0.67183 0.58598 0.0
C2341 C 0.61894 0.60938 0.60765 0.0
C2342 C 0.60105 0.61388 0.601 0.0
C2343 C 0.60342 0.63486 0.59427 0.0
C2344 C 0.57985 0.59689 0.60064 0.0
C2345 C 0.61697 0.58799 0.6153 0.0
C2346 C 0.581 0.56865 0.59885 0.0
C2347 C 0.56086 0.55367 0.59701 0.0
C2348 C 0.53937 0.56687 0.59676 0.0
C2349 C 0.53822 0.59482 0.59901 0.0
C2350 C 0.55822 0.60963 0.60095 0.0
H2351 H 0.6286 0.5925 0.62138 0.0
H2352 H 0.599 0.58642 0.61798 0.0
H2353 H 0.622 0.56787 0.61232 0.0
H2354 H 0.59753 0.55847 0.59838 0.0
H2355 H 0.56225 0.53221 0.59523 0.0
H2356 H 0.52568 0.64595 0.68939 0.0
H2357 H 0.56225 0.62375 0.68597 0.0
H2358 H 0.59382 0.70216 0.681 0.0
H2359 H 0.55702 0.72486 0.68458 0.0
H2360 H 0.59281 0.62395 0.67034 0.0
H2361 H 0.63171 0.66919 0.70294 0.0
H2362 H 0.60111 0.67019 0.70066 0.0
H2363 H 0.62017 0.69296 0.69447 0.0
C2364 C 0.5403 0.6586 0.6875 0.0
C2365 C 0.5385 0.68727 0.68741 0.0
C2366 C 0.56119 0.64579 0.68549 0.0
C2367 C 0.58082 0.66128 0.68337 0.0
C2368 C 0.5789 0.68985 0.68276 0.0
H2369 H 0.72311 0.60712 0.68461 0.0
H2370 H 0.68823 0.63314 0.68131 0.0
C2371 C 0.55787 0.70278 0.68476 0.0
C2372 C 0.60342 0.64731 0.68256 0.0
H2373 H 0.6545 0.63875 0.6942 0.0
C2374 C 0.60644 0.62735 0.67548 0.0
C2375 C 0.62106 0.65163 0.68934 0.0
C2376 C 0.61842 0.67197 0.69733 0.0
C2377 C 0.62664 0.6115 0.67504 0.0
C2378 C 0.64403 0.61542 0.68195 0.0
C2379 C 0.64117 0.63578 0.68889 0.0
C2380 C 0.66525 0.59848 0.68236 0.0
C2381 C 0.62919 0.59081 0.66716 0.0
C2382 C 0.66405 0.57008 0.68379 0.0
C2383 C 0.68413 0.55499 0.6856 0.0
C2384 C 0.7056 0.56821 0.68618 0.0
C2385 C 0.70679 0.59637 0.68431 0.0
C2386 C 0.68686 0.6113 0.6824 0.0
H2387 H 0.61794 0.59579 0.66101 0.0
H2388 H 0.64733 0.5896 0.66467 0.0
H2389 H 0.62406 0.57041 0.66985 0.0
H2390 H 0.64752 0.55981 0.68397 0.0
H2391 H 0.68269 0.53336 0.68708 0.0
H2392 H 0.45921 0.40641 0.45154 0.0
H2393 H 0.42394 0.38227 0.44764 0.0
H2394 H 0.41151 0.43778 0.42442 0.0
H2395 H 0.44686 0.46302 0.42858 0.0
H2396 H 0.37308 0.4288 0.43348 0.0
H2397 H 0.41194 0.32815 0.42728 0.0
H2398 H 0.42074 0.3399 0.43877 0.0
H2399 H 0.42925 0.35865 0.4283 0.0
C2400 C 0.44911 0.4135 0.44555 0.0
C2401 C 0.45598 0.43652 0.44031 0.0
C2402 C 0.429 0.39941 0.44326 0.0
C2403 C 0.41543 0.40747 0.43551 0.0
C2404 C 0.42191 0.43086 0.43034 0.0
H2405 H 0.29719 0.29431 0.42866 0.0
H2406 H 0.3325 0.31943 0.42435 0.0
C2407 C 0.44202 0.44533 0.43274 0.0
C2408 C 0.39379 0.39228 0.43337 0.0
H2409 H 0.37191 0.32751 0.43297 0.0
C2410 C 0.37289 0.40667 0.43315 0.0
C2411 C 0.39334 0.36342 0.43257 0.0
C2412 C 0.41509 0.34674 0.43162 0.0
C2413 C 0.35162 0.39293 0.43304 0.0
C2414 C 0.35124 0.36402 0.43355 0.0
C2415 C 0.37209 0.34965 0.43286 0.0
C2416 C 0.32978 0.3487 0.43586 0.0
C2417 C 0.32981 0.40966 0.4326 0.0
C2418 C 0.31695 0.35616 0.4439 0.0
C2419 C 0.29687 0.34216 0.44628 0.0
C2420 C 0.2893 0.31981 0.44083 0.0
C2421 C 0.30258 0.31148 0.43298 0.0
C2422 C 0.32267 0.32589 0.4305 0.0
H2423 H 0.33258 0.42862 0.42843 0.0
H2424 H 0.31538 0.39802 0.42935 0.0
H2425 H 0.32478 0.41587 0.4399 0.0
H2426 H 0.32254 0.37282 0.44841 0.0
H2427 H 0.28731 0.34882 0.45248 0.0
H2428 H 0.47139 0.35744 0.34476 0.0
H2429 H 0.43465 0.3797 0.34784 0.0
H2430 H 0.40088 0.30129 0.3487 0.0
H2431 H 0.43792 0.27862 0.34553 0.0
H2432 H 0.38142 0.33838 0.33589 0.0
H2433 H 0.39291 0.38751 0.37104 0.0
H2434 H 0.4162 0.39431 0.36298 0.0
H2435 H 0.41107 0.35994 0.36695 0.0
C2436 C 0.45625 0.3448 0.34576 0.0
C2437 C 0.45755 0.31623 0.34483 0.0
C2438 C 0.43526 0.3576 0.34762 0.0
C2439 C 0.41506 0.34218 0.34862 0.0
C2440 C 0.41635 0.31355 0.34804 0.0
H2441 H 0.27195 0.39401 0.34601 0.0
H2442 H 0.30728 0.3683 0.34876 0.0
C2443 C 0.43749 0.30063 0.34624 0.0
C2444 C 0.39247 0.35631 0.34909 0.0
H2445 H 0.36231 0.40501 0.36129 0.0
C2446 C 0.37706 0.35261 0.34152 0.0
C2447 C 0.387 0.37518 0.35638 0.0
C2448 C 0.40258 0.37933 0.36485 0.0
C2449 C 0.35667 0.36788 0.34086 0.0
C2450 C 0.35128 0.38698 0.34809 0.0
C2451 C 0.36651 0.39043 0.35575 0.0
C2452 C 0.3298 0.40337 0.34774 0.0
C2453 C 0.34148 0.36411 0.33224 0.0
C2454 C 0.33063 0.43191 0.34677 0.0
C2455 C 0.3103 0.44685 0.34529 0.0
C2456 C 0.28894 0.43336 0.34472 0.0
C2457 C 0.28817 0.40499 0.34625 0.0
C2458 C 0.30835 0.39021 0.34781 0.0
H2459 H 0.35086 0.35413 0.3263 0.0
H2460 H 0.32661 0.35094 0.33415 0.0
H2461 H 0.33467 0.384 0.32972 0.0
H2462 H 0.34705 0.44246 0.34677 0.0
H2463 H 0.31143 0.46868 0.34415 0.0
H2464 H 0.05724 0.03275 0.59747 0.0
H2465 H 0.09405 0.05543 0.60106 0.0
H2466 H 0.06113 0.13398 0.59845 0.0
H2467 H 0.02457 0.11171 0.59497 0.0
H2468 H 0.11518 0.09071 0.58812 0.0
H2469 H 0.10041 0.14419 0.62228 0.0
H2470 H 0.08242 0.11635 0.61825 0.0
H2471 H 0.0781 0.15026 0.6137 0.0
C2472 C 0.05777 0.05482 0.59789 0.0
C2473 C 0.03803 0.07042 0.59588 0.0
C2474 C 0.07879 0.06775 0.59992 0.0
C2475 C 0.08026 0.0964 0.60014 0.0
C2476 C 0.06034 0.11188 0.59853 0.0
H2477 H 0.1848 0.22131 0.59523 0.0
H2478 H 0.14898 0.19567 0.59809 0.0
C2479 C 0.03947 0.09906 0.59644 0.0
C2480 C 0.10291 0.11034 0.60084 0.0
H2481 H 0.13222 0.16017 0.61286 0.0
C2482 C 0.11908 0.10556 0.59362 0.0
C2483 C 0.10778 0.13001 0.60794 0.0
C2484 C 0.09134 0.13537 0.61603 0.0
C2485 C 0.13966 0.12053 0.59311 0.0
C2486 C 0.14447 0.14043 0.60015 0.0
C2487 C 0.12848 0.14495 0.60747 0.0
C2488 C 0.16603 0.15671 0.59989 0.0
C2489 C 0.15567 0.11561 0.58481 0.0
C2490 C 0.18743 0.14353 0.60038 0.0
C2491 C 0.20772 0.15798 0.59867 0.0
C2492 C 0.20708 0.18604 0.59658 0.0
C2493 C 0.18579 0.19972 0.59682 0.0
C2494 C 0.16536 0.18509 0.59844 0.0
H2495 H 0.14681 0.10498 0.57886 0.0
H2496 H 0.16287 0.13513 0.58211 0.0
H2497 H 0.17024 0.10258 0.58716 0.0
H2498 H 0.18837 0.12178 0.60172 0.0
H2499 H 0.22391 0.14694 0.59868 0.0
H2500 H 0.18613 0.03308 0.68579 0.0
H2501 H 0.14967 0.05674 0.68242 0.0
H2502 H 0.18398 0.13441 0.68537 0.0
H2503 H 0.22019 0.11118 0.68866 0.0
H2504 H 0.12926 0.09233 0.69559 0.0
H2505 H 0.14478 0.146 0.66156 0.0
H2506 H 0.16219 0.11756 0.66546 0.0
H2507 H 0.16725 0.15122 0.67015 0.0
C2508 C 0.18597 0.05517 0.6855 0.0
C2509 C 0.20601 0.07024 0.68755 0.0
C2510 C 0.16515 0.06866 0.68359 0.0
C2511 C 0.16418 0.09734 0.68353 0.0
C2512 C 0.18439 0.1123 0.68518 0.0
H2513 H 0.06093 0.22408 0.68845 0.0
H2514 H 0.09658 0.19799 0.68572 0.0
C2515 C 0.20506 0.09893 0.68716 0.0
C2516 C 0.14178 0.11183 0.68291 0.0
H2517 H 0.11314 0.16227 0.67099 0.0
C2518 C 0.12556 0.1073 0.69012 0.0
C2519 C 0.13717 0.13166 0.67585 0.0
C2520 C 0.15368 0.13677 0.66776 0.0
C2521 C 0.1052 0.12265 0.69067 0.0
C2522 C 0.10064 0.14266 0.68366 0.0
C2523 C 0.11669 0.14696 0.67635 0.0
C2524 C 0.07922 0.15919 0.68392 0.0
C2525 C 0.08914 0.11796 0.69896 0.0
C2526 C 0.05771 0.14623 0.68338 0.0
C2527 C 0.03751 0.16093 0.68502 0.0
C2528 C 0.03835 0.18903 0.68707 0.0
C2529 C 0.05977 0.20246 0.68689 0.0
C2530 C 0.08011 0.18758 0.68535 0.0
H2531 H 0.0979 0.10726 0.70491 0.0
H2532 H 0.08211 0.13756 0.70167 0.0
H2533 H 0.07446 0.10506 0.69661 0.0
H2534 H 0.05659 0.12448 0.68206 0.0
H2535 H 0.02123 0.15008 0.68495 0.0
H2536 H 0.93553 0.97201 0.43953 0.0
H2537 H 0.89975 0.94585 0.43714 0.0
H2538 H 0.93923 0.87152 0.4351 0.0
H2539 H 0.97471 0.89719 0.43763 0.0
H2540 H 0.88388 0.90833 0.4228 0.0
H2541 H 0.89621 0.8576 0.4577 0.0
H2542 H 0.91246 0.88735 0.4542 0.0
H2543 H 0.92025 0.85418 0.44975 0.0
C2544 C 0.93655 0.95016 0.43843 0.0
C2545 C 0.95789 0.93662 0.43893 0.0
C2546 C 0.91613 0.93524 0.43708 0.0
C2547 C 0.91683 0.90666 0.43617 0.0
C2548 C 0.93825 0.89344 0.43602 0.0
H2549 H 0.80963 0.78063 0.43805 0.0
H2550 H 0.84646 0.80416 0.43521 0.0
C2551 C 0.95852 0.9082 0.43745 0.0
C2552 C 0.89529 0.89031 0.43592 0.0
H2553 H 0.86559 0.84143 0.44817 0.0
C2554 C 0.87984 0.89372 0.42834 0.0
C2555 C 0.8901 0.87117 0.44315 0.0
C2556 C 0.9055 0.86746 0.45171 0.0
C2557 C 0.85939 0.87833 0.42777 0.0
C2558 C 0.85417 0.85934 0.43503 0.0
C2559 C 0.86975 0.85575 0.44255 0.0
C2560 C 0.83175 0.84477 0.43549 0.0
C2561 C 0.84362 0.88241 0.41936 0.0
C2562 C 0.81134 0.85975 0.43653 0.0
C2563 C 0.79045 0.84646 0.43819 0.0
C2564 C 0.78947 0.81781 0.43889 0.0
C2565 C 0.8098 0.80268 0.43751 0.0
C2566 C 0.83082 0.8161 0.43591 0.0
H2567 H 0.85307 0.89091 0.41317 0.0
H2568 H 0.83532 0.86292 0.41721 0.0
H2569 H 0.82985 0.89709 0.42133 0.0
H2570 H 0.81167 0.88186 0.43644 0.0
H2571 H 0.77513 0.85877 0.43918 0.0
H2572 H 0.97551 0.8568 0.34835 0.0
H2573 H 0.93983 0.88145 0.35149 0.0
H2574 H 0.90088 0.80752 0.34692 0.0
H2575 H 0.93685 0.78243 0.34398 0.0
H2576 H 0.90721 0.88781 0.33813 0.0
H2577 H 0.86847 0.83966 0.36998 0.0
H2578 H 0.8983 0.83473 0.3667 0.0
H2579 H 0.87592 0.81571 0.36081 0.0
C2580 C 0.95939 0.84561 0.3482 0.0
C2581 C 0.95895 0.8177 0.34585 0.0
C2582 C 0.939 0.85975 0.35001 0.0
C2583 C 0.91766 0.84638 0.34948 0.0
C2584 C 0.91717 0.81818 0.34756 0.0
H2585 H 0.77772 0.893 0.34166 0.0
H2586 H 0.81427 0.8706 0.34495 0.0
C2587 C 0.93771 0.80387 0.34584 0.0
C2588 C 0.8961 0.86271 0.34982 0.0
H2589 H 0.84385 0.86876 0.36083 0.0
C2590 C 0.89349 0.88389 0.34318 0.0
C2591 C 0.87819 0.85752 0.3564 0.0
C2592 C 0.88039 0.83584 0.36394 0.0
C2593 C 0.87321 0.89942 0.34273 0.0
C2594 C 0.85512 0.89393 0.34919 0.0
C2595 C 0.85783 0.87307 0.35594 0.0
C2596 C 0.83249 0.90784 0.34838 0.0
C2597 C 0.87093 0.92075 0.33505 0.0
C2598 C 0.83038 0.93627 0.34949 0.0
C2599 C 0.80937 0.94932 0.34757 0.0
C2600 C 0.79019 0.93407 0.3445 0.0
C2601 C 0.79218 0.90547 0.34388 0.0
C2602 C 0.81306 0.89254 0.34582 0.0
H2603 H 0.88458 0.91879 0.32955 0.0
H2604 H 0.85384 0.91928 0.33152 0.0
H2605 H 0.87239 0.94135 0.33828 0.0
H2606 H 0.84513 0.94841 0.35161 0.0
H2607 H 0.80837 0.97133 0.34817 0.0
H2608 H 0.20335 0.66368 0.08098 0.0
H2609 H 0.16847 0.63934 0.08534 0.0
H2610 H 0.16569 0.68353 0.11187 0.0
H2611 H 0.20067 0.70898 0.10732 0.0
H2612 H 0.16164 0.60535 0.09998 0.0
H2613 H 0.10052 0.6928 0.10226 0.0
H2614 H 0.12891 0.69636 0.09717 0.0
H2615 H 0.12545 0.69411 0.10983 0.0
C2616 C 0.19528 0.66845 0.08773 0.0
C2617 C 0.20475 0.68826 0.09381 0.0
C2618 C 0.17534 0.6544 0.09023 0.0
C2619 C 0.1644 0.6595 0.09893 0.0
C2620 C 0.17363 0.67949 0.10505 0.0
H2621 H 0.04899 0.54085 0.10574 0.0
H2622 H 0.08422 0.56566 0.11034 0.0
C2623 C 0.19358 0.694 0.10246 0.0
C2624 C 0.14343 0.64343 0.10132 0.0
H2625 H 0.08495 0.64888 0.10325 0.0
C2626 C 0.14486 0.61481 0.10086 0.0
C2627 C 0.12161 0.65584 0.10253 0.0
C2628 C 0.11884 0.68645 0.10293 0.0
C2629 C 0.12501 0.59838 0.10071 0.0
C2630 C 0.10309 0.6109 0.10138 0.0
C2631 C 0.10178 0.63934 0.10269 0.0
C2632 C 0.08146 0.59585 0.09915 0.0
C2633 C 0.12767 0.56808 0.09908 0.0
C2634 C 0.068 0.60479 0.09149 0.0
C2635 C 0.04789 0.59104 0.08898 0.0
C2636 C 0.04073 0.56775 0.09401 0.0
C2637 C 0.05421 0.55857 0.10168 0.0
C2638 C 0.07434 0.5727 0.10429 0.0
H2639 H 0.14556 0.56248 0.09704 0.0
H2640 H 0.12333 0.55702 0.10572 0.0
H2641 H 0.11577 0.56095 0.09341 0.0
H2642 H 0.07317 0.62241 0.08736 0.0
H2643 H 0.03802 0.59864 0.08301 0.0
H2644 H 0.03808 0.66249 0.20189 0.0
H2645 H 0.07324 0.63855 0.19766 0.0
H2646 H 0.0816 0.69054 0.17317 0.0
H2647 H 0.04636 0.71556 0.17763 0.0
H2648 H 0.083 0.60901 0.18221 0.0
H2649 H 0.14456 0.69593 0.18512 0.0
H2650 H 0.11525 0.69836 0.18931 0.0
H2651 H 0.12131 0.69986 0.1768 0.0
C2652 C 0.04741 0.66904 0.19562 0.0
C2653 C 0.03945 0.69097 0.19009 0.0
C2654 C 0.06751 0.6552 0.19319 0.0
C2655 C 0.08016 0.66267 0.18511 0.0
C2656 C 0.07235 0.68465 0.17953 0.0
H2657 H 0.19679 0.54617 0.17699 0.0
H2658 H 0.16192 0.57193 0.17258 0.0
C2659 C 0.05223 0.69891 0.18206 0.0
C2660 C 0.10147 0.6471 0.18282 0.0
H2661 H 0.16015 0.65246 0.18279 0.0
C2662 C 0.0999 0.6185 0.18219 0.0
C2663 C 0.12349 0.65955 0.18273 0.0
C2664 C 0.12642 0.69007 0.18358 0.0
C2665 C 0.11966 0.60191 0.18228 0.0
C2666 C 0.14167 0.61433 0.1827 0.0
C2667 C 0.14325 0.64298 0.18251 0.0
C2668 C 0.16288 0.59849 0.18491 0.0
C2669 C 0.11669 0.57132 0.18267 0.0
C2670 C 0.17517 0.60502 0.19319 0.0
C2671 C 0.19507 0.59078 0.1956 0.0
C2672 C 0.20319 0.56935 0.18985 0.0
C2673 C 0.1908 0.56241 0.1816 0.0
C2674 C 0.17088 0.57709 0.17909 0.0
H2675 H 0.09849 0.56531 0.18399 0.0
H2676 H 0.12207 0.5623 0.17578 0.0
H2677 H 0.12763 0.56238 0.18835 0.0
H2678 H 0.16929 0.62122 0.19785 0.0
H2679 H 0.20408 0.59657 0.20204 0.0
H2680 H 0.81103 0.28404 0.93793 0.0
H2681 H 0.84672 0.31002 0.93514 0.0
H2682 H 0.80708 0.38404 0.9324 0.0
H2683 H 0.77168 0.35854 0.93537 0.0
H2684 H 0.86289 0.34647 0.9206 0.0
H2685 H 0.84944 0.39955 0.95508 0.0
H2686 H 0.83329 0.36959 0.9517 0.0
H2687 H 0.8257 0.40245 0.94696 0.0
C2688 C 0.80995 0.30576 0.93657 0.0
C2689 C 0.78864 0.31934 0.93703 0.0
C2690 C 0.83031 0.32057 0.93499 0.0
C2691 C 0.82954 0.34905 0.9338 0.0
C2692 C 0.8081 0.3622 0.93354 0.0
H2693 H 0.93773 0.47372 0.9362 0.0
H2694 H 0.90091 0.45085 0.93274 0.0
C2695 C 0.78789 0.34756 0.93521 0.0
C2696 C 0.85106 0.36542 0.93352 0.0
H2697 H 0.88057 0.4147 0.94568 0.0
C2698 C 0.86678 0.36141 0.92607 0.0
C2699 C 0.85605 0.38495 0.94067 0.0
C2700 C 0.84036 0.38929 0.9491 0.0
C2701 C 0.88737 0.37653 0.92556 0.0
C2702 C 0.89242 0.39586 0.93275 0.0
C2703 C 0.87652 0.40012 0.94011 0.0
C2704 C 0.915 0.40998 0.93338 0.0
C2705 C 0.90352 0.37174 0.91733 0.0
C2706 C 0.93507 0.39461 0.93479 0.0
C2707 C 0.95593 0.40753 0.93681 0.0
C2708 C 0.95721 0.43616 0.9375 0.0
C2709 C 0.93731 0.45166 0.93568 0.0
C2710 C 0.9163 0.43863 0.93372 0.0
H2711 H 0.89429 0.36307 0.91109 0.0
H2712 H 0.91219 0.39096 0.91515 0.0
H2713 H 0.917 0.35691 0.91949 0.0
H2714 H 0.93442 0.37251 0.93476 0.0
H2715 H 0.97096 0.39496 0.93813 0.0
H2716 H 0.97091 0.35897 0.84483 0.0
H2717 H 0.93439 0.38173 0.84793 0.0
H2718 H 0.90019 0.30368 0.84955 0.0
H2719 H 0.93698 0.28051 0.84636 0.0
H2720 H 0.88069 0.33994 0.83652 0.0
H2721 H 0.89316 0.39152 0.8712 0.0
H2722 H 0.91629 0.3976 0.86299 0.0
H2723 H 0.91112 0.36356 0.86727 0.0
C2724 C 0.95573 0.34652 0.84601 0.0
C2725 C 0.95682 0.31789 0.84528 0.0
C2726 C 0.93487 0.35962 0.84788 0.0
C2727 C 0.91461 0.34443 0.84909 0.0
C2728 C 0.91571 0.31577 0.84872 0.0
H2729 H 0.77169 0.39681 0.84634 0.0
H2730 H 0.80693 0.37116 0.84938 0.0
C2731 C 0.93671 0.30256 0.84691 0.0
C2732 C 0.8921 0.35875 0.84953 0.0
H2733 H 0.86238 0.40846 0.86142 0.0
C2734 C 0.87651 0.35459 0.84205 0.0
C2735 C 0.88687 0.37816 0.85667 0.0
C2736 C 0.90265 0.38283 0.86504 0.0
C2737 C 0.85616 0.36991 0.84134 0.0
C2738 C 0.851 0.38954 0.84842 0.0
C2739 C 0.86641 0.39346 0.85599 0.0
C2740 C 0.82958 0.40601 0.84799 0.0
C2741 C 0.84078 0.36561 0.8328 0.0
C2742 C 0.8305 0.43446 0.84674 0.0
C2743 C 0.81023 0.44937 0.8451 0.0
C2744 C 0.78884 0.43592 0.84465 0.0
C2745 C 0.78795 0.40771 0.84648 0.0
C2746 C 0.80808 0.39297 0.84821 0.0
H2747 H 0.85001 0.35517 0.82691 0.0
H2748 H 0.82591 0.35264 0.83487 0.0
H2749 H 0.83398 0.38534 0.83013 0.0
H2750 H 0.84697 0.44492 0.84662 0.0
H2751 H 0.81143 0.47107 0.84373 0.0
loop_
_geom_bond_atom_site_label_1
_geom_bond_atom_site_label_2
_geom_bond_distance
_geom_bond_site_symmetry_2
_ccdc_geom_bond_type
O0 Cd1 2.223 . S
O0 C8 1.315 . S
Cd1 O0 2.223 . S
Cd1 O4 2.297 1_545 S
Cd1 O5 2.439 . S
Cd1 O11 2.240 . S
Cd2 O3 2.240 . S
Cd2 O10 2.223 . S
Cd2 O12 2.297 . S
Cd2 O13 2.439 . S
O3 Cd2 2.240 . S
O3 C8 1.279 . S
O4 Cd1 2.297 1_565 S
O4 C6 1.247 . S
O5 Cd1 2.439 . S
O5 C6 1.208 1_545 S
C6 O4 1.247 . S
C6 O5 1.208 1_565 S
C7 O12 1.247 . S
C7 O13 1.208 . S
C8 O0 1.315 . S
C8 O3 1.279 . S
C9 O10 1.315 . S
C9 O11 1.279 . S
O10 Cd2 2.223 . S
O10 C9 1.315 . S
O11 Cd1 2.240 . S
O11 C9 1.279 . S
O12 Cd2 2.297 . S
O12 C7 1.247 . S
O13 Cd2 2.439 . S
O13 C7 1.208 . S
O14 Cd15 2.223 . S
O14 C22 1.315 . S
Cd15 O14 2.223 . S
Cd15 O18 2.297 . S
Cd15 O19 2.439 . S
Cd15 O25 2.240 . S
Cd16 O17 2.240 . S
Cd16 O24 2.223 . S
Cd16 O26 2.297 . S
Cd16 O27 2.439 . S
O17 Cd16 2.240 . S
O17 C22 1.279 . S
O18 Cd15 2.297 . S
O18 C20 1.247 . S
O19 Cd15 2.439 . S
O19 C20 1.208 . S
C20 O18 1.247 . S
C20 O19 1.208 . S
C21 O26 1.247 . S
C21 O27 1.208 . S
C22 O14 1.315 . S
C22 O17 1.279 . S
C23 O24 1.315 . S
C23 O25 1.279 . S
O24 Cd16 2.223 . S
O24 C23 1.315 . S
O25 Cd15 2.240 . S
O25 C23 1.279 . S
O26 Cd16 2.297 . S
O26 C21 1.247 . S
O27 Cd16 2.439 . S
O27 C21 1.208 . S
O28 Cd29 2.223 . S
O28 C36 1.315 . S
Cd29 O28 2.223 . S
Cd29 O32 2.297 . S
Cd29 O33 2.439 . S
Cd29 O39 2.240 . S
Cd30 O31 2.240 . S
Cd30 O38 2.223 . S
Cd30 O40 2.297 . S
Cd30 O41 2.439 . S
O31 Cd30 2.240 . S
O31 C36 1.279 . S
O32 Cd29 2.297 . S
O32 C34 1.247 . S
O33 Cd29 2.439 . S
O33 C34 1.208 . S
C34 O32 1.247 . S
C34 O33 1.208 . S
C35 O40 1.247 . S
C35 O41 1.208 . S
C36 O28 1.315 . S
C36 O31 1.279 . S
C37 O38 1.315 . S
C37 O39 1.279 . S
O38 Cd30 2.223 . S
O38 C37 1.315 . S
O39 Cd29 2.240 . S
O39 C37 1.279 . S
O40 Cd30 2.297 . S
O40 C35 1.247 . S
O41 Cd30 2.439 . S
O41 C35 1.208 . S
O42 Cd43 2.223 . S
O42 C50 1.315 . S
Cd43 O42 2.223 . S
Cd43 O46 2.297 1_545 S
Cd43 O47 2.439 . S
Cd43 O53 2.240 . S
Cd44 O45 2.240 . S
Cd44 O52 2.223 . S
Cd44 O54 2.297 . S
Cd44 O55 2.439 . S
O45 Cd44 2.240 . S
O45 C50 1.279 . S
O46 Cd43 2.297 1_565 S
O46 C48 1.247 . S
O47 Cd43 2.439 . S
O47 C48 1.208 1_545 S
C48 O46 1.247 . S
C48 O47 1.208 1_565 S
C49 O54 1.247 . S
C49 O55 1.208 . S
C50 O42 1.315 . S
C50 O45 1.279 . S
C51 O52 1.315 . S
C51 O53 1.279 . S
O52 Cd44 2.223 . S
O52 C51 1.315 . S
O53 Cd43 2.240 . S
O53 C51 1.279 . S
O54 Cd44 2.297 . S
O54 C49 1.247 . S
O55 Cd44 2.439 . S
O55 C49 1.208 . S
O56 Cd57 2.223 . S
O56 C64 1.315 . S
Cd57 O56 2.223 . S
Cd57 O60 2.297 1_565 S
Cd57 O61 2.439 . S
Cd57 O67 2.240 . S
Cd58 O59 2.240 . S
Cd58 O66 2.223 . S
Cd58 O68 2.297 . S
Cd58 O69 2.439 . S
O59 Cd58 2.240 . S
O59 C64 1.279 . S
O60 Cd57 2.297 1_545 S
O60 C62 1.247 . S
O61 Cd57 2.439 . S
O61 C62 1.208 1_565 S
C62 O60 1.247 . S
C62 O61 1.208 1_545 S
C63 O68 1.247 . S
C63 O69 1.208 . S
C64 O56 1.315 . S
C64 O59 1.279 . S
C65 O66 1.315 . S
C65 O67 1.279 . S
O66 Cd58 2.223 . S
O66 C65 1.315 . S
O67 Cd57 2.240 . S
O67 C65 1.279 . S
O68 Cd58 2.297 . S
O68 C63 1.247 . S
O69 Cd58 2.439 . S
O69 C63 1.208 . S
O70 Cd71 2.223 . S
O70 C78 1.315 . S
Cd71 O70 2.223 . S
Cd71 O74 2.297 . S
Cd71 O75 2.439 . S
Cd71 O81 2.240 . S
Cd72 O73 2.240 . S
Cd72 O80 2.223 . S
Cd72 O82 2.297 . S
Cd72 O83 2.439 . S
O73 Cd72 2.240 . S
O73 C78 1.279 . S
O74 Cd71 2.297 . S
O74 C76 1.247 . S
O75 Cd71 2.439 . S
O75 C76 1.208 . S
C76 O74 1.247 . S
C76 O75 1.208 . S
C77 O82 1.247 . S
C77 O83 1.208 . S
C78 O70 1.315 . S
C78 O73 1.279 . S
C79 O80 1.315 . S
C79 O81 1.279 . S
O80 Cd72 2.223 . S
O80 C79 1.315 . S
O81 Cd71 2.240 . S
O81 C79 1.279 . S
O82 Cd72 2.297 . S
O82 C77 1.247 . S
O83 Cd72 2.439 . S
O83 C77 1.208 . S
O84 Cd85 2.223 . S
O84 C92 1.315 . S
Cd85 O84 2.223 . S
Cd85 O88 2.297 . S
Cd85 O89 2.439 . S
Cd85 O95 2.240 . S
Cd86 O87 2.240 . S
Cd86 O94 2.223 . S
Cd86 O96 2.297 . S
Cd86 O97 2.439 . S
O87 Cd86 2.240 . S
O87 C92 1.279 . S
O88 Cd85 2.297 . S
O88 C90 1.247 . S
O89 Cd85 2.439 . S
O89 C90 1.208 . S
C90 O88 1.247 . S
C90 O89 1.208 . S
C91 O96 1.247 . S
C91 O97 1.208 . S
C92 O84 1.315 . S
C92 O87 1.279 . S
C93 O94 1.315 . S
C93 O95 1.279 . S
O94 Cd86 2.223 . S
O94 C93 1.315 . S
O95 Cd85 2.240 . S
O95 C93 1.279 . S
O96 Cd86 2.297 . S
O96 C91 1.247 . S
O97 Cd86 2.439 . S
O97 C91 1.208 . S
O98 Cd99 2.223 . S
O98 C106 1.315 . S
Cd99 O98 2.223 . S
Cd99 O102 2.297 1_565 S
Cd99 O103 2.439 . S
Cd99 O109 2.240 . S
Cd100 O101 2.240 . S
Cd100 O108 2.223 . S
Cd100 O110 2.297 . S
Cd100 O111 2.439 . S
O101 Cd100 2.240 . S
O101 C106 1.279 . S
O102 Cd99 2.297 1_545 S
O102 C104 1.247 . S
O103 Cd99 2.439 . S
O103 C104 1.208 1_565 S
C104 O102 1.247 . S
C104 O103 1.208 1_545 S
C105 O110 1.247 . S
C105 O111 1.208 . S
C106 O98 1.315 . S
C106 O101 1.279 . S
C107 O108 1.315 . S
C107 O109 1.279 . S
O108 Cd100 2.223 . S
O108 C107 1.315 . S
O109 Cd99 2.240 . S
O109 C107 1.279 . S
O110 Cd100 2.297 . S
O110 C105 1.247 . S
O111 Cd100 2.439 . S
O111 C105 1.208 . S
O112 Cd113 2.223 . S
O112 C120 1.315 . S
Cd113 O112 2.223 . S
Cd113 O116 2.297 . S
Cd113 O117 2.439 . S
Cd113 O123 2.240 . S
Cd114 O115 2.240 . S
Cd114 O122 2.223 . S
Cd114 O124 2.297 . S
Cd114 O125 2.439 . S
O115 Cd114 2.240 . S
O115 C120 1.279 . S
O116 Cd113 2.297 . S
O116 C118 1.247 . S
O117 Cd113 2.439 . S
O117 C118 1.208 . S
C118 O116 1.247 . S
C118 O117 1.208 . S
C119 O124 1.247 . S
C119 O125 1.208 . S
C120 O112 1.315 . S
C120 O115 1.279 . S
C121 O122 1.315 . S
C121 O123 1.279 . S
O122 Cd114 2.223 . S
O122 C121 1.315 . S
O123 Cd113 2.240 . S
O123 C121 1.279 . S
O124 Cd114 2.297 . S
O124 C119 1.247 . S
O125 Cd114 2.439 . S
O125 C119 1.208 . S
O126 Cd127 2.223 . S
O126 C134 1.315 . S
Cd127 O126 2.223 . S
Cd127 O130 2.297 . S
Cd127 O131 2.439 . S
Cd127 O137 2.240 . S
Cd128 O129 2.240 . S
Cd128 O136 2.223 . S
Cd128 O138 2.297 . S
Cd128 O139 2.439 . S
O129 Cd128 2.240 . S
O129 C134 1.279 . S
O130 Cd127 2.297 . S
O130 C132 1.247 . S
O131 Cd127 2.439 . S
O131 C132 1.208 . S
C132 O130 1.247 . S
C132 O131 1.208 . S
C133 O138 1.247 . S
C133 O139 1.208 . S
C134 O126 1.315 . S
C134 O129 1.279 . S
C135 O136 1.315 . S
C135 O137 1.279 . S
O136 Cd128 2.223 . S
O136 C135 1.315 . S
O137 Cd127 2.240 . S
O137 C135 1.279 . S
O138 Cd128 2.297 . S
O138 C133 1.247 . S
O139 Cd128 2.439 . S
O139 C133 1.208 . S
O140 Cd141 2.223 . S
O140 C148 1.315 . S
Cd141 O140 2.223 . S
Cd141 O144 2.297 . S
Cd141 O145 2.439 . S
Cd141 O151 2.240 . S
Cd142 O143 2.240 . S
Cd142 O150 2.223 . S
Cd142 O152 2.297 . S
Cd142 O153 2.439 . S
O143 Cd142 2.240 . S
O143 C148 1.279 . S
O144 Cd141 2.297 . S
O144 C146 1.247 . S
O145 Cd141 2.439 . S
O145 C146 1.208 . S
C146 O144 1.247 . S
C146 O145 1.208 . S
C147 O152 1.247 . S
C147 O153 1.208 . S
C148 O140 1.315 . S
C148 O143 1.279 . S
C149 O150 1.315 . S
C149 O151 1.279 . S
O150 Cd142 2.223 . S
O150 C149 1.315 . S
O151 Cd141 2.240 . S
O151 C149 1.279 . S
O152 Cd142 2.297 . S
O152 C147 1.247 . S
O153 Cd142 2.439 . S
O153 C147 1.208 . S
O154 Cd155 2.223 . S
O154 C162 1.315 . S
Cd155 O154 2.223 . S
Cd155 O158 2.297 . S
Cd155 O159 2.439 . S
Cd155 O165 2.240 . S
Cd156 O157 2.240 . S
Cd156 O164 2.223 . S
Cd156 O166 2.297 . S
Cd156 O167 2.439 . S
O157 Cd156 2.240 . S
O157 C162 1.279 . S
O158 Cd155 2.297 . S
O158 C160 1.247 . S
O159 Cd155 2.439 . S
O159 C160 1.208 . S
C160 O158 1.247 . S
C160 O159 1.208 . S
C161 O166 1.247 . S
C161 O167 1.208 . S
C162 O154 1.315 . S
C162 O157 1.279 . S
C163 O164 1.315 . S
C163 O165 1.279 . S
O164 Cd156 2.223 . S
O164 C163 1.315 . S
O165 Cd155 2.240 . S
O165 C163 1.279 . S
O166 Cd156 2.297 . S
O166 C161 1.247 . S
O167 Cd156 2.439 . S
O167 C161 1.208 . S
O168 Cd169 2.223 . S
O168 C176 1.315 . S
Cd169 O168 2.223 . S
Cd169 O172 2.297 . S
Cd169 O173 2.439 . S
Cd169 O179 2.240 . S
Cd170 O171 2.240 . S
Cd170 O178 2.223 . S
Cd170 O180 2.297 . S
Cd170 O181 2.439 . S
O171 Cd170 2.240 . S
O171 C176 1.279 . S
O172 Cd169 2.297 . S
O172 C174 1.247 . S
O173 Cd169 2.439 . S
O173 C174 1.208 . S
C174 O172 1.247 . S
C174 O173 1.208 . S
C175 O180 1.247 . S
C175 O181 1.208 . S
C176 O168 1.315 . S
C176 O171 1.279 . S
C177 O178 1.315 . S
C177 O179 1.279 . S
O178 Cd170 2.223 . S
O178 C177 1.315 . S
O179 Cd169 2.240 . S
O179 C177 1.279 . S
O180 Cd170 2.297 . S
O180 C175 1.247 . S
O181 Cd170 2.439 . S
O181 C175 1.208 . S
O182 Cd183 2.223 . S
O182 C190 1.315 . S
Cd183 O182 2.223 . S
Cd183 O186 2.297 . S
Cd183 O187 2.439 . S
Cd183 O193 2.240 . S
Cd184 O185 2.240 . S
Cd184 O192 2.223 . S
Cd184 O194 2.297 . S
Cd184 O195 2.439 . S
O185 Cd184 2.240 . S
O185 C190 1.279 . S
O186 Cd183 2.297 . S
O186 C188 1.247 . S
O187 Cd183 2.439 . S
O187 C188 1.208 . S
C188 O186 1.247 . S
C188 O187 1.208 . S
C189 O194 1.247 . S
C189 O195 1.208 . S
C190 O182 1.315 . S
C190 O185 1.279 . S
C191 O192 1.315 . S
C191 O193 1.279 . S
O192 Cd184 2.223 . S
O192 C191 1.315 . S
O193 Cd183 2.240 . S
O193 C191 1.279 . S
O194 Cd184 2.297 . S
O194 C189 1.247 . S
O195 Cd184 2.439 . S
O195 C189 1.208 . S
O196 Cd197 2.223 . S
O196 C204 1.315 . S
Cd197 O196 2.223 . S
Cd197 O200 2.297 . S
Cd197 O201 2.439 . S
Cd197 O207 2.240 . S
Cd198 O199 2.240 . S
Cd198 O206 2.223 . S
Cd198 O208 2.297 . S
Cd198 O209 2.439 . S
O199 Cd198 2.240 . S
O199 C204 1.279 . S
O200 Cd197 2.297 . S
O200 C202 1.247 . S
O201 Cd197 2.439 . S
O201 C202 1.208 . S
C202 O200 1.247 . S
C202 O201 1.208 . S
C203 O208 1.247 . S
C203 O209 1.208 . S
C204 O196 1.315 . S
C204 O199 1.279 . S
C205 O206 1.315 . S
C205 O207 1.279 . S
O206 Cd198 2.223 . S
O206 C205 1.315 . S
O207 Cd197 2.240 . S
O207 C205 1.279 . S
O208 Cd198 2.297 . S
O208 C203 1.247 . S
O209 Cd198 2.439 . S
O209 C203 1.208 . S
O210 Cd211 2.223 . S
O210 C218 1.315 . S
Cd211 O210 2.223 . S
Cd211 O214 2.297 . S
Cd211 O215 2.439 . S
Cd211 O221 2.240 . S
Cd212 O213 2.240 . S
Cd212 O220 2.223 . S
Cd212 O222 2.297 . S
Cd212 O223 2.439 . S
O213 Cd212 2.240 . S
O213 C218 1.279 . S
O214 Cd211 2.297 . S
O214 C216 1.247 . S
O215 Cd211 2.439 . S
O215 C216 1.208 . S
C216 O214 1.247 . S
C216 O215 1.208 . S
C217 O222 1.247 . S
C217 O223 1.208 . S
C218 O210 1.315 . S
C218 O213 1.279 . S
C219 O220 1.315 . S
C219 O221 1.279 . S
O220 Cd212 2.223 . S
O220 C219 1.315 . S
O221 Cd211 2.240 . S
O221 C219 1.279 . S
O222 Cd212 2.297 . S
O222 C217 1.247 . S
O223 Cd212 2.439 . S
O223 C217 1.208 . S
O224 Cd225 2.223 . S
O224 C232 1.315 . S
Cd225 O224 2.223 . S
Cd225 O228 2.297 1_545 S
Cd225 O229 2.439 . S
Cd225 O235 2.240 . S
Cd226 O227 2.240 . S
Cd226 O234 2.223 . S
Cd226 O236 2.297 . S
Cd226 O237 2.439 . S
O227 Cd226 2.240 . S
O227 C232 1.279 . S
O228 Cd225 2.297 1_565 S
O228 C230 1.247 . S
O229 Cd225 2.439 . S
O229 C230 1.208 1_545 S
C230 O228 1.247 . S
C230 O229 1.208 1_565 S
C231 O236 1.247 . S
C231 O237 1.208 . S
C232 O224 1.315 . S
C232 O227 1.279 . S
C233 O234 1.315 1_455 S
C233 O235 1.279 1_455 S
O234 Cd226 2.223 . S
O234 C233 1.315 1_655 S
O235 Cd225 2.240 . S
O235 C233 1.279 1_655 S
O236 Cd226 2.297 . S
O236 C231 1.247 . S
O237 Cd226 2.439 . S
O237 C231 1.208 . S
O238 Cd239 2.223 . S
O238 C246 1.315 . S
Cd239 O238 2.223 . S
Cd239 O242 2.297 . S
Cd239 O243 2.439 . S
Cd239 O249 2.240 . S
Cd240 O241 2.240 . S
Cd240 O248 2.223 . S
Cd240 O250 2.297 . S
Cd240 O251 2.439 . S
O241 Cd240 2.240 . S
O241 C246 1.279 . S
O242 Cd239 2.297 . S
O242 C244 1.247 . S
O243 Cd239 2.439 . S
O243 C244 1.208 . S
C244 O242 1.247 . S
C244 O243 1.208 . S
C245 O250 1.247 . S
C245 O251 1.208 . S
C246 O238 1.315 . S
C246 O241 1.279 . S
C247 O248 1.315 . S
C247 O249 1.279 . S
O248 Cd240 2.223 . S
O248 C247 1.315 . S
O249 Cd239 2.240 . S
O249 C247 1.279 . S
O250 Cd240 2.297 . S
O250 C245 1.247 . S
O251 Cd240 2.439 . S
O251 C245 1.208 . S
O252 Cd253 2.223 . S
O252 C260 1.315 . S
Cd253 O252 2.223 . S
Cd253 O256 2.297 . S
Cd253 O257 2.439 . S
Cd253 O263 2.240 . S
Cd254 O255 2.240 . S
Cd254 O262 2.223 . S
Cd254 O264 2.297 . S
Cd254 O265 2.439 . S
O255 Cd254 2.240 . S
O255 C260 1.279 . S
O256 Cd253 2.297 . S
O256 C258 1.247 . S
O257 Cd253 2.439 . S
O257 C258 1.208 . S
C258 O256 1.247 . S
C258 O257 1.208 . S
C259 O264 1.247 . S
C259 O265 1.208 . S
C260 O252 1.315 . S
C260 O255 1.279 . S
C261 O262 1.315 1_455 S
C261 O263 1.279 1_455 S
O262 Cd254 2.223 . S
O262 C261 1.315 1_655 S
O263 Cd253 2.240 . S
O263 C261 1.279 1_655 S
O264 Cd254 2.297 . S
O264 C259 1.247 . S
O265 Cd254 2.439 . S
O265 C259 1.208 . S
O266 Cd267 2.223 . S
O266 C274 1.315 . S
Cd267 O266 2.223 . S
Cd267 O270 2.297 1_545 S
Cd267 O271 2.439 . S
Cd267 O277 2.240 . S
Cd268 O269 2.240 . S
Cd268 O276 2.223 . S
Cd268 O278 2.297 . S
Cd268 O279 2.439 . S
O269 Cd268 2.240 . S
O269 C274 1.279 . S
O270 Cd267 2.297 1_565 S
O270 C272 1.247 . S
O271 Cd267 2.439 . S
O271 C272 1.208 1_545 S
C272 O270 1.247 . S
C272 O271 1.208 1_565 S
C273 O278 1.247 . S
C273 O279 1.208 . S
C274 O266 1.315 . S
C274 O269 1.279 . S
C275 O276 1.315 . S
C275 O277 1.279 . S
O276 Cd268 2.223 . S
O276 C275 1.315 . S
O277 Cd267 2.240 . S
O277 C275 1.279 . S
O278 Cd268 2.297 . S
O278 C273 1.247 . S
O279 Cd268 2.439 . S
O279 C273 1.208 . S
O280 Cd281 2.223 . S
O280 C288 1.315 . S
Cd281 O280 2.223 . S
Cd281 O284 2.297 1_565 S
Cd281 O285 2.439 . S
Cd281 O291 2.240 . S
Cd282 O283 2.240 . S
Cd282 O290 2.223 . S
Cd282 O292 2.297 . S
Cd282 O293 2.439 . S
O283 Cd282 2.240 . S
O283 C288 1.279 . S
O284 Cd281 2.297 1_545 S
O284 C286 1.247 . S
O285 Cd281 2.439 . S
O285 C286 1.208 1_565 S
C286 O284 1.247 . S
C286 O285 1.208 1_545 S
C287 O292 1.247 . S
C287 O293 1.208 . S
C288 O280 1.315 . S
C288 O283 1.279 . S
C289 O290 1.315 1_655 S
C289 O291 1.279 1_655 S
O290 Cd282 2.223 . S
O290 C289 1.315 1_455 S
O291 Cd281 2.240 . S
O291 C289 1.279 1_455 S
O292 Cd282 2.297 . S
O292 C287 1.247 . S
O293 Cd282 2.439 . S
O293 C287 1.208 . S
O294 Cd295 2.223 . S
O294 C302 1.315 . S
Cd295 O294 2.223 . S
Cd295 O298 2.297 . S
Cd295 O299 2.439 . S
Cd295 O305 2.240 . S
Cd296 O297 2.240 . S
Cd296 O304 2.223 . S
Cd296 O306 2.297 . S
Cd296 O307 2.439 . S
O297 Cd296 2.240 . S
O297 C302 1.279 . S
O298 Cd295 2.297 . S
O298 C300 1.247 . S
O299 Cd295 2.439 . S
O299 C300 1.208 . S
C300 O298 1.247 . S
C300 O299 1.208 . S
C301 O306 1.247 . S
C301 O307 1.208 . S
C302 O294 1.315 . S
C302 O297 1.279 . S
C303 O304 1.315 . S
C303 O305 1.279 . S
O304 Cd296 2.223 . S
O304 C303 1.315 . S
O305 Cd295 2.240 . S
O305 C303 1.279 . S
O306 Cd296 2.297 . S
O306 C301 1.247 . S
O307 Cd296 2.439 . S
O307 C301 1.208 . S
O308 Cd309 2.223 . S
O308 C316 1.315 . S
Cd309 O308 2.223 . S
Cd309 O312 2.297 . S
Cd309 O313 2.439 . S
Cd309 O319 2.240 . S
Cd310 O311 2.240 . S
Cd310 O318 2.223 . S
Cd310 O320 2.297 . S
Cd310 O321 2.439 . S
O311 Cd310 2.240 . S
O311 C316 1.279 . S
O312 Cd309 2.297 . S
O312 C314 1.247 . S
O313 Cd309 2.439 . S
O313 C314 1.208 . S
C314 O312 1.247 . S
C314 O313 1.208 . S
C315 O320 1.247 . S
C315 O321 1.208 . S
C316 O308 1.315 . S
C316 O311 1.279 . S
C317 O318 1.315 1_655 S
C317 O319 1.279 1_655 S
O318 Cd310 2.223 . S
O318 C317 1.315 1_455 S
O319 Cd309 2.240 . S
O319 C317 1.279 1_455 S
O320 Cd310 2.297 . S
O320 C315 1.247 . S
O321 Cd310 2.439 . S
O321 C315 1.208 . S
O322 Cd323 2.223 . S
O322 C330 1.315 . S
Cd323 O322 2.223 . S
Cd323 O326 2.297 1_565 S
Cd323 O327 2.439 . S
Cd323 O333 2.240 . S
Cd324 O325 2.240 . S
Cd324 O332 2.223 . S
Cd324 O334 2.297 . S
Cd324 O335 2.439 . S
O325 Cd324 2.240 . S
O325 C330 1.279 . S
O326 Cd323 2.297 1_545 S
O326 C328 1.247 . S
O327 Cd323 2.439 . S
O327 C328 1.208 1_565 S
C328 O326 1.247 . S
C328 O327 1.208 1_545 S
C329 O334 1.247 . S
C329 O335 1.208 . S
C330 O322 1.315 . S
C330 O325 1.279 . S
C331 O332 1.315 . S
C331 O333 1.279 . S
O332 Cd324 2.223 . S
O332 C331 1.315 . S
O333 Cd323 2.240 . S
O333 C331 1.279 . S
O334 Cd324 2.297 . S
O334 C329 1.247 . S
O335 Cd324 2.439 . S
O335 C329 1.208 . S
O336 Cd337 2.223 . S
O336 C344 1.315 . S
Cd337 O336 2.223 . S
Cd337 O340 2.297 . S
Cd337 O341 2.439 . S
Cd337 O347 2.240 . S
Cd338 O339 2.240 . S
Cd338 O346 2.223 . S
Cd338 O348 2.297 . S
Cd338 O349 2.439 . S
O339 Cd338 2.240 . S
O339 C344 1.279 . S
O340 Cd337 2.297 . S
O340 C342 1.247 . S
O341 Cd337 2.439 . S
O341 C342 1.208 . S
C342 O340 1.247 . S
C342 O341 1.208 . S
C343 O348 1.247 . S
C343 O349 1.208 . S
C344 O336 1.315 . S
C344 O339 1.279 . S
C345 O346 1.315 1_455 S
C345 O347 1.279 1_455 S
O346 Cd338 2.223 . S
O346 C345 1.315 1_655 S
O347 Cd337 2.240 . S
O347 C345 1.279 1_655 S
O348 Cd338 2.297 . S
O348 C343 1.247 . S
O349 Cd338 2.439 . S
O349 C343 1.208 . S
O350 Cd351 2.223 . S
O350 C358 1.315 . S
Cd351 O350 2.223 . S
Cd351 O354 2.297 . S
Cd351 O355 2.439 . S
Cd351 O361 2.240 . S
Cd352 O353 2.240 . S
Cd352 O360 2.223 . S
Cd352 O362 2.297 . S
Cd352 O363 2.439 . S
O353 Cd352 2.240 . S
O353 C358 1.279 . S
O354 Cd351 2.297 . S
O354 C356 1.247 . S
O355 Cd351 2.439 . S
O355 C356 1.208 . S
C356 O354 1.247 . S
C356 O355 1.208 . S
C357 O362 1.247 . S
C357 O363 1.208 . S
C358 O350 1.315 . S
C358 O353 1.279 . S
C359 O360 1.315 . S
C359 O361 1.279 . S
O360 Cd352 2.223 . S
O360 C359 1.315 . S
O361 Cd351 2.240 . S
O361 C359 1.279 . S
O362 Cd352 2.297 . S
O362 C357 1.247 . S
O363 Cd352 2.439 . S
O363 C357 1.208 . S
O364 Cd365 2.223 . S
O364 C372 1.315 . S
Cd365 O364 2.223 . S
Cd365 O368 2.297 . S
Cd365 O369 2.439 . S
Cd365 O375 2.240 . S
Cd366 O367 2.240 . S
Cd366 O374 2.223 . S
Cd366 O376 2.297 . S
Cd366 O377 2.439 . S
O367 Cd366 2.240 . S
O367 C372 1.279 . S
O368 Cd365 2.297 . S
O368 C370 1.247 . S
O369 Cd365 2.439 . S
O369 C370 1.208 . S
C370 O368 1.247 . S
C370 O369 1.208 . S
C371 O376 1.247 . S
C371 O377 1.208 . S
C372 O364 1.315 . S
C372 O367 1.279 . S
C373 O374 1.315 1_455 S
C373 O375 1.279 1_455 S
O374 Cd366 2.223 . S
O374 C373 1.315 1_655 S
O375 Cd365 2.240 . S
O375 C373 1.279 1_655 S
O376 Cd366 2.297 . S
O376 C371 1.247 . S
O377 Cd366 2.439 . S
O377 C371 1.208 . S
O378 Cd379 2.223 . S
O378 C386 1.315 . S
Cd379 O378 2.223 . S
Cd379 O382 2.297 . S
Cd379 O383 2.439 . S
Cd379 O389 2.240 . S
Cd380 O381 2.240 . S
Cd380 O388 2.223 . S
Cd380 O390 2.297 . S
Cd380 O391 2.439 . S
O381 Cd380 2.240 . S
O381 C386 1.279 . S
O382 Cd379 2.297 . S
O382 C384 1.247 . S
O383 Cd379 2.439 . S
O383 C384 1.208 . S
C384 O382 1.247 . S
C384 O383 1.208 . S
C385 O390 1.247 . S
C385 O391 1.208 . S
C386 O378 1.315 . S
C386 O381 1.279 . S
C387 O388 1.315 . S
C387 O389 1.279 . S
O388 Cd380 2.223 . S
O388 C387 1.315 . S
O389 Cd379 2.240 . S
O389 C387 1.279 . S
O390 Cd380 2.297 . S
O390 C385 1.247 . S
O391 Cd380 2.439 . S
O391 C385 1.208 . S
O392 Cd393 2.223 . S
O392 C400 1.315 . S
Cd393 O392 2.223 . S
Cd393 O396 2.297 . S
Cd393 O397 2.439 . S
Cd393 O403 2.240 . S
Cd394 O395 2.240 . S
Cd394 O402 2.223 . S
Cd394 O404 2.297 . S
Cd394 O405 2.439 . S
O395 Cd394 2.240 . S
O395 C400 1.279 . S
O396 Cd393 2.297 . S
O396 C398 1.247 . S
O397 Cd393 2.439 . S
O397 C398 1.208 . S
C398 O396 1.247 . S
C398 O397 1.208 . S
C399 O404 1.247 . S
C399 O405 1.208 . S
C400 O392 1.315 . S
C400 O395 1.279 . S
C401 O402 1.315 1_655 S
C401 O403 1.279 1_655 S
O402 Cd394 2.223 . S
O402 C401 1.315 1_455 S
O403 Cd393 2.240 . S
O403 C401 1.279 1_455 S
O404 Cd394 2.297 . S
O404 C399 1.247 . S
O405 Cd394 2.439 . S
O405 C399 1.208 . S
O406 Cd407 2.223 . S
O406 C414 1.315 . S
Cd407 O406 2.223 . S
Cd407 O410 2.297 . S
Cd407 O411 2.439 . S
Cd407 O417 2.240 . S
Cd408 O409 2.240 . S
Cd408 O416 2.223 . S
Cd408 O418 2.297 . S
Cd408 O419 2.439 . S
O409 Cd408 2.240 . S
O409 C414 1.279 . S
O410 Cd407 2.297 . S
O410 C412 1.247 . S
O411 Cd407 2.439 . S
O411 C412 1.208 . S
C412 O410 1.247 . S
C412 O411 1.208 . S
C413 O418 1.247 . S
C413 O419 1.208 . S
C414 O406 1.315 . S
C414 O409 1.279 . S
C415 O416 1.315 . S
C415 O417 1.279 . S
O416 Cd408 2.223 . S
O416 C415 1.315 . S
O417 Cd407 2.240 . S
O417 C415 1.279 . S
O418 Cd408 2.297 . S
O418 C413 1.247 . S
O419 Cd408 2.439 . S
O419 C413 1.208 . S
O420 Cd421 2.223 . S
O420 C428 1.315 . S
Cd421 O420 2.223 . S
Cd421 O424 2.297 . S
Cd421 O425 2.439 . S
Cd421 O431 2.240 . S
Cd422 O423 2.240 . S
Cd422 O430 2.223 . S
Cd422 O432 2.297 . S
Cd422 O433 2.439 . S
O423 Cd422 2.240 . S
O423 C428 1.279 . S
O424 Cd421 2.297 . S
O424 C426 1.247 . S
O425 Cd421 2.439 . S
O425 C426 1.208 . S
C426 O424 1.247 . S
C426 O425 1.208 . S
C427 O432 1.247 . S
C427 O433 1.208 . S
C428 O420 1.315 . S
C428 O423 1.279 . S
C429 O430 1.315 1_655 S
C429 O431 1.279 1_655 S
O430 Cd422 2.223 . S
O430 C429 1.315 1_455 S
O431 Cd421 2.240 . S
O431 C429 1.279 1_455 S
O432 Cd422 2.297 . S
O432 C427 1.247 . S
O433 Cd422 2.439 . S
O433 C427 1.208 . S
O434 Cd435 2.223 . S
O434 C442 1.315 . S
Cd435 O434 2.223 . S
Cd435 O438 2.297 . S
Cd435 O439 2.439 . S
Cd435 O445 2.240 . S
Cd436 O437 2.240 . S
Cd436 O444 2.223 . S
Cd436 O446 2.297 . S
Cd436 O447 2.439 . S
O437 Cd436 2.240 . S
O437 C442 1.279 . S
O438 Cd435 2.297 . S
O438 C440 1.247 . S
O439 Cd435 2.439 . S
O439 C440 1.208 . S
C440 O438 1.247 . S
C440 O439 1.208 . S
C441 O446 1.247 . S
C441 O447 1.208 . S
C442 O434 1.315 . S
C442 O437 1.279 . S
C443 O444 1.315 . S
C443 O445 1.279 . S
O444 Cd436 2.223 . S
O444 C443 1.315 . S
O445 Cd435 2.240 . S
O445 C443 1.279 . S
O446 Cd436 2.297 . S
O446 C441 1.247 . S
O447 Cd436 2.439 . S
O447 C441 1.208 . S
H448 C456 0.929 . S
H449 C458 0.930 . S
H450 C460 0.930 . S
H451 C463 0.929 . S
H452 C466 0.930 . S
H453 C468 0.960 . S
H454 C468 0.960 . S
H455 C468 0.960 . S
C456 H448 0.929 . S
C456 C457 1.377 . S
C456 C458 1.384 . S
C457 C456 1.377 . S
C457 C463 1.390 . S
C458 H449 0.930 . S
C458 C456 1.384 . S
C458 C459 1.372 . S
C459 C458 1.372 . S
C459 C460 1.400 . S
C459 C464 1.490 . S
C460 H450 0.930 . S
C460 C459 1.400 . S
C460 C463 1.386 . S
H461 C477 0.930 . S
H462 C478 0.931 . S
C463 H451 0.929 . S
C463 C457 1.390 . S
C463 C460 1.386 . S
C464 C459 1.490 . S
C464 C466 1.395 . S
C464 C467 1.403 . S
H465 C471 0.930 . S
C466 H452 0.930 . S
C466 C464 1.395 . S
C466 C469 1.403 . S
C467 C464 1.403 . S
C467 C468 1.524 . S
C467 C471 1.400 . S
C468 H453 0.960 . S
C468 H454 0.960 . S
C468 H455 0.960 . S
C468 C467 1.524 . S
C469 C466 1.403 . S
C469 C470 1.392 . S
C469 C473 1.495 . S
C470 C469 1.392 . S
C470 C471 1.385 . S
C470 C472 1.478 . S
C471 H465 0.930 . S
C471 C467 1.400 . S
C471 C470 1.385 . S
C472 C470 1.478 . S
C472 C474 1.381 . S
C472 C478 1.383 . S
C473 C469 1.495 . S
C473 H479 0.959 . S
C473 H480 0.961 . S
C473 H481 0.960 . S
C474 C472 1.381 . S
C474 C475 1.394 . S
C474 H482 0.930 . S
C475 C474 1.394 . S
C475 C476 1.383 . S
C475 H483 0.929 . S
C476 C475 1.383 . S
C476 C477 1.377 . S
C477 H461 0.930 . S
C477 C476 1.377 . S
C477 C478 1.379 . S
C478 H462 0.931 . S
C478 C472 1.383 . S
C478 C477 1.379 . S
H479 C473 0.959 . S
H480 C473 0.961 . S
H481 C473 0.960 . S
H482 C474 0.930 . S
H483 C475 0.929 . S
H484 C492 0.929 . S
H485 C494 0.930 . S
H486 C496 0.930 . S
H487 C499 0.929 . S
H488 C502 0.930 . S
H489 C504 0.960 . S
H490 C504 0.960 . S
H491 C504 0.960 . S
C492 H484 0.929 . S
C492 C493 1.377 . S
C492 C494 1.384 . S
C493 C492 1.377 . S
C493 C499 1.390 . S
C494 H485 0.930 . S
C494 C492 1.384 . S
C494 C495 1.372 . S
C495 C494 1.372 . S
C495 C496 1.400 . S
C495 C500 1.490 . S
C496 H486 0.930 . S
C496 C495 1.400 . S
C496 C499 1.386 . S
H497 C513 0.930 . S
H498 C514 0.931 . S
C499 H487 0.929 . S
C499 C493 1.390 . S
C499 C496 1.386 . S
C500 C495 1.490 . S
C500 C502 1.395 . S
C500 C503 1.403 . S
H501 C507 0.930 . S
C502 H488 0.930 . S
C502 C500 1.395 . S
C502 C505 1.403 . S
C503 C500 1.403 . S
C503 C504 1.524 . S
C503 C507 1.400 . S
C504 H489 0.960 . S
C504 H490 0.960 . S
C504 H491 0.960 . S
C504 C503 1.524 . S
C505 C502 1.403 . S
C505 C506 1.392 . S
C505 C509 1.495 . S
C506 C505 1.392 . S
C506 C507 1.385 . S
C506 C508 1.478 . S
C507 H501 0.930 . S
C507 C503 1.400 . S
C507 C506 1.385 . S
C508 C506 1.478 . S
C508 C510 1.381 . S
C508 C514 1.383 . S
C509 C505 1.495 . S
C509 H515 0.959 . S
C509 H516 0.961 . S
C509 H517 0.960 . S
C510 C508 1.381 . S
C510 C511 1.394 . S
C510 H518 0.930 . S
C511 C510 1.394 . S
C511 C512 1.383 . S
C511 H519 0.929 . S
C512 C511 1.383 . S
C512 C513 1.377 . S
C513 H497 0.930 . S
C513 C512 1.377 . S
C513 C514 1.379 . S
C514 H498 0.931 . S
C514 C508 1.383 . S
C514 C513 1.379 . S
H515 C509 0.959 . S
H516 C509 0.961 . S
H517 C509 0.960 . S
H518 C510 0.930 . S
H519 C511 0.929 . S
H520 C528 0.929 . S
H521 C530 0.930 . S
H522 C532 0.930 . S
H523 C535 0.929 . S
H524 C538 0.930 . S
H525 C540 0.960 . S
H526 C540 0.960 . S
H527 C540 0.960 . S
C528 H520 0.929 . S
C528 C529 1.377 . S
C528 C530 1.384 . S
C529 C528 1.377 . S
C529 C535 1.390 . S
C530 H521 0.930 . S
C530 C528 1.384 . S
C530 C531 1.372 . S
C531 C530 1.372 . S
C531 C532 1.400 . S
C531 C536 1.490 . S
C532 H522 0.930 . S
C532 C531 1.400 . S
C532 C535 1.386 . S
H533 C549 0.930 . S
H534 C550 0.931 . S
C535 H523 0.929 . S
C535 C529 1.390 . S
C535 C532 1.386 . S
C536 C531 1.490 . S
C536 C538 1.395 . S
C536 C539 1.403 . S
H537 C543 0.930 . S
C538 H524 0.930 . S
C538 C536 1.395 . S
C538 C541 1.403 . S
C539 C536 1.403 . S
C539 C540 1.524 . S
C539 C543 1.400 . S
C540 H525 0.960 . S
C540 H526 0.960 . S
C540 H527 0.960 . S
C540 C539 1.524 . S
C541 C538 1.403 . S
C541 C542 1.392 . S
C541 C545 1.495 . S
C542 C541 1.392 . S
C542 C543 1.385 . S
C542 C544 1.478 . S
C543 H537 0.930 . S
C543 C539 1.400 . S
C543 C542 1.385 . S
C544 C542 1.478 . S
C544 C546 1.381 . S
C544 C550 1.383 . S
C545 C541 1.495 . S
C545 H551 0.959 . S
C545 H552 0.961 . S
C545 H553 0.960 . S
C546 C544 1.381 . S
C546 C547 1.394 . S
C546 H554 0.930 . S
C547 C546 1.394 . S
C547 C548 1.383 . S
C547 H555 0.929 . S
C548 C547 1.383 . S
C548 C549 1.377 . S
C549 H533 0.930 . S
C549 C548 1.377 . S
C549 C550 1.379 . S
C550 H534 0.931 . S
C550 C544 1.383 . S
C550 C549 1.379 . S
H551 C545 0.959 . S
H552 C545 0.961 . S
H553 C545 0.960 . S
H554 C546 0.930 . S
H555 C547 0.929 . S
H556 C564 0.929 . S
H557 C566 0.930 . S
H558 C568 0.930 . S
H559 C571 0.929 . S
H560 C574 0.930 . S
H561 C576 0.960 . S
H562 C576 0.960 . S
H563 C576 0.960 . S
C564 H556 0.929 . S
C564 C565 1.377 . S
C564 C566 1.384 . S
C565 C564 1.377 . S
C565 C571 1.390 . S
C566 H557 0.930 . S
C566 C564 1.384 . S
C566 C567 1.372 . S
C567 C566 1.372 . S
C567 C568 1.400 . S
C567 C572 1.490 . S
C568 H558 0.930 . S
C568 C567 1.400 . S
C568 C571 1.386 . S
H569 C585 0.930 . S
H570 C586 0.931 . S
C571 H559 0.929 . S
C571 C565 1.390 . S
C571 C568 1.386 . S
C572 C567 1.490 . S
C572 C574 1.395 . S
C572 C575 1.403 . S
H573 C579 0.930 . S
C574 H560 0.930 . S
C574 C572 1.395 . S
C574 C577 1.403 . S
C575 C572 1.403 . S
C575 C576 1.524 . S
C575 C579 1.400 . S
C576 H561 0.960 . S
C576 H562 0.960 . S
C576 H563 0.960 . S
C576 C575 1.524 . S
C577 C574 1.403 . S
C577 C578 1.392 . S
C577 C581 1.495 . S
C578 C577 1.392 . S
C578 C579 1.385 . S
C578 C580 1.478 . S
C579 H573 0.930 . S
C579 C575 1.400 . S
C579 C578 1.385 . S
C580 C578 1.478 . S
C580 C582 1.381 . S
C580 C586 1.383 . S
C581 C577 1.495 . S
C581 H587 0.959 . S
C581 H588 0.961 . S
C581 H589 0.960 . S
C582 C580 1.381 . S
C582 C583 1.394 . S
C582 H590 0.930 . S
C583 C582 1.394 . S
C583 C584 1.383 . S
C583 H591 0.929 . S
C584 C583 1.383 . S
C584 C585 1.377 . S
C585 H569 0.930 . S
C585 C584 1.377 . S
C585 C586 1.379 . S
C586 H570 0.931 . S
C586 C580 1.383 . S
C586 C585 1.379 . S
H587 C581 0.959 . S
H588 C581 0.961 . S
H589 C581 0.960 . S
H590 C582 0.930 . S
H591 C583 0.929 . S
H592 C600 0.929 . S
H593 C602 0.930 . S
H594 C604 0.930 . S
H595 C607 0.929 . S
H596 C610 0.930 . S
H597 C612 0.960 . S
H598 C612 0.960 . S
H599 C612 0.960 . S
C600 H592 0.929 . S
C600 C601 1.377 . S
C600 C602 1.384 . S
C601 C600 1.377 . S
C601 C607 1.390 . S
C602 H593 0.930 . S
C602 C600 1.384 . S
C602 C603 1.372 . S
C603 C602 1.372 . S
C603 C604 1.400 . S
C603 C608 1.490 . S
C604 H594 0.930 . S
C604 C603 1.400 . S
C604 C607 1.386 . S
H605 C621 0.930 . S
H606 C622 0.931 . S
C607 H595 0.929 . S
C607 C601 1.390 . S
C607 C604 1.386 . S
C608 C603 1.490 . S
C608 C610 1.395 . S
C608 C611 1.403 . S
H609 C615 0.930 . S
C610 H596 0.930 . S
C610 C608 1.395 . S
C610 C613 1.403 . S
C611 C608 1.403 . S
C611 C612 1.524 . S
C611 C615 1.400 . S
C612 H597 0.960 . S
C612 H598 0.960 . S
C612 H599 0.960 . S
C612 C611 1.524 . S
C613 C610 1.403 . S
C613 C614 1.392 . S
C613 C617 1.495 . S
C614 C613 1.392 . S
C614 C615 1.385 . S
C614 C616 1.478 . S
C615 H609 0.930 . S
C615 C611 1.400 . S
C615 C614 1.385 . S
C616 C614 1.478 . S
C616 C618 1.381 . S
C616 C622 1.383 . S
C617 C613 1.495 . S
C617 H623 0.959 . S
C617 H624 0.961 . S
C617 H625 0.960 . S
C618 C616 1.381 . S
C618 C619 1.394 . S
C618 H626 0.930 . S
C619 C618 1.394 . S
C619 C620 1.383 . S
C619 H627 0.929 . S
C620 C619 1.383 . S
C620 C621 1.377 . S
C621 H605 0.930 . S
C621 C620 1.377 . S
C621 C622 1.379 . S
C622 H606 0.931 . S
C622 C616 1.383 . S
C622 C621 1.379 . S
H623 C617 0.959 . S
H624 C617 0.961 . S
H625 C617 0.960 . S
H626 C618 0.930 . S
H627 C619 0.929 . S
H628 C636 0.929 . S
H629 C638 0.930 . S
H630 C640 0.930 . S
H631 C643 0.929 . S
H632 C646 0.930 . S
H633 C648 0.960 . S
H634 C648 0.960 . S
H635 C648 0.960 . S
C636 H628 0.929 . S
C636 C637 1.377 . S
C636 C638 1.384 . S
C637 C636 1.377 . S
C637 C643 1.390 . S
C638 H629 0.930 . S
C638 C636 1.384 . S
C638 C639 1.372 . S
C639 C638 1.372 . S
C639 C640 1.400 . S
C639 C644 1.490 . S
C640 H630 0.930 . S
C640 C639 1.400 . S
C640 C643 1.386 . S
H641 C657 0.930 . S
H642 C658 0.931 . S
C643 H631 0.929 . S
C643 C637 1.390 . S
C643 C640 1.386 . S
C644 C639 1.490 . S
C644 C646 1.395 . S
C644 C647 1.403 . S
H645 C651 0.930 . S
C646 H632 0.930 . S
C646 C644 1.395 . S
C646 C649 1.403 . S
C647 C644 1.403 . S
C647 C648 1.524 . S
C647 C651 1.400 . S
C648 H633 0.960 . S
C648 H634 0.960 . S
C648 H635 0.960 . S
C648 C647 1.524 . S
C649 C646 1.403 . S
C649 C650 1.392 . S
C649 C653 1.495 . S
C650 C649 1.392 . S
C650 C651 1.385 . S
C650 C652 1.478 . S
C651 H645 0.930 . S
C651 C647 1.400 . S
C651 C650 1.385 . S
C652 C650 1.478 . S
C652 C654 1.381 . S
C652 C658 1.383 . S
C653 C649 1.495 . S
C653 H659 0.959 . S
C653 H660 0.961 . S
C653 H661 0.960 . S
C654 C652 1.381 . S
C654 C655 1.394 . S
C654 H662 0.930 . S
C655 C654 1.394 . S
C655 C656 1.383 . S
C655 H663 0.929 . S
C656 C655 1.383 . S
C656 C657 1.377 . S
C657 H641 0.930 . S
C657 C656 1.377 . S
C657 C658 1.379 . S
C658 H642 0.931 . S
C658 C652 1.383 . S
C658 C657 1.379 . S
H659 C653 0.959 . S
H660 C653 0.961 . S
H661 C653 0.960 . S
H662 C654 0.930 . S
H663 C655 0.929 . S
H664 C672 0.929 . S
H665 C674 0.930 . S
H666 C676 0.930 . S
H667 C679 0.929 . S
H668 C682 0.930 . S
H669 C684 0.960 . S
H670 C684 0.960 . S
H671 C684 0.960 . S
C672 H664 0.929 . S
C672 C673 1.377 . S
C672 C674 1.384 . S
C673 C672 1.377 . S
C673 C679 1.390 . S
C674 H665 0.930 . S
C674 C672 1.384 . S
C674 C675 1.372 . S
C675 C674 1.372 . S
C675 C676 1.400 . S
C675 C680 1.490 . S
C676 H666 0.930 . S
C676 C675 1.400 . S
C676 C679 1.386 . S
H677 C693 0.930 . S
H678 C694 0.931 . S
C679 H667 0.929 . S
C679 C673 1.390 . S
C679 C676 1.386 . S
C680 C675 1.490 . S
C680 C682 1.395 . S
C680 C683 1.403 . S
H681 C687 0.930 . S
C682 H668 0.930 . S
C682 C680 1.395 . S
C682 C685 1.403 . S
C683 C680 1.403 . S
C683 C684 1.524 . S
C683 C687 1.400 . S
C684 H669 0.960 . S
C684 H670 0.960 . S
C684 H671 0.960 . S
C684 C683 1.524 . S
C685 C682 1.403 . S
C685 C686 1.392 . S
C685 C689 1.495 . S
C686 C685 1.392 . S
C686 C687 1.385 . S
C686 C688 1.478 . S
C687 H681 0.930 . S
C687 C683 1.400 . S
C687 C686 1.385 . S
C688 C686 1.478 . S
C688 C690 1.381 . S
C688 C694 1.383 . S
C689 C685 1.495 . S
C689 H695 0.959 . S
C689 H696 0.961 . S
C689 H697 0.960 . S
C690 C688 1.381 . S
C690 C691 1.394 . S
C690 H698 0.930 . S
C691 C690 1.394 . S
C691 C692 1.383 . S
C691 H699 0.929 . S
C692 C691 1.383 . S
C692 C693 1.377 . S
C693 H677 0.930 . S
C693 C692 1.377 . S
C693 C694 1.379 . S
C694 H678 0.931 . S
C694 C688 1.383 . S
C694 C693 1.379 . S
H695 C689 0.959 . S
H696 C689 0.961 . S
H697 C689 0.960 . S
H698 C690 0.930 . S
H699 C691 0.929 . S
H700 C708 0.929 . S
H701 C710 0.930 . S
H702 C712 0.930 . S
H703 C715 0.929 . S
H704 C718 0.930 . S
H705 C720 0.960 . S
H706 C720 0.960 . S
H707 C720 0.960 . S
C708 H700 0.929 . S
C708 C709 1.377 . S
C708 C710 1.384 . S
C709 C708 1.377 . S
C709 C715 1.390 . S
C710 H701 0.930 . S
C710 C708 1.384 . S
C710 C711 1.372 . S
C711 C710 1.372 . S
C711 C712 1.400 . S
C711 C716 1.490 . S
C712 H702 0.930 . S
C712 C711 1.400 . S
C712 C715 1.386 . S
H713 C729 0.930 . S
H714 C730 0.931 . S
C715 H703 0.929 . S
C715 C709 1.390 . S
C715 C712 1.386 . S
C716 C711 1.490 . S
C716 C718 1.395 . S
C716 C719 1.403 . S
H717 C723 0.930 . S
C718 H704 0.930 . S
C718 C716 1.395 . S
C718 C721 1.403 . S
C719 C716 1.403 . S
C719 C720 1.524 . S
C719 C723 1.400 . S
C720 H705 0.960 . S
C720 H706 0.960 . S
C720 H707 0.960 . S
C720 C719 1.524 . S
C721 C718 1.403 . S
C721 C722 1.392 . S
C721 C725 1.495 . S
C722 C721 1.392 . S
C722 C723 1.385 . S
C722 C724 1.478 . S
C723 H717 0.930 . S
C723 C719 1.400 . S
C723 C722 1.385 . S
C724 C722 1.478 . S
C724 C726 1.381 . S
C724 C730 1.383 . S
C725 C721 1.495 . S
C725 H731 0.959 . S
C725 H732 0.961 . S
C725 H733 0.960 . S
C726 C724 1.381 . S
C726 C727 1.394 . S
C726 H734 0.930 . S
C727 C726 1.394 . S
C727 C728 1.383 . S
C727 H735 0.929 . S
C728 C727 1.383 . S
C728 C729 1.377 . S
C729 H713 0.930 . S
C729 C728 1.377 . S
C729 C730 1.379 . S
C730 H714 0.931 . S
C730 C724 1.383 . S
C730 C729 1.379 . S
H731 C725 0.959 . S
H732 C725 0.961 . S
H733 C725 0.960 . S
H734 C726 0.930 . S
H735 C727 0.929 . S
H736 C744 0.929 . S
H737 C746 0.930 . S
H738 C748 0.930 . S
H739 C751 0.929 . S
H740 C754 0.930 . S
H741 C756 0.960 1_455 S
H742 C756 0.976 . S
H743 C756 0.960 . S
C744 H736 0.929 . S
C744 C745 1.377 . S
C744 C746 1.384 . S
C745 C744 1.377 . S
C745 C751 1.390 . S
C746 H737 0.930 . S
C746 C744 1.384 . S
C746 C747 1.372 . S
C747 C746 1.372 . S
C747 C748 1.400 . S
C747 C752 1.490 . S
C748 H738 0.930 . S
C748 C747 1.400 . S
C748 C751 1.386 . S
H749 C765 0.930 . S
H750 C766 0.931 . S
C751 H739 0.929 . S
C751 C745 1.390 . S
C751 C748 1.386 . S
C752 C747 1.490 . S
C752 C754 1.395 . S
C752 C755 1.403 . S
H753 C759 0.930 . S
C754 H740 0.930 . S
C754 C752 1.395 . S
C754 C757 1.403 . S
C755 C752 1.403 . S
C755 C756 1.524 . S
C755 C759 1.400 . S
C756 H741 0.960 1_655 S
C756 H742 0.976 . S
C756 H743 0.960 . S
C756 C755 1.524 . S
C757 C754 1.403 . S
C757 C758 1.392 . S
C757 C761 1.495 . S
C758 C757 1.392 . S
C758 C759 1.385 . S
C758 C760 1.478 . S
C759 H753 0.930 . S
C759 C755 1.400 . S
C759 C758 1.385 . S
C760 C758 1.478 . S
C760 C762 1.381 . S
C760 C766 1.383 . S
C761 C757 1.495 . S
C761 H767 0.959 . S
C761 H768 0.961 . S
C761 H769 0.960 . S
C762 C760 1.381 . S
C762 C763 1.394 . S
C762 H770 0.930 . S
C763 C762 1.394 . S
C763 C764 1.383 . S
C763 H771 0.929 . S
C764 C763 1.383 . S
C764 C765 1.377 . S
C765 H749 0.930 . S
C765 C764 1.377 . S
C765 C766 1.379 . S
C766 H750 0.931 . S
C766 C760 1.383 . S
C766 C765 1.379 . S
H767 C761 0.959 . S
H768 C761 0.961 . S
H769 C761 0.960 . S
H770 C762 0.930 . S
H771 C763 0.929 . S
H772 C780 0.929 . S
H773 C782 0.930 . S
H774 C784 0.930 . S
H775 C787 0.929 . S
H776 C790 0.930 . S
H777 C792 0.960 . S
H778 C792 0.960 . S
H779 C792 0.960 . S
C780 H772 0.929 . S
C780 C781 1.377 . S
C780 C782 1.384 . S
C781 C780 1.377 . S
C781 C787 1.390 . S
C782 H773 0.930 . S
C782 C780 1.384 . S
C782 C783 1.372 . S
C783 C782 1.372 . S
C783 C784 1.400 . S
C783 C788 1.490 . S
C784 H774 0.930 . S
C784 C783 1.400 . S
C784 C787 1.386 . S
H785 C801 0.930 . S
H786 C802 0.931 . S
C787 H775 0.929 . S
C787 C781 1.390 . S
C787 C784 1.386 . S
C788 C783 1.490 . S
C788 C790 1.395 . S
C788 C791 1.403 . S
H789 C795 0.930 . S
C790 H776 0.930 . S
C790 C788 1.395 . S
C790 C793 1.403 . S
C791 C788 1.403 . S
C791 C792 1.524 . S
C791 C795 1.400 . S
C792 H777 0.960 . S
C792 H778 0.960 . S
C792 H779 0.960 . S
C792 C791 1.524 . S
C793 C790 1.403 . S
C793 C794 1.392 . S
C793 C797 1.495 . S
C794 C793 1.392 . S
C794 C795 1.385 . S
C794 C796 1.478 . S
C795 H789 0.930 . S
C795 C791 1.400 . S
C795 C794 1.385 . S
C796 C794 1.478 . S
C796 C798 1.381 . S
C796 C802 1.383 . S
C797 C793 1.495 . S
C797 H803 0.959 . S
C797 H804 0.961 . S
C797 H805 0.960 . S
C798 C796 1.381 . S
C798 C799 1.394 . S
C798 H806 0.930 . S
C799 C798 1.394 . S
C799 C800 1.383 . S
C799 H807 0.929 . S
C800 C799 1.383 . S
C800 C801 1.377 . S
C801 H785 0.930 . S
C801 C800 1.377 . S
C801 C802 1.379 . S
C802 H786 0.931 . S
C802 C796 1.383 . S
C802 C801 1.379 . S
H803 C797 0.959 . S
H804 C797 0.961 . S
H805 C797 0.960 . S
H806 C798 0.930 . S
H807 C799 0.929 . S
H808 C816 0.929 . S
H809 C818 0.930 . S
H810 C820 0.930 . S
H811 C823 0.929 . S
H812 C826 0.930 . S
H813 C828 0.960 . S
H814 C828 0.960 . S
H815 C828 0.960 . S
C816 H808 0.929 . S
C816 C817 1.377 . S
C816 C818 1.384 . S
C817 C816 1.377 . S
C817 C823 1.390 . S
C818 H809 0.930 . S
C818 C816 1.384 . S
C818 C819 1.372 . S
C819 C818 1.372 . S
C819 C820 1.400 . S
C819 C824 1.490 . S
C820 H810 0.930 . S
C820 C819 1.400 . S
C820 C823 1.386 . S
H821 C837 0.930 . S
H822 C838 0.931 . S
C823 H811 0.929 . S
C823 C817 1.390 . S
C823 C820 1.386 . S
C824 C819 1.490 . S
C824 C826 1.395 . S
C824 C827 1.403 . S
H825 C831 0.930 . S
C826 H812 0.930 . S
C826 C824 1.395 . S
C826 C829 1.403 . S
C827 C824 1.403 . S
C827 C828 1.524 . S
C827 C831 1.400 . S
C828 H813 0.960 . S
C828 H814 0.960 . S
C828 H815 0.960 . S
C828 C827 1.524 . S
C829 C826 1.403 . S
C829 C830 1.392 . S
C829 C833 1.495 . S
C830 C829 1.392 . S
C830 C831 1.385 . S
C830 C832 1.478 . S
C831 H825 0.930 . S
C831 C827 1.400 . S
C831 C830 1.385 . S
C832 C830 1.478 . S
C832 C834 1.381 . S
C832 C838 1.383 . S
C833 C829 1.495 . S
C833 H839 0.959 . S
C833 H840 0.961 . S
C833 H841 0.960 . S
C834 C832 1.381 . S
C834 C835 1.394 . S
C834 H842 0.930 . S
C835 C834 1.394 . S
C835 C836 1.383 . S
C835 H843 0.929 . S
C836 C835 1.383 . S
C836 C837 1.377 . S
C837 H821 0.930 . S
C837 C836 1.377 . S
C837 C838 1.379 . S
C838 H822 0.931 . S
C838 C832 1.383 . S
C838 C837 1.379 . S
H839 C833 0.959 . S
H840 C833 0.961 . S
H841 C833 0.960 . S
H842 C834 0.930 . S
H843 C835 0.929 . S
H844 C852 0.929 . S
H845 C854 0.930 . S
H846 C856 0.930 . S
H847 C859 0.929 . S
H848 C862 0.930 . S
H849 C864 0.960 . S
H850 C864 0.960 . S
H851 C864 0.960 . S
C852 H844 0.929 . S
C852 C853 1.377 . S
C852 C854 1.384 . S
C853 C852 1.377 . S
C853 C859 1.390 . S
C854 H845 0.930 . S
C854 C852 1.384 . S
C854 C855 1.372 . S
C855 C854 1.372 . S
C855 C856 1.400 . S
C855 C860 1.490 . S
C856 H846 0.930 . S
C856 C855 1.400 . S
C856 C859 1.386 . S
H857 C873 0.930 . S
H858 C874 0.931 . S
C859 H847 0.929 . S
C859 C853 1.390 . S
C859 C856 1.386 . S
C860 C855 1.490 . S
C860 C862 1.395 . S
C860 C863 1.403 . S
H861 C867 0.930 . S
C862 H848 0.930 . S
C862 C860 1.395 . S
C862 C865 1.403 . S
C863 C860 1.403 . S
C863 C864 1.524 . S
C863 C867 1.400 . S
C864 H849 0.960 . S
C864 H850 0.960 . S
C864 H851 0.960 . S
C864 C863 1.524 . S
C865 C862 1.403 . S
C865 C866 1.392 . S
C865 C869 1.495 . S
C866 C865 1.392 . S
C866 C867 1.385 . S
C866 C868 1.478 . S
C867 H861 0.930 . S
C867 C863 1.400 . S
C867 C866 1.385 . S
C868 C866 1.478 . S
C868 C870 1.381 . S
C868 C874 1.383 . S
C869 C865 1.495 . S
C869 H875 0.959 . S
C869 H876 0.961 . S
C869 H877 0.960 . S
C870 C868 1.381 . S
C870 C871 1.394 . S
C870 H878 0.930 . S
C871 C870 1.394 . S
C871 C872 1.383 . S
C871 H879 0.929 . S
C872 C871 1.383 . S
C872 C873 1.377 . S
C873 H857 0.930 . S
C873 C872 1.377 . S
C873 C874 1.379 . S
C874 H858 0.931 . S
C874 C868 1.383 . S
C874 C873 1.379 . S
H875 C869 0.959 . S
H876 C869 0.961 . S
H877 C869 0.960 . S
H878 C870 0.930 . S
H879 C871 0.929 . S
H880 C888 0.929 . S
H881 C890 0.930 . S
H882 C892 0.930 . S
H883 C895 0.929 . S
H884 C898 0.930 . S
H885 C900 0.960 1_455 S
H886 C900 0.960 . S
H887 C900 0.960 . S
C888 H880 0.929 . S
C888 C889 1.377 . S
C888 C890 1.384 . S
C889 C888 1.377 . S
C889 C895 1.390 . S
C890 H881 0.930 . S
C890 C888 1.384 . S
C890 C891 1.372 . S
C891 C890 1.372 . S
C891 C892 1.400 . S
C891 C896 1.490 . S
C892 H882 0.930 . S
C892 C891 1.400 . S
C892 C895 1.386 . S
H893 C909 0.930 . S
H894 C910 0.931 . S
C895 H883 0.929 . S
C895 C889 1.390 . S
C895 C892 1.386 . S
C896 C891 1.490 . S
C896 C898 1.395 . S
C896 C899 1.403 . S
H897 C903 0.930 . S
C898 H884 0.930 . S
C898 C896 1.395 . S
C898 C901 1.403 . S
C899 C896 1.403 . S
C899 C900 1.524 . S
C899 C903 1.400 . S
C900 H885 0.960 1_655 S
C900 H886 0.960 . S
C900 H887 0.960 . S
C900 C899 1.524 . S
C901 C898 1.403 . S
C901 C902 1.392 . S
C901 C905 1.495 . S
C902 C901 1.392 . S
C902 C903 1.385 . S
C902 C904 1.478 . S
C903 H897 0.930 . S
C903 C899 1.400 . S
C903 C902 1.385 . S
C904 C902 1.478 . S
C904 C906 1.381 . S
C904 C910 1.383 . S
C905 C901 1.495 . S
C905 H911 0.959 . S
C905 H912 0.961 . S
C905 H913 0.960 . S
C906 C904 1.381 . S
C906 C907 1.394 . S
C906 H914 0.930 . S
C907 C906 1.394 . S
C907 C908 1.383 . S
C907 H915 0.929 . S
C908 C907 1.383 . S
C908 C909 1.377 . S
C909 H893 0.930 . S
C909 C908 1.377 . S
C909 C910 1.379 . S
C910 H894 0.931 . S
C910 C904 1.383 . S
C910 C909 1.379 . S
H911 C905 0.959 . S
H912 C905 0.961 . S
H913 C905 0.960 . S
H914 C906 0.930 . S
H915 C907 0.929 . S
H916 C924 0.929 . S
H917 C926 0.930 . S
H918 C928 0.930 . S
H919 C931 0.929 . S
H920 C934 0.930 . S
H921 C936 0.960 . S
H922 C936 0.960 . S
H923 C936 0.960 . S
C924 H916 0.929 . S
C924 C925 1.377 . S
C924 C926 1.384 . S
C925 C924 1.377 . S
C925 C931 1.390 . S
C926 H917 0.930 . S
C926 C924 1.384 . S
C926 C927 1.372 . S
C927 C926 1.372 . S
C927 C928 1.400 . S
C927 C932 1.490 . S
C928 H918 0.930 . S
C928 C927 1.400 . S
C928 C931 1.386 . S
H929 C945 0.930 . S
H930 C946 0.931 . S
C931 H919 0.929 . S
C931 C925 1.390 . S
C931 C928 1.386 . S
C932 C927 1.490 . S
C932 C934 1.395 . S
C932 C935 1.403 . S
H933 C939 0.930 . S
C934 H920 0.930 . S
C934 C932 1.395 . S
C934 C937 1.403 . S
C935 C932 1.403 . S
C935 C936 1.524 . S
C935 C939 1.400 . S
C936 H921 0.960 . S
C936 H922 0.960 . S
C936 H923 0.960 . S
C936 C935 1.524 . S
C937 C934 1.403 . S
C937 C938 1.392 . S
C937 C941 1.495 . S
C938 C937 1.392 . S
C938 C939 1.385 . S
C938 C940 1.478 . S
C939 H933 0.930 . S
C939 C935 1.400 . S
C939 C938 1.385 . S
C940 C938 1.478 . S
C940 C942 1.381 . S
C940 C946 1.383 . S
C941 C937 1.495 . S
C941 H947 0.959 . S
C941 H948 0.961 . S
C941 H949 0.960 . S
C942 C940 1.381 . S
C942 C943 1.394 . S
C942 H950 0.930 . S
C943 C942 1.394 . S
C943 C944 1.383 . S
C943 H951 0.929 . S
C944 C943 1.383 . S
C944 C945 1.377 . S
C945 H929 0.930 . S
C945 C944 1.377 . S
C945 C946 1.379 . S
C946 H930 0.931 . S
C946 C940 1.383 . S
C946 C945 1.379 . S
H947 C941 0.959 . S
H948 C941 0.961 . S
H949 C941 0.960 . S
H950 C942 0.930 . S
H951 C943 0.929 . S
H952 C960 0.929 . S
H953 C962 0.930 . S
H954 C964 0.930 . S
H955 C967 0.929 . S
H956 C970 0.930 . S
H957 C972 0.960 . S
H958 C972 0.960 . S
H959 C972 0.960 . S
C960 H952 0.929 . S
C960 C961 1.377 . S
C960 C962 1.384 . S
C961 C960 1.377 . S
C961 C967 1.390 . S
C962 H953 0.930 . S
C962 C960 1.384 . S
C962 C963 1.372 . S
C963 C962 1.372 . S
C963 C964 1.400 . S
C963 C968 1.490 . S
C964 H954 0.930 . S
C964 C963 1.400 . S
C964 C967 1.386 . S
H965 C981 0.930 . S
H966 C982 0.931 . S
C967 H955 0.929 . S
C967 C961 1.390 . S
C967 C964 1.386 . S
C968 C963 1.490 . S
C968 C970 1.395 . S
C968 C971 1.403 . S
H969 C975 0.930 . S
C970 H956 0.930 . S
C970 C968 1.395 . S
C970 C973 1.403 . S
C971 C968 1.403 . S
C971 C972 1.524 . S
C971 C975 1.400 . S
C972 H957 0.960 . S
C972 H958 0.960 . S
C972 H959 0.960 . S
C972 C971 1.524 . S
C973 C970 1.403 . S
C973 C974 1.392 . S
C973 C977 1.495 . S
C974 C973 1.392 . S
C974 C975 1.385 . S
C974 C976 1.478 . S
C975 H969 0.930 . S
C975 C971 1.400 . S
C975 C974 1.385 . S
C976 C974 1.478 . S
C976 C978 1.381 . S
C976 C982 1.383 . S
C977 C973 1.495 . S
C977 H983 0.959 1_455 S
C977 H984 0.961 . S
C977 H985 0.960 1_455 S
C978 C976 1.381 . S
C978 C979 1.394 . S
C978 H986 0.930 . S
C979 C978 1.394 . S
C979 C980 1.383 . S
C979 H987 0.929 . S
C980 C979 1.383 . S
C980 C981 1.377 . S
C981 H965 0.930 . S
C981 C980 1.377 . S
C981 C982 1.379 . S
C982 H966 0.931 . S
C982 C976 1.383 . S
C982 C981 1.379 . S
H983 C977 0.959 1_655 S
H984 C977 0.961 . S
H985 C977 0.960 1_655 S
H986 C978 0.930 . S
H987 C979 0.929 . S
H988 C996 0.929 . S
H989 C998 0.930 . S
H990 C1000 0.930 . S
H991 C1003 0.929 . S
H992 C1006 0.930 . S
H993 C1008 0.960 . S
H994 C1008 0.960 . S
H995 C1008 0.960 . S
C996 H988 0.929 . S
C996 C997 1.377 . S
C996 C998 1.384 . S
C997 C996 1.377 . S
C997 C1003 1.390 . S
C998 H989 0.930 . S
C998 C996 1.384 . S
C998 C999 1.372 . S
C999 C998 1.372 . S
C999 C1000 1.400 . S
C999 C1004 1.490 . S
C1000 H990 0.930 . S
C1000 C999 1.400 . S
C1000 C1003 1.386 . S
H1001 C1017 0.930 . S
H1002 C1018 0.931 . S
C1003 H991 0.929 . S
C1003 C997 1.390 . S
C1003 C1000 1.386 . S
C1004 C999 1.490 . S
C1004 C1006 1.395 . S
C1004 C1007 1.403 . S
H1005 C1011 0.930 . S
C1006 H992 0.930 . S
C1006 C1004 1.395 . S
C1006 C1009 1.403 . S
C1007 C1004 1.403 . S
C1007 C1008 1.524 . S
C1007 C1011 1.400 . S
C1008 H993 0.960 . S
C1008 H994 0.960 . S
C1008 H995 0.960 . S
C1008 C1007 1.524 . S
C1009 C1006 1.403 . S
C1009 C1010 1.392 . S
C1009 C1013 1.495 . S
C1010 C1009 1.392 . S
C1010 C1011 1.385 . S
C1010 C1012 1.478 . S
C1011 H1005 0.930 . S
C1011 C1007 1.400 . S
C1011 C1010 1.385 . S
C1012 C1010 1.478 . S
C1012 C1014 1.381 . S
C1012 C1018 1.383 . S
C1013 C1009 1.495 . S
C1013 H1019 0.959 . S
C1013 H1020 0.961 . S
C1013 H1021 0.960 . S
C1014 C1012 1.381 . S
C1014 C1015 1.394 . S
C1014 H1022 0.930 . S
C1015 C1014 1.394 . S
C1015 C1016 1.383 . S
C1015 H1023 0.929 . S
C1016 C1015 1.383 . S
C1016 C1017 1.377 . S
C1017 H1001 0.930 . S
C1017 C1016 1.377 . S
C1017 C1018 1.379 . S
C1018 H1002 0.931 . S
C1018 C1012 1.383 . S
C1018 C1017 1.379 . S
H1019 C1013 0.959 . S
H1020 C1013 0.961 . S
H1021 C1013 0.960 . S
H1022 C1014 0.930 . S
H1023 C1015 0.929 . S
H1024 C1032 0.929 . S
H1025 C1034 0.930 . S
H1026 C1036 0.930 . S
H1027 C1039 0.929 . S
H1028 C1042 0.930 . S
H1029 C1044 0.960 . S
H1030 C1044 0.960 . S
H1031 C1044 0.960 . S
C1032 H1024 0.929 . S
C1032 C1033 1.377 . S
C1032 C1034 1.384 . S
C1033 C1032 1.377 . S
C1033 C1039 1.390 . S
C1034 H1025 0.930 . S
C1034 C1032 1.384 . S
C1034 C1035 1.372 . S
C1035 C1034 1.372 . S
C1035 C1036 1.400 . S
C1035 C1040 1.490 . S
C1036 H1026 0.930 . S
C1036 C1035 1.400 . S
C1036 C1039 1.386 . S
H1037 C1053 0.930 . S
H1038 C1054 0.931 . S
C1039 H1027 0.929 . S
C1039 C1033 1.390 . S
C1039 C1036 1.386 . S
C1040 C1035 1.490 . S
C1040 C1042 1.395 . S
C1040 C1043 1.403 . S
H1041 C1047 0.930 . S
C1042 H1028 0.930 . S
C1042 C1040 1.395 . S
C1042 C1045 1.403 . S
C1043 C1040 1.403 . S
C1043 C1044 1.524 . S
C1043 C1047 1.400 . S
C1044 H1029 0.960 . S
C1044 H1030 0.960 . S
C1044 H1031 0.960 . S
C1044 C1043 1.524 . S
C1045 C1042 1.403 . S
C1045 C1046 1.392 . S
C1045 C1049 1.495 . S
C1046 C1045 1.392 . S
C1046 C1047 1.385 . S
C1046 C1048 1.478 . S
C1047 H1041 0.930 . S
C1047 C1043 1.400 . S
C1047 C1046 1.385 . S
C1048 C1046 1.478 . S
C1048 C1050 1.381 . S
C1048 C1054 1.383 . S
C1049 C1045 1.495 . S
C1049 H1055 0.959 . S
C1049 H1056 0.961 . S
C1049 H1057 0.960 . S
C1050 C1048 1.381 . S
C1050 C1051 1.394 . S
C1050 H1058 0.930 . S
C1051 C1050 1.394 . S
C1051 C1052 1.383 . S
C1051 H1059 0.929 . S
C1052 C1051 1.383 . S
C1052 C1053 1.377 . S
C1053 H1037 0.930 . S
C1053 C1052 1.377 . S
C1053 C1054 1.379 . S
C1054 H1038 0.931 . S
C1054 C1048 1.383 . S
C1054 C1053 1.379 . S
H1055 C1049 0.959 . S
H1056 C1049 0.961 . S
H1057 C1049 0.960 . S
H1058 C1050 0.930 . S
H1059 C1051 0.929 . S
H1060 C1068 0.929 . S
H1061 C1070 0.930 . S
H1062 C1072 0.930 . S
H1063 C1075 0.929 . S
H1064 C1078 0.930 . S
H1065 C1080 0.960 . S
H1066 C1080 0.960 . S
H1067 C1080 0.960 . S
C1068 H1060 0.929 . S
C1068 C1069 1.377 . S
C1068 C1070 1.384 . S
C1069 C1068 1.377 . S
C1069 C1075 1.390 . S
C1070 H1061 0.930 . S
C1070 C1068 1.384 . S
C1070 C1071 1.372 . S
C1071 C1070 1.372 . S
C1071 C1072 1.400 . S
C1071 C1076 1.490 . S
C1072 H1062 0.930 . S
C1072 C1071 1.400 . S
C1072 C1075 1.386 . S
H1073 C1089 0.930 . S
H1074 C1090 0.931 . S
C1075 H1063 0.929 . S
C1075 C1069 1.390 . S
C1075 C1072 1.386 . S
C1076 C1071 1.490 . S
C1076 C1078 1.395 . S
C1076 C1079 1.403 . S
H1077 C1083 0.930 . S
C1078 H1064 0.930 . S
C1078 C1076 1.395 . S
C1078 C1081 1.403 . S
C1079 C1076 1.403 . S
C1079 C1080 1.524 . S
C1079 C1083 1.400 . S
C1080 H1065 0.960 . S
C1080 H1066 0.960 . S
C1080 H1067 0.960 . S
C1080 C1079 1.524 . S
C1081 C1078 1.403 . S
C1081 C1082 1.392 . S
C1081 C1085 1.495 . S
C1082 C1081 1.392 . S
C1082 C1083 1.385 . S
C1082 C1084 1.478 . S
C1083 H1077 0.930 . S
C1083 C1079 1.400 . S
C1083 C1082 1.385 . S
C1084 C1082 1.478 . S
C1084 C1086 1.381 . S
C1084 C1090 1.383 . S
C1085 C1081 1.495 . S
C1085 H1091 0.959 . S
C1085 H1092 0.961 . S
C1085 H1093 0.960 . S
C1086 C1084 1.381 . S
C1086 C1087 1.394 . S
C1086 H1094 0.930 . S
C1087 C1086 1.394 . S
C1087 C1088 1.383 . S
C1087 H1095 0.929 . S
C1088 C1087 1.383 . S
C1088 C1089 1.377 . S
C1089 H1073 0.930 . S
C1089 C1088 1.377 . S
C1089 C1090 1.379 . S
C1090 H1074 0.931 . S
C1090 C1084 1.383 . S
C1090 C1089 1.379 . S
H1091 C1085 0.959 . S
H1092 C1085 0.961 . S
H1093 C1085 0.960 . S
H1094 C1086 0.930 . S
H1095 C1087 0.929 . S
H1096 C1104 0.929 . S
H1097 C1106 0.930 . S
H1098 C1108 0.930 . S
H1099 C1111 0.929 . S
H1100 C1114 0.930 . S
H1101 C1116 0.960 . S
H1102 C1116 0.960 . S
H1103 C1116 0.960 . S
C1104 H1096 0.929 . S
C1104 C1105 1.377 . S
C1104 C1106 1.384 . S
C1105 C1104 1.377 . S
C1105 C1111 1.390 . S
C1106 H1097 0.930 . S
C1106 C1104 1.384 . S
C1106 C1107 1.372 . S
C1107 C1106 1.372 . S
C1107 C1108 1.400 . S
C1107 C1112 1.490 . S
C1108 H1098 0.930 . S
C1108 C1107 1.400 . S
C1108 C1111 1.386 . S
H1109 C1125 0.930 . S
H1110 C1126 0.931 . S
C1111 H1099 0.929 . S
C1111 C1105 1.390 . S
C1111 C1108 1.386 . S
C1112 C1107 1.490 . S
C1112 C1114 1.395 . S
C1112 C1115 1.403 . S
H1113 C1119 0.930 . S
C1114 H1100 0.930 . S
C1114 C1112 1.395 . S
C1114 C1117 1.403 . S
C1115 C1112 1.403 . S
C1115 C1116 1.524 . S
C1115 C1119 1.400 . S
C1116 H1101 0.960 . S
C1116 H1102 0.960 . S
C1116 H1103 0.960 . S
C1116 C1115 1.524 . S
C1117 C1114 1.403 . S
C1117 C1118 1.392 . S
C1117 C1121 1.495 . S
C1118 C1117 1.392 . S
C1118 C1119 1.385 . S
C1118 C1120 1.478 . S
C1119 H1113 0.930 . S
C1119 C1115 1.400 . S
C1119 C1118 1.385 . S
C1120 C1118 1.478 . S
C1120 C1122 1.381 . S
C1120 C1126 1.383 . S
C1121 C1117 1.495 . S
C1121 H1127 0.959 . S
C1121 H1128 0.961 . S
C1121 H1129 0.960 . S
C1122 C1120 1.381 . S
C1122 C1123 1.394 . S
C1122 H1130 0.930 . S
C1123 C1122 1.394 . S
C1123 C1124 1.383 . S
C1123 H1131 0.929 . S
C1124 C1123 1.383 . S
C1124 C1125 1.377 . S
C1125 H1109 0.930 . S
C1125 C1124 1.377 . S
C1125 C1126 1.379 . S
C1126 H1110 0.931 . S
C1126 C1120 1.383 . S
C1126 C1125 1.379 . S
H1127 C1121 0.959 . S
H1128 C1121 0.961 . S
H1129 C1121 0.960 . S
H1130 C1122 0.930 . S
H1131 C1123 0.929 . S
H1132 C1140 0.929 . S
H1133 C1142 0.930 . S
H1134 C1144 0.930 . S
H1135 C1147 0.929 . S
H1136 C1150 0.930 . S
H1137 C1152 0.960 . S
H1138 C1152 0.960 . S
H1139 C1152 0.960 . S
C1140 H1132 0.929 . S
C1140 C1141 1.377 . S
C1140 C1142 1.384 . S
C1141 C1140 1.377 . S
C1141 C1147 1.390 . S
C1142 H1133 0.930 . S
C1142 C1140 1.384 . S
C1142 C1143 1.372 . S
C1143 C1142 1.372 . S
C1143 C1144 1.400 . S
C1143 C1148 1.490 . S
C1144 H1134 0.930 . S
C1144 C1143 1.400 . S
C1144 C1147 1.386 . S
H1145 C1161 0.930 . S
H1146 C1162 0.931 . S
C1147 H1135 0.929 . S
C1147 C1141 1.390 . S
C1147 C1144 1.386 . S
C1148 C1143 1.490 . S
C1148 C1150 1.395 . S
C1148 C1151 1.403 . S
H1149 C1155 0.930 . S
C1150 H1136 0.930 . S
C1150 C1148 1.395 . S
C1150 C1153 1.403 . S
C1151 C1148 1.403 . S
C1151 C1152 1.524 . S
C1151 C1155 1.400 . S
C1152 H1137 0.960 . S
C1152 H1138 0.960 . S
C1152 H1139 0.960 . S
C1152 C1151 1.524 . S
C1153 C1150 1.403 . S
C1153 C1154 1.392 . S
C1153 C1157 1.495 . S
C1154 C1153 1.392 . S
C1154 C1155 1.385 . S
C1154 C1156 1.478 . S
C1155 H1149 0.930 . S
C1155 C1151 1.400 . S
C1155 C1154 1.385 . S
C1156 C1154 1.478 . S
C1156 C1158 1.381 . S
C1156 C1162 1.383 . S
C1157 C1153 1.495 . S
C1157 H1163 0.959 . S
C1157 H1164 0.961 . S
C1157 H1165 0.960 . S
C1158 C1156 1.381 . S
C1158 C1159 1.394 . S
C1158 H1166 0.930 . S
C1159 C1158 1.394 . S
C1159 C1160 1.383 . S
C1159 H1167 0.929 . S
C1160 C1159 1.383 . S
C1160 C1161 1.377 . S
C1161 H1145 0.930 . S
C1161 C1160 1.377 . S
C1161 C1162 1.379 . S
C1162 H1146 0.931 . S
C1162 C1156 1.383 . S
C1162 C1161 1.379 . S
H1163 C1157 0.959 . S
H1164 C1157 0.961 . S
H1165 C1157 0.960 . S
H1166 C1158 0.930 . S
H1167 C1159 0.929 . S
H1168 C1176 0.929 . S
H1169 C1178 0.930 . S
H1170 C1180 0.930 . S
H1171 C1183 0.929 . S
H1172 C1186 0.930 . S
H1173 C1188 0.960 . S
H1174 C1188 0.960 . S
H1175 C1188 0.960 . S
C1176 H1168 0.929 . S
C1176 C1177 1.377 . S
C1176 C1178 1.384 . S
C1177 C1176 1.377 . S
C1177 C1183 1.390 . S
C1178 H1169 0.930 . S
C1178 C1176 1.384 . S
C1178 C1179 1.372 . S
C1179 C1178 1.372 . S
C1179 C1180 1.400 . S
C1179 C1184 1.490 . S
C1180 H1170 0.930 . S
C1180 C1179 1.400 . S
C1180 C1183 1.386 . S
H1181 C1197 0.930 . S
H1182 C1198 0.931 . S
C1183 H1171 0.929 . S
C1183 C1177 1.390 . S
C1183 C1180 1.386 . S
C1184 C1179 1.490 . S
C1184 C1186 1.395 . S
C1184 C1187 1.403 . S
H1185 C1191 0.930 . S
C1186 H1172 0.930 . S
C1186 C1184 1.395 . S
C1186 C1189 1.403 . S
C1187 C1184 1.403 . S
C1187 C1188 1.524 . S
C1187 C1191 1.400 . S
C1188 H1173 0.960 . S
C1188 H1174 0.960 . S
C1188 H1175 0.960 . S
C1188 C1187 1.524 . S
C1189 C1186 1.403 . S
C1189 C1190 1.392 . S
C1189 C1193 1.495 . S
C1190 C1189 1.392 . S
C1190 C1191 1.385 . S
C1190 C1192 1.478 . S
C1191 H1185 0.930 . S
C1191 C1187 1.400 . S
C1191 C1190 1.385 . S
C1192 C1190 1.478 . S
C1192 C1194 1.381 . S
C1192 C1198 1.383 . S
C1193 C1189 1.495 . S
C1193 H1199 0.959 . S
C1193 H1200 0.961 . S
C1193 H1201 0.960 . S
C1194 C1192 1.381 . S
C1194 C1195 1.394 . S
C1194 H1202 0.930 . S
C1195 C1194 1.394 . S
C1195 C1196 1.383 . S
C1195 H1203 0.929 . S
C1196 C1195 1.383 . S
C1196 C1197 1.377 . S
C1197 H1181 0.930 . S
C1197 C1196 1.377 . S
C1197 C1198 1.379 . S
C1198 H1182 0.931 . S
C1198 C1192 1.383 . S
C1198 C1197 1.379 . S
H1199 C1193 0.959 . S
H1200 C1193 0.961 . S
H1201 C1193 0.960 . S
H1202 C1194 0.930 . S
H1203 C1195 0.929 . S
H1204 C1212 0.929 . S
H1205 C1214 0.930 . S
H1206 C1216 0.930 . S
H1207 C1219 0.929 . S
H1208 C1222 0.930 . S
H1209 C1224 0.960 . S
H1210 C1224 0.960 . S
H1211 C1224 0.960 . S
C1212 H1204 0.929 . S
C1212 C1213 1.377 . S
C1212 C1214 1.384 . S
C1213 C1212 1.377 . S
C1213 C1219 1.390 . S
C1214 H1205 0.930 . S
C1214 C1212 1.384 . S
C1214 C1215 1.372 . S
C1215 C1214 1.372 . S
C1215 C1216 1.400 . S
C1215 C1220 1.490 . S
C1216 H1206 0.930 . S
C1216 C1215 1.400 . S
C1216 C1219 1.386 . S
H1217 C1233 0.930 . S
H1218 C1234 0.931 . S
C1219 H1207 0.929 . S
C1219 C1213 1.390 . S
C1219 C1216 1.386 . S
C1220 C1215 1.490 . S
C1220 C1222 1.395 . S
C1220 C1223 1.403 . S
H1221 C1227 0.930 . S
C1222 H1208 0.930 . S
C1222 C1220 1.395 . S
C1222 C1225 1.403 . S
C1223 C1220 1.403 . S
C1223 C1224 1.524 . S
C1223 C1227 1.400 . S
C1224 H1209 0.960 . S
C1224 H1210 0.960 . S
C1224 H1211 0.960 . S
C1224 C1223 1.524 . S
C1225 C1222 1.403 . S
C1225 C1226 1.392 . S
C1225 C1229 1.495 . S
C1226 C1225 1.392 . S
C1226 C1227 1.385 . S
C1226 C1228 1.478 . S
C1227 H1221 0.930 . S
C1227 C1223 1.400 . S
C1227 C1226 1.385 . S
C1228 C1226 1.478 . S
C1228 C1230 1.381 . S
C1228 C1234 1.383 . S
C1229 C1225 1.495 . S
C1229 H1235 0.959 . S
C1229 H1236 0.961 . S
C1229 H1237 0.960 . S
C1230 C1228 1.381 . S
C1230 C1231 1.394 . S
C1230 H1238 0.930 . S
C1231 C1230 1.394 . S
C1231 C1232 1.383 . S
C1231 H1239 0.929 . S
C1232 C1231 1.383 . S
C1232 C1233 1.377 . S
C1233 H1217 0.930 . S
C1233 C1232 1.377 . S
C1233 C1234 1.379 . S
C1234 H1218 0.931 . S
C1234 C1228 1.383 . S
C1234 C1233 1.379 . S
H1235 C1229 0.959 . S
H1236 C1229 0.961 . S
H1237 C1229 0.960 . S
H1238 C1230 0.930 . S
H1239 C1231 0.929 . S
H1240 C1248 0.929 . S
H1241 C1250 0.930 . S
H1242 C1252 0.930 . S
H1243 C1255 0.929 . S
H1244 C1258 0.930 . S
H1245 C1260 0.960 . S
H1246 C1260 0.960 . S
H1247 C1260 0.960 . S
C1248 H1240 0.929 . S
C1248 C1249 1.377 . S
C1248 C1250 1.384 . S
C1249 C1248 1.377 . S
C1249 C1255 1.390 . S
C1250 H1241 0.930 . S
C1250 C1248 1.384 . S
C1250 C1251 1.372 . S
C1251 C1250 1.372 . S
C1251 C1252 1.400 . S
C1251 C1256 1.490 . S
C1252 H1242 0.930 . S
C1252 C1251 1.400 . S
C1252 C1255 1.386 . S
H1253 C1269 0.930 . S
H1254 C1270 0.931 . S
C1255 H1243 0.929 . S
C1255 C1249 1.390 . S
C1255 C1252 1.386 . S
C1256 C1251 1.490 . S
C1256 C1258 1.395 . S
C1256 C1259 1.403 . S
H1257 C1263 0.930 . S
C1258 H1244 0.930 . S
C1258 C1256 1.395 . S
C1258 C1261 1.403 . S
C1259 C1256 1.403 . S
C1259 C1260 1.524 . S
C1259 C1263 1.400 . S
C1260 H1245 0.960 . S
C1260 H1246 0.960 . S
C1260 H1247 0.960 . S
C1260 C1259 1.524 . S
C1261 C1258 1.403 . S
C1261 C1262 1.392 . S
C1261 C1265 1.495 . S
C1262 C1261 1.392 . S
C1262 C1263 1.385 . S
C1262 C1264 1.478 . S
C1263 H1257 0.930 . S
C1263 C1259 1.400 . S
C1263 C1262 1.385 . S
C1264 C1262 1.478 . S
C1264 C1266 1.381 . S
C1264 C1270 1.383 . S
C1265 C1261 1.495 . S
C1265 H1271 0.959 . S
C1265 H1272 0.961 . S
C1265 H1273 0.960 . S
C1266 C1264 1.381 . S
C1266 C1267 1.394 . S
C1266 H1274 0.930 . S
C1267 C1266 1.394 . S
C1267 C1268 1.383 . S
C1267 H1275 0.929 . S
C1268 C1267 1.383 . S
C1268 C1269 1.377 . S
C1269 H1253 0.930 . S
C1269 C1268 1.377 . S
C1269 C1270 1.379 . S
C1270 H1254 0.931 . S
C1270 C1264 1.383 . S
C1270 C1269 1.379 . S
H1271 C1265 0.959 . S
H1272 C1265 0.961 . S
H1273 C1265 0.960 . S
H1274 C1266 0.930 . S
H1275 C1267 0.929 . S
H1276 C1284 0.929 . S
H1277 C1286 0.930 . S
H1278 C1288 0.930 . S
H1279 C1291 0.929 . S
H1280 C1294 0.930 . S
H1281 C1296 0.960 . S
H1282 C1296 0.960 . S
H1283 C1296 0.960 . S
C1284 H1276 0.929 . S
C1284 C1285 1.377 . S
C1284 C1286 1.384 . S
C1285 C1284 1.377 . S
C1285 C1291 1.390 . S
C1286 H1277 0.930 . S
C1286 C1284 1.384 . S
C1286 C1287 1.372 . S
C1287 C1286 1.372 . S
C1287 C1288 1.400 . S
C1287 C1292 1.490 . S
C1288 H1278 0.930 . S
C1288 C1287 1.400 . S
C1288 C1291 1.386 . S
H1289 C1305 0.930 . S
H1290 C1306 0.931 . S
C1291 H1279 0.929 . S
C1291 C1285 1.390 . S
C1291 C1288 1.386 . S
C1292 C1287 1.490 . S
C1292 C1294 1.395 . S
C1292 C1295 1.403 . S
H1293 C1299 0.930 . S
C1294 H1280 0.930 . S
C1294 C1292 1.395 . S
C1294 C1297 1.403 . S
C1295 C1292 1.403 . S
C1295 C1296 1.524 . S
C1295 C1299 1.400 . S
C1296 H1281 0.960 . S
C1296 H1282 0.960 . S
C1296 H1283 0.960 . S
C1296 C1295 1.524 . S
C1297 C1294 1.403 . S
C1297 C1298 1.392 . S
C1297 C1301 1.495 . S
C1298 C1297 1.392 . S
C1298 C1299 1.385 . S
C1298 C1300 1.478 . S
C1299 H1293 0.930 . S
C1299 C1295 1.400 . S
C1299 C1298 1.385 . S
C1300 C1298 1.478 . S
C1300 C1302 1.381 . S
C1300 C1306 1.383 . S
C1301 C1297 1.495 . S
C1301 H1307 0.959 . S
C1301 H1308 0.961 . S
C1301 H1309 0.960 . S
C1302 C1300 1.381 . S
C1302 C1303 1.394 . S
C1302 H1310 0.930 . S
C1303 C1302 1.394 . S
C1303 C1304 1.383 . S
C1303 H1311 0.929 . S
C1304 C1303 1.383 . S
C1304 C1305 1.377 . S
C1305 H1289 0.930 . S
C1305 C1304 1.377 . S
C1305 C1306 1.379 . S
C1306 H1290 0.931 . S
C1306 C1300 1.383 . S
C1306 C1305 1.379 . S
H1307 C1301 0.959 . S
H1308 C1301 0.961 . S
H1309 C1301 0.960 . S
H1310 C1302 0.930 . S
H1311 C1303 0.929 . S
H1312 C1320 0.929 . S
H1313 C1322 0.930 . S
H1314 C1324 0.930 . S
H1315 C1327 0.929 . S
H1316 C1330 0.930 . S
H1317 C1332 0.960 . S
H1318 C1332 0.960 . S
H1319 C1332 0.960 . S
C1320 H1312 0.929 . S
C1320 C1321 1.377 . S
C1320 C1322 1.384 . S
C1321 C1320 1.377 . S
C1321 C1327 1.390 . S
C1322 H1313 0.930 . S
C1322 C1320 1.384 . S
C1322 C1323 1.372 . S
C1323 C1322 1.372 . S
C1323 C1324 1.400 . S
C1323 C1328 1.490 . S
C1324 H1314 0.930 . S
C1324 C1323 1.400 . S
C1324 C1327 1.386 . S
H1325 C1341 0.930 . S
H1326 C1342 0.931 . S
C1327 H1315 0.929 . S
C1327 C1321 1.390 . S
C1327 C1324 1.386 . S
C1328 C1323 1.490 . S
C1328 C1330 1.395 . S
C1328 C1331 1.403 . S
H1329 C1335 0.930 . S
C1330 H1316 0.930 . S
C1330 C1328 1.395 . S
C1330 C1333 1.403 . S
C1331 C1328 1.403 . S
C1331 C1332 1.524 . S
C1331 C1335 1.400 . S
C1332 H1317 0.960 . S
C1332 H1318 0.960 . S
C1332 H1319 0.960 . S
C1332 C1331 1.524 . S
C1333 C1330 1.403 . S
C1333 C1334 1.392 . S
C1333 C1337 1.495 . S
C1334 C1333 1.392 . S
C1334 C1335 1.385 . S
C1334 C1336 1.478 . S
C1335 H1329 0.930 . S
C1335 C1331 1.400 . S
C1335 C1334 1.385 . S
C1336 C1334 1.478 . S
C1336 C1338 1.381 . S
C1336 C1342 1.383 . S
C1337 C1333 1.495 . S
C1337 H1343 0.959 . S
C1337 H1344 0.961 . S
C1337 H1345 0.960 . S
C1338 C1336 1.381 . S
C1338 C1339 1.394 . S
C1338 H1346 0.930 . S
C1339 C1338 1.394 . S
C1339 C1340 1.383 . S
C1339 H1347 0.929 . S
C1340 C1339 1.383 . S
C1340 C1341 1.377 . S
C1341 H1325 0.930 . S
C1341 C1340 1.377 . S
C1341 C1342 1.379 . S
C1342 H1326 0.931 . S
C1342 C1336 1.383 . S
C1342 C1341 1.379 . S
H1343 C1337 0.959 . S
H1344 C1337 0.961 . S
H1345 C1337 0.960 . S
H1346 C1338 0.930 . S
H1347 C1339 0.929 . S
H1348 C1356 0.929 . S
H1349 C1358 0.930 . S
H1350 C1360 0.930 . S
H1351 C1363 0.929 . S
H1352 C1366 0.930 . S
H1353 C1368 0.960 . S
H1354 C1368 0.960 . S
H1355 C1368 0.960 . S
C1356 H1348 0.929 . S
C1356 C1357 1.377 . S
C1356 C1358 1.384 . S
C1357 C1356 1.377 . S
C1357 C1363 1.390 . S
C1358 H1349 0.930 . S
C1358 C1356 1.384 . S
C1358 C1359 1.372 . S
C1359 C1358 1.372 . S
C1359 C1360 1.400 . S
C1359 C1364 1.490 . S
C1360 H1350 0.930 . S
C1360 C1359 1.400 . S
C1360 C1363 1.386 . S
H1361 C1377 0.930 . S
H1362 C1378 0.931 . S
C1363 H1351 0.929 . S
C1363 C1357 1.390 . S
C1363 C1360 1.386 . S
C1364 C1359 1.490 . S
C1364 C1366 1.395 . S
C1364 C1367 1.403 . S
H1365 C1371 0.930 . S
C1366 H1352 0.930 . S
C1366 C1364 1.395 . S
C1366 C1369 1.403 . S
C1367 C1364 1.403 . S
C1367 C1368 1.524 . S
C1367 C1371 1.400 . S
C1368 H1353 0.960 . S
C1368 H1354 0.960 . S
C1368 H1355 0.960 . S
C1368 C1367 1.524 . S
C1369 C1366 1.403 . S
C1369 C1370 1.392 . S
C1369 C1373 1.495 . S
C1370 C1369 1.392 . S
C1370 C1371 1.385 . S
C1370 C1372 1.478 . S
C1371 H1365 0.930 . S
C1371 C1367 1.400 . S
C1371 C1370 1.385 . S
C1372 C1370 1.478 . S
C1372 C1374 1.381 . S
C1372 C1378 1.383 . S
C1373 C1369 1.495 . S
C1373 H1379 0.959 . S
C1373 H1380 0.961 . S
C1373 H1381 0.960 . S
C1374 C1372 1.381 . S
C1374 C1375 1.394 . S
C1374 H1382 0.930 . S
C1375 C1374 1.394 . S
C1375 C1376 1.383 . S
C1375 H1383 0.929 . S
C1376 C1375 1.383 . S
C1376 C1377 1.377 . S
C1377 H1361 0.930 . S
C1377 C1376 1.377 . S
C1377 C1378 1.379 . S
C1378 H1362 0.931 . S
C1378 C1372 1.383 . S
C1378 C1377 1.379 . S
H1379 C1373 0.959 . S
H1380 C1373 0.961 . S
H1381 C1373 0.960 . S
H1382 C1374 0.930 . S
H1383 C1375 0.929 . S
H1384 C1392 0.929 . S
H1385 C1394 0.930 . S
H1386 C1396 0.930 . S
H1387 C1399 0.929 . S
H1388 C1402 0.930 . S
H1389 C1404 0.960 . S
H1390 C1404 0.960 . S
H1391 C1404 0.960 . S
C1392 H1384 0.929 . S
C1392 C1393 1.377 . S
C1392 C1394 1.384 . S
C1393 C1392 1.377 . S
C1393 C1399 1.390 . S
C1394 H1385 0.930 . S
C1394 C1392 1.384 . S
C1394 C1395 1.372 . S
C1395 C1394 1.372 . S
C1395 C1396 1.400 . S
C1395 C1400 1.490 . S
C1396 H1386 0.930 . S
C1396 C1395 1.400 . S
C1396 C1399 1.386 . S
H1397 C1413 0.930 . S
H1398 C1414 0.931 . S
C1399 H1387 0.929 . S
C1399 C1393 1.390 . S
C1399 C1396 1.386 . S
C1400 C1395 1.490 . S
C1400 C1402 1.395 . S
C1400 C1403 1.403 . S
H1401 C1407 0.930 . S
C1402 H1388 0.930 . S
C1402 C1400 1.395 . S
C1402 C1405 1.403 . S
C1403 C1400 1.403 . S
C1403 C1404 1.524 . S
C1403 C1407 1.400 . S
C1404 H1389 0.960 . S
C1404 H1390 0.960 . S
C1404 H1391 0.960 . S
C1404 C1403 1.524 . S
C1405 C1402 1.403 . S
C1405 C1406 1.392 . S
C1405 C1409 1.495 . S
C1406 C1405 1.392 . S
C1406 C1407 1.385 . S
C1406 C1408 1.478 . S
C1407 H1401 0.930 . S
C1407 C1403 1.400 . S
C1407 C1406 1.385 . S
C1408 C1406 1.478 . S
C1408 C1410 1.381 . S
C1408 C1414 1.383 . S
C1409 C1405 1.495 . S
C1409 H1415 0.959 . S
C1409 H1416 0.961 . S
C1409 H1417 0.960 . S
C1410 C1408 1.381 . S
C1410 C1411 1.394 . S
C1410 H1418 0.930 . S
C1411 C1410 1.394 . S
C1411 C1412 1.383 . S
C1411 H1419 0.929 . S
C1412 C1411 1.383 . S
C1412 C1413 1.377 . S
C1413 H1397 0.930 . S
C1413 C1412 1.377 . S
C1413 C1414 1.379 . S
C1414 H1398 0.931 . S
C1414 C1408 1.383 . S
C1414 C1413 1.379 . S
H1415 C1409 0.959 . S
H1416 C1409 0.961 . S
H1417 C1409 0.960 . S
H1418 C1410 0.930 . S
H1419 C1411 0.929 . S
H1420 C1428 0.929 . S
H1421 C1430 0.930 . S
H1422 C1432 0.930 . S
H1423 C1435 0.929 . S
H1424 C1438 0.930 . S
H1425 C1440 0.960 . S
H1426 C1440 0.960 . S
H1427 C1440 0.960 . S
C1428 H1420 0.929 . S
C1428 C1429 1.377 . S
C1428 C1430 1.384 . S
C1429 C1428 1.377 . S
C1429 C1435 1.390 . S
C1430 H1421 0.930 . S
C1430 C1428 1.384 . S
C1430 C1431 1.372 . S
C1431 C1430 1.372 . S
C1431 C1432 1.400 . S
C1431 C1436 1.490 . S
C1432 H1422 0.930 . S
C1432 C1431 1.400 . S
C1432 C1435 1.386 . S
H1433 C1449 0.930 . S
H1434 C1450 0.931 . S
C1435 H1423 0.929 . S
C1435 C1429 1.390 . S
C1435 C1432 1.386 . S
C1436 C1431 1.490 . S
C1436 C1438 1.395 . S
C1436 C1439 1.403 . S
H1437 C1443 0.930 . S
C1438 H1424 0.930 . S
C1438 C1436 1.395 . S
C1438 C1441 1.403 . S
C1439 C1436 1.403 . S
C1439 C1440 1.524 . S
C1439 C1443 1.400 . S
C1440 H1425 0.960 . S
C1440 H1426 0.960 . S
C1440 H1427 0.960 . S
C1440 C1439 1.524 . S
C1441 C1438 1.403 . S
C1441 C1442 1.392 . S
C1441 C1445 1.495 . S
C1442 C1441 1.392 . S
C1442 C1443 1.385 . S
C1442 C1444 1.478 . S
C1443 H1437 0.930 . S
C1443 C1439 1.400 . S
C1443 C1442 1.385 . S
C1444 C1442 1.478 . S
C1444 C1446 1.381 . S
C1444 C1450 1.383 . S
C1445 C1441 1.495 . S
C1445 H1451 0.959 . S
C1445 H1452 0.961 . S
C1445 H1453 0.960 . S
C1446 C1444 1.381 . S
C1446 C1447 1.394 . S
C1446 H1454 0.930 . S
C1447 C1446 1.394 . S
C1447 C1448 1.383 . S
C1447 H1455 0.929 . S
C1448 C1447 1.383 . S
C1448 C1449 1.377 . S
C1449 H1433 0.930 . S
C1449 C1448 1.377 . S
C1449 C1450 1.379 . S
C1450 H1434 0.931 . S
C1450 C1444 1.383 . S
C1450 C1449 1.379 . S
H1451 C1445 0.959 . S
H1452 C1445 0.961 . S
H1453 C1445 0.960 . S
H1454 C1446 0.930 . S
H1455 C1447 0.929 . S
H1456 C1464 0.929 . S
H1457 C1466 0.930 . S
H1458 C1468 0.930 . S
H1459 C1471 0.929 . S
H1460 C1474 0.930 . S
H1461 C1476 0.960 . S
H1462 C1476 0.960 . S
H1463 C1476 0.960 . S
C1464 H1456 0.929 . S
C1464 C1465 1.377 . S
C1464 C1466 1.384 . S
C1465 C1464 1.377 . S
C1465 C1471 1.390 . S
C1466 H1457 0.930 . S
C1466 C1464 1.384 . S
C1466 C1467 1.372 . S
C1467 C1466 1.372 . S
C1467 C1468 1.400 . S
C1467 C1472 1.490 . S
C1468 H1458 0.930 . S
C1468 C1467 1.400 . S
C1468 C1471 1.386 . S
H1469 C1485 0.930 . S
H1470 C1486 0.931 . S
C1471 H1459 0.929 . S
C1471 C1465 1.390 . S
C1471 C1468 1.386 . S
C1472 C1467 1.490 . S
C1472 C1474 1.395 . S
C1472 C1475 1.403 . S
H1473 C1479 0.930 . S
C1474 H1460 0.930 . S
C1474 C1472 1.395 . S
C1474 C1477 1.403 . S
C1475 C1472 1.403 . S
C1475 C1476 1.524 . S
C1475 C1479 1.400 . S
C1476 H1461 0.960 . S
C1476 H1462 0.960 . S
C1476 H1463 0.960 . S
C1476 C1475 1.524 . S
C1477 C1474 1.403 . S
C1477 C1478 1.392 . S
C1477 C1481 1.495 . S
C1478 C1477 1.392 . S
C1478 C1479 1.385 . S
C1478 C1480 1.478 . S
C1479 H1473 0.930 . S
C1479 C1475 1.400 . S
C1479 C1478 1.385 . S
C1480 C1478 1.478 . S
C1480 C1482 1.381 . S
C1480 C1486 1.383 . S
C1481 C1477 1.495 . S
C1481 H1487 0.959 . S
C1481 H1488 0.961 . S
C1481 H1489 0.960 . S
C1482 C1480 1.381 . S
C1482 C1483 1.394 . S
C1482 H1490 0.930 . S
C1483 C1482 1.394 . S
C1483 C1484 1.383 . S
C1483 H1491 0.929 . S
C1484 C1483 1.383 . S
C1484 C1485 1.377 . S
C1485 H1469 0.930 . S
C1485 C1484 1.377 . S
C1485 C1486 1.379 . S
C1486 H1470 0.931 . S
C1486 C1480 1.383 . S
C1486 C1485 1.379 . S
H1487 C1481 0.959 . S
H1488 C1481 0.961 . S
H1489 C1481 0.960 . S
H1490 C1482 0.930 . S
H1491 C1483 0.929 . S
H1492 C1500 0.929 . S
H1493 C1502 0.930 . S
H1494 C1504 0.930 . S
H1495 C1507 0.929 . S
H1496 C1510 0.930 . S
H1497 C1512 0.960 . S
H1498 C1512 0.960 . S
H1499 C1512 0.960 . S
C1500 H1492 0.929 . S
C1500 C1501 1.377 . S
C1500 C1502 1.384 . S
C1501 C1500 1.377 . S
C1501 C1507 1.390 . S
C1502 H1493 0.930 . S
C1502 C1500 1.384 . S
C1502 C1503 1.372 . S
C1503 C1502 1.372 . S
C1503 C1504 1.400 . S
C1503 C1508 1.490 . S
C1504 H1494 0.930 . S
C1504 C1503 1.400 . S
C1504 C1507 1.386 . S
H1505 C1521 0.930 . S
H1506 C1522 0.931 . S
C1507 H1495 0.929 . S
C1507 C1501 1.390 . S
C1507 C1504 1.386 . S
C1508 C1503 1.490 . S
C1508 C1510 1.395 . S
C1508 C1511 1.403 . S
H1509 C1515 0.930 . S
C1510 H1496 0.930 . S
C1510 C1508 1.395 . S
C1510 C1513 1.403 . S
C1511 C1508 1.403 . S
C1511 C1512 1.524 . S
C1511 C1515 1.400 . S
C1512 H1497 0.960 . S
C1512 H1498 0.960 . S
C1512 H1499 0.960 . S
C1512 C1511 1.524 . S
C1513 C1510 1.403 . S
C1513 C1514 1.392 . S
C1513 C1517 1.495 . S
C1514 C1513 1.392 . S
C1514 C1515 1.385 . S
C1514 C1516 1.478 . S
C1515 H1509 0.930 . S
C1515 C1511 1.400 . S
C1515 C1514 1.385 . S
C1516 C1514 1.478 . S
C1516 C1518 1.381 . S
C1516 C1522 1.383 . S
C1517 C1513 1.495 . S
C1517 H1523 0.959 . S
C1517 H1524 0.961 . S
C1517 H1525 0.960 . S
C1518 C1516 1.381 . S
C1518 C1519 1.394 . S
C1518 H1526 0.930 . S
C1519 C1518 1.394 . S
C1519 C1520 1.383 . S
C1519 H1527 0.929 . S
C1520 C1519 1.383 . S
C1520 C1521 1.377 . S
C1521 H1505 0.930 . S
C1521 C1520 1.377 . S
C1521 C1522 1.379 . S
C1522 H1506 0.931 . S
C1522 C1516 1.383 . S
C1522 C1521 1.379 . S
H1523 C1517 0.959 . S
H1524 C1517 0.961 . S
H1525 C1517 0.960 . S
H1526 C1518 0.930 . S
H1527 C1519 0.929 . S
H1528 C1536 0.929 . S
H1529 C1538 0.930 . S
H1530 C1540 0.930 . S
H1531 C1543 0.929 . S
H1532 C1546 0.930 . S
H1533 C1548 0.960 . S
H1534 C1548 0.960 . S
H1535 C1548 0.960 . S
C1536 H1528 0.929 . S
C1536 C1537 1.377 . S
C1536 C1538 1.384 . S
C1537 C1536 1.377 . S
C1537 C1543 1.390 . S
C1538 H1529 0.930 . S
C1538 C1536 1.384 . S
C1538 C1539 1.372 . S
C1539 C1538 1.372 . S
C1539 C1540 1.400 . S
C1539 C1544 1.490 . S
C1540 H1530 0.930 . S
C1540 C1539 1.400 . S
C1540 C1543 1.386 . S
H1541 C1557 0.930 . S
H1542 C1558 0.931 . S
C1543 H1531 0.929 . S
C1543 C1537 1.390 . S
C1543 C1540 1.386 . S
C1544 C1539 1.490 . S
C1544 C1546 1.395 . S
C1544 C1547 1.403 . S
H1545 C1551 0.930 . S
C1546 H1532 0.930 . S
C1546 C1544 1.395 . S
C1546 C1549 1.403 . S
C1547 C1544 1.403 . S
C1547 C1548 1.524 . S
C1547 C1551 1.400 . S
C1548 H1533 0.960 . S
C1548 H1534 0.960 . S
C1548 H1535 0.960 . S
C1548 C1547 1.524 . S
C1549 C1546 1.403 . S
C1549 C1550 1.392 . S
C1549 C1553 1.495 . S
C1550 C1549 1.392 . S
C1550 C1551 1.385 . S
C1550 C1552 1.478 . S
C1551 H1545 0.930 . S
C1551 C1547 1.400 . S
C1551 C1550 1.385 . S
C1552 C1550 1.478 . S
C1552 C1554 1.381 . S
C1552 C1558 1.383 . S
C1553 C1549 1.495 . S
C1553 H1559 0.959 . S
C1553 H1560 0.961 . S
C1553 H1561 0.960 . S
C1554 C1552 1.381 . S
C1554 C1555 1.394 . S
C1554 H1562 0.930 . S
C1555 C1554 1.394 . S
C1555 C1556 1.383 . S
C1555 H1563 0.929 . S
C1556 C1555 1.383 . S
C1556 C1557 1.377 . S
C1557 H1541 0.930 . S
C1557 C1556 1.377 . S
C1557 C1558 1.379 . S
C1558 H1542 0.931 . S
C1558 C1552 1.383 . S
C1558 C1557 1.379 . S
H1559 C1553 0.959 . S
H1560 C1553 0.961 . S
H1561 C1553 0.960 . S
H1562 C1554 0.930 . S
H1563 C1555 0.929 . S
H1564 C1572 0.929 . S
H1565 C1574 0.930 . S
H1566 C1576 0.930 . S
H1567 C1579 0.929 . S
H1568 C1582 0.930 . S
H1569 C1584 0.960 . S
H1570 C1584 0.960 . S
H1571 C1584 0.960 . S
C1572 H1564 0.929 . S
C1572 C1573 1.377 . S
C1572 C1574 1.384 . S
C1573 C1572 1.377 . S
C1573 C1579 1.390 . S
C1574 H1565 0.930 . S
C1574 C1572 1.384 . S
C1574 C1575 1.372 . S
C1575 C1574 1.372 . S
C1575 C1576 1.400 . S
C1575 C1580 1.490 . S
C1576 H1566 0.930 . S
C1576 C1575 1.400 . S
C1576 C1579 1.386 . S
H1577 C1593 0.930 . S
H1578 C1594 0.931 . S
C1579 H1567 0.929 . S
C1579 C1573 1.390 . S
C1579 C1576 1.386 . S
C1580 C1575 1.490 . S
C1580 C1582 1.395 . S
C1580 C1583 1.403 . S
H1581 C1587 0.930 . S
C1582 H1568 0.930 . S
C1582 C1580 1.395 . S
C1582 C1585 1.403 . S
C1583 C1580 1.403 . S
C1583 C1584 1.524 . S
C1583 C1587 1.400 . S
C1584 H1569 0.960 . S
C1584 H1570 0.960 . S
C1584 H1571 0.960 . S
C1584 C1583 1.524 . S
C1585 C1582 1.403 . S
C1585 C1586 1.392 . S
C1585 C1589 1.495 . S
C1586 C1585 1.392 . S
C1586 C1587 1.385 . S
C1586 C1588 1.478 . S
C1587 H1581 0.930 . S
C1587 C1583 1.400 . S
C1587 C1586 1.385 . S
C1588 C1586 1.478 . S
C1588 C1590 1.381 . S
C1588 C1594 1.383 . S
C1589 C1585 1.495 . S
C1589 H1595 0.959 . S
C1589 H1596 0.961 . S
C1589 H1597 0.960 . S
C1590 C1588 1.381 . S
C1590 C1591 1.394 . S
C1590 H1598 0.930 . S
C1591 C1590 1.394 . S
C1591 C1592 1.383 . S
C1591 H1599 0.929 . S
C1592 C1591 1.383 . S
C1592 C1593 1.377 . S
C1593 H1577 0.930 . S
C1593 C1592 1.377 . S
C1593 C1594 1.379 . S
C1594 H1578 0.931 . S
C1594 C1588 1.383 . S
C1594 C1593 1.379 . S
H1595 C1589 0.959 . S
H1596 C1589 0.961 . S
H1597 C1589 0.960 . S
H1598 C1590 0.930 . S
H1599 C1591 0.929 . S
H1600 C1608 0.929 . S
H1601 C1610 0.930 . S
H1602 C1612 0.930 . S
H1603 C1615 0.929 . S
H1604 C1618 0.930 . S
H1605 C1620 1.040 . S
H1606 C1620 0.948 1_554 S
H1607 C1620 0.903 1_554 S
C1608 H1600 0.929 . S
C1608 C1609 1.377 . S
C1608 C1610 1.384 . S
C1609 C1608 1.377 . S
C1609 C1615 1.390 . S
C1610 H1601 0.930 . S
C1610 C1608 1.384 . S
C1610 C1611 1.372 . S
C1611 C1610 1.372 . S
C1611 C1612 1.400 . S
C1611 C1616 1.490 . S
C1612 H1602 0.930 . S
C1612 C1611 1.400 . S
C1612 C1615 1.386 . S
H1613 C1629 0.930 . S
H1614 C1630 0.931 . S
C1615 H1603 0.929 . S
C1615 C1609 1.390 . S
C1615 C1612 1.386 . S
C1616 C1611 1.490 . S
C1616 C1618 1.400 . S
C1616 C1619 1.403 . S
H1617 C1623 0.931 . S
C1618 H1604 0.930 . S
C1618 C1616 1.400 . S
C1618 C1621 1.435 1_545 S
C1619 C1616 1.403 . S
C1619 C1620 1.519 1_554 S
C1619 C1623 1.388 1_544 S
C1620 H1605 1.040 . S
C1620 H1606 0.948 1_556 S
C1620 H1607 0.903 1_556 S
C1620 C1619 1.519 1_556 S
C1621 C1618 1.435 1_565 S
C1621 C1622 1.354 1_554 S
C1621 C1625 1.493 . S
C1622 C1621 1.354 1_556 S
C1622 C1623 1.397 . S
C1622 C1624 1.478 . S
C1623 H1617 0.931 . S
C1623 C1619 1.388 1_566 S
C1623 C1622 1.397 . S
C1624 C1622 1.478 . S
C1624 C1626 1.381 . S
C1624 C1630 1.383 . S
C1625 C1621 1.493 . S
C1625 H1631 1.072 . S
C1625 H1632 0.947 1_554 S
C1625 H1633 0.880 1_554 S
C1626 C1624 1.381 . S
C1626 C1627 1.394 . S
C1626 H1634 0.930 . S
C1627 C1626 1.394 . S
C1627 C1628 1.383 . S
C1627 H1635 0.929 . S
C1628 C1627 1.383 . S
C1628 C1629 1.377 . S
C1629 H1613 0.930 . S
C1629 C1628 1.377 . S
C1629 C1630 1.379 . S
C1630 H1614 0.931 . S
C1630 C1624 1.383 . S
C1630 C1629 1.379 . S
H1631 C1625 1.072 . S
H1632 C1625 0.947 1_556 S
H1633 C1625 0.880 1_556 S
H1634 C1626 0.930 . S
H1635 C1627 0.929 . S
H1636 C1644 0.929 . S
H1637 C1646 0.930 . S
H1638 C1648 0.930 . S
H1639 C1651 0.929 . S
H1640 C1654 0.930 . S
H1641 C1656 0.960 . S
H1642 C1656 0.957 1_554 S
H1643 C1656 0.960 1_554 S
C1644 H1636 0.929 . S
C1644 C1645 1.377 . S
C1644 C1646 1.384 . S
C1645 C1644 1.377 . S
C1645 C1651 1.390 . S
C1646 H1637 0.930 . S
C1646 C1644 1.384 . S
C1646 C1647 1.372 . S
C1647 C1646 1.372 . S
C1647 C1648 1.400 . S
C1647 C1652 1.490 . S
C1648 H1638 0.930 . S
C1648 C1647 1.400 . S
C1648 C1651 1.386 . S
H1649 C1665 0.930 . S
H1650 C1666 0.931 . S
C1651 H1639 0.929 . S
C1651 C1645 1.390 . S
C1651 C1648 1.386 . S
C1652 C1647 1.490 . S
C1652 C1654 1.395 . S
C1652 C1655 1.356 1_554 S
H1653 C1659 0.930 . S
C1654 H1640 0.930 . S
C1654 C1652 1.395 . S
C1654 C1657 1.403 . S
C1655 C1652 1.356 1_556 S
C1655 C1656 1.532 . S
C1655 C1659 1.441 . S
C1656 H1641 0.960 . S
C1656 H1642 0.957 1_556 S
C1656 H1643 0.960 1_556 S
C1656 C1655 1.532 . S
C1657 C1654 1.403 . S
C1657 C1658 1.392 1_554 S
C1657 C1661 1.495 . S
C1658 C1657 1.392 1_556 S
C1658 C1659 1.385 . S
C1658 C1660 1.478 . S
C1659 H1653 0.930 . S
C1659 C1655 1.441 . S
C1659 C1658 1.385 . S
C1660 C1658 1.478 . S
C1660 C1662 1.381 . S
C1660 C1666 1.383 . S
C1661 C1657 1.495 . S
C1661 H1667 0.959 . S
C1661 H1668 0.980 . S
C1661 H1669 0.922 1_554 S
C1662 C1660 1.381 . S
C1662 C1663 1.394 . S
C1662 H1670 0.930 . S
C1663 C1662 1.394 . S
C1663 C1664 1.383 . S
C1663 H1671 0.929 . S
C1664 C1663 1.383 . S
C1664 C1665 1.377 . S
C1665 H1649 0.930 . S
C1665 C1664 1.377 . S
C1665 C1666 1.379 . S
C1666 H1650 0.931 . S
C1666 C1660 1.383 . S
C1666 C1665 1.379 . S
H1667 C1661 0.959 . S
H1668 C1661 0.980 . S
H1669 C1661 0.922 1_556 S
H1670 C1662 0.930 . S
H1671 C1663 0.929 . S
H1672 C1680 0.929 . S
H1673 C1682 0.930 . S
H1674 C1684 0.930 . S
H1675 C1687 0.929 . S
H1676 C1690 0.930 . S
H1677 C1692 0.960 . S
H1678 C1692 0.960 . S
H1679 C1692 0.960 . S
C1680 H1672 0.929 . S
C1680 C1681 1.377 . S
C1680 C1682 1.384 . S
C1681 C1680 1.377 . S
C1681 C1687 1.390 . S
C1682 H1673 0.930 . S
C1682 C1680 1.384 . S
C1682 C1683 1.372 . S
C1683 C1682 1.372 . S
C1683 C1684 1.400 . S
C1683 C1688 1.490 . S
C1684 H1674 0.930 . S
C1684 C1683 1.400 . S
C1684 C1687 1.386 . S
H1685 C1701 0.930 . S
H1686 C1702 0.931 . S
C1687 H1675 0.929 . S
C1687 C1681 1.390 . S
C1687 C1684 1.386 . S
C1688 C1683 1.490 . S
C1688 C1690 1.395 . S
C1688 C1691 1.403 . S
H1689 C1695 0.930 . S
C1690 H1676 0.930 . S
C1690 C1688 1.395 . S
C1690 C1693 1.403 . S
C1691 C1688 1.403 . S
C1691 C1692 1.524 . S
C1691 C1695 1.400 . S
C1692 H1677 0.960 . S
C1692 H1678 0.960 . S
C1692 H1679 0.960 . S
C1692 C1691 1.524 . S
C1693 C1690 1.403 . S
C1693 C1694 1.392 . S
C1693 C1697 1.495 . S
C1694 C1693 1.392 . S
C1694 C1695 1.385 . S
C1694 C1696 1.478 . S
C1695 H1689 0.930 . S
C1695 C1691 1.400 . S
C1695 C1694 1.385 . S
C1696 C1694 1.478 . S
C1696 C1698 1.381 . S
C1696 C1702 1.383 . S
C1697 C1693 1.495 . S
C1697 H1703 0.959 . S
C1697 H1704 0.961 . S
C1697 H1705 0.960 . S
C1698 C1696 1.381 . S
C1698 C1699 1.394 . S
C1698 H1706 0.930 . S
C1699 C1698 1.394 . S
C1699 C1700 1.383 . S
C1699 H1707 0.929 . S
C1700 C1699 1.383 . S
C1700 C1701 1.377 . S
C1701 H1685 0.930 . S
C1701 C1700 1.377 . S
C1701 C1702 1.379 . S
C1702 H1686 0.931 . S
C1702 C1696 1.383 . S
C1702 C1701 1.379 . S
H1703 C1697 0.959 . S
H1704 C1697 0.961 . S
H1705 C1697 0.960 . S
H1706 C1698 0.930 . S
H1707 C1699 0.929 . S
H1708 C1716 0.929 . S
H1709 C1718 0.930 . S
H1710 C1720 0.930 . S
H1711 C1723 0.929 . S
H1712 C1726 0.930 . S
H1713 C1728 0.960 . S
H1714 C1728 0.960 . S
H1715 C1728 0.960 1_545 S
C1716 H1708 0.929 . S
C1716 C1717 1.377 . S
C1716 C1718 1.384 . S
C1717 C1716 1.377 . S
C1717 C1723 1.390 . S
C1718 H1709 0.930 . S
C1718 C1716 1.384 . S
C1718 C1719 1.372 . S
C1719 C1718 1.372 . S
C1719 C1720 1.400 . S
C1719 C1724 1.490 . S
C1720 H1710 0.930 . S
C1720 C1719 1.400 . S
C1720 C1723 1.386 . S
H1721 C1737 0.930 . S
H1722 C1738 0.931 . S
C1723 H1711 0.929 . S
C1723 C1717 1.390 . S
C1723 C1720 1.386 . S
C1724 C1719 1.490 . S
C1724 C1726 1.395 . S
C1724 C1727 1.403 1_545 S
H1725 C1731 0.930 . S
C1726 H1712 0.930 . S
C1726 C1724 1.395 . S
C1726 C1729 1.403 . S
C1727 C1724 1.403 1_565 S
C1727 C1728 1.524 . S
C1727 C1731 1.400 . S
C1728 H1713 0.960 . S
C1728 H1714 0.960 . S
C1728 H1715 0.960 1_565 S
C1728 C1727 1.524 . S
C1729 C1726 1.403 . S
C1729 C1730 1.392 1_545 S
C1729 C1733 1.495 . S
C1730 C1729 1.392 1_565 S
C1730 C1731 1.385 . S
C1730 C1732 1.478 . S
C1731 H1725 0.930 . S
C1731 C1727 1.400 . S
C1731 C1730 1.385 . S
C1732 C1730 1.478 . S
C1732 C1734 1.381 . S
C1732 C1738 1.383 . S
C1733 C1729 1.495 . S
C1733 H1739 0.959 . S
C1733 H1740 0.961 . S
C1733 H1741 0.960 1_545 S
C1734 C1732 1.381 . S
C1734 C1735 1.394 . S
C1734 H1742 0.930 . S
C1735 C1734 1.394 . S
C1735 C1736 1.383 . S
C1735 H1743 0.929 . S
C1736 C1735 1.383 . S
C1736 C1737 1.377 . S
C1737 H1721 0.930 . S
C1737 C1736 1.377 . S
C1737 C1738 1.379 . S
C1738 H1722 0.931 . S
C1738 C1732 1.383 . S
C1738 C1737 1.379 . S
H1739 C1733 0.959 . S
H1740 C1733 0.961 . S
H1741 C1733 0.960 1_565 S
H1742 C1734 0.930 . S
H1743 C1735 0.929 . S
H1744 C1752 0.929 . S
H1745 C1754 0.930 . S
H1746 C1756 0.930 . S
H1747 C1759 0.929 . S
H1748 C1762 0.930 . S
H1749 C1764 0.960 . S
H1750 C1764 0.960 . S
H1751 C1764 0.960 . S
C1752 H1744 0.929 . S
C1752 C1753 1.377 . S
C1752 C1754 1.384 . S
C1753 C1752 1.377 . S
C1753 C1759 1.390 . S
C1754 H1745 0.930 . S
C1754 C1752 1.384 . S
C1754 C1755 1.372 . S
C1755 C1754 1.372 . S
C1755 C1756 1.400 . S
C1755 C1760 1.490 . S
C1756 H1746 0.930 . S
C1756 C1755 1.400 . S
C1756 C1759 1.386 . S
H1757 C1773 0.930 . S
H1758 C1774 0.931 . S
C1759 H1747 0.929 . S
C1759 C1753 1.390 . S
C1759 C1756 1.386 . S
C1760 C1755 1.490 . S
C1760 C1762 1.395 . S
C1760 C1763 1.403 . S
H1761 C1767 0.930 . S
C1762 H1748 0.930 . S
C1762 C1760 1.395 . S
C1762 C1765 1.403 1_556 S
C1763 C1760 1.403 . S
C1763 C1764 1.524 . S
C1763 C1767 1.400 1_556 S
C1764 H1749 0.960 . S
C1764 H1750 0.960 . S
C1764 H1751 0.960 . S
C1764 C1763 1.524 . S
C1765 C1762 1.403 1_554 S
C1765 C1766 1.392 . S
C1765 C1769 1.495 . S
C1766 C1765 1.392 . S
C1766 C1767 1.385 . S
C1766 C1768 1.478 . S
C1767 H1761 0.930 . S
C1767 C1763 1.400 1_554 S
C1767 C1766 1.385 . S
C1768 C1766 1.478 . S
C1768 C1770 1.381 . S
C1768 C1774 1.383 . S
C1769 C1765 1.495 . S
C1769 H1775 0.959 . S
C1769 H1776 0.961 . S
C1769 H1777 0.960 . S
C1770 C1768 1.381 . S
C1770 C1771 1.394 . S
C1770 H1778 0.930 . S
C1771 C1770 1.394 . S
C1771 C1772 1.383 . S
C1771 H1779 0.929 . S
C1772 C1771 1.383 . S
C1772 C1773 1.377 . S
C1773 H1757 0.930 . S
C1773 C1772 1.377 . S
C1773 C1774 1.379 . S
C1774 H1758 0.931 . S
C1774 C1768 1.383 . S
C1774 C1773 1.379 . S
H1775 C1769 0.959 . S
H1776 C1769 0.961 . S
H1777 C1769 0.960 . S
H1778 C1770 0.930 . S
H1779 C1771 0.929 . S
H1780 C1788 0.929 . S
H1781 C1790 0.930 . S
H1782 C1792 0.930 . S
H1783 C1795 0.929 . S
H1784 C1798 0.930 . S
H1785 C1800 0.960 . S
H1786 C1800 0.960 . S
H1787 C1800 0.960 . S
C1788 H1780 0.929 . S
C1788 C1789 1.377 . S
C1788 C1790 1.384 . S
C1789 C1788 1.377 . S
C1789 C1795 1.390 . S
C1790 H1781 0.930 . S
C1790 C1788 1.384 . S
C1790 C1791 1.372 . S
C1791 C1790 1.372 . S
C1791 C1792 1.400 . S
C1791 C1796 1.490 . S
C1792 H1782 0.930 . S
C1792 C1791 1.400 . S
C1792 C1795 1.386 . S
H1793 C1809 0.930 . S
H1794 C1810 0.931 . S
C1795 H1783 0.929 . S
C1795 C1789 1.390 . S
C1795 C1792 1.386 . S
C1796 C1791 1.490 . S
C1796 C1798 1.395 . S
C1796 C1799 1.403 . S
H1797 C1803 0.930 . S
C1798 H1784 0.930 . S
C1798 C1796 1.395 . S
C1798 C1801 1.403 . S
C1799 C1796 1.403 . S
C1799 C1800 1.524 . S
C1799 C1803 1.400 . S
C1800 H1785 0.960 . S
C1800 H1786 0.960 . S
C1800 H1787 0.960 . S
C1800 C1799 1.524 . S
C1801 C1798 1.403 . S
C1801 C1802 1.392 . S
C1801 C1805 1.495 . S
C1802 C1801 1.392 . S
C1802 C1803 1.385 . S
C1802 C1804 1.478 . S
C1803 H1797 0.930 . S
C1803 C1799 1.400 . S
C1803 C1802 1.385 . S
C1804 C1802 1.478 . S
C1804 C1806 1.381 . S
C1804 C1810 1.383 . S
C1805 C1801 1.495 . S
C1805 H1811 0.959 . S
C1805 H1812 0.961 . S
C1805 H1813 0.960 . S
C1806 C1804 1.381 . S
C1806 C1807 1.394 . S
C1806 H1814 0.930 . S
C1807 C1806 1.394 . S
C1807 C1808 1.383 . S
C1807 H1815 0.929 . S
C1808 C1807 1.383 . S
C1808 C1809 1.377 . S
C1809 H1793 0.930 . S
C1809 C1808 1.377 . S
C1809 C1810 1.379 . S
C1810 H1794 0.931 . S
C1810 C1804 1.383 . S
C1810 C1809 1.379 . S
H1811 C1805 0.959 . S
H1812 C1805 0.961 . S
H1813 C1805 0.960 . S
H1814 C1806 0.930 . S
H1815 C1807 0.929 . S
H1816 C1824 0.929 . S
H1817 C1826 0.930 1_565 S
H1818 C1828 0.930 . S
H1819 C1831 0.929 . S
H1820 C1834 0.930 . S
H1821 C1836 0.960 . S
H1822 C1836 0.960 . S
H1823 C1836 0.960 . S
C1824 H1816 0.929 . S
C1824 C1825 1.377 . S
C1824 C1826 1.384 . S
C1825 C1824 1.377 . S
C1825 C1831 1.390 . S
C1826 H1817 0.930 1_545 S
C1826 C1824 1.384 . S
C1826 C1827 1.372 . S
C1827 C1826 1.372 . S
C1827 C1828 1.400 . S
C1827 C1832 1.490 . S
C1828 H1818 0.930 . S
C1828 C1827 1.400 . S
C1828 C1831 1.386 . S
H1829 C1845 0.930 . S
H1830 C1846 0.931 1_545 S
C1831 H1819 0.929 . S
C1831 C1825 1.390 . S
C1831 C1828 1.386 . S
C1832 C1827 1.490 . S
C1832 C1834 1.395 1_545 S
C1832 C1835 1.403 . S
H1833 C1839 0.930 . S
C1834 H1820 0.930 . S
C1834 C1832 1.395 1_565 S
C1834 C1837 1.403 . S
C1835 C1832 1.403 . S
C1835 C1836 1.524 . S
C1835 C1839 1.400 . S
C1836 H1821 0.960 . S
C1836 H1822 0.960 . S
C1836 H1823 0.960 . S
C1836 C1835 1.524 . S
C1837 C1834 1.403 . S
C1837 C1838 1.392 . S
C1837 C1841 1.495 . S
C1838 C1837 1.392 . S
C1838 C1839 1.385 1_565 S
C1838 C1840 1.478 . S
C1839 H1833 0.930 . S
C1839 C1835 1.400 . S
C1839 C1838 1.385 1_545 S
C1840 C1838 1.478 . S
C1840 C1842 1.381 . S
C1840 C1846 1.383 . S
C1841 C1837 1.495 . S
C1841 H1847 0.959 . S
C1841 H1848 0.961 . S
C1841 H1849 0.960 . S
C1842 C1840 1.381 . S
C1842 C1843 1.394 . S
C1842 H1850 0.930 . S
C1843 C1842 1.394 . S
C1843 C1844 1.383 . S
C1843 H1851 0.929 . S
C1844 C1843 1.383 . S
C1844 C1845 1.377 . S
C1845 H1829 0.930 . S
C1845 C1844 1.377 . S
C1845 C1846 1.379 . S
C1846 H1830 0.931 1_565 S
C1846 C1840 1.383 . S
C1846 C1845 1.379 . S
H1847 C1841 0.959 . S
H1848 C1841 0.961 . S
H1849 C1841 0.960 . S
H1850 C1842 0.930 . S
H1851 C1843 0.929 . S
H1852 C1860 0.929 . S
H1853 C1862 0.930 . S
H1854 C1864 0.930 . S
H1855 C1867 0.929 . S
H1856 C1870 0.930 . S
H1857 C1872 0.960 . S
H1858 C1872 0.960 . S
H1859 C1872 0.960 . S
C1860 H1852 0.929 . S
C1860 C1861 1.377 . S
C1860 C1862 1.384 . S
C1861 C1860 1.377 . S
C1861 C1867 1.390 . S
C1862 H1853 0.930 . S
C1862 C1860 1.384 . S
C1862 C1863 1.372 . S
C1863 C1862 1.372 . S
C1863 C1864 1.400 . S
C1863 C1868 1.490 . S
C1864 H1854 0.930 . S
C1864 C1863 1.400 . S
C1864 C1867 1.386 . S
H1865 C1881 0.930 . S
H1866 C1882 0.931 . S
C1867 H1855 0.929 . S
C1867 C1861 1.390 . S
C1867 C1864 1.386 . S
C1868 C1863 1.490 . S
C1868 C1870 1.395 . S
C1868 C1871 1.403 . S
H1869 C1875 0.930 . S
C1870 H1856 0.930 . S
C1870 C1868 1.395 . S
C1870 C1873 1.403 . S
C1871 C1868 1.403 . S
C1871 C1872 1.524 . S
C1871 C1875 1.400 . S
C1872 H1857 0.960 . S
C1872 H1858 0.960 . S
C1872 H1859 0.960 . S
C1872 C1871 1.524 . S
C1873 C1870 1.403 . S
C1873 C1874 1.392 . S
C1873 C1877 1.495 . S
C1874 C1873 1.392 . S
C1874 C1875 1.385 . S
C1874 C1876 1.478 . S
C1875 H1869 0.930 . S
C1875 C1871 1.400 . S
C1875 C1874 1.385 . S
C1876 C1874 1.478 . S
C1876 C1878 1.381 . S
C1876 C1882 1.383 . S
C1877 C1873 1.495 . S
C1877 H1883 0.959 . S
C1877 H1884 0.961 . S
C1877 H1885 0.960 . S
C1878 C1876 1.381 . S
C1878 C1879 1.394 . S
C1878 H1886 0.930 . S
C1879 C1878 1.394 . S
C1879 C1880 1.383 . S
C1879 H1887 0.929 . S
C1880 C1879 1.383 . S
C1880 C1881 1.377 . S
C1881 H1865 0.930 . S
C1881 C1880 1.377 . S
C1881 C1882 1.379 . S
C1882 H1866 0.931 . S
C1882 C1876 1.383 . S
C1882 C1881 1.379 . S
H1883 C1877 0.959 . S
H1884 C1877 0.961 . S
H1885 C1877 0.960 . S
H1886 C1878 0.930 . S
H1887 C1879 0.929 . S
H1888 C1896 0.929 . S
H1889 C1898 0.930 . S
H1890 C1900 0.930 . S
H1891 C1903 0.929 . S
H1892 C1906 0.930 . S
H1893 C1908 0.960 . S
H1894 C1908 0.960 . S
H1895 C1908 0.960 . S
C1896 H1888 0.929 . S
C1896 C1897 1.377 . S
C1896 C1898 1.384 . S
C1897 C1896 1.377 . S
C1897 C1903 1.390 . S
C1898 H1889 0.930 . S
C1898 C1896 1.384 . S
C1898 C1899 1.372 . S
C1899 C1898 1.372 . S
C1899 C1900 1.400 . S
C1899 C1904 1.490 . S
C1900 H1890 0.930 . S
C1900 C1899 1.400 . S
C1900 C1903 1.386 . S
H1901 C1917 0.930 . S
H1902 C1918 0.931 . S
C1903 H1891 0.929 . S
C1903 C1897 1.390 . S
C1903 C1900 1.386 . S
C1904 C1899 1.490 . S
C1904 C1906 1.395 . S
C1904 C1907 1.403 . S
H1905 C1911 0.930 . S
C1906 H1892 0.930 . S
C1906 C1904 1.395 . S
C1906 C1909 1.403 . S
C1907 C1904 1.403 . S
C1907 C1908 1.524 . S
C1907 C1911 1.400 . S
C1908 H1893 0.960 . S
C1908 H1894 0.960 . S
C1908 H1895 0.960 . S
C1908 C1907 1.524 . S
C1909 C1906 1.403 . S
C1909 C1910 1.392 . S
C1909 C1913 1.495 . S
C1910 C1909 1.392 . S
C1910 C1911 1.385 . S
C1910 C1912 1.478 . S
C1911 H1905 0.930 . S
C1911 C1907 1.400 . S
C1911 C1910 1.385 . S
C1912 C1910 1.478 . S
C1912 C1914 1.381 . S
C1912 C1918 1.383 . S
C1913 C1909 1.495 . S
C1913 H1919 0.959 . S
C1913 H1920 0.961 . S
C1913 H1921 0.960 . S
C1914 C1912 1.381 . S
C1914 C1915 1.394 . S
C1914 H1922 0.930 . S
C1915 C1914 1.394 . S
C1915 C1916 1.383 . S
C1915 H1923 0.929 . S
C1916 C1915 1.383 . S
C1916 C1917 1.377 . S
C1917 H1901 0.930 . S
C1917 C1916 1.377 . S
C1917 C1918 1.379 . S
C1918 H1902 0.931 . S
C1918 C1912 1.383 . S
C1918 C1917 1.379 . S
H1919 C1913 0.959 . S
H1920 C1913 0.961 . S
H1921 C1913 0.960 . S
H1922 C1914 0.930 . S
H1923 C1915 0.929 . S
H1924 C1932 0.929 . S
H1925 C1934 0.930 . S
H1926 C1936 0.930 . S
H1927 C1939 0.929 . S
H1928 C1942 0.930 . S
H1929 C1944 0.960 . S
H1930 C1944 0.960 . S
H1931 C1944 0.960 . S
C1932 H1924 0.929 . S
C1932 C1933 1.377 . S
C1932 C1934 1.384 . S
C1933 C1932 1.377 . S
C1933 C1939 1.390 . S
C1934 H1925 0.930 . S
C1934 C1932 1.384 . S
C1934 C1935 1.372 . S
C1935 C1934 1.372 . S
C1935 C1936 1.400 . S
C1935 C1940 1.490 . S
C1936 H1926 0.930 . S
C1936 C1935 1.400 . S
C1936 C1939 1.386 . S
H1937 C1953 0.930 . S
H1938 C1954 0.931 . S
C1939 H1927 0.929 . S
C1939 C1933 1.390 . S
C1939 C1936 1.386 . S
C1940 C1935 1.490 . S
C1940 C1942 1.395 . S
C1940 C1943 1.403 . S
H1941 C1947 0.930 . S
C1942 H1928 0.930 . S
C1942 C1940 1.395 . S
C1942 C1945 1.403 . S
C1943 C1940 1.403 . S
C1943 C1944 1.524 . S
C1943 C1947 1.400 . S
C1944 H1929 0.960 . S
C1944 H1930 0.960 . S
C1944 H1931 0.960 . S
C1944 C1943 1.524 . S
C1945 C1942 1.403 . S
C1945 C1946 1.392 . S
C1945 C1949 1.495 . S
C1946 C1945 1.392 . S
C1946 C1947 1.385 . S
C1946 C1948 1.478 . S
C1947 H1941 0.930 . S
C1947 C1943 1.400 . S
C1947 C1946 1.385 . S
C1948 C1946 1.478 . S
C1948 C1950 1.381 . S
C1948 C1954 1.383 . S
C1949 C1945 1.495 . S
C1949 H1955 0.959 . S
C1949 H1956 0.961 . S
C1949 H1957 0.960 . S
C1950 C1948 1.381 . S
C1950 C1951 1.394 . S
C1950 H1958 0.930 . S
C1951 C1950 1.394 . S
C1951 C1952 1.383 . S
C1951 H1959 0.929 . S
C1952 C1951 1.383 . S
C1952 C1953 1.377 . S
C1953 H1937 0.930 . S
C1953 C1952 1.377 . S
C1953 C1954 1.379 . S
C1954 H1938 0.931 . S
C1954 C1948 1.383 . S
C1954 C1953 1.379 . S
H1955 C1949 0.959 . S
H1956 C1949 0.961 . S
H1957 C1949 0.960 . S
H1958 C1950 0.930 . S
H1959 C1951 0.929 . S
H1960 C1968 0.929 . S
H1961 C1970 0.930 . S
H1962 C1972 0.930 . S
H1963 C1975 0.929 . S
H1964 C1978 0.930 . S
H1965 C1980 0.960 . S
H1966 C1980 0.960 . S
H1967 C1980 0.960 . S
C1968 H1960 0.929 . S
C1968 C1969 1.377 . S
C1968 C1970 1.384 . S
C1969 C1968 1.377 . S
C1969 C1975 1.390 . S
C1970 H1961 0.930 . S
C1970 C1968 1.384 . S
C1970 C1971 1.372 . S
C1971 C1970 1.372 . S
C1971 C1972 1.400 . S
C1971 C1976 1.490 . S
C1972 H1962 0.930 . S
C1972 C1971 1.400 . S
C1972 C1975 1.386 . S
H1973 C1989 0.930 . S
H1974 C1990 0.931 . S
C1975 H1963 0.929 . S
C1975 C1969 1.390 . S
C1975 C1972 1.386 . S
C1976 C1971 1.490 . S
C1976 C1978 1.395 . S
C1976 C1979 1.403 . S
H1977 C1983 0.930 . S
C1978 H1964 0.930 . S
C1978 C1976 1.395 . S
C1978 C1981 1.403 . S
C1979 C1976 1.403 . S
C1979 C1980 1.524 . S
C1979 C1983 1.400 . S
C1980 H1965 0.960 . S
C1980 H1966 0.960 . S
C1980 H1967 0.960 . S
C1980 C1979 1.524 . S
C1981 C1978 1.403 . S
C1981 C1982 1.392 . S
C1981 C1985 1.495 . S
C1982 C1981 1.392 . S
C1982 C1983 1.385 . S
C1982 C1984 1.478 . S
C1983 H1977 0.930 . S
C1983 C1979 1.400 . S
C1983 C1982 1.385 . S
C1984 C1982 1.478 . S
C1984 C1986 1.381 . S
C1984 C1990 1.383 . S
C1985 C1981 1.495 . S
C1985 H1991 0.959 . S
C1985 H1992 0.961 . S
C1985 H1993 0.960 . S
C1986 C1984 1.381 . S
C1986 C1987 1.394 . S
C1986 H1994 0.930 . S
C1987 C1986 1.394 . S
C1987 C1988 1.383 . S
C1987 H1995 0.929 . S
C1988 C1987 1.383 . S
C1988 C1989 1.377 . S
C1989 H1973 0.930 . S
C1989 C1988 1.377 . S
C1989 C1990 1.379 . S
C1990 H1974 0.931 . S
C1990 C1984 1.383 . S
C1990 C1989 1.379 . S
H1991 C1985 0.959 . S
H1992 C1985 0.961 . S
H1993 C1985 0.960 . S
H1994 C1986 0.930 . S
H1995 C1987 0.929 . S
H1996 C2004 0.929 . S
H1997 C2006 0.930 . S
H1998 C2008 0.930 . S
H1999 C2011 0.929 . S
H2000 C2014 0.930 . S
H2001 C2016 0.960 . S
H2002 C2016 0.960 . S
H2003 C2016 0.960 . S
C2004 H1996 0.929 . S
C2004 C2005 1.377 . S
C2004 C2006 1.384 . S
C2005 C2004 1.377 . S
C2005 C2011 1.390 . S
C2006 H1997 0.930 . S
C2006 C2004 1.384 . S
C2006 C2007 1.372 . S
C2007 C2006 1.372 . S
C2007 C2008 1.400 . S
C2007 C2012 1.490 . S
C2008 H1998 0.930 . S
C2008 C2007 1.400 . S
C2008 C2011 1.386 . S
H2009 C2025 0.930 . S
H2010 C2026 0.931 . S
C2011 H1999 0.929 . S
C2011 C2005 1.390 . S
C2011 C2008 1.386 . S
C2012 C2007 1.490 . S
C2012 C2014 1.395 . S
C2012 C2015 1.403 . S
H2013 C2019 0.930 . S
C2014 H2000 0.930 . S
C2014 C2012 1.395 . S
C2014 C2017 1.403 . S
C2015 C2012 1.403 . S
C2015 C2016 1.524 . S
C2015 C2019 1.400 . S
C2016 H2001 0.960 . S
C2016 H2002 0.960 . S
C2016 H2003 0.960 . S
C2016 C2015 1.524 . S
C2017 C2014 1.403 . S
C2017 C2018 1.392 . S
C2017 C2021 1.495 . S
C2018 C2017 1.392 . S
C2018 C2019 1.385 . S
C2018 C2020 1.478 . S
C2019 H2013 0.930 . S
C2019 C2015 1.400 . S
C2019 C2018 1.385 . S
C2020 C2018 1.478 . S
C2020 C2022 1.381 . S
C2020 C2026 1.383 . S
C2021 C2017 1.495 . S
C2021 H2027 0.959 . S
C2021 H2028 0.961 . S
C2021 H2029 0.960 . S
C2022 C2020 1.381 . S
C2022 C2023 1.394 . S
C2022 H2030 0.930 . S
C2023 C2022 1.394 . S
C2023 C2024 1.383 . S
C2023 H2031 0.929 . S
C2024 C2023 1.383 . S
C2024 C2025 1.377 . S
C2025 H2009 0.930 . S
C2025 C2024 1.377 . S
C2025 C2026 1.379 . S
C2026 H2010 0.931 . S
C2026 C2020 1.383 . S
C2026 C2025 1.379 . S
H2027 C2021 0.959 . S
H2028 C2021 0.961 . S
H2029 C2021 0.960 . S
H2030 C2022 0.930 . S
H2031 C2023 0.929 . S
H2032 C2040 0.929 . S
H2033 C2042 0.930 . S
H2034 C2044 0.931 . S
H2035 C2047 0.929 1_655 S
H2036 C2050 0.930 . S
H2037 C2052 0.960 . S
H2038 C2052 0.960 1_455 S
H2039 C2052 0.960 . S
C2040 H2032 0.929 . S
C2040 C2041 1.377 . S
C2040 C2042 1.384 . S
C2041 C2040 1.377 . S
C2041 C2047 1.390 . S
C2042 H2033 0.930 . S
C2042 C2040 1.384 . S
C2042 C2043 1.372 . S
C2043 C2042 1.372 . S
C2043 C2044 1.399 1_455 S
C2043 C2048 1.490 . S
C2044 H2034 0.931 . S
C2044 C2043 1.399 1_655 S
C2044 C2047 1.385 1_655 S
H2045 C2061 0.930 . S
H2046 C2062 0.931 . S
C2047 H2035 0.929 1_455 S
C2047 C2041 1.390 . S
C2047 C2044 1.385 1_455 S
C2048 C2043 1.490 . S
C2048 C2050 1.395 1_565 S
C2048 C2051 1.403 1_455 S
H2049 C2055 0.930 . S
C2050 H2036 0.930 . S
C2050 C2048 1.395 1_545 S
C2050 C2053 1.403 . S
C2051 C2048 1.403 1_655 S
C2051 C2052 1.524 . S
C2051 C2055 1.400 . S
C2052 H2037 0.960 . S
C2052 H2038 0.960 1_655 S
C2052 H2039 0.960 . S
C2052 C2051 1.524 . S
C2053 C2050 1.403 . S
C2053 C2054 1.392 1_455 S
C2053 C2057 1.495 . S
C2054 C2053 1.392 1_655 S
C2054 C2055 1.385 1_545 S
C2054 C2056 1.478 . S
C2055 H2049 0.930 . S
C2055 C2051 1.400 . S
C2055 C2054 1.385 1_565 S
C2056 C2054 1.478 . S
C2056 C2058 1.381 1_655 S
C2056 C2062 1.383 . S
C2057 C2053 1.495 . S
C2057 H2063 0.959 . S
C2057 H2064 0.961 1_455 S
C2057 H2065 0.960 . S
C2058 C2056 1.381 1_455 S
C2058 C2059 1.394 1_455 S
C2058 H2066 0.930 . S
C2059 C2058 1.394 1_655 S
C2059 C2060 1.383 . S
C2059 H2067 0.929 1_655 S
C2060 C2059 1.383 . S
C2060 C2061 1.377 . S
C2061 H2045 0.930 . S
C2061 C2060 1.377 . S
C2061 C2062 1.379 . S
C2062 H2046 0.931 . S
C2062 C2056 1.383 . S
C2062 C2061 1.379 . S
H2063 C2057 0.959 . S
H2064 C2057 0.961 1_655 S
H2065 C2057 0.960 . S
H2066 C2058 0.930 . S
H2067 C2059 0.929 1_455 S
H2068 C2076 0.929 . S
H2069 C2078 0.930 . S
H2070 C2080 0.953 . S
H2071 C2083 0.929 1_455 S
H2072 C2086 0.930 . S
H2073 C2088 0.960 . S
H2074 C2088 0.960 . S
H2075 C2088 0.960 . S
C2076 H2068 0.929 . S
C2076 C2077 1.377 . S
C2076 C2078 1.384 . S
C2077 C2076 1.377 . S
C2077 C2083 1.390 . S
C2078 H2069 0.930 . S
C2078 C2076 1.384 . S
C2078 C2079 1.372 . S
C2079 C2078 1.372 . S
C2079 C2080 1.384 1_655 S
C2079 C2084 1.490 . S
C2080 H2070 0.953 . S
C2080 C2079 1.384 1_455 S
C2080 C2083 1.379 1_455 S
H2081 C2097 0.930 . S
H2082 C2098 0.931 . S
C2083 H2071 0.929 1_655 S
C2083 C2077 1.390 . S
C2083 C2080 1.379 1_655 S
C2084 C2079 1.490 . S
C2084 C2086 1.395 . S
C2084 C2087 1.403 1_655 S
H2085 C2091 0.930 . S
C2086 H2072 0.930 . S
C2086 C2084 1.395 . S
C2086 C2089 1.403 . S
C2087 C2084 1.403 1_455 S
C2087 C2088 1.524 . S
C2087 C2091 1.400 . S
C2088 H2073 0.960 . S
C2088 H2074 0.960 . S
C2088 H2075 0.960 . S
C2088 C2087 1.524 . S
C2089 C2086 1.403 . S
C2089 C2090 1.392 1_655 S
C2089 C2093 1.495 . S
C2090 C2089 1.392 1_455 S
C2090 C2091 1.385 . S
C2090 C2092 1.478 . S
C2091 H2085 0.930 . S
C2091 C2087 1.400 . S
C2091 C2090 1.385 . S
C2092 C2090 1.478 . S
C2092 C2094 1.381 1_455 S
C2092 C2098 1.383 . S
C2093 C2089 1.495 . S
C2093 H2099 0.959 . S
C2093 H2100 0.961 . S
C2093 H2101 0.960 . S
C2094 C2092 1.381 1_655 S
C2094 C2095 1.394 1_655 S
C2094 H2102 0.930 . S
C2095 C2094 1.394 1_455 S
C2095 C2096 1.383 . S
C2095 H2103 0.929 1_455 S
C2096 C2095 1.383 . S
C2096 C2097 1.377 . S
C2097 H2081 0.930 . S
C2097 C2096 1.377 . S
C2097 C2098 1.379 . S
C2098 H2082 0.931 . S
C2098 C2092 1.383 . S
C2098 C2097 1.379 . S
H2099 C2093 0.959 . S
H2100 C2093 0.961 . S
H2101 C2093 0.960 . S
H2102 C2094 0.930 . S
H2103 C2095 0.929 1_655 S
H2104 C2112 0.929 . S
H2105 C2114 0.930 1_455 S
H2106 C2116 0.930 . S
H2107 C2119 0.929 . S
H2108 C2122 0.930 . S
H2109 C2124 0.960 . S
H2110 C2124 0.960 . S
H2111 C2124 0.960 1_655 S
C2112 H2104 0.929 . S
C2112 C2113 1.377 . S
C2112 C2114 1.384 . S
C2113 C2112 1.377 . S
C2113 C2119 1.390 . S
C2114 H2105 0.930 1_655 S
C2114 C2112 1.384 . S
C2114 C2115 1.372 . S
C2115 C2114 1.372 . S
C2115 C2116 1.400 . S
C2115 C2120 1.490 . S
C2116 H2106 0.930 . S
C2116 C2115 1.400 . S
C2116 C2119 1.386 . S
H2117 C2133 0.930 . S
H2118 C2134 0.931 1_655 S
C2119 H2107 0.929 . S
C2119 C2113 1.390 . S
C2119 C2116 1.386 . S
C2120 C2115 1.490 . S
C2120 C2122 1.395 . S
C2120 C2123 1.403 1_655 S
H2121 C2127 0.930 . S
C2122 H2108 0.930 . S
C2122 C2120 1.395 . S
C2122 C2125 1.403 . S
C2123 C2120 1.403 1_455 S
C2123 C2124 1.524 . S
C2123 C2127 1.400 . S
C2124 H2109 0.960 . S
C2124 H2110 0.960 . S
C2124 H2111 0.960 1_455 S
C2124 C2123 1.524 . S
C2125 C2122 1.403 . S
C2125 C2126 1.392 1_655 S
C2125 C2129 1.495 . S
C2126 C2125 1.392 1_455 S
C2126 C2127 1.385 . S
C2126 C2128 1.478 . S
C2127 H2121 0.930 . S
C2127 C2123 1.400 . S
C2127 C2126 1.385 . S
C2128 C2126 1.478 . S
C2128 C2130 1.381 . S
C2128 C2134 1.383 . S
C2129 C2125 1.495 . S
C2129 H2135 0.959 . S
C2129 H2136 0.961 . S
C2129 H2137 0.960 1_655 S
C2130 C2128 1.381 . S
C2130 C2131 1.394 . S
C2130 H2138 0.930 . S
C2131 C2130 1.394 . S
C2131 C2132 1.383 . S
C2131 H2139 0.929 . S
C2132 C2131 1.383 . S
C2132 C2133 1.377 . S
C2133 H2117 0.930 . S
C2133 C2132 1.377 . S
C2133 C2134 1.379 . S
C2134 H2118 0.931 1_455 S
C2134 C2128 1.383 . S
C2134 C2133 1.379 . S
H2135 C2129 0.959 . S
H2136 C2129 0.961 . S
H2137 C2129 0.960 1_455 S
H2138 C2130 0.930 . S
H2139 C2131 0.929 . S
H2140 C2148 0.929 1_655 S
H2141 C2150 0.930 . S
H2142 C2152 0.930 . S
H2143 C2155 0.929 . S
H2144 C2158 0.930 . S
H2145 C2160 0.960 . S
H2146 C2160 0.960 . S
H2147 C2160 0.960 . S
C2148 H2140 0.929 1_455 S
C2148 C2149 1.377 . S
C2148 C2150 1.384 1_455 S
C2149 C2148 1.377 . S
C2149 C2155 1.390 . S
C2150 H2141 0.930 . S
C2150 C2148 1.384 1_655 S
C2150 C2151 1.372 1_655 S
C2151 C2150 1.372 1_455 S
C2151 C2152 1.400 . S
C2151 C2156 1.490 . S
C2152 H2142 0.930 . S
C2152 C2151 1.400 . S
C2152 C2155 1.386 . S
H2153 C2169 0.930 1_455 S
H2154 C2170 0.936 . S
C2155 H2143 0.929 . S
C2155 C2149 1.390 . S
C2155 C2152 1.386 . S
C2156 C2151 1.490 . S
C2156 C2158 1.395 1_455 S
C2156 C2159 1.403 . S
H2157 C2163 0.930 . S
C2158 H2144 0.930 . S
C2158 C2156 1.395 1_655 S
C2158 C2161 1.403 1_556 S
C2159 C2156 1.403 . S
C2159 C2160 1.524 . S
C2159 C2163 1.400 1_556 S
C2160 H2145 0.960 . S
C2160 H2146 0.960 . S
C2160 H2147 0.960 . S
C2160 C2159 1.524 . S
C2161 C2158 1.403 1_554 S
C2161 C2162 1.392 . S
C2161 C2165 1.495 . S
C2162 C2161 1.392 . S
C2162 C2163 1.385 1_655 S
C2162 C2164 1.478 . S
C2163 H2157 0.930 . S
C2163 C2159 1.400 1_554 S
C2163 C2162 1.385 1_455 S
C2164 C2162 1.478 . S
C2164 C2166 1.381 . S
C2164 C2170 1.379 1_655 S
C2165 C2161 1.495 . S
C2165 H2171 0.959 . S
C2165 H2172 0.961 . S
C2165 H2173 0.960 . S
C2166 C2164 1.381 . S
C2166 C2167 1.394 . S
C2166 H2174 0.930 . S
C2167 C2166 1.394 . S
C2167 C2168 1.383 . S
C2167 H2175 0.929 . S
C2168 C2167 1.383 . S
C2168 C2169 1.377 . S
C2169 H2153 0.930 1_655 S
C2169 C2168 1.377 . S
C2169 C2170 1.378 1_655 S
C2170 H2154 0.936 . S
C2170 C2164 1.379 1_455 S
C2170 C2169 1.378 1_455 S
H2171 C2165 0.959 . S
H2172 C2165 0.961 . S
H2173 C2165 0.960 . S
H2174 C2166 0.930 . S
H2175 C2167 0.929 . S
H2176 C2184 0.929 . S
H2177 C2186 0.930 . S
H2178 C2188 0.930 . S
H2179 C2191 0.929 . S
H2180 C2194 0.930 . S
H2181 C2196 0.960 . S
H2182 C2196 0.960 . S
H2183 C2196 0.960 . S
C2184 H2176 0.929 . S
C2184 C2185 1.377 . S
C2184 C2186 1.384 . S
C2185 C2184 1.377 . S
C2185 C2191 1.390 . S
C2186 H2177 0.930 . S
C2186 C2184 1.384 . S
C2186 C2187 1.372 . S
C2187 C2186 1.372 . S
C2187 C2188 1.400 . S
C2187 C2192 1.490 . S
C2188 H2178 0.930 . S
C2188 C2187 1.400 . S
C2188 C2191 1.386 . S
H2189 C2205 0.930 . S
H2190 C2206 0.931 . S
C2191 H2179 0.929 . S
C2191 C2185 1.390 . S
C2191 C2188 1.386 . S
C2192 C2187 1.490 . S
C2192 C2194 1.395 . S
C2192 C2195 1.403 . S
H2193 C2199 0.930 . S
C2194 H2180 0.930 . S
C2194 C2192 1.395 . S
C2194 C2197 1.403 . S
C2195 C2192 1.403 . S
C2195 C2196 1.524 . S
C2195 C2199 1.400 . S
C2196 H2181 0.960 . S
C2196 H2182 0.960 . S
C2196 H2183 0.960 . S
C2196 C2195 1.524 . S
C2197 C2194 1.403 . S
C2197 C2198 1.392 . S
C2197 C2201 1.495 . S
C2198 C2197 1.392 . S
C2198 C2199 1.385 . S
C2198 C2200 1.478 . S
C2199 H2193 0.930 . S
C2199 C2195 1.400 . S
C2199 C2198 1.385 . S
C2200 C2198 1.478 . S
C2200 C2202 1.381 . S
C2200 C2206 1.383 . S
C2201 C2197 1.495 . S
C2201 H2207 0.959 . S
C2201 H2208 0.961 . S
C2201 H2209 0.960 . S
C2202 C2200 1.381 . S
C2202 C2203 1.394 . S
C2202 H2210 0.930 . S
C2203 C2202 1.394 . S
C2203 C2204 1.383 . S
C2203 H2211 0.929 . S
C2204 C2203 1.383 . S
C2204 C2205 1.377 . S
C2205 H2189 0.930 . S
C2205 C2204 1.377 . S
C2205 C2206 1.379 . S
C2206 H2190 0.931 . S
C2206 C2200 1.383 . S
C2206 C2205 1.379 . S
H2207 C2201 0.959 . S
H2208 C2201 0.961 . S
H2209 C2201 0.960 . S
H2210 C2202 0.930 . S
H2211 C2203 0.929 . S
H2212 C2220 0.929 . S
H2213 C2222 0.930 . S
H2214 C2224 0.930 . S
H2215 C2227 0.929 . S
H2216 C2230 0.930 . S
H2217 C2232 0.960 . S
H2218 C2232 0.960 . S
H2219 C2232 0.960 . S
C2220 H2212 0.929 . S
C2220 C2221 1.377 . S
C2220 C2222 1.384 . S
C2221 C2220 1.377 . S
C2221 C2227 1.390 . S
C2222 H2213 0.930 . S
C2222 C2220 1.384 . S
C2222 C2223 1.372 . S
C2223 C2222 1.372 . S
C2223 C2224 1.400 . S
C2223 C2228 1.490 . S
C2224 H2214 0.930 . S
C2224 C2223 1.400 . S
C2224 C2227 1.386 . S
H2225 C2241 0.930 . S
H2226 C2242 0.931 . S
C2227 H2215 0.929 . S
C2227 C2221 1.390 . S
C2227 C2224 1.386 . S
C2228 C2223 1.490 . S
C2228 C2230 1.395 . S
C2228 C2231 1.403 . S
H2229 C2235 0.930 . S
C2230 H2216 0.930 . S
C2230 C2228 1.395 . S
C2230 C2233 1.403 . S
C2231 C2228 1.403 . S
C2231 C2232 1.524 . S
C2231 C2235 1.400 . S
C2232 H2217 0.960 . S
C2232 H2218 0.960 . S
C2232 H2219 0.960 . S
C2232 C2231 1.524 . S
C2233 C2230 1.403 . S
C2233 C2234 1.392 . S
C2233 C2237 1.495 . S
C2234 C2233 1.392 . S
C2234 C2235 1.385 . S
C2234 C2236 1.478 . S
C2235 H2229 0.930 . S
C2235 C2231 1.400 . S
C2235 C2234 1.385 . S
C2236 C2234 1.478 . S
C2236 C2238 1.381 . S
C2236 C2242 1.383 . S
C2237 C2233 1.495 . S
C2237 H2243 0.959 . S
C2237 H2244 0.961 . S
C2237 H2245 0.960 . S
C2238 C2236 1.381 . S
C2238 C2239 1.394 . S
C2238 H2246 0.930 . S
C2239 C2238 1.394 . S
C2239 C2240 1.383 . S
C2239 H2247 0.929 . S
C2240 C2239 1.383 . S
C2240 C2241 1.377 . S
C2241 H2225 0.930 . S
C2241 C2240 1.377 . S
C2241 C2242 1.379 . S
C2242 H2226 0.931 . S
C2242 C2236 1.383 . S
C2242 C2241 1.379 . S
H2243 C2237 0.959 . S
H2244 C2237 0.961 . S
H2245 C2237 0.960 . S
H2246 C2238 0.930 . S
H2247 C2239 0.929 . S
H2248 C2256 0.929 . S
H2249 C2258 0.930 . S
H2250 C2260 0.930 . S
H2251 C2263 0.929 . S
H2252 C2266 0.930 . S
H2253 C2268 0.960 . S
H2254 C2268 0.960 . S
H2255 C2268 0.960 . S
C2256 H2248 0.929 . S
C2256 C2257 1.377 . S
C2256 C2258 1.384 . S
C2257 C2256 1.377 . S
C2257 C2263 1.390 . S
C2258 H2249 0.930 . S
C2258 C2256 1.384 . S
C2258 C2259 1.372 . S
C2259 C2258 1.372 . S
C2259 C2260 1.400 . S
C2259 C2264 1.490 . S
C2260 H2250 0.930 . S
C2260 C2259 1.400 . S
C2260 C2263 1.386 . S
H2261 C2277 0.930 . S
H2262 C2278 0.931 . S
C2263 H2251 0.929 . S
C2263 C2257 1.390 . S
C2263 C2260 1.386 . S
C2264 C2259 1.490 . S
C2264 C2266 1.395 . S
C2264 C2267 1.403 . S
H2265 C2271 0.930 . S
C2266 H2252 0.930 . S
C2266 C2264 1.395 . S
C2266 C2269 1.403 . S
C2267 C2264 1.403 . S
C2267 C2268 1.524 . S
C2267 C2271 1.400 . S
C2268 H2253 0.960 . S
C2268 H2254 0.960 . S
C2268 H2255 0.960 . S
C2268 C2267 1.524 . S
C2269 C2266 1.403 . S
C2269 C2270 1.392 . S
C2269 C2273 1.495 . S
C2270 C2269 1.392 . S
C2270 C2271 1.385 . S
C2270 C2272 1.478 . S
C2271 H2265 0.930 . S
C2271 C2267 1.400 . S
C2271 C2270 1.385 . S
C2272 C2270 1.478 . S
C2272 C2274 1.381 . S
C2272 C2278 1.383 . S
C2273 C2269 1.495 . S
C2273 H2279 0.959 . S
C2273 H2280 0.961 . S
C2273 H2281 0.960 . S
C2274 C2272 1.381 . S
C2274 C2275 1.394 . S
C2274 H2282 0.930 . S
C2275 C2274 1.394 . S
C2275 C2276 1.383 . S
C2275 H2283 0.929 . S
C2276 C2275 1.383 . S
C2276 C2277 1.377 . S
C2277 H2261 0.930 . S
C2277 C2276 1.377 . S
C2277 C2278 1.379 . S
C2278 H2262 0.931 . S
C2278 C2272 1.383 . S
C2278 C2277 1.379 . S
H2279 C2273 0.959 . S
H2280 C2273 0.961 . S
H2281 C2273 0.960 . S
H2282 C2274 0.930 . S
H2283 C2275 0.929 . S
H2284 C2292 0.929 . S
H2285 C2294 0.930 . S
H2286 C2296 0.930 . S
H2287 C2299 0.929 . S
H2288 C2302 0.930 . S
H2289 C2304 0.960 . S
H2290 C2304 0.960 . S
H2291 C2304 0.960 . S
C2292 H2284 0.929 . S
C2292 C2293 1.377 . S
C2292 C2294 1.384 . S
C2293 C2292 1.377 . S
C2293 C2299 1.390 . S
C2294 H2285 0.930 . S
C2294 C2292 1.384 . S
C2294 C2295 1.372 . S
C2295 C2294 1.372 . S
C2295 C2296 1.400 . S
C2295 C2300 1.490 . S
C2296 H2286 0.930 . S
C2296 C2295 1.400 . S
C2296 C2299 1.386 . S
H2297 C2313 0.930 . S
H2298 C2314 0.931 . S
C2299 H2287 0.929 . S
C2299 C2293 1.390 . S
C2299 C2296 1.386 . S
C2300 C2295 1.490 . S
C2300 C2302 1.395 . S
C2300 C2303 1.403 . S
H2301 C2307 0.930 . S
C2302 H2288 0.930 . S
C2302 C2300 1.395 . S
C2302 C2305 1.403 . S
C2303 C2300 1.403 . S
C2303 C2304 1.524 . S
C2303 C2307 1.400 . S
C2304 H2289 0.960 . S
C2304 H2290 0.960 . S
C2304 H2291 0.960 . S
C2304 C2303 1.524 . S
C2305 C2302 1.403 . S
C2305 C2306 1.392 . S
C2305 C2309 1.495 . S
C2306 C2305 1.392 . S
C2306 C2307 1.385 . S
C2306 C2308 1.478 . S
C2307 H2301 0.930 . S
C2307 C2303 1.400 . S
C2307 C2306 1.385 . S
C2308 C2306 1.478 . S
C2308 C2310 1.381 . S
C2308 C2314 1.383 . S
C2309 C2305 1.495 . S
C2309 H2315 0.959 . S
C2309 H2316 0.961 . S
C2309 H2317 0.960 . S
C2310 C2308 1.381 . S
C2310 C2311 1.394 . S
C2310 H2318 0.930 . S
C2311 C2310 1.394 . S
C2311 C2312 1.383 . S
C2311 H2319 0.929 . S
C2312 C2311 1.383 . S
C2312 C2313 1.377 . S
C2313 H2297 0.930 . S
C2313 C2312 1.377 . S
C2313 C2314 1.379 . S
C2314 H2298 0.931 . S
C2314 C2308 1.383 . S
C2314 C2313 1.379 . S
H2315 C2309 0.959 . S
H2316 C2309 0.961 . S
H2317 C2309 0.960 . S
H2318 C2310 0.930 . S
H2319 C2311 0.929 . S
H2320 C2328 0.929 . S
H2321 C2330 0.930 . S
H2322 C2332 0.930 . S
H2323 C2335 0.929 . S
H2324 C2338 0.930 . S
H2325 C2340 0.960 . S
H2326 C2340 0.960 . S
H2327 C2340 0.960 . S
C2328 H2320 0.929 . S
C2328 C2329 1.377 . S
C2328 C2330 1.384 . S
C2329 C2328 1.377 . S
C2329 C2335 1.390 . S
C2330 H2321 0.930 . S
C2330 C2328 1.384 . S
C2330 C2331 1.372 . S
C2331 C2330 1.372 . S
C2331 C2332 1.400 . S
C2331 C2336 1.490 . S
C2332 H2322 0.930 . S
C2332 C2331 1.400 . S
C2332 C2335 1.386 . S
H2333 C2349 0.930 . S
H2334 C2350 0.931 . S
C2335 H2323 0.929 . S
C2335 C2329 1.390 . S
C2335 C2332 1.386 . S
C2336 C2331 1.490 . S
C2336 C2338 1.395 . S
C2336 C2339 1.403 . S
H2337 C2343 0.930 . S
C2338 H2324 0.930 . S
C2338 C2336 1.395 . S
C2338 C2341 1.403 . S
C2339 C2336 1.403 . S
C2339 C2340 1.524 . S
C2339 C2343 1.400 . S
C2340 H2325 0.960 . S
C2340 H2326 0.960 . S
C2340 H2327 0.960 . S
C2340 C2339 1.524 . S
C2341 C2338 1.403 . S
C2341 C2342 1.392 . S
C2341 C2345 1.495 . S
C2342 C2341 1.392 . S
C2342 C2343 1.385 . S
C2342 C2344 1.478 . S
C2343 H2337 0.930 . S
C2343 C2339 1.400 . S
C2343 C2342 1.385 . S
C2344 C2342 1.478 . S
C2344 C2346 1.381 . S
C2344 C2350 1.383 . S
C2345 C2341 1.495 . S
C2345 H2351 0.959 . S
C2345 H2352 0.961 . S
C2345 H2353 0.960 . S
C2346 C2344 1.381 . S
C2346 C2347 1.394 . S
C2346 H2354 0.930 . S
C2347 C2346 1.394 . S
C2347 C2348 1.383 . S
C2347 H2355 0.929 . S
C2348 C2347 1.383 . S
C2348 C2349 1.377 . S
C2349 H2333 0.930 . S
C2349 C2348 1.377 . S
C2349 C2350 1.379 . S
C2350 H2334 0.931 . S
C2350 C2344 1.383 . S
C2350 C2349 1.379 . S
H2351 C2345 0.959 . S
H2352 C2345 0.961 . S
H2353 C2345 0.960 . S
H2354 C2346 0.930 . S
H2355 C2347 0.929 . S
H2356 C2364 0.929 . S
H2357 C2366 0.930 . S
H2358 C2368 0.930 . S
H2359 C2371 0.929 . S
H2360 C2374 0.930 . S
H2361 C2376 0.960 . S
H2362 C2376 0.960 . S
H2363 C2376 0.960 . S
C2364 H2356 0.929 . S
C2364 C2365 1.377 . S
C2364 C2366 1.384 . S
C2365 C2364 1.377 . S
C2365 C2371 1.390 . S
C2366 H2357 0.930 . S
C2366 C2364 1.384 . S
C2366 C2367 1.372 . S
C2367 C2366 1.372 . S
C2367 C2368 1.400 . S
C2367 C2372 1.490 . S
C2368 H2358 0.930 . S
C2368 C2367 1.400 . S
C2368 C2371 1.386 . S
H2369 C2385 0.930 . S
H2370 C2386 0.931 . S
C2371 H2359 0.929 . S
C2371 C2365 1.390 . S
C2371 C2368 1.386 . S
C2372 C2367 1.490 . S
C2372 C2374 1.395 . S
C2372 C2375 1.403 . S
H2373 C2379 0.930 . S
C2374 H2360 0.930 . S
C2374 C2372 1.395 . S
C2374 C2377 1.403 . S
C2375 C2372 1.403 . S
C2375 C2376 1.524 . S
C2375 C2379 1.400 . S
C2376 H2361 0.960 . S
C2376 H2362 0.960 . S
C2376 H2363 0.960 . S
C2376 C2375 1.524 . S
C2377 C2374 1.403 . S
C2377 C2378 1.392 . S
C2377 C2381 1.495 . S
C2378 C2377 1.392 . S
C2378 C2379 1.385 . S
C2378 C2380 1.478 . S
C2379 H2373 0.930 . S
C2379 C2375 1.400 . S
C2379 C2378 1.385 . S
C2380 C2378 1.478 . S
C2380 C2382 1.381 . S
C2380 C2386 1.383 . S
C2381 C2377 1.495 . S
C2381 H2387 0.959 . S
C2381 H2388 0.961 . S
C2381 H2389 0.960 . S
C2382 C2380 1.381 . S
C2382 C2383 1.394 . S
C2382 H2390 0.930 . S
C2383 C2382 1.394 . S
C2383 C2384 1.383 . S
C2383 H2391 0.929 . S
C2384 C2383 1.383 . S
C2384 C2385 1.377 . S
C2385 H2369 0.930 . S
C2385 C2384 1.377 . S
C2385 C2386 1.379 . S
C2386 H2370 0.931 . S
C2386 C2380 1.383 . S
C2386 C2385 1.379 . S
H2387 C2381 0.959 . S
H2388 C2381 0.961 . S
H2389 C2381 0.960 . S
H2390 C2382 0.930 . S
H2391 C2383 0.929 . S
H2392 C2400 0.929 . S
H2393 C2402 0.930 . S
H2394 C2404 0.930 . S
H2395 C2407 0.929 . S
H2396 C2410 0.930 . S
H2397 C2412 0.960 . S
H2398 C2412 0.960 . S
H2399 C2412 0.960 . S
C2400 H2392 0.929 . S
C2400 C2401 1.377 . S
C2400 C2402 1.384 . S
C2401 C2400 1.377 . S
C2401 C2407 1.390 . S
C2402 H2393 0.930 . S
C2402 C2400 1.384 . S
C2402 C2403 1.372 . S
C2403 C2402 1.372 . S
C2403 C2404 1.400 . S
C2403 C2408 1.490 . S
C2404 H2394 0.930 . S
C2404 C2403 1.400 . S
C2404 C2407 1.386 . S
H2405 C2421 0.930 . S
H2406 C2422 0.931 . S
C2407 H2395 0.929 . S
C2407 C2401 1.390 . S
C2407 C2404 1.386 . S
C2408 C2403 1.490 . S
C2408 C2410 1.395 . S
C2408 C2411 1.403 . S
H2409 C2415 0.930 . S
C2410 H2396 0.930 . S
C2410 C2408 1.395 . S
C2410 C2413 1.403 . S
C2411 C2408 1.403 . S
C2411 C2412 1.524 . S
C2411 C2415 1.400 . S
C2412 H2397 0.960 . S
C2412 H2398 0.960 . S
C2412 H2399 0.960 . S
C2412 C2411 1.524 . S
C2413 C2410 1.403 . S
C2413 C2414 1.392 . S
C2413 C2417 1.495 . S
C2414 C2413 1.392 . S
C2414 C2415 1.385 . S
C2414 C2416 1.478 . S
C2415 H2409 0.930 . S
C2415 C2411 1.400 . S
C2415 C2414 1.385 . S
C2416 C2414 1.478 . S
C2416 C2418 1.381 . S
C2416 C2422 1.383 . S
C2417 C2413 1.495 . S
C2417 H2423 0.959 . S
C2417 H2424 0.961 . S
C2417 H2425 0.960 . S
C2418 C2416 1.381 . S
C2418 C2419 1.394 . S
C2418 H2426 0.930 . S
C2419 C2418 1.394 . S
C2419 C2420 1.383 . S
C2419 H2427 0.929 . S
C2420 C2419 1.383 . S
C2420 C2421 1.377 . S
C2421 H2405 0.930 . S
C2421 C2420 1.377 . S
C2421 C2422 1.379 . S
C2422 H2406 0.931 . S
C2422 C2416 1.383 . S
C2422 C2421 1.379 . S
H2423 C2417 0.959 . S
H2424 C2417 0.961 . S
H2425 C2417 0.960 . S
H2426 C2418 0.930 . S
H2427 C2419 0.929 . S
H2428 C2436 0.929 . S
H2429 C2438 0.930 . S
H2430 C2440 0.930 . S
H2431 C2443 0.929 . S
H2432 C2446 0.930 . S
H2433 C2448 0.960 . S
H2434 C2448 0.960 . S
H2435 C2448 0.960 . S
C2436 H2428 0.929 . S
C2436 C2437 1.377 . S
C2436 C2438 1.384 . S
C2437 C2436 1.377 . S
C2437 C2443 1.390 . S
C2438 H2429 0.930 . S
C2438 C2436 1.384 . S
C2438 C2439 1.372 . S
C2439 C2438 1.372 . S
C2439 C2440 1.400 . S
C2439 C2444 1.490 . S
C2440 H2430 0.930 . S
C2440 C2439 1.400 . S
C2440 C2443 1.386 . S
H2441 C2457 0.930 . S
H2442 C2458 0.931 . S
C2443 H2431 0.929 . S
C2443 C2437 1.390 . S
C2443 C2440 1.386 . S
C2444 C2439 1.490 . S
C2444 C2446 1.395 . S
C2444 C2447 1.403 . S
H2445 C2451 0.930 . S
C2446 H2432 0.930 . S
C2446 C2444 1.395 . S
C2446 C2449 1.403 . S
C2447 C2444 1.403 . S
C2447 C2448 1.524 . S
C2447 C2451 1.400 . S
C2448 H2433 0.960 . S
C2448 H2434 0.960 . S
C2448 H2435 0.960 . S
C2448 C2447 1.524 . S
C2449 C2446 1.403 . S
C2449 C2450 1.392 . S
C2449 C2453 1.495 . S
C2450 C2449 1.392 . S
C2450 C2451 1.385 . S
C2450 C2452 1.478 . S
C2451 H2445 0.930 . S
C2451 C2447 1.400 . S
C2451 C2450 1.385 . S
C2452 C2450 1.478 . S
C2452 C2454 1.381 . S
C2452 C2458 1.383 . S
C2453 C2449 1.495 . S
C2453 H2459 0.959 . S
C2453 H2460 0.961 . S
C2453 H2461 0.960 . S
C2454 C2452 1.381 . S
C2454 C2455 1.394 . S
C2454 H2462 0.930 . S
C2455 C2454 1.394 . S
C2455 C2456 1.383 . S
C2455 H2463 0.929 . S
C2456 C2455 1.383 . S
C2456 C2457 1.377 . S
C2457 H2441 0.930 . S
C2457 C2456 1.377 . S
C2457 C2458 1.379 . S
C2458 H2442 0.931 . S
C2458 C2452 1.383 . S
C2458 C2457 1.379 . S
H2459 C2453 0.959 . S
H2460 C2453 0.961 . S
H2461 C2453 0.960 . S
H2462 C2454 0.930 . S
H2463 C2455 0.929 . S
H2464 C2472 0.929 . S
H2465 C2474 0.930 . S
H2466 C2476 0.930 . S
H2467 C2479 0.929 . S
H2468 C2482 0.930 . S
H2469 C2484 0.960 . S
H2470 C2484 0.960 . S
H2471 C2484 0.960 . S
C2472 H2464 0.929 . S
C2472 C2473 1.377 . S
C2472 C2474 1.384 . S
C2473 C2472 1.377 . S
C2473 C2479 1.390 . S
C2474 H2465 0.930 . S
C2474 C2472 1.384 . S
C2474 C2475 1.372 . S
C2475 C2474 1.372 . S
C2475 C2476 1.400 . S
C2475 C2480 1.490 . S
C2476 H2466 0.930 . S
C2476 C2475 1.400 . S
C2476 C2479 1.386 . S
H2477 C2493 0.930 . S
H2478 C2494 0.931 . S
C2479 H2467 0.929 . S
C2479 C2473 1.390 . S
C2479 C2476 1.386 . S
C2480 C2475 1.490 . S
C2480 C2482 1.395 . S
C2480 C2483 1.403 . S
H2481 C2487 0.930 . S
C2482 H2468 0.930 . S
C2482 C2480 1.395 . S
C2482 C2485 1.403 . S
C2483 C2480 1.403 . S
C2483 C2484 1.524 . S
C2483 C2487 1.400 . S
C2484 H2469 0.960 . S
C2484 H2470 0.960 . S
C2484 H2471 0.960 . S
C2484 C2483 1.524 . S
C2485 C2482 1.403 . S
C2485 C2486 1.392 . S
C2485 C2489 1.495 . S
C2486 C2485 1.392 . S
C2486 C2487 1.385 . S
C2486 C2488 1.478 . S
C2487 H2481 0.930 . S
C2487 C2483 1.400 . S
C2487 C2486 1.385 . S
C2488 C2486 1.478 . S
C2488 C2490 1.381 . S
C2488 C2494 1.383 . S
C2489 C2485 1.495 . S
C2489 H2495 0.959 . S
C2489 H2496 0.961 . S
C2489 H2497 0.960 . S
C2490 C2488 1.381 . S
C2490 C2491 1.394 . S
C2490 H2498 0.930 . S
C2491 C2490 1.394 . S
C2491 C2492 1.383 . S
C2491 H2499 0.929 . S
C2492 C2491 1.383 . S
C2492 C2493 1.377 . S
C2493 H2477 0.930 . S
C2493 C2492 1.377 . S
C2493 C2494 1.379 . S
C2494 H2478 0.931 . S
C2494 C2488 1.383 . S
C2494 C2493 1.379 . S
H2495 C2489 0.959 . S
H2496 C2489 0.961 . S
H2497 C2489 0.960 . S
H2498 C2490 0.930 . S
H2499 C2491 0.929 . S
H2500 C2508 0.929 . S
H2501 C2510 0.930 . S
H2502 C2512 0.930 . S
H2503 C2515 0.929 . S
H2504 C2518 0.930 . S
H2505 C2520 0.960 . S
H2506 C2520 0.960 . S
H2507 C2520 0.960 . S
C2508 H2500 0.929 . S
C2508 C2509 1.377 . S
C2508 C2510 1.384 . S
C2509 C2508 1.377 . S
C2509 C2515 1.390 . S
C2510 H2501 0.930 . S
C2510 C2508 1.384 . S
C2510 C2511 1.372 . S
C2511 C2510 1.372 . S
C2511 C2512 1.400 . S
C2511 C2516 1.490 . S
C2512 H2502 0.930 . S
C2512 C2511 1.400 . S
C2512 C2515 1.386 . S
H2513 C2529 0.930 . S
H2514 C2530 0.931 . S
C2515 H2503 0.929 . S
C2515 C2509 1.390 . S
C2515 C2512 1.386 . S
C2516 C2511 1.490 . S
C2516 C2518 1.395 . S
C2516 C2519 1.403 . S
H2517 C2523 0.930 . S
C2518 H2504 0.930 . S
C2518 C2516 1.395 . S
C2518 C2521 1.403 . S
C2519 C2516 1.403 . S
C2519 C2520 1.524 . S
C2519 C2523 1.400 . S
C2520 H2505 0.960 . S
C2520 H2506 0.960 . S
C2520 H2507 0.960 . S
C2520 C2519 1.524 . S
C2521 C2518 1.403 . S
C2521 C2522 1.392 . S
C2521 C2525 1.495 . S
C2522 C2521 1.392 . S
C2522 C2523 1.385 . S
C2522 C2524 1.478 . S
C2523 H2517 0.930 . S
C2523 C2519 1.400 . S
C2523 C2522 1.385 . S
C2524 C2522 1.478 . S
C2524 C2526 1.381 . S
C2524 C2530 1.383 . S
C2525 C2521 1.495 . S
C2525 H2531 0.959 . S
C2525 H2532 0.961 . S
C2525 H2533 0.960 . S
C2526 C2524 1.381 . S
C2526 C2527 1.394 . S
C2526 H2534 0.930 . S
C2527 C2526 1.394 . S
C2527 C2528 1.383 . S
C2527 H2535 0.929 . S
C2528 C2527 1.383 . S
C2528 C2529 1.377 . S
C2529 H2513 0.930 . S
C2529 C2528 1.377 . S
C2529 C2530 1.379 . S
C2530 H2514 0.931 . S
C2530 C2524 1.383 . S
C2530 C2529 1.379 . S
H2531 C2525 0.959 . S
H2532 C2525 0.961 . S
H2533 C2525 0.960 . S
H2534 C2526 0.930 . S
H2535 C2527 0.929 . S
H2536 C2544 0.929 . S
H2537 C2546 0.930 . S
H2538 C2548 0.930 . S
H2539 C2551 0.929 . S
H2540 C2554 0.930 . S
H2541 C2556 0.960 . S
H2542 C2556 0.960 . S
H2543 C2556 0.960 . S
C2544 H2536 0.929 . S
C2544 C2545 1.377 . S
C2544 C2546 1.384 . S
C2545 C2544 1.377 . S
C2545 C2551 1.390 . S
C2546 H2537 0.930 . S
C2546 C2544 1.384 . S
C2546 C2547 1.372 . S
C2547 C2546 1.372 . S
C2547 C2548 1.400 . S
C2547 C2552 1.490 . S
C2548 H2538 0.930 . S
C2548 C2547 1.400 . S
C2548 C2551 1.386 . S
H2549 C2565 0.930 . S
H2550 C2566 0.931 . S
C2551 H2539 0.929 . S
C2551 C2545 1.390 . S
C2551 C2548 1.386 . S
C2552 C2547 1.490 . S
C2552 C2554 1.395 . S
C2552 C2555 1.403 . S
H2553 C2559 0.930 . S
C2554 H2540 0.930 . S
C2554 C2552 1.395 . S
C2554 C2557 1.403 . S
C2555 C2552 1.403 . S
C2555 C2556 1.524 . S
C2555 C2559 1.400 . S
C2556 H2541 0.960 . S
C2556 H2542 0.960 . S
C2556 H2543 0.960 . S
C2556 C2555 1.524 . S
C2557 C2554 1.403 . S
C2557 C2558 1.392 . S
C2557 C2561 1.495 . S
C2558 C2557 1.392 . S
C2558 C2559 1.385 . S
C2558 C2560 1.478 . S
C2559 H2553 0.930 . S
C2559 C2555 1.400 . S
C2559 C2558 1.385 . S
C2560 C2558 1.478 . S
C2560 C2562 1.381 . S
C2560 C2566 1.383 . S
C2561 C2557 1.495 . S
C2561 H2567 0.959 . S
C2561 H2568 0.961 . S
C2561 H2569 0.960 . S
C2562 C2560 1.381 . S
C2562 C2563 1.394 . S
C2562 H2570 0.930 . S
C2563 C2562 1.394 . S
C2563 C2564 1.383 . S
C2563 H2571 0.929 . S
C2564 C2563 1.383 . S
C2564 C2565 1.377 . S
C2565 H2549 0.930 . S
C2565 C2564 1.377 . S
C2565 C2566 1.379 . S
C2566 H2550 0.931 . S
C2566 C2560 1.383 . S
C2566 C2565 1.379 . S
H2567 C2561 0.959 . S
H2568 C2561 0.961 . S
H2569 C2561 0.960 . S
H2570 C2562 0.930 . S
H2571 C2563 0.929 . S
H2572 C2580 0.929 . S
H2573 C2582 0.930 . S
H2574 C2584 0.930 . S
H2575 C2587 0.929 . S
H2576 C2590 0.930 . S
H2577 C2592 0.960 . S
H2578 C2592 0.960 . S
H2579 C2592 0.960 . S
C2580 H2572 0.929 . S
C2580 C2581 1.377 . S
C2580 C2582 1.384 . S
C2581 C2580 1.377 . S
C2581 C2587 1.390 . S
C2582 H2573 0.930 . S
C2582 C2580 1.384 . S
C2582 C2583 1.372 . S
C2583 C2582 1.372 . S
C2583 C2584 1.400 . S
C2583 C2588 1.490 . S
C2584 H2574 0.930 . S
C2584 C2583 1.400 . S
C2584 C2587 1.386 . S
H2585 C2601 0.930 . S
H2586 C2602 0.931 . S
C2587 H2575 0.929 . S
C2587 C2581 1.390 . S
C2587 C2584 1.386 . S
C2588 C2583 1.490 . S
C2588 C2590 1.395 . S
C2588 C2591 1.403 . S
H2589 C2595 0.930 . S
C2590 H2576 0.930 . S
C2590 C2588 1.395 . S
C2590 C2593 1.403 . S
C2591 C2588 1.403 . S
C2591 C2592 1.524 . S
C2591 C2595 1.400 . S
C2592 H2577 0.960 . S
C2592 H2578 0.960 . S
C2592 H2579 0.960 . S
C2592 C2591 1.524 . S
C2593 C2590 1.403 . S
C2593 C2594 1.392 . S
C2593 C2597 1.495 . S
C2594 C2593 1.392 . S
C2594 C2595 1.385 . S
C2594 C2596 1.478 . S
C2595 H2589 0.930 . S
C2595 C2591 1.400 . S
C2595 C2594 1.385 . S
C2596 C2594 1.478 . S
C2596 C2598 1.381 . S
C2596 C2602 1.383 . S
C2597 C2593 1.495 . S
C2597 H2603 0.959 . S
C2597 H2604 0.961 . S
C2597 H2605 0.960 . S
C2598 C2596 1.381 . S
C2598 C2599 1.394 . S
C2598 H2606 0.930 . S
C2599 C2598 1.394 . S
C2599 C2600 1.383 . S
C2599 H2607 0.929 . S
C2600 C2599 1.383 . S
C2600 C2601 1.377 . S
C2601 H2585 0.930 . S
C2601 C2600 1.377 . S
C2601 C2602 1.379 . S
C2602 H2586 0.931 . S
C2602 C2596 1.383 . S
C2602 C2601 1.379 . S
H2603 C2597 0.959 . S
H2604 C2597 0.961 . S
H2605 C2597 0.960 . S
H2606 C2598 0.930 . S
H2607 C2599 0.929 . S
H2608 C2616 0.929 . S
H2609 C2618 0.930 . S
H2610 C2620 0.930 . S
H2611 C2623 0.929 . S
H2612 C2626 0.930 . S
H2613 C2628 0.960 . S
H2614 C2628 0.960 . S
H2615 C2628 0.960 . S
C2616 H2608 0.929 . S
C2616 C2617 1.377 . S
C2616 C2618 1.384 . S
C2617 C2616 1.377 . S
C2617 C2623 1.390 . S
C2618 H2609 0.930 . S
C2618 C2616 1.384 . S
C2618 C2619 1.372 . S
C2619 C2618 1.372 . S
C2619 C2620 1.400 . S
C2619 C2624 1.490 . S
C2620 H2610 0.930 . S
C2620 C2619 1.400 . S
C2620 C2623 1.386 . S
H2621 C2637 0.930 . S
H2622 C2638 0.931 . S
C2623 H2611 0.929 . S
C2623 C2617 1.390 . S
C2623 C2620 1.386 . S
C2624 C2619 1.490 . S
C2624 C2626 1.395 . S
C2624 C2627 1.403 . S
H2625 C2631 0.930 . S
C2626 H2612 0.930 . S
C2626 C2624 1.395 . S
C2626 C2629 1.403 . S
C2627 C2624 1.403 . S
C2627 C2628 1.524 . S
C2627 C2631 1.400 . S
C2628 H2613 0.960 . S
C2628 H2614 0.960 . S
C2628 H2615 0.960 . S
C2628 C2627 1.524 . S
C2629 C2626 1.403 . S
C2629 C2630 1.392 . S
C2629 C2633 1.495 . S
C2630 C2629 1.392 . S
C2630 C2631 1.385 . S
C2630 C2632 1.478 . S
C2631 H2625 0.930 . S
C2631 C2627 1.400 . S
C2631 C2630 1.385 . S
C2632 C2630 1.478 . S
C2632 C2634 1.381 . S
C2632 C2638 1.383 . S
C2633 C2629 1.495 . S
C2633 H2639 0.959 . S
C2633 H2640 0.961 . S
C2633 H2641 0.960 . S
C2634 C2632 1.381 . S
C2634 C2635 1.394 . S
C2634 H2642 0.930 . S
C2635 C2634 1.394 . S
C2635 C2636 1.383 . S
C2635 H2643 0.929 . S
C2636 C2635 1.383 . S
C2636 C2637 1.377 . S
C2637 H2621 0.930 . S
C2637 C2636 1.377 . S
C2637 C2638 1.379 . S
C2638 H2622 0.931 . S
C2638 C2632 1.383 . S
C2638 C2637 1.379 . S
H2639 C2633 0.959 . S
H2640 C2633 0.961 . S
H2641 C2633 0.960 . S
H2642 C2634 0.930 . S
H2643 C2635 0.929 . S
H2644 C2652 0.929 . S
H2645 C2654 0.930 . S
H2646 C2656 0.930 . S
H2647 C2659 0.929 . S
H2648 C2662 0.930 . S
H2649 C2664 0.960 . S
H2650 C2664 0.960 . S
H2651 C2664 0.960 . S
C2652 H2644 0.929 . S
C2652 C2653 1.377 . S
C2652 C2654 1.384 . S
C2653 C2652 1.377 . S
C2653 C2659 1.390 . S
C2654 H2645 0.930 . S
C2654 C2652 1.384 . S
C2654 C2655 1.372 . S
C2655 C2654 1.372 . S
C2655 C2656 1.400 . S
C2655 C2660 1.490 . S
C2656 H2646 0.930 . S
C2656 C2655 1.400 . S
C2656 C2659 1.386 . S
H2657 C2673 0.930 . S
H2658 C2674 0.931 . S
C2659 H2647 0.929 . S
C2659 C2653 1.390 . S
C2659 C2656 1.386 . S
C2660 C2655 1.490 . S
C2660 C2662 1.395 . S
C2660 C2663 1.403 . S
H2661 C2667 0.930 . S
C2662 H2648 0.930 . S
C2662 C2660 1.395 . S
C2662 C2665 1.403 . S
C2663 C2660 1.403 . S
C2663 C2664 1.524 . S
C2663 C2667 1.400 . S
C2664 H2649 0.960 . S
C2664 H2650 0.960 . S
C2664 H2651 0.960 . S
C2664 C2663 1.524 . S
C2665 C2662 1.403 . S
C2665 C2666 1.392 . S
C2665 C2669 1.495 . S
C2666 C2665 1.392 . S
C2666 C2667 1.385 . S
C2666 C2668 1.478 . S
C2667 H2661 0.930 . S
C2667 C2663 1.400 . S
C2667 C2666 1.385 . S
C2668 C2666 1.478 . S
C2668 C2670 1.381 . S
C2668 C2674 1.383 . S
C2669 C2665 1.495 . S
C2669 H2675 0.959 . S
C2669 H2676 0.961 . S
C2669 H2677 0.960 . S
C2670 C2668 1.381 . S
C2670 C2671 1.394 . S
C2670 H2678 0.930 . S
C2671 C2670 1.394 . S
C2671 C2672 1.383 . S
C2671 H2679 0.929 . S
C2672 C2671 1.383 . S
C2672 C2673 1.377 . S
C2673 H2657 0.930 . S
C2673 C2672 1.377 . S
C2673 C2674 1.379 . S
C2674 H2658 0.931 . S
C2674 C2668 1.383 . S
C2674 C2673 1.379 . S
H2675 C2669 0.959 . S
H2676 C2669 0.961 . S
H2677 C2669 0.960 . S
H2678 C2670 0.930 . S
H2679 C2671 0.929 . S
H2680 C2688 0.929 . S
H2681 C2690 0.930 . S
H2682 C2692 0.930 . S
H2683 C2695 0.929 . S
H2684 C2698 0.930 . S
H2685 C2700 0.960 . S
H2686 C2700 0.960 . S
H2687 C2700 0.960 . S
C2688 H2680 0.929 . S
C2688 C2689 1.377 . S
C2688 C2690 1.384 . S
C2689 C2688 1.377 . S
C2689 C2695 1.390 . S
C2690 H2681 0.930 . S
C2690 C2688 1.384 . S
C2690 C2691 1.372 . S
C2691 C2690 1.372 . S
C2691 C2692 1.400 . S
C2691 C2696 1.490 . S
C2692 H2682 0.930 . S
C2692 C2691 1.400 . S
C2692 C2695 1.386 . S
H2693 C2709 0.930 . S
H2694 C2710 0.931 . S
C2695 H2683 0.929 . S
C2695 C2689 1.390 . S
C2695 C2692 1.386 . S
C2696 C2691 1.490 . S
C2696 C2698 1.395 . S
C2696 C2699 1.403 . S
H2697 C2703 0.930 . S
C2698 H2684 0.930 . S
C2698 C2696 1.395 . S
C2698 C2701 1.403 . S
C2699 C2696 1.403 . S
C2699 C2700 1.524 . S
C2699 C2703 1.400 . S
C2700 H2685 0.960 . S
C2700 H2686 0.960 . S
C2700 H2687 0.960 . S
C2700 C2699 1.524 . S
C2701 C2698 1.403 . S
C2701 C2702 1.392 . S
C2701 C2705 1.495 . S
C2702 C2701 1.392 . S
C2702 C2703 1.385 . S
C2702 C2704 1.478 . S
C2703 H2697 0.930 . S
C2703 C2699 1.400 . S
C2703 C2702 1.385 . S
C2704 C2702 1.478 . S
C2704 C2706 1.381 . S
C2704 C2710 1.383 . S
C2705 C2701 1.495 . S
C2705 H2711 0.959 . S
C2705 H2712 0.961 . S
C2705 H2713 0.960 . S
C2706 C2704 1.381 . S
C2706 C2707 1.394 . S
C2706 H2714 0.930 . S
C2707 C2706 1.394 . S
C2707 C2708 1.383 . S
C2707 H2715 0.929 . S
C2708 C2707 1.383 . S
C2708 C2709 1.377 . S
C2709 H2693 0.930 . S
C2709 C2708 1.377 . S
C2709 C2710 1.379 . S
C2710 H2694 0.931 . S
C2710 C2704 1.383 . S
C2710 C2709 1.379 . S
H2711 C2705 0.959 . S
H2712 C2705 0.961 . S
H2713 C2705 0.960 . S
H2714 C2706 0.930 . S
H2715 C2707 0.929 . S
H2716 C2724 0.929 . S
H2717 C2726 0.930 . S
H2718 C2728 0.930 . S
H2719 C2731 0.929 . S
H2720 C2734 0.930 . S
H2721 C2736 0.960 . S
H2722 C2736 0.960 . S
H2723 C2736 0.960 . S
C2724 H2716 0.929 . S
C2724 C2725 1.377 . S
C2724 C2726 1.384 . S
C2725 C2724 1.377 . S
C2725 C2731 1.390 . S
C2726 H2717 0.930 . S
C2726 C2724 1.384 . S
C2726 C2727 1.372 . S
C2727 C2726 1.372 . S
C2727 C2728 1.400 . S
C2727 C2732 1.490 . S
C2728 H2718 0.930 . S
C2728 C2727 1.400 . S
C2728 C2731 1.386 . S
H2729 C2745 0.930 . S
H2730 C2746 0.931 . S
C2731 H2719 0.929 . S
C2731 C2725 1.390 . S
C2731 C2728 1.386 . S
C2732 C2727 1.490 . S
C2732 C2734 1.395 . S
C2732 C2735 1.403 . S
H2733 C2739 0.930 . S
C2734 H2720 0.930 . S
C2734 C2732 1.395 . S
C2734 C2737 1.403 . S
C2735 C2732 1.403 . S
C2735 C2736 1.524 . S
C2735 C2739 1.400 . S
C2736 H2721 0.960 . S
C2736 H2722 0.960 . S
C2736 H2723 0.960 . S
C2736 C2735 1.524 . S
C2737 C2734 1.403 . S
C2737 C2738 1.392 . S
C2737 C2741 1.495 . S
C2738 C2737 1.392 . S
C2738 C2739 1.385 . S
C2738 C2740 1.478 . S
C2739 H2733 0.930 . S
C2739 C2735 1.400 . S
C2739 C2738 1.385 . S
C2740 C2738 1.478 . S
C2740 C2742 1.381 . S
C2740 C2746 1.383 . S
C2741 C2737 1.495 . S
C2741 H2747 0.959 . S
C2741 H2748 0.961 . S
C2741 H2749 0.960 . S
C2742 C2740 1.381 . S
C2742 C2743 1.394 . S
C2742 H2750 0.930 . S
C2743 C2742 1.394 . S
C2743 C2744 1.383 . S
C2743 H2751 0.929 . S
C2744 C2743 1.383 . S
C2744 C2745 1.377 . S
C2745 H2729 0.930 . S
C2745 C2744 1.377 . S
C2745 C2746 1.379 . S
C2746 H2730 0.931 . S
C2746 C2740 1.383 . S
C2746 C2745 1.379 . S
H2747 C2741 0.959 . S
H2748 C2741 0.961 . S
H2749 C2741 0.960 . S
H2750 C2742 0.930 . S
H2751 C2743 0.929 . S
C457 C7 1.522 . S
C476 C35 1.528 . S
C493 C49 1.524 . S
C512 C21 1.509 . S
C529 C91 1.522 . S
C548 C63 1.512 . S
C565 C105 1.524 . S
C584 C77 1.529 . S
C601 C119 1.521 . S
C620 C147 1.529 . S
C637 C161 1.523 . S
C656 C133 1.529 . S
C673 C175 1.519 . S
C692 C203 1.518 . S
C709 C217 1.526 . S
C728 C189 1.518 . S
C745 C231 1.519 . S
C764 C259 1.526 . S
C781 C245 1.527 . S
C800 C273 1.524 . S
C817 C315 1.520 . S
C836 C287 1.512 . S
C853 C301 1.526 . S
C872 C329 1.512 . S
C889 C371 1.520 . S
C908 C343 1.528 . S
C925 C385 1.523 . S
C944 C357 1.513 . S
C961 C427 1.520 . S
C980 C399 1.511 . S
C997 C413 1.523 . S
C1016 C441 1.531 . S
C1033 C356 1.150 . S
C1052 C6 1.129 . S
C1069 C20 1.149 . S
C1088 C342 1.134 . S
C1105 C34 1.146 . S
C1124 C384 1.166 . S
C1141 C48 1.147 . S
C1160 C370 1.140 . S
C1177 C412 1.149 . S
C1196 C62 1.146 . S
C1213 C76 1.152 . S
C1232 C398 1.154 . S
C1249 C90 1.154 . S
C1268 C440 1.169 . S
C1285 C426 1.154 . S
C1304 C104 1.167 . S
C1321 C118 1.147 . S
C1340 C244 1.168 . S
C1357 C132 1.151 . S
C1376 C230 1.127 . S
C1393 C146 1.151 . S
C1412 C272 1.127 . S
C1429 C160 1.154 . S
C1448 C258 1.145 . S
C1465 C174 1.146 . S
C1484 C300 1.126 . S
C1501 C286 1.146 . S
C1520 C188 1.127 . S
C1537 C328 1.152 . S
C1556 C202 1.159 . S
C1573 C216 1.154 . S
C1592 C314 1.169 . S
C1609 C8 1.245 . S
C1628 C64 1.274 . S
C1645 C22 1.251 . S
C1664 C414 1.290 . S
C1681 C36 1.249 . S
C1700 C204 1.240 . S
C1717 C50 1.231 . S
C1736 C330 1.192 . S
C1753 C78 1.252 . S
C1772 C358 1.236 . S
C1789 C148 1.250 . S
C1808 C92 1.263 . S
C1825 C274 1.230 . S
C1844 C106 1.237 . S
C1861 C176 1.241 . S
C1880 C120 1.205 . S
C1897 C134 1.253 . S
C1916 C302 1.283 . S
C1933 C442 1.250 . S
C1952 C162 1.255 . S
C1969 C190 1.252 . S
C1988 C246 1.288 . S
C2005 C218 1.234 . S
C2024 C386 1.264 . S
C2041 C288 1.245 . S
C2060 C232 1.278 . S
C2077 C260 1.232 . S
C2096 C428 1.188 . S
C2113 C372 1.237 . S
C2132 C316 1.275 . S
C2149 C400 1.226 . S
C2168 C344 1.192 . S
C2185 C9 1.570 . S
C2204 C23 1.584 . S
C2221 C37 1.570 . S
C2240 C51 1.560 . S
C2257 C65 1.566 . S
C2276 C79 1.543 . S
C2293 C93 1.566 . S
C2312 C107 1.583 . S
C2329 C135 1.571 . S
C2348 C121 1.586 . S
C2365 C149 1.568 . S
C2384 C163 1.581 . S
C2401 C177 1.566 . S
C2420 C191 1.544 . S
C2437 C205 1.563 . S
C2456 C219 1.561 . S
C2473 C233 1.567 . S
C2492 C247 1.546 . S
C2509 C275 1.570 . S
C2528 C261 1.562 . S
C2545 C289 1.567 . S
C2564 C303 1.542 . S
C2581 C317 1.568 . S
C2600 C331 1.587 . S
C2617 C359 1.572 . S
C2636 C345 1.587 . S
C2653 C373 1.571 . S
C2672 C387 1.587 . S
C2689 C415 1.566 . S
C2708 C401 1.543 . S
C2725 C429 1.563 . S
C2744 C443 1.554 . S
