# Generated by pormake.
# Topology ubt, (5)-cn, num edge types: 1
# Building blocks:
#     Node 0, Type 0, BuildingBlock: XOMCOT_clean_sbu_1, # of connection points: 5
#     Node 1, Type 0, BuildingBlock: XOMCOT_clean_sbu_1, # of connection points: 5
#     Node 2, Type 0, BuildingBlock: XOMCOT_clean_sbu_1, # of connection points: 5
#     Node 3, Type 0, BuildingBlock: XOMCOT_clean_sbu_1, # of connection points: 5
#     Node 4, Type 0, BuildingBlock: XOMCOT_clean_sbu_1, # of connection points: 5
#     Node 5, Type 0, BuildingBlock: XOMCOT_clean_sbu_1, # of connection points: 5
#     Node 6, Type 0, BuildingBlock: XOMCOT_clean_sbu_1, # of connection points: 5
#     Node 7, Type 0, BuildingBlock: XOMCOT_clean_sbu_1, # of connection points: 5
#     Node 8, Type 0, BuildingBlock: XOMCOT_clean_sbu_1, # of connection points: 5
#     Node 9, Type 0, BuildingBlock: XOMCOT_clean_sbu_1, # of connection points: 5
#     Node 10, Type 0, BuildingBlock: XOMCOT_clean_sbu_1, # of connection points: 5
#     Node 11, Type 0, BuildingBlock: XOMCOT_clean_sbu_1, # of connection points: 5
#     Node 12, Type 0, BuildingBlock: XOMCOT_clean_sbu_1, # of connection points: 5
#     Node 13, Type 0, BuildingBlock: XOMCOT_clean_sbu_1, # of connection points: 5
#     Node 14, Type 0, BuildingBlock: XOMCOT_clean_sbu_1, # of connection points: 5
#     Node 15, Type 0, BuildingBlock: XOMCOT_clean_sbu_1, # of connection points: 5
#     Node 16, Type 0, BuildingBlock: XOMCOT_clean_sbu_1, # of connection points: 5
#     Node 17, Type 0, BuildingBlock: XOMCOT_clean_sbu_1, # of connection points: 5
#     Node 18, Type 0, BuildingBlock: XOMCOT_clean_sbu_1, # of connection points: 5
#     Node 19, Type 0, BuildingBlock: XOMCOT_clean_sbu_1, # of connection points: 5
#     Node 20, Type 0, BuildingBlock: XOMCOT_clean_sbu_1, # of connection points: 5
#     Node 21, Type 0, BuildingBlock: XOMCOT_clean_sbu_1, # of connection points: 5
#     Node 22, Type 0, BuildingBlock: XOMCOT_clean_sbu_1, # of connection points: 5
#     Node 23, Type 0, BuildingBlock: XOMCOT_clean_sbu_1, # of connection points: 5
#     Node 24, Type 0, BuildingBlock: XOMCOT_clean_sbu_1, # of connection points: 5
#     Node 25, Type 0, BuildingBlock: XOMCOT_clean_sbu_1, # of connection points: 5
#     Node 26, Type 0, BuildingBlock: XOMCOT_clean_sbu_1, # of connection points: 5
#     Node 27, Type 0, BuildingBlock: XOMCOT_clean_sbu_1, # of connection points: 5
#     Node 28, Type 0, BuildingBlock: XOMCOT_clean_sbu_1, # of connection points: 5
#     Node 29, Type 0, BuildingBlock: XOMCOT_clean_sbu_1, # of connection points: 5
#     Node 30, Type 0, BuildingBlock: XOMCOT_clean_sbu_1, # of connection points: 5
#     Node 31, Type 0, BuildingBlock: XOMCOT_clean_sbu_1, # of connection points: 5
#     Node 32, Type 0, BuildingBlock: XOMCOT_clean_sbu_1, # of connection points: 5
#     Node 33, Type 0, BuildingBlock: XOMCOT_clean_sbu_1, # of connection points: 5
#     Node 34, Type 0, BuildingBlock: XOMCOT_clean_sbu_1, # of connection points: 5
#     Node 35, Type 0, BuildingBlock: XOMCOT_clean_sbu_1, # of connection points: 5
#     Node 36, Type 0, BuildingBlock: XOMCOT_clean_sbu_1, # of connection points: 5
#     Node 37, Type 0, BuildingBlock: XOMCOT_clean_sbu_1, # of connection points: 5
#     Node 38, Type 0, BuildingBlock: XOMCOT_clean_sbu_1, # of connection points: 5
#     Node 39, Type 0, BuildingBlock: XOMCOT_clean_sbu_1, # of connection points: 5
#     Node 40, Type 0, BuildingBlock: XOMCOT_clean_sbu_1, # of connection points: 5
#     Node 41, Type 0, BuildingBlock: XOMCOT_clean_sbu_1, # of connection points: 5
#     Node 42, Type 0, BuildingBlock: XOMCOT_clean_sbu_1, # of connection points: 5
#     Node 43, Type 0, BuildingBlock: XOMCOT_clean_sbu_1, # of connection points: 5
#     Node 44, Type 0, BuildingBlock: XOMCOT_clean_sbu_1, # of connection points: 5
#     Node 45, Type 0, BuildingBlock: XOMCOT_clean_sbu_1, # of connection points: 5
#     Node 46, Type 0, BuildingBlock: XOMCOT_clean_sbu_1, # of connection points: 5
#     Node 47, Type 0, BuildingBlock: XOMCOT_clean_sbu_1, # of connection points: 5
#     Edge 48, Type (0, 0), BuildingBlock: XUDNAN_clean_linker_2, # of connection points: 2
#     Edge 49, Type (0, 0), BuildingBlock: XUDNAN_clean_linker_2, # of connection points: 2
#     Edge 50, Type (0, 0), BuildingBlock: XUDNAN_clean_linker_2, # of connection points: 2
#     Edge 51, Type (0, 0), BuildingBlock: XUDNAN_clean_linker_2, # of connection points: 2
#     Edge 52, Type (0, 0), BuildingBlock: XUDNAN_clean_linker_2, # of connection points: 2
#     Edge 53, Type (0, 0), BuildingBlock: XUDNAN_clean_linker_2, # of connection points: 2
#     Edge 54, Type (0, 0), BuildingBlock: XUDNAN_clean_linker_2, # of connection points: 2
#     Edge 55, Type (0, 0), BuildingBlock: XUDNAN_clean_linker_2, # of connection points: 2
#     Edge 56, Type (0, 0), BuildingBlock: XUDNAN_clean_linker_2, # of connection points: 2
#     Edge 57, Type (0, 0), BuildingBlock: XUDNAN_clean_linker_2, # of connection points: 2
#     Edge 58, Type (0, 0), BuildingBlock: XUDNAN_clean_linker_2, # of connection points: 2
#     Edge 59, Type (0, 0), BuildingBlock: XUDNAN_clean_linker_2, # of connection points: 2
#     Edge 60, Type (0, 0), BuildingBlock: XUDNAN_clean_linker_2, # of connection points: 2
#     Edge 61, Type (0, 0), BuildingBlock: XUDNAN_clean_linker_2, # of connection points: 2
#     Edge 62, Type (0, 0), BuildingBlock: XUDNAN_clean_linker_2, # of connection points: 2
#     Edge 63, Type (0, 0), BuildingBlock: XUDNAN_clean_linker_2, # of connection points: 2
#     Edge 64, Type (0, 0), BuildingBlock: XUDNAN_clean_linker_2, # of connection points: 2
#     Edge 65, Type (0, 0), BuildingBlock: XUDNAN_clean_linker_2, # of connection points: 2
#     Edge 66, Type (0, 0), BuildingBlock: XUDNAN_clean_linker_2, # of connection points: 2
#     Edge 67, Type (0, 0), BuildingBlock: XUDNAN_clean_linker_2, # of connection points: 2
#     Edge 68, Type (0, 0), BuildingBlock: XUDNAN_clean_linker_2, # of connection points: 2
#     Edge 69, Type (0, 0), BuildingBlock: XUDNAN_clean_linker_2, # of connection points: 2
#     Edge 70, Type (0, 0), BuildingBlock: XUDNAN_clean_linker_2, # of connection points: 2
#     Edge 71, Type (0, 0), BuildingBlock: XUDNAN_clean_linker_2, # of connection points: 2
#     Edge 72, Type (0, 0), BuildingBlock: XUDNAN_clean_linker_2, # of connection points: 2
#     Edge 73, Type (0, 0), BuildingBlock: XUDNAN_clean_linker_2, # of connection points: 2
#     Edge 74, Type (0, 0), BuildingBlock: XUDNAN_clean_linker_2, # of connection points: 2
#     Edge 75, Type (0, 0), BuildingBlock: XUDNAN_clean_linker_2, # of connection points: 2
#     Edge 76, Type (0, 0), BuildingBlock: XUDNAN_clean_linker_2, # of connection points: 2
#     Edge 77, Type (0, 0), BuildingBlock: XUDNAN_clean_linker_2, # of connection points: 2
#     Edge 78, Type (0, 0), BuildingBlock: XUDNAN_clean_linker_2, # of connection points: 2
#     Edge 79, Type (0, 0), BuildingBlock: XUDNAN_clean_linker_2, # of connection points: 2
#     Edge 80, Type (0, 0), BuildingBlock: XUDNAN_clean_linker_2, # of connection points: 2
#     Edge 81, Type (0, 0), BuildingBlock: XUDNAN_clean_linker_2, # of connection points: 2
#     Edge 82, Type (0, 0), BuildingBlock: XUDNAN_clean_linker_2, # of connection points: 2
#     Edge 83, Type (0, 0), BuildingBlock: XUDNAN_clean_linker_2, # of connection points: 2
#     Edge 84, Type (0, 0), BuildingBlock: XUDNAN_clean_linker_2, # of connection points: 2
#     Edge 85, Type (0, 0), BuildingBlock: XUDNAN_clean_linker_2, # of connection points: 2
#     Edge 86, Type (0, 0), BuildingBlock: XUDNAN_clean_linker_2, # of connection points: 2
#     Edge 87, Type (0, 0), BuildingBlock: XUDNAN_clean_linker_2, # of connection points: 2
#     Edge 88, Type (0, 0), BuildingBlock: XUDNAN_clean_linker_2, # of connection points: 2
#     Edge 89, Type (0, 0), BuildingBlock: XUDNAN_clean_linker_2, # of connection points: 2
#     Edge 90, Type (0, 0), BuildingBlock: XUDNAN_clean_linker_2, # of connection points: 2
#     Edge 91, Type (0, 0), BuildingBlock: XUDNAN_clean_linker_2, # of connection points: 2
#     Edge 92, Type (0, 0), BuildingBlock: XUDNAN_clean_linker_2, # of connection points: 2
#     Edge 93, Type (0, 0), BuildingBlock: XUDNAN_clean_linker_2, # of connection points: 2
#     Edge 94, Type (0, 0), BuildingBlock: XUDNAN_clean_linker_2, # of connection points: 2
#     Edge 95, Type (0, 0), BuildingBlock: XUDNAN_clean_linker_2, # of connection points: 2
#     Edge 96, Type (0, 0), BuildingBlock: XUDNAN_clean_linker_2, # of connection points: 2
#     Edge 97, Type (0, 0), BuildingBlock: XUDNAN_clean_linker_2, # of connection points: 2
#     Edge 98, Type (0, 0), BuildingBlock: XUDNAN_clean_linker_2, # of connection points: 2
#     Edge 99, Type (0, 0), BuildingBlock: XUDNAN_clean_linker_2, # of connection points: 2
#     Edge 100, Type (0, 0), BuildingBlock: XUDNAN_clean_linker_2, # of connection points: 2
#     Edge 101, Type (0, 0), BuildingBlock: XUDNAN_clean_linker_2, # of connection points: 2
#     Edge 102, Type (0, 0), BuildingBlock: XUDNAN_clean_linker_2, # of connection points: 2
#     Edge 103, Type (0, 0), BuildingBlock: XUDNAN_clean_linker_2, # of connection points: 2
#     Edge 104, Type (0, 0), BuildingBlock: XUDNAN_clean_linker_2, # of connection points: 2
#     Edge 105, Type (0, 0), BuildingBlock: XUDNAN_clean_linker_2, # of connection points: 2
#     Edge 106, Type (0, 0), BuildingBlock: XUDNAN_clean_linker_2, # of connection points: 2
#     Edge 107, Type (0, 0), BuildingBlock: XUDNAN_clean_linker_2, # of connection points: 2
#     Edge 108, Type (0, 0), BuildingBlock: XUDNAN_clean_linker_2, # of connection points: 2
#     Edge 109, Type (0, 0), BuildingBlock: XUDNAN_clean_linker_2, # of connection points: 2
#     Edge 110, Type (0, 0), BuildingBlock: XUDNAN_clean_linker_2, # of connection points: 2
#     Edge 111, Type (0, 0), BuildingBlock: XUDNAN_clean_linker_2, # of connection points: 2
#     Edge 112, Type (0, 0), BuildingBlock: XUDNAN_clean_linker_2, # of connection points: 2
#     Edge 113, Type (0, 0), BuildingBlock: XUDNAN_clean_linker_2, # of connection points: 2
#     Edge 114, Type (0, 0), BuildingBlock: XUDNAN_clean_linker_2, # of connection points: 2
#     Edge 115, Type (0, 0), BuildingBlock: XUDNAN_clean_linker_2, # of connection points: 2
#     Edge 116, Type (0, 0), BuildingBlock: XUDNAN_clean_linker_2, # of connection points: 2
#     Edge 117, Type (0, 0), BuildingBlock: XUDNAN_clean_linker_2, # of connection points: 2
#     Edge 118, Type (0, 0), BuildingBlock: XUDNAN_clean_linker_2, # of connection points: 2
#     Edge 119, Type (0, 0), BuildingBlock: XUDNAN_clean_linker_2, # of connection points: 2
#     Edge 120, Type (0, 0), BuildingBlock: XUDNAN_clean_linker_2, # of connection points: 2
#     Edge 121, Type (0, 0), BuildingBlock: XUDNAN_clean_linker_2, # of connection points: 2
#     Edge 122, Type (0, 0), BuildingBlock: XUDNAN_clean_linker_2, # of connection points: 2
#     Edge 123, Type (0, 0), BuildingBlock: XUDNAN_clean_linker_2, # of connection points: 2
#     Edge 124, Type (0, 0), BuildingBlock: XUDNAN_clean_linker_2, # of connection points: 2
#     Edge 125, Type (0, 0), BuildingBlock: XUDNAN_clean_linker_2, # of connection points: 2
#     Edge 126, Type (0, 0), BuildingBlock: XUDNAN_clean_linker_2, # of connection points: 2
#     Edge 127, Type (0, 0), BuildingBlock: XUDNAN_clean_linker_2, # of connection points: 2
#     Edge 128, Type (0, 0), BuildingBlock: XUDNAN_clean_linker_2, # of connection points: 2
#     Edge 129, Type (0, 0), BuildingBlock: XUDNAN_clean_linker_2, # of connection points: 2
#     Edge 130, Type (0, 0), BuildingBlock: XUDNAN_clean_linker_2, # of connection points: 2
#     Edge 131, Type (0, 0), BuildingBlock: XUDNAN_clean_linker_2, # of connection points: 2
#     Edge 132, Type (0, 0), BuildingBlock: XUDNAN_clean_linker_2, # of connection points: 2
#     Edge 133, Type (0, 0), BuildingBlock: XUDNAN_clean_linker_2, # of connection points: 2
#     Edge 134, Type (0, 0), BuildingBlock: XUDNAN_clean_linker_2, # of connection points: 2
#     Edge 135, Type (0, 0), BuildingBlock: XUDNAN_clean_linker_2, # of connection points: 2
#     Edge 136, Type (0, 0), BuildingBlock: XUDNAN_clean_linker_2, # of connection points: 2
#     Edge 137, Type (0, 0), BuildingBlock: XUDNAN_clean_linker_2, # of connection points: 2
#     Edge 138, Type (0, 0), BuildingBlock: XUDNAN_clean_linker_2, # of connection points: 2
#     Edge 139, Type (0, 0), BuildingBlock: XUDNAN_clean_linker_2, # of connection points: 2
#     Edge 140, Type (0, 0), BuildingBlock: XUDNAN_clean_linker_2, # of connection points: 2
#     Edge 141, Type (0, 0), BuildingBlock: XUDNAN_clean_linker_2, # of connection points: 2
#     Edge 142, Type (0, 0), BuildingBlock: XUDNAN_clean_linker_2, # of connection points: 2
#     Edge 143, Type (0, 0), BuildingBlock: XUDNAN_clean_linker_2, # of connection points: 2
#     Edge 144, Type (0, 0), BuildingBlock: XUDNAN_clean_linker_2, # of connection points: 2
#     Edge 145, Type (0, 0), BuildingBlock: XUDNAN_clean_linker_2, # of connection points: 2
#     Edge 146, Type (0, 0), BuildingBlock: XUDNAN_clean_linker_2, # of connection points: 2
#     Edge 147, Type (0, 0), BuildingBlock: XUDNAN_clean_linker_2, # of connection points: 2
#     Edge 148, Type (0, 0), BuildingBlock: XUDNAN_clean_linker_2, # of connection points: 2
#     Edge 149, Type (0, 0), BuildingBlock: XUDNAN_clean_linker_2, # of connection points: 2
#     Edge 150, Type (0, 0), BuildingBlock: XUDNAN_clean_linker_2, # of connection points: 2
#     Edge 151, Type (0, 0), BuildingBlock: XUDNAN_clean_linker_2, # of connection points: 2
#     Edge 152, Type (0, 0), BuildingBlock: XUDNAN_clean_linker_2, # of connection points: 2
#     Edge 153, Type (0, 0), BuildingBlock: XUDNAN_clean_linker_2, # of connection points: 2
#     Edge 154, Type (0, 0), BuildingBlock: XUDNAN_clean_linker_2, # of connection points: 2
#     Edge 155, Type (0, 0), BuildingBlock: XUDNAN_clean_linker_2, # of connection points: 2
#     Edge 156, Type (0, 0), BuildingBlock: XUDNAN_clean_linker_2, # of connection points: 2
#     Edge 157, Type (0, 0), BuildingBlock: XUDNAN_clean_linker_2, # of connection points: 2
#     Edge 158, Type (0, 0), BuildingBlock: XUDNAN_clean_linker_2, # of connection points: 2
#     Edge 159, Type (0, 0), BuildingBlock: XUDNAN_clean_linker_2, # of connection points: 2
#     Edge 160, Type (0, 0), BuildingBlock: XUDNAN_clean_linker_2, # of connection points: 2
#     Edge 161, Type (0, 0), BuildingBlock: XUDNAN_clean_linker_2, # of connection points: 2
#     Edge 162, Type (0, 0), BuildingBlock: XUDNAN_clean_linker_2, # of connection points: 2
#     Edge 163, Type (0, 0), BuildingBlock: XUDNAN_clean_linker_2, # of connection points: 2
#     Edge 164, Type (0, 0), BuildingBlock: XUDNAN_clean_linker_2, # of connection points: 2
#     Edge 165, Type (0, 0), BuildingBlock: XUDNAN_clean_linker_2, # of connection points: 2
#     Edge 166, Type (0, 0), BuildingBlock: XUDNAN_clean_linker_2, # of connection points: 2
#     Edge 167, Type (0, 0), BuildingBlock: XUDNAN_clean_linker_2, # of connection points: 2
# Relax obj value: 0.234
# Max RMSD: 0.185
# Mean RMSD: 0.181
data_MOF--net-ubt--node1-XOMCOT_clean_sbu_1--edge1-XUDNAN_clean_linker_2
_symmetry_space_group_name_H-M    P1
_symmetry_Int_Tables_number       1
_symmetry_cell_setting            triclinic
loop_
_symmetry_equiv_pos_as_xyz
'x, y, z'
_cell_length_a     71.276448
_cell_length_b     71.571436
_cell_length_c     71.298621
_cell_angle_alpha  89.991881
_cell_angle_beta   90.469667
_cell_angle_gamma 91.395368
loop_
_atom_site_label
_atom_site_type_symbol
_atom_site_fract_x
_atom_site_fract_y
_atom_site_fract_z
_atom_type_partial_charge
C0 C 0.99322 0.20095 0.15918 0.0
C1 C 0.97782 0.20129 0.14723 0.0
N2 N 0.97593 0.18439 0.13896 0.0
N3 N 0.00085 0.18392 0.15829 0.0
C4 C 0.9901 0.17434 0.1458 0.0
H5 H 0.9986 0.2124 0.1677 0.0
Co6 Co 0.02195 0.17361 0.16916 0.0
C7 C 0.0066 0.13706 0.1839 0.0
O8 O 0.01762 0.13725 0.19877 0.0
N9 N 0.04332 0.16244 0.17926 0.0
C10 C 0.07126 0.15556 0.19123 0.0
C11 C 0.05702 0.16829 0.19125 0.0
C12 C 0.04962 0.14626 0.17222 0.0
N13 N 0.06658 0.14183 0.17902 0.0
O14 O 0.0301 0.16639 0.14493 0.0
H15 H 0.05731 0.18134 0.19884 0.0
H16 H 0.04201 0.13804 0.16179 0.0
O17 O 0.00759 0.1504 0.17205 0.0
C18 C 0.03997 0.17964 0.13791 0.0
O19 O 0.041 0.19565 0.14694 0.0
N20 N 0.01492 0.18266 0.19265 0.0
C21 C 0.0089 0.2017 0.22608 0.0
C22 C 0.99799 0.18574 0.22143 0.0
C23 C 0.00092 0.17663 0.20433 0.0
C24 C 0.02492 0.19863 0.19661 0.0
C25 C 0.02232 0.20825 0.21328 0.0
H26 H 0.99165 0.16512 0.20049 0.0
H27 H 0.03519 0.20384 0.18669 0.0
H28 H 0.99312 0.16034 0.14119 0.0
H29 H 0.9688 0.21301 0.14481 0.0
H30 H 0.08445 0.15685 0.19882 0.0
H31 H 0.98704 0.18065 0.23071 0.0
H32 H 0.03093 0.2206 0.21623 0.0
C33 C 0.87751 0.03714 0.21885 0.0
C34 C 0.88945 0.05262 0.21953 0.0
N35 N 0.89588 0.05592 0.20208 0.0
N36 N 0.87649 0.03082 0.20104 0.0
C37 C 0.88775 0.04256 0.19123 0.0
H38 H 0.87093 0.03038 0.23073 0.0
Co39 Co 0.86646 0.00857 0.19151 0.0
C40 C 0.84944 0.01904 0.15424 0.0
O41 O 0.83719 0.00504 0.15464 0.0
N42 N 0.85711 0.9858 0.18162 0.0
C43 C 0.84289 0.95839 0.17553 0.0
C44 C 0.84403 0.97328 0.18776 0.0
C45 C 0.86386 0.97796 0.16588 0.0
N46 N 0.85545 0.96141 0.16181 0.0
O47 O 0.89077 0.00217 0.18284 0.0
H48 H 0.8358 0.9746 0.20029 0.0
H49 H 0.87433 0.98467 0.15708 0.0
O50 O 0.86096 0.02167 0.16788 0.0
C51 C 0.90025 0.99426 0.19567 0.0
O52 O 0.89364 0.99417 0.21282 0.0
N53 N 0.84309 0.01384 0.20185 0.0
C54 C 0.80928 0.01434 0.22131 0.0
C55 C 0.81139 0.02411 0.20431 0.0
C56 C 0.82857 0.02389 0.19485 0.0
C57 C 0.84166 0.00544 0.21892 0.0
C58 C 0.8249 0.0053 0.22876 0.0
H59 H 0.82996 0.03167 0.18199 0.0
H60 H 0.85345 0.99787 0.22443 0.0
H61 H 0.8911 0.04044 0.17662 0.0
H62 H 0.89359 0.06036 0.23199 0.0
H63 H 0.83365 0.94623 0.17675 0.0
H64 H 0.79987 0.03178 0.19834 0.0
H65 H 0.82405 0.99746 0.24173 0.0
C66 C 0.00228 0.86811 0.20934 0.0
C67 C 0.98972 0.88223 0.21215 0.0
N68 N 0.98685 0.891 0.19563 0.0
N69 N 0.00718 0.86797 0.19113 0.0
C70 C 0.9977 0.88209 0.18327 0.0
H71 H 0.00754 0.85866 0.21987 0.0
Co72 Co 0.02385 0.85348 0.17791 0.0
C73 C 0.00105 0.83975 0.14563 0.0
O74 O 0.00839 0.82316 0.14729 0.0
N75 N 0.04099 0.83953 0.16352 0.0
C76 C 0.06243 0.8209 0.1513 0.0
C77 C 0.0504 0.82351 0.16611 0.0
C78 C 0.0475 0.84611 0.14693 0.0
N79 N 0.06068 0.83532 0.13937 0.0
O80 O 0.03571 0.87606 0.16912 0.0
H81 H 0.04919 0.8143 0.17801 0.0
H82 H 0.04269 0.85881 0.14045 0.0
O83 O 0.00622 0.8529 0.1568 0.0
C84 C 0.04892 0.88089 0.18038 0.0
O85 O 0.05219 0.87012 0.19493 0.0
N86 N 0.01309 0.83182 0.18883 0.0
C87 C 0.99952 0.80365 0.21291 0.0
C88 C 0.98765 0.81196 0.19958 0.0
C89 C 0.99465 0.82617 0.18781 0.0
C90 C 0.02452 0.82448 0.20216 0.0
C91 C 0.0183 0.81002 0.2138 0.0
H92 H 0.98495 0.8333 0.17874 0.0
H93 H 0.03858 0.83024 0.20407 0.0
H94 H 0.99923 0.88606 0.16872 0.0
H95 H 0.98319 0.88566 0.22531 0.0
H96 H 0.07224 0.8097 0.14985 0.0
H97 H 0.97287 0.80817 0.19877 0.0
H98 H 0.02821 0.80419 0.22362 0.0
C99 C 0.16563 0.00043 0.1951 0.0
C100 C 0.15081 0.98849 0.19971 0.0
N101 N 0.14098 0.98447 0.18391 0.0
N102 N 0.16519 0.0036 0.17646 0.0
C103 C 0.15001 0.99381 0.17016 0.0
H104 H 0.17612 0.00622 0.20464 0.0
Co105 Co 0.18078 0.01766 0.16062 0.0
C106 C 0.17645 0.99627 0.12529 0.0
O107 O 0.17309 0.01139 0.11552 0.0
N108 N 0.19613 0.03142 0.14377 0.0
C109 C 0.21582 0.03587 0.12001 0.0
C110 C 0.21203 0.02541 0.13578 0.0
C111 C 0.19098 0.04598 0.13292 0.0
N112 N 0.20237 0.04863 0.11811 0.0
O113 O 0.1589 0.02922 0.15071 0.0
H114 H 0.21926 0.01293 0.13987 0.0
H115 H 0.17789 0.05312 0.13436 0.0
O116 O 0.1795 0.99732 0.14288 0.0
C117 C 0.15573 0.04187 0.16282 0.0
O118 O 0.16742 0.04374 0.17711 0.0
N119 N 0.20187 0.00781 0.17227 0.0
C120 C 0.22931 0.99674 0.19768 0.0
C121 C 0.21894 0.98339 0.18717 0.0
C122 C 0.20523 0.98924 0.17442 0.0
C123 C 0.2123 0.02094 0.18179 0.0
C124 C 0.22626 0.01573 0.1944 0.0
H125 H 0.19651 0.97886 0.1673 0.0
H126 H 0.20905 0.03555 0.18033 0.0
H127 H 0.14586 0.99326 0.15553 0.0
H128 H 0.14752 0.98326 0.21357 0.0
H129 H 0.22669 0.03326 0.1099 0.0
H130 H 0.22086 0.96859 0.18937 0.0
H131 H 0.23367 0.02646 0.20245 0.0
C132 C 0.01559 0.86794 0.81899 0.0
C133 C 0.02684 0.88166 0.81116 0.0
N134 N 0.03495 0.89179 0.8251 0.0
N135 N 0.01669 0.86924 0.83783 0.0
C136 C 0.02863 0.88388 0.84115 0.0
H137 H 0.00664 0.85809 0.81141 0.0
Co138 Co 0.00193 0.85579 0.85488 0.0
C139 C 0.0284 0.84263 0.88333 0.0
O140 O 0.01998 0.82612 0.88242 0.0
N141 N 0.98655 0.8426 0.87265 0.0
C142 C 0.9684 0.82251 0.88877 0.0
C143 C 0.97939 0.82487 0.87316 0.0
C144 C 0.97988 0.85042 0.8885 0.0
N145 N 0.96861 0.83868 0.89834 0.0
O146 O 0.99309 0.87894 0.86426 0.0
H147 H 0.98192 0.81397 0.86316 0.0
H148 H 0.98332 0.86452 0.89296 0.0
O149 O 0.02277 0.85591 0.87285 0.0
C150 C 0.9789 0.88255 0.85402 0.0
O151 O 0.97434 0.87077 0.84049 0.0
N152 N 0.00914 0.8336 0.84336 0.0
C153 C 0.01608 0.80605 0.81691 0.0
C154 C 0.03087 0.814 0.82758 0.0
C155 C 0.0271 0.82789 0.84078 0.0
C156 C 0.99482 0.82626 0.83267 0.0
C157 C 0.99785 0.81203 0.81988 0.0
H158 H 0.03873 0.83501 0.84776 0.0
H159 H 0.98098 0.83205 0.83364 0.0
H160 H 0.03173 0.88931 0.85503 0.0
H161 H 0.02851 0.88428 0.79631 0.0
H162 H 0.96052 0.80995 0.89248 0.0
H163 H 0.04524 0.81023 0.82499 0.0
H164 H 0.98625 0.80682 0.81129 0.0
C165 C 0.1879 0.98605 0.85656 0.0
C166 C 0.19009 0.97158 0.8691 0.0
N167 N 0.17341 0.9679 0.87732 0.0
N168 N 0.16989 0.99135 0.85681 0.0
C169 C 0.16143 0.97994 0.86939 0.0
H170 H 0.19895 0.99298 0.84868 0.0
Co171 Co 0.15895 0.01236 0.84649 0.0
C172 C 0.12544 0.99744 0.82655 0.0
O173 O 0.12902 0.00935 0.81294 0.0
N174 N 0.14723 0.03388 0.83692 0.0
C175 C 0.13977 0.06193 0.82601 0.0
C176 C 0.15302 0.04825 0.82591 0.0
C177 C 0.13038 0.03928 0.84338 0.0
N178 N 0.12558 0.05632 0.83719 0.0
O179 O 0.14998 0.019 0.87068 0.0
H180 H 0.16629 0.04949 0.81885 0.0
H181 H 0.12197 0.03092 0.85292 0.0
O182 O 0.13632 0.99709 0.84089 0.0
C183 C 0.16355 0.02723 0.87931 0.0
O184 O 0.18027 0.02707 0.87166 0.0
N185 N 0.17012 0.0071 0.82338 0.0
C186 C 0.19462 0.00126 0.79377 0.0
C187 C 0.1798 0.98847 0.7973 0.0
C188 C 0.16764 0.99162 0.81232 0.0
C189 C 0.18504 0.019 0.82057 0.0
C190 C 0.19705 0.01673 0.80552 0.0
H191 H 0.15706 0.98111 0.81564 0.0
H192 H 0.1881 0.02997 0.83064 0.0
H193 H 0.14688 0.98116 0.87329 0.0
H194 H 0.20322 0.96516 0.87273 0.0
H195 H 0.14106 0.0754 0.81918 0.0
H196 H 0.17809 0.97587 0.78898 0.0
H197 H 0.2089 0.02634 0.80383 0.0
C198 C 0.98301 0.1561 0.82621 0.0
C199 C 0.96865 0.14297 0.8237 0.0
N200 N 0.96415 0.13578 0.8406 0.0
N201 N 0.98742 0.15716 0.84463 0.0
C202 C 0.97598 0.14436 0.85286 0.0
H203 H 0.98935 0.16474 0.81543 0.0
Co204 Co 0.00399 0.17324 0.8577 0.0
C205 C 0.97945 0.18621 0.88885 0.0
O206 O 0.98483 0.20375 0.88675 0.0
N207 N 0.02081 0.18935 0.87183 0.0
C208 C 0.0351 0.21405 0.88536 0.0
C209 C 0.02263 0.20825 0.87168 0.0
C210 C 0.03253 0.18417 0.88596 0.0
N211 N 0.04131 0.1989 0.89436 0.0
O212 O 0.01598 0.15183 0.86778 0.0
H213 H 0.01468 0.21764 0.86307 0.0
H214 H 0.03395 0.16995 0.8908 0.0
O215 O 0.98614 0.17365 0.87828 0.0
C216 C 0.02826 0.14832 0.85543 0.0
O217 O 0.02945 0.15943 0.84078 0.0
N218 N 0.99359 0.19355 0.84505 0.0
C219 C 0.98275 0.21925 0.8176 0.0
C220 C 0.96965 0.21191 0.83056 0.0
C221 C 0.97534 0.1989 0.84416 0.0
C222 C 0.00626 0.20024 0.83238 0.0
C223 C 0.00138 0.21348 0.81911 0.0
H224 H 0.96495 0.19243 0.85318 0.0
H225 H 0.02043 0.19517 0.83261 0.0
H226 H 0.97628 0.14143 0.86772 0.0
H227 H 0.96159 0.13956 0.8106 0.0
H228 H 0.03888 0.22839 0.88879 0.0
H229 H 0.95501 0.21553 0.82973 0.0
H230 H 0.01225 0.21891 0.80996 0.0
C231 C 0.80436 0.02684 0.87996 0.0
C232 C 0.79791 0.03857 0.89363 0.0
N233 N 0.81279 0.04583 0.90315 0.0
N234 N 0.82326 0.02673 0.88079 0.0
C235 C 0.82798 0.03856 0.89495 0.0
H236 H 0.79574 0.01819 0.87072 0.0
Co237 Co 0.83936 0.01068 0.86838 0.0
C238 C 0.86689 0.03706 0.85085 0.0
O239 O 0.8655 0.02816 0.83479 0.0
N240 N 0.85628 0.99436 0.85608 0.0
C241 C 0.87201 0.97774 0.83519 0.0
C242 C 0.85715 0.98924 0.83781 0.0
C243 C 0.87104 0.98567 0.8641 0.0
N244 N 0.88076 0.97544 0.85178 0.0
O245 O 0.85049 0.00458 0.8921 0.0
H246 H 0.84813 0.99403 0.82666 0.0
H247 H 0.87471 0.98671 0.87877 0.0
O248 O 0.857 0.03163 0.86479 0.0
C249 C 0.83921 0.99265 0.89954 0.0
O250 O 0.82359 0.98821 0.89049 0.0
N251 N 0.82608 0.01462 0.84604 0.0
C252 C 0.79896 0.01369 0.81753 0.0
C253 C 0.80955 0.03018 0.82124 0.0
C254 C 0.82298 0.03045 0.83588 0.0
C255 C 0.81575 0.99871 0.84266 0.0
C256 C 0.80261 0.99778 0.82826 0.0
H257 H 0.83017 0.04343 0.83952 0.0
H258 H 0.81776 0.98657 0.85141 0.0
H259 H 0.84222 0.04068 0.90006 0.0
H260 H 0.78334 0.04095 0.89681 0.0
H261 H 0.87628 0.97194 0.82192 0.0
H262 H 0.80691 0.04289 0.81352 0.0
H263 H 0.7951 0.98466 0.82583 0.0
C264 C 0.19881 0.15546 0.97547 0.0
C265 C 0.19856 0.14235 0.96128 0.0
N266 N 0.18076 0.13585 0.95896 0.0
N267 N 0.18123 0.15719 0.98192 0.0
C268 C 0.17061 0.1452 0.97155 0.0
H269 H 0.21111 0.1625 0.98134 0.0
Co270 Co 0.17266 0.16906 0.00304 0.0
C271 C 0.13988 0.1899 0.99024 0.0
O272 O 0.1459 0.2038 0.0009 0.0
N273 N 0.16318 0.18037 0.02494 0.0
C274 C 0.15702 0.19486 0.05183 0.0
C275 C 0.16971 0.19327 0.03744 0.0
C276 C 0.14658 0.17449 0.03215 0.0
N277 N 0.1426 0.18284 0.04847 0.0
O278 O 0.16262 0.14551 0.01159 0.0
H279 H 0.1829 0.2009 0.03667 0.0
H280 H 0.13743 0.16416 0.02546 0.0
O281 O 0.14932 0.17494 0.98943 0.0
C282 C 0.17466 0.1393 0.02318 0.0
O283 O 0.18996 0.14933 0.02667 0.0
N284 N 0.18502 0.1912 0.99544 0.0
C285 C 0.21096 0.21962 0.98601 0.0
C286 C 0.19503 0.21592 0.97466 0.0
C287 C 0.1823 0.20142 0.97949 0.0
C288 C 0.20077 0.19411 0.00603 0.0
C289 C 0.21349 0.20853 0.00201 0.0
H290 H 0.17085 0.19795 0.97002 0.0
H291 H 0.20362 0.18489 0.01767 0.0
H292 H 0.15591 0.1423 0.97427 0.0
H293 H 0.21066 0.13748 0.95381 0.0
H294 H 0.15859 0.20369 0.06409 0.0
H295 H 0.19274 0.22364 0.96182 0.0
H296 H 0.22533 0.21074 0.01142 0.0
C297 C 0.20595 0.87503 0.01855 0.0
C298 C 0.21066 0.88826 0.03196 0.0
N299 N 0.19679 0.88846 0.04464 0.0
N300 N 0.18907 0.86722 0.02268 0.0
C301 C 0.18397 0.87559 0.03877 0.0
H302 H 0.21378 0.87208 0.00601 0.0
Co303 Co 0.17459 0.85217 0.00668 0.0
C304 C 0.14216 0.83951 0.02936 0.0
O305 O 0.14339 0.82266 0.02222 0.0
N306 N 0.15944 0.83756 0.98991 0.0
C307 C 0.14739 0.81907 0.9674 0.0
C308 C 0.16193 0.82159 0.98015 0.0
C309 C 0.14312 0.8441 0.98301 0.0
N310 N 0.13578 0.83348 0.96909 0.0
O311 O 0.16612 0.87423 0.99446 0.0
H312 H 0.17383 0.81265 0.98131 0.0
H313 H 0.13696 0.85695 0.98767 0.0
O314 O 0.15367 0.85247 0.02423 0.0
C315 C 0.17584 0.87705 0.97976 0.0
O316 O 0.18934 0.86545 0.97608 0.0
N317 N 0.1851 0.83107 0.01777 0.0
C318 C 0.20862 0.80336 0.03156 0.0
C319 C 0.19546 0.81176 0.04327 0.0
C320 C 0.18399 0.82581 0.03617 0.0
C321 C 0.19829 0.82362 0.00651 0.0
C322 C 0.20969 0.80939 0.01285 0.0
H323 H 0.17503 0.83305 0.04574 0.0
H324 H 0.20024 0.82908 0.9925 0.0
H325 H 0.17054 0.87338 0.04547 0.0
H326 H 0.22291 0.8975 0.03201 0.0
H327 H 0.14614 0.80816 0.95691 0.0
H328 H 0.19455 0.80813 0.05798 0.0
H329 H 0.21945 0.80342 0.00311 0.0
C330 C 0.85737 0.19099 0.99987 0.0
C331 C 0.86858 0.19421 0.98451 0.0
N332 N 0.87721 0.17822 0.9802 0.0
N333 N 0.85876 0.17299 0.00516 0.0
C334 C 0.8709 0.16558 0.99292 0.0
H335 H 0.84923 0.20128 0.00706 0.0
Co336 Co 0.84888 0.16147 0.02661 0.0
C337 C 0.82776 0.12876 0.01202 0.0
O338 O 0.81449 0.13284 0.02395 0.0
N339 N 0.83992 0.14951 0.04873 0.0
C340 C 0.83245 0.14282 0.0784 0.0
C341 C 0.83342 0.15664 0.06495 0.0
C342 C 0.84324 0.13142 0.05303 0.0
N343 N 0.83859 0.12695 0.07079 0.0
O344 O 0.87309 0.15284 0.03309 0.0
H345 H 0.83059 0.1711 0.0676 0.0
H346 H 0.84994 0.12186 0.04358 0.0
O347 O 0.84278 0.13894 0.01155 0.0
C348 C 0.8814 0.16656 0.04131 0.0
O349 O 0.87297 0.1827 0.04168 0.0
N350 N 0.82547 0.17213 0.0212 0.0
C351 C 0.79652 0.19631 0.01241 0.0
C352 C 0.80101 0.1818 1.00015 0.0
C353 C 0.81568 0.16992 0.00472 0.0
C354 C 0.82145 0.18649 0.03293 0.0
C355 C 0.80668 0.19834 0.02915 0.0
H356 H 0.82006 0.16003 0.99429 0.0
H357 H 0.8309 0.19004 0.04432 0.0
H358 H 0.87576 0.15141 0.99402 0.0
H359 H 0.87045 0.20744 0.97734 0.0
H360 H 0.82798 0.14442 0.09277 0.0
H361 H 0.79396 0.18034 0.98669 0.0
H362 H 0.80436 0.21006 0.0384 0.0
C363 C 0.82136 0.86923 0.00542 0.0
C364 C 0.81926 0.88405 0.99323 0.0
N365 N 0.83606 0.89297 0.99134 0.0
N366 N 0.83942 0.86876 0.01105 0.0
C367 C 0.8479 0.88342 0.0024 0.0
H368 H 0.81046 0.85946 0.00983 0.0
Co369 Co 0.85187 0.85296 0.02743 0.0
C370 C 0.8839 0.8403 0.0052 0.0
O371 O 0.8816 0.82326 0.0118 0.0
N372 N 0.86552 0.83776 0.04432 0.0
C373 C 0.87663 0.81893 0.0666 0.0
C374 C 0.86194 0.82196 0.05425 0.0
C375 C 0.88256 0.8437 0.05075 0.0
N376 N 0.88943 0.83287 0.06447 0.0
O377 O 0.86169 0.87439 0.04032 0.0
H378 H 0.84927 0.81345 0.05341 0.0
H379 H 0.88972 0.85622 0.04575 0.0
O380 O 0.87296 0.85315 0.01036 0.0
C381 C 0.8501 0.87884 0.05292 0.0
O382 O 0.83412 0.86935 0.05393 0.0
N383 N 0.84006 0.83225 0.01574 0.0
C384 C 0.81319 0.80714 1.00062 0.0
C385 C 0.8275 0.81493 0.98936 0.0
C386 C 0.84071 0.82764 0.99714 0.0
C387 C 0.82623 0.82491 0.02675 0.0
C388 C 0.81309 0.81197 0.0197 0.0
H389 H 0.8505 0.83472 0.98792 0.0
H390 H 0.82478 0.82989 0.04096 0.0
H391 H 0.86253 0.88718 0.00459 0.0
H392 H 0.80637 0.88775 0.9862 0.0
H393 H 0.87732 0.80798 0.07704 0.0
H394 H 0.82788 0.81208 0.97445 0.0
H395 H 0.80256 0.80632 0.02912 0.0
C396 C 0.99548 0.71553 0.64037 0.0
C397 C 0.98226 0.71876 0.62649 0.0
N398 N 0.97324 0.70245 0.62268 0.0
N399 N 0.99486 0.69721 0.64487 0.0
C400 C 0.98111 0.68975 0.63392 0.0
H401 H 0.0059 0.72551 0.64559 0.0
Co402 Co 0.01247 0.68278 0.65735 0.0
C403 C 0.98874 0.653 0.67543 0.0
O404 O 0.99876 0.65337 0.69097 0.0
N405 N 0.03028 0.66734 0.66951 0.0
C406 C 0.05095 0.65407 0.68871 0.0
C407 C 0.0389 0.66863 0.68649 0.0
C408 C 0.03714 0.65151 0.66203 0.0
N409 N 0.04984 0.64334 0.67325 0.0
O410 O 0.01853 0.67186 0.63382 0.0
H411 H 0.03656 0.67917 0.69696 0.0
H412 H 0.03312 0.64604 0.64843 0.0
O413 O 0.99298 0.66399 0.66196 0.0
C414 C 0.0301 0.68373 0.62677 0.0
O415 O 0.0342 0.699 0.63634 0.0
N416 N 0.00828 0.69597 0.67932 0.0
C417 C 0.0089 0.72302 0.70752 0.0
C418 C 0.9934 0.71053 0.70549 0.0
C419 C 0.99326 0.6971 0.691 0.0
C420 C 0.02306 0.70824 0.68097 0.0
C421 C 0.02394 0.72136 0.69518 0.0
H422 H 0.98097 0.68819 0.68884 0.0
H423 H 0.03458 0.70752 0.67127 0.0
H424 H 0.9783 0.67492 0.63258 0.0
H425 H 0.98017 0.73176 0.61907 0.0
H426 H 0.05968 0.65149 0.70088 0.0
H427 H 0.98134 0.71153 0.71453 0.0
H428 H 0.03644 0.7302 0.69634 0.0
C429 C 0.86654 0.54251 0.70322 0.0
C430 C 0.87763 0.55849 0.70445 0.0
N431 N 0.8839 0.56276 0.68716 0.0
N432 N 0.86576 0.53676 0.6852 0.0
C433 C 0.87642 0.54942 0.67578 0.0
H434 H 0.86014 0.53523 0.71488 0.0
Co435 Co 0.85531 0.51468 0.67526 0.0
C436 C 0.83229 0.52691 0.64278 0.0
O437 O 0.8197 0.51379 0.64667 0.0
N438 N 0.84517 0.49214 0.66482 0.0
C439 C 0.83025 0.46505 0.65886 0.0
C440 C 0.83175 0.47995 0.67093 0.0
C441 C 0.85129 0.48428 0.64878 0.0
N442 N 0.84271 0.46769 0.64497 0.0
O443 O 0.87874 0.50938 0.66359 0.0
H444 H 0.82332 0.48145 0.68328 0.0
H445 H 0.86204 0.49058 0.64011 0.0
O446 O 0.84682 0.52891 0.65327 0.0
C447 C 0.88934 0.50209 0.67596 0.0
O448 O 0.88427 0.50314 0.6936 0.0
N449 N 0.83348 0.5183 0.68906 0.0
C450 C 0.80489 0.51585 0.71574 0.0
C451 C 0.80353 0.52808 0.70025 0.0
C452 C 0.81814 0.5292 0.68702 0.0
C453 C 0.83547 0.50741 0.70453 0.0
C454 C 0.82129 0.50551 0.71758 0.0
H455 H 0.81709 0.53877 0.67537 0.0
H456 H 0.84795 0.49925 0.70616 0.0
H457 H 0.87948 0.54822 0.66099 0.0
H458 H 0.88115 0.56608 0.71718 0.0
H459 H 0.82062 0.45323 0.66028 0.0
H460 H 0.79144 0.53676 0.69839 0.0
H461 H 0.82317 0.49543 0.72869 0.0
C462 C 0.97983 0.37065 0.70118 0.0
C463 C 0.96651 0.38429 0.70192 0.0
N464 N 0.96354 0.39071 0.68437 0.0
N465 N 0.98511 0.36847 0.68323 0.0
C466 C 0.97486 0.38073 0.67336 0.0
H467 H 0.98603 0.3636 0.71304 0.0
Co468 Co 0.00543 0.35593 0.67369 0.0
C469 C 0.99017 0.33319 0.64301 0.0
O470 O 0.00102 0.31994 0.64929 0.0
N471 N 0.02653 0.34423 0.66303 0.0
C472 C 0.05327 0.33072 0.65531 0.0
C473 C 0.04005 0.33273 0.66917 0.0
C474 C 0.03203 0.34892 0.64545 0.0
N475 N 0.04816 0.341 0.64037 0.0
O476 O 0.01449 0.37898 0.66318 0.0
H477 H 0.04083 0.32645 0.68288 0.0
H478 H 0.02451 0.35859 0.63669 0.0
O479 O 0.99041 0.34912 0.65126 0.0
C480 C 0.02479 0.38594 0.67625 0.0
O481 O 0.02576 0.37676 0.6922 0.0
N482 N 0.99731 0.33413 0.68658 0.0
C483 C 0.98547 0.30732 0.71273 0.0
C484 C 0.97357 0.31254 0.69799 0.0
C485 C 0.97972 0.3261 0.68508 0.0
C486 C 0.00856 0.32978 0.70142 0.0
C487 C 0.0032 0.31601 0.71429 0.0
H488 H 0.96991 0.33089 0.67461 0.0
H489 H 0.02134 0.33783 0.70397 0.0
H490 H 0.97688 0.38337 0.65855 0.0
H491 H 0.96015 0.3896 0.71451 0.0
H492 H 0.06577 0.32249 0.65631 0.0
H493 H 0.95951 0.30656 0.69677 0.0
H494 H 0.01241 0.31293 0.72599 0.0
C495 C 0.14467 0.50024 0.69897 0.0
C496 C 0.12904 0.48879 0.7016 0.0
N497 N 0.12192 0.48401 0.68461 0.0
N498 N 0.14744 0.50242 0.68043 0.0
C499 C 0.1334 0.49245 0.67213 0.0
H500 H 0.15316 0.50689 0.70983 0.0
Co501 Co 0.1644 0.51748 0.66754 0.0
C502 C 0.17837 0.49294 0.63752 0.0
O503 O 0.19553 0.49955 0.64034 0.0
N504 N 0.18101 0.53302 0.65366 0.0
C505 C 0.2016 0.55418 0.64277 0.0
C506 C 0.19684 0.54303 0.65783 0.0
C507 C 0.17675 0.53818 0.63593 0.0
N508 N 0.18881 0.55115 0.62904 0.0
O509 O 0.14363 0.52977 0.65621 0.0
H510 H 0.20421 0.54312 0.67107 0.0
H511 H 0.16426 0.53327 0.62854 0.0
O512 O 0.16492 0.49886 0.64748 0.0
C513 C 0.14109 0.54427 0.66615 0.0
O514 O 0.15243 0.54741 0.6805 0.0
N515 N 0.18415 0.50679 0.68089 0.0
C516 C 0.21051 0.49552 0.70737 0.0
C517 C 0.20297 0.48269 0.69426 0.0
C518 C 0.18959 0.48861 0.68111 0.0
C519 C 0.19052 0.51893 0.69432 0.0
C520 C 0.20409 0.51381 0.70729 0.0
H521 H 0.18309 0.47843 0.6718 0.0
H522 H 0.18471 0.53271 0.69518 0.0
H523 H 0.13153 0.49165 0.65709 0.0
H524 H 0.12312 0.48477 0.71497 0.0
H525 H 0.21316 0.56425 0.64228 0.0
H526 H 0.20709 0.46823 0.69444 0.0
H527 H 0.20889 0.52386 0.71774 0.0
C528 C 0.02863 0.35488 0.33228 0.0
C529 C 0.04524 0.36459 0.32925 0.0
N530 N 0.05096 0.37232 0.34563 0.0
N531 N 0.02397 0.35646 0.35049 0.0
C532 C 0.03783 0.36711 0.35825 0.0
H533 H 0.02019 0.34774 0.32171 0.0
Co534 Co 0.002 0.34837 0.36211 0.0
C535 C 0.01613 0.32797 0.39571 0.0
O536 O 0.00313 0.31486 0.39308 0.0
N537 N 0.9795 0.34097 0.37394 0.0
C538 C 0.94941 0.33462 0.3803 0.0
C539 C 0.96271 0.33567 0.3664 0.0
C540 C 0.97575 0.34371 0.39228 0.0
N541 N 0.95777 0.33957 0.39656 0.0
O542 O 0.99808 0.37284 0.37167 0.0
H543 H 0.95986 0.3334 0.3517 0.0
H544 H 0.98586 0.3493 0.40233 0.0
O545 O 0.01707 0.34188 0.38446 0.0
C546 C 0.99248 0.38413 0.35913 0.0
O547 O 0.99292 0.37897 0.34147 0.0
N548 N 0.00463 0.3247 0.35106 0.0
C549 C 0.00598 0.29267 0.32882 0.0
C550 C 0.01868 0.2954 0.34377 0.0
C551 C 0.01812 0.31182 0.35444 0.0
C552 C 0.99285 0.32256 0.33604 0.0
C553 C 0.99305 0.30659 0.32495 0.0
H554 H 0.02896 0.31438 0.36482 0.0
H555 H 0.98375 0.33378 0.33213 0.0
H556 H 0.03771 0.37183 0.37266 0.0
H557 H 0.05228 0.36621 0.31594 0.0
H558 H 0.93477 0.33051 0.3786 0.0
H559 H 0.02942 0.28532 0.34667 0.0
H560 H 0.98331 0.30528 0.31325 0.0
C561 C 0.20322 0.49097 0.37267 0.0
C562 C 0.2102 0.4769 0.38375 0.0
N563 N 0.19565 0.46739 0.39159 0.0
N564 N 0.18434 0.49027 0.37337 0.0
C565 C 0.18021 0.4759 0.38507 0.0
H566 H 0.21137 0.50122 0.36487 0.0
Co567 Co 0.16669 0.5062 0.36252 0.0
C568 C 0.14153 0.47689 0.34498 0.0
O569 O 0.14288 0.48388 0.32801 0.0
N570 N 0.14784 0.52197 0.35185 0.0
C571 C 0.12845 0.53629 0.33208 0.0
C572 C 0.14345 0.52473 0.33357 0.0
C573 C 0.13491 0.53207 0.3611 0.0
N574 N 0.12289 0.54089 0.34945 0.0
O575 O 0.1567 0.51021 0.38686 0.0
H576 H 0.15048 0.51861 0.32178 0.0
H577 H 0.13393 0.5326 0.37615 0.0
O578 O 0.15027 0.48469 0.35865 0.0
C579 C 0.16856 0.52188 0.39399 0.0
O580 O 0.18295 0.52741 0.38379 0.0
N581 N 0.17896 0.50437 0.3394 0.0
C582 C 0.20584 0.50855 0.31114 0.0
C583 C 0.19864 0.49069 0.31607 0.0
C584 C 0.18514 0.48887 0.33036 0.0
C585 C 0.18585 0.52163 0.33473 0.0
C586 C 0.19848 0.5241 0.32022 0.0
H587 H 0.18071 0.47509 0.33502 0.0
H588 H 0.18181 0.53371 0.34271 0.0
H589 H 0.16604 0.47192 0.38888 0.0
H590 H 0.2249 0.47427 0.38617 0.0
H591 H 0.12221 0.54085 0.31905 0.0
H592 H 0.20407 0.4782 0.30975 0.0
H593 H 0.20292 0.53823 0.31672 0.0
C594 C 0.97687 0.64385 0.32128 0.0
C595 C 0.96253 0.63071 0.31959 0.0
N596 N 0.95844 0.62412 0.33684 0.0
N597 N 0.98169 0.64561 0.33953 0.0
C598 C 0.97026 0.63344 0.34862 0.0
H599 H 0.98369 0.65123 0.30988 0.0
Co600 Co 0.00141 0.65941 0.35012 0.0
C601 C 0.98443 0.68108 0.38051 0.0
O602 O 0.99569 0.69497 0.3755 0.0
N603 N 0.02193 0.67291 0.36129 0.0
C604 C 0.04692 0.69091 0.36878 0.0
C605 C 0.03298 0.68751 0.35565 0.0
C606 C 0.02951 0.66795 0.37798 0.0
N607 N 0.04477 0.67843 0.38271 0.0
O608 O 0.01033 0.63704 0.36197 0.0
H609 H 0.03154 0.69525 0.3428 0.0
H610 H 0.02397 0.65673 0.38663 0.0
O611 O 0.98522 0.66546 0.3718 0.0
C612 C 0.01984 0.62791 0.35013 0.0
O613 O 0.02031 0.63393 0.33271 0.0
N614 N 0.99374 0.6804 0.33627 0.0
C615 C 0.98512 0.7078 0.30997 0.0
C616 C 0.97258 0.70342 0.32446 0.0
C617 C 0.97708 0.68943 0.33745 0.0
C618 C 0.00523 0.68363 0.32137 0.0
C619 C 0.00152 0.69764 0.30841 0.0
H620 H 0.96688 0.68547 0.34792 0.0
H621 H 0.01746 0.67517 0.31957 0.0
H622 H 0.97131 0.63084 0.36354 0.0
H623 H 0.95587 0.62619 0.30662 0.0
H624 H 0.0582 0.70127 0.36778 0.0
H625 H 0.95943 0.71057 0.3256 0.0
H626 H 0.01116 0.70021 0.29698 0.0
C627 C 0.80945 0.51834 0.36974 0.0
C628 C 0.80678 0.53433 0.38024 0.0
N629 N 0.82332 0.53942 0.38827 0.0
N630 N 0.82758 0.51352 0.37124 0.0
C631 C 0.83547 0.52646 0.38278 0.0
H632 H 0.79891 0.51075 0.36159 0.0
Co633 Co 0.84081 0.4935 0.36153 0.0
C634 C 0.87358 0.51498 0.34569 0.0
O635 O 0.87224 0.5064 0.32942 0.0
N636 N 0.85476 0.47309 0.35301 0.0
C637 C 0.86348 0.44343 0.3504 0.0
C638 C 0.84848 0.45522 0.35086 0.0
C639 C 0.87362 0.47154 0.35453 0.0
N640 N 0.87929 0.45382 0.35273 0.0
O641 O 0.84825 0.48696 0.38623 0.0
H642 H 0.83395 0.45066 0.35161 0.0
H643 H 0.883 0.48272 0.35912 0.0
O644 O 0.86244 0.51043 0.35895 0.0
C645 C 0.83515 0.47686 0.39322 0.0
O646 O 0.81966 0.47423 0.38332 0.0
N647 N 0.83183 0.49907 0.33706 0.0
C648 C 0.8115 0.50661 0.30425 0.0
C649 C 0.82223 0.52074 0.31321 0.0
C650 C 0.83219 0.51673 0.32968 0.0
C651 C 0.82136 0.48529 0.32847 0.0
C652 C 0.81148 0.48862 0.31189 0.0
H653 H 0.83926 0.52808 0.33707 0.0
H654 H 0.81944 0.47191 0.33508 0.0
H655 H 0.84988 0.52607 0.38759 0.0
H656 H 0.79379 0.5417 0.38169 0.0
H657 H 0.86271 0.42834 0.34954 0.0
H658 H 0.82231 0.53495 0.30797 0.0
H659 H 0.80277 0.4775 0.30587 0.0
C660 C 0.20118 0.65239 0.48386 0.0
C661 C 0.20198 0.63629 0.47312 0.0
N662 N 0.1847 0.6281 0.47266 0.0
N663 N 0.18347 0.65417 0.48997 0.0
C664 C 0.17398 0.63922 0.48301 0.0
H665 H 0.21272 0.66194 0.4872 0.0
Co666 Co 0.1714 0.6704 0.50574 0.0
C667 C 0.13928 0.6825 0.48278 0.0
O668 O 0.14245 0.69985 0.4882 0.0
N669 N 0.15786 0.68586 0.52197 0.0
C670 C 0.14592 0.70386 0.54423 0.0
C671 C 0.16124 0.70108 0.53286 0.0
C672 C 0.14047 0.67994 0.52693 0.0
N673 N 0.13303 0.69028 0.54052 0.0
O674 O 0.16245 0.64919 0.51953 0.0
H675 H 0.17418 0.70921 0.53343 0.0
H676 H 0.1335 0.66769 0.521 0.0
O677 O 0.14979 0.66954 0.48873 0.0
C678 C 0.17319 0.64716 0.53368 0.0
O679 O 0.1867 0.65967 0.53663 0.0
N680 N 0.18247 0.69075 0.49327 0.0
C681 C 0.20673 0.71761 0.47798 0.0
C682 C 0.19376 0.70792 0.46647 0.0
C683 C 0.18172 0.69435 0.47443 0.0
C684 C 0.1957 0.69941 0.50427 0.0
C685 C 0.20757 0.71326 0.49708 0.0
H686 H 0.17262 0.6861 0.46531 0.0
H687 H 0.1977 0.69485 0.51858 0.0
H688 H 0.15945 0.63614 0.48625 0.0
H689 H 0.2143 0.63105 0.46632 0.0
H690 H 0.14483 0.71433 0.55509 0.0
H691 H 0.19328 0.71047 0.45151 0.0
H692 H 0.21804 0.71981 0.5062 0.0
C693 C 0.15013 0.31233 0.49637 0.0
C694 C 0.13573 0.3062 0.48484 0.0
N695 N 0.12631 0.32115 0.47875 0.0
N696 N 0.14997 0.33114 0.49752 0.0
C697 C 0.13531 0.33613 0.48652 0.0
H698 H 0.15936 0.30348 0.50428 0.0
Co699 Co 0.1638 0.34603 0.51453 0.0
C700 C 0.18388 0.37396 0.49178 0.0
O701 O 0.19833 0.3711 0.50288 0.0
N702 N 0.17716 0.3616 0.5323 0.0
C703 C 0.19536 0.3741 0.55492 0.0
C704 C 0.19278 0.35918 0.54291 0.0
C705 C 0.17085 0.37835 0.53807 0.0
N706 N 0.18138 0.38604 0.55198 0.0
O707 O 0.14075 0.35699 0.52245 0.0
H708 H 0.20182 0.34736 0.54247 0.0
H709 H 0.1585 0.3848 0.53232 0.0
O710 O 0.16837 0.36498 0.49463 0.0
C711 C 0.13655 0.3473 0.53695 0.0
O712 O 0.14736 0.33335 0.54145 0.0
N713 N 0.18558 0.33268 0.50864 0.0
C714 C 0.21182 0.30477 0.5036 0.0
C715 C 0.20784 0.31728 0.48902 0.0
C716 C 0.19432 0.33102 0.49171 0.0
C717 C 0.18926 0.32034 0.5227 0.0
C718 C 0.20249 0.30657 0.52062 0.0
H719 H 0.19012 0.33941 0.47988 0.0
H720 H 0.18127 0.32077 0.5355 0.0
H721 H 0.13043 0.3503 0.48545 0.0
H722 H 0.13189 0.29176 0.48192 0.0
H723 H 0.20623 0.37561 0.56555 0.0
H724 H 0.21422 0.31571 0.4754 0.0
H725 H 0.20474 0.29675 0.53195 0.0
C726 C 0.86967 0.69692 0.50159 0.0
C727 C 0.88259 0.7037 0.48897 0.0
N728 N 0.88639 0.69006 0.47657 0.0
N729 N 0.86514 0.67909 0.49727 0.0
C730 C 0.87566 0.67519 0.48205 0.0
H731 H 0.86423 0.70436 0.5135 0.0
Co732 Co 0.84943 0.66412 0.51205 0.0
C733 C 0.83392 0.63491 0.48651 0.0
O734 O 0.81742 0.63648 0.49432 0.0
N735 N 0.83367 0.64851 0.52776 0.0
C736 C 0.80968 0.63604 0.54384 0.0
C737 C 0.81536 0.65037 0.53226 0.0
C738 C 0.83865 0.63273 0.53706 0.0
N739 N 0.82435 0.62502 0.54696 0.0
O740 O 0.87139 0.65328 0.52234 0.0
H741 H 0.80618 0.66097 0.5271 0.0
H742 H 0.85237 0.62667 0.53629 0.0
O743 O 0.84774 0.64528 0.4921 0.0
C744 C 0.87462 0.66048 0.53844 0.0
O745 O 0.86174 0.67087 0.54598 0.0
N746 N 0.82883 0.67751 0.50303 0.0
C747 C 0.80227 0.70429 0.49391 0.0
C748 C 0.80839 0.69161 0.48032 0.0
C749 C 0.82191 0.6784 0.48512 0.0
C750 C 0.82373 0.69038 0.516 0.0
C751 C 0.81023 0.70354 0.51191 0.0
H752 H 0.82728 0.66953 0.47427 0.0
H753 H 0.83031 0.69038 0.52973 0.0
H754 H 0.8756 0.6617 0.47523 0.0
H755 H 0.88909 0.71752 0.48931 0.0
H756 H 0.79575 0.63384 0.54951 0.0
H757 H 0.80298 0.69205 0.4661 0.0
H758 H 0.80651 0.71347 0.52265 0.0
C759 C 0.81497 0.36206 0.50966 0.0
C760 C 0.81244 0.37719 0.49806 0.0
N761 N 0.82944 0.38351 0.49233 0.0
N762 N 0.83345 0.35878 0.51104 0.0
C763 C 0.84189 0.37206 0.50043 0.0
H764 H 0.80412 0.35432 0.51706 0.0
Co765 Co 0.845 0.34187 0.52652 0.0
C766 C 0.87786 0.32847 0.50589 0.0
O767 O 0.87546 0.31173 0.51314 0.0
N768 N 0.8571 0.3251 0.54299 0.0
C769 C 0.86655 0.30148 0.56087 0.0
C770 C 0.85258 0.30766 0.54912 0.0
C771 C 0.87377 0.32915 0.55146 0.0
N772 N 0.87977 0.31512 0.56235 0.0
O773 O 0.85594 0.36241 0.53996 0.0
H774 H 0.84021 0.29956 0.54524 0.0
H775 H 0.88184 0.34193 0.54916 0.0
O776 O 0.86655 0.34148 0.50972 0.0
C777 C 0.84706 0.36573 0.55495 0.0
O778 O 0.83289 0.35458 0.5595 0.0
N779 N 0.83239 0.32243 0.51369 0.0
C780 C 0.80559 0.29912 0.49608 0.0
C781 C 0.82133 0.30591 0.48623 0.0
C782 C 0.83447 0.31781 0.49522 0.0
C783 C 0.8171 0.31612 0.52332 0.0
C784 C 0.80384 0.30412 0.515 0.0
H785 H 0.84553 0.32413 0.48696 0.0
H786 H 0.81496 0.32089 0.53753 0.0
H787 H 0.85694 0.37349 0.49896 0.0
H788 H 0.79914 0.38339 0.49465 0.0
H789 H 0.86697 0.28804 0.5678 0.0
H790 H 0.82299 0.30285 0.47147 0.0
H791 H 0.79208 0.29916 0.5233 0.0
C792 C 0.47354 0.196 0.64739 0.0
C793 C 0.45827 0.20079 0.6367 0.0
N794 N 0.45524 0.18752 0.62355 0.0
N795 N 0.48022 0.17966 0.64115 0.0
C796 C 0.46848 0.17469 0.62682 0.0
H797 H 0.48009 0.20471 0.65807 0.0
Co798 Co 0.50372 0.16909 0.64679 0.0
C799 C 0.49425 0.13464 0.66773 0.0
O800 O 0.50909 0.13822 0.67832 0.0
N801 N 0.52737 0.15825 0.65131 0.0
C802 C 0.55773 0.15273 0.6559 0.0
C803 C 0.54387 0.16568 0.65763 0.0
C804 C 0.53185 0.14093 0.64536 0.0
N805 N 0.5501 0.13712 0.64821 0.0
O806 O 0.50625 0.16139 0.62127 0.0
H807 H 0.54616 0.17975 0.66267 0.0
H808 H 0.52191 0.13139 0.63861 0.0
O809 O 0.4904 0.14569 0.65415 0.0
C810 C 0.51152 0.17602 0.61233 0.0
O811 O 0.51141 0.19219 0.62105 0.0
N812 N 0.50284 0.17902 0.67142 0.0
C813 C 0.50495 0.19942 0.70494 0.0
C814 C 0.49236 0.1841 0.703 0.0
C815 C 0.49116 0.17434 0.68591 0.0
C816 C 0.51424 0.19451 0.67281 0.0
C817 C 0.51581 0.20466 0.68943 0.0
H818 H 0.48051 0.16349 0.68431 0.0
H819 H 0.52198 0.19928 0.66066 0.0
H820 H 0.47068 0.16282 0.61776 0.0
H821 H 0.45074 0.21371 0.63774 0.0
H822 H 0.57229 0.15467 0.66003 0.0
H823 H 0.48311 0.18006 0.71435 0.0
H824 H 0.52549 0.21654 0.69007 0.0
C825 C 0.368 0.02796 0.70702 0.0
C826 C 0.38136 0.04094 0.71307 0.0
N827 N 0.38853 0.04981 0.69794 0.0
N828 N 0.36681 0.0287 0.68816 0.0
C829 C 0.37931 0.04223 0.68311 0.0
H830 H 0.36063 0.0178 0.71564 0.0
Co831 Co 0.35565 0.01176 0.67144 0.0
C832 C 0.33636 0.03834 0.6456 0.0
O833 O 0.31988 0.03016 0.64794 0.0
N834 N 0.34471 0.99457 0.65363 0.0
C835 C 0.32504 0.97701 0.63611 0.0
C836 C 0.32641 0.99034 0.64993 0.0
C837 C 0.35405 0.9836 0.64154 0.0
N838 N 0.3425 0.97281 0.63086 0.0
O839 O 0.37988 0.00837 0.66074 0.0
H840 H 0.31456 0.99636 0.65684 0.0
H841 H 0.36912 0.98316 0.64061 0.0
O842 O 0.35072 0.03236 0.65435 0.0
C843 C 0.38708 0.99594 0.67121 0.0
O844 O 0.37698 0.98868 0.68484 0.0
N845 N 0.33291 0.01317 0.68438 0.0
C846 C 0.30315 0.00814 0.70951 0.0
C847 C 0.30765 0.02599 0.7021 0.0
C848 C 0.32277 0.02825 0.68956 0.0
C849 C 0.32907 0.99606 0.69195 0.0
C850 C 0.31394 0.99309 0.70372 0.0
H851 H 0.32675 0.04207 0.68466 0.0
H852 H 0.33788 0.98443 0.68865 0.0
H853 H 0.38291 0.04516 0.66867 0.0
H854 H 0.38612 0.04296 0.7274 0.0
H855 H 0.31219 0.97098 0.63032 0.0
H856 H 0.30008 0.03817 0.70641 0.0
H857 H 0.311 0.97894 0.70836 0.0
C858 C 0.4896 0.87973 0.71245 0.0
C859 C 0.47944 0.89573 0.7147 0.0
N860 N 0.47357 0.90135 0.69764 0.0
N861 N 0.49013 0.87546 0.69406 0.0
C862 C 0.48013 0.88879 0.68544 0.0
H863 H 0.49734 0.87258 0.72329 0.0
Co864 Co 0.50667 0.85977 0.68241 0.0
C865 C 0.48561 0.84325 0.65089 0.0
O866 O 0.49271 0.82702 0.65526 0.0
N867 N 0.5242 0.84476 0.66984 0.0
C868 C 0.54812 0.82754 0.66067 0.0
C869 C 0.53569 0.83086 0.67497 0.0
C870 C 0.52997 0.84943 0.65237 0.0
N871 N 0.54459 0.83945 0.64651 0.0
O872 O 0.51907 0.88124 0.67237 0.0
H873 H 0.53599 0.82408 0.68845 0.0
H874 H 0.52379 0.86051 0.64427 0.0
O875 O 0.48994 0.85774 0.66065 0.0
C876 C 0.53184 0.88648 0.68391 0.0
O877 O 0.53413 0.87667 0.69932 0.0
N878 N 0.49498 0.83922 0.69435 0.0
C879 C 0.47931 0.8124 0.71828 0.0
C880 C 0.46816 0.82106 0.70473 0.0
C881 C 0.47625 0.83464 0.69297 0.0
C882 C 0.50555 0.83178 0.70834 0.0
C883 C 0.4982 0.81791 0.72005 0.0
H884 H 0.46724 0.84204 0.68341 0.0
H885 H 0.51957 0.83728 0.711 0.0
H886 H 0.47928 0.89037 0.67035 0.0
H887 H 0.47737 0.9032 0.72769 0.0
H888 H 0.55954 0.81786 0.66118 0.0
H889 H 0.45332 0.8176 0.70348 0.0
H890 H 0.50698 0.81214 0.73098 0.0
C891 C 0.64963 0.00466 0.6966 0.0
C892 C 0.63449 0.99302 0.70072 0.0
N893 N 0.62747 0.98611 0.68446 0.0
N894 N 0.65214 0.00474 0.67788 0.0
C895 C 0.6385 0.99333 0.67094 0.0
H896 H 0.65793 0.01287 0.70649 0.0
Co897 Co 0.66829 0.0189 0.66319 0.0
C898 C 0.67045 0.99449 0.62984 0.0
O899 O 0.66621 0.00859 0.61893 0.0
N900 N 0.6842 0.03329 0.64829 0.0
C901 C 0.70441 0.04383 0.62703 0.0
C902 C 0.69966 0.02898 0.63856 0.0
C903 C 0.68045 0.0509 0.64325 0.0
N904 N 0.69212 0.05755 0.62998 0.0
O905 O 0.64699 0.02647 0.64821 0.0
H906 H 0.70626 0.01553 0.63889 0.0
H907 H 0.66842 0.05823 0.64817 0.0
O908 O 0.67208 0.99696 0.64752 0.0
C909 C 0.63769 0.03897 0.65653 0.0
O910 O 0.64346 0.04488 0.67309 0.0
N911 N 0.68847 0.01296 0.67877 0.0
C912 C 0.71449 0.00788 0.70757 0.0
C913 C 0.70637 0.99242 0.69811 0.0
C914 C 0.6934 0.99527 0.68358 0.0
C915 C 0.69657 0.02808 0.68753 0.0
C916 C 0.70984 0.02586 0.70176 0.0
H917 H 0.68651 0.98332 0.67699 0.0
H918 H 0.69206 0.04198 0.68402 0.0
H919 H 0.63652 0.99064 0.65611 0.0
H920 H 0.62872 0.99036 0.71449 0.0
H921 H 0.71535 0.04407 0.61659 0.0
H922 H 0.70951 0.97831 0.70238 0.0
H923 H 0.71549 0.03811 0.70897 0.0
C924 C 0.5477 0.84239 0.329 0.0
C925 C 0.562 0.85458 0.32414 0.0
N926 N 0.56326 0.86816 0.33716 0.0
N927 N 0.53976 0.8482 0.34507 0.0
C928 C 0.54994 0.86377 0.34988 0.0
H929 H 0.54264 0.83091 0.32039 0.0
Co930 Co 0.51645 0.84021 0.35541 0.0
C931 C 0.52615 0.8211 0.39079 0.0
O932 O 0.51231 0.80909 0.38738 0.0
N933 N 0.49293 0.83292 0.36592 0.0
C934 C 0.46537 0.81947 0.37323 0.0
C935 C 0.4799 0.81979 0.36068 0.0
C936 C 0.48562 0.84056 0.38158 0.0
N937 N 0.469 0.83257 0.38633 0.0
O938 O 0.51184 0.86529 0.36324 0.0
H939 H 0.48067 0.8106 0.34878 0.0
H940 H 0.49271 0.85134 0.38982 0.0
O941 O 0.52955 0.83431 0.3791 0.0
C942 C 0.50643 0.87399 0.34864 0.0
O943 O 0.50647 0.86526 0.33242 0.0
N944 N 0.51955 0.81623 0.34522 0.0
C945 C 0.51995 0.78409 0.32296 0.0
C946 C 0.53096 0.78543 0.33941 0.0
C947 C 0.53087 0.80187 0.35022 0.0
C948 C 0.50948 0.81534 0.32892 0.0
C949 C 0.50919 0.79941 0.31782 0.0
H950 H 0.54017 0.8031 0.36219 0.0
H951 H 0.50129 0.82717 0.32468 0.0
H952 H 0.54648 0.8728 0.36145 0.0
H953 H 0.56991 0.8543 0.31124 0.0
H954 H 0.45307 0.8103 0.37277 0.0
H955 H 0.53991 0.77411 0.34358 0.0
H956 H 0.50041 0.79909 0.30535 0.0
C957 C 0.69723 0.98068 0.37747 0.0
C958 C 0.69923 0.96525 0.38882 0.0
N959 N 0.68207 0.95759 0.39164 0.0
N960 N 0.67885 0.98279 0.37348 0.0
C961 C 0.67 0.96846 0.38233 0.0
H962 H 0.70833 0.99035 0.37334 0.0
Co963 Co 0.66762 0.0032 0.36217 0.0
C964 C 0.6349 0.9868 0.34117 0.0
O965 O 0.63696 0.99951 0.32799 0.0
N966 N 0.65589 0.0241 0.35131 0.0
C967 C 0.64833 0.04986 0.33571 0.0
C968 C 0.66188 0.03674 0.33844 0.0
C969 C 0.63874 0.0301 0.35629 0.0
N970 N 0.63379 0.04567 0.347 0.0
O971 O 0.65661 0.00957 0.38555 0.0
H972 H 0.67522 0.03682 0.33146 0.0
H973 H 0.62985 0.02293 0.36635 0.0
O974 O 0.6461 0.98695 0.35526 0.0
C975 C 0.66907 0.01888 0.39476 0.0
O976 O 0.68612 0.02008 0.38792 0.0
N977 N 0.6806 0.99829 0.34 0.0
C978 C 0.70516 0.99693 0.30973 0.0
C979 C 0.68953 0.98459 0.31073 0.0
C980 C 0.67755 0.98524 0.32626 0.0
C981 C 0.69631 0.00948 0.33973 0.0
C982 C 0.70853 0.00931 0.32467 0.0
H983 H 0.66613 0.97513 0.3272 0.0
H984 H 0.69898 0.01917 0.35114 0.0
H985 H 0.65491 0.96675 0.38312 0.0
H986 H 0.71212 0.96043 0.39509 0.0
H987 H 0.64931 0.06179 0.32642 0.0
H988 H 0.68676 0.97436 0.2998 0.0
H989 H 0.7203 0.01916 0.32461 0.0
C990 C 0.48566 0.14336 0.3063 0.0
C991 C 0.47097 0.13078 0.30337 0.0
N992 N 0.46455 0.1252 0.32024 0.0
N993 N 0.48838 0.1456 0.32491 0.0
C994 C 0.4754 0.1343 0.33298 0.0
H995 H 0.49407 0.15012 0.29559 0.0
Co996 Co 0.507 0.1594 0.33711 0.0
C997 C 0.48914 0.17484 0.37115 0.0
O998 O 0.49941 0.19026 0.36976 0.0
N999 N 0.52637 0.17293 0.34979 0.0
C1000 C 0.54978 0.19181 0.35969 0.0
C1001 C 0.53663 0.18857 0.34571 0.0
C1002 C 0.53367 0.16707 0.36627 0.0
N1003 N 0.54791 0.17813 0.3725 0.0
O1004 O 0.517 0.13673 0.34677 0.0
H1005 H 0.53503 0.19715 0.33341 0.0
H1006 H 0.5284 0.15496 0.37383 0.0
O1007 O 0.49064 0.16182 0.35901 0.0
C1008 C 0.529 0.13037 0.33544 0.0
O1009 O 0.53135 0.13899 0.31932 0.0
N1010 N 0.498 0.18095 0.32574 0.0
C1011 C 0.4862 0.20823 0.30083 0.0
C1012 C 0.47479 0.20278 0.31588 0.0
C1013 C 0.48092 0.18888 0.32822 0.0
C1014 C 0.5088 0.18577 0.31076 0.0
C1015 C 0.50339 0.19967 0.29839 0.0
H1016 H 0.47152 0.18388 0.339 0.0
H1017 H 0.52156 0.17834 0.30816 0.0
H1018 H 0.47448 0.13212 0.34797 0.0
H1019 H 0.46559 0.12598 0.28993 0.0
H1020 H 0.56021 0.20306 0.36013 0.0
H1021 H 0.46112 0.20878 0.31772 0.0
H1022 H 0.51225 0.20322 0.28656 0.0
C1023 C 0.3271 0.99781 0.37064 0.0
C1024 C 0.32319 0.00981 0.38527 0.0
N1025 N 0.33944 0.01804 0.39112 0.0
N1026 N 0.34567 0.99875 0.36723 0.0
C1027 C 0.35266 0.01122 0.37982 0.0
H1028 H 0.31721 0.98846 0.36356 0.0
Co1029 Co 0.36128 0.9845 0.35243 0.0
C1030 C 0.38579 0.01268 0.33357 0.0
O1031 O 0.38594 0.00287 0.31801 0.0
N1032 N 0.37821 0.97018 0.33794 0.0
C1033 C 0.3934 0.9537 0.31644 0.0
C1034 C 0.37688 0.96236 0.32063 0.0
C1035 C 0.39579 0.96608 0.34375 0.0
N1036 N 0.40509 0.95599 0.33115 0.0
O1037 O 0.37506 0.97923 0.37469 0.0
H1038 H 0.36498 0.96309 0.31124 0.0
H1039 H 0.40204 0.97066 0.35688 0.0
O1040 O 0.37649 0.00676 0.34768 0.0
C1041 C 0.37088 0.9627 0.38002 0.0
O1042 O 0.36097 0.95176 0.36871 0.0
N1043 N 0.34565 0.98823 0.33168 0.0
C1044 C 0.31732 0.98785 0.30433 0.0
C1045 C 0.32793 0.0043 0.30813 0.0
C1046 C 0.34194 0.00427 0.32211 0.0
C1047 C 0.33502 0.97245 0.32865 0.0
C1048 C 0.32123 0.97179 0.31478 0.0
H1049 H 0.34924 0.01721 0.32561 0.0
H1050 H 0.33754 0.96013 0.337 0.0
H1051 H 0.36745 0.0147 0.38112 0.0
H1052 H 0.30962 0.01166 0.39162 0.0
H1053 H 0.39652 0.94616 0.30372 0.0
H1054 H 0.32504 0.0172 0.30085 0.0
H1055 H 0.31372 0.95867 0.31234 0.0
C1056 C 0.69147 0.15306 0.48586 0.0
C1057 C 0.69311 0.13748 0.47457 0.0
N1058 N 0.67598 0.1292 0.47266 0.0
N1059 N 0.67338 0.15449 0.49094 0.0
C1060 C 0.66444 0.13976 0.48279 0.0
H1061 H 0.70271 0.16255 0.49024 0.0
Co1062 Co 0.66112 0.17087 0.5067 0.0
C1063 C 0.62937 0.18286 0.48325 0.0
O1064 O 0.63204 0.20025 0.48875 0.0
N1065 N 0.64744 0.18676 0.52269 0.0
C1066 C 0.63328 0.20969 0.53796 0.0
C1067 C 0.64893 0.20497 0.52788 0.0
C1068 C 0.63085 0.18089 0.53004 0.0
N1069 N 0.6221 0.19438 0.53936 0.0
O1070 O 0.6517 0.14996 0.52036 0.0
H1071 H 0.65996 0.2147 0.52388 0.0
H1072 H 0.62444 0.16726 0.5275 0.0
O1073 O 0.63995 0.17011 0.48949 0.0
C1074 C 0.6649 0.1453 0.53137 0.0
O1075 O 0.68111 0.1544 0.53062 0.0
N1076 N 0.67283 0.19101 0.4945 0.0
C1077 C 0.69841 0.21732 0.48042 0.0
C1078 C 0.68519 0.20857 0.46843 0.0
C1079 C 0.67245 0.19525 0.47579 0.0
C1080 C 0.68628 0.19873 0.50593 0.0
C1081 C 0.69882 0.21229 0.49935 0.0
H1082 H 0.66306 0.18773 0.46634 0.0
H1083 H 0.68742 0.19405 0.52032 0.0
H1084 H 0.64972 0.13646 0.48487 0.0
H1085 H 0.70589 0.13268 0.46827 0.0
H1086 H 0.63008 0.22339 0.54332 0.0
H1087 H 0.68499 0.2117 0.45357 0.0
H1088 H 0.70931 0.21824 0.50885 0.0
C1089 C 0.64716 0.80486 0.50753 0.0
C1090 C 0.63324 0.79748 0.496 0.0
N1091 N 0.62426 0.81171 0.48775 0.0
N1092 N 0.64692 0.82365 0.50654 0.0
C1093 C 0.6328 0.82739 0.49443 0.0
H1094 H 0.65675 0.79707 0.51618 0.0
Co1095 Co 0.66194 0.84096 0.51971 0.0
C1096 C 0.65657 0.87512 0.49785 0.0
O1097 O 0.65307 0.88441 0.51327 0.0
N1098 N 0.6769 0.85891 0.53284 0.0
C1099 C 0.69658 0.88305 0.53793 0.0
C1100 C 0.69183 0.86858 0.52594 0.0
C1101 C 0.67321 0.86748 0.5493 0.0
N1102 N 0.6848 0.88237 0.55258 0.0
O1103 O 0.63977 0.85047 0.53098 0.0
H1104 H 0.69803 0.8661 0.5124 0.0
H1105 H 0.66138 0.86385 0.55809 0.0
O1106 O 0.66032 0.85783 0.4986 0.0
C1107 C 0.6349 0.83932 0.54414 0.0
O1108 O 0.6453 0.82471 0.54735 0.0
N1109 N 0.68345 0.83001 0.50997 0.0
C1110 C 0.71189 0.80599 0.49927 0.0
C1111 C 0.70073 0.81489 0.48572 0.0
C1112 C 0.68654 0.82688 0.49137 0.0
C1113 C 0.69451 0.82205 0.52326 0.0
C1114 C 0.70893 0.81026 0.51824 0.0
H1115 H 0.67733 0.83269 0.48087 0.0
H1116 H 0.69161 0.82426 0.53795 0.0
H1117 H 0.62846 0.84138 0.49102 0.0
H1118 H 0.63 0.78277 0.49386 0.0
H1119 H 0.70735 0.89373 0.53566 0.0
H1120 H 0.70226 0.81191 0.47093 0.0
H1121 H 0.71736 0.80416 0.52924 0.0
C1122 C 0.31337 0.14321 0.5198 0.0
C1123 C 0.31102 0.13363 0.53643 0.0
N1124 N 0.32805 0.1286 0.54277 0.0
N1125 N 0.33181 0.14428 0.51573 0.0
C1126 C 0.34033 0.13519 0.5299 0.0
H1127 H 0.30231 0.14873 0.5111 0.0
Co1128 Co 0.34361 0.15415 0.49455 0.0
C1129 C 0.37462 0.17759 0.51108 0.0
O1130 O 0.37128 0.19052 0.49846 0.0
N1131 N 0.35595 0.16338 0.47287 0.0
C1132 C 0.36274 0.17125 0.44336 0.0
C1133 C 0.34861 0.16889 0.45626 0.0
C1134 C 0.37455 0.16211 0.46944 0.0
N1135 N 0.37904 0.16704 0.45174 0.0
O1136 O 0.35443 0.13037 0.48977 0.0
H1137 H 0.3339 0.1703 0.45313 0.0
H1138 H 0.38459 0.15686 0.47949 0.0
O1139 O 0.36486 0.16236 0.51083 0.0
C1140 C 0.34184 0.12173 0.48002 0.0
O1141 O 0.32579 0.13001 0.47725 0.0
N1142 N 0.33054 0.1766 0.49779 0.0
C1143 C 0.30339 0.20413 0.49994 0.0
C1144 C 0.31843 0.20395 0.51279 0.0
C1145 C 0.33169 0.18971 0.51177 0.0
C1146 C 0.31576 0.17655 0.48556 0.0
C1147 C 0.30233 0.19027 0.48613 0.0
H1148 H 0.3421 0.18877 0.52277 0.0
H1149 H 0.31371 0.16505 0.47593 0.0
H1150 H 0.35527 0.13286 0.53036 0.0
H1151 H 0.29779 0.13057 0.54325 0.0
H1152 H 0.36114 0.17553 0.42888 0.0
H1153 H 0.31931 0.21402 0.52412 0.0
H1154 H 0.29073 0.18959 0.47622 0.0
C1155 C 0.32229 0.86633 0.50326 0.0
C1156 C 0.31983 0.88154 0.49162 0.0
N1157 N 0.33593 0.88461 0.48226 0.0
N1158 N 0.33989 0.86015 0.5012 0.0
C1159 C 0.34774 0.87155 0.48831 0.0
H1160 H 0.31237 0.8609 0.51341 0.0
Co1161 Co 0.35265 0.84397 0.51663 0.0
C1162 C 0.38468 0.83165 0.49383 0.0
O1163 O 0.38216 0.8144 0.49979 0.0
N1164 N 0.36607 0.8283 0.53291 0.0
C1165 C 0.37512 0.81151 0.55758 0.0
C1166 C 0.36112 0.81395 0.54434 0.0
C1167 C 0.38323 0.83384 0.5392 0.0
N1168 N 0.38881 0.82437 0.55446 0.0
O1169 O 0.36262 0.86515 0.52981 0.0
H1170 H 0.34766 0.80676 0.54443 0.0
H1171 H 0.39087 0.84584 0.53365 0.0
O1172 O 0.37392 0.84443 0.49954 0.0
C1173 C 0.35214 0.86848 0.54371 0.0
O1174 O 0.33764 0.85719 0.54671 0.0
N1175 N 0.34078 0.82383 0.50433 0.0
C1176 C 0.31394 0.79979 0.4879 0.0
C1177 C 0.32868 0.80744 0.4772 0.0
C1178 C 0.34181 0.81976 0.48562 0.0
C1179 C 0.32647 0.81661 0.51477 0.0
C1180 C 0.31325 0.80421 0.50703 0.0
H1181 H 0.35184 0.82696 0.47678 0.0
H1182 H 0.32459 0.82145 0.52897 0.0
H1183 H 0.36236 0.87143 0.48443 0.0
H1184 H 0.3075 0.89002 0.49061 0.0
H1185 H 0.37437 0.80233 0.56963 0.0
H1186 H 0.3294 0.80486 0.46226 0.0
H1187 H 0.30215 0.7987 0.51589 0.0
C1188 C 0.48428 0.69635 0.1548 0.0
C1189 C 0.46798 0.69879 0.14448 0.0
N1190 N 0.46317 0.68236 0.13632 0.0
N1191 N 0.48962 0.67848 0.15302 0.0
C1192 C 0.47657 0.67048 0.1416 0.0
H1193 H 0.49194 0.70701 0.16267 0.0
Co1194 Co 0.51088 0.666 0.16125 0.0
C1195 C 0.49473 0.62957 0.17548 0.0
O1196 O 0.50739 0.62821 0.18889 0.0
N1197 N 0.53227 0.65267 0.16882 0.0
C1198 C 0.55783 0.64133 0.18247 0.0
C1199 C 0.54451 0.65492 0.1833 0.0
C1200 C 0.5386 0.63762 0.15946 0.0
N1201 N 0.5541 0.63054 0.16739 0.0
O1202 O 0.51624 0.65991 0.13581 0.0
H1203 H 0.54401 0.6656 0.19394 0.0
H1204 H 0.53171 0.63161 0.14723 0.0
O1205 O 0.49521 0.64356 0.16436 0.0
C1206 C 0.52495 0.67405 0.12894 0.0
O1207 O 0.52675 0.68919 0.1393 0.0
N1208 N 0.50686 0.6744 0.18576 0.0
C1209 C 0.50632 0.69321 0.22009 0.0
C1210 C 0.49416 0.67778 0.21667 0.0
C1211 C 0.4944 0.66871 0.19918 0.0
C1212 C 0.5181 0.68979 0.18863 0.0
C1213 C 0.5183 0.69918 0.20568 0.0
H1214 H 0.48439 0.65748 0.19649 0.0
H1215 H 0.52741 0.69452 0.17762 0.0
H1216 H 0.47738 0.65631 0.13646 0.0
H1217 H 0.46036 0.71161 0.14302 0.0
H1218 H 0.56951 0.63968 0.19208 0.0
H1219 H 0.48429 0.67305 0.22723 0.0
H1220 H 0.52803 0.7109 0.2076 0.0
C1221 C 0.37095 0.52121 0.21042 0.0
C1222 C 0.38339 0.53627 0.21247 0.0
N1223 N 0.38941 0.54133 0.19529 0.0
N1224 N 0.36931 0.51693 0.19205 0.0
C1225 C 0.38082 0.5293 0.18333 0.0
H1226 H 0.36388 0.51369 0.22158 0.0
Co1227 Co 0.35669 0.49753 0.1795 0.0
C1228 C 0.33906 0.5168 0.14694 0.0
O1229 O 0.32362 0.50651 0.1484 0.0
N1230 N 0.34483 0.4778 0.166 0.0
C1231 C 0.33306 0.45022 0.15657 0.0
C1232 C 0.33377 0.46304 0.17101 0.0
C1233 C 0.35039 0.4736 0.14843 0.0
N1234 N 0.34369 0.45689 0.14244 0.0
O1235 O 0.38012 0.48963 0.16979 0.0
H1236 H 0.32764 0.46077 0.1846 0.0
H1237 H 0.36057 0.48198 0.14075 0.0
O1238 O 0.35274 0.5143 0.15829 0.0
C1239 C 0.38602 0.47744 0.18128 0.0
O1240 O 0.37645 0.47454 0.19674 0.0
N1241 N 0.33419 0.5041 0.19106 0.0
C1242 C 0.30375 0.51089 0.21426 0.0
C1243 C 0.30946 0.5241 0.20077 0.0
C1244 C 0.32488 0.52049 0.18932 0.0
C1245 C 0.32942 0.49176 0.20487 0.0
C1246 C 0.31392 0.49455 0.2162 0.0
H1247 H 0.32977 0.53124 0.1798 0.0
H1248 H 0.33815 0.47991 0.20755 0.0
H1249 H 0.38354 0.52897 0.16844 0.0
H1250 H 0.38766 0.54293 0.2255 0.0
H1251 H 0.32607 0.43663 0.15688 0.0
H1252 H 0.30238 0.53726 0.19943 0.0
H1253 H 0.31056 0.48449 0.2271 0.0
C1254 C 0.49832 0.36061 0.19341 0.0
C1255 C 0.48424 0.37321 0.19551 0.0
N1256 N 0.48001 0.38035 0.1785 0.0
N1257 N 0.50285 0.35965 0.17515 0.0
C1258 C 0.49152 0.3718 0.16642 0.0
H1259 H 0.5054 0.35328 0.20457 0.0
Co1260 Co 0.52299 0.34746 0.16504 0.0
C1261 C 0.5087 0.32818 0.13149 0.0
O1262 O 0.51896 0.31409 0.13681 0.0
N1263 N 0.5442 0.33583 0.15439 0.0
C1264 C 0.56941 0.31965 0.14664 0.0
C1265 C 0.55503 0.32129 0.15932 0.0
C1266 C 0.55241 0.34261 0.13865 0.0
N1267 N 0.56777 0.33324 0.13377 0.0
O1268 O 0.53273 0.37106 0.15667 0.0
H1269 H 0.553 0.31233 0.1713 0.0
H1270 H 0.54709 0.35425 0.13069 0.0
O1271 O 0.50873 0.34308 0.14147 0.0
C1272 C 0.5438 0.37706 0.16957 0.0
O1273 O 0.54587 0.36671 0.18465 0.0
N1274 N 0.51382 0.32507 0.17572 0.0
C1275 C 0.49954 0.29768 0.20013 0.0
C1276 C 0.48902 0.3035 0.18451 0.0
C1277 C 0.49631 0.31739 0.17261 0.0
C1278 C 0.52394 0.31993 0.19107 0.0
C1279 C 0.51741 0.3059 0.20304 0.0
H1280 H 0.48732 0.32282 0.16174 0.0
H1281 H 0.5369 0.32737 0.19451 0.0
H1282 H 0.49223 0.37477 0.15156 0.0
H1283 H 0.47832 0.37747 0.20871 0.0
H1284 H 0.58049 0.30957 0.14715 0.0
H1285 H 0.47489 0.29813 0.18204 0.0
H1286 H 0.52619 0.30196 0.21477 0.0
C1287 C 0.66043 0.49558 0.1885 0.0
C1288 C 0.64539 0.48398 0.19322 0.0
N1289 N 0.6352 0.48047 0.17754 0.0
N1290 N 0.65987 0.49892 0.16987 0.0
C1291 C 0.64424 0.48972 0.16378 0.0
H1292 H 0.67088 0.50139 0.19807 0.0
Co1293 Co 0.67438 0.51443 0.15408 0.0
C1294 C 0.67733 0.47587 0.13578 0.0
O1295 O 0.67168 0.46615 0.15039 0.0
N1296 N 0.68832 0.52962 0.13754 0.0
C1297 C 0.70739 0.53695 0.11398 0.0
C1298 C 0.70432 0.525 0.12883 0.0
C1299 C 0.68236 0.5448 0.1282 0.0
N1300 N 0.69345 0.54929 0.11362 0.0
O1301 O 0.65156 0.52181 0.1416 0.0
H1302 H 0.71235 0.51277 0.13209 0.0
H1303 H 0.66917 0.55142 0.13077 0.0
O1304 O 0.67852 0.49373 0.13652 0.0
C1305 C 0.64512 0.53368 0.15318 0.0
O1306 O 0.65504 0.5375 0.1684 0.0
N1307 N 0.6962 0.50991 0.16827 0.0
C1308 C 0.72288 0.51093 0.19729 0.0
C1309 C 0.71699 0.49378 0.18918 0.0
C1310 C 0.70359 0.49357 0.17451 0.0
C1311 C 0.70252 0.52656 0.17544 0.0
C1312 C 0.71615 0.52741 0.1894 0.0
H1313 H 0.69827 0.48034 0.16929 0.0
H1314 H 0.69621 0.53942 0.17097 0.0
H1315 H 0.63985 0.48938 0.14922 0.0
H1316 H 0.64206 0.47881 0.20709 0.0
H1317 H 0.71828 0.53591 0.10357 0.0
H1318 H 0.72179 0.48068 0.19483 0.0
H1319 H 0.72062 0.54102 0.19463 0.0
C1320 C 0.52783 0.36224 0.80937 0.0
C1321 C 0.54117 0.37637 0.80714 0.0
N1322 N 0.5443 0.38454 0.82394 0.0
N1323 N 0.52264 0.36147 0.82753 0.0
C1324 C 0.53281 0.37533 0.83591 0.0
H1325 H 0.52211 0.35344 0.79831 0.0
Co1326 Co 0.50432 0.34692 0.84002 0.0
C1327 C 0.52483 0.33422 0.875 0.0
O1328 O 0.5134 0.32005 0.87872 0.0
N1329 N 0.48567 0.33273 0.85307 0.0
C1330 C 0.46454 0.31096 0.86158 0.0
C1331 C 0.47875 0.31534 0.84936 0.0
C1332 C 0.47539 0.33844 0.86788 0.0
N1333 N 0.46233 0.32555 0.87318 0.0
O1334 O 0.49505 0.36921 0.85074 0.0
H1335 H 0.48341 0.3062 0.8384 0.0
H1336 H 0.47705 0.352 0.87446 0.0
O1337 O 0.52204 0.34437 0.86058 0.0
C1338 C 0.48465 0.37707 0.83864 0.0
O1339 O 0.48255 0.36917 0.82209 0.0
N1340 N 0.51227 0.32547 0.82755 0.0
C1341 C 0.51646 0.29406 0.80481 0.0
C1342 C 0.5272 0.29638 0.82135 0.0
C1343 C 0.52503 0.31238 0.83251 0.0
C1344 C 0.50214 0.32358 0.81135 0.0
C1345 C 0.50399 0.30808 0.79983 0.0
H1346 H 0.53338 0.31397 0.84511 0.0
H1347 H 0.49203 0.33404 0.80769 0.0
H1348 H 0.53115 0.37915 0.85045 0.0
H1349 H 0.54798 0.38032 0.79417 0.0
H1350 H 0.4564 0.298 0.86183 0.0
H1351 H 0.53714 0.28596 0.8256 0.0
H1352 H 0.49519 0.30682 0.78742 0.0
C1353 C 0.68953 0.49832 0.85727 0.0
C1354 C 0.69242 0.48498 0.87099 0.0
N1355 N 0.6763 0.48234 0.8806 0.0
N1356 N 0.67165 0.50393 0.85822 0.0
C1357 C 0.66415 0.49413 0.8726 0.0
H1358 H 0.6997 0.50337 0.84718 0.0
Co1359 Co 0.65747 0.52076 0.84446 0.0
C1360 C 0.62563 0.49687 0.83101 0.0
O1361 O 0.6263 0.50498 0.81448 0.0
N1362 N 0.64193 0.53761 0.83135 0.0
C1363 C 0.62771 0.55823 0.813 0.0
C1364 C 0.64334 0.54749 0.81522 0.0
C1365 C 0.62517 0.54253 0.83839 0.0
N1366 N 0.6163 0.55512 0.82768 0.0
O1367 O 0.64952 0.5313 0.86765 0.0
H1368 H 0.65481 0.54726 0.80548 0.0
H1369 H 0.6197 0.53717 0.85148 0.0
O1370 O 0.63705 0.50214 0.84397 0.0
C1371 C 0.66172 0.54426 0.87089 0.0
O1372 O 0.67497 0.54717 0.85843 0.0
N1373 N 0.668 0.51203 0.82221 0.0
C1374 C 0.69353 0.50298 0.79446 0.0
C1375 C 0.68097 0.4893 0.80147 0.0
C1376 C 0.66816 0.49415 0.81545 0.0
C1377 C 0.68055 0.52513 0.81578 0.0
C1378 C 0.69292 0.52112 0.8015 0.0
H1379 H 0.65957 0.48328 0.82181 0.0
H1380 H 0.68154 0.53869 0.82244 0.0
H1381 H 0.6499 0.4959 0.87722 0.0
H1382 H 0.7053 0.47764 0.87342 0.0
H1383 H 0.62505 0.56764 0.80145 0.0
H1384 H 0.68178 0.4749 0.79695 0.0
H1385 H 0.70304 0.53176 0.79709 0.0
C1386 C 0.47341 0.65344 0.81588 0.0
C1387 C 0.45931 0.64151 0.80963 0.0
N1388 N 0.45052 0.634 0.82465 0.0
N1389 N 0.47351 0.65358 0.83475 0.0
C1390 C 0.45952 0.64152 0.83972 0.0
H1391 H 0.48311 0.6614 0.80723 0.0
Co1392 Co 0.49044 0.6671 0.84978 0.0
C1393 C 0.46715 0.67866 0.88166 0.0
O1394 O 0.47358 0.69591 0.88002 0.0
N1395 N 0.50818 0.68068 0.86548 0.0
C1396 C 0.52609 0.70251 0.87986 0.0
C1397 C 0.51157 0.69932 0.86738 0.0
C1398 C 0.52083 0.67304 0.87739 0.0
N1399 N 0.532 0.68592 0.88608 0.0
O1400 O 0.50119 0.64407 0.85723 0.0
H1401 H 0.50392 0.71022 0.86049 0.0
H1402 H 0.5218 0.65824 0.87997 0.0
O1403 O 0.47269 0.66606 0.87044 0.0
C1404 C 0.514 0.64165 0.84513 0.0
O1405 O 0.51618 0.65429 0.83189 0.0
N1406 N 0.48102 0.68913 0.83972 0.0
C1407 C 0.47059 0.71729 0.81488 0.0
C1408 C 0.45729 0.70886 0.82689 0.0
C1409 C 0.46277 0.69454 0.83911 0.0
C1410 C 0.49392 0.69705 0.828 0.0
C1411 C 0.4892 0.71148 0.81601 0.0
H1412 H 0.45218 0.6871 0.84713 0.0
H1413 H 0.50802 0.69182 0.82774 0.0
H1414 H 0.456 0.63833 0.85411 0.0
H1415 H 0.45611 0.63832 0.7951 0.0
H1416 H 0.53199 0.71604 0.88378 0.0
H1417 H 0.44267 0.71258 0.82618 0.0
H1418 H 0.50009 0.71767 0.80733 0.0
C1419 C 0.31275 0.50521 0.88241 0.0
C1420 C 0.30824 0.51599 0.89766 0.0
N1421 N 0.3215 0.52958 0.89958 0.0
N1422 N 0.32884 0.51198 0.87494 0.0
C1423 C 0.33374 0.52691 0.88561 0.0
H1424 H 0.30587 0.4922 0.87827 0.0
Co1425 Co 0.34479 0.49858 0.86011 0.0
C1426 C 0.36485 0.52617 0.83675 0.0
O1427 O 0.36201 0.51489 0.82242 0.0
N1428 N 0.36178 0.48445 0.84548 0.0
C1429 C 0.37549 0.46464 0.82605 0.0
C1430 C 0.35937 0.47407 0.82972 0.0
C1431 C 0.3798 0.48143 0.8506 0.0
N1432 N 0.38825 0.4691 0.8394 0.0
O1433 O 0.36023 0.49552 0.88188 0.0
H1434 H 0.34675 0.47288 0.82135 0.0
H1435 H 0.38661 0.48777 0.86269 0.0
O1436 O 0.35848 0.52168 0.8529 0.0
C1437 C 0.35677 0.47912 0.88811 0.0
O1438 O 0.34574 0.46781 0.87826 0.0
N1439 N 0.32748 0.49989 0.84025 0.0
C1440 C 0.29841 0.49559 0.81389 0.0
C1441 C 0.30729 0.51316 0.8169 0.0
C1442 C 0.32162 0.5151 0.83045 0.0
C1443 C 0.31798 0.48324 0.83859 0.0
C1444 C 0.30395 0.48059 0.82515 0.0
H1445 H 0.32765 0.52881 0.83325 0.0
H1446 H 0.32187 0.47165 0.84743 0.0
H1447 H 0.34717 0.53425 0.88466 0.0
H1448 H 0.29693 0.51324 0.90741 0.0
H1449 H 0.37726 0.45447 0.81501 0.0
H1450 H 0.30296 0.52538 0.80921 0.0
H1451 H 0.29775 0.46673 0.82353 0.0
C1452 C 0.69729 0.66087 0.98406 0.0
C1453 C 0.70031 0.64584 0.9723 0.0
N1454 N 0.68381 0.63651 0.96979 0.0
N1455 N 0.67894 0.66102 0.98853 0.0
C1456 C 0.67124 0.64608 0.9796 0.0
H1457 H 0.70778 0.67087 0.98909 0.0
Co1458 Co 0.66458 0.67573 0.00399 0.0
C1459 C 0.63429 0.68868 0.97886 0.0
O1460 O 0.63571 0.70548 0.98625 0.0
N1461 N 0.64891 0.68976 0.01973 0.0
C1462 C 0.63581 0.7058 0.04278 0.0
C1463 C 0.65161 0.70409 0.0319 0.0
C1464 C 0.63128 0.6834 0.02332 0.0
N1465 N 0.62315 0.69251 0.03749 0.0
O1466 O 0.6544 0.65319 0.0147 0.0
H1467 H 0.6645 0.71208 0.03387 0.0
H1468 H 0.62485 0.67151 0.01621 0.0
O1469 O 0.64514 0.67586 0.98454 0.0
C1470 C 0.66059 0.65042 0.03124 0.0
O1471 O 0.67084 0.66362 0.03944 0.0
N1472 N 0.67685 0.69725 0.99476 0.0
C1473 C 0.70364 0.72455 0.98491 0.0
C1474 C 0.69119 0.71703 0.97135 0.0
C1475 C 0.67784 0.70325 0.97657 0.0
C1476 C 0.68935 0.70396 0.00778 0.0
C1477 C 0.70245 0.71794 0.00333 0.0
H1478 H 0.66921 0.69666 0.96582 0.0
H1479 H 0.68981 0.69767 0.02155 0.0
H1480 H 0.65648 0.64225 0.98028 0.0
H1481 H 0.71357 0.64189 0.96638 0.0
H1482 H 0.63436 0.71515 0.05458 0.0
H1483 H 0.69213 0.72138 0.95683 0.0
H1484 H 0.71233 0.72276 0.01401 0.0
C1485 C 0.71117 0.37103 0.00973 0.0
C1486 C 0.71737 0.38412 0.02274 0.0
N1487 N 0.70243 0.38983 0.03249 0.0
N1488 N 0.69241 0.36866 0.01124 0.0
C1489 C 0.68755 0.38027 0.02524 0.0
H1490 H 0.71964 0.36422 0.99936 0.0
Co1491 Co 0.67575 0.35525 0.99561 0.0
C1492 C 0.6508 0.33822 0.02506 0.0
O1493 O 0.6536 0.32109 0.01937 0.0
N1494 N 0.65807 0.34186 0.97984 0.0
C1495 C 0.63988 0.31981 0.96618 0.0
C1496 C 0.65436 0.32323 0.97863 0.0
C1497 C 0.64549 0.34932 0.96776 0.0
N1498 N 0.63429 0.33627 0.95935 0.0
O1499 O 0.66456 0.37837 0.98877 0.0
H1500 H 0.66159 0.31253 0.98631 0.0
H1501 H 0.64412 0.36411 0.96539 0.0
O1502 O 0.65877 0.35203 0.01674 0.0
C1503 C 0.67547 0.38558 0.97646 0.0
O1504 O 0.69049 0.37641 0.97179 0.0
N1505 N 0.68902 0.33349 1.00039 0.0
C1506 C 0.71448 0.30436 0.00074 0.0
C1507 C 0.70706 0.31119 0.01761 0.0
C1508 C 0.69442 0.32599 0.01715 0.0
C1509 C 0.69665 0.32747 0.9841 0.0
C1510 C 0.7087 0.31258 0.98387 0.0
H1511 H 0.68956 0.33186 0.03016 0.0
H1512 H 0.69325 0.33435 0.97104 0.0
H1513 H 0.6732 0.38255 0.02932 0.0
H1514 H 0.73164 0.38932 0.02463 0.0
H1515 H 0.63405 0.30622 0.96235 0.0
H1516 H 0.71146 0.30567 0.03104 0.0
H1517 H 0.71357 0.30777 0.97041 0.0
C1518 C 0.30439 0.63933 0.04073 0.0
C1519 C 0.30304 0.62613 0.05487 0.0
N1520 N 0.3203 0.61947 0.05814 0.0
N1521 N 0.32243 0.64092 0.03524 0.0
C1522 C 0.33161 0.62849 0.0459 0.0
H1523 H 0.29302 0.6473 0.03494 0.0
Co1524 Co 0.33403 0.65575 0.01709 0.0
C1525 C 0.36794 0.67151 0.03669 0.0
O1526 O 0.36626 0.68764 0.0281 0.0
N1527 N 0.34661 0.67032 0.99842 0.0
C1528 C 0.35555 0.68974 0.97548 0.0
C1529 C 0.34241 0.68625 0.9892 0.0
C1530 C 0.36255 0.66472 0.99013 0.0
N1531 N 0.36805 0.67599 0.97598 0.0
O1532 O 0.34314 0.63341 0.00591 0.0
H1533 H 0.33039 0.69473 0.99163 0.0
H1534 H 0.36992 0.6523 0.99418 0.0
O1535 O 0.35616 0.65817 0.0333 0.0
C1536 C 0.33464 0.62951 0.99056 0.0
O1537 O 0.32213 0.64109 0.98405 0.0
N1538 N 0.3229 0.67685 0.02737 0.0
C1539 C 0.29987 0.70513 0.03967 0.0
C1540 C 0.31441 0.69879 0.0512 0.0
C1541 C 0.32576 0.68439 0.04482 0.0
C1542 C 0.30801 0.6821 0.01669 0.0
C1543 C 0.29665 0.69657 0.0223 0.0
H1544 H 0.33624 0.67892 0.0542 0.0
H1545 H 0.30497 0.67493 0.00362 0.0
H1546 H 0.34639 0.62582 0.04443 0.0
H1547 H 0.29045 0.62202 0.06235 0.0
H1548 H 0.35538 0.701 0.96534 0.0
H1549 H 0.3168 0.70474 0.065 0.0
H1550 H 0.28514 0.70075 0.01333 0.0
C1551 C 0.33332 0.37304 0.00886 0.0
C1552 C 0.33028 0.38968 0.99967 0.0
N1553 N 0.34553 0.39384 0.9893 0.0
N1554 N 0.35039 0.36687 0.00423 0.0
C1555 C 0.35745 0.37982 0.99231 0.0
H1556 H 0.32415 0.36637 0.019 0.0
Co1557 Co 0.3635 0.34808 0.01587 0.0
C1558 C 0.38798 0.33282 0.98691 0.0
O1559 O 0.38393 0.31622 0.99379 0.0
N1560 N 0.37766 0.32934 0.02851 0.0
C1561 C 0.38895 0.30415 0.04285 0.0
C1562 C 0.37402 0.31119 0.03298 0.0
C1563 C 0.39504 0.33274 0.03584 0.0
N1564 N 0.40202 0.31785 0.04478 0.0
O1565 O 0.37769 0.36723 0.02862 0.0
H1566 H 0.36158 0.30315 0.02923 0.0
H1567 H 0.40271 0.34589 0.03455 0.0
O1568 O 0.38113 0.34733 0.99453 0.0
C1569 C 0.37025 0.36834 0.04478 0.0
O1570 O 0.35715 0.35593 0.0493 0.0
N1571 N 0.34702 0.33036 0.0046 0.0
C1572 C 0.31683 0.30844 0.99137 0.0
C1573 C 0.32874 0.31783 0.97879 0.0
C1574 C 0.34371 0.32893 0.98572 0.0
C1575 C 0.3347 0.32234 0.0169 0.0
C1576 C 0.31991 0.31079 0.01063 0.0
H1577 H 0.35195 0.33712 0.97593 0.0
H1578 H 0.33628 0.32509 0.03175 0.0
H1579 H 0.3716 0.37973 0.98693 0.0
H1580 H 0.31804 0.39825 0.00084 0.0
H1581 H 0.38999 0.29015 0.04847 0.0
H1582 H 0.32629 0.31687 0.9638 0.0
H1583 H 0.31053 0.30433 0.02074 0.0
H1584 H 0.00575 0.29206 0.29059 0.0
H1585 H 0.00795 0.25582 0.33926 0.0
H1586 H 0.00749 0.2281 0.31834 0.0
H1587 H 0.97458 0.26331 0.26263 0.0
H1588 H 0.98639 0.26874 0.24097 0.0
H1589 H 0.98678 0.28549 0.25983 0.0
H1590 H 0.02316 0.28668 0.25935 0.0
H1591 H 0.02288 0.27006 0.24039 0.0
H1592 H 0.03582 0.26528 0.26161 0.0
H1593 H 0.00605 0.20434 0.29158 0.0
H1594 H 0.00679 0.18691 0.26153 0.0
H1595 H 0.0058 0.23928 0.231 0.0
C1596 C 0.00603 0.27828 0.29687 0.0
C1597 C 0.00672 0.27601 0.31652 0.0
C1598 C 0.00747 0.2578 0.3242 0.0
C1599 C 0.00709 0.24202 0.31245 0.0
C1600 C 0.00609 0.24477 0.29308 0.0
C1601 C 0.00578 0.26248 0.28539 0.0
C1602 C 0.00527 0.26183 0.2642 0.0
C1603 C 0.98718 0.27034 0.25646 0.0
C1604 C 0.02283 0.27153 0.25591 0.0
C1605 C 0.00536 0.24095 0.2611 0.0
C1606 C 0.00566 0.23128 0.27787 0.0
C1607 C 0.00584 0.21179 0.27838 0.0
C1608 C 0.00613 0.20201 0.26128 0.0
C1609 C 0.00643 0.21178 0.24401 0.0
C1610 C 0.00574 0.23146 0.24402 0.0
H1611 H 0.80294 0.01512 0.25922 0.0
H1612 H 0.77403 0.00971 0.20561 0.0
H1613 H 0.74404 0.00405 0.22216 0.0
H1614 H 0.77781 0.97819 0.28201 0.0
H1615 H 0.77757 0.98982 0.30443 0.0
H1616 H 0.79641 0.99459 0.28832 0.0
H1617 H 0.78956 0.02998 0.2895 0.0
H1618 H 0.77082 0.02535 0.30576 0.0
H1619 H 0.76622 0.03775 0.28427 0.0
H1620 H 0.71717 0.99789 0.24514 0.0
H1621 H 0.69591 0.99382 0.27223 0.0
H1622 H 0.74346 0.0013 0.31013 0.0
C1623 C 0.79035 0.01273 0.25088 0.0
C1624 C 0.79091 0.01282 0.23107 0.0
C1625 C 0.77396 0.00996 0.22079 0.0
C1626 C 0.75688 0.00655 0.23007 0.0
C1627 C 0.75699 0.00603 0.24963 0.0
C1628 C 0.7733 0.00916 0.25987 0.0
C1629 C 0.76987 0.0076 0.28071 0.0
C1630 C 0.78108 0.99159 0.28937 0.0
C1631 C 0.77438 0.02628 0.29064 0.0
C1632 C 0.74905 0.0031 0.28067 0.0
C1633 C 0.74179 0.00223 0.26266 0.0
C1634 C 0.72274 0.99851 0.25929 0.0
C1635 C 0.7108 0.99605 0.27476 0.0
C1636 C 0.71796 0.99733 0.29334 0.0
C1637 C 0.73743 0.00051 0.29615 0.0
H1638 H 0.00367 0.74106 0.30537 0.0
H1639 H 0.9585 0.70648 0.28225 0.0
H1640 H 0.95556 0.7284 0.25543 0.0
H1641 H 0.98405 0.78669 0.29076 0.0
H1642 H 0.00705 0.79653 0.28605 0.0
H1643 H 0.00409 0.77906 0.30405 0.0
H1644 H 0.02894 0.75885 0.28789 0.0
H1645 H 0.03179 0.77609 0.26971 0.0
H1646 H 0.02564 0.75225 0.26366 0.0
H1647 H 0.96075 0.75209 0.22915 0.0
H1648 H 0.97153 0.77667 0.20719 0.0
H1649 H 0.01138 0.79716 0.24931 0.0
C1650 C 0.99283 0.73845 0.29489 0.0
C1651 C 0.98114 0.72231 0.29584 0.0
C1652 C 0.96734 0.719 0.2818 0.0
C1653 C 0.96566 0.73131 0.26653 0.0
C1654 C 0.97771 0.74696 0.26575 0.0
C1655 C 0.99078 0.75073 0.27979 0.0
C1656 C 0.0025 0.76807 0.27539 0.0
C1657 C 0.99922 0.7835 0.28992 0.0
C1658 C 0.02345 0.76353 0.27408 0.0
C1659 C 0.99445 0.77315 0.25641 0.0
C1660 C 0.98019 0.76085 0.25103 0.0
C1661 C 0.97162 0.76205 0.23343 0.0
C1662 C 0.97781 0.77617 0.22104 0.0
C1663 C 0.99239 0.78905 0.22631 0.0
C1664 C 1.00048 0.78752 0.24446 0.0
H1665 H 0.3155 0.00619 0.27009 0.0
H1666 H 0.28373 0.96842 0.3063 0.0
H1667 H 0.25936 0.96491 0.28196 0.0
H1668 H 0.27453 0.02981 0.25213 0.0
H1669 H 0.28407 0.03288 0.22897 0.0
H1670 H 0.29957 0.0319 0.249 0.0
H1671 H 0.31716 0.00478 0.23343 0.0
H1672 H 0.30154 0.00551 0.21346 0.0
H1673 H 0.30421 0.984 0.22625 0.0
H1674 H 0.2387 0.96465 0.25369 0.0
H1675 H 0.22088 0.97105 0.22469 0.0
H1676 H 0.26459 0.01044 0.20725 0.0
C1677 C 0.30336 0.99732 0.27301 0.0
C1678 C 0.30189 0.98722 0.29004 0.0
C1679 C 0.28564 0.97581 0.29319 0.0
C1680 C 0.2716 0.97378 0.27946 0.0
C1681 C 0.27374 0.98349 0.26271 0.0
C1682 C 0.28899 0.99532 0.25952 0.0
C1683 C 0.28731 0.00478 0.24055 0.0
C1684 C 0.28631 0.02611 0.2428 0.0
C1685 C 0.30352 0.99944 0.22767 0.0
C1686 C 0.26876 0.99638 0.23365 0.0
C1687 C 0.26133 0.98394 0.24658 0.0
C1688 C 0.24435 0.97437 0.24344 0.0
C1689 C 0.23441 0.97795 0.22685 0.0
C1690 C 0.24139 0.99114 0.21367 0.0
C1691 C 0.25893 0.00028 0.21707 0.0
H1692 H 0.00249 0.77054 0.80941 0.0
H1693 H 0.03648 0.81609 0.78669 0.0
H1694 H 0.0371 0.80005 0.75605 0.0
H1695 H 0.02664 0.7331 0.78329 0.0
H1696 H 0.00529 0.7194 0.78014 0.0
H1697 H 0.00832 0.73407 0.80053 0.0
H1698 H 0.97731 0.7504 0.79221 0.0
H1699 H 0.97442 0.7361 0.77155 0.0
H1700 H 0.97469 0.76122 0.76953 0.0
H1701 H 0.03024 0.7818 0.72735 0.0
H1702 H 0.02305 0.75851 0.70299 0.0
H1703 H 0.99659 0.72223 0.74448 0.0
C1704 C 0.01048 0.77679 0.79807 0.0
C1705 C 0.01963 0.79441 0.80032 0.0
C1706 C 0.02971 0.80244 0.78523 0.0
C1707 C 0.02994 0.79354 0.76777 0.0
C1708 C 0.0203 0.77649 0.7658 0.0
C1709 C 0.01126 0.76784 0.78062 0.0
C1710 C 0.00232 0.74928 0.7746 0.0
C1711 C 0.01118 0.733 0.78527 0.0
C1712 C 0.98091 0.74926 0.77713 0.0
C1713 C 0.00747 0.74907 0.75399 0.0
C1714 C 0.01753 0.76512 0.74926 0.0
C1715 C 0.02294 0.76888 0.73097 0.0
C1716 C 0.01882 0.75547 0.71724 0.0
C1717 C 0.00988 0.73814 0.72188 0.0
C1718 C 0.00362 0.73519 0.74047 0.0
H1719 H 0.26955 0.02695 0.71423 0.0
H1720 H 0.30252 0.98226 0.73806 0.0
H1721 H 0.27663 0.97368 0.75878 0.0
H1722 H 0.25132 0.04058 0.75967 0.0
H1723 H 0.22882 0.04707 0.75033 0.0
H1724 H 0.24939 0.04887 0.73587 0.0
H1725 H 0.23276 0.0279 0.71088 0.0
H1726 H 0.21227 0.02575 0.72544 0.0
H1727 H 0.22377 0.00509 0.71747 0.0
H1728 H 0.24703 0.96864 0.7762 0.0
H1729 H 0.21798 0.97207 0.79446 0.0
H1730 H 0.20543 0.02231 0.76329 0.0
C1731 C 0.27143 0.01543 0.72384 0.0
C1732 C 0.28795 0.00477 0.72363 0.0
C1733 C 0.28975 0.99006 0.7369 0.0
C1734 C 0.27512 0.98509 0.74897 0.0
C1735 C 0.25884 0.99532 0.74824 0.0
C1736 C 0.25709 0.01058 0.73653 0.0
C1737 C 0.23869 0.02022 0.74003 0.0
C1738 C 0.24227 0.04038 0.74689 0.0
C1739 C 0.22613 0.0197 0.7224 0.0
C1740 C 0.23049 0.00792 0.75546 0.0
C1741 C 0.2422 0.99337 0.7596 0.0
C1742 C 0.23774 0.98001 0.77318 0.0
C1743 C 0.22116 0.98194 0.78334 0.0
C1744 C 0.20948 0.99729 0.78009 0.0
C1745 C 0.21407 0.01031 0.76581 0.0
H1746 H 0.0009 0.27413 0.72217 0.0
H1747 H 0.95638 0.31134 0.73695 0.0
H1748 H 0.94872 0.29151 0.76455 0.0
H1749 H 0.97587 0.23032 0.73681 0.0
H1750 H 0.99727 0.2201 0.74508 0.0
H1751 H 0.99788 0.23641 0.72583 0.0
H1752 H 0.02248 0.2569 0.74389 0.0
H1753 H 0.0218 0.24079 0.76325 0.0
H1754 H 0.01711 0.26512 0.76709 0.0
H1755 H 0.94907 0.26956 0.79292 0.0
H1756 H 0.95572 0.2465 0.81779 0.0
H1757 H 0.99772 0.222 0.78213 0.0
C1758 C 0.98926 0.2778 0.73101 0.0
C1759 C 0.97912 0.29411 0.72748 0.0
C1760 C 0.96411 0.29871 0.73938 0.0
C1761 C 0.95974 0.28758 0.75508 0.0
C1762 C 0.97028 0.27172 0.75842 0.0
C1763 C 0.98448 0.26665 0.74646 0.0
C1764 C 0.99408 0.2493 0.75335 0.0
C1765 C 0.99109 0.23307 0.73944 0.0
C1766 C 0.01511 0.25328 0.75712 0.0
C1767 C 0.98355 0.24575 0.77139 0.0
C1768 C 0.96989 0.25878 0.77417 0.0
C1769 C 0.95947 0.25905 0.79067 0.0
C1770 C 0.9633 0.2458 0.80473 0.0
C1771 C 0.97737 0.23237 0.80218 0.0
C1772 C 0.98715 0.2322 0.78495 0.0
H1773 H 0.79785 0.02892 0.78167 0.0
H1774 H 0.76473 0.99635 0.8214 0.0
H1775 H 0.74069 0.99037 0.79717 0.0
H1776 H 0.75689 0.05038 0.75895 0.0
H1777 H 0.76728 0.05018 0.73599 0.0
H1778 H 0.78203 0.05217 0.75656 0.0
H1779 H 0.80027 0.02328 0.74575 0.0
H1780 H 0.78537 0.02101 0.7253 0.0
H1781 H 0.78765 0.00159 0.74119 0.0
H1782 H 0.72141 0.98559 0.76848 0.0
H1783 H 0.70511 0.98674 0.73783 0.0
H1784 H 0.74879 0.02424 0.71673 0.0
C1785 C 0.7854 0.02081 0.78533 0.0
C1786 C 0.78348 0.0127 0.80335 0.0
C1787 C 0.76688 0.00222 0.80756 0.0
C1788 C 0.75305 0.99878 0.79391 0.0
C1789 C 0.75572 0.00625 0.77613 0.0
C1790 C 0.77119 0.01743 0.77186 0.0
C1791 C 0.77017 0.02407 0.75164 0.0
C1792 C 0.76902 0.04547 0.75074 0.0
C1793 C 0.78686 0.01706 0.74031 0.0
C1794 C 0.75187 0.01464 0.74529 0.0
C1795 C 0.74395 0.00425 0.75962 0.0
C1796 C 0.72736 0.99381 0.75715 0.0
C1797 C 0.71831 0.99438 0.73966 0.0
C1798 C 0.72574 0.00549 0.72495 0.0
C1799 C 0.74283 0.01563 0.72778 0.0
H1800 H 0.24913 0.21923 0.99223 0.0
H1801 H 0.20537 0.25398 0.96931 0.0
H1802 H 0.22888 0.27944 0.9644 0.0
H1803 H 0.27003 0.25459 0.01941 0.0
H1804 H 0.29361 0.24654 0.01659 0.0
H1805 H 0.2741 0.23019 0.01521 0.0
H1806 H 0.28494 0.21965 0.98233 0.0
H1807 H 0.30451 0.23604 0.98359 0.0
H1808 H 0.28831 0.23681 0.96408 0.0
H1809 H 0.2571 0.30213 0.96444 0.0
H1810 H 0.28645 0.32027 0.97148 0.0
H1811 H 0.31022 0.27135 0.99724 0.0
C1812 C 0.24432 0.23215 0.98618 0.0
C1813 C 0.22523 0.23451 0.98128 0.0
C1814 C 0.21989 0.25161 0.97297 0.0
C1815 C 0.23316 0.26622 0.97019 0.0
C1816 C 0.25171 0.26354 0.97581 0.0
C1817 C 0.25721 0.24691 0.98371 0.0
C1818 C 0.27742 0.24802 0.99036 0.0
C1819 C 0.27886 0.24464 0.01165 0.0
C1820 C 0.28951 0.23432 0.97943 0.0
C1821 C 0.2824 0.26805 0.9854 0.0
C1822 C 0.26756 0.2767 0.97661 0.0
C1823 C 0.26881 0.29542 0.97117 0.0
C1824 C 0.2855 0.3056 0.97515 0.0
C1825 C 0.30048 0.29709 0.98477 0.0
C1826 C 0.29896 0.27806 0.98973 0.0
H1827 H 0.24516 0.79773 0.0211 0.0
H1828 H 0.20171 0.77588 0.05804 0.0
H1829 H 0.22273 0.7507 0.06791 0.0
H1830 H 0.25766 0.75433 0.00392 0.0
H1831 H 0.28224 0.76035 0.00171 0.0
H1832 H 0.26509 0.77829 1.00017 0.0
H1833 H 0.2821 0.79648 0.02706 0.0
H1834 H 0.29928 0.77846 0.02877 0.0
H1835 H 0.28621 0.78501 0.04918 0.0
H1836 H 0.24756 0.726 0.0714 0.0
H1837 H 0.27264 0.70312 0.06626 0.0
H1838 H 0.29821 0.74007 0.02523 0.0
C1839 C 0.23992 0.78773 0.03129 0.0
C1840 C 0.22163 0.78888 0.03871 0.0
C1841 C 0.21571 0.77557 0.0523 0.0
C1842 C 0.22756 0.76115 0.05798 0.0
C1843 C 0.2453 0.7602 0.04995 0.0
C1844 C 0.25138 0.77313 0.03682 0.0
C1845 C 0.27015 0.76805 0.02874 0.0
C1846 C 0.26868 0.76507 0.00738 0.0
C1847 C 0.28533 0.78289 0.03374 0.0
C1848 C 0.27348 0.74991 0.03896 0.0
C1849 C 0.25924 0.74579 0.05148 0.0
C1850 C 0.25889 0.72923 0.06183 0.0
C1851 C 0.27318 0.71637 0.05892 0.0
C1852 C 0.28736 0.7201 0.0456 0.0
C1853 C 0.28767 0.73717 0.03577 0.0
H1854 H 0.76599 0.20995 0.03091 0.0
H1855 H 0.79968 0.21723 0.98094 0.0
H1856 H 0.7825 0.24574 0.973 0.0
H1857 H 0.72183 0.22623 0.00911 0.0
H1858 H 0.71434 0.23746 0.03031 0.0
H1859 H 0.72874 0.21715 0.03165 0.0
H1860 H 0.7529 0.23584 0.05202 0.0
H1861 H 0.73875 0.2563 0.05046 0.0
H1862 H 0.76291 0.25744 0.04318 0.0
H1863 H 0.76501 0.27512 0.97274 0.0
H1864 H 0.74382 0.30122 0.97634 0.0
H1865 H 0.7182 0.27371 0.02449 0.0
C1866 C 0.7694 0.21739 0.01811 0.0
C1867 C 0.78401 0.2114 0.00641 0.0
C1868 C 0.78831 0.22147 0.98987 0.0
C1869 C 0.77877 0.23775 0.98536 0.0
C1870 C 0.76475 0.24355 0.99738 0.0
C1871 C 0.75968 0.23348 0.01315 0.0
C1872 C 0.74387 0.24283 0.02346 0.0
C1873 C 0.72614 0.23017 0.02364 0.0
C1874 C 0.74999 0.24843 0.04346 0.0
C1875 C 0.74116 0.25991 0.0112 0.0
C1876 C 0.75358 0.26008 0.99643 0.0
C1877 C 0.75477 0.27486 0.98386 0.0
C1878 C 0.74248 0.2896 0.98599 0.0
C1879 C 0.72867 0.28934 1.00026 0.0
C1880 C 0.72835 0.27437 0.01329 0.0
H1881 H 0.71215 0.75785 0.00174 0.0
H1882 H 0.73061 0.72053 0.95818 0.0
H1883 H 0.76005 0.73944 0.95504 0.0
H1884 H 0.73381 0.80174 0.98169 0.0
H1885 H 0.73958 0.81055 0.00476 0.0
H1886 H 0.71907 0.79568 0.00131 0.0
H1887 H 0.73133 0.7732 0.02688 0.0
H1888 H 0.75199 0.78777 0.03018 0.0
H1889 H 0.75425 0.76342 0.02442 0.0
H1890 H 0.78958 0.75976 0.96053 0.0
H1891 H 0.8151 0.78083 0.97227 0.0
H1892 H 0.77604 0.80576 0.01084 0.0
C1893 C 0.72214 0.75405 0.99111 0.0
C1894 C 0.7191 0.73788 0.98007 0.0
C1895 C 0.73257 0.73308 0.96653 0.0
C1896 C 0.74936 0.74367 0.96474 0.0
C1897 C 0.75226 0.75918 0.97639 0.0
C1898 C 0.73879 0.76456 0.98903 0.0
C1899 C 0.74565 0.78099 0.00078 0.0
C1900 C 0.73383 0.79827 0.99689 0.0
C1901 C 0.74582 0.77604 0.0218 0.0
C1902 C 0.76535 0.78359 0.99333 0.0
C1903 C 0.76896 0.77099 0.97922 0.0
C1904 C 0.78675 0.76995 0.97129 0.0
C1905 C 0.80118 0.78202 0.97804 0.0
C1906 C 0.79776 0.79497 0.9926 0.0
C1907 C 0.77941 0.79588 0.99995 0.0
H1908 H 0.70001 0.51062 0.75723 0.0
H1909 H 0.72457 0.48658 0.80721 0.0
H1910 H 0.75567 0.48731 0.7922 0.0
H1911 H 0.73117 0.48485 0.72328 0.0
H1912 H 0.73215 0.50446 0.70743 0.0
H1913 H 0.7115 0.50012 0.72136 0.0
H1914 H 0.71449 0.53382 0.73439 0.0
H1915 H 0.73546 0.53811 0.72098 0.0
H1916 H 0.73591 0.54134 0.74606 0.0
H1917 H 0.78417 0.49717 0.77505 0.0
H1918 H 0.80867 0.50687 0.75317 0.0
H1919 H 0.76611 0.51979 0.71133 0.0
C1920 C 0.71183 0.50473 0.76458 0.0
C1921 C 0.70998 0.49819 0.78321 0.0
C1922 C 0.72574 0.49117 0.79277 0.0
C1923 C 0.74345 0.49175 0.78444 0.0
C1924 C 0.74502 0.49901 0.76638 0.0
C1925 C 0.7296 0.50468 0.7562 0.0
C1926 C 0.73545 0.51203 0.73705 0.0
C1927 C 0.72707 0.49962 0.72135 0.0
C1928 C 0.73 0.53254 0.73448 0.0
C1929 C 0.75662 0.51023 0.7384 0.0
C1930 C 0.76172 0.50301 0.75561 0.0
C1931 C 0.78037 0.50191 0.76115 0.0
C1932 C 0.79424 0.50738 0.74842 0.0
C1933 C 0.7896 0.51318 0.7299 0.0
C1934 C 0.77037 0.51509 0.7251 0.0
H1935 H 0.24427 0.512 0.71661 0.0
H1936 H 0.20558 0.46725 0.7326 0.0
H1937 H 0.22431 0.46195 0.76143 0.0
H1938 H 0.28733 0.48976 0.73518 0.0
H1939 H 0.29748 0.51189 0.74259 0.0
H1940 H 0.28198 0.51079 0.7225 0.0
H1941 H 0.26106 0.53549 0.73793 0.0
H1942 H 0.27624 0.53638 0.75822 0.0
H1943 H 0.25156 0.53105 0.7609 0.0
H1944 H 0.24447 0.46475 0.79032 0.0
H1945 H 0.26749 0.47173 0.81529 0.0
H1946 H 0.29489 0.51307 0.77941 0.0
C1947 C 0.24008 0.50077 0.72597 0.0
C1948 C 0.2236 0.48991 0.72242 0.0
C1949 C 0.21833 0.47547 0.73499 0.0
C1950 C 0.22879 0.47249 0.75144 0.0
C1951 C 0.2446 0.48389 0.75487 0.0
C1952 C 0.2505 0.49744 0.74229 0.0
C1953 C 0.26776 0.50804 0.74951 0.0
C1954 C 0.28464 0.50493 0.73669 0.0
C1955 C 0.26392 0.52898 0.75177 0.0
C1956 C 0.27036 0.49867 0.76837 0.0
C1957 C 0.25678 0.48489 0.77121 0.0
C1958 C 0.25552 0.47512 0.78803 0.0
C1959 C 0.26881 0.47916 0.80212 0.0
C1960 C 0.28347 0.49265 0.79929 0.0
C1961 C 0.284 0.50266 0.78217 0.0
H1962 H 0.27246 0.48935 0.22267 0.0
H1963 H 0.30216 0.54098 0.23727 0.0
H1964 H 0.28028 0.5457 0.26347 0.0
H1965 H 0.2251 0.50651 0.23368 0.0
H1966 H 0.21704 0.48418 0.24259 0.0
H1967 H 0.23452 0.48526 0.22448 0.0
H1968 H 0.25662 0.46571 0.24527 0.0
H1969 H 0.23934 0.4648 0.26356 0.0
H1970 H 0.26269 0.47381 0.26853 0.0
H1971 H 0.25836 0.54265 0.29009 0.0
H1972 H 0.23387 0.53552 0.31291 0.0
H1973 H 0.21509 0.48764 0.27953 0.0
C1974 C 0.27406 0.5018 0.23121 0.0
C1975 C 0.28889 0.5149 0.22797 0.0
C1976 C 0.29073 0.53097 0.23942 0.0
C1977 C 0.27847 0.53367 0.25439 0.0
C1978 C 0.26427 0.52032 0.25749 0.0
C1979 C 0.26166 0.50494 0.24599 0.0
C1980 C 0.24508 0.49287 0.25245 0.0
C1981 C 0.22951 0.49217 0.2374 0.0
C1982 C 0.25131 0.47313 0.25777 0.0
C1983 C 0.23907 0.50369 0.26962 0.0
C1984 C 0.25055 0.51932 0.27229 0.0
C1985 C 0.24883 0.53085 0.28779 0.0
C1986 C 0.23463 0.52671 0.30063 0.0
C1987 C 0.22177 0.51145 0.29776 0.0
C1988 C 0.22436 0.49957 0.28212 0.0
H1989 H 0.80546 0.48741 0.27102 0.0
H1990 H 0.78721 0.53528 0.30283 0.0
H1991 H 0.76266 0.54094 0.27911 0.0
H1992 H 0.79764 0.50824 0.22455 0.0
H1993 H 0.78968 0.48649 0.21412 0.0
H1994 H 0.80627 0.48641 0.23332 0.0
H1995 H 0.78397 0.46421 0.25185 0.0
H1996 H 0.7672 0.4644 0.23281 0.0
H1997 H 0.76018 0.47102 0.25606 0.0
H1998 H 0.73858 0.53982 0.25411 0.0
H1999 H 0.71848 0.53505 0.22645 0.0
H2000 H 0.75308 0.48926 0.20853 0.0
C2001 C 0.7964 0.4992 0.27282 0.0
C2002 C 0.79831 0.511 0.28872 0.0
C2003 C 0.78622 0.52627 0.29064 0.0
C2004 C 0.77212 0.52949 0.27733 0.0
C2005 C 0.7704 0.51744 0.26204 0.0
C2006 C 0.78237 0.50281 0.25946 0.0
C2007 C 0.77744 0.49218 0.24154 0.0
C2008 C 0.79373 0.49341 0.22755 0.0
C2009 C 0.77187 0.47174 0.24583 0.0
C2010 C 0.76069 0.50303 0.23461 0.0
C2011 C 0.75686 0.51739 0.24685 0.0
C2012 C 0.74171 0.52894 0.24416 0.0
C2013 C 0.73044 0.52616 0.22824 0.0
C2014 C 0.7345 0.51218 0.21481 0.0
C2015 C 0.74967 0.5002 0.21833 0.0
H2016 H 0.21291 0.75344 0.48891 0.0
H2017 H 0.2331 0.71103 0.45138 0.0
H2018 H 0.26177 0.73038 0.44556 0.0
H2019 H 0.23492 0.79553 0.46359 0.0
H2020 H 0.23991 0.80684 0.48572 0.0
H2021 H 0.21937 0.79183 0.48313 0.0
H2022 H 0.23037 0.77238 0.51165 0.0
H2023 H 0.25107 0.78698 0.51412 0.0
H2024 H 0.25321 0.7621 0.51127 0.0
H2025 H 0.29086 0.75108 0.44953 0.0
H2026 H 0.31651 0.7721 0.46119 0.0
H2027 H 0.27647 0.80142 0.49516 0.0
C2028 C 0.223 0.7487 0.47879 0.0
C2029 C 0.22081 0.73097 0.47037 0.0
C2030 C 0.23443 0.72481 0.45761 0.0
C2031 C 0.25077 0.73567 0.45432 0.0
C2032 C 0.253 0.75274 0.46365 0.0
C2033 C 0.23923 0.7594 0.4753 0.0
C2034 C 0.24577 0.77697 0.48541 0.0
C2035 C 0.23431 0.79379 0.47908 0.0
C2036 C 0.24507 0.77443 0.50687 0.0
C2037 C 0.26573 0.77857 0.47853 0.0
C2038 C 0.26965 0.76468 0.46579 0.0
C2039 C 0.28781 0.76231 0.45911 0.0
C2040 C 0.30229 0.7743 0.46581 0.0
C2041 C 0.29854 0.78832 0.47918 0.0
C2042 C 0.27989 0.79071 0.4851 0.0
H2043 H 0.30447 0.24288 0.50178 0.0
H2044 H 0.26652 0.19455 0.50188 0.0
H2045 H 0.23942 0.21523 0.50144 0.0
H2046 H 0.27579 0.27226 0.53175 0.0
H2047 H 0.28136 0.29343 0.51906 0.0
H2048 H 0.29797 0.27486 0.51992 0.0
H2049 H 0.29871 0.27432 0.48362 0.0
H2050 H 0.28189 0.2927 0.48264 0.0
H2051 H 0.27709 0.27093 0.47062 0.0
H2052 H 0.2165 0.24041 0.50011 0.0
H2053 H 0.19852 0.26945 0.5005 0.0
H2054 H 0.2504 0.30233 0.50119 0.0
C2055 C 0.29043 0.23675 0.50198 0.0
C2056 C 0.28756 0.21711 0.50175 0.0
C2057 C 0.26901 0.20954 0.50186 0.0
C2058 C 0.25353 0.22117 0.5016 0.0
C2059 C 0.25676 0.2404 0.50125 0.0
C2060 C 0.27468 0.24824 0.50164 0.0
C2061 C 0.27396 0.26946 0.50115 0.0
C2062 C 0.28279 0.27801 0.51904 0.0
C2063 C 0.28348 0.27731 0.48345 0.0
C2064 C 0.25288 0.27222 0.50046 0.0
C2065 C 0.24331 0.25518 0.50044 0.0
C2066 C 0.2238 0.25385 0.50009 0.0
C2067 C 0.21371 0.27037 0.50021 0.0
C2068 C 0.22311 0.28799 0.50063 0.0
C2069 C 0.24295 0.28897 0.50053 0.0
H2070 H 0.72051 0.77381 0.51832 0.0
H2071 H 0.73477 0.80523 0.4681 0.0
H2072 H 0.75774 0.78131 0.45978 0.0
H2073 H 0.76716 0.76134 0.52982 0.0
H2074 H 0.76039 0.7386 0.5387 0.0
H2075 H 0.74421 0.75748 0.53976 0.0
H2076 H 0.71942 0.73735 0.52158 0.0
H2077 H 0.73558 0.71844 0.52035 0.0
H2078 H 0.72536 0.72758 0.49915 0.0
H2079 H 0.78028 0.75404 0.45769 0.0
H2080 H 0.80113 0.7273 0.46301 0.0
H2081 H 0.77246 0.71483 0.51509 0.0
C2082 C 0.72852 0.77587 0.50563 0.0
C2083 C 0.72576 0.79158 0.49393 0.0
C2084 C 0.73637 0.79329 0.47723 0.0
C2085 C 0.74953 0.77977 0.47241 0.0
C2086 C 0.75195 0.76458 0.48439 0.0
C2087 C 0.74175 0.76265 0.5007 0.0
C2088 C 0.74745 0.74556 0.51168 0.0
C2089 C 0.75527 0.75108 0.53114 0.0
C2090 C 0.73097 0.73139 0.51327 0.0
C2091 C 0.76267 0.73826 0.49917 0.0
C2092 C 0.76496 0.74924 0.48336 0.0
C2093 C 0.77851 0.74532 0.46999 0.0
C2094 C 0.79022 0.73003 0.47305 0.0
C2095 C 0.78844 0.71897 0.48946 0.0
C2096 C 0.77424 0.72307 0.50246 0.0
H2097 H 0.76769 0.30084 0.50137 0.0
H2098 H 0.80939 0.27112 0.46986 0.0
H2099 H 0.78435 0.25017 0.45698 0.0
H2100 H 0.74375 0.2617 0.51642 0.0
H2101 H 0.72085 0.27185 0.51563 0.0
H2102 H 0.74134 0.28659 0.51899 0.0
H2103 H 0.7318 0.3063 0.49005 0.0
H2104 H 0.7113 0.29142 0.48651 0.0
H2105 H 0.72782 0.29495 0.46775 0.0
H2106 H 0.75535 0.22968 0.45128 0.0
H2107 H 0.72617 0.21059 0.45536 0.0
H2108 H 0.70422 0.25307 0.49173 0.0
C2109 C 0.77161 0.29006 0.49161 0.0
C2110 C 0.79057 0.2876 0.48672 0.0
C2111 C 0.79497 0.27344 0.47368 0.0
C2112 C 0.78081 0.26148 0.46628 0.0
C2113 C 0.76233 0.26395 0.47192 0.0
C2114 C 0.75776 0.27795 0.48431 0.0
C2115 C 0.73744 0.27637 0.49014 0.0
C2116 C 0.73576 0.27397 0.51155 0.0
C2117 C 0.72644 0.29327 0.48319 0.0
C2118 C 0.73141 0.25878 0.47978 0.0
C2119 C 0.74577 0.25205 0.46892 0.0
C2120 C 0.74391 0.23504 0.45941 0.0
C2121 C 0.72727 0.22434 0.46168 0.0
C2122 C 0.71296 0.23061 0.47358 0.0
C2123 C 0.71484 0.24828 0.48219 0.0
H2124 H 0.50779 0.23752 0.70888 0.0
H2125 H 0.50571 0.18617 0.7412 0.0
H2126 H 0.51002 0.20452 0.77046 0.0
H2127 H 0.54351 0.26121 0.73643 0.0
H2128 H 0.53299 0.28374 0.73411 0.0
H2129 H 0.5297 0.2665 0.7159 0.0
H2130 H 0.4936 0.2689 0.71876 0.0
H2131 H 0.49678 0.28625 0.73686 0.0
H2132 H 0.48277 0.26544 0.74129 0.0
H2133 H 0.51496 0.22906 0.79634 0.0
H2134 H 0.51748 0.25737 0.8163 0.0
H2135 H 0.517 0.29209 0.76644 0.0
C2136 C 0.50838 0.23006 0.72208 0.0
C2137 C 0.50654 0.21036 0.72271 0.0
C2138 C 0.50696 0.20125 0.74036 0.0
C2139 C 0.50957 0.21156 0.75704 0.0
C2140 C 0.51166 0.23096 0.75583 0.0
C2141 C 0.51095 0.24009 0.73877 0.0
C2142 C 0.51313 0.26104 0.74116 0.0
C2143 C 0.53089 0.26856 0.73132 0.0
C2144 C 0.49552 0.27099 0.7341 0.0
C2145 C 0.51512 0.26236 0.76226 0.0
C2146 C 0.51437 0.2449 0.77053 0.0
C2147 C 0.51561 0.24278 0.78997 0.0
C2148 C 0.5172 0.25893 0.8012 0.0
C2149 C 0.51741 0.27696 0.79297 0.0
C2150 C 0.51673 0.27853 0.7732 0.0
H2151 H 0.49059 0.77686 0.7236 0.0
H2152 H 0.45081 0.81711 0.74313 0.0
H2153 H 0.44115 0.79541 0.76865 0.0
H2154 H 0.46135 0.73418 0.73502 0.0
H2155 H 0.48182 0.72138 0.74172 0.0
H2156 H 0.48351 0.73909 0.72379 0.0
H2157 H 0.51038 0.75573 0.74254 0.0
H2158 H 0.50866 0.73824 0.76057 0.0
H2159 H 0.50643 0.76256 0.7665 0.0
H2160 H 0.43974 0.7711 0.79485 0.0
H2161 H 0.44538 0.7459 0.8179 0.0
H2162 H 0.48417 0.72079 0.77924 0.0
C2163 C 0.47947 0.78082 0.73297 0.0
C2164 C 0.47131 0.79848 0.73146 0.0
C2165 C 0.457 0.80346 0.74402 0.0
C2166 C 0.45149 0.79126 0.75853 0.0
C2167 C 0.46019 0.77405 0.75997 0.0
C2168 C 0.47362 0.76872 0.74725 0.0
C2169 C 0.48169 0.75006 0.75237 0.0
C2170 C 0.47679 0.7353 0.73733 0.0
C2171 C 0.50304 0.75177 0.7557 0.0
C2172 C 0.47134 0.74607 0.7704 0.0
C2173 C 0.45892 0.75994 0.77459 0.0
C2174 C 0.44912 0.75994 0.79148 0.0
C2175 C 0.45237 0.74554 0.80449 0.0
C2176 C 0.46534 0.7314 0.80052 0.0
C2177 C 0.4744 0.7315 0.78295 0.0
H2178 H 0.52063 0.78296 0.28469 0.0
H2179 H 0.51809 0.74702 0.33362 0.0
H2180 H 0.5139 0.71938 0.31284 0.0
H2181 H 0.4848 0.75933 0.25869 0.0
H2182 H 0.49605 0.7629 0.23638 0.0
H2183 H 0.50011 0.77941 0.25511 0.0
H2184 H 0.536 0.77491 0.2527 0.0
H2185 H 0.53207 0.75853 0.23383 0.0
H2186 H 0.54518 0.75171 0.25434 0.0
H2187 H 0.50848 0.69572 0.28592 0.0
H2188 H 0.50467 0.67852 0.25586 0.0
H2189 H 0.50917 0.73099 0.22558 0.0
C2190 C 0.51921 0.76929 0.29111 0.0
C2191 C 0.51957 0.76717 0.31081 0.0
C2192 C 0.51802 0.74897 0.31856 0.0
C2193 C 0.51548 0.73322 0.30687 0.0
C2194 C 0.51457 0.73595 0.28748 0.0
C2195 C 0.51656 0.75358 0.27973 0.0
C2196 C 0.51478 0.75305 0.2586 0.0
C2197 C 0.49793 0.76434 0.2518 0.0
C2198 C 0.5331 0.75995 0.24933 0.0
C2199 C 0.51143 0.73235 0.25556 0.0
C2200 C 0.51133 0.72263 0.2723 0.0
C2201 C 0.50856 0.70325 0.27275 0.0
C2202 C 0.50624 0.69361 0.25563 0.0
C2203 C 0.50674 0.70337 0.23833 0.0
C2204 C 0.50901 0.72303 0.23849 0.0
H2205 H 0.49742 0.24453 0.29772 0.0
H2206 H 0.46298 0.20135 0.27118 0.0
H2207 H 0.45938 0.22136 0.24306 0.0
H2208 H 0.47229 0.28577 0.27629 0.0
H2209 H 0.49412 0.29883 0.27415 0.0
H2210 H 0.49085 0.28255 0.29322 0.0
H2211 H 0.521 0.26576 0.28331 0.0
H2212 H 0.52416 0.28165 0.26403 0.0
H2213 H 0.52275 0.25684 0.25976 0.0
H2214 H 0.46472 0.24352 0.21601 0.0
H2215 H 0.47615 0.26706 0.19325 0.0
H2216 H 0.50531 0.29682 0.23836 0.0
C2217 C 0.48841 0.23975 0.28629 0.0
C2218 C 0.48008 0.22172 0.28661 0.0
C2219 C 0.46901 0.21539 0.27124 0.0
C2220 C 0.467 0.22661 0.25523 0.0
C2221 C 0.47596 0.24416 0.25502 0.0
C2222 C 0.48611 0.25086 0.27034 0.0
C2223 C 0.49573 0.26943 0.26601 0.0
C2224 C 0.48776 0.28507 0.27814 0.0
C2225 C 0.51717 0.26833 0.26842 0.0
C2226 C 0.4902 0.27167 0.24563 0.0
C2227 C 0.4787 0.25706 0.23953 0.0
C2228 C 0.4733 0.2553 0.22076 0.0
C2229 C 0.47985 0.26879 0.20791 0.0
C2230 C 0.49171 0.28389 0.21387 0.0
C2231 C 0.49653 0.2854 0.23312 0.0
H2232 H 0.1437 0.06504 0.1899 0.0
H2233 H 0.13256 0.04835 0.13228 0.0
H2234 H 0.10778 0.07213 0.13014 0.0
H2235 H 0.0959 0.07374 0.20277 0.0
H2236 H 0.10249 0.09342 0.21737 0.0
H2237 H 0.11852 0.07463 0.21426 0.0
H2238 H 0.14402 0.09834 0.2028 0.0
H2239 H 0.12804 0.11719 0.20574 0.0
H2240 H 0.13888 0.11351 0.18333 0.0
H2241 H 0.08513 0.09888 0.13443 0.0
H2242 H 0.06618 0.12535 0.14462 0.0
H2243 H 0.09272 0.1238 0.19955 0.0
C2244 C 0.13603 0.06624 0.1768 0.0
C2245 C 0.14004 0.05487 0.16122 0.0
C2246 C 0.1296 0.05687 0.1444 0.0
C2247 C 0.11559 0.07036 0.14307 0.0
C2248 C 0.11223 0.08153 0.15872 0.0
C2249 C 0.12213 0.07948 0.17527 0.0
C2250 C 0.11627 0.0933 0.19002 0.0
C2251 C 0.10779 0.08316 0.20711 0.0
C2252 C 0.13279 0.10636 0.1958 0.0
C2253 C 0.10154 0.10368 0.17919 0.0
C2254 C 0.09934 0.0967 0.16118 0.0
C2255 C 0.08664 0.10429 0.14855 0.0
C2256 C 0.07586 0.11928 0.15453 0.0
C2257 C 0.07784 0.12654 0.17299 0.0
C2258 C 0.09095 0.11862 0.18537 0.0
H2259 H 0.925 0.06985 0.2233 0.0
H2260 H 0.89998 0.07129 0.16766 0.0
H2261 H 0.92641 0.09118 0.15665 0.0
H2262 H 0.9429 0.11794 0.22335 0.0
H2263 H 0.96402 0.11231 0.236 0.0
H2264 H 0.94284 0.09855 0.2395 0.0
H2265 H 0.96066 0.06863 0.23094 0.0
H2266 H 0.98181 0.08233 0.22712 0.0
H2267 H 0.97252 0.06739 0.20875 0.0
H2268 H 0.95579 0.11016 0.15146 0.0
H2269 H 0.98524 0.12891 0.15294 0.0
H2270 H 0.9912 0.11549 0.21203 0.0
C2271 C 0.92492 0.0746 0.2089 0.0
C2272 C 0.91043 0.06897 0.19631 0.0
C2273 C 0.91102 0.07527 0.17748 0.0
C2274 C 0.92596 0.08658 0.17111 0.0
C2275 C 0.94023 0.09149 0.18375 0.0
C2276 C 0.93978 0.08587 0.20228 0.0
C2277 C 0.95695 0.0931 0.21294 0.0
C2278 C 0.95134 0.10626 0.22889 0.0
C2279 C 0.96868 0.07689 0.22037 0.0
C2280 C 0.96711 0.10365 0.19748 0.0
C2281 C 0.95723 0.10248 0.18075 0.0
C2282 C 0.96363 0.11123 0.1645 0.0
C2283 C 0.98036 0.12186 0.16548 0.0
C2284 C 0.99048 0.12373 0.1826 0.0
C2285 C 0.98389 0.11419 0.1987 0.0
H2286 H 0.92415 0.9777 0.22028 0.0
H2287 H 0.9112 0.98226 0.16089 0.0
H2288 H 0.93335 0.95708 0.15424 0.0
H2289 H 0.97447 0.96667 0.21499 0.0
H2290 H 0.97381 0.95071 0.23454 0.0
H2291 H 0.9587 0.97054 0.23417 0.0
H2292 H 0.92986 0.9483 0.23862 0.0
H2293 H 0.94478 0.92838 0.23866 0.0
H2294 H 0.92558 0.92954 0.22212 0.0
H2295 H 0.95382 0.92887 0.15468 0.0
H2296 H 0.97306 0.90165 0.16156 0.0
H2297 H 0.97342 0.91618 0.22074 0.0
C2298 C 0.92631 0.97375 0.20581 0.0
C2299 C 0.91596 0.98196 0.19109 0.0
C2300 C 0.91908 0.97628 0.17237 0.0
C2301 C 0.93158 0.96194 0.16848 0.0
C2302 C 0.94101 0.95365 0.18343 0.0
C2303 C 0.93877 0.95957 0.20169 0.0
C2304 C 0.94978 0.94778 0.21534 0.0
C2305 C 0.9651 0.95963 0.22535 0.0
C2306 C 0.93671 0.93792 0.22951 0.0
C2307 C 0.9582 0.93393 0.20198 0.0
C2308 C 0.95303 0.9376 0.18364 0.0
C2309 C 0.9583 0.92613 0.16894 0.0
C2310 C 0.96933 0.91068 0.17304 0.0
C2311 C 0.97513 0.90678 0.19172 0.0
C2312 C 0.96934 0.91864 0.20632 0.0
H2313 H 0.13186 0.95378 0.20481 0.0
H2314 H 0.11363 0.98689 0.15738 0.0
H2315 H 0.08771 0.96419 0.15129 0.0
H2316 H 0.12286 0.90952 0.18428 0.0
H2317 H 0.11461 0.89857 0.20553 0.0
H2318 H 0.13119 0.91792 0.20676 0.0
H2319 H 0.10868 0.93594 0.22822 0.0
H2320 H 0.09209 0.91656 0.2272 0.0
H2321 H 0.0849 0.93962 0.22053 0.0
H2322 H 0.06448 0.9369 0.14948 0.0
H2323 H 0.04524 0.90782 0.15306 0.0
H2324 H 0.07858 0.8931 0.20186 0.0
C2325 C 0.12222 0.95644 0.19337 0.0
C2326 C 0.12487 0.97208 0.18152 0.0
C2327 C 0.11208 0.97487 0.16649 0.0
C2328 C 0.09723 0.9621 0.16296 0.0
C2329 C 0.09527 0.94662 0.17465 0.0
C2330 C 0.10732 0.94382 0.18964 0.0
C2331 C 0.10243 0.92582 0.1998 0.0
C2332 C 0.11874 0.91215 0.19904 0.0
C2333 C 0.09668 0.92973 0.22014 0.0
C2334 C 0.08586 0.91888 0.18811 0.0
C2335 C 0.08189 0.93104 0.17366 0.0
C2336 C 0.06738 0.92732 0.16083 0.0
C2337 C 0.05656 0.91077 0.16293 0.0
C2338 C 0.06035 0.89821 0.17774 0.0
C2339 C 0.07523 0.90241 0.19041 0.0
H2340 H 0.06296 0.90501 0.84834 0.0
H2341 H 0.03215 0.91721 0.79722 0.0
H2342 H 0.05131 0.94592 0.79294 0.0
H2343 H 0.06871 0.95334 0.86431 0.0
H2344 H 0.09217 0.95026 0.87322 0.0
H2345 H 0.07565 0.93079 0.87281 0.0
H2346 H 0.09899 0.91152 0.85354 0.0
H2347 H 0.11556 0.93092 0.85392 0.0
H2348 H 0.10801 0.92088 0.83185 0.0
H2349 H 0.0738 0.97281 0.79358 0.0
H2350 H 0.09912 0.99625 0.79865 0.0
H2351 H 0.11613 0.96729 0.84935 0.0
C2352 C 0.06018 0.91384 0.83636 0.0
C2353 C 0.0461 0.90877 0.82305 0.0
C2354 C 0.04301 0.92059 0.80744 0.0
C2355 C 0.05374 0.93703 0.80495 0.0
C2356 C 0.06757 0.94155 0.81819 0.0
C2357 C 0.0709 0.93034 0.83358 0.0
C2358 C 0.0871 0.93829 0.84533 0.0
C2359 C 0.08051 0.94348 0.86509 0.0
C2360 C 0.10338 0.92458 0.8462 0.0
C2361 C 0.09236 0.95561 0.83402 0.0
C2362 C 0.08079 0.9572 0.8185 0.0
C2363 C 0.08294 0.97177 0.80571 0.0
C2364 C 0.09741 0.98502 0.80872 0.0
C2365 C 0.10966 0.98367 0.82439 0.0
C2366 C 0.10696 0.9688 0.83729 0.0
H2367 H 0.05423 0.13877 0.82987 0.0
H2368 H 0.03145 0.12199 0.88376 0.0
H2369 H 0.05358 0.09567 0.8848 0.0
H2370 H 0.06074 0.09291 0.81152 0.0
H2371 H 0.08216 0.0995 0.79969 0.0
H2372 H 0.0644 0.11656 0.80338 0.0
H2373 H 0.08882 0.1382 0.82034 0.0
H2374 H 0.10666 0.12123 0.81669 0.0
H2375 H 0.10185 0.12933 0.84006 0.0
H2376 H 0.07889 0.07135 0.8795 0.0
H2377 H 0.1049 0.05194 0.86912 0.0
H2378 H 0.11013 0.08534 0.81853 0.0
C2379 C 0.05376 0.12961 0.84196 0.0
C2380 C 0.04108 0.13242 0.85676 0.0
C2381 C 0.04104 0.12006 0.87226 0.0
C2382 C 0.05354 0.1051 0.87293 0.0
C2383 C 0.06586 0.1028 0.85799 0.0
C2384 C 0.066 0.11478 0.84282 0.0
C2385 C 0.08061 0.10966 0.8286 0.0
C2386 C 0.07142 0.10434 0.80968 0.0
C2387 C 0.09536 0.12555 0.8263 0.0
C2388 C 0.08888 0.09289 0.8381 0.0
C2389 C 0.0802 0.08906 0.855 0.0
C2390 C 0.0857 0.07424 0.86627 0.0
C2391 C 0.10049 0.06321 0.86016 0.0
C2392 C 0.10974 0.06707 0.84296 0.0
C2393 C 0.10361 0.08207 0.83182 0.0
H2394 H 0.9486 0.10834 0.81842 0.0
H2395 H 0.94479 0.13432 0.8732 0.0
H2396 H 0.91932 0.11216 0.88165 0.0
H2397 H 0.89853 0.09956 0.81203 0.0
H2398 H 0.90149 0.0774 0.80053 0.0
H2399 H 0.9194 0.09549 0.79865 0.0
H2400 H 0.94414 0.07273 0.81151 0.0
H2401 H 0.9263 0.05459 0.81345 0.0
H2402 H 0.94019 0.06127 0.8337 0.0
H2403 H 0.89451 0.08684 0.88448 0.0
H2404 H 0.87209 0.06014 0.8813 0.0
H2405 H 0.89157 0.0508 0.82458 0.0
C2406 C 0.94231 0.10944 0.83212 0.0
C2407 C 0.9489 0.12297 0.8452 0.0
C2408 C 0.94033 0.12385 0.86306 0.0
C2409 C 0.92571 0.1114 0.86796 0.0
C2410 C 0.91969 0.09813 0.85484 0.0
C2411 C 0.92766 0.09708 0.83727 0.0
C2412 C 0.91868 0.08132 0.82589 0.0
C2413 C 0.90894 0.0889 0.80823 0.0
C2414 C 0.93319 0.06661 0.82085 0.0
C2415 C 0.9045 0.07367 0.83984 0.0
C2416 C 0.90529 0.08359 0.85644 0.0
C2417 C 0.89372 0.07898 0.87152 0.0
C2418 C 0.88104 0.06378 0.86958 0.0
C2419 C 0.88002 0.05336 0.8527 0.0
C2420 C 0.89191 0.0585 0.83765 0.0
H2421 H 0.89261 0.94627 0.83107 0.0
H2422 H 0.90572 0.97881 0.88105 0.0
H2423 H 0.93301 0.95902 0.88729 0.0
H2424 H 0.90455 0.90216 0.8492 0.0
H2425 H 0.91432 0.89415 0.82749 0.0
H2426 H 0.89607 0.91108 0.82714 0.0
H2427 H 0.91736 0.93368 0.80781 0.0
H2428 H 0.93568 0.9168 0.8081 0.0
H2429 H 0.94038 0.94016 0.81666 0.0
H2430 H 0.95912 0.93468 0.88798 0.0
H2431 H 0.98067 0.90837 0.88298 0.0
H2432 H 0.95001 0.89349 0.83209 0.0
C2433 C 0.90129 0.94951 0.8432 0.0
C2434 C 0.89692 0.96419 0.8555 0.0
C2435 C 0.90856 0.96754 0.87147 0.0
C2436 C 0.92421 0.95644 0.87508 0.0
C2437 C 0.92807 0.9421 0.86257 0.0
C2438 C 0.91689 0.9387 0.84694 0.0
C2439 C 0.92371 0.9224 0.83567 0.0
C2440 C 0.90877 0.90651 0.83484 0.0
C2441 C 0.92964 0.92864 0.81589 0.0
C2442 C 0.94043 0.91703 0.84742 0.0
C2443 C 0.94286 0.92847 0.86289 0.0
C2444 C 0.95736 0.92571 0.87585 0.0
C2445 C 0.96955 0.91079 0.8729 0.0
C2446 C 0.96705 0.89891 0.85715 0.0
C2447 C 0.95237 0.90228 0.84429 0.0
H2448 H 0.18633 0.08252 0.11635 0.0
H2449 H 0.20735 0.03773 0.08208 0.0
H2450 H 0.19734 0.05436 0.05347 0.0
H2451 H 0.14561 0.0934 0.08665 0.0
H2452 H 0.14819 0.11822 0.09049 0.0
H2453 H 0.15549 0.10209 0.1084 0.0
H2454 H 0.18892 0.11727 0.10872 0.0
H2455 H 0.18155 0.13365 0.09119 0.0
H2456 H 0.20163 0.11942 0.08703 0.0
H2457 H 0.18638 0.0765 0.02854 0.0
H2458 H 0.17978 0.10453 0.00941 0.0
H2459 H 0.16642 0.13503 0.05976 0.0
C2460 C 0.1887 0.07621 0.1028 0.0
C2461 C 0.19769 0.05891 0.10141 0.0
C2462 C 0.20076 0.05113 0.08346 0.0
C2463 C 0.19486 0.06032 0.06715 0.0
C2464 C 0.18586 0.07729 0.06901 0.0
C2465 C 0.18302 0.08528 0.08638 0.0
C2466 C 0.17452 0.10438 0.08449 0.0
C2467 C 0.15478 0.10452 0.09302 0.0
C2468 C 0.18743 0.11957 0.09337 0.0
C2469 C 0.17363 0.10616 0.06333 0.0
C2470 C 0.17973 0.09016 0.05464 0.0
C2471 C 0.18128 0.08897 0.03517 0.0
C2472 C 0.17732 0.10484 0.02438 0.0
C2473 C 0.1721 0.12158 0.03318 0.0
C2474 C 0.16975 0.12209 0.05277 0.0
H2475 H 0.90513 0.19414 0.0535 0.0
H2476 H 0.895 0.13421 0.05646 0.0
H2477 H 0.91935 0.13211 0.08135 0.0
H2478 H 0.95633 0.19381 0.06331 0.0
H2479 H 0.95542 0.215 0.0769 0.0
H2480 H 0.93919 0.21111 0.05771 0.0
H2481 H 0.91148 0.2162 0.08029 0.0
H2482 H 0.92754 0.21966 0.09965 0.0
H2483 H 0.90927 0.20187 0.101 0.0
H2484 H 0.94179 0.13738 0.10847 0.0
H2485 H 0.96292 0.14887 0.13367 0.0
H2486 H 0.95829 0.20549 0.11273 0.0
C2487 C 0.90838 0.18049 0.05903 0.0
C2488 C 0.8983 0.1643 0.05304 0.0
C2489 C 0.90279 0.14672 0.06068 0.0
C2490 C 0.91647 0.14544 0.0749 0.0
C2491 C 0.92557 0.16186 0.08106 0.0
C2492 C 0.92192 0.179 0.07312 0.0
C2493 C 0.93277 0.19469 0.08288 0.0
C2494 C 0.94676 0.20421 0.0694 0.0
C2495 C 0.91947 0.20894 0.09146 0.0
C2496 C 0.94277 0.1838 0.09792 0.0
C2497 C 0.9385 0.16488 0.09659 0.0
C2498 C 0.94551 0.1521 0.1094 0.0
C2499 C 0.95753 0.15878 0.12365 0.0
C2500 C 0.96247 0.17807 0.12503 0.0
C2501 C 0.95476 0.19071 0.11208 0.0
H2502 H 0.82687 0.89199 0.07961 0.0
H2503 H 0.88389 0.89745 0.05904 0.0
H2504 H 0.89171 0.91941 0.08499 0.0
H2505 H 0.82212 0.93991 0.09429 0.0
H2506 H 0.80846 0.93356 0.11459 0.0
H2507 H 0.8075 0.919 0.09399 0.0
H2508 H 0.81702 0.89053 0.11412 0.0
H2509 H 0.81821 0.90502 0.13475 0.0
H2510 H 0.8383 0.89188 0.12794 0.0
H2511 H 0.8932 0.94011 0.11399 0.0
H2512 H 0.88812 0.95838 0.14284 0.0
H2513 H 0.83007 0.93882 0.14386 0.0
C2514 C 0.84099 0.89789 0.08041 0.0
C2515 C 0.85478 0.89306 0.0673 0.0
C2516 C 0.87309 0.90108 0.06889 0.0
C2517 C 0.87765 0.91349 0.08361 0.0
C2518 C 0.86372 0.91771 0.09647 0.0
C2519 C 0.84574 0.9102 0.09491 0.0
C2520 C 0.83333 0.91664 0.11062 0.0
C2521 C 0.81689 0.92795 0.10291 0.0
C2522 C 0.82631 0.90003 0.12256 0.0
C2523 C 0.84714 0.92891 0.12141 0.0
C2524 C 0.86459 0.92941 0.11305 0.0
C2525 C 0.87956 0.93988 0.12057 0.0
C2526 C 0.87653 0.95026 0.13691 0.0
C2527 C 0.85868 0.95004 0.14557 0.0
C2528 C 0.84391 0.93909 0.13772 0.0
H2529 H 0.12286 0.81329 0.05017 0.0
H2530 H 0.13219 0.87315 0.04414 0.0
H2531 H 0.11153 0.87853 0.07119 0.0
H2532 H 0.07403 0.81454 0.06432 0.0
H2533 H 0.07632 0.79575 0.08095 0.0
H2534 H 0.091 0.79668 0.0605 0.0
H2535 H 0.1206 0.79558 0.08176 0.0
H2536 H 0.10604 0.79471 0.10228 0.0
H2537 H 0.12395 0.81277 0.10004 0.0
H2538 H 0.09037 0.87734 0.09921 0.0
H2539 H 0.07097 0.86976 0.12677 0.0
H2540 H 0.07596 0.8106 0.11514 0.0
C2541 C 0.12038 0.82755 0.05437 0.0
C2542 C 0.12903 0.84283 0.04494 0.0
C2543 C 0.12567 0.86125 0.05111 0.0
C2544 C 0.11394 0.86443 0.06644 0.0
C2545 C 0.10577 0.84905 0.07552 0.0
C2546 C 0.10887 0.83097 0.06975 0.0
C2547 C 0.09903 0.81687 0.0824 0.0
C2548 C 0.08421 0.80528 0.07138 0.0
C2549 C 0.11326 0.80424 0.0922 0.0
C2550 C 0.08994 0.82984 0.09625 0.0
C2551 C 0.0939 0.84835 0.09192 0.0
C2552 C 0.08711 0.8629 0.10267 0.0
C2553 C 0.07599 0.85845 0.11824 0.0
C2554 C 0.07183 0.83958 0.12305 0.0
C2555 C 0.07897 0.82513 0.11187 0.0
H2556 H 0.19491 0.88549 0.94785 0.0
H2557 H 0.14755 0.90265 0.98106 0.0
H2558 H 0.14105 0.92747 0.95778 0.0
H2559 H 0.2107 0.93091 0.93404 0.0
H2560 H 0.21733 0.92368 0.91085 0.0
H2561 H 0.21786 0.90727 0.92998 0.0
H2562 H 0.19585 0.88455 0.91129 0.0
H2563 H 0.19522 0.9009 0.89211 0.0
H2564 H 0.17365 0.89263 0.90262 0.0
H2565 H 0.1404 0.95078 0.93089 0.0
H2566 H 0.14567 0.97082 0.9033 0.0
H2567 H 0.19308 0.93738 0.88759 0.0
C2568 C 0.18313 0.89443 0.95031 0.0
C2569 C 0.17175 0.89218 0.96632 0.0
C2570 C 0.1565 0.90419 0.96893 0.0
C2571 C 0.15268 0.91826 0.95576 0.0
C2572 C 0.16424 0.92004 0.94011 0.0
C2573 C 0.17915 0.90842 0.93737 0.0
C2574 C 0.1896 0.91321 0.91956 0.0
C2575 C 0.21008 0.91912 0.92387 0.0
C2576 C 0.1885 0.89685 0.90557 0.0
C2577 C 0.17838 0.92953 0.9127 0.0
C2578 C 0.16377 0.93323 0.92467 0.0
C2579 C 0.15171 0.9479 0.92136 0.0
C2580 C 0.15477 0.95914 0.9055 0.0
C2581 C 0.16978 0.95568 0.89308 0.0
C2582 C 0.18159 0.94054 0.89679 0.0
H2583 H 0.12694 0.16874 0.95994 0.0
H2584 H 0.11399 0.21674 0.99436 0.0
H2585 H 0.08646 0.22275 0.97453 0.0
H2586 H 0.11498 0.18927 0.91637 0.0
H2587 H 0.10462 0.16837 0.90616 0.0
H2588 H 0.12265 0.16661 0.92386 0.0
H2589 H 0.1006 0.14568 0.94395 0.0
H2590 H 0.08247 0.14732 0.92629 0.0
H2591 H 0.07776 0.15391 0.95016 0.0
H2592 H 0.0619 0.22528 0.95026 0.0
H2593 H 0.04086 0.22376 0.92269 0.0
H2594 H 0.06856 0.17414 0.90332 0.0
C2595 C 0.11812 0.18032 0.96344 0.0
C2596 C 0.12266 0.19227 0.97874 0.0
C2597 C 0.1109 0.20743 0.98271 0.0
C2598 C 0.09515 0.21094 0.97156 0.0
C2599 C 0.09122 0.19917 0.95644 0.0
C2600 C 0.10224 0.1841 0.95234 0.0
C2601 C 0.09516 0.17423 0.93467 0.0
C2602 C 0.11025 0.17466 0.91936 0.0
C2603 C 0.0886 0.15409 0.93904 0.0
C2604 C 0.0787 0.18635 0.92938 0.0
C2605 C 0.07672 0.20058 0.94225 0.0
C2606 C 0.06318 0.21412 0.94015 0.0
C2607 C 0.05138 0.21323 0.92438 0.0
C2608 C 0.0531 0.19888 0.91088 0.0
C2609 C 0.06681 0.18511 0.91356 0.0
H2610 H 0.83849 0.07201 0.91558 0.0
H2611 H 0.78636 0.04314 0.93006 0.0
H2612 H 0.7857 0.06025 0.95997 0.0
H2613 H 0.85859 0.07331 0.96263 0.0
H2614 H 0.86883 0.09645 0.96011 0.0
H2615 H 0.86567 0.08164 0.93983 0.0
H2616 H 0.84651 0.10728 0.92337 0.0
H2617 H 0.84972 0.12218 0.94356 0.0
H2618 H 0.8264 0.1166 0.93497 0.0
H2619 H 0.79036 0.08006 0.98806 0.0
H2620 H 0.79889 0.10326 0.01223 0.0
H2621 H 0.84793 0.12037 0.98011 0.0
C2622 C 0.82701 0.06928 0.92512 0.0
C2623 C 0.81241 0.05629 0.92043 0.0
C2624 C 0.79752 0.0532 0.93318 0.0
C2625 C 0.79712 0.06274 0.9503 0.0
C2626 C 0.81167 0.0754 0.95451 0.0
C2627 C 0.82629 0.07886 0.94229 0.0
C2628 C 0.83977 0.09374 0.95013 0.0
C2629 C 0.85938 0.0858 0.95337 0.0
C2630 C 0.84064 0.11097 0.93724 0.0
C2631 C 0.83034 0.09811 0.9686 0.0
C2632 C 0.81425 0.0872 0.97082 0.0
C2633 C 0.80291 0.08871 0.9865 0.0
C2634 C 0.80791 0.10197 1.00017 0.0
C2635 C 0.82407 0.1137 0.9981 0.0
C2636 C 0.83557 0.11154 0.98218 0.0
H2637 H 0.95567 0.81427 0.92482 0.0
H2638 H 0.95669 0.87287 0.90899 0.0
H2639 H 0.93687 0.88001 0.93607 0.0
H2640 H 0.90802 0.81198 0.93787 0.0
H2641 H 0.9115 0.79622 0.95724 0.0
H2642 H 0.92715 0.79596 0.93756 0.0
H2643 H 0.95558 0.80158 0.95994 0.0
H2644 H 0.94 0.80186 0.97971 0.0
H2645 H 0.95586 0.82139 0.97556 0.0
H2646 H 0.91506 0.88047 0.96352 0.0
H2647 H 0.89314 0.8742 0.98951 0.0
H2648 H 0.90609 0.81526 0.98724 0.0
C2649 C 0.95182 0.82862 0.92707 0.0
C2650 C 0.95789 0.843 0.91479 0.0
C2651 C 0.95257 0.86163 0.91835 0.0
C2652 C 0.9412 0.86583 0.93367 0.0
C2653 C 0.93531 0.85127 0.94534 0.0
C2654 C 0.94048 0.83306 0.94228 0.0
C2655 C 0.9316 0.81987 0.95644 0.0
C2656 C 0.91881 0.80515 0.94669 0.0
C2657 C 0.94666 0.81064 0.96864 0.0
C2658 C 0.92033 0.83348 0.96774 0.0
C2659 C 0.92275 0.85154 0.96118 0.0
C2660 C 0.9132 0.86641 0.9689 0.0
C2661 C 0.90075 0.8627 0.98364 0.0
C2662 C 0.89793 0.84425 0.99047 0.0
C2663 C 0.90804 0.82954 0.98248 0.0
H2664 H 0.06313 0.20537 0.12133 0.0
H2665 H 0.04571 0.14687 0.11885 0.0
H2666 H 0.06971 0.14146 0.09466 0.0
H2667 H 0.07396 0.21135 0.07167 0.0
H2668 H 0.09395 0.22652 0.07659 0.0
H2669 H 0.07429 0.2259 0.09231 0.0
H2670 H 0.09667 0.21818 0.11993 0.0
H2671 H 0.11636 0.21853 0.10429 0.0
H2672 H 0.11135 0.19809 0.11834 0.0
H2673 H 0.09698 0.14228 0.07219 0.0
H2674 H 0.12479 0.14926 0.05273 0.0
H2675 H 0.12445 0.20713 0.07068 0.0
C2676 C 0.06408 0.19146 0.11549 0.0
C2677 C 0.05247 0.17655 0.12187 0.0
C2678 C 0.05435 0.15853 0.11401 0.0
C2679 C 0.06797 0.15533 0.10033 0.0
C2680 C 0.0795 0.17031 0.0947 0.0
C2681 C 0.0776 0.18803 0.10198 0.0
C2682 C 0.09227 0.20158 0.09435 0.0
C2683 C 0.08306 0.21726 0.08306 0.0
C2684 C 0.10491 0.20955 0.11017 0.0
C2685 C 0.10292 0.18868 0.08176 0.0
C2686 C 0.09528 0.17073 0.08205 0.0
C2687 C 0.10293 0.15633 0.07171 0.0
C2688 C 0.11867 0.16044 0.06066 0.0
C2689 C 0.12665 0.17878 0.06012 0.0
C2690 C 0.11869 0.193 0.07092 0.0
H2691 H 0.04735 0.81567 0.90236 0.0
H2692 H 0.04705 0.87551 0.89233 0.0
H2693 H 0.07459 0.87963 0.91341 0.0
H2694 H 0.06042 0.81759 0.95093 0.0
H2695 H 0.07524 0.79758 0.94972 0.0
H2696 H 0.0555 0.79941 0.93396 0.0
H2697 H 0.07753 0.79581 0.90552 0.0
H2698 H 0.09735 0.79395 0.92118 0.0
H2699 H 0.09752 0.81151 0.90305 0.0
H2700 H 0.10173 0.87718 0.93608 0.0
H2701 H 0.12731 0.86834 0.95759 0.0
H2702 H 0.11034 0.80998 0.95217 0.0
C2703 C 0.05301 0.82968 0.9046 0.0
C2704 C 0.04497 0.8453 0.89577 0.0
C2705 C 0.05295 0.86335 0.89896 0.0
C2706 C 0.06857 0.86582 0.91092 0.0
C2707 C 0.0761 0.8501 0.91944 0.0
C2708 C 0.06865 0.83237 0.91633 0.0
C2709 C 0.07951 0.81774 0.92694 0.0
C2710 C 0.06691 0.80748 0.94123 0.0
C2711 C 0.08851 0.80394 0.91336 0.0
C2712 C 0.09421 0.83001 0.93663 0.0
C2713 C 0.09193 0.84864 0.93219 0.0
C2714 C 0.10363 0.86265 0.93965 0.0
C2715 C 0.11803 0.8575 0.95197 0.0
C2716 C 0.12069 0.83847 0.95665 0.0
C2717 C 0.10865 0.82459 0.94876 0.0
H2718 H 0.20105 0.10641 0.94729 0.0
H2719 H 0.14539 0.1296 0.94545 0.0
H2720 H 0.13356 0.10171 0.92824 0.0
H2721 H 0.19988 0.08793 0.90116 0.0
H2722 H 0.21299 0.06756 0.90731 0.0
H2723 H 0.21638 0.08883 0.92047 0.0
H2724 H 0.20857 0.07072 0.95107 0.0
H2725 H 0.20477 0.04946 0.9379 0.0
H2726 H 0.18656 0.05792 0.95285 0.0
H2727 H 0.12818 0.07157 0.90996 0.0
H2728 H 0.13075 0.04379 0.88948 0.0
H2729 H 0.18991 0.04098 0.90346 0.0
C2730 C 0.18641 0.10573 0.94319 0.0
C2731 C 0.17415 0.12017 0.94784 0.0
C2732 C 0.15501 0.11858 0.9423 0.0
C2733 C 0.14814 0.10278 0.93255 0.0
C2734 C 0.16058 0.08865 0.92848 0.0
C2735 C 0.17935 0.0901 0.9335 0.0
C2736 C 0.19008 0.07355 0.92659 0.0
C2737 C 0.20575 0.07984 0.91308 0.0
C2738 C 0.19795 0.06225 0.94309 0.0
C2739 C 0.17454 0.06277 0.9165 0.0
C2740 C 0.15753 0.07149 0.91796 0.0
C2741 C 0.1414 0.06453 0.90886 0.0
C2742 C 0.14293 0.0487 0.89736 0.0
C2743 C 0.1605 0.04029 0.89491 0.0
C2744 C 0.17626 0.04705 0.90517 0.0
H2745 H 0.95944 0.20974 0.91124 0.0
H2746 H 0.96564 0.15114 0.89748 0.0
H2747 H 0.93968 0.14278 0.91875 0.0
H2748 H 0.94951 0.20248 0.96038 0.0
H2749 H 0.93285 0.221 0.96138 0.0
H2750 H 0.95185 0.22231 0.9449 0.0
H2751 H 0.92792 0.22618 0.91768 0.0
H2752 H 0.90885 0.22475 0.93407 0.0
H2753 H 0.90935 0.2089 0.91445 0.0
H2754 H 0.91252 0.14085 0.94129 0.0
H2755 H 0.88728 0.14541 0.96421 0.0
H2756 H 0.89973 0.20511 0.96416 0.0
C2757 C 0.95542 0.19513 0.91273 0.0
C2758 C 0.9645 0.18112 0.90245 0.0
C2759 C 0.95877 0.16218 0.90493 0.0
C2760 C 0.94405 0.15726 0.91705 0.0
C2761 C 0.93525 0.17144 0.92678 0.0
C2762 C 0.94082 0.18997 0.92487 0.0
C2763 C 0.9292 0.20248 0.93709 0.0
C2764 C 0.94159 0.21266 0.95181 0.0
C2765 C 0.91818 0.2164 0.9251 0.0
C2766 C 0.9162 0.18811 0.94613 0.0
C2767 C 0.91987 0.17029 0.93997 0.0
C2768 C 0.90961 0.15474 0.94631 0.0
C2769 C 0.89533 0.15747 0.95943 0.0
C2770 C 0.89146 0.17561 0.96617 0.0
C2771 C 0.90207 0.19108 0.95925 0.0
H2772 H 0.81178 0.91779 0.97602 0.0
H2773 H 0.87096 0.90504 0.98021 0.0
H2774 H 0.87873 0.93241 0.96073 0.0
H2775 H 0.81275 0.92964 0.92839 0.0
H2776 H 0.79588 0.94789 0.93033 0.0
H2777 H 0.79532 0.92867 0.94657 0.0
H2778 H 0.79791 0.95207 0.97431 0.0
H2779 H 0.79872 0.97137 0.95807 0.0
H2780 H 0.8172 0.96882 0.97521 0.0
H2781 H 0.88 0.96023 0.93864 0.0
H2782 H 0.87395 0.9837 0.91383 0.0
H2783 H 0.81418 0.97725 0.92354 0.0
C2784 C 0.8264 0.92072 0.973 0.0
C2785 C 0.84068 0.90921 0.98001 0.0
C2786 C 0.85965 0.91373 0.97552 0.0
C2787 C 0.86428 0.92932 0.96438 0.0
C2788 C 0.84983 0.94032 0.95774 0.0
C2789 C 0.83126 0.93612 0.96181 0.0
C2790 C 0.81822 0.94914 0.95167 0.0
C2791 C 0.80476 0.93818 0.93846 0.0
C2792 C 0.80738 0.96106 0.96566 0.0
C2793 C 0.8323 0.96096 0.94086 0.0
C2794 C 0.85051 0.95597 0.94477 0.0
C2795 C 0.86579 0.96439 0.93561 0.0
C2796 C 0.86227 0.97777 0.92162 0.0
C2797 C 0.84362 0.98225 0.91682 0.0
C2798 C 0.8286 0.97413 0.927 0.0
H2799 H 0.98005 0.81287 0.1269 0.0
H2800 H 0.98556 0.87285 0.13532 0.0
H2801 H 0.95777 0.87742 0.11509 0.0
H2802 H 0.96434 0.81418 0.0783 0.0
H2803 H 0.948 0.79476 0.08099 0.0
H2804 H 0.96886 0.79625 0.0954 0.0
H2805 H 0.94844 0.79399 0.12524 0.0
H2806 H 0.9275 0.79261 0.11094 0.0
H2807 H 0.93005 0.81049 0.12864 0.0
H2808 H 0.92926 0.87552 0.09451 0.0
H2809 H 0.90152 0.86737 0.0751 0.0
H2810 H 0.9137 0.80852 0.08045 0.0
C2811 C 0.97557 0.82699 0.1243 0.0
C2812 C 0.98509 0.84253 0.13259 0.0
C2813 C 0.97855 0.86075 0.12908 0.0
C2814 C 0.96278 0.86348 0.11761 0.0
C2815 C 0.95362 0.84785 0.10983 0.0
C2816 C 0.95973 0.82996 0.11303 0.0
C2817 C 0.94694 0.81554 0.10347 0.0
C2818 C 0.95768 0.80454 0.08866 0.0
C2819 C 0.93769 0.80239 0.11794 0.0
C2820 C 0.93266 0.82813 0.09442 0.0
C2821 C 0.93689 0.84672 0.09821 0.0
C2822 C 0.92588 0.86103 0.09137 0.0
C2823 C 0.9102 0.85625 0.08026 0.0
C2824 C 0.90556 0.83731 0.07611 0.0
C2825 C 0.9169 0.82308 0.08345 0.0
H2826 H 0.20242 0.92596 0.04298 0.0
H2827 H 0.18456 0.88066 0.07945 0.0
H2828 H 0.17768 0.90347 0.10449 0.0
H2829 H 0.22354 0.95643 0.07877 0.0
H2830 H 0.21504 0.97745 0.06808 0.0
H2831 H 0.21992 0.95745 0.05374 0.0
H2832 H 0.18601 0.95787 0.04036 0.0
H2833 H 0.18098 0.97775 0.05479 0.0
H2834 H 0.16645 0.95684 0.05624 0.0
H2835 H 0.1729 0.93116 0.12539 0.0
H2836 H 0.16909 0.96196 0.14038 0.0
H2837 H 0.18774 0.98944 0.08935 0.0
C2838 C 0.19744 0.92091 0.0564 0.0
C2839 C 0.1943 0.90162 0.05955 0.0
C2840 C 0.18718 0.89542 0.07699 0.0
C2841 C 0.18325 0.90825 0.09121 0.0
C2842 C 0.18625 0.92722 0.0876 0.0
C2843 C 0.19307 0.93356 0.07059 0.0
C2844 C 0.194 0.95473 0.06993 0.0
C2845 C 0.21434 0.96193 0.06749 0.0
C2846 C 0.18109 0.96223 0.05441 0.0
C2847 C 0.18667 0.9593 0.08923 0.0
C2848 C 0.18248 0.94322 0.09927 0.0
C2849 C 0.17603 0.94384 0.11764 0.0
C2850 C 0.17391 0.96137 0.12602 0.0
C2851 C 0.17793 0.97801 0.11593 0.0
C2852 C 0.18426 0.97692 0.09726 0.0
H2853 H 0.85761 0.05677 0.15534 0.0
H2854 H 0.83883 0.01203 0.11814 0.0
H2855 H 0.83563 0.03473 0.09225 0.0
H2856 H 0.82512 0.0898 0.1385 0.0
H2857 H 0.84094 0.10972 0.14078 0.0
H2858 H 0.84362 0.0898 0.1559 0.0
H2859 H 0.87803 0.08705 0.14537 0.0
H2860 H 0.87557 0.10687 0.13006 0.0
H2861 H 0.88325 0.08494 0.12078 0.0
H2862 H 0.83399 0.06227 0.07054 0.0
H2863 H 0.83185 0.09313 0.05509 0.0
H2864 H 0.84947 0.12034 0.10681 0.0
C2865 C 0.85313 0.05175 0.14165 0.0
C2866 C 0.84865 0.03262 0.13864 0.0
C2867 C 0.84239 0.02661 0.12069 0.0
C2868 C 0.84058 0.03939 0.1059 0.0
C2869 C 0.84486 0.05819 0.10935 0.0
C2870 C 0.85086 0.0644 0.12681 0.0
C2871 C 0.8532 0.08553 0.12711 0.0
C2872 C 0.83992 0.09422 0.14142 0.0
C2873 C 0.87374 0.09144 0.13106 0.0
C2874 C 0.84745 0.09021 0.10716 0.0
C2875 C 0.84299 0.0742 0.09707 0.0
C2876 C 0.83744 0.0749 0.0783 0.0
C2877 C 0.83631 0.09244 0.06962 0.0
C2878 C 0.8404 0.10905 0.07978 0.0
C2879 C 0.84607 0.10786 0.09879 0.0
H2880 H 0.13787 0.57883 0.68096 0.0
H2881 H 0.10972 0.53931 0.64343 0.0
H2882 H 0.08314 0.56095 0.64023 0.0
H2883 H 0.09831 0.59234 0.70559 0.0
H2884 H 0.10583 0.61647 0.70792 0.0
H2885 H 0.12298 0.59856 0.70594 0.0
H2886 H 0.13767 0.61547 0.67723 0.0
H2887 H 0.1207 0.63358 0.67923 0.0
H2888 H 0.12299 0.62114 0.65742 0.0
H2889 H 0.05882 0.58669 0.64302 0.0
H2890 H 0.03972 0.61405 0.6506 0.0
H2891 H 0.0847 0.63593 0.68623 0.0
C2892 C 0.12622 0.57471 0.67191 0.0
C2893 C 0.1258 0.55737 0.66247 0.0
C2894 C 0.11032 0.55259 0.65071 0.0
C2895 C 0.09518 0.56477 0.64887 0.0
C2896 C 0.09592 0.58163 0.65877 0.0
C2897 C 0.11117 0.58661 0.66991 0.0
C2898 C 0.10858 0.60516 0.67953 0.0
C2899 C 0.10894 0.60299 0.70101 0.0
C2900 C 0.12336 0.61969 0.67295 0.0
C2901 C 0.08924 0.60978 0.67245 0.0
C2902 C 0.08215 0.59618 0.66038 0.0
C2903 C 0.06434 0.59746 0.65233 0.0
C2904 C 0.05361 0.61308 0.65668 0.0
C2905 C 0.0607 0.62715 0.66904 0.0
C2906 C 0.07876 0.62534 0.67695 0.0
H2907 H 0.97268 0.63064 0.70262 0.0
H2908 H 0.96705 0.64644 0.64407 0.0
H2909 H 0.939 0.6259 0.64105 0.0
H2910 H 0.95912 0.58241 0.69632 0.0
H2911 H 0.9466 0.58079 0.71815 0.0
H2912 H 0.96605 0.59713 0.71582 0.0
H2913 H 0.94468 0.62416 0.72569 0.0
H2914 H 0.92513 0.6079 0.72795 0.0
H2915 H 0.92321 0.62798 0.71286 0.0
H2916 H 0.91163 0.60337 0.64422 0.0
H2917 H 0.88745 0.57984 0.65332 0.0
H2918 H 0.91118 0.57834 0.70954 0.0
C2919 C 0.96556 0.62982 0.68916 0.0
C2920 C 0.97204 0.64035 0.67364 0.0
C2921 C 0.96229 0.63877 0.65626 0.0
C2922 C 0.94632 0.62708 0.65438 0.0
C2923 C 0.94024 0.61702 0.66998 0.0
C2924 C 0.94958 0.6182 0.68702 0.0
C2925 C 0.9403 0.60563 0.7015 0.0
C2926 C 0.95383 0.5906 0.70834 0.0
C2927 C 0.93289 0.61711 0.71797 0.0
C2928 C 0.92436 0.59716 0.6899 0.0
C2929 C 0.92454 0.60393 0.67177 0.0
C2930 C 0.91136 0.59794 0.65839 0.0
C2931 C 0.89773 0.58451 0.66366 0.0
C2932 C 0.89738 0.57722 0.68214 0.0
C2933 C 0.91084 0.58381 0.6954 0.0
H2934 H 0.95591 0.42102 0.70572 0.0
H2935 H 0.94762 0.39718 0.65026 0.0
H2936 H 0.93094 0.42549 0.64032 0.0
H2937 H 0.91123 0.44115 0.70916 0.0
H2938 H 0.91987 0.46148 0.72174 0.0
H2939 H 0.93199 0.43982 0.72367 0.0
H2940 H 0.9627 0.45672 0.71299 0.0
H2941 H 0.95052 0.47838 0.71068 0.0
H2942 H 0.96304 0.46916 0.691 0.0
H2943 H 0.91358 0.45618 0.63713 0.0
H2944 H 0.89515 0.48464 0.64194 0.0
H2945 H 0.91549 0.48791 0.69938 0.0
C2946 C 0.95052 0.42165 0.69151 0.0
C2947 C 0.9531 0.40685 0.67878 0.0
C2948 C 0.94599 0.40843 0.66022 0.0
C2949 C 0.93653 0.42447 0.65443 0.0
C2950 C 0.93442 0.4389 0.66733 0.0
C2951 C 0.94117 0.43755 0.68551 0.0
C2952 C 0.93637 0.4545 0.69698 0.0
C2953 C 0.92413 0.4489 0.71387 0.0
C2954 C 0.95423 0.46532 0.70328 0.0
C2955 C 0.92544 0.46542 0.6826 0.0
C2956 C 0.92462 0.45639 0.66548 0.0
C2957 C 0.91429 0.46344 0.65044 0.0
C2958 C 0.90393 0.47969 0.65325 0.0
C2959 C 0.90383 0.48849 0.67105 0.0
C2960 C 0.91535 0.48159 0.68557 0.0
H2961 H 0.10564 0.45765 0.70709 0.0
H2962 H 0.10092 0.48385 0.65238 0.0
H2963 H 0.07451 0.46245 0.64437 0.0
H2964 H 0.09621 0.41161 0.69248 0.0
H2965 H 0.08275 0.40516 0.71288 0.0
H2966 H 0.1007 0.4232 0.71457 0.0
H2967 H 0.07638 0.44626 0.72737 0.0
H2968 H 0.05834 0.42824 0.72577 0.0
H2969 H 0.05522 0.45031 0.71411 0.0
H2970 H 0.0495 0.43647 0.64163 0.0
H2971 H 0.02794 0.40892 0.64516 0.0
H2972 H 0.0487 0.40133 0.702 0.0
C2973 C 0.09889 0.45917 0.69356 0.0
C2974 C 0.10559 0.47239 0.68038 0.0
C2975 C 0.0964 0.47363 0.66267 0.0
C2976 C 0.08123 0.46162 0.658 0.0
C2977 C 0.07522 0.44855 0.67123 0.0
C2978 C 0.08369 0.44739 0.68871 0.0
C2979 C 0.07497 0.43184 0.70027 0.0
C2980 C 0.08952 0.41708 0.70533 0.0
C2981 C 0.06567 0.43963 0.71792 0.0
C2982 C 0.06049 0.42424 0.68648 0.0
C2983 C 0.06073 0.43401 0.66979 0.0
C2984 C 0.04904 0.42885 0.65474 0.0
C2985 C 0.03686 0.41321 0.65683 0.0
C2986 C 0.03656 0.40304 0.67385 0.0
C2987 C 0.04844 0.40884 0.68882 0.0
H2988 H 0.06636 0.39626 0.32013 0.0
H2989 H 0.07035 0.37816 0.37808 0.0
H2990 H 0.0951 0.40226 0.38396 0.0
H2991 H 0.11653 0.40698 0.31376 0.0
H2992 H 0.11208 0.42703 0.29924 0.0
H2993 H 0.09563 0.40752 0.29938 0.0
H2994 H 0.06896 0.4298 0.3082 0.0
H2995 H 0.08533 0.44934 0.30822 0.0
H2996 H 0.07154 0.44431 0.32877 0.0
H2997 H 0.11782 0.42959 0.38395 0.0
H2998 H 0.13746 0.45771 0.37802 0.0
H2999 H 0.11906 0.45757 0.31979 0.0
C3000 C 0.07271 0.39706 0.33395 0.0
C3001 C 0.06643 0.3853 0.34865 0.0
C3002 C 0.07483 0.38713 0.36666 0.0
C3003 C 0.08896 0.4007 0.3701 0.0
C3004 C 0.09456 0.41228 0.35535 0.0
C3005 C 0.08679 0.41052 0.33761 0.0
C3006 C 0.09473 0.42522 0.3244 0.0
C3007 C 0.10538 0.41614 0.30824 0.0
C3008 C 0.07922 0.43791 0.31697 0.0
C3009 C 0.108 0.4357 0.33756 0.0
C3010 C 0.10774 0.42797 0.35532 0.0
C3011 C 0.1183 0.43565 0.37005 0.0
C3012 C 0.12941 0.45165 0.36652 0.0
C3013 C 0.12994 0.45981 0.34839 0.0
C3014 C 0.11911 0.45161 0.33376 0.0
H3015 H 0.09439 0.55191 0.32636 0.0
H3016 H 0.11517 0.55648 0.38368 0.0
H3017 H 0.08865 0.57653 0.39138 0.0
H3018 H 0.08219 0.59891 0.32187 0.0
H3019 H 0.06187 0.5939 0.30735 0.0
H3020 H 0.08135 0.57841 0.30717 0.0
H3021 H 0.05896 0.55067 0.3158 0.0
H3022 H 0.03941 0.56616 0.31618 0.0
H3023 H 0.04467 0.55213 0.33647 0.0
H3024 H 0.05995 0.59787 0.39222 0.0
H3025 H 0.03427 0.61973 0.38519 0.0
H3026 H 0.03416 0.60175 0.32716 0.0
C3027 C 0.09357 0.557 0.34058 0.0
C3028 C 0.10711 0.55236 0.35434 0.0
C3029 C 0.10501 0.55945 0.37281 0.0
C3030 C 0.08993 0.57094 0.37736 0.0
C3031 C 0.07698 0.57528 0.36333 0.0
C3032 C 0.07879 0.56855 0.34529 0.0
C3033 C 0.06391 0.57615 0.33233 0.0
C3034 C 0.07287 0.58752 0.31624 0.0
C3035 C 0.05097 0.56033 0.32475 0.0
C3036 C 0.05362 0.58855 0.34575 0.0
C3037 C 0.06107 0.58771 0.36368 0.0
C3038 C 0.05401 0.59853 0.37822 0.0
C3039 C 0.0394 0.61088 0.37415 0.0
C3040 C 0.03232 0.61253 0.35563 0.0
C3041 C 0.03926 0.60082 0.34147 0.0
H3042 H 0.94502 0.59624 0.31395 0.0
H3043 H 0.94216 0.61796 0.37071 0.0
H3044 H 0.92118 0.59155 0.37943 0.0
H3045 H 0.89645 0.58102 0.31083 0.0
H3046 H 0.90144 0.56054 0.29721 0.0
H3047 H 0.9165 0.58103 0.29557 0.0
H3048 H 0.94517 0.56114 0.3044 0.0
H3049 H 0.93017 0.54062 0.30625 0.0
H3050 H 0.94483 0.54775 0.32581 0.0
H3051 H 0.90087 0.56267 0.38211 0.0
H3052 H 0.88107 0.53427 0.37814 0.0
H3053 H 0.89611 0.53199 0.31929 0.0
C3054 C 0.93986 0.59562 0.32816 0.0
C3055 C 0.94542 0.60918 0.34166 0.0
C3056 C 0.93843 0.60761 0.36018 0.0
C3057 C 0.92643 0.59269 0.36526 0.0
C3058 C 0.92146 0.57948 0.35166 0.0
C3059 C 0.92782 0.58087 0.33345 0.0
C3060 C 0.92011 0.56495 0.32145 0.0
C3061 C 0.9079 0.57233 0.30531 0.0
C3062 C 0.93602 0.5529 0.31405 0.0
C3063 C 0.90839 0.55441 0.33576 0.0
C3064 C 0.90946 0.56298 0.35312 0.0
C3065 C 0.89985 0.55588 0.36857 0.0
C3066 C 0.88859 0.53974 0.36614 0.0
C3067 C 0.88687 0.53097 0.34836 0.0
C3068 C 0.89713 0.53833 0.33306 0.0
H3069 H 0.95861 0.38114 0.37561 0.0
H3070 H 0.99784 0.42079 0.35072 0.0
H3071 H 0.97327 0.44463 0.35002 0.0
H3072 H 0.92266 0.39102 0.3467 0.0
H3073 H 0.90385 0.38833 0.3633 0.0
H3074 H 0.92527 0.37602 0.36684 0.0
H3075 H 0.92962 0.39067 0.39973 0.0
H3076 H 0.9079 0.40274 0.39663 0.0
H3077 H 0.92916 0.41571 0.4024 0.0
H3078 H 0.94366 0.46215 0.34733 0.0
H3079 H 0.91113 0.47255 0.34321 0.0
H3080 H 0.89034 0.42077 0.36794 0.0
C3081 C 0.96223 0.3952 0.37106 0.0
C3082 C 0.98023 0.39953 0.36393 0.0
C3083 C 0.98428 0.41758 0.35685 0.0
C3084 C 0.97038 0.43111 0.35632 0.0
C3085 C 0.95246 0.42619 0.36266 0.0
C3086 C 0.94835 0.4087 0.37004 0.0
C3087 C 0.92744 0.406 0.37324 0.0
C3088 C 0.91934 0.38936 0.36183 0.0
C3089 C 0.92329 0.40365 0.39425 0.0
C3090 C 0.92036 0.42443 0.36585 0.0
C3091 C 0.93507 0.43599 0.36018 0.0
C3092 C 0.93205 0.45336 0.35202 0.0
C3093 C 0.91354 0.45913 0.3497 0.0
C3094 C 0.89821 0.4475 0.35525 0.0
C3095 C 0.90174 0.42993 0.36346 0.0
H3096 H 0.18856 0.64352 0.56833 0.0
H3097 H 0.15527 0.61342 0.52645 0.0
H3098 H 0.15645 0.58482 0.54605 0.0
H3099 H 0.21898 0.60715 0.58012 0.0
H3100 H 0.21994 0.61269 0.60477 0.0
H3101 H 0.21577 0.63083 0.58786 0.0
H3102 H 0.185 0.63931 0.6047 0.0
H3103 H 0.18926 0.62143 0.62188 0.0
H3104 H 0.16742 0.6213 0.60894 0.0
H3105 H 0.16284 0.55923 0.56983 0.0
H3106 H 0.17119 0.53958 0.59701 0.0
H3107 H 0.19973 0.58725 0.62304 0.0
C3108 C 0.18137 0.63096 0.56331 0.0
C3109 C 0.17186 0.6306 0.54589 0.0
C3110 C 0.16253 0.61396 0.53984 0.0
C3111 C 0.16325 0.59766 0.55081 0.0
C3112 C 0.1732 0.59841 0.56775 0.0
C3113 C 0.18186 0.61473 0.57405 0.0
C3114 C 0.19156 0.61204 0.59275 0.0
C3115 C 0.21282 0.6159 0.59127 0.0
C3116 C 0.18278 0.62424 0.60796 0.0
C3117 C 0.18722 0.59155 0.59596 0.0
C3118 C 0.17667 0.58389 0.5814 0.0
C3119 C 0.17097 0.56514 0.58137 0.0
C3120 C 0.17576 0.55411 0.59686 0.0
C3121 C 0.18607 0.56188 0.6122 0.0
C3122 C 0.1921 0.58078 0.61148 0.0
H3123 H 0.88397 0.65468 0.57475 0.0
H3124 H 0.90698 0.67088 0.52097 0.0
H3125 H 0.93579 0.68312 0.53685 0.0
H3126 H 0.8982 0.69272 0.59939 0.0
H3127 H 0.90435 0.68114 0.62095 0.0
H3128 H 0.88704 0.67069 0.60548 0.0
H3129 H 0.90598 0.64032 0.60343 0.0
H3130 H 0.923 0.65043 0.61954 0.0
H3131 H 0.93043 0.6417 0.59715 0.0
H3132 H 0.9591 0.69889 0.55927 0.0
H3133 H 0.97829 0.71101 0.58609 0.0
H3134 H 0.94077 0.6828 0.62482 0.0
C3135 C 0.89551 0.65997 0.5663 0.0
C3136 C 0.89355 0.66156 0.54669 0.0
C3137 C 0.90855 0.66908 0.53599 0.0
C3138 C 0.92482 0.67628 0.54493 0.0
C3139 C 0.92591 0.67542 0.56446 0.0
C3140 C 0.91193 0.66682 0.57497 0.0
C3141 C 0.91604 0.66844 0.59578 0.0
C3142 C 0.90048 0.67887 0.60598 0.0
C3143 C 0.91905 0.64907 0.60448 0.0
C3144 C 0.93412 0.67992 0.5954 0.0
C3145 C 0.93956 0.68395 0.57724 0.0
C3146 C 0.95517 0.69549 0.57352 0.0
C3147 C 0.9658 0.70254 0.58876 0.0
C3148 C 0.96082 0.69787 0.60736 0.0
C3149 C 0.94475 0.68653 0.61066 0.0
H3150 H 0.83416 0.43043 0.64343 0.0
H3151 H 0.86054 0.47582 0.61201 0.0
H3152 H 0.8675 0.45383 0.58654 0.0
H3153 H 0.86519 0.39382 0.62898 0.0
H3154 H 0.84644 0.37651 0.62753 0.0
H3155 H 0.84507 0.39552 0.64399 0.0
H3156 H 0.81302 0.40473 0.62967 0.0
H3157 H 0.81423 0.38569 0.6133 0.0
H3158 H 0.81124 0.40917 0.60483 0.0
H3159 H 0.87025 0.42678 0.56365 0.0
H3160 H 0.8665 0.39775 0.54487 0.0
H3161 H 0.83725 0.37109 0.5912 0.0
C3162 C 0.84134 0.4359 0.63124 0.0
C3163 C 0.84678 0.45497 0.6299 0.0
C3164 C 0.8564 0.46128 0.61364 0.0
C3165 C 0.86042 0.44888 0.59903 0.0
C3166 C 0.85475 0.43021 0.60086 0.0
C3167 C 0.84534 0.42381 0.61655 0.0
C3168 C 0.83975 0.40339 0.61476 0.0
C3169 C 0.84972 0.39162 0.6297 0.0
C3170 C 0.81829 0.40059 0.61568 0.0
C3171 C 0.84705 0.39938 0.59539 0.0
C3172 C 0.85596 0.41488 0.58766 0.0
C3173 C 0.86339 0.41453 0.56962 0.0
C3174 C 0.86126 0.398 0.55909 0.0
C3175 C 0.85155 0.38225 0.56661 0.0
C3176 C 0.84471 0.38293 0.58508 0.0
H3177 H 0.1371 0.34328 0.57444 0.0
H3178 H 0.1013 0.36053 0.52851 0.0
H3179 H 0.07446 0.36218 0.55054 0.0
H3180 H 0.10539 0.31348 0.5961 0.0
H3181 H 0.11245 0.31927 0.61977 0.0
H3182 H 0.12902 0.32174 0.60099 0.0
H3183 H 0.13506 0.35657 0.60958 0.0
H3184 H 0.11876 0.35415 0.62866 0.0
H3185 H 0.11552 0.37199 0.61116 0.0
H3186 H 0.05096 0.35816 0.57745 0.0
H3187 H 0.03361 0.35162 0.60662 0.0
H3188 H 0.08569 0.33758 0.6346 0.0
C3189 C 0.12368 0.34777 0.56905 0.0
C3190 C 0.12117 0.35177 0.54981 0.0
C3191 C 0.10349 0.35761 0.54326 0.0
C3192 C 0.08821 0.35846 0.55566 0.0
C3193 C 0.09105 0.3537 0.5745 0.0
C3194 C 0.1085 0.3488 0.58117 0.0
C3195 C 0.10797 0.34359 0.60173 0.0
C3196 C 0.11407 0.32332 0.60481 0.0
C3197 C 0.12004 0.3574 0.61348 0.0
C3198 C 0.08733 0.34568 0.60561 0.0
C3199 C 0.07777 0.35163 0.58981 0.0
C3200 C 0.05841 0.35383 0.58994 0.0
C3201 C 0.04867 0.35009 0.60664 0.0
C3202 C 0.05825 0.34419 0.62308 0.0
C3203 C 0.07786 0.34194 0.62237 0.0
H3204 H 0.16036 0.39882 0.47373 0.0
H3205 H 0.21535 0.3743 0.47115 0.0
H3206 H 0.2234 0.39424 0.44415 0.0
H3207 H 0.154 0.40554 0.42236 0.0
H3208 H 0.14298 0.42776 0.42506 0.0
H3209 H 0.1405 0.41018 0.44304 0.0
H3210 H 0.15357 0.43372 0.46776 0.0
H3211 H 0.15614 0.45133 0.44987 0.0
H3212 H 0.17609 0.44508 0.46404 0.0
H3213 H 0.22658 0.41777 0.41888 0.0
H3214 H 0.2247 0.4439 0.39663 0.0
H3215 H 0.1683 0.45485 0.41584 0.0
C3216 C 0.1739 0.39743 0.46717 0.0
C3217 C 0.18721 0.38495 0.47447 0.0
C3218 C 0.20497 0.38379 0.46581 0.0
C3219 C 0.20967 0.39502 0.45042 0.0
C3220 C 0.19651 0.4075 0.4438 0.0
C3221 C 0.17898 0.40883 0.45181 0.0
C3222 C 0.16806 0.42439 0.44257 0.0
C3223 C 0.15033 0.41649 0.43267 0.0
C3224 C 0.16318 0.43952 0.45692 0.0
C3225 C 0.18235 0.43168 0.42844 0.0
C3226 C 0.19856 0.42156 0.42931 0.0
C3227 C 0.21393 0.42581 0.41802 0.0
C3228 C 0.21278 0.44084 0.40549 0.0
C3229 C 0.19642 0.45167 0.40437 0.0
C3230 C 0.18097 0.44685 0.41604 0.0
H3231 H 0.06499 0.70484 0.40201 0.0
H3232 H 0.05313 0.64525 0.3985 0.0
H3233 H 0.07537 0.63979 0.42449 0.0
H3234 H 0.114 0.70187 0.4115 0.0
H3235 H 0.11485 0.72119 0.42772 0.0
H3236 H 0.0975 0.72044 0.40923 0.0
H3237 H 0.07109 0.72339 0.43377 0.0
H3238 H 0.08838 0.72416 0.45234 0.0
H3239 H 0.06958 0.70687 0.45282 0.0
H3240 H 0.10017 0.64067 0.44963 0.0
H3241 H 0.12482 0.64799 0.47324 0.0
H3242 H 0.11995 0.70712 0.461 0.0
C3243 C 0.06708 0.69067 0.40677 0.0
C3244 C 0.05727 0.67546 0.39832 0.0
C3245 C 0.06025 0.65711 0.40498 0.0
C3246 C 0.07294 0.65387 0.41965 0.0
C3247 C 0.08243 0.66916 0.42764 0.0
C3248 C 0.07956 0.68722 0.42154 0.0
C3249 C 0.09164 0.70116 0.43247 0.0
C3250 C 0.10531 0.71179 0.41945 0.0
C3251 C 0.07944 0.71469 0.44351 0.0
C3252 C 0.10191 0.6881 0.44548 0.0
C3253 C 0.09643 0.6697 0.44243 0.0
C3254 C 0.10445 0.65505 0.45228 0.0
C3255 C 0.11846 0.65934 0.46562 0.0
C3256 C 0.1242 0.67813 0.46904 0.0
C3257 C 0.11571 0.69264 0.45886 0.0
H3258 H 0.80717 0.6109 0.47164 0.0
H3259 H 0.86525 0.62935 0.46514 0.0
H3260 H 0.86827 0.60785 0.43828 0.0
H3261 H 0.81416 0.56276 0.46127 0.0
H3262 H 0.79215 0.55965 0.44889 0.0
H3263 H 0.79446 0.57688 0.4672 0.0
H3264 H 0.78371 0.60247 0.44404 0.0
H3265 H 0.78145 0.58532 0.42561 0.0
H3266 H 0.79611 0.60592 0.42233 0.0
H3267 H 0.86508 0.58398 0.4125 0.0
H3268 H 0.85632 0.55881 0.39026 0.0
H3269 H 0.80036 0.55564 0.41365 0.0
C3270 C 0.82053 0.6105 0.46457 0.0
C3271 C 0.83597 0.62191 0.4705 0.0
C3272 C 0.85321 0.62082 0.46086 0.0
C3273 C 0.85505 0.60867 0.44556 0.0
C3274 C 0.83952 0.59769 0.44007 0.0
C3275 C 0.82261 0.59845 0.44931 0.0
C3276 C 0.80821 0.58486 0.4409 0.0
C3277 C 0.80188 0.57017 0.45543 0.0
C3278 C 0.79138 0.59527 0.43273 0.0
C3279 C 0.81969 0.57621 0.42552 0.0
C3280 C 0.83769 0.58387 0.42526 0.0
C3281 C 0.85103 0.57788 0.4126 0.0
C3282 C 0.84595 0.5635 0.40009 0.0
C3283 C 0.82769 0.55517 0.40029 0.0
C3284 C 0.81433 0.56186 0.41303 0.0
H3285 H 0.87631 0.34573 0.4717 0.0
H3286 H 0.91373 0.3177 0.51013 0.0
H3287 H 0.93935 0.32059 0.48706 0.0
H3288 H 0.89121 0.32204 0.43181 0.0
H3289 H 0.88916 0.34143 0.41585 0.0
H3290 H 0.87463 0.34009 0.43635 0.0
H3291 H 0.88684 0.37289 0.44682 0.0
H3292 H 0.90136 0.37437 0.42625 0.0
H3293 H 0.91175 0.37734 0.44922 0.0
H3294 H 0.96022 0.32485 0.45959 0.0
H3295 H 0.97443 0.32765 0.4282 0.0
H3296 H 0.92292 0.3505 0.40631 0.0
C3297 C 0.89007 0.34068 0.47534 0.0
C3298 C 0.8933 0.33179 0.4927 0.0
C3299 C 0.91117 0.3247 0.4969 0.0
C3300 C 0.92578 0.32635 0.48395 0.0
C3301 C 0.92213 0.33487 0.46678 0.0
C3302 C 0.90469 0.34179 0.46234 0.0
C3303 C 0.90395 0.34834 0.44211 0.0
C3304 C 0.88885 0.33731 0.43087 0.0
C3305 C 0.90079 0.36949 0.44105 0.0
C3306 C 0.92354 0.34363 0.43581 0.0
C3307 C 0.9339 0.3363 0.45041 0.0
C3308 C 0.95229 0.33065 0.44806 0.0
C3309 C 0.96026 0.33233 0.43025 0.0
C3310 C 0.94973 0.33924 0.41495 0.0
C3311 C 0.93118 0.34508 0.41781 0.0
H3312 H 0.10937 0.71445 0.55684 0.0
H3313 H 0.11853 0.65556 0.54716 0.0
H3314 H 0.08962 0.64741 0.56423 0.0
H3315 H 0.09426 0.70955 0.60299 0.0
H3316 H 0.07694 0.72745 0.60157 0.0
H3317 H 0.09708 0.72857 0.58658 0.0
H3318 H 0.07506 0.72995 0.55746 0.0
H3319 H 0.05482 0.72856 0.57244 0.0
H3320 H 0.05744 0.71178 0.55386 0.0
H3321 H 0.06154 0.64539 0.58528 0.0
H3322 H 0.03788 0.65011 0.61006 0.0
H3323 H 0.04669 0.71008 0.60519 0.0
C3324 C 0.10514 0.69988 0.55817 0.0
C3325 C 0.11603 0.68571 0.55043 0.0
C3326 C 0.11016 0.66673 0.55256 0.0
C3327 C 0.09375 0.66192 0.56226 0.0
C3328 C 0.08325 0.67623 0.56965 0.0
C3329 C 0.08871 0.69483 0.56773 0.0
C3330 C 0.07578 0.70744 0.57825 0.0
C3331 C 0.08666 0.71891 0.59323 0.0
C3332 C 0.06514 0.72018 0.56469 0.0
C3333 C 0.06272 0.69299 0.58699 0.0
C3334 C 0.06699 0.67506 0.58166 0.0
C3335 C 0.05779 0.65939 0.5893 0.0
C3336 C 0.04433 0.66215 0.60327 0.0
C3337 C 0.04049 0.68042 0.60942 0.0
C3338 C 0.0493 0.69594 0.60064 0.0
H3339 H 0.04896 0.34872 0.4022 0.0
H3340 H 0.0156 0.30181 0.42341 0.0
H3341 H 0.03968 0.29616 0.4475 0.0
H3342 H 0.09344 0.32792 0.40806 0.0
H3343 H 0.10569 0.34903 0.41543 0.0
H3344 H 0.08539 0.35036 0.40033 0.0
H3345 H 0.06965 0.37221 0.42405 0.0
H3346 H 0.08991 0.37101 0.43926 0.0
H3347 H 0.06696 0.36484 0.44808 0.0
H3348 H 0.06765 0.29405 0.46792 0.0
H3349 H 0.09803 0.29624 0.48455 0.0
H3350 H 0.11396 0.34477 0.45135 0.0
C3351 C 0.04662 0.33742 0.41208 0.0
C3352 C 0.03032 0.3257 0.41086 0.0
C3353 C 0.02792 0.31096 0.42396 0.0
C3354 C 0.04153 0.30764 0.43775 0.0
C3355 C 0.0575 0.31921 0.43841 0.0
C3356 C 0.06014 0.33388 0.42605 0.0
C3357 C 0.07895 0.3438 0.42965 0.0
C3358 C 0.09161 0.3427 0.41234 0.0
C3359 C 0.0762 0.36418 0.43562 0.0
C3360 C 0.08651 0.3322 0.4458 0.0
C3361 C 0.07381 0.31811 0.45054 0.0
C3362 C 0.07768 0.30508 0.46443 0.0
C3363 C 0.09503 0.30636 0.47372 0.0
C3364 C 0.10837 0.32061 0.46921 0.0
C3365 C 0.10393 0.33385 0.45518 0.0
H3366 H 0.20623 0.59912 0.46156 0.0
H3367 H 0.14878 0.61793 0.46318 0.0
H3368 H 0.1377 0.58821 0.44966 0.0
H3369 H 0.2021 0.57968 0.41717 0.0
H3370 H 0.2173 0.56043 0.42185 0.0
H3371 H 0.22022 0.58177 0.4349 0.0
H3372 H 0.21664 0.56296 0.46585 0.0
H3373 H 0.21323 0.54159 0.45274 0.0
H3374 H 0.19591 0.54852 0.46948 0.0
H3375 H 0.13276 0.558 0.43294 0.0
H3376 H 0.13541 0.53257 0.40971 0.0
H3377 H 0.19576 0.53379 0.41766 0.0
C3378 C 0.19132 0.59694 0.45928 0.0
C3379 C 0.17844 0.6108 0.464 0.0
C3380 C 0.159 0.60739 0.46042 0.0
C3381 C 0.15248 0.59046 0.45272 0.0
C3382 C 0.1655 0.577 0.4485 0.0
C3383 C 0.18454 0.58014 0.45139 0.0
C3384 C 0.19578 0.56452 0.44323 0.0
C3385 C 0.20965 0.57205 0.4284 0.0
C3386 C 0.20599 0.55376 0.45876 0.0
C3387 C 0.18014 0.55266 0.4345 0.0
C3388 C 0.16271 0.55973 0.43822 0.0
C3389 C 0.1463 0.55213 0.43014 0.0
C3390 C 0.14789 0.53763 0.41703 0.0
C3391 C 0.16578 0.53138 0.41195 0.0
C3392 C 0.18191 0.53827 0.42154 0.0
H3393 H 0.90489 0.66167 0.45886 0.0
H3394 H 0.89754 0.72177 0.45871 0.0
H3395 H 0.9212 0.72521 0.43415 0.0
H3396 H 0.95432 0.66261 0.45153 0.0
H3397 H 0.95443 0.64287 0.43584 0.0
H3398 H 0.93633 0.64455 0.45321 0.0
H3399 H 0.91087 0.64166 0.42722 0.0
H3400 H 0.9289 0.63988 0.40976 0.0
H3401 H 0.9115 0.65763 0.40767 0.0
H3402 H 0.94659 0.72302 0.41138 0.0
H3403 H 0.97154 0.71512 0.38955 0.0
H3404 H 0.96259 0.65613 0.40189 0.0
C3405 C 0.90807 0.67552 0.45349 0.0
C3406 C 0.89942 0.6915 0.46109 0.0
C3407 C 0.90416 0.70934 0.45362 0.0
C3408 C 0.91754 0.71146 0.43949 0.0
C3409 C 0.92604 0.69559 0.43264 0.0
C3410 C 0.92143 0.67792 0.43914 0.0
C3411 C 0.93303 0.66333 0.4292 0.0
C3412 C 0.94525 0.65271 0.44329 0.0
C3413 C 0.92031 0.64982 0.41778 0.0
C3414 C 0.94501 0.6757 0.41638 0.0
C3415 C 0.94064 0.69425 0.41876 0.0
C3416 C 0.95005 0.70854 0.40925 0.0
C3417 C 0.96433 0.70386 0.39691 0.0
C3418 C 0.96913 0.68499 0.39394 0.0
C3419 C 0.95919 0.67067 0.40376 0.0
H3420 H 0.80604 0.39908 0.46683 0.0
H3421 H 0.86226 0.4039 0.49051 0.0
H3422 H 0.86954 0.42997 0.46898 0.0
H3423 H 0.81833 0.40769 0.42015 0.0
H3424 H 0.79779 0.42092 0.41472 0.0
H3425 H 0.79683 0.40334 0.43274 0.0
H3426 H 0.78559 0.42795 0.45659 0.0
H3427 H 0.78654 0.44564 0.43862 0.0
H3428 H 0.79938 0.4491 0.46027 0.0
H3429 H 0.87114 0.4546 0.44332 0.0
H3430 H 0.86676 0.4751 0.41566 0.0
H3431 H 0.80919 0.45446 0.41027 0.0
C3432 C 0.81977 0.40579 0.4678 0.0
C3433 C 0.83354 0.39932 0.48039 0.0
C3434 C 0.8515 0.40834 0.48083 0.0
C3435 C 0.85574 0.42332 0.46876 0.0
C3436 C 0.84184 0.42923 0.45645 0.0
C3437 C 0.8242 0.42076 0.45597 0.0
C3438 C 0.81193 0.42916 0.44097 0.0
C3439 C 0.80588 0.4144 0.42628 0.0
C3440 C 0.79485 0.43852 0.44964 0.0
C3441 C 0.82552 0.44347 0.43286 0.0
C3442 C 0.84268 0.44344 0.44198 0.0
C3443 C 0.85767 0.45491 0.43621 0.0
C3444 C 0.85507 0.46651 0.42054 0.0
C3445 C 0.83763 0.46643 0.41088 0.0
C3446 C 0.82267 0.45497 0.41741 0.0
H3447 H 0.89613 0.34359 0.58207 0.0
H3448 H 0.90248 0.28572 0.56597 0.0
H3449 H 0.93273 0.28503 0.5832 0.0
H3450 H 0.94542 0.35787 0.57985 0.0
H3451 H 0.94449 0.37261 0.6003 0.0
H3452 H 0.92384 0.36896 0.58587 0.0
H3453 H 0.90522 0.35743 0.61487 0.0
H3454 H 0.92577 0.36115 0.62938 0.0
H3455 H 0.91414 0.3385 0.62877 0.0
H3456 H 0.96182 0.2905 0.60189 0.0
H3457 H 0.98692 0.30051 0.6237 0.0
H3458 H 0.9614 0.35475 0.62925 0.0
C3459 C 0.90403 0.33086 0.58209 0.0
C3460 C 0.89714 0.3147 0.57266 0.0
C3461 C 0.90756 0.29816 0.57322 0.0
C3462 C 0.92477 0.29771 0.58282 0.0
C3463 C 0.93121 0.31388 0.59194 0.0
C3464 C 0.9211 0.3301 0.59188 0.0
C3465 C 0.93073 0.34516 0.60375 0.0
C3466 C 0.93646 0.36216 0.59172 0.0
C3467 C 0.91822 0.35089 0.62016 0.0
C3468 C 0.94778 0.3348 0.61059 0.0
C3469 C 0.94784 0.31688 0.60334 0.0
C3470 C 0.96193 0.30448 0.60769 0.0
C3471 C 0.97615 0.31035 0.62011 0.0
C3472 C 0.97612 0.32842 0.62827 0.0
C3473 C 0.96187 0.3409 0.62319 0.0
H3474 H 0.20448 0.4722 0.61934 0.0
H3475 H 0.14441 0.47907 0.62473 0.0
H3476 H 0.1387 0.45314 0.60236 0.0
H3477 H 0.2045 0.46047 0.56985 0.0
H3478 H 0.22256 0.44344 0.57247 0.0
H3479 H 0.22191 0.46309 0.58822 0.0
H3480 H 0.22099 0.44052 0.61664 0.0
H3481 H 0.22163 0.42081 0.60099 0.0
H3482 H 0.20292 0.42249 0.61772 0.0
H3483 H 0.13957 0.42603 0.57983 0.0
H3484 H 0.14689 0.39909 0.5598 0.0
H3485 H 0.20637 0.40964 0.56948 0.0
C3486 C 0.19012 0.46839 0.6157 0.0
C3487 C 0.17489 0.47775 0.62372 0.0
C3488 C 0.15631 0.47213 0.61875 0.0
C3489 C 0.15292 0.45745 0.60602 0.0
C3490 C 0.16826 0.44847 0.59845 0.0
C3491 C 0.18649 0.45369 0.60315 0.0
C3492 C 0.20048 0.44132 0.59359 0.0
C3493 C 0.2131 0.45276 0.58024 0.0
C3494 C 0.21219 0.43065 0.60811 0.0
C3495 C 0.18728 0.42825 0.58285 0.0
C3496 C 0.16876 0.4327 0.58572 0.0
C3497 C 0.15403 0.4225 0.57739 0.0
C3498 C 0.15833 0.40729 0.56592 0.0
C3499 C 0.17722 0.40233 0.56295 0.0
C3500 C 0.19182 0.41305 0.57153 0.0
H3501 H 0.85033 0.6141 0.57288 0.0
H3502 H 0.79732 0.59823 0.54651 0.0
H3503 H 0.79462 0.57072 0.56728 0.0
H3504 H 0.86694 0.56615 0.58134 0.0
H3505 H 0.87708 0.57193 0.60391 0.0
H3506 H 0.87584 0.58953 0.58589 0.0
H3507 H 0.85797 0.61089 0.60853 0.0
H3508 H 0.85907 0.59331 0.62655 0.0
H3509 H 0.83669 0.60222 0.61934 0.0
H3510 H 0.79654 0.54616 0.59153 0.0
H3511 H 0.8028 0.52549 0.61824 0.0
H3512 H 0.8544 0.55694 0.63037 0.0
C3513 C 0.83841 0.60455 0.5713 0.0
C3514 C 0.82405 0.60815 0.55801 0.0
C3515 C 0.80841 0.59567 0.5566 0.0
C3516 C 0.80679 0.58001 0.5683 0.0
C3517 C 0.82091 0.57702 0.5815 0.0
C3518 C 0.83645 0.58887 0.58313 0.0
C3519 C 0.84898 0.58283 0.59932 0.0
C3520 C 0.86836 0.57728 0.59218 0.0
C3521 C 0.85077 0.59823 0.61432 0.0
C3522 C 0.83791 0.56592 0.60657 0.0
C3523 C 0.82185 0.56282 0.59593 0.0
C3524 C 0.80911 0.54836 0.59992 0.0
C3525 C 0.81281 0.53669 0.61521 0.0
C3526 C 0.8291 0.5395 0.6265 0.0
C3527 C 0.84185 0.55435 0.62202 0.0
H3528 H 0.58674 0.13273 0.63931 0.0
H3529 H 0.53453 0.10216 0.64922 0.0
H3530 H 0.55098 0.07235 0.64607 0.0
H3531 H 0.60593 0.09778 0.60578 0.0
H3532 H 0.62959 0.10086 0.61434 0.0
H3533 H 0.61392 0.12027 0.61447 0.0
H3534 H 0.61869 0.12533 0.65002 0.0
H3535 H 0.6353 0.10687 0.65021 0.0
H3536 H 0.61551 0.10584 0.66581 0.0
H3537 H 0.57399 0.04613 0.6469 0.0
H3538 H 0.60154 0.02639 0.65283 0.0
H3539 H 0.63857 0.07395 0.64234 0.0
C3540 C 0.57873 0.11976 0.64054 0.0
C3541 C 0.55934 0.11979 0.6445 0.0
C3542 C 0.54933 0.1025 0.64591 0.0
C3543 C 0.55857 0.08548 0.64414 0.0
C3544 C 0.5778 0.08594 0.64063 0.0
C3545 C 0.58772 0.10267 0.63867 0.0
C3546 C 0.6085 0.09945 0.63644 0.0
C3547 C 0.61486 0.10493 0.61659 0.0
C3548 C 0.62017 0.10998 0.65153 0.0
C3549 C 0.60894 0.07846 0.63914 0.0
C3550 C 0.59103 0.07079 0.64086 0.0
C3551 C 0.58804 0.05189 0.64509 0.0
C3552 C 0.60372 0.04073 0.64832 0.0
C3553 C 0.62205 0.04861 0.64749 0.0
C3554 C 0.62466 0.06752 0.64239 0.0
H3555 H 0.39635 0.07686 0.67209 0.0
H3556 H 0.41867 0.04932 0.72138 0.0
H3557 H 0.44829 0.06753 0.71823 0.0
H3558 H 0.43893 0.07842 0.64582 0.0
H3559 H 0.43519 0.10124 0.63597 0.0
H3560 H 0.41539 0.08647 0.64223 0.0
H3561 H 0.40284 0.11255 0.66355 0.0
H3562 H 0.42248 0.12748 0.6572 0.0
H3563 H 0.41787 0.12258 0.68155 0.0
H3564 H 0.47584 0.08735 0.70904 0.0
H3565 H 0.49887 0.11 0.69638 0.0
H3566 H 0.45894 0.12566 0.65311 0.0
C3567 C 0.40745 0.07475 0.68226 0.0
C3568 C 0.40514 0.06169 0.69705 0.0
C3569 C 0.41996 0.05942 0.71014 0.0
C3570 C 0.43692 0.06957 0.70835 0.0
C3571 C 0.43883 0.08206 0.69345 0.0
C3572 C 0.42445 0.08491 0.68076 0.0
C3573 C 0.43017 0.0994 0.66617 0.0
C3574 C 0.42991 0.09086 0.64638 0.0
C3575 C 0.41759 0.11652 0.66719 0.0
C3576 C 0.45006 0.10417 0.67263 0.0
C3577 C 0.45475 0.09386 0.68831 0.0
C3578 C 0.47231 0.0956 0.69685 0.0
C3579 C 0.48532 0.10852 0.68948 0.0
C3580 C 0.48076 0.11972 0.67375 0.0
C3581 C 0.46291 0.1173 0.66509 0.0
H3582 H 0.446 0.90645 0.67211 0.0
H3583 H 0.48196 0.93538 0.71241 0.0
H3584 H 0.46751 0.96537 0.70391 0.0
H3585 H 0.44304 0.94472 0.63674 0.0
H3586 H 0.41854 0.93971 0.63203 0.0
H3587 H 0.43382 0.92114 0.63888 0.0
H3588 H 0.41191 0.91252 0.6666 0.0
H3589 H 0.39647 0.93071 0.6595 0.0
H3590 H 0.40575 0.93041 0.6831 0.0
H3591 H 0.44714 0.99139 0.69348 0.0
H3592 H 0.41932 0.01009 0.68607 0.0
H3593 H 0.39586 0.96422 0.65331 0.0
C3594 C 0.451 0.91921 0.67884 0.0
C3595 C 0.46509 0.91874 0.69281 0.0
C3596 C 0.47108 0.93553 0.70173 0.0
C3597 C 0.46314 0.95261 0.69679 0.0
C3598 C 0.44919 0.95264 0.68295 0.0
C3599 C 0.44298 0.93631 0.67428 0.0
C3600 C 0.42607 0.93967 0.66184 0.0
C3601 C 0.43065 0.9361 0.64114 0.0
C3602 C 0.40905 0.92763 0.66815 0.0
C3603 C 0.42325 0.96027 0.66545 0.0
C3604 C 0.43712 0.96765 0.67718 0.0
C3605 C 0.43647 0.98592 0.68395 0.0
C3606 C 0.42075 0.99654 0.6795 0.0
C3607 C 0.40592 0.98877 0.66857 0.0
C3608 C 0.40751 0.97072 0.66092 0.0
H3609 H 0.55887 0.90087 0.70723 0.0
H3610 H 0.53215 0.90962 0.65309 0.0
H3611 H 0.553 0.93732 0.64791 0.0
H3612 H 0.56526 0.9495 0.71972 0.0
H3613 H 0.58769 0.94595 0.73086 0.0
H3614 H 0.57023 0.92733 0.73044 0.0
H3615 H 0.59393 0.90544 0.71473 0.0
H3616 H 0.61147 0.92395 0.71514 0.0
H3617 H 0.6052 0.91269 0.69329 0.0
H3618 H 0.57748 0.96341 0.6485 0.0
H3619 H 0.60391 0.98559 0.65438 0.0
H3620 H 0.61445 0.95922 0.7081 0.0
C3621 C 0.55728 0.90862 0.69429 0.0
C3622 C 0.54388 0.90314 0.68054 0.0
C3623 C 0.54232 0.91364 0.66381 0.0
C3624 C 0.55406 0.92937 0.66078 0.0
C3625 C 0.56716 0.93435 0.67466 0.0
C3626 C 0.5688 0.92427 0.69107 0.0
C3627 C 0.58429 0.93214 0.7036 0.0
C3628 C 0.57639 0.93915 0.72226 0.0
C3629 C 0.59963 0.91769 0.70687 0.0
C3630 C 0.59131 0.94817 0.69159 0.0
C3631 C 0.58121 0.94927 0.67499 0.0
C3632 C 0.58546 0.96268 0.66144 0.0
C3633 C 0.60057 0.97512 0.66487 0.0
C3634 C 0.61128 0.97403 0.68167 0.0
C3635 C 0.60638 0.96051 0.69526 0.0
H3636 H 0.58268 0.88851 0.36355 0.0
H3637 H 0.56432 0.88849 0.30545 0.0
H3638 H 0.57931 0.91955 0.3009 0.0
H3639 H 0.57727 0.93825 0.37214 0.0
H3640 H 0.59817 0.94066 0.38643 0.0
H3641 H 0.58536 0.91865 0.38558 0.0
H3642 H 0.61549 0.90192 0.3754 0.0
H3643 H 0.62828 0.9239 0.37648 0.0
H3644 H 0.62815 0.91034 0.35517 0.0
H3645 H 0.59582 0.95034 0.30243 0.0
H3646 H 0.61545 0.97832 0.30909 0.0
H3647 H 0.62483 0.95857 0.36595 0.0
C3648 C 0.58186 0.89515 0.34994 0.0
C3649 C 0.57247 0.88612 0.33479 0.0
C3650 C 0.57169 0.89509 0.31712 0.0
C3651 C 0.58002 0.91278 0.31445 0.0
C3652 C 0.58925 0.92131 0.32957 0.0
C3653 C 0.59044 0.91278 0.34693 0.0
C3654 C 0.60196 0.92484 0.36052 0.0
C3655 C 0.58997 0.93096 0.37715 0.0
C3656 C 0.61951 0.91463 0.36728 0.0
C3657 C 0.60712 0.94132 0.34799 0.0
C3658 C 0.59937 0.93904 0.3303 0.0
C3659 C 0.60202 0.95229 0.31622 0.0
C3660 C 0.61317 0.9682 0.32018 0.0
C3661 C 0.62178 0.97068 0.33802 0.0
C3662 C 0.61851 0.95709 0.35215 0.0
H3663 H 0.61661 0.06596 0.32006 0.0
H3664 H 0.61221 0.04857 0.37814 0.0
H3665 H 0.58341 0.0669 0.38139 0.0
H3666 H 0.60259 0.11257 0.32676 0.0
H3667 H 0.5898 0.11372 0.30489 0.0
H3668 H 0.60935 0.09842 0.30713 0.0
H3669 H 0.588 0.0703 0.29694 0.0
H3670 H 0.56835 0.08553 0.29474 0.0
H3671 H 0.5667 0.06521 0.30963 0.0
H3672 H 0.5558 0.089 0.37848 0.0
H3673 H 0.53221 0.11239 0.36955 0.0
H3674 H 0.55509 0.1144 0.31335 0.0
C3675 C 0.60961 0.066 0.33347 0.0
C3676 C 0.61668 0.05583 0.34884 0.0
C3677 C 0.60694 0.05608 0.3661 0.0
C3678 C 0.59061 0.0665 0.3681 0.0
C3679 C 0.5841 0.07648 0.35265 0.0
C3680 C 0.5933 0.0762 0.33565 0.0
C3681 C 0.58382 0.08838 0.32128 0.0
C3682 C 0.59719 0.10421 0.31463 0.0
C3683 C 0.57627 0.07665 0.30467 0.0
C3684 C 0.56802 0.09585 0.33289 0.0
C3685 C 0.56828 0.08883 0.35094 0.0
C3686 C 0.55536 0.09442 0.36432 0.0
C3687 C 0.54198 0.10766 0.35912 0.0
C3688 C 0.5417 0.11514 0.34073 0.0
C3689 C 0.55479 0.10889 0.32749 0.0
H3690 H 0.455 0.09469 0.29924 0.0
H3691 H 0.44187 0.12418 0.3504 0.0
H3692 H 0.41931 0.09895 0.35898 0.0
H3693 H 0.40727 0.07603 0.28989 0.0
H3694 H 0.41563 0.05414 0.28118 0.0
H3695 H 0.42973 0.0752 0.27852 0.0
H3696 H 0.45746 0.05931 0.29541 0.0
H3697 H 0.44341 0.03828 0.29828 0.0
H3698 H 0.45402 0.04955 0.31848 0.0
H3699 H 0.39987 0.06969 0.36292 0.0
H3700 H 0.38387 0.03879 0.36152 0.0
H3701 H 0.40943 0.02843 0.30752 0.0
C3702 C 0.44707 0.09602 0.31202 0.0
C3703 C 0.45018 0.11135 0.32421 0.0
C3704 C 0.43982 0.11242 0.34102 0.0
C3705 C 0.42692 0.09823 0.34594 0.0
C3706 C 0.42451 0.08309 0.33383 0.0
C3707 C 0.43417 0.08194 0.31716 0.0
C3708 C 0.42953 0.0638 0.30703 0.0
C3709 C 0.41997 0.06752 0.28803 0.0
C3710 C 0.44715 0.05204 0.30467 0.0
C3711 C 0.41597 0.05482 0.32076 0.0
C3712 C 0.41322 0.06621 0.33608 0.0
C3713 C 0.40177 0.0607 0.35091 0.0
C3714 C 0.39282 0.04308 0.35002 0.0
C3715 C 0.39538 0.03119 0.3344 0.0
C3716 C 0.40709 0.03723 0.31959 0.0
H3717 H 0.47861 0.88579 0.37158 0.0
H3718 H 0.51432 0.90267 0.32545 0.0
H3719 H 0.49378 0.92906 0.31864 0.0
H3720 H 0.438 0.89137 0.34943 0.0
H3721 H 0.42451 0.90055 0.36847 0.0
H3722 H 0.44429 0.8862 0.3734 0.0
H3723 H 0.45941 0.91218 0.39411 0.0
H3724 H 0.43942 0.92655 0.38967 0.0
H3725 H 0.46275 0.93541 0.38473 0.0
H3726 H 0.46601 0.9478 0.31168 0.0
H3727 H 0.43442 0.96119 0.30808 0.0
H3728 H 0.41665 0.93368 0.35918 0.0
C3729 C 0.48265 0.89579 0.36085 0.0
C3730 C 0.49819 0.89257 0.34926 0.0
C3731 C 0.50263 0.90523 0.33465 0.0
C3732 C 0.49101 0.9202 0.33065 0.0
C3733 C 0.47505 0.92236 0.34148 0.0
C3734 C 0.47105 0.91083 0.35662 0.0
C3735 C 0.4518 0.91476 0.36444 0.0
C3736 C 0.4389 0.89717 0.36388 0.0
C3737 C 0.45345 0.92271 0.38443 0.0
C3738 C 0.44526 0.92946 0.35069 0.0
C3739 C 0.45895 0.93372 0.33764 0.0
C3740 C 0.4554 0.9451 0.32217 0.0
C3741 C 0.43747 0.95249 0.3201 0.0
C3742 C 0.42345 0.9486 0.3335 0.0
C3743 C 0.42744 0.93714 0.34906 0.0
H3744 H 0.70027 0.06177 0.59294 0.0
H3745 H 0.67481 0.0892 0.64034 0.0
H3746 H 0.66184 0.11285 0.61909 0.0
H3747 H 0.71321 0.10519 0.56869 0.0
H3748 H 0.70912 0.09496 0.54588 0.0
H3749 H 0.71643 0.08054 0.56515 0.0
H3750 H 0.68733 0.0588 0.55923 0.0
H3751 H 0.67957 0.07358 0.54039 0.0
H3752 H 0.6642 0.06843 0.55977 0.0
H3753 H 0.64898 0.1316 0.59234 0.0
H3754 H 0.64492 0.14977 0.56303 0.0
H3755 H 0.68055 0.11148 0.53372 0.0
C3756 C 0.69231 0.07293 0.59894 0.0
C3757 C 0.68823 0.07338 0.61827 0.0
C3758 C 0.67772 0.0883 0.6255 0.0
C3759 C 0.67017 0.10172 0.61354 0.0
C3760 C 0.6734 0.10012 0.59441 0.0
C3761 C 0.68478 0.08654 0.58722 0.0
C3762 C 0.687 0.08861 0.56625 0.0
C3763 C 0.70766 0.09257 0.5612 0.0
C3764 C 0.67905 0.07132 0.55581 0.0
C3765 C 0.67505 0.10545 0.56279 0.0
C3766 C 0.66693 0.1116 0.57914 0.0
C3767 C 0.65532 0.127 0.57945 0.0
C3768 C 0.65286 0.13705 0.56276 0.0
C3769 C 0.66216 0.13165 0.54629 0.0
C3770 C 0.67297 0.11547 0.54616 0.0
H3771 H 0.43651 0.1596 0.60437 0.0
H3772 H 0.44831 0.21934 0.60462 0.0
H3773 H 0.42968 0.22274 0.57567 0.0
H3774 H 0.43801 0.15338 0.55389 0.0
H3775 H 0.41879 0.13655 0.55306 0.0
H3776 H 0.43335 0.13847 0.57378 0.0
H3777 H 0.40404 0.14423 0.59422 0.0
H3778 H 0.38968 0.14165 0.57349 0.0
H3779 H 0.38825 0.16246 0.58759 0.0
H3780 H 0.41082 0.21992 0.54649 0.0
H3781 H 0.39036 0.21153 0.51976 0.0
H3782 H 0.38875 0.15365 0.53822 0.0
C3783 C 0.43511 0.17335 0.59828 0.0
C3784 C 0.44375 0.18924 0.60687 0.0
C3785 C 0.44157 0.20703 0.59853 0.0
C3786 C 0.43114 0.20909 0.58197 0.0
C3787 C 0.42279 0.19323 0.57388 0.0
C3788 C 0.42446 0.17571 0.58177 0.0
C3789 C 0.41351 0.16113 0.57032 0.0
C3790 C 0.42671 0.14652 0.56229 0.0
C3791 C 0.39793 0.15184 0.58212 0.0
C3792 C 0.40542 0.17326 0.55484 0.0
C3793 C 0.41124 0.19168 0.55713 0.0
C3794 C 0.40607 0.20556 0.54458 0.0
C3795 C 0.39446 0.20061 0.52936 0.0
C3796 C 0.38786 0.18193 0.52681 0.0
C3797 C 0.3935 0.16806 0.53977 0.0
H3798 H 0.32927 0.88036 0.57126 0.0
H3799 H 0.38181 0.89395 0.54347 0.0
H3800 H 0.38568 0.92218 0.56347 0.0
H3801 H 0.31319 0.92645 0.57447 0.0
H3802 H 0.30252 0.92303 0.59709 0.0
H3803 H 0.3046 0.90357 0.58132 0.0
H3804 H 0.3225 0.88521 0.60691 0.0
H3805 H 0.32038 0.90458 0.62282 0.0
H3806 H 0.3432 0.89563 0.61769 0.0
H3807 H 0.38301 0.94942 0.58636 0.0
H3808 H 0.374 0.97324 0.60952 0.0
H3809 H 0.32311 0.94113 0.62149 0.0
C3810 C 0.3417 0.88914 0.56942 0.0
C3811 C 0.35527 0.88498 0.55584 0.0
C3812 C 0.37124 0.89693 0.55382 0.0
C3813 C 0.37356 0.91294 0.56511 0.0
C3814 C 0.35974 0.91671 0.57826 0.0
C3815 C 0.34415 0.9051 0.58042 0.0
C3816 C 0.33099 0.91236 0.59508 0.0
C3817 C 0.31169 0.91661 0.58647 0.0
C3818 C 0.32917 0.89863 0.6116 0.0
C3819 C 0.34148 0.93004 0.60078 0.0
C3820 C 0.3581 0.93231 0.59107 0.0
C3821 C 0.37006 0.94772 0.59406 0.0
C3822 C 0.36486 0.96114 0.60729 0.0
C3823 C 0.3478 0.95907 0.61727 0.0
C3824 C 0.33607 0.94327 0.61391 0.0
H3825 H 0.61947 0.81504 0.56927 0.0
H3826 H 0.61432 0.87133 0.5475 0.0
H3827 H 0.58923 0.87711 0.57059 0.0
H3828 H 0.56981 0.80637 0.57882 0.0
H3829 H 0.57468 0.79328 0.59982 0.0
H3830 H 0.59111 0.79341 0.58075 0.0
H3831 H 0.61752 0.80502 0.6034 0.0
H3832 H 0.60119 0.80505 0.62251 0.0
H3833 H 0.61437 0.82607 0.61678 0.0
H3834 H 0.56635 0.87713 0.59777 0.0
H3835 H 0.5472 0.87152 0.62583 0.0
H3836 H 0.5672 0.81477 0.62909 0.0
C3837 C 0.61297 0.82856 0.56917 0.0
C3838 C 0.61884 0.84277 0.55659 0.0
C3839 C 0.60995 0.86023 0.55695 0.0
C3840 C 0.59574 0.86362 0.57002 0.0
C3841 C 0.59054 0.84934 0.58246 0.0
C3842 C 0.59883 0.83212 0.582 0.0
C3843 C 0.59129 0.81927 0.59719 0.0
C3844 C 0.58111 0.80207 0.58863 0.0
C3845 C 0.60703 0.81353 0.61077 0.0
C3846 C 0.57767 0.83205 0.60661 0.0
C3847 C 0.57735 0.84929 0.59787 0.0
C3848 C 0.5663 0.86359 0.60452 0.0
C3849 C 0.55534 0.86017 0.62048 0.0
C3850 C 0.55544 0.84257 0.62969 0.0
C3851 C 0.56677 0.82837 0.62249 0.0
H3852 H 0.6712 0.91005 0.49155 0.0
H3853 H 0.64554 0.86205 0.46347 0.0
H3854 H 0.64874 0.87825 0.4329 0.0
H3855 H 0.65207 0.94622 0.46211 0.0
H3856 H 0.67345 0.96021 0.46235 0.0
H3857 H 0.66782 0.94533 0.48199 0.0
H3858 H 0.69976 0.92917 0.47859 0.0
H3859 H 0.70545 0.94393 0.45888 0.0
H3860 H 0.70579 0.91887 0.45643 0.0
H3861 H 0.65406 0.90033 0.40552 0.0
H3862 H 0.66372 0.92539 0.38319 0.0
H3863 H 0.68864 0.95731 0.42888 0.0
C3864 C 0.66603 0.9031 0.47897 0.0
C3865 C 0.65785 0.88499 0.47977 0.0
C3866 C 0.65172 0.87602 0.46305 0.0
C3867 C 0.65347 0.88511 0.44568 0.0
C3868 C 0.66175 0.90297 0.44531 0.0
C3869 C 0.66814 0.91176 0.4615 0.0
C3870 C 0.67757 0.93043 0.45719 0.0
C3871 C 0.6671 0.9465 0.46646 0.0
C3872 C 0.69838 0.9306 0.46312 0.0
C3873 C 0.67541 0.93085 0.43607 0.0
C3874 C 0.66599 0.91501 0.42948 0.0
C3875 C 0.66165 0.91266 0.4105 0.0
C3876 C 0.66713 0.92685 0.39795 0.0
C3877 C 0.67712 0.9429 0.40444 0.0
C3878 C 0.68135 0.94489 0.42368 0.0
H3879 H 0.6111 0.20739 0.46042 0.0
H3880 H 0.61735 0.14818 0.4715 0.0
H3881 H 0.59646 0.14063 0.44466 0.0
H3882 H 0.56207 0.20484 0.44544 0.0
H3883 H 0.56536 0.22228 0.42744 0.0
H3884 H 0.57984 0.223 0.44827 0.0
H3885 H 0.60964 0.22256 0.42769 0.0
H3886 H 0.59527 0.22168 0.40681 0.0
H3887 H 0.61235 0.20395 0.41096 0.0
H3888 H 0.57584 0.13948 0.41611 0.0
H3889 H 0.55691 0.1448 0.38758 0.0
H3890 H 0.56449 0.20471 0.3947 0.0
C3891 C 0.60785 0.19283 0.45739 0.0
C3892 C 0.61577 0.17837 0.46811 0.0
C3893 C 0.61141 0.15949 0.4635 0.0
C3894 C 0.59955 0.15506 0.44829 0.0
C3895 C 0.59221 0.16966 0.43785 0.0
C3896 C 0.59616 0.18816 0.44219 0.0
C3897 C 0.58709 0.20117 0.42824 0.0
C3898 C 0.57274 0.21355 0.43793 0.0
C3899 C 0.60198 0.21303 0.41781 0.0
C3900 C 0.57754 0.18709 0.41529 0.0
C3901 C 0.58057 0.169 0.42117 0.0
C3902 C 0.57325 0.15358 0.41144 0.0
C3903 C 0.56246 0.15675 0.39531 0.0
C3904 C 0.55916 0.17517 0.38901 0.0
C3905 C 0.56689 0.1905 0.39913 0.0
H3906 H 0.31668 0.10229 0.45837 0.0
H3907 H 0.37408 0.10087 0.47904 0.0
H3908 H 0.37906 0.07237 0.46001 0.0
H3909 H 0.30756 0.05196 0.45598 0.0
H3910 H 0.2939 0.05381 0.4347 0.0
H3911 H 0.29455 0.07277 0.45134 0.0
H3912 H 0.30571 0.09554 0.42522 0.0
H3913 H 0.30516 0.07669 0.40852 0.0
H3914 H 0.32646 0.09037 0.4121 0.0
H3915 H 0.37792 0.04508 0.43706 0.0
H3916 H 0.37139 0.02199 0.41211 0.0
H3917 H 0.31494 0.04259 0.40581 0.0
C3918 C 0.33027 0.0959 0.45921 0.0
C3919 C 0.345 0.10378 0.47031 0.0
C3920 C 0.36257 0.095 0.47077 0.0
C3921 C 0.36549 0.07883 0.46 0.0
C3922 C 0.35069 0.07169 0.44894 0.0
C3923 C 0.33342 0.07997 0.44855 0.0
C3924 C 0.32009 0.07044 0.4347 0.0
C3925 C 0.30302 0.06173 0.44479 0.0
C3926 C 0.31401 0.08407 0.41922 0.0
C3927 C 0.33261 0.05556 0.42704 0.0
C3928 C 0.35014 0.05638 0.43554 0.0
C3929 C 0.36424 0.04436 0.43036 0.0
C3930 C 0.36041 0.03137 0.416 0.0
C3931 C 0.34267 0.03058 0.40677 0.0
C3932 C 0.32855 0.0427 0.41266 0.0
H3933 H 0.4019 0.80672 0.47102 0.0
H3934 H 0.39815 0.86605 0.48248 0.0
H3935 H 0.42008 0.87292 0.45651 0.0
H3936 H 0.45089 0.80667 0.45834 0.0
H3937 H 0.44723 0.78965 0.43996 0.0
H3938 H 0.43201 0.78954 0.46 0.0
H3939 H 0.40307 0.79206 0.43796 0.0
H3940 H 0.41819 0.79224 0.41786 0.0
H3941 H 0.40213 0.81098 0.42131 0.0
H3942 H 0.44277 0.8731 0.42908 0.0
H3943 H 0.46274 0.86652 0.4016 0.0
H3944 H 0.45015 0.80732 0.40765 0.0
C3945 C 0.40586 0.82116 0.46825 0.0
C3946 C 0.39845 0.83584 0.47889 0.0
C3947 C 0.40371 0.85457 0.47455 0.0
C3948 C 0.41618 0.8586 0.45985 0.0
C3949 C 0.42315 0.84377 0.44956 0.0
C3950 C 0.41807 0.82543 0.45353 0.0
C3951 C 0.42682 0.81204 0.43991 0.0
C3952 C 0.44002 0.79869 0.45017 0.0
C3953 C 0.41165 0.8012 0.42859 0.0
C3954 C 0.43765 0.82567 0.42765 0.0
C3955 C 0.43554 0.84391 0.4335 0.0
C3956 C 0.44449 0.85886 0.42439 0.0
C3957 C 0.45583 0.85503 0.40888 0.0
C3958 C 0.45784 0.83645 0.40252 0.0
C3959 C 0.44863 0.82167 0.41209 0.0
H3960 H 0.60859 0.16767 0.56274 0.0
H3961 H 0.59369 0.21762 0.53239 0.0
H3962 H 0.56092 0.21397 0.54339 0.0
H3963 H 0.56376 0.14142 0.55693 0.0
H3964 H 0.56419 0.1323 0.5805 0.0
H3965 H 0.58589 0.13741 0.5685 0.0
H3966 H 0.59689 0.15911 0.59571 0.0
H3967 H 0.57545 0.15371 0.60787 0.0
H3968 H 0.58201 0.17771 0.60309 0.0
H3969 H 0.53079 0.2062 0.55894 0.0
H3970 H 0.50671 0.19844 0.5825 0.0
H3971 H 0.54088 0.15387 0.60387 0.0
C3972 C 0.59828 0.17769 0.55836 0.0
C3973 C 0.60344 0.1929 0.54671 0.0
C3974 C 0.58988 0.206 0.54141 0.0
C3975 C 0.57126 0.20386 0.54738 0.0
C3976 C 0.56652 0.18861 0.55875 0.0
C3977 C 0.57971 0.17595 0.56452 0.0
C3978 C 0.57145 0.16211 0.57852 0.0
C3979 C 0.57131 0.14212 0.57063 0.0
C3980 C 0.58207 0.16325 0.59741 0.0
C3981 C 0.55168 0.1693 0.5801 0.0
C3982 C 0.54903 0.18427 0.56815 0.0
C3983 C 0.53255 0.19433 0.56813 0.0
C3984 C 0.51887 0.18972 0.58143 0.0
C3985 C 0.52179 0.17529 0.59459 0.0
C3986 C 0.53801 0.16442 0.59341 0.0
H3987 H 0.55795 0.84143 0.40227 0.0
H3988 H 0.52284 0.79305 0.41642 0.0
H3989 H 0.54396 0.78587 0.44267 0.0
H3990 H 0.60207 0.82069 0.41266 0.0
H3991 H 0.61269 0.8415 0.4228 0.0
H3992 H 0.5946 0.84341 0.40517 0.0
H3993 H 0.57518 0.86351 0.42772 0.0
H3994 H 0.59327 0.86169 0.44539 0.0
H3995 H 0.56945 0.8546 0.45068 0.0
H3996 H 0.56925 0.78275 0.46647 0.0
H3997 H 0.59671 0.78504 0.4877 0.0
H3998 H 0.61559 0.83562 0.4593 0.0
C3999 C 0.55465 0.82942 0.41098 0.0
C4000 C 0.53869 0.8178 0.40717 0.0
C4001 C 0.53493 0.80219 0.41893 0.0
C4002 C 0.54686 0.79795 0.43393 0.0
C4003 C 0.56252 0.80949 0.43719 0.0
C4004 C 0.56642 0.82499 0.4262 0.0
C4005 C 0.58434 0.83496 0.43287 0.0
C4006 C 0.59931 0.83514 0.41746 0.0
C4007 C 0.58031 0.85487 0.43957 0.0
C4008 C 0.58988 0.8225 0.44917 0.0
C4009 C 0.57709 0.80786 0.45131 0.0
C4010 C 0.57934 0.7942 0.46501 0.0
C4011 C 0.59504 0.79554 0.47693 0.0
C4012 C 0.60829 0.81048 0.47519 0.0
C4013 C 0.60559 0.82416 0.46111 0.0
H4014 H 0.6984 0.10023 0.46387 0.0
H4015 H 0.64157 0.12004 0.45817 0.0
H4016 H 0.63221 0.09107 0.44162 0.0
H4017 H 0.70071 0.08088 0.41864 0.0
H4018 H 0.71455 0.06131 0.42571 0.0
H4019 H 0.71606 0.08276 0.43881 0.0
H4020 H 0.70749 0.06452 0.46912 0.0
H4021 H 0.70564 0.04303 0.45598 0.0
H4022 H 0.68613 0.05053 0.46979 0.0
H4023 H 0.62952 0.06083 0.4235 0.0
H4024 H 0.63478 0.03355 0.40299 0.0
H4025 H 0.69319 0.03372 0.42052 0.0
C4026 C 0.68399 0.09847 0.45921 0.0
C4027 C 0.67071 0.11237 0.46259 0.0
C4028 C 0.65195 0.10946 0.45618 0.0
C4029 C 0.64647 0.09302 0.44673 0.0
C4030 C 0.65986 0.07953 0.4438 0.0
C4031 C 0.67826 0.08214 0.44975 0.0
C4032 C 0.69027 0.06616 0.44362 0.0
C4033 C 0.70633 0.0732 0.43094 0.0
C4034 C 0.69782 0.05543 0.46065 0.0
C4035 C 0.67589 0.05448 0.43279 0.0
C4036 C 0.65833 0.0622 0.43331 0.0
C4037 C 0.64314 0.05449 0.42321 0.0
C4038 C 0.6462 0.03893 0.4117 0.0
C4039 C 0.66435 0.03151 0.41027 0.0
C4040 C 0.67911 0.039 0.4215 0.0
H4041 H 0.45372 0.15888 0.36977 0.0
H4042 H 0.4935 0.18743 0.40685 0.0
H4043 H 0.4702 0.18634 0.43234 0.0
H4044 H 0.41447 0.18398 0.38456 0.0
H4045 H 0.39791 0.16462 0.38271 0.0
H4046 H 0.41838 0.16539 0.36808 0.0
H4047 H 0.42787 0.13291 0.38043 0.0
H4048 H 0.40739 0.13198 0.39506 0.0
H4049 H 0.43035 0.12919 0.40531 0.0
H4050 H 0.44244 0.18276 0.45361 0.0
H4051 H 0.4111 0.17967 0.46822 0.0
H4052 H 0.38841 0.15601 0.41666 0.0
C4053 C 0.45758 0.16455 0.38339 0.0
C4054 C 0.47545 0.17303 0.3865 0.0
C4055 C 0.47989 0.18081 0.40428 0.0
C4056 C 0.46679 0.18018 0.41884 0.0
C4057 C 0.44918 0.17198 0.41531 0.0
C4058 C 0.44447 0.16445 0.39798 0.0
C4059 C 0.42404 0.158 0.3974 0.0
C4060 C 0.41306 0.16864 0.38229 0.0
C4061 C 0.42232 0.13676 0.39437 0.0
C4062 C 0.41797 0.16333 0.41698 0.0
C4063 C 0.4328 0.17097 0.42722 0.0
C4064 C 0.43071 0.1768 0.44573 0.0
C4065 C 0.41293 0.17495 0.45394 0.0
C4066 C 0.39742 0.16772 0.44352 0.0
C4067 C 0.40004 0.16175 0.42484 0.0
H4068 H 0.35729 0.88232 0.45163 0.0
H4069 H 0.32639 0.921 0.48553 0.0
H4070 H 0.33798 0.94731 0.4657 0.0
H4071 H 0.39801 0.91306 0.44176 0.0
H4072 H 0.3999 0.90467 0.41803 0.0
H4073 H 0.39085 0.88939 0.43609 0.0
H4074 H 0.36036 0.88321 0.41671 0.0
H4075 H 0.36959 0.89796 0.39844 0.0
H4076 H 0.34709 0.90277 0.4085 0.0
H4077 H 0.35179 0.9689 0.44107 0.0
H4078 H 0.36098 0.98275 0.41061 0.0
H4079 H 0.38211 0.92944 0.39288 0.0
C4080 C 0.35314 0.89638 0.45495 0.0
C4081 C 0.34108 0.89977 0.47006 0.0
C4082 C 0.33554 0.91821 0.47387 0.0
C4083 C 0.34231 0.9332 0.4629 0.0
C4084 C 0.35456 0.92939 0.44828 0.0
C4085 C 0.35964 0.91135 0.44414 0.0
C4086 C 0.37119 0.91051 0.42652 0.0
C4087 C 0.39117 0.90403 0.43087 0.0
C4088 C 0.36147 0.89788 0.41167 0.0
C4089 C 0.37122 0.93085 0.42087 0.0
C4090 C 0.36213 0.94167 0.43391 0.0
C4091 C 0.35918 0.96064 0.43092 0.0
C4092 C 0.36462 0.96846 0.41369 0.0
C4093 C 0.37245 0.95712 0.39969 0.0
C4094 C 0.37655 0.9384 0.40365 0.0
H4095 H 0.41094 0.80274 0.57627 0.0
H4096 H 0.39866 0.86023 0.56252 0.0
H4097 H 0.42267 0.8713 0.58515 0.0
H4098 H 0.41842 0.81011 0.62555 0.0
H4099 H 0.43742 0.79403 0.62743 0.0
H4100 H 0.4195 0.7905 0.60975 0.0
H4101 H 0.44496 0.79045 0.58399 0.0
H4102 H 0.46295 0.79398 0.60161 0.0
H4103 H 0.46127 0.81 0.58219 0.0
H4104 H 0.44708 0.87631 0.61004 0.0
H4105 H 0.47113 0.87474 0.63511 0.0
H4106 H 0.46815 0.8141 0.6324 0.0
C4107 C 0.41343 0.81762 0.57803 0.0
C4108 C 0.40318 0.83059 0.56745 0.0
C4109 C 0.40668 0.85001 0.57013 0.0
C4110 C 0.4202 0.85646 0.58306 0.0
C4111 C 0.43015 0.84334 0.59319 0.0
C4112 C 0.42703 0.82433 0.59081 0.0
C4113 C 0.43966 0.81325 0.6036 0.0
C4114 C 0.42805 0.80127 0.6174 0.0
C4115 C 0.453 0.80121 0.59216 0.0
C4116 C 0.4502 0.82901 0.61359 0.0
C4117 C 0.44446 0.84625 0.60742 0.0
C4118 C 0.45181 0.86289 0.61492 0.0
C4119 C 0.46543 0.86186 0.62915 0.0
C4120 C 0.47159 0.84432 0.63562 0.0
C4121 C 0.46388 0.82774 0.62763 0.0
H4122 H 0.68823 0.92 0.54854 0.0
H4123 H 0.6765 0.87627 0.58908 0.0
H4124 H 0.67253 0.90023 0.61378 0.0
H4125 H 0.71362 0.95207 0.57947 0.0
H4126 H 0.70348 0.97257 0.56925 0.0
H4127 H 0.70636 0.95194 0.55519 0.0
H4128 H 0.67091 0.95153 0.54686 0.0
H4129 H 0.6679 0.97213 0.5609 0.0
H4130 H 0.65391 0.95133 0.56545 0.0
H4131 H 0.67034 0.92924 0.6341 0.0
H4132 H 0.66754 0.96077 0.64785 0.0
H4133 H 0.67877 0.98554 0.59341 0.0
C4134 C 0.68511 0.91549 0.56269 0.0
C4135 C 0.68294 0.89628 0.56703 0.0
C4136 C 0.67829 0.89091 0.58555 0.0
C4137 C 0.67607 0.90442 0.59964 0.0
C4138 C 0.67829 0.92326 0.59489 0.0
C4139 C 0.68251 0.92879 0.57681 0.0
C4140 C 0.68315 0.94992 0.5751 0.0
C4141 C 0.70282 0.95704 0.56942 0.0
C4142 C 0.66807 0.95662 0.56126 0.0
C4143 C 0.67869 0.95545 0.59507 0.0
C4144 C 0.67615 0.93988 0.60633 0.0
C4145 C 0.67223 0.94151 0.62538 0.0
C4146 C 0.67072 0.95948 0.63308 0.0
C4147 C 0.67286 0.97562 0.6217 0.0
C4148 C 0.67692 0.97348 0.60245 0.0
H4149 H 0.30499 0.10357 0.56076 0.0
H4150 H 0.36089 0.12884 0.56224 0.0
H4151 H 0.36892 0.10934 0.58957 0.0
H4152 H 0.2992 0.09989 0.61147 0.0
H4153 H 0.28669 0.07774 0.60993 0.0
H4154 H 0.2852 0.0943 0.59097 0.0
H4155 H 0.29649 0.06918 0.56773 0.0
H4156 H 0.29806 0.05258 0.58661 0.0
H4157 H 0.31828 0.05768 0.5723 0.0
H4158 H 0.37121 0.08598 0.61601 0.0
H4159 H 0.36753 0.06078 0.63948 0.0
H4160 H 0.30989 0.05124 0.62098 0.0
C4161 C 0.31882 0.10525 0.56699 0.0
C4162 C 0.33234 0.11777 0.55929 0.0
C4163 C 0.35039 0.11922 0.56773 0.0
C4164 C 0.35504 0.10827 0.58334 0.0
C4165 C 0.34144 0.09593 0.59043 0.0
C4166 C 0.32368 0.09441 0.58257 0.0
C4167 C 0.31182 0.07968 0.5925 0.0
C4168 C 0.29472 0.08843 0.60177 0.0
C4169 C 0.30582 0.06384 0.57898 0.0
C4170 C 0.32574 0.07302 0.60705 0.0
C4171 C 0.34273 0.0826 0.60568 0.0
C4172 C 0.35792 0.07847 0.61729 0.0
C4173 C 0.3557 0.06411 0.63057 0.0
C4174 C 0.33841 0.05404 0.63214 0.0
C4175 C 0.32325 0.05874 0.62027 0.0
H4176 H 0.57203 0.60552 0.18903 0.0
H4177 H 0.55992 0.62003 0.13129 0.0
H4178 H 0.57929 0.59387 0.12049 0.0
H4179 H 0.61905 0.59487 0.18299 0.0
H4180 H 0.61879 0.57576 0.19947 0.0
H4181 H 0.60268 0.59449 0.20215 0.0
H4182 H 0.57479 0.57049 0.20166 0.0
H4183 H 0.59088 0.55168 0.19881 0.0
H4184 H 0.57203 0.55462 0.18214 0.0
H4185 H 0.60309 0.56755 0.11635 0.0
H4186 H 0.62856 0.54455 0.11969 0.0
H4187 H 0.62322 0.54727 0.18012 0.0
C4188 C 0.57335 0.60311 0.17412 0.0
C4189 C 0.56453 0.61478 0.16101 0.0
C4190 C 0.56644 0.6111 0.14158 0.0
C4191 C 0.57742 0.59629 0.13533 0.0
C4192 C 0.58612 0.5851 0.14869 0.0
C4193 C 0.58401 0.58831 0.1677 0.0
C4194 C 0.59535 0.57499 0.17933 0.0
C4195 C 0.60982 0.58567 0.1917 0.0
C4196 C 0.58249 0.56219 0.19118 0.0
C4197 C 0.60471 0.56416 0.16397 0.0
C4198 C 0.59919 0.56996 0.14633 0.0
C4199 C 0.60722 0.56268 0.13011 0.0
C4200 C 0.62157 0.54955 0.13209 0.0
C4201 C 0.62771 0.54408 0.15014 0.0
C4202 C 0.61872 0.55111 0.16612 0.0
H4203 H 0.42026 0.55376 0.21505 0.0
H4204 H 0.38852 0.56196 0.16366 0.0
H4205 H 0.41234 0.58499 0.15293 0.0
H4206 H 0.43622 0.60255 0.22052 0.0
H4207 H 0.45905 0.59645 0.22932 0.0
H4208 H 0.4391 0.58108 0.23333 0.0
H4209 H 0.45675 0.5539 0.21794 0.0
H4210 H 0.47667 0.56925 0.21369 0.0
H4211 H 0.46565 0.55667 0.19449 0.0
H4212 H 0.43983 0.60617 0.14713 0.0
H4213 H 0.4688 0.62559 0.14728 0.0
H4214 H 0.48313 0.60426 0.20246 0.0
C4215 C 0.41822 0.56065 0.2017 0.0
C4216 C 0.40259 0.556 0.19013 0.0
C4217 C 0.40052 0.56512 0.17262 0.0
C4218 C 0.41394 0.57827 0.16642 0.0
C4219 C 0.4294 0.5822 0.17791 0.0
C4220 C 0.4316 0.57382 0.19523 0.0
C4221 C 0.44976 0.58046 0.20461 0.0
C4222 C 0.44579 0.59075 0.22304 0.0
C4223 C 0.46299 0.56409 0.20787 0.0
C4224 C 0.4574 0.59378 0.1898 0.0
C4225 C 0.44539 0.59454 0.17454 0.0
C4226 C 0.44931 0.60578 0.15905 0.0
C4227 C 0.46581 0.6168 0.15928 0.0
C4228 C 0.47823 0.61657 0.1749 0.0
C4229 C 0.47401 0.6047 0.19026 0.0
H4230 H 0.45053 0.39066 0.19968 0.0
H4231 H 0.48041 0.40415 0.14844 0.0
H4232 H 0.45935 0.43048 0.14286 0.0
H4233 H 0.40436 0.40237 0.18332 0.0
H4234 H 0.39774 0.41197 0.2056 0.0
H4235 H 0.41455 0.39363 0.20472 0.0
H4236 H 0.43847 0.41449 0.22331 0.0
H4237 H 0.42177 0.43293 0.22415 0.0
H4238 H 0.44474 0.43739 0.2145 0.0
H4239 H 0.4349 0.45631 0.14356 0.0
H4240 H 0.40958 0.47845 0.1506 0.0
H4241 H 0.39767 0.4481 0.20202 0.0
C4242 C 0.45278 0.39912 0.1873 0.0
C4243 C 0.46722 0.39522 0.17456 0.0
C4244 C 0.46934 0.40659 0.15835 0.0
C4245 C 0.4575 0.4217 0.1551 0.0
C4246 C 0.44361 0.42529 0.16817 0.0
C4247 C 0.44124 0.41424 0.18392 0.0
C4248 C 0.42565 0.42112 0.19613 0.0
C4249 C 0.40963 0.4064 0.19751 0.0
C4250 C 0.43311 0.42682 0.21568 0.0
C4251 C 0.41972 0.43792 0.18494 0.0
C4252 C 0.43007 0.44012 0.16877 0.0
C4253 C 0.42675 0.4547 0.15622 0.0
C4254 C 0.41241 0.46724 0.16034 0.0
C4255 C 0.40175 0.46511 0.17691 0.0
C4256 C 0.40562 0.45027 0.18929 0.0
H4257 H 0.62548 0.44962 0.19787 0.0
H4258 H 0.60756 0.4844 0.15156 0.0
H4259 H 0.58148 0.46213 0.14471 0.0
H4260 H 0.61658 0.40643 0.17611 0.0
H4261 H 0.60807 0.39469 0.19684 0.0
H4262 H 0.62455 0.41403 0.19899 0.0
H4263 H 0.60166 0.43122 0.22075 0.0
H4264 H 0.58517 0.41182 0.21883 0.0
H4265 H 0.57796 0.43506 0.21288 0.0
H4266 H 0.55879 0.43457 0.14128 0.0
H4267 H 0.54009 0.40494 0.1432 0.0
H4268 H 0.57244 0.38907 0.19228 0.0
C4269 C 0.61582 0.45276 0.18658 0.0
C4270 C 0.61868 0.46866 0.17516 0.0
C4271 C 0.60586 0.47213 0.1603 0.0
C4272 C 0.59092 0.45961 0.15635 0.0
C4273 C 0.58884 0.44376 0.1675 0.0
C4274 C 0.60079 0.44043 0.18247 0.0
C4275 C 0.59585 0.42208 0.19192 0.0
C4276 C 0.61224 0.40851 0.19089 0.0
C4277 C 0.58979 0.42524 0.2123 0.0
C4278 C 0.57948 0.41551 0.17977 0.0
C4279 C 0.5756 0.42816 0.16574 0.0
C4280 C 0.56153 0.42465 0.15236 0.0
C4281 C 0.55105 0.40779 0.15349 0.0
C4282 C 0.55471 0.39479 0.16794 0.0
C4283 C 0.56912 0.3988 0.18117 0.0
H4284 H 0.55616 0.41256 0.80053 0.0
H4285 H 0.56093 0.39198 0.85758 0.0
H4286 H 0.58138 0.41898 0.8658 0.0
H4287 H 0.60408 0.42962 0.79678 0.0
H4288 H 0.59806 0.44984 0.78314 0.0
H4289 H 0.5836 0.42889 0.78177 0.0
H4290 H 0.55453 0.44785 0.79086 0.0
H4291 H 0.56892 0.46884 0.79239 0.0
H4292 H 0.55507 0.4614 0.81218 0.0
H4293 H 0.60153 0.44809 0.8679 0.0
H4294 H 0.62054 0.47699 0.86348 0.0
H4295 H 0.60291 0.47881 0.80506 0.0
C4296 C 0.56162 0.41364 0.8147 0.0
C4297 C 0.55679 0.40013 0.82843 0.0
C4298 C 0.56412 0.40223 0.84688 0.0
C4299 C 0.57585 0.41751 0.85168 0.0
C4300 C 0.58016 0.43065 0.83789 0.0
C4301 C 0.57333 0.42888 0.81977 0.0
C4302 C 0.58021 0.44498 0.80761 0.0
C4303 C 0.5922 0.43791 0.79137 0.0
C4304 C 0.56369 0.45645 0.80034 0.0
C4305 C 0.59202 0.456 0.82173 0.0
C4306 C 0.59177 0.4475 0.83912 0.0
C4307 C 0.60181 0.4549 0.85436 0.0
C4308 C 0.61257 0.47135 0.8517 0.0
C4309 C 0.61322 0.48023 0.83394 0.0
C4310 C 0.60264 0.47246 0.81884 0.0
H4311 H 0.60547 0.58907 0.81512 0.0
H4312 H 0.58806 0.54248 0.85042 0.0
H4313 H 0.55988 0.55955 0.85957 0.0
H4314 H 0.59069 0.62526 0.84499 0.0
H4315 H 0.58286 0.63992 0.82607 0.0
H4316 H 0.60149 0.62385 0.82227 0.0
H4317 H 0.5828 0.60875 0.79456 0.0
H4318 H 0.56419 0.62489 0.79817 0.0
H4319 H 0.55917 0.60008 0.7983 0.0
H4320 H 0.53361 0.58277 0.86552 0.0
H4321 H 0.51139 0.60903 0.86599 0.0
H4322 H 0.54641 0.63903 0.82598 0.0
C4323 C 0.59566 0.58225 0.82454 0.0
C4324 C 0.59914 0.56443 0.83207 0.0
C4325 C 0.58594 0.55625 0.84464 0.0
C4326 C 0.56981 0.5658 0.84988 0.0
C4327 C 0.567 0.58349 0.84237 0.0
C4328 C 0.57953 0.59152 0.82984 0.0
C4329 C 0.57346 0.61063 0.8237 0.0
C4330 C 0.58799 0.6258 0.82962 0.0
C4331 C 0.56968 0.61111 0.80242 0.0
C4332 C 0.55554 0.61213 0.83467 0.0
C4333 C 0.55198 0.59647 0.84549 0.0
C4334 C 0.53623 0.59506 0.85701 0.0
C4335 C 0.52372 0.61002 0.85725 0.0
C4336 C 0.52709 0.62598 0.84593 0.0
C4337 C 0.54328 0.62696 0.83467 0.0
H4338 H 0.44038 0.60919 0.8523 0.0
H4339 H 0.42526 0.62817 0.79644 0.0
H4340 H 0.40021 0.60403 0.79481 0.0
H4341 H 0.43363 0.56124 0.84416 0.0
H4342 H 0.42359 0.55582 0.8667 0.0
H4343 H 0.43956 0.57552 0.86429 0.0
H4344 H 0.41465 0.59734 0.87798 0.0
H4345 H 0.39858 0.57767 0.88049 0.0
H4346 H 0.39164 0.5979 0.86734 0.0
H4347 H 0.37901 0.57639 0.79767 0.0
H4348 H 0.36191 0.54709 0.80537 0.0
H4349 H 0.3889 0.54636 0.86012 0.0
C4350 C 0.43158 0.60855 0.83988 0.0
C4351 C 0.43501 0.62059 0.82441 0.0
C4352 C 0.42326 0.61898 0.80833 0.0
C4353 C 0.40883 0.60539 0.80733 0.0
C4354 C 0.40607 0.59359 0.82262 0.0
C4355 C 0.41696 0.59508 0.83868 0.0
C4356 C 0.41142 0.58003 0.85277 0.0
C4357 C 0.42804 0.56741 0.85723 0.0
C4358 C 0.40361 0.58876 0.87071 0.0
C4359 C 0.39611 0.56955 0.84184 0.0
C4360 C 0.39326 0.57774 0.82452 0.0
C4361 C 0.38088 0.57 0.8113 0.0
C4362 C 0.3713 0.55332 0.81577 0.0
C4363 C 0.37399 0.54459 0.83337 0.0
C4364 C 0.38632 0.55298 0.84671 0.0
H4365 H 0.41075 0.45347 0.81368 0.0
H4366 H 0.40468 0.463 0.87336 0.0
H4367 H 0.43206 0.44351 0.87969 0.0
H4368 H 0.41974 0.4068 0.81709 0.0
H4369 H 0.43645 0.4062 0.79827 0.0
H4370 H 0.41867 0.42357 0.79826 0.0
H4371 H 0.4443 0.44983 0.79616 0.0
H4372 H 0.46221 0.43248 0.79607 0.0
H4373 H 0.46298 0.45086 0.81335 0.0
H4374 H 0.45743 0.41937 0.87971 0.0
H4375 H 0.47827 0.39295 0.87314 0.0
H4376 H 0.46706 0.39924 0.8136 0.0
C4377 C 0.41543 0.45178 0.82804 0.0
C4378 C 0.40567 0.45991 0.84296 0.0
C4379 C 0.41216 0.45728 0.86162 0.0
C4380 C 0.42768 0.44615 0.86538 0.0
C4381 C 0.43666 0.43789 0.85034 0.0
C4382 C 0.43084 0.44073 0.83202 0.0
C4383 C 0.4416 0.42892 0.81846 0.0
C4384 C 0.42832 0.41559 0.80738 0.0
C4385 C 0.45348 0.44126 0.80523 0.0
C4386 C 0.45383 0.41842 0.83205 0.0
C4387 C 0.45107 0.42394 0.85036 0.0
C4388 C 0.45996 0.41517 0.86539 0.0
C4389 C 0.47175 0.4002 0.86155 0.0
C4390 C 0.47427 0.3941 0.84288 0.0
C4391 C 0.46547 0.40363 0.82803 0.0
H4392 H 0.67907 0.58361 0.11683 0.0
H4393 H 0.69609 0.54228 0.07643 0.0
H4394 H 0.68479 0.56224 0.05052 0.0
H4395 H 0.63721 0.599 0.09196 0.0
H4396 H 0.6411 0.62319 0.09826 0.0
H4397 H 0.64906 0.60498 0.11364 0.0
H4398 H 0.68297 0.61899 0.11282 0.0
H4399 H 0.67501 0.63741 0.09781 0.0
H4400 H 0.69406 0.62305 0.0905 0.0
H4401 H 0.67197 0.58701 0.0291 0.0
H4402 H 0.66418 0.61688 0.01369 0.0
H4403 H 0.65706 0.64245 0.06817 0.0
C4404 C 0.68034 0.57882 0.1025 0.0
C4405 C 0.68843 0.56151 0.09853 0.0
C4406 C 0.69012 0.55565 0.07967 0.0
C4407 C 0.68349 0.56675 0.06493 0.0
C4408 C 0.67532 0.58368 0.06934 0.0
C4409 C 0.67405 0.58983 0.08766 0.0
C4410 C 0.66626 0.60926 0.0886 0.0
C4411 C 0.64728 0.60909 0.09871 0.0
C4412 C 0.68042 0.62298 0.09797 0.0
C4413 C 0.66386 0.61332 0.06791 0.0
C4414 C 0.6686 0.59819 0.05702 0.0
C4415 C 0.6681 0.59891 0.03747 0.0
C4416 C 0.6635 0.61584 0.02883 0.0
C4417 C 0.65992 0.63178 0.03982 0.0
C4418 C 0.65954 0.63032 0.05953 0.0
H4419 H 0.44684 0.70548 0.11082 0.0
H4420 H 0.44452 0.64919 0.13338 0.0
H4421 H 0.42008 0.64034 0.11018 0.0
H4422 H 0.39646 0.7085 0.10074 0.0
H4423 H 0.40002 0.72154 0.07938 0.0
H4424 H 0.41684 0.72369 0.09831 0.0
H4425 H 0.44331 0.71444 0.07567 0.0
H4426 H 0.42655 0.71206 0.05674 0.0
H4427 H 0.44117 0.69276 0.06287 0.0
H4428 H 0.39702 0.63706 0.08384 0.0
H4429 H 0.37543 0.64004 0.05693 0.0
H4430 H 0.39203 0.69856 0.05137 0.0
C4431 C 0.44094 0.69141 0.11105 0.0
C4432 C 0.44767 0.67798 0.12383 0.0
C4433 C 0.43978 0.65961 0.12354 0.0
C4434 C 0.42584 0.65447 0.11046 0.0
C4435 C 0.41984 0.66786 0.09776 0.0
C4436 C 0.42699 0.686 0.098 0.0
C4437 C 0.41824 0.69752 0.08251 0.0
C4438 C 0.40724 0.71377 0.09073 0.0
C4439 C 0.43322 0.70461 0.06863 0.0
C4440 C 0.4052 0.68298 0.0735 0.0
C4441 C 0.40637 0.66598 0.08254 0.0
C4442 C 0.39587 0.65034 0.07672 0.0
C4443 C 0.38363 0.65218 0.06139 0.0
C4444 C 0.3819 0.66954 0.05206 0.0
C4445 C 0.393 0.68508 0.05817 0.0
H4446 H 0.34812 0.4195 0.13895 0.0
H4447 H 0.35365 0.47202 0.10897 0.0
H4448 H 0.36591 0.4553 0.08144 0.0
H4449 H 0.38994 0.39819 0.11991 0.0
H4450 H 0.37898 0.37526 0.1187 0.0
H4451 H 0.37199 0.39156 0.13645 0.0
H4452 H 0.33732 0.38838 0.12521 0.0
H4453 H 0.34417 0.37181 0.10777 0.0
H4454 H 0.33173 0.39236 0.10085 0.0
H4455 H 0.37561 0.43223 0.05636 0.0
H4456 H 0.37892 0.40479 0.03548 0.0
H4457 H 0.3674 0.36794 0.08244 0.0
C4458 C 0.3518 0.42749 0.12657 0.0
C4459 C 0.34988 0.44705 0.12607 0.0
C4460 C 0.35514 0.45702 0.10968 0.0
C4461 C 0.36218 0.44766 0.09402 0.0
C4462 C 0.36407 0.42835 0.09506 0.0
C4463 C 0.35895 0.41841 0.11093 0.0
C4464 C 0.36134 0.39767 0.10825 0.0
C4465 C 0.37646 0.39024 0.12162 0.0
C4466 C 0.34253 0.38693 0.11065 0.0
C4467 C 0.36788 0.39739 0.08813 0.0
C4468 C 0.36976 0.41521 0.0808 0.0
C4469 C 0.37446 0.41823 0.06203 0.0
C4470 C 0.37649 0.4026 0.0503 0.0
C4471 C 0.37357 0.38434 0.05745 0.0
C4472 C 0.36991 0.38179 0.0767 0.0
H4473 H 0.58681 0.30884 0.11232 0.0
H4474 H 0.57685 0.36775 0.12072 0.0
H4475 H 0.59763 0.3756 0.09416 0.0
H4476 H 0.63581 0.31382 0.09913 0.0
H4477 H 0.63418 0.29562 0.08168 0.0
H4478 H 0.61907 0.29473 0.10181 0.0
H4479 H 0.58992 0.29266 0.07986 0.0
H4480 H 0.60494 0.29358 0.05968 0.0
H4481 H 0.5867 0.31038 0.06223 0.0
H4482 H 0.61941 0.37702 0.06657 0.0
H4483 H 0.63965 0.3718 0.03921 0.0
H4484 H 0.63485 0.31188 0.04835 0.0
C4485 C 0.58919 0.32338 0.10865 0.0
C4486 C 0.58022 0.33769 0.11853 0.0
C4487 C 0.58342 0.35657 0.11318 0.0
C4488 C 0.59528 0.36116 0.0982 0.0
C4489 C 0.60378 0.34671 0.08863 0.0
C4490 C 0.60084 0.3282 0.09359 0.0
C4491 C 0.61117 0.31532 0.0806 0.0
C4492 C 0.62594 0.30422 0.09146 0.0
C4493 C 0.59736 0.30221 0.06997 0.0
C4494 C 0.62031 0.32947 0.06755 0.0
C4495 C 0.616 0.34751 0.0725 0.0
C4496 C 0.62286 0.36294 0.06253 0.0
C4497 C 0.63436 0.35984 0.04701 0.0
C4498 C 0.6388 0.34143 0.04156 0.0
C4499 C 0.63167 0.32612 0.05207 0.0
H4500 H 0.70067 0.40902 0.96003 0.0
H4501 H 0.64094 0.40044 0.96866 0.0
H4502 H 0.63459 0.42594 0.94604 0.0
H4503 H 0.69988 0.46055 0.95388 0.0
H4504 H 0.71796 0.46009 0.93637 0.0
H4505 H 0.71751 0.44293 0.95487 0.0
H4506 H 0.71718 0.41655 0.92998 0.0
H4507 H 0.71728 0.43356 0.91141 0.0
H4508 H 0.69895 0.41579 0.91229 0.0
H4509 H 0.63507 0.44926 0.91932 0.0
H4510 H 0.64183 0.47044 0.8931 0.0
H4511 H 0.70165 0.46453 0.90294 0.0
C4512 C 0.68625 0.4128 0.95751 0.0
C4513 C 0.67126 0.40283 0.96606 0.0
C4514 C 0.65259 0.40808 0.96239 0.0
C4515 C 0.6489 0.42246 0.9495 0.0
C4516 C 0.66406 0.43154 0.94075 0.0
C4517 C 0.68237 0.42713 0.94489 0.0
C4518 C 0.69617 0.43823 0.93299 0.0
C4519 C 0.70861 0.45122 0.94526 0.0
C4520 C 0.70809 0.42525 0.92096 0.0
C4521 C 0.68277 0.44922 0.921 0.0
C4522 C 0.66433 0.44522 0.92573 0.0
C4523 C 0.64947 0.45283 0.91583 0.0
C4524 C 0.65353 0.46498 0.9009 0.0
C4525 C 0.67238 0.46961 0.89595 0.0
C4526 C 0.68712 0.46148 0.90625 0.0
H4527 H 0.60677 0.71163 0.96595 0.0
H4528 H 0.62957 0.65645 0.95834 0.0
H4529 H 0.60565 0.64963 0.93386 0.0
H4530 H 0.55826 0.69776 0.96015 0.0
H4531 H 0.55212 0.71877 0.94784 0.0
H4532 H 0.57111 0.71932 0.96466 0.0
H4533 H 0.59357 0.73275 0.93934 0.0
H4534 H 0.57465 0.73225 0.92244 0.0
H4535 H 0.59607 0.72036 0.91751 0.0
H4536 H 0.57933 0.64898 0.90995 0.0
H4537 H 0.55272 0.6545 0.88853 0.0
H4538 H 0.54668 0.70981 0.91247 0.0
C4539 C 0.60679 0.69812 0.95913 0.0
C4540 C 0.62008 0.68459 0.96406 0.0
C4541 C 0.61953 0.66705 0.95482 0.0
C4542 C 0.606 0.66303 0.94089 0.0
C4543 C 0.59308 0.67668 0.9364 0.0
C4544 C 0.59335 0.69386 0.94527 0.0
C4545 C 0.57787 0.70607 0.93792 0.0
C4546 C 0.56402 0.71075 0.95357 0.0
C4547 C 0.58603 0.72391 0.92876 0.0
C4548 C 0.56888 0.69312 0.92347 0.0
C4549 C 0.57784 0.67624 0.92281 0.0
C4550 C 0.57213 0.66211 0.91043 0.0
C4551 C 0.55687 0.66535 0.8984 0.0
C4552 C 0.54743 0.68257 0.89881 0.0
C4553 C 0.55361 0.69656 0.91161 0.0
H4554 H 0.32925 0.56661 0.89924 0.0
H4555 H 0.3213 0.51894 0.9359 0.0
H4556 H 0.32815 0.53904 0.96357 0.0
H4557 H 0.3664 0.59088 0.92641 0.0
H4558 H 0.35718 0.61368 0.92191 0.0
H4559 H 0.3537 0.59522 0.90494 0.0
H4560 H 0.3177 0.59955 0.90596 0.0
H4561 H 0.32111 0.61817 0.92267 0.0
H4562 H 0.30587 0.5985 0.92821 0.0
H4563 H 0.33532 0.56466 0.98722 0.0
H4564 H 0.3371 0.59438 0.00513 0.0
H4565 H 0.33796 0.62546 0.95299 0.0
C4566 C 0.32911 0.5605 0.91314 0.0
C4567 C 0.32478 0.54136 0.91561 0.0
C4568 C 0.32444 0.53367 0.93389 0.0
C4569 C 0.32852 0.54492 0.94959 0.0
C4570 C 0.33275 0.56383 0.94672 0.0
C4571 C 0.33277 0.57161 0.92895 0.0
C4572 C 0.33591 0.59258 0.92977 0.0
C4573 C 0.3544 0.59843 0.92019 0.0
C4574 C 0.31915 0.60279 0.92115 0.0
C4575 C 0.33719 0.59544 0.95078 0.0
C4576 C 0.33591 0.57866 0.96032 0.0
C4577 C 0.3364 0.57788 0.97989 0.0
C4578 C 0.33754 0.59476 0.98995 0.0
C4579 C 0.33771 0.61204 0.98035 0.0
C4580 C 0.33794 0.61234 0.96058 0.0
H4581 H 0.46457 0.34527 0.90609 0.0
H4582 H 0.42758 0.30966 0.87226 0.0
H4583 H 0.40357 0.31065 0.89674 0.0
H4584 H 0.45366 0.32493 0.94956 0.0
H4585 H 0.45417 0.34635 0.96286 0.0
H4586 H 0.46798 0.34456 0.94194 0.0
H4587 H 0.45197 0.37371 0.92817 0.0
H4588 H 0.43811 0.37559 0.9491 0.0
H4589 H 0.42673 0.37405 0.92647 0.0
H4590 H 0.38497 0.31256 0.92536 0.0
H4591 H 0.37236 0.3154 0.95721 0.0
H4592 H 0.41998 0.35085 0.97334 0.0
C4593 C 0.45127 0.338 0.90373 0.0
C4594 C 0.44802 0.32726 0.88726 0.0
C4595 C 0.43054 0.3177 0.88483 0.0
C4596 C 0.41672 0.31834 0.89859 0.0
C4597 C 0.42044 0.32873 0.91475 0.0
C4598 C 0.4372 0.33848 0.91744 0.0
C4599 C 0.43785 0.3476 0.93673 0.0
C4600 C 0.4544 0.34043 0.94846 0.0
C4601 C 0.43872 0.36901 0.93501 0.0
C4602 C 0.41912 0.34086 0.94462 0.0
C4603 C 0.4093 0.33017 0.93149 0.0
C4604 C 0.39232 0.32119 0.93564 0.0
C4605 C 0.38527 0.32288 0.95377 0.0
C4606 C 0.39503 0.33361 0.96754 0.0
C4607 C 0.41204 0.34298 0.96287 0.0
H4608 H 0.54169 0.70315 0.11068 0.0
H4609 H 0.5326 0.64305 0.10764 0.0
H4610 H 0.55466 0.64178 0.08102 0.0
H4611 H 0.54839 0.71181 0.05966 0.0
H4612 H 0.56639 0.7294 0.06419 0.0
H4613 H 0.54757 0.72581 0.08064 0.0
H4614 H 0.57197 0.72074 0.10719 0.0
H4615 H 0.59083 0.72406 0.09085 0.0
H4616 H 0.5892 0.70293 0.10456 0.0
H4617 H 0.58075 0.64676 0.05779 0.0
H4618 H 0.60817 0.65722 0.03956 0.0
H4619 H 0.60035 0.71422 0.05816 0.0
C4620 C 0.54391 0.68974 0.10412 0.0
C4621 C 0.53534 0.67318 0.11113 0.0
C4622 C 0.53883 0.65592 0.10232 0.0
C4623 C 0.55136 0.65509 0.08723 0.0
C4624 C 0.5601 0.67166 0.08113 0.0
C4625 C 0.55637 0.68869 0.08921 0.0
C4626 C 0.56881 0.70422 0.08138 0.0
C4627 C 0.55709 0.71866 0.07084 0.0
C4628 C 0.58091 0.71352 0.09692 0.0
C4629 C 0.58063 0.69321 0.06804 0.0
C4630 C 0.57522 0.67451 0.06788 0.0
C4631 C 0.58483 0.66142 0.05749 0.0
C4632 C 0.60038 0.66757 0.04708 0.0
C4633 C 0.60631 0.68667 0.04717 0.0
C4634 C 0.59613 0.6996 0.05771 0.0
H4635 H 0.60313 0.31416 0.95321 0.0
H4636 H 0.63147 0.36536 0.93511 0.0
H4637 H 0.60601 0.37068 0.91226 0.0
H4638 H 0.58689 0.29949 0.90764 0.0
H4639 H 0.56472 0.29021 0.91591 0.0
H4640 H 0.58494 0.29062 0.93123 0.0
H4641 H 0.5665 0.30924 0.95586 0.0
H4642 H 0.54622 0.30892 0.9406 0.0
H4643 H 0.55586 0.33086 0.94914 0.0
H4644 H 0.57818 0.37006 0.89085 0.0
H4645 H 0.5495 0.3638 0.87238 0.0
H4646 H 0.5388 0.31298 0.90413 0.0
C4647 C 0.60406 0.32644 0.94438 0.0
C4648 C 0.61935 0.33936 0.94601 0.0
C4649 C 0.61983 0.35539 0.93433 0.0
C4650 C 0.60547 0.35848 0.92124 0.0
C4651 C 0.59067 0.34547 0.92 0.0
C4652 C 0.58981 0.32978 0.93126 0.0
C4653 C 0.57234 0.31794 0.92699 0.0
C4654 C 0.57754 0.29841 0.92003 0.0
C4655 C 0.55947 0.31667 0.94417 0.0
C4656 C 0.56361 0.32936 0.91144 0.0
C4657 C 0.57444 0.34518 0.90768 0.0
C4658 C 0.56954 0.35776 0.89372 0.0
C4659 C 0.55318 0.35406 0.88327 0.0
C4660 C 0.54179 0.33794 0.88675 0.0
C4661 C 0.5471 0.32548 0.90115 0.0
H4662 H 0.68528 0.57361 0.87882 0.0
H4663 H 0.63906 0.5407 0.90203 0.0
H4664 H 0.64102 0.55981 0.93107 0.0
H4665 H 0.71195 0.57937 0.92149 0.0
H4666 H 0.71947 0.60294 0.91597 0.0
H4667 H 0.71457 0.58646 0.89737 0.0
H4668 H 0.69066 0.60903 0.88263 0.0
H4669 H 0.6956 0.62564 0.90106 0.0
H4670 H 0.67182 0.61753 0.89675 0.0
H4671 H 0.64802 0.58303 0.95723 0.0
H4672 H 0.65813 0.60923 0.97774 0.0
H4673 H 0.69974 0.62665 0.9369 0.0
C4674 C 0.67554 0.5703 0.88998 0.0
C4675 C 0.66201 0.55562 0.88819 0.0
C4676 C 0.64951 0.55189 0.90312 0.0
C4677 C 0.65059 0.56261 0.91966 0.0
C4678 C 0.66426 0.5769 0.92095 0.0
C4679 C 0.67644 0.58077 0.90644 0.0
C4680 C 0.68954 0.59715 0.91096 0.0
C4681 C 0.7101 0.59111 0.91148 0.0
C4682 C 0.68672 0.61329 0.89703 0.0
C4683 C 0.68278 0.6021 0.93031 0.0
C4684 C 0.66826 0.5902 0.93587 0.0
C4685 C 0.65936 0.59239 0.953 0.0
C4686 C 0.66517 0.60735 0.9645 0.0
C4687 C 0.67968 0.62 0.95884 0.0
C4688 C 0.68882 0.61706 0.94168 0.0
H4689 H 0.38992 0.70192 0.9582 0.0
H4690 H 0.37905 0.64229 0.96341 0.0
H4691 H 0.40354 0.63628 0.94002 0.0
H4692 H 0.39802 0.70237 0.90864 0.0
H4693 H 0.41653 0.71995 0.90986 0.0
H4694 H 0.3983 0.71949 0.9272 0.0
H4695 H 0.42337 0.71765 0.95364 0.0
H4696 H 0.44168 0.71812 0.93637 0.0
H4697 H 0.44024 0.6993 0.95313 0.0
H4698 H 0.4286 0.63688 0.9152 0.0
H4699 H 0.45314 0.64404 0.89178 0.0
H4700 H 0.44805 0.70326 0.90335 0.0
C4701 C 0.39274 0.68763 0.95439 0.0
C4702 C 0.3827 0.67257 0.9627 0.0
C4703 C 0.38681 0.65402 0.95746 0.0
C4704 C 0.4006 0.65047 0.9441 0.0
C4705 C 0.41027 0.66563 0.93618 0.0
C4706 C 0.40659 0.68384 0.94121 0.0
C4707 C 0.41904 0.69762 0.93068 0.0
C4708 C 0.40727 0.71062 0.91836 0.0
C4709 C 0.43184 0.70883 0.94427 0.0
C4710 C 0.43019 0.68433 0.91886 0.0
C4711 C 0.42488 0.66595 0.92217 0.0
C4712 C 0.43296 0.65123 0.91258 0.0
C4713 C 0.44686 0.65543 0.89928 0.0
C4714 C 0.45261 0.67419 0.89579 0.0
C4715 C 0.44411 0.68876 0.90578 0.0
H4716 H 0.37351 0.4471 0.89713 0.0
H4717 H 0.34991 0.49676 0.92104 0.0
H4718 H 0.34798 0.48107 0.95196 0.0
H4719 H 0.34511 0.41628 0.91695 0.0
H4720 H 0.36161 0.39813 0.92165 0.0
H4721 H 0.36599 0.41448 0.90301 0.0
H4722 H 0.39822 0.42399 0.91753 0.0
H4723 H 0.39429 0.40717 0.93599 0.0
H4724 H 0.39964 0.43125 0.94172 0.0
H4725 H 0.34127 0.45738 0.9774 0.0
H4726 H 0.33505 0.42925 0.99689 0.0
H4727 H 0.36402 0.39545 0.9565 0.0
C4728 C 0.369 0.45498 0.90919 0.0
C4729 C 0.36223 0.47317 0.90699 0.0
C4730 C 0.35569 0.48299 0.92272 0.0
C4731 C 0.35438 0.4741 0.94025 0.0
C4732 C 0.36007 0.45561 0.94174 0.0
C4733 C 0.36785 0.44637 0.92674 0.0
C4734 C 0.37097 0.426 0.93122 0.0
C4735 C 0.36027 0.41298 0.91739 0.0
C4736 C 0.39203 0.42186 0.93165 0.0
C4737 C 0.36266 0.42489 0.95063 0.0
C4738 C 0.35656 0.44209 0.95656 0.0
C4739 C 0.3465 0.44398 0.97314 0.0
C4740 C 0.34282 0.42793 0.984 0.0
C4741 C 0.34922 0.41029 0.97822 0.0
C4742 C 0.35938 0.40887 0.96142 0.0
H4743 H 0.47971 0.35067 0.11958 0.0
H4744 H 0.50766 0.29884 0.10732 0.0
H4745 H 0.48413 0.29146 0.08294 0.0
H4746 H 0.43339 0.33306 0.11434 0.0
H4747 H 0.42425 0.35352 0.10308 0.0
H4748 H 0.44407 0.35574 0.11881 0.0
H4749 H 0.46351 0.37208 0.09275 0.0
H4750 H 0.44369 0.37001 0.07696 0.0
H4751 H 0.46597 0.36071 0.07037 0.0
H4752 H 0.45613 0.28775 0.06233 0.0
H4753 H 0.4263 0.28958 0.04447 0.0
H4754 H 0.41686 0.3442 0.06829 0.0
C4755 C 0.48107 0.33796 0.11151 0.0
C4756 C 0.49555 0.32532 0.11546 0.0
C4757 C 0.4967 0.30874 0.10468 0.0
C4758 C 0.48339 0.30439 0.09074 0.0
C4759 C 0.46905 0.31683 0.08751 0.0
C4760 C 0.46789 0.33342 0.09735 0.0
C4761 C 0.45066 0.34401 0.0913 0.0
C4762 C 0.4373 0.34674 0.10787 0.0
C4763 C 0.4563 0.36282 0.0823 0.0
C4764 C 0.44222 0.33057 0.07687 0.0
C4765 C 0.45307 0.31496 0.07498 0.0
C4766 C 0.44765 0.30004 0.06343 0.0
C4767 C 0.43069 0.30111 0.05343 0.0
C4768 C 0.41951 0.31707 0.05489 0.0
C4769 C 0.42542 0.33202 0.06668 0.0
H4770 H 0.68081 0.39041 0.06358 0.0
H4771 H 0.72264 0.42236 0.03261 0.0
H4772 H 0.72037 0.4483 0.05541 0.0
H4773 H 0.65198 0.42849 0.07662 0.0
H4774 H 0.64709 0.4196 0.09977 0.0
H4775 H 0.65193 0.40367 0.08097 0.0
H4776 H 0.67889 0.38958 0.10054 0.0
H4777 H 0.67408 0.40539 0.11945 0.0
H4778 H 0.69732 0.40477 0.10972 0.0
H4779 H 0.71211 0.4714 0.08068 0.0
H4780 H 0.70127 0.48857 0.10846 0.0
H4781 H 0.66636 0.44069 0.12421 0.0
C4782 C 0.68948 0.40288 0.06166 0.0
C4783 C 0.70188 0.40445 0.04634 0.0
C4784 C 0.71319 0.42086 0.04434 0.0
C4785 C 0.71188 0.43568 0.05714 0.0
C4786 C 0.69939 0.43375 0.07201 0.0
C4787 C 0.6886 0.41765 0.0745 0.0
C4788 C 0.67673 0.41887 0.09199 0.0
C4789 C 0.65569 0.41759 0.08703 0.0
C4790 C 0.68208 0.40376 0.10627 0.0
C4791 C 0.68242 0.43824 0.09889 0.0
C4792 C 0.69532 0.44669 0.08704 0.0
C4793 C 0.70217 0.46484 0.09016 0.0
C4794 C 0.69588 0.47452 0.10596 0.0
C4795 C 0.68312 0.46593 0.11862 0.0
C4796 C 0.67629 0.44756 0.11492 0.0
H4797 H 0.31088 0.5296 0.12393 0.0
H4798 H 0.36917 0.54006 0.13975 0.0
H4799 H 0.37028 0.56764 0.11914 0.0
H4800 H 0.31572 0.54329 0.07515 0.0
H4801 H 0.29311 0.55399 0.07401 0.0
H4802 H 0.29691 0.53483 0.08987 0.0
H4803 H 0.28607 0.5552 0.11761 0.0
H4804 H 0.28238 0.57447 0.10186 0.0
H4805 H 0.29762 0.57748 0.12198 0.0
H4806 H 0.36506 0.59438 0.09759 0.0
H4807 H 0.35424 0.61809 0.0753 0.0
H4808 H 0.29943 0.5904 0.07258 0.0
C4809 C 0.32392 0.5376 0.12296 0.0
C4810 C 0.33993 0.53266 0.13357 0.0
C4811 C 0.35669 0.54357 0.13191 0.0
C4812 C 0.35748 0.55929 0.1202 0.0
C4813 C 0.3414 0.5639 0.11017 0.0
C4814 C 0.32497 0.55336 0.1113 0.0
C4815 C 0.30971 0.56148 0.099 0.0
C4816 C 0.3035 0.54757 0.08359 0.0
C4817 C 0.29296 0.56752 0.11082 0.0
C4818 C 0.32017 0.57826 0.09082 0.0
C4819 C 0.33841 0.57935 0.09751 0.0
C4820 C 0.35086 0.59358 0.09212 0.0
C4821 C 0.34459 0.60694 0.07934 0.0
C4822 C 0.32605 0.60601 0.07197 0.0
C4823 C 0.31364 0.59155 0.078 0.0
loop_
_geom_bond_atom_site_label_1
_geom_bond_atom_site_label_2
_geom_bond_distance
_geom_bond_site_symmetry_2
_ccdc_geom_bond_type
C0 C1 1.351 . S
C0 N3 1.368 . S
C0 H5 0.931 1_655 S
C1 C0 1.351 . S
C1 N2 1.373 . S
C1 H29 0.930 . S
N2 C1 1.373 . S
N2 C4 1.340 . S
N3 C0 1.368 . S
N3 C4 1.321 . S
N3 Co6 2.135 1_655 S
C4 N2 1.340 . S
C4 N3 1.321 . S
C4 H28 0.930 . S
H5 C0 0.931 1_455 S
Co6 N3 2.135 1_455 S
Co6 N9 2.121 . S
Co6 O14 2.055 . S
Co6 O17 2.039 1_455 S
Co6 N20 2.140 . S
C7 O8 1.227 . S
C7 O17 1.265 . S
O8 C7 1.227 . S
N9 Co6 2.121 . S
N9 C11 1.375 . S
N9 C12 1.313 . S
C10 C11 1.338 . S
C10 N13 1.377 . S
C10 H30 0.930 . S
C11 N9 1.375 . S
C11 C10 1.338 . S
C11 H15 0.931 . S
C12 N9 1.313 . S
C12 N13 1.344 . S
C12 H16 0.930 . S
N13 C10 1.377 . S
N13 C12 1.344 . S
O14 Co6 2.055 . S
O14 C18 1.253 . S
H15 C11 0.931 . S
H16 C12 0.930 . S
O17 Co6 2.039 1_655 S
O17 C7 1.265 . S
C18 O14 1.253 . S
C18 O19 1.227 . S
O19 C18 1.227 . S
N20 Co6 2.140 . S
N20 C23 1.346 1_455 S
N20 C24 1.345 . S
C21 C22 1.387 1_455 S
C21 C25 1.391 . S
C22 C21 1.387 1_655 S
C22 C23 1.369 . S
C22 H31 0.929 . S
C23 N20 1.346 1_655 S
C23 C22 1.369 . S
C23 H26 0.928 . S
C24 N20 1.345 . S
C24 C25 1.371 . S
C24 H27 0.931 . S
C25 C21 1.391 . S
C25 C24 1.371 . S
C25 H32 0.930 . S
H26 C23 0.928 . S
H27 C24 0.931 . S
H28 C4 0.930 . S
H29 C1 0.930 . S
H30 C10 0.930 . S
H31 C22 0.929 . S
H32 C25 0.930 . S
C33 C34 1.351 . S
C33 N36 1.368 . S
C33 H38 0.931 . S
C34 C33 1.351 . S
C34 N35 1.373 . S
C34 H62 0.930 . S
N35 C34 1.373 . S
N35 C37 1.340 . S
N36 C33 1.368 . S
N36 C37 1.321 . S
N36 Co39 2.135 . S
C37 N35 1.340 . S
C37 N36 1.321 . S
C37 H61 0.930 . S
H38 C33 0.931 . S
Co39 N36 2.135 . S
Co39 N42 2.121 1_545 S
Co39 O47 2.055 1_545 S
Co39 O50 2.039 . S
Co39 N53 2.140 . S
C40 O41 1.227 . S
C40 O50 1.265 . S
O41 C40 1.227 . S
N42 Co39 2.121 1_565 S
N42 C44 1.375 . S
N42 C45 1.313 . S
C43 C44 1.338 . S
C43 N46 1.377 . S
C43 H63 0.930 . S
C44 N42 1.375 . S
C44 C43 1.338 . S
C44 H48 0.931 1_565 S
C45 N42 1.313 . S
C45 N46 1.344 . S
C45 H49 0.930 . S
N46 C43 1.377 . S
N46 C45 1.344 . S
O47 Co39 2.055 1_565 S
O47 C51 1.253 . S
H48 C44 0.931 1_545 S
H49 C45 0.930 . S
O50 Co39 2.039 . S
O50 C40 1.265 . S
C51 O47 1.253 . S
C51 O52 1.227 . S
O52 C51 1.227 . S
N53 Co39 2.140 . S
N53 C56 1.346 . S
N53 C57 1.345 1_545 S
C54 C55 1.387 . S
C54 C58 1.391 1_545 S
C55 C54 1.387 . S
C55 C56 1.369 . S
C55 H64 0.929 . S
C56 N53 1.346 . S
C56 C55 1.369 . S
C56 H59 0.928 . S
C57 N53 1.345 1_565 S
C57 C58 1.371 . S
C57 H60 0.931 . S
C58 C54 1.391 1_565 S
C58 C57 1.371 . S
C58 H65 0.930 . S
H59 C56 0.928 . S
H60 C57 0.931 . S
H61 C37 0.930 . S
H62 C34 0.930 . S
H63 C43 0.930 . S
H64 C55 0.929 . S
H65 C58 0.930 . S
C66 C67 1.351 . S
C66 N69 1.368 . S
C66 H71 0.931 1_655 S
C67 C66 1.351 . S
C67 N68 1.373 . S
C67 H95 0.930 . S
N68 C67 1.373 . S
N68 C70 1.340 . S
N69 C66 1.368 . S
N69 C70 1.321 . S
N69 Co72 2.135 1_655 S
C70 N68 1.340 . S
C70 N69 1.321 . S
C70 H94 0.930 . S
H71 C66 0.931 1_455 S
Co72 N69 2.135 1_455 S
Co72 N75 2.121 . S
Co72 O80 2.055 . S
Co72 O83 2.039 1_455 S
Co72 N86 2.140 . S
C73 O74 1.227 . S
C73 O83 1.265 . S
O74 C73 1.227 . S
N75 Co72 2.121 . S
N75 C77 1.375 . S
N75 C78 1.313 . S
C76 C77 1.338 . S
C76 N79 1.377 . S
C76 H96 0.930 . S
C77 N75 1.375 . S
C77 C76 1.338 . S
C77 H81 0.931 . S
C78 N75 1.313 . S
C78 N79 1.344 . S
C78 H82 0.930 . S
N79 C76 1.377 . S
N79 C78 1.344 . S
O80 Co72 2.055 . S
O80 C84 1.253 . S
H81 C77 0.931 . S
H82 C78 0.930 . S
O83 Co72 2.039 1_655 S
O83 C73 1.265 . S
C84 O80 1.253 . S
C84 O85 1.227 . S
O85 C84 1.227 . S
N86 Co72 2.140 . S
N86 C89 1.346 1_455 S
N86 C90 1.345 . S
C87 C88 1.387 1_455 S
C87 C91 1.391 . S
C88 C87 1.387 1_655 S
C88 C89 1.369 . S
C88 H97 0.929 . S
C89 N86 1.346 1_655 S
C89 C88 1.369 . S
C89 H92 0.928 . S
C90 N86 1.345 . S
C90 C91 1.371 . S
C90 H93 0.931 . S
C91 C87 1.391 . S
C91 C90 1.371 . S
C91 H98 0.930 . S
H92 C89 0.928 . S
H93 C90 0.931 . S
H94 C70 0.930 . S
H95 C67 0.930 . S
H96 C76 0.930 . S
H97 C88 0.929 . S
H98 C91 0.930 . S
C99 C100 1.351 . S
C99 N102 1.368 . S
C99 H104 0.931 1_565 S
C100 C99 1.351 . S
C100 N101 1.373 . S
C100 H128 0.930 . S
N101 C100 1.373 . S
N101 C103 1.340 . S
N102 C99 1.368 . S
N102 C103 1.321 . S
N102 Co105 2.135 1_565 S
C103 N101 1.340 . S
C103 N102 1.321 . S
C103 H127 0.930 . S
H104 C99 0.931 1_545 S
Co105 N102 2.135 1_545 S
Co105 N108 2.121 . S
Co105 O113 2.055 . S
Co105 O116 2.039 1_545 S
Co105 N119 2.140 . S
C106 O107 1.227 . S
C106 O116 1.265 . S
O107 C106 1.227 . S
N108 Co105 2.121 . S
N108 C110 1.375 . S
N108 C111 1.313 . S
C109 C110 1.338 . S
C109 N112 1.377 . S
C109 H129 0.930 . S
C110 N108 1.375 . S
C110 C109 1.338 . S
C110 H114 0.931 . S
C111 N108 1.313 . S
C111 N112 1.344 . S
C111 H115 0.930 . S
N112 C109 1.377 . S
N112 C111 1.344 . S
O113 Co105 2.055 . S
O113 C117 1.253 . S
H114 C110 0.931 . S
H115 C111 0.930 . S
O116 Co105 2.039 1_565 S
O116 C106 1.265 . S
C117 O113 1.253 . S
C117 O118 1.227 . S
O118 C117 1.227 . S
N119 Co105 2.140 . S
N119 C122 1.346 1_545 S
N119 C123 1.345 . S
C120 C121 1.387 1_545 S
C120 C124 1.391 . S
C121 C120 1.387 1_565 S
C121 C122 1.369 . S
C121 H130 0.929 . S
C122 N119 1.346 1_565 S
C122 C121 1.369 . S
C122 H125 0.928 . S
C123 N119 1.345 . S
C123 C124 1.371 . S
C123 H126 0.931 . S
C124 C120 1.391 . S
C124 C123 1.371 . S
C124 H131 0.930 . S
H125 C122 0.928 . S
H126 C123 0.931 . S
H127 C103 0.930 . S
H128 C100 0.930 . S
H129 C109 0.930 . S
H130 C121 0.929 . S
H131 C124 0.930 . S
C132 C133 1.351 . S
C132 N135 1.368 . S
C132 H137 0.931 . S
C133 C132 1.351 . S
C133 N134 1.373 . S
C133 H161 0.930 . S
N134 C133 1.373 . S
N134 C136 1.340 . S
N135 C132 1.368 . S
N135 C136 1.321 . S
N135 Co138 2.135 . S
C136 N134 1.340 . S
C136 N135 1.321 . S
C136 H160 0.930 . S
H137 C132 0.931 . S
Co138 N135 2.135 . S
Co138 N141 2.121 1_455 S
Co138 O146 2.055 1_455 S
Co138 O149 2.039 . S
Co138 N152 2.140 . S
C139 O140 1.227 . S
C139 O149 1.265 . S
O140 C139 1.227 . S
N141 Co138 2.121 1_655 S
N141 C143 1.375 . S
N141 C144 1.313 . S
C142 C143 1.338 . S
C142 N145 1.377 . S
C142 H162 0.930 . S
C143 N141 1.375 . S
C143 C142 1.338 . S
C143 H147 0.931 1_655 S
C144 N141 1.313 . S
C144 N145 1.344 . S
C144 H148 0.930 . S
N145 C142 1.377 . S
N145 C144 1.344 . S
O146 Co138 2.055 1_655 S
O146 C150 1.253 . S
H147 C143 0.931 1_455 S
H148 C144 0.930 . S
O149 Co138 2.039 . S
O149 C139 1.265 . S
C150 O146 1.253 . S
C150 O151 1.227 . S
O151 C150 1.227 . S
N152 Co138 2.140 . S
N152 C155 1.346 . S
N152 C156 1.345 1_455 S
C153 C154 1.387 . S
C153 C157 1.391 1_455 S
C154 C153 1.387 . S
C154 C155 1.369 . S
C154 H163 0.929 . S
C155 N152 1.346 . S
C155 C154 1.369 . S
C155 H158 0.928 . S
C156 N152 1.345 1_655 S
C156 C157 1.371 . S
C156 H159 0.931 . S
C157 C153 1.391 1_655 S
C157 C156 1.371 . S
C157 H164 0.930 . S
H158 C155 0.928 . S
H159 C156 0.931 . S
H160 C136 0.930 . S
H161 C133 0.930 . S
H162 C142 0.930 . S
H163 C154 0.929 . S
H164 C157 0.930 . S
C165 C166 1.351 . S
C165 N168 1.368 . S
C165 H170 0.931 1_565 S
C166 C165 1.351 . S
C166 N167 1.373 . S
C166 H194 0.930 . S
N167 C166 1.373 . S
N167 C169 1.340 . S
N168 C165 1.368 . S
N168 C169 1.321 . S
N168 Co171 2.135 1_565 S
C169 N167 1.340 . S
C169 N168 1.321 . S
C169 H193 0.930 . S
H170 C165 0.931 1_545 S
Co171 N168 2.135 1_545 S
Co171 N174 2.121 . S
Co171 O179 2.055 . S
Co171 O182 2.039 1_545 S
Co171 N185 2.140 . S
C172 O173 1.227 . S
C172 O182 1.265 . S
O173 C172 1.227 . S
N174 Co171 2.121 . S
N174 C176 1.375 . S
N174 C177 1.313 . S
C175 C176 1.338 . S
C175 N178 1.377 . S
C175 H195 0.930 . S
C176 N174 1.375 . S
C176 C175 1.338 . S
C176 H180 0.931 . S
C177 N174 1.313 . S
C177 N178 1.344 . S
C177 H181 0.930 . S
N178 C175 1.377 . S
N178 C177 1.344 . S
O179 Co171 2.055 . S
O179 C183 1.253 . S
H180 C176 0.931 . S
H181 C177 0.930 . S
O182 Co171 2.039 1_565 S
O182 C172 1.265 . S
C183 O179 1.253 . S
C183 O184 1.227 . S
O184 C183 1.227 . S
N185 Co171 2.140 . S
N185 C188 1.346 1_545 S
N185 C189 1.345 . S
C186 C187 1.387 1_545 S
C186 C190 1.391 . S
C187 C186 1.387 1_565 S
C187 C188 1.369 . S
C187 H196 0.929 . S
C188 N185 1.346 1_565 S
C188 C187 1.369 . S
C188 H191 0.928 . S
C189 N185 1.345 . S
C189 C190 1.371 . S
C189 H192 0.931 . S
C190 C186 1.391 . S
C190 C189 1.371 . S
C190 H197 0.930 . S
H191 C188 0.928 . S
H192 C189 0.931 . S
H193 C169 0.930 . S
H194 C166 0.930 . S
H195 C175 0.930 . S
H196 C187 0.929 . S
H197 C190 0.930 . S
C198 C199 1.351 . S
C198 N201 1.368 . S
C198 H203 0.931 1_655 S
C199 C198 1.351 . S
C199 N200 1.373 . S
C199 H227 0.930 . S
N200 C199 1.373 . S
N200 C202 1.340 . S
N201 C198 1.368 . S
N201 C202 1.321 . S
N201 Co204 2.135 1_655 S
C202 N200 1.340 . S
C202 N201 1.321 . S
C202 H226 0.930 . S
H203 C198 0.931 1_455 S
Co204 N201 2.135 1_455 S
Co204 N207 2.121 . S
Co204 O212 2.055 . S
Co204 O215 2.039 1_455 S
Co204 N218 2.140 . S
C205 O206 1.227 . S
C205 O215 1.265 . S
O206 C205 1.227 . S
N207 Co204 2.121 . S
N207 C209 1.375 . S
N207 C210 1.313 . S
C208 C209 1.338 . S
C208 N211 1.377 . S
C208 H228 0.930 . S
C209 N207 1.375 . S
C209 C208 1.338 . S
C209 H213 0.931 . S
C210 N207 1.313 . S
C210 N211 1.344 . S
C210 H214 0.930 . S
N211 C208 1.377 . S
N211 C210 1.344 . S
O212 Co204 2.055 . S
O212 C216 1.253 . S
H213 C209 0.931 . S
H214 C210 0.930 . S
O215 Co204 2.039 1_655 S
O215 C205 1.265 . S
C216 O212 1.253 . S
C216 O217 1.227 . S
O217 C216 1.227 . S
N218 Co204 2.140 . S
N218 C221 1.346 1_455 S
N218 C222 1.345 . S
C219 C220 1.352 1_455 S
C219 C223 1.429 . S
C220 C219 1.352 1_655 S
C220 C221 1.369 . S
C220 H229 0.929 . S
C221 N218 1.346 1_655 S
C221 C220 1.369 . S
C221 H224 0.928 . S
C222 N218 1.345 . S
C222 C223 1.371 . S
C222 H225 0.931 . S
C223 C219 1.429 . S
C223 C222 1.371 . S
C223 H230 0.930 . S
H224 C221 0.928 . S
H225 C222 0.931 . S
H226 C202 0.930 . S
H227 C199 0.930 . S
H228 C208 0.930 . S
H229 C220 0.929 . S
H230 C223 0.930 . S
C231 C232 1.351 . S
C231 N234 1.368 . S
C231 H236 0.931 . S
C232 C231 1.351 . S
C232 N233 1.373 . S
C232 H260 0.930 . S
N233 C232 1.373 . S
N233 C235 1.340 . S
N234 C231 1.368 . S
N234 C235 1.321 . S
N234 Co237 2.135 . S
C235 N233 1.340 . S
C235 N234 1.321 . S
C235 H259 0.930 . S
H236 C231 0.931 . S
Co237 N234 2.135 . S
Co237 N240 2.121 1_545 S
Co237 O245 2.055 1_545 S
Co237 O248 2.039 . S
Co237 N251 2.140 . S
C238 O239 1.227 . S
C238 O248 1.265 . S
O239 C238 1.227 . S
N240 Co237 2.121 1_565 S
N240 C242 1.375 . S
N240 C243 1.313 . S
C241 C242 1.338 . S
C241 N244 1.377 . S
C241 H261 0.930 . S
C242 N240 1.375 . S
C242 C241 1.338 . S
C242 H246 0.931 1_565 S
C243 N240 1.313 . S
C243 N244 1.344 . S
C243 H247 0.930 . S
N244 C241 1.377 . S
N244 C243 1.344 . S
O245 Co237 2.055 1_565 S
O245 C249 1.253 . S
H246 C242 0.931 1_545 S
H247 C243 0.930 . S
O248 Co237 2.039 . S
O248 C238 1.265 . S
C249 O245 1.253 . S
C249 O250 1.227 . S
O250 C249 1.227 . S
N251 Co237 2.140 . S
N251 C254 1.346 . S
N251 C255 1.345 1_545 S
C252 C253 1.387 . S
C252 C256 1.391 1_545 S
C253 C252 1.387 . S
C253 C254 1.369 . S
C253 H262 0.929 . S
C254 N251 1.346 . S
C254 C253 1.369 . S
C254 H257 0.928 . S
C255 N251 1.345 1_565 S
C255 C256 1.371 . S
C255 H258 0.931 . S
C256 C252 1.391 1_565 S
C256 C255 1.371 . S
C256 H263 0.930 . S
H257 C254 0.928 . S
H258 C255 0.931 . S
H259 C235 0.930 . S
H260 C232 0.930 . S
H261 C241 0.930 . S
H262 C253 0.929 . S
H263 C256 0.930 . S
C264 C265 1.351 . S
C264 N267 1.368 . S
C264 H269 0.931 1_556 S
C265 C264 1.351 . S
C265 N266 1.373 . S
C265 H293 0.930 . S
N266 C265 1.373 . S
N266 C268 1.340 . S
N267 C264 1.368 . S
N267 C268 1.321 . S
N267 Co270 2.135 1_556 S
C268 N266 1.340 . S
C268 N267 1.321 . S
C268 H292 0.930 . S
H269 C264 0.931 1_554 S
Co270 N267 2.135 1_554 S
Co270 N273 2.121 . S
Co270 O278 2.055 . S
Co270 O281 2.039 1_554 S
Co270 N284 2.140 . S
C271 O272 1.227 . S
C271 O281 1.265 . S
O272 C271 1.227 . S
N273 Co270 2.121 . S
N273 C275 1.375 . S
N273 C276 1.313 . S
C274 C275 1.338 . S
C274 N277 1.377 . S
C274 H294 0.930 . S
C275 N273 1.375 . S
C275 C274 1.338 . S
C275 H279 0.931 . S
C276 N273 1.313 . S
C276 N277 1.344 . S
C276 H280 0.930 . S
N277 C274 1.377 . S
N277 C276 1.344 . S
O278 Co270 2.055 . S
O278 C282 1.253 . S
H279 C275 0.931 . S
H280 C276 0.930 . S
O281 Co270 2.039 1_556 S
O281 C271 1.265 . S
C282 O278 1.253 . S
C282 O283 1.227 . S
O283 C282 1.227 . S
N284 Co270 2.140 . S
N284 C287 1.346 1_554 S
N284 C288 1.345 . S
C285 C286 1.387 1_554 S
C285 C289 1.391 . S
C286 C285 1.387 1_556 S
C286 C287 1.369 . S
C286 H295 0.929 . S
C287 N284 1.346 1_556 S
C287 C286 1.369 . S
C287 H290 0.928 . S
C288 N284 1.345 . S
C288 C289 1.371 . S
C288 H291 0.931 . S
C289 C285 1.391 . S
C289 C288 1.371 . S
C289 H296 0.930 . S
H290 C287 0.928 . S
H291 C288 0.931 . S
H292 C268 0.930 . S
H293 C265 0.930 . S
H294 C274 0.930 . S
H295 C286 0.929 . S
H296 C289 0.930 . S
C297 C298 1.351 . S
C297 N300 1.368 . S
C297 H302 0.931 . S
C298 C297 1.351 . S
C298 N299 1.373 . S
C298 H326 0.930 . S
N299 C298 1.373 . S
N299 C301 1.340 . S
N300 C297 1.368 . S
N300 C301 1.321 . S
N300 Co303 2.135 . S
C301 N299 1.340 . S
C301 N300 1.321 . S
C301 H325 0.930 . S
H302 C297 0.931 . S
Co303 N300 2.135 . S
Co303 N306 2.121 1_554 S
Co303 O311 2.055 1_554 S
Co303 O314 2.039 . S
Co303 N317 2.140 . S
C304 O305 1.227 . S
C304 O314 1.265 . S
O305 C304 1.227 . S
N306 Co303 2.121 1_556 S
N306 C308 1.375 . S
N306 C309 1.313 . S
C307 C308 1.338 . S
C307 N310 1.377 . S
C307 H327 0.930 . S
C308 N306 1.375 . S
C308 C307 1.338 . S
C308 H312 0.931 1_556 S
C309 N306 1.313 . S
C309 N310 1.344 . S
C309 H313 0.930 . S
N310 C307 1.377 . S
N310 C309 1.344 . S
O311 Co303 2.055 1_556 S
O311 C315 1.253 . S
H312 C308 0.931 1_554 S
H313 C309 0.930 . S
O314 Co303 2.039 . S
O314 C304 1.265 . S
C315 O311 1.253 . S
C315 O316 1.227 . S
O316 C315 1.227 . S
N317 Co303 2.140 . S
N317 C320 1.346 . S
N317 C321 1.345 1_554 S
C318 C319 1.387 . S
C318 C322 1.391 1_554 S
C319 C318 1.387 . S
C319 C320 1.369 . S
C319 H328 0.929 . S
C320 N317 1.346 . S
C320 C319 1.369 . S
C320 H323 0.928 . S
C321 N317 1.345 1_556 S
C321 C322 1.371 . S
C321 H324 0.931 . S
C322 C318 1.391 1_556 S
C322 C321 1.371 . S
C322 H329 0.930 . S
H323 C320 0.928 . S
H324 C321 0.931 . S
H325 C301 0.930 . S
H326 C298 0.930 . S
H327 C307 0.930 . S
H328 C319 0.929 . S
H329 C322 0.930 . S
C330 C331 1.351 1_554 S
C330 N333 1.368 1_554 S
C330 H335 0.931 . S
C331 C330 1.351 1_556 S
C331 N332 1.373 . S
C331 H359 0.930 . S
N332 C331 1.373 . S
N332 C334 1.340 . S
N333 C330 1.368 1_556 S
N333 C334 1.321 . S
N333 Co336 2.135 1_556 S
C334 N332 1.340 . S
C334 N333 1.321 . S
C334 H358 0.930 . S
H335 C330 0.931 . S
Co336 N333 2.135 1_554 S
Co336 N339 2.121 . S
Co336 O344 2.055 . S
Co336 O347 2.039 1_554 S
Co336 N350 2.140 . S
C337 O338 1.227 . S
C337 O347 1.265 . S
O338 C337 1.227 . S
N339 Co336 2.121 . S
N339 C341 1.375 . S
N339 C342 1.313 . S
C340 C341 1.338 . S
C340 N343 1.377 . S
C340 H360 0.930 . S
C341 N339 1.375 . S
C341 C340 1.338 . S
C341 H345 0.931 . S
C342 N339 1.313 . S
C342 N343 1.344 . S
C342 H346 0.930 . S
N343 C340 1.377 . S
N343 C342 1.344 . S
O344 Co336 2.055 . S
O344 C348 1.253 . S
H345 C341 0.931 . S
H346 C342 0.930 . S
O347 Co336 2.039 1_556 S
O347 C337 1.265 . S
C348 O344 1.253 . S
C348 O349 1.227 . S
O349 C348 1.227 . S
N350 Co336 2.140 . S
N350 C353 1.346 1_554 S
N350 C354 1.345 . S
C351 C352 1.387 1_554 S
C351 C355 1.391 . S
C352 C351 1.387 1_556 S
C352 C353 1.369 . S
C352 H361 0.929 . S
C353 N350 1.346 1_556 S
C353 C352 1.369 . S
C353 H356 0.928 . S
C354 N350 1.345 . S
C354 C355 1.371 . S
C354 H357 0.931 . S
C355 C351 1.391 . S
C355 C354 1.371 . S
C355 H362 0.930 . S
H356 C353 0.928 . S
H357 C354 0.931 . S
H358 C334 0.930 . S
H359 C331 0.930 . S
H360 C340 0.930 . S
H361 C352 0.929 . S
H362 C355 0.930 . S
C363 C364 1.351 . S
C363 N366 1.368 . S
C363 H368 0.931 1_556 S
C364 C363 1.351 . S
C364 N365 1.373 . S
C364 H392 0.930 . S
N365 C364 1.373 . S
N365 C367 1.340 . S
N366 C363 1.368 . S
N366 C367 1.321 . S
N366 Co369 2.135 1_556 S
C367 N365 1.340 . S
C367 N366 1.321 . S
C367 H391 0.930 . S
H368 C363 0.931 1_554 S
Co369 N366 2.135 1_554 S
Co369 N372 2.121 . S
Co369 O377 2.055 . S
Co369 O380 2.039 1_554 S
Co369 N383 2.140 . S
C370 O371 1.227 . S
C370 O380 1.265 . S
O371 C370 1.227 . S
N372 Co369 2.121 . S
N372 C374 1.375 . S
N372 C375 1.313 . S
C373 C374 1.338 . S
C373 N376 1.377 . S
C373 H393 0.930 . S
C374 N372 1.375 . S
C374 C373 1.338 . S
C374 H378 0.931 . S
C375 N372 1.313 . S
C375 N376 1.344 . S
C375 H379 0.930 . S
N376 C373 1.377 . S
N376 C375 1.344 . S
O377 Co369 2.055 . S
O377 C381 1.253 . S
H378 C374 0.931 . S
H379 C375 0.930 . S
O380 Co369 2.039 1_556 S
O380 C370 1.265 . S
C381 O377 1.253 . S
C381 O382 1.227 . S
O382 C381 1.227 . S
N383 Co369 2.140 . S
N383 C386 1.346 1_554 S
N383 C387 1.345 . S
C384 C385 1.387 1_554 S
C384 C388 1.391 . S
C385 C384 1.387 1_556 S
C385 C386 1.369 . S
C385 H394 0.929 . S
C386 N383 1.346 1_556 S
C386 C385 1.369 . S
C386 H389 0.928 . S
C387 N383 1.345 . S
C387 C388 1.371 . S
C387 H390 0.931 . S
C388 C384 1.391 . S
C388 C387 1.371 . S
C388 H395 0.930 . S
H389 C386 0.928 . S
H390 C387 0.931 . S
H391 C367 0.930 . S
H392 C364 0.930 . S
H393 C373 0.930 . S
H394 C385 0.929 . S
H395 C388 0.930 . S
C396 C397 1.351 . S
C396 N399 1.368 . S
C396 H401 0.931 1_655 S
C397 C396 1.351 . S
C397 N398 1.373 . S
C397 H425 0.930 . S
N398 C397 1.373 . S
N398 C400 1.340 . S
N399 C396 1.368 . S
N399 C400 1.321 . S
N399 Co402 2.135 1_655 S
C400 N398 1.340 . S
C400 N399 1.321 . S
C400 H424 0.930 . S
H401 C396 0.931 1_455 S
Co402 N399 2.135 1_455 S
Co402 N405 2.121 . S
Co402 O410 2.055 . S
Co402 O413 2.039 1_455 S
Co402 N416 2.140 . S
C403 O404 1.227 . S
C403 O413 1.265 . S
O404 C403 1.227 . S
N405 Co402 2.121 . S
N405 C407 1.375 . S
N405 C408 1.313 . S
C406 C407 1.338 . S
C406 N409 1.377 . S
C406 H426 0.930 . S
C407 N405 1.375 . S
C407 C406 1.338 . S
C407 H411 0.931 . S
C408 N405 1.313 . S
C408 N409 1.344 . S
C408 H412 0.930 . S
N409 C406 1.377 . S
N409 C408 1.344 . S
O410 Co402 2.055 . S
O410 C414 1.253 . S
H411 C407 0.931 . S
H412 C408 0.930 . S
O413 Co402 2.039 1_655 S
O413 C403 1.265 . S
C414 O410 1.253 . S
C414 O415 1.227 . S
O415 C414 1.227 . S
N416 Co402 2.140 . S
N416 C419 1.346 1_455 S
N416 C420 1.345 . S
C417 C418 1.387 1_455 S
C417 C421 1.391 . S
C418 C417 1.387 1_655 S
C418 C419 1.369 . S
C418 H427 0.929 . S
C419 N416 1.346 1_655 S
C419 C418 1.369 . S
C419 H422 0.928 . S
C420 N416 1.345 . S
C420 C421 1.371 . S
C420 H423 0.931 . S
C421 C417 1.391 . S
C421 C420 1.371 . S
C421 H428 0.930 . S
H422 C419 0.928 . S
H423 C420 0.931 . S
H424 C400 0.930 . S
H425 C397 0.930 . S
H426 C406 0.930 . S
H427 C418 0.929 . S
H428 C421 0.930 . S
C429 C430 1.351 . S
C429 N432 1.368 . S
C429 H434 0.931 . S
C430 C429 1.351 . S
C430 N431 1.373 . S
C430 H458 0.930 . S
N431 C430 1.373 . S
N431 C433 1.340 . S
N432 C429 1.368 . S
N432 C433 1.321 . S
N432 Co435 2.135 . S
C433 N431 1.340 . S
C433 N432 1.321 . S
C433 H457 0.930 . S
H434 C429 0.931 . S
Co435 N432 2.135 . S
Co435 N438 2.121 . S
Co435 O443 2.055 . S
Co435 O446 2.039 . S
Co435 N449 2.140 . S
C436 O437 1.227 . S
C436 O446 1.265 . S
O437 C436 1.227 . S
N438 Co435 2.121 . S
N438 C440 1.375 . S
N438 C441 1.313 . S
C439 C440 1.338 . S
C439 N442 1.377 . S
C439 H459 0.930 . S
C440 N438 1.375 . S
C440 C439 1.338 . S
C440 H444 0.931 . S
C441 N438 1.313 . S
C441 N442 1.344 . S
C441 H445 0.930 . S
N442 C439 1.377 . S
N442 C441 1.344 . S
O443 Co435 2.055 . S
O443 C447 1.253 . S
H444 C440 0.931 . S
H445 C441 0.930 . S
O446 Co435 2.039 . S
O446 C436 1.265 . S
C447 O443 1.253 . S
C447 O448 1.227 . S
O448 C447 1.227 . S
N449 Co435 2.140 . S
N449 C452 1.346 . S
N449 C453 1.345 . S
C450 C451 1.387 . S
C450 C454 1.391 . S
C451 C450 1.387 . S
C451 C452 1.369 . S
C451 H460 0.929 . S
C452 N449 1.346 . S
C452 C451 1.369 . S
C452 H455 0.928 . S
C453 N449 1.345 . S
C453 C454 1.371 . S
C453 H456 0.931 . S
C454 C450 1.391 . S
C454 C453 1.371 . S
C454 H461 0.930 . S
H455 C452 0.928 . S
H456 C453 0.931 . S
H457 C433 0.930 . S
H458 C430 0.930 . S
H459 C439 0.930 . S
H460 C451 0.929 . S
H461 C454 0.930 . S
C462 C463 1.351 . S
C462 N465 1.368 . S
C462 H467 0.931 1_655 S
C463 C462 1.351 . S
C463 N464 1.373 . S
C463 H491 0.930 . S
N464 C463 1.373 . S
N464 C466 1.340 . S
N465 C462 1.368 . S
N465 C466 1.321 . S
N465 Co468 2.135 1_655 S
C466 N464 1.340 . S
C466 N465 1.321 . S
C466 H490 0.930 . S
H467 C462 0.931 1_455 S
Co468 N465 2.135 1_455 S
Co468 N471 2.121 . S
Co468 O476 2.055 . S
Co468 O479 2.039 1_455 S
Co468 N482 2.140 . S
C469 O470 1.227 . S
C469 O479 1.265 . S
O470 C469 1.227 . S
N471 Co468 2.121 . S
N471 C473 1.375 . S
N471 C474 1.313 . S
C472 C473 1.338 . S
C472 N475 1.377 . S
C472 H492 0.930 . S
C473 N471 1.375 . S
C473 C472 1.338 . S
C473 H477 0.931 . S
C474 N471 1.313 . S
C474 N475 1.344 . S
C474 H478 0.930 . S
N475 C472 1.377 . S
N475 C474 1.344 . S
O476 Co468 2.055 . S
O476 C480 1.253 . S
H477 C473 0.931 . S
H478 C474 0.930 . S
O479 Co468 2.039 1_655 S
O479 C469 1.265 . S
C480 O476 1.253 . S
C480 O481 1.227 . S
O481 C480 1.227 . S
N482 Co468 2.140 . S
N482 C485 1.346 1_455 S
N482 C486 1.345 . S
C483 C484 1.387 1_455 S
C483 C487 1.391 . S
C484 C483 1.387 1_655 S
C484 C485 1.369 . S
C484 H493 0.929 . S
C485 N482 1.346 1_655 S
C485 C484 1.369 . S
C485 H488 0.928 . S
C486 N482 1.345 . S
C486 C487 1.371 . S
C486 H489 0.931 . S
C487 C483 1.391 . S
C487 C486 1.371 . S
C487 H494 0.930 . S
H488 C485 0.928 . S
H489 C486 0.931 . S
H490 C466 0.930 . S
H491 C463 0.930 . S
H492 C472 0.930 . S
H493 C484 0.929 . S
H494 C487 0.930 . S
C495 C496 1.351 . S
C495 N498 1.368 . S
C495 H500 0.931 . S
C496 C495 1.351 . S
C496 N497 1.373 . S
C496 H524 0.930 . S
N497 C496 1.373 . S
N497 C499 1.340 . S
N498 C495 1.368 . S
N498 C499 1.321 . S
N498 Co501 2.135 . S
C499 N497 1.340 . S
C499 N498 1.321 . S
C499 H523 0.930 . S
H500 C495 0.931 . S
Co501 N498 2.135 . S
Co501 N504 2.121 . S
Co501 O509 2.055 . S
Co501 O512 2.039 . S
Co501 N515 2.140 . S
C502 O503 1.227 . S
C502 O512 1.265 . S
O503 C502 1.227 . S
N504 Co501 2.121 . S
N504 C506 1.375 . S
N504 C507 1.313 . S
C505 C506 1.338 . S
C505 N508 1.377 . S
C505 H525 0.930 . S
C506 N504 1.375 . S
C506 C505 1.338 . S
C506 H510 0.931 . S
C507 N504 1.313 . S
C507 N508 1.344 . S
C507 H511 0.930 . S
N508 C505 1.377 . S
N508 C507 1.344 . S
O509 Co501 2.055 . S
O509 C513 1.253 . S
H510 C506 0.931 . S
H511 C507 0.930 . S
O512 Co501 2.039 . S
O512 C502 1.265 . S
C513 O509 1.253 . S
C513 O514 1.227 . S
O514 C513 1.227 . S
N515 Co501 2.140 . S
N515 C518 1.346 . S
N515 C519 1.345 . S
C516 C517 1.387 . S
C516 C520 1.391 . S
C517 C516 1.387 . S
C517 C518 1.369 . S
C517 H526 0.929 . S
C518 N515 1.346 . S
C518 C517 1.369 . S
C518 H521 0.928 . S
C519 N515 1.345 . S
C519 C520 1.371 . S
C519 H522 0.931 . S
C520 C516 1.391 . S
C520 C519 1.371 . S
C520 H527 0.930 . S
H521 C518 0.928 . S
H522 C519 0.931 . S
H523 C499 0.930 . S
H524 C496 0.930 . S
H525 C505 0.930 . S
H526 C517 0.929 . S
H527 C520 0.930 . S
C528 C529 1.351 . S
C528 N531 1.368 . S
C528 H533 0.931 . S
C529 C528 1.351 . S
C529 N530 1.373 . S
C529 H557 0.930 . S
N530 C529 1.373 . S
N530 C532 1.340 . S
N531 C528 1.368 . S
N531 C532 1.321 . S
N531 Co534 2.135 . S
C532 N530 1.340 . S
C532 N531 1.321 . S
C532 H556 0.930 . S
H533 C528 0.931 . S
Co534 N531 2.135 . S
Co534 N537 2.121 1_455 S
Co534 O542 2.055 1_455 S
Co534 O545 2.039 . S
Co534 N548 2.140 . S
C535 O536 1.227 . S
C535 O545 1.265 . S
O536 C535 1.227 . S
N537 Co534 2.121 1_655 S
N537 C539 1.375 . S
N537 C540 1.313 . S
C538 C539 1.338 . S
C538 N541 1.377 . S
C538 H558 0.930 . S
C539 N537 1.375 . S
C539 C538 1.338 . S
C539 H543 0.931 1_655 S
C540 N537 1.313 . S
C540 N541 1.344 . S
C540 H544 0.930 . S
N541 C538 1.377 . S
N541 C540 1.344 . S
O542 Co534 2.055 1_655 S
O542 C546 1.253 . S
H543 C539 0.931 1_455 S
H544 C540 0.930 . S
O545 Co534 2.039 . S
O545 C535 1.265 . S
C546 O542 1.253 . S
C546 O547 1.227 . S
O547 C546 1.227 . S
N548 Co534 2.140 . S
N548 C551 1.346 . S
N548 C552 1.345 1_455 S
C549 C550 1.387 . S
C549 C553 1.391 1_455 S
C550 C549 1.387 . S
C550 C551 1.369 . S
C550 H559 0.929 . S
C551 N548 1.346 . S
C551 C550 1.369 . S
C551 H554 0.928 . S
C552 N548 1.345 1_655 S
C552 C553 1.371 . S
C552 H555 0.931 . S
C553 C549 1.391 1_655 S
C553 C552 1.371 . S
C553 H560 0.930 . S
H554 C551 0.928 . S
H555 C552 0.931 . S
H556 C532 0.930 . S
H557 C529 0.930 . S
H558 C538 0.930 . S
H559 C550 0.929 . S
H560 C553 0.930 . S
C561 C562 1.351 . S
C561 N564 1.368 . S
C561 H566 0.931 . S
C562 C561 1.351 . S
C562 N563 1.373 . S
C562 H590 0.930 . S
N563 C562 1.373 . S
N563 C565 1.340 . S
N564 C561 1.368 . S
N564 C565 1.321 . S
N564 Co567 2.135 . S
C565 N563 1.340 . S
C565 N564 1.321 . S
C565 H589 0.930 . S
H566 C561 0.931 . S
Co567 N564 2.135 . S
Co567 N570 2.121 . S
Co567 O575 2.055 . S
Co567 O578 2.039 . S
Co567 N581 2.140 . S
C568 O569 1.227 . S
C568 O578 1.265 . S
O569 C568 1.227 . S
N570 Co567 2.121 . S
N570 C572 1.375 . S
N570 C573 1.313 . S
C571 C572 1.338 . S
C571 N574 1.377 . S
C571 H591 0.930 . S
C572 N570 1.375 . S
C572 C571 1.338 . S
C572 H576 0.931 . S
C573 N570 1.313 . S
C573 N574 1.344 . S
C573 H577 0.930 . S
N574 C571 1.377 . S
N574 C573 1.344 . S
O575 Co567 2.055 . S
O575 C579 1.253 . S
H576 C572 0.931 . S
H577 C573 0.930 . S
O578 Co567 2.039 . S
O578 C568 1.265 . S
C579 O575 1.253 . S
C579 O580 1.227 . S
O580 C579 1.227 . S
N581 Co567 2.140 . S
N581 C584 1.346 . S
N581 C585 1.345 . S
C582 C583 1.387 . S
C582 C586 1.391 . S
C583 C582 1.387 . S
C583 C584 1.369 . S
C583 H592 0.929 . S
C584 N581 1.346 . S
C584 C583 1.369 . S
C584 H587 0.928 . S
C585 N581 1.345 . S
C585 C586 1.371 . S
C585 H588 0.931 . S
C586 C582 1.391 . S
C586 C585 1.371 . S
C586 H593 0.930 . S
H587 C584 0.928 . S
H588 C585 0.931 . S
H589 C565 0.930 . S
H590 C562 0.930 . S
H591 C571 0.930 . S
H592 C583 0.929 . S
H593 C586 0.930 . S
C594 C595 1.351 . S
C594 N597 1.368 . S
C594 H599 0.931 1_655 S
C595 C594 1.351 . S
C595 N596 1.373 . S
C595 H623 0.930 . S
N596 C595 1.373 . S
N596 C598 1.340 . S
N597 C594 1.368 . S
N597 C598 1.321 . S
N597 Co600 2.135 1_655 S
C598 N596 1.340 . S
C598 N597 1.321 . S
C598 H622 0.930 . S
H599 C594 0.931 1_455 S
Co600 N597 2.135 1_455 S
Co600 N603 2.121 . S
Co600 O608 2.055 . S
Co600 O611 2.039 1_455 S
Co600 N614 2.140 . S
C601 O602 1.227 . S
C601 O611 1.265 . S
O602 C601 1.227 . S
N603 Co600 2.121 . S
N603 C605 1.375 . S
N603 C606 1.313 . S
C604 C605 1.338 . S
C604 N607 1.377 . S
C604 H624 0.930 . S
C605 N603 1.375 . S
C605 C604 1.338 . S
C605 H609 0.931 . S
C606 N603 1.313 . S
C606 N607 1.344 . S
C606 H610 0.930 . S
N607 C604 1.377 . S
N607 C606 1.344 . S
O608 Co600 2.055 . S
O608 C612 1.253 . S
H609 C605 0.931 . S
H610 C606 0.930 . S
O611 Co600 2.039 1_655 S
O611 C601 1.265 . S
C612 O608 1.253 . S
C612 O613 1.227 . S
O613 C612 1.227 . S
N614 Co600 2.140 . S
N614 C617 1.346 1_455 S
N614 C618 1.345 . S
C615 C616 1.387 1_455 S
C615 C619 1.391 . S
C616 C615 1.387 1_655 S
C616 C617 1.369 . S
C616 H625 0.929 . S
C617 N614 1.346 1_655 S
C617 C616 1.369 . S
C617 H620 0.928 . S
C618 N614 1.345 . S
C618 C619 1.371 . S
C618 H621 0.931 . S
C619 C615 1.391 . S
C619 C618 1.371 . S
C619 H626 0.930 . S
H620 C617 0.928 . S
H621 C618 0.931 . S
H622 C598 0.930 . S
H623 C595 0.930 . S
H624 C604 0.930 . S
H625 C616 0.929 . S
H626 C619 0.930 . S
C627 C628 1.351 . S
C627 N630 1.368 . S
C627 H632 0.931 . S
C628 C627 1.351 . S
C628 N629 1.373 . S
C628 H656 0.930 . S
N629 C628 1.373 . S
N629 C631 1.340 . S
N630 C627 1.368 . S
N630 C631 1.321 . S
N630 Co633 2.135 . S
C631 N629 1.340 . S
C631 N630 1.321 . S
C631 H655 0.930 . S
H632 C627 0.931 . S
Co633 N630 2.135 . S
Co633 N636 2.121 . S
Co633 O641 2.055 . S
Co633 O644 2.039 . S
Co633 N647 2.140 . S
C634 O635 1.227 . S
C634 O644 1.265 . S
O635 C634 1.227 . S
N636 Co633 2.121 . S
N636 C638 1.375 . S
N636 C639 1.313 . S
C637 C638 1.338 . S
C637 N640 1.377 . S
C637 H657 0.930 . S
C638 N636 1.375 . S
C638 C637 1.338 . S
C638 H642 0.931 . S
C639 N636 1.313 . S
C639 N640 1.344 . S
C639 H643 0.930 . S
N640 C637 1.377 . S
N640 C639 1.344 . S
O641 Co633 2.055 . S
O641 C645 1.253 . S
H642 C638 0.931 . S
H643 C639 0.930 . S
O644 Co633 2.039 . S
O644 C634 1.265 . S
C645 O641 1.253 . S
C645 O646 1.227 . S
O646 C645 1.227 . S
N647 Co633 2.140 . S
N647 C650 1.346 . S
N647 C651 1.345 . S
C648 C649 1.387 . S
C648 C652 1.391 . S
C649 C648 1.387 . S
C649 C650 1.369 . S
C649 H658 0.929 . S
C650 N647 1.346 . S
C650 C649 1.369 . S
C650 H653 0.928 . S
C651 N647 1.345 . S
C651 C652 1.371 . S
C651 H654 0.931 . S
C652 C648 1.391 . S
C652 C651 1.371 . S
C652 H659 0.930 . S
H653 C650 0.928 . S
H654 C651 0.931 . S
H655 C631 0.930 . S
H656 C628 0.930 . S
H657 C637 0.930 . S
H658 C649 0.929 . S
H659 C652 0.930 . S
C660 C661 1.351 . S
C660 N663 1.368 . S
C660 H665 0.931 . S
C661 C660 1.351 . S
C661 N662 1.373 . S
C661 H689 0.930 . S
N662 C661 1.373 . S
N662 C664 1.340 . S
N663 C660 1.368 . S
N663 C664 1.321 . S
N663 Co666 2.135 . S
C664 N662 1.340 . S
C664 N663 1.321 . S
C664 H688 0.930 . S
H665 C660 0.931 . S
Co666 N663 2.135 . S
Co666 N669 2.121 . S
Co666 O674 2.055 . S
Co666 O677 2.039 . S
Co666 N680 2.140 . S
C667 O668 1.227 . S
C667 O677 1.265 . S
O668 C667 1.227 . S
N669 Co666 2.121 . S
N669 C671 1.375 . S
N669 C672 1.313 . S
C670 C671 1.338 . S
C670 N673 1.377 . S
C670 H690 0.930 . S
C671 N669 1.375 . S
C671 C670 1.338 . S
C671 H675 0.931 . S
C672 N669 1.313 . S
C672 N673 1.344 . S
C672 H676 0.930 . S
N673 C670 1.377 . S
N673 C672 1.344 . S
O674 Co666 2.055 . S
O674 C678 1.253 . S
H675 C671 0.931 . S
H676 C672 0.930 . S
O677 Co666 2.039 . S
O677 C667 1.265 . S
C678 O674 1.253 . S
C678 O679 1.227 . S
O679 C678 1.227 . S
N680 Co666 2.140 . S
N680 C683 1.346 . S
N680 C684 1.345 . S
C681 C682 1.387 . S
C681 C685 1.391 . S
C682 C681 1.387 . S
C682 C683 1.369 . S
C682 H691 0.929 . S
C683 N680 1.346 . S
C683 C682 1.369 . S
C683 H686 0.928 . S
C684 N680 1.345 . S
C684 C685 1.371 . S
C684 H687 0.931 . S
C685 C681 1.391 . S
C685 C684 1.371 . S
C685 H692 0.930 . S
H686 C683 0.928 . S
H687 C684 0.931 . S
H688 C664 0.930 . S
H689 C661 0.930 . S
H690 C670 0.930 . S
H691 C682 0.929 . S
H692 C685 0.930 . S
C693 C694 1.351 . S
C693 N696 1.368 . S
C693 H698 0.931 . S
C694 C693 1.351 . S
C694 N695 1.373 . S
C694 H722 0.930 . S
N695 C694 1.373 . S
N695 C697 1.340 . S
N696 C693 1.368 . S
N696 C697 1.321 . S
N696 Co699 2.135 . S
C697 N695 1.340 . S
C697 N696 1.321 . S
C697 H721 0.930 . S
H698 C693 0.931 . S
Co699 N696 2.135 . S
Co699 N702 2.121 . S
Co699 O707 2.055 . S
Co699 O710 2.039 . S
Co699 N713 2.140 . S
C700 O701 1.227 . S
C700 O710 1.265 . S
O701 C700 1.227 . S
N702 Co699 2.121 . S
N702 C704 1.375 . S
N702 C705 1.313 . S
C703 C704 1.338 . S
C703 N706 1.377 . S
C703 H723 0.930 . S
C704 N702 1.375 . S
C704 C703 1.338 . S
C704 H708 0.931 . S
C705 N702 1.313 . S
C705 N706 1.344 . S
C705 H709 0.930 . S
N706 C703 1.377 . S
N706 C705 1.344 . S
O707 Co699 2.055 . S
O707 C711 1.253 . S
H708 C704 0.931 . S
H709 C705 0.930 . S
O710 Co699 2.039 . S
O710 C700 1.265 . S
C711 O707 1.253 . S
C711 O712 1.227 . S
O712 C711 1.227 . S
N713 Co699 2.140 . S
N713 C716 1.346 . S
N713 C717 1.345 . S
C714 C715 1.387 . S
C714 C718 1.391 . S
C715 C714 1.387 . S
C715 C716 1.369 . S
C715 H724 0.929 . S
C716 N713 1.346 . S
C716 C715 1.369 . S
C716 H719 0.928 . S
C717 N713 1.345 . S
C717 C718 1.371 . S
C717 H720 0.931 . S
C718 C714 1.391 . S
C718 C717 1.371 . S
C718 H725 0.930 . S
H719 C716 0.928 . S
H720 C717 0.931 . S
H721 C697 0.930 . S
H722 C694 0.930 . S
H723 C703 0.930 . S
H724 C715 0.929 . S
H725 C718 0.930 . S
C726 C727 1.351 . S
C726 N729 1.368 . S
C726 H731 0.931 . S
C727 C726 1.351 . S
C727 N728 1.373 . S
C727 H755 0.930 . S
N728 C727 1.373 . S
N728 C730 1.340 . S
N729 C726 1.368 . S
N729 C730 1.321 . S
N729 Co732 2.135 . S
C730 N728 1.340 . S
C730 N729 1.321 . S
C730 H754 0.930 . S
H731 C726 0.931 . S
Co732 N729 2.135 . S
Co732 N735 2.121 . S
Co732 O740 2.055 . S
Co732 O743 2.039 . S
Co732 N746 2.140 . S
C733 O734 1.227 . S
C733 O743 1.265 . S
O734 C733 1.227 . S
N735 Co732 2.121 . S
N735 C737 1.375 . S
N735 C738 1.313 . S
C736 C737 1.338 . S
C736 N739 1.377 . S
C736 H756 0.930 . S
C737 N735 1.375 . S
C737 C736 1.338 . S
C737 H741 0.931 . S
C738 N735 1.313 . S
C738 N739 1.344 . S
C738 H742 0.930 . S
N739 C736 1.377 . S
N739 C738 1.344 . S
O740 Co732 2.055 . S
O740 C744 1.253 . S
H741 C737 0.931 . S
H742 C738 0.930 . S
O743 Co732 2.039 . S
O743 C733 1.265 . S
C744 O740 1.253 . S
C744 O745 1.227 . S
O745 C744 1.227 . S
N746 Co732 2.140 . S
N746 C749 1.346 . S
N746 C750 1.345 . S
C747 C748 1.387 . S
C747 C751 1.391 . S
C748 C747 1.387 . S
C748 C749 1.369 . S
C748 H757 0.929 . S
C749 N746 1.346 . S
C749 C748 1.369 . S
C749 H752 0.928 . S
C750 N746 1.345 . S
C750 C751 1.371 . S
C750 H753 0.931 . S
C751 C747 1.391 . S
C751 C750 1.371 . S
C751 H758 0.930 . S
H752 C749 0.928 . S
H753 C750 0.931 . S
H754 C730 0.930 . S
H755 C727 0.930 . S
H756 C736 0.930 . S
H757 C748 0.929 . S
H758 C751 0.930 . S
C759 C760 1.351 . S
C759 N762 1.368 . S
C759 H764 0.931 . S
C760 C759 1.351 . S
C760 N761 1.373 . S
C760 H788 0.930 . S
N761 C760 1.373 . S
N761 C763 1.340 . S
N762 C759 1.368 . S
N762 C763 1.321 . S
N762 Co765 2.135 . S
C763 N761 1.340 . S
C763 N762 1.321 . S
C763 H787 0.930 . S
H764 C759 0.931 . S
Co765 N762 2.135 . S
Co765 N768 2.121 . S
Co765 O773 2.055 . S
Co765 O776 2.039 . S
Co765 N779 2.140 . S
C766 O767 1.227 . S
C766 O776 1.265 . S
O767 C766 1.227 . S
N768 Co765 2.121 . S
N768 C770 1.375 . S
N768 C771 1.313 . S
C769 C770 1.338 . S
C769 N772 1.377 . S
C769 H789 0.930 . S
C770 N768 1.375 . S
C770 C769 1.338 . S
C770 H774 0.931 . S
C771 N768 1.313 . S
C771 N772 1.344 . S
C771 H775 0.930 . S
N772 C769 1.377 . S
N772 C771 1.344 . S
O773 Co765 2.055 . S
O773 C777 1.253 . S
H774 C770 0.931 . S
H775 C771 0.930 . S
O776 Co765 2.039 . S
O776 C766 1.265 . S
C777 O773 1.253 . S
C777 O778 1.227 . S
O778 C777 1.227 . S
N779 Co765 2.140 . S
N779 C782 1.346 . S
N779 C783 1.345 . S
C780 C781 1.387 . S
C780 C784 1.391 . S
C781 C780 1.387 . S
C781 C782 1.369 . S
C781 H790 0.929 . S
C782 N779 1.346 . S
C782 C781 1.369 . S
C782 H785 0.928 . S
C783 N779 1.345 . S
C783 C784 1.371 . S
C783 H786 0.931 . S
C784 C780 1.391 . S
C784 C783 1.371 . S
C784 H791 0.930 . S
H785 C782 0.928 . S
H786 C783 0.931 . S
H787 C763 0.930 . S
H788 C760 0.930 . S
H789 C769 0.930 . S
H790 C781 0.929 . S
H791 C784 0.930 . S
C792 C793 1.351 . S
C792 N795 1.368 . S
C792 H797 0.931 . S
C793 C792 1.351 . S
C793 N794 1.373 . S
C793 H821 0.930 . S
N794 C793 1.373 . S
N794 C796 1.340 . S
N795 C792 1.368 . S
N795 C796 1.321 . S
N795 Co798 2.135 . S
C796 N794 1.340 . S
C796 N795 1.321 . S
C796 H820 0.930 . S
H797 C792 0.931 . S
Co798 N795 2.135 . S
Co798 N801 2.121 . S
Co798 O806 2.055 . S
Co798 O809 2.039 . S
Co798 N812 2.140 . S
C799 O800 1.227 . S
C799 O809 1.265 . S
O800 C799 1.227 . S
N801 Co798 2.121 . S
N801 C803 1.375 . S
N801 C804 1.313 . S
C802 C803 1.338 . S
C802 N805 1.377 . S
C802 H822 0.930 . S
C803 N801 1.375 . S
C803 C802 1.338 . S
C803 H807 0.931 . S
C804 N801 1.313 . S
C804 N805 1.344 . S
C804 H808 0.930 . S
N805 C802 1.377 . S
N805 C804 1.344 . S
O806 Co798 2.055 . S
O806 C810 1.253 . S
H807 C803 0.931 . S
H808 C804 0.930 . S
O809 Co798 2.039 . S
O809 C799 1.265 . S
C810 O806 1.253 . S
C810 O811 1.227 . S
O811 C810 1.227 . S
N812 Co798 2.140 . S
N812 C815 1.346 . S
N812 C816 1.345 . S
C813 C814 1.387 . S
C813 C817 1.391 . S
C814 C813 1.387 . S
C814 C815 1.369 . S
C814 H823 0.929 . S
C815 N812 1.346 . S
C815 C814 1.369 . S
C815 H818 0.928 . S
C816 N812 1.345 . S
C816 C817 1.371 . S
C816 H819 0.931 . S
C817 C813 1.391 . S
C817 C816 1.371 . S
C817 H824 0.930 . S
H818 C815 0.928 . S
H819 C816 0.931 . S
H820 C796 0.930 . S
H821 C793 0.930 . S
H822 C802 0.930 . S
H823 C814 0.929 . S
H824 C817 0.930 . S
C825 C826 1.351 . S
C825 N828 1.368 . S
C825 H830 0.931 . S
C826 C825 1.351 . S
C826 N827 1.373 . S
C826 H854 0.930 . S
N827 C826 1.373 . S
N827 C829 1.340 . S
N828 C825 1.368 . S
N828 C829 1.321 . S
N828 Co831 2.135 . S
C829 N827 1.340 . S
C829 N828 1.321 . S
C829 H853 0.930 . S
H830 C825 0.931 . S
Co831 N828 2.135 . S
Co831 N834 2.121 1_545 S
Co831 O839 2.055 1_545 S
Co831 O842 2.039 . S
Co831 N845 2.140 . S
C832 O833 1.227 . S
C832 O842 1.265 . S
O833 C832 1.227 . S
N834 Co831 2.121 1_565 S
N834 C836 1.375 . S
N834 C837 1.313 . S
C835 C836 1.338 . S
C835 N838 1.377 . S
C835 H855 0.930 . S
C836 N834 1.375 . S
C836 C835 1.338 . S
C836 H840 0.931 1_565 S
C837 N834 1.313 . S
C837 N838 1.344 . S
C837 H841 0.930 . S
N838 C835 1.377 . S
N838 C837 1.344 . S
O839 Co831 2.055 1_565 S
O839 C843 1.253 . S
H840 C836 0.931 1_545 S
H841 C837 0.930 . S
O842 Co831 2.039 . S
O842 C832 1.265 . S
C843 O839 1.253 . S
C843 O844 1.227 . S
O844 C843 1.227 . S
N845 Co831 2.140 . S
N845 C848 1.346 . S
N845 C849 1.345 1_545 S
C846 C847 1.387 . S
C846 C850 1.391 1_545 S
C847 C846 1.387 . S
C847 C848 1.369 . S
C847 H856 0.929 . S
C848 N845 1.346 . S
C848 C847 1.369 . S
C848 H851 0.928 . S
C849 N845 1.345 1_565 S
C849 C850 1.371 . S
C849 H852 0.931 . S
C850 C846 1.391 1_565 S
C850 C849 1.371 . S
C850 H857 0.930 . S
H851 C848 0.928 . S
H852 C849 0.931 . S
H853 C829 0.930 . S
H854 C826 0.930 . S
H855 C835 0.930 . S
H856 C847 0.929 . S
H857 C850 0.930 . S
C858 C859 1.351 . S
C858 N861 1.368 . S
C858 H863 0.931 . S
C859 C858 1.351 . S
C859 N860 1.373 . S
C859 H887 0.930 . S
N860 C859 1.373 . S
N860 C862 1.340 . S
N861 C858 1.368 . S
N861 C862 1.321 . S
N861 Co864 2.135 . S
C862 N860 1.340 . S
C862 N861 1.321 . S
C862 H886 0.930 . S
H863 C858 0.931 . S
Co864 N861 2.135 . S
Co864 N867 2.121 . S
Co864 O872 2.055 . S
Co864 O875 2.039 . S
Co864 N878 2.140 . S
C865 O866 1.227 . S
C865 O875 1.265 . S
O866 C865 1.227 . S
N867 Co864 2.121 . S
N867 C869 1.375 . S
N867 C870 1.313 . S
C868 C869 1.338 . S
C868 N871 1.377 . S
C868 H888 0.930 . S
C869 N867 1.375 . S
C869 C868 1.338 . S
C869 H873 0.931 . S
C870 N867 1.313 . S
C870 N871 1.344 . S
C870 H874 0.930 . S
N871 C868 1.377 . S
N871 C870 1.344 . S
O872 Co864 2.055 . S
O872 C876 1.253 . S
H873 C869 0.931 . S
H874 C870 0.930 . S
O875 Co864 2.039 . S
O875 C865 1.265 . S
C876 O872 1.253 . S
C876 O877 1.227 . S
O877 C876 1.227 . S
N878 Co864 2.140 . S
N878 C881 1.346 . S
N878 C882 1.345 . S
C879 C880 1.387 . S
C879 C883 1.391 . S
C880 C879 1.387 . S
C880 C881 1.369 . S
C880 H889 0.929 . S
C881 N878 1.346 . S
C881 C880 1.369 . S
C881 H884 0.928 . S
C882 N878 1.345 . S
C882 C883 1.371 . S
C882 H885 0.931 . S
C883 C879 1.391 . S
C883 C882 1.371 . S
C883 H890 0.930 . S
H884 C881 0.928 . S
H885 C882 0.931 . S
H886 C862 0.930 . S
H887 C859 0.930 . S
H888 C868 0.930 . S
H889 C880 0.929 . S
H890 C883 0.930 . S
C891 C892 1.351 . S
C891 N894 1.368 . S
C891 H896 0.931 1_565 S
C892 C891 1.351 . S
C892 N893 1.373 . S
C892 H920 0.930 . S
N893 C892 1.373 . S
N893 C895 1.340 . S
N894 C891 1.368 . S
N894 C895 1.321 . S
N894 Co897 2.135 1_565 S
C895 N893 1.340 . S
C895 N894 1.321 . S
C895 H919 0.930 . S
H896 C891 0.931 1_545 S
Co897 N894 2.135 1_545 S
Co897 N900 2.121 . S
Co897 O905 2.055 . S
Co897 O908 2.039 1_545 S
Co897 N911 2.140 . S
C898 O899 1.227 . S
C898 O908 1.265 . S
O899 C898 1.227 . S
N900 Co897 2.121 . S
N900 C902 1.375 . S
N900 C903 1.313 . S
C901 C902 1.338 . S
C901 N904 1.377 . S
C901 H921 0.930 . S
C902 N900 1.375 . S
C902 C901 1.338 . S
C902 H906 0.931 . S
C903 N900 1.313 . S
C903 N904 1.344 . S
C903 H907 0.930 . S
N904 C901 1.377 . S
N904 C903 1.344 . S
O905 Co897 2.055 . S
O905 C909 1.253 . S
H906 C902 0.931 . S
H907 C903 0.930 . S
O908 Co897 2.039 1_565 S
O908 C898 1.265 . S
C909 O905 1.253 . S
C909 O910 1.227 . S
O910 C909 1.227 . S
N911 Co897 2.140 . S
N911 C914 1.346 1_545 S
N911 C915 1.345 . S
C912 C913 1.387 1_545 S
C912 C916 1.391 . S
C913 C912 1.387 1_565 S
C913 C914 1.369 . S
C913 H922 0.929 . S
C914 N911 1.346 1_565 S
C914 C913 1.369 . S
C914 H917 0.928 . S
C915 N911 1.345 . S
C915 C916 1.371 . S
C915 H918 0.931 . S
C916 C912 1.391 . S
C916 C915 1.371 . S
C916 H923 0.930 . S
H917 C914 0.928 . S
H918 C915 0.931 . S
H919 C895 0.930 . S
H920 C892 0.930 . S
H921 C901 0.930 . S
H922 C913 0.929 . S
H923 C916 0.930 . S
C924 C925 1.351 . S
C924 N927 1.368 . S
C924 H929 0.931 . S
C925 C924 1.351 . S
C925 N926 1.373 . S
C925 H953 0.930 . S
N926 C925 1.373 . S
N926 C928 1.340 . S
N927 C924 1.368 . S
N927 C928 1.321 . S
N927 Co930 2.135 . S
C928 N926 1.340 . S
C928 N927 1.321 . S
C928 H952 0.930 . S
H929 C924 0.931 . S
Co930 N927 2.135 . S
Co930 N933 2.121 . S
Co930 O938 2.055 . S
Co930 O941 2.039 . S
Co930 N944 2.140 . S
C931 O932 1.227 . S
C931 O941 1.265 . S
O932 C931 1.227 . S
N933 Co930 2.121 . S
N933 C935 1.375 . S
N933 C936 1.313 . S
C934 C935 1.338 . S
C934 N937 1.377 . S
C934 H954 0.930 . S
C935 N933 1.375 . S
C935 C934 1.338 . S
C935 H939 0.931 . S
C936 N933 1.313 . S
C936 N937 1.344 . S
C936 H940 0.930 . S
N937 C934 1.377 . S
N937 C936 1.344 . S
O938 Co930 2.055 . S
O938 C942 1.253 . S
H939 C935 0.931 . S
H940 C936 0.930 . S
O941 Co930 2.039 . S
O941 C931 1.265 . S
C942 O938 1.253 . S
C942 O943 1.227 . S
O943 C942 1.227 . S
N944 Co930 2.140 . S
N944 C947 1.346 . S
N944 C948 1.345 . S
C945 C946 1.387 . S
C945 C949 1.391 . S
C946 C945 1.387 . S
C946 C947 1.369 . S
C946 H955 0.929 . S
C947 N944 1.346 . S
C947 C946 1.369 . S
C947 H950 0.928 . S
C948 N944 1.345 . S
C948 C949 1.371 . S
C948 H951 0.931 . S
C949 C945 1.391 . S
C949 C948 1.371 . S
C949 H956 0.930 . S
H950 C947 0.928 . S
H951 C948 0.931 . S
H952 C928 0.930 . S
H953 C925 0.930 . S
H954 C934 0.930 . S
H955 C946 0.929 . S
H956 C949 0.930 . S
C957 C958 1.351 . S
C957 N960 1.368 . S
C957 H962 0.931 1_565 S
C958 C957 1.351 . S
C958 N959 1.373 . S
C958 H986 0.930 . S
N959 C958 1.373 . S
N959 C961 1.340 . S
N960 C957 1.368 . S
N960 C961 1.321 . S
N960 Co963 2.135 1_565 S
C961 N959 1.340 . S
C961 N960 1.321 . S
C961 H985 0.930 . S
H962 C957 0.931 1_545 S
Co963 N960 2.135 1_545 S
Co963 N966 2.121 . S
Co963 O971 2.055 . S
Co963 O974 2.039 1_545 S
Co963 N977 2.140 . S
C964 O965 1.227 . S
C964 O974 1.265 . S
O965 C964 1.227 . S
N966 Co963 2.121 . S
N966 C968 1.375 . S
N966 C969 1.313 . S
C967 C968 1.338 . S
C967 N970 1.377 . S
C967 H987 0.930 . S
C968 N966 1.375 . S
C968 C967 1.338 . S
C968 H972 0.931 . S
C969 N966 1.313 . S
C969 N970 1.344 . S
C969 H973 0.930 . S
N970 C967 1.377 . S
N970 C969 1.344 . S
O971 Co963 2.055 . S
O971 C975 1.253 . S
H972 C968 0.931 . S
H973 C969 0.930 . S
O974 Co963 2.039 1_565 S
O974 C964 1.265 . S
C975 O971 1.253 . S
C975 O976 1.227 . S
O976 C975 1.227 . S
N977 Co963 2.140 . S
N977 C980 1.346 1_545 S
N977 C981 1.345 . S
C978 C979 1.387 1_545 S
C978 C982 1.391 . S
C979 C978 1.387 1_565 S
C979 C980 1.369 . S
C979 H988 0.929 . S
C980 N977 1.346 1_565 S
C980 C979 1.369 . S
C980 H983 0.928 . S
C981 N977 1.345 . S
C981 C982 1.371 . S
C981 H984 0.931 . S
C982 C978 1.391 . S
C982 C981 1.371 . S
C982 H989 0.930 . S
H983 C980 0.928 . S
H984 C981 0.931 . S
H985 C961 0.930 . S
H986 C958 0.930 . S
H987 C967 0.930 . S
H988 C979 0.929 . S
H989 C982 0.930 . S
C990 C991 1.351 . S
C990 N993 1.368 . S
C990 H995 0.931 . S
C991 C990 1.351 . S
C991 N992 1.373 . S
C991 H1019 0.930 . S
N992 C991 1.373 . S
N992 C994 1.340 . S
N993 C990 1.368 . S
N993 C994 1.321 . S
N993 Co996 2.135 . S
C994 N992 1.340 . S
C994 N993 1.321 . S
C994 H1018 0.930 . S
H995 C990 0.931 . S
Co996 N993 2.135 . S
Co996 N999 2.121 . S
Co996 O1004 2.055 . S
Co996 O1007 2.039 . S
Co996 N1010 2.140 . S
C997 O998 1.227 . S
C997 O1007 1.265 . S
O998 C997 1.227 . S
N999 Co996 2.121 . S
N999 C1001 1.375 . S
N999 C1002 1.313 . S
C1000 C1001 1.338 . S
C1000 N1003 1.377 . S
C1000 H1020 0.930 . S
C1001 N999 1.375 . S
C1001 C1000 1.338 . S
C1001 H1005 0.931 . S
C1002 N999 1.313 . S
C1002 N1003 1.344 . S
C1002 H1006 0.930 . S
N1003 C1000 1.377 . S
N1003 C1002 1.344 . S
O1004 Co996 2.055 . S
O1004 C1008 1.253 . S
H1005 C1001 0.931 . S
H1006 C1002 0.930 . S
O1007 Co996 2.039 . S
O1007 C997 1.265 . S
C1008 O1004 1.253 . S
C1008 O1009 1.227 . S
O1009 C1008 1.227 . S
N1010 Co996 2.140 . S
N1010 C1013 1.346 . S
N1010 C1014 1.345 . S
C1011 C1012 1.387 . S
C1011 C1015 1.391 . S
C1012 C1011 1.387 . S
C1012 C1013 1.369 . S
C1012 H1021 0.929 . S
C1013 N1010 1.346 . S
C1013 C1012 1.369 . S
C1013 H1016 0.928 . S
C1014 N1010 1.345 . S
C1014 C1015 1.371 . S
C1014 H1017 0.931 . S
C1015 C1011 1.391 . S
C1015 C1014 1.371 . S
C1015 H1022 0.930 . S
H1016 C1013 0.928 . S
H1017 C1014 0.931 . S
H1018 C994 0.930 . S
H1019 C991 0.930 . S
H1020 C1000 0.930 . S
H1021 C1012 0.929 . S
H1022 C1015 0.930 . S
C1023 C1024 1.351 . S
C1023 N1026 1.368 . S
C1023 H1028 0.931 . S
C1024 C1023 1.351 . S
C1024 N1025 1.373 . S
C1024 H1052 0.930 . S
N1025 C1024 1.373 . S
N1025 C1027 1.340 . S
N1026 C1023 1.368 . S
N1026 C1027 1.321 . S
N1026 Co1029 2.135 . S
C1027 N1025 1.340 . S
C1027 N1026 1.321 . S
C1027 H1051 0.930 . S
H1028 C1023 0.931 . S
Co1029 N1026 2.135 . S
Co1029 N1032 2.121 1_545 S
Co1029 O1037 2.055 1_545 S
Co1029 O1040 2.039 . S
Co1029 N1043 2.140 . S
C1030 O1031 1.227 . S
C1030 O1040 1.265 . S
O1031 C1030 1.227 . S
N1032 Co1029 2.121 1_565 S
N1032 C1034 1.375 . S
N1032 C1035 1.313 . S
C1033 C1034 1.338 . S
C1033 N1036 1.377 . S
C1033 H1053 0.930 . S
C1034 N1032 1.375 . S
C1034 C1033 1.338 . S
C1034 H1038 0.931 1_565 S
C1035 N1032 1.313 . S
C1035 N1036 1.344 . S
C1035 H1039 0.930 . S
N1036 C1033 1.377 . S
N1036 C1035 1.344 . S
O1037 Co1029 2.055 1_565 S
O1037 C1041 1.253 . S
H1038 C1034 0.931 1_545 S
H1039 C1035 0.930 . S
O1040 Co1029 2.039 . S
O1040 C1030 1.265 . S
C1041 O1037 1.253 . S
C1041 O1042 1.227 . S
O1042 C1041 1.227 . S
N1043 Co1029 2.140 . S
N1043 C1046 1.346 . S
N1043 C1047 1.345 1_545 S
C1044 C1045 1.387 . S
C1044 C1048 1.391 1_545 S
C1045 C1044 1.387 . S
C1045 C1046 1.369 . S
C1045 H1054 0.929 . S
C1046 N1043 1.346 . S
C1046 C1045 1.369 . S
C1046 H1049 0.928 . S
C1047 N1043 1.345 1_565 S
C1047 C1048 1.371 . S
C1047 H1050 0.931 . S
C1048 C1044 1.391 1_565 S
C1048 C1047 1.371 . S
C1048 H1055 0.930 . S
H1049 C1046 0.928 . S
H1050 C1047 0.931 . S
H1051 C1027 0.930 . S
H1052 C1024 0.930 . S
H1053 C1033 0.930 . S
H1054 C1045 0.929 . S
H1055 C1048 0.930 . S
C1056 C1057 1.351 . S
C1056 N1059 1.368 . S
C1056 H1061 0.931 . S
C1057 C1056 1.351 . S
C1057 N1058 1.373 . S
C1057 H1085 0.930 . S
N1058 C1057 1.373 . S
N1058 C1060 1.340 . S
N1059 C1056 1.368 . S
N1059 C1060 1.321 . S
N1059 Co1062 2.135 . S
C1060 N1058 1.340 . S
C1060 N1059 1.321 . S
C1060 H1084 0.930 . S
H1061 C1056 0.931 . S
Co1062 N1059 2.135 . S
Co1062 N1065 2.121 . S
Co1062 O1070 2.055 . S
Co1062 O1073 2.039 . S
Co1062 N1076 2.140 . S
C1063 O1064 1.227 . S
C1063 O1073 1.265 . S
O1064 C1063 1.227 . S
N1065 Co1062 2.121 . S
N1065 C1067 1.375 . S
N1065 C1068 1.313 . S
C1066 C1067 1.338 . S
C1066 N1069 1.377 . S
C1066 H1086 0.930 . S
C1067 N1065 1.375 . S
C1067 C1066 1.338 . S
C1067 H1071 0.931 . S
C1068 N1065 1.313 . S
C1068 N1069 1.344 . S
C1068 H1072 0.930 . S
N1069 C1066 1.377 . S
N1069 C1068 1.344 . S
O1070 Co1062 2.055 . S
O1070 C1074 1.253 . S
H1071 C1067 0.931 . S
H1072 C1068 0.930 . S
O1073 Co1062 2.039 . S
O1073 C1063 1.265 . S
C1074 O1070 1.253 . S
C1074 O1075 1.227 . S
O1075 C1074 1.227 . S
N1076 Co1062 2.140 . S
N1076 C1079 1.346 . S
N1076 C1080 1.345 . S
C1077 C1078 1.387 . S
C1077 C1081 1.391 . S
C1078 C1077 1.387 . S
C1078 C1079 1.369 . S
C1078 H1087 0.929 . S
C1079 N1076 1.346 . S
C1079 C1078 1.369 . S
C1079 H1082 0.928 . S
C1080 N1076 1.345 . S
C1080 C1081 1.371 . S
C1080 H1083 0.931 . S
C1081 C1077 1.391 . S
C1081 C1080 1.371 . S
C1081 H1088 0.930 . S
H1082 C1079 0.928 . S
H1083 C1080 0.931 . S
H1084 C1060 0.930 . S
H1085 C1057 0.930 . S
H1086 C1066 0.930 . S
H1087 C1078 0.929 . S
H1088 C1081 0.930 . S
C1089 C1090 1.351 . S
C1089 N1092 1.368 . S
C1089 H1094 0.931 . S
C1090 C1089 1.351 . S
C1090 N1091 1.373 . S
C1090 H1118 0.930 . S
N1091 C1090 1.373 . S
N1091 C1093 1.340 . S
N1092 C1089 1.368 . S
N1092 C1093 1.321 . S
N1092 Co1095 2.135 . S
C1093 N1091 1.340 . S
C1093 N1092 1.321 . S
C1093 H1117 0.930 . S
H1094 C1089 0.931 . S
Co1095 N1092 2.135 . S
Co1095 N1098 2.121 . S
Co1095 O1103 2.055 . S
Co1095 O1106 2.039 . S
Co1095 N1109 2.140 . S
C1096 O1097 1.227 . S
C1096 O1106 1.265 . S
O1097 C1096 1.227 . S
N1098 Co1095 2.121 . S
N1098 C1100 1.375 . S
N1098 C1101 1.313 . S
C1099 C1100 1.338 . S
C1099 N1102 1.377 . S
C1099 H1119 0.930 . S
C1100 N1098 1.375 . S
C1100 C1099 1.338 . S
C1100 H1104 0.931 . S
C1101 N1098 1.313 . S
C1101 N1102 1.344 . S
C1101 H1105 0.930 . S
N1102 C1099 1.377 . S
N1102 C1101 1.344 . S
O1103 Co1095 2.055 . S
O1103 C1107 1.253 . S
H1104 C1100 0.931 . S
H1105 C1101 0.930 . S
O1106 Co1095 2.039 . S
O1106 C1096 1.265 . S
C1107 O1103 1.253 . S
C1107 O1108 1.227 . S
O1108 C1107 1.227 . S
N1109 Co1095 2.140 . S
N1109 C1112 1.346 . S
N1109 C1113 1.345 . S
C1110 C1111 1.387 . S
C1110 C1114 1.391 . S
C1111 C1110 1.387 . S
C1111 C1112 1.369 . S
C1111 H1120 0.929 . S
C1112 N1109 1.346 . S
C1112 C1111 1.369 . S
C1112 H1115 0.928 . S
C1113 N1109 1.345 . S
C1113 C1114 1.371 . S
C1113 H1116 0.931 . S
C1114 C1110 1.391 . S
C1114 C1113 1.371 . S
C1114 H1121 0.930 . S
H1115 C1112 0.928 . S
H1116 C1113 0.931 . S
H1117 C1093 0.930 . S
H1118 C1090 0.930 . S
H1119 C1099 0.930 . S
H1120 C1111 0.929 . S
H1121 C1114 0.930 . S
C1122 C1123 1.351 . S
C1122 N1125 1.368 . S
C1122 H1127 0.931 . S
C1123 C1122 1.351 . S
C1123 N1124 1.373 . S
C1123 H1151 0.930 . S
N1124 C1123 1.373 . S
N1124 C1126 1.340 . S
N1125 C1122 1.368 . S
N1125 C1126 1.321 . S
N1125 Co1128 2.135 . S
C1126 N1124 1.340 . S
C1126 N1125 1.321 . S
C1126 H1150 0.930 . S
H1127 C1122 0.931 . S
Co1128 N1125 2.135 . S
Co1128 N1131 2.121 . S
Co1128 O1136 2.055 . S
Co1128 O1139 2.039 . S
Co1128 N1142 2.140 . S
C1129 O1130 1.227 . S
C1129 O1139 1.265 . S
O1130 C1129 1.227 . S
N1131 Co1128 2.121 . S
N1131 C1133 1.375 . S
N1131 C1134 1.313 . S
C1132 C1133 1.338 . S
C1132 N1135 1.377 . S
C1132 H1152 0.930 . S
C1133 N1131 1.375 . S
C1133 C1132 1.338 . S
C1133 H1137 0.931 . S
C1134 N1131 1.313 . S
C1134 N1135 1.344 . S
C1134 H1138 0.930 . S
N1135 C1132 1.377 . S
N1135 C1134 1.344 . S
O1136 Co1128 2.055 . S
O1136 C1140 1.253 . S
H1137 C1133 0.931 . S
H1138 C1134 0.930 . S
O1139 Co1128 2.039 . S
O1139 C1129 1.265 . S
C1140 O1136 1.253 . S
C1140 O1141 1.227 . S
O1141 C1140 1.227 . S
N1142 Co1128 2.140 . S
N1142 C1145 1.346 . S
N1142 C1146 1.345 . S
C1143 C1144 1.387 . S
C1143 C1147 1.391 . S
C1144 C1143 1.387 . S
C1144 C1145 1.369 . S
C1144 H1153 0.929 . S
C1145 N1142 1.346 . S
C1145 C1144 1.369 . S
C1145 H1148 0.928 . S
C1146 N1142 1.345 . S
C1146 C1147 1.371 . S
C1146 H1149 0.931 . S
C1147 C1143 1.391 . S
C1147 C1146 1.371 . S
C1147 H1154 0.930 . S
H1148 C1145 0.928 . S
H1149 C1146 0.931 . S
H1150 C1126 0.930 . S
H1151 C1123 0.930 . S
H1152 C1132 0.930 . S
H1153 C1144 0.929 . S
H1154 C1147 0.930 . S
C1155 C1156 1.351 . S
C1155 N1158 1.368 . S
C1155 H1160 0.931 . S
C1156 C1155 1.351 . S
C1156 N1157 1.373 . S
C1156 H1184 0.930 . S
N1157 C1156 1.373 . S
N1157 C1159 1.340 . S
N1158 C1155 1.368 . S
N1158 C1159 1.321 . S
N1158 Co1161 2.135 . S
C1159 N1157 1.340 . S
C1159 N1158 1.321 . S
C1159 H1183 0.930 . S
H1160 C1155 0.931 . S
Co1161 N1158 2.135 . S
Co1161 N1164 2.121 . S
Co1161 O1169 2.055 . S
Co1161 O1172 2.039 . S
Co1161 N1175 2.140 . S
C1162 O1163 1.227 . S
C1162 O1172 1.265 . S
O1163 C1162 1.227 . S
N1164 Co1161 2.121 . S
N1164 C1166 1.375 . S
N1164 C1167 1.313 . S
C1165 C1166 1.338 . S
C1165 N1168 1.377 . S
C1165 H1185 0.930 . S
C1166 N1164 1.375 . S
C1166 C1165 1.338 . S
C1166 H1170 0.931 . S
C1167 N1164 1.313 . S
C1167 N1168 1.344 . S
C1167 H1171 0.930 . S
N1168 C1165 1.377 . S
N1168 C1167 1.344 . S
O1169 Co1161 2.055 . S
O1169 C1173 1.253 . S
H1170 C1166 0.931 . S
H1171 C1167 0.930 . S
O1172 Co1161 2.039 . S
O1172 C1162 1.265 . S
C1173 O1169 1.253 . S
C1173 O1174 1.227 . S
O1174 C1173 1.227 . S
N1175 Co1161 2.140 . S
N1175 C1178 1.346 . S
N1175 C1179 1.345 . S
C1176 C1177 1.387 . S
C1176 C1180 1.391 . S
C1177 C1176 1.387 . S
C1177 C1178 1.369 . S
C1177 H1186 0.929 . S
C1178 N1175 1.346 . S
C1178 C1177 1.369 . S
C1178 H1181 0.928 . S
C1179 N1175 1.345 . S
C1179 C1180 1.371 . S
C1179 H1182 0.931 . S
C1180 C1176 1.391 . S
C1180 C1179 1.371 . S
C1180 H1187 0.930 . S
H1181 C1178 0.928 . S
H1182 C1179 0.931 . S
H1183 C1159 0.930 . S
H1184 C1156 0.930 . S
H1185 C1165 0.930 . S
H1186 C1177 0.929 . S
H1187 C1180 0.930 . S
C1188 C1189 1.351 . S
C1188 N1191 1.368 . S
C1188 H1193 0.931 . S
C1189 C1188 1.351 . S
C1189 N1190 1.373 . S
C1189 H1217 0.930 . S
N1190 C1189 1.373 . S
N1190 C1192 1.340 . S
N1191 C1188 1.368 . S
N1191 C1192 1.321 . S
N1191 Co1194 2.135 . S
C1192 N1190 1.340 . S
C1192 N1191 1.321 . S
C1192 H1216 0.930 . S
H1193 C1188 0.931 . S
Co1194 N1191 2.135 . S
Co1194 N1197 2.121 . S
Co1194 O1202 2.055 . S
Co1194 O1205 2.039 . S
Co1194 N1208 2.140 . S
C1195 O1196 1.227 . S
C1195 O1205 1.265 . S
O1196 C1195 1.227 . S
N1197 Co1194 2.121 . S
N1197 C1199 1.375 . S
N1197 C1200 1.313 . S
C1198 C1199 1.338 . S
C1198 N1201 1.377 . S
C1198 H1218 0.930 . S
C1199 N1197 1.375 . S
C1199 C1198 1.338 . S
C1199 H1203 0.931 . S
C1200 N1197 1.313 . S
C1200 N1201 1.344 . S
C1200 H1204 0.930 . S
N1201 C1198 1.377 . S
N1201 C1200 1.344 . S
O1202 Co1194 2.055 . S
O1202 C1206 1.253 . S
H1203 C1199 0.931 . S
H1204 C1200 0.930 . S
O1205 Co1194 2.039 . S
O1205 C1195 1.265 . S
C1206 O1202 1.253 . S
C1206 O1207 1.227 . S
O1207 C1206 1.227 . S
N1208 Co1194 2.140 . S
N1208 C1211 1.346 . S
N1208 C1212 1.345 . S
C1209 C1210 1.387 . S
C1209 C1213 1.391 . S
C1210 C1209 1.387 . S
C1210 C1211 1.369 . S
C1210 H1219 0.929 . S
C1211 N1208 1.346 . S
C1211 C1210 1.369 . S
C1211 H1214 0.928 . S
C1212 N1208 1.345 . S
C1212 C1213 1.371 . S
C1212 H1215 0.931 . S
C1213 C1209 1.391 . S
C1213 C1212 1.371 . S
C1213 H1220 0.930 . S
H1214 C1211 0.928 . S
H1215 C1212 0.931 . S
H1216 C1192 0.930 . S
H1217 C1189 0.930 . S
H1218 C1198 0.930 . S
H1219 C1210 0.929 . S
H1220 C1213 0.930 . S
C1221 C1222 1.351 . S
C1221 N1224 1.368 . S
C1221 H1226 0.931 . S
C1222 C1221 1.351 . S
C1222 N1223 1.373 . S
C1222 H1250 0.930 . S
N1223 C1222 1.373 . S
N1223 C1225 1.340 . S
N1224 C1221 1.368 . S
N1224 C1225 1.321 . S
N1224 Co1227 2.135 . S
C1225 N1223 1.340 . S
C1225 N1224 1.321 . S
C1225 H1249 0.930 . S
H1226 C1221 0.931 . S
Co1227 N1224 2.135 . S
Co1227 N1230 2.121 . S
Co1227 O1235 2.055 . S
Co1227 O1238 2.039 . S
Co1227 N1241 2.140 . S
C1228 O1229 1.227 . S
C1228 O1238 1.265 . S
O1229 C1228 1.227 . S
N1230 Co1227 2.121 . S
N1230 C1232 1.375 . S
N1230 C1233 1.313 . S
C1231 C1232 1.338 . S
C1231 N1234 1.377 . S
C1231 H1251 0.930 . S
C1232 N1230 1.375 . S
C1232 C1231 1.338 . S
C1232 H1236 0.931 . S
C1233 N1230 1.313 . S
C1233 N1234 1.344 . S
C1233 H1237 0.930 . S
N1234 C1231 1.377 . S
N1234 C1233 1.344 . S
O1235 Co1227 2.055 . S
O1235 C1239 1.253 . S
H1236 C1232 0.931 . S
H1237 C1233 0.930 . S
O1238 Co1227 2.039 . S
O1238 C1228 1.265 . S
C1239 O1235 1.253 . S
C1239 O1240 1.227 . S
O1240 C1239 1.227 . S
N1241 Co1227 2.140 . S
N1241 C1244 1.346 . S
N1241 C1245 1.345 . S
C1242 C1243 1.387 . S
C1242 C1246 1.391 . S
C1243 C1242 1.387 . S
C1243 C1244 1.369 . S
C1243 H1252 0.929 . S
C1244 N1241 1.346 . S
C1244 C1243 1.369 . S
C1244 H1247 0.928 . S
C1245 N1241 1.345 . S
C1245 C1246 1.371 . S
C1245 H1248 0.931 . S
C1246 C1242 1.391 . S
C1246 C1245 1.371 . S
C1246 H1253 0.930 . S
H1247 C1244 0.928 . S
H1248 C1245 0.931 . S
H1249 C1225 0.930 . S
H1250 C1222 0.930 . S
H1251 C1231 0.930 . S
H1252 C1243 0.929 . S
H1253 C1246 0.930 . S
C1254 C1255 1.351 . S
C1254 N1257 1.368 . S
C1254 H1259 0.931 . S
C1255 C1254 1.351 . S
C1255 N1256 1.373 . S
C1255 H1283 0.930 . S
N1256 C1255 1.373 . S
N1256 C1258 1.340 . S
N1257 C1254 1.368 . S
N1257 C1258 1.321 . S
N1257 Co1260 2.135 . S
C1258 N1256 1.340 . S
C1258 N1257 1.321 . S
C1258 H1282 0.930 . S
H1259 C1254 0.931 . S
Co1260 N1257 2.135 . S
Co1260 N1263 2.121 . S
Co1260 O1268 2.055 . S
Co1260 O1271 2.039 . S
Co1260 N1274 2.140 . S
C1261 O1262 1.227 . S
C1261 O1271 1.265 . S
O1262 C1261 1.227 . S
N1263 Co1260 2.121 . S
N1263 C1265 1.375 . S
N1263 C1266 1.313 . S
C1264 C1265 1.338 . S
C1264 N1267 1.377 . S
C1264 H1284 0.930 . S
C1265 N1263 1.375 . S
C1265 C1264 1.338 . S
C1265 H1269 0.931 . S
C1266 N1263 1.313 . S
C1266 N1267 1.344 . S
C1266 H1270 0.930 . S
N1267 C1264 1.377 . S
N1267 C1266 1.344 . S
O1268 Co1260 2.055 . S
O1268 C1272 1.253 . S
H1269 C1265 0.931 . S
H1270 C1266 0.930 . S
O1271 Co1260 2.039 . S
O1271 C1261 1.265 . S
C1272 O1268 1.253 . S
C1272 O1273 1.227 . S
O1273 C1272 1.227 . S
N1274 Co1260 2.140 . S
N1274 C1277 1.346 . S
N1274 C1278 1.345 . S
C1275 C1276 1.387 . S
C1275 C1279 1.391 . S
C1276 C1275 1.387 . S
C1276 C1277 1.369 . S
C1276 H1285 0.929 . S
C1277 N1274 1.346 . S
C1277 C1276 1.369 . S
C1277 H1280 0.928 . S
C1278 N1274 1.345 . S
C1278 C1279 1.371 . S
C1278 H1281 0.931 . S
C1279 C1275 1.391 . S
C1279 C1278 1.371 . S
C1279 H1286 0.930 . S
H1280 C1277 0.928 . S
H1281 C1278 0.931 . S
H1282 C1258 0.930 . S
H1283 C1255 0.930 . S
H1284 C1264 0.930 . S
H1285 C1276 0.929 . S
H1286 C1279 0.930 . S
C1287 C1288 1.351 . S
C1287 N1290 1.368 . S
C1287 H1292 0.931 . S
C1288 C1287 1.351 . S
C1288 N1289 1.373 . S
C1288 H1316 0.930 . S
N1289 C1288 1.373 . S
N1289 C1291 1.340 . S
N1290 C1287 1.368 . S
N1290 C1291 1.321 . S
N1290 Co1293 2.135 . S
C1291 N1289 1.340 . S
C1291 N1290 1.321 . S
C1291 H1315 0.930 . S
H1292 C1287 0.931 . S
Co1293 N1290 2.135 . S
Co1293 N1296 2.121 . S
Co1293 O1301 2.055 . S
Co1293 O1304 2.039 . S
Co1293 N1307 2.140 . S
C1294 O1295 1.227 . S
C1294 O1304 1.265 . S
O1295 C1294 1.227 . S
N1296 Co1293 2.121 . S
N1296 C1298 1.375 . S
N1296 C1299 1.313 . S
C1297 C1298 1.338 . S
C1297 N1300 1.377 . S
C1297 H1317 0.930 . S
C1298 N1296 1.375 . S
C1298 C1297 1.338 . S
C1298 H1302 0.931 . S
C1299 N1296 1.313 . S
C1299 N1300 1.344 . S
C1299 H1303 0.930 . S
N1300 C1297 1.377 . S
N1300 C1299 1.344 . S
O1301 Co1293 2.055 . S
O1301 C1305 1.253 . S
H1302 C1298 0.931 . S
H1303 C1299 0.930 . S
O1304 Co1293 2.039 . S
O1304 C1294 1.265 . S
C1305 O1301 1.253 . S
C1305 O1306 1.227 . S
O1306 C1305 1.227 . S
N1307 Co1293 2.140 . S
N1307 C1310 1.346 . S
N1307 C1311 1.345 . S
C1308 C1309 1.387 . S
C1308 C1312 1.391 . S
C1309 C1308 1.387 . S
C1309 C1310 1.369 . S
C1309 H1318 0.929 . S
C1310 N1307 1.346 . S
C1310 C1309 1.369 . S
C1310 H1313 0.928 . S
C1311 N1307 1.345 . S
C1311 C1312 1.371 . S
C1311 H1314 0.931 . S
C1312 C1308 1.391 . S
C1312 C1311 1.371 . S
C1312 H1319 0.930 . S
H1313 C1310 0.928 . S
H1314 C1311 0.931 . S
H1315 C1291 0.930 . S
H1316 C1288 0.930 . S
H1317 C1297 0.930 . S
H1318 C1309 0.929 . S
H1319 C1312 0.930 . S
C1320 C1321 1.351 . S
C1320 N1323 1.368 . S
C1320 H1325 0.931 . S
C1321 C1320 1.351 . S
C1321 N1322 1.373 . S
C1321 H1349 0.930 . S
N1322 C1321 1.373 . S
N1322 C1324 1.340 . S
N1323 C1320 1.368 . S
N1323 C1324 1.321 . S
N1323 Co1326 2.135 . S
C1324 N1322 1.340 . S
C1324 N1323 1.321 . S
C1324 H1348 0.930 . S
H1325 C1320 0.931 . S
Co1326 N1323 2.135 . S
Co1326 N1329 2.121 . S
Co1326 O1334 2.055 . S
Co1326 O1337 2.039 . S
Co1326 N1340 2.140 . S
C1327 O1328 1.227 . S
C1327 O1337 1.265 . S
O1328 C1327 1.227 . S
N1329 Co1326 2.121 . S
N1329 C1331 1.375 . S
N1329 C1332 1.313 . S
C1330 C1331 1.338 . S
C1330 N1333 1.377 . S
C1330 H1350 0.930 . S
C1331 N1329 1.375 . S
C1331 C1330 1.338 . S
C1331 H1335 0.931 . S
C1332 N1329 1.313 . S
C1332 N1333 1.344 . S
C1332 H1336 0.930 . S
N1333 C1330 1.377 . S
N1333 C1332 1.344 . S
O1334 Co1326 2.055 . S
O1334 C1338 1.253 . S
H1335 C1331 0.931 . S
H1336 C1332 0.930 . S
O1337 Co1326 2.039 . S
O1337 C1327 1.265 . S
C1338 O1334 1.253 . S
C1338 O1339 1.227 . S
O1339 C1338 1.227 . S
N1340 Co1326 2.140 . S
N1340 C1343 1.346 . S
N1340 C1344 1.345 . S
C1341 C1342 1.387 . S
C1341 C1345 1.391 . S
C1342 C1341 1.387 . S
C1342 C1343 1.369 . S
C1342 H1351 0.929 . S
C1343 N1340 1.346 . S
C1343 C1342 1.369 . S
C1343 H1346 0.928 . S
C1344 N1340 1.345 . S
C1344 C1345 1.371 . S
C1344 H1347 0.931 . S
C1345 C1341 1.391 . S
C1345 C1344 1.371 . S
C1345 H1352 0.930 . S
H1346 C1343 0.928 . S
H1347 C1344 0.931 . S
H1348 C1324 0.930 . S
H1349 C1321 0.930 . S
H1350 C1330 0.930 . S
H1351 C1342 0.929 . S
H1352 C1345 0.930 . S
C1353 C1354 1.351 . S
C1353 N1356 1.368 . S
C1353 H1358 0.931 . S
C1354 C1353 1.351 . S
C1354 N1355 1.373 . S
C1354 H1382 0.930 . S
N1355 C1354 1.373 . S
N1355 C1357 1.340 . S
N1356 C1353 1.368 . S
N1356 C1357 1.321 . S
N1356 Co1359 2.135 . S
C1357 N1355 1.340 . S
C1357 N1356 1.321 . S
C1357 H1381 0.930 . S
H1358 C1353 0.931 . S
Co1359 N1356 2.135 . S
Co1359 N1362 2.121 . S
Co1359 O1367 2.055 . S
Co1359 O1370 2.039 . S
Co1359 N1373 2.140 . S
C1360 O1361 1.227 . S
C1360 O1370 1.265 . S
O1361 C1360 1.227 . S
N1362 Co1359 2.121 . S
N1362 C1364 1.375 . S
N1362 C1365 1.313 . S
C1363 C1364 1.338 . S
C1363 N1366 1.377 . S
C1363 H1383 0.930 . S
C1364 N1362 1.375 . S
C1364 C1363 1.338 . S
C1364 H1368 0.931 . S
C1365 N1362 1.313 . S
C1365 N1366 1.344 . S
C1365 H1369 0.930 . S
N1366 C1363 1.377 . S
N1366 C1365 1.344 . S
O1367 Co1359 2.055 . S
O1367 C1371 1.253 . S
H1368 C1364 0.931 . S
H1369 C1365 0.930 . S
O1370 Co1359 2.039 . S
O1370 C1360 1.265 . S
C1371 O1367 1.253 . S
C1371 O1372 1.227 . S
O1372 C1371 1.227 . S
N1373 Co1359 2.140 . S
N1373 C1376 1.346 . S
N1373 C1377 1.345 . S
C1374 C1375 1.387 . S
C1374 C1378 1.391 . S
C1375 C1374 1.387 . S
C1375 C1376 1.369 . S
C1375 H1384 0.929 . S
C1376 N1373 1.346 . S
C1376 C1375 1.369 . S
C1376 H1379 0.928 . S
C1377 N1373 1.345 . S
C1377 C1378 1.371 . S
C1377 H1380 0.931 . S
C1378 C1374 1.391 . S
C1378 C1377 1.371 . S
C1378 H1385 0.930 . S
H1379 C1376 0.928 . S
H1380 C1377 0.931 . S
H1381 C1357 0.930 . S
H1382 C1354 0.930 . S
H1383 C1363 0.930 . S
H1384 C1375 0.929 . S
H1385 C1378 0.930 . S
C1386 C1387 1.351 . S
C1386 N1389 1.368 . S
C1386 H1391 0.931 . S
C1387 C1386 1.351 . S
C1387 N1388 1.373 . S
C1387 H1415 0.930 . S
N1388 C1387 1.373 . S
N1388 C1390 1.340 . S
N1389 C1386 1.368 . S
N1389 C1390 1.321 . S
N1389 Co1392 2.135 . S
C1390 N1388 1.340 . S
C1390 N1389 1.321 . S
C1390 H1414 0.930 . S
H1391 C1386 0.931 . S
Co1392 N1389 2.135 . S
Co1392 N1395 2.121 . S
Co1392 O1400 2.055 . S
Co1392 O1403 2.039 . S
Co1392 N1406 2.140 . S
C1393 O1394 1.227 . S
C1393 O1403 1.265 . S
O1394 C1393 1.227 . S
N1395 Co1392 2.121 . S
N1395 C1397 1.375 . S
N1395 C1398 1.313 . S
C1396 C1397 1.338 . S
C1396 N1399 1.377 . S
C1396 H1416 0.930 . S
C1397 N1395 1.375 . S
C1397 C1396 1.338 . S
C1397 H1401 0.931 . S
C1398 N1395 1.313 . S
C1398 N1399 1.344 . S
C1398 H1402 0.930 . S
N1399 C1396 1.377 . S
N1399 C1398 1.344 . S
O1400 Co1392 2.055 . S
O1400 C1404 1.253 . S
H1401 C1397 0.931 . S
H1402 C1398 0.930 . S
O1403 Co1392 2.039 . S
O1403 C1393 1.265 . S
C1404 O1400 1.253 . S
C1404 O1405 1.227 . S
O1405 C1404 1.227 . S
N1406 Co1392 2.140 . S
N1406 C1409 1.346 . S
N1406 C1410 1.345 . S
C1407 C1408 1.387 . S
C1407 C1411 1.391 . S
C1408 C1407 1.387 . S
C1408 C1409 1.369 . S
C1408 H1417 0.929 . S
C1409 N1406 1.346 . S
C1409 C1408 1.369 . S
C1409 H1412 0.928 . S
C1410 N1406 1.345 . S
C1410 C1411 1.371 . S
C1410 H1413 0.931 . S
C1411 C1407 1.391 . S
C1411 C1410 1.371 . S
C1411 H1418 0.930 . S
H1412 C1409 0.928 . S
H1413 C1410 0.931 . S
H1414 C1390 0.930 . S
H1415 C1387 0.930 . S
H1416 C1396 0.930 . S
H1417 C1408 0.929 . S
H1418 C1411 0.930 . S
C1419 C1420 1.351 . S
C1419 N1422 1.368 . S
C1419 H1424 0.931 . S
C1420 C1419 1.351 . S
C1420 N1421 1.373 . S
C1420 H1448 0.930 . S
N1421 C1420 1.373 . S
N1421 C1423 1.340 . S
N1422 C1419 1.368 . S
N1422 C1423 1.321 . S
N1422 Co1425 2.135 . S
C1423 N1421 1.340 . S
C1423 N1422 1.321 . S
C1423 H1447 0.930 . S
H1424 C1419 0.931 . S
Co1425 N1422 2.135 . S
Co1425 N1428 2.121 . S
Co1425 O1433 2.055 . S
Co1425 O1436 2.039 . S
Co1425 N1439 2.140 . S
C1426 O1427 1.227 . S
C1426 O1436 1.265 . S
O1427 C1426 1.227 . S
N1428 Co1425 2.121 . S
N1428 C1430 1.375 . S
N1428 C1431 1.313 . S
C1429 C1430 1.338 . S
C1429 N1432 1.377 . S
C1429 H1449 0.930 . S
C1430 N1428 1.375 . S
C1430 C1429 1.338 . S
C1430 H1434 0.931 . S
C1431 N1428 1.313 . S
C1431 N1432 1.344 . S
C1431 H1435 0.930 . S
N1432 C1429 1.377 . S
N1432 C1431 1.344 . S
O1433 Co1425 2.055 . S
O1433 C1437 1.253 . S
H1434 C1430 0.931 . S
H1435 C1431 0.930 . S
O1436 Co1425 2.039 . S
O1436 C1426 1.265 . S
C1437 O1433 1.253 . S
C1437 O1438 1.227 . S
O1438 C1437 1.227 . S
N1439 Co1425 2.140 . S
N1439 C1442 1.346 . S
N1439 C1443 1.345 . S
C1440 C1441 1.387 . S
C1440 C1444 1.391 . S
C1441 C1440 1.387 . S
C1441 C1442 1.369 . S
C1441 H1450 0.929 . S
C1442 N1439 1.346 . S
C1442 C1441 1.369 . S
C1442 H1445 0.928 . S
C1443 N1439 1.345 . S
C1443 C1444 1.371 . S
C1443 H1446 0.931 . S
C1444 C1440 1.391 . S
C1444 C1443 1.371 . S
C1444 H1451 0.930 . S
H1445 C1442 0.928 . S
H1446 C1443 0.931 . S
H1447 C1423 0.930 . S
H1448 C1420 0.930 . S
H1449 C1429 0.930 . S
H1450 C1441 0.929 . S
H1451 C1444 0.930 . S
C1452 C1453 1.351 . S
C1452 N1455 1.368 . S
C1452 H1457 0.931 1_556 S
C1453 C1452 1.351 . S
C1453 N1454 1.373 . S
C1453 H1481 0.930 . S
N1454 C1453 1.373 . S
N1454 C1456 1.340 . S
N1455 C1452 1.368 . S
N1455 C1456 1.321 . S
N1455 Co1458 2.135 1_556 S
C1456 N1454 1.340 . S
C1456 N1455 1.321 . S
C1456 H1480 0.930 . S
H1457 C1452 0.931 1_554 S
Co1458 N1455 2.135 1_554 S
Co1458 N1461 2.121 . S
Co1458 O1466 2.055 . S
Co1458 O1469 2.039 1_554 S
Co1458 N1472 2.140 . S
C1459 O1460 1.227 . S
C1459 O1469 1.265 . S
O1460 C1459 1.227 . S
N1461 Co1458 2.121 . S
N1461 C1463 1.375 . S
N1461 C1464 1.313 . S
C1462 C1463 1.338 . S
C1462 N1465 1.377 . S
C1462 H1482 0.930 . S
C1463 N1461 1.375 . S
C1463 C1462 1.338 . S
C1463 H1467 0.931 . S
C1464 N1461 1.313 . S
C1464 N1465 1.344 . S
C1464 H1468 0.930 . S
N1465 C1462 1.377 . S
N1465 C1464 1.344 . S
O1466 Co1458 2.055 . S
O1466 C1470 1.253 . S
H1467 C1463 0.931 . S
H1468 C1464 0.930 . S
O1469 Co1458 2.039 1_556 S
O1469 C1459 1.265 . S
C1470 O1466 1.253 . S
C1470 O1471 1.227 . S
O1471 C1470 1.227 . S
N1472 Co1458 2.140 . S
N1472 C1475 1.346 1_554 S
N1472 C1476 1.345 . S
C1473 C1474 1.387 1_554 S
C1473 C1477 1.391 . S
C1474 C1473 1.387 1_556 S
C1474 C1475 1.369 . S
C1474 H1483 0.929 . S
C1475 N1472 1.346 1_556 S
C1475 C1474 1.369 . S
C1475 H1478 0.928 . S
C1476 N1472 1.345 . S
C1476 C1477 1.371 . S
C1476 H1479 0.931 . S
C1477 C1473 1.391 . S
C1477 C1476 1.371 . S
C1477 H1484 0.930 . S
H1478 C1475 0.928 . S
H1479 C1476 0.931 . S
H1480 C1456 0.930 . S
H1481 C1453 0.930 . S
H1482 C1462 0.930 . S
H1483 C1474 0.929 . S
H1484 C1477 0.930 . S
C1485 C1486 1.351 . S
C1485 N1488 1.368 . S
C1485 H1490 0.931 . S
C1486 C1485 1.351 . S
C1486 N1487 1.373 . S
C1486 H1514 0.930 . S
N1487 C1486 1.373 . S
N1487 C1489 1.340 . S
N1488 C1485 1.368 . S
N1488 C1489 1.321 . S
N1488 Co1491 2.135 . S
C1489 N1487 1.340 . S
C1489 N1488 1.321 . S
C1489 H1513 0.930 . S
H1490 C1485 0.931 . S
Co1491 N1488 2.135 . S
Co1491 N1494 2.121 1_554 S
Co1491 O1499 2.055 1_554 S
Co1491 O1502 2.039 . S
Co1491 N1505 2.140 . S
C1492 O1493 1.227 . S
C1492 O1502 1.265 . S
O1493 C1492 1.227 . S
N1494 Co1491 2.121 1_556 S
N1494 C1496 1.375 . S
N1494 C1497 1.313 . S
C1495 C1496 1.338 . S
C1495 N1498 1.377 . S
C1495 H1515 0.930 . S
C1496 N1494 1.375 . S
C1496 C1495 1.338 . S
C1496 H1500 0.931 1_556 S
C1497 N1494 1.313 . S
C1497 N1498 1.344 . S
C1497 H1501 0.930 . S
N1498 C1495 1.377 . S
N1498 C1497 1.344 . S
O1499 Co1491 2.055 1_556 S
O1499 C1503 1.253 . S
H1500 C1496 0.931 1_554 S
H1501 C1497 0.930 . S
O1502 Co1491 2.039 . S
O1502 C1492 1.265 . S
C1503 O1499 1.253 . S
C1503 O1504 1.227 . S
O1504 C1503 1.227 . S
N1505 Co1491 2.140 . S
N1505 C1508 1.346 . S
N1505 C1509 1.345 1_554 S
C1506 C1507 1.387 . S
C1506 C1510 1.391 1_554 S
C1507 C1506 1.387 . S
C1507 C1508 1.369 . S
C1507 H1516 0.929 . S
C1508 N1505 1.346 . S
C1508 C1507 1.369 . S
C1508 H1511 0.928 . S
C1509 N1505 1.345 1_556 S
C1509 C1510 1.371 . S
C1509 H1512 0.931 . S
C1510 C1506 1.391 1_556 S
C1510 C1509 1.371 . S
C1510 H1517 0.930 . S
H1511 C1508 0.928 . S
H1512 C1509 0.931 . S
H1513 C1489 0.930 . S
H1514 C1486 0.930 . S
H1515 C1495 0.930 . S
H1516 C1507 0.929 . S
H1517 C1510 0.930 . S
C1518 C1519 1.351 . S
C1518 N1521 1.368 . S
C1518 H1523 0.931 . S
C1519 C1518 1.351 . S
C1519 N1520 1.373 . S
C1519 H1547 0.930 . S
N1520 C1519 1.373 . S
N1520 C1522 1.340 . S
N1521 C1518 1.368 . S
N1521 C1522 1.321 . S
N1521 Co1524 2.135 . S
C1522 N1520 1.340 . S
C1522 N1521 1.321 . S
C1522 H1546 0.930 . S
H1523 C1518 0.931 . S
Co1524 N1521 2.135 . S
Co1524 N1527 2.121 1_554 S
Co1524 O1532 2.055 1_554 S
Co1524 O1535 2.039 . S
Co1524 N1538 2.140 . S
C1525 O1526 1.227 . S
C1525 O1535 1.265 . S
O1526 C1525 1.227 . S
N1527 Co1524 2.121 1_556 S
N1527 C1529 1.375 . S
N1527 C1530 1.313 . S
C1528 C1529 1.338 . S
C1528 N1531 1.377 . S
C1528 H1548 0.930 . S
C1529 N1527 1.375 . S
C1529 C1528 1.338 . S
C1529 H1533 0.931 1_556 S
C1530 N1527 1.313 . S
C1530 N1531 1.344 . S
C1530 H1534 0.930 . S
N1531 C1528 1.377 . S
N1531 C1530 1.344 . S
O1532 Co1524 2.055 1_556 S
O1532 C1536 1.253 . S
H1533 C1529 0.931 1_554 S
H1534 C1530 0.930 . S
O1535 Co1524 2.039 . S
O1535 C1525 1.265 . S
C1536 O1532 1.253 . S
C1536 O1537 1.227 . S
O1537 C1536 1.227 . S
N1538 Co1524 2.140 . S
N1538 C1541 1.346 . S
N1538 C1542 1.345 1_554 S
C1539 C1540 1.387 . S
C1539 C1543 1.391 1_554 S
C1540 C1539 1.387 . S
C1540 C1541 1.369 . S
C1540 H1549 0.929 . S
C1541 N1538 1.346 . S
C1541 C1540 1.369 . S
C1541 H1544 0.928 . S
C1542 N1538 1.345 1_556 S
C1542 C1543 1.371 . S
C1542 H1545 0.931 . S
C1543 C1539 1.391 1_556 S
C1543 C1542 1.371 . S
C1543 H1550 0.930 . S
H1544 C1541 0.928 . S
H1545 C1542 0.931 . S
H1546 C1522 0.930 . S
H1547 C1519 0.930 . S
H1548 C1528 0.930 . S
H1549 C1540 0.929 . S
H1550 C1543 0.930 . S
C1551 C1552 1.351 . S
C1551 N1554 1.368 . S
C1551 H1556 0.931 1_556 S
C1552 C1551 1.351 . S
C1552 N1553 1.373 . S
C1552 H1580 0.930 . S
N1553 C1552 1.373 . S
N1553 C1555 1.340 . S
N1554 C1551 1.368 . S
N1554 C1555 1.321 . S
N1554 Co1557 2.135 1_556 S
C1555 N1553 1.340 . S
C1555 N1554 1.321 . S
C1555 H1579 0.930 . S
H1556 C1551 0.931 1_554 S
Co1557 N1554 2.135 1_554 S
Co1557 N1560 2.121 . S
Co1557 O1565 2.055 . S
Co1557 O1568 2.039 1_554 S
Co1557 N1571 2.140 . S
C1558 O1559 1.227 . S
C1558 O1568 1.265 . S
O1559 C1558 1.227 . S
N1560 Co1557 2.121 . S
N1560 C1562 1.375 . S
N1560 C1563 1.313 . S
C1561 C1562 1.338 . S
C1561 N1564 1.377 . S
C1561 H1581 0.930 . S
C1562 N1560 1.375 . S
C1562 C1561 1.338 . S
C1562 H1566 0.931 . S
C1563 N1560 1.313 . S
C1563 N1564 1.344 . S
C1563 H1567 0.930 . S
N1564 C1561 1.377 . S
N1564 C1563 1.344 . S
O1565 Co1557 2.055 . S
O1565 C1569 1.253 . S
H1566 C1562 0.931 . S
H1567 C1563 0.930 . S
O1568 Co1557 2.039 1_556 S
O1568 C1558 1.265 . S
C1569 O1565 1.253 . S
C1569 O1570 1.227 . S
O1570 C1569 1.227 . S
N1571 Co1557 2.140 . S
N1571 C1574 1.346 1_554 S
N1571 C1575 1.345 . S
C1572 C1573 1.387 1_554 S
C1572 C1576 1.391 . S
C1573 C1572 1.387 1_556 S
C1573 C1574 1.369 . S
C1573 H1582 0.929 . S
C1574 N1571 1.346 1_556 S
C1574 C1573 1.369 . S
C1574 H1577 0.928 . S
C1575 N1571 1.345 . S
C1575 C1576 1.371 . S
C1575 H1578 0.931 . S
C1576 C1572 1.391 . S
C1576 C1575 1.371 . S
C1576 H1583 0.930 . S
H1577 C1574 0.928 . S
H1578 C1575 0.931 . S
H1579 C1555 0.930 . S
H1580 C1552 0.930 . S
H1581 C1561 0.930 . S
H1582 C1573 0.929 . S
H1583 C1576 0.930 . S
H1584 C1596 0.930 1_655 S
H1585 C1598 0.930 . S
H1586 C1599 0.930 . S
H1587 C1603 0.959 . S
H1588 C1603 0.959 . S
H1589 C1603 0.961 . S
H1590 C1604 0.960 . S
H1591 C1604 0.961 . S
H1592 C1604 0.959 . S
H1593 C1607 0.929 . S
H1594 C1608 0.931 . S
H1595 C1610 0.930 1_655 S
C1596 H1584 0.930 1_455 S
C1596 C1597 1.399 . S
C1596 C1601 1.399 . S
C1597 C1596 1.399 . S
C1597 C1598 1.376 . S
C1598 H1585 0.930 . S
C1598 C1597 1.376 . S
C1598 C1599 1.388 . S
C1599 H1586 0.930 . S
C1599 C1598 1.388 . S
C1599 C1600 1.390 . S
C1600 C1599 1.390 . S
C1600 C1601 1.394 . S
C1600 C1606 1.465 . S
C1601 C1596 1.399 . S
C1601 C1600 1.394 . S
C1601 C1602 1.516 1_455 S
C1602 C1601 1.516 1_655 S
C1602 C1603 1.502 . S
C1602 C1604 1.561 1_655 S
C1602 C1605 1.526 1_655 S
C1603 H1587 0.959 . S
C1603 H1588 0.959 . S
C1603 H1589 0.961 . S
C1603 C1602 1.502 . S
C1604 H1590 0.960 . S
C1604 H1591 0.961 . S
C1604 H1592 0.959 . S
C1604 C1602 1.561 1_455 S
C1605 C1602 1.526 1_455 S
C1605 C1606 1.396 . S
C1605 C1610 1.390 . S
C1606 C1600 1.465 . S
C1606 C1605 1.396 . S
C1606 C1607 1.399 . S
C1607 H1593 0.929 . S
C1607 C1606 1.399 . S
C1607 C1608 1.385 . S
C1608 H1594 0.931 . S
C1608 C1607 1.385 . S
C1608 C1609 1.389 . S
C1609 C1608 1.389 . S
C1609 C1610 1.387 . S
C1610 H1595 0.930 1_455 S
C1610 C1605 1.390 . S
C1610 C1609 1.387 . S
H1611 C1623 0.930 . S
H1612 C1625 0.930 . S
H1613 C1626 0.930 . S
H1614 C1630 0.959 . S
H1615 C1630 0.959 . S
H1616 C1630 0.961 . S
H1617 C1631 0.960 . S
H1618 C1631 0.961 . S
H1619 C1631 0.959 . S
H1620 C1634 0.929 . S
H1621 C1635 0.931 . S
H1622 C1637 0.930 . S
C1623 H1611 0.930 . S
C1623 C1624 1.399 . S
C1623 C1628 1.399 . S
C1624 C1623 1.399 . S
C1624 C1625 1.376 1_545 S
C1625 H1612 0.930 . S
C1625 C1624 1.376 1_565 S
C1625 C1626 1.388 . S
C1626 H1613 0.930 . S
C1626 C1625 1.388 . S
C1626 C1627 1.390 . S
C1627 C1626 1.390 . S
C1627 C1628 1.394 1_565 S
C1627 C1633 1.465 . S
C1628 C1623 1.399 . S
C1628 C1627 1.394 1_545 S
C1628 C1629 1.516 . S
C1629 C1628 1.516 . S
C1629 C1630 1.502 . S
C1629 C1631 1.561 . S
C1629 C1632 1.526 . S
C1630 H1614 0.959 . S
C1630 H1615 0.959 . S
C1630 H1616 0.961 . S
C1630 C1629 1.502 . S
C1631 H1617 0.960 . S
C1631 H1618 0.961 . S
C1631 H1619 0.959 . S
C1631 C1629 1.561 . S
C1632 C1629 1.526 . S
C1632 C1633 1.396 1_545 S
C1632 C1637 1.390 . S
C1633 C1627 1.465 . S
C1633 C1632 1.396 1_565 S
C1633 C1634 1.399 . S
C1634 H1620 0.929 . S
C1634 C1633 1.399 . S
C1634 C1635 1.385 . S
C1635 H1621 0.931 . S
C1635 C1634 1.385 . S
C1635 C1636 1.389 1_565 S
C1636 C1635 1.389 1_545 S
C1636 C1637 1.387 . S
C1637 H1622 0.930 . S
C1637 C1632 1.390 . S
C1637 C1636 1.387 . S
H1638 C1650 0.930 . S
H1639 C1652 0.930 . S
H1640 C1653 0.930 . S
H1641 C1657 0.959 1_655 S
H1642 C1657 0.959 . S
H1643 C1657 0.961 . S
H1644 C1658 0.960 . S
H1645 C1658 0.961 . S
H1646 C1658 0.959 . S
H1647 C1661 0.929 . S
H1648 C1662 0.931 . S
H1649 C1664 0.930 . S
C1650 H1638 0.930 . S
C1650 C1651 1.399 . S
C1650 C1655 1.399 . S
C1651 C1650 1.399 . S
C1651 C1652 1.376 1_455 S
C1652 H1639 0.930 . S
C1652 C1651 1.376 1_655 S
C1652 C1653 1.388 . S
C1653 H1640 0.930 . S
C1653 C1652 1.388 . S
C1653 C1654 1.390 1_655 S
C1654 C1653 1.390 1_455 S
C1654 C1655 1.394 . S
C1654 C1660 1.465 . S
C1655 C1650 1.399 . S
C1655 C1654 1.394 . S
C1655 C1656 1.516 . S
C1656 C1655 1.516 . S
C1656 C1657 1.502 . S
C1656 C1658 1.561 . S
C1656 C1659 1.526 . S
C1657 H1641 0.959 1_455 S
C1657 H1642 0.959 . S
C1657 H1643 0.961 . S
C1657 C1656 1.502 . S
C1658 H1644 0.960 . S
C1658 H1645 0.961 . S
C1658 H1646 0.959 . S
C1658 C1656 1.561 . S
C1659 C1656 1.526 . S
C1659 C1660 1.396 . S
C1659 C1664 1.390 . S
C1660 C1654 1.465 . S
C1660 C1659 1.396 . S
C1660 C1661 1.399 1_455 S
C1661 H1647 0.929 . S
C1661 C1660 1.399 1_655 S
C1661 C1662 1.385 . S
C1662 H1648 0.931 . S
C1662 C1661 1.385 . S
C1662 C1663 1.389 1_655 S
C1663 C1662 1.389 1_455 S
C1663 C1664 1.387 . S
C1664 H1649 0.930 . S
C1664 C1659 1.390 . S
C1664 C1663 1.387 . S
H1665 C1677 0.930 . S
H1666 C1679 0.930 . S
H1667 C1680 0.930 . S
H1668 C1684 0.959 . S
H1669 C1684 0.959 . S
H1670 C1684 0.961 . S
H1671 C1685 0.960 . S
H1672 C1685 0.961 . S
H1673 C1685 0.959 . S
H1674 C1688 0.929 . S
H1675 C1689 0.931 . S
H1676 C1691 0.930 . S
C1677 H1665 0.930 . S
C1677 C1678 1.399 . S
C1677 C1682 1.399 . S
C1678 C1677 1.399 . S
C1678 C1679 1.376 1_545 S
C1679 H1666 0.930 . S
C1679 C1678 1.376 1_565 S
C1679 C1680 1.388 . S
C1680 H1667 0.930 . S
C1680 C1679 1.388 . S
C1680 C1681 1.390 . S
C1681 C1680 1.390 . S
C1681 C1682 1.394 1_565 S
C1681 C1687 1.465 . S
C1682 C1677 1.399 . S
C1682 C1681 1.394 1_545 S
C1682 C1683 1.516 . S
C1683 C1682 1.516 . S
C1683 C1684 1.502 . S
C1683 C1685 1.561 . S
C1683 C1686 1.526 . S
C1684 H1668 0.959 . S
C1684 H1669 0.959 . S
C1684 H1670 0.961 . S
C1684 C1683 1.502 . S
C1685 H1671 0.960 . S
C1685 H1672 0.961 . S
C1685 H1673 0.959 . S
C1685 C1683 1.561 . S
C1686 C1683 1.526 . S
C1686 C1687 1.396 1_545 S
C1686 C1691 1.390 . S
C1687 C1681 1.465 . S
C1687 C1686 1.396 1_565 S
C1687 C1688 1.399 . S
C1688 H1674 0.929 . S
C1688 C1687 1.399 . S
C1688 C1689 1.385 . S
C1689 H1675 0.931 . S
C1689 C1688 1.385 . S
C1689 C1690 1.389 1_565 S
C1690 C1689 1.389 1_545 S
C1690 C1691 1.387 . S
C1691 H1676 0.930 . S
C1691 C1686 1.390 . S
C1691 C1690 1.387 . S
H1692 C1704 0.926 1_655 S
H1693 C1706 0.930 . S
H1694 C1707 0.930 . S
H1695 C1711 0.959 . S
H1696 C1711 0.959 1_655 S
H1697 C1711 0.959 1_655 S
H1698 C1712 0.960 . S
H1699 C1712 0.961 . S
H1700 C1712 0.959 . S
H1701 C1715 0.929 . S
H1702 C1716 0.931 . S
H1703 C1718 0.921 1_655 S
C1704 H1692 0.926 1_455 S
C1704 C1705 1.402 . S
C1704 C1709 1.400 . S
C1705 C1704 1.402 . S
C1705 C1706 1.376 . S
C1706 H1693 0.930 . S
C1706 C1705 1.376 . S
C1706 C1707 1.388 . S
C1707 H1694 0.930 . S
C1707 C1706 1.388 . S
C1707 C1708 1.390 . S
C1708 C1707 1.390 . S
C1708 C1709 1.394 . S
C1708 C1714 1.465 . S
C1709 C1704 1.400 . S
C1709 C1708 1.394 . S
C1709 C1710 1.516 1_455 S
C1710 C1709 1.516 1_655 S
C1710 C1711 1.502 1_655 S
C1710 C1712 1.561 . S
C1710 C1713 1.526 1_655 S
C1711 H1695 0.959 . S
C1711 H1696 0.959 1_455 S
C1711 H1697 0.959 1_455 S
C1711 C1710 1.502 1_455 S
C1712 H1698 0.960 . S
C1712 H1699 0.961 . S
C1712 H1700 0.959 . S
C1712 C1710 1.561 . S
C1713 C1710 1.526 1_455 S
C1713 C1714 1.396 . S
C1713 C1718 1.390 . S
C1714 C1708 1.465 . S
C1714 C1713 1.396 . S
C1714 C1715 1.399 . S
C1715 H1701 0.929 . S
C1715 C1714 1.399 . S
C1715 C1716 1.385 . S
C1716 H1702 0.931 . S
C1716 C1715 1.385 . S
C1716 C1717 1.389 . S
C1717 C1716 1.389 . S
C1717 C1718 1.396 . S
C1718 H1703 0.921 1_455 S
C1718 C1713 1.390 . S
C1718 C1717 1.396 . S
H1719 C1731 0.930 . S
H1720 C1733 0.930 . S
H1721 C1734 0.930 . S
H1722 C1738 0.959 . S
H1723 C1738 0.959 . S
H1724 C1738 0.961 . S
H1725 C1739 0.960 . S
H1726 C1739 0.961 . S
H1727 C1739 0.959 . S
H1728 C1742 0.929 . S
H1729 C1743 0.931 . S
H1730 C1745 0.930 . S
C1731 H1719 0.930 . S
C1731 C1732 1.399 . S
C1731 C1736 1.399 . S
C1732 C1731 1.399 . S
C1732 C1733 1.376 1_545 S
C1733 H1720 0.930 . S
C1733 C1732 1.376 1_565 S
C1733 C1734 1.388 . S
C1734 H1721 0.930 . S
C1734 C1733 1.388 . S
C1734 C1735 1.389 1_565 S
C1735 C1734 1.389 1_545 S
C1735 C1736 1.395 . S
C1735 C1741 1.465 1_545 S
C1736 C1731 1.399 . S
C1736 C1735 1.395 . S
C1736 C1737 1.516 . S
C1737 C1736 1.516 . S
C1737 C1738 1.502 . S
C1737 C1739 1.561 . S
C1737 C1740 1.526 . S
C1738 H1722 0.959 . S
C1738 H1723 0.959 . S
C1738 H1724 0.961 . S
C1738 C1737 1.502 . S
C1739 H1725 0.960 . S
C1739 H1726 0.961 . S
C1739 H1727 0.959 . S
C1739 C1737 1.561 . S
C1740 C1737 1.526 . S
C1740 C1741 1.390 1_545 S
C1740 C1745 1.390 . S
C1741 C1735 1.465 1_565 S
C1741 C1740 1.390 1_565 S
C1741 C1742 1.404 . S
C1742 H1728 0.929 . S
C1742 C1741 1.404 . S
C1742 C1743 1.385 . S
C1743 H1729 0.931 . S
C1743 C1742 1.385 . S
C1743 C1744 1.389 1_565 S
C1744 C1743 1.389 1_545 S
C1744 C1745 1.387 . S
C1745 H1730 0.930 . S
C1745 C1740 1.390 . S
C1745 C1744 1.387 . S
H1746 C1758 0.930 . S
H1747 C1760 0.930 . S
H1748 C1761 0.930 . S
H1749 C1765 0.959 1_655 S
H1750 C1765 0.959 . S
H1751 C1765 0.961 . S
H1752 C1766 0.960 . S
H1753 C1766 0.961 . S
H1754 C1766 0.959 . S
H1755 C1769 0.929 . S
H1756 C1770 0.931 . S
H1757 C1772 0.930 . S
C1758 H1746 0.930 . S
C1758 C1759 1.399 . S
C1758 C1763 1.399 . S
C1759 C1758 1.399 . S
C1759 C1760 1.376 1_455 S
C1760 H1747 0.930 . S
C1760 C1759 1.376 1_655 S
C1760 C1761 1.388 . S
C1761 H1748 0.930 . S
C1761 C1760 1.388 . S
C1761 C1762 1.414 . S
C1762 C1761 1.414 . S
C1762 C1763 1.366 1_655 S
C1762 C1768 1.468 . S
C1763 C1758 1.399 . S
C1763 C1762 1.366 1_455 S
C1763 C1764 1.516 . S
C1764 C1763 1.516 . S
C1764 C1765 1.502 . S
C1764 C1766 1.561 . S
C1764 C1767 1.526 . S
C1765 H1749 0.959 1_455 S
C1765 H1750 0.959 . S
C1765 H1751 0.961 . S
C1765 C1764 1.502 . S
C1766 H1752 0.960 . S
C1766 H1753 0.961 . S
C1766 H1754 0.959 . S
C1766 C1764 1.561 . S
C1767 C1764 1.526 . S
C1767 C1768 1.396 1_455 S
C1767 C1772 1.390 . S
C1768 C1762 1.468 . S
C1768 C1767 1.396 1_655 S
C1768 C1769 1.399 . S
C1769 H1755 0.929 . S
C1769 C1768 1.399 . S
C1769 C1770 1.385 . S
C1770 H1756 0.931 . S
C1770 C1769 1.385 . S
C1770 C1771 1.399 . S
C1771 C1770 1.399 . S
C1771 C1772 1.378 1_655 S
C1772 H1757 0.930 . S
C1772 C1767 1.390 . S
C1772 C1771 1.378 1_455 S
H1773 C1785 0.930 . S
H1774 C1787 0.930 . S
H1775 C1788 0.930 . S
H1776 C1792 0.959 . S
H1777 C1792 0.959 . S
H1778 C1792 0.961 . S
H1779 C1793 0.960 . S
H1780 C1793 0.961 . S
H1781 C1793 0.959 . S
H1782 C1796 0.929 . S
H1783 C1797 0.931 . S
H1784 C1799 0.930 . S
C1785 H1773 0.930 . S
C1785 C1786 1.399 . S
C1785 C1790 1.399 . S
C1786 C1785 1.399 . S
C1786 C1787 1.376 1_545 S
C1787 H1774 0.930 . S
C1787 C1786 1.376 1_565 S
C1787 C1788 1.388 . S
C1788 H1775 0.930 . S
C1788 C1787 1.388 . S
C1788 C1789 1.393 . S
C1789 C1788 1.393 . S
C1789 C1790 1.390 1_565 S
C1789 C1795 1.465 . S
C1790 C1785 1.399 . S
C1790 C1789 1.390 1_545 S
C1790 C1791 1.516 . S
C1791 C1790 1.516 . S
C1791 C1792 1.502 . S
C1791 C1793 1.561 . S
C1791 C1794 1.526 . S
C1792 H1776 0.959 . S
C1792 H1777 0.959 . S
C1792 H1778 0.961 . S
C1792 C1791 1.502 . S
C1793 H1779 0.960 . S
C1793 H1780 0.961 . S
C1793 H1781 0.959 . S
C1793 C1791 1.561 . S
C1794 C1791 1.526 . S
C1794 C1795 1.391 1_545 S
C1794 C1799 1.390 . S
C1795 C1789 1.465 . S
C1795 C1794 1.391 1_565 S
C1795 C1796 1.403 . S
C1796 H1782 0.929 . S
C1796 C1795 1.403 . S
C1796 C1797 1.385 . S
C1797 H1783 0.931 . S
C1797 C1796 1.385 . S
C1797 C1798 1.389 1_565 S
C1798 C1797 1.389 1_545 S
C1798 C1799 1.387 . S
C1799 H1784 0.930 . S
C1799 C1794 1.390 . S
C1799 C1798 1.387 . S
H1800 C1812 0.930 . S
H1801 C1814 0.930 . S
H1802 C1815 0.930 . S
H1803 C1819 0.959 . S
H1804 C1819 0.959 . S
H1805 C1819 0.961 . S
H1806 C1820 0.960 . S
H1807 C1820 0.961 . S
H1808 C1820 0.959 . S
H1809 C1823 0.929 . S
H1810 C1824 0.931 . S
H1811 C1826 0.930 . S
C1812 H1800 0.930 . S
C1812 C1813 1.399 1_556 S
C1812 C1817 1.399 . S
C1813 C1812 1.399 1_554 S
C1813 C1814 1.376 . S
C1814 H1801 0.930 . S
C1814 C1813 1.376 . S
C1814 C1815 1.388 . S
C1815 H1802 0.930 . S
C1815 C1814 1.388 . S
C1815 C1816 1.390 . S
C1816 C1815 1.390 . S
C1816 C1817 1.394 1_554 S
C1816 C1822 1.465 . S
C1817 C1812 1.399 . S
C1817 C1816 1.394 1_556 S
C1817 C1818 1.516 . S
C1818 C1817 1.516 . S
C1818 C1819 1.502 . S
C1818 C1820 1.561 . S
C1818 C1821 1.526 . S
C1819 H1803 0.959 . S
C1819 H1804 0.959 . S
C1819 H1805 0.961 . S
C1819 C1818 1.502 . S
C1820 H1806 0.960 . S
C1820 H1807 0.961 . S
C1820 H1808 0.959 . S
C1820 C1818 1.561 . S
C1821 C1818 1.526 . S
C1821 C1822 1.396 1_556 S
C1821 C1826 1.390 . S
C1822 C1816 1.465 . S
C1822 C1821 1.396 1_554 S
C1822 C1823 1.399 . S
C1823 H1809 0.929 . S
C1823 C1822 1.399 . S
C1823 C1824 1.385 . S
C1824 H1810 0.931 . S
C1824 C1823 1.385 . S
C1824 C1825 1.389 . S
C1825 C1824 1.389 . S
C1825 C1826 1.387 1_554 S
C1826 H1811 0.930 . S
C1826 C1821 1.390 . S
C1826 C1825 1.387 1_556 S
H1827 C1839 0.930 . S
H1828 C1841 0.930 . S
H1829 C1842 0.930 . S
H1830 C1846 0.959 . S
H1831 C1846 0.959 . S
H1832 C1846 0.961 . S
H1833 C1847 0.960 . S
H1834 C1847 0.961 . S
H1835 C1847 0.959 . S
H1836 C1850 0.929 . S
H1837 C1851 0.931 . S
H1838 C1853 0.930 . S
C1839 H1827 0.930 . S
C1839 C1840 1.399 . S
C1839 C1844 1.399 . S
C1840 C1839 1.399 . S
C1840 C1841 1.376 1_554 S
C1841 H1828 0.930 . S
C1841 C1840 1.376 1_556 S
C1841 C1842 1.388 . S
C1842 H1829 0.930 . S
C1842 C1841 1.388 . S
C1842 C1843 1.390 1_556 S
C1843 C1842 1.390 1_554 S
C1843 C1844 1.394 . S
C1843 C1849 1.465 . S
C1844 C1839 1.399 . S
C1844 C1843 1.394 . S
C1844 C1845 1.516 . S
C1845 C1844 1.516 . S
C1845 C1846 1.502 . S
C1845 C1847 1.561 . S
C1845 C1848 1.526 . S
C1846 H1830 0.959 . S
C1846 H1831 0.959 . S
C1846 H1832 0.961 . S
C1846 C1845 1.502 . S
C1847 H1833 0.960 . S
C1847 H1834 0.961 . S
C1847 H1835 0.959 . S
C1847 C1845 1.561 . S
C1848 C1845 1.526 . S
C1848 C1849 1.396 . S
C1848 C1853 1.390 . S
C1849 C1843 1.465 . S
C1849 C1848 1.396 . S
C1849 C1850 1.399 1_554 S
C1850 H1836 0.929 . S
C1850 C1849 1.399 1_556 S
C1850 C1851 1.385 . S
C1851 H1837 0.931 . S
C1851 C1850 1.385 . S
C1851 C1852 1.389 1_556 S
C1852 C1851 1.389 1_554 S
C1852 C1853 1.387 . S
C1853 H1838 0.930 . S
C1853 C1848 1.390 . S
C1853 C1852 1.387 . S
H1854 C1866 0.930 . S
H1855 C1868 0.930 . S
H1856 C1869 0.930 . S
H1857 C1873 0.959 . S
H1858 C1873 0.959 . S
H1859 C1873 0.961 . S
H1860 C1874 0.960 . S
H1861 C1874 0.961 . S
H1862 C1874 0.959 . S
H1863 C1877 0.929 . S
H1864 C1878 0.931 . S
H1865 C1880 0.930 . S
C1866 H1854 0.930 . S
C1866 C1867 1.399 . S
C1866 C1871 1.399 . S
C1867 C1866 1.399 . S
C1867 C1868 1.376 1_554 S
C1868 H1855 0.930 . S
C1868 C1867 1.376 1_556 S
C1868 C1869 1.388 . S
C1869 H1856 0.930 . S
C1869 C1868 1.388 . S
C1869 C1870 1.390 1_556 S
C1870 C1869 1.390 1_554 S
C1870 C1871 1.394 . S
C1870 C1876 1.468 . S
C1871 C1866 1.399 . S
C1871 C1870 1.394 . S
C1871 C1872 1.516 . S
C1872 C1871 1.516 . S
C1872 C1873 1.502 . S
C1872 C1874 1.561 . S
C1872 C1875 1.526 . S
C1873 H1857 0.959 . S
C1873 H1858 0.959 . S
C1873 H1859 0.961 . S
C1873 C1872 1.502 . S
C1874 H1860 0.960 . S
C1874 H1861 0.961 . S
C1874 H1862 0.959 . S
C1874 C1872 1.561 . S
C1875 C1872 1.526 . S
C1875 C1876 1.453 . S
C1875 C1880 1.390 . S
C1876 C1870 1.468 . S
C1876 C1875 1.453 . S
C1876 C1877 1.353 1_554 S
C1877 H1863 0.929 . S
C1877 C1876 1.353 1_556 S
C1877 C1878 1.385 . S
C1878 H1864 0.931 . S
C1878 C1877 1.385 . S
C1878 C1879 1.389 1_556 S
C1879 C1878 1.389 1_554 S
C1879 C1880 1.387 . S
C1880 H1865 0.930 . S
C1880 C1875 1.390 . S
C1880 C1879 1.387 . S
H1881 C1893 0.930 . S
H1882 C1895 0.930 . S
H1883 C1896 0.930 . S
H1884 C1900 0.959 . S
H1885 C1900 0.959 . S
H1886 C1900 0.961 . S
H1887 C1901 0.960 . S
H1888 C1901 0.961 . S
H1889 C1901 0.959 . S
H1890 C1904 0.929 . S
H1891 C1905 0.931 . S
H1892 C1907 0.930 . S
C1893 H1881 0.930 . S
C1893 C1894 1.399 . S
C1893 C1898 1.399 . S
C1894 C1893 1.399 . S
C1894 C1895 1.376 1_554 S
C1895 H1882 0.930 . S
C1895 C1894 1.376 1_556 S
C1895 C1896 1.388 . S
C1896 H1883 0.930 . S
C1896 C1895 1.388 . S
C1896 C1897 1.390 . S
C1897 C1896 1.390 . S
C1897 C1898 1.394 1_556 S
C1897 C1903 1.465 . S
C1898 C1893 1.399 . S
C1898 C1897 1.394 1_554 S
C1898 C1899 1.516 . S
C1899 C1898 1.516 . S
C1899 C1900 1.502 . S
C1899 C1901 1.561 . S
C1899 C1902 1.526 . S
C1900 H1884 0.959 . S
C1900 H1885 0.959 . S
C1900 H1886 0.961 . S
C1900 C1899 1.502 . S
C1901 H1887 0.960 . S
C1901 H1888 0.961 . S
C1901 H1889 0.959 . S
C1901 C1899 1.561 . S
C1902 C1899 1.526 . S
C1902 C1903 1.396 1_554 S
C1902 C1907 1.390 . S
C1903 C1897 1.465 . S
C1903 C1902 1.396 1_556 S
C1903 C1904 1.399 . S
C1904 H1890 0.929 . S
C1904 C1903 1.399 . S
C1904 C1905 1.385 . S
C1905 H1891 0.931 . S
C1905 C1904 1.385 . S
C1905 C1906 1.389 1_556 S
C1906 C1905 1.389 1_554 S
C1906 C1907 1.387 . S
C1907 H1892 0.930 . S
C1907 C1902 1.390 . S
C1907 C1906 1.387 . S
H1908 C1920 0.930 . S
H1909 C1922 0.930 . S
H1910 C1923 0.930 . S
H1911 C1927 0.959 . S
H1912 C1927 0.959 . S
H1913 C1927 0.961 . S
H1914 C1928 0.960 . S
H1915 C1928 0.961 . S
H1916 C1928 0.959 . S
H1917 C1931 0.929 . S
H1918 C1932 0.931 . S
H1919 C1934 0.930 . S
C1920 H1908 0.930 . S
C1920 C1921 1.399 . S
C1920 C1925 1.399 . S
C1921 C1920 1.399 . S
C1921 C1922 1.376 . S
C1922 H1909 0.930 . S
C1922 C1921 1.376 . S
C1922 C1923 1.388 . S
C1923 H1910 0.930 . S
C1923 C1922 1.388 . S
C1923 C1924 1.390 . S
C1924 C1923 1.390 . S
C1924 C1925 1.394 . S
C1924 C1930 1.465 . S
C1925 C1920 1.399 . S
C1925 C1924 1.394 . S
C1925 C1926 1.516 . S
C1926 C1925 1.516 . S
C1926 C1927 1.502 . S
C1926 C1928 1.561 . S
C1926 C1929 1.526 . S
C1927 H1911 0.959 . S
C1927 H1912 0.959 . S
C1927 H1913 0.961 . S
C1927 C1926 1.502 . S
C1928 H1914 0.960 . S
C1928 H1915 0.961 . S
C1928 H1916 0.959 . S
C1928 C1926 1.561 . S
C1929 C1926 1.526 . S
C1929 C1930 1.396 . S
C1929 C1934 1.390 . S
C1930 C1924 1.465 . S
C1930 C1929 1.396 . S
C1930 C1931 1.399 . S
C1931 H1917 0.929 . S
C1931 C1930 1.399 . S
C1931 C1932 1.385 . S
C1932 H1918 0.931 . S
C1932 C1931 1.385 . S
C1932 C1933 1.389 . S
C1933 C1932 1.389 . S
C1933 C1934 1.387 . S
C1934 H1919 0.930 . S
C1934 C1929 1.390 . S
C1934 C1933 1.387 . S
H1935 C1947 0.930 . S
H1936 C1949 0.930 . S
H1937 C1950 0.930 . S
H1938 C1954 0.959 . S
H1939 C1954 0.959 . S
H1940 C1954 0.961 . S
H1941 C1955 0.960 . S
H1942 C1955 0.961 . S
H1943 C1955 0.959 . S
H1944 C1958 0.929 . S
H1945 C1959 0.931 . S
H1946 C1961 0.930 . S
C1947 H1935 0.930 . S
C1947 C1948 1.399 . S
C1947 C1952 1.399 . S
C1948 C1947 1.399 . S
C1948 C1949 1.376 . S
C1949 H1936 0.930 . S
C1949 C1948 1.376 . S
C1949 C1950 1.388 . S
C1950 H1937 0.930 . S
C1950 C1949 1.388 . S
C1950 C1951 1.390 . S
C1951 C1950 1.390 . S
C1951 C1952 1.394 . S
C1951 C1957 1.465 . S
C1952 C1947 1.399 . S
C1952 C1951 1.394 . S
C1952 C1953 1.516 . S
C1953 C1952 1.516 . S
C1953 C1954 1.502 . S
C1953 C1955 1.561 . S
C1953 C1956 1.526 . S
C1954 H1938 0.959 . S
C1954 H1939 0.959 . S
C1954 H1940 0.961 . S
C1954 C1953 1.502 . S
C1955 H1941 0.960 . S
C1955 H1942 0.961 . S
C1955 H1943 0.959 . S
C1955 C1953 1.561 . S
C1956 C1953 1.526 . S
C1956 C1957 1.396 . S
C1956 C1961 1.390 . S
C1957 C1951 1.465 . S
C1957 C1956 1.396 . S
C1957 C1958 1.399 . S
C1958 H1944 0.929 . S
C1958 C1957 1.399 . S
C1958 C1959 1.385 . S
C1959 H1945 0.931 . S
C1959 C1958 1.385 . S
C1959 C1960 1.389 . S
C1960 C1959 1.389 . S
C1960 C1961 1.387 . S
C1961 H1946 0.930 . S
C1961 C1956 1.390 . S
C1961 C1960 1.387 . S
H1962 C1974 0.930 . S
H1963 C1976 0.930 . S
H1964 C1977 0.930 . S
H1965 C1981 0.959 . S
H1966 C1981 0.959 . S
H1967 C1981 0.961 . S
H1968 C1982 0.960 . S
H1969 C1982 0.961 . S
H1970 C1982 0.959 . S
H1971 C1985 0.929 . S
H1972 C1986 0.931 . S
H1973 C1988 0.930 . S
C1974 H1962 0.930 . S
C1974 C1975 1.399 . S
C1974 C1979 1.399 . S
C1975 C1974 1.399 . S
C1975 C1976 1.376 . S
C1976 H1963 0.930 . S
C1976 C1975 1.376 . S
C1976 C1977 1.388 . S
C1977 H1964 0.930 . S
C1977 C1976 1.388 . S
C1977 C1978 1.390 . S
C1978 C1977 1.390 . S
C1978 C1979 1.394 . S
C1978 C1984 1.465 . S
C1979 C1974 1.399 . S
C1979 C1978 1.394 . S
C1979 C1980 1.516 . S
C1980 C1979 1.516 . S
C1980 C1981 1.502 . S
C1980 C1982 1.561 . S
C1980 C1983 1.526 . S
C1981 H1965 0.959 . S
C1981 H1966 0.959 . S
C1981 H1967 0.961 . S
C1981 C1980 1.502 . S
C1982 H1968 0.960 . S
C1982 H1969 0.961 . S
C1982 H1970 0.959 . S
C1982 C1980 1.561 . S
C1983 C1980 1.526 . S
C1983 C1984 1.396 . S
C1983 C1988 1.390 . S
C1984 C1978 1.465 . S
C1984 C1983 1.396 . S
C1984 C1985 1.399 . S
C1985 H1971 0.929 . S
C1985 C1984 1.399 . S
C1985 C1986 1.385 . S
C1986 H1972 0.931 . S
C1986 C1985 1.385 . S
C1986 C1987 1.389 . S
C1987 C1986 1.389 . S
C1987 C1988 1.387 . S
C1988 H1973 0.930 . S
C1988 C1983 1.390 . S
C1988 C1987 1.387 . S
H1989 C2001 0.930 . S
H1990 C2003 0.930 . S
H1991 C2004 0.930 . S
H1992 C2008 0.959 . S
H1993 C2008 0.959 . S
H1994 C2008 0.961 . S
H1995 C2009 0.960 . S
H1996 C2009 0.961 . S
H1997 C2009 0.959 . S
H1998 C2012 0.929 . S
H1999 C2013 0.931 . S
H2000 C2015 0.930 . S
C2001 H1989 0.930 . S
C2001 C2002 1.399 . S
C2001 C2006 1.399 . S
C2002 C2001 1.399 . S
C2002 C2003 1.376 . S
C2003 H1990 0.930 . S
C2003 C2002 1.376 . S
C2003 C2004 1.388 . S
C2004 H1991 0.930 . S
C2004 C2003 1.388 . S
C2004 C2005 1.390 . S
C2005 C2004 1.390 . S
C2005 C2006 1.394 . S
C2005 C2011 1.465 . S
C2006 C2001 1.399 . S
C2006 C2005 1.394 . S
C2006 C2007 1.516 . S
C2007 C2006 1.516 . S
C2007 C2008 1.502 . S
C2007 C2009 1.561 . S
C2007 C2010 1.526 . S
C2008 H1992 0.959 . S
C2008 H1993 0.959 . S
C2008 H1994 0.961 . S
C2008 C2007 1.502 . S
C2009 H1995 0.960 . S
C2009 H1996 0.961 . S
C2009 H1997 0.959 . S
C2009 C2007 1.561 . S
C2010 C2007 1.526 . S
C2010 C2011 1.396 . S
C2010 C2015 1.390 . S
C2011 C2005 1.465 . S
C2011 C2010 1.396 . S
C2011 C2012 1.399 . S
C2012 H1998 0.929 . S
C2012 C2011 1.399 . S
C2012 C2013 1.385 . S
C2013 H1999 0.931 . S
C2013 C2012 1.385 . S
C2013 C2014 1.389 . S
C2014 C2013 1.389 . S
C2014 C2015 1.387 . S
C2015 H2000 0.930 . S
C2015 C2010 1.390 . S
C2015 C2014 1.387 . S
H2016 C2028 0.930 . S
H2017 C2030 0.930 . S
H2018 C2031 0.930 . S
H2019 C2035 0.959 . S
H2020 C2035 0.959 . S
H2021 C2035 0.961 . S
H2022 C2036 0.960 . S
H2023 C2036 0.961 . S
H2024 C2036 0.959 . S
H2025 C2039 0.929 . S
H2026 C2040 0.931 . S
H2027 C2042 0.930 . S
C2028 H2016 0.930 . S
C2028 C2029 1.399 . S
C2028 C2033 1.399 . S
C2029 C2028 1.399 . S
C2029 C2030 1.376 . S
C2030 H2017 0.930 . S
C2030 C2029 1.376 . S
C2030 C2031 1.388 . S
C2031 H2018 0.930 . S
C2031 C2030 1.388 . S
C2031 C2032 1.390 . S
C2032 C2031 1.390 . S
C2032 C2033 1.394 . S
C2032 C2038 1.465 . S
C2033 C2028 1.399 . S
C2033 C2032 1.394 . S
C2033 C2034 1.516 . S
C2034 C2033 1.516 . S
C2034 C2035 1.502 . S
C2034 C2036 1.561 . S
C2034 C2037 1.526 . S
C2035 H2019 0.959 . S
C2035 H2020 0.959 . S
C2035 H2021 0.961 . S
C2035 C2034 1.502 . S
C2036 H2022 0.960 . S
C2036 H2023 0.961 . S
C2036 H2024 0.959 . S
C2036 C2034 1.561 . S
C2037 C2034 1.526 . S
C2037 C2038 1.396 . S
C2037 C2042 1.390 . S
C2038 C2032 1.465 . S
C2038 C2037 1.396 . S
C2038 C2039 1.399 . S
C2039 H2025 0.929 . S
C2039 C2038 1.399 . S
C2039 C2040 1.385 . S
C2040 H2026 0.931 . S
C2040 C2039 1.385 . S
C2040 C2041 1.389 . S
C2041 C2040 1.389 . S
C2041 C2042 1.387 . S
C2042 H2027 0.930 . S
C2042 C2037 1.390 . S
C2042 C2041 1.387 . S
H2043 C2055 0.930 . S
H2044 C2057 0.930 . S
H2045 C2058 0.930 . S
H2046 C2062 0.959 . S
H2047 C2062 0.959 . S
H2048 C2062 0.961 . S
H2049 C2063 0.960 . S
H2050 C2063 0.961 . S
H2051 C2063 0.959 . S
H2052 C2066 0.929 . S
H2053 C2067 0.931 . S
H2054 C2069 0.930 . S
C2055 H2043 0.930 . S
C2055 C2056 1.399 . S
C2055 C2060 1.399 . S
C2056 C2055 1.399 . S
C2056 C2057 1.376 . S
C2057 H2044 0.930 . S
C2057 C2056 1.376 . S
C2057 C2058 1.388 . S
C2058 H2045 0.930 . S
C2058 C2057 1.388 . S
C2058 C2059 1.390 . S
C2059 C2058 1.390 . S
C2059 C2060 1.394 . S
C2059 C2065 1.465 . S
C2060 C2055 1.399 . S
C2060 C2059 1.394 . S
C2060 C2061 1.516 . S
C2061 C2060 1.516 . S
C2061 C2062 1.502 . S
C2061 C2063 1.561 . S
C2061 C2064 1.526 . S
C2062 H2046 0.959 . S
C2062 H2047 0.959 . S
C2062 H2048 0.961 . S
C2062 C2061 1.502 . S
C2063 H2049 0.960 . S
C2063 H2050 0.961 . S
C2063 H2051 0.959 . S
C2063 C2061 1.561 . S
C2064 C2061 1.526 . S
C2064 C2065 1.396 . S
C2064 C2069 1.390 . S
C2065 C2059 1.465 . S
C2065 C2064 1.396 . S
C2065 C2066 1.399 . S
C2066 H2052 0.929 . S
C2066 C2065 1.399 . S
C2066 C2067 1.385 . S
C2067 H2053 0.931 . S
C2067 C2066 1.385 . S
C2067 C2068 1.389 . S
C2068 C2067 1.389 . S
C2068 C2069 1.387 . S
C2069 H2054 0.930 . S
C2069 C2064 1.390 . S
C2069 C2068 1.387 . S
H2070 C2082 0.930 . S
H2071 C2084 0.930 . S
H2072 C2085 0.930 . S
H2073 C2089 0.959 . S
H2074 C2089 0.959 . S
H2075 C2089 0.961 . S
H2076 C2090 0.960 . S
H2077 C2090 0.961 . S
H2078 C2090 0.959 . S
H2079 C2093 0.929 . S
H2080 C2094 0.931 . S
H2081 C2096 0.930 . S
C2082 H2070 0.930 . S
C2082 C2083 1.399 . S
C2082 C2087 1.399 . S
C2083 C2082 1.399 . S
C2083 C2084 1.376 . S
C2084 H2071 0.930 . S
C2084 C2083 1.376 . S
C2084 C2085 1.388 . S
C2085 H2072 0.930 . S
C2085 C2084 1.388 . S
C2085 C2086 1.390 . S
C2086 C2085 1.390 . S
C2086 C2087 1.394 . S
C2086 C2092 1.465 . S
C2087 C2082 1.399 . S
C2087 C2086 1.394 . S
C2087 C2088 1.516 . S
C2088 C2087 1.516 . S
C2088 C2089 1.502 . S
C2088 C2090 1.561 . S
C2088 C2091 1.526 . S
C2089 H2073 0.959 . S
C2089 H2074 0.959 . S
C2089 H2075 0.961 . S
C2089 C2088 1.502 . S
C2090 H2076 0.960 . S
C2090 H2077 0.961 . S
C2090 H2078 0.959 . S
C2090 C2088 1.561 . S
C2091 C2088 1.526 . S
C2091 C2092 1.396 . S
C2091 C2096 1.390 . S
C2092 C2086 1.465 . S
C2092 C2091 1.396 . S
C2092 C2093 1.399 . S
C2093 H2079 0.929 . S
C2093 C2092 1.399 . S
C2093 C2094 1.385 . S
C2094 H2080 0.931 . S
C2094 C2093 1.385 . S
C2094 C2095 1.389 . S
C2095 C2094 1.389 . S
C2095 C2096 1.387 . S
C2096 H2081 0.930 . S
C2096 C2091 1.390 . S
C2096 C2095 1.387 . S
H2097 C2109 0.930 . S
H2098 C2111 0.930 . S
H2099 C2112 0.930 . S
H2100 C2116 0.959 . S
H2101 C2116 0.959 . S
H2102 C2116 0.961 . S
H2103 C2117 0.960 . S
H2104 C2117 0.961 . S
H2105 C2117 0.959 . S
H2106 C2120 0.929 . S
H2107 C2121 0.931 . S
H2108 C2123 0.930 . S
C2109 H2097 0.930 . S
C2109 C2110 1.399 . S
C2109 C2114 1.399 . S
C2110 C2109 1.399 . S
C2110 C2111 1.376 . S
C2111 H2098 0.930 . S
C2111 C2110 1.376 . S
C2111 C2112 1.388 . S
C2112 H2099 0.930 . S
C2112 C2111 1.388 . S
C2112 C2113 1.390 . S
C2113 C2112 1.390 . S
C2113 C2114 1.394 . S
C2113 C2119 1.465 . S
C2114 C2109 1.399 . S
C2114 C2113 1.394 . S
C2114 C2115 1.516 . S
C2115 C2114 1.516 . S
C2115 C2116 1.502 . S
C2115 C2117 1.561 . S
C2115 C2118 1.526 . S
C2116 H2100 0.959 . S
C2116 H2101 0.959 . S
C2116 H2102 0.961 . S
C2116 C2115 1.502 . S
C2117 H2103 0.960 . S
C2117 H2104 0.961 . S
C2117 H2105 0.959 . S
C2117 C2115 1.561 . S
C2118 C2115 1.526 . S
C2118 C2119 1.396 . S
C2118 C2123 1.390 . S
C2119 C2113 1.465 . S
C2119 C2118 1.396 . S
C2119 C2120 1.399 . S
C2120 H2106 0.929 . S
C2120 C2119 1.399 . S
C2120 C2121 1.385 . S
C2121 H2107 0.931 . S
C2121 C2120 1.385 . S
C2121 C2122 1.389 . S
C2122 C2121 1.389 . S
C2122 C2123 1.387 . S
C2123 H2108 0.930 . S
C2123 C2118 1.390 . S
C2123 C2122 1.387 . S
H2124 C2136 0.930 . S
H2125 C2138 0.930 . S
H2126 C2139 0.930 . S
H2127 C2143 0.959 . S
H2128 C2143 0.959 . S
H2129 C2143 0.961 . S
H2130 C2144 0.960 . S
H2131 C2144 0.961 . S
H2132 C2144 0.959 . S
H2133 C2147 0.929 . S
H2134 C2148 0.931 . S
H2135 C2150 0.930 . S
C2136 H2124 0.930 . S
C2136 C2137 1.399 . S
C2136 C2141 1.399 . S
C2137 C2136 1.399 . S
C2137 C2138 1.376 . S
C2138 H2125 0.930 . S
C2138 C2137 1.376 . S
C2138 C2139 1.388 . S
C2139 H2126 0.930 . S
C2139 C2138 1.388 . S
C2139 C2140 1.390 . S
C2140 C2139 1.390 . S
C2140 C2141 1.394 . S
C2140 C2146 1.465 . S
C2141 C2136 1.399 . S
C2141 C2140 1.394 . S
C2141 C2142 1.516 . S
C2142 C2141 1.516 . S
C2142 C2143 1.502 . S
C2142 C2144 1.561 . S
C2142 C2145 1.526 . S
C2143 H2127 0.959 . S
C2143 H2128 0.959 . S
C2143 H2129 0.961 . S
C2143 C2142 1.502 . S
C2144 H2130 0.960 . S
C2144 H2131 0.961 . S
C2144 H2132 0.959 . S
C2144 C2142 1.561 . S
C2145 C2142 1.526 . S
C2145 C2146 1.396 . S
C2145 C2150 1.390 . S
C2146 C2140 1.465 . S
C2146 C2145 1.396 . S
C2146 C2147 1.399 . S
C2147 H2133 0.929 . S
C2147 C2146 1.399 . S
C2147 C2148 1.385 . S
C2148 H2134 0.931 . S
C2148 C2147 1.385 . S
C2148 C2149 1.389 . S
C2149 C2148 1.389 . S
C2149 C2150 1.387 . S
C2150 H2135 0.930 . S
C2150 C2145 1.390 . S
C2150 C2149 1.387 . S
H2151 C2163 0.930 . S
H2152 C2165 0.930 . S
H2153 C2166 0.930 . S
H2154 C2170 0.959 . S
H2155 C2170 0.959 . S
H2156 C2170 0.961 . S
H2157 C2171 0.960 . S
H2158 C2171 0.961 . S
H2159 C2171 0.959 . S
H2160 C2174 0.929 . S
H2161 C2175 0.931 . S
H2162 C2177 0.930 . S
C2163 H2151 0.930 . S
C2163 C2164 1.399 . S
C2163 C2168 1.399 . S
C2164 C2163 1.399 . S
C2164 C2165 1.376 . S
C2165 H2152 0.930 . S
C2165 C2164 1.376 . S
C2165 C2166 1.388 . S
C2166 H2153 0.930 . S
C2166 C2165 1.388 . S
C2166 C2167 1.390 . S
C2167 C2166 1.390 . S
C2167 C2168 1.394 . S
C2167 C2173 1.465 . S
C2168 C2163 1.399 . S
C2168 C2167 1.394 . S
C2168 C2169 1.516 . S
C2169 C2168 1.516 . S
C2169 C2170 1.502 . S
C2169 C2171 1.561 . S
C2169 C2172 1.526 . S
C2170 H2154 0.959 . S
C2170 H2155 0.959 . S
C2170 H2156 0.961 . S
C2170 C2169 1.502 . S
C2171 H2157 0.960 . S
C2171 H2158 0.961 . S
C2171 H2159 0.959 . S
C2171 C2169 1.561 . S
C2172 C2169 1.526 . S
C2172 C2173 1.396 . S
C2172 C2177 1.390 . S
C2173 C2167 1.465 . S
C2173 C2172 1.396 . S
C2173 C2174 1.399 . S
C2174 H2160 0.929 . S
C2174 C2173 1.399 . S
C2174 C2175 1.385 . S
C2175 H2161 0.931 . S
C2175 C2174 1.385 . S
C2175 C2176 1.389 . S
C2176 C2175 1.389 . S
C2176 C2177 1.387 . S
C2177 H2162 0.930 . S
C2177 C2172 1.390 . S
C2177 C2176 1.387 . S
H2178 C2190 0.930 . S
H2179 C2192 0.930 . S
H2180 C2193 0.930 . S
H2181 C2197 0.959 . S
H2182 C2197 0.959 . S
H2183 C2197 0.961 . S
H2184 C2198 0.960 . S
H2185 C2198 0.961 . S
H2186 C2198 0.959 . S
H2187 C2201 0.929 . S
H2188 C2202 0.931 . S
H2189 C2204 0.930 . S
C2190 H2178 0.930 . S
C2190 C2191 1.399 . S
C2190 C2195 1.399 . S
C2191 C2190 1.399 . S
C2191 C2192 1.376 . S
C2192 H2179 0.930 . S
C2192 C2191 1.376 . S
C2192 C2193 1.388 . S
C2193 H2180 0.930 . S
C2193 C2192 1.388 . S
C2193 C2194 1.390 . S
C2194 C2193 1.390 . S
C2194 C2195 1.394 . S
C2194 C2200 1.465 . S
C2195 C2190 1.399 . S
C2195 C2194 1.394 . S
C2195 C2196 1.516 . S
C2196 C2195 1.516 . S
C2196 C2197 1.502 . S
C2196 C2198 1.561 . S
C2196 C2199 1.526 . S
C2197 H2181 0.959 . S
C2197 H2182 0.959 . S
C2197 H2183 0.961 . S
C2197 C2196 1.502 . S
C2198 H2184 0.960 . S
C2198 H2185 0.961 . S
C2198 H2186 0.959 . S
C2198 C2196 1.561 . S
C2199 C2196 1.526 . S
C2199 C2200 1.396 . S
C2199 C2204 1.390 . S
C2200 C2194 1.465 . S
C2200 C2199 1.396 . S
C2200 C2201 1.399 . S
C2201 H2187 0.929 . S
C2201 C2200 1.399 . S
C2201 C2202 1.385 . S
C2202 H2188 0.931 . S
C2202 C2201 1.385 . S
C2202 C2203 1.389 . S
C2203 C2202 1.389 . S
C2203 C2204 1.387 . S
C2204 H2189 0.930 . S
C2204 C2199 1.390 . S
C2204 C2203 1.387 . S
H2205 C2217 0.930 . S
H2206 C2219 0.930 . S
H2207 C2220 0.930 . S
H2208 C2224 0.959 . S
H2209 C2224 0.959 . S
H2210 C2224 0.961 . S
H2211 C2225 0.960 . S
H2212 C2225 0.961 . S
H2213 C2225 0.959 . S
H2214 C2228 0.929 . S
H2215 C2229 0.931 . S
H2216 C2231 0.930 . S
C2217 H2205 0.930 . S
C2217 C2218 1.399 . S
C2217 C2222 1.399 . S
C2218 C2217 1.399 . S
C2218 C2219 1.376 . S
C2219 H2206 0.930 . S
C2219 C2218 1.376 . S
C2219 C2220 1.388 . S
C2220 H2207 0.930 . S
C2220 C2219 1.388 . S
C2220 C2221 1.390 . S
C2221 C2220 1.390 . S
C2221 C2222 1.394 . S
C2221 C2227 1.465 . S
C2222 C2217 1.399 . S
C2222 C2221 1.394 . S
C2222 C2223 1.516 . S
C2223 C2222 1.516 . S
C2223 C2224 1.502 . S
C2223 C2225 1.561 . S
C2223 C2226 1.526 . S
C2224 H2208 0.959 . S
C2224 H2209 0.959 . S
C2224 H2210 0.961 . S
C2224 C2223 1.502 . S
C2225 H2211 0.960 . S
C2225 H2212 0.961 . S
C2225 H2213 0.959 . S
C2225 C2223 1.561 . S
C2226 C2223 1.526 . S
C2226 C2227 1.396 . S
C2226 C2231 1.390 . S
C2227 C2221 1.465 . S
C2227 C2226 1.396 . S
C2227 C2228 1.399 . S
C2228 H2214 0.929 . S
C2228 C2227 1.399 . S
C2228 C2229 1.385 . S
C2229 H2215 0.931 . S
C2229 C2228 1.385 . S
C2229 C2230 1.389 . S
C2230 C2229 1.389 . S
C2230 C2231 1.387 . S
C2231 H2216 0.930 . S
C2231 C2226 1.390 . S
C2231 C2230 1.387 . S
H2232 C2244 0.930 . S
H2233 C2246 0.930 . S
H2234 C2247 0.930 . S
H2235 C2251 0.959 . S
H2236 C2251 0.959 . S
H2237 C2251 0.961 . S
H2238 C2252 0.960 . S
H2239 C2252 0.961 . S
H2240 C2252 0.959 . S
H2241 C2255 0.929 . S
H2242 C2256 0.931 . S
H2243 C2258 0.930 . S
C2244 H2232 0.930 . S
C2244 C2245 1.399 . S
C2244 C2249 1.399 . S
C2245 C2244 1.399 . S
C2245 C2246 1.376 . S
C2246 H2233 0.930 . S
C2246 C2245 1.376 . S
C2246 C2247 1.388 . S
C2247 H2234 0.930 . S
C2247 C2246 1.388 . S
C2247 C2248 1.390 . S
C2248 C2247 1.390 . S
C2248 C2249 1.394 . S
C2248 C2254 1.465 . S
C2249 C2244 1.399 . S
C2249 C2248 1.394 . S
C2249 C2250 1.516 . S
C2250 C2249 1.516 . S
C2250 C2251 1.502 . S
C2250 C2252 1.561 . S
C2250 C2253 1.526 . S
C2251 H2235 0.959 . S
C2251 H2236 0.959 . S
C2251 H2237 0.961 . S
C2251 C2250 1.502 . S
C2252 H2238 0.960 . S
C2252 H2239 0.961 . S
C2252 H2240 0.959 . S
C2252 C2250 1.561 . S
C2253 C2250 1.526 . S
C2253 C2254 1.396 . S
C2253 C2258 1.390 . S
C2254 C2248 1.465 . S
C2254 C2253 1.396 . S
C2254 C2255 1.399 . S
C2255 H2241 0.929 . S
C2255 C2254 1.399 . S
C2255 C2256 1.385 . S
C2256 H2242 0.931 . S
C2256 C2255 1.385 . S
C2256 C2257 1.389 . S
C2257 C2256 1.389 . S
C2257 C2258 1.387 . S
C2258 H2243 0.930 . S
C2258 C2253 1.390 . S
C2258 C2257 1.387 . S
H2259 C2271 0.930 . S
H2260 C2273 0.930 . S
H2261 C2274 0.930 . S
H2262 C2278 0.959 . S
H2263 C2278 0.959 . S
H2264 C2278 0.961 . S
H2265 C2279 0.960 . S
H2266 C2279 0.961 . S
H2267 C2279 0.959 . S
H2268 C2282 0.929 . S
H2269 C2283 0.931 . S
H2270 C2285 0.930 . S
C2271 H2259 0.930 . S
C2271 C2272 1.399 . S
C2271 C2276 1.399 . S
C2272 C2271 1.399 . S
C2272 C2273 1.376 . S
C2273 H2260 0.930 . S
C2273 C2272 1.376 . S
C2273 C2274 1.388 . S
C2274 H2261 0.930 . S
C2274 C2273 1.388 . S
C2274 C2275 1.390 . S
C2275 C2274 1.390 . S
C2275 C2276 1.394 . S
C2275 C2281 1.465 . S
C2276 C2271 1.399 . S
C2276 C2275 1.394 . S
C2276 C2277 1.516 . S
C2277 C2276 1.516 . S
C2277 C2278 1.502 . S
C2277 C2279 1.561 . S
C2277 C2280 1.526 . S
C2278 H2262 0.959 . S
C2278 H2263 0.959 . S
C2278 H2264 0.961 . S
C2278 C2277 1.502 . S
C2279 H2265 0.960 . S
C2279 H2266 0.961 . S
C2279 H2267 0.959 . S
C2279 C2277 1.561 . S
C2280 C2277 1.526 . S
C2280 C2281 1.396 . S
C2280 C2285 1.390 . S
C2281 C2275 1.465 . S
C2281 C2280 1.396 . S
C2281 C2282 1.399 . S
C2282 H2268 0.929 . S
C2282 C2281 1.399 . S
C2282 C2283 1.385 . S
C2283 H2269 0.931 . S
C2283 C2282 1.385 . S
C2283 C2284 1.389 . S
C2284 C2283 1.389 . S
C2284 C2285 1.387 . S
C2285 H2270 0.930 . S
C2285 C2280 1.390 . S
C2285 C2284 1.387 . S
H2286 C2298 0.930 . S
H2287 C2300 0.930 . S
H2288 C2301 0.930 . S
H2289 C2305 0.959 . S
H2290 C2305 0.959 . S
H2291 C2305 0.961 . S
H2292 C2306 0.960 . S
H2293 C2306 0.961 . S
H2294 C2306 0.959 . S
H2295 C2309 0.929 . S
H2296 C2310 0.931 . S
H2297 C2312 0.930 . S
C2298 H2286 0.930 . S
C2298 C2299 1.399 . S
C2298 C2303 1.399 . S
C2299 C2298 1.399 . S
C2299 C2300 1.376 . S
C2300 H2287 0.930 . S
C2300 C2299 1.376 . S
C2300 C2301 1.388 . S
C2301 H2288 0.930 . S
C2301 C2300 1.388 . S
C2301 C2302 1.390 . S
C2302 C2301 1.390 . S
C2302 C2303 1.394 . S
C2302 C2308 1.465 . S
C2303 C2298 1.399 . S
C2303 C2302 1.394 . S
C2303 C2304 1.516 . S
C2304 C2303 1.516 . S
C2304 C2305 1.502 . S
C2304 C2306 1.561 . S
C2304 C2307 1.526 . S
C2305 H2289 0.959 . S
C2305 H2290 0.959 . S
C2305 H2291 0.961 . S
C2305 C2304 1.502 . S
C2306 H2292 0.960 . S
C2306 H2293 0.961 . S
C2306 H2294 0.959 . S
C2306 C2304 1.561 . S
C2307 C2304 1.526 . S
C2307 C2308 1.396 . S
C2307 C2312 1.390 . S
C2308 C2302 1.465 . S
C2308 C2307 1.396 . S
C2308 C2309 1.399 . S
C2309 H2295 0.929 . S
C2309 C2308 1.399 . S
C2309 C2310 1.385 . S
C2310 H2296 0.931 . S
C2310 C2309 1.385 . S
C2310 C2311 1.389 . S
C2311 C2310 1.389 . S
C2311 C2312 1.387 . S
C2312 H2297 0.930 . S
C2312 C2307 1.390 . S
C2312 C2311 1.387 . S
H2313 C2325 0.930 . S
H2314 C2327 0.930 . S
H2315 C2328 0.930 . S
H2316 C2332 0.959 . S
H2317 C2332 0.959 . S
H2318 C2332 0.961 . S
H2319 C2333 0.960 . S
H2320 C2333 0.961 . S
H2321 C2333 0.959 . S
H2322 C2336 0.929 . S
H2323 C2337 0.931 . S
H2324 C2339 0.930 . S
C2325 H2313 0.930 . S
C2325 C2326 1.399 . S
C2325 C2330 1.399 . S
C2326 C2325 1.399 . S
C2326 C2327 1.376 . S
C2327 H2314 0.930 . S
C2327 C2326 1.376 . S
C2327 C2328 1.388 . S
C2328 H2315 0.930 . S
C2328 C2327 1.388 . S
C2328 C2329 1.390 . S
C2329 C2328 1.390 . S
C2329 C2330 1.394 . S
C2329 C2335 1.465 . S
C2330 C2325 1.399 . S
C2330 C2329 1.394 . S
C2330 C2331 1.516 . S
C2331 C2330 1.516 . S
C2331 C2332 1.502 . S
C2331 C2333 1.561 . S
C2331 C2334 1.526 . S
C2332 H2316 0.959 . S
C2332 H2317 0.959 . S
C2332 H2318 0.961 . S
C2332 C2331 1.502 . S
C2333 H2319 0.960 . S
C2333 H2320 0.961 . S
C2333 H2321 0.959 . S
C2333 C2331 1.561 . S
C2334 C2331 1.526 . S
C2334 C2335 1.396 . S
C2334 C2339 1.390 . S
C2335 C2329 1.465 . S
C2335 C2334 1.396 . S
C2335 C2336 1.399 . S
C2336 H2322 0.929 . S
C2336 C2335 1.399 . S
C2336 C2337 1.385 . S
C2337 H2323 0.931 . S
C2337 C2336 1.385 . S
C2337 C2338 1.389 . S
C2338 C2337 1.389 . S
C2338 C2339 1.387 . S
C2339 H2324 0.930 . S
C2339 C2334 1.390 . S
C2339 C2338 1.387 . S
H2340 C2352 0.930 . S
H2341 C2354 0.930 . S
H2342 C2355 0.930 . S
H2343 C2359 0.959 . S
H2344 C2359 0.959 . S
H2345 C2359 0.961 . S
H2346 C2360 0.960 . S
H2347 C2360 0.961 . S
H2348 C2360 0.959 . S
H2349 C2363 0.929 . S
H2350 C2364 0.931 . S
H2351 C2366 0.930 . S
C2352 H2340 0.930 . S
C2352 C2353 1.399 . S
C2352 C2357 1.399 . S
C2353 C2352 1.399 . S
C2353 C2354 1.376 . S
C2354 H2341 0.930 . S
C2354 C2353 1.376 . S
C2354 C2355 1.388 . S
C2355 H2342 0.930 . S
C2355 C2354 1.388 . S
C2355 C2356 1.390 . S
C2356 C2355 1.390 . S
C2356 C2357 1.394 . S
C2356 C2362 1.465 . S
C2357 C2352 1.399 . S
C2357 C2356 1.394 . S
C2357 C2358 1.516 . S
C2358 C2357 1.516 . S
C2358 C2359 1.502 . S
C2358 C2360 1.561 . S
C2358 C2361 1.526 . S
C2359 H2343 0.959 . S
C2359 H2344 0.959 . S
C2359 H2345 0.961 . S
C2359 C2358 1.502 . S
C2360 H2346 0.960 . S
C2360 H2347 0.961 . S
C2360 H2348 0.959 . S
C2360 C2358 1.561 . S
C2361 C2358 1.526 . S
C2361 C2362 1.396 . S
C2361 C2366 1.390 . S
C2362 C2356 1.465 . S
C2362 C2361 1.396 . S
C2362 C2363 1.399 . S
C2363 H2349 0.929 . S
C2363 C2362 1.399 . S
C2363 C2364 1.385 . S
C2364 H2350 0.931 . S
C2364 C2363 1.385 . S
C2364 C2365 1.389 . S
C2365 C2364 1.389 . S
C2365 C2366 1.387 . S
C2366 H2351 0.930 . S
C2366 C2361 1.390 . S
C2366 C2365 1.387 . S
H2367 C2379 0.930 . S
H2368 C2381 0.930 . S
H2369 C2382 0.930 . S
H2370 C2386 0.959 . S
H2371 C2386 0.959 . S
H2372 C2386 0.961 . S
H2373 C2387 0.960 . S
H2374 C2387 0.961 . S
H2375 C2387 0.959 . S
H2376 C2390 0.929 . S
H2377 C2391 0.931 . S
H2378 C2393 0.930 . S
C2379 H2367 0.930 . S
C2379 C2380 1.399 . S
C2379 C2384 1.399 . S
C2380 C2379 1.399 . S
C2380 C2381 1.376 . S
C2381 H2368 0.930 . S
C2381 C2380 1.376 . S
C2381 C2382 1.388 . S
C2382 H2369 0.930 . S
C2382 C2381 1.388 . S
C2382 C2383 1.390 . S
C2383 C2382 1.390 . S
C2383 C2384 1.394 . S
C2383 C2389 1.465 . S
C2384 C2379 1.399 . S
C2384 C2383 1.394 . S
C2384 C2385 1.516 . S
C2385 C2384 1.516 . S
C2385 C2386 1.502 . S
C2385 C2387 1.561 . S
C2385 C2388 1.526 . S
C2386 H2370 0.959 . S
C2386 H2371 0.959 . S
C2386 H2372 0.961 . S
C2386 C2385 1.502 . S
C2387 H2373 0.960 . S
C2387 H2374 0.961 . S
C2387 H2375 0.959 . S
C2387 C2385 1.561 . S
C2388 C2385 1.526 . S
C2388 C2389 1.396 . S
C2388 C2393 1.390 . S
C2389 C2383 1.465 . S
C2389 C2388 1.396 . S
C2389 C2390 1.399 . S
C2390 H2376 0.929 . S
C2390 C2389 1.399 . S
C2390 C2391 1.385 . S
C2391 H2377 0.931 . S
C2391 C2390 1.385 . S
C2391 C2392 1.389 . S
C2392 C2391 1.389 . S
C2392 C2393 1.387 . S
C2393 H2378 0.930 . S
C2393 C2388 1.390 . S
C2393 C2392 1.387 . S
H2394 C2406 0.930 . S
H2395 C2408 0.930 . S
H2396 C2409 0.930 . S
H2397 C2413 0.959 . S
H2398 C2413 0.959 . S
H2399 C2413 0.961 . S
H2400 C2414 0.960 . S
H2401 C2414 0.961 . S
H2402 C2414 0.959 . S
H2403 C2417 0.929 . S
H2404 C2418 0.931 . S
H2405 C2420 0.930 . S
C2406 H2394 0.930 . S
C2406 C2407 1.399 . S
C2406 C2411 1.399 . S
C2407 C2406 1.399 . S
C2407 C2408 1.376 . S
C2408 H2395 0.930 . S
C2408 C2407 1.376 . S
C2408 C2409 1.388 . S
C2409 H2396 0.930 . S
C2409 C2408 1.388 . S
C2409 C2410 1.390 . S
C2410 C2409 1.390 . S
C2410 C2411 1.394 . S
C2410 C2416 1.465 . S
C2411 C2406 1.399 . S
C2411 C2410 1.394 . S
C2411 C2412 1.516 . S
C2412 C2411 1.516 . S
C2412 C2413 1.502 . S
C2412 C2414 1.561 . S
C2412 C2415 1.526 . S
C2413 H2397 0.959 . S
C2413 H2398 0.959 . S
C2413 H2399 0.961 . S
C2413 C2412 1.502 . S
C2414 H2400 0.960 . S
C2414 H2401 0.961 . S
C2414 H2402 0.959 . S
C2414 C2412 1.561 . S
C2415 C2412 1.526 . S
C2415 C2416 1.396 . S
C2415 C2420 1.390 . S
C2416 C2410 1.465 . S
C2416 C2415 1.396 . S
C2416 C2417 1.399 . S
C2417 H2403 0.929 . S
C2417 C2416 1.399 . S
C2417 C2418 1.385 . S
C2418 H2404 0.931 . S
C2418 C2417 1.385 . S
C2418 C2419 1.389 . S
C2419 C2418 1.389 . S
C2419 C2420 1.387 . S
C2420 H2405 0.930 . S
C2420 C2415 1.390 . S
C2420 C2419 1.387 . S
H2421 C2433 0.930 . S
H2422 C2435 0.930 . S
H2423 C2436 0.930 . S
H2424 C2440 0.959 . S
H2425 C2440 0.959 . S
H2426 C2440 0.961 . S
H2427 C2441 0.960 . S
H2428 C2441 0.961 . S
H2429 C2441 0.959 . S
H2430 C2444 0.929 . S
H2431 C2445 0.931 . S
H2432 C2447 0.930 . S
C2433 H2421 0.930 . S
C2433 C2434 1.399 . S
C2433 C2438 1.399 . S
C2434 C2433 1.399 . S
C2434 C2435 1.376 . S
C2435 H2422 0.930 . S
C2435 C2434 1.376 . S
C2435 C2436 1.388 . S
C2436 H2423 0.930 . S
C2436 C2435 1.388 . S
C2436 C2437 1.390 . S
C2437 C2436 1.390 . S
C2437 C2438 1.394 . S
C2437 C2443 1.465 . S
C2438 C2433 1.399 . S
C2438 C2437 1.394 . S
C2438 C2439 1.516 . S
C2439 C2438 1.516 . S
C2439 C2440 1.502 . S
C2439 C2441 1.561 . S
C2439 C2442 1.526 . S
C2440 H2424 0.959 . S
C2440 H2425 0.959 . S
C2440 H2426 0.961 . S
C2440 C2439 1.502 . S
C2441 H2427 0.960 . S
C2441 H2428 0.961 . S
C2441 H2429 0.959 . S
C2441 C2439 1.561 . S
C2442 C2439 1.526 . S
C2442 C2443 1.396 . S
C2442 C2447 1.390 . S
C2443 C2437 1.465 . S
C2443 C2442 1.396 . S
C2443 C2444 1.399 . S
C2444 H2430 0.929 . S
C2444 C2443 1.399 . S
C2444 C2445 1.385 . S
C2445 H2431 0.931 . S
C2445 C2444 1.385 . S
C2445 C2446 1.389 . S
C2446 C2445 1.389 . S
C2446 C2447 1.387 . S
C2447 H2432 0.930 . S
C2447 C2442 1.390 . S
C2447 C2446 1.387 . S
H2448 C2460 0.930 . S
H2449 C2462 0.930 . S
H2450 C2463 0.930 . S
H2451 C2467 0.959 . S
H2452 C2467 0.959 . S
H2453 C2467 0.961 . S
H2454 C2468 0.960 . S
H2455 C2468 0.961 . S
H2456 C2468 0.959 . S
H2457 C2471 0.929 . S
H2458 C2472 0.931 . S
H2459 C2474 0.930 . S
C2460 H2448 0.930 . S
C2460 C2461 1.399 . S
C2460 C2465 1.399 . S
C2461 C2460 1.399 . S
C2461 C2462 1.376 . S
C2462 H2449 0.930 . S
C2462 C2461 1.376 . S
C2462 C2463 1.388 . S
C2463 H2450 0.930 . S
C2463 C2462 1.388 . S
C2463 C2464 1.390 . S
C2464 C2463 1.390 . S
C2464 C2465 1.394 . S
C2464 C2470 1.465 . S
C2465 C2460 1.399 . S
C2465 C2464 1.394 . S
C2465 C2466 1.516 . S
C2466 C2465 1.516 . S
C2466 C2467 1.502 . S
C2466 C2468 1.561 . S
C2466 C2469 1.526 . S
C2467 H2451 0.959 . S
C2467 H2452 0.959 . S
C2467 H2453 0.961 . S
C2467 C2466 1.502 . S
C2468 H2454 0.960 . S
C2468 H2455 0.961 . S
C2468 H2456 0.959 . S
C2468 C2466 1.561 . S
C2469 C2466 1.526 . S
C2469 C2470 1.396 . S
C2469 C2474 1.390 . S
C2470 C2464 1.465 . S
C2470 C2469 1.396 . S
C2470 C2471 1.399 . S
C2471 H2457 0.929 . S
C2471 C2470 1.399 . S
C2471 C2472 1.385 . S
C2472 H2458 0.931 . S
C2472 C2471 1.385 . S
C2472 C2473 1.389 . S
C2473 C2472 1.389 . S
C2473 C2474 1.387 . S
C2474 H2459 0.930 . S
C2474 C2469 1.390 . S
C2474 C2473 1.387 . S
H2475 C2487 0.930 . S
H2476 C2489 0.930 . S
H2477 C2490 0.930 . S
H2478 C2494 0.959 . S
H2479 C2494 0.959 . S
H2480 C2494 0.961 . S
H2481 C2495 0.960 . S
H2482 C2495 0.961 . S
H2483 C2495 0.959 . S
H2484 C2498 0.929 . S
H2485 C2499 0.931 . S
H2486 C2501 0.930 . S
C2487 H2475 0.930 . S
C2487 C2488 1.399 . S
C2487 C2492 1.399 . S
C2488 C2487 1.399 . S
C2488 C2489 1.376 . S
C2489 H2476 0.930 . S
C2489 C2488 1.376 . S
C2489 C2490 1.388 . S
C2490 H2477 0.930 . S
C2490 C2489 1.388 . S
C2490 C2491 1.390 . S
C2491 C2490 1.390 . S
C2491 C2492 1.394 . S
C2491 C2497 1.465 . S
C2492 C2487 1.399 . S
C2492 C2491 1.394 . S
C2492 C2493 1.516 . S
C2493 C2492 1.516 . S
C2493 C2494 1.502 . S
C2493 C2495 1.561 . S
C2493 C2496 1.526 . S
C2494 H2478 0.959 . S
C2494 H2479 0.959 . S
C2494 H2480 0.961 . S
C2494 C2493 1.502 . S
C2495 H2481 0.960 . S
C2495 H2482 0.961 . S
C2495 H2483 0.959 . S
C2495 C2493 1.561 . S
C2496 C2493 1.526 . S
C2496 C2497 1.396 . S
C2496 C2501 1.390 . S
C2497 C2491 1.465 . S
C2497 C2496 1.396 . S
C2497 C2498 1.399 . S
C2498 H2484 0.929 . S
C2498 C2497 1.399 . S
C2498 C2499 1.385 . S
C2499 H2485 0.931 . S
C2499 C2498 1.385 . S
C2499 C2500 1.389 . S
C2500 C2499 1.389 . S
C2500 C2501 1.387 . S
C2501 H2486 0.930 . S
C2501 C2496 1.390 . S
C2501 C2500 1.387 . S
H2502 C2514 0.930 . S
H2503 C2516 0.930 . S
H2504 C2517 0.930 . S
H2505 C2521 0.959 . S
H2506 C2521 0.959 . S
H2507 C2521 0.961 . S
H2508 C2522 0.960 . S
H2509 C2522 0.961 . S
H2510 C2522 0.959 . S
H2511 C2525 0.929 . S
H2512 C2526 0.931 . S
H2513 C2528 0.930 . S
C2514 H2502 0.930 . S
C2514 C2515 1.399 . S
C2514 C2519 1.399 . S
C2515 C2514 1.399 . S
C2515 C2516 1.376 . S
C2516 H2503 0.930 . S
C2516 C2515 1.376 . S
C2516 C2517 1.388 . S
C2517 H2504 0.930 . S
C2517 C2516 1.388 . S
C2517 C2518 1.390 . S
C2518 C2517 1.390 . S
C2518 C2519 1.394 . S
C2518 C2524 1.465 . S
C2519 C2514 1.399 . S
C2519 C2518 1.394 . S
C2519 C2520 1.516 . S
C2520 C2519 1.516 . S
C2520 C2521 1.502 . S
C2520 C2522 1.561 . S
C2520 C2523 1.526 . S
C2521 H2505 0.959 . S
C2521 H2506 0.959 . S
C2521 H2507 0.961 . S
C2521 C2520 1.502 . S
C2522 H2508 0.960 . S
C2522 H2509 0.961 . S
C2522 H2510 0.959 . S
C2522 C2520 1.561 . S
C2523 C2520 1.526 . S
C2523 C2524 1.396 . S
C2523 C2528 1.390 . S
C2524 C2518 1.465 . S
C2524 C2523 1.396 . S
C2524 C2525 1.399 . S
C2525 H2511 0.929 . S
C2525 C2524 1.399 . S
C2525 C2526 1.385 . S
C2526 H2512 0.931 . S
C2526 C2525 1.385 . S
C2526 C2527 1.389 . S
C2527 C2526 1.389 . S
C2527 C2528 1.387 . S
C2528 H2513 0.930 . S
C2528 C2523 1.390 . S
C2528 C2527 1.387 . S
H2529 C2541 0.930 . S
H2530 C2543 0.930 . S
H2531 C2544 0.930 . S
H2532 C2548 0.959 . S
H2533 C2548 0.959 . S
H2534 C2548 0.961 . S
H2535 C2549 0.960 . S
H2536 C2549 0.961 . S
H2537 C2549 0.959 . S
H2538 C2552 0.929 . S
H2539 C2553 0.931 . S
H2540 C2555 0.930 . S
C2541 H2529 0.930 . S
C2541 C2542 1.399 . S
C2541 C2546 1.399 . S
C2542 C2541 1.399 . S
C2542 C2543 1.376 . S
C2543 H2530 0.930 . S
C2543 C2542 1.376 . S
C2543 C2544 1.388 . S
C2544 H2531 0.930 . S
C2544 C2543 1.388 . S
C2544 C2545 1.390 . S
C2545 C2544 1.390 . S
C2545 C2546 1.394 . S
C2545 C2551 1.465 . S
C2546 C2541 1.399 . S
C2546 C2545 1.394 . S
C2546 C2547 1.516 . S
C2547 C2546 1.516 . S
C2547 C2548 1.502 . S
C2547 C2549 1.561 . S
C2547 C2550 1.526 . S
C2548 H2532 0.959 . S
C2548 H2533 0.959 . S
C2548 H2534 0.961 . S
C2548 C2547 1.502 . S
C2549 H2535 0.960 . S
C2549 H2536 0.961 . S
C2549 H2537 0.959 . S
C2549 C2547 1.561 . S
C2550 C2547 1.526 . S
C2550 C2551 1.396 . S
C2550 C2555 1.390 . S
C2551 C2545 1.465 . S
C2551 C2550 1.396 . S
C2551 C2552 1.399 . S
C2552 H2538 0.929 . S
C2552 C2551 1.399 . S
C2552 C2553 1.385 . S
C2553 H2539 0.931 . S
C2553 C2552 1.385 . S
C2553 C2554 1.389 . S
C2554 C2553 1.389 . S
C2554 C2555 1.387 . S
C2555 H2540 0.930 . S
C2555 C2550 1.390 . S
C2555 C2554 1.387 . S
H2556 C2568 0.930 . S
H2557 C2570 0.930 . S
H2558 C2571 0.930 . S
H2559 C2575 0.959 . S
H2560 C2575 0.959 . S
H2561 C2575 0.961 . S
H2562 C2576 0.960 . S
H2563 C2576 0.961 . S
H2564 C2576 0.959 . S
H2565 C2579 0.929 . S
H2566 C2580 0.931 . S
H2567 C2582 0.930 . S
C2568 H2556 0.930 . S
C2568 C2569 1.399 . S
C2568 C2573 1.399 . S
C2569 C2568 1.399 . S
C2569 C2570 1.376 . S
C2570 H2557 0.930 . S
C2570 C2569 1.376 . S
C2570 C2571 1.388 . S
C2571 H2558 0.930 . S
C2571 C2570 1.388 . S
C2571 C2572 1.390 . S
C2572 C2571 1.390 . S
C2572 C2573 1.394 . S
C2572 C2578 1.465 . S
C2573 C2568 1.399 . S
C2573 C2572 1.394 . S
C2573 C2574 1.516 . S
C2574 C2573 1.516 . S
C2574 C2575 1.502 . S
C2574 C2576 1.561 . S
C2574 C2577 1.526 . S
C2575 H2559 0.959 . S
C2575 H2560 0.959 . S
C2575 H2561 0.961 . S
C2575 C2574 1.502 . S
C2576 H2562 0.960 . S
C2576 H2563 0.961 . S
C2576 H2564 0.959 . S
C2576 C2574 1.561 . S
C2577 C2574 1.526 . S
C2577 C2578 1.396 . S
C2577 C2582 1.390 . S
C2578 C2572 1.465 . S
C2578 C2577 1.396 . S
C2578 C2579 1.399 . S
C2579 H2565 0.929 . S
C2579 C2578 1.399 . S
C2579 C2580 1.385 . S
C2580 H2566 0.931 . S
C2580 C2579 1.385 . S
C2580 C2581 1.389 . S
C2581 C2580 1.389 . S
C2581 C2582 1.387 . S
C2582 H2567 0.930 . S
C2582 C2577 1.390 . S
C2582 C2581 1.387 . S
H2583 C2595 0.930 . S
H2584 C2597 0.930 . S
H2585 C2598 0.930 . S
H2586 C2602 0.959 . S
H2587 C2602 0.959 . S
H2588 C2602 0.961 . S
H2589 C2603 0.960 . S
H2590 C2603 0.961 . S
H2591 C2603 0.959 . S
H2592 C2606 0.929 . S
H2593 C2607 0.931 . S
H2594 C2609 0.930 . S
C2595 H2583 0.930 . S
C2595 C2596 1.399 . S
C2595 C2600 1.399 . S
C2596 C2595 1.399 . S
C2596 C2597 1.376 . S
C2597 H2584 0.930 . S
C2597 C2596 1.376 . S
C2597 C2598 1.388 . S
C2598 H2585 0.930 . S
C2598 C2597 1.388 . S
C2598 C2599 1.390 . S
C2599 C2598 1.390 . S
C2599 C2600 1.394 . S
C2599 C2605 1.465 . S
C2600 C2595 1.399 . S
C2600 C2599 1.394 . S
C2600 C2601 1.516 . S
C2601 C2600 1.516 . S
C2601 C2602 1.502 . S
C2601 C2603 1.561 . S
C2601 C2604 1.526 . S
C2602 H2586 0.959 . S
C2602 H2587 0.959 . S
C2602 H2588 0.961 . S
C2602 C2601 1.502 . S
C2603 H2589 0.960 . S
C2603 H2590 0.961 . S
C2603 H2591 0.959 . S
C2603 C2601 1.561 . S
C2604 C2601 1.526 . S
C2604 C2605 1.396 . S
C2604 C2609 1.390 . S
C2605 C2599 1.465 . S
C2605 C2604 1.396 . S
C2605 C2606 1.399 . S
C2606 H2592 0.929 . S
C2606 C2605 1.399 . S
C2606 C2607 1.385 . S
C2607 H2593 0.931 . S
C2607 C2606 1.385 . S
C2607 C2608 1.389 . S
C2608 C2607 1.389 . S
C2608 C2609 1.387 . S
C2609 H2594 0.930 . S
C2609 C2604 1.390 . S
C2609 C2608 1.387 . S
H2610 C2622 0.930 . S
H2611 C2624 0.930 . S
H2612 C2625 0.930 . S
H2613 C2629 0.959 . S
H2614 C2629 0.959 . S
H2615 C2629 0.961 . S
H2616 C2630 0.960 . S
H2617 C2630 0.961 . S
H2618 C2630 0.959 . S
H2619 C2633 0.929 . S
H2620 C2634 0.931 . S
H2621 C2636 0.930 . S
C2622 H2610 0.930 . S
C2622 C2623 1.399 . S
C2622 C2627 1.399 . S
C2623 C2622 1.399 . S
C2623 C2624 1.376 . S
C2624 H2611 0.930 . S
C2624 C2623 1.376 . S
C2624 C2625 1.388 . S
C2625 H2612 0.930 . S
C2625 C2624 1.388 . S
C2625 C2626 1.390 . S
C2626 C2625 1.390 . S
C2626 C2627 1.394 . S
C2626 C2632 1.465 . S
C2627 C2622 1.399 . S
C2627 C2626 1.394 . S
C2627 C2628 1.516 . S
C2628 C2627 1.516 . S
C2628 C2629 1.502 . S
C2628 C2630 1.561 . S
C2628 C2631 1.526 . S
C2629 H2613 0.959 . S
C2629 H2614 0.959 . S
C2629 H2615 0.961 . S
C2629 C2628 1.502 . S
C2630 H2616 0.960 . S
C2630 H2617 0.961 . S
C2630 H2618 0.959 . S
C2630 C2628 1.561 . S
C2631 C2628 1.526 . S
C2631 C2632 1.396 . S
C2631 C2636 1.390 . S
C2632 C2626 1.465 . S
C2632 C2631 1.396 . S
C2632 C2633 1.399 . S
C2633 H2619 0.929 . S
C2633 C2632 1.399 . S
C2633 C2634 1.385 . S
C2634 H2620 0.931 . S
C2634 C2633 1.385 . S
C2634 C2635 1.389 . S
C2635 C2634 1.389 . S
C2635 C2636 1.387 . S
C2636 H2621 0.930 . S
C2636 C2631 1.390 . S
C2636 C2635 1.387 . S
H2637 C2649 0.930 . S
H2638 C2651 0.930 . S
H2639 C2652 0.930 . S
H2640 C2656 0.959 . S
H2641 C2656 0.959 . S
H2642 C2656 0.961 . S
H2643 C2657 0.960 . S
H2644 C2657 0.961 . S
H2645 C2657 0.959 . S
H2646 C2660 0.929 . S
H2647 C2661 0.931 . S
H2648 C2663 0.930 . S
C2649 H2637 0.930 . S
C2649 C2650 1.399 . S
C2649 C2654 1.399 . S
C2650 C2649 1.399 . S
C2650 C2651 1.376 . S
C2651 H2638 0.930 . S
C2651 C2650 1.376 . S
C2651 C2652 1.388 . S
C2652 H2639 0.930 . S
C2652 C2651 1.388 . S
C2652 C2653 1.390 . S
C2653 C2652 1.390 . S
C2653 C2654 1.394 . S
C2653 C2659 1.465 . S
C2654 C2649 1.399 . S
C2654 C2653 1.394 . S
C2654 C2655 1.516 . S
C2655 C2654 1.516 . S
C2655 C2656 1.502 . S
C2655 C2657 1.561 . S
C2655 C2658 1.526 . S
C2656 H2640 0.959 . S
C2656 H2641 0.959 . S
C2656 H2642 0.961 . S
C2656 C2655 1.502 . S
C2657 H2643 0.960 . S
C2657 H2644 0.961 . S
C2657 H2645 0.959 . S
C2657 C2655 1.561 . S
C2658 C2655 1.526 . S
C2658 C2659 1.396 . S
C2658 C2663 1.390 . S
C2659 C2653 1.465 . S
C2659 C2658 1.396 . S
C2659 C2660 1.399 . S
C2660 H2646 0.929 . S
C2660 C2659 1.399 . S
C2660 C2661 1.385 . S
C2661 H2647 0.931 . S
C2661 C2660 1.385 . S
C2661 C2662 1.389 . S
C2662 C2661 1.389 . S
C2662 C2663 1.387 . S
C2663 H2648 0.930 . S
C2663 C2658 1.390 . S
C2663 C2662 1.387 . S
H2664 C2676 0.930 . S
H2665 C2678 0.930 . S
H2666 C2679 0.930 . S
H2667 C2683 0.959 . S
H2668 C2683 0.959 . S
H2669 C2683 0.961 . S
H2670 C2684 0.960 . S
H2671 C2684 0.961 . S
H2672 C2684 0.959 . S
H2673 C2687 0.929 . S
H2674 C2688 0.931 . S
H2675 C2690 0.930 . S
C2676 H2664 0.930 . S
C2676 C2677 1.399 . S
C2676 C2681 1.399 . S
C2677 C2676 1.399 . S
C2677 C2678 1.376 . S
C2678 H2665 0.930 . S
C2678 C2677 1.376 . S
C2678 C2679 1.388 . S
C2679 H2666 0.930 . S
C2679 C2678 1.388 . S
C2679 C2680 1.390 . S
C2680 C2679 1.390 . S
C2680 C2681 1.394 . S
C2680 C2686 1.465 . S
C2681 C2676 1.399 . S
C2681 C2680 1.394 . S
C2681 C2682 1.516 . S
C2682 C2681 1.516 . S
C2682 C2683 1.502 . S
C2682 C2684 1.561 . S
C2682 C2685 1.526 . S
C2683 H2667 0.959 . S
C2683 H2668 0.959 . S
C2683 H2669 0.961 . S
C2683 C2682 1.502 . S
C2684 H2670 0.960 . S
C2684 H2671 0.961 . S
C2684 H2672 0.959 . S
C2684 C2682 1.561 . S
C2685 C2682 1.526 . S
C2685 C2686 1.396 . S
C2685 C2690 1.390 . S
C2686 C2680 1.465 . S
C2686 C2685 1.396 . S
C2686 C2687 1.399 . S
C2687 H2673 0.929 . S
C2687 C2686 1.399 . S
C2687 C2688 1.385 . S
C2688 H2674 0.931 . S
C2688 C2687 1.385 . S
C2688 C2689 1.389 . S
C2689 C2688 1.389 . S
C2689 C2690 1.387 . S
C2690 H2675 0.930 . S
C2690 C2685 1.390 . S
C2690 C2689 1.387 . S
H2691 C2703 0.930 . S
H2692 C2705 0.930 . S
H2693 C2706 0.930 . S
H2694 C2710 0.959 . S
H2695 C2710 0.959 . S
H2696 C2710 0.961 . S
H2697 C2711 0.960 . S
H2698 C2711 0.961 . S
H2699 C2711 0.959 . S
H2700 C2714 0.929 . S
H2701 C2715 0.931 . S
H2702 C2717 0.930 . S
C2703 H2691 0.930 . S
C2703 C2704 1.399 . S
C2703 C2708 1.399 . S
C2704 C2703 1.399 . S
C2704 C2705 1.376 . S
C2705 H2692 0.930 . S
C2705 C2704 1.376 . S
C2705 C2706 1.388 . S
C2706 H2693 0.930 . S
C2706 C2705 1.388 . S
C2706 C2707 1.390 . S
C2707 C2706 1.390 . S
C2707 C2708 1.394 . S
C2707 C2713 1.465 . S
C2708 C2703 1.399 . S
C2708 C2707 1.394 . S
C2708 C2709 1.516 . S
C2709 C2708 1.516 . S
C2709 C2710 1.502 . S
C2709 C2711 1.561 . S
C2709 C2712 1.526 . S
C2710 H2694 0.959 . S
C2710 H2695 0.959 . S
C2710 H2696 0.961 . S
C2710 C2709 1.502 . S
C2711 H2697 0.960 . S
C2711 H2698 0.961 . S
C2711 H2699 0.959 . S
C2711 C2709 1.561 . S
C2712 C2709 1.526 . S
C2712 C2713 1.396 . S
C2712 C2717 1.390 . S
C2713 C2707 1.465 . S
C2713 C2712 1.396 . S
C2713 C2714 1.399 . S
C2714 H2700 0.929 . S
C2714 C2713 1.399 . S
C2714 C2715 1.385 . S
C2715 H2701 0.931 . S
C2715 C2714 1.385 . S
C2715 C2716 1.389 . S
C2716 C2715 1.389 . S
C2716 C2717 1.387 . S
C2717 H2702 0.930 . S
C2717 C2712 1.390 . S
C2717 C2716 1.387 . S
H2718 C2730 0.930 . S
H2719 C2732 0.930 . S
H2720 C2733 0.930 . S
H2721 C2737 0.959 . S
H2722 C2737 0.959 . S
H2723 C2737 0.961 . S
H2724 C2738 0.960 . S
H2725 C2738 0.961 . S
H2726 C2738 0.959 . S
H2727 C2741 0.929 . S
H2728 C2742 0.931 . S
H2729 C2744 0.930 . S
C2730 H2718 0.930 . S
C2730 C2731 1.399 . S
C2730 C2735 1.399 . S
C2731 C2730 1.399 . S
C2731 C2732 1.376 . S
C2732 H2719 0.930 . S
C2732 C2731 1.376 . S
C2732 C2733 1.388 . S
C2733 H2720 0.930 . S
C2733 C2732 1.388 . S
C2733 C2734 1.390 . S
C2734 C2733 1.390 . S
C2734 C2735 1.394 . S
C2734 C2740 1.465 . S
C2735 C2730 1.399 . S
C2735 C2734 1.394 . S
C2735 C2736 1.516 . S
C2736 C2735 1.516 . S
C2736 C2737 1.502 . S
C2736 C2738 1.561 . S
C2736 C2739 1.526 . S
C2737 H2721 0.959 . S
C2737 H2722 0.959 . S
C2737 H2723 0.961 . S
C2737 C2736 1.502 . S
C2738 H2724 0.960 . S
C2738 H2725 0.961 . S
C2738 H2726 0.959 . S
C2738 C2736 1.561 . S
C2739 C2736 1.526 . S
C2739 C2740 1.396 . S
C2739 C2744 1.390 . S
C2740 C2734 1.465 . S
C2740 C2739 1.396 . S
C2740 C2741 1.399 . S
C2741 H2727 0.929 . S
C2741 C2740 1.399 . S
C2741 C2742 1.385 . S
C2742 H2728 0.931 . S
C2742 C2741 1.385 . S
C2742 C2743 1.389 . S
C2743 C2742 1.389 . S
C2743 C2744 1.387 . S
C2744 H2729 0.930 . S
C2744 C2739 1.390 . S
C2744 C2743 1.387 . S
H2745 C2757 0.930 . S
H2746 C2759 0.930 . S
H2747 C2760 0.930 . S
H2748 C2764 0.959 . S
H2749 C2764 0.959 . S
H2750 C2764 0.961 . S
H2751 C2765 0.960 . S
H2752 C2765 0.961 . S
H2753 C2765 0.959 . S
H2754 C2768 0.929 . S
H2755 C2769 0.931 . S
H2756 C2771 0.930 . S
C2757 H2745 0.930 . S
C2757 C2758 1.399 . S
C2757 C2762 1.399 . S
C2758 C2757 1.399 . S
C2758 C2759 1.376 . S
C2759 H2746 0.930 . S
C2759 C2758 1.376 . S
C2759 C2760 1.388 . S
C2760 H2747 0.930 . S
C2760 C2759 1.388 . S
C2760 C2761 1.390 . S
C2761 C2760 1.390 . S
C2761 C2762 1.394 . S
C2761 C2767 1.465 . S
C2762 C2757 1.399 . S
C2762 C2761 1.394 . S
C2762 C2763 1.516 . S
C2763 C2762 1.516 . S
C2763 C2764 1.502 . S
C2763 C2765 1.561 . S
C2763 C2766 1.526 . S
C2764 H2748 0.959 . S
C2764 H2749 0.959 . S
C2764 H2750 0.961 . S
C2764 C2763 1.502 . S
C2765 H2751 0.960 . S
C2765 H2752 0.961 . S
C2765 H2753 0.959 . S
C2765 C2763 1.561 . S
C2766 C2763 1.526 . S
C2766 C2767 1.396 . S
C2766 C2771 1.390 . S
C2767 C2761 1.465 . S
C2767 C2766 1.396 . S
C2767 C2768 1.399 . S
C2768 H2754 0.929 . S
C2768 C2767 1.399 . S
C2768 C2769 1.385 . S
C2769 H2755 0.931 . S
C2769 C2768 1.385 . S
C2769 C2770 1.389 . S
C2770 C2769 1.389 . S
C2770 C2771 1.387 . S
C2771 H2756 0.930 . S
C2771 C2766 1.390 . S
C2771 C2770 1.387 . S
H2772 C2784 0.930 . S
H2773 C2786 0.930 . S
H2774 C2787 0.930 . S
H2775 C2791 0.959 . S
H2776 C2791 0.959 . S
H2777 C2791 0.961 . S
H2778 C2792 0.960 . S
H2779 C2792 0.961 . S
H2780 C2792 0.959 . S
H2781 C2795 0.929 . S
H2782 C2796 0.931 . S
H2783 C2798 0.930 . S
C2784 H2772 0.930 . S
C2784 C2785 1.399 . S
C2784 C2789 1.399 . S
C2785 C2784 1.399 . S
C2785 C2786 1.376 . S
C2786 H2773 0.930 . S
C2786 C2785 1.376 . S
C2786 C2787 1.388 . S
C2787 H2774 0.930 . S
C2787 C2786 1.388 . S
C2787 C2788 1.390 . S
C2788 C2787 1.390 . S
C2788 C2789 1.394 . S
C2788 C2794 1.465 . S
C2789 C2784 1.399 . S
C2789 C2788 1.394 . S
C2789 C2790 1.516 . S
C2790 C2789 1.516 . S
C2790 C2791 1.502 . S
C2790 C2792 1.561 . S
C2790 C2793 1.526 . S
C2791 H2775 0.959 . S
C2791 H2776 0.959 . S
C2791 H2777 0.961 . S
C2791 C2790 1.502 . S
C2792 H2778 0.960 . S
C2792 H2779 0.961 . S
C2792 H2780 0.959 . S
C2792 C2790 1.561 . S
C2793 C2790 1.526 . S
C2793 C2794 1.396 . S
C2793 C2798 1.390 . S
C2794 C2788 1.465 . S
C2794 C2793 1.396 . S
C2794 C2795 1.399 . S
C2795 H2781 0.929 . S
C2795 C2794 1.399 . S
C2795 C2796 1.385 . S
C2796 H2782 0.931 . S
C2796 C2795 1.385 . S
C2796 C2797 1.389 . S
C2797 C2796 1.389 . S
C2797 C2798 1.387 . S
C2798 H2783 0.930 . S
C2798 C2793 1.390 . S
C2798 C2797 1.387 . S
H2799 C2811 0.930 . S
H2800 C2813 0.930 . S
H2801 C2814 0.930 . S
H2802 C2818 0.959 . S
H2803 C2818 0.959 . S
H2804 C2818 0.961 . S
H2805 C2819 0.960 . S
H2806 C2819 0.961 . S
H2807 C2819 0.959 . S
H2808 C2822 0.929 . S
H2809 C2823 0.931 . S
H2810 C2825 0.930 . S
C2811 H2799 0.930 . S
C2811 C2812 1.399 . S
C2811 C2816 1.399 . S
C2812 C2811 1.399 . S
C2812 C2813 1.376 . S
C2813 H2800 0.930 . S
C2813 C2812 1.376 . S
C2813 C2814 1.388 . S
C2814 H2801 0.930 . S
C2814 C2813 1.388 . S
C2814 C2815 1.390 . S
C2815 C2814 1.390 . S
C2815 C2816 1.394 . S
C2815 C2821 1.465 . S
C2816 C2811 1.399 . S
C2816 C2815 1.394 . S
C2816 C2817 1.516 . S
C2817 C2816 1.516 . S
C2817 C2818 1.502 . S
C2817 C2819 1.561 . S
C2817 C2820 1.526 . S
C2818 H2802 0.959 . S
C2818 H2803 0.959 . S
C2818 H2804 0.961 . S
C2818 C2817 1.502 . S
C2819 H2805 0.960 . S
C2819 H2806 0.961 . S
C2819 H2807 0.959 . S
C2819 C2817 1.561 . S
C2820 C2817 1.526 . S
C2820 C2821 1.396 . S
C2820 C2825 1.390 . S
C2821 C2815 1.465 . S
C2821 C2820 1.396 . S
C2821 C2822 1.399 . S
C2822 H2808 0.929 . S
C2822 C2821 1.399 . S
C2822 C2823 1.385 . S
C2823 H2809 0.931 . S
C2823 C2822 1.385 . S
C2823 C2824 1.389 . S
C2824 C2823 1.389 . S
C2824 C2825 1.387 . S
C2825 H2810 0.930 . S
C2825 C2820 1.390 . S
C2825 C2824 1.387 . S
H2826 C2838 0.930 . S
H2827 C2840 0.930 . S
H2828 C2841 0.930 . S
H2829 C2845 0.959 . S
H2830 C2845 0.959 . S
H2831 C2845 0.961 . S
H2832 C2846 0.960 . S
H2833 C2846 0.961 . S
H2834 C2846 0.959 . S
H2835 C2849 0.929 . S
H2836 C2850 0.931 . S
H2837 C2852 0.930 . S
C2838 H2826 0.930 . S
C2838 C2839 1.399 . S
C2838 C2843 1.399 . S
C2839 C2838 1.399 . S
C2839 C2840 1.376 . S
C2840 H2827 0.930 . S
C2840 C2839 1.376 . S
C2840 C2841 1.388 . S
C2841 H2828 0.930 . S
C2841 C2840 1.388 . S
C2841 C2842 1.390 . S
C2842 C2841 1.390 . S
C2842 C2843 1.394 . S
C2842 C2848 1.465 . S
C2843 C2838 1.399 . S
C2843 C2842 1.394 . S
C2843 C2844 1.516 . S
C2844 C2843 1.516 . S
C2844 C2845 1.502 . S
C2844 C2846 1.561 . S
C2844 C2847 1.526 . S
C2845 H2829 0.959 . S
C2845 H2830 0.959 . S
C2845 H2831 0.961 . S
C2845 C2844 1.502 . S
C2846 H2832 0.960 . S
C2846 H2833 0.961 . S
C2846 H2834 0.959 . S
C2846 C2844 1.561 . S
C2847 C2844 1.526 . S
C2847 C2848 1.396 . S
C2847 C2852 1.390 . S
C2848 C2842 1.465 . S
C2848 C2847 1.396 . S
C2848 C2849 1.399 . S
C2849 H2835 0.929 . S
C2849 C2848 1.399 . S
C2849 C2850 1.385 . S
C2850 H2836 0.931 . S
C2850 C2849 1.385 . S
C2850 C2851 1.389 . S
C2851 C2850 1.389 . S
C2851 C2852 1.387 . S
C2852 H2837 0.930 . S
C2852 C2847 1.390 . S
C2852 C2851 1.387 . S
H2853 C2865 0.930 . S
H2854 C2867 0.930 . S
H2855 C2868 0.930 . S
H2856 C2872 0.959 . S
H2857 C2872 0.959 . S
H2858 C2872 0.961 . S
H2859 C2873 0.960 . S
H2860 C2873 0.961 . S
H2861 C2873 0.959 . S
H2862 C2876 0.929 . S
H2863 C2877 0.931 . S
H2864 C2879 0.930 . S
C2865 H2853 0.930 . S
C2865 C2866 1.399 . S
C2865 C2870 1.399 . S
C2866 C2865 1.399 . S
C2866 C2867 1.376 . S
C2867 H2854 0.930 . S
C2867 C2866 1.376 . S
C2867 C2868 1.388 . S
C2868 H2855 0.930 . S
C2868 C2867 1.388 . S
C2868 C2869 1.390 . S
C2869 C2868 1.390 . S
C2869 C2870 1.394 . S
C2869 C2875 1.465 . S
C2870 C2865 1.399 . S
C2870 C2869 1.394 . S
C2870 C2871 1.516 . S
C2871 C2870 1.516 . S
C2871 C2872 1.502 . S
C2871 C2873 1.561 . S
C2871 C2874 1.526 . S
C2872 H2856 0.959 . S
C2872 H2857 0.959 . S
C2872 H2858 0.961 . S
C2872 C2871 1.502 . S
C2873 H2859 0.960 . S
C2873 H2860 0.961 . S
C2873 H2861 0.959 . S
C2873 C2871 1.561 . S
C2874 C2871 1.526 . S
C2874 C2875 1.396 . S
C2874 C2879 1.390 . S
C2875 C2869 1.465 . S
C2875 C2874 1.396 . S
C2875 C2876 1.399 . S
C2876 H2862 0.929 . S
C2876 C2875 1.399 . S
C2876 C2877 1.385 . S
C2877 H2863 0.931 . S
C2877 C2876 1.385 . S
C2877 C2878 1.389 . S
C2878 C2877 1.389 . S
C2878 C2879 1.387 . S
C2879 H2864 0.930 . S
C2879 C2874 1.390 . S
C2879 C2878 1.387 . S
H2880 C2892 0.930 . S
H2881 C2894 0.930 . S
H2882 C2895 0.930 . S
H2883 C2899 0.959 . S
H2884 C2899 0.959 . S
H2885 C2899 0.961 . S
H2886 C2900 0.960 . S
H2887 C2900 0.961 . S
H2888 C2900 0.959 . S
H2889 C2903 0.929 . S
H2890 C2904 0.931 . S
H2891 C2906 0.930 . S
C2892 H2880 0.930 . S
C2892 C2893 1.399 . S
C2892 C2897 1.399 . S
C2893 C2892 1.399 . S
C2893 C2894 1.376 . S
C2894 H2881 0.930 . S
C2894 C2893 1.376 . S
C2894 C2895 1.388 . S
C2895 H2882 0.930 . S
C2895 C2894 1.388 . S
C2895 C2896 1.390 . S
C2896 C2895 1.390 . S
C2896 C2897 1.394 . S
C2896 C2902 1.465 . S
C2897 C2892 1.399 . S
C2897 C2896 1.394 . S
C2897 C2898 1.516 . S
C2898 C2897 1.516 . S
C2898 C2899 1.502 . S
C2898 C2900 1.561 . S
C2898 C2901 1.526 . S
C2899 H2883 0.959 . S
C2899 H2884 0.959 . S
C2899 H2885 0.961 . S
C2899 C2898 1.502 . S
C2900 H2886 0.960 . S
C2900 H2887 0.961 . S
C2900 H2888 0.959 . S
C2900 C2898 1.561 . S
C2901 C2898 1.526 . S
C2901 C2902 1.396 . S
C2901 C2906 1.390 . S
C2902 C2896 1.465 . S
C2902 C2901 1.396 . S
C2902 C2903 1.399 . S
C2903 H2889 0.929 . S
C2903 C2902 1.399 . S
C2903 C2904 1.385 . S
C2904 H2890 0.931 . S
C2904 C2903 1.385 . S
C2904 C2905 1.389 . S
C2905 C2904 1.389 . S
C2905 C2906 1.387 . S
C2906 H2891 0.930 . S
C2906 C2901 1.390 . S
C2906 C2905 1.387 . S
H2907 C2919 0.930 . S
H2908 C2921 0.930 . S
H2909 C2922 0.930 . S
H2910 C2926 0.959 . S
H2911 C2926 0.959 . S
H2912 C2926 0.961 . S
H2913 C2927 0.960 . S
H2914 C2927 0.961 . S
H2915 C2927 0.959 . S
H2916 C2930 0.929 . S
H2917 C2931 0.931 . S
H2918 C2933 0.930 . S
C2919 H2907 0.930 . S
C2919 C2920 1.399 . S
C2919 C2924 1.399 . S
C2920 C2919 1.399 . S
C2920 C2921 1.376 . S
C2921 H2908 0.930 . S
C2921 C2920 1.376 . S
C2921 C2922 1.388 . S
C2922 H2909 0.930 . S
C2922 C2921 1.388 . S
C2922 C2923 1.390 . S
C2923 C2922 1.390 . S
C2923 C2924 1.394 . S
C2923 C2929 1.465 . S
C2924 C2919 1.399 . S
C2924 C2923 1.394 . S
C2924 C2925 1.516 . S
C2925 C2924 1.516 . S
C2925 C2926 1.502 . S
C2925 C2927 1.561 . S
C2925 C2928 1.526 . S
C2926 H2910 0.959 . S
C2926 H2911 0.959 . S
C2926 H2912 0.961 . S
C2926 C2925 1.502 . S
C2927 H2913 0.960 . S
C2927 H2914 0.961 . S
C2927 H2915 0.959 . S
C2927 C2925 1.561 . S
C2928 C2925 1.526 . S
C2928 C2929 1.396 . S
C2928 C2933 1.390 . S
C2929 C2923 1.465 . S
C2929 C2928 1.396 . S
C2929 C2930 1.399 . S
C2930 H2916 0.929 . S
C2930 C2929 1.399 . S
C2930 C2931 1.385 . S
C2931 H2917 0.931 . S
C2931 C2930 1.385 . S
C2931 C2932 1.389 . S
C2932 C2931 1.389 . S
C2932 C2933 1.387 . S
C2933 H2918 0.930 . S
C2933 C2928 1.390 . S
C2933 C2932 1.387 . S
H2934 C2946 0.930 . S
H2935 C2948 0.930 . S
H2936 C2949 0.930 . S
H2937 C2953 0.959 . S
H2938 C2953 0.959 . S
H2939 C2953 0.961 . S
H2940 C2954 0.960 . S
H2941 C2954 0.961 . S
H2942 C2954 0.959 . S
H2943 C2957 0.929 . S
H2944 C2958 0.931 . S
H2945 C2960 0.930 . S
C2946 H2934 0.930 . S
C2946 C2947 1.399 . S
C2946 C2951 1.399 . S
C2947 C2946 1.399 . S
C2947 C2948 1.376 . S
C2948 H2935 0.930 . S
C2948 C2947 1.376 . S
C2948 C2949 1.388 . S
C2949 H2936 0.930 . S
C2949 C2948 1.388 . S
C2949 C2950 1.390 . S
C2950 C2949 1.390 . S
C2950 C2951 1.394 . S
C2950 C2956 1.465 . S
C2951 C2946 1.399 . S
C2951 C2950 1.394 . S
C2951 C2952 1.516 . S
C2952 C2951 1.516 . S
C2952 C2953 1.502 . S
C2952 C2954 1.561 . S
C2952 C2955 1.526 . S
C2953 H2937 0.959 . S
C2953 H2938 0.959 . S
C2953 H2939 0.961 . S
C2953 C2952 1.502 . S
C2954 H2940 0.960 . S
C2954 H2941 0.961 . S
C2954 H2942 0.959 . S
C2954 C2952 1.561 . S
C2955 C2952 1.526 . S
C2955 C2956 1.396 . S
C2955 C2960 1.390 . S
C2956 C2950 1.465 . S
C2956 C2955 1.396 . S
C2956 C2957 1.399 . S
C2957 H2943 0.929 . S
C2957 C2956 1.399 . S
C2957 C2958 1.385 . S
C2958 H2944 0.931 . S
C2958 C2957 1.385 . S
C2958 C2959 1.389 . S
C2959 C2958 1.389 . S
C2959 C2960 1.387 . S
C2960 H2945 0.930 . S
C2960 C2955 1.390 . S
C2960 C2959 1.387 . S
H2961 C2973 0.930 . S
H2962 C2975 0.930 . S
H2963 C2976 0.930 . S
H2964 C2980 0.959 . S
H2965 C2980 0.959 . S
H2966 C2980 0.961 . S
H2967 C2981 0.960 . S
H2968 C2981 0.961 . S
H2969 C2981 0.959 . S
H2970 C2984 0.929 . S
H2971 C2985 0.931 . S
H2972 C2987 0.930 . S
C2973 H2961 0.930 . S
C2973 C2974 1.399 . S
C2973 C2978 1.399 . S
C2974 C2973 1.399 . S
C2974 C2975 1.376 . S
C2975 H2962 0.930 . S
C2975 C2974 1.376 . S
C2975 C2976 1.388 . S
C2976 H2963 0.930 . S
C2976 C2975 1.388 . S
C2976 C2977 1.390 . S
C2977 C2976 1.390 . S
C2977 C2978 1.394 . S
C2977 C2983 1.465 . S
C2978 C2973 1.399 . S
C2978 C2977 1.394 . S
C2978 C2979 1.516 . S
C2979 C2978 1.516 . S
C2979 C2980 1.502 . S
C2979 C2981 1.561 . S
C2979 C2982 1.526 . S
C2980 H2964 0.959 . S
C2980 H2965 0.959 . S
C2980 H2966 0.961 . S
C2980 C2979 1.502 . S
C2981 H2967 0.960 . S
C2981 H2968 0.961 . S
C2981 H2969 0.959 . S
C2981 C2979 1.561 . S
C2982 C2979 1.526 . S
C2982 C2983 1.396 . S
C2982 C2987 1.390 . S
C2983 C2977 1.465 . S
C2983 C2982 1.396 . S
C2983 C2984 1.399 . S
C2984 H2970 0.929 . S
C2984 C2983 1.399 . S
C2984 C2985 1.385 . S
C2985 H2971 0.931 . S
C2985 C2984 1.385 . S
C2985 C2986 1.389 . S
C2986 C2985 1.389 . S
C2986 C2987 1.387 . S
C2987 H2972 0.930 . S
C2987 C2982 1.390 . S
C2987 C2986 1.387 . S
H2988 C3000 0.930 . S
H2989 C3002 0.930 . S
H2990 C3003 0.930 . S
H2991 C3007 0.959 . S
H2992 C3007 0.959 . S
H2993 C3007 0.961 . S
H2994 C3008 0.960 . S
H2995 C3008 0.961 . S
H2996 C3008 0.959 . S
H2997 C3011 0.929 . S
H2998 C3012 0.931 . S
H2999 C3014 0.930 . S
C3000 H2988 0.930 . S
C3000 C3001 1.399 . S
C3000 C3005 1.399 . S
C3001 C3000 1.399 . S
C3001 C3002 1.376 . S
C3002 H2989 0.930 . S
C3002 C3001 1.376 . S
C3002 C3003 1.388 . S
C3003 H2990 0.930 . S
C3003 C3002 1.388 . S
C3003 C3004 1.390 . S
C3004 C3003 1.390 . S
C3004 C3005 1.394 . S
C3004 C3010 1.465 . S
C3005 C3000 1.399 . S
C3005 C3004 1.394 . S
C3005 C3006 1.516 . S
C3006 C3005 1.516 . S
C3006 C3007 1.502 . S
C3006 C3008 1.561 . S
C3006 C3009 1.526 . S
C3007 H2991 0.959 . S
C3007 H2992 0.959 . S
C3007 H2993 0.961 . S
C3007 C3006 1.502 . S
C3008 H2994 0.960 . S
C3008 H2995 0.961 . S
C3008 H2996 0.959 . S
C3008 C3006 1.561 . S
C3009 C3006 1.526 . S
C3009 C3010 1.396 . S
C3009 C3014 1.390 . S
C3010 C3004 1.465 . S
C3010 C3009 1.396 . S
C3010 C3011 1.399 . S
C3011 H2997 0.929 . S
C3011 C3010 1.399 . S
C3011 C3012 1.385 . S
C3012 H2998 0.931 . S
C3012 C3011 1.385 . S
C3012 C3013 1.389 . S
C3013 C3012 1.389 . S
C3013 C3014 1.387 . S
C3014 H2999 0.930 . S
C3014 C3009 1.390 . S
C3014 C3013 1.387 . S
H3015 C3027 0.930 . S
H3016 C3029 0.930 . S
H3017 C3030 0.930 . S
H3018 C3034 0.959 . S
H3019 C3034 0.959 . S
H3020 C3034 0.961 . S
H3021 C3035 0.960 . S
H3022 C3035 0.961 . S
H3023 C3035 0.959 . S
H3024 C3038 0.929 . S
H3025 C3039 0.931 . S
H3026 C3041 0.930 . S
C3027 H3015 0.930 . S
C3027 C3028 1.399 . S
C3027 C3032 1.399 . S
C3028 C3027 1.399 . S
C3028 C3029 1.376 . S
C3029 H3016 0.930 . S
C3029 C3028 1.376 . S
C3029 C3030 1.388 . S
C3030 H3017 0.930 . S
C3030 C3029 1.388 . S
C3030 C3031 1.390 . S
C3031 C3030 1.390 . S
C3031 C3032 1.394 . S
C3031 C3037 1.465 . S
C3032 C3027 1.399 . S
C3032 C3031 1.394 . S
C3032 C3033 1.516 . S
C3033 C3032 1.516 . S
C3033 C3034 1.502 . S
C3033 C3035 1.561 . S
C3033 C3036 1.526 . S
C3034 H3018 0.959 . S
C3034 H3019 0.959 . S
C3034 H3020 0.961 . S
C3034 C3033 1.502 . S
C3035 H3021 0.960 . S
C3035 H3022 0.961 . S
C3035 H3023 0.959 . S
C3035 C3033 1.561 . S
C3036 C3033 1.526 . S
C3036 C3037 1.396 . S
C3036 C3041 1.390 . S
C3037 C3031 1.465 . S
C3037 C3036 1.396 . S
C3037 C3038 1.399 . S
C3038 H3024 0.929 . S
C3038 C3037 1.399 . S
C3038 C3039 1.385 . S
C3039 H3025 0.931 . S
C3039 C3038 1.385 . S
C3039 C3040 1.389 . S
C3040 C3039 1.389 . S
C3040 C3041 1.387 . S
C3041 H3026 0.930 . S
C3041 C3036 1.390 . S
C3041 C3040 1.387 . S
H3042 C3054 0.930 . S
H3043 C3056 0.930 . S
H3044 C3057 0.930 . S
H3045 C3061 0.959 . S
H3046 C3061 0.959 . S
H3047 C3061 0.961 . S
H3048 C3062 0.960 . S
H3049 C3062 0.961 . S
H3050 C3062 0.959 . S
H3051 C3065 0.929 . S
H3052 C3066 0.931 . S
H3053 C3068 0.930 . S
C3054 H3042 0.930 . S
C3054 C3055 1.399 . S
C3054 C3059 1.399 . S
C3055 C3054 1.399 . S
C3055 C3056 1.376 . S
C3056 H3043 0.930 . S
C3056 C3055 1.376 . S
C3056 C3057 1.388 . S
C3057 H3044 0.930 . S
C3057 C3056 1.388 . S
C3057 C3058 1.390 . S
C3058 C3057 1.390 . S
C3058 C3059 1.394 . S
C3058 C3064 1.465 . S
C3059 C3054 1.399 . S
C3059 C3058 1.394 . S
C3059 C3060 1.516 . S
C3060 C3059 1.516 . S
C3060 C3061 1.502 . S
C3060 C3062 1.561 . S
C3060 C3063 1.526 . S
C3061 H3045 0.959 . S
C3061 H3046 0.959 . S
C3061 H3047 0.961 . S
C3061 C3060 1.502 . S
C3062 H3048 0.960 . S
C3062 H3049 0.961 . S
C3062 H3050 0.959 . S
C3062 C3060 1.561 . S
C3063 C3060 1.526 . S
C3063 C3064 1.396 . S
C3063 C3068 1.390 . S
C3064 C3058 1.465 . S
C3064 C3063 1.396 . S
C3064 C3065 1.399 . S
C3065 H3051 0.929 . S
C3065 C3064 1.399 . S
C3065 C3066 1.385 . S
C3066 H3052 0.931 . S
C3066 C3065 1.385 . S
C3066 C3067 1.389 . S
C3067 C3066 1.389 . S
C3067 C3068 1.387 . S
C3068 H3053 0.930 . S
C3068 C3063 1.390 . S
C3068 C3067 1.387 . S
H3069 C3081 0.930 . S
H3070 C3083 0.930 . S
H3071 C3084 0.930 . S
H3072 C3088 0.959 . S
H3073 C3088 0.959 . S
H3074 C3088 0.961 . S
H3075 C3089 0.960 . S
H3076 C3089 0.961 . S
H3077 C3089 0.959 . S
H3078 C3092 0.929 . S
H3079 C3093 0.931 . S
H3080 C3095 0.930 . S
C3081 H3069 0.930 . S
C3081 C3082 1.399 . S
C3081 C3086 1.399 . S
C3082 C3081 1.399 . S
C3082 C3083 1.376 . S
C3083 H3070 0.930 . S
C3083 C3082 1.376 . S
C3083 C3084 1.388 . S
C3084 H3071 0.930 . S
C3084 C3083 1.388 . S
C3084 C3085 1.390 . S
C3085 C3084 1.390 . S
C3085 C3086 1.394 . S
C3085 C3091 1.465 . S
C3086 C3081 1.399 . S
C3086 C3085 1.394 . S
C3086 C3087 1.516 . S
C3087 C3086 1.516 . S
C3087 C3088 1.502 . S
C3087 C3089 1.561 . S
C3087 C3090 1.526 . S
C3088 H3072 0.959 . S
C3088 H3073 0.959 . S
C3088 H3074 0.961 . S
C3088 C3087 1.502 . S
C3089 H3075 0.960 . S
C3089 H3076 0.961 . S
C3089 H3077 0.959 . S
C3089 C3087 1.561 . S
C3090 C3087 1.526 . S
C3090 C3091 1.396 . S
C3090 C3095 1.390 . S
C3091 C3085 1.465 . S
C3091 C3090 1.396 . S
C3091 C3092 1.399 . S
C3092 H3078 0.929 . S
C3092 C3091 1.399 . S
C3092 C3093 1.385 . S
C3093 H3079 0.931 . S
C3093 C3092 1.385 . S
C3093 C3094 1.389 . S
C3094 C3093 1.389 . S
C3094 C3095 1.387 . S
C3095 H3080 0.930 . S
C3095 C3090 1.390 . S
C3095 C3094 1.387 . S
H3096 C3108 0.930 . S
H3097 C3110 0.930 . S
H3098 C3111 0.930 . S
H3099 C3115 0.959 . S
H3100 C3115 0.959 . S
H3101 C3115 0.961 . S
H3102 C3116 0.960 . S
H3103 C3116 0.961 . S
H3104 C3116 0.959 . S
H3105 C3119 0.929 . S
H3106 C3120 0.931 . S
H3107 C3122 0.930 . S
C3108 H3096 0.930 . S
C3108 C3109 1.399 . S
C3108 C3113 1.399 . S
C3109 C3108 1.399 . S
C3109 C3110 1.376 . S
C3110 H3097 0.930 . S
C3110 C3109 1.376 . S
C3110 C3111 1.388 . S
C3111 H3098 0.930 . S
C3111 C3110 1.388 . S
C3111 C3112 1.390 . S
C3112 C3111 1.390 . S
C3112 C3113 1.394 . S
C3112 C3118 1.465 . S
C3113 C3108 1.399 . S
C3113 C3112 1.394 . S
C3113 C3114 1.516 . S
C3114 C3113 1.516 . S
C3114 C3115 1.502 . S
C3114 C3116 1.561 . S
C3114 C3117 1.526 . S
C3115 H3099 0.959 . S
C3115 H3100 0.959 . S
C3115 H3101 0.961 . S
C3115 C3114 1.502 . S
C3116 H3102 0.960 . S
C3116 H3103 0.961 . S
C3116 H3104 0.959 . S
C3116 C3114 1.561 . S
C3117 C3114 1.526 . S
C3117 C3118 1.396 . S
C3117 C3122 1.390 . S
C3118 C3112 1.465 . S
C3118 C3117 1.396 . S
C3118 C3119 1.399 . S
C3119 H3105 0.929 . S
C3119 C3118 1.399 . S
C3119 C3120 1.385 . S
C3120 H3106 0.931 . S
C3120 C3119 1.385 . S
C3120 C3121 1.389 . S
C3121 C3120 1.389 . S
C3121 C3122 1.387 . S
C3122 H3107 0.930 . S
C3122 C3117 1.390 . S
C3122 C3121 1.387 . S
H3123 C3135 0.930 . S
H3124 C3137 0.930 . S
H3125 C3138 0.930 . S
H3126 C3142 0.959 . S
H3127 C3142 0.959 . S
H3128 C3142 0.961 . S
H3129 C3143 0.960 . S
H3130 C3143 0.961 . S
H3131 C3143 0.959 . S
H3132 C3146 0.929 . S
H3133 C3147 0.931 . S
H3134 C3149 0.930 . S
C3135 H3123 0.930 . S
C3135 C3136 1.399 . S
C3135 C3140 1.399 . S
C3136 C3135 1.399 . S
C3136 C3137 1.376 . S
C3137 H3124 0.930 . S
C3137 C3136 1.376 . S
C3137 C3138 1.388 . S
C3138 H3125 0.930 . S
C3138 C3137 1.388 . S
C3138 C3139 1.390 . S
C3139 C3138 1.390 . S
C3139 C3140 1.394 . S
C3139 C3145 1.465 . S
C3140 C3135 1.399 . S
C3140 C3139 1.394 . S
C3140 C3141 1.516 . S
C3141 C3140 1.516 . S
C3141 C3142 1.502 . S
C3141 C3143 1.561 . S
C3141 C3144 1.526 . S
C3142 H3126 0.959 . S
C3142 H3127 0.959 . S
C3142 H3128 0.961 . S
C3142 C3141 1.502 . S
C3143 H3129 0.960 . S
C3143 H3130 0.961 . S
C3143 H3131 0.959 . S
C3143 C3141 1.561 . S
C3144 C3141 1.526 . S
C3144 C3145 1.396 . S
C3144 C3149 1.390 . S
C3145 C3139 1.465 . S
C3145 C3144 1.396 . S
C3145 C3146 1.399 . S
C3146 H3132 0.929 . S
C3146 C3145 1.399 . S
C3146 C3147 1.385 . S
C3147 H3133 0.931 . S
C3147 C3146 1.385 . S
C3147 C3148 1.389 . S
C3148 C3147 1.389 . S
C3148 C3149 1.387 . S
C3149 H3134 0.930 . S
C3149 C3144 1.390 . S
C3149 C3148 1.387 . S
H3150 C3162 0.930 . S
H3151 C3164 0.930 . S
H3152 C3165 0.930 . S
H3153 C3169 0.959 . S
H3154 C3169 0.959 . S
H3155 C3169 0.961 . S
H3156 C3170 0.960 . S
H3157 C3170 0.961 . S
H3158 C3170 0.959 . S
H3159 C3173 0.929 . S
H3160 C3174 0.931 . S
H3161 C3176 0.930 . S
C3162 H3150 0.930 . S
C3162 C3163 1.399 . S
C3162 C3167 1.399 . S
C3163 C3162 1.399 . S
C3163 C3164 1.376 . S
C3164 H3151 0.930 . S
C3164 C3163 1.376 . S
C3164 C3165 1.388 . S
C3165 H3152 0.930 . S
C3165 C3164 1.388 . S
C3165 C3166 1.390 . S
C3166 C3165 1.390 . S
C3166 C3167 1.394 . S
C3166 C3172 1.465 . S
C3167 C3162 1.399 . S
C3167 C3166 1.394 . S
C3167 C3168 1.516 . S
C3168 C3167 1.516 . S
C3168 C3169 1.502 . S
C3168 C3170 1.561 . S
C3168 C3171 1.526 . S
C3169 H3153 0.959 . S
C3169 H3154 0.959 . S
C3169 H3155 0.961 . S
C3169 C3168 1.502 . S
C3170 H3156 0.960 . S
C3170 H3157 0.961 . S
C3170 H3158 0.959 . S
C3170 C3168 1.561 . S
C3171 C3168 1.526 . S
C3171 C3172 1.396 . S
C3171 C3176 1.390 . S
C3172 C3166 1.465 . S
C3172 C3171 1.396 . S
C3172 C3173 1.399 . S
C3173 H3159 0.929 . S
C3173 C3172 1.399 . S
C3173 C3174 1.385 . S
C3174 H3160 0.931 . S
C3174 C3173 1.385 . S
C3174 C3175 1.389 . S
C3175 C3174 1.389 . S
C3175 C3176 1.387 . S
C3176 H3161 0.930 . S
C3176 C3171 1.390 . S
C3176 C3175 1.387 . S
H3177 C3189 0.930 . S
H3178 C3191 0.930 . S
H3179 C3192 0.930 . S
H3180 C3196 0.959 . S
H3181 C3196 0.959 . S
H3182 C3196 0.961 . S
H3183 C3197 0.960 . S
H3184 C3197 0.961 . S
H3185 C3197 0.959 . S
H3186 C3200 0.929 . S
H3187 C3201 0.931 . S
H3188 C3203 0.930 . S
C3189 H3177 0.930 . S
C3189 C3190 1.399 . S
C3189 C3194 1.399 . S
C3190 C3189 1.399 . S
C3190 C3191 1.376 . S
C3191 H3178 0.930 . S
C3191 C3190 1.376 . S
C3191 C3192 1.388 . S
C3192 H3179 0.930 . S
C3192 C3191 1.388 . S
C3192 C3193 1.390 . S
C3193 C3192 1.390 . S
C3193 C3194 1.394 . S
C3193 C3199 1.465 . S
C3194 C3189 1.399 . S
C3194 C3193 1.394 . S
C3194 C3195 1.516 . S
C3195 C3194 1.516 . S
C3195 C3196 1.502 . S
C3195 C3197 1.561 . S
C3195 C3198 1.526 . S
C3196 H3180 0.959 . S
C3196 H3181 0.959 . S
C3196 H3182 0.961 . S
C3196 C3195 1.502 . S
C3197 H3183 0.960 . S
C3197 H3184 0.961 . S
C3197 H3185 0.959 . S
C3197 C3195 1.561 . S
C3198 C3195 1.526 . S
C3198 C3199 1.396 . S
C3198 C3203 1.390 . S
C3199 C3193 1.465 . S
C3199 C3198 1.396 . S
C3199 C3200 1.399 . S
C3200 H3186 0.929 . S
C3200 C3199 1.399 . S
C3200 C3201 1.385 . S
C3201 H3187 0.931 . S
C3201 C3200 1.385 . S
C3201 C3202 1.389 . S
C3202 C3201 1.389 . S
C3202 C3203 1.387 . S
C3203 H3188 0.930 . S
C3203 C3198 1.390 . S
C3203 C3202 1.387 . S
H3204 C3216 0.930 . S
H3205 C3218 0.930 . S
H3206 C3219 0.930 . S
H3207 C3223 0.959 . S
H3208 C3223 0.959 . S
H3209 C3223 0.961 . S
H3210 C3224 0.960 . S
H3211 C3224 0.961 . S
H3212 C3224 0.959 . S
H3213 C3227 0.929 . S
H3214 C3228 0.931 . S
H3215 C3230 0.930 . S
C3216 H3204 0.930 . S
C3216 C3217 1.399 . S
C3216 C3221 1.399 . S
C3217 C3216 1.399 . S
C3217 C3218 1.376 . S
C3218 H3205 0.930 . S
C3218 C3217 1.376 . S
C3218 C3219 1.388 . S
C3219 H3206 0.930 . S
C3219 C3218 1.388 . S
C3219 C3220 1.390 . S
C3220 C3219 1.390 . S
C3220 C3221 1.394 . S
C3220 C3226 1.465 . S
C3221 C3216 1.399 . S
C3221 C3220 1.394 . S
C3221 C3222 1.516 . S
C3222 C3221 1.516 . S
C3222 C3223 1.502 . S
C3222 C3224 1.561 . S
C3222 C3225 1.526 . S
C3223 H3207 0.959 . S
C3223 H3208 0.959 . S
C3223 H3209 0.961 . S
C3223 C3222 1.502 . S
C3224 H3210 0.960 . S
C3224 H3211 0.961 . S
C3224 H3212 0.959 . S
C3224 C3222 1.561 . S
C3225 C3222 1.526 . S
C3225 C3226 1.396 . S
C3225 C3230 1.390 . S
C3226 C3220 1.465 . S
C3226 C3225 1.396 . S
C3226 C3227 1.399 . S
C3227 H3213 0.929 . S
C3227 C3226 1.399 . S
C3227 C3228 1.385 . S
C3228 H3214 0.931 . S
C3228 C3227 1.385 . S
C3228 C3229 1.389 . S
C3229 C3228 1.389 . S
C3229 C3230 1.387 . S
C3230 H3215 0.930 . S
C3230 C3225 1.390 . S
C3230 C3229 1.387 . S
H3231 C3243 0.930 . S
H3232 C3245 0.930 . S
H3233 C3246 0.930 . S
H3234 C3250 0.959 . S
H3235 C3250 0.959 . S
H3236 C3250 0.961 . S
H3237 C3251 0.960 . S
H3238 C3251 0.961 . S
H3239 C3251 0.959 . S
H3240 C3254 0.929 . S
H3241 C3255 0.931 . S
H3242 C3257 0.930 . S
C3243 H3231 0.930 . S
C3243 C3244 1.399 . S
C3243 C3248 1.399 . S
C3244 C3243 1.399 . S
C3244 C3245 1.376 . S
C3245 H3232 0.930 . S
C3245 C3244 1.376 . S
C3245 C3246 1.388 . S
C3246 H3233 0.930 . S
C3246 C3245 1.388 . S
C3246 C3247 1.390 . S
C3247 C3246 1.390 . S
C3247 C3248 1.394 . S
C3247 C3253 1.465 . S
C3248 C3243 1.399 . S
C3248 C3247 1.394 . S
C3248 C3249 1.516 . S
C3249 C3248 1.516 . S
C3249 C3250 1.502 . S
C3249 C3251 1.561 . S
C3249 C3252 1.526 . S
C3250 H3234 0.959 . S
C3250 H3235 0.959 . S
C3250 H3236 0.961 . S
C3250 C3249 1.502 . S
C3251 H3237 0.960 . S
C3251 H3238 0.961 . S
C3251 H3239 0.959 . S
C3251 C3249 1.561 . S
C3252 C3249 1.526 . S
C3252 C3253 1.396 . S
C3252 C3257 1.390 . S
C3253 C3247 1.465 . S
C3253 C3252 1.396 . S
C3253 C3254 1.399 . S
C3254 H3240 0.929 . S
C3254 C3253 1.399 . S
C3254 C3255 1.385 . S
C3255 H3241 0.931 . S
C3255 C3254 1.385 . S
C3255 C3256 1.389 . S
C3256 C3255 1.389 . S
C3256 C3257 1.387 . S
C3257 H3242 0.930 . S
C3257 C3252 1.390 . S
C3257 C3256 1.387 . S
H3258 C3270 0.930 . S
H3259 C3272 0.930 . S
H3260 C3273 0.930 . S
H3261 C3277 0.959 . S
H3262 C3277 0.959 . S
H3263 C3277 0.961 . S
H3264 C3278 0.960 . S
H3265 C3278 0.961 . S
H3266 C3278 0.959 . S
H3267 C3281 0.929 . S
H3268 C3282 0.931 . S
H3269 C3284 0.930 . S
C3270 H3258 0.930 . S
C3270 C3271 1.399 . S
C3270 C3275 1.399 . S
C3271 C3270 1.399 . S
C3271 C3272 1.376 . S
C3272 H3259 0.930 . S
C3272 C3271 1.376 . S
C3272 C3273 1.388 . S
C3273 H3260 0.930 . S
C3273 C3272 1.388 . S
C3273 C3274 1.390 . S
C3274 C3273 1.390 . S
C3274 C3275 1.394 . S
C3274 C3280 1.465 . S
C3275 C3270 1.399 . S
C3275 C3274 1.394 . S
C3275 C3276 1.516 . S
C3276 C3275 1.516 . S
C3276 C3277 1.502 . S
C3276 C3278 1.561 . S
C3276 C3279 1.526 . S
C3277 H3261 0.959 . S
C3277 H3262 0.959 . S
C3277 H3263 0.961 . S
C3277 C3276 1.502 . S
C3278 H3264 0.960 . S
C3278 H3265 0.961 . S
C3278 H3266 0.959 . S
C3278 C3276 1.561 . S
C3279 C3276 1.526 . S
C3279 C3280 1.396 . S
C3279 C3284 1.390 . S
C3280 C3274 1.465 . S
C3280 C3279 1.396 . S
C3280 C3281 1.399 . S
C3281 H3267 0.929 . S
C3281 C3280 1.399 . S
C3281 C3282 1.385 . S
C3282 H3268 0.931 . S
C3282 C3281 1.385 . S
C3282 C3283 1.389 . S
C3283 C3282 1.389 . S
C3283 C3284 1.387 . S
C3284 H3269 0.930 . S
C3284 C3279 1.390 . S
C3284 C3283 1.387 . S
H3285 C3297 0.930 . S
H3286 C3299 0.930 . S
H3287 C3300 0.930 . S
H3288 C3304 0.959 . S
H3289 C3304 0.959 . S
H3290 C3304 0.961 . S
H3291 C3305 0.960 . S
H3292 C3305 0.961 . S
H3293 C3305 0.959 . S
H3294 C3308 0.929 . S
H3295 C3309 0.931 . S
H3296 C3311 0.930 . S
C3297 H3285 0.930 . S
C3297 C3298 1.399 . S
C3297 C3302 1.399 . S
C3298 C3297 1.399 . S
C3298 C3299 1.376 . S
C3299 H3286 0.930 . S
C3299 C3298 1.376 . S
C3299 C3300 1.388 . S
C3300 H3287 0.930 . S
C3300 C3299 1.388 . S
C3300 C3301 1.390 . S
C3301 C3300 1.390 . S
C3301 C3302 1.394 . S
C3301 C3307 1.465 . S
C3302 C3297 1.399 . S
C3302 C3301 1.394 . S
C3302 C3303 1.516 . S
C3303 C3302 1.516 . S
C3303 C3304 1.502 . S
C3303 C3305 1.561 . S
C3303 C3306 1.526 . S
C3304 H3288 0.959 . S
C3304 H3289 0.959 . S
C3304 H3290 0.961 . S
C3304 C3303 1.502 . S
C3305 H3291 0.960 . S
C3305 H3292 0.961 . S
C3305 H3293 0.959 . S
C3305 C3303 1.561 . S
C3306 C3303 1.526 . S
C3306 C3307 1.396 . S
C3306 C3311 1.390 . S
C3307 C3301 1.465 . S
C3307 C3306 1.396 . S
C3307 C3308 1.399 . S
C3308 H3294 0.929 . S
C3308 C3307 1.399 . S
C3308 C3309 1.385 . S
C3309 H3295 0.931 . S
C3309 C3308 1.385 . S
C3309 C3310 1.389 . S
C3310 C3309 1.389 . S
C3310 C3311 1.387 . S
C3311 H3296 0.930 . S
C3311 C3306 1.390 . S
C3311 C3310 1.387 . S
H3312 C3324 0.930 . S
H3313 C3326 0.930 . S
H3314 C3327 0.930 . S
H3315 C3331 0.959 . S
H3316 C3331 0.959 . S
H3317 C3331 0.961 . S
H3318 C3332 0.960 . S
H3319 C3332 0.961 . S
H3320 C3332 0.959 . S
H3321 C3335 0.929 . S
H3322 C3336 0.931 . S
H3323 C3338 0.930 . S
C3324 H3312 0.930 . S
C3324 C3325 1.399 . S
C3324 C3329 1.399 . S
C3325 C3324 1.399 . S
C3325 C3326 1.376 . S
C3326 H3313 0.930 . S
C3326 C3325 1.376 . S
C3326 C3327 1.388 . S
C3327 H3314 0.930 . S
C3327 C3326 1.388 . S
C3327 C3328 1.390 . S
C3328 C3327 1.390 . S
C3328 C3329 1.394 . S
C3328 C3334 1.465 . S
C3329 C3324 1.399 . S
C3329 C3328 1.394 . S
C3329 C3330 1.516 . S
C3330 C3329 1.516 . S
C3330 C3331 1.502 . S
C3330 C3332 1.561 . S
C3330 C3333 1.526 . S
C3331 H3315 0.959 . S
C3331 H3316 0.959 . S
C3331 H3317 0.961 . S
C3331 C3330 1.502 . S
C3332 H3318 0.960 . S
C3332 H3319 0.961 . S
C3332 H3320 0.959 . S
C3332 C3330 1.561 . S
C3333 C3330 1.526 . S
C3333 C3334 1.396 . S
C3333 C3338 1.390 . S
C3334 C3328 1.465 . S
C3334 C3333 1.396 . S
C3334 C3335 1.399 . S
C3335 H3321 0.929 . S
C3335 C3334 1.399 . S
C3335 C3336 1.385 . S
C3336 H3322 0.931 . S
C3336 C3335 1.385 . S
C3336 C3337 1.389 . S
C3337 C3336 1.389 . S
C3337 C3338 1.387 . S
C3338 H3323 0.930 . S
C3338 C3333 1.390 . S
C3338 C3337 1.387 . S
H3339 C3351 0.930 . S
H3340 C3353 0.930 . S
H3341 C3354 0.930 . S
H3342 C3358 0.959 . S
H3343 C3358 0.959 . S
H3344 C3358 0.961 . S
H3345 C3359 0.960 . S
H3346 C3359 0.961 . S
H3347 C3359 0.959 . S
H3348 C3362 0.929 . S
H3349 C3363 0.931 . S
H3350 C3365 0.930 . S
C3351 H3339 0.930 . S
C3351 C3352 1.399 . S
C3351 C3356 1.399 . S
C3352 C3351 1.399 . S
C3352 C3353 1.376 . S
C3353 H3340 0.930 . S
C3353 C3352 1.376 . S
C3353 C3354 1.388 . S
C3354 H3341 0.930 . S
C3354 C3353 1.388 . S
C3354 C3355 1.390 . S
C3355 C3354 1.390 . S
C3355 C3356 1.394 . S
C3355 C3361 1.465 . S
C3356 C3351 1.399 . S
C3356 C3355 1.394 . S
C3356 C3357 1.516 . S
C3357 C3356 1.516 . S
C3357 C3358 1.502 . S
C3357 C3359 1.561 . S
C3357 C3360 1.526 . S
C3358 H3342 0.959 . S
C3358 H3343 0.959 . S
C3358 H3344 0.961 . S
C3358 C3357 1.502 . S
C3359 H3345 0.960 . S
C3359 H3346 0.961 . S
C3359 H3347 0.959 . S
C3359 C3357 1.561 . S
C3360 C3357 1.526 . S
C3360 C3361 1.396 . S
C3360 C3365 1.390 . S
C3361 C3355 1.465 . S
C3361 C3360 1.396 . S
C3361 C3362 1.399 . S
C3362 H3348 0.929 . S
C3362 C3361 1.399 . S
C3362 C3363 1.385 . S
C3363 H3349 0.931 . S
C3363 C3362 1.385 . S
C3363 C3364 1.389 . S
C3364 C3363 1.389 . S
C3364 C3365 1.387 . S
C3365 H3350 0.930 . S
C3365 C3360 1.390 . S
C3365 C3364 1.387 . S
H3366 C3378 0.930 . S
H3367 C3380 0.930 . S
H3368 C3381 0.930 . S
H3369 C3385 0.959 . S
H3370 C3385 0.959 . S
H3371 C3385 0.961 . S
H3372 C3386 0.960 . S
H3373 C3386 0.961 . S
H3374 C3386 0.959 . S
H3375 C3389 0.929 . S
H3376 C3390 0.931 . S
H3377 C3392 0.930 . S
C3378 H3366 0.930 . S
C3378 C3379 1.399 . S
C3378 C3383 1.399 . S
C3379 C3378 1.399 . S
C3379 C3380 1.376 . S
C3380 H3367 0.930 . S
C3380 C3379 1.376 . S
C3380 C3381 1.388 . S
C3381 H3368 0.930 . S
C3381 C3380 1.388 . S
C3381 C3382 1.390 . S
C3382 C3381 1.390 . S
C3382 C3383 1.394 . S
C3382 C3388 1.465 . S
C3383 C3378 1.399 . S
C3383 C3382 1.394 . S
C3383 C3384 1.516 . S
C3384 C3383 1.516 . S
C3384 C3385 1.502 . S
C3384 C3386 1.561 . S
C3384 C3387 1.526 . S
C3385 H3369 0.959 . S
C3385 H3370 0.959 . S
C3385 H3371 0.961 . S
C3385 C3384 1.502 . S
C3386 H3372 0.960 . S
C3386 H3373 0.961 . S
C3386 H3374 0.959 . S
C3386 C3384 1.561 . S
C3387 C3384 1.526 . S
C3387 C3388 1.396 . S
C3387 C3392 1.390 . S
C3388 C3382 1.465 . S
C3388 C3387 1.396 . S
C3388 C3389 1.399 . S
C3389 H3375 0.929 . S
C3389 C3388 1.399 . S
C3389 C3390 1.385 . S
C3390 H3376 0.931 . S
C3390 C3389 1.385 . S
C3390 C3391 1.389 . S
C3391 C3390 1.389 . S
C3391 C3392 1.387 . S
C3392 H3377 0.930 . S
C3392 C3387 1.390 . S
C3392 C3391 1.387 . S
H3393 C3405 0.930 . S
H3394 C3407 0.930 . S
H3395 C3408 0.930 . S
H3396 C3412 0.959 . S
H3397 C3412 0.959 . S
H3398 C3412 0.961 . S
H3399 C3413 0.960 . S
H3400 C3413 0.961 . S
H3401 C3413 0.959 . S
H3402 C3416 0.929 . S
H3403 C3417 0.931 . S
H3404 C3419 0.930 . S
C3405 H3393 0.930 . S
C3405 C3406 1.399 . S
C3405 C3410 1.399 . S
C3406 C3405 1.399 . S
C3406 C3407 1.376 . S
C3407 H3394 0.930 . S
C3407 C3406 1.376 . S
C3407 C3408 1.388 . S
C3408 H3395 0.930 . S
C3408 C3407 1.388 . S
C3408 C3409 1.390 . S
C3409 C3408 1.390 . S
C3409 C3410 1.394 . S
C3409 C3415 1.465 . S
C3410 C3405 1.399 . S
C3410 C3409 1.394 . S
C3410 C3411 1.516 . S
C3411 C3410 1.516 . S
C3411 C3412 1.502 . S
C3411 C3413 1.561 . S
C3411 C3414 1.526 . S
C3412 H3396 0.959 . S
C3412 H3397 0.959 . S
C3412 H3398 0.961 . S
C3412 C3411 1.502 . S
C3413 H3399 0.960 . S
C3413 H3400 0.961 . S
C3413 H3401 0.959 . S
C3413 C3411 1.561 . S
C3414 C3411 1.526 . S
C3414 C3415 1.396 . S
C3414 C3419 1.390 . S
C3415 C3409 1.465 . S
C3415 C3414 1.396 . S
C3415 C3416 1.399 . S
C3416 H3402 0.929 . S
C3416 C3415 1.399 . S
C3416 C3417 1.385 . S
C3417 H3403 0.931 . S
C3417 C3416 1.385 . S
C3417 C3418 1.389 . S
C3418 C3417 1.389 . S
C3418 C3419 1.387 . S
C3419 H3404 0.930 . S
C3419 C3414 1.390 . S
C3419 C3418 1.387 . S
H3420 C3432 0.930 . S
H3421 C3434 0.930 . S
H3422 C3435 0.930 . S
H3423 C3439 0.959 . S
H3424 C3439 0.959 . S
H3425 C3439 0.961 . S
H3426 C3440 0.960 . S
H3427 C3440 0.961 . S
H3428 C3440 0.959 . S
H3429 C3443 0.929 . S
H3430 C3444 0.931 . S
H3431 C3446 0.930 . S
C3432 H3420 0.930 . S
C3432 C3433 1.399 . S
C3432 C3437 1.399 . S
C3433 C3432 1.399 . S
C3433 C3434 1.376 . S
C3434 H3421 0.930 . S
C3434 C3433 1.376 . S
C3434 C3435 1.388 . S
C3435 H3422 0.930 . S
C3435 C3434 1.388 . S
C3435 C3436 1.390 . S
C3436 C3435 1.390 . S
C3436 C3437 1.394 . S
C3436 C3442 1.465 . S
C3437 C3432 1.399 . S
C3437 C3436 1.394 . S
C3437 C3438 1.516 . S
C3438 C3437 1.516 . S
C3438 C3439 1.502 . S
C3438 C3440 1.561 . S
C3438 C3441 1.526 . S
C3439 H3423 0.959 . S
C3439 H3424 0.959 . S
C3439 H3425 0.961 . S
C3439 C3438 1.502 . S
C3440 H3426 0.960 . S
C3440 H3427 0.961 . S
C3440 H3428 0.959 . S
C3440 C3438 1.561 . S
C3441 C3438 1.526 . S
C3441 C3442 1.396 . S
C3441 C3446 1.390 . S
C3442 C3436 1.465 . S
C3442 C3441 1.396 . S
C3442 C3443 1.399 . S
C3443 H3429 0.929 . S
C3443 C3442 1.399 . S
C3443 C3444 1.385 . S
C3444 H3430 0.931 . S
C3444 C3443 1.385 . S
C3444 C3445 1.389 . S
C3445 C3444 1.389 . S
C3445 C3446 1.387 . S
C3446 H3431 0.930 . S
C3446 C3441 1.390 . S
C3446 C3445 1.387 . S
H3447 C3459 0.930 . S
H3448 C3461 0.930 . S
H3449 C3462 0.930 . S
H3450 C3466 0.959 . S
H3451 C3466 0.959 . S
H3452 C3466 0.961 . S
H3453 C3467 0.960 . S
H3454 C3467 0.961 . S
H3455 C3467 0.959 . S
H3456 C3470 0.929 . S
H3457 C3471 0.931 . S
H3458 C3473 0.930 . S
C3459 H3447 0.930 . S
C3459 C3460 1.399 . S
C3459 C3464 1.399 . S
C3460 C3459 1.399 . S
C3460 C3461 1.376 . S
C3461 H3448 0.930 . S
C3461 C3460 1.376 . S
C3461 C3462 1.388 . S
C3462 H3449 0.930 . S
C3462 C3461 1.388 . S
C3462 C3463 1.390 . S
C3463 C3462 1.390 . S
C3463 C3464 1.394 . S
C3463 C3469 1.465 . S
C3464 C3459 1.399 . S
C3464 C3463 1.394 . S
C3464 C3465 1.516 . S
C3465 C3464 1.516 . S
C3465 C3466 1.502 . S
C3465 C3467 1.561 . S
C3465 C3468 1.526 . S
C3466 H3450 0.959 . S
C3466 H3451 0.959 . S
C3466 H3452 0.961 . S
C3466 C3465 1.502 . S
C3467 H3453 0.960 . S
C3467 H3454 0.961 . S
C3467 H3455 0.959 . S
C3467 C3465 1.561 . S
C3468 C3465 1.526 . S
C3468 C3469 1.396 . S
C3468 C3473 1.390 . S
C3469 C3463 1.465 . S
C3469 C3468 1.396 . S
C3469 C3470 1.399 . S
C3470 H3456 0.929 . S
C3470 C3469 1.399 . S
C3470 C3471 1.385 . S
C3471 H3457 0.931 . S
C3471 C3470 1.385 . S
C3471 C3472 1.389 . S
C3472 C3471 1.389 . S
C3472 C3473 1.387 . S
C3473 H3458 0.930 . S
C3473 C3468 1.390 . S
C3473 C3472 1.387 . S
H3474 C3486 0.930 . S
H3475 C3488 0.930 . S
H3476 C3489 0.930 . S
H3477 C3493 0.959 . S
H3478 C3493 0.959 . S
H3479 C3493 0.961 . S
H3480 C3494 0.960 . S
H3481 C3494 0.961 . S
H3482 C3494 0.959 . S
H3483 C3497 0.929 . S
H3484 C3498 0.931 . S
H3485 C3500 0.930 . S
C3486 H3474 0.930 . S
C3486 C3487 1.399 . S
C3486 C3491 1.399 . S
C3487 C3486 1.399 . S
C3487 C3488 1.376 . S
C3488 H3475 0.930 . S
C3488 C3487 1.376 . S
C3488 C3489 1.388 . S
C3489 H3476 0.930 . S
C3489 C3488 1.388 . S
C3489 C3490 1.390 . S
C3490 C3489 1.390 . S
C3490 C3491 1.394 . S
C3490 C3496 1.465 . S
C3491 C3486 1.399 . S
C3491 C3490 1.394 . S
C3491 C3492 1.516 . S
C3492 C3491 1.516 . S
C3492 C3493 1.502 . S
C3492 C3494 1.561 . S
C3492 C3495 1.526 . S
C3493 H3477 0.959 . S
C3493 H3478 0.959 . S
C3493 H3479 0.961 . S
C3493 C3492 1.502 . S
C3494 H3480 0.960 . S
C3494 H3481 0.961 . S
C3494 H3482 0.959 . S
C3494 C3492 1.561 . S
C3495 C3492 1.526 . S
C3495 C3496 1.396 . S
C3495 C3500 1.390 . S
C3496 C3490 1.465 . S
C3496 C3495 1.396 . S
C3496 C3497 1.399 . S
C3497 H3483 0.929 . S
C3497 C3496 1.399 . S
C3497 C3498 1.385 . S
C3498 H3484 0.931 . S
C3498 C3497 1.385 . S
C3498 C3499 1.389 . S
C3499 C3498 1.389 . S
C3499 C3500 1.387 . S
C3500 H3485 0.930 . S
C3500 C3495 1.390 . S
C3500 C3499 1.387 . S
H3501 C3513 0.930 . S
H3502 C3515 0.930 . S
H3503 C3516 0.930 . S
H3504 C3520 0.959 . S
H3505 C3520 0.959 . S
H3506 C3520 0.961 . S
H3507 C3521 0.960 . S
H3508 C3521 0.961 . S
H3509 C3521 0.959 . S
H3510 C3524 0.929 . S
H3511 C3525 0.931 . S
H3512 C3527 0.930 . S
C3513 H3501 0.930 . S
C3513 C3514 1.399 . S
C3513 C3518 1.399 . S
C3514 C3513 1.399 . S
C3514 C3515 1.376 . S
C3515 H3502 0.930 . S
C3515 C3514 1.376 . S
C3515 C3516 1.388 . S
C3516 H3503 0.930 . S
C3516 C3515 1.388 . S
C3516 C3517 1.390 . S
C3517 C3516 1.390 . S
C3517 C3518 1.394 . S
C3517 C3523 1.465 . S
C3518 C3513 1.399 . S
C3518 C3517 1.394 . S
C3518 C3519 1.516 . S
C3519 C3518 1.516 . S
C3519 C3520 1.502 . S
C3519 C3521 1.561 . S
C3519 C3522 1.526 . S
C3520 H3504 0.959 . S
C3520 H3505 0.959 . S
C3520 H3506 0.961 . S
C3520 C3519 1.502 . S
C3521 H3507 0.960 . S
C3521 H3508 0.961 . S
C3521 H3509 0.959 . S
C3521 C3519 1.561 . S
C3522 C3519 1.526 . S
C3522 C3523 1.396 . S
C3522 C3527 1.390 . S
C3523 C3517 1.465 . S
C3523 C3522 1.396 . S
C3523 C3524 1.399 . S
C3524 H3510 0.929 . S
C3524 C3523 1.399 . S
C3524 C3525 1.385 . S
C3525 H3511 0.931 . S
C3525 C3524 1.385 . S
C3525 C3526 1.389 . S
C3526 C3525 1.389 . S
C3526 C3527 1.387 . S
C3527 H3512 0.930 . S
C3527 C3522 1.390 . S
C3527 C3526 1.387 . S
H3528 C3540 0.930 . S
H3529 C3542 0.930 . S
H3530 C3543 0.930 . S
H3531 C3547 0.959 . S
H3532 C3547 0.959 . S
H3533 C3547 0.961 . S
H3534 C3548 0.960 . S
H3535 C3548 0.961 . S
H3536 C3548 0.959 . S
H3537 C3551 0.929 . S
H3538 C3552 0.931 . S
H3539 C3554 0.930 . S
C3540 H3528 0.930 . S
C3540 C3541 1.399 . S
C3540 C3545 1.399 . S
C3541 C3540 1.399 . S
C3541 C3542 1.376 . S
C3542 H3529 0.930 . S
C3542 C3541 1.376 . S
C3542 C3543 1.388 . S
C3543 H3530 0.930 . S
C3543 C3542 1.388 . S
C3543 C3544 1.390 . S
C3544 C3543 1.390 . S
C3544 C3545 1.394 . S
C3544 C3550 1.465 . S
C3545 C3540 1.399 . S
C3545 C3544 1.394 . S
C3545 C3546 1.516 . S
C3546 C3545 1.516 . S
C3546 C3547 1.502 . S
C3546 C3548 1.561 . S
C3546 C3549 1.526 . S
C3547 H3531 0.959 . S
C3547 H3532 0.959 . S
C3547 H3533 0.961 . S
C3547 C3546 1.502 . S
C3548 H3534 0.960 . S
C3548 H3535 0.961 . S
C3548 H3536 0.959 . S
C3548 C3546 1.561 . S
C3549 C3546 1.526 . S
C3549 C3550 1.396 . S
C3549 C3554 1.390 . S
C3550 C3544 1.465 . S
C3550 C3549 1.396 . S
C3550 C3551 1.399 . S
C3551 H3537 0.929 . S
C3551 C3550 1.399 . S
C3551 C3552 1.385 . S
C3552 H3538 0.931 . S
C3552 C3551 1.385 . S
C3552 C3553 1.389 . S
C3553 C3552 1.389 . S
C3553 C3554 1.387 . S
C3554 H3539 0.930 . S
C3554 C3549 1.390 . S
C3554 C3553 1.387 . S
H3555 C3567 0.930 . S
H3556 C3569 0.930 . S
H3557 C3570 0.930 . S
H3558 C3574 0.959 . S
H3559 C3574 0.959 . S
H3560 C3574 0.961 . S
H3561 C3575 0.960 . S
H3562 C3575 0.961 . S
H3563 C3575 0.959 . S
H3564 C3578 0.929 . S
H3565 C3579 0.931 . S
H3566 C3581 0.930 . S
C3567 H3555 0.930 . S
C3567 C3568 1.399 . S
C3567 C3572 1.399 . S
C3568 C3567 1.399 . S
C3568 C3569 1.376 . S
C3569 H3556 0.930 . S
C3569 C3568 1.376 . S
C3569 C3570 1.388 . S
C3570 H3557 0.930 . S
C3570 C3569 1.388 . S
C3570 C3571 1.390 . S
C3571 C3570 1.390 . S
C3571 C3572 1.394 . S
C3571 C3577 1.465 . S
C3572 C3567 1.399 . S
C3572 C3571 1.394 . S
C3572 C3573 1.516 . S
C3573 C3572 1.516 . S
C3573 C3574 1.502 . S
C3573 C3575 1.561 . S
C3573 C3576 1.526 . S
C3574 H3558 0.959 . S
C3574 H3559 0.959 . S
C3574 H3560 0.961 . S
C3574 C3573 1.502 . S
C3575 H3561 0.960 . S
C3575 H3562 0.961 . S
C3575 H3563 0.959 . S
C3575 C3573 1.561 . S
C3576 C3573 1.526 . S
C3576 C3577 1.396 . S
C3576 C3581 1.390 . S
C3577 C3571 1.465 . S
C3577 C3576 1.396 . S
C3577 C3578 1.399 . S
C3578 H3564 0.929 . S
C3578 C3577 1.399 . S
C3578 C3579 1.385 . S
C3579 H3565 0.931 . S
C3579 C3578 1.385 . S
C3579 C3580 1.389 . S
C3580 C3579 1.389 . S
C3580 C3581 1.387 . S
C3581 H3566 0.930 . S
C3581 C3576 1.390 . S
C3581 C3580 1.387 . S
H3582 C3594 0.930 . S
H3583 C3596 0.930 . S
H3584 C3597 0.930 . S
H3585 C3601 0.959 . S
H3586 C3601 0.959 . S
H3587 C3601 0.961 . S
H3588 C3602 0.960 . S
H3589 C3602 0.961 . S
H3590 C3602 0.959 . S
H3591 C3605 0.929 . S
H3592 C3606 0.931 . S
H3593 C3608 0.930 . S
C3594 H3582 0.930 . S
C3594 C3595 1.399 . S
C3594 C3599 1.399 . S
C3595 C3594 1.399 . S
C3595 C3596 1.376 . S
C3596 H3583 0.930 . S
C3596 C3595 1.376 . S
C3596 C3597 1.388 . S
C3597 H3584 0.930 . S
C3597 C3596 1.388 . S
C3597 C3598 1.390 . S
C3598 C3597 1.390 . S
C3598 C3599 1.394 . S
C3598 C3604 1.465 . S
C3599 C3594 1.399 . S
C3599 C3598 1.394 . S
C3599 C3600 1.516 . S
C3600 C3599 1.516 . S
C3600 C3601 1.502 . S
C3600 C3602 1.561 . S
C3600 C3603 1.526 . S
C3601 H3585 0.959 . S
C3601 H3586 0.959 . S
C3601 H3587 0.961 . S
C3601 C3600 1.502 . S
C3602 H3588 0.960 . S
C3602 H3589 0.961 . S
C3602 H3590 0.959 . S
C3602 C3600 1.561 . S
C3603 C3600 1.526 . S
C3603 C3604 1.396 . S
C3603 C3608 1.390 . S
C3604 C3598 1.465 . S
C3604 C3603 1.396 . S
C3604 C3605 1.399 . S
C3605 H3591 0.929 . S
C3605 C3604 1.399 . S
C3605 C3606 1.385 . S
C3606 H3592 0.931 . S
C3606 C3605 1.385 . S
C3606 C3607 1.389 . S
C3607 C3606 1.389 . S
C3607 C3608 1.387 . S
C3608 H3593 0.930 . S
C3608 C3603 1.390 . S
C3608 C3607 1.387 . S
H3609 C3621 0.930 . S
H3610 C3623 0.930 . S
H3611 C3624 0.930 . S
H3612 C3628 0.959 . S
H3613 C3628 0.959 . S
H3614 C3628 0.961 . S
H3615 C3629 0.960 . S
H3616 C3629 0.961 . S
H3617 C3629 0.959 . S
H3618 C3632 0.929 . S
H3619 C3633 0.931 . S
H3620 C3635 0.930 . S
C3621 H3609 0.930 . S
C3621 C3622 1.399 . S
C3621 C3626 1.399 . S
C3622 C3621 1.399 . S
C3622 C3623 1.376 . S
C3623 H3610 0.930 . S
C3623 C3622 1.376 . S
C3623 C3624 1.388 . S
C3624 H3611 0.930 . S
C3624 C3623 1.388 . S
C3624 C3625 1.390 . S
C3625 C3624 1.390 . S
C3625 C3626 1.394 . S
C3625 C3631 1.465 . S
C3626 C3621 1.399 . S
C3626 C3625 1.394 . S
C3626 C3627 1.516 . S
C3627 C3626 1.516 . S
C3627 C3628 1.502 . S
C3627 C3629 1.561 . S
C3627 C3630 1.526 . S
C3628 H3612 0.959 . S
C3628 H3613 0.959 . S
C3628 H3614 0.961 . S
C3628 C3627 1.502 . S
C3629 H3615 0.960 . S
C3629 H3616 0.961 . S
C3629 H3617 0.959 . S
C3629 C3627 1.561 . S
C3630 C3627 1.526 . S
C3630 C3631 1.396 . S
C3630 C3635 1.390 . S
C3631 C3625 1.465 . S
C3631 C3630 1.396 . S
C3631 C3632 1.399 . S
C3632 H3618 0.929 . S
C3632 C3631 1.399 . S
C3632 C3633 1.385 . S
C3633 H3619 0.931 . S
C3633 C3632 1.385 . S
C3633 C3634 1.389 . S
C3634 C3633 1.389 . S
C3634 C3635 1.387 . S
C3635 H3620 0.930 . S
C3635 C3630 1.390 . S
C3635 C3634 1.387 . S
H3636 C3648 0.930 . S
H3637 C3650 0.930 . S
H3638 C3651 0.930 . S
H3639 C3655 0.959 . S
H3640 C3655 0.959 . S
H3641 C3655 0.961 . S
H3642 C3656 0.960 . S
H3643 C3656 0.961 . S
H3644 C3656 0.959 . S
H3645 C3659 0.929 . S
H3646 C3660 0.931 . S
H3647 C3662 0.930 . S
C3648 H3636 0.930 . S
C3648 C3649 1.399 . S
C3648 C3653 1.399 . S
C3649 C3648 1.399 . S
C3649 C3650 1.376 . S
C3650 H3637 0.930 . S
C3650 C3649 1.376 . S
C3650 C3651 1.388 . S
C3651 H3638 0.930 . S
C3651 C3650 1.388 . S
C3651 C3652 1.390 . S
C3652 C3651 1.390 . S
C3652 C3653 1.394 . S
C3652 C3658 1.465 . S
C3653 C3648 1.399 . S
C3653 C3652 1.394 . S
C3653 C3654 1.516 . S
C3654 C3653 1.516 . S
C3654 C3655 1.502 . S
C3654 C3656 1.561 . S
C3654 C3657 1.526 . S
C3655 H3639 0.959 . S
C3655 H3640 0.959 . S
C3655 H3641 0.961 . S
C3655 C3654 1.502 . S
C3656 H3642 0.960 . S
C3656 H3643 0.961 . S
C3656 H3644 0.959 . S
C3656 C3654 1.561 . S
C3657 C3654 1.526 . S
C3657 C3658 1.396 . S
C3657 C3662 1.390 . S
C3658 C3652 1.465 . S
C3658 C3657 1.396 . S
C3658 C3659 1.399 . S
C3659 H3645 0.929 . S
C3659 C3658 1.399 . S
C3659 C3660 1.385 . S
C3660 H3646 0.931 . S
C3660 C3659 1.385 . S
C3660 C3661 1.389 . S
C3661 C3660 1.389 . S
C3661 C3662 1.387 . S
C3662 H3647 0.930 . S
C3662 C3657 1.390 . S
C3662 C3661 1.387 . S
H3663 C3675 0.930 . S
H3664 C3677 0.930 . S
H3665 C3678 0.930 . S
H3666 C3682 0.959 . S
H3667 C3682 0.959 . S
H3668 C3682 0.961 . S
H3669 C3683 0.960 . S
H3670 C3683 0.961 . S
H3671 C3683 0.959 . S
H3672 C3686 0.929 . S
H3673 C3687 0.931 . S
H3674 C3689 0.930 . S
C3675 H3663 0.930 . S
C3675 C3676 1.399 . S
C3675 C3680 1.399 . S
C3676 C3675 1.399 . S
C3676 C3677 1.376 . S
C3677 H3664 0.930 . S
C3677 C3676 1.376 . S
C3677 C3678 1.388 . S
C3678 H3665 0.930 . S
C3678 C3677 1.388 . S
C3678 C3679 1.390 . S
C3679 C3678 1.390 . S
C3679 C3680 1.394 . S
C3679 C3685 1.465 . S
C3680 C3675 1.399 . S
C3680 C3679 1.394 . S
C3680 C3681 1.516 . S
C3681 C3680 1.516 . S
C3681 C3682 1.502 . S
C3681 C3683 1.561 . S
C3681 C3684 1.526 . S
C3682 H3666 0.959 . S
C3682 H3667 0.959 . S
C3682 H3668 0.961 . S
C3682 C3681 1.502 . S
C3683 H3669 0.960 . S
C3683 H3670 0.961 . S
C3683 H3671 0.959 . S
C3683 C3681 1.561 . S
C3684 C3681 1.526 . S
C3684 C3685 1.396 . S
C3684 C3689 1.390 . S
C3685 C3679 1.465 . S
C3685 C3684 1.396 . S
C3685 C3686 1.399 . S
C3686 H3672 0.929 . S
C3686 C3685 1.399 . S
C3686 C3687 1.385 . S
C3687 H3673 0.931 . S
C3687 C3686 1.385 . S
C3687 C3688 1.389 . S
C3688 C3687 1.389 . S
C3688 C3689 1.387 . S
C3689 H3674 0.930 . S
C3689 C3684 1.390 . S
C3689 C3688 1.387 . S
H3690 C3702 0.930 . S
H3691 C3704 0.930 . S
H3692 C3705 0.930 . S
H3693 C3709 0.959 . S
H3694 C3709 0.959 . S
H3695 C3709 0.961 . S
H3696 C3710 0.960 . S
H3697 C3710 0.961 . S
H3698 C3710 0.959 . S
H3699 C3713 0.929 . S
H3700 C3714 0.931 . S
H3701 C3716 0.930 . S
C3702 H3690 0.930 . S
C3702 C3703 1.399 . S
C3702 C3707 1.399 . S
C3703 C3702 1.399 . S
C3703 C3704 1.376 . S
C3704 H3691 0.930 . S
C3704 C3703 1.376 . S
C3704 C3705 1.388 . S
C3705 H3692 0.930 . S
C3705 C3704 1.388 . S
C3705 C3706 1.390 . S
C3706 C3705 1.390 . S
C3706 C3707 1.394 . S
C3706 C3712 1.465 . S
C3707 C3702 1.399 . S
C3707 C3706 1.394 . S
C3707 C3708 1.516 . S
C3708 C3707 1.516 . S
C3708 C3709 1.502 . S
C3708 C3710 1.561 . S
C3708 C3711 1.526 . S
C3709 H3693 0.959 . S
C3709 H3694 0.959 . S
C3709 H3695 0.961 . S
C3709 C3708 1.502 . S
C3710 H3696 0.960 . S
C3710 H3697 0.961 . S
C3710 H3698 0.959 . S
C3710 C3708 1.561 . S
C3711 C3708 1.526 . S
C3711 C3712 1.396 . S
C3711 C3716 1.390 . S
C3712 C3706 1.465 . S
C3712 C3711 1.396 . S
C3712 C3713 1.399 . S
C3713 H3699 0.929 . S
C3713 C3712 1.399 . S
C3713 C3714 1.385 . S
C3714 H3700 0.931 . S
C3714 C3713 1.385 . S
C3714 C3715 1.389 . S
C3715 C3714 1.389 . S
C3715 C3716 1.387 . S
C3716 H3701 0.930 . S
C3716 C3711 1.390 . S
C3716 C3715 1.387 . S
H3717 C3729 0.930 . S
H3718 C3731 0.930 . S
H3719 C3732 0.930 . S
H3720 C3736 0.959 . S
H3721 C3736 0.959 . S
H3722 C3736 0.961 . S
H3723 C3737 0.960 . S
H3724 C3737 0.961 . S
H3725 C3737 0.959 . S
H3726 C3740 0.929 . S
H3727 C3741 0.931 . S
H3728 C3743 0.930 . S
C3729 H3717 0.930 . S
C3729 C3730 1.399 . S
C3729 C3734 1.399 . S
C3730 C3729 1.399 . S
C3730 C3731 1.376 . S
C3731 H3718 0.930 . S
C3731 C3730 1.376 . S
C3731 C3732 1.388 . S
C3732 H3719 0.930 . S
C3732 C3731 1.388 . S
C3732 C3733 1.390 . S
C3733 C3732 1.390 . S
C3733 C3734 1.394 . S
C3733 C3739 1.465 . S
C3734 C3729 1.399 . S
C3734 C3733 1.394 . S
C3734 C3735 1.516 . S
C3735 C3734 1.516 . S
C3735 C3736 1.502 . S
C3735 C3737 1.561 . S
C3735 C3738 1.526 . S
C3736 H3720 0.959 . S
C3736 H3721 0.959 . S
C3736 H3722 0.961 . S
C3736 C3735 1.502 . S
C3737 H3723 0.960 . S
C3737 H3724 0.961 . S
C3737 H3725 0.959 . S
C3737 C3735 1.561 . S
C3738 C3735 1.526 . S
C3738 C3739 1.396 . S
C3738 C3743 1.390 . S
C3739 C3733 1.465 . S
C3739 C3738 1.396 . S
C3739 C3740 1.399 . S
C3740 H3726 0.929 . S
C3740 C3739 1.399 . S
C3740 C3741 1.385 . S
C3741 H3727 0.931 . S
C3741 C3740 1.385 . S
C3741 C3742 1.389 . S
C3742 C3741 1.389 . S
C3742 C3743 1.387 . S
C3743 H3728 0.930 . S
C3743 C3738 1.390 . S
C3743 C3742 1.387 . S
H3744 C3756 0.930 . S
H3745 C3758 0.930 . S
H3746 C3759 0.930 . S
H3747 C3763 0.959 . S
H3748 C3763 0.959 . S
H3749 C3763 0.961 . S
H3750 C3764 0.960 . S
H3751 C3764 0.961 . S
H3752 C3764 0.959 . S
H3753 C3767 0.929 . S
H3754 C3768 0.931 . S
H3755 C3770 0.930 . S
C3756 H3744 0.930 . S
C3756 C3757 1.399 . S
C3756 C3761 1.399 . S
C3757 C3756 1.399 . S
C3757 C3758 1.376 . S
C3758 H3745 0.930 . S
C3758 C3757 1.376 . S
C3758 C3759 1.388 . S
C3759 H3746 0.930 . S
C3759 C3758 1.388 . S
C3759 C3760 1.390 . S
C3760 C3759 1.390 . S
C3760 C3761 1.394 . S
C3760 C3766 1.465 . S
C3761 C3756 1.399 . S
C3761 C3760 1.394 . S
C3761 C3762 1.516 . S
C3762 C3761 1.516 . S
C3762 C3763 1.502 . S
C3762 C3764 1.561 . S
C3762 C3765 1.526 . S
C3763 H3747 0.959 . S
C3763 H3748 0.959 . S
C3763 H3749 0.961 . S
C3763 C3762 1.502 . S
C3764 H3750 0.960 . S
C3764 H3751 0.961 . S
C3764 H3752 0.959 . S
C3764 C3762 1.561 . S
C3765 C3762 1.526 . S
C3765 C3766 1.396 . S
C3765 C3770 1.390 . S
C3766 C3760 1.465 . S
C3766 C3765 1.396 . S
C3766 C3767 1.399 . S
C3767 H3753 0.929 . S
C3767 C3766 1.399 . S
C3767 C3768 1.385 . S
C3768 H3754 0.931 . S
C3768 C3767 1.385 . S
C3768 C3769 1.389 . S
C3769 C3768 1.389 . S
C3769 C3770 1.387 . S
C3770 H3755 0.930 . S
C3770 C3765 1.390 . S
C3770 C3769 1.387 . S
H3771 C3783 0.930 . S
H3772 C3785 0.930 . S
H3773 C3786 0.930 . S
H3774 C3790 0.959 . S
H3775 C3790 0.959 . S
H3776 C3790 0.961 . S
H3777 C3791 0.960 . S
H3778 C3791 0.961 . S
H3779 C3791 0.959 . S
H3780 C3794 0.929 . S
H3781 C3795 0.931 . S
H3782 C3797 0.930 . S
C3783 H3771 0.930 . S
C3783 C3784 1.399 . S
C3783 C3788 1.399 . S
C3784 C3783 1.399 . S
C3784 C3785 1.376 . S
C3785 H3772 0.930 . S
C3785 C3784 1.376 . S
C3785 C3786 1.388 . S
C3786 H3773 0.930 . S
C3786 C3785 1.388 . S
C3786 C3787 1.390 . S
C3787 C3786 1.390 . S
C3787 C3788 1.394 . S
C3787 C3793 1.465 . S
C3788 C3783 1.399 . S
C3788 C3787 1.394 . S
C3788 C3789 1.516 . S
C3789 C3788 1.516 . S
C3789 C3790 1.502 . S
C3789 C3791 1.561 . S
C3789 C3792 1.526 . S
C3790 H3774 0.959 . S
C3790 H3775 0.959 . S
C3790 H3776 0.961 . S
C3790 C3789 1.502 . S
C3791 H3777 0.960 . S
C3791 H3778 0.961 . S
C3791 H3779 0.959 . S
C3791 C3789 1.561 . S
C3792 C3789 1.526 . S
C3792 C3793 1.396 . S
C3792 C3797 1.390 . S
C3793 C3787 1.465 . S
C3793 C3792 1.396 . S
C3793 C3794 1.399 . S
C3794 H3780 0.929 . S
C3794 C3793 1.399 . S
C3794 C3795 1.385 . S
C3795 H3781 0.931 . S
C3795 C3794 1.385 . S
C3795 C3796 1.389 . S
C3796 C3795 1.389 . S
C3796 C3797 1.387 . S
C3797 H3782 0.930 . S
C3797 C3792 1.390 . S
C3797 C3796 1.387 . S
H3798 C3810 0.930 . S
H3799 C3812 0.930 . S
H3800 C3813 0.930 . S
H3801 C3817 0.959 . S
H3802 C3817 0.959 . S
H3803 C3817 0.961 . S
H3804 C3818 0.960 . S
H3805 C3818 0.961 . S
H3806 C3818 0.959 . S
H3807 C3821 0.929 . S
H3808 C3822 0.931 . S
H3809 C3824 0.930 . S
C3810 H3798 0.930 . S
C3810 C3811 1.399 . S
C3810 C3815 1.399 . S
C3811 C3810 1.399 . S
C3811 C3812 1.376 . S
C3812 H3799 0.930 . S
C3812 C3811 1.376 . S
C3812 C3813 1.388 . S
C3813 H3800 0.930 . S
C3813 C3812 1.388 . S
C3813 C3814 1.390 . S
C3814 C3813 1.390 . S
C3814 C3815 1.394 . S
C3814 C3820 1.465 . S
C3815 C3810 1.399 . S
C3815 C3814 1.394 . S
C3815 C3816 1.516 . S
C3816 C3815 1.516 . S
C3816 C3817 1.502 . S
C3816 C3818 1.561 . S
C3816 C3819 1.526 . S
C3817 H3801 0.959 . S
C3817 H3802 0.959 . S
C3817 H3803 0.961 . S
C3817 C3816 1.502 . S
C3818 H3804 0.960 . S
C3818 H3805 0.961 . S
C3818 H3806 0.959 . S
C3818 C3816 1.561 . S
C3819 C3816 1.526 . S
C3819 C3820 1.396 . S
C3819 C3824 1.390 . S
C3820 C3814 1.465 . S
C3820 C3819 1.396 . S
C3820 C3821 1.399 . S
C3821 H3807 0.929 . S
C3821 C3820 1.399 . S
C3821 C3822 1.385 . S
C3822 H3808 0.931 . S
C3822 C3821 1.385 . S
C3822 C3823 1.389 . S
C3823 C3822 1.389 . S
C3823 C3824 1.387 . S
C3824 H3809 0.930 . S
C3824 C3819 1.390 . S
C3824 C3823 1.387 . S
H3825 C3837 0.930 . S
H3826 C3839 0.930 . S
H3827 C3840 0.930 . S
H3828 C3844 0.959 . S
H3829 C3844 0.959 . S
H3830 C3844 0.961 . S
H3831 C3845 0.960 . S
H3832 C3845 0.961 . S
H3833 C3845 0.959 . S
H3834 C3848 0.929 . S
H3835 C3849 0.931 . S
H3836 C3851 0.930 . S
C3837 H3825 0.930 . S
C3837 C3838 1.399 . S
C3837 C3842 1.399 . S
C3838 C3837 1.399 . S
C3838 C3839 1.376 . S
C3839 H3826 0.930 . S
C3839 C3838 1.376 . S
C3839 C3840 1.388 . S
C3840 H3827 0.930 . S
C3840 C3839 1.388 . S
C3840 C3841 1.390 . S
C3841 C3840 1.390 . S
C3841 C3842 1.394 . S
C3841 C3847 1.465 . S
C3842 C3837 1.399 . S
C3842 C3841 1.394 . S
C3842 C3843 1.516 . S
C3843 C3842 1.516 . S
C3843 C3844 1.502 . S
C3843 C3845 1.561 . S
C3843 C3846 1.526 . S
C3844 H3828 0.959 . S
C3844 H3829 0.959 . S
C3844 H3830 0.961 . S
C3844 C3843 1.502 . S
C3845 H3831 0.960 . S
C3845 H3832 0.961 . S
C3845 H3833 0.959 . S
C3845 C3843 1.561 . S
C3846 C3843 1.526 . S
C3846 C3847 1.396 . S
C3846 C3851 1.390 . S
C3847 C3841 1.465 . S
C3847 C3846 1.396 . S
C3847 C3848 1.399 . S
C3848 H3834 0.929 . S
C3848 C3847 1.399 . S
C3848 C3849 1.385 . S
C3849 H3835 0.931 . S
C3849 C3848 1.385 . S
C3849 C3850 1.389 . S
C3850 C3849 1.389 . S
C3850 C3851 1.387 . S
C3851 H3836 0.930 . S
C3851 C3846 1.390 . S
C3851 C3850 1.387 . S
H3852 C3864 0.930 . S
H3853 C3866 0.930 . S
H3854 C3867 0.930 . S
H3855 C3871 0.959 . S
H3856 C3871 0.959 . S
H3857 C3871 0.961 . S
H3858 C3872 0.960 . S
H3859 C3872 0.961 . S
H3860 C3872 0.959 . S
H3861 C3875 0.929 . S
H3862 C3876 0.931 . S
H3863 C3878 0.930 . S
C3864 H3852 0.930 . S
C3864 C3865 1.399 . S
C3864 C3869 1.399 . S
C3865 C3864 1.399 . S
C3865 C3866 1.376 . S
C3866 H3853 0.930 . S
C3866 C3865 1.376 . S
C3866 C3867 1.388 . S
C3867 H3854 0.930 . S
C3867 C3866 1.388 . S
C3867 C3868 1.390 . S
C3868 C3867 1.390 . S
C3868 C3869 1.394 . S
C3868 C3874 1.465 . S
C3869 C3864 1.399 . S
C3869 C3868 1.394 . S
C3869 C3870 1.516 . S
C3870 C3869 1.516 . S
C3870 C3871 1.502 . S
C3870 C3872 1.561 . S
C3870 C3873 1.526 . S
C3871 H3855 0.959 . S
C3871 H3856 0.959 . S
C3871 H3857 0.961 . S
C3871 C3870 1.502 . S
C3872 H3858 0.960 . S
C3872 H3859 0.961 . S
C3872 H3860 0.959 . S
C3872 C3870 1.561 . S
C3873 C3870 1.526 . S
C3873 C3874 1.396 . S
C3873 C3878 1.390 . S
C3874 C3868 1.465 . S
C3874 C3873 1.396 . S
C3874 C3875 1.399 . S
C3875 H3861 0.929 . S
C3875 C3874 1.399 . S
C3875 C3876 1.385 . S
C3876 H3862 0.931 . S
C3876 C3875 1.385 . S
C3876 C3877 1.389 . S
C3877 C3876 1.389 . S
C3877 C3878 1.387 . S
C3878 H3863 0.930 . S
C3878 C3873 1.390 . S
C3878 C3877 1.387 . S
H3879 C3891 0.930 . S
H3880 C3893 0.930 . S
H3881 C3894 0.930 . S
H3882 C3898 0.959 . S
H3883 C3898 0.959 . S
H3884 C3898 0.961 . S
H3885 C3899 0.960 . S
H3886 C3899 0.961 . S
H3887 C3899 0.959 . S
H3888 C3902 0.929 . S
H3889 C3903 0.931 . S
H3890 C3905 0.930 . S
C3891 H3879 0.930 . S
C3891 C3892 1.399 . S
C3891 C3896 1.399 . S
C3892 C3891 1.399 . S
C3892 C3893 1.376 . S
C3893 H3880 0.930 . S
C3893 C3892 1.376 . S
C3893 C3894 1.388 . S
C3894 H3881 0.930 . S
C3894 C3893 1.388 . S
C3894 C3895 1.390 . S
C3895 C3894 1.390 . S
C3895 C3896 1.394 . S
C3895 C3901 1.465 . S
C3896 C3891 1.399 . S
C3896 C3895 1.394 . S
C3896 C3897 1.516 . S
C3897 C3896 1.516 . S
C3897 C3898 1.502 . S
C3897 C3899 1.561 . S
C3897 C3900 1.526 . S
C3898 H3882 0.959 . S
C3898 H3883 0.959 . S
C3898 H3884 0.961 . S
C3898 C3897 1.502 . S
C3899 H3885 0.960 . S
C3899 H3886 0.961 . S
C3899 H3887 0.959 . S
C3899 C3897 1.561 . S
C3900 C3897 1.526 . S
C3900 C3901 1.396 . S
C3900 C3905 1.390 . S
C3901 C3895 1.465 . S
C3901 C3900 1.396 . S
C3901 C3902 1.399 . S
C3902 H3888 0.929 . S
C3902 C3901 1.399 . S
C3902 C3903 1.385 . S
C3903 H3889 0.931 . S
C3903 C3902 1.385 . S
C3903 C3904 1.389 . S
C3904 C3903 1.389 . S
C3904 C3905 1.387 . S
C3905 H3890 0.930 . S
C3905 C3900 1.390 . S
C3905 C3904 1.387 . S
H3906 C3918 0.930 . S
H3907 C3920 0.930 . S
H3908 C3921 0.930 . S
H3909 C3925 0.959 . S
H3910 C3925 0.959 . S
H3911 C3925 0.961 . S
H3912 C3926 0.960 . S
H3913 C3926 0.961 . S
H3914 C3926 0.959 . S
H3915 C3929 0.929 . S
H3916 C3930 0.931 . S
H3917 C3932 0.930 . S
C3918 H3906 0.930 . S
C3918 C3919 1.399 . S
C3918 C3923 1.399 . S
C3919 C3918 1.399 . S
C3919 C3920 1.376 . S
C3920 H3907 0.930 . S
C3920 C3919 1.376 . S
C3920 C3921 1.388 . S
C3921 H3908 0.930 . S
C3921 C3920 1.388 . S
C3921 C3922 1.390 . S
C3922 C3921 1.390 . S
C3922 C3923 1.394 . S
C3922 C3928 1.465 . S
C3923 C3918 1.399 . S
C3923 C3922 1.394 . S
C3923 C3924 1.516 . S
C3924 C3923 1.516 . S
C3924 C3925 1.502 . S
C3924 C3926 1.561 . S
C3924 C3927 1.526 . S
C3925 H3909 0.959 . S
C3925 H3910 0.959 . S
C3925 H3911 0.961 . S
C3925 C3924 1.502 . S
C3926 H3912 0.960 . S
C3926 H3913 0.961 . S
C3926 H3914 0.959 . S
C3926 C3924 1.561 . S
C3927 C3924 1.526 . S
C3927 C3928 1.396 . S
C3927 C3932 1.390 . S
C3928 C3922 1.465 . S
C3928 C3927 1.396 . S
C3928 C3929 1.399 . S
C3929 H3915 0.929 . S
C3929 C3928 1.399 . S
C3929 C3930 1.385 . S
C3930 H3916 0.931 . S
C3930 C3929 1.385 . S
C3930 C3931 1.389 . S
C3931 C3930 1.389 . S
C3931 C3932 1.387 . S
C3932 H3917 0.930 . S
C3932 C3927 1.390 . S
C3932 C3931 1.387 . S
H3933 C3945 0.930 . S
H3934 C3947 0.930 . S
H3935 C3948 0.930 . S
H3936 C3952 0.959 . S
H3937 C3952 0.959 . S
H3938 C3952 0.961 . S
H3939 C3953 0.960 . S
H3940 C3953 0.961 . S
H3941 C3953 0.959 . S
H3942 C3956 0.929 . S
H3943 C3957 0.931 . S
H3944 C3959 0.930 . S
C3945 H3933 0.930 . S
C3945 C3946 1.399 . S
C3945 C3950 1.399 . S
C3946 C3945 1.399 . S
C3946 C3947 1.376 . S
C3947 H3934 0.930 . S
C3947 C3946 1.376 . S
C3947 C3948 1.388 . S
C3948 H3935 0.930 . S
C3948 C3947 1.388 . S
C3948 C3949 1.390 . S
C3949 C3948 1.390 . S
C3949 C3950 1.394 . S
C3949 C3955 1.465 . S
C3950 C3945 1.399 . S
C3950 C3949 1.394 . S
C3950 C3951 1.516 . S
C3951 C3950 1.516 . S
C3951 C3952 1.502 . S
C3951 C3953 1.561 . S
C3951 C3954 1.526 . S
C3952 H3936 0.959 . S
C3952 H3937 0.959 . S
C3952 H3938 0.961 . S
C3952 C3951 1.502 . S
C3953 H3939 0.960 . S
C3953 H3940 0.961 . S
C3953 H3941 0.959 . S
C3953 C3951 1.561 . S
C3954 C3951 1.526 . S
C3954 C3955 1.396 . S
C3954 C3959 1.390 . S
C3955 C3949 1.465 . S
C3955 C3954 1.396 . S
C3955 C3956 1.399 . S
C3956 H3942 0.929 . S
C3956 C3955 1.399 . S
C3956 C3957 1.385 . S
C3957 H3943 0.931 . S
C3957 C3956 1.385 . S
C3957 C3958 1.389 . S
C3958 C3957 1.389 . S
C3958 C3959 1.387 . S
C3959 H3944 0.930 . S
C3959 C3954 1.390 . S
C3959 C3958 1.387 . S
H3960 C3972 0.930 . S
H3961 C3974 0.930 . S
H3962 C3975 0.930 . S
H3963 C3979 0.959 . S
H3964 C3979 0.959 . S
H3965 C3979 0.961 . S
H3966 C3980 0.960 . S
H3967 C3980 0.961 . S
H3968 C3980 0.959 . S
H3969 C3983 0.929 . S
H3970 C3984 0.931 . S
H3971 C3986 0.930 . S
C3972 H3960 0.930 . S
C3972 C3973 1.399 . S
C3972 C3977 1.399 . S
C3973 C3972 1.399 . S
C3973 C3974 1.376 . S
C3974 H3961 0.930 . S
C3974 C3973 1.376 . S
C3974 C3975 1.388 . S
C3975 H3962 0.930 . S
C3975 C3974 1.388 . S
C3975 C3976 1.390 . S
C3976 C3975 1.390 . S
C3976 C3977 1.394 . S
C3976 C3982 1.465 . S
C3977 C3972 1.399 . S
C3977 C3976 1.394 . S
C3977 C3978 1.516 . S
C3978 C3977 1.516 . S
C3978 C3979 1.502 . S
C3978 C3980 1.561 . S
C3978 C3981 1.526 . S
C3979 H3963 0.959 . S
C3979 H3964 0.959 . S
C3979 H3965 0.961 . S
C3979 C3978 1.502 . S
C3980 H3966 0.960 . S
C3980 H3967 0.961 . S
C3980 H3968 0.959 . S
C3980 C3978 1.561 . S
C3981 C3978 1.526 . S
C3981 C3982 1.396 . S
C3981 C3986 1.390 . S
C3982 C3976 1.465 . S
C3982 C3981 1.396 . S
C3982 C3983 1.399 . S
C3983 H3969 0.929 . S
C3983 C3982 1.399 . S
C3983 C3984 1.385 . S
C3984 H3970 0.931 . S
C3984 C3983 1.385 . S
C3984 C3985 1.389 . S
C3985 C3984 1.389 . S
C3985 C3986 1.387 . S
C3986 H3971 0.930 . S
C3986 C3981 1.390 . S
C3986 C3985 1.387 . S
H3987 C3999 0.930 . S
H3988 C4001 0.930 . S
H3989 C4002 0.930 . S
H3990 C4006 0.959 . S
H3991 C4006 0.959 . S
H3992 C4006 0.961 . S
H3993 C4007 0.960 . S
H3994 C4007 0.961 . S
H3995 C4007 0.959 . S
H3996 C4010 0.929 . S
H3997 C4011 0.931 . S
H3998 C4013 0.930 . S
C3999 H3987 0.930 . S
C3999 C4000 1.399 . S
C3999 C4004 1.399 . S
C4000 C3999 1.399 . S
C4000 C4001 1.376 . S
C4001 H3988 0.930 . S
C4001 C4000 1.376 . S
C4001 C4002 1.388 . S
C4002 H3989 0.930 . S
C4002 C4001 1.388 . S
C4002 C4003 1.390 . S
C4003 C4002 1.390 . S
C4003 C4004 1.394 . S
C4003 C4009 1.465 . S
C4004 C3999 1.399 . S
C4004 C4003 1.394 . S
C4004 C4005 1.516 . S
C4005 C4004 1.516 . S
C4005 C4006 1.502 . S
C4005 C4007 1.561 . S
C4005 C4008 1.526 . S
C4006 H3990 0.959 . S
C4006 H3991 0.959 . S
C4006 H3992 0.961 . S
C4006 C4005 1.502 . S
C4007 H3993 0.960 . S
C4007 H3994 0.961 . S
C4007 H3995 0.959 . S
C4007 C4005 1.561 . S
C4008 C4005 1.526 . S
C4008 C4009 1.396 . S
C4008 C4013 1.390 . S
C4009 C4003 1.465 . S
C4009 C4008 1.396 . S
C4009 C4010 1.399 . S
C4010 H3996 0.929 . S
C4010 C4009 1.399 . S
C4010 C4011 1.385 . S
C4011 H3997 0.931 . S
C4011 C4010 1.385 . S
C4011 C4012 1.389 . S
C4012 C4011 1.389 . S
C4012 C4013 1.387 . S
C4013 H3998 0.930 . S
C4013 C4008 1.390 . S
C4013 C4012 1.387 . S
H4014 C4026 0.930 . S
H4015 C4028 0.930 . S
H4016 C4029 0.930 . S
H4017 C4033 0.959 . S
H4018 C4033 0.959 . S
H4019 C4033 0.961 . S
H4020 C4034 0.960 . S
H4021 C4034 0.961 . S
H4022 C4034 0.959 . S
H4023 C4037 0.929 . S
H4024 C4038 0.931 . S
H4025 C4040 0.930 . S
C4026 H4014 0.930 . S
C4026 C4027 1.399 . S
C4026 C4031 1.399 . S
C4027 C4026 1.399 . S
C4027 C4028 1.376 . S
C4028 H4015 0.930 . S
C4028 C4027 1.376 . S
C4028 C4029 1.388 . S
C4029 H4016 0.930 . S
C4029 C4028 1.388 . S
C4029 C4030 1.390 . S
C4030 C4029 1.390 . S
C4030 C4031 1.394 . S
C4030 C4036 1.465 . S
C4031 C4026 1.399 . S
C4031 C4030 1.394 . S
C4031 C4032 1.516 . S
C4032 C4031 1.516 . S
C4032 C4033 1.502 . S
C4032 C4034 1.561 . S
C4032 C4035 1.526 . S
C4033 H4017 0.959 . S
C4033 H4018 0.959 . S
C4033 H4019 0.961 . S
C4033 C4032 1.502 . S
C4034 H4020 0.960 . S
C4034 H4021 0.961 . S
C4034 H4022 0.959 . S
C4034 C4032 1.561 . S
C4035 C4032 1.526 . S
C4035 C4036 1.396 . S
C4035 C4040 1.390 . S
C4036 C4030 1.465 . S
C4036 C4035 1.396 . S
C4036 C4037 1.399 . S
C4037 H4023 0.929 . S
C4037 C4036 1.399 . S
C4037 C4038 1.385 . S
C4038 H4024 0.931 . S
C4038 C4037 1.385 . S
C4038 C4039 1.389 . S
C4039 C4038 1.389 . S
C4039 C4040 1.387 . S
C4040 H4025 0.930 . S
C4040 C4035 1.390 . S
C4040 C4039 1.387 . S
H4041 C4053 0.930 . S
H4042 C4055 0.930 . S
H4043 C4056 0.930 . S
H4044 C4060 0.959 . S
H4045 C4060 0.959 . S
H4046 C4060 0.961 . S
H4047 C4061 0.960 . S
H4048 C4061 0.961 . S
H4049 C4061 0.959 . S
H4050 C4064 0.929 . S
H4051 C4065 0.931 . S
H4052 C4067 0.930 . S
C4053 H4041 0.930 . S
C4053 C4054 1.399 . S
C4053 C4058 1.399 . S
C4054 C4053 1.399 . S
C4054 C4055 1.376 . S
C4055 H4042 0.930 . S
C4055 C4054 1.376 . S
C4055 C4056 1.388 . S
C4056 H4043 0.930 . S
C4056 C4055 1.388 . S
C4056 C4057 1.390 . S
C4057 C4056 1.390 . S
C4057 C4058 1.394 . S
C4057 C4063 1.465 . S
C4058 C4053 1.399 . S
C4058 C4057 1.394 . S
C4058 C4059 1.516 . S
C4059 C4058 1.516 . S
C4059 C4060 1.502 . S
C4059 C4061 1.561 . S
C4059 C4062 1.526 . S
C4060 H4044 0.959 . S
C4060 H4045 0.959 . S
C4060 H4046 0.961 . S
C4060 C4059 1.502 . S
C4061 H4047 0.960 . S
C4061 H4048 0.961 . S
C4061 H4049 0.959 . S
C4061 C4059 1.561 . S
C4062 C4059 1.526 . S
C4062 C4063 1.396 . S
C4062 C4067 1.390 . S
C4063 C4057 1.465 . S
C4063 C4062 1.396 . S
C4063 C4064 1.399 . S
C4064 H4050 0.929 . S
C4064 C4063 1.399 . S
C4064 C4065 1.385 . S
C4065 H4051 0.931 . S
C4065 C4064 1.385 . S
C4065 C4066 1.389 . S
C4066 C4065 1.389 . S
C4066 C4067 1.387 . S
C4067 H4052 0.930 . S
C4067 C4062 1.390 . S
C4067 C4066 1.387 . S
H4068 C4080 0.930 . S
H4069 C4082 0.930 . S
H4070 C4083 0.930 . S
H4071 C4087 0.959 . S
H4072 C4087 0.959 . S
H4073 C4087 0.961 . S
H4074 C4088 0.960 . S
H4075 C4088 0.961 . S
H4076 C4088 0.959 . S
H4077 C4091 0.929 . S
H4078 C4092 0.931 . S
H4079 C4094 0.930 . S
C4080 H4068 0.930 . S
C4080 C4081 1.399 . S
C4080 C4085 1.399 . S
C4081 C4080 1.399 . S
C4081 C4082 1.376 . S
C4082 H4069 0.930 . S
C4082 C4081 1.376 . S
C4082 C4083 1.388 . S
C4083 H4070 0.930 . S
C4083 C4082 1.388 . S
C4083 C4084 1.390 . S
C4084 C4083 1.390 . S
C4084 C4085 1.394 . S
C4084 C4090 1.465 . S
C4085 C4080 1.399 . S
C4085 C4084 1.394 . S
C4085 C4086 1.516 . S
C4086 C4085 1.516 . S
C4086 C4087 1.502 . S
C4086 C4088 1.561 . S
C4086 C4089 1.526 . S
C4087 H4071 0.959 . S
C4087 H4072 0.959 . S
C4087 H4073 0.961 . S
C4087 C4086 1.502 . S
C4088 H4074 0.960 . S
C4088 H4075 0.961 . S
C4088 H4076 0.959 . S
C4088 C4086 1.561 . S
C4089 C4086 1.526 . S
C4089 C4090 1.396 . S
C4089 C4094 1.390 . S
C4090 C4084 1.465 . S
C4090 C4089 1.396 . S
C4090 C4091 1.399 . S
C4091 H4077 0.929 . S
C4091 C4090 1.399 . S
C4091 C4092 1.385 . S
C4092 H4078 0.931 . S
C4092 C4091 1.385 . S
C4092 C4093 1.389 . S
C4093 C4092 1.389 . S
C4093 C4094 1.387 . S
C4094 H4079 0.930 . S
C4094 C4089 1.390 . S
C4094 C4093 1.387 . S
H4095 C4107 0.930 . S
H4096 C4109 0.930 . S
H4097 C4110 0.930 . S
H4098 C4114 0.959 . S
H4099 C4114 0.959 . S
H4100 C4114 0.961 . S
H4101 C4115 0.960 . S
H4102 C4115 0.961 . S
H4103 C4115 0.959 . S
H4104 C4118 0.929 . S
H4105 C4119 0.931 . S
H4106 C4121 0.930 . S
C4107 H4095 0.930 . S
C4107 C4108 1.399 . S
C4107 C4112 1.399 . S
C4108 C4107 1.399 . S
C4108 C4109 1.376 . S
C4109 H4096 0.930 . S
C4109 C4108 1.376 . S
C4109 C4110 1.388 . S
C4110 H4097 0.930 . S
C4110 C4109 1.388 . S
C4110 C4111 1.390 . S
C4111 C4110 1.390 . S
C4111 C4112 1.394 . S
C4111 C4117 1.465 . S
C4112 C4107 1.399 . S
C4112 C4111 1.394 . S
C4112 C4113 1.516 . S
C4113 C4112 1.516 . S
C4113 C4114 1.502 . S
C4113 C4115 1.561 . S
C4113 C4116 1.526 . S
C4114 H4098 0.959 . S
C4114 H4099 0.959 . S
C4114 H4100 0.961 . S
C4114 C4113 1.502 . S
C4115 H4101 0.960 . S
C4115 H4102 0.961 . S
C4115 H4103 0.959 . S
C4115 C4113 1.561 . S
C4116 C4113 1.526 . S
C4116 C4117 1.396 . S
C4116 C4121 1.390 . S
C4117 C4111 1.465 . S
C4117 C4116 1.396 . S
C4117 C4118 1.399 . S
C4118 H4104 0.929 . S
C4118 C4117 1.399 . S
C4118 C4119 1.385 . S
C4119 H4105 0.931 . S
C4119 C4118 1.385 . S
C4119 C4120 1.389 . S
C4120 C4119 1.389 . S
C4120 C4121 1.387 . S
C4121 H4106 0.930 . S
C4121 C4116 1.390 . S
C4121 C4120 1.387 . S
H4122 C4134 0.930 . S
H4123 C4136 0.930 . S
H4124 C4137 0.930 . S
H4125 C4141 0.959 . S
H4126 C4141 0.959 . S
H4127 C4141 0.961 . S
H4128 C4142 0.960 . S
H4129 C4142 0.961 . S
H4130 C4142 0.959 . S
H4131 C4145 0.929 . S
H4132 C4146 0.931 . S
H4133 C4148 0.930 . S
C4134 H4122 0.930 . S
C4134 C4135 1.399 . S
C4134 C4139 1.399 . S
C4135 C4134 1.399 . S
C4135 C4136 1.376 . S
C4136 H4123 0.930 . S
C4136 C4135 1.376 . S
C4136 C4137 1.388 . S
C4137 H4124 0.930 . S
C4137 C4136 1.388 . S
C4137 C4138 1.390 . S
C4138 C4137 1.390 . S
C4138 C4139 1.394 . S
C4138 C4144 1.465 . S
C4139 C4134 1.399 . S
C4139 C4138 1.394 . S
C4139 C4140 1.516 . S
C4140 C4139 1.516 . S
C4140 C4141 1.502 . S
C4140 C4142 1.561 . S
C4140 C4143 1.526 . S
C4141 H4125 0.959 . S
C4141 H4126 0.959 . S
C4141 H4127 0.961 . S
C4141 C4140 1.502 . S
C4142 H4128 0.960 . S
C4142 H4129 0.961 . S
C4142 H4130 0.959 . S
C4142 C4140 1.561 . S
C4143 C4140 1.526 . S
C4143 C4144 1.396 . S
C4143 C4148 1.390 . S
C4144 C4138 1.465 . S
C4144 C4143 1.396 . S
C4144 C4145 1.399 . S
C4145 H4131 0.929 . S
C4145 C4144 1.399 . S
C4145 C4146 1.385 . S
C4146 H4132 0.931 . S
C4146 C4145 1.385 . S
C4146 C4147 1.389 . S
C4147 C4146 1.389 . S
C4147 C4148 1.387 . S
C4148 H4133 0.930 . S
C4148 C4143 1.390 . S
C4148 C4147 1.387 . S
H4149 C4161 0.930 . S
H4150 C4163 0.930 . S
H4151 C4164 0.930 . S
H4152 C4168 0.959 . S
H4153 C4168 0.959 . S
H4154 C4168 0.961 . S
H4155 C4169 0.960 . S
H4156 C4169 0.961 . S
H4157 C4169 0.959 . S
H4158 C4172 0.929 . S
H4159 C4173 0.931 . S
H4160 C4175 0.930 . S
C4161 H4149 0.930 . S
C4161 C4162 1.399 . S
C4161 C4166 1.399 . S
C4162 C4161 1.399 . S
C4162 C4163 1.376 . S
C4163 H4150 0.930 . S
C4163 C4162 1.376 . S
C4163 C4164 1.388 . S
C4164 H4151 0.930 . S
C4164 C4163 1.388 . S
C4164 C4165 1.390 . S
C4165 C4164 1.390 . S
C4165 C4166 1.394 . S
C4165 C4171 1.465 . S
C4166 C4161 1.399 . S
C4166 C4165 1.394 . S
C4166 C4167 1.516 . S
C4167 C4166 1.516 . S
C4167 C4168 1.502 . S
C4167 C4169 1.561 . S
C4167 C4170 1.526 . S
C4168 H4152 0.959 . S
C4168 H4153 0.959 . S
C4168 H4154 0.961 . S
C4168 C4167 1.502 . S
C4169 H4155 0.960 . S
C4169 H4156 0.961 . S
C4169 H4157 0.959 . S
C4169 C4167 1.561 . S
C4170 C4167 1.526 . S
C4170 C4171 1.396 . S
C4170 C4175 1.390 . S
C4171 C4165 1.465 . S
C4171 C4170 1.396 . S
C4171 C4172 1.399 . S
C4172 H4158 0.929 . S
C4172 C4171 1.399 . S
C4172 C4173 1.385 . S
C4173 H4159 0.931 . S
C4173 C4172 1.385 . S
C4173 C4174 1.389 . S
C4174 C4173 1.389 . S
C4174 C4175 1.387 . S
C4175 H4160 0.930 . S
C4175 C4170 1.390 . S
C4175 C4174 1.387 . S
H4176 C4188 0.930 . S
H4177 C4190 0.930 . S
H4178 C4191 0.930 . S
H4179 C4195 0.959 . S
H4180 C4195 0.959 . S
H4181 C4195 0.961 . S
H4182 C4196 0.960 . S
H4183 C4196 0.961 . S
H4184 C4196 0.959 . S
H4185 C4199 0.929 . S
H4186 C4200 0.931 . S
H4187 C4202 0.930 . S
C4188 H4176 0.930 . S
C4188 C4189 1.399 . S
C4188 C4193 1.399 . S
C4189 C4188 1.399 . S
C4189 C4190 1.376 . S
C4190 H4177 0.930 . S
C4190 C4189 1.376 . S
C4190 C4191 1.388 . S
C4191 H4178 0.930 . S
C4191 C4190 1.388 . S
C4191 C4192 1.390 . S
C4192 C4191 1.390 . S
C4192 C4193 1.394 . S
C4192 C4198 1.465 . S
C4193 C4188 1.399 . S
C4193 C4192 1.394 . S
C4193 C4194 1.516 . S
C4194 C4193 1.516 . S
C4194 C4195 1.502 . S
C4194 C4196 1.561 . S
C4194 C4197 1.526 . S
C4195 H4179 0.959 . S
C4195 H4180 0.959 . S
C4195 H4181 0.961 . S
C4195 C4194 1.502 . S
C4196 H4182 0.960 . S
C4196 H4183 0.961 . S
C4196 H4184 0.959 . S
C4196 C4194 1.561 . S
C4197 C4194 1.526 . S
C4197 C4198 1.396 . S
C4197 C4202 1.390 . S
C4198 C4192 1.465 . S
C4198 C4197 1.396 . S
C4198 C4199 1.399 . S
C4199 H4185 0.929 . S
C4199 C4198 1.399 . S
C4199 C4200 1.385 . S
C4200 H4186 0.931 . S
C4200 C4199 1.385 . S
C4200 C4201 1.389 . S
C4201 C4200 1.389 . S
C4201 C4202 1.387 . S
C4202 H4187 0.930 . S
C4202 C4197 1.390 . S
C4202 C4201 1.387 . S
H4203 C4215 0.930 . S
H4204 C4217 0.930 . S
H4205 C4218 0.930 . S
H4206 C4222 0.959 . S
H4207 C4222 0.959 . S
H4208 C4222 0.961 . S
H4209 C4223 0.960 . S
H4210 C4223 0.961 . S
H4211 C4223 0.959 . S
H4212 C4226 0.929 . S
H4213 C4227 0.931 . S
H4214 C4229 0.930 . S
C4215 H4203 0.930 . S
C4215 C4216 1.399 . S
C4215 C4220 1.399 . S
C4216 C4215 1.399 . S
C4216 C4217 1.376 . S
C4217 H4204 0.930 . S
C4217 C4216 1.376 . S
C4217 C4218 1.388 . S
C4218 H4205 0.930 . S
C4218 C4217 1.388 . S
C4218 C4219 1.390 . S
C4219 C4218 1.390 . S
C4219 C4220 1.394 . S
C4219 C4225 1.465 . S
C4220 C4215 1.399 . S
C4220 C4219 1.394 . S
C4220 C4221 1.516 . S
C4221 C4220 1.516 . S
C4221 C4222 1.502 . S
C4221 C4223 1.561 . S
C4221 C4224 1.526 . S
C4222 H4206 0.959 . S
C4222 H4207 0.959 . S
C4222 H4208 0.961 . S
C4222 C4221 1.502 . S
C4223 H4209 0.960 . S
C4223 H4210 0.961 . S
C4223 H4211 0.959 . S
C4223 C4221 1.561 . S
C4224 C4221 1.526 . S
C4224 C4225 1.396 . S
C4224 C4229 1.390 . S
C4225 C4219 1.465 . S
C4225 C4224 1.396 . S
C4225 C4226 1.399 . S
C4226 H4212 0.929 . S
C4226 C4225 1.399 . S
C4226 C4227 1.385 . S
C4227 H4213 0.931 . S
C4227 C4226 1.385 . S
C4227 C4228 1.389 . S
C4228 C4227 1.389 . S
C4228 C4229 1.387 . S
C4229 H4214 0.930 . S
C4229 C4224 1.390 . S
C4229 C4228 1.387 . S
H4230 C4242 0.930 . S
H4231 C4244 0.930 . S
H4232 C4245 0.930 . S
H4233 C4249 0.959 . S
H4234 C4249 0.959 . S
H4235 C4249 0.961 . S
H4236 C4250 0.960 . S
H4237 C4250 0.961 . S
H4238 C4250 0.959 . S
H4239 C4253 0.929 . S
H4240 C4254 0.931 . S
H4241 C4256 0.930 . S
C4242 H4230 0.930 . S
C4242 C4243 1.399 . S
C4242 C4247 1.399 . S
C4243 C4242 1.399 . S
C4243 C4244 1.376 . S
C4244 H4231 0.930 . S
C4244 C4243 1.376 . S
C4244 C4245 1.388 . S
C4245 H4232 0.930 . S
C4245 C4244 1.388 . S
C4245 C4246 1.390 . S
C4246 C4245 1.390 . S
C4246 C4247 1.394 . S
C4246 C4252 1.465 . S
C4247 C4242 1.399 . S
C4247 C4246 1.394 . S
C4247 C4248 1.516 . S
C4248 C4247 1.516 . S
C4248 C4249 1.502 . S
C4248 C4250 1.561 . S
C4248 C4251 1.526 . S
C4249 H4233 0.959 . S
C4249 H4234 0.959 . S
C4249 H4235 0.961 . S
C4249 C4248 1.502 . S
C4250 H4236 0.960 . S
C4250 H4237 0.961 . S
C4250 H4238 0.959 . S
C4250 C4248 1.561 . S
C4251 C4248 1.526 . S
C4251 C4252 1.396 . S
C4251 C4256 1.390 . S
C4252 C4246 1.465 . S
C4252 C4251 1.396 . S
C4252 C4253 1.399 . S
C4253 H4239 0.929 . S
C4253 C4252 1.399 . S
C4253 C4254 1.385 . S
C4254 H4240 0.931 . S
C4254 C4253 1.385 . S
C4254 C4255 1.389 . S
C4255 C4254 1.389 . S
C4255 C4256 1.387 . S
C4256 H4241 0.930 . S
C4256 C4251 1.390 . S
C4256 C4255 1.387 . S
H4257 C4269 0.930 . S
H4258 C4271 0.930 . S
H4259 C4272 0.930 . S
H4260 C4276 0.959 . S
H4261 C4276 0.959 . S
H4262 C4276 0.961 . S
H4263 C4277 0.960 . S
H4264 C4277 0.961 . S
H4265 C4277 0.959 . S
H4266 C4280 0.929 . S
H4267 C4281 0.931 . S
H4268 C4283 0.930 . S
C4269 H4257 0.930 . S
C4269 C4270 1.399 . S
C4269 C4274 1.399 . S
C4270 C4269 1.399 . S
C4270 C4271 1.376 . S
C4271 H4258 0.930 . S
C4271 C4270 1.376 . S
C4271 C4272 1.388 . S
C4272 H4259 0.930 . S
C4272 C4271 1.388 . S
C4272 C4273 1.390 . S
C4273 C4272 1.390 . S
C4273 C4274 1.394 . S
C4273 C4279 1.465 . S
C4274 C4269 1.399 . S
C4274 C4273 1.394 . S
C4274 C4275 1.516 . S
C4275 C4274 1.516 . S
C4275 C4276 1.502 . S
C4275 C4277 1.561 . S
C4275 C4278 1.526 . S
C4276 H4260 0.959 . S
C4276 H4261 0.959 . S
C4276 H4262 0.961 . S
C4276 C4275 1.502 . S
C4277 H4263 0.960 . S
C4277 H4264 0.961 . S
C4277 H4265 0.959 . S
C4277 C4275 1.561 . S
C4278 C4275 1.526 . S
C4278 C4279 1.396 . S
C4278 C4283 1.390 . S
C4279 C4273 1.465 . S
C4279 C4278 1.396 . S
C4279 C4280 1.399 . S
C4280 H4266 0.929 . S
C4280 C4279 1.399 . S
C4280 C4281 1.385 . S
C4281 H4267 0.931 . S
C4281 C4280 1.385 . S
C4281 C4282 1.389 . S
C4282 C4281 1.389 . S
C4282 C4283 1.387 . S
C4283 H4268 0.930 . S
C4283 C4278 1.390 . S
C4283 C4282 1.387 . S
H4284 C4296 0.930 . S
H4285 C4298 0.930 . S
H4286 C4299 0.930 . S
H4287 C4303 0.959 . S
H4288 C4303 0.959 . S
H4289 C4303 0.961 . S
H4290 C4304 0.960 . S
H4291 C4304 0.961 . S
H4292 C4304 0.959 . S
H4293 C4307 0.929 . S
H4294 C4308 0.931 . S
H4295 C4310 0.930 . S
C4296 H4284 0.930 . S
C4296 C4297 1.399 . S
C4296 C4301 1.399 . S
C4297 C4296 1.399 . S
C4297 C4298 1.376 . S
C4298 H4285 0.930 . S
C4298 C4297 1.376 . S
C4298 C4299 1.388 . S
C4299 H4286 0.930 . S
C4299 C4298 1.388 . S
C4299 C4300 1.390 . S
C4300 C4299 1.390 . S
C4300 C4301 1.394 . S
C4300 C4306 1.465 . S
C4301 C4296 1.399 . S
C4301 C4300 1.394 . S
C4301 C4302 1.516 . S
C4302 C4301 1.516 . S
C4302 C4303 1.502 . S
C4302 C4304 1.561 . S
C4302 C4305 1.526 . S
C4303 H4287 0.959 . S
C4303 H4288 0.959 . S
C4303 H4289 0.961 . S
C4303 C4302 1.502 . S
C4304 H4290 0.960 . S
C4304 H4291 0.961 . S
C4304 H4292 0.959 . S
C4304 C4302 1.561 . S
C4305 C4302 1.526 . S
C4305 C4306 1.396 . S
C4305 C4310 1.390 . S
C4306 C4300 1.465 . S
C4306 C4305 1.396 . S
C4306 C4307 1.399 . S
C4307 H4293 0.929 . S
C4307 C4306 1.399 . S
C4307 C4308 1.385 . S
C4308 H4294 0.931 . S
C4308 C4307 1.385 . S
C4308 C4309 1.389 . S
C4309 C4308 1.389 . S
C4309 C4310 1.387 . S
C4310 H4295 0.930 . S
C4310 C4305 1.390 . S
C4310 C4309 1.387 . S
H4311 C4323 0.930 . S
H4312 C4325 0.930 . S
H4313 C4326 0.930 . S
H4314 C4330 0.959 . S
H4315 C4330 0.959 . S
H4316 C4330 0.961 . S
H4317 C4331 0.960 . S
H4318 C4331 0.961 . S
H4319 C4331 0.959 . S
H4320 C4334 0.929 . S
H4321 C4335 0.931 . S
H4322 C4337 0.930 . S
C4323 H4311 0.930 . S
C4323 C4324 1.399 . S
C4323 C4328 1.399 . S
C4324 C4323 1.399 . S
C4324 C4325 1.376 . S
C4325 H4312 0.930 . S
C4325 C4324 1.376 . S
C4325 C4326 1.388 . S
C4326 H4313 0.930 . S
C4326 C4325 1.388 . S
C4326 C4327 1.390 . S
C4327 C4326 1.390 . S
C4327 C4328 1.394 . S
C4327 C4333 1.465 . S
C4328 C4323 1.399 . S
C4328 C4327 1.394 . S
C4328 C4329 1.516 . S
C4329 C4328 1.516 . S
C4329 C4330 1.502 . S
C4329 C4331 1.561 . S
C4329 C4332 1.526 . S
C4330 H4314 0.959 . S
C4330 H4315 0.959 . S
C4330 H4316 0.961 . S
C4330 C4329 1.502 . S
C4331 H4317 0.960 . S
C4331 H4318 0.961 . S
C4331 H4319 0.959 . S
C4331 C4329 1.561 . S
C4332 C4329 1.526 . S
C4332 C4333 1.396 . S
C4332 C4337 1.390 . S
C4333 C4327 1.465 . S
C4333 C4332 1.396 . S
C4333 C4334 1.399 . S
C4334 H4320 0.929 . S
C4334 C4333 1.399 . S
C4334 C4335 1.385 . S
C4335 H4321 0.931 . S
C4335 C4334 1.385 . S
C4335 C4336 1.389 . S
C4336 C4335 1.389 . S
C4336 C4337 1.387 . S
C4337 H4322 0.930 . S
C4337 C4332 1.390 . S
C4337 C4336 1.387 . S
H4338 C4350 0.930 . S
H4339 C4352 0.930 . S
H4340 C4353 0.930 . S
H4341 C4357 0.959 . S
H4342 C4357 0.959 . S
H4343 C4357 0.961 . S
H4344 C4358 0.960 . S
H4345 C4358 0.961 . S
H4346 C4358 0.959 . S
H4347 C4361 0.929 . S
H4348 C4362 0.931 . S
H4349 C4364 0.930 . S
C4350 H4338 0.930 . S
C4350 C4351 1.399 . S
C4350 C4355 1.399 . S
C4351 C4350 1.399 . S
C4351 C4352 1.376 . S
C4352 H4339 0.930 . S
C4352 C4351 1.376 . S
C4352 C4353 1.388 . S
C4353 H4340 0.930 . S
C4353 C4352 1.388 . S
C4353 C4354 1.390 . S
C4354 C4353 1.390 . S
C4354 C4355 1.394 . S
C4354 C4360 1.465 . S
C4355 C4350 1.399 . S
C4355 C4354 1.394 . S
C4355 C4356 1.516 . S
C4356 C4355 1.516 . S
C4356 C4357 1.502 . S
C4356 C4358 1.561 . S
C4356 C4359 1.526 . S
C4357 H4341 0.959 . S
C4357 H4342 0.959 . S
C4357 H4343 0.961 . S
C4357 C4356 1.502 . S
C4358 H4344 0.960 . S
C4358 H4345 0.961 . S
C4358 H4346 0.959 . S
C4358 C4356 1.561 . S
C4359 C4356 1.526 . S
C4359 C4360 1.396 . S
C4359 C4364 1.390 . S
C4360 C4354 1.465 . S
C4360 C4359 1.396 . S
C4360 C4361 1.399 . S
C4361 H4347 0.929 . S
C4361 C4360 1.399 . S
C4361 C4362 1.385 . S
C4362 H4348 0.931 . S
C4362 C4361 1.385 . S
C4362 C4363 1.389 . S
C4363 C4362 1.389 . S
C4363 C4364 1.387 . S
C4364 H4349 0.930 . S
C4364 C4359 1.390 . S
C4364 C4363 1.387 . S
H4365 C4377 0.930 . S
H4366 C4379 0.930 . S
H4367 C4380 0.930 . S
H4368 C4384 0.959 . S
H4369 C4384 0.959 . S
H4370 C4384 0.961 . S
H4371 C4385 0.960 . S
H4372 C4385 0.961 . S
H4373 C4385 0.959 . S
H4374 C4388 0.929 . S
H4375 C4389 0.931 . S
H4376 C4391 0.930 . S
C4377 H4365 0.930 . S
C4377 C4378 1.399 . S
C4377 C4382 1.399 . S
C4378 C4377 1.399 . S
C4378 C4379 1.376 . S
C4379 H4366 0.930 . S
C4379 C4378 1.376 . S
C4379 C4380 1.388 . S
C4380 H4367 0.930 . S
C4380 C4379 1.388 . S
C4380 C4381 1.390 . S
C4381 C4380 1.390 . S
C4381 C4382 1.394 . S
C4381 C4387 1.465 . S
C4382 C4377 1.399 . S
C4382 C4381 1.394 . S
C4382 C4383 1.516 . S
C4383 C4382 1.516 . S
C4383 C4384 1.502 . S
C4383 C4385 1.561 . S
C4383 C4386 1.526 . S
C4384 H4368 0.959 . S
C4384 H4369 0.959 . S
C4384 H4370 0.961 . S
C4384 C4383 1.502 . S
C4385 H4371 0.960 . S
C4385 H4372 0.961 . S
C4385 H4373 0.959 . S
C4385 C4383 1.561 . S
C4386 C4383 1.526 . S
C4386 C4387 1.396 . S
C4386 C4391 1.390 . S
C4387 C4381 1.465 . S
C4387 C4386 1.396 . S
C4387 C4388 1.399 . S
C4388 H4374 0.929 . S
C4388 C4387 1.399 . S
C4388 C4389 1.385 . S
C4389 H4375 0.931 . S
C4389 C4388 1.385 . S
C4389 C4390 1.389 . S
C4390 C4389 1.389 . S
C4390 C4391 1.387 . S
C4391 H4376 0.930 . S
C4391 C4386 1.390 . S
C4391 C4390 1.387 . S
H4392 C4404 0.930 . S
H4393 C4406 0.930 . S
H4394 C4407 0.930 . S
H4395 C4411 0.959 . S
H4396 C4411 0.959 . S
H4397 C4411 0.961 . S
H4398 C4412 0.960 . S
H4399 C4412 0.961 . S
H4400 C4412 0.959 . S
H4401 C4415 0.929 . S
H4402 C4416 0.931 . S
H4403 C4418 0.930 . S
C4404 H4392 0.930 . S
C4404 C4405 1.399 . S
C4404 C4409 1.399 . S
C4405 C4404 1.399 . S
C4405 C4406 1.376 . S
C4406 H4393 0.930 . S
C4406 C4405 1.376 . S
C4406 C4407 1.388 . S
C4407 H4394 0.930 . S
C4407 C4406 1.388 . S
C4407 C4408 1.390 . S
C4408 C4407 1.390 . S
C4408 C4409 1.394 . S
C4408 C4414 1.465 . S
C4409 C4404 1.399 . S
C4409 C4408 1.394 . S
C4409 C4410 1.516 . S
C4410 C4409 1.516 . S
C4410 C4411 1.502 . S
C4410 C4412 1.561 . S
C4410 C4413 1.526 . S
C4411 H4395 0.959 . S
C4411 H4396 0.959 . S
C4411 H4397 0.961 . S
C4411 C4410 1.502 . S
C4412 H4398 0.960 . S
C4412 H4399 0.961 . S
C4412 H4400 0.959 . S
C4412 C4410 1.561 . S
C4413 C4410 1.526 . S
C4413 C4414 1.396 . S
C4413 C4418 1.390 . S
C4414 C4408 1.465 . S
C4414 C4413 1.396 . S
C4414 C4415 1.399 . S
C4415 H4401 0.929 . S
C4415 C4414 1.399 . S
C4415 C4416 1.385 . S
C4416 H4402 0.931 . S
C4416 C4415 1.385 . S
C4416 C4417 1.389 . S
C4417 C4416 1.389 . S
C4417 C4418 1.387 . S
C4418 H4403 0.930 . S
C4418 C4413 1.390 . S
C4418 C4417 1.387 . S
H4419 C4431 0.930 . S
H4420 C4433 0.930 . S
H4421 C4434 0.930 . S
H4422 C4438 0.959 . S
H4423 C4438 0.959 . S
H4424 C4438 0.961 . S
H4425 C4439 0.960 . S
H4426 C4439 0.961 . S
H4427 C4439 0.959 . S
H4428 C4442 0.929 . S
H4429 C4443 0.931 . S
H4430 C4445 0.930 . S
C4431 H4419 0.930 . S
C4431 C4432 1.399 . S
C4431 C4436 1.399 . S
C4432 C4431 1.399 . S
C4432 C4433 1.376 . S
C4433 H4420 0.930 . S
C4433 C4432 1.376 . S
C4433 C4434 1.388 . S
C4434 H4421 0.930 . S
C4434 C4433 1.388 . S
C4434 C4435 1.390 . S
C4435 C4434 1.390 . S
C4435 C4436 1.394 . S
C4435 C4441 1.465 . S
C4436 C4431 1.399 . S
C4436 C4435 1.394 . S
C4436 C4437 1.516 . S
C4437 C4436 1.516 . S
C4437 C4438 1.502 . S
C4437 C4439 1.561 . S
C4437 C4440 1.526 . S
C4438 H4422 0.959 . S
C4438 H4423 0.959 . S
C4438 H4424 0.961 . S
C4438 C4437 1.502 . S
C4439 H4425 0.960 . S
C4439 H4426 0.961 . S
C4439 H4427 0.959 . S
C4439 C4437 1.561 . S
C4440 C4437 1.526 . S
C4440 C4441 1.396 . S
C4440 C4445 1.390 . S
C4441 C4435 1.465 . S
C4441 C4440 1.396 . S
C4441 C4442 1.399 . S
C4442 H4428 0.929 . S
C4442 C4441 1.399 . S
C4442 C4443 1.385 . S
C4443 H4429 0.931 . S
C4443 C4442 1.385 . S
C4443 C4444 1.389 . S
C4444 C4443 1.389 . S
C4444 C4445 1.387 . S
C4445 H4430 0.930 . S
C4445 C4440 1.390 . S
C4445 C4444 1.387 . S
H4446 C4458 0.930 . S
H4447 C4460 0.930 . S
H4448 C4461 0.930 . S
H4449 C4465 0.959 . S
H4450 C4465 0.959 . S
H4451 C4465 0.961 . S
H4452 C4466 0.960 . S
H4453 C4466 0.961 . S
H4454 C4466 0.959 . S
H4455 C4469 0.929 . S
H4456 C4470 0.931 . S
H4457 C4472 0.930 . S
C4458 H4446 0.930 . S
C4458 C4459 1.399 . S
C4458 C4463 1.399 . S
C4459 C4458 1.399 . S
C4459 C4460 1.376 . S
C4460 H4447 0.930 . S
C4460 C4459 1.376 . S
C4460 C4461 1.388 . S
C4461 H4448 0.930 . S
C4461 C4460 1.388 . S
C4461 C4462 1.390 . S
C4462 C4461 1.390 . S
C4462 C4463 1.394 . S
C4462 C4468 1.465 . S
C4463 C4458 1.399 . S
C4463 C4462 1.394 . S
C4463 C4464 1.516 . S
C4464 C4463 1.516 . S
C4464 C4465 1.502 . S
C4464 C4466 1.561 . S
C4464 C4467 1.526 . S
C4465 H4449 0.959 . S
C4465 H4450 0.959 . S
C4465 H4451 0.961 . S
C4465 C4464 1.502 . S
C4466 H4452 0.960 . S
C4466 H4453 0.961 . S
C4466 H4454 0.959 . S
C4466 C4464 1.561 . S
C4467 C4464 1.526 . S
C4467 C4468 1.396 . S
C4467 C4472 1.390 . S
C4468 C4462 1.465 . S
C4468 C4467 1.396 . S
C4468 C4469 1.399 . S
C4469 H4455 0.929 . S
C4469 C4468 1.399 . S
C4469 C4470 1.385 . S
C4470 H4456 0.931 . S
C4470 C4469 1.385 . S
C4470 C4471 1.389 . S
C4471 C4470 1.389 . S
C4471 C4472 1.387 . S
C4472 H4457 0.930 . S
C4472 C4467 1.390 . S
C4472 C4471 1.387 . S
H4473 C4485 0.930 . S
H4474 C4487 0.930 . S
H4475 C4488 0.930 . S
H4476 C4492 0.959 . S
H4477 C4492 0.959 . S
H4478 C4492 0.961 . S
H4479 C4493 0.960 . S
H4480 C4493 0.961 . S
H4481 C4493 0.959 . S
H4482 C4496 0.929 . S
H4483 C4497 0.931 . S
H4484 C4499 0.930 . S
C4485 H4473 0.930 . S
C4485 C4486 1.399 . S
C4485 C4490 1.399 . S
C4486 C4485 1.399 . S
C4486 C4487 1.376 . S
C4487 H4474 0.930 . S
C4487 C4486 1.376 . S
C4487 C4488 1.388 . S
C4488 H4475 0.930 . S
C4488 C4487 1.388 . S
C4488 C4489 1.390 . S
C4489 C4488 1.390 . S
C4489 C4490 1.394 . S
C4489 C4495 1.465 . S
C4490 C4485 1.399 . S
C4490 C4489 1.394 . S
C4490 C4491 1.516 . S
C4491 C4490 1.516 . S
C4491 C4492 1.502 . S
C4491 C4493 1.561 . S
C4491 C4494 1.526 . S
C4492 H4476 0.959 . S
C4492 H4477 0.959 . S
C4492 H4478 0.961 . S
C4492 C4491 1.502 . S
C4493 H4479 0.960 . S
C4493 H4480 0.961 . S
C4493 H4481 0.959 . S
C4493 C4491 1.561 . S
C4494 C4491 1.526 . S
C4494 C4495 1.396 . S
C4494 C4499 1.390 . S
C4495 C4489 1.465 . S
C4495 C4494 1.396 . S
C4495 C4496 1.399 . S
C4496 H4482 0.929 . S
C4496 C4495 1.399 . S
C4496 C4497 1.385 . S
C4497 H4483 0.931 . S
C4497 C4496 1.385 . S
C4497 C4498 1.389 . S
C4498 C4497 1.389 . S
C4498 C4499 1.387 . S
C4499 H4484 0.930 . S
C4499 C4494 1.390 . S
C4499 C4498 1.387 . S
H4500 C4512 0.930 . S
H4501 C4514 0.930 . S
H4502 C4515 0.930 . S
H4503 C4519 0.959 . S
H4504 C4519 0.959 . S
H4505 C4519 0.961 . S
H4506 C4520 0.960 . S
H4507 C4520 0.961 . S
H4508 C4520 0.959 . S
H4509 C4523 0.929 . S
H4510 C4524 0.931 . S
H4511 C4526 0.930 . S
C4512 H4500 0.930 . S
C4512 C4513 1.399 . S
C4512 C4517 1.399 . S
C4513 C4512 1.399 . S
C4513 C4514 1.376 . S
C4514 H4501 0.930 . S
C4514 C4513 1.376 . S
C4514 C4515 1.388 . S
C4515 H4502 0.930 . S
C4515 C4514 1.388 . S
C4515 C4516 1.390 . S
C4516 C4515 1.390 . S
C4516 C4517 1.394 . S
C4516 C4522 1.465 . S
C4517 C4512 1.399 . S
C4517 C4516 1.394 . S
C4517 C4518 1.516 . S
C4518 C4517 1.516 . S
C4518 C4519 1.502 . S
C4518 C4520 1.561 . S
C4518 C4521 1.526 . S
C4519 H4503 0.959 . S
C4519 H4504 0.959 . S
C4519 H4505 0.961 . S
C4519 C4518 1.502 . S
C4520 H4506 0.960 . S
C4520 H4507 0.961 . S
C4520 H4508 0.959 . S
C4520 C4518 1.561 . S
C4521 C4518 1.526 . S
C4521 C4522 1.396 . S
C4521 C4526 1.390 . S
C4522 C4516 1.465 . S
C4522 C4521 1.396 . S
C4522 C4523 1.399 . S
C4523 H4509 0.929 . S
C4523 C4522 1.399 . S
C4523 C4524 1.385 . S
C4524 H4510 0.931 . S
C4524 C4523 1.385 . S
C4524 C4525 1.389 . S
C4525 C4524 1.389 . S
C4525 C4526 1.387 . S
C4526 H4511 0.930 . S
C4526 C4521 1.390 . S
C4526 C4525 1.387 . S
H4527 C4539 0.930 . S
H4528 C4541 0.930 . S
H4529 C4542 0.930 . S
H4530 C4546 0.959 . S
H4531 C4546 0.959 . S
H4532 C4546 0.961 . S
H4533 C4547 0.960 . S
H4534 C4547 0.961 . S
H4535 C4547 0.959 . S
H4536 C4550 0.929 . S
H4537 C4551 0.931 . S
H4538 C4553 0.930 . S
C4539 H4527 0.930 . S
C4539 C4540 1.399 . S
C4539 C4544 1.399 . S
C4540 C4539 1.399 . S
C4540 C4541 1.376 . S
C4541 H4528 0.930 . S
C4541 C4540 1.376 . S
C4541 C4542 1.388 . S
C4542 H4529 0.930 . S
C4542 C4541 1.388 . S
C4542 C4543 1.390 . S
C4543 C4542 1.390 . S
C4543 C4544 1.394 . S
C4543 C4549 1.465 . S
C4544 C4539 1.399 . S
C4544 C4543 1.394 . S
C4544 C4545 1.516 . S
C4545 C4544 1.516 . S
C4545 C4546 1.502 . S
C4545 C4547 1.561 . S
C4545 C4548 1.526 . S
C4546 H4530 0.959 . S
C4546 H4531 0.959 . S
C4546 H4532 0.961 . S
C4546 C4545 1.502 . S
C4547 H4533 0.960 . S
C4547 H4534 0.961 . S
C4547 H4535 0.959 . S
C4547 C4545 1.561 . S
C4548 C4545 1.526 . S
C4548 C4549 1.396 . S
C4548 C4553 1.390 . S
C4549 C4543 1.465 . S
C4549 C4548 1.396 . S
C4549 C4550 1.399 . S
C4550 H4536 0.929 . S
C4550 C4549 1.399 . S
C4550 C4551 1.385 . S
C4551 H4537 0.931 . S
C4551 C4550 1.385 . S
C4551 C4552 1.389 . S
C4552 C4551 1.389 . S
C4552 C4553 1.387 . S
C4553 H4538 0.930 . S
C4553 C4548 1.390 . S
C4553 C4552 1.387 . S
H4554 C4566 0.930 . S
H4555 C4568 0.930 . S
H4556 C4569 0.930 . S
H4557 C4573 0.959 . S
H4558 C4573 0.959 . S
H4559 C4573 0.961 . S
H4560 C4574 0.960 . S
H4561 C4574 0.961 . S
H4562 C4574 0.959 . S
H4563 C4577 0.929 . S
H4564 C4578 0.931 . S
H4565 C4580 0.930 . S
C4566 H4554 0.930 . S
C4566 C4567 1.399 . S
C4566 C4571 1.399 . S
C4567 C4566 1.399 . S
C4567 C4568 1.376 . S
C4568 H4555 0.930 . S
C4568 C4567 1.376 . S
C4568 C4569 1.388 . S
C4569 H4556 0.930 . S
C4569 C4568 1.388 . S
C4569 C4570 1.390 . S
C4570 C4569 1.390 . S
C4570 C4571 1.394 . S
C4570 C4576 1.465 . S
C4571 C4566 1.399 . S
C4571 C4570 1.394 . S
C4571 C4572 1.516 . S
C4572 C4571 1.516 . S
C4572 C4573 1.502 . S
C4572 C4574 1.561 . S
C4572 C4575 1.526 . S
C4573 H4557 0.959 . S
C4573 H4558 0.959 . S
C4573 H4559 0.961 . S
C4573 C4572 1.502 . S
C4574 H4560 0.960 . S
C4574 H4561 0.961 . S
C4574 H4562 0.959 . S
C4574 C4572 1.561 . S
C4575 C4572 1.526 . S
C4575 C4576 1.396 . S
C4575 C4580 1.390 . S
C4576 C4570 1.465 . S
C4576 C4575 1.396 . S
C4576 C4577 1.399 . S
C4577 H4563 0.929 . S
C4577 C4576 1.399 . S
C4577 C4578 1.385 . S
C4578 H4564 0.931 . S
C4578 C4577 1.385 . S
C4578 C4579 1.389 . S
C4579 C4578 1.389 . S
C4579 C4580 1.387 . S
C4580 H4565 0.930 . S
C4580 C4575 1.390 . S
C4580 C4579 1.387 . S
H4581 C4593 0.930 . S
H4582 C4595 0.930 . S
H4583 C4596 0.930 . S
H4584 C4600 0.959 . S
H4585 C4600 0.959 . S
H4586 C4600 0.961 . S
H4587 C4601 0.960 . S
H4588 C4601 0.961 . S
H4589 C4601 0.959 . S
H4590 C4604 0.929 . S
H4591 C4605 0.931 . S
H4592 C4607 0.930 . S
C4593 H4581 0.930 . S
C4593 C4594 1.399 . S
C4593 C4598 1.399 . S
C4594 C4593 1.399 . S
C4594 C4595 1.376 . S
C4595 H4582 0.930 . S
C4595 C4594 1.376 . S
C4595 C4596 1.388 . S
C4596 H4583 0.930 . S
C4596 C4595 1.388 . S
C4596 C4597 1.390 . S
C4597 C4596 1.390 . S
C4597 C4598 1.394 . S
C4597 C4603 1.465 . S
C4598 C4593 1.399 . S
C4598 C4597 1.394 . S
C4598 C4599 1.516 . S
C4599 C4598 1.516 . S
C4599 C4600 1.502 . S
C4599 C4601 1.561 . S
C4599 C4602 1.526 . S
C4600 H4584 0.959 . S
C4600 H4585 0.959 . S
C4600 H4586 0.961 . S
C4600 C4599 1.502 . S
C4601 H4587 0.960 . S
C4601 H4588 0.961 . S
C4601 H4589 0.959 . S
C4601 C4599 1.561 . S
C4602 C4599 1.526 . S
C4602 C4603 1.396 . S
C4602 C4607 1.390 . S
C4603 C4597 1.465 . S
C4603 C4602 1.396 . S
C4603 C4604 1.399 . S
C4604 H4590 0.929 . S
C4604 C4603 1.399 . S
C4604 C4605 1.385 . S
C4605 H4591 0.931 . S
C4605 C4604 1.385 . S
C4605 C4606 1.389 . S
C4606 C4605 1.389 . S
C4606 C4607 1.387 . S
C4607 H4592 0.930 . S
C4607 C4602 1.390 . S
C4607 C4606 1.387 . S
H4608 C4620 0.930 . S
H4609 C4622 0.930 . S
H4610 C4623 0.930 . S
H4611 C4627 0.959 . S
H4612 C4627 0.959 . S
H4613 C4627 0.961 . S
H4614 C4628 0.960 . S
H4615 C4628 0.961 . S
H4616 C4628 0.959 . S
H4617 C4631 0.929 . S
H4618 C4632 0.931 . S
H4619 C4634 0.930 . S
C4620 H4608 0.930 . S
C4620 C4621 1.399 . S
C4620 C4625 1.399 . S
C4621 C4620 1.399 . S
C4621 C4622 1.376 . S
C4622 H4609 0.930 . S
C4622 C4621 1.376 . S
C4622 C4623 1.388 . S
C4623 H4610 0.930 . S
C4623 C4622 1.388 . S
C4623 C4624 1.390 . S
C4624 C4623 1.390 . S
C4624 C4625 1.394 . S
C4624 C4630 1.465 . S
C4625 C4620 1.399 . S
C4625 C4624 1.394 . S
C4625 C4626 1.516 . S
C4626 C4625 1.516 . S
C4626 C4627 1.502 . S
C4626 C4628 1.561 . S
C4626 C4629 1.526 . S
C4627 H4611 0.959 . S
C4627 H4612 0.959 . S
C4627 H4613 0.961 . S
C4627 C4626 1.502 . S
C4628 H4614 0.960 . S
C4628 H4615 0.961 . S
C4628 H4616 0.959 . S
C4628 C4626 1.561 . S
C4629 C4626 1.526 . S
C4629 C4630 1.396 . S
C4629 C4634 1.390 . S
C4630 C4624 1.465 . S
C4630 C4629 1.396 . S
C4630 C4631 1.399 . S
C4631 H4617 0.929 . S
C4631 C4630 1.399 . S
C4631 C4632 1.385 . S
C4632 H4618 0.931 . S
C4632 C4631 1.385 . S
C4632 C4633 1.389 . S
C4633 C4632 1.389 . S
C4633 C4634 1.387 . S
C4634 H4619 0.930 . S
C4634 C4629 1.390 . S
C4634 C4633 1.387 . S
H4635 C4647 0.930 . S
H4636 C4649 0.930 . S
H4637 C4650 0.930 . S
H4638 C4654 0.959 . S
H4639 C4654 0.959 . S
H4640 C4654 0.961 . S
H4641 C4655 0.960 . S
H4642 C4655 0.961 . S
H4643 C4655 0.959 . S
H4644 C4658 0.929 . S
H4645 C4659 0.931 . S
H4646 C4661 0.930 . S
C4647 H4635 0.930 . S
C4647 C4648 1.399 . S
C4647 C4652 1.399 . S
C4648 C4647 1.399 . S
C4648 C4649 1.376 . S
C4649 H4636 0.930 . S
C4649 C4648 1.376 . S
C4649 C4650 1.388 . S
C4650 H4637 0.930 . S
C4650 C4649 1.388 . S
C4650 C4651 1.390 . S
C4651 C4650 1.390 . S
C4651 C4652 1.394 . S
C4651 C4657 1.465 . S
C4652 C4647 1.399 . S
C4652 C4651 1.394 . S
C4652 C4653 1.516 . S
C4653 C4652 1.516 . S
C4653 C4654 1.502 . S
C4653 C4655 1.561 . S
C4653 C4656 1.526 . S
C4654 H4638 0.959 . S
C4654 H4639 0.959 . S
C4654 H4640 0.961 . S
C4654 C4653 1.502 . S
C4655 H4641 0.960 . S
C4655 H4642 0.961 . S
C4655 H4643 0.959 . S
C4655 C4653 1.561 . S
C4656 C4653 1.526 . S
C4656 C4657 1.396 . S
C4656 C4661 1.390 . S
C4657 C4651 1.465 . S
C4657 C4656 1.396 . S
C4657 C4658 1.399 . S
C4658 H4644 0.929 . S
C4658 C4657 1.399 . S
C4658 C4659 1.385 . S
C4659 H4645 0.931 . S
C4659 C4658 1.385 . S
C4659 C4660 1.389 . S
C4660 C4659 1.389 . S
C4660 C4661 1.387 . S
C4661 H4646 0.930 . S
C4661 C4656 1.390 . S
C4661 C4660 1.387 . S
H4662 C4674 0.930 . S
H4663 C4676 0.930 . S
H4664 C4677 0.930 . S
H4665 C4681 0.959 . S
H4666 C4681 0.959 . S
H4667 C4681 0.961 . S
H4668 C4682 0.960 . S
H4669 C4682 0.961 . S
H4670 C4682 0.959 . S
H4671 C4685 0.929 . S
H4672 C4686 0.931 . S
H4673 C4688 0.930 . S
C4674 H4662 0.930 . S
C4674 C4675 1.399 . S
C4674 C4679 1.399 . S
C4675 C4674 1.399 . S
C4675 C4676 1.376 . S
C4676 H4663 0.930 . S
C4676 C4675 1.376 . S
C4676 C4677 1.388 . S
C4677 H4664 0.930 . S
C4677 C4676 1.388 . S
C4677 C4678 1.390 . S
C4678 C4677 1.390 . S
C4678 C4679 1.394 . S
C4678 C4684 1.465 . S
C4679 C4674 1.399 . S
C4679 C4678 1.394 . S
C4679 C4680 1.516 . S
C4680 C4679 1.516 . S
C4680 C4681 1.502 . S
C4680 C4682 1.561 . S
C4680 C4683 1.526 . S
C4681 H4665 0.959 . S
C4681 H4666 0.959 . S
C4681 H4667 0.961 . S
C4681 C4680 1.502 . S
C4682 H4668 0.960 . S
C4682 H4669 0.961 . S
C4682 H4670 0.959 . S
C4682 C4680 1.561 . S
C4683 C4680 1.526 . S
C4683 C4684 1.396 . S
C4683 C4688 1.390 . S
C4684 C4678 1.465 . S
C4684 C4683 1.396 . S
C4684 C4685 1.399 . S
C4685 H4671 0.929 . S
C4685 C4684 1.399 . S
C4685 C4686 1.385 . S
C4686 H4672 0.931 . S
C4686 C4685 1.385 . S
C4686 C4687 1.389 . S
C4687 C4686 1.389 . S
C4687 C4688 1.387 . S
C4688 H4673 0.930 . S
C4688 C4683 1.390 . S
C4688 C4687 1.387 . S
H4689 C4701 0.930 . S
H4690 C4703 0.930 . S
H4691 C4704 0.930 . S
H4692 C4708 0.959 . S
H4693 C4708 0.959 . S
H4694 C4708 0.961 . S
H4695 C4709 0.960 . S
H4696 C4709 0.961 . S
H4697 C4709 0.959 . S
H4698 C4712 0.929 . S
H4699 C4713 0.931 . S
H4700 C4715 0.930 . S
C4701 H4689 0.930 . S
C4701 C4702 1.399 . S
C4701 C4706 1.399 . S
C4702 C4701 1.399 . S
C4702 C4703 1.376 . S
C4703 H4690 0.930 . S
C4703 C4702 1.376 . S
C4703 C4704 1.388 . S
C4704 H4691 0.930 . S
C4704 C4703 1.388 . S
C4704 C4705 1.390 . S
C4705 C4704 1.390 . S
C4705 C4706 1.394 . S
C4705 C4711 1.465 . S
C4706 C4701 1.399 . S
C4706 C4705 1.394 . S
C4706 C4707 1.516 . S
C4707 C4706 1.516 . S
C4707 C4708 1.502 . S
C4707 C4709 1.561 . S
C4707 C4710 1.526 . S
C4708 H4692 0.959 . S
C4708 H4693 0.959 . S
C4708 H4694 0.961 . S
C4708 C4707 1.502 . S
C4709 H4695 0.960 . S
C4709 H4696 0.961 . S
C4709 H4697 0.959 . S
C4709 C4707 1.561 . S
C4710 C4707 1.526 . S
C4710 C4711 1.396 . S
C4710 C4715 1.390 . S
C4711 C4705 1.465 . S
C4711 C4710 1.396 . S
C4711 C4712 1.399 . S
C4712 H4698 0.929 . S
C4712 C4711 1.399 . S
C4712 C4713 1.385 . S
C4713 H4699 0.931 . S
C4713 C4712 1.385 . S
C4713 C4714 1.389 . S
C4714 C4713 1.389 . S
C4714 C4715 1.387 . S
C4715 H4700 0.930 . S
C4715 C4710 1.390 . S
C4715 C4714 1.387 . S
H4716 C4728 0.930 . S
H4717 C4730 0.930 . S
H4718 C4731 0.930 . S
H4719 C4735 0.959 . S
H4720 C4735 0.959 . S
H4721 C4735 0.961 . S
H4722 C4736 0.960 . S
H4723 C4736 0.961 . S
H4724 C4736 0.959 . S
H4725 C4739 0.929 . S
H4726 C4740 0.931 . S
H4727 C4742 0.930 . S
C4728 H4716 0.930 . S
C4728 C4729 1.399 . S
C4728 C4733 1.399 . S
C4729 C4728 1.399 . S
C4729 C4730 1.376 . S
C4730 H4717 0.930 . S
C4730 C4729 1.376 . S
C4730 C4731 1.388 . S
C4731 H4718 0.930 . S
C4731 C4730 1.388 . S
C4731 C4732 1.390 . S
C4732 C4731 1.390 . S
C4732 C4733 1.394 . S
C4732 C4738 1.465 . S
C4733 C4728 1.399 . S
C4733 C4732 1.394 . S
C4733 C4734 1.516 . S
C4734 C4733 1.516 . S
C4734 C4735 1.502 . S
C4734 C4736 1.561 . S
C4734 C4737 1.526 . S
C4735 H4719 0.959 . S
C4735 H4720 0.959 . S
C4735 H4721 0.961 . S
C4735 C4734 1.502 . S
C4736 H4722 0.960 . S
C4736 H4723 0.961 . S
C4736 H4724 0.959 . S
C4736 C4734 1.561 . S
C4737 C4734 1.526 . S
C4737 C4738 1.396 . S
C4737 C4742 1.390 . S
C4738 C4732 1.465 . S
C4738 C4737 1.396 . S
C4738 C4739 1.399 . S
C4739 H4725 0.929 . S
C4739 C4738 1.399 . S
C4739 C4740 1.385 . S
C4740 H4726 0.931 . S
C4740 C4739 1.385 . S
C4740 C4741 1.389 . S
C4741 C4740 1.389 . S
C4741 C4742 1.387 . S
C4742 H4727 0.930 . S
C4742 C4737 1.390 . S
C4742 C4741 1.387 . S
H4743 C4755 0.930 . S
H4744 C4757 0.930 . S
H4745 C4758 0.930 . S
H4746 C4762 0.959 . S
H4747 C4762 0.959 . S
H4748 C4762 0.961 . S
H4749 C4763 0.960 . S
H4750 C4763 0.961 . S
H4751 C4763 0.959 . S
H4752 C4766 0.929 . S
H4753 C4767 0.931 . S
H4754 C4769 0.930 . S
C4755 H4743 0.930 . S
C4755 C4756 1.399 . S
C4755 C4760 1.399 . S
C4756 C4755 1.399 . S
C4756 C4757 1.376 . S
C4757 H4744 0.930 . S
C4757 C4756 1.376 . S
C4757 C4758 1.388 . S
C4758 H4745 0.930 . S
C4758 C4757 1.388 . S
C4758 C4759 1.390 . S
C4759 C4758 1.390 . S
C4759 C4760 1.394 . S
C4759 C4765 1.465 . S
C4760 C4755 1.399 . S
C4760 C4759 1.394 . S
C4760 C4761 1.516 . S
C4761 C4760 1.516 . S
C4761 C4762 1.502 . S
C4761 C4763 1.561 . S
C4761 C4764 1.526 . S
C4762 H4746 0.959 . S
C4762 H4747 0.959 . S
C4762 H4748 0.961 . S
C4762 C4761 1.502 . S
C4763 H4749 0.960 . S
C4763 H4750 0.961 . S
C4763 H4751 0.959 . S
C4763 C4761 1.561 . S
C4764 C4761 1.526 . S
C4764 C4765 1.396 . S
C4764 C4769 1.390 . S
C4765 C4759 1.465 . S
C4765 C4764 1.396 . S
C4765 C4766 1.399 . S
C4766 H4752 0.929 . S
C4766 C4765 1.399 . S
C4766 C4767 1.385 . S
C4767 H4753 0.931 . S
C4767 C4766 1.385 . S
C4767 C4768 1.389 . S
C4768 C4767 1.389 . S
C4768 C4769 1.387 . S
C4769 H4754 0.930 . S
C4769 C4764 1.390 . S
C4769 C4768 1.387 . S
H4770 C4782 0.930 . S
H4771 C4784 0.930 . S
H4772 C4785 0.930 . S
H4773 C4789 0.959 . S
H4774 C4789 0.959 . S
H4775 C4789 0.961 . S
H4776 C4790 0.960 . S
H4777 C4790 0.961 . S
H4778 C4790 0.959 . S
H4779 C4793 0.929 . S
H4780 C4794 0.931 . S
H4781 C4796 0.930 . S
C4782 H4770 0.930 . S
C4782 C4783 1.399 . S
C4782 C4787 1.399 . S
C4783 C4782 1.399 . S
C4783 C4784 1.376 . S
C4784 H4771 0.930 . S
C4784 C4783 1.376 . S
C4784 C4785 1.388 . S
C4785 H4772 0.930 . S
C4785 C4784 1.388 . S
C4785 C4786 1.390 . S
C4786 C4785 1.390 . S
C4786 C4787 1.394 . S
C4786 C4792 1.465 . S
C4787 C4782 1.399 . S
C4787 C4786 1.394 . S
C4787 C4788 1.516 . S
C4788 C4787 1.516 . S
C4788 C4789 1.502 . S
C4788 C4790 1.561 . S
C4788 C4791 1.526 . S
C4789 H4773 0.959 . S
C4789 H4774 0.959 . S
C4789 H4775 0.961 . S
C4789 C4788 1.502 . S
C4790 H4776 0.960 . S
C4790 H4777 0.961 . S
C4790 H4778 0.959 . S
C4790 C4788 1.561 . S
C4791 C4788 1.526 . S
C4791 C4792 1.396 . S
C4791 C4796 1.390 . S
C4792 C4786 1.465 . S
C4792 C4791 1.396 . S
C4792 C4793 1.399 . S
C4793 H4779 0.929 . S
C4793 C4792 1.399 . S
C4793 C4794 1.385 . S
C4794 H4780 0.931 . S
C4794 C4793 1.385 . S
C4794 C4795 1.389 . S
C4795 C4794 1.389 . S
C4795 C4796 1.387 . S
C4796 H4781 0.930 . S
C4796 C4791 1.390 . S
C4796 C4795 1.387 . S
H4797 C4809 0.930 . S
H4798 C4811 0.930 . S
H4799 C4812 0.930 . S
H4800 C4816 0.959 . S
H4801 C4816 0.959 . S
H4802 C4816 0.961 . S
H4803 C4817 0.960 . S
H4804 C4817 0.961 . S
H4805 C4817 0.959 . S
H4806 C4820 0.929 . S
H4807 C4821 0.931 . S
H4808 C4823 0.930 . S
C4809 H4797 0.930 . S
C4809 C4810 1.399 . S
C4809 C4814 1.399 . S
C4810 C4809 1.399 . S
C4810 C4811 1.376 . S
C4811 H4798 0.930 . S
C4811 C4810 1.376 . S
C4811 C4812 1.388 . S
C4812 H4799 0.930 . S
C4812 C4811 1.388 . S
C4812 C4813 1.390 . S
C4813 C4812 1.390 . S
C4813 C4814 1.394 . S
C4813 C4819 1.465 . S
C4814 C4809 1.399 . S
C4814 C4813 1.394 . S
C4814 C4815 1.516 . S
C4815 C4814 1.516 . S
C4815 C4816 1.502 . S
C4815 C4817 1.561 . S
C4815 C4818 1.526 . S
C4816 H4800 0.959 . S
C4816 H4801 0.959 . S
C4816 H4802 0.961 . S
C4816 C4815 1.502 . S
C4817 H4803 0.960 . S
C4817 H4804 0.961 . S
C4817 H4805 0.959 . S
C4817 C4815 1.561 . S
C4818 C4815 1.526 . S
C4818 C4819 1.396 . S
C4818 C4823 1.390 . S
C4819 C4813 1.465 . S
C4819 C4818 1.396 . S
C4819 C4820 1.399 . S
C4820 H4806 0.929 . S
C4820 C4819 1.399 . S
C4820 C4821 1.385 . S
C4821 H4807 0.931 . S
C4821 C4820 1.385 . S
C4821 C4822 1.389 . S
C4822 C4821 1.389 . S
C4822 C4823 1.387 . S
C4823 H4808 0.930 . S
C4823 C4818 1.390 . S
C4823 C4822 1.387 . S
C1597 C549 0.865 . S
C1609 C21 0.863 . S
C1624 C54 0.842 . S
C1636 C978 0.854 . S
C1651 C615 0.840 . S
C1663 C87 0.847 . S
C1678 C1044 0.759 . S
C1690 C120 0.762 . S
C1705 C153 0.871 . S
C1717 C417 0.866 . S
C1732 C846 0.888 . S
C1744 C186 0.897 . S
C1759 C483 0.842 . S
C1771 C219 0.844 1_655 S
C1786 C252 0.827 . S
C1798 C912 0.833 . S
C1813 C285 0.740 . S
C1825 C1572 0.732 . S
C1840 C318 0.966 . S
C1852 C1539 0.965 . S
C1867 C351 0.960 . S
C1879 C1506 0.964 . S
C1894 C1473 0.751 . S
C1906 C384 0.752 . S
C1921 C1374 0.844 . S
C1933 C450 0.853 . S
C1948 C516 0.765 . S
C1960 C1440 0.764 . S
C1975 C1242 0.897 . S
C1987 C582 0.888 . S
C2002 C648 0.832 . S
C2014 C1308 0.819 . S
C2029 C681 0.737 . S
C2041 C1176 0.743 . S
C2056 C1143 0.966 . S
C2068 C714 0.960 . S
C2083 C1110 0.967 . S
C2095 C747 0.957 . S
C2110 C780 0.751 . S
C2122 C1077 0.737 . S
C2137 C813 0.844 . S
C2149 C1341 0.841 . S
C2164 C879 0.868 . S
C2176 C1407 0.865 . S
C2191 C945 0.843 . S
C2203 C1209 0.831 . S
C2218 C1011 0.862 . S
C2230 C1275 0.865 . S
C2245 C117 1.614 . S
C2257 N13 1.501 . S
C2272 N35 1.388 . S
C2284 C7 1.585 . S
C2299 C51 1.598 . S
C2311 N68 1.465 . S
C2326 N101 1.391 . S
C2338 C84 1.595 . S
C2353 N134 1.523 . S
C2365 C172 1.581 . S
C2380 C216 1.673 . S
C2392 N178 1.596 . S
C2407 N200 1.426 . S
C2419 C238 1.634 . S
C2434 N244 1.524 . S
C2446 C150 1.655 . S
C2461 N112 1.500 . S
C2473 C282 1.579 . S
C2488 C348 1.625 . S
C2500 N2 1.458 . S
C2515 C381 1.625 . S
C2527 N46 1.527 . S
C2542 C304 1.595 . S
C2554 N79 1.537 . S
C2569 C315 1.654 . S
C2581 N167 1.486 . S
C2596 C271 1.577 . S
C2608 N211 1.498 . S
C2623 N233 1.566 . S
C2635 C337 1.643 . S
C2650 N145 1.440 . S
C2662 C370 1.555 . S
C2677 C18 1.580 . S
C2689 N277 1.495 . S
C2704 C139 1.645 . S
C2716 N310 1.585 . S
C2731 N266 1.428 . S
C2743 C183 1.536 . S
C2758 C205 1.638 . S
C2770 N332 1.481 . S
C2785 N365 1.402 . S
C2797 C249 1.581 . S
C2812 C73 1.541 . S
C2824 N376 1.497 . S
C2839 N299 1.491 . S
C2851 C106 1.561 . S
C2866 C40 1.711 . S
C2878 N343 1.557 . S
C2893 C513 1.585 . S
C2905 N409 1.469 . S
C2920 C403 1.567 . S
C2932 N431 1.421 . S
C2947 N464 1.379 . S
C2959 C447 1.591 . S
C2974 N497 1.362 . S
C2986 C480 1.564 . S
C3001 N530 1.442 . S
C3013 C568 1.637 . S
C3028 N574 1.571 . S
C3040 C612 1.719 . S
C3055 N596 1.440 . S
C3067 C634 1.634 . S
C3082 C546 1.685 . S
C3094 N640 1.583 . S
C3109 C678 1.572 . S
C3121 N508 1.430 . S
C3136 C744 1.634 . S
C3148 N398 1.489 . S
C3163 N442 1.522 . S
C3175 C777 1.637 . S
C3190 C711 1.647 . S
C3202 N475 1.524 . S
C3217 C700 1.609 . S
C3229 N563 1.554 . S
C3244 N607 1.438 . S
C3256 C667 1.582 . S
C3271 C733 1.656 . S
C3283 N629 1.462 . S
C3298 C766 1.592 . S
C3310 N541 1.454 . S
C3325 N673 1.444 . S
C3337 C414 1.593 . S
C3352 C535 1.653 . S
C3364 N695 1.502 . S
C3379 N662 1.449 . S
C3391 C579 1.534 . S
C3406 N728 1.566 . S
C3418 C601 1.622 . S
C3433 N761 1.394 . S
C3445 C645 1.594 . S
C3460 N772 1.522 . S
C3472 C469 1.546 . S
C3487 C502 1.587 . S
C3499 N706 1.571 . S
C3514 N739 1.642 . S
C3526 C436 1.658 . S
C3541 N805 1.555 . S
C3553 C909 1.604 . S
C3568 N827 1.516 . S
C3580 C799 1.578 . S
C3595 N860 1.534 . S
C3607 C843 1.617 . S
C3622 C876 1.533 . S
C3634 N893 1.398 . S
C3649 N926 1.557 . S
C3661 C964 1.627 . S
C3676 N970 1.534 . S
C3688 C1008 1.684 . S
C3703 N992 1.416 . S
C3715 C1030 1.605 . S
C3730 C942 1.637 . S
C3742 N1036 1.516 . S
C3757 N904 1.467 . S
C3769 C1074 1.547 . S
C3784 N794 1.550 . S
C3796 C1129 1.604 . S
C3811 C1173 1.660 . S
C3823 N838 1.498 . S
C3838 C1107 1.656 . S
C3850 N871 1.593 . S
C3865 C1096 1.557 . S
C3877 N959 1.513 . S
C3892 C1063 1.547 . S
C3904 N1003 1.467 . S
C3919 C1140 1.635 . S
C3931 N1025 1.455 . S
C3946 C1162 1.577 . S
C3958 N937 1.511 . S
C3973 N1069 1.514 . S
C3985 C810 1.562 . S
C4000 C931 1.620 . S
C4012 N1091 1.434 . S
C4027 N1058 1.424 . S
C4039 C975 1.566 . S
C4054 C997 1.657 . S
C4066 N1135 1.544 . S
C4081 N1157 1.440 . S
C4093 C1041 1.590 . S
C4108 N1168 1.412 . S
C4120 C865 1.559 . S
C4135 N1102 1.588 . S
C4147 C898 1.638 . S
C4162 N1124 1.583 . S
C4174 C832 1.673 . S
C4189 N1201 1.504 . S
C4201 C1305 1.663 . S
C4216 N1223 1.406 . S
C4228 C1195 1.608 . S
C4243 N1256 1.460 . S
C4255 C1239 1.670 . S
C4270 N1289 1.376 . S
C4282 C1272 1.579 . S
C4297 N1322 1.434 . S
C4309 C1360 1.618 . S
C4324 N1366 1.514 . S
C4336 C1404 1.660 . S
C4351 N1388 1.520 . S
C4363 C1426 1.581 . S
C4378 N1432 1.550 . S
C4390 C1338 1.579 . S
C4405 N1300 1.516 . S
C4417 C1470 1.561 . S
C4432 N1190 1.436 . S
C4444 C1525 1.624 . S
C4459 N1234 1.545 . S
C4471 C1569 1.642 . S
C4486 N1267 1.538 . S
C4498 C1492 1.658 . S
C4513 C1503 1.594 . S
C4525 N1355 1.504 . S
C4540 C1459 1.542 . S
C4552 N1399 1.490 . S
C4567 N1421 1.516 . S
C4579 C1536 1.638 . S
C4594 N1333 1.540 . S
C4606 C1558 1.550 . S
C4621 C1206 1.568 . S
C4633 N1465 1.481 . S
C4648 N1498 1.490 . S
C4660 C1327 1.644 . S
C4675 C1371 1.581 . S
C4687 N1454 1.373 . S
C4702 N1531 1.509 . S
C4714 C1393 1.653 . S
C4729 C1437 1.591 . S
C4741 N1553 1.413 . S
C4756 C1261 1.548 . S
C4768 N1564 1.479 . S
C4783 N1487 1.524 . S
C4795 C1294 1.641 . S
C4810 C1228 1.717 . S
C4822 N1520 1.508 . S
