# Generated by pormake.
# Topology sxb, (6)-cn, num edge types: 1
# Building blocks:
#     Node 0, Type 0, BuildingBlock: UKALOJ_clean_sbu_0, # of connection points: 6
#     Node 1, Type 0, BuildingBlock: UKALOJ_clean_sbu_0, # of connection points: 6
#     Node 2, Type 0, BuildingBlock: UKALOJ_clean_sbu_0, # of connection points: 6
#     Node 3, Type 0, BuildingBlock: UKALOJ_clean_sbu_0, # of connection points: 6
#     Edge 4, Type (0, 0), BuildingBlock: FUNLAD_clean_linker_0, # of connection points: 2
#     Edge 5, Type (0, 0), BuildingBlock: FUNLAD_clean_linker_0, # of connection points: 2
#     Edge 6, Type (0, 0), BuildingBlock: FUNLAD_clean_linker_0, # of connection points: 2
#     Edge 7, Type (0, 0), BuildingBlock: FUNLAD_clean_linker_0, # of connection points: 2
#     Edge 8, Type (0, 0), BuildingBlock: FUNLAD_clean_linker_0, # of connection points: 2
#     Edge 9, Type (0, 0), BuildingBlock: FUNLAD_clean_linker_0, # of connection points: 2
#     Edge 10, Type (0, 0), BuildingBlock: FUNLAD_clean_linker_0, # of connection points: 2
#     Edge 11, Type (0, 0), BuildingBlock: FUNLAD_clean_linker_0, # of connection points: 2
#     Edge 12, Type (0, 0), BuildingBlock: FUNLAD_clean_linker_0, # of connection points: 2
#     Edge 13, Type (0, 0), BuildingBlock: FUNLAD_clean_linker_0, # of connection points: 2
#     Edge 14, Type (0, 0), BuildingBlock: FUNLAD_clean_linker_0, # of connection points: 2
#     Edge 15, Type (0, 0), BuildingBlock: FUNLAD_clean_linker_0, # of connection points: 2
# Relax obj value: 0.097
# Max RMSD: 0.145
# Mean RMSD: 0.145
data_MOF--net-sxb--node1-UKALOJ_clean_sbu_0--edge1-FUNLAD_clean_linker_0
_symmetry_space_group_name_H-M    P1
_symmetry_Int_Tables_number       1
_symmetry_cell_setting            triclinic
loop_
_symmetry_equiv_pos_as_xyz
'x, y, z'
_cell_length_a     16.845871
_cell_length_b     31.24889
_cell_length_c     45.343202
_cell_angle_alpha  98.944881
_cell_angle_beta   90.025765
_cell_angle_gamma 90.105162
loop_
_atom_site_label
_atom_site_type_symbol
_atom_site_fract_x
_atom_site_fract_y
_atom_site_fract_z
_atom_type_partial_charge
Zn0 Zn 0.94593 0.03492 0.05582 0.0
O1 O -0.00719 0.97265 0.0561 0.0
C2 C 0.09998 0.0628 0.0352 0.0
Zn3 Zn 0.95193 0.02671 1.00616 0.0
C4 C 0.01175 0.94955 0.03154 0.0
O5 O -0.00041 0.96395 1.00718 0.0
C6 C 0.88784 0.11253 0.03122 0.0
O7 O 0.8369 0.00126 1.00304 0.0
O8 O 0.83036 0.01026 0.05204 0.0
N9 N 0.96421 0.01716 0.96065 0.0
C10 C 0.92212 0.03014 0.9383 0.0
C11 C 0.02707 -0.00039 0.91909 0.0
N12 N 0.02897 0.99787 0.94855 0.0
N13 N 0.96042 0.01947 0.91203 0.0
C14 C 0.92272 0.02124 0.12218 0.0
C15 C 0.9442 0.08517 0.14496 0.0
N16 N 0.9385 0.04644 0.10129 0.0
N17 N 0.95166 0.08611 0.11553 0.0
N18 N 0.92625 0.04483 0.14981 0.0
H19 H 0.87141 0.96707 0.09306 0.0
H20 H 0.85877 0.96561 0.13252 0.0
H21 H 0.95404 0.95427 0.11508 0.0
C22 C 0.89986 0.9744 0.11529 0.0
C23 C 0.84779 0.0566 0.94257 0.0
H24 H 0.81722 0.05217 0.9635 0.0
H25 H 0.80677 0.04763 0.92349 0.0
H26 H 0.86349 0.09128 0.94357 0.0
O27 O 0.90529 0.08996 1.00628 0.0
O28 O 0.89999 0.09709 0.05509 0.0
C29 C 0.798 0.99874 0.02671 0.0
O30 O 0.06152 0.05965 0.05881 0.0
O31 O 0.06697 0.05203 1.00997 0.0
Zn32 Zn 0.94983 0.04445 0.55802 0.0
O33 O 0.83481 0.06832 0.55485 0.0
C34 C 0.88913 0.95606 0.53734 0.0
Zn35 Zn 0.95306 0.02821 0.50838 0.0
C36 C 0.80062 0.06674 0.52971 0.0
O37 O 0.8376 0.05174 0.50594 0.0
C38 C 0.10231 0.00604 0.53693 0.0
O39 O 0.00087 0.08901 0.50461 0.0
O40 O -0.00146 0.10617 0.55341 0.0
N41 N 0.95769 0.00951 0.46321 0.0
C42 C 0.9291 0.02678 0.43989 0.0
C43 C -0.00983 0.96877 0.42216 0.0
N44 N -0.00458 0.97346 0.45211 0.0
N45 N 0.94843 0.00164 0.41387 0.0
C46 C 0.90421 0.05034 0.62549 0.0
C47 C -0.00632 0.09307 0.64622 0.0
N48 N 0.94964 0.06197 0.60353 0.0
N49 N 0.00492 0.08865 0.61651 0.0
N50 N 0.93102 0.06923 0.65253 0.0
H51 H 0.80296 0.02634 0.59881 0.0
H52 H 0.78808 0.0312 0.6387 0.0
H53 H 0.84836 0.98819 0.61944 0.0
C54 C 0.83137 0.02261 0.6203 0.0
C55 C 0.88621 0.0692 0.44264 0.0
H56 H 0.90079 0.09022 0.4639 0.0
H57 H 0.82134 0.06302 0.44219 0.0
H58 H 0.90136 0.08635 0.42371 0.0
O59 O 0.06858 0.00485 0.51178 0.0
O60 O 0.06475 0.02057 0.56061 0.0
C61 C 0.01525 0.11603 0.52793 0.0
O62 O 0.90255 0.98211 0.5613 0.0
O63 O 0.90589 0.96746 0.51241 0.0
Zn64 Zn 0.50795 0.5555 0.04836 0.0
O65 O 0.55439 0.4928 0.05033 0.0
C66 C 0.66266 0.58333 0.0291 0.0
Zn67 Zn 0.51603 0.54615 0.99864 0.0
C68 C 0.57249 0.46961 0.02569 0.0
O69 O 0.56107 0.48435 1.0015 0.0
C70 C 0.45018 0.63156 0.02039 0.0
O71 O 0.40092 0.52087 0.99442 0.0
O72 O 0.39314 0.52984 0.04333 0.0
N73 N 0.53318 0.53313 0.95352 0.0
C74 C 0.4917 0.54058 0.92935 0.0
C75 C 0.59267 0.50273 0.91363 0.0
N76 N 0.59596 0.50981 0.94361 0.0
N77 N 0.52789 0.52168 0.90405 0.0
C78 C 0.53191 0.55533 0.11699 0.0
C79 C 0.43278 0.59285 0.13498 0.0
N80 N 0.49175 0.56725 0.0938 0.0
N81 N 0.4303 0.59058 0.1051 0.0
N82 N 0.49577 0.57086 0.14312 0.0
H83 H 0.59518 0.49549 0.11215 0.0
H84 H 0.64659 0.54029 0.13387 0.0
H85 H 0.64096 0.53595 0.09371 0.0
C86 C 0.60837 0.53059 0.11401 0.0
C87 C 0.41439 0.5644 0.93061 0.0
H88 H 0.38455 0.56458 0.95237 0.0
H89 H 0.37461 0.54963 0.91229 0.0
H90 H 0.42599 0.59847 0.92775 0.0
O91 O 0.47077 0.60798 0.99622 0.0
O92 O 0.46059 0.61781 0.04512 0.0
C93 C 0.3613 0.51843 0.01792 0.0
O94 O 0.6228 0.58127 0.05259 0.0
O95 O 0.63114 0.57141 1.00369 0.0
Zn96 Zn 0.51499 0.51886 0.54365 0.0
O97 O 0.39919 0.54337 0.54705 0.0
C98 C 0.45117 0.43219 0.5225 0.0
Zn99 Zn 0.51014 0.50698 0.49383 0.0
C100 C 0.36179 0.54497 0.5229 0.0
O101 O 0.39552 0.53269 0.49799 0.0
C102 C 0.66327 0.48061 0.5145 0.0
O103 O 0.55674 0.5695 0.49165 0.0
O104 O 0.55988 0.58077 0.54063 0.0
N105 N 0.49516 0.4944 0.44834 0.0
C106 C 0.53533 0.5063 0.42514 0.0
C107 C 0.43693 0.46793 0.40712 0.0
N108 N 0.43417 0.47054 0.43702 0.0
N109 N 0.49964 0.49023 0.39898 0.0
C110 C 0.48573 0.52805 0.61281 0.0
C111 C 0.60047 0.54896 0.62899 0.0
N112 N 0.53142 0.53151 0.58884 0.0
N113 N 0.60243 0.54472 0.59903 0.0
N114 N 0.52786 0.5389 0.63828 0.0
H115 H 0.38797 0.4934 0.58901 0.0
H116 H 0.36118 0.5404 0.61509 0.0
H117 H 0.39038 0.49178 0.62875 0.0
C118 C 0.40166 0.51213 0.61119 0.0
C119 C 0.61141 0.53152 0.42815 0.0
H120 H 0.64376 0.52665 0.44862 0.0
H121 H 0.59774 0.5665 0.42972 0.0
H122 H 0.64998 0.5218 0.40842 0.0
O123 O 0.62532 0.48146 0.4904 0.0
O124 O 0.63018 0.49385 0.53937 0.0
C125 C 0.57294 0.59405 0.516 0.0
O126 O 0.47072 0.45705 0.54625 0.0
O127 O 0.46217 0.4446 0.49736 0.0
C128 C 0.37662 0.69643 0.04589 0.0
C129 C 0.40798 0.67281 0.01958 0.0
C130 C 0.32948 0.73286 0.04477 0.0
C131 C 0.31245 0.74636 0.01725 0.0
C132 C 0.34683 0.72396 0.99117 0.0
C133 C 0.39372 0.6874 0.99225 0.0
C134 C 0.25983 0.78376 1.01495 0.0
C135 C 0.20071 0.7961 0.03443 0.0
C136 C 0.14851 0.83382 0.03257 0.0
C137 C 0.11335 0.85513 0.05884 0.0
C138 C 0.06692 0.89199 0.05838 0.0
C139 C 0.05379 0.90803 0.03151 0.0
H140 H 0.15627 0.83232 0.98453 0.0
C141 C 0.08595 0.88556 1.00495 0.0
C142 C 0.13278 0.8488 1.00544 0.0
H143 H 0.07646 0.89687 0.98383 0.0
H144 H 0.38705 0.68628 0.06734 0.0
H145 H 0.30675 0.75029 0.06553 0.0
H146 H 0.33561 0.73407 0.96975 0.0
H147 H 0.41729 0.67006 0.97158 0.0
H148 H 0.26949 0.80087 0.99618 0.0
H149 H 0.19107 0.7788 0.05312 0.0
H150 H 0.1236 0.84393 0.07997 0.0
H151 H 0.04277 0.90839 0.07922 0.0
C152 C 0.62763 0.41003 0.05095 0.0
C153 C 0.60979 0.42664 0.02467 0.0
C154 C 0.66655 0.37025 0.04956 0.0
C155 C 0.68794 0.34623 0.02177 0.0
C156 C 0.66992 0.36295 0.99563 0.0
C157 C 0.63104 0.40252 0.997 0.0
C158 C 0.73136 0.30449 0.01891 0.0
C159 C 0.73028 0.2783 0.03982 0.0
C160 C 0.7732 0.23637 0.03663 0.0
C161 C 0.79236 0.21934 0.06257 0.0
C162 C 0.83092 0.17957 0.06074 0.0
C163 C 0.85067 0.15563 0.03284 0.0
H164 H 0.77697 0.22361 0.98803 0.0
C165 C 0.83153 0.17254 1.00681 0.0
C166 C 0.7929 0.21243 1.00863 0.0
H167 H 0.8452 0.15469 0.98499 0.0
H168 H 0.61272 0.42804 0.0726 0.0
H169 H 0.68137 0.3592 0.07032 0.0
H170 H 0.68603 0.34532 0.97396 0.0
H171 H 0.61854 0.4144 0.97628 0.0
H172 H 0.76442 0.29497 0.99842 0.0
H173 H 0.69749 0.28782 0.06038 0.0
H174 H 0.77745 0.23689 0.08438 0.0
H175 H 0.84446 0.16742 0.08128 0.0
C176 C 0.08906 0.18268 0.55072 0.0
C177 C 0.05686 0.15695 0.52535 0.0
C178 C 0.1356 0.21886 0.54781 0.0
C179 C 0.15081 0.22998 0.51942 0.0
C180 C 0.11543 0.20549 0.49429 0.0
C181 C 0.06941 0.16916 0.49715 0.0
C182 C 0.20268 0.26697 0.51517 0.0
C183 C 0.2635 0.28064 0.53357 0.0
C184 C 0.31541 0.31774 0.52956 0.0
C185 C 0.3528 0.34095 0.55475 0.0
C186 C 0.39899 0.37735 0.55229 0.0
C187 C 0.40965 0.39101 0.52444 0.0
H188 H 0.30342 0.31228 0.48134 0.0
C189 C 0.37531 0.36662 0.49896 0.0
C190 C 0.3287 0.3303 0.50146 0.0
H191 H 0.38286 0.37613 0.47715 0.0
H192 H 0.07999 0.17431 0.57277 0.0
H193 H 0.15935 0.23795 0.56783 0.0
H194 H 0.12524 0.21375 0.47223 0.0
H195 H 0.0449 0.1502 0.47718 0.0
H196 H 0.19122 0.28246 0.49577 0.0
H197 H 0.27485 0.26496 0.5529 0.0
H198 H 0.34446 0.33162 0.57658 0.0
H199 H 0.42493 0.39529 0.57236 0.0
C200 C 0.82743 0.88814 0.51102 0.0
C201 C 0.85125 0.91352 0.53791 0.0
C202 C 0.78889 0.84867 0.51108 0.0
C203 C 0.77407 0.83326 0.5381 0.0
C204 C 0.79756 0.85873 0.56501 0.0
C205 C 0.83597 0.89844 0.56495 0.0
C206 C 0.73204 0.79169 0.53916 0.0
C207 C 0.72844 0.75918 0.51582 0.0
C208 C 0.68615 0.71764 0.51663 0.0
C209 C 0.66349 0.69243 0.48953 0.0
C210 C 0.62543 0.65259 0.4892 0.0
C211 C 0.60974 0.63701 0.51603 0.0
H212 H 0.68915 0.71945 0.56482 0.0
C213 C 0.63242 0.66221 0.54316 0.0
C214 C 0.67049 0.70194 0.54349 0.0
H215 H 0.62204 0.65094 0.56425 0.0
H216 H 0.83726 0.89907 0.48978 0.0
H217 H 0.76933 0.83111 0.48988 0.0
H218 H 0.7863 0.84783 0.58617 0.0
H219 H 0.85342 0.91727 0.58605 0.0
H220 H 0.70367 0.78807 0.5601 0.0
H221 H 0.75706 0.7628 0.49493 0.0
H222 H 0.67531 0.70359 0.46849 0.0
H223 H 0.60897 0.6339 0.46793 0.0
C224 C 0.23088 0.06495 1.01031 0.0
C225 C 0.18604 0.07051 0.03673 0.0
C226 C 0.31268 0.05947 1.01145 0.0
C227 C 0.35064 0.05969 0.03904 0.0
C228 C 0.30742 0.07049 0.06551 0.0
C229 C 0.22536 0.07565 0.06441 0.0
C230 C 0.43372 0.0459 0.0407 0.0
C231 C 0.46402 0.01346 0.02096 0.0
C232 C 0.54727 -5e-05 0.02258 0.0
C233 C 0.59085 0.99005 0.99611 0.0
C234 C 0.67304 0.98556 0.99728 0.0
C235 C 0.71212 0.99047 0.025 0.0
H236 H 0.552 0.00557 0.07086 0.0
C237 C 0.66706 0.99508 0.05136 0.0
C238 C 0.58511 -0.0001 0.05016 0.0
H239 H 0.6954 0.99807 0.07304 0.0
H240 H 0.2024 0.0617 0.98864 0.0
H241 H 0.34552 0.05316 0.9907 0.0
H242 H 0.33619 0.07179 0.08702 0.0
H243 H 0.19237 0.08057 0.08516 0.0
H244 H 0.46916 0.06121 0.05947 0.0
H245 H 0.42866 0.99814 1.00218 0.0
H246 H 0.56219 0.98902 0.97461 0.0
H247 H 0.7062 0.9814 0.97657 0.0
C248 C 0.23319 0.99365 0.51191 0.0
C249 C 0.18825 0.99875 0.5383 0.0
C250 C 0.31508 -0.00055 0.51326 0.0
C251 C 0.35297 0.01017 0.54101 0.0
C252 C 0.30956 0.01001 0.56732 0.0
C253 C 0.22744 0.00459 0.56602 0.0
C254 C 0.43617 0.02461 0.54309 0.0
C255 C 0.46645 0.04973 0.5243 0.0
C256 C 0.54981 0.0639 0.52623 0.0
C257 C 0.59288 0.06395 0.49983 0.0
C258 C 0.6751 0.06889 0.50095 0.0
C259 C 0.71475 0.07438 0.52856 0.0
H260 H 0.55557 0.07631 0.57463 0.0
C261 C 0.67025 0.0796 0.55506 0.0
C262 C 0.58825 0.07428 0.5539 0.0
H263 H 0.69902 0.08463 0.5767 0.0
H264 H 0.20478 0.98835 0.49021 0.0
H265 H 0.34808 0.99749 0.4926 0.0
H266 H 0.33828 0.01725 0.58892 0.0
H267 H 0.19434 0.00801 0.58673 0.0
H268 H 0.47165 0.01634 0.56142 0.0
H269 H 0.43093 0.05798 0.50598 0.0
H270 H 0.56377 0.05696 0.4783 0.0
H271 H 0.70784 0.0654 0.48016 0.0
C272 C 0.79365 0.58827 1.00473 0.0
C273 C 0.74867 0.59127 0.03105 0.0
C274 C 0.87553 0.583 1.00567 0.0
C275 C 0.91349 0.58077 0.03295 0.0
C276 C 0.87005 0.589 0.05956 0.0
C277 C 0.78789 0.59402 0.05865 0.0
C278 C -0.00323 0.56696 0.03402 0.0
C279 C 0.02742 0.53623 1.01304 0.0
C280 C 0.11059 0.52224 1.01414 0.0
C281 C 0.15393 0.51368 0.98752 0.0
C282 C 0.23598 0.50822 0.98842 0.0
C283 C 0.27519 0.51086 1.01602 0.0
H284 H 0.11556 0.52447 0.0622 0.0
C285 C 0.23023 0.51424 0.04235 0.0
C286 C 0.14846 0.51996 0.04143 0.0
H287 H 0.25863 0.5155 0.06392 0.0
H288 H 0.76523 0.58696 0.98317 0.0
H289 H 0.90847 0.57873 0.98492 0.0
H290 H 0.89878 0.58838 0.08088 0.0
H291 H 0.75482 0.59684 0.07935 0.0
H292 H 0.03196 0.58063 0.0533 0.0
H293 H -0.00779 0.52255 0.99377 0.0
H294 H 0.12525 0.51433 0.9662 0.0
H295 H 0.26903 0.50513 0.96771 0.0
C296 C 0.23085 0.54544 0.54805 0.0
C297 C 0.27593 0.5528 0.5233 0.0
C298 C 0.14897 0.53989 0.54536 0.0
C299 C 0.11135 0.54202 0.51796 0.0
C300 C 0.15504 0.55443 0.49443 0.0
C301 C 0.23706 0.55943 0.49696 0.0
C302 C 0.02811 0.52862 0.51269 0.0
C303 C -0.00275 0.49489 0.52396 0.0
C304 C 0.91382 0.48178 0.51888 0.0
C305 C 0.87007 0.47009 0.54264 0.0
C306 C 0.78791 0.46573 0.54032 0.0
C307 C 0.74896 0.47224 0.51398 0.0
H308 H 0.90921 0.49111 0.47245 0.0
C309 C 0.79395 0.47882 0.48902 0.0
C310 C 0.876 0.48379 0.4915 0.0
H311 H 0.76545 0.48358 0.46836 0.0
H312 H 0.25923 0.54055 0.5687 0.0
H313 H 0.11578 0.53206 0.56427 0.0
H314 H 0.12665 0.55714 0.47335 0.0
H315 H 0.27051 0.56567 0.47767 0.0
H316 H -0.00693 0.54532 0.49789 0.0
H317 H 0.03226 0.47818 0.53877 0.0
H318 H 0.89859 0.46754 0.56372 0.0
H319 H 0.75449 0.46008 0.55977 0.0
C320 C -0.00699 0.99894 0.36205 0.0
C321 C 0.93308 0.00769 0.3836 0.0
C322 C -0.0212 0.00365 0.3324 0.0
C323 C 0.90358 0.01659 0.32353 0.0
C324 C 0.84367 0.02542 0.34516 0.0
C325 C 0.85803 0.02068 0.37487 0.0
C326 C 0.88711 0.02329 0.29235 0.0
C327 C 0.92799 0.00312 0.26864 0.0
C328 C 0.91868 0.01245 0.2376 0.0
C329 C 0.95368 0.98407 0.21413 0.0
C330 C 0.95371 0.99369 0.18503 0.0
C331 C 0.91826 0.03186 0.17875 0.0
H332 H 0.85624 0.07392 0.24844 0.0
C333 C 0.88197 0.05989 0.20203 0.0
C334 C 0.88209 0.05041 0.23113 0.0
H335 H 0.85518 0.08981 0.19776 0.0
H336 H 0.0514 0.98902 0.36832 0.0
H337 H 0.02751 0.998 0.31675 0.0
H338 H 0.78534 0.03563 0.339 0.0
H339 H 0.81012 0.02642 0.39086 0.0
H340 H 0.83887 0.04502 0.2891 0.0
H341 H -0.02899 0.97846 0.27194 0.0
H342 H -0.0167 0.95491 0.21845 0.0
H343 H -0.01525 0.97229 0.16783 0.0
C344 C 0.87698 0.01897 0.86717 0.0
C345 C 0.94493 0.0331 0.8838 0.0
C346 C 0.86576 0.02997 0.83863 0.0
C347 C 0.92264 0.05531 0.82638 0.0
C348 C -0.01069 0.07027 0.84358 0.0
C349 C 0.00074 0.0589 0.87183 0.0
C350 C 0.91581 0.06668 0.79582 0.0
C351 C 0.87684 0.04231 0.77319 0.0
C352 C 0.88188 0.05082 0.74182 0.0
C353 C 0.87692 0.0158 0.71837 0.0
C354 C 0.88992 0.02192 0.68882 0.0
C355 C 0.90678 0.06338 0.6821 0.0
H356 H 0.89669 0.12069 0.75219 0.0
C357 C 0.90807 0.09871 0.70537 0.0
C358 C 0.89513 0.09264 0.73489 0.0
H359 H 0.92068 0.13098 0.7007 0.0
H360 H 0.83372 0.99866 0.87601 0.0
H361 H 0.81274 0.01865 0.82634 0.0
H362 H 0.03384 0.08999 0.83483 0.0
H363 H 0.05352 0.07003 0.8844 0.0
H364 H 0.95122 0.09394 0.79119 0.0
H365 H 0.84758 0.01267 0.77701 0.0
H366 H 0.86659 0.98328 0.72303 0.0
H367 H 0.89073 0.9939 0.67151 0.0
C368 C 0.54255 0.5357 0.36162 0.0
C369 C 0.51872 0.49543 0.36874 0.0
C370 C 0.55347 0.54128 0.33182 0.0
C371 C 0.53931 0.50676 0.3084 0.0
C372 C 0.51759 0.46628 0.31573 0.0
C373 C 0.50698 0.46075 0.34547 0.0
C374 C 0.54403 0.51139 0.27613 0.0
C375 C 0.54276 0.54972 0.26589 0.0
C376 C 0.5371 0.55433 0.23363 0.0
C377 C 0.51418 0.59464 0.22638 0.0
C378 C 0.50287 0.60016 0.19668 0.0
C379 C 0.51505 0.56566 0.17335 0.0
H380 H 0.571 0.48859 0.21439 0.0
C381 C 0.53987 0.52555 0.18038 0.0
C382 C 0.55152 0.51998 0.21014 0.0
H383 H 0.5477 0.498 0.163 0.0
H384 H 0.55005 0.56336 0.37895 0.0
H385 H 0.57216 0.5728 0.32748 0.0
H386 H 0.50672 0.43896 0.29834 0.0
H387 H 0.4884 0.4294 0.35033 0.0
H388 H 0.54218 0.48157 0.26033 0.0
H389 H 0.53955 0.57946 0.28172 0.0
H390 H 0.50303 0.62183 0.24382 0.0
H391 H 0.48353 0.63139 0.19188 0.0
C392 C 0.56003 0.51877 0.68701 0.0
C393 C 0.50662 0.53691 0.66873 0.0
C394 C 0.54353 0.51908 0.71716 0.0
C395 C 0.473 0.53773 0.72983 0.0
C396 C 0.4197 0.55626 0.7116 0.0
C397 C 0.43608 0.55559 0.6812 0.0
C398 C 0.45728 0.54058 0.76236 0.0
C399 C 0.4837 0.51017 0.77801 0.0
C400 C 0.48207 0.51373 0.81111 0.0
C401 C 0.50062 0.47659 0.82359 0.0
C402 C 0.51193 0.47911 0.85426 0.0
C403 C 0.5045 0.51877 0.87331 0.0
H404 H 0.45903 0.58298 0.82169 0.0
C405 C 0.48263 0.55577 0.86123 0.0
C406 C 0.47161 0.55337 0.83035 0.0
H407 H 0.47843 0.58691 0.8754 0.0
H408 H 0.61523 0.5047 0.67794 0.0
H409 H 0.58753 0.5059 0.73064 0.0
H410 H 0.36566 0.57151 0.72092 0.0
H411 H 0.39507 0.57087 0.66771 0.0
H412 H 0.42392 0.5682 0.77334 0.0
H413 H 0.51033 0.48097 0.76588 0.0
H414 H 0.50935 0.44568 0.80944 0.0
H415 H 0.52887 0.45019 0.86311 0.0
loop_
_geom_bond_atom_site_label_1
_geom_bond_atom_site_label_2
_geom_bond_distance
_geom_bond_site_symmetry_2
_ccdc_geom_bond_type
Zn0 O1 2.055 1_645 S
Zn0 O8 2.046 1_545 S
Zn0 N16 2.036 . S
Zn0 O28 2.053 . S
Zn0 O30 2.066 1_655 S
O1 Zn0 2.055 1_465 S
O1 C4 1.259 . S
C2 O30 1.256 . S
C2 O31 1.244 1_554 S
Zn3 O5 2.026 1_545 S
Zn3 O7 2.052 1_445 S
Zn3 N9 2.039 1_545 S
Zn3 O27 2.086 1_455 S
Zn3 O31 2.056 . S
C4 O1 1.259 . S
C4 O5 1.254 1_554 S
O5 Zn3 2.026 1_565 S
O5 C4 1.254 1_556 S
C6 O27 1.256 1_554 S
C6 O28 1.244 . S
O7 Zn3 2.052 1_665 S
O7 C29 1.259 1_556 S
O8 Zn0 2.046 1_565 S
O8 C29 1.254 . S
N9 Zn3 2.039 1_565 S
N9 C10 1.298 1_465 S
N9 N12 1.398 . S
C10 N9 1.298 1_645 S
C10 N13 1.367 1_655 S
C10 C23 1.481 . S
C11 N12 1.299 1_545 S
C11 N13 1.379 . S
N12 N9 1.398 . S
N12 C11 1.299 1_565 S
N13 C10 1.367 1_455 S
N13 C11 1.379 . S
C14 N16 1.298 1_455 S
C14 N18 1.367 . S
C14 C22 1.481 1_545 S
C15 N17 1.299 . S
C15 N18 1.379 1_655 S
N16 Zn0 2.036 . S
N16 C14 1.298 1_655 S
N16 N17 1.398 . S
N17 C15 1.299 . S
N17 N16 1.398 . S
N18 C14 1.367 . S
N18 C15 1.379 1_455 S
H19 C22 0.980 . S
H20 C22 0.981 . S
H21 C22 0.981 . S
C22 C14 1.481 1_565 S
C22 H19 0.980 . S
C22 H20 0.981 . S
C22 H21 0.981 . S
C23 C10 1.481 . S
C23 H24 0.980 . S
C23 H25 0.981 . S
C23 H26 0.981 . S
H24 C23 0.980 . S
H25 C23 0.981 . S
H26 C23 0.981 . S
O27 Zn3 2.086 1_655 S
O27 C6 1.256 1_556 S
O28 Zn0 2.053 . S
O28 C6 1.244 . S
C29 O7 1.259 1_554 S
C29 O8 1.254 . S
O30 Zn0 2.066 1_455 S
O30 C2 1.256 . S
O31 C2 1.244 1_556 S
O31 Zn3 2.056 . S
Zn32 O33 2.055 1_455 S
Zn32 O40 2.046 . S
Zn32 N48 2.036 . S
Zn32 O60 2.053 . S
Zn32 O62 2.066 1_445 S
O33 Zn32 2.055 1_655 S
O33 C36 1.259 . S
C34 O62 1.256 . S
C34 O63 1.244 . S
Zn35 O37 2.046 . S
Zn35 O39 2.055 1_655 S
Zn35 N41 2.036 . S
Zn35 O59 2.066 1_655 S
Zn35 O63 2.053 1_545 S
C36 O33 1.259 . S
C36 O37 1.254 . S
O37 Zn35 2.046 . S
O37 C36 1.254 . S
C38 O59 1.256 . S
C38 O60 1.244 . S
O39 Zn35 2.055 1_455 S
O39 C61 1.259 . S
O40 Zn32 2.046 . S
O40 C61 1.254 . S
N41 Zn35 2.036 . S
N41 C42 1.298 1_655 S
N41 N44 1.398 . S
C42 N41 1.298 1_455 S
C42 N45 1.367 . S
C42 C55 1.481 . S
C43 N44 1.300 1_565 S
C43 N45 1.363 1_665 S
N44 N41 1.398 . S
N44 C43 1.300 1_545 S
N45 C42 1.367 . S
N45 C43 1.363 1_445 S
C46 N48 1.298 1_655 S
C46 N50 1.367 1_655 S
C46 C54 1.481 . S
C47 N49 1.299 . S
C47 N50 1.379 . S
N48 Zn32 2.036 . S
N48 C46 1.298 1_455 S
N48 N49 1.398 . S
N49 C47 1.299 . S
N49 N48 1.398 . S
N50 C46 1.367 1_455 S
N50 C47 1.379 . S
H51 C54 0.980 . S
H52 C54 0.981 . S
H53 C54 0.981 . S
C54 C46 1.481 . S
C54 H51 0.980 . S
C54 H52 0.981 . S
C54 H53 0.981 . S
C55 C42 1.481 . S
C55 H56 0.980 . S
C55 H57 0.981 . S
C55 H58 0.981 . S
H56 C55 0.980 . S
H57 C55 0.981 . S
H58 C55 0.981 . S
O59 Zn35 2.066 1_455 S
O59 C38 1.256 . S
O60 Zn32 2.053 . S
O60 C38 1.244 . S
C61 O39 1.259 . S
C61 O40 1.254 . S
O62 Zn32 2.066 1_665 S
O62 C34 1.256 . S
O63 C34 1.244 . S
O63 Zn35 2.053 1_565 S
Zn64 O65 2.055 . S
Zn64 O72 2.046 . S
Zn64 N80 2.036 . S
Zn64 O92 2.053 . S
Zn64 O94 2.066 . S
O65 Zn64 2.055 . S
O65 C68 1.259 . S
C66 O94 1.256 . S
C66 O95 1.244 1_554 S
Zn67 O69 2.046 . S
Zn67 O71 2.055 . S
Zn67 N73 2.036 . S
Zn67 O91 2.066 . S
Zn67 O95 2.053 . S
C68 O65 1.259 . S
C68 O69 1.254 1_554 S
O69 Zn67 2.046 . S
O69 C68 1.254 1_556 S
C70 O91 1.256 1_554 S
C70 O92 1.244 . S
O71 Zn67 2.055 . S
O71 C93 1.259 1_556 S
O72 Zn64 2.046 . S
O72 C93 1.254 . S
N73 Zn67 2.036 . S
N73 C74 1.298 . S
N73 N76 1.398 . S
C74 N73 1.298 . S
C74 N77 1.367 . S
C74 C87 1.481 . S
C75 N76 1.299 . S
C75 N77 1.379 . S
N76 N73 1.398 . S
N76 C75 1.299 . S
N77 C74 1.367 . S
N77 C75 1.379 . S
C78 N80 1.298 . S
C78 N82 1.367 . S
C78 C86 1.481 . S
C79 N81 1.299 . S
C79 N82 1.379 . S
N80 Zn64 2.036 . S
N80 C78 1.298 . S
N80 N81 1.398 . S
N81 C79 1.299 . S
N81 N80 1.398 . S
N82 C78 1.367 . S
N82 C79 1.379 . S
H83 C86 0.980 . S
H84 C86 0.981 . S
H85 C86 0.981 . S
C86 C78 1.481 . S
C86 H83 0.980 . S
C86 H84 0.981 . S
C86 H85 0.981 . S
C87 C74 1.481 . S
C87 H88 0.980 . S
C87 H89 0.981 . S
C87 H90 0.981 . S
H88 C87 0.980 . S
H89 C87 0.981 . S
H90 C87 0.981 . S
O91 Zn67 2.066 . S
O91 C70 1.256 1_556 S
O92 Zn64 2.053 . S
O92 C70 1.244 . S
C93 O71 1.259 1_554 S
C93 O72 1.254 . S
O94 Zn64 2.066 . S
O94 C66 1.256 . S
O95 C66 1.244 1_556 S
O95 Zn67 2.053 . S
Zn96 O97 2.055 . S
Zn96 O104 2.046 . S
Zn96 N112 2.036 . S
Zn96 O124 2.053 . S
Zn96 O126 2.066 . S
O97 Zn96 2.055 . S
O97 C100 1.259 . S
C98 O126 1.256 . S
C98 O127 1.244 . S
Zn99 O101 2.046 . S
Zn99 O103 2.055 . S
Zn99 N105 2.036 . S
Zn99 O123 2.066 . S
Zn99 O127 2.053 . S
C100 O97 1.259 . S
C100 O101 1.254 . S
O101 Zn99 2.046 . S
O101 C100 1.254 . S
C102 O123 1.256 . S
C102 O124 1.244 . S
O103 Zn99 2.055 . S
O103 C125 1.259 . S
O104 Zn96 2.046 . S
O104 C125 1.254 . S
N105 Zn99 2.036 . S
N105 C106 1.298 . S
N105 N108 1.398 . S
C106 N105 1.298 . S
C106 N109 1.367 . S
C106 C119 1.481 . S
C107 N108 1.299 . S
C107 N109 1.379 . S
N108 N105 1.398 . S
N108 C107 1.299 . S
N109 C106 1.367 . S
N109 C107 1.379 . S
C110 N112 1.298 . S
C110 N114 1.367 . S
C110 C118 1.481 . S
C111 N113 1.299 . S
C111 N114 1.379 . S
N112 Zn96 2.036 . S
N112 C110 1.298 . S
N112 N113 1.398 . S
N113 C111 1.299 . S
N113 N112 1.398 . S
N114 C110 1.367 . S
N114 C111 1.379 . S
H115 C118 0.980 . S
H116 C118 0.981 . S
H117 C118 0.981 . S
C118 C110 1.481 . S
C118 H115 0.980 . S
C118 H116 0.981 . S
C118 H117 0.981 . S
C119 C106 1.481 . S
C119 H120 0.980 . S
C119 H121 0.981 . S
C119 H122 0.981 . S
H120 C119 0.980 . S
H121 C119 0.981 . S
H122 C119 0.981 . S
O123 Zn99 2.066 . S
O123 C102 1.256 . S
O124 Zn96 2.053 . S
O124 C102 1.244 . S
C125 O103 1.259 . S
C125 O104 1.254 . S
O126 Zn96 2.066 . S
O126 C98 1.256 . S
O127 C98 1.244 . S
O127 Zn99 2.053 . S
C128 C129 1.386 . S
C128 C130 1.383 . S
C128 H144 0.951 . S
C129 C128 1.386 . S
C129 C133 1.391 . S
C130 C128 1.383 . S
C130 C131 1.402 . S
C130 H145 0.951 . S
C131 C130 1.402 . S
C131 C132 1.375 . S
C131 C134 1.481 . S
C132 C131 1.375 . S
C132 C133 1.365 . S
C132 H146 0.951 1_554 S
C133 C129 1.391 . S
C133 C132 1.365 . S
C133 H147 0.944 1_554 S
C134 C131 1.481 . S
C134 C135 1.297 . S
C134 H148 0.950 . S
C135 C134 1.297 . S
C135 C136 1.479 . S
C135 H149 0.950 . S
C136 C135 1.479 . S
C136 C137 1.375 . S
C136 C142 1.404 . S
C137 C136 1.375 . S
C137 C138 1.369 . S
C137 H150 0.950 . S
C138 C137 1.369 . S
C138 C139 1.392 . S
C138 H151 0.951 1_455 S
C139 C138 1.392 . S
C139 C141 1.384 . S
H140 C142 0.949 . S
C141 C139 1.384 . S
C141 C142 1.385 . S
C141 H143 0.962 . S
C142 C136 1.404 . S
C142 H140 0.949 . S
C142 C141 1.385 . S
H143 C141 0.962 . S
H144 C128 0.951 . S
H145 C130 0.951 . S
H146 C132 0.951 1_556 S
H147 C133 0.944 1_556 S
H148 C134 0.950 . S
H149 C135 0.950 . S
H150 C137 0.950 . S
H151 C138 0.951 1_655 S
C152 C153 1.386 . S
C152 C154 1.383 . S
C152 H168 0.951 . S
C153 C152 1.386 . S
C153 C157 1.383 1_554 S
C154 C152 1.383 . S
C154 C155 1.402 1_554 S
C154 H169 0.951 . S
C155 C154 1.402 1_556 S
C155 C156 1.375 . S
C155 C158 1.481 . S
C156 C155 1.375 . S
C156 C157 1.367 . S
C156 H170 0.951 . S
C157 C153 1.383 1_556 S
C157 C156 1.367 . S
C157 H171 0.950 . S
C158 C155 1.481 . S
C158 C159 1.297 . S
C158 H172 0.950 . S
C159 C158 1.297 . S
C159 C160 1.479 . S
C159 H173 0.950 1_556 S
C160 C159 1.479 . S
C160 C161 1.375 1_556 S
C160 C166 1.404 . S
C161 C160 1.375 1_554 S
C161 C162 1.369 . S
C161 H174 0.950 . S
C162 C161 1.369 . S
C162 C163 1.392 . S
C162 H175 0.951 . S
C163 C162 1.392 . S
C163 C165 1.384 1_554 S
H164 C166 0.949 . S
C165 C163 1.384 1_556 S
C165 C166 1.385 . S
C165 H167 0.950 . S
C166 C160 1.404 . S
C166 H164 0.949 . S
C166 C165 1.385 . S
H167 C165 0.950 . S
H168 C152 0.951 . S
H169 C154 0.951 . S
H170 C156 0.951 . S
H171 C157 0.950 . S
H172 C158 0.950 . S
H173 C159 0.950 1_554 S
H174 C161 0.950 . S
H175 C162 0.951 . S
C176 C177 1.386 . S
C176 C178 1.383 . S
C176 H192 0.951 . S
C177 C176 1.386 . S
C177 C181 1.383 . S
C178 C176 1.383 . S
C178 C179 1.402 . S
C178 H193 0.951 . S
C179 C178 1.402 . S
C179 C180 1.375 . S
C179 C182 1.481 . S
C180 C179 1.375 . S
C180 C181 1.367 . S
C180 H194 0.951 . S
C181 C177 1.383 . S
C181 C180 1.367 . S
C181 H195 0.950 . S
C182 C179 1.481 . S
C182 C183 1.297 . S
C182 H196 0.950 . S
C183 C182 1.297 . S
C183 C184 1.479 . S
C183 H197 0.950 . S
C184 C183 1.479 . S
C184 C185 1.375 . S
C184 C190 1.404 . S
C185 C184 1.375 . S
C185 C186 1.369 . S
C185 H198 0.950 . S
C186 C185 1.369 . S
C186 C187 1.392 . S
C186 H199 0.951 . S
C187 C186 1.392 . S
C187 C189 1.384 . S
H188 C190 0.949 . S
C189 C187 1.384 . S
C189 C190 1.385 . S
C189 H191 0.950 . S
C190 C184 1.404 . S
C190 H188 0.949 . S
C190 C189 1.385 . S
H191 C189 0.950 . S
H192 C176 0.951 . S
H193 C178 0.951 . S
H194 C180 0.951 . S
H195 C181 0.950 . S
H196 C182 0.950 . S
H197 C183 0.950 . S
H198 C185 0.950 . S
H199 C186 0.951 . S
C200 C201 1.386 . S
C200 C202 1.383 . S
C200 H216 0.951 . S
C201 C200 1.386 . S
C201 C205 1.383 . S
C202 C200 1.383 . S
C202 C203 1.402 . S
C202 H217 0.951 . S
C203 C202 1.402 . S
C203 C204 1.375 . S
C203 C206 1.481 . S
C204 C203 1.375 . S
C204 C205 1.367 . S
C204 H218 0.951 . S
C205 C201 1.383 . S
C205 C204 1.367 . S
C205 H219 0.950 . S
C206 C203 1.481 . S
C206 C207 1.297 . S
C206 H220 0.950 . S
C207 C206 1.297 . S
C207 C208 1.479 . S
C207 H221 0.950 . S
C208 C207 1.479 . S
C208 C209 1.375 . S
C208 C214 1.404 . S
C209 C208 1.375 . S
C209 C210 1.369 . S
C209 H222 0.950 . S
C210 C209 1.369 . S
C210 C211 1.392 . S
C210 H223 0.951 . S
C211 C210 1.392 . S
C211 C213 1.384 . S
H212 C214 0.949 . S
C213 C211 1.384 . S
C213 C214 1.385 . S
C213 H215 0.950 . S
C214 C208 1.404 . S
C214 H212 0.949 . S
C214 C213 1.385 . S
H215 C213 0.950 . S
H216 C200 0.951 . S
H217 C202 0.951 . S
H218 C204 0.951 . S
H219 C205 0.950 . S
H220 C206 0.950 . S
H221 C207 0.950 . S
H222 C209 0.950 . S
H223 C210 0.951 . S
C224 C225 1.386 . S
C224 C226 1.383 . S
C224 H240 0.951 . S
C225 C224 1.386 . S
C225 C229 1.383 1_545 S
C226 C224 1.383 . S
C226 C227 1.402 . S
C226 H241 0.951 . S
C227 C226 1.402 . S
C227 C228 1.375 1_545 S
C227 C230 1.481 1_545 S
C228 C227 1.375 1_565 S
C228 C229 1.367 . S
C228 H242 0.951 . S
C229 C225 1.383 1_565 S
C229 C228 1.367 . S
C229 H243 0.950 . S
C230 C227 1.481 1_565 S
C230 C231 1.297 1_565 S
C230 H244 0.950 . S
C231 C230 1.297 1_545 S
C231 C232 1.479 . S
C231 H245 0.950 . S
C232 C231 1.479 . S
C232 C233 1.375 . S
C232 C238 1.404 1_545 S
C233 C232 1.375 . S
C233 C234 1.369 . S
C233 H246 0.950 . S
C234 C233 1.369 . S
C234 C235 1.392 1_545 S
C234 H247 0.951 . S
C235 C234 1.392 1_565 S
C235 C237 1.384 . S
H236 C238 0.949 . S
C237 C235 1.384 . S
C237 C238 1.385 . S
C237 H239 0.950 . S
C238 C232 1.404 1_565 S
C238 H236 0.949 . S
C238 C237 1.385 . S
H239 C237 0.950 . S
H240 C224 0.951 . S
H241 C226 0.951 . S
H242 C228 0.951 . S
H243 C229 0.950 . S
H244 C230 0.950 . S
H245 C231 0.950 . S
H246 C233 0.950 . S
H247 C234 0.951 . S
C248 C249 1.386 . S
C248 C250 1.383 . S
C248 H264 0.951 . S
C249 C248 1.386 . S
C249 C253 1.383 . S
C250 C248 1.383 . S
C250 C251 1.402 . S
C250 H265 0.951 . S
C251 C250 1.402 . S
C251 C252 1.375 . S
C251 C254 1.481 . S
C252 C251 1.375 . S
C252 C253 1.367 . S
C252 H266 0.951 . S
C253 C249 1.383 . S
C253 C252 1.367 . S
C253 H267 0.950 . S
C254 C251 1.481 . S
C254 C255 1.297 . S
C254 H268 0.950 . S
C255 C254 1.297 . S
C255 C256 1.479 . S
C255 H269 0.950 . S
C256 C255 1.479 . S
C256 C257 1.375 . S
C256 C262 1.404 . S
C257 C256 1.375 . S
C257 C258 1.369 . S
C257 H270 0.950 . S
C258 C257 1.369 . S
C258 C259 1.392 . S
C258 H271 0.951 . S
C259 C258 1.392 . S
C259 C261 1.384 . S
H260 C262 0.949 . S
C261 C259 1.384 . S
C261 C262 1.385 . S
C261 H263 0.950 . S
C262 C256 1.404 . S
C262 H260 0.949 . S
C262 C261 1.385 . S
H263 C261 0.950 . S
H264 C248 0.951 . S
H265 C250 0.951 . S
H266 C252 0.951 . S
H267 C253 0.950 . S
H268 C254 0.950 . S
H269 C255 0.950 . S
H270 C257 0.950 . S
H271 C258 0.951 . S
C272 C273 1.386 1_556 S
C272 C274 1.383 . S
C272 H288 0.951 . S
C273 C272 1.386 1_554 S
C273 C277 1.383 . S
C274 C272 1.383 . S
C274 C275 1.402 1_556 S
C274 H289 0.951 . S
C275 C274 1.402 1_554 S
C275 C276 1.375 . S
C275 C278 1.481 . S
C276 C275 1.375 . S
C276 C277 1.367 . S
C276 H290 0.951 . S
C277 C273 1.383 . S
C277 C276 1.367 . S
C277 H291 0.950 . S
C278 C275 1.481 . S
C278 C279 1.297 1_655 S
C278 H292 0.950 . S
C279 C278 1.297 1_455 S
C279 C280 1.479 . S
C279 H293 0.950 1_554 S
C280 C279 1.479 . S
C280 C281 1.375 1_554 S
C280 C286 1.404 . S
C281 C280 1.375 1_556 S
C281 C282 1.369 . S
C281 H294 0.950 . S
C282 C281 1.369 . S
C282 C283 1.392 1_556 S
C282 H295 0.951 . S
C283 C282 1.392 1_554 S
C283 C285 1.384 . S
H284 C286 0.949 . S
C285 C283 1.384 . S
C285 C286 1.385 . S
C285 H287 0.950 . S
C286 C280 1.404 . S
C286 H284 0.949 . S
C286 C285 1.385 . S
H287 C285 0.950 . S
H288 C272 0.951 . S
H289 C274 0.951 . S
H290 C276 0.951 . S
H291 C277 0.950 . S
H292 C278 0.950 . S
H293 C279 0.950 1_556 S
H294 C281 0.950 . S
H295 C282 0.951 . S
C296 C297 1.386 . S
C296 C298 1.383 . S
C296 H312 0.951 . S
C297 C296 1.386 . S
C297 C301 1.383 . S
C298 C296 1.383 . S
C298 C299 1.402 . S
C298 H313 0.951 . S
C299 C298 1.402 . S
C299 C300 1.375 . S
C299 C302 1.481 . S
C300 C299 1.375 . S
C300 C301 1.367 . S
C300 H314 0.951 . S
C301 C297 1.383 . S
C301 C300 1.367 . S
C301 H315 0.950 . S
C302 C299 1.481 . S
C302 C303 1.297 1_455 S
C302 H316 0.950 . S
C303 C302 1.297 1_655 S
C303 C304 1.479 . S
C303 H317 0.950 . S
C304 C303 1.479 . S
C304 C305 1.375 . S
C304 C310 1.404 . S
C305 C304 1.375 . S
C305 C306 1.369 . S
C305 H318 0.950 . S
C306 C305 1.369 . S
C306 C307 1.392 . S
C306 H319 0.951 . S
C307 C306 1.392 . S
C307 C309 1.384 . S
H308 C310 0.949 . S
C309 C307 1.384 . S
C309 C310 1.385 . S
C309 H311 0.950 . S
C310 C304 1.404 . S
C310 H308 0.949 . S
C310 C309 1.385 . S
H311 C309 0.950 . S
H312 C296 0.951 . S
H313 C298 0.951 . S
H314 C300 0.951 . S
H315 C301 0.950 . S
H316 C302 0.950 . S
H317 C303 0.950 . S
H318 C305 0.950 . S
H319 C306 0.951 . S
C320 C321 1.386 . S
C320 C322 1.383 . S
C320 H336 0.951 1_545 S
C321 C320 1.386 . S
C321 C325 1.383 1_455 S
C322 C320 1.383 . S
C322 C323 1.402 . S
C322 H337 0.951 1_545 S
C323 C322 1.402 . S
C323 C324 1.375 1_455 S
C323 C326 1.481 1_455 S
C324 C323 1.375 1_655 S
C324 C325 1.367 . S
C324 H338 0.951 . S
C325 C321 1.383 1_655 S
C325 C324 1.367 . S
C325 H339 0.950 . S
C326 C323 1.481 1_655 S
C326 C327 1.297 1_655 S
C326 H340 0.950 . S
C327 C326 1.297 1_455 S
C327 C328 1.479 . S
C327 H341 0.950 1_545 S
C328 C327 1.479 . S
C328 C329 1.375 1_545 S
C328 C334 1.404 1_455 S
C329 C328 1.375 1_565 S
C329 C330 1.369 . S
C329 H342 0.950 . S
C330 C329 1.369 . S
C330 C331 1.392 1_565 S
C330 H343 0.951 . S
C331 C330 1.392 1_545 S
C331 C333 1.384 1_455 S
H332 C334 0.949 . S
C333 C331 1.384 1_655 S
C333 C334 1.385 . S
C333 H335 0.950 . S
C334 C328 1.404 1_655 S
C334 H332 0.949 . S
C334 C333 1.385 . S
H335 C333 0.950 . S
H336 C320 0.951 1_565 S
H337 C322 0.951 1_565 S
H338 C324 0.951 . S
H339 C325 0.950 . S
H340 C326 0.950 . S
H341 C327 0.950 1_565 S
H342 C329 0.950 . S
H343 C330 0.951 . S
C344 C345 1.386 . S
C344 C346 1.383 . S
C344 H360 0.951 1_545 S
C345 C344 1.386 . S
C345 C349 1.383 1_655 S
C346 C344 1.383 . S
C346 C347 1.402 . S
C346 H361 0.951 1_545 S
C347 C346 1.402 . S
C347 C348 1.375 1_655 S
C347 C350 1.481 . S
C348 C347 1.375 1_455 S
C348 C349 1.367 . S
C348 H362 0.951 . S
C349 C345 1.383 1_455 S
C349 C348 1.367 . S
C349 H363 0.950 . S
C350 C347 1.481 . S
C350 C351 1.297 . S
C350 H364 0.950 1_655 S
C351 C350 1.297 . S
C351 C352 1.479 . S
C351 H365 0.950 . S
C352 C351 1.479 . S
C352 C353 1.375 . S
C352 C358 1.404 1_655 S
C353 C352 1.375 . S
C353 C354 1.369 . S
C353 H366 0.950 1_545 S
C354 C353 1.369 . S
C354 C355 1.392 . S
C354 H367 0.951 1_545 S
C355 C354 1.392 . S
C355 C357 1.384 1_655 S
H356 C358 0.949 . S
C357 C355 1.384 1_455 S
C357 C358 1.385 . S
C357 H359 0.950 . S
C358 C352 1.404 1_455 S
C358 H356 0.949 . S
C358 C357 1.385 . S
H359 C357 0.950 . S
H360 C344 0.951 1_565 S
H361 C346 0.951 1_565 S
H362 C348 0.951 . S
H363 C349 0.950 . S
H364 C350 0.950 1_455 S
H365 C351 0.950 . S
H366 C353 0.950 1_565 S
H367 C354 0.951 1_565 S
C368 C369 1.386 . S
C368 C370 1.383 . S
C368 H384 0.951 . S
C369 C368 1.386 . S
C369 C373 1.383 . S
C370 C368 1.383 . S
C370 C371 1.402 . S
C370 H385 0.951 . S
C371 C370 1.402 . S
C371 C372 1.375 . S
C371 C374 1.481 . S
C372 C371 1.375 . S
C372 C373 1.367 . S
C372 H386 0.951 . S
C373 C369 1.383 . S
C373 C372 1.367 . S
C373 H387 0.950 . S
C374 C371 1.481 . S
C374 C375 1.297 . S
C374 H388 0.950 . S
C375 C374 1.297 . S
C375 C376 1.479 . S
C375 H389 0.950 . S
C376 C375 1.479 . S
C376 C377 1.375 . S
C376 C382 1.404 . S
C377 C376 1.375 . S
C377 C378 1.369 . S
C377 H390 0.950 . S
C378 C377 1.369 . S
C378 C379 1.392 . S
C378 H391 0.951 . S
C379 C378 1.392 . S
C379 C381 1.384 . S
H380 C382 0.949 . S
C381 C379 1.384 . S
C381 C382 1.385 . S
C381 H383 0.950 . S
C382 C376 1.404 . S
C382 H380 0.949 . S
C382 C381 1.385 . S
H383 C381 0.950 . S
H384 C368 0.951 . S
H385 C370 0.951 . S
H386 C372 0.951 . S
H387 C373 0.950 . S
H388 C374 0.950 . S
H389 C375 0.950 . S
H390 C377 0.950 . S
H391 C378 0.951 . S
C392 C393 1.386 . S
C392 C394 1.383 . S
C392 H408 0.951 . S
C393 C392 1.386 . S
C393 C397 1.383 . S
C394 C392 1.383 . S
C394 C395 1.402 . S
C394 H409 0.951 . S
C395 C394 1.402 . S
C395 C396 1.375 . S
C395 C398 1.481 . S
C396 C395 1.375 . S
C396 C397 1.367 . S
C396 H410 0.951 . S
C397 C393 1.383 . S
C397 C396 1.367 . S
C397 H411 0.950 . S
C398 C395 1.481 . S
C398 C399 1.297 . S
C398 H412 0.950 . S
C399 C398 1.297 . S
C399 C400 1.479 . S
C399 H413 0.950 . S
C400 C399 1.479 . S
C400 C401 1.375 . S
C400 C406 1.404 . S
C401 C400 1.375 . S
C401 C402 1.369 . S
C401 H414 0.950 . S
C402 C401 1.369 . S
C402 C403 1.392 . S
C402 H415 0.951 . S
C403 C402 1.392 . S
C403 C405 1.384 . S
H404 C406 0.949 . S
C405 C403 1.384 . S
C405 C406 1.385 . S
C405 H407 0.950 . S
C406 C400 1.404 . S
C406 H404 0.949 . S
C406 C405 1.385 . S
H407 C405 0.950 . S
H408 C392 0.951 . S
H409 C394 0.951 . S
H410 C396 0.951 . S
H411 C397 0.950 . S
H412 C398 0.950 . S
H413 C399 0.950 . S
H414 C401 0.950 . S
H415 C402 0.951 . S
C129 C70 1.564 . S
C139 C4 1.548 . S
C153 C68 1.559 . S
C163 C6 1.531 . S
C177 C61 1.559 . S
C187 C98 1.563 . S
C201 C34 1.552 . S
C211 C125 1.544 . S
C225 C2 0.793 . S
C235 C29 0.781 . S
C249 C38 0.780 . S
C259 C36 0.807 . S
C273 C66 0.823 . S
C283 C93 0.785 . S
C297 C100 0.798 . S
C307 C102 0.770 . S
C321 N45 1.446 . S
C331 N18 1.447 . S
C345 N13 1.466 1_655 S
C355 N50 1.462 1_655 S
C369 N109 1.470 . S
C379 N82 1.512 . S
C393 N114 1.444 . S
C403 N77 1.440 . S
