# Generated by pormake.
# Topology sqp, (5)-cn, num edge types: 1
# Building blocks:
#     Node 0, Type 0, BuildingBlock: XOMCOT_clean_sbu_0, # of connection points: 5
#     Node 1, Type 0, BuildingBlock: XOMCOT_clean_sbu_0, # of connection points: 5
#     Node 2, Type 0, BuildingBlock: XOMCOT_clean_sbu_0, # of connection points: 5
#     Node 3, Type 0, BuildingBlock: XOMCOT_clean_sbu_0, # of connection points: 5
#     Edge 4, Type (0, 0), BuildingBlock: XUDNAN_clean_linker_2, # of connection points: 2
#     Edge 5, Type (0, 0), BuildingBlock: XUDNAN_clean_linker_2, # of connection points: 2
#     Edge 6, Type (0, 0), BuildingBlock: XUDNAN_clean_linker_2, # of connection points: 2
#     Edge 7, Type (0, 0), BuildingBlock: XUDNAN_clean_linker_2, # of connection points: 2
#     Edge 8, Type (0, 0), BuildingBlock: XUDNAN_clean_linker_2, # of connection points: 2
#     Edge 9, Type (0, 0), BuildingBlock: XUDNAN_clean_linker_2, # of connection points: 2
#     Edge 10, Type (0, 0), BuildingBlock: XUDNAN_clean_linker_2, # of connection points: 2
#     Edge 11, Type (0, 0), BuildingBlock: XUDNAN_clean_linker_2, # of connection points: 2
#     Edge 12, Type (0, 0), BuildingBlock: XUDNAN_clean_linker_2, # of connection points: 2
#     Edge 13, Type (0, 0), BuildingBlock: XUDNAN_clean_linker_2, # of connection points: 2
# Relax obj value: 0.120
# Max RMSD: 0.201
# Mean RMSD: 0.201
data_MOF--net-sqp--node1-XOMCOT_clean_sbu_0--edge1-XUDNAN_clean_linker_2
_symmetry_space_group_name_H-M    P1
_symmetry_Int_Tables_number       1
_symmetry_cell_setting            triclinic
loop_
_symmetry_equiv_pos_as_xyz
'x, y, z'
_cell_length_a     24.357078
_cell_length_b     19.235797
_cell_length_c     46.539539
_cell_angle_alpha  89.915893
_cell_angle_beta   89.512345
_cell_angle_gamma 90.092897
loop_
_atom_site_label
_atom_site_type_symbol
_atom_site_fract_x
_atom_site_fract_y
_atom_site_fract_z
_atom_type_partial_charge
Co0 Co 0.02129 0.98654 0.31221 0.0
C1 C 0.9273 0.08499 0.30569 0.0
C2 C 0.99547 0.10889 0.27778 0.0
C3 C 0.95362 0.15401 0.27183 0.0
N4 N 0.9793 0.06565 0.29903 0.0
N5 N 0.91054 0.13882 0.28912 0.0
H6 H 0.9016 0.05838 0.32129 0.0
H7 H 0.0343 0.10651 0.26644 0.0
C8 C 0.1394 0.03831 0.30723 0.0
O9 O 0.15353 1.01097 0.33197 0.0
N10 N 0.06456 0.9068 0.32409 0.0
C11 C 0.06198 0.86946 0.34864 0.0
C12 C 0.10052 0.8173 0.34733 0.0
C13 C 0.1036 0.87524 0.3079 0.0
N14 N 0.12665 0.82102 0.32173 0.0
C15 C 0.98959 0.99908 0.37113 0.0
C16 C 0.05712 0.10795 0.38636 0.0
C17 C 0.02634 0.07406 0.40792 0.0
C18 C 0.99074 0.02081 0.3996 0.0
C19 C 0.05442 0.08453 0.35775 0.0
N20 N 0.02375 0.02737 0.35081 0.0
H21 H 0.96201 0.9573 0.36586 0.0
H22 H 0.077 0.11266 0.34146 0.0
H23 H 0.03405 0.87792 0.36632 0.0
H24 H 0.11576 0.89271 0.28665 0.0
O25 O 0.95486 0.93326 0.31674 0.0
O26 O 1.00423 0.9379 0.27669 0.0
O27 O 0.09008 0.03439 0.29835 0.0
C28 C 0.96126 0.91383 0.29026 0.0
H29 H 0.95462 0.19431 0.25558 0.0
H30 H 0.10835 0.77903 0.36387 0.0
H31 H 0.08383 0.15109 0.39158 0.0
H32 H 0.96398 0.99531 0.41507 0.0
Co33 Co 0.02672 0.02113 0.71906 0.0
C34 C 0.12284 0.119 0.71816 0.0
C35 C 0.05572 0.15392 0.74467 0.0
C36 C 0.09863 0.19911 0.74792 0.0
N37 N 0.07042 0.10372 0.72597 0.0
N38 N 0.14094 0.17715 0.73151 0.0
H39 H 0.14817 0.08615 0.70464 0.0
H40 H 0.01769 0.15551 0.75673 0.0
C41 C 0.90819 0.07081 0.72379 0.0
O42 O 0.88971 0.02027 0.70762 0.0
N43 N 0.98158 0.93815 0.71375 0.0
C44 C 0.96493 0.90539 0.68964 0.0
C45 C 0.92834 0.85334 0.69714 0.0
C46 C 0.95497 0.90494 0.73541 0.0
N47 N 0.92229 0.85324 0.72594 0.0
C48 C 0.05369 1.00807 0.65949 0.0
C49 C 0.99579 0.12151 0.63963 0.0
C50 C 0.02524 0.08078 0.61976 0.0
C51 C 0.05502 0.02401 0.63026 0.0
C52 C 0.99562 0.10372 0.66891 0.0
N53 N 0.02287 0.04607 0.67841 0.0
H54 H 0.07668 0.96362 0.66677 0.0
H55 H 0.97427 0.13725 0.68379 0.0
H56 H 0.97605 0.9192 0.66792 0.0
H57 H 0.95715 0.92072 0.75767 0.0
O58 O 0.09246 0.96567 0.71759 0.0
O59 O 0.04519 0.98814 0.75738 0.0
O60 O 0.95927 0.07671 0.72925 0.0
C61 C 0.0872 0.9582 0.74518 0.0
H62 H 0.09961 0.24319 0.76236 0.0
H63 H 0.90732 0.81886 0.68252 0.0
H64 H 0.9727 0.16643 0.63265 0.0
H65 H 0.07975 0.99213 0.61603 0.0
Co66 Co 0.51426 0.52589 0.81068 0.0
C67 C 0.42528 0.63263 0.81006 0.0
C68 C 0.49298 0.65679 0.78193 0.0
C69 C 0.45347 0.70654 0.77856 0.0
N70 N 0.47563 0.61063 0.80171 0.0
N71 N 0.41048 0.69178 0.79614 0.0
H72 H 0.39975 0.60462 0.82527 0.0
H73 H 0.53081 0.65299 0.76973 0.0
C74 C 0.62983 0.57634 0.81755 0.0
O75 O 0.63123 0.54023 0.84153 0.0
N76 N 0.55446 0.43992 0.81762 0.0
C77 C 0.53785 0.37991 0.83022 0.0
C78 C 0.57653 0.32889 0.8249 0.0
C79 C 0.60143 0.42295 0.80375 0.0
N80 N 0.61662 0.35672 0.80845 0.0
C81 C 0.49054 0.50913 0.8706 0.0
C82 C 0.53434 0.63316 0.88956 0.0
C83 C 0.51227 0.58656 0.90994 0.0
C84 C 0.48895 0.5247 0.89982 0.0
C85 C 0.53453 0.61566 0.86025 0.0
N86 N 0.51547 0.55242 0.85126 0.0
H87 H 0.47006 0.4628 0.86356 0.0
H88 H 0.55034 0.65285 0.84483 0.0
H89 H 0.49884 0.37137 0.84078 0.0
H90 H 0.62262 0.45701 0.78884 0.0
O91 O 0.44632 0.47552 0.81163 0.0
O92 O 0.49712 0.49015 0.77244 0.0
O93 O 0.58632 0.57601 0.80228 0.0
C94 C 0.45347 0.46294 0.7845 0.0
H95 H 0.45595 0.74845 0.76313 0.0
H96 H 0.57464 0.27528 0.83195 0.0
H97 H 0.55185 0.68233 0.89614 0.0
H98 H 0.46853 0.48869 0.91429 0.0
Co99 Co 0.52706 0.4882 0.21838 0.0
C100 C 0.62344 0.58217 0.22611 0.0
C101 C 0.54838 0.62834 0.24117 0.0
C102 C 0.59053 0.67385 0.24622 0.0
N103 N 0.5688 0.57042 0.22874 0.0
N104 N 0.63772 0.64479 0.23694 0.0
H105 H 0.6524 0.54521 0.21726 0.0
H106 H 0.50587 0.63769 0.2466 0.0
C107 C 0.40813 0.53712 0.22571 0.0
O108 O 0.392 0.5079 0.20171 0.0
N109 N 0.48483 0.40606 0.20856 0.0
C110 C 0.4902 0.36507 0.18521 0.0
C111 C 0.4527 0.31181 0.18712 0.0
C112 C 0.4453 0.37552 0.22483 0.0
N113 N 0.42442 0.31851 0.21197 0.0
C114 C 0.5547 0.49832 0.15877 0.0
C115 C 0.48364 0.60335 0.14357 0.0
C116 C 0.5151 0.5711 0.12191 0.0
C117 C 0.55229 0.5196 0.13022 0.0
C118 C 0.48788 0.58076 0.17224 0.0
N119 N 0.52054 0.52555 0.17927 0.0
H120 H 0.58408 0.45868 0.16408 0.0
H121 H 0.46525 0.60851 0.18854 0.0
H122 H 0.51966 0.37174 0.16806 0.0
H123 H 0.43135 0.39542 0.24537 0.0
O124 O 0.59395 0.43561 0.21333 0.0
O125 O 0.54791 0.44361 0.25426 0.0
O126 O 0.45832 0.5345 0.23335 0.0
C127 C 0.58977 0.41838 0.24022 0.0
H128 H 0.58671 0.72458 0.25606 0.0
H129 H 0.44707 0.27073 0.17155 0.0
H130 H 0.45554 0.64503 0.13847 0.0
H131 H 0.57981 0.49561 0.11477 0.0
H132 H 0.02866 0.98406 0.45335 0.0
H133 H 0.03424 0.20413 0.43303 0.0
H134 H 0.03539 0.23134 0.48513 0.0
H135 H 0.93711 0.99728 0.51291 0.0
H136 H 0.97002 0.9293 0.53311 0.0
H137 H 0.97266 0.92815 0.49445 0.0
H138 H 0.07898 0.92349 0.49578 0.0
H139 H 0.07668 0.92437 0.53446 0.0
H140 H 0.11607 0.98917 0.51528 0.0
H141 H 0.03211 0.233 0.54056 0.0
H142 H 0.02897 0.20903 0.59286 0.0
H143 H 0.0217 0.98778 0.57521 0.0
C144 C 0.02994 0.03814 0.45974 0.0
C145 C 0.03093 0.092 0.43901 0.0
C146 C 0.03381 0.16193 0.44845 0.0
C147 C 0.03413 0.17784 0.47801 0.0
C148 C 0.03178 0.12323 0.49783 0.0
C149 C 0.03006 0.05477 0.48894 0.0
C150 C 0.02695 1.00524 0.51417 0.0
C151 C 0.97351 0.9625 0.51362 0.0
C152 C 0.0777 0.95779 0.51496 0.0
C153 C 0.0269 0.05629 0.53883 0.0
C154 C 0.02975 0.12416 0.52914 0.0
C155 C 0.02993 0.17997 0.54828 0.0
C156 C 0.02771 0.16586 0.57799 0.0
C157 C 0.02534 0.09646 0.58831 0.0
C158 C 0.02447 0.04139 0.56822 0.0
H159 H 0.52085 0.48339 0.07562 0.0
H160 H 0.49796 0.70079 0.09745 0.0
H161 H 0.49434 0.72991 0.04562 0.0
H162 H 0.61141 0.51273 0.01605 0.0
H163 H 0.58445 0.44128 0.99547 0.0
H164 H 0.58236 0.43815 0.03413 0.0
H165 H 0.47712 0.41807 0.03294 0.0
H166 H 0.47888 0.42105 0.99427 0.0
H167 H 0.43427 0.47885 1.01399 0.0
H168 H 0.49517 0.73418 0.99017 0.0
H169 H 0.49815 0.71274 0.93772 0.0
H170 H 0.52705 0.4936 0.95397 0.0
C171 C 0.51553 0.53738 0.06969 0.0
C172 C 0.51006 0.58979 0.09083 0.0
C173 C 0.50176 0.65945 0.08181 0.0
C174 C 0.50005 0.67657 0.05237 0.0
C175 C 0.50677 0.62352 0.03218 0.0
C176 C 0.51429 0.55533 0.04061 0.0
C177 C 0.52144 0.50768 1.01503 0.0
C178 C 0.5783 0.47294 1.01519 0.0
C179 C 0.47517 0.45322 1.01401 0.0
C180 C 0.51675 0.5595 0.99074 0.0
C181 C 0.50815 0.6261 1.00088 0.0
C182 C 0.50206 0.68217 0.98209 0.0
C183 C 0.50425 0.66955 0.95228 0.0
C184 C 0.51259 0.60137 0.94148 0.0
C185 C 0.51957 0.5462 0.96125 0.0
H186 H 0.23327 0.10972 0.32322 0.0
H187 H 0.13636 0.04984 0.24936 0.0
H188 H 0.19954 0.1141 0.21748 0.0
H189 H 0.26164 0.28345 0.2986 0.0
H190 H 0.33072 0.28617 0.31215 0.0
H191 H 0.27981 0.2323 0.32958 0.0
H192 H 0.3424 0.12463 0.32308 0.0
H193 H 0.39364 0.17826 0.30576 0.0
H194 H 0.36742 0.10248 0.2877 0.0
H195 H 0.27128 0.18409 0.19342 0.0
H196 H 0.34798 0.25972 0.17828 0.0
H197 H 0.39846 0.28036 0.26702 0.0
C198 C 0.22591 0.10961 0.3003 0.0
C199 C 0.18002 0.07457 0.28874 0.0
C200 C 0.17113 0.07647 0.2587 0.0
C201 C 0.20684 0.11271 0.24038 0.0
C202 C 0.25116 0.14747 0.25238 0.0
C203 C 0.26093 0.14667 0.28159 0.0
C204 C 0.31075 0.19092 0.28871 0.0
C205 C 0.29475 0.25182 0.30843 0.0
C206 C 0.35625 0.1464 0.3021 0.0
C207 C 0.32718 0.21641 0.25893 0.0
C208 C 0.29229 0.19008 0.23837 0.0
C209 C 0.299 0.20501 0.20928 0.0
C210 C 0.34279 0.24775 0.20088 0.0
C211 C 0.3792 0.27566 0.22143 0.0
C212 C 0.37095 0.26013 0.2509 0.0
H213 H 0.86256 0.19378 0.24209 0.0
H214 H 0.83743 0.15753 0.33319 0.0
H215 H 0.74921 0.22204 0.33098 0.0
H216 H 0.81442 0.36603 0.24072 0.0
H217 H 0.78287 0.35813 0.20599 0.0
H218 H 0.84115 0.30507 0.21477 0.0
H219 H 0.78532 0.19389 0.20309 0.0
H220 H 0.72687 0.24666 0.19413 0.0
H221 H 0.72026 0.17918 0.22085 0.0
H222 H 0.66547 0.29833 0.31834 0.0
H223 H 0.59463 0.37411 0.29657 0.0
H224 H 0.6785 0.35903 0.21423 0.0
C225 C 0.8387 0.19932 0.26166 0.0
C226 C 0.85717 0.17118 0.28791 0.0
C227 C 0.82391 0.1784 0.31284 0.0
C228 C 0.77394 0.21519 0.31176 0.0
C229 C 0.75773 0.24377 0.28554 0.0
C230 C 0.78917 0.23554 0.26093 0.0
C231 C 0.76413 0.27219 0.23548 0.0
C232 C 0.80296 0.3287 0.22356 0.0
C233 C 0.74819 0.21985 0.21201 0.0
C234 C 0.71396 0.30364 0.24956 0.0
C235 C 0.7105 0.28664 0.2784 0.0
C236 C 0.66777 0.31146 0.29574 0.0
C237 C 0.62778 0.35454 0.28323 0.0
C238 C 0.63101 0.37247 0.25372 0.0
C239 C 0.6747 0.34629 0.23684 0.0
H240 H 0.67239 0.72636 0.28025 0.0
H241 H 0.72548 0.62951 0.20078 0.0
H242 H 0.81654 0.6868 0.20534 0.0
H243 H 0.73695 0.88952 0.26895 0.0
H244 H 0.75449 0.90089 0.30619 0.0
H245 H 0.69514 0.85028 0.29673 0.0
H246 H 0.73312 0.74527 0.32535 0.0
H247 H 0.7925 0.79568 0.33501 0.0
H248 H 0.801 0.71312 0.31726 0.0
H249 H 0.90078 0.76222 0.21817 0.0
H250 H 0.97063 0.84064 0.23947 0.0
H251 H 0.8594 0.88359 0.31049 0.0
C252 C 0.70302 0.7173 0.26371 0.0
C253 C 0.6918 0.67411 0.24001 0.0
C254 C 0.73344 0.6623 0.21916 0.0
C255 C 0.78505 0.69488 0.22153 0.0
C256 C 0.79429 0.73836 0.24503 0.0
C257 C 0.75436 0.74882 0.26585 0.0
C258 C 0.77368 0.79758 0.28906 0.0
C259 C 0.73794 0.86345 0.29028 0.0
C260 C 0.77518 0.76068 0.3184 0.0
C261 C 0.83075 0.81364 0.27807 0.0
C262 C 0.84217 0.77954 0.25259 0.0
C263 C 0.89227 0.78865 0.23822 0.0
C264 C 0.93159 0.83338 0.25039 0.0
C265 C 0.9205 0.86773 0.27669 0.0
C266 C 0.86938 0.8575 0.29051 0.0
H267 H 0.1479 0.77505 0.26726 0.0
H268 H 0.20762 0.77 0.35474 0.0
H269 H 0.28476 0.69548 0.33942 0.0
H270 H 0.18103 0.59584 0.25067 0.0
H271 H 0.20136 0.61352 0.21405 0.0
H272 H 0.15098 0.66774 0.23155 0.0
H273 H 0.21005 0.77671 0.22041 0.0
H274 H 0.26052 0.72288 0.20279 0.0
H275 H 0.2806 0.77922 0.23179 0.0
H276 H 0.35633 0.62519 0.31499 0.0
H277 H 0.41755 0.55862 0.28299 0.0
H278 H 0.31096 0.60267 0.21093 0.0
C279 C 0.17748 0.75844 0.28306 0.0
C280 C 0.1718 0.7782 0.31224 0.0
C281 C 0.21089 0.75485 0.3324 0.0
C282 C 0.25495 0.71278 0.32387 0.0
C283 C 0.25919 0.69376 0.29508 0.0
C284 C 0.22149 0.71534 0.27494 0.0
C285 C 0.23548 0.68596 0.24547 0.0
C286 C 0.18947 0.6379 0.23481 0.0
C287 C 0.24737 0.7447 0.22384 0.0
C288 C 0.28714 0.64508 0.25222 0.0
C289 C 0.30001 0.65084 0.28099 0.0
C290 C 0.34654 0.61988 0.29246 0.0
C291 C 0.38112 0.58225 0.27406 0.0
C292 C 0.36894 0.57508 0.24449 0.0
C293 C 0.32095 0.60651 0.2335 0.0
H294 H 0.38539 0.81479 0.76972 0.0
H295 H 0.31531 0.65335 0.82434 0.0
H296 H 0.22542 0.71183 0.82182 0.0
H297 H 0.30252 0.95998 0.79513 0.0
H298 H 0.29709 0.99624 0.75954 0.0
H299 H 0.35719 0.94738 0.76932 0.0
H300 H 0.3421 0.86512 0.72598 0.0
H301 H 0.28215 0.91363 0.71608 0.0
H302 H 0.27706 0.82131 0.72226 0.0
H303 H 0.14036 0.78621 0.81031 0.0
H304 H 0.06986 0.86215 0.78801 0.0
H305 H 0.19698 0.96506 0.7381 0.0
C306 C 0.35185 0.79097 0.78139 0.0
C307 C 0.35842 0.72843 0.79709 0.0
C308 C 0.31226 0.70107 0.81219 0.0
C309 C 0.26073 0.73409 0.81092 0.0
C310 C 0.25582 0.79446 0.79447 0.0
C311 C 0.30037 0.82229 0.77994 0.0
C312 C 0.2842 0.88363 0.76154 0.0
C313 C 0.31189 0.95077 0.77202 0.0
C314 C 0.29712 0.87005 0.72959 0.0
C315 C 0.22315 0.88505 0.76727 0.0
C316 C 0.2074 0.83455 0.78688 0.0
C317 C 0.15245 0.82601 0.79505 0.0
C318 C 0.11276 0.86933 0.78242 0.0
C319 C 0.12839 0.91891 0.76141 0.0
C320 C 0.18419 0.92725 0.7541 0.0
H321 H 0.19445 0.21529 0.77901 0.0
H322 H 0.20967 0.20577 0.68646 0.0
H323 H 0.29691 0.27348 0.68895 0.0
H324 H 0.23492 0.38577 0.78696 0.0
H325 H 0.27114 0.37235 0.82012 0.0
H326 H 0.21515 0.31596 0.8108 0.0
H327 H 0.27845 0.20829 0.8155 0.0
H328 H 0.33461 0.26434 0.82523 0.0
H329 H 0.34202 0.20524 0.79543 0.0
H330 H 0.37913 0.35433 0.70284 0.0
H331 H 0.44683 0.43267 0.72623 0.0
H332 H 0.37219 0.38695 0.80905 0.0
C333 C 0.2167 0.22641 0.7593 0.0
C334 C 0.19559 0.20567 0.73255 0.0
C335 C 0.22572 0.22081 0.70717 0.0
C336 C 0.275 0.25947 0.70845 0.0
C337 C 0.2936 0.28157 0.73532 0.0
C338 C 0.2654 0.26442 0.76027 0.0
C339 C 0.29116 0.29668 0.78643 0.0
C340 C 0.25068 0.34558 0.80197 0.0
C341 C 0.31286 0.24028 0.80684 0.0
C342 C 0.33756 0.33662 0.77246 0.0
C343 C 0.33916 0.32719 0.74303 0.0
C344 C 0.37829 0.36137 0.7259 0.0
C345 C 0.41647 0.40593 0.73931 0.0
C346 C 0.41466 0.4163 0.76943 0.0
C347 C 0.37473 0.38065 0.78596 0.0
H348 H 0.79852 0.05607 0.73771 0.0
H349 H 0.93252 0.20513 0.73631 0.0
H350 H 0.87212 0.29326 0.75817 0.0
H351 H 0.68947 0.17897 0.72171 0.0
H352 H 0.64043 0.13835 0.74563 0.0
H353 H 0.69363 0.08704 0.72895 0.0
H354 H 0.72499 0.04495 0.77907 0.0
H355 H 0.67214 0.09649 0.79594 0.0
H356 H 0.74285 0.10808 0.80604 0.0
H357 H 0.79874 0.36506 0.78001 0.0
H358 H 0.71538 0.4173 0.80118 0.0
H359 H 0.62802 0.22263 0.79014 0.0
C360 C 0.81482 0.1075 0.74177 0.0
C361 C 0.87025 0.12379 0.73541 0.0
C362 C 0.8904 0.19133 0.74131 0.0
C363 C 0.85636 0.24184 0.75362 0.0
C364 C 0.80227 0.22397 0.76007 0.0
C365 C 0.78142 0.15859 0.75442 0.0
C366 C 0.72194 0.153 0.7642 0.0
C367 C 0.68414 0.1385 0.73859 0.0
C368 C 0.71511 0.09732 0.78771 0.0
C369 C 0.71281 0.22548 0.77616 0.0
C370 C 0.75976 0.26545 0.77337 0.0
C371 C 0.76168 0.33439 0.78231 0.0
C372 C 0.71415 0.36364 0.79422 0.0
C373 C 0.66538 0.32403 0.79726 0.0
C374 C 0.66494 0.25378 0.78835 0.0
H375 H 0.64911 0.6422 0.76553 0.0
H376 H 0.72283 0.59994 0.84837 0.0
H377 H 0.8056 0.66482 0.83351 0.0
H378 H 0.77405 0.62451 0.72367 0.0
H379 H 0.75744 0.6937 0.69909 0.0
H380 H 0.7033 0.64439 0.71616 0.0
H381 H 0.66071 0.75806 0.73606 0.0
H382 H 0.7146 0.80773 0.71897 0.0
H383 H 0.70244 0.81608 0.75707 0.0
H384 H 0.87973 0.73618 0.8104 0.0
H385 H 0.94144 0.80718 0.77982 0.0
H386 H 0.82183 0.80165 0.71137 0.0
C387 C 0.68263 0.64669 0.78055 0.0
C388 C 0.67927 0.61593 0.80819 0.0
C389 C 0.72426 0.62282 0.8271 0.0
C390 C 0.77155 0.65968 0.81887 0.0
C391 C 0.7736 0.6892 0.79155 0.0
C392 C 0.73051 0.683 0.7726 0.0
C393 C 0.74367 0.71944 0.74439 0.0
C394 C 0.74468 0.66739 0.71935 0.0
C395 C 0.70293 0.77885 0.73881 0.0
C396 C 0.80075 0.74724 0.75055 0.0
C397 C 0.81704 0.72936 0.77794 0.0
C398 C 0.86749 0.75034 0.78888 0.0
C399 C 0.90218 0.79089 0.77141 0.0
C400 C 0.88659 0.80982 0.74322 0.0
C401 C 0.83522 0.78718 0.73267 0.0
loop_
_geom_bond_atom_site_label_1
_geom_bond_atom_site_label_2
_geom_bond_distance
_geom_bond_site_symmetry_2
_ccdc_geom_bond_type
Co0 N4 2.148 1_465 S
Co0 N10 2.128 . S
Co0 N20 2.194 1_565 S
Co0 O25 2.351 1_455 S
Co0 O26 2.155 1_455 S
Co0 O27 2.096 1_565 S
C1 N4 1.301 . S
C1 N5 1.328 . S
C1 H6 0.930 . S
C2 C3 1.333 . S
C2 N4 1.317 . S
C2 H7 0.930 . S
C3 C2 1.333 . S
C3 N5 1.350 . S
C3 H29 0.931 . S
N4 Co0 2.148 1_645 S
N4 C1 1.301 . S
N4 C2 1.317 . S
N5 C1 1.328 . S
N5 C3 1.350 . S
H6 C1 0.930 . S
H7 C2 0.930 . S
C8 O9 1.224 . S
C8 O27 1.247 . S
O9 C8 1.224 . S
N10 Co0 2.128 . S
N10 C11 1.355 . S
N10 C13 1.311 . S
C11 N10 1.355 . S
C11 C12 1.363 . S
C11 H23 0.929 . S
C12 C11 1.363 . S
C12 N14 1.375 . S
C12 H30 0.931 . S
C13 N10 1.311 . S
C13 N14 1.347 . S
C13 H24 0.929 . S
N14 C12 1.375 . S
N14 C13 1.347 . S
C15 C18 1.365 . S
C15 N20 1.328 1_665 S
C15 H21 0.929 . S
C16 C17 1.362 . S
C16 C19 1.378 . S
C16 H31 0.929 . S
C17 C16 1.362 . S
C17 C18 1.366 1_445 S
C18 C15 1.365 . S
C18 C17 1.366 1_665 S
C18 H32 0.930 . S
C19 C16 1.378 . S
C19 N20 1.315 . S
C19 H22 0.930 . S
N20 Co0 2.194 1_545 S
N20 C15 1.328 1_445 S
N20 C19 1.315 . S
H21 C15 0.929 . S
H22 C19 0.930 . S
H23 C11 0.929 . S
H24 C13 0.929 . S
O25 Co0 2.351 1_655 S
O25 C28 1.244 . S
O26 Co0 2.155 1_655 S
O26 C28 1.240 . S
O27 Co0 2.096 1_545 S
O27 C8 1.247 . S
C28 O25 1.244 . S
C28 O26 1.240 . S
H29 C3 0.931 . S
H30 C12 0.931 . S
H31 C16 0.929 . S
H32 C18 0.930 . S
Co33 N37 2.148 1_565 S
Co33 N43 2.128 1_455 S
Co33 N53 2.194 1_565 S
Co33 O58 2.351 . S
Co33 O59 2.155 . S
Co33 O60 2.096 1_465 S
C34 N37 1.301 . S
C34 N38 1.328 . S
C34 H39 0.930 . S
C35 C36 1.333 . S
C35 N37 1.317 . S
C35 H40 0.930 . S
C36 C35 1.333 . S
C36 N38 1.350 . S
C36 H62 0.931 . S
N37 Co33 2.148 1_545 S
N37 C34 1.301 . S
N37 C35 1.317 . S
N38 C34 1.328 . S
N38 C36 1.350 . S
H39 C34 0.930 . S
H40 C35 0.930 . S
C41 O42 1.224 . S
C41 O60 1.247 . S
O42 C41 1.224 . S
N43 Co33 2.128 1_655 S
N43 C44 1.355 . S
N43 C46 1.311 . S
C44 N43 1.355 . S
C44 C45 1.363 . S
C44 H56 0.929 . S
C45 C44 1.363 . S
C45 N47 1.375 . S
C45 H63 0.931 . S
C46 N43 1.311 . S
C46 N47 1.347 . S
C46 H57 0.929 . S
N47 C45 1.375 . S
N47 C46 1.347 . S
C48 C51 1.365 . S
C48 N53 1.328 1_565 S
C48 H54 0.929 . S
C49 C50 1.362 1_655 S
C49 C52 1.378 . S
C49 H64 0.929 . S
C50 C49 1.362 1_455 S
C50 C51 1.366 1_545 S
C51 C48 1.365 . S
C51 C50 1.366 1_565 S
C51 H65 0.930 . S
C52 C49 1.378 . S
C52 N53 1.315 1_655 S
C52 H55 0.930 . S
N53 Co33 2.194 1_545 S
N53 C48 1.328 1_545 S
N53 C52 1.315 1_455 S
H54 C48 0.929 . S
H55 C52 0.930 . S
H56 C44 0.929 . S
H57 C46 0.929 . S
O58 Co33 2.351 . S
O58 C61 1.244 . S
O59 Co33 2.155 . S
O59 C61 1.240 . S
O60 Co33 2.096 1_645 S
O60 C41 1.247 . S
C61 O58 1.244 . S
C61 O59 1.240 . S
H62 C36 0.931 . S
H63 C45 0.931 . S
H64 C49 0.929 . S
H65 C51 0.930 . S
Co66 N70 2.148 . S
Co66 N76 2.128 . S
Co66 N86 2.194 . S
Co66 O91 2.351 . S
Co66 O92 2.155 . S
Co66 O93 2.096 . S
C67 N70 1.301 . S
C67 N71 1.328 . S
C67 H72 0.930 . S
C68 C69 1.333 . S
C68 N70 1.317 . S
C68 H73 0.930 . S
C69 C68 1.333 . S
C69 N71 1.350 . S
C69 H95 0.931 . S
N70 Co66 2.148 . S
N70 C67 1.301 . S
N70 C68 1.317 . S
N71 C67 1.328 . S
N71 C69 1.350 . S
H72 C67 0.930 . S
H73 C68 0.930 . S
C74 O75 1.224 . S
C74 O93 1.247 . S
O75 C74 1.224 . S
N76 Co66 2.128 . S
N76 C77 1.355 . S
N76 C79 1.311 . S
C77 N76 1.355 . S
C77 C78 1.363 . S
C77 H89 0.929 . S
C78 C77 1.363 . S
C78 N80 1.375 . S
C78 H96 0.931 . S
C79 N76 1.311 . S
C79 N80 1.347 . S
C79 H90 0.929 . S
N80 C78 1.375 . S
N80 C79 1.347 . S
C81 C84 1.365 . S
C81 N86 1.328 . S
C81 H87 0.929 . S
C82 C83 1.362 . S
C82 C85 1.378 . S
C82 H97 0.929 . S
C83 C82 1.362 . S
C83 C84 1.366 . S
C84 C81 1.365 . S
C84 C83 1.366 . S
C84 H98 0.930 . S
C85 C82 1.378 . S
C85 N86 1.315 . S
C85 H88 0.930 . S
N86 Co66 2.194 . S
N86 C81 1.328 . S
N86 C85 1.315 . S
H87 C81 0.929 . S
H88 C85 0.930 . S
H89 C77 0.929 . S
H90 C79 0.929 . S
O91 Co66 2.351 . S
O91 C94 1.244 . S
O92 Co66 2.155 . S
O92 C94 1.240 . S
O93 Co66 2.096 . S
O93 C74 1.247 . S
C94 O91 1.244 . S
C94 O92 1.240 . S
H95 C69 0.931 . S
H96 C78 0.931 . S
H97 C82 0.929 . S
H98 C84 0.930 . S
Co99 N103 2.148 . S
Co99 N109 2.128 . S
Co99 N119 2.194 . S
Co99 O124 2.351 . S
Co99 O125 2.155 . S
Co99 O126 2.096 . S
C100 N103 1.301 . S
C100 N104 1.328 . S
C100 H105 0.930 . S
C101 C102 1.333 . S
C101 N103 1.317 . S
C101 H106 0.930 . S
C102 C101 1.333 . S
C102 N104 1.350 . S
C102 H128 0.931 . S
N103 Co99 2.148 . S
N103 C100 1.301 . S
N103 C101 1.317 . S
N104 C100 1.328 . S
N104 C102 1.350 . S
H105 C100 0.930 . S
H106 C101 0.930 . S
C107 O108 1.224 . S
C107 O126 1.247 . S
O108 C107 1.224 . S
N109 Co99 2.128 . S
N109 C110 1.355 . S
N109 C112 1.311 . S
C110 N109 1.355 . S
C110 C111 1.363 . S
C110 H122 0.929 . S
C111 C110 1.363 . S
C111 N113 1.375 . S
C111 H129 0.931 . S
C112 N109 1.311 . S
C112 N113 1.347 . S
C112 H123 0.929 . S
N113 C111 1.375 . S
N113 C112 1.347 . S
C114 C117 1.365 . S
C114 N119 1.328 . S
C114 H120 0.929 . S
C115 C116 1.362 . S
C115 C118 1.378 . S
C115 H130 0.929 . S
C116 C115 1.362 . S
C116 C117 1.366 . S
C117 C114 1.365 . S
C117 C116 1.366 . S
C117 H131 0.930 . S
C118 C115 1.378 . S
C118 N119 1.315 . S
C118 H121 0.930 . S
N119 Co99 2.194 . S
N119 C114 1.328 . S
N119 C118 1.315 . S
H120 C114 0.929 . S
H121 C118 0.930 . S
H122 C110 0.929 . S
H123 C112 0.929 . S
O124 Co99 2.351 . S
O124 C127 1.244 . S
O125 Co99 2.155 . S
O125 C127 1.240 . S
O126 Co99 2.096 . S
O126 C107 1.247 . S
C127 O124 1.244 . S
C127 O125 1.240 . S
H128 C102 0.931 . S
H129 C111 0.931 . S
H130 C115 0.929 . S
H131 C117 0.930 . S
H132 C144 0.930 . S
H133 C146 0.930 . S
H134 C147 0.930 . S
H135 C151 0.959 . S
H136 C151 0.959 . S
H137 C151 0.961 . S
H138 C152 0.960 . S
H139 C152 0.961 . S
H140 C152 0.959 . S
H141 C155 0.929 . S
H142 C156 0.931 . S
H143 C158 0.930 . S
C144 H132 0.930 . S
C144 C145 1.399 1_665 S
C144 C149 1.399 1_655 S
C145 C144 1.399 1_445 S
C145 C146 1.376 . S
C146 H133 0.930 . S
C146 C145 1.376 . S
C146 C147 1.388 . S
C147 H134 0.930 . S
C147 C146 1.388 . S
C147 C148 1.390 . S
C148 C147 1.390 . S
C148 C149 1.394 1_545 S
C148 C154 1.465 . S
C149 C144 1.399 1_455 S
C149 C148 1.394 1_565 S
C149 C150 1.516 1_455 S
C150 C149 1.516 1_655 S
C150 C151 1.502 . S
C150 C152 1.561 1_655 S
C150 C153 1.526 1_655 S
C151 H135 0.959 . S
C151 H136 0.959 . S
C151 H137 0.961 . S
C151 C150 1.502 . S
C152 H138 0.960 . S
C152 H139 0.961 . S
C152 H140 0.959 . S
C152 C150 1.561 1_455 S
C153 C150 1.526 1_455 S
C153 C154 1.396 1_565 S
C153 C158 1.390 1_455 S
C154 C148 1.465 . S
C154 C153 1.396 1_545 S
C154 C155 1.399 . S
C155 H141 0.929 . S
C155 C154 1.399 . S
C155 C156 1.385 . S
C156 H142 0.931 . S
C156 C155 1.385 . S
C156 C157 1.389 . S
C157 C156 1.389 . S
C157 C158 1.387 1_445 S
C158 H143 0.930 . S
C158 C153 1.390 1_655 S
C158 C157 1.387 1_665 S
H159 C171 0.930 . S
H160 C173 0.930 . S
H161 C174 0.930 . S
H162 C178 0.960 . S
H163 C178 0.962 . S
H164 C178 0.957 1_554 S
H165 C179 0.955 1_554 S
H166 C179 0.966 . S
H167 C179 0.959 . S
H168 C182 0.929 . S
H169 C183 0.931 . S
H170 C185 0.930 . S
C171 H159 0.930 . S
C171 C172 1.399 . S
C171 C176 1.399 . S
C172 C171 1.399 . S
C172 C173 1.376 . S
C173 H160 0.930 . S
C173 C172 1.376 . S
C173 C174 1.388 . S
C174 H161 0.930 . S
C174 C173 1.388 . S
C174 C175 1.390 . S
C175 C174 1.390 . S
C175 C176 1.394 . S
C175 C181 1.465 1_554 S
C176 C171 1.399 . S
C176 C175 1.394 . S
C176 C177 1.514 . S
C177 C176 1.514 . S
C177 C178 1.502 1_554 S
C177 C179 1.561 1_554 S
C177 C180 1.528 1_554 S
C178 H162 0.960 . S
C178 H163 0.962 . S
C178 H164 0.957 1_556 S
C178 C177 1.502 1_556 S
C179 H165 0.955 1_556 S
C179 H166 0.966 . S
C179 H167 0.959 . S
C179 C177 1.561 1_556 S
C180 C177 1.528 1_556 S
C180 C181 1.396 . S
C180 C185 1.390 . S
C181 C175 1.465 1_556 S
C181 C180 1.396 . S
C181 C182 1.399 . S
C182 H168 0.929 . S
C182 C181 1.399 . S
C182 C183 1.385 . S
C183 H169 0.931 . S
C183 C182 1.385 . S
C183 C184 1.389 . S
C184 C183 1.389 . S
C184 C185 1.387 . S
C185 H170 0.930 . S
C185 C180 1.390 . S
C185 C184 1.387 . S
H186 C198 0.930 . S
H187 C200 0.930 . S
H188 C201 0.930 . S
H189 C205 0.959 . S
H190 C205 0.959 . S
H191 C205 0.961 . S
H192 C206 0.960 . S
H193 C206 0.961 . S
H194 C206 0.959 . S
H195 C209 0.929 . S
H196 C210 0.931 . S
H197 C212 0.930 . S
C198 H186 0.930 . S
C198 C199 1.399 . S
C198 C203 1.399 . S
C199 C198 1.399 . S
C199 C200 1.376 . S
C200 H187 0.930 . S
C200 C199 1.376 . S
C200 C201 1.388 . S
C201 H188 0.930 . S
C201 C200 1.388 . S
C201 C202 1.390 . S
C202 C201 1.390 . S
C202 C203 1.394 . S
C202 C208 1.465 . S
C203 C198 1.399 . S
C203 C202 1.394 . S
C203 C204 1.516 . S
C204 C203 1.516 . S
C204 C205 1.502 . S
C204 C206 1.561 . S
C204 C207 1.526 . S
C205 H189 0.959 . S
C205 H190 0.959 . S
C205 H191 0.961 . S
C205 C204 1.502 . S
C206 H192 0.960 . S
C206 H193 0.961 . S
C206 H194 0.959 . S
C206 C204 1.561 . S
C207 C204 1.526 . S
C207 C208 1.396 . S
C207 C212 1.390 . S
C208 C202 1.465 . S
C208 C207 1.396 . S
C208 C209 1.399 . S
C209 H195 0.929 . S
C209 C208 1.399 . S
C209 C210 1.385 . S
C210 H196 0.931 . S
C210 C209 1.385 . S
C210 C211 1.389 . S
C211 C210 1.389 . S
C211 C212 1.387 . S
C212 H197 0.930 . S
C212 C207 1.390 . S
C212 C211 1.387 . S
H213 C225 0.930 . S
H214 C227 0.930 . S
H215 C228 0.930 . S
H216 C232 0.959 . S
H217 C232 0.959 . S
H218 C232 0.961 . S
H219 C233 0.960 . S
H220 C233 0.961 . S
H221 C233 0.959 . S
H222 C236 0.929 . S
H223 C237 0.931 . S
H224 C239 0.930 . S
C225 H213 0.930 . S
C225 C226 1.399 . S
C225 C230 1.399 . S
C226 C225 1.399 . S
C226 C227 1.376 . S
C227 H214 0.930 . S
C227 C226 1.376 . S
C227 C228 1.388 . S
C228 H215 0.930 . S
C228 C227 1.388 . S
C228 C229 1.390 . S
C229 C228 1.390 . S
C229 C230 1.394 . S
C229 C235 1.465 . S
C230 C225 1.399 . S
C230 C229 1.394 . S
C230 C231 1.516 . S
C231 C230 1.516 . S
C231 C232 1.502 . S
C231 C233 1.561 . S
C231 C234 1.526 . S
C232 H216 0.959 . S
C232 H217 0.959 . S
C232 H218 0.961 . S
C232 C231 1.502 . S
C233 H219 0.960 . S
C233 H220 0.961 . S
C233 H221 0.959 . S
C233 C231 1.561 . S
C234 C231 1.526 . S
C234 C235 1.396 . S
C234 C239 1.390 . S
C235 C229 1.465 . S
C235 C234 1.396 . S
C235 C236 1.399 . S
C236 H222 0.929 . S
C236 C235 1.399 . S
C236 C237 1.385 . S
C237 H223 0.931 . S
C237 C236 1.385 . S
C237 C238 1.389 . S
C238 C237 1.389 . S
C238 C239 1.387 . S
C239 H224 0.930 . S
C239 C234 1.390 . S
C239 C238 1.387 . S
H240 C252 0.930 . S
H241 C254 0.930 . S
H242 C255 0.930 . S
H243 C259 0.959 . S
H244 C259 0.959 . S
H245 C259 0.961 . S
H246 C260 0.960 . S
H247 C260 0.961 . S
H248 C260 0.959 . S
H249 C263 0.929 . S
H250 C264 0.931 . S
H251 C266 0.930 . S
C252 H240 0.930 . S
C252 C253 1.399 . S
C252 C257 1.399 . S
C253 C252 1.399 . S
C253 C254 1.376 . S
C254 H241 0.930 . S
C254 C253 1.376 . S
C254 C255 1.388 . S
C255 H242 0.930 . S
C255 C254 1.388 . S
C255 C256 1.390 . S
C256 C255 1.390 . S
C256 C257 1.394 . S
C256 C262 1.465 . S
C257 C252 1.399 . S
C257 C256 1.394 . S
C257 C258 1.516 . S
C258 C257 1.516 . S
C258 C259 1.502 . S
C258 C260 1.561 . S
C258 C261 1.526 . S
C259 H243 0.959 . S
C259 H244 0.959 . S
C259 H245 0.961 . S
C259 C258 1.502 . S
C260 H246 0.960 . S
C260 H247 0.961 . S
C260 H248 0.959 . S
C260 C258 1.561 . S
C261 C258 1.526 . S
C261 C262 1.396 . S
C261 C266 1.390 . S
C262 C256 1.465 . S
C262 C261 1.396 . S
C262 C263 1.399 . S
C263 H249 0.929 . S
C263 C262 1.399 . S
C263 C264 1.385 . S
C264 H250 0.931 . S
C264 C263 1.385 . S
C264 C265 1.389 . S
C265 C264 1.389 . S
C265 C266 1.387 . S
C266 H251 0.930 . S
C266 C261 1.390 . S
C266 C265 1.387 . S
H267 C279 0.930 . S
H268 C281 0.930 . S
H269 C282 0.930 . S
H270 C286 0.959 . S
H271 C286 0.959 . S
H272 C286 0.961 . S
H273 C287 0.960 . S
H274 C287 0.961 . S
H275 C287 0.959 . S
H276 C290 0.929 . S
H277 C291 0.931 . S
H278 C293 0.930 . S
C279 H267 0.930 . S
C279 C280 1.399 . S
C279 C284 1.399 . S
C280 C279 1.399 . S
C280 C281 1.376 . S
C281 H268 0.930 . S
C281 C280 1.376 . S
C281 C282 1.388 . S
C282 H269 0.930 . S
C282 C281 1.388 . S
C282 C283 1.390 . S
C283 C282 1.390 . S
C283 C284 1.394 . S
C283 C289 1.465 . S
C284 C279 1.399 . S
C284 C283 1.394 . S
C284 C285 1.516 . S
C285 C284 1.516 . S
C285 C286 1.502 . S
C285 C287 1.561 . S
C285 C288 1.526 . S
C286 H270 0.959 . S
C286 H271 0.959 . S
C286 H272 0.961 . S
C286 C285 1.502 . S
C287 H273 0.960 . S
C287 H274 0.961 . S
C287 H275 0.959 . S
C287 C285 1.561 . S
C288 C285 1.526 . S
C288 C289 1.396 . S
C288 C293 1.390 . S
C289 C283 1.465 . S
C289 C288 1.396 . S
C289 C290 1.399 . S
C290 H276 0.929 . S
C290 C289 1.399 . S
C290 C291 1.385 . S
C291 H277 0.931 . S
C291 C290 1.385 . S
C291 C292 1.389 . S
C292 C291 1.389 . S
C292 C293 1.387 . S
C293 H278 0.930 . S
C293 C288 1.390 . S
C293 C292 1.387 . S
H294 C306 0.930 . S
H295 C308 0.930 . S
H296 C309 0.930 . S
H297 C313 0.959 . S
H298 C313 0.959 . S
H299 C313 0.961 . S
H300 C314 0.960 . S
H301 C314 0.961 . S
H302 C314 0.959 . S
H303 C317 0.929 . S
H304 C318 0.931 . S
H305 C320 0.930 . S
C306 H294 0.930 . S
C306 C307 1.399 . S
C306 C311 1.399 . S
C307 C306 1.399 . S
C307 C308 1.376 . S
C308 H295 0.930 . S
C308 C307 1.376 . S
C308 C309 1.388 . S
C309 H296 0.930 . S
C309 C308 1.388 . S
C309 C310 1.390 . S
C310 C309 1.390 . S
C310 C311 1.394 . S
C310 C316 1.465 . S
C311 C306 1.399 . S
C311 C310 1.394 . S
C311 C312 1.516 . S
C312 C311 1.516 . S
C312 C313 1.502 . S
C312 C314 1.561 . S
C312 C315 1.526 . S
C313 H297 0.959 . S
C313 H298 0.959 . S
C313 H299 0.961 . S
C313 C312 1.502 . S
C314 H300 0.960 . S
C314 H301 0.961 . S
C314 H302 0.959 . S
C314 C312 1.561 . S
C315 C312 1.526 . S
C315 C316 1.396 . S
C315 C320 1.390 . S
C316 C310 1.465 . S
C316 C315 1.396 . S
C316 C317 1.399 . S
C317 H303 0.929 . S
C317 C316 1.399 . S
C317 C318 1.385 . S
C318 H304 0.931 . S
C318 C317 1.385 . S
C318 C319 1.389 . S
C319 C318 1.389 . S
C319 C320 1.387 . S
C320 H305 0.930 . S
C320 C315 1.390 . S
C320 C319 1.387 . S
H321 C333 0.930 . S
H322 C335 0.930 . S
H323 C336 0.930 . S
H324 C340 0.959 . S
H325 C340 0.959 . S
H326 C340 0.961 . S
H327 C341 0.960 . S
H328 C341 0.961 . S
H329 C341 0.959 . S
H330 C344 0.929 . S
H331 C345 0.931 . S
H332 C347 0.930 . S
C333 H321 0.930 . S
C333 C334 1.399 . S
C333 C338 1.399 . S
C334 C333 1.399 . S
C334 C335 1.376 . S
C335 H322 0.930 . S
C335 C334 1.376 . S
C335 C336 1.388 . S
C336 H323 0.930 . S
C336 C335 1.388 . S
C336 C337 1.390 . S
C337 C336 1.390 . S
C337 C338 1.394 . S
C337 C343 1.465 . S
C338 C333 1.399 . S
C338 C337 1.394 . S
C338 C339 1.516 . S
C339 C338 1.516 . S
C339 C340 1.502 . S
C339 C341 1.561 . S
C339 C342 1.526 . S
C340 H324 0.959 . S
C340 H325 0.959 . S
C340 H326 0.961 . S
C340 C339 1.502 . S
C341 H327 0.960 . S
C341 H328 0.961 . S
C341 H329 0.959 . S
C341 C339 1.561 . S
C342 C339 1.526 . S
C342 C343 1.396 . S
C342 C347 1.390 . S
C343 C337 1.465 . S
C343 C342 1.396 . S
C343 C344 1.399 . S
C344 H330 0.929 . S
C344 C343 1.399 . S
C344 C345 1.385 . S
C345 H331 0.931 . S
C345 C344 1.385 . S
C345 C346 1.389 . S
C346 C345 1.389 . S
C346 C347 1.387 . S
C347 H332 0.930 . S
C347 C342 1.390 . S
C347 C346 1.387 . S
H348 C360 0.930 . S
H349 C362 0.930 . S
H350 C363 0.930 . S
H351 C367 0.959 . S
H352 C367 0.959 . S
H353 C367 0.961 . S
H354 C368 0.960 . S
H355 C368 0.961 . S
H356 C368 0.959 . S
H357 C371 0.929 . S
H358 C372 0.931 . S
H359 C374 0.930 . S
C360 H348 0.930 . S
C360 C361 1.399 . S
C360 C365 1.399 . S
C361 C360 1.399 . S
C361 C362 1.376 . S
C362 H349 0.930 . S
C362 C361 1.376 . S
C362 C363 1.388 . S
C363 H350 0.930 . S
C363 C362 1.388 . S
C363 C364 1.390 . S
C364 C363 1.390 . S
C364 C365 1.394 . S
C364 C370 1.465 . S
C365 C360 1.399 . S
C365 C364 1.394 . S
C365 C366 1.516 . S
C366 C365 1.516 . S
C366 C367 1.502 . S
C366 C368 1.561 . S
C366 C369 1.526 . S
C367 H351 0.959 . S
C367 H352 0.959 . S
C367 H353 0.961 . S
C367 C366 1.502 . S
C368 H354 0.960 . S
C368 H355 0.961 . S
C368 H356 0.959 . S
C368 C366 1.561 . S
C369 C366 1.526 . S
C369 C370 1.396 . S
C369 C374 1.390 . S
C370 C364 1.465 . S
C370 C369 1.396 . S
C370 C371 1.399 . S
C371 H357 0.929 . S
C371 C370 1.399 . S
C371 C372 1.385 . S
C372 H358 0.931 . S
C372 C371 1.385 . S
C372 C373 1.389 . S
C373 C372 1.389 . S
C373 C374 1.387 . S
C374 H359 0.930 . S
C374 C369 1.390 . S
C374 C373 1.387 . S
H375 C387 0.930 . S
H376 C389 0.930 . S
H377 C390 0.930 . S
H378 C394 0.959 . S
H379 C394 0.959 . S
H380 C394 0.961 . S
H381 C395 0.960 . S
H382 C395 0.961 . S
H383 C395 0.959 . S
H384 C398 0.929 . S
H385 C399 0.931 . S
H386 C401 0.930 . S
C387 H375 0.930 . S
C387 C388 1.399 . S
C387 C392 1.399 . S
C388 C387 1.399 . S
C388 C389 1.376 . S
C389 H376 0.930 . S
C389 C388 1.376 . S
C389 C390 1.388 . S
C390 H377 0.930 . S
C390 C389 1.388 . S
C390 C391 1.390 . S
C391 C390 1.390 . S
C391 C392 1.394 . S
C391 C397 1.465 . S
C392 C387 1.399 . S
C392 C391 1.394 . S
C392 C393 1.516 . S
C393 C392 1.516 . S
C393 C394 1.502 . S
C393 C395 1.561 . S
C393 C396 1.526 . S
C394 H378 0.959 . S
C394 H379 0.959 . S
C394 H380 0.961 . S
C394 C393 1.502 . S
C395 H381 0.960 . S
C395 H382 0.961 . S
C395 H383 0.959 . S
C395 C393 1.561 . S
C396 C393 1.526 . S
C396 C397 1.396 . S
C396 C401 1.390 . S
C397 C391 1.465 . S
C397 C396 1.396 . S
C397 C398 1.399 . S
C398 H384 0.929 . S
C398 C397 1.399 . S
C398 C399 1.385 . S
C399 H385 0.931 . S
C399 C398 1.385 . S
C399 C400 1.389 . S
C400 C399 1.389 . S
C400 C401 1.387 . S
C401 H386 0.930 . S
C401 C396 1.390 . S
C401 C400 1.387 . S
C145 C17 1.484 . S
C157 C50 1.475 . S
C172 C116 1.484 . S
C184 C83 1.474 . S
C199 C8 1.523 . S
C211 N113 1.489 . S
C226 N5 1.408 . S
C238 C127 1.459 . S
C253 N104 1.427 . S
C265 C28 1.459 . S
C280 N14 1.515 . S
C292 C107 1.527 . S
C307 N71 1.333 . S
C319 C61 1.449 . S
C334 N38 1.359 . S
C346 C94 1.453 . S
C361 C41 1.504 . S
C373 N80 1.499 . S
C388 C74 1.502 . S
C400 N47 1.496 . S
