# Generated by pormake.
# Topology xft, (5)-cn, num edge types: 1
# Building blocks:
#     Node 0, Type 0, BuildingBlock: BEQFEK_clean_sbu_0, # of connection points: 5
#     Node 1, Type 0, BuildingBlock: BEQFEK_clean_sbu_0, # of connection points: 5
#     Node 2, Type 0, BuildingBlock: BEQFEK_clean_sbu_0, # of connection points: 5
#     Node 3, Type 0, BuildingBlock: BEQFEK_clean_sbu_0, # of connection points: 5
#     Node 4, Type 0, BuildingBlock: BEQFEK_clean_sbu_0, # of connection points: 5
#     Node 5, Type 0, BuildingBlock: BEQFEK_clean_sbu_0, # of connection points: 5
#     Node 6, Type 0, BuildingBlock: BEQFEK_clean_sbu_0, # of connection points: 5
#     Node 7, Type 0, BuildingBlock: BEQFEK_clean_sbu_0, # of connection points: 5
#     Edge 8, Type (0, 0), BuildingBlock: ZUJKAS_clean_linker_0, # of connection points: 2
#     Edge 9, Type (0, 0), BuildingBlock: ZUJKAS_clean_linker_0, # of connection points: 2
#     Edge 10, Type (0, 0), BuildingBlock: ZUJKAS_clean_linker_0, # of connection points: 2
#     Edge 11, Type (0, 0), BuildingBlock: ZUJKAS_clean_linker_0, # of connection points: 2
#     Edge 12, Type (0, 0), BuildingBlock: ZUJKAS_clean_linker_0, # of connection points: 2
#     Edge 13, Type (0, 0), BuildingBlock: ZUJKAS_clean_linker_0, # of connection points: 2
#     Edge 14, Type (0, 0), BuildingBlock: ZUJKAS_clean_linker_0, # of connection points: 2
#     Edge 15, Type (0, 0), BuildingBlock: ZUJKAS_clean_linker_0, # of connection points: 2
#     Edge 16, Type (0, 0), BuildingBlock: ZUJKAS_clean_linker_0, # of connection points: 2
#     Edge 17, Type (0, 0), BuildingBlock: ZUJKAS_clean_linker_0, # of connection points: 2
#     Edge 18, Type (0, 0), BuildingBlock: ZUJKAS_clean_linker_0, # of connection points: 2
#     Edge 19, Type (0, 0), BuildingBlock: ZUJKAS_clean_linker_0, # of connection points: 2
#     Edge 20, Type (0, 0), BuildingBlock: ZUJKAS_clean_linker_0, # of connection points: 2
#     Edge 21, Type (0, 0), BuildingBlock: ZUJKAS_clean_linker_0, # of connection points: 2
#     Edge 22, Type (0, 0), BuildingBlock: ZUJKAS_clean_linker_0, # of connection points: 2
#     Edge 23, Type (0, 0), BuildingBlock: ZUJKAS_clean_linker_0, # of connection points: 2
#     Edge 24, Type (0, 0), BuildingBlock: ZUJKAS_clean_linker_0, # of connection points: 2
#     Edge 25, Type (0, 0), BuildingBlock: ZUJKAS_clean_linker_0, # of connection points: 2
#     Edge 26, Type (0, 0), BuildingBlock: ZUJKAS_clean_linker_0, # of connection points: 2
#     Edge 27, Type (0, 0), BuildingBlock: ZUJKAS_clean_linker_0, # of connection points: 2
# Relax obj value: 0.414
# Max RMSD: 0.297
# Mean RMSD: 0.297
data_MOF--net-xft--node1-BEQFEK_clean_sbu_0--edge1-ZUJKAS_clean_linker_0
_symmetry_space_group_name_H-M    P1
_symmetry_Int_Tables_number       1
_symmetry_cell_setting            triclinic
loop_
_symmetry_equiv_pos_as_xyz
'x, y, z'
_cell_length_a     47.754321
_cell_length_b     47.698145
_cell_length_c     44.803523
_cell_angle_alpha  90.04667
_cell_angle_beta   90.028704
_cell_angle_gamma 90.008985
loop_
_atom_site_label
_atom_site_type_symbol
_atom_site_fract_x
_atom_site_fract_y
_atom_site_fract_z
_atom_type_partial_charge
Co0 Co 0.29566 0.01222 0.70927 0.0
Co1 Co 0.28759 0.98366 0.77113 0.0
C2 C 0.28251 0.95247 0.71243 0.0
O3 O 0.28513 0.97418 0.69624 0.0
O4 O 0.28425 0.95393 0.74069 0.0
C5 C 0.31385 0.02727 0.65197 0.0
O6 O 0.32245 0.00111 0.65194 0.0
C7 C 0.25946 0.94522 0.81049 0.0
C8 C 0.2773 0.95454 0.8549 0.0
C9 C 0.25952 0.9365 0.83981 0.0
N10 N 0.27687 0.96711 0.80789 0.0
N11 N 0.28742 0.97277 0.83453 0.0
C12 C 0.24223 0.9335 0.78549 0.0
H13 H 0.23714 0.95022 0.76915 0.0
H14 H 0.22254 0.92414 0.79408 0.0
H15 H 0.2543 0.91681 0.77402 0.0
C16 C 0.25317 0.05056 0.73403 0.0
N17 N 0.26905 0.02734 0.73566 0.0
N18 N 0.2651 0.01511 0.76161 0.0
C19 C 0.24623 0.02999 0.77731 0.0
C20 C 0.23814 0.05306 0.7604 0.0
C21 C 0.25479 0.07118 0.7089 0.0
H22 H 0.27701 0.07689 0.70498 0.0
H23 H 0.24674 0.06122 0.68822 0.0
H24 H 0.24277 0.09056 0.71358 0.0
O25 O 0.33313 0.01164 0.72831 0.0
O26 O 0.32728 0.99443 0.77387 0.0
H27 H 0.25322 0.02511 0.82412 0.0
H28 H 0.21754 0.03436 0.81455 0.0
C29 C 0.23609 0.02193 0.80773 0.0
H30 H 0.23042 -0.0006 0.80788 0.0
H31 H 0.30199 0.98861 0.83868 0.0
O32 O 0.29999 0.03629 0.67415 0.0
C33 C 0.34291 0.00487 0.75376 0.0
Co34 Co 0.98603 0.79016 0.96019 0.0
Co35 Co 0.0323 0.77772 0.00807 0.0
C36 C 0.04425 0.77689 0.94225 0.0
O37 O 0.01948 0.7839 0.93499 0.0
O38 O 0.05127 0.77359 0.96937 0.0
C39 C 0.95348 0.79793 0.90662 0.0
O40 O 0.97762 0.79736 0.89259 0.0
C41 C 0.08485 0.7598 0.03612 0.0
C42 C 0.07291 0.75616 0.08353 0.0
C43 C 0.09492 0.75183 0.0639 0.0
N44 N 0.05785 0.76733 0.03901 0.0
N45 N 0.05111 0.76593 0.06757 0.0
C46 C 0.10138 0.7632 0.00797 0.0
H47 H 0.09539 0.78299 -0.0033 0.0
H48 H 0.09678 0.74537 0.99285 0.0
H49 H 0.12421 0.76397 0.01251 0.0
C50 C 0.95822 0.7437 0.99115 0.0
N51 N 0.98028 0.7609 0.9877 0.0
N52 N -0.0005 0.75496 0.00781 0.0
C53 C 0.99046 0.73303 0.02422 0.0
C54 C 0.96397 0.72541 0.01434 0.0
C55 C 0.93139 0.74654 0.97409 0.0
H56 H 0.92426 0.76866 0.97497 0.0
H57 H 0.93515 0.74103 0.95036 0.0
H58 H 0.91457 0.73302 0.98318 0.0
O59 O 0.99002 0.82605 0.9812 0.0
O60 O 0.02323 0.81793 0.01471 0.0
H61 H 0.00445 0.72926 0.06929 0.0
H62 H 0.00032 0.69635 0.0503 0.0
C63 C 0.00733 0.7184 0.04763 0.0
H64 H 0.02983 0.71862 0.0416 0.0
H65 H 0.03149 0.77124 0.0761 0.0
O66 O 0.95285 0.79446 0.93468 0.0
C67 C 0.00576 0.83438 0.00231 0.0
Co68 Co 0.19528 0.49541 0.23036 0.0
Co69 Co 0.20043 0.5396 0.28141 0.0
C70 C 0.21676 0.55207 0.21762 0.0
O71 O 0.21123 0.52746 0.20844 0.0
O72 O 0.21289 0.55896 0.24474 0.0
C73 C 0.18952 0.46551 0.17568 0.0
O74 O 0.18888 0.49081 0.16411 0.0
C75 C 0.22937 0.5826 0.31417 0.0
C76 C 0.19997 0.59316 0.35055 0.0
C77 C 0.22494 0.6013 0.33738 0.0
N78 N 0.20774 0.56475 0.31316 0.0
N79 N 0.19025 0.57097 0.33504 0.0
C80 C 0.25406 0.58084 0.29368 0.0
H81 H 0.25656 0.55909 0.28524 0.0
H82 H 0.27347 0.5875 0.30532 0.0
H83 H 0.25062 0.59482 0.27426 0.0
C84 C 0.2323 0.46383 0.27058 0.0
N85 N 0.21724 0.48677 0.26399 0.0
N86 N 0.21915 0.50489 0.28605 0.0
C87 C 0.23528 0.49384 0.30773 0.0
C88 C 0.24405 0.46736 0.29866 0.0
C89 C 0.23684 0.44005 0.24927 0.0
H90 H 0.21789 0.42659 0.24895 0.0
H91 H 0.24012 0.44836 0.22643 0.0
H92 H 0.25525 0.42717 0.25557 0.0
O93 O 0.15613 0.50346 0.24245 0.0
O94 O 0.15973 0.53411 0.27951 0.0
H95 H 0.24885 0.49293 0.3538 0.0
H96 H 0.25757 0.52434 0.33326 0.0
C97 C 0.24131 0.50806 0.3368 0.0
H98 H 0.22214 0.51859 0.34512 0.0
H99 H 0.17127 0.56071 0.33875 0.0
O100 O 0.19291 0.46273 0.20362 0.0
C101 C 0.14494 0.51897 0.26228 0.0
Co102 Co 0.50706 0.70215 0.47567 0.0
Co103 Co 0.47022 0.70567 0.53303 0.0
C104 C 0.44769 0.71773 0.47127 0.0
O105 O 0.47121 0.71474 0.4584 0.0
O106 O 0.4451 0.714 0.49922 0.0
C107 C 0.52902 0.69478 0.41737 0.0
O108 O 0.50246 0.69211 0.41026 0.0
C109 C 0.42814 0.73141 0.56975 0.0
C110 C 0.42714 0.70482 0.61009 0.0
C111 C 0.41353 0.72681 0.59598 0.0
N112 N 0.4489 0.7126 0.56795 0.0
N113 N 0.4484 0.69683 0.59219 0.0
C114 C 0.4233 0.75397 0.54708 0.0
H115 H 0.44304 0.75881 0.53508 0.0
H116 H 0.41521 0.77327 0.55791 0.0
H117 H 0.40764 0.74666 0.53052 0.0
C118 C 0.54057 0.74323 0.50914 0.0
N119 N 0.51843 0.72601 0.50681 0.0
N120 N 0.50313 0.72782 0.53114 0.0
C121 C 0.51505 0.74646 0.54985 0.0
C122 C 0.53915 0.75691 0.53641 0.0
C123 C 0.5631 0.74544 0.48603 0.0
H124 H 0.57085 0.72415 0.48044 0.0
H125 H 0.5542 0.75472 0.4654 0.0
H126 H 0.58102 0.75832 0.49379 0.0
O127 O 0.50376 0.66308 0.49012 0.0
O128 O 0.47906 0.6654 0.53198 0.0
H129 H 0.50069 0.73636 0.59372 0.0
H130 H 0.51522 0.77135 0.59047 0.0
C131 C 0.50258 0.75503 0.57911 0.0
H132 H 0.48118 0.7633 0.57532 0.0
H133 H 0.46189 0.67999 0.596 0.0
O134 O 0.53557 0.7007 0.4441 0.0
C135 C 0.49252 0.65132 0.51262 0.0
Co136 Co 0.6918 0.00539 0.72576 0.0
Co137 Co 0.69512 0.04664 0.77963 0.0
C138 C 0.70698 0.06399 0.71573 0.0
O139 O 0.70413 0.03955 0.70483 0.0
O140 O 0.70308 0.06866 0.74335 0.0
C141 C 0.69518 0.97497 0.66986 0.0
O142 O 0.70197 -0.00094 0.65766 0.0
C143 C 0.72407 0.08977 0.81179 0.0
C144 C 0.69857 0.09619 0.85234 0.0
C145 C 0.7216 0.10642 0.83696 0.0
N146 N 0.70318 0.07103 0.81184 0.0
N147 N 0.68792 0.07488 0.8361 0.0
C148 C 0.74678 0.09033 0.78874 0.0
H149 H 0.7489 0.06945 0.77801 0.0
H150 H 0.76709 0.09643 0.79891 0.0
H151 H 0.74135 0.10585 0.77124 0.0
C152 C 0.73328 0.97512 0.76198 0.0
N153 N 0.71612 -0.00298 0.75756 0.0
N154 N 0.7174 0.01393 0.78072 0.0
C155 C 0.73532 0.00315 0.8009 0.0
C156 C 0.74607 0.97829 0.78953 0.0
C157 C 0.73591 0.95092 0.74084 0.0
H158 H 0.71499 0.9413 0.7375 0.0
H159 H 0.7433 0.95868 0.71886 0.0
H160 H 0.75047 0.93463 0.7492 0.0
O161 O 0.65279 0.00969 0.7405 0.0
O162 O 0.65517 0.03698 0.78056 0.0
H163 H 0.72283 0.02219 0.84205 0.0
H164 H 0.75572 0.00325 0.84417 0.0
C165 C 0.7424 0.01686 0.82999 0.0
H166 H 0.75377 0.03669 0.82559 0.0
H167 H 0.67004 0.06329 0.84131 0.0
O168 O 0.69076 0.97366 0.69776 0.0
C169 C 0.6411 0.02206 0.76241 0.0
Co170 Co 0.01564 0.18372 0.97811 0.0
Co171 Co 0.97594 0.18639 0.0333 0.0
C172 C 0.95579 0.19627 0.97027 0.0
O173 O 0.97985 0.19357 0.95855 0.0
O174 O 0.95229 0.19324 -0.00185 0.0
C175 C 0.0431 0.19854 0.92326 0.0
O176 O 0.02054 0.2135 0.91801 0.0
C177 C 0.93318 0.21507 0.06584 0.0
C178 C 0.92634 0.18903 0.10592 0.0
C179 C 0.91618 0.21221 0.09067 0.0
N180 N 0.95204 0.19427 0.06596 0.0
N181 N 0.94798 0.17872 0.08997 0.0
C182 C 0.93262 0.23788 0.04286 0.0
H183 H 0.95337 0.23992 0.03195 0.0
H184 H 0.9267 0.25819 0.05318 0.0
H185 H 0.91698 0.23264 0.02543 0.0
C186 C 0.04526 0.22738 0.01259 0.0
N187 N 0.02415 0.20901 0.00921 0.0
N188 N 0.00784 0.21 0.03285 0.0
C189 C 0.01815 0.22902 0.05221 0.0
C190 C 0.04213 0.24077 0.03986 0.0
C191 C 0.06858 0.23102 0.99061 0.0
H192 H 0.07742 0.21022 0.98482 0.0
H193 H 0.06015 0.24055 0.96989 0.0
H194 H 0.0856 0.24444 -0.00043 0.0
O195 O 0.01431 0.14477 0.99387 0.0
O196 O 0.98694 0.14661 0.03394 0.0
H197 H -0.00113 0.21722 0.09349 0.0
H198 H 0.0179 0.25006 0.09524 0.0
C199 C 0.00439 0.2366 0.08114 0.0
H200 H 0.98473 0.24813 0.07647 0.0
H201 H 0.95946 0.16073 0.09505 0.0
O202 O 0.0451 0.18477 0.94743 0.0
C203 C 0.0025 0.13292 0.01605 0.0
Co204 Co 0.79781 0.50487 0.22282 0.0
Co205 Co 0.79807 0.46619 0.27884 0.0
C206 C 0.79563 0.44413 0.21532 0.0
O207 O 0.79456 0.46803 0.2029 0.0
O208 O 0.79768 0.44187 0.24346 0.0
C209 C 0.79179 0.53099 0.16504 0.0
O210 O 0.78614 0.50568 0.15516 0.0
C211 C 0.77417 0.41932 0.30871 0.0
C212 C 0.79976 0.41433 0.34944 0.0
C213 C 0.77894 0.40157 0.33261 0.0
N214 N 0.79179 0.44107 0.31076 0.0
N215 N 0.80704 0.43815 0.33519 0.0
C216 C 0.75269 0.41639 0.28452 0.0
H217 H 0.74786 0.43714 0.27459 0.0
H218 H 0.73321 0.40685 0.29341 0.0
H219 H 0.76101 0.40266 0.26661 0.0
C220 C 0.74891 0.52852 0.25381 0.0
N221 N 0.7697 0.50967 0.25178 0.0
N222 N 0.77004 0.49406 0.27597 0.0
C223 C 0.74954 0.50268 0.29444 0.0
C224 C 0.73537 0.5247 0.28087 0.0
C225 C 0.74407 0.55127 0.23138 0.0
H226 H 0.76338 0.56407 0.22927 0.0
H227 H 0.73976 0.54171 0.20927 0.0
H228 H 0.72649 0.56522 0.23771 0.0
O229 O 0.83539 0.50894 0.24146 0.0
O230 O 0.83542 0.48292 0.28255 0.0
H231 H 0.76363 0.48927 0.33747 0.0
H232 H 0.72772 0.50182 0.33691 0.0
C233 C 0.7439 0.49001 0.32438 0.0
H234 H 0.73659 0.46813 0.32135 0.0
H235 H 0.82308 0.45179 0.34151 0.0
O236 O 0.796 0.5348 0.19274 0.0
C237 C 0.84759 0.49976 0.26479 0.0
Co238 Co 0.49958 0.30074 0.46552 0.0
Co239 Co 0.54144 0.3007 0.51884 0.0
C240 C 0.55907 0.29158 0.45446 0.0
O241 O 0.5345 0.29246 0.44353 0.0
O242 O 0.56333 0.29523 0.48219 0.0
C243 C 0.46844 0.31094 0.41296 0.0
O244 O 0.49214 0.32218 0.40406 0.0
C245 C 0.58812 0.27651 0.54984 0.0
C246 C 0.59355 0.30392 0.58919 0.0
C247 C 0.60558 0.28163 0.57396 0.0
N248 N 0.56723 0.29525 0.55036 0.0
N249 N 0.57047 0.31161 0.57393 0.0
C250 C 0.59025 0.25356 0.52711 0.0
H251 H 0.60464 0.26017 0.50901 0.0
H252 H 0.56944 0.24926 0.51706 0.0
H253 H 0.59855 0.2341 0.53739 0.0
C254 C 0.47564 0.25409 0.49985 0.0
N255 N 0.49445 0.27478 0.49667 0.0
N256 N 0.51142 0.27493 0.51982 0.0
C257 C 0.50366 0.25444 0.53879 0.0
C258 C 0.48089 0.24045 0.52653 0.0
C259 C 0.45277 0.24809 0.47788 0.0
H260 H 0.43927 0.2669 0.4757 0.0
H261 H 0.4621 0.24376 0.45567 0.0
H262 H 0.43958 0.2301 0.48481 0.0
O263 O 0.49961 0.33978 0.48121 0.0
O264 O 0.52807 0.33947 0.52036 0.0
H265 H 0.52425 0.26715 0.5791 0.0
H266 H 0.50579 0.23399 0.58183 0.0
C267 C 0.51868 0.24755 0.56716 0.0
H268 H 0.53836 0.23632 0.56176 0.0
H269 H 0.55737 0.32843 0.57914 0.0
O270 O 0.46745 0.2991 0.43827 0.0
C271 C 0.51133 0.35227 0.50303 0.0
H272 H 0.19402 0.0746 0.72952 0.0
H273 H 0.16214 0.11205 0.74555 0.0
H274 H 0.20806 0.11972 0.82819 0.0
H275 H 0.24061 0.08347 0.81154 0.0
H276 H 0.12838 0.10931 0.79141 0.0
H277 H 0.197 0.20065 0.80884 0.0
H278 H 0.20823 0.17024 0.78799 0.0
H279 H 0.21099 0.17092 0.82815 0.0
C280 C 0.19756 0.08482 0.75079 0.0
C281 C 0.21958 0.07624 0.76941 0.0
C282 C 0.17942 0.10614 0.75991 0.0
C283 C 0.18306 0.11911 0.78779 0.0
C284 C 0.20533 0.11069 0.80619 0.0
H285 H 0.09576 0.17817 0.93075 0.0
H286 H 0.12929 0.16592 0.8918 0.0
C287 C 0.2236 0.08962 0.79695 0.0
C288 C 0.16175 0.13876 0.79949 0.0
H289 H 0.15493 0.19882 0.8403 0.0
C290 C 0.13397 0.12932 0.80127 0.0
C291 C 0.16902 0.16497 0.81215 0.0
C292 C 0.19791 0.17737 0.80886 0.0
C293 C 0.11388 0.14413 0.81769 0.0
C294 C 0.12185 0.16902 0.83254 0.0
C295 C 0.14902 0.1796 0.82896 0.0
C296 C 0.10367 0.18142 0.85557 0.0
C297 C 0.08486 0.13196 0.82099 0.0
C298 C 0.07864 0.19502 0.84799 0.0
C299 C 0.05937 0.20209 0.87026 0.0
C300 C 0.0649 0.19536 0.90025 0.0
C301 C 0.09078 0.18329 0.9078 0.0
C302 C 0.11003 0.17646 0.88563 0.0
H303 H 0.08263 0.11143 0.80951 0.0
H304 H 0.07976 0.12913 0.84499 0.0
H305 H 0.06927 0.14669 0.81142 0.0
H306 H 0.07351 0.19903 0.82483 0.0
H307 H 0.03963 0.21148 0.86383 0.0
H308 H 0.9365 0.68339 0.98548 0.0
H309 H 0.9025 0.65044 0.00689 0.0
H310 H 0.91479 0.68774 0.0937 0.0
H311 H 0.94877 0.72057 0.07236 0.0
H312 H 0.91626 0.62942 0.09372 0.0
H313 H 0.82238 0.66945 0.03385 0.0
H314 H 0.85144 0.65995 0.01046 0.0
H315 H 0.85479 0.68888 0.03591 0.0
C316 C 0.93183 0.68445 0.00911 0.0
C317 C 0.94497 0.70444 0.02736 0.0
C318 C 0.91236 0.66583 0.02124 0.0
C319 C 0.90578 0.66711 0.05171 0.0
C320 C 0.91948 0.68661 0.07007 0.0
H321 H 0.79973 0.5862 0.17797 0.0
H322 H 0.8239 0.62055 0.14687 0.0
C323 C 0.93895 0.70518 0.05797 0.0
C324 C 0.88517 0.64764 0.06483 0.0
H325 H 0.81603 0.62913 0.0641 0.0
C326 C 0.89437 0.62932 0.08722 0.0
C327 C 0.85664 0.64768 0.05622 0.0
C328 C 0.84557 0.66768 0.03297 0.0
C329 C 0.87575 0.61101 0.10134 0.0
C330 C 0.84724 0.61121 0.09295 0.0
C331 C 0.83799 0.62918 0.0703 0.0
C332 C 0.82696 0.59322 0.10851 0.0
C333 C 0.88657 0.59165 0.12538 0.0
C334 C 0.81957 0.56713 0.09648 0.0
C335 C 0.80575 0.54739 0.11418 0.0
C336 C 0.79944 0.55357 0.14413 0.0
C337 C 0.80465 0.58071 0.15509 0.0
C338 C 0.81835 0.60039 0.13738 0.0
H339 H 0.90981 0.59136 0.12637 0.0
H340 H 0.87851 0.59866 0.14739 0.0
H341 H 0.87894 0.56995 0.12154 0.0
H342 H 0.82615 0.56138 0.07416 0.0
H343 H 0.80191 0.52669 0.10509 0.0
H344 H 0.23555 0.41173 0.30794 0.0
H345 H 0.26891 0.37783 0.32869 0.0
H346 H 0.32776 0.44474 0.34502 0.0
H347 H 0.29467 0.47859 0.32381 0.0
H348 H 0.32459 0.36927 0.30523 0.0
H349 H 0.32443 0.39995 0.42476 0.0
H350 H 0.29645 0.40917 0.39943 0.0
H351 H 0.3286 0.42874 0.39929 0.0
C352 C 0.25555 0.41914 0.31622 0.0
C353 C 0.26271 0.44764 0.31431 0.0
C354 C 0.27447 0.39984 0.32806 0.0
C355 C 0.30062 0.40889 0.33851 0.0
C356 C 0.30746 0.43748 0.33745 0.0
H357 H 0.4618 0.34068 0.36133 0.0
H358 H 0.4179 0.35873 0.34108 0.0
C359 C 0.2886 0.45677 0.32544 0.0
C360 C 0.32156 0.38833 0.34874 0.0
H361 H 0.36249 0.37137 0.40831 0.0
C362 C 0.33265 0.36939 0.32787 0.0
C363 C 0.33167 0.38838 0.37834 0.0
C364 C 0.31953 0.40746 0.40187 0.0
C365 C 0.35472 0.35138 0.33553 0.0
C366 C 0.36595 0.35264 0.36466 0.0
C367 C 0.35387 0.37058 0.38591 0.0
C368 C 0.39161 0.33735 0.37314 0.0
C369 C 0.36615 0.33153 0.31232 0.0
C370 C 0.39125 0.31889 0.39745 0.0
C371 C 0.4163 0.30859 0.40913 0.0
C372 C 0.44212 0.31691 0.39688 0.0
C373 C 0.44228 0.33394 0.37131 0.0
C374 C 0.41719 0.34416 0.35959 0.0
H375 H 0.35049 0.32722 0.29455 0.0
H376 H 0.3848 0.34113 0.30168 0.0
H377 H 0.37263 0.31135 0.32257 0.0
H378 H 0.37167 0.31348 0.40822 0.0
H379 H 0.41543 0.29536 0.42875 0.0
H380 H 0.68986 0.97275 0.609 0.0
H381 H 0.6702 0.93402 0.57974 0.0
H382 H 0.66523 0.88337 0.65924 0.0
H383 H 0.68507 0.92163 0.68854 0.0
H384 H 0.6813 0.85355 0.60522 0.0
H385 H 0.58517 0.91886 0.59336 0.0
H386 H 0.61745 0.93413 0.58066 0.0
H387 H 0.6125 0.92729 0.61969 0.0
C388 C 0.68516 0.95315 0.62012 0.0
C389 C 0.68846 0.9504 0.65115 0.0
C390 C 0.67388 0.93112 0.6034 0.0
C391 C 0.66584 0.90615 0.61753 0.0
C392 C 0.67119 0.90258 0.64802 0.0
H393 H 0.56704 0.75806 0.58944 0.0
H394 H 0.59971 0.79423 0.60704 0.0
C395 C 0.6824 0.92453 0.66473 0.0
C396 C 0.64906 0.8849 0.60164 0.0
H397 H 0.58346 0.87318 0.57426 0.0
C398 C 0.66001 0.85783 0.59811 0.0
C399 C 0.62127 0.89067 0.59263 0.0
C400 C 0.6082 0.91922 0.59689 0.0
C401 C 0.64371 0.83617 0.58593 0.0
C402 C 0.61564 0.84175 0.57778 0.0
C403 C 0.60499 0.86902 0.58061 0.0
C404 C 0.59655 0.81955 0.56705 0.0
C405 C 0.65669 0.80759 0.58189 0.0
C406 C 0.58329 0.82236 0.53928 0.0
C407 C 0.56432 0.8021 0.52957 0.0
C408 C 0.55833 0.77874 0.54747 0.0
C409 C 0.57133 0.77602 0.57538 0.0
C410 C 0.59024 0.79639 0.58519 0.0
H411 H 0.6799 0.80885 0.5807 0.0
H412 H 0.65116 0.79421 0.60126 0.0
H413 H 0.64882 0.79725 0.56131 0.0
H414 H 0.58764 0.84025 0.52513 0.0
H415 H 0.55429 0.80465 0.50804 0.0
H416 H 0.95426 0.20857 0.91037 0.0
H417 H 0.91251 0.21238 0.8788 0.0
H418 H 0.86012 0.1989 0.95594 0.0
H419 H 0.90119 0.19595 0.98742 0.0
H420 H 0.87901 0.1708 0.86967 0.0
H421 H 0.81381 0.25565 0.91444 0.0
H422 H 0.85049 0.25256 0.92377 0.0
H423 H 0.82429 0.23387 0.94495 0.0
C424 C 0.93378 0.20708 0.92064 0.0
C425 C 0.93105 0.20174 0.95136 0.0
C426 C 0.90997 0.20943 0.90261 0.0
C427 C 0.88312 0.20648 0.91505 0.0
C428 C 0.88046 0.20228 0.9459 0.0
H429 H 0.74024 0.11754 0.89297 0.0
H430 H 0.77734 0.15048 0.90709 0.0
C431 C 0.90412 0.20018 0.96388 0.0
C432 C 0.85822 0.20255 0.89578 0.0
H433 H 0.78769 0.21413 0.89532 0.0
C434 C 0.85922 0.18102 0.87445 0.0
C435 C 0.8324 0.21599 0.90181 0.0
C436 C 0.83034 0.24101 0.92229 0.0
C437 C 0.83471 0.17054 0.86146 0.0
C438 C 0.80864 0.182 0.87002 0.0
C439 C 0.80777 0.20518 0.88921 0.0
C440 C 0.78242 0.16735 0.86259 0.0
C441 C 0.8366 0.14574 0.84057 0.0
C442 C 0.77237 0.16696 0.83324 0.0
C443 C 0.75127 0.14818 0.82518 0.0
C444 C 0.74025 0.12942 0.84633 0.0
C445 C 0.74868 0.13156 0.87623 0.0
C446 C 0.76974 0.15039 0.8843 0.0
H447 H 0.85845 0.13822 0.83769 0.0
H448 H 0.82365 0.12816 0.84913 0.0
H449 H 0.82826 0.15168 0.81833 0.0
H450 H 0.78179 0.18015 0.81633 0.0
H451 H 0.74427 0.14772 0.80221 0.0
H452 H 0.90188 0.2289 0.14665 0.0
H453 H 0.86659 0.26395 0.1603 0.0
H454 H 0.84153 0.27069 0.06811 0.0
H455 H 0.87587 0.23491 0.05453 0.0
H456 H 0.8631 0.3216 0.09835 0.0
H457 H 0.77769 0.26825 0.16005 0.0
H458 H 0.81255 0.25715 0.16967 0.0
H459 H 0.79935 0.25056 0.13279 0.0
C460 C 0.88838 0.23738 0.12945 0.0
C461 C 0.89233 0.23008 0.09941 0.0
C462 C 0.86818 0.25724 0.13725 0.0
C463 C 0.85159 0.26983 0.11514 0.0
C464 C 0.85424 0.2612 0.08541 0.0
H465 H 0.78522 0.43823 0.15523 0.0
H466 H 0.79073 0.39548 0.1253 0.0
C467 C 0.87421 0.24116 0.07766 0.0
C468 C 0.83491 0.29484 0.12255 0.0
H469 H 0.7827 0.31766 0.16822 0.0
C470 C 0.84508 0.3209 0.11307 0.0
C471 C 0.81147 0.29353 0.1416 0.0
C472 C 0.79939 0.26586 0.15148 0.0
C473 C 0.83399 0.34594 0.12434 0.0
C474 C 0.8115 0.34471 0.1449 0.0
C475 C 0.79992 0.31856 0.15247 0.0
C476 C 0.80322 0.36952 0.16265 0.0
C477 C 0.84807 0.37322 0.11606 0.0
C478 C 0.80681 0.36865 0.19368 0.0
C479 C 0.8032 0.39271 0.21077 0.0
C480 C 0.79618 0.41831 0.19716 0.0
C481 C 0.79109 0.4189 0.16625 0.0
C482 C 0.79431 0.39455 0.14914 0.0
H483 H 0.86818 0.36984 0.10413 0.0
H484 H 0.83409 0.38539 0.10113 0.0
H485 H 0.85231 0.38603 0.13626 0.0
H486 H 0.81366 0.34958 0.20461 0.0
H487 H 0.8071 0.39139 0.23455 0.0
H488 H 0.61339 0.30099 0.46871 0.0
H489 H 0.65369 0.29932 0.43611 0.0
H490 H 0.60168 0.2697 0.36381 0.0
H491 H 0.56041 0.27268 0.39637 0.0
H492 H 0.68121 0.26132 0.40354 0.0
H493 H 0.6314 0.34044 0.32844 0.0
H494 H 0.61546 0.3307 0.36332 0.0
H495 H 0.6146 0.30696 0.33212 0.0
C496 C 0.61038 0.29389 0.44595 0.0
C497 C 0.58359 0.28752 0.43492 0.0
C498 C 0.63358 0.29272 0.42734 0.0
C499 C 0.63068 0.28482 0.39735 0.0
C500 C 0.60427 0.27653 0.38668 0.0
H501 H 0.76444 0.36013 0.29313 0.0
H502 H 0.73261 0.32098 0.30258 0.0
C503 C 0.58076 0.27821 0.40528 0.0
C504 C 0.65504 0.2888 0.37738 0.0
H505 H 0.67966 0.33638 0.32714 0.0
C506 C 0.68081 0.27713 0.38615 0.0
C507 C 0.65448 0.30916 0.35439 0.0
C508 C 0.6276 0.3227 0.34398 0.0
C509 C 0.70617 0.2878 0.37526 0.0
C510 C 0.70554 0.31025 0.35485 0.0
C511 C 0.67988 0.31927 0.34308 0.0
C512 C 0.72998 0.32856 0.35007 0.0
C513 C 0.73338 0.27648 0.38726 0.0
C514 C 0.73955 0.34527 0.37381 0.0
C515 C 0.757 0.36817 0.36835 0.0
C516 C 0.76488 0.37471 0.33904 0.0
C517 C 0.75748 0.35637 0.31574 0.0
C518 C 0.7398 0.33366 0.32115 0.0
H519 H 0.73107 0.25437 0.39468 0.0
H520 H 0.75022 0.27769 0.37021 0.0
H521 H 0.73988 0.28917 0.40686 0.0
H522 H 0.73181 0.3419 0.39626 0.0
H523 H 0.76272 0.38179 0.38672 0.0
H524 H 0.62307 0.26948 0.6301 0.0
H525 H 0.66084 0.23764 0.64442 0.0
H526 H 0.68362 0.22748 0.5519 0.0
H527 H 0.64658 0.26018 0.53754 0.0
H528 H 0.66573 0.17824 0.58194 0.0
H529 H 0.74784 0.23336 0.64608 0.0
H530 H 0.71312 0.24416 0.65632 0.0
H531 H 0.72565 0.25084 0.61914 0.0
C532 C 0.63663 0.26108 0.6129 0.0
C533 C 0.63115 0.26628 0.58265 0.0
C534 C 0.65835 0.2431 0.6211 0.0
C535 C 0.675 0.23029 0.59917 0.0
C536 C 0.67097 0.2372 0.5691 0.0
H537 H 0.72706 0.06304 0.65828 0.0
H538 H 0.73097 0.10302 0.62414 0.0
C539 C 0.64942 0.2554 0.56093 0.0
C540 C 0.69216 0.20581 0.60742 0.0
H541 H 0.73966 0.1846 0.65935 0.0
C542 C 0.68256 0.17944 0.59817 0.0
C543 C 0.71414 0.20768 0.62834 0.0
C544 C 0.726 0.23557 0.63784 0.0
C545 C 0.69188 0.15487 0.61207 0.0
C546 C 0.71213 0.15686 0.63512 0.0
C547 C 0.72402 0.1831 0.64186 0.0
C548 C 0.71648 0.13356 0.65642 0.0
C549 C 0.6777 0.12754 0.60407 0.0
C550 C 0.7091 0.13782 0.68639 0.0
C551 C 0.70753 0.1153 0.70599 0.0
C552 C 0.7129 0.08793 0.69592 0.0
C553 C 0.72221 0.08385 0.66646 0.0
C554 C 0.72438 0.10663 0.64694 0.0
H555 H 0.65956 0.1306 0.58889 0.0
H556 H 0.69288 0.11362 0.59259 0.0
H557 H 0.67016 0.1167 0.62445 0.0
H558 H 0.70296 0.15841 0.69428 0.0
H559 H 0.70057 0.11922 0.72862 0.0
H560 H 0.68389 0.53364 0.25736 0.0
H561 H 0.64813 0.5666 0.27532 0.0
H562 H 0.70117 0.5884 0.34981 0.0
H563 H 0.73705 0.55571 0.33164 0.0
H564 H 0.62104 0.56776 0.33205 0.0
H565 H 0.68216 0.6646 0.31007 0.0
H566 H 0.69094 0.63114 0.29362 0.0
H567 H 0.7003 0.63857 0.33167 0.0
C568 C 0.68769 0.54541 0.27765 0.0
C569 C 0.71297 0.54232 0.29325 0.0
C570 C 0.66742 0.56419 0.2878 0.0
C571 C 0.67234 0.58023 0.31351 0.0
C572 C 0.6973 0.57655 0.32958 0.0
H573 H 0.58529 0.69192 0.42759 0.0
H574 H 0.61978 0.66672 0.39774 0.0
C575 C 0.71755 0.55773 0.31946 0.0
C576 C 0.65112 0.60044 0.32391 0.0
H577 H 0.64061 0.66977 0.339 0.0
C578 C 0.62511 0.59011 0.33327 0.0
C579 C 0.65666 0.62952 0.32534 0.0
C580 C 0.68393 0.64174 0.3144 0.0
C581 C 0.60479 0.60802 0.3453 0.0
C582 C 0.61052 0.63709 0.3473 0.0
C583 C 0.6363 0.6475 0.33724 0.0
C584 C 0.59087 0.65645 0.36218 0.0
C585 C 0.5779 0.5955 0.357 0.0
C586 C 0.56362 0.66023 0.35123 0.0
C587 C 0.54374 0.67447 0.36834 0.0
C588 C 0.55097 0.68525 0.39653 0.0
C589 C 0.57896 0.68357 0.40613 0.0
C590 C 0.59874 0.66922 0.38909 0.0
H591 H 0.57929 0.57235 0.35935 0.0
H592 H 0.57243 0.60461 0.37906 0.0
H593 H 0.56062 0.60027 0.34125 0.0
H594 H 0.55739 0.65102 0.33014 0.0
H595 H 0.52243 0.67574 0.36016 0.0
H596 H 0.44977 0.23722 0.57701 0.0
H597 H 0.4201 0.19773 0.59276 0.0
H598 H 0.44838 0.14962 0.51699 0.0
H599 H 0.47793 0.18909 0.50119 0.0
H600 H 0.37715 0.17038 0.54705 0.0
H601 H 0.45724 0.10011 0.59817 0.0
H602 H 0.46171 0.13773 0.59732 0.0
H603 H 0.46514 0.11779 0.56362 0.0
C604 C 0.44995 0.21798 0.56416 0.0
C605 C 0.46601 0.21585 0.5381 0.0
C606 C 0.43298 0.19563 0.57298 0.0
C607 C 0.4322 0.17096 0.55594 0.0
C608 C 0.4489 0.16853 0.53038 0.0
H609 H 0.34708 0.01613 0.60371 0.0
H610 H 0.37304 0.05028 0.57388 0.0
C611 C 0.46571 0.19092 0.52147 0.0
C612 C 0.41295 0.1482 0.5642 0.0
H613 H 0.4105 0.0848 0.59887 0.0
C614 C 0.38434 0.15154 0.55823 0.0
C615 C 0.42267 0.12363 0.57825 0.0
C616 C 0.45335 0.11939 0.5849 0.0
C617 C 0.36491 0.13098 0.56661 0.0
C618 C 0.37443 0.10691 0.58197 0.0
C619 C 0.40325 0.10324 0.58701 0.0
C620 C 0.35493 0.08654 0.59559 0.0
C621 C 0.33444 0.13528 0.55896 0.0
C622 C 0.33553 0.09566 0.617 0.0
C623 C 0.32053 0.07626 0.63386 0.0
C624 C 0.32505 0.04736 0.62998 0.0
C625 C 0.34324 0.03825 0.60731 0.0
C626 C 0.35812 0.05772 0.59028 0.0
H627 H 0.33207 0.14847 0.53869 0.0
H628 H 0.32357 0.115 0.55517 0.0
H629 H 0.32396 0.14633 0.57767 0.0
H630 H 0.33318 0.11776 0.62195 0.0
H631 H 0.30667 0.08398 0.65115 0.0
H632 H 0.90036 0.79928 0.92883 0.0
H633 H 0.86023 0.8239 0.90763 0.0
H634 H 0.90861 0.84365 0.82914 0.0
H635 H 0.94885 0.81886 0.85002 0.0
H636 H 0.86513 0.88097 0.89601 0.0
H637 H 0.83161 0.82319 0.79464 0.0
H638 H 0.85243 0.80723 0.82371 0.0
H639 H 0.86864 0.82958 0.79642 0.0
C640 C 0.90228 0.80826 0.90672 0.0
C641 C 0.9279 0.80751 0.89125 0.0
C642 C 0.87931 0.82226 0.89466 0.0
C643 C 0.88149 0.83551 0.86686 0.0
C644 C 0.9064 0.83317 0.85045 0.0
H645 H 0.79641 0.96269 0.76761 0.0
H646 H 0.82832 0.9273 0.7881 0.0
C647 C 0.92942 0.81912 0.86249 0.0
C648 C 0.8594 0.85506 0.85707 0.0
H649 H 0.81562 0.87056 0.7993 0.0
C650 C 0.85397 0.87853 0.87507 0.0
C651 C 0.84514 0.85181 0.82969 0.0
C652 C 0.84952 0.82646 0.81009 0.0
C653 C 0.83532 0.89947 0.86588 0.0
C654 C 0.82146 0.89651 0.83821 0.0
C655 C 0.82641 0.87272 0.8205 0.0
C656 C 0.80254 0.91841 0.82668 0.0
C657 C 0.83147 0.92507 0.88528 0.0
C658 C 0.77769 0.92515 0.84179 0.0
C659 C 0.75964 0.94545 0.83023 0.0
C660 C 0.76618 0.95898 0.80336 0.0
C661 C 0.79114 0.95245 0.78845 0.0
C662 C 0.8092 0.93225 0.80002 0.0
H663 H 0.84826 0.927 0.90234 0.0
H664 H 0.83121 0.94445 0.87156 0.0
H665 H 0.81111 0.92356 0.89711 0.0
H666 H 0.77202 0.91434 0.86216 0.0
H667 H 0.74022 0.95 0.84174 0.0
H668 H 0.06934 0.24225 0.09326 0.0
H669 H 0.09872 0.28036 0.11282 0.0
H670 H 0.08487 0.32753 0.032 0.0
H671 H 0.0548 0.28992 0.01292 0.0
H672 H 0.14777 0.30411 0.08845 0.0
H673 H 0.06196 0.38233 0.09784 0.0
H674 H 0.0554 0.34539 0.09259 0.0
H675 H 0.0656 0.36687 0.06149 0.0
C676 C 0.07234 0.26097 0.07996 0.0
C677 C 0.05964 0.26353 0.05188 0.0
C678 C 0.08925 0.28253 0.09096 0.0
C679 C 0.09361 0.30685 0.07398 0.0
C680 C 0.08132 0.30914 0.04565 0.0
H681 H 0.17549 0.46442 0.11653 0.0
H682 H 0.15646 0.42469 0.08857 0.0
C683 C 0.06433 0.28767 0.03474 0.0
C684 C 0.11085 0.32994 0.08599 0.0
H685 H 0.10781 0.39844 0.10746 0.0
C686 C 0.13911 0.32477 0.09261 0.0
C687 C 0.0994 0.35682 0.09126 0.0
C688 C 0.06888 0.36322 0.0857 0.0
C689 C 0.15632 0.3459 0.10437 0.0
C690 C 0.14477 0.37268 0.10993 0.0
C691 C 0.11662 0.37792 0.1029 0.0
C692 C 0.16071 0.39517 0.12492 0.0
C693 C 0.18669 0.33947 0.11062 0.0
C694 C 0.16993 0.39149 0.15437 0.0
C695 C 0.1808 0.41409 0.1704 0.0
C696 C 0.18235 0.44084 0.1573 0.0
C697 C 0.17445 0.44411 0.12728 0.0
C698 C 0.1636 0.42146 0.11127 0.0
H699 H 0.19415 0.32132 0.09726 0.0
H700 H 0.20018 0.35787 0.10574 0.0
H701 H 0.18914 0.3341 0.13457 0.0
H702 H 0.16739 0.37149 0.16549 0.0
H703 H 0.18677 0.41086 0.19347 0.0
H704 H 0.39361 0.71114 0.48894 0.0
H705 H 0.35259 0.70831 0.45709 0.0
H706 H 0.40231 0.7329 0.38108 0.0
H707 H 0.44412 0.73445 0.41278 0.0
H708 H 0.32199 0.739 0.41873 0.0
H709 H 0.37983 0.65498 0.35775 0.0
H710 H 0.39359 0.67087 0.39112 0.0
H711 H 0.39485 0.68941 0.35619 0.0
C712 C 0.39585 0.71649 0.46557 0.0
C713 C 0.42226 0.72227 0.45319 0.0
C714 C 0.37227 0.715 0.44737 0.0
C715 C 0.37457 0.71959 0.41656 0.0
C716 C 0.40029 0.72842 0.40467 0.0
H717 H 0.25175 0.63843 0.30061 0.0
H718 H 0.28512 0.67478 0.31521 0.0
C719 C 0.42411 0.72939 0.42281 0.0
C720 C 0.35105 0.711 0.39709 0.0
H721 H 0.33215 0.65888 0.34897 0.0
C722 C 0.32425 0.72188 0.40296 0.0
C723 C 0.35406 0.6886 0.37654 0.0
C724 C 0.38204 0.67508 0.37008 0.0
C725 C 0.30025 0.70973 0.39034 0.0
C726 C 0.30326 0.68629 0.37139 0.0
C727 C 0.33007 0.67691 0.36359 0.0
C728 C 0.27932 0.66858 0.3626 0.0
C729 C 0.27183 0.72127 0.39831 0.0
C730 C 0.26478 0.65338 0.38449 0.0
C731 C 0.2462 0.63214 0.37621 0.0
C732 C 0.24224 0.62562 0.34597 0.0
C733 C 0.25541 0.64212 0.32411 0.0
C734 C 0.27405 0.66325 0.33237 0.0
H735 H 0.27317 0.74363 0.40517 0.0
H736 H 0.25707 0.71939 0.37925 0.0
H737 H 0.26318 0.70918 0.41734 0.0
H738 H 0.26898 0.65685 0.40797 0.0
H739 H 0.23604 0.61991 0.39346 0.0
H740 H 0.29527 0.90233 0.73762 0.0
H741 H 0.30177 0.85785 0.71216 0.0
H742 H 0.27085 0.8942 0.63034 0.0
H743 H 0.2658 0.9396 0.65547 0.0
H744 H 0.27411 0.81956 0.68098 0.0
H745 H 0.34906 0.87566 0.60661 0.0
H746 H 0.33288 0.89256 0.63809 0.0
H747 H 0.31341 0.88716 0.60416 0.0
C748 C 0.28938 0.90083 0.71432 0.0
C749 C 0.28071 0.92461 0.69831 0.0
C750 C 0.29299 0.87529 0.6998 0.0
C751 C 0.2876 0.87292 0.66913 0.0
C752 C 0.27604 0.89585 0.6538 0.0
H753 H 0.36808 0.74247 0.56296 0.0
H754 H 0.33015 0.77358 0.57854 0.0
C755 C 0.27306 0.92171 0.66818 0.0
C756 C 0.29777 0.84777 0.6531 0.0
H757 H 0.34812 0.82706 0.6038 0.0
C758 C 0.28994 0.82116 0.66371 0.0
C759 C 0.31858 0.84991 0.63065 0.0
C760 C 0.3292 0.8778 0.61933 0.0
C761 C 0.30344 0.79679 0.65363 0.0
C762 C 0.32497 0.79922 0.63229 0.0
C763 C 0.33146 0.82547 0.62017 0.0
C764 C 0.34357 0.77568 0.62457 0.0
C765 C 0.29539 0.76878 0.66658 0.0
C766 C 0.36325 0.76617 0.64553 0.0
C767 C 0.38537 0.74897 0.63652 0.0
C768 C 0.38815 0.74139 0.60641 0.0
C769 C 0.36713 0.74909 0.58603 0.0
C770 C 0.34517 0.7664 0.59497 0.0
H771 H 0.27434 0.76944 0.67711 0.0
H772 H 0.29556 0.75229 0.64906 0.0
H773 H 0.31088 0.76281 0.68392 0.0
H774 H 0.36253 0.7735 0.66841 0.0
H775 H 0.40115 0.743 0.65269 0.0
H776 H 0.09145 0.74481 0.93937 0.0
H777 H 0.13512 0.75867 0.91481 0.0
H778 H 0.09197 0.82738 0.87229 0.0
H779 H 0.04829 0.81299 0.89583 0.0
H780 H 0.13515 0.80928 0.83876 0.0
H781 H 0.16919 0.82538 0.95651 0.0
H782 H 0.16178 0.78981 0.94611 0.0
H783 H 0.13398 0.81523 0.94703 0.0
C784 C 0.09119 0.76226 0.92394 0.0
C785 C 0.06682 0.77833 0.92004 0.0
C786 C 0.11612 0.77023 0.91007 0.0
C787 C 0.11696 0.79473 0.8928 0.0
C788 C 0.09184 0.80859 0.88587 0.0
H789 H 0.22175 0.93538 0.88501 0.0
H790 H 0.19097 0.89612 0.89822 0.0
C791 C 0.06683 0.8003 0.89925 0.0
C792 C 0.14384 0.80868 0.88585 0.0
H793 H 0.19785 0.84368 0.91919 0.0
C794 C 0.14919 0.81643 0.85622 0.0
C795 C 0.16182 0.8183 0.90889 0.0
C796 C 0.1564 0.812 0.94144 0.0
C797 C 0.17114 0.83477 0.8491 0.0
C798 C 0.18875 0.84481 0.87222 0.0
C799 C 0.18434 0.83582 0.9016 0.0
C800 C 0.20978 0.86701 0.86692 0.0
C801 C 0.17402 0.84465 0.81723 0.0
C802 C 0.23124 0.86324 0.84596 0.0
C803 C 0.24842 0.88571 0.83817 0.0
C804 C 0.24476 0.91199 0.85175 0.0
C805 C 0.22483 0.91521 0.87437 0.0
C806 C 0.2073 0.89286 0.88181 0.0
H807 H 0.15507 0.83987 0.80376 0.0
H808 H 0.17785 0.86759 0.81633 0.0
H809 H 0.19207 0.83388 0.80665 0.0
H810 H 0.23405 0.84326 0.83488 0.0
H811 H 0.26402 0.88283 0.82088 0.0
H812 H 0.12585 0.71646 0.02836 0.0
H813 H 0.16517 0.68744 0.0432 0.0
H814 H 0.16105 0.72162 0.1322 0.0
H815 H 0.12287 0.75264 0.11683 0.0
H816 H 0.21681 0.70717 0.11336 0.0
H817 H 0.13905 0.62182 0.09405 0.0
H818 H 0.14754 0.64295 0.0622 0.0
H819 H 0.12936 0.65829 0.09331 0.0
C820 C 0.13418 0.71915 0.0506 0.0
C821 C 0.12145 0.73736 0.07128 0.0
C822 C 0.15648 0.70211 0.05918 0.0
C823 C 0.16571 0.70213 0.08885 0.0
C824 C 0.15425 0.72139 0.10912 0.0
H825 H 0.22136 0.60831 0.22766 0.0
H826 H 0.22035 0.64493 0.19022 0.0
C827 C 0.13228 0.73889 0.1004 0.0
C828 C 0.18363 0.67921 0.10005 0.0
H829 H 0.1809 0.60967 0.11677 0.0
C830 C 0.2093 0.68571 0.11369 0.0
C831 C 0.17379 0.65122 0.10025 0.0
C832 C 0.14587 0.64305 0.0869 0.0
C833 C 0.22476 0.66509 0.12882 0.0
C834 C 0.21396 0.63754 0.13064 0.0
C835 C 0.18931 0.63075 0.1152 0.0
C836 C 0.22428 0.61672 0.15253 0.0
C837 C 0.25203 0.67321 0.14341 0.0
C838 C 0.22783 0.58861 0.14399 0.0
C839 C 0.22772 0.5674 0.16547 0.0
C840 C 0.22418 0.57407 0.1958 0.0
C841 C 0.22389 0.6024 0.20447 0.0
C842 C 0.2237 0.62353 0.183 0.0
H843 H 0.26289 0.68967 0.13024 0.0
H844 H 0.24769 0.68206 0.16585 0.0
H845 H 0.26623 0.65493 0.14592 0.0
H846 H 0.22828 0.58289 0.12058 0.0
H847 H 0.22841 0.54578 0.1581 0.0
H848 H 0.60405 0.99396 0.72679 0.0
H849 H 0.55325 0.99169 0.73192 0.0
H850 H 0.55783 0.04145 0.81218 0.0
H851 H 0.60876 0.04425 0.80708 0.0
H852 H 0.51993 0.97139 0.77886 0.0
H853 H 0.50327 0.08526 0.75858 0.0
H854 H 0.53609 0.06803 0.75073 0.0
H855 H 0.52686 0.07667 0.78848 0.0
C856 C 0.59434 0.0044 0.7456 0.0
C857 C 0.61047 0.01951 0.76638 0.0
C858 C 0.5653 0.00301 0.74851 0.0
C859 C 0.55184 0.01671 0.77219 0.0
C860 C 0.56785 0.03115 0.79347 0.0
H861 H 0.37208 0.99193 0.80469 0.0
H862 H 0.42268 0.99557 0.81269 0.0
C863 C 0.59694 0.03263 0.79055 0.0
C864 C 0.52097 0.01626 0.774 0.0
H865 H 0.46316 0.05786 0.76772 0.0
C866 C 0.50745 0.99028 0.7767 0.0
C867 C 0.50491 0.04099 0.77088 0.0
C868 C 0.51842 0.06933 0.76676 0.0
C869 C 0.47817 0.98827 0.77577 0.0
C870 C 0.46211 0.01298 0.77252 0.0
C871 C 0.47562 0.03902 0.77044 0.0
C872 C 0.43141 0.01206 0.76869 0.0
C873 C 0.46471 0.95966 0.777 0.0
C874 C 0.41961 0.0209 0.74165 0.0
C875 C 0.3908 0.01903 0.73704 0.0
C876 C 0.37322 0.00831 0.75947 0.0
C877 C 0.38505 0.00013 0.78689 0.0
C878 C 0.41394 0.00206 0.79148 0.0
H879 H 0.48019 0.94256 0.77363 0.0
H880 H 0.45484 0.95669 0.79919 0.0
H881 H 0.44809 0.95772 0.75978 0.0
H882 H 0.43279 0.02875 0.72383 0.0
H883 H 0.38242 0.0256 0.7157 0.0
H884 H 0.97086 0.09784 0.05054 0.0
H885 H 0.97417 0.04684 0.05374 0.0
H886 H 0.04567 0.04804 -0.00509 0.0
H887 H 0.04194 0.09895 0.9908 0.0
H888 H 0.00794 0.01167 0.97647 0.0
H889 H 0.02604 0.99456 0.09714 0.0
H890 H -0.00459 0.0153 0.09012 0.0
H891 H 0.02937 0.02861 0.07995 0.0
C892 C 0.98755 0.08729 0.03863 0.0
C893 C 0.00607 0.10241 0.02031 0.0
C894 C 0.98955 0.05813 0.04068 0.0
C895 C 0.01043 0.04365 0.02493 0.0
C896 C 0.02945 0.05881 0.00734 0.0
H897 H 0.04527 0.86431 0.03321 0.0
H898 H 0.04653 0.9152 0.04068 0.0
C899 C 0.02726 0.08789 0.00498 0.0
C900 C 0.01086 0.01259 0.02446 0.0
H901 H 0.01186 0.95431 0.0687 0.0
C902 C 0.00907 -0.00084 -0.00335 0.0
C903 C 0.0126 -0.00373 0.05077 0.0
C904 C 0.01626 0.00942 0.08115 0.0
C905 C 0.00839 0.9699 0.99441 0.0
C906 C 0.00868 0.9536 0.02077 0.0
C907 C 0.01119 0.96692 0.04858 0.0
C908 C 0.00645 0.9227 0.0196 0.0
C909 C 0.0077 0.95674 0.96374 0.0
C910 C 0.98301 0.91007 0.00638 0.0
C911 C 0.98235 0.88116 0.00181 0.0
C912 C 0.00494 0.86429 0.01085 0.0
C913 C 0.02759 0.87677 0.02593 0.0
C914 C 0.02835 0.90581 0.03021 0.0
H915 H 0.01558 0.97137 0.94638 0.0
H916 H 0.02046 0.93729 0.96301 0.0
H917 H 0.98577 0.95126 0.95798 0.0
H918 H 0.96558 0.9227 -0.00126 0.0
H919 H 0.96441 0.87213 0.99053 0.0
H920 H 0.10707 0.48258 0.23805 0.0
H921 H 0.05612 0.48442 0.24186 0.0
H922 H 0.06207 0.55917 0.29577 0.0
H923 H 0.11316 0.55701 0.29289 0.0
H924 H 0.02413 0.52349 0.318 0.0
H925 H 0.00561 0.5371 0.19702 0.0
H926 H 0.02578 0.50621 0.20457 0.0
H927 H 0.03996 0.54022 0.21345 0.0
C928 C 0.09756 0.49945 0.25068 0.0
C929 C 0.11413 0.51977 0.26498 0.0
C930 C 0.06844 0.50057 0.25268 0.0
C931 C 0.05533 0.52232 0.2685 0.0
C932 C 0.0718 0.54234 0.28327 0.0
H933 H 0.87603 0.54461 0.24226 0.0
H934 H 0.92607 0.55445 0.24685 0.0
C935 C 0.10097 0.54106 0.28158 0.0
C936 C 0.02442 0.52386 0.2699 0.0
H937 H 0.96599 0.5232 0.22625 0.0
C938 C 0.01137 0.52377 0.29797 0.0
C939 C 0.00783 0.52491 0.24377 0.0
C940 C 0.02053 0.52744 0.21304 0.0
C941 C 0.98209 0.52348 0.30057 0.0
C942 C 0.96555 0.52244 0.27438 0.0
C943 C 0.97865 0.52369 0.24636 0.0
C944 C 0.93477 0.51874 0.27519 0.0
C945 C 0.96929 0.52443 0.33133 0.0
C946 C 0.92294 0.49567 0.29001 0.0
C947 C 0.89428 0.49028 0.28783 0.0
C948 C 0.87708 0.50746 0.27015 0.0
C949 C 0.88881 0.53092 0.25591 0.0
C950 C 0.91738 0.53657 0.25854 0.0
H951 H 0.98337 0.53518 0.34744 0.0
H952 H 0.94877 0.53539 0.33121 0.0
H953 H 0.96606 0.5027 0.33946 0.0
H954 H 0.93601 0.48114 0.30226 0.0
H955 H 0.88588 0.47189 0.29882 0.0
H956 H 0.54333 0.38918 0.53461 0.0
H957 H 0.53655 0.43964 0.53953 0.0
H958 H 0.46048 0.43399 0.4878 0.0
H959 H 0.46782 0.38357 0.48168 0.0
H960 H 0.49136 0.47471 0.46809 0.0
H961 H 0.48572 0.48499 0.59076 0.0
H962 H 0.51738 0.46772 0.57969 0.0
H963 H 0.48404 0.45143 0.57224 0.0
C964 C 0.52498 0.39862 0.52457 0.0
C965 C 0.5061 0.38243 0.50775 0.0
C966 C 0.521 0.42746 0.52763 0.0
C967 C 0.4977 0.44054 0.51457 0.0
C968 C 0.47854 0.42431 0.4982 0.0
H969 H 0.45891 0.6171 0.54589 0.0
H970 H 0.4588 0.56581 0.5466 0.0
C971 C 0.48276 0.39553 0.4947 0.0
C972 C 0.49456 0.47141 0.51596 0.0
H973 H 0.49579 0.52733 0.56352 0.0
C974 C 0.49198 0.48617 0.48901 0.0
C975 C 0.49491 0.48638 0.54325 0.0
C976 C 0.49535 0.47175 0.5731 0.0
C977 C 0.49061 0.51549 0.48851 0.0
C978 C 0.49295 0.53052 0.51564 0.0
C979 C 0.49455 0.51578 0.54269 0.0
C980 C 0.49387 0.56153 0.51633 0.0
C981 C 0.48635 0.52997 0.4589 0.0
C982 C 0.51413 0.57609 0.49978 0.0
C983 C 0.51399 0.60532 0.49899 0.0
C984 C 0.49398 0.62053 0.51532 0.0
C985 C 0.47457 0.60594 0.53306 0.0
C986 C 0.47446 0.57666 0.53347 0.0
H987 H 0.47601 0.5159 0.44247 0.0
H988 H 0.47343 0.54919 0.46137 0.0
H989 H 0.50702 0.536 0.44959 0.0
H990 H 0.52988 0.56484 0.48719 0.0
H991 H 0.52945 0.61599 0.48544 0.0
loop_
_geom_bond_atom_site_label_1
_geom_bond_atom_site_label_2
_geom_bond_distance
_geom_bond_site_symmetry_2
_ccdc_geom_bond_type
Co0 O3 1.970 1_545 S
Co0 N17 1.989 . S
Co0 O25 1.967 . S
Co0 O32 1.920 . S
Co1 O4 1.966 . S
Co1 N10 2.022 . S
Co1 N18 1.993 1_565 S
Co1 O26 1.941 . S
C2 O3 1.258 . S
C2 O4 1.263 . S
O3 Co0 1.970 1_565 S
O3 C2 1.258 . S
O4 Co1 1.966 . S
O4 C2 1.263 . S
C5 O6 1.235 . S
C5 O32 1.289 . S
O6 C5 1.235 . S
C7 C9 1.400 . S
C7 N10 1.351 . S
C7 C12 1.501 . S
C8 C9 1.387 . S
C8 N11 1.341 . S
C9 C7 1.400 . S
C9 C8 1.387 . S
N10 Co1 2.022 . S
N10 C7 1.351 . S
N10 N11 1.365 . S
N11 C8 1.341 . S
N11 N10 1.365 . S
N11 H31 0.862 . S
C12 C7 1.501 . S
C12 H13 0.961 . S
C12 H14 0.961 . S
C12 H15 0.960 . S
H13 C12 0.961 . S
H14 C12 0.961 . S
H15 C12 0.960 . S
C16 N17 1.342 . S
C16 C20 1.401 . S
C16 C21 1.499 . S
N17 Co0 1.989 . S
N17 C16 1.342 . S
N17 N18 1.388 . S
N18 Co1 1.993 1_545 S
N18 N17 1.388 . S
N18 C19 1.346 . S
C19 N18 1.346 . S
C19 C20 1.396 . S
C19 C29 1.510 . S
C20 C16 1.401 . S
C20 C19 1.396 . S
C21 C16 1.499 . S
C21 H22 0.959 . S
C21 H23 0.960 . S
C21 H24 0.961 . S
H22 C21 0.959 . S
H23 C21 0.960 . S
H24 C21 0.961 . S
O25 Co0 1.967 . S
O25 C33 1.251 1_545 S
O26 Co1 1.941 . S
O26 C33 1.274 . S
H27 C29 0.959 . S
H28 C29 0.961 . S
C29 C19 1.510 . S
C29 H27 0.959 . S
C29 H28 0.961 . S
C29 H30 0.960 1_545 S
H30 C29 0.960 1_565 S
H31 N11 0.862 . S
O32 Co0 1.920 . S
O32 C5 1.289 . S
C33 O25 1.251 1_565 S
C33 O26 1.274 . S
Co34 O37 1.970 1_655 S
Co34 N51 1.989 1_556 S
Co34 O59 1.950 1_556 S
Co34 O66 1.920 . S
Co35 O38 1.966 1_554 S
Co35 N44 2.022 . S
Co35 N52 1.993 1_455 S
Co35 O60 1.941 . S
C36 O37 1.258 . S
C36 O38 1.263 . S
O37 Co34 1.970 1_455 S
O37 C36 1.258 . S
O38 Co35 1.966 1_556 S
O38 C36 1.263 . S
C39 O40 1.235 . S
C39 O66 1.289 . S
O40 C39 1.235 . S
C41 C43 1.400 . S
C41 N44 1.351 . S
C41 C46 1.501 . S
C42 C43 1.387 . S
C42 N45 1.341 . S
C43 C41 1.400 . S
C43 C42 1.387 . S
N44 Co35 2.022 . S
N44 C41 1.351 . S
N44 N45 1.365 . S
N45 C42 1.341 . S
N45 N44 1.365 . S
N45 H65 0.862 . S
C46 C41 1.501 . S
C46 H47 0.961 . S
C46 H48 0.961 . S
C46 H49 0.960 . S
H47 C46 0.961 . S
H48 C46 0.961 . S
H49 C46 0.960 . S
C50 N51 1.342 . S
C50 C54 1.401 . S
C50 C55 1.499 1_554 S
N51 Co34 1.989 1_554 S
N51 C50 1.342 . S
N51 N52 1.388 . S
N52 Co35 1.993 1_655 S
N52 N51 1.388 . S
N52 C53 1.346 . S
C53 N52 1.346 . S
C53 C54 1.396 . S
C53 C63 1.510 1_655 S
C54 C50 1.401 . S
C54 C53 1.396 . S
C55 C50 1.499 1_556 S
C55 H56 0.959 . S
C55 H57 0.960 . S
C55 H58 0.961 1_556 S
H56 C55 0.959 . S
H57 C55 0.960 . S
H58 C55 0.961 1_554 S
O59 Co34 1.950 1_554 S
O59 C67 1.282 1_655 S
O60 Co35 1.941 . S
O60 C67 1.266 . S
H61 C63 0.959 1_655 S
H62 C63 0.961 . S
C63 C53 1.510 1_455 S
C63 H61 0.959 1_455 S
C63 H62 0.961 . S
C63 H64 0.960 . S
H64 C63 0.960 . S
H65 N45 0.862 . S
O66 Co34 1.920 . S
O66 C39 1.289 . S
C67 O59 1.282 1_455 S
C67 O60 1.266 . S
Co68 O71 1.970 . S
Co68 N85 1.989 . S
Co68 O93 1.967 . S
Co68 O100 1.920 . S
Co69 O72 1.966 . S
Co69 N78 2.022 . S
Co69 N86 1.993 . S
Co69 O94 1.941 . S
C70 O71 1.258 . S
C70 O72 1.263 . S
O71 Co68 1.970 . S
O71 C70 1.258 . S
O72 Co69 1.966 . S
O72 C70 1.263 . S
C73 O74 1.235 . S
C73 O100 1.289 . S
O74 C73 1.235 . S
C75 C77 1.400 . S
C75 N78 1.351 . S
C75 C80 1.501 . S
C76 C77 1.387 . S
C76 N79 1.341 . S
C77 C75 1.400 . S
C77 C76 1.387 . S
N78 Co69 2.022 . S
N78 C75 1.351 . S
N78 N79 1.365 . S
N79 C76 1.341 . S
N79 N78 1.365 . S
N79 H99 0.862 . S
C80 C75 1.501 . S
C80 H81 0.961 . S
C80 H82 0.961 . S
C80 H83 0.960 . S
H81 C80 0.961 . S
H82 C80 0.961 . S
H83 C80 0.960 . S
C84 N85 1.342 . S
C84 C88 1.401 . S
C84 C89 1.499 . S
N85 Co68 1.989 . S
N85 C84 1.342 . S
N85 N86 1.388 . S
N86 Co69 1.993 . S
N86 N85 1.388 . S
N86 C87 1.346 . S
C87 N86 1.346 . S
C87 C88 1.396 . S
C87 C97 1.510 . S
C88 C84 1.401 . S
C88 C87 1.396 . S
C89 C84 1.499 . S
C89 H90 0.959 . S
C89 H91 0.960 . S
C89 H92 0.961 . S
H90 C89 0.959 . S
H91 C89 0.960 . S
H92 C89 0.961 . S
O93 Co68 1.967 . S
O93 C101 1.258 . S
O94 Co69 1.941 . S
O94 C101 1.266 . S
H95 C97 0.959 . S
H96 C97 0.961 . S
C97 C87 1.510 . S
C97 H95 0.959 . S
C97 H96 0.961 . S
C97 H98 0.960 . S
H98 C97 0.960 . S
H99 N79 0.862 . S
O100 Co68 1.920 . S
O100 C73 1.289 . S
C101 O93 1.258 . S
C101 O94 1.266 . S
Co102 O105 1.970 . S
Co102 N119 1.989 . S
Co102 O127 1.967 . S
Co102 O134 1.920 . S
Co103 O106 1.966 . S
Co103 N112 2.022 . S
Co103 N120 1.993 . S
Co103 O128 1.941 . S
C104 O105 1.258 . S
C104 O106 1.263 . S
O105 Co102 1.970 . S
O105 C104 1.258 . S
O106 Co103 1.966 . S
O106 C104 1.263 . S
C107 O108 1.235 . S
C107 O134 1.289 . S
O108 C107 1.235 . S
C109 C111 1.400 . S
C109 N112 1.351 . S
C109 C114 1.501 . S
C110 C111 1.387 . S
C110 N113 1.341 . S
C111 C109 1.400 . S
C111 C110 1.387 . S
N112 Co103 2.022 . S
N112 C109 1.351 . S
N112 N113 1.365 . S
N113 C110 1.341 . S
N113 N112 1.365 . S
N113 H133 0.862 . S
C114 C109 1.501 . S
C114 H115 0.961 . S
C114 H116 0.961 . S
C114 H117 0.960 . S
H115 C114 0.961 . S
H116 C114 0.961 . S
H117 C114 0.960 . S
C118 N119 1.342 . S
C118 C122 1.401 . S
C118 C123 1.499 . S
N119 Co102 1.989 . S
N119 C118 1.342 . S
N119 N120 1.388 . S
N120 Co103 1.993 . S
N120 N119 1.388 . S
N120 C121 1.346 . S
C121 N120 1.346 . S
C121 C122 1.396 . S
C121 C131 1.510 . S
C122 C118 1.401 . S
C122 C121 1.396 . S
C123 C118 1.499 . S
C123 H124 0.959 . S
C123 H125 0.960 . S
C123 H126 0.961 . S
H124 C123 0.959 . S
H125 C123 0.960 . S
H126 C123 0.961 . S
O127 Co102 1.967 . S
O127 C135 1.258 . S
O128 Co103 1.941 . S
O128 C135 1.266 . S
H129 C131 0.959 . S
H130 C131 0.961 . S
C131 C121 1.510 . S
C131 H129 0.959 . S
C131 H130 0.961 . S
C131 H132 0.960 . S
H132 C131 0.960 . S
H133 N113 0.862 . S
O134 Co102 1.920 . S
O134 C107 1.289 . S
C135 O127 1.258 . S
C135 O128 1.266 . S
Co136 O139 1.970 1_565 S
Co136 N153 1.989 . S
Co136 O161 1.967 . S
Co136 O168 1.920 . S
Co137 O140 1.966 . S
Co137 N146 2.022 . S
Co137 N154 1.993 1_545 S
Co137 O162 1.941 . S
C138 O139 1.258 . S
C138 O140 1.263 . S
O139 Co136 1.970 1_545 S
O139 C138 1.258 . S
O140 Co137 1.966 . S
O140 C138 1.263 . S
C141 O142 1.235 . S
C141 O168 1.289 . S
O142 C141 1.235 . S
C143 C145 1.400 . S
C143 N146 1.351 . S
C143 C148 1.501 . S
C144 C145 1.387 . S
C144 N147 1.341 . S
C145 C143 1.400 . S
C145 C144 1.387 . S
N146 Co137 2.022 . S
N146 C143 1.351 . S
N146 N147 1.365 . S
N147 C144 1.341 . S
N147 N146 1.365 . S
N147 H167 0.862 . S
C148 C143 1.501 . S
C148 H149 0.961 . S
C148 H150 0.961 . S
C148 H151 0.960 . S
H149 C148 0.961 . S
H150 C148 0.961 . S
H151 C148 0.960 . S
C152 N153 1.342 . S
C152 C156 1.401 . S
C152 C157 1.499 . S
N153 Co136 1.989 . S
N153 C152 1.342 . S
N153 N154 1.388 . S
N154 Co137 1.993 1_565 S
N154 N153 1.388 . S
N154 C155 1.346 . S
C155 N154 1.346 . S
C155 C156 1.396 . S
C155 C165 1.510 1_565 S
C156 C152 1.401 . S
C156 C155 1.396 . S
C157 C152 1.499 . S
C157 H158 0.959 . S
C157 H159 0.960 . S
C157 H160 0.961 . S
H158 C157 0.959 . S
H159 C157 0.960 . S
H160 C157 0.961 . S
O161 Co136 1.967 . S
O161 C169 1.258 1_565 S
O162 Co137 1.941 . S
O162 C169 1.266 . S
H163 C165 0.959 1_565 S
H164 C165 0.961 . S
C165 C155 1.510 1_545 S
C165 H163 0.959 1_545 S
C165 H164 0.961 . S
C165 H166 0.960 . S
H166 C165 0.960 . S
H167 N147 0.862 . S
O168 Co136 1.920 . S
O168 C141 1.289 . S
C169 O161 1.258 1_545 S
C169 O162 1.266 . S
Co170 O173 1.970 1_455 S
Co170 N187 1.989 1_556 S
Co170 O195 1.961 1_556 S
Co170 O202 1.920 . S
Co171 O174 1.966 1_554 S
Co171 N180 2.022 . S
Co171 N188 1.993 1_655 S
Co171 O196 1.941 . S
C172 O173 1.258 . S
C172 O174 1.263 . S
O173 Co170 1.970 1_655 S
O173 C172 1.258 . S
O174 Co171 1.966 1_556 S
O174 C172 1.263 . S
C175 O176 1.235 . S
C175 O202 1.289 . S
O176 C175 1.235 . S
C177 C179 1.400 . S
C177 N180 1.351 . S
C177 C182 1.501 . S
C178 C179 1.387 . S
C178 N181 1.341 . S
C179 C177 1.400 . S
C179 C178 1.387 . S
N180 Co171 2.022 . S
N180 C177 1.351 . S
N180 N181 1.365 . S
N181 C178 1.341 . S
N181 N180 1.365 . S
N181 H201 0.862 . S
C182 C177 1.501 . S
C182 H183 0.982 . S
C182 H184 0.961 . S
C182 H185 0.960 . S
H183 C182 0.982 . S
H184 C182 0.961 . S
H185 C182 0.960 . S
C186 N187 1.342 . S
C186 C190 1.401 . S
C186 C191 1.499 1_554 S
N187 Co170 1.989 1_554 S
N187 C186 1.342 . S
N187 N188 1.388 . S
N188 Co171 1.993 1_455 S
N188 N187 1.388 . S
N188 C189 1.346 . S
C189 N188 1.346 . S
C189 C190 1.396 . S
C189 C199 1.510 . S
C190 C186 1.401 . S
C190 C189 1.396 . S
C191 C186 1.499 1_556 S
C191 H192 0.959 . S
C191 H193 0.960 . S
C191 H194 0.961 1_556 S
H192 C191 0.959 . S
H193 C191 0.960 . S
H194 C191 0.961 1_554 S
O195 Co170 1.961 1_554 S
O195 C203 1.257 1_455 S
O196 Co171 1.941 . S
O196 C203 1.276 . S
H197 C199 0.959 . S
H198 C199 0.961 . S
C199 C189 1.510 . S
C199 H197 0.959 . S
C199 H198 0.961 . S
C199 H200 0.960 1_455 S
H200 C199 0.960 1_655 S
H201 N181 0.862 . S
O202 Co170 1.920 . S
O202 C175 1.289 . S
C203 O195 1.257 1_655 S
C203 O196 1.276 . S
Co204 O207 1.970 . S
Co204 N221 1.989 . S
Co204 O229 1.967 . S
Co204 O236 1.920 . S
Co205 O208 1.966 . S
Co205 N214 2.022 . S
Co205 N222 1.993 . S
Co205 O230 1.941 . S
C206 O207 1.258 . S
C206 O208 1.263 . S
O207 Co204 1.970 . S
O207 C206 1.258 . S
O208 Co205 1.966 . S
O208 C206 1.263 . S
C209 O210 1.235 . S
C209 O236 1.289 . S
O210 C209 1.235 . S
C211 C213 1.400 . S
C211 N214 1.351 . S
C211 C216 1.501 . S
C212 C213 1.387 . S
C212 N215 1.341 . S
C213 C211 1.400 . S
C213 C212 1.387 . S
N214 Co205 2.022 . S
N214 C211 1.351 . S
N214 N215 1.365 . S
N215 C212 1.341 . S
N215 N214 1.365 . S
N215 H235 0.862 . S
C216 C211 1.501 . S
C216 H217 0.961 . S
C216 H218 0.961 . S
C216 H219 0.960 . S
H217 C216 0.961 . S
H218 C216 0.961 . S
H219 C216 0.960 . S
C220 N221 1.342 . S
C220 C224 1.401 . S
C220 C225 1.499 . S
N221 Co204 1.989 . S
N221 C220 1.342 . S
N221 N222 1.388 . S
N222 Co205 1.993 . S
N222 N221 1.388 . S
N222 C223 1.346 . S
C223 N222 1.346 . S
C223 C224 1.396 . S
C223 C233 1.510 . S
C224 C220 1.401 . S
C224 C223 1.396 . S
C225 C220 1.499 . S
C225 H226 0.959 . S
C225 H227 0.960 . S
C225 H228 0.961 . S
H226 C225 0.959 . S
H227 C225 0.960 . S
H228 C225 0.961 . S
O229 Co204 1.967 . S
O229 C237 1.258 . S
O230 Co205 1.941 . S
O230 C237 1.266 . S
H231 C233 0.959 . S
H232 C233 0.961 . S
C233 C223 1.510 . S
C233 H231 0.959 . S
C233 H232 0.961 . S
C233 H234 0.960 . S
H234 C233 0.960 . S
H235 N215 0.862 . S
O236 Co204 1.920 . S
O236 C209 1.289 . S
C237 O229 1.258 . S
C237 O230 1.266 . S
Co238 O241 1.970 . S
Co238 N255 1.989 . S
Co238 O263 1.967 . S
Co238 O270 1.920 . S
Co239 O242 1.966 . S
Co239 N248 2.022 . S
Co239 N256 1.993 . S
Co239 O264 1.941 . S
C240 O241 1.258 . S
C240 O242 1.263 . S
O241 Co238 1.970 . S
O241 C240 1.258 . S
O242 Co239 1.966 . S
O242 C240 1.263 . S
C243 O244 1.235 . S
C243 O270 1.289 . S
O244 C243 1.235 . S
C245 C247 1.400 . S
C245 N248 1.351 . S
C245 C250 1.501 . S
C246 C247 1.387 . S
C246 N249 1.341 . S
C247 C245 1.400 . S
C247 C246 1.387 . S
N248 Co239 2.022 . S
N248 C245 1.351 . S
N248 N249 1.365 . S
N249 C246 1.341 . S
N249 N248 1.365 . S
N249 H269 0.862 . S
C250 C245 1.501 . S
C250 H251 0.961 . S
C250 H252 0.961 . S
C250 H253 0.960 . S
H251 C250 0.961 . S
H252 C250 0.961 . S
H253 C250 0.960 . S
C254 N255 1.342 . S
C254 C258 1.401 . S
C254 C259 1.499 . S
N255 Co238 1.989 . S
N255 C254 1.342 . S
N255 N256 1.388 . S
N256 Co239 1.993 . S
N256 N255 1.388 . S
N256 C257 1.346 . S
C257 N256 1.346 . S
C257 C258 1.396 . S
C257 C267 1.510 . S
C258 C254 1.401 . S
C258 C257 1.396 . S
C259 C254 1.499 . S
C259 H260 0.959 . S
C259 H261 0.960 . S
C259 H262 0.961 . S
H260 C259 0.959 . S
H261 C259 0.960 . S
H262 C259 0.961 . S
O263 Co238 1.967 . S
O263 C271 1.258 . S
O264 Co239 1.941 . S
O264 C271 1.266 . S
H265 C267 0.959 . S
H266 C267 0.961 . S
C267 C257 1.510 . S
C267 H265 0.959 . S
C267 H266 0.961 . S
C267 H268 0.960 . S
H268 C267 0.960 . S
H269 N249 0.862 . S
O270 Co238 1.920 . S
O270 C243 1.289 . S
C271 O263 1.258 . S
C271 O264 1.266 . S
H272 C280 0.929 . S
H273 C282 0.930 . S
H274 C284 0.930 . S
H275 C287 0.929 . S
H276 C290 0.930 . S
H277 C292 0.960 . S
H278 C292 0.960 . S
H279 C292 0.960 . S
C280 H272 0.929 . S
C280 C281 1.377 . S
C280 C282 1.384 . S
C281 C280 1.377 . S
C281 C287 1.390 . S
C282 H273 0.930 . S
C282 C280 1.384 . S
C282 C283 1.372 . S
C283 C282 1.372 . S
C283 C284 1.400 . S
C283 C288 1.490 . S
C284 H274 0.930 . S
C284 C283 1.400 . S
C284 C287 1.386 . S
H285 C301 0.930 . S
H286 C302 0.931 . S
C287 H275 0.929 . S
C287 C281 1.390 . S
C287 C284 1.386 . S
C288 C283 1.490 . S
C288 C290 1.395 . S
C288 C291 1.403 . S
H289 C295 0.930 . S
C290 H276 0.930 . S
C290 C288 1.395 . S
C290 C293 1.403 . S
C291 C288 1.403 . S
C291 C292 1.524 . S
C291 C295 1.400 . S
C292 H277 0.960 . S
C292 H278 0.960 . S
C292 H279 0.960 . S
C292 C291 1.524 . S
C293 C290 1.403 . S
C293 C294 1.392 . S
C293 C297 1.495 . S
C294 C293 1.392 . S
C294 C295 1.385 . S
C294 C296 1.478 . S
C295 H289 0.930 . S
C295 C291 1.400 . S
C295 C294 1.385 . S
C296 C294 1.478 . S
C296 C298 1.381 . S
C296 C302 1.383 . S
C297 C293 1.495 . S
C297 H303 0.959 . S
C297 H304 0.961 . S
C297 H305 0.960 . S
C298 C296 1.381 . S
C298 C299 1.394 . S
C298 H306 0.930 . S
C299 C298 1.394 . S
C299 C300 1.383 . S
C299 H307 0.929 . S
C300 C299 1.383 . S
C300 C301 1.377 . S
C301 H285 0.930 . S
C301 C300 1.377 . S
C301 C302 1.379 . S
C302 H286 0.931 . S
C302 C296 1.383 . S
C302 C301 1.379 . S
H303 C297 0.959 . S
H304 C297 0.961 . S
H305 C297 0.960 . S
H306 C298 0.930 . S
H307 C299 0.929 . S
H308 C316 0.929 . S
H309 C318 0.930 . S
H310 C320 0.930 . S
H311 C323 0.929 . S
H312 C326 0.930 . S
H313 C328 0.960 . S
H314 C328 0.960 . S
H315 C328 0.960 . S
C316 H308 0.929 . S
C316 C317 1.377 . S
C316 C318 1.384 . S
C317 C316 1.377 . S
C317 C323 1.390 . S
C318 H309 0.930 . S
C318 C316 1.384 . S
C318 C319 1.372 . S
C319 C318 1.372 . S
C319 C320 1.400 . S
C319 C324 1.490 . S
C320 H310 0.930 . S
C320 C319 1.400 . S
C320 C323 1.386 . S
H321 C337 0.930 . S
H322 C338 0.931 . S
C323 H311 0.929 . S
C323 C317 1.390 . S
C323 C320 1.386 . S
C324 C319 1.490 . S
C324 C326 1.395 . S
C324 C327 1.403 . S
H325 C331 0.930 . S
C326 H312 0.930 . S
C326 C324 1.395 . S
C326 C329 1.403 . S
C327 C324 1.403 . S
C327 C328 1.524 . S
C327 C331 1.400 . S
C328 H313 0.960 . S
C328 H314 0.960 . S
C328 H315 0.960 . S
C328 C327 1.524 . S
C329 C326 1.403 . S
C329 C330 1.392 . S
C329 C333 1.495 . S
C330 C329 1.392 . S
C330 C331 1.385 . S
C330 C332 1.478 . S
C331 H325 0.930 . S
C331 C327 1.400 . S
C331 C330 1.385 . S
C332 C330 1.478 . S
C332 C334 1.381 . S
C332 C338 1.383 . S
C333 C329 1.495 . S
C333 H339 0.959 . S
C333 H340 0.961 . S
C333 H341 0.960 . S
C334 C332 1.381 . S
C334 C335 1.394 . S
C334 H342 0.930 . S
C335 C334 1.394 . S
C335 C336 1.383 . S
C335 H343 0.929 . S
C336 C335 1.383 . S
C336 C337 1.377 . S
C337 H321 0.930 . S
C337 C336 1.377 . S
C337 C338 1.379 . S
C338 H322 0.931 . S
C338 C332 1.383 . S
C338 C337 1.379 . S
H339 C333 0.959 . S
H340 C333 0.961 . S
H341 C333 0.960 . S
H342 C334 0.930 . S
H343 C335 0.929 . S
H344 C352 0.929 . S
H345 C354 0.930 . S
H346 C356 0.930 . S
H347 C359 0.929 . S
H348 C362 0.930 . S
H349 C364 0.960 . S
H350 C364 0.960 . S
H351 C364 0.960 . S
C352 H344 0.929 . S
C352 C353 1.377 . S
C352 C354 1.384 . S
C353 C352 1.377 . S
C353 C359 1.390 . S
C354 H345 0.930 . S
C354 C352 1.384 . S
C354 C355 1.372 . S
C355 C354 1.372 . S
C355 C356 1.400 . S
C355 C360 1.490 . S
C356 H346 0.930 . S
C356 C355 1.400 . S
C356 C359 1.386 . S
H357 C373 0.930 . S
H358 C374 0.931 . S
C359 H347 0.929 . S
C359 C353 1.390 . S
C359 C356 1.386 . S
C360 C355 1.490 . S
C360 C362 1.395 . S
C360 C363 1.403 . S
H361 C367 0.930 . S
C362 H348 0.930 . S
C362 C360 1.395 . S
C362 C365 1.403 . S
C363 C360 1.403 . S
C363 C364 1.524 . S
C363 C367 1.400 . S
C364 H349 0.960 . S
C364 H350 0.960 . S
C364 H351 0.960 . S
C364 C363 1.524 . S
C365 C362 1.403 . S
C365 C366 1.392 . S
C365 C369 1.495 . S
C366 C365 1.392 . S
C366 C367 1.385 . S
C366 C368 1.478 . S
C367 H361 0.930 . S
C367 C363 1.400 . S
C367 C366 1.385 . S
C368 C366 1.478 . S
C368 C370 1.381 . S
C368 C374 1.383 . S
C369 C365 1.495 . S
C369 H375 0.959 . S
C369 H376 0.961 . S
C369 H377 0.960 . S
C370 C368 1.381 . S
C370 C371 1.394 . S
C370 H378 0.930 . S
C371 C370 1.394 . S
C371 C372 1.383 . S
C371 H379 0.929 . S
C372 C371 1.383 . S
C372 C373 1.377 . S
C373 H357 0.930 . S
C373 C372 1.377 . S
C373 C374 1.379 . S
C374 H358 0.931 . S
C374 C368 1.383 . S
C374 C373 1.379 . S
H375 C369 0.959 . S
H376 C369 0.961 . S
H377 C369 0.960 . S
H378 C370 0.930 . S
H379 C371 0.929 . S
H380 C388 0.929 . S
H381 C390 0.930 . S
H382 C392 0.930 . S
H383 C395 0.929 . S
H384 C398 0.930 . S
H385 C400 0.960 . S
H386 C400 0.960 . S
H387 C400 0.960 . S
C388 H380 0.929 . S
C388 C389 1.377 . S
C388 C390 1.384 . S
C389 C388 1.377 . S
C389 C395 1.390 . S
C390 H381 0.930 . S
C390 C388 1.384 . S
C390 C391 1.372 . S
C391 C390 1.372 . S
C391 C392 1.400 . S
C391 C396 1.490 . S
C392 H382 0.930 . S
C392 C391 1.400 . S
C392 C395 1.386 . S
H393 C409 0.930 . S
H394 C410 0.931 . S
C395 H383 0.929 . S
C395 C389 1.390 . S
C395 C392 1.386 . S
C396 C391 1.490 . S
C396 C398 1.395 . S
C396 C399 1.403 . S
H397 C403 0.930 . S
C398 H384 0.930 . S
C398 C396 1.395 . S
C398 C401 1.403 . S
C399 C396 1.403 . S
C399 C400 1.524 . S
C399 C403 1.400 . S
C400 H385 0.960 . S
C400 H386 0.960 . S
C400 H387 0.960 . S
C400 C399 1.524 . S
C401 C398 1.403 . S
C401 C402 1.392 . S
C401 C405 1.495 . S
C402 C401 1.392 . S
C402 C403 1.385 . S
C402 C404 1.478 . S
C403 H397 0.930 . S
C403 C399 1.400 . S
C403 C402 1.385 . S
C404 C402 1.478 . S
C404 C406 1.381 . S
C404 C410 1.383 . S
C405 C401 1.495 . S
C405 H411 0.959 . S
C405 H412 0.961 . S
C405 H413 0.960 . S
C406 C404 1.381 . S
C406 C407 1.394 . S
C406 H414 0.930 . S
C407 C406 1.394 . S
C407 C408 1.383 . S
C407 H415 0.929 . S
C408 C407 1.383 . S
C408 C409 1.377 . S
C409 H393 0.930 . S
C409 C408 1.377 . S
C409 C410 1.379 . S
C410 H394 0.931 . S
C410 C404 1.383 . S
C410 C409 1.379 . S
H411 C405 0.959 . S
H412 C405 0.961 . S
H413 C405 0.960 . S
H414 C406 0.930 . S
H415 C407 0.929 . S
H416 C424 0.929 . S
H417 C426 0.930 . S
H418 C428 0.930 . S
H419 C431 0.929 . S
H420 C434 0.930 . S
H421 C436 0.960 . S
H422 C436 0.960 . S
H423 C436 0.960 . S
C424 H416 0.929 . S
C424 C425 1.377 . S
C424 C426 1.384 . S
C425 C424 1.377 . S
C425 C431 1.390 . S
C426 H417 0.930 . S
C426 C424 1.384 . S
C426 C427 1.372 . S
C427 C426 1.372 . S
C427 C428 1.400 . S
C427 C432 1.490 . S
C428 H418 0.930 . S
C428 C427 1.400 . S
C428 C431 1.386 . S
H429 C445 0.930 . S
H430 C446 0.931 . S
C431 H419 0.929 . S
C431 C425 1.390 . S
C431 C428 1.386 . S
C432 C427 1.490 . S
C432 C434 1.395 . S
C432 C435 1.403 . S
H433 C439 0.930 . S
C434 H420 0.930 . S
C434 C432 1.395 . S
C434 C437 1.403 . S
C435 C432 1.403 . S
C435 C436 1.524 . S
C435 C439 1.400 . S
C436 H421 0.960 . S
C436 H422 0.960 . S
C436 H423 0.960 . S
C436 C435 1.524 . S
C437 C434 1.403 . S
C437 C438 1.392 . S
C437 C441 1.495 . S
C438 C437 1.392 . S
C438 C439 1.385 . S
C438 C440 1.478 . S
C439 H433 0.930 . S
C439 C435 1.400 . S
C439 C438 1.385 . S
C440 C438 1.478 . S
C440 C442 1.381 . S
C440 C446 1.383 . S
C441 C437 1.495 . S
C441 H447 0.959 . S
C441 H448 0.961 . S
C441 H449 0.960 . S
C442 C440 1.381 . S
C442 C443 1.394 . S
C442 H450 0.930 . S
C443 C442 1.394 . S
C443 C444 1.383 . S
C443 H451 0.929 . S
C444 C443 1.383 . S
C444 C445 1.377 . S
C445 H429 0.930 . S
C445 C444 1.377 . S
C445 C446 1.379 . S
C446 H430 0.931 . S
C446 C440 1.383 . S
C446 C445 1.379 . S
H447 C441 0.959 . S
H448 C441 0.961 . S
H449 C441 0.960 . S
H450 C442 0.930 . S
H451 C443 0.929 . S
H452 C460 0.929 . S
H453 C462 0.930 . S
H454 C464 0.930 . S
H455 C467 0.929 . S
H456 C470 0.930 . S
H457 C472 0.960 . S
H458 C472 0.960 . S
H459 C472 0.960 . S
C460 H452 0.929 . S
C460 C461 1.377 . S
C460 C462 1.384 . S
C461 C460 1.377 . S
C461 C467 1.390 . S
C462 H453 0.930 . S
C462 C460 1.384 . S
C462 C463 1.372 . S
C463 C462 1.372 . S
C463 C464 1.400 . S
C463 C468 1.490 . S
C464 H454 0.930 . S
C464 C463 1.400 . S
C464 C467 1.386 . S
H465 C481 0.930 . S
H466 C482 0.931 . S
C467 H455 0.929 . S
C467 C461 1.390 . S
C467 C464 1.386 . S
C468 C463 1.490 . S
C468 C470 1.395 . S
C468 C471 1.403 . S
H469 C475 0.930 . S
C470 H456 0.930 . S
C470 C468 1.395 . S
C470 C473 1.403 . S
C471 C468 1.403 . S
C471 C472 1.524 . S
C471 C475 1.400 . S
C472 H457 0.960 . S
C472 H458 0.960 . S
C472 H459 0.960 . S
C472 C471 1.524 . S
C473 C470 1.403 . S
C473 C474 1.392 . S
C473 C477 1.495 . S
C474 C473 1.392 . S
C474 C475 1.385 . S
C474 C476 1.478 . S
C475 H469 0.930 . S
C475 C471 1.400 . S
C475 C474 1.385 . S
C476 C474 1.478 . S
C476 C478 1.381 . S
C476 C482 1.383 . S
C477 C473 1.495 . S
C477 H483 0.959 . S
C477 H484 0.961 . S
C477 H485 0.960 . S
C478 C476 1.381 . S
C478 C479 1.394 . S
C478 H486 0.930 . S
C479 C478 1.394 . S
C479 C480 1.383 . S
C479 H487 0.929 . S
C480 C479 1.383 . S
C480 C481 1.377 . S
C481 H465 0.930 . S
C481 C480 1.377 . S
C481 C482 1.379 . S
C482 H466 0.931 . S
C482 C476 1.383 . S
C482 C481 1.379 . S
H483 C477 0.959 . S
H484 C477 0.961 . S
H485 C477 0.960 . S
H486 C478 0.930 . S
H487 C479 0.929 . S
H488 C496 0.929 . S
H489 C498 0.930 . S
H490 C500 0.930 . S
H491 C503 0.929 . S
H492 C506 0.930 . S
H493 C508 0.960 . S
H494 C508 0.960 . S
H495 C508 0.960 . S
C496 H488 0.929 . S
C496 C497 1.377 . S
C496 C498 1.384 . S
C497 C496 1.377 . S
C497 C503 1.390 . S
C498 H489 0.930 . S
C498 C496 1.384 . S
C498 C499 1.372 . S
C499 C498 1.372 . S
C499 C500 1.400 . S
C499 C504 1.490 . S
C500 H490 0.930 . S
C500 C499 1.400 . S
C500 C503 1.386 . S
H501 C517 0.930 . S
H502 C518 0.931 . S
C503 H491 0.929 . S
C503 C497 1.390 . S
C503 C500 1.386 . S
C504 C499 1.490 . S
C504 C506 1.395 . S
C504 C507 1.403 . S
H505 C511 0.930 . S
C506 H492 0.930 . S
C506 C504 1.395 . S
C506 C509 1.403 . S
C507 C504 1.403 . S
C507 C508 1.524 . S
C507 C511 1.400 . S
C508 H493 0.960 . S
C508 H494 0.960 . S
C508 H495 0.960 . S
C508 C507 1.524 . S
C509 C506 1.403 . S
C509 C510 1.392 . S
C509 C513 1.495 . S
C510 C509 1.392 . S
C510 C511 1.385 . S
C510 C512 1.478 . S
C511 H505 0.930 . S
C511 C507 1.400 . S
C511 C510 1.385 . S
C512 C510 1.478 . S
C512 C514 1.381 . S
C512 C518 1.383 . S
C513 C509 1.495 . S
C513 H519 0.959 . S
C513 H520 0.961 . S
C513 H521 0.960 . S
C514 C512 1.381 . S
C514 C515 1.394 . S
C514 H522 0.930 . S
C515 C514 1.394 . S
C515 C516 1.383 . S
C515 H523 0.929 . S
C516 C515 1.383 . S
C516 C517 1.377 . S
C517 H501 0.930 . S
C517 C516 1.377 . S
C517 C518 1.379 . S
C518 H502 0.931 . S
C518 C512 1.383 . S
C518 C517 1.379 . S
H519 C513 0.959 . S
H520 C513 0.961 . S
H521 C513 0.960 . S
H522 C514 0.930 . S
H523 C515 0.929 . S
H524 C532 0.929 . S
H525 C534 0.930 . S
H526 C536 0.930 . S
H527 C539 0.929 . S
H528 C542 0.930 . S
H529 C544 0.960 . S
H530 C544 0.960 . S
H531 C544 0.960 . S
C532 H524 0.929 . S
C532 C533 1.377 . S
C532 C534 1.384 . S
C533 C532 1.377 . S
C533 C539 1.390 . S
C534 H525 0.930 . S
C534 C532 1.384 . S
C534 C535 1.372 . S
C535 C534 1.372 . S
C535 C536 1.400 . S
C535 C540 1.490 . S
C536 H526 0.930 . S
C536 C535 1.400 . S
C536 C539 1.386 . S
H537 C553 0.930 . S
H538 C554 0.931 . S
C539 H527 0.929 . S
C539 C533 1.390 . S
C539 C536 1.386 . S
C540 C535 1.490 . S
C540 C542 1.395 . S
C540 C543 1.403 . S
H541 C547 0.930 . S
C542 H528 0.930 . S
C542 C540 1.395 . S
C542 C545 1.403 . S
C543 C540 1.403 . S
C543 C544 1.524 . S
C543 C547 1.400 . S
C544 H529 0.960 . S
C544 H530 0.960 . S
C544 H531 0.960 . S
C544 C543 1.524 . S
C545 C542 1.403 . S
C545 C546 1.392 . S
C545 C549 1.495 . S
C546 C545 1.392 . S
C546 C547 1.385 . S
C546 C548 1.478 . S
C547 H541 0.930 . S
C547 C543 1.400 . S
C547 C546 1.385 . S
C548 C546 1.478 . S
C548 C550 1.381 . S
C548 C554 1.383 . S
C549 C545 1.495 . S
C549 H555 0.959 . S
C549 H556 0.961 . S
C549 H557 0.960 . S
C550 C548 1.381 . S
C550 C551 1.394 . S
C550 H558 0.930 . S
C551 C550 1.394 . S
C551 C552 1.383 . S
C551 H559 0.929 . S
C552 C551 1.383 . S
C552 C553 1.377 . S
C553 H537 0.930 . S
C553 C552 1.377 . S
C553 C554 1.379 . S
C554 H538 0.931 . S
C554 C548 1.383 . S
C554 C553 1.379 . S
H555 C549 0.959 . S
H556 C549 0.961 . S
H557 C549 0.960 . S
H558 C550 0.930 . S
H559 C551 0.929 . S
H560 C568 0.929 . S
H561 C570 0.930 . S
H562 C572 0.930 . S
H563 C575 0.929 . S
H564 C578 0.930 . S
H565 C580 0.960 . S
H566 C580 0.960 . S
H567 C580 0.960 . S
C568 H560 0.929 . S
C568 C569 1.377 . S
C568 C570 1.384 . S
C569 C568 1.377 . S
C569 C575 1.390 . S
C570 H561 0.930 . S
C570 C568 1.384 . S
C570 C571 1.372 . S
C571 C570 1.372 . S
C571 C572 1.400 . S
C571 C576 1.490 . S
C572 H562 0.930 . S
C572 C571 1.400 . S
C572 C575 1.386 . S
H573 C589 0.930 . S
H574 C590 0.931 . S
C575 H563 0.929 . S
C575 C569 1.390 . S
C575 C572 1.386 . S
C576 C571 1.490 . S
C576 C578 1.395 . S
C576 C579 1.403 . S
H577 C583 0.930 . S
C578 H564 0.930 . S
C578 C576 1.395 . S
C578 C581 1.403 . S
C579 C576 1.403 . S
C579 C580 1.524 . S
C579 C583 1.400 . S
C580 H565 0.960 . S
C580 H566 0.960 . S
C580 H567 0.960 . S
C580 C579 1.524 . S
C581 C578 1.403 . S
C581 C582 1.392 . S
C581 C585 1.495 . S
C582 C581 1.392 . S
C582 C583 1.385 . S
C582 C584 1.478 . S
C583 H577 0.930 . S
C583 C579 1.400 . S
C583 C582 1.385 . S
C584 C582 1.478 . S
C584 C586 1.381 . S
C584 C590 1.383 . S
C585 C581 1.495 . S
C585 H591 0.959 . S
C585 H592 0.961 . S
C585 H593 0.960 . S
C586 C584 1.381 . S
C586 C587 1.394 . S
C586 H594 0.930 . S
C587 C586 1.394 . S
C587 C588 1.383 . S
C587 H595 0.929 . S
C588 C587 1.383 . S
C588 C589 1.377 . S
C589 H573 0.930 . S
C589 C588 1.377 . S
C589 C590 1.379 . S
C590 H574 0.931 . S
C590 C584 1.383 . S
C590 C589 1.379 . S
H591 C585 0.959 . S
H592 C585 0.961 . S
H593 C585 0.960 . S
H594 C586 0.930 . S
H595 C587 0.929 . S
H596 C604 0.929 . S
H597 C606 0.930 . S
H598 C608 0.930 . S
H599 C611 0.929 . S
H600 C614 0.930 . S
H601 C616 0.960 . S
H602 C616 0.960 . S
H603 C616 0.960 . S
C604 H596 0.929 . S
C604 C605 1.377 . S
C604 C606 1.384 . S
C605 C604 1.377 . S
C605 C611 1.390 . S
C606 H597 0.930 . S
C606 C604 1.384 . S
C606 C607 1.372 . S
C607 C606 1.372 . S
C607 C608 1.400 . S
C607 C612 1.490 . S
C608 H598 0.930 . S
C608 C607 1.400 . S
C608 C611 1.386 . S
H609 C625 0.930 . S
H610 C626 0.931 . S
C611 H599 0.929 . S
C611 C605 1.390 . S
C611 C608 1.386 . S
C612 C607 1.490 . S
C612 C614 1.395 . S
C612 C615 1.403 . S
H613 C619 0.930 . S
C614 H600 0.930 . S
C614 C612 1.395 . S
C614 C617 1.403 . S
C615 C612 1.403 . S
C615 C616 1.524 . S
C615 C619 1.400 . S
C616 H601 0.960 . S
C616 H602 0.960 . S
C616 H603 0.960 . S
C616 C615 1.524 . S
C617 C614 1.403 . S
C617 C618 1.392 . S
C617 C621 1.495 . S
C618 C617 1.392 . S
C618 C619 1.385 . S
C618 C620 1.478 . S
C619 H613 0.930 . S
C619 C615 1.400 . S
C619 C618 1.385 . S
C620 C618 1.478 . S
C620 C622 1.381 . S
C620 C626 1.383 . S
C621 C617 1.495 . S
C621 H627 0.959 . S
C621 H628 0.961 . S
C621 H629 0.960 . S
C622 C620 1.381 . S
C622 C623 1.394 . S
C622 H630 0.930 . S
C623 C622 1.394 . S
C623 C624 1.383 . S
C623 H631 0.929 . S
C624 C623 1.383 . S
C624 C625 1.377 . S
C625 H609 0.930 . S
C625 C624 1.377 . S
C625 C626 1.379 . S
C626 H610 0.931 . S
C626 C620 1.383 . S
C626 C625 1.379 . S
H627 C621 0.959 . S
H628 C621 0.961 . S
H629 C621 0.960 . S
H630 C622 0.930 . S
H631 C623 0.929 . S
H632 C640 0.929 . S
H633 C642 0.930 . S
H634 C644 0.930 . S
H635 C647 0.929 . S
H636 C650 0.930 . S
H637 C652 0.960 . S
H638 C652 0.960 . S
H639 C652 0.960 . S
C640 H632 0.929 . S
C640 C641 1.377 . S
C640 C642 1.384 . S
C641 C640 1.377 . S
C641 C647 1.390 . S
C642 H633 0.930 . S
C642 C640 1.384 . S
C642 C643 1.372 . S
C643 C642 1.372 . S
C643 C644 1.400 . S
C643 C648 1.490 . S
C644 H634 0.930 . S
C644 C643 1.400 . S
C644 C647 1.386 . S
H645 C661 0.930 . S
H646 C662 0.931 . S
C647 H635 0.929 . S
C647 C641 1.390 . S
C647 C644 1.386 . S
C648 C643 1.490 . S
C648 C650 1.395 . S
C648 C651 1.403 . S
H649 C655 0.930 . S
C650 H636 0.930 . S
C650 C648 1.395 . S
C650 C653 1.403 . S
C651 C648 1.403 . S
C651 C652 1.524 . S
C651 C655 1.400 . S
C652 H637 0.960 . S
C652 H638 0.960 . S
C652 H639 0.960 . S
C652 C651 1.524 . S
C653 C650 1.403 . S
C653 C654 1.392 . S
C653 C657 1.495 . S
C654 C653 1.392 . S
C654 C655 1.385 . S
C654 C656 1.478 . S
C655 H649 0.930 . S
C655 C651 1.400 . S
C655 C654 1.385 . S
C656 C654 1.478 . S
C656 C658 1.381 . S
C656 C662 1.383 . S
C657 C653 1.495 . S
C657 H663 0.959 . S
C657 H664 0.961 . S
C657 H665 0.960 . S
C658 C656 1.381 . S
C658 C659 1.394 . S
C658 H666 0.930 . S
C659 C658 1.394 . S
C659 C660 1.383 . S
C659 H667 0.929 . S
C660 C659 1.383 . S
C660 C661 1.377 . S
C661 H645 0.930 . S
C661 C660 1.377 . S
C661 C662 1.379 . S
C662 H646 0.931 . S
C662 C656 1.383 . S
C662 C661 1.379 . S
H663 C657 0.959 . S
H664 C657 0.961 . S
H665 C657 0.960 . S
H666 C658 0.930 . S
H667 C659 0.929 . S
H668 C676 0.929 . S
H669 C678 0.930 . S
H670 C680 0.930 . S
H671 C683 0.929 . S
H672 C686 0.930 . S
H673 C688 0.960 . S
H674 C688 0.960 . S
H675 C688 0.960 . S
C676 H668 0.929 . S
C676 C677 1.377 . S
C676 C678 1.384 . S
C677 C676 1.377 . S
C677 C683 1.390 . S
C678 H669 0.930 . S
C678 C676 1.384 . S
C678 C679 1.372 . S
C679 C678 1.372 . S
C679 C680 1.400 . S
C679 C684 1.490 . S
C680 H670 0.930 . S
C680 C679 1.400 . S
C680 C683 1.386 . S
H681 C697 0.930 . S
H682 C698 0.931 . S
C683 H671 0.929 . S
C683 C677 1.390 . S
C683 C680 1.386 . S
C684 C679 1.490 . S
C684 C686 1.395 . S
C684 C687 1.403 . S
H685 C691 0.930 . S
C686 H672 0.930 . S
C686 C684 1.395 . S
C686 C689 1.403 . S
C687 C684 1.403 . S
C687 C688 1.524 . S
C687 C691 1.400 . S
C688 H673 0.960 . S
C688 H674 0.960 . S
C688 H675 0.960 . S
C688 C687 1.524 . S
C689 C686 1.403 . S
C689 C690 1.392 . S
C689 C693 1.495 . S
C690 C689 1.392 . S
C690 C691 1.385 . S
C690 C692 1.478 . S
C691 H685 0.930 . S
C691 C687 1.400 . S
C691 C690 1.385 . S
C692 C690 1.478 . S
C692 C694 1.381 . S
C692 C698 1.383 . S
C693 C689 1.495 . S
C693 H699 0.959 . S
C693 H700 0.961 . S
C693 H701 0.960 . S
C694 C692 1.381 . S
C694 C695 1.394 . S
C694 H702 0.930 . S
C695 C694 1.394 . S
C695 C696 1.383 . S
C695 H703 0.929 . S
C696 C695 1.383 . S
C696 C697 1.377 . S
C697 H681 0.930 . S
C697 C696 1.377 . S
C697 C698 1.379 . S
C698 H682 0.931 . S
C698 C692 1.383 . S
C698 C697 1.379 . S
H699 C693 0.959 . S
H700 C693 0.961 . S
H701 C693 0.960 . S
H702 C694 0.930 . S
H703 C695 0.929 . S
H704 C712 0.929 . S
H705 C714 0.930 . S
H706 C716 0.930 . S
H707 C719 0.929 . S
H708 C722 0.930 . S
H709 C724 0.960 . S
H710 C724 0.960 . S
H711 C724 0.960 . S
C712 H704 0.929 . S
C712 C713 1.377 . S
C712 C714 1.384 . S
C713 C712 1.377 . S
C713 C719 1.390 . S
C714 H705 0.930 . S
C714 C712 1.384 . S
C714 C715 1.372 . S
C715 C714 1.372 . S
C715 C716 1.400 . S
C715 C720 1.490 . S
C716 H706 0.930 . S
C716 C715 1.400 . S
C716 C719 1.386 . S
H717 C733 0.930 . S
H718 C734 0.931 . S
C719 H707 0.929 . S
C719 C713 1.390 . S
C719 C716 1.386 . S
C720 C715 1.490 . S
C720 C722 1.395 . S
C720 C723 1.403 . S
H721 C727 0.930 . S
C722 H708 0.930 . S
C722 C720 1.395 . S
C722 C725 1.403 . S
C723 C720 1.403 . S
C723 C724 1.524 . S
C723 C727 1.400 . S
C724 H709 0.960 . S
C724 H710 0.960 . S
C724 H711 0.960 . S
C724 C723 1.524 . S
C725 C722 1.403 . S
C725 C726 1.392 . S
C725 C729 1.495 . S
C726 C725 1.392 . S
C726 C727 1.385 . S
C726 C728 1.478 . S
C727 H721 0.930 . S
C727 C723 1.400 . S
C727 C726 1.385 . S
C728 C726 1.478 . S
C728 C730 1.381 . S
C728 C734 1.383 . S
C729 C725 1.495 . S
C729 H735 0.959 . S
C729 H736 0.961 . S
C729 H737 0.960 . S
C730 C728 1.381 . S
C730 C731 1.394 . S
C730 H738 0.930 . S
C731 C730 1.394 . S
C731 C732 1.383 . S
C731 H739 0.929 . S
C732 C731 1.383 . S
C732 C733 1.377 . S
C733 H717 0.930 . S
C733 C732 1.377 . S
C733 C734 1.379 . S
C734 H718 0.931 . S
C734 C728 1.383 . S
C734 C733 1.379 . S
H735 C729 0.959 . S
H736 C729 0.961 . S
H737 C729 0.960 . S
H738 C730 0.930 . S
H739 C731 0.929 . S
H740 C748 0.929 . S
H741 C750 0.930 . S
H742 C752 0.930 . S
H743 C755 0.929 . S
H744 C758 0.930 . S
H745 C760 0.960 . S
H746 C760 0.960 . S
H747 C760 0.960 . S
C748 H740 0.929 . S
C748 C749 1.377 . S
C748 C750 1.384 . S
C749 C748 1.377 . S
C749 C755 1.390 . S
C750 H741 0.930 . S
C750 C748 1.384 . S
C750 C751 1.372 . S
C751 C750 1.372 . S
C751 C752 1.400 . S
C751 C756 1.490 . S
C752 H742 0.930 . S
C752 C751 1.400 . S
C752 C755 1.386 . S
H753 C769 0.930 . S
H754 C770 0.931 . S
C755 H743 0.929 . S
C755 C749 1.390 . S
C755 C752 1.386 . S
C756 C751 1.490 . S
C756 C758 1.395 . S
C756 C759 1.403 . S
H757 C763 0.930 . S
C758 H744 0.930 . S
C758 C756 1.395 . S
C758 C761 1.403 . S
C759 C756 1.403 . S
C759 C760 1.524 . S
C759 C763 1.400 . S
C760 H745 0.960 . S
C760 H746 0.960 . S
C760 H747 0.960 . S
C760 C759 1.524 . S
C761 C758 1.403 . S
C761 C762 1.392 . S
C761 C765 1.495 . S
C762 C761 1.392 . S
C762 C763 1.385 . S
C762 C764 1.478 . S
C763 H757 0.930 . S
C763 C759 1.400 . S
C763 C762 1.385 . S
C764 C762 1.478 . S
C764 C766 1.381 . S
C764 C770 1.383 . S
C765 C761 1.495 . S
C765 H771 0.959 . S
C765 H772 0.961 . S
C765 H773 0.960 . S
C766 C764 1.381 . S
C766 C767 1.394 . S
C766 H774 0.930 . S
C767 C766 1.394 . S
C767 C768 1.383 . S
C767 H775 0.929 . S
C768 C767 1.383 . S
C768 C769 1.377 . S
C769 H753 0.930 . S
C769 C768 1.377 . S
C769 C770 1.379 . S
C770 H754 0.931 . S
C770 C764 1.383 . S
C770 C769 1.379 . S
H771 C765 0.959 . S
H772 C765 0.961 . S
H773 C765 0.960 . S
H774 C766 0.930 . S
H775 C767 0.929 . S
H776 C784 0.929 . S
H777 C786 0.930 . S
H778 C788 0.930 . S
H779 C791 0.929 . S
H780 C794 0.930 . S
H781 C796 0.960 . S
H782 C796 0.960 . S
H783 C796 0.960 . S
C784 H776 0.929 . S
C784 C785 1.377 . S
C784 C786 1.384 . S
C785 C784 1.377 . S
C785 C791 1.390 . S
C786 H777 0.930 . S
C786 C784 1.384 . S
C786 C787 1.372 . S
C787 C786 1.372 . S
C787 C788 1.400 . S
C787 C792 1.490 . S
C788 H778 0.930 . S
C788 C787 1.400 . S
C788 C791 1.386 . S
H789 C805 0.930 . S
H790 C806 0.931 . S
C791 H779 0.929 . S
C791 C785 1.390 . S
C791 C788 1.386 . S
C792 C787 1.490 . S
C792 C794 1.395 . S
C792 C795 1.403 . S
H793 C799 0.930 . S
C794 H780 0.930 . S
C794 C792 1.395 . S
C794 C797 1.403 . S
C795 C792 1.403 . S
C795 C796 1.524 . S
C795 C799 1.400 . S
C796 H781 0.960 . S
C796 H782 0.960 . S
C796 H783 0.960 . S
C796 C795 1.524 . S
C797 C794 1.403 . S
C797 C798 1.392 . S
C797 C801 1.495 . S
C798 C797 1.392 . S
C798 C799 1.385 . S
C798 C800 1.478 . S
C799 H793 0.930 . S
C799 C795 1.400 . S
C799 C798 1.385 . S
C800 C798 1.478 . S
C800 C802 1.381 . S
C800 C806 1.383 . S
C801 C797 1.495 . S
C801 H807 0.959 . S
C801 H808 0.961 . S
C801 H809 0.960 . S
C802 C800 1.381 . S
C802 C803 1.394 . S
C802 H810 0.930 . S
C803 C802 1.394 . S
C803 C804 1.383 . S
C803 H811 0.929 . S
C804 C803 1.383 . S
C804 C805 1.377 . S
C805 H789 0.930 . S
C805 C804 1.377 . S
C805 C806 1.379 . S
C806 H790 0.931 . S
C806 C800 1.383 . S
C806 C805 1.379 . S
H807 C801 0.959 . S
H808 C801 0.961 . S
H809 C801 0.960 . S
H810 C802 0.930 . S
H811 C803 0.929 . S
H812 C820 0.929 . S
H813 C822 0.930 . S
H814 C824 0.930 . S
H815 C827 0.929 . S
H816 C830 0.930 . S
H817 C832 0.960 . S
H818 C832 0.960 . S
H819 C832 0.960 . S
C820 H812 0.929 . S
C820 C821 1.377 . S
C820 C822 1.384 . S
C821 C820 1.377 . S
C821 C827 1.390 . S
C822 H813 0.930 . S
C822 C820 1.384 . S
C822 C823 1.372 . S
C823 C822 1.372 . S
C823 C824 1.400 . S
C823 C828 1.490 . S
C824 H814 0.930 . S
C824 C823 1.400 . S
C824 C827 1.386 . S
H825 C841 0.930 . S
H826 C842 0.931 . S
C827 H815 0.929 . S
C827 C821 1.390 . S
C827 C824 1.386 . S
C828 C823 1.490 . S
C828 C830 1.395 . S
C828 C831 1.403 . S
H829 C835 0.930 . S
C830 H816 0.930 . S
C830 C828 1.395 . S
C830 C833 1.403 . S
C831 C828 1.403 . S
C831 C832 1.524 . S
C831 C835 1.400 . S
C832 H817 0.960 . S
C832 H818 0.960 . S
C832 H819 0.960 . S
C832 C831 1.524 . S
C833 C830 1.403 . S
C833 C834 1.392 . S
C833 C837 1.495 . S
C834 C833 1.392 . S
C834 C835 1.385 . S
C834 C836 1.478 . S
C835 H829 0.930 . S
C835 C831 1.400 . S
C835 C834 1.385 . S
C836 C834 1.478 . S
C836 C838 1.381 . S
C836 C842 1.383 . S
C837 C833 1.495 . S
C837 H843 0.959 . S
C837 H844 0.961 . S
C837 H845 0.960 . S
C838 C836 1.381 . S
C838 C839 1.394 . S
C838 H846 0.930 . S
C839 C838 1.394 . S
C839 C840 1.383 . S
C839 H847 0.929 . S
C840 C839 1.383 . S
C840 C841 1.377 . S
C841 H825 0.930 . S
C841 C840 1.377 . S
C841 C842 1.379 . S
C842 H826 0.931 . S
C842 C836 1.383 . S
C842 C841 1.379 . S
H843 C837 0.959 . S
H844 C837 0.961 . S
H845 C837 0.960 . S
H846 C838 0.930 . S
H847 C839 0.929 . S
H848 C856 0.929 . S
H849 C858 0.930 . S
H850 C860 0.930 . S
H851 C863 0.929 . S
H852 C866 0.930 . S
H853 C868 0.960 . S
H854 C868 0.960 . S
H855 C868 0.960 . S
C856 H848 0.929 . S
C856 C857 1.377 1_565 S
C856 C858 1.384 . S
C857 C856 1.377 1_545 S
C857 C863 1.390 . S
C858 H849 0.930 . S
C858 C856 1.384 . S
C858 C859 1.372 1_565 S
C859 C858 1.372 1_545 S
C859 C860 1.400 . S
C859 C864 1.490 . S
C860 H850 0.930 . S
C860 C859 1.400 . S
C860 C863 1.386 . S
H861 C877 0.930 . S
H862 C878 0.931 . S
C863 H851 0.929 . S
C863 C857 1.390 . S
C863 C860 1.386 . S
C864 C859 1.490 . S
C864 C866 1.395 1_545 S
C864 C867 1.403 . S
H865 C871 0.930 . S
C866 H852 0.930 . S
C866 C864 1.395 1_565 S
C866 C869 1.403 . S
C867 C864 1.403 . S
C867 C868 1.524 . S
C867 C871 1.400 . S
C868 H853 0.960 . S
C868 H854 0.960 . S
C868 H855 0.960 . S
C868 C867 1.524 . S
C869 C866 1.403 . S
C869 C870 1.392 . S
C869 C873 1.495 . S
C870 C869 1.392 . S
C870 C871 1.385 1_565 S
C870 C872 1.478 . S
C871 H865 0.930 . S
C871 C867 1.400 . S
C871 C870 1.385 1_545 S
C872 C870 1.478 . S
C872 C874 1.381 . S
C872 C878 1.383 1_565 S
C873 C869 1.495 . S
C873 H879 0.959 . S
C873 H880 0.961 . S
C873 H881 0.960 . S
C874 C872 1.381 . S
C874 C875 1.394 . S
C874 H882 0.930 . S
C875 C874 1.394 . S
C875 C876 1.383 . S
C875 H883 0.929 . S
C876 C875 1.383 . S
C876 C877 1.377 1_565 S
C877 H861 0.930 . S
C877 C876 1.377 1_545 S
C877 C878 1.379 . S
C878 H862 0.931 . S
C878 C872 1.383 1_545 S
C878 C877 1.379 . S
H879 C873 0.959 . S
H880 C873 0.961 . S
H881 C873 0.960 . S
H882 C874 0.930 . S
H883 C875 0.929 . S
H884 C892 0.929 . S
H885 C894 0.930 . S
H886 C896 0.930 . S
H887 C899 0.929 . S
H888 C902 0.930 1_556 S
H889 C904 0.960 . S
H890 C904 0.960 . S
H891 C904 0.960 . S
C892 H884 0.929 . S
C892 C893 1.377 1_655 S
C892 C894 1.384 . S
C893 C892 1.377 1_455 S
C893 C899 1.390 . S
C894 H885 0.930 . S
C894 C892 1.384 . S
C894 C895 1.372 1_655 S
C895 C894 1.372 1_455 S
C895 C896 1.400 . S
C895 C900 1.490 . S
C896 H886 0.930 . S
C896 C895 1.400 . S
C896 C899 1.386 . S
H897 C913 0.930 . S
H898 C914 0.931 . S
C899 H887 0.929 . S
C899 C893 1.390 . S
C899 C896 1.386 . S
C900 C895 1.490 . S
C900 C902 1.395 1_455 S
C900 C903 1.403 . S
H901 C907 0.930 . S
C902 H888 0.930 1_554 S
C902 C900 1.395 1_655 S
C902 C905 1.403 1_545 S
C903 C900 1.403 . S
C903 C904 1.524 . S
C903 C907 1.400 1_545 S
C904 H889 0.960 . S
C904 H890 0.960 . S
C904 H891 0.960 . S
C904 C903 1.524 . S
C905 C902 1.403 1_565 S
C905 C906 1.392 1_655 S
C905 C909 1.495 1_554 S
C906 C905 1.392 1_455 S
C906 C907 1.385 . S
C906 C908 1.478 . S
C907 H901 0.930 . S
C907 C903 1.400 1_565 S
C907 C906 1.385 . S
C908 C906 1.478 . S
C908 C910 1.381 1_455 S
C908 C914 1.383 . S
C909 C905 1.495 1_556 S
C909 H915 0.959 . S
C909 H916 0.961 . S
C909 H917 0.960 . S
C910 C908 1.381 1_655 S
C910 C911 1.394 . S
C910 H918 0.930 . S
C911 C910 1.394 . S
C911 C912 1.383 1_655 S
C911 H919 0.929 . S
C912 C911 1.383 1_455 S
C912 C913 1.377 . S
C913 H897 0.930 . S
C913 C912 1.377 . S
C913 C914 1.379 . S
C914 H898 0.931 . S
C914 C908 1.383 . S
C914 C913 1.379 . S
H915 C909 0.959 . S
H916 C909 0.961 . S
H917 C909 0.960 . S
H918 C910 0.930 . S
H919 C911 0.929 . S
H920 C928 0.929 . S
H921 C930 0.930 . S
H922 C932 0.930 . S
H923 C935 0.929 . S
H924 C938 0.930 . S
H925 C940 0.960 . S
H926 C940 0.960 . S
H927 C940 0.960 . S
C928 H920 0.929 . S
C928 C929 1.377 . S
C928 C930 1.384 . S
C929 C928 1.377 . S
C929 C935 1.390 . S
C930 H921 0.930 . S
C930 C928 1.384 . S
C930 C931 1.372 . S
C931 C930 1.372 . S
C931 C932 1.400 . S
C931 C936 1.490 . S
C932 H922 0.930 . S
C932 C931 1.400 . S
C932 C935 1.386 . S
H933 C949 0.930 . S
H934 C950 0.931 . S
C935 H923 0.929 . S
C935 C929 1.390 . S
C935 C932 1.386 . S
C936 C931 1.490 . S
C936 C938 1.395 . S
C936 C939 1.403 . S
H937 C943 0.930 . S
C938 H924 0.930 . S
C938 C936 1.395 . S
C938 C941 1.403 1_455 S
C939 C936 1.403 . S
C939 C940 1.524 . S
C939 C943 1.400 1_455 S
C940 H925 0.960 . S
C940 H926 0.960 . S
C940 H927 0.960 . S
C940 C939 1.524 . S
C941 C938 1.403 1_655 S
C941 C942 1.392 . S
C941 C945 1.495 . S
C942 C941 1.392 . S
C942 C943 1.385 . S
C942 C944 1.478 . S
C943 H937 0.930 . S
C943 C939 1.400 1_655 S
C943 C942 1.385 . S
C944 C942 1.478 . S
C944 C946 1.381 . S
C944 C950 1.383 . S
C945 C941 1.495 . S
C945 H951 0.959 . S
C945 H952 0.961 . S
C945 H953 0.960 . S
C946 C944 1.381 . S
C946 C947 1.394 . S
C946 H954 0.930 . S
C947 C946 1.394 . S
C947 C948 1.383 . S
C947 H955 0.929 . S
C948 C947 1.383 . S
C948 C949 1.377 . S
C949 H933 0.930 . S
C949 C948 1.377 . S
C949 C950 1.379 . S
C950 H934 0.931 . S
C950 C944 1.383 . S
C950 C949 1.379 . S
H951 C945 0.959 . S
H952 C945 0.961 . S
H953 C945 0.960 . S
H954 C946 0.930 . S
H955 C947 0.929 . S
H956 C964 0.929 . S
H957 C966 0.930 . S
H958 C968 0.930 . S
H959 C971 0.929 . S
H960 C974 0.930 . S
H961 C976 0.960 . S
H962 C976 0.960 . S
H963 C976 0.960 . S
C964 H956 0.929 . S
C964 C965 1.377 . S
C964 C966 1.384 . S
C965 C964 1.377 . S
C965 C971 1.390 . S
C966 H957 0.930 . S
C966 C964 1.384 . S
C966 C967 1.372 . S
C967 C966 1.372 . S
C967 C968 1.400 . S
C967 C972 1.490 . S
C968 H958 0.930 . S
C968 C967 1.400 . S
C968 C971 1.386 . S
H969 C985 0.930 . S
H970 C986 0.931 . S
C971 H959 0.929 . S
C971 C965 1.390 . S
C971 C968 1.386 . S
C972 C967 1.490 . S
C972 C974 1.395 . S
C972 C975 1.403 . S
H973 C979 0.930 . S
C974 H960 0.930 . S
C974 C972 1.395 . S
C974 C977 1.403 . S
C975 C972 1.403 . S
C975 C976 1.524 . S
C975 C979 1.400 . S
C976 H961 0.960 . S
C976 H962 0.960 . S
C976 H963 0.960 . S
C976 C975 1.524 . S
C977 C974 1.403 . S
C977 C978 1.392 . S
C977 C981 1.495 . S
C978 C977 1.392 . S
C978 C979 1.385 . S
C978 C980 1.478 . S
C979 H973 0.930 . S
C979 C975 1.400 . S
C979 C978 1.385 . S
C980 C978 1.478 . S
C980 C982 1.381 . S
C980 C986 1.383 . S
C981 C977 1.495 . S
C981 H987 0.959 . S
C981 H988 0.961 . S
C981 H989 0.960 . S
C982 C980 1.381 . S
C982 C983 1.394 . S
C982 H990 0.930 . S
C983 C982 1.394 . S
C983 C984 1.383 . S
C983 H991 0.929 . S
C984 C983 1.383 . S
C984 C985 1.377 . S
C985 H969 0.930 . S
C985 C984 1.377 . S
C985 C986 1.379 . S
C986 H970 0.931 . S
C986 C980 1.383 . S
C986 C985 1.379 . S
H987 C981 0.959 . S
H988 C981 0.961 . S
H989 C981 0.960 . S
H990 C982 0.930 . S
H991 C983 0.929 . S
C281 C20 0.762 . S
C300 C175 0.754 . S
C317 C54 0.755 . S
C336 C209 0.761 . S
C353 C88 0.758 . S
C372 C243 0.752 . S
C389 C141 0.756 . S
C408 C122 0.778 . S
C425 C172 0.791 . S
C444 C145 0.796 . S
C461 C179 0.775 . S
C480 C206 0.777 . S
C497 C240 0.780 . S
C516 C213 0.780 . S
C533 C247 0.773 . S
C552 C138 0.787 . S
C569 C224 0.759 . S
C588 C107 0.759 . S
C605 C258 0.755 . S
C624 C5 0.754 . S
C641 C39 0.756 . S
C660 C156 0.742 . S
C677 C190 0.753 . S
C696 C73 0.761 . S
C713 C104 0.781 . S
C732 C77 0.780 . S
C749 C2 0.780 . S
C768 C111 0.777 . S
C785 C36 0.788 . S
C804 C9 0.821 . S
C821 C43 0.781 . S
C840 C70 0.816 . S
C857 C169 0.938 . S
C876 C33 0.944 . S
C893 C203 0.948 1_455 S
C912 C67 0.914 . S
C929 C101 0.940 . S
C948 C237 0.972 . S
C965 C271 0.944 . S
C984 C135 0.914 . S
