# Generated by pormake.
# Topology wmi, (6)-cn, num edge types: 1
# Building blocks:
#     Node 0, Type 0, BuildingBlock: JUFBIX_clean_sbu_0, # of connection points: 6
#     Node 1, Type 0, BuildingBlock: JUFBIX_clean_sbu_0, # of connection points: 6
#     Node 2, Type 0, BuildingBlock: JUFBIX_clean_sbu_0, # of connection points: 6
#     Node 3, Type 0, BuildingBlock: JUFBIX_clean_sbu_0, # of connection points: 6
#     Node 4, Type 0, BuildingBlock: JUFBIX_clean_sbu_0, # of connection points: 6
#     Node 5, Type 0, BuildingBlock: JUFBIX_clean_sbu_0, # of connection points: 6
#     Node 6, Type 0, BuildingBlock: JUFBIX_clean_sbu_0, # of connection points: 6
#     Node 7, Type 0, BuildingBlock: JUFBIX_clean_sbu_0, # of connection points: 6
#     Node 8, Type 0, BuildingBlock: JUFBIX_clean_sbu_0, # of connection points: 6
#     Node 9, Type 0, BuildingBlock: JUFBIX_clean_sbu_0, # of connection points: 6
#     Node 10, Type 0, BuildingBlock: JUFBIX_clean_sbu_0, # of connection points: 6
#     Node 11, Type 0, BuildingBlock: JUFBIX_clean_sbu_0, # of connection points: 6
#     Node 12, Type 0, BuildingBlock: JUFBIX_clean_sbu_0, # of connection points: 6
#     Node 13, Type 0, BuildingBlock: JUFBIX_clean_sbu_0, # of connection points: 6
#     Node 14, Type 0, BuildingBlock: JUFBIX_clean_sbu_0, # of connection points: 6
#     Node 15, Type 0, BuildingBlock: JUFBIX_clean_sbu_0, # of connection points: 6
#     Node 16, Type 0, BuildingBlock: JUFBIX_clean_sbu_0, # of connection points: 6
#     Node 17, Type 0, BuildingBlock: JUFBIX_clean_sbu_0, # of connection points: 6
#     Edge 18, Type (0, 0), None
#     Edge 19, Type (0, 0), None
#     Edge 20, Type (0, 0), None
#     Edge 21, Type (0, 0), None
#     Edge 22, Type (0, 0), None
#     Edge 23, Type (0, 0), None
#     Edge 24, Type (0, 0), None
#     Edge 25, Type (0, 0), None
#     Edge 26, Type (0, 0), None
#     Edge 27, Type (0, 0), None
#     Edge 28, Type (0, 0), None
#     Edge 29, Type (0, 0), None
#     Edge 30, Type (0, 0), None
#     Edge 31, Type (0, 0), None
#     Edge 32, Type (0, 0), None
#     Edge 33, Type (0, 0), None
#     Edge 34, Type (0, 0), None
#     Edge 35, Type (0, 0), None
#     Edge 36, Type (0, 0), None
#     Edge 37, Type (0, 0), None
#     Edge 38, Type (0, 0), None
#     Edge 39, Type (0, 0), None
#     Edge 40, Type (0, 0), None
#     Edge 41, Type (0, 0), None
#     Edge 42, Type (0, 0), None
#     Edge 43, Type (0, 0), None
#     Edge 44, Type (0, 0), None
#     Edge 45, Type (0, 0), None
#     Edge 46, Type (0, 0), None
#     Edge 47, Type (0, 0), None
#     Edge 48, Type (0, 0), None
#     Edge 49, Type (0, 0), None
#     Edge 50, Type (0, 0), None
#     Edge 51, Type (0, 0), None
#     Edge 52, Type (0, 0), None
#     Edge 53, Type (0, 0), None
#     Edge 54, Type (0, 0), None
#     Edge 55, Type (0, 0), None
#     Edge 56, Type (0, 0), None
#     Edge 57, Type (0, 0), None
#     Edge 58, Type (0, 0), None
#     Edge 59, Type (0, 0), None
#     Edge 60, Type (0, 0), None
#     Edge 61, Type (0, 0), None
#     Edge 62, Type (0, 0), None
#     Edge 63, Type (0, 0), None
#     Edge 64, Type (0, 0), None
#     Edge 65, Type (0, 0), None
#     Edge 66, Type (0, 0), None
#     Edge 67, Type (0, 0), None
#     Edge 68, Type (0, 0), None
#     Edge 69, Type (0, 0), None
#     Edge 70, Type (0, 0), None
#     Edge 71, Type (0, 0), None
# Relax obj value: 0.357
# Max RMSD: 0.261
# Mean RMSD: 0.261
data_MOF--net-wmi--node1-JUFBIX_clean_sbu_0--edge1-none
_symmetry_space_group_name_H-M    P1
_symmetry_Int_Tables_number       1
_symmetry_cell_setting            triclinic
loop_
_symmetry_equiv_pos_as_xyz
'x, y, z'
_cell_length_a     17.070802
_cell_length_b     17.070143
_cell_length_c     34.209036
_cell_angle_alpha  89.998387
_cell_angle_beta   90.004035
_cell_angle_gamma 119.99619
loop_
_atom_site_label
_atom_site_type_symbol
_atom_site_fract_x
_atom_site_fract_y
_atom_site_fract_z
_atom_type_partial_charge
Co0 Co 0.53453 0.98212 0.1433 0.0
C1 C 0.55835 0.0523 0.06899 0.0
Co2 Co 0.49594 0.08294 0.13625 0.0
C3 C 0.54937 0.82091 0.13163 0.0
C4 C 0.67542 0.94182 0.13921 0.0
N5 N 0.58467 0.90765 0.14262 0.0
N6 N 0.61473 0.80101 0.12273 0.0
C7 C 0.69392 0.87659 0.12788 0.0
H8 H 0.47747 0.77362 0.12973 0.0
H9 H 0.72631 1.01179 0.14044 0.0
C10 C 0.42429 0.97767 0.20344 0.0
N11 N 0.4679 0.17698 0.13782 0.0
C12 C 0.52761 0.26782 0.13872 0.0
C13 C 0.39266 0.16845 0.15473 0.0
N14 N 0.49331 0.31518 0.15646 0.0
C15 C 0.40801 0.25233 0.16616 0.0
C16 C 0.36502 0.91178 0.11849 0.0
O17 O 0.46426 0.93461 0.19232 0.0
O18 O 0.45699 0.05878 0.19078 0.0
O19 O 0.37751 0.99144 0.12411 0.0
O20 O 0.43138 0.89796 0.11879 0.0
O21 O 0.52024 0.09488 0.08198 0.0
H22 H 0.3332 0.10455 0.16172 0.0
H23 H 0.59642 0.2987 0.12806 0.0
O24 O 0.58956 1.0186 0.09304 0.0
O25 O 0.64219 0.06887 0.16967 0.0
O26 O 0.62197 0.17454 0.14637 0.0
C27 C 0.67578 0.15053 0.1598 0.0
H28 H 0.76017 0.88417 0.12329 0.0
H29 H 0.36023 0.26524 0.18149 0.0
Co30 Co 0.10083 0.57874 0.14326 0.0
C31 C 0.03063 0.53235 0.06895 0.0
Co32 Co 1.00005 0.43935 0.13623 0.0
C33 C 0.26207 0.75483 0.13173 0.0
C34 C 0.14103 0.75986 0.13907 0.0
N35 N 0.17524 0.70333 0.14257 0.0
N36 N 0.28197 0.8401 0.12286 0.0
C37 C 0.20632 0.84365 0.12784 0.0
H38 H 0.3094 0.73026 0.12991 0.0
H39 H 0.07101 0.74068 0.14014 0.0
C40 C 0.10532 0.473 0.20342 0.0
N41 N 0.90603 0.31727 0.13781 0.0
C42 C 0.81519 0.28613 0.1387 0.0
C43 C 0.9146 0.25059 0.15472 0.0
N44 N 0.76786 0.20446 0.15642 0.0
C45 C 0.83074 0.18205 0.16615 0.0
C46 C 0.17121 0.4796 0.11846 0.0
O47 O 0.14838 0.55602 0.19229 0.0
O48 O 1.02423 0.42459 0.19076 0.0
O49 O 0.09156 0.41243 0.1241 0.0
O50 O 0.18501 0.55977 0.11875 0.0
O51 O 0.98809 0.45168 0.08195 0.0
H52 H 0.97851 0.25507 0.16173 0.0
H53 H 0.7843 0.32406 0.12804 0.0
O54 O 0.06433 0.59726 0.09299 0.0
O55 O 1.01411 0.59967 0.16963 0.0
O56 O 0.90844 0.47378 0.14634 0.0
C57 C 0.93245 0.5516 0.15976 0.0
H58 H 0.19873 0.9023 0.12318 0.0
H59 H 0.81786 0.12142 0.18152 0.0
Co60 Co 0.50425 0.54849 0.14324 0.0
C61 C 0.55058 0.52456 0.06895 0.0
Co62 Co 0.64364 0.58707 0.1362 0.0
C63 C 0.32815 0.53361 0.1317 0.0
C64 C 0.32315 0.40756 0.13909 0.0
N65 N 0.37967 0.49831 0.14257 0.0
N66 N 0.24289 0.46824 0.12285 0.0
C67 C 0.23935 0.38904 0.12785 0.0
H68 H 0.35271 0.60551 0.12986 0.0
H69 H 0.34233 0.35672 0.14019 0.0
C70 C 0.61004 0.65881 0.20337 0.0
N71 N 0.76571 0.61513 0.13777 0.0
C72 C 0.79685 0.55543 0.13867 0.0
C73 C 0.83241 0.69039 0.15466 0.0
N74 N 0.87853 0.58976 0.15638 0.0
C75 C 0.90096 0.67507 0.16609 0.0
C76 C 0.60335 0.71795 0.11838 0.0
O77 O 0.52701 0.61883 0.19224 0.0
O78 O 0.65845 0.6261 0.19072 0.0
O79 O 0.67053 0.70548 0.12403 0.0
O80 O 0.52318 0.6516 0.1187 0.0
O81 O 0.63125 0.56269 0.08193 0.0
H82 H 0.82795 0.74985 0.16166 0.0
H83 H 0.75891 0.4866 0.12802 0.0
O84 O 0.48568 0.49339 0.09299 0.0
O85 O 0.48336 0.44087 0.16964 0.0
O86 O 0.60924 0.46106 0.14635 0.0
C87 C 0.53143 0.40727 0.15978 0.0
H88 H 0.1807 0.32279 0.12321 0.0
H89 H 0.96164 0.72284 0.18142 0.0
Co90 Co 0.99222 0.52445 0.95385 0.0
C91 C 0.06241 0.54825 1.02815 0.0
Co92 Co 0.09303 0.48585 0.96089 0.0
C93 C 0.831 0.53929 0.96549 0.0
C94 C 0.95193 0.66535 0.95796 0.0
N95 N 0.91776 0.5746 0.95453 0.0
N96 N 0.8111 0.60465 0.97439 0.0
C97 C 0.88669 0.68385 0.96928 0.0
H98 H 0.7837 0.46739 0.96737 0.0
H99 H 1.02191 0.71623 0.95677 0.0
C100 C 0.98776 0.41423 0.89369 0.0
N101 N 0.18707 0.4578 0.95931 0.0
C102 C 0.2779 0.5175 0.9584 0.0
C103 C 0.17852 0.38257 0.94239 0.0
N104 N 0.32525 0.48321 0.94066 0.0
C105 C 0.26238 0.39791 0.93095 0.0
C106 C 0.92187 0.35494 0.97865 0.0
O107 O 0.9447 0.4542 0.90482 0.0
O108 O 0.06886 0.44692 0.90635 0.0
O109 O 1.00152 0.36741 0.97301 0.0
O110 O 0.90806 0.42129 0.97835 0.0
O111 O 0.10498 0.51013 1.01516 0.0
H112 H 0.11461 0.32312 0.93539 0.0
H113 H 0.30879 0.58631 0.96908 0.0
O114 O 1.02869 0.57946 1.00412 0.0
O115 O 0.07896 0.63212 0.92749 0.0
O116 O 0.18463 0.61189 0.95078 0.0
C117 C 0.16061 0.66571 0.93736 0.0
H118 H 0.89426 0.7501 0.97388 0.0
H119 H 0.27527 0.35015 0.91559 0.0
Co120 Co 0.55856 0.49413 0.95386 0.0
C121 C 0.53466 0.54047 1.02815 0.0
Co122 Co 0.59714 0.63354 0.96091 0.0
C123 C 0.5437 0.31807 0.96552 0.0
C124 C 0.41766 0.31296 0.95793 0.0
N125 N 0.50841 0.36953 0.95453 0.0
N126 N 0.47833 0.23282 0.97441 0.0
C127 C 0.39914 0.22922 0.96926 0.0
H128 H 0.6156 0.34267 0.96742 0.0
H129 H 0.36678 0.33206 0.95671 0.0
C130 C 0.66886 0.59995 0.89374 0.0
N131 N 0.62519 0.75563 0.95934 0.0
C132 C 0.56548 0.78675 0.95843 0.0
C133 C 0.70043 0.82233 0.94245 0.0
N134 N 0.59977 0.86841 0.9407 0.0
C135 C 0.68509 0.89087 0.93101 0.0
C136 C 0.72803 0.59327 0.97873 0.0
O137 O 0.62888 0.51691 0.90486 0.0
O138 O 0.63616 0.64836 0.90639 0.0
O139 O 0.71556 0.66045 0.97308 0.0
O140 O 0.66169 0.51309 0.9784 0.0
O141 O 0.57277 0.62115 1.01517 0.0
H142 H 0.7599 0.81789 0.93546 0.0
H143 H 0.49666 0.74882 0.96909 0.0
O144 O 0.50348 0.47556 1.00411 0.0
O145 O 0.45092 0.47324 0.92747 0.0
O146 O 0.47113 0.59914 0.95076 0.0
C147 C 0.41733 0.52132 0.93734 0.0
H148 H 0.33289 0.17054 0.97384 0.0
H149 H 0.73287 0.95156 0.91569 0.0
Co150 Co 0.58882 0.09077 0.9539 0.0
C151 C 0.54245 0.0205 1.02819 0.0
Co152 Co 0.44942 0.98996 0.96094 0.0
C153 C 0.76492 0.25199 0.96542 0.0
C154 C 0.76992 0.13093 0.95808 0.0
N155 N 0.7134 0.16516 0.95458 0.0
N156 N 0.85019 0.27189 0.97427 0.0
C157 C 0.85373 0.19622 0.9693 0.0
H158 H 0.74036 0.29934 0.96724 0.0
H159 H 0.75072 0.06091 0.957 0.0
C160 C 0.48304 0.09529 0.89376 0.0
N161 N 0.32735 0.89596 0.95936 0.0
C162 C 0.29621 0.80512 0.95846 0.0
C163 C 0.26067 0.90453 0.94245 0.0
N164 N 0.21454 0.75778 0.94074 0.0
C165 C 0.19213 0.82066 0.93102 0.0
C166 C 0.48971 0.16112 0.97875 0.0
O167 O 0.56606 0.13834 0.90489 0.0
O168 O 0.43463 1.01418 0.90641 0.0
O169 O 0.42253 0.08148 0.9731 0.0
O170 O 0.56988 0.17494 0.97844 0.0
O171 O 0.46178 0.97796 1.01521 0.0
H172 H 0.26514 0.96844 0.93545 0.0
H173 H 0.33413 0.77422 0.96912 0.0
O174 O 0.60737 0.05423 1.00416 0.0
O175 O 0.60972 1.00404 0.92751 0.0
O176 O 0.48383 0.89834 0.95079 0.0
C177 C 0.56165 0.92237 0.93737 0.0
H178 H 0.91237 0.18862 0.97395 0.0
H179 H 0.13148 0.80779 0.91566 0.0
Co180 Co 0.20118 0.31546 0.47664 0.0
C181 C 0.225 0.38563 0.40233 0.0
Co182 Co 0.16259 0.41627 0.46958 0.0
C183 C 0.21602 0.15425 0.46496 0.0
C184 C 0.34207 0.27516 0.47255 0.0
N185 N 0.25132 0.24099 0.47596 0.0
N186 N 0.28138 0.13435 0.45606 0.0
C187 C 0.36057 0.20993 0.46121 0.0
H188 H 0.14412 0.10695 0.46306 0.0
H189 H 0.39296 0.34513 0.47377 0.0
C190 C 0.09094 0.311 0.53677 0.0
N191 N 0.13455 0.51032 0.47116 0.0
C192 C 0.19426 0.60115 0.47206 0.0
C193 C 0.05931 0.50178 0.48806 0.0
N194 N 0.15996 0.64851 0.48979 0.0
C195 C 0.07465 0.58566 0.49949 0.0
C196 C 0.03167 0.24511 0.45182 0.0
O197 O 0.13092 0.26794 0.52565 0.0
O198 O 0.12364 0.39211 0.52411 0.0
O199 O 0.04416 0.32477 0.45745 0.0
O200 O 0.09803 0.23129 0.45213 0.0
O201 O 0.18689 0.42821 0.41531 0.0
H202 H 0.99984 0.43788 0.49505 0.0
H203 H 0.26307 0.63203 0.46139 0.0
O204 O 0.25621 0.35193 0.42637 0.0
O205 O 0.30884 0.40221 0.50301 0.0
O206 O 0.28862 0.50787 0.4797 0.0
C207 C 0.34243 0.48387 0.49313 0.0
H208 H 0.42682 0.2175 0.45662 0.0
H209 H 1.02688 0.59857 0.51482 0.0
Co210 Co 0.76748 0.91207 0.47659 0.0
C211 C 0.69728 0.86568 0.40228 0.0
Co212 Co 0.66669 0.77268 0.46956 0.0
C213 C 0.92871 0.08816 0.46506 0.0
C214 C 0.80768 0.09319 0.4724 0.0
N215 N 0.84189 0.03666 0.47591 0.0
N216 N 0.94862 0.17343 0.4562 0.0
C217 C 0.87297 0.17699 0.46117 0.0
H218 H 0.97605 0.06359 0.46325 0.0
H219 H 0.73766 0.07401 0.47348 0.0
C220 C 0.77197 0.80632 0.53675 0.0
N221 N 0.57268 0.6506 0.47114 0.0
C222 C 0.48184 0.61946 0.47203 0.0
C223 C 0.58125 0.58393 0.48806 0.0
N224 N 0.43451 0.53779 0.48976 0.0
C225 C 0.49739 0.51539 0.49949 0.0
C226 C 0.83785 0.81293 0.45179 0.0
O227 O 0.81503 0.88935 0.52562 0.0
O228 O 0.69087 0.75792 0.52409 0.0
O229 O 0.75821 0.74576 0.45743 0.0
O230 O 0.85166 0.8931 0.45209 0.0
O231 O 0.65473 0.78501 0.41528 0.0
H232 H 0.64516 0.5884 0.49506 0.0
H233 H 0.45095 0.65739 0.46137 0.0
O234 O 0.73098 0.9306 0.42632 0.0
O235 O 0.68075 0.933 0.50296 0.0
O236 O 0.57509 0.80711 0.47967 0.0
C237 C 0.5991 0.88493 0.49309 0.0
H238 H 0.86538 0.23564 0.45651 0.0
H239 H 0.48451 0.45475 0.51485 0.0
Co240 Co 0.17089 0.88182 0.47658 0.0
C241 C 0.21722 0.8579 0.40228 0.0
Co242 Co 0.31028 0.9204 0.46953 0.0
C243 C 0.9948 0.86694 0.46503 0.0
C244 C 0.9898 0.74089 0.47243 0.0
N245 N 0.04632 0.83164 0.4759 0.0
N246 N 0.90954 0.80157 0.45618 0.0
C247 C 0.906 0.72237 0.46119 0.0
H248 H 1.01936 0.93885 0.46319 0.0
H249 H 1.00898 0.69006 0.47353 0.0
C250 C 0.2767 0.99214 0.53671 0.0
N251 N 0.43236 0.94846 0.4711 0.0
C252 C 0.4635 0.88876 0.472 0.0
C253 C 0.49906 0.02372 0.488 0.0
N254 N 0.54518 0.92309 0.48971 0.0
C255 C 0.56761 1.0084 0.49942 0.0
C256 C 0.27 0.05128 0.45171 0.0
O257 O 0.19366 0.95216 0.52558 0.0
O258 O 0.3251 0.95943 0.52406 0.0
O259 O 0.33718 0.03881 0.45737 0.0
O260 O 0.18983 0.98494 0.45203 0.0
O261 O 0.2979 0.89602 0.41527 0.0
H262 H 0.4946 0.08318 0.49499 0.0
H263 H 0.42556 0.81993 0.46135 0.0
O264 O 0.15233 0.82672 0.42633 0.0
O265 O 0.15001 0.7742 0.50298 0.0
O266 O 0.27589 0.79439 0.47969 0.0
C267 C 0.19808 0.7406 0.49311 0.0
H268 H 0.84735 0.65613 0.45654 0.0
H269 H 0.62829 0.05617 0.51476 0.0
Co270 Co 0.65887 0.85779 0.28718 0.0
C271 C 0.72906 0.88158 0.36148 0.0
Co272 Co 0.75968 0.81919 0.29422 0.0
C273 C 0.49765 0.87263 0.29883 0.0
C274 C 0.61858 0.99869 0.29129 0.0
N275 N 0.58441 0.90794 0.28786 0.0
N276 N 0.47775 0.93798 0.30773 0.0
C277 C 0.55334 1.01718 0.30261 0.0
H278 H 0.45035 0.80072 0.30071 0.0
H279 H 0.68855 0.04957 0.2901 0.0
C280 C 0.65441 0.74755 0.22703 0.0
N281 N 0.85372 0.79114 0.29264 0.0
C282 C 0.94455 0.85084 0.29174 0.0
C283 C 0.84517 0.71591 0.27572 0.0
N284 N 0.9919 0.81655 0.27399 0.0
C285 C 0.92904 0.73125 0.26428 0.0
C286 C 0.58852 0.68827 0.31198 0.0
O287 O 0.61135 0.78753 0.23815 0.0
O288 O 0.73551 0.78026 0.23969 0.0
O289 O 0.66817 0.70075 0.30635 0.0
O290 O 0.57471 0.75463 0.31168 0.0
O291 O 0.77163 0.84347 0.3485 0.0
H292 H 0.78126 0.65645 0.26872 0.0
H293 H 0.97544 0.91965 0.30241 0.0
O294 O 0.69534 0.9128 0.33745 0.0
O295 O 0.74561 0.96545 0.26082 0.0
O296 O 0.85128 0.94522 0.28411 0.0
C297 C 0.82727 0.99904 0.27069 0.0
H298 H 0.56091 0.08343 0.30721 0.0
H299 H 0.94193 0.68348 0.24893 0.0
Co300 Co 0.22521 0.82746 0.2872 0.0
C301 C 0.2013 0.8738 0.36149 0.0
Co302 Co 0.26379 0.96688 0.29425 0.0
C303 C 0.21035 0.65141 0.29886 0.0
C304 C 0.08431 0.64629 0.29126 0.0
N305 N 0.17506 0.70286 0.28786 0.0
N306 N 0.14499 0.56615 0.30774 0.0
C307 C 0.0658 0.56255 0.30259 0.0
H308 H 0.28225 0.676 0.30076 0.0
H309 H 0.03343 0.66539 0.29004 0.0
C310 C 0.33553 0.93329 0.22708 0.0
N311 N 0.29184 0.08896 0.29268 0.0
C312 C 0.23213 0.12009 0.29177 0.0
C313 C 0.36709 0.15567 0.27578 0.0
N314 N 0.26642 0.20174 0.27404 0.0
C315 C 0.35174 0.2242 0.26435 0.0
C316 C 0.39468 0.9266 0.31206 0.0
O317 O 0.29554 0.85025 0.23819 0.0
O318 O 0.30281 0.98169 0.23972 0.0
O319 O 0.38221 0.99378 0.30641 0.0
O320 O 0.32834 0.84643 0.31173 0.0
O321 O 0.23942 0.95449 0.34851 0.0
H322 H 0.42656 0.15123 0.2688 0.0
H323 H 0.16331 0.08215 0.30243 0.0
O324 O 0.17013 0.80889 0.33745 0.0
O325 O 0.11758 0.80658 0.2608 0.0
O326 O 0.13778 0.93247 0.28409 0.0
C327 C 0.08398 0.85466 0.27067 0.0
H328 H 0.99954 0.50388 0.30717 0.0
H329 H 0.39952 0.28489 0.24902 0.0
Co330 Co 0.25547 0.4241 0.28724 0.0
C331 C 0.2091 0.35383 0.36153 0.0
Co332 Co 0.11607 0.3233 0.29427 0.0
C333 C 0.43157 0.58532 0.29876 0.0
C334 C 0.43657 0.46426 0.29141 0.0
N335 N 0.38005 0.49849 0.28792 0.0
N336 N 0.51684 0.60522 0.30761 0.0
C337 C 0.52038 0.52955 0.30263 0.0
H338 H 0.40701 0.63267 0.30057 0.0
H339 H 0.41738 0.39424 0.29034 0.0
C340 C 0.14969 0.42863 0.2271 0.0
N341 N 0.994 0.22929 0.29269 0.0
C342 C 0.96286 0.13845 0.29179 0.0
C343 C 0.92732 0.23786 0.27578 0.0
N344 N 0.88119 0.09112 0.27407 0.0
C345 C 0.85878 0.154 0.26435 0.0
C346 C 0.15636 0.49446 0.31209 0.0
O347 O 0.23272 0.47168 0.23823 0.0
O348 O 0.10129 0.34752 0.23974 0.0
O349 O 0.08918 0.41482 0.30643 0.0
O350 O 0.23653 0.50828 0.31178 0.0
O351 O 0.12843 0.31129 0.34854 0.0
H352 H 0.93179 0.30178 0.26878 0.0
H353 H 1.00078 0.10755 0.30245 0.0
O354 O 0.27402 0.38756 0.3375 0.0
O355 O 0.27637 0.33737 0.26084 0.0
O356 O 0.15048 0.23168 0.28413 0.0
C357 C 0.2283 0.25571 0.27071 0.0
H358 H 0.57902 0.52195 0.30729 0.0
H359 H 0.79814 0.14112 0.24899 0.0
Co360 Co 0.86787 0.64879 0.80996 0.0
C361 C 0.89168 0.71898 0.73565 0.0
Co362 Co 0.82928 0.74961 0.80291 0.0
C363 C 0.88271 0.48758 0.79829 0.0
C364 C 1.00876 0.6085 0.80586 0.0
N365 N 0.91801 0.57432 0.80928 0.0
N366 N 0.94806 0.46768 0.78939 0.0
C367 C 1.02726 0.54326 0.79453 0.0
H368 H 0.81081 0.44028 0.7964 0.0
H369 H 0.05964 0.67847 0.80708 0.0
C370 C 0.75762 0.64433 0.87009 0.0
N371 N 0.80123 0.84365 0.80449 0.0
C372 C 0.86094 0.93448 0.80539 0.0
C373 C 0.726 0.83512 0.82139 0.0
N374 N 0.82665 0.98185 0.82313 0.0
C375 C 0.74134 0.91899 0.83283 0.0
C376 C 0.69836 0.57844 0.78515 0.0
O377 O 0.7976 0.60127 0.85898 0.0
O378 O 0.79033 0.72544 0.85744 0.0
O379 O 0.71084 0.6581 0.79077 0.0
O380 O 0.76471 0.56462 0.78545 0.0
O381 O 0.85358 0.76155 0.74864 0.0
H382 H 0.66654 0.77121 0.82838 0.0
H383 H 0.92975 0.96536 0.79472 0.0
O384 O 0.92289 0.68527 0.7597 0.0
O385 O 0.97553 0.73553 0.83633 0.0
O386 O 0.9553 0.8412 0.81303 0.0
C387 C 1.00912 0.8172 0.82646 0.0
H388 H 0.09351 0.55084 0.78994 0.0
H389 H 0.69357 0.93191 0.84816 0.0
Co390 Co 0.43417 0.24541 0.80993 0.0
C391 C 0.36396 0.19902 0.73562 0.0
Co392 Co 0.33338 0.10602 0.80289 0.0
C393 C 0.5954 0.4215 0.79839 0.0
C394 C 0.47437 0.42653 0.80574 0.0
N395 N 0.50858 0.36999 0.80924 0.0
N396 N 0.61531 0.50677 0.78953 0.0
C397 C 0.53965 0.51032 0.7945 0.0
H398 H 0.64274 0.39693 0.79657 0.0
H399 H 0.40435 0.40735 0.80682 0.0
C400 C 0.43867 0.13965 0.87008 0.0
N401 N 0.23937 0.98394 0.80447 0.0
C402 C 0.14853 0.95279 0.80537 0.0
C403 C 0.24793 0.91726 0.82139 0.0
N404 N 0.10119 0.87113 0.82309 0.0
C405 C 0.16407 0.84871 0.83282 0.0
C406 C 0.50454 0.14627 0.78513 0.0
O407 O 0.48173 0.22268 0.85895 0.0
O408 O 0.35757 0.09125 0.85743 0.0
O409 O 0.42489 0.07909 0.79076 0.0
O410 O 0.51835 0.22644 0.78542 0.0
O411 O 0.32142 0.11835 0.74862 0.0
H412 H 0.31185 0.92173 0.8284 0.0
H413 H 0.11764 0.99072 0.7947 0.0
O414 O 0.39767 0.26393 0.75966 0.0
O415 O 0.34744 0.26633 0.8363 0.0
O416 O 0.24178 0.14044 0.81301 0.0
C417 C 0.26579 0.21827 0.82643 0.0
H418 H 0.53206 0.56897 0.78985 0.0
H419 H 0.15119 0.78807 0.84818 0.0
Co420 Co 0.83758 0.21515 0.80991 0.0
C421 C 0.8839 0.19123 0.73562 0.0
Co422 Co 0.97697 0.25373 0.80287 0.0
C423 C 0.66149 0.20028 0.79837 0.0
C424 C 0.65648 0.07422 0.80577 0.0
N425 N 0.713 0.16498 0.80925 0.0
N426 N 0.57623 0.1349 0.78952 0.0
C427 C 0.57268 0.0557 0.79453 0.0
H428 H 0.68605 0.27218 0.79653 0.0
H429 H 0.67566 0.02339 0.80688 0.0
C430 C 0.94339 0.32549 0.87003 0.0
N431 N 0.09905 0.2818 0.80443 0.0
C432 C 0.13019 0.2221 0.80533 0.0
C433 C 0.16575 0.35705 0.82133 0.0
N434 N 0.21186 0.25643 0.82305 0.0
C435 C 0.2343 0.34173 0.83275 0.0
C436 C 0.93668 0.38461 0.78505 0.0
O437 O 0.86036 0.2855 0.85892 0.0
O438 O 0.9918 0.29277 0.85739 0.0
O439 O 1.00386 0.37215 0.7907 0.0
O440 O 0.85651 0.31827 0.78537 0.0
O441 O 0.96458 0.22935 0.7486 0.0
H442 H 0.16129 0.41651 0.82832 0.0
H443 H 0.09225 0.15326 0.79469 0.0
O444 O 0.81901 0.16005 0.75966 0.0
O445 O 0.8167 0.10753 0.83632 0.0
O446 O 0.94258 0.12772 0.81302 0.0
C447 C 0.86477 0.07393 0.82645 0.0
H448 H 0.51404 0.98946 0.78989 0.0
H449 H 0.29497 0.38951 0.84809 0.0
Co450 Co 0.32553 0.19112 0.62052 0.0
C451 C 0.39573 0.21491 0.69482 0.0
Co452 Co 0.42634 0.15252 0.62755 0.0
C453 C 0.16431 0.20596 0.63217 0.0
C454 C 0.28524 0.33202 0.62464 0.0
N455 N 0.25107 0.24127 0.62121 0.0
N456 N 0.14441 0.27131 0.64106 0.0
C457 C 0.22 0.35052 0.63596 0.0
H458 H 0.11701 0.13405 0.63404 0.0
H459 H 0.35522 0.3829 0.62345 0.0
C460 C 0.32106 0.08088 0.56037 0.0
N461 N 0.52038 0.12447 0.62597 0.0
C462 C 0.61121 0.18417 0.62507 0.0
C463 C 0.51183 0.04924 0.60905 0.0
N464 N 0.65856 0.14988 0.60733 0.0
C465 C 0.5957 0.06458 0.59761 0.0
C466 C 0.25518 0.0216 0.64531 0.0
O467 O 0.278 0.12086 0.57149 0.0
O468 O 0.40217 0.11359 0.57302 0.0
O469 O 0.33484 0.03408 0.63968 0.0
O470 O 0.24137 0.08796 0.64502 0.0
O471 O 0.4383 0.1768 0.68183 0.0
H472 H 0.44792 0.98978 0.60205 0.0
H473 H 0.6421 0.25298 0.63575 0.0
O474 O 0.36201 0.24613 0.67079 0.0
O475 O 0.41226 0.29878 0.59415 0.0
O476 O 0.51794 0.27855 0.61745 0.0
C477 C 0.49392 0.33237 0.60402 0.0
H478 H 0.22757 0.41677 0.64056 0.0
H479 H 0.60859 1.01681 0.58226 0.0
Co480 Co 0.89187 0.1608 0.62053 0.0
C481 C 0.86797 0.20713 0.69482 0.0
Co482 Co 0.93045 0.30021 0.62758 0.0
C483 C 0.87701 0.98474 0.63219 0.0
C484 C 0.75097 0.97963 0.6246 0.0
N485 N 0.84172 0.0362 0.6212 0.0
N486 N 0.81165 0.89948 0.64107 0.0
C487 C 0.73246 0.89589 0.63593 0.0
H488 H 0.94891 1.00934 0.63409 0.0
H489 H 0.70009 0.99873 0.62339 0.0
C490 C 1.00219 0.26662 0.56042 0.0
N491 N 0.9585 0.42229 0.62601 0.0
C492 C 0.89879 0.45342 0.6251 0.0
C493 C 0.03374 0.489 0.60911 0.0
N494 N 0.93308 0.53507 0.60737 0.0
C495 C 1.0184 0.55753 0.59768 0.0
C496 C 0.06134 0.25993 0.6454 0.0
O497 O 0.9622 0.18358 0.57153 0.0
O498 O 0.96947 0.31502 0.57306 0.0
O499 O 0.04887 0.32712 0.63975 0.0
O500 O 0.995 0.17976 0.64507 0.0
O501 O 0.90609 0.28782 0.68185 0.0
H502 H 0.09321 0.48455 0.60213 0.0
H503 H 0.82997 0.41549 0.63576 0.0
O504 O 0.83679 0.14222 0.67078 0.0
O505 O 0.78424 0.13991 0.59414 0.0
O506 O 0.80444 0.2658 0.61743 0.0
C507 C 0.75064 0.18799 0.60401 0.0
H508 H 0.66621 0.83721 0.64051 0.0
H509 H 0.06617 0.61821 0.58235 0.0
Co510 Co 0.92214 0.75743 0.62056 0.0
C511 C 0.87578 0.68717 0.69486 0.0
Co512 Co 0.78274 0.65663 0.6276 0.0
C513 C 0.09823 0.91865 0.63209 0.0
C514 C 0.10324 0.7976 0.62473 0.0
N515 N 0.04671 0.83183 0.62124 0.0
N516 N 0.1835 0.93855 0.64094 0.0
C517 C 0.18704 0.86289 0.63595 0.0
H518 H 0.07367 0.966 0.63391 0.0
H519 H 0.08405 0.72758 0.62364 0.0
C520 C 0.81634 0.76196 0.56043 0.0
N521 N 0.66066 0.56262 0.62603 0.0
C522 C 0.62952 0.47178 0.62513 0.0
C523 C 0.59398 0.57119 0.60912 0.0
N524 N 0.54785 0.42445 0.60741 0.0
C525 C 0.52543 0.48733 0.59769 0.0
C526 C 0.82302 0.82779 0.64542 0.0
O527 O 0.89937 0.80501 0.57155 0.0
O528 O 0.76794 0.68085 0.57307 0.0
O529 O 0.75584 0.74815 0.63976 0.0
O530 O 0.90319 0.84161 0.6451 0.0
O531 O 0.7951 0.64463 0.68187 0.0
H532 H 0.59845 0.63511 0.60212 0.0
H533 H 0.66745 0.44088 0.63578 0.0
O534 O 0.94069 0.7209 0.67082 0.0
O535 O 0.94303 0.6707 0.59417 0.0
O536 O 0.81714 0.56501 0.61746 0.0
C537 C 0.89496 0.58903 0.60404 0.0
H538 H 0.24569 0.85529 0.6406 0.0
H539 H 0.46479 0.47445 0.58233 0.0
loop_
_geom_bond_atom_site_label_1
_geom_bond_atom_site_label_2
_geom_bond_distance
_geom_bond_site_symmetry_2
_ccdc_geom_bond_type
Co0 N5 2.057 . S
Co0 O17 2.021 . S
Co0 O20 2.062 . S
Co0 O24 2.117 . S
Co0 O25 2.020 1_565 S
C1 O21 1.259 . S
C1 O24 1.258 1_545 S
Co2 N11 2.057 . S
Co2 O18 2.117 . S
Co2 O19 2.020 1_545 S
Co2 O21 2.021 . S
Co2 O26 2.062 . S
C3 N5 1.316 . S
C3 N6 1.347 . S
C3 H8 0.931 . S
C4 N5 1.375 . S
C4 C7 1.350 . S
C4 H9 0.930 . S
N5 Co0 2.057 . S
N5 C3 1.316 . S
N5 C4 1.375 . S
N6 C3 1.347 . S
N6 C7 1.373 . S
C7 C4 1.350 . S
C7 N6 1.373 . S
C7 H28 0.931 . S
H8 C3 0.931 . S
H9 C4 0.930 . S
C10 O17 1.259 . S
C10 O18 1.258 1_565 S
N11 Co2 2.057 . S
N11 C12 1.316 . S
N11 C13 1.375 . S
C12 N11 1.316 . S
C12 N14 1.347 . S
C12 H23 0.931 . S
C13 N11 1.375 . S
C13 C15 1.350 . S
C13 H22 0.930 . S
N14 C12 1.347 . S
N14 C15 1.373 . S
C15 C13 1.350 . S
C15 N14 1.373 . S
C15 H29 0.931 . S
C16 O19 1.256 . S
C16 O20 1.255 . S
O17 Co0 2.021 . S
O17 C10 1.259 . S
O18 Co2 2.117 . S
O18 C10 1.258 1_545 S
O19 Co2 2.020 1_565 S
O19 C16 1.256 . S
O20 Co0 2.062 . S
O20 C16 1.255 . S
O21 C1 1.259 . S
O21 Co2 2.021 . S
H22 C13 0.930 . S
H23 C12 0.931 . S
O24 Co0 2.117 . S
O24 C1 1.258 1_565 S
O25 Co0 2.020 1_545 S
O25 C27 1.256 . S
O26 Co2 2.062 . S
O26 C27 1.255 . S
C27 O25 1.256 . S
C27 O26 1.255 . S
H28 C7 0.931 . S
H29 C15 0.931 . S
Co30 N35 2.057 . S
Co30 O47 2.021 . S
Co30 O50 2.062 . S
Co30 O54 2.117 . S
Co30 O55 2.020 1_455 S
C31 O51 1.259 1_455 S
C31 O54 1.258 . S
Co32 N41 2.057 . S
Co32 O48 2.117 . S
Co32 O49 2.020 1_655 S
Co32 O51 2.021 . S
Co32 O56 2.062 . S
C33 N35 1.316 . S
C33 N36 1.347 . S
C33 H38 0.931 . S
C34 N35 1.375 . S
C34 C37 1.350 . S
C34 H39 0.930 . S
N35 Co30 2.057 . S
N35 C33 1.316 . S
N35 C34 1.375 . S
N36 C33 1.347 . S
N36 C37 1.373 . S
C37 C34 1.350 . S
C37 N36 1.373 . S
C37 H58 0.931 . S
H38 C33 0.931 . S
H39 C34 0.930 . S
C40 O47 1.259 . S
C40 O48 1.258 1_455 S
N41 Co32 2.057 . S
N41 C42 1.316 . S
N41 C43 1.375 . S
C42 N41 1.316 . S
C42 N44 1.347 . S
C42 H53 0.931 . S
C43 N41 1.375 . S
C43 C45 1.350 . S
C43 H52 0.930 . S
N44 C42 1.347 . S
N44 C45 1.373 . S
C45 C43 1.350 . S
C45 N44 1.373 . S
C45 H59 0.931 . S
C46 O49 1.256 . S
C46 O50 1.255 . S
O47 Co30 2.021 . S
O47 C40 1.259 . S
O48 Co32 2.117 . S
O48 C40 1.258 1_655 S
O49 Co32 2.020 1_455 S
O49 C46 1.256 . S
O50 Co30 2.062 . S
O50 C46 1.255 . S
O51 C31 1.259 1_655 S
O51 Co32 2.021 . S
H52 C43 0.930 . S
H53 C42 0.931 . S
O54 Co30 2.117 . S
O54 C31 1.258 . S
O55 Co30 2.020 1_655 S
O55 C57 1.256 . S
O56 Co32 2.062 . S
O56 C57 1.255 . S
C57 O55 1.256 . S
C57 O56 1.255 . S
H58 C37 0.931 . S
H59 C45 0.931 . S
Co60 N65 2.057 . S
Co60 O77 2.021 . S
Co60 O80 2.062 . S
Co60 O84 2.117 . S
Co60 O85 2.020 . S
C61 O81 1.259 . S
C61 O84 1.258 . S
Co62 N71 2.057 . S
Co62 O78 2.117 . S
Co62 O79 2.020 . S
Co62 O81 2.021 . S
Co62 O86 2.062 . S
C63 N65 1.316 . S
C63 N66 1.347 . S
C63 H68 0.931 . S
C64 N65 1.375 . S
C64 C67 1.350 . S
C64 H69 0.930 . S
N65 Co60 2.057 . S
N65 C63 1.316 . S
N65 C64 1.375 . S
N66 C63 1.347 . S
N66 C67 1.373 . S
C67 C64 1.350 . S
C67 N66 1.373 . S
C67 H88 0.931 . S
H68 C63 0.931 . S
H69 C64 0.930 . S
C70 O77 1.259 . S
C70 O78 1.258 . S
N71 Co62 2.057 . S
N71 C72 1.316 . S
N71 C73 1.375 . S
C72 N71 1.316 . S
C72 N74 1.347 . S
C72 H83 0.931 . S
C73 N71 1.375 . S
C73 C75 1.350 . S
C73 H82 0.930 . S
N74 C72 1.347 . S
N74 C75 1.373 . S
C75 C73 1.350 . S
C75 N74 1.373 . S
C75 H89 0.931 . S
C76 O79 1.256 . S
C76 O80 1.255 . S
O77 Co60 2.021 . S
O77 C70 1.259 . S
O78 Co62 2.117 . S
O78 C70 1.258 . S
O79 Co62 2.020 . S
O79 C76 1.256 . S
O80 Co60 2.062 . S
O80 C76 1.255 . S
O81 C61 1.259 . S
O81 Co62 2.021 . S
H82 C73 0.930 . S
H83 C72 0.931 . S
O84 Co60 2.117 . S
O84 C61 1.258 . S
O85 Co60 2.020 . S
O85 C87 1.256 . S
O86 Co62 2.062 . S
O86 C87 1.255 . S
C87 O85 1.256 . S
C87 O86 1.255 . S
H88 C67 0.931 . S
H89 C75 0.931 . S
Co90 N95 2.057 . S
Co90 O107 2.021 . S
Co90 O110 2.062 . S
Co90 O114 2.117 . S
Co90 O115 2.020 1_655 S
C91 O111 1.259 . S
C91 O114 1.258 1_455 S
Co92 N101 2.057 . S
Co92 O108 2.117 . S
Co92 O109 2.020 1_455 S
Co92 O111 2.021 . S
Co92 O116 2.062 . S
C93 N95 1.316 . S
C93 N96 1.347 . S
C93 H98 0.931 . S
C94 N95 1.375 . S
C94 C97 1.350 . S
C94 H99 0.930 . S
N95 Co90 2.057 . S
N95 C93 1.316 . S
N95 C94 1.375 . S
N96 C93 1.347 . S
N96 C97 1.373 . S
C97 C94 1.350 . S
C97 N96 1.373 . S
C97 H118 0.931 . S
H98 C93 0.931 . S
H99 C94 0.930 . S
C100 O107 1.259 . S
C100 O108 1.258 1_655 S
N101 Co92 2.057 . S
N101 C102 1.316 . S
N101 C103 1.375 . S
C102 N101 1.316 . S
C102 N104 1.347 . S
C102 H113 0.931 . S
C103 N101 1.375 . S
C103 C105 1.350 . S
C103 H112 0.930 . S
N104 C102 1.347 . S
N104 C105 1.373 . S
C105 C103 1.350 . S
C105 N104 1.373 . S
C105 H119 0.931 . S
C106 O109 1.256 . S
C106 O110 1.255 . S
O107 Co90 2.021 . S
O107 C100 1.259 . S
O108 Co92 2.117 . S
O108 C100 1.258 1_455 S
O109 Co92 2.020 1_655 S
O109 C106 1.256 . S
O110 Co90 2.062 . S
O110 C106 1.255 . S
O111 C91 1.259 . S
O111 Co92 2.021 . S
H112 C103 0.930 . S
H113 C102 0.931 . S
O114 Co90 2.117 . S
O114 C91 1.258 1_655 S
O115 Co90 2.020 1_455 S
O115 C117 1.256 . S
O116 Co92 2.062 . S
O116 C117 1.255 . S
C117 O115 1.256 . S
C117 O116 1.255 . S
H118 C97 0.931 . S
H119 C105 0.931 . S
Co120 N125 2.057 . S
Co120 O137 2.021 . S
Co120 O140 2.062 . S
Co120 O144 2.117 . S
Co120 O145 2.020 . S
C121 O141 1.259 . S
C121 O144 1.258 . S
Co122 N131 2.057 . S
Co122 O138 2.117 . S
Co122 O139 2.020 . S
Co122 O141 2.021 . S
Co122 O146 2.062 . S
C123 N125 1.316 . S
C123 N126 1.347 . S
C123 H128 0.931 . S
C124 N125 1.375 . S
C124 C127 1.350 . S
C124 H129 0.930 . S
N125 Co120 2.057 . S
N125 C123 1.316 . S
N125 C124 1.375 . S
N126 C123 1.347 . S
N126 C127 1.373 . S
C127 C124 1.350 . S
C127 N126 1.373 . S
C127 H148 0.931 . S
H128 C123 0.931 . S
H129 C124 0.930 . S
C130 O137 1.259 . S
C130 O138 1.258 . S
N131 Co122 2.057 . S
N131 C132 1.316 . S
N131 C133 1.375 . S
C132 N131 1.316 . S
C132 N134 1.347 . S
C132 H143 0.931 . S
C133 N131 1.375 . S
C133 C135 1.350 . S
C133 H142 0.930 . S
N134 C132 1.347 . S
N134 C135 1.373 . S
C135 C133 1.350 . S
C135 N134 1.373 . S
C135 H149 0.931 . S
C136 O139 1.256 . S
C136 O140 1.255 . S
O137 Co120 2.021 . S
O137 C130 1.259 . S
O138 Co122 2.117 . S
O138 C130 1.258 . S
O139 Co122 2.020 . S
O139 C136 1.256 . S
O140 Co120 2.062 . S
O140 C136 1.255 . S
O141 C121 1.259 . S
O141 Co122 2.021 . S
H142 C133 0.930 . S
H143 C132 0.931 . S
O144 Co120 2.117 . S
O144 C121 1.258 . S
O145 Co120 2.020 . S
O145 C147 1.256 . S
O146 Co122 2.062 . S
O146 C147 1.255 . S
C147 O145 1.256 . S
C147 O146 1.255 . S
H148 C127 0.931 . S
H149 C135 0.931 . S
Co150 N155 2.057 . S
Co150 O167 2.021 . S
Co150 O170 2.062 . S
Co150 O174 2.117 . S
Co150 O175 2.020 1_545 S
C151 O171 1.259 1_545 S
C151 O174 1.258 . S
Co152 N161 2.057 . S
Co152 O168 2.117 . S
Co152 O169 2.020 1_565 S
Co152 O171 2.021 . S
Co152 O176 2.062 . S
C153 N155 1.316 . S
C153 N156 1.347 . S
C153 H158 0.931 . S
C154 N155 1.375 . S
C154 C157 1.350 . S
C154 H159 0.930 . S
N155 Co150 2.057 . S
N155 C153 1.316 . S
N155 C154 1.375 . S
N156 C153 1.347 . S
N156 C157 1.373 . S
C157 C154 1.350 . S
C157 N156 1.373 . S
C157 H178 0.931 . S
H158 C153 0.931 . S
H159 C154 0.930 . S
C160 O167 1.259 . S
C160 O168 1.258 1_545 S
N161 Co152 2.057 . S
N161 C162 1.316 . S
N161 C163 1.375 . S
C162 N161 1.316 . S
C162 N164 1.347 . S
C162 H173 0.931 . S
C163 N161 1.375 . S
C163 C165 1.350 . S
C163 H172 0.930 . S
N164 C162 1.347 . S
N164 C165 1.373 . S
C165 C163 1.350 . S
C165 N164 1.373 . S
C165 H179 0.931 . S
C166 O169 1.256 . S
C166 O170 1.255 . S
O167 Co150 2.021 . S
O167 C160 1.259 . S
O168 Co152 2.117 . S
O168 C160 1.258 1_565 S
O169 Co152 2.020 1_545 S
O169 C166 1.256 . S
O170 Co150 2.062 . S
O170 C166 1.255 . S
O171 C151 1.259 1_565 S
O171 Co152 2.021 . S
H172 C163 0.930 . S
H173 C162 0.931 . S
O174 Co150 2.117 . S
O174 C151 1.258 . S
O175 Co150 2.020 1_565 S
O175 C177 1.256 . S
O176 Co152 2.062 . S
O176 C177 1.255 . S
C177 O175 1.256 . S
C177 O176 1.255 . S
H178 C157 0.931 . S
H179 C165 0.931 . S
Co180 N185 2.057 . S
Co180 O197 2.021 . S
Co180 O200 2.062 . S
Co180 O204 2.117 . S
Co180 O205 2.020 . S
C181 O201 1.259 . S
C181 O204 1.258 . S
Co182 N191 2.057 . S
Co182 O198 2.117 . S
Co182 O199 2.020 . S
Co182 O201 2.021 . S
Co182 O206 2.062 . S
C183 N185 1.316 . S
C183 N186 1.347 . S
C183 H188 0.931 . S
C184 N185 1.375 . S
C184 C187 1.350 . S
C184 H189 0.930 . S
N185 Co180 2.057 . S
N185 C183 1.316 . S
N185 C184 1.375 . S
N186 C183 1.347 . S
N186 C187 1.373 . S
C187 C184 1.350 . S
C187 N186 1.373 . S
C187 H208 0.931 . S
H188 C183 0.931 . S
H189 C184 0.930 . S
C190 O197 1.259 . S
C190 O198 1.258 . S
N191 Co182 2.057 . S
N191 C192 1.316 . S
N191 C193 1.375 . S
C192 N191 1.316 . S
C192 N194 1.347 . S
C192 H203 0.931 . S
C193 N191 1.375 . S
C193 C195 1.350 . S
C193 H202 0.930 . S
N194 C192 1.347 . S
N194 C195 1.373 . S
C195 C193 1.350 . S
C195 N194 1.373 . S
C195 H209 0.931 . S
C196 O199 1.256 1_655 S
C196 O200 1.255 1_655 S
O197 Co180 2.021 . S
O197 C190 1.259 . S
O198 Co182 2.117 . S
O198 C190 1.258 . S
O199 Co182 2.020 . S
O199 C196 1.256 1_455 S
O200 Co180 2.062 . S
O200 C196 1.255 1_455 S
O201 C181 1.259 . S
O201 Co182 2.021 . S
H202 C193 0.930 . S
H203 C192 0.931 . S
O204 Co180 2.117 . S
O204 C181 1.258 . S
O205 Co180 2.020 . S
O205 C207 1.256 . S
O206 Co182 2.062 . S
O206 C207 1.255 . S
C207 O205 1.256 . S
C207 O206 1.255 . S
H208 C187 0.931 . S
H209 C195 0.931 . S
Co210 N215 2.057 1_565 S
Co210 O227 2.021 . S
Co210 O230 2.062 . S
Co210 O234 2.117 . S
Co210 O235 2.020 . S
C211 O231 1.259 . S
C211 O234 1.258 . S
Co212 N221 2.057 . S
Co212 O228 2.117 . S
Co212 O229 2.020 . S
Co212 O231 2.021 . S
Co212 O236 2.062 . S
C213 N215 1.316 . S
C213 N216 1.347 . S
C213 H218 0.931 . S
C214 N215 1.375 . S
C214 C217 1.350 . S
C214 H219 0.930 . S
N215 Co210 2.057 1_545 S
N215 C213 1.316 . S
N215 C214 1.375 . S
N216 C213 1.347 . S
N216 C217 1.373 . S
C217 C214 1.350 . S
C217 N216 1.373 . S
C217 H238 0.931 . S
H218 C213 0.931 . S
H219 C214 0.930 . S
C220 O227 1.259 . S
C220 O228 1.258 . S
N221 Co212 2.057 . S
N221 C222 1.316 . S
N221 C223 1.375 . S
C222 N221 1.316 . S
C222 N224 1.347 . S
C222 H233 0.931 . S
C223 N221 1.375 . S
C223 C225 1.350 . S
C223 H232 0.930 . S
N224 C222 1.347 . S
N224 C225 1.373 . S
C225 C223 1.350 . S
C225 N224 1.373 . S
C225 H239 0.931 . S
C226 O229 1.256 . S
C226 O230 1.255 . S
O227 Co210 2.021 . S
O227 C220 1.259 . S
O228 Co212 2.117 . S
O228 C220 1.258 . S
O229 Co212 2.020 . S
O229 C226 1.256 . S
O230 Co210 2.062 . S
O230 C226 1.255 . S
O231 C211 1.259 . S
O231 Co212 2.021 . S
H232 C223 0.930 . S
H233 C222 0.931 . S
O234 Co210 2.117 . S
O234 C211 1.258 . S
O235 Co210 2.020 . S
O235 C237 1.256 . S
O236 Co212 2.062 . S
O236 C237 1.255 . S
C237 O235 1.256 . S
C237 O236 1.255 . S
H238 C217 0.931 . S
H239 C225 0.931 . S
Co240 N245 2.057 1_455 S
Co240 O257 2.021 . S
Co240 O260 2.062 . S
Co240 O264 2.117 . S
Co240 O265 2.020 . S
C241 O261 1.259 . S
C241 O264 1.258 . S
Co242 N251 2.057 . S
Co242 O258 2.117 . S
Co242 O259 2.020 1_565 S
Co242 O261 2.021 . S
Co242 O266 2.062 . S
C243 N245 1.316 . S
C243 N246 1.347 . S
C243 H248 0.931 . S
C244 N245 1.375 . S
C244 C247 1.350 . S
C244 H249 0.930 . S
N245 Co240 2.057 1_655 S
N245 C243 1.316 . S
N245 C244 1.375 . S
N246 C243 1.347 . S
N246 C247 1.373 . S
C247 C244 1.350 . S
C247 N246 1.373 . S
C247 H268 0.931 . S
H248 C243 0.931 . S
H249 C244 0.930 . S
C250 O257 1.259 . S
C250 O258 1.258 . S
N251 Co242 2.057 . S
N251 C252 1.316 . S
N251 C253 1.375 . S
C252 N251 1.316 . S
C252 N254 1.347 . S
C252 H263 0.931 . S
C253 N251 1.375 . S
C253 C255 1.350 . S
C253 H262 0.930 . S
N254 C252 1.347 . S
N254 C255 1.373 . S
C255 C253 1.350 . S
C255 N254 1.373 . S
C255 H269 0.931 1_565 S
C256 O259 1.256 . S
C256 O260 1.255 1_545 S
O257 Co240 2.021 . S
O257 C250 1.259 . S
O258 Co242 2.117 . S
O258 C250 1.258 . S
O259 Co242 2.020 1_545 S
O259 C256 1.256 . S
O260 Co240 2.062 . S
O260 C256 1.255 1_565 S
O261 C241 1.259 . S
O261 Co242 2.021 . S
H262 C253 0.930 . S
H263 C252 0.931 . S
O264 Co240 2.117 . S
O264 C241 1.258 . S
O265 Co240 2.020 . S
O265 C267 1.256 . S
O266 Co242 2.062 . S
O266 C267 1.255 . S
C267 O265 1.256 . S
C267 O266 1.255 . S
H268 C247 0.931 . S
H269 C255 0.931 1_545 S
Co270 N275 2.057 . S
Co270 O287 2.021 . S
Co270 O290 2.062 . S
Co270 O294 2.117 . S
Co270 O295 2.020 . S
C271 O291 1.259 . S
C271 O294 1.258 . S
Co272 N281 2.057 . S
Co272 O288 2.117 . S
Co272 O289 2.020 . S
Co272 O291 2.021 . S
Co272 O296 2.062 . S
C273 N275 1.316 . S
C273 N276 1.347 . S
C273 H278 0.931 . S
C274 N275 1.375 . S
C274 C277 1.350 . S
C274 H279 0.930 . S
N275 Co270 2.057 . S
N275 C273 1.316 . S
N275 C274 1.375 . S
N276 C273 1.347 . S
N276 C277 1.373 . S
C277 C274 1.350 . S
C277 N276 1.373 . S
C277 H298 0.931 . S
H278 C273 0.931 . S
H279 C274 0.930 . S
C280 O287 1.259 . S
C280 O288 1.258 . S
N281 Co272 2.057 . S
N281 C282 1.316 . S
N281 C283 1.375 . S
C282 N281 1.316 . S
C282 N284 1.347 . S
C282 H293 0.931 . S
C283 N281 1.375 . S
C283 C285 1.350 . S
C283 H292 0.930 . S
N284 C282 1.347 . S
N284 C285 1.373 . S
C285 C283 1.350 . S
C285 N284 1.373 . S
C285 H299 0.931 . S
C286 O289 1.256 . S
C286 O290 1.255 . S
O287 Co270 2.021 . S
O287 C280 1.259 . S
O288 Co272 2.117 . S
O288 C280 1.258 . S
O289 Co272 2.020 . S
O289 C286 1.256 . S
O290 Co270 2.062 . S
O290 C286 1.255 . S
O291 C271 1.259 . S
O291 Co272 2.021 . S
H292 C283 0.930 . S
H293 C282 0.931 . S
O294 Co270 2.117 . S
O294 C271 1.258 . S
O295 Co270 2.020 . S
O295 C297 1.256 . S
O296 Co272 2.062 . S
O296 C297 1.255 . S
C297 O295 1.256 . S
C297 O296 1.255 . S
H298 C277 0.931 . S
H299 C285 0.931 . S
Co300 N305 2.057 . S
Co300 O317 2.021 . S
Co300 O320 2.062 . S
Co300 O324 2.117 . S
Co300 O325 2.020 . S
C301 O321 1.259 . S
C301 O324 1.258 . S
Co302 N311 2.057 1_565 S
Co302 O318 2.117 . S
Co302 O319 2.020 . S
Co302 O321 2.021 . S
Co302 O326 2.062 . S
C303 N305 1.316 . S
C303 N306 1.347 . S
C303 H308 0.931 . S
C304 N305 1.375 . S
C304 C307 1.350 . S
C304 H309 0.930 . S
N305 Co300 2.057 . S
N305 C303 1.316 . S
N305 C304 1.375 . S
N306 C303 1.347 . S
N306 C307 1.373 . S
C307 C304 1.350 . S
C307 N306 1.373 . S
C307 H328 0.931 . S
H308 C303 0.931 . S
H309 C304 0.930 . S
C310 O317 1.259 . S
C310 O318 1.258 . S
N311 Co302 2.057 1_545 S
N311 C312 1.316 . S
N311 C313 1.375 . S
C312 N311 1.316 . S
C312 N314 1.347 . S
C312 H323 0.931 . S
C313 N311 1.375 . S
C313 C315 1.350 . S
C313 H322 0.930 . S
N314 C312 1.347 . S
N314 C315 1.373 . S
C315 C313 1.350 . S
C315 N314 1.373 . S
C315 H329 0.931 . S
C316 O319 1.256 . S
C316 O320 1.255 . S
O317 Co300 2.021 . S
O317 C310 1.259 . S
O318 Co302 2.117 . S
O318 C310 1.258 . S
O319 Co302 2.020 . S
O319 C316 1.256 . S
O320 Co300 2.062 . S
O320 C316 1.255 . S
O321 C301 1.259 . S
O321 Co302 2.021 . S
H322 C313 0.930 . S
H323 C312 0.931 . S
O324 Co300 2.117 . S
O324 C301 1.258 . S
O325 Co300 2.020 . S
O325 C327 1.256 . S
O326 Co302 2.062 . S
O326 C327 1.255 . S
C327 O325 1.256 . S
C327 O326 1.255 . S
H328 C307 0.931 . S
H329 C315 0.931 . S
Co330 N335 2.057 . S
Co330 O347 2.021 . S
Co330 O350 2.062 . S
Co330 O354 2.117 . S
Co330 O355 2.020 . S
C331 O351 1.259 . S
C331 O354 1.258 . S
Co332 N341 2.057 1_455 S
Co332 O348 2.117 . S
Co332 O349 2.020 . S
Co332 O351 2.021 . S
Co332 O356 2.062 . S
C333 N335 1.316 . S
C333 N336 1.347 . S
C333 H338 0.931 . S
C334 N335 1.375 . S
C334 C337 1.350 . S
C334 H339 0.930 . S
N335 Co330 2.057 . S
N335 C333 1.316 . S
N335 C334 1.375 . S
N336 C333 1.347 . S
N336 C337 1.373 . S
C337 C334 1.350 . S
C337 N336 1.373 . S
C337 H358 0.931 . S
H338 C333 0.931 . S
H339 C334 0.930 . S
C340 O347 1.259 . S
C340 O348 1.258 . S
N341 Co332 2.057 1_655 S
N341 C342 1.316 . S
N341 C343 1.375 . S
C342 N341 1.316 . S
C342 N344 1.347 . S
C342 H353 0.931 . S
C343 N341 1.375 . S
C343 C345 1.350 . S
C343 H352 0.930 . S
N344 C342 1.347 . S
N344 C345 1.373 . S
C345 C343 1.350 . S
C345 N344 1.373 . S
C345 H359 0.931 . S
C346 O349 1.256 . S
C346 O350 1.255 . S
O347 Co330 2.021 . S
O347 C340 1.259 . S
O348 Co332 2.117 . S
O348 C340 1.258 . S
O349 Co332 2.020 . S
O349 C346 1.256 . S
O350 Co330 2.062 . S
O350 C346 1.255 . S
O351 C331 1.259 . S
O351 Co332 2.021 . S
H352 C343 0.930 . S
H353 C342 0.931 . S
O354 Co330 2.117 . S
O354 C331 1.258 . S
O355 Co330 2.020 . S
O355 C357 1.256 . S
O356 Co332 2.062 . S
O356 C357 1.255 . S
C357 O355 1.256 . S
C357 O356 1.255 . S
H358 C337 0.931 . S
H359 C345 0.931 . S
Co360 N365 2.057 . S
Co360 O377 2.021 . S
Co360 O380 2.062 . S
Co360 O384 2.117 . S
Co360 O385 2.020 . S
C361 O381 1.259 . S
C361 O384 1.258 . S
Co362 N371 2.057 . S
Co362 O378 2.117 . S
Co362 O379 2.020 . S
Co362 O381 2.021 . S
Co362 O386 2.062 . S
C363 N365 1.316 . S
C363 N366 1.347 . S
C363 H368 0.931 . S
C364 N365 1.375 . S
C364 C367 1.350 . S
C364 H369 0.930 . S
N365 Co360 2.057 . S
N365 C363 1.316 . S
N365 C364 1.375 . S
N366 C363 1.347 . S
N366 C367 1.373 . S
C367 C364 1.350 . S
C367 N366 1.373 . S
C367 H388 0.931 . S
H368 C363 0.931 . S
H369 C364 0.930 . S
C370 O377 1.259 . S
C370 O378 1.258 . S
N371 Co362 2.057 . S
N371 C372 1.316 . S
N371 C373 1.375 . S
C372 N371 1.316 . S
C372 N374 1.347 . S
C372 H383 0.931 . S
C373 N371 1.375 . S
C373 C375 1.350 . S
C373 H382 0.930 . S
N374 C372 1.347 . S
N374 C375 1.373 . S
C375 C373 1.350 . S
C375 N374 1.373 . S
C375 H389 0.931 . S
C376 O379 1.256 . S
C376 O380 1.255 . S
O377 Co360 2.021 . S
O377 C370 1.259 . S
O378 Co362 2.117 . S
O378 C370 1.258 . S
O379 Co362 2.020 . S
O379 C376 1.256 . S
O380 Co360 2.062 . S
O380 C376 1.255 . S
O381 C361 1.259 . S
O381 Co362 2.021 . S
H382 C373 0.930 . S
H383 C372 0.931 . S
O384 Co360 2.117 . S
O384 C361 1.258 . S
O385 Co360 2.020 . S
O385 C387 1.256 . S
O386 Co362 2.062 . S
O386 C387 1.255 . S
C387 O385 1.256 . S
C387 O386 1.255 . S
H388 C367 0.931 . S
H389 C375 0.931 . S
Co390 N395 2.057 . S
Co390 O407 2.021 . S
Co390 O410 2.062 . S
Co390 O414 2.117 . S
Co390 O415 2.020 . S
C391 O411 1.259 . S
C391 O414 1.258 . S
Co392 N401 2.057 1_545 S
Co392 O408 2.117 . S
Co392 O409 2.020 . S
Co392 O411 2.021 . S
Co392 O416 2.062 . S
C393 N395 1.316 . S
C393 N396 1.347 . S
C393 H398 0.931 . S
C394 N395 1.375 . S
C394 C397 1.350 . S
C394 H399 0.930 . S
N395 Co390 2.057 . S
N395 C393 1.316 . S
N395 C394 1.375 . S
N396 C393 1.347 . S
N396 C397 1.373 . S
C397 C394 1.350 . S
C397 N396 1.373 . S
C397 H418 0.931 . S
H398 C393 0.931 . S
H399 C394 0.930 . S
C400 O407 1.259 . S
C400 O408 1.258 . S
N401 Co392 2.057 1_565 S
N401 C402 1.316 . S
N401 C403 1.375 . S
C402 N401 1.316 . S
C402 N404 1.347 . S
C402 H413 0.931 . S
C403 N401 1.375 . S
C403 C405 1.350 . S
C403 H412 0.930 . S
N404 C402 1.347 . S
N404 C405 1.373 . S
C405 C403 1.350 . S
C405 N404 1.373 . S
C405 H419 0.931 . S
C406 O409 1.256 . S
C406 O410 1.255 . S
O407 Co390 2.021 . S
O407 C400 1.259 . S
O408 Co392 2.117 . S
O408 C400 1.258 . S
O409 Co392 2.020 . S
O409 C406 1.256 . S
O410 Co390 2.062 . S
O410 C406 1.255 . S
O411 C391 1.259 . S
O411 Co392 2.021 . S
H412 C403 0.930 . S
H413 C402 0.931 . S
O414 Co390 2.117 . S
O414 C391 1.258 . S
O415 Co390 2.020 . S
O415 C417 1.256 . S
O416 Co392 2.062 . S
O416 C417 1.255 . S
C417 O415 1.256 . S
C417 O416 1.255 . S
H418 C397 0.931 . S
H419 C405 0.931 . S
Co420 N425 2.057 . S
Co420 O437 2.021 . S
Co420 O440 2.062 . S
Co420 O444 2.117 . S
Co420 O445 2.020 . S
C421 O441 1.259 . S
C421 O444 1.258 . S
Co422 N431 2.057 1_655 S
Co422 O438 2.117 . S
Co422 O439 2.020 . S
Co422 O441 2.021 . S
Co422 O446 2.062 . S
C423 N425 1.316 . S
C423 N426 1.347 . S
C423 H428 0.931 . S
C424 N425 1.375 . S
C424 C427 1.350 . S
C424 H429 0.930 . S
N425 Co420 2.057 . S
N425 C423 1.316 . S
N425 C424 1.375 . S
N426 C423 1.347 . S
N426 C427 1.373 . S
C427 C424 1.350 . S
C427 N426 1.373 . S
C427 H448 0.931 . S
H428 C423 0.931 . S
H429 C424 0.930 . S
C430 O437 1.259 . S
C430 O438 1.258 . S
N431 Co422 2.057 1_455 S
N431 C432 1.316 . S
N431 C433 1.375 . S
C432 N431 1.316 . S
C432 N434 1.347 . S
C432 H443 0.931 . S
C433 N431 1.375 . S
C433 C435 1.350 . S
C433 H442 0.930 . S
N434 C432 1.347 . S
N434 C435 1.373 . S
C435 C433 1.350 . S
C435 N434 1.373 . S
C435 H449 0.931 . S
C436 O439 1.256 . S
C436 O440 1.255 . S
O437 Co420 2.021 . S
O437 C430 1.259 . S
O438 Co422 2.117 . S
O438 C430 1.258 . S
O439 Co422 2.020 . S
O439 C436 1.256 . S
O440 Co420 2.062 . S
O440 C436 1.255 . S
O441 C421 1.259 . S
O441 Co422 2.021 . S
H442 C433 0.930 . S
H443 C432 0.931 . S
O444 Co420 2.117 . S
O444 C421 1.258 . S
O445 Co420 2.020 . S
O445 C447 1.256 . S
O446 Co422 2.062 . S
O446 C447 1.255 . S
C447 O445 1.256 . S
C447 O446 1.255 . S
H448 C427 0.931 . S
H449 C435 0.931 . S
Co450 N455 2.057 . S
Co450 O467 2.021 . S
Co450 O470 2.062 . S
Co450 O474 2.117 . S
Co450 O475 2.020 . S
C451 O471 1.259 . S
C451 O474 1.258 . S
Co452 N461 2.057 . S
Co452 O468 2.117 . S
Co452 O469 2.020 . S
Co452 O471 2.021 . S
Co452 O476 2.062 . S
C453 N455 1.316 . S
C453 N456 1.347 . S
C453 H458 0.931 . S
C454 N455 1.375 . S
C454 C457 1.350 . S
C454 H459 0.930 . S
N455 Co450 2.057 . S
N455 C453 1.316 . S
N455 C454 1.375 . S
N456 C453 1.347 . S
N456 C457 1.373 . S
C457 C454 1.350 . S
C457 N456 1.373 . S
C457 H478 0.931 . S
H458 C453 0.931 . S
H459 C454 0.930 . S
C460 O467 1.259 . S
C460 O468 1.258 . S
N461 Co452 2.057 . S
N461 C462 1.316 . S
N461 C463 1.375 . S
C462 N461 1.316 . S
C462 N464 1.347 . S
C462 H473 0.931 . S
C463 N461 1.375 . S
C463 C465 1.350 . S
C463 H472 0.930 . S
N464 C462 1.347 . S
N464 C465 1.373 . S
C465 C463 1.350 . S
C465 N464 1.373 . S
C465 H479 0.931 . S
C466 O469 1.256 1_565 S
C466 O470 1.255 1_565 S
O467 Co450 2.021 . S
O467 C460 1.259 . S
O468 Co452 2.117 . S
O468 C460 1.258 . S
O469 Co452 2.020 . S
O469 C466 1.256 1_545 S
O470 Co450 2.062 . S
O470 C466 1.255 1_545 S
O471 C451 1.259 . S
O471 Co452 2.021 . S
H472 C463 0.930 . S
H473 C462 0.931 . S
O474 Co450 2.117 . S
O474 C451 1.258 . S
O475 Co450 2.020 . S
O475 C477 1.256 . S
O476 Co452 2.062 . S
O476 C477 1.255 . S
C477 O475 1.256 . S
C477 O476 1.255 . S
H478 C457 0.931 . S
H479 C465 0.931 . S
Co480 N485 2.057 1_545 S
Co480 O497 2.021 . S
Co480 O500 2.062 . S
Co480 O504 2.117 . S
Co480 O505 2.020 . S
C481 O501 1.259 . S
C481 O504 1.258 . S
Co482 N491 2.057 . S
Co482 O498 2.117 . S
Co482 O499 2.020 1_655 S
Co482 O501 2.021 . S
Co482 O506 2.062 . S
C483 N485 1.316 . S
C483 N486 1.347 . S
C483 H488 0.931 . S
C484 N485 1.375 . S
C484 C487 1.350 . S
C484 H489 0.930 . S
N485 Co480 2.057 1_565 S
N485 C483 1.316 . S
N485 C484 1.375 . S
N486 C483 1.347 . S
N486 C487 1.373 . S
C487 C484 1.350 . S
C487 N486 1.373 . S
C487 H508 0.931 . S
H488 C483 0.931 . S
H489 C484 0.930 . S
C490 O497 1.259 . S
C490 O498 1.258 . S
N491 Co482 2.057 . S
N491 C492 1.316 . S
N491 C493 1.375 . S
C492 N491 1.316 . S
C492 N494 1.347 . S
C492 H503 0.931 . S
C493 N491 1.375 . S
C493 C495 1.350 . S
C493 H502 0.930 . S
N494 C492 1.347 . S
N494 C495 1.373 . S
C495 C493 1.350 . S
C495 N494 1.373 . S
C495 H509 0.931 1_655 S
C496 O499 1.256 . S
C496 O500 1.255 1_455 S
O497 Co480 2.021 . S
O497 C490 1.259 . S
O498 Co482 2.117 . S
O498 C490 1.258 . S
O499 Co482 2.020 1_455 S
O499 C496 1.256 . S
O500 Co480 2.062 . S
O500 C496 1.255 1_655 S
O501 C481 1.259 . S
O501 Co482 2.021 . S
H502 C493 0.930 . S
H503 C492 0.931 . S
O504 Co480 2.117 . S
O504 C481 1.258 . S
O505 Co480 2.020 . S
O505 C507 1.256 . S
O506 Co482 2.062 . S
O506 C507 1.255 . S
C507 O505 1.256 . S
C507 O506 1.255 . S
H508 C487 0.931 . S
H509 C495 0.931 1_455 S
Co510 N515 2.057 1_655 S
Co510 O527 2.021 . S
Co510 O530 2.062 . S
Co510 O534 2.117 . S
Co510 O535 2.020 . S
C511 O531 1.259 . S
C511 O534 1.258 . S
Co512 N521 2.057 . S
Co512 O528 2.117 . S
Co512 O529 2.020 . S
Co512 O531 2.021 . S
Co512 O536 2.062 . S
C513 N515 1.316 . S
C513 N516 1.347 . S
C513 H518 0.931 . S
C514 N515 1.375 . S
C514 C517 1.350 . S
C514 H519 0.930 . S
N515 Co510 2.057 1_455 S
N515 C513 1.316 . S
N515 C514 1.375 . S
N516 C513 1.347 . S
N516 C517 1.373 . S
C517 C514 1.350 . S
C517 N516 1.373 . S
C517 H538 0.931 . S
H518 C513 0.931 . S
H519 C514 0.930 . S
C520 O527 1.259 . S
C520 O528 1.258 . S
N521 Co512 2.057 . S
N521 C522 1.316 . S
N521 C523 1.375 . S
C522 N521 1.316 . S
C522 N524 1.347 . S
C522 H533 0.931 . S
C523 N521 1.375 . S
C523 C525 1.350 . S
C523 H532 0.930 . S
N524 C522 1.347 . S
N524 C525 1.373 . S
C525 C523 1.350 . S
C525 N524 1.373 . S
C525 H539 0.931 . S
C526 O529 1.256 . S
C526 O530 1.255 . S
O527 Co510 2.021 . S
O527 C520 1.259 . S
O528 Co512 2.117 . S
O528 C520 1.258 . S
O529 Co512 2.020 . S
O529 C526 1.256 . S
O530 Co510 2.062 . S
O530 C526 1.255 . S
O531 C511 1.259 . S
O531 Co512 2.021 . S
H532 C523 0.930 . S
H533 C522 0.931 . S
O534 Co510 2.117 . S
O534 C511 1.258 . S
O535 Co510 2.020 . S
O535 C537 1.256 . S
O536 Co512 2.062 . S
O536 C537 1.255 . S
C537 O535 1.256 . S
C537 O536 1.255 . S
H538 C517 0.931 . S
H539 C525 0.931 . S
N6 C76 0.839 . S
C16 N36 0.839 . S
C46 N66 0.839 . S
N96 C136 0.839 . S
C166 N126 0.839 . S
N156 C106 0.839 . S
C256 N186 0.839 . S
C196 N216 0.839 . S
N246 C226 0.839 . S
C316 N276 0.839 . S
N306 C346 0.839 . S
C286 N336 0.839 . S
N366 C436 0.839 . S
C376 N396 0.839 . S
C406 N426 0.839 . S
C496 N456 0.839 . S
C526 N486 0.839 . S
C466 N516 0.839 . S
C1 C151 1.763 1_554 S
C91 C31 1.763 1_556 S
C121 C61 1.763 1_556 S
C181 C331 1.763 . S
C211 C271 1.763 . S
C301 C241 1.763 . S
C361 C511 1.763 . S
C451 C391 1.763 . S
C481 C421 1.763 . S
C310 C10 3.219 . S
C40 C340 3.219 . S
C280 C70 3.219 . S
C100 C430 3.219 . S
C130 C370 3.219 . S
C400 C160 3.219 . S
C490 C190 3.219 1_655 S
C220 C520 3.219 . S
C250 C460 3.219 1_565 S
C87 N14 2.110 . S
C27 N44 2.110 . S
N74 C57 2.110 . S
C147 N104 2.110 . S
C177 N134 2.110 . S
N164 C117 2.110 . S
C267 N194 2.110 . S
N224 C207 2.110 . S
C237 N254 2.110 . S
N284 C327 2.110 1_655 S
N314 C357 2.110 . S
C297 N344 2.110 1_565 S
N374 C447 2.110 1_565 S
N404 C387 2.110 1_455 S
C417 N434 2.110 . S
N464 C507 2.110 . S
N494 C537 2.110 . S
C477 N524 2.110 . S
