# Generated by pormake.
# Topology bcu-j, (5)-cn, num edge types: 1
# Building blocks:
#     Node 0, Type 0, BuildingBlock: BEQFEK_clean_sbu_0, # of connection points: 5
#     Node 1, Type 0, BuildingBlock: BEQFEK_clean_sbu_0, # of connection points: 5
#     Node 2, Type 0, BuildingBlock: BEQFEK_clean_sbu_0, # of connection points: 5
#     Node 3, Type 0, BuildingBlock: BEQFEK_clean_sbu_0, # of connection points: 5
#     Node 4, Type 0, BuildingBlock: BEQFEK_clean_sbu_0, # of connection points: 5
#     Node 5, Type 0, BuildingBlock: BEQFEK_clean_sbu_0, # of connection points: 5
#     Node 6, Type 0, BuildingBlock: BEQFEK_clean_sbu_0, # of connection points: 5
#     Node 7, Type 0, BuildingBlock: BEQFEK_clean_sbu_0, # of connection points: 5
#     Node 8, Type 0, BuildingBlock: BEQFEK_clean_sbu_0, # of connection points: 5
#     Node 9, Type 0, BuildingBlock: BEQFEK_clean_sbu_0, # of connection points: 5
#     Node 10, Type 0, BuildingBlock: BEQFEK_clean_sbu_0, # of connection points: 5
#     Node 11, Type 0, BuildingBlock: BEQFEK_clean_sbu_0, # of connection points: 5
#     Node 12, Type 0, BuildingBlock: BEQFEK_clean_sbu_0, # of connection points: 5
#     Node 13, Type 0, BuildingBlock: BEQFEK_clean_sbu_0, # of connection points: 5
#     Node 14, Type 0, BuildingBlock: BEQFEK_clean_sbu_0, # of connection points: 5
#     Node 15, Type 0, BuildingBlock: BEQFEK_clean_sbu_0, # of connection points: 5
#     Edge 16, Type (0, 0), BuildingBlock: EZIPEK_clean_linker_0, # of connection points: 2
#     Edge 17, Type (0, 0), BuildingBlock: EZIPEK_clean_linker_0, # of connection points: 2
#     Edge 18, Type (0, 0), BuildingBlock: EZIPEK_clean_linker_0, # of connection points: 2
#     Edge 19, Type (0, 0), BuildingBlock: EZIPEK_clean_linker_0, # of connection points: 2
#     Edge 20, Type (0, 0), BuildingBlock: EZIPEK_clean_linker_0, # of connection points: 2
#     Edge 21, Type (0, 0), BuildingBlock: EZIPEK_clean_linker_0, # of connection points: 2
#     Edge 22, Type (0, 0), BuildingBlock: EZIPEK_clean_linker_0, # of connection points: 2
#     Edge 23, Type (0, 0), BuildingBlock: EZIPEK_clean_linker_0, # of connection points: 2
#     Edge 24, Type (0, 0), BuildingBlock: EZIPEK_clean_linker_0, # of connection points: 2
#     Edge 25, Type (0, 0), BuildingBlock: EZIPEK_clean_linker_0, # of connection points: 2
#     Edge 26, Type (0, 0), BuildingBlock: EZIPEK_clean_linker_0, # of connection points: 2
#     Edge 27, Type (0, 0), BuildingBlock: EZIPEK_clean_linker_0, # of connection points: 2
#     Edge 28, Type (0, 0), BuildingBlock: EZIPEK_clean_linker_0, # of connection points: 2
#     Edge 29, Type (0, 0), BuildingBlock: EZIPEK_clean_linker_0, # of connection points: 2
#     Edge 30, Type (0, 0), BuildingBlock: EZIPEK_clean_linker_0, # of connection points: 2
#     Edge 31, Type (0, 0), BuildingBlock: EZIPEK_clean_linker_0, # of connection points: 2
#     Edge 32, Type (0, 0), BuildingBlock: EZIPEK_clean_linker_0, # of connection points: 2
#     Edge 33, Type (0, 0), BuildingBlock: EZIPEK_clean_linker_0, # of connection points: 2
#     Edge 34, Type (0, 0), BuildingBlock: EZIPEK_clean_linker_0, # of connection points: 2
#     Edge 35, Type (0, 0), BuildingBlock: EZIPEK_clean_linker_0, # of connection points: 2
#     Edge 36, Type (0, 0), BuildingBlock: EZIPEK_clean_linker_0, # of connection points: 2
#     Edge 37, Type (0, 0), BuildingBlock: EZIPEK_clean_linker_0, # of connection points: 2
#     Edge 38, Type (0, 0), BuildingBlock: EZIPEK_clean_linker_0, # of connection points: 2
#     Edge 39, Type (0, 0), BuildingBlock: EZIPEK_clean_linker_0, # of connection points: 2
#     Edge 40, Type (0, 0), BuildingBlock: EZIPEK_clean_linker_0, # of connection points: 2
#     Edge 41, Type (0, 0), BuildingBlock: EZIPEK_clean_linker_0, # of connection points: 2
#     Edge 42, Type (0, 0), BuildingBlock: EZIPEK_clean_linker_0, # of connection points: 2
#     Edge 43, Type (0, 0), BuildingBlock: EZIPEK_clean_linker_0, # of connection points: 2
#     Edge 44, Type (0, 0), BuildingBlock: EZIPEK_clean_linker_0, # of connection points: 2
#     Edge 45, Type (0, 0), BuildingBlock: EZIPEK_clean_linker_0, # of connection points: 2
#     Edge 46, Type (0, 0), BuildingBlock: EZIPEK_clean_linker_0, # of connection points: 2
#     Edge 47, Type (0, 0), BuildingBlock: EZIPEK_clean_linker_0, # of connection points: 2
#     Edge 48, Type (0, 0), BuildingBlock: EZIPEK_clean_linker_0, # of connection points: 2
#     Edge 49, Type (0, 0), BuildingBlock: EZIPEK_clean_linker_0, # of connection points: 2
#     Edge 50, Type (0, 0), BuildingBlock: EZIPEK_clean_linker_0, # of connection points: 2
#     Edge 51, Type (0, 0), BuildingBlock: EZIPEK_clean_linker_0, # of connection points: 2
#     Edge 52, Type (0, 0), BuildingBlock: EZIPEK_clean_linker_0, # of connection points: 2
#     Edge 53, Type (0, 0), BuildingBlock: EZIPEK_clean_linker_0, # of connection points: 2
#     Edge 54, Type (0, 0), BuildingBlock: EZIPEK_clean_linker_0, # of connection points: 2
#     Edge 55, Type (0, 0), BuildingBlock: EZIPEK_clean_linker_0, # of connection points: 2
# Relax obj value: 0.949
# Max RMSD: 0.234
# Mean RMSD: 0.223
data_MOF--net-bcu-j--node1-BEQFEK_clean_sbu_0--edge1-EZIPEK_clean_linker_0
_symmetry_space_group_name_H-M    P1
_symmetry_Int_Tables_number       1
_symmetry_cell_setting            triclinic
loop_
_symmetry_equiv_pos_as_xyz
'x, y, z'
_cell_length_a     32.105542
_cell_length_b     32.540745
_cell_length_c     29.428268
_cell_angle_alpha  90.020774
_cell_angle_beta   89.949634
_cell_angle_gamma 90.566746
loop_
_atom_site_label
_atom_site_type_symbol
_atom_site_fract_x
_atom_site_fract_y
_atom_site_fract_z
_atom_type_partial_charge
Co0 Co 0.01353 0.09951 0.64635 0.0
Co1 Co 0.01321 0.1645 0.56796 0.0
C2 C 0.0917 0.12502 0.61111 0.0
O3 O 0.07397 0.10776 0.64487 0.0
O4 O 0.07104 0.14527 0.58193 0.0
C5 C 0.95938 0.04598 0.69495 0.0
O6 O 0.93195 0.05753 0.66457 0.0
C7 C 0.04528 0.24717 0.55454 0.0
C8 C 0.01362 0.26988 0.49321 0.0
C9 C 0.04158 0.28127 0.52697 0.0
N10 N 0.0206 0.21686 0.53843 0.0
N11 N 1.00171 0.23062 0.50159 0.0
C12 C 0.07291 0.24332 0.59512 0.0
H13 H 0.10539 0.23888 0.58334 0.0
H14 H 0.06333 0.21675 0.61632 0.0
H15 H 0.07233 0.27187 0.61571 0.0
C16 C 0.96677 0.16552 0.69202 0.0
N17 N 0.98435 0.14815 0.65525 0.0
N18 N 0.97855 0.17182 0.61982 0.0
C19 C 0.95422 0.20334 0.63222 0.0
C20 C 0.94735 0.20143 0.67874 0.0
C21 C 0.97488 0.15259 0.73997 0.0
H22 H 0.99282 0.12374 0.74131 0.0
H23 H 0.99276 0.17717 0.75771 0.0
H24 H 0.94485 0.14879 0.75823 0.0
O25 O 1.00117 0.07476 0.58662 0.0
O26 O 0.99236 0.11901 0.52969 0.0
H27 H 0.93631 0.2258 0.56673 0.0
H28 H 0.91412 0.25344 0.61467 0.0
C29 C 0.94215 0.2376 0.60154 0.0
H30 H 0.96812 0.25984 0.60032 0.0
H31 H 0.98037 0.21346 0.48251 0.0
O32 O 0.99668 0.05935 0.69292 0.0
C33 C 0.99407 0.08228 0.5449 0.0
Co34 Co 0.41735 0.0004 0.67758 0.0
Co35 Co 0.36038 0.02218 0.59584 0.0
C36 C 0.40587 0.08431 0.65775 0.0
O37 O 0.41666 0.06023 0.6896 0.0
O38 O 0.38604 0.07111 0.62341 0.0
C39 C 0.47446 0.94166 0.7129 0.0
O40 O 0.46986 0.92328 0.67352 0.0
C41 C 0.28513 0.06632 0.58232 0.0
C42 C 0.26778 0.05565 0.51083 0.0
C43 C 0.25433 0.07371 0.55097 0.0
N44 N 0.31507 0.04409 0.56255 0.0
N45 N 0.30513 0.03851 0.51938 0.0
C46 C 0.28447 0.07803 0.63151 0.0
H47 H 0.31024 0.06339 0.65024 0.0
H48 H 0.25416 0.06927 0.64706 0.0
H49 H 0.28762 0.11189 0.63442 0.0
C50 C 0.34173 0.95782 0.70816 0.0
N51 N 0.3641 0.97683 0.67557 0.0
N52 N 0.34035 0.98362 0.64011 0.0
C53 C 0.30209 0.96791 0.64883 0.0
C54 C 0.30125 0.95229 0.69271 0.0
C55 C 0.35745 0.95048 0.75529 0.0
H56 H 0.37918 0.97552 0.7655 0.0
H57 H 0.33148 0.94784 0.78007 0.0
H58 H 0.3751 0.92134 0.75561 0.0
O59 O 0.44764 0.99691 0.61956 0.0
O60 O 0.40728 0.00227 0.55844 0.0
H61 H 0.27566 0.97455 0.5822 0.0
H62 H 0.24573 0.94276 0.62103 0.0
C63 C 0.2654 0.97088 0.61793 0.0
H64 H 0.24596 -0.00278 0.62827 0.0
H65 H 0.32288 0.02168 0.49636 0.0
O66 O 0.4524 0.97284 0.72226 0.0
C67 C 0.443 -0.00235 0.5767 0.0
Co68 Co 0.53875 0.42944 0.587 0.0
Co69 Co 0.50719 0.34401 0.55325 0.0
C70 C 0.45058 0.41393 0.55703 0.0
O71 O 0.48093 0.4387 0.56421 0.0
O72 O 0.45499 0.37532 0.5615 0.0
C73 C 0.54392 0.51074 0.62506 0.0
O74 O 0.50628 0.51375 0.608 0.0
C75 C 0.46639 0.26827 0.57835 0.0
C76 C 0.48855 0.22308 0.52821 0.0
C77 C 0.46599 0.22675 0.56831 0.0
N78 N 0.48919 0.28816 0.54677 0.0
N79 N 0.50164 0.26113 0.51622 0.0
C80 C 0.44838 0.28825 0.61974 0.0
H81 H 0.46311 0.31861 0.62602 0.0
H82 H 0.45201 0.26819 0.64995 0.0
H83 H 0.4146 0.29308 0.61438 0.0
C84 C 0.55342 0.37997 0.67054 0.0
N85 N 0.54248 0.38483 0.62664 0.0
N86 N 0.54032 0.34868 0.60688 0.0
C87 C 0.55222 0.31998 0.63691 0.0
C88 C 0.55926 0.33838 0.67851 0.0
C89 C 0.55561 0.4139 0.70472 0.0
H90 H 0.58809 0.4257 0.70627 0.0
H91 H 0.53483 0.4394 0.69474 0.0
H92 H 0.547 0.40245 0.73904 0.0
O93 O 0.57171 0.41099 0.53496 0.0
O94 O 0.53108 0.37036 0.49681 0.0
H95 H 0.55727 0.26941 0.59015 0.0
H96 H 0.58493 0.26329 0.64295 0.0
C97 C 0.55603 0.27513 0.62721 0.0
H98 H 0.52968 0.25822 0.64312 0.0
H99 H 0.52087 0.26826 0.48867 0.0
O100 O 0.56378 0.47783 0.61794 0.0
C101 C 0.55215 0.40379 0.4983 0.0
Co102 Co 0.10583 0.52677 0.57878 0.0
Co103 Co 0.17955 0.50312 0.5181 0.0
C104 C 0.12413 0.4392 0.55058 0.0
O105 O 0.09946 0.46721 0.56384 0.0
O106 O 0.16137 0.44786 0.53904 0.0
C107 C 0.02655 0.52751 0.6134 0.0
O108 O 0.02264 0.50383 0.57759 0.0
C109 C 0.26155 0.47111 0.50481 0.0
C110 C 0.28835 0.50758 0.44859 0.0
C111 C 0.29815 0.47889 0.48166 0.0
N112 N 0.23146 0.49484 0.4875 0.0
N113 N 0.2474 0.51607 0.4532 0.0
C114 C 0.25629 0.44433 0.54585 0.0
H115 H 0.24232 0.41453 0.5352 0.0
H116 H 0.23486 0.45888 0.5704 0.0
H117 H 0.28655 0.43828 0.56265 0.0
C118 C 0.17349 0.55165 0.64079 0.0
N119 N 0.15836 0.53959 0.6003 0.0
N120 N 0.18873 0.53758 0.57047 0.0
C121 C 0.22404 0.55061 0.59083 0.0
C122 C 0.21597 0.55838 0.63618 0.0
C123 C 0.14867 0.55149 0.68382 0.0
H124 H 0.12342 0.57439 0.68109 0.0
H125 H 0.13372 0.52087 0.68845 0.0
H126 H 0.16845 0.55891 0.71371 0.0
O127 O 0.09962 0.55885 0.52409 0.0
O128 O 0.13038 0.51672 0.47788 0.0
H129 H 0.28502 0.57741 0.58461 0.0
H130 H 0.28257 0.52311 0.5764 0.0
C131 C 0.26612 0.55218 0.5694 0.0
H132 H 0.26342 0.55749 0.5324 0.0
H133 H 0.23111 0.53809 0.4348 0.0
O134 O 0.06241 0.54231 0.62192 0.0
C135 C 0.09857 0.53811 0.48778 0.0
Co136 Co 0.99712 0.4264 0.85496 0.0
Co137 Co 0.03826 0.35249 0.89978 0.0
C138 C 0.0899 0.39477 0.84193 0.0
O139 O 0.05985 0.42025 0.84203 0.0
O140 O 0.08376 0.35872 0.85721 0.0
C141 C 0.99075 0.46233 0.77138 0.0
O142 O 0.01749 0.4329 0.76369 0.0
C143 C 0.07531 0.27514 0.93022 0.0
C144 C 0.02149 0.24732 0.96581 0.0
C145 C 0.05994 0.23811 0.94714 0.0
N146 N 0.0461 0.30415 0.93598 0.0
N147 N 0.0147 0.28759 0.95882 0.0
C148 C 0.11635 0.28236 0.9073 0.0
H149 H 0.13006 0.31187 0.91927 0.0
H150 H 0.11172 0.28475 0.87011 0.0
H151 H 0.13813 0.25684 0.91431 0.0
C152 C 0.93562 0.36366 0.82489 0.0
N153 N 0.96693 0.37673 0.85207 0.0
N154 N 0.98785 0.3449 0.86633 0.0
C155 C 0.97273 0.31109 0.84553 0.0
C156 C 0.93986 0.32183 0.81752 0.0
C157 C 0.90346 0.39045 0.80364 0.0
H158 H 0.91318 0.42306 0.80332 0.0
H159 H 0.89544 0.37946 0.76901 0.0
H160 H 0.87459 0.38805 0.82427 0.0
O161 O 0.99502 0.44867 0.91573 0.0
O162 O 0.04535 0.4061 0.93493 0.0
H163 H 0.02794 0.27972 0.82876 0.0
H164 H 0.99908 0.25808 0.87598 0.0
C165 C 0.99646 0.2721 0.84203 0.0
H166 H 0.98127 0.24928 0.81928 0.0
H167 H 0.98687 0.3027 0.96568 0.0
O168 O 0.97535 0.46632 0.81076 0.0
C169 C 0.02766 0.44103 0.93832 0.0
Co170 Co 0.06702 0.98517 0.89273 0.0
Co171 Co 0.14988 0.99432 0.94825 0.0
C172 C 0.09295 0.06547 0.92356 0.0
O173 O 0.06838 0.04536 0.89784 0.0
O174 O 0.12278 0.04829 0.94402 0.0
C175 C 0.98354 0.98214 0.85864 0.0
O176 O 0.97572 0.00525 0.89419 0.0
C177 C 0.2248 0.03918 0.932 0.0
C178 C 0.27101 0.01816 0.98187 0.0
C179 C 0.26576 0.04396 0.94477 0.0
N180 N 0.20614 0.01172 0.95967 0.0
N181 N 0.23382 -0.00053 -0.01006 0.0
C182 C 0.20447 0.05921 0.89199 0.0
H183 H 0.22682 0.06254 0.86339 0.0
H184 H 0.19428 0.09043 0.90196 0.0
H185 H 0.17695 0.04138 0.88049 0.0
C186 C 0.12517 0.95297 0.82427 0.0
N187 N 0.11588 0.96513 0.86686 0.0
N188 N 0.1497 0.96483 0.89187 0.0
C189 C 0.18125 0.95063 0.86625 0.0
C190 C 0.16732 0.94412 0.82231 0.0
C191 C 0.09574 0.95578 0.78504 0.0
H192 H 0.07189 0.93107 0.78818 0.0
H193 H 0.07941 0.98568 0.78601 0.0
H194 H 0.11219 0.95228 0.75209 0.0
O195 O 0.0592 0.96296 0.95427 0.0
O196 O 0.11732 0.96451 -0.00369 0.0
H197 H 0.24103 0.92191 0.86406 0.0
H198 H 0.24175 0.97653 0.87004 0.0
C199 C 0.22553 0.94811 0.88107 0.0
H200 H 0.22772 0.94434 0.91838 0.0
H201 H 0.22778 0.97761 0.01508 0.0
O202 O 0.02035 0.96907 0.85339 0.0
C203 C 0.07852 0.95607 -0.00872 0.0
Co204 Co 0.47911 0.10217 0.82733 0.0
Co205 Co 0.47337 0.16137 0.91037 0.0
C206 C 0.39777 0.127 0.85608 0.0
O207 O 0.41873 0.11043 0.82423 0.0
O208 O 0.41627 0.14601 0.88836 0.0
C209 C 0.53746 0.0487 0.79523 0.0
O210 O 0.55892 0.06636 0.82793 0.0
C211 C 0.45111 0.24379 0.93545 0.0
C212 C 0.48675 0.25575 -0.0018 0.0
C213 C 0.4625 0.27449 0.9654 0.0
N214 N 0.46858 0.20852 0.94874 0.0
N215 N 0.48901 0.21553 -0.01295 0.0
C216 C 0.42792 0.24934 0.89185 0.0
H217 H 0.3948 0.25572 0.8997 0.0
H218 H 0.42988 0.22153 0.87034 0.0
H219 H 0.44036 0.27634 0.87305 0.0
C220 C 0.52711 0.17098 0.79037 0.0
N221 N 0.50933 0.15105 0.82549 0.0
N222 N 0.51158 0.1739 0.86214 0.0
C223 C 0.53367 0.20813 0.85186 0.0
C224 C 0.54261 0.20835 0.80583 0.0
C225 C 0.52283 0.1574 0.74202 0.0
H226 H 0.54328 0.13062 0.73614 0.0
H227 H 0.49027 0.14715 0.7357 0.0
H228 H 0.53158 0.18227 0.71792 0.0
O229 O 0.48524 0.07163 0.88379 0.0
O230 O 0.48831 0.11189 0.94449 0.0
H231 H 0.57134 0.25879 0.87436 0.0
H232 H 0.51637 0.26579 0.87835 0.0
C233 C 0.54147 0.24322 0.88315 0.0
H234 H 0.54268 0.23259 0.91883 0.0
H235 H 0.50695 0.19364 0.00374 0.0
O236 O 0.50192 0.06273 0.78436 0.0
C237 C 0.48779 0.07631 0.92635 0.0
Co238 Co 0.44754 0.50969 0.84096 0.0
Co239 Co 0.36613 0.49268 0.89291 0.0
C240 C 0.42497 0.42865 0.8827 0.0
O241 O 0.45268 0.45471 0.87073 0.0
O242 O 0.38672 0.43725 0.87904 0.0
C243 C 0.51589 0.55157 0.79517 0.0
O244 O 0.5131 0.5802 0.82643 0.0
C245 C 0.28394 0.45835 0.88712 0.0
C246 C 0.2477 0.4859 0.94267 0.0
C247 C 0.24415 0.46074 0.90464 0.0
N248 N 0.30991 0.48157 0.91248 0.0
N249 N 0.28818 0.49756 0.94623 0.0
C250 C 0.2963 0.43644 0.84447 0.0
H251 H 0.32431 0.45079 0.82916 0.0
H252 H 0.2705 0.43635 0.81938 0.0
H253 H 0.30363 0.40407 0.85284 0.0
C254 C 0.38607 0.53301 0.76988 0.0
N255 N 0.39675 0.52086 0.81203 0.0
N256 N 0.3641 0.52328 0.8387 0.0
C257 C 0.33212 0.5389 0.81503 0.0
C258 C 0.34463 0.54467 0.7706 0.0
C259 C 0.41388 0.5309 0.7292 0.0
H260 H 0.43707 0.50613 0.73332 0.0
H261 H 0.39544 0.52564 0.6978 0.0
H262 H 0.43065 0.56062 0.7256 0.0
O263 O 0.45073 0.54805 0.89134 0.0
O264 O 0.40984 0.51317 0.93782 0.0
H265 H 0.28965 0.54945 0.87045 0.0
H266 H 0.27597 0.57399 0.81757 0.0
C267 C 0.2892 0.54588 0.83304 0.0
H268 H 0.26865 0.51982 0.82313 0.0
H269 H 0.30047 0.51774 0.97043 0.0
O270 O 0.49298 0.51956 0.79724 0.0
C271 C 0.4433 0.53411 0.9309 0.0
Co272 Co 0.96548 0.91257 0.34783 0.0
Co273 Co 1.00203 0.84784 0.41565 0.0
C274 C 0.91043 0.8598 0.4023 0.0
O275 O 0.91471 0.88287 0.368 0.0
O276 O 0.94164 0.84641 0.42336 0.0
C277 C 0.90576 0.94679 0.29168 0.0
O278 O 0.88404 0.95204 0.32898 0.0
C279 C 0.99212 0.76266 0.42346 0.0
C280 C 0.026 0.7425 0.48437 0.0
C281 C 0.99958 0.72896 0.45 0.0
N282 N 0.01297 0.79516 0.44051 0.0
N283 N 0.03346 0.78304 0.47702 0.0
C284 C 0.96216 0.76409 0.38439 0.0
H285 H 0.92994 0.76011 0.39751 0.0
H286 H 0.96449 0.7934 0.36563 0.0
H287 H 0.96811 0.73838 0.36056 0.0
C288 C 0.02513 0.8727 0.28609 0.0
N289 N 0.00803 0.87766 0.32743 0.0
N290 N 0.0218 0.84884 0.35462 0.0
C291 C 0.04682 0.82377 0.33047 0.0
C292 C 0.04831 0.83722 0.28581 0.0
C293 C 0.01559 0.89828 0.24572 0.0
H294 H 0.9859 0.88694 0.23198 0.0
H295 H 0.0399 0.89503 0.21913 0.0
H296 H 0.01271 0.93103 0.25546 0.0
O297 O 0.98583 0.94393 0.40072 0.0
O298 O 0.0181 0.90002 0.44777 0.0
H299 H 0.0945 0.77794 0.32772 0.0
H300 H 0.04407 0.75939 0.34439 0.0
C301 C 0.06637 0.78539 0.34798 0.0
H302 H 0.07514 0.78901 0.38416 0.0
H303 H 0.05107 0.80253 0.4978 0.0
O304 O 0.9452 0.9458 0.29594 0.0
C305 C 0.00583 0.93629 0.43726 0.0
Co306 Co 0.5575 0.967 0.3832 0.0
Co307 Co 0.63313 0.92613 0.426 0.0
C308 C 0.55662 0.88347 0.43252 0.0
O309 O 0.5393 0.91567 0.41665 0.0
O310 O 0.59601 0.87931 0.4323 0.0
C311 C 0.49087 0.01973 0.35499 0.0
O312 O 0.49482 0.03853 0.39421 0.0
C313 C 0.70686 0.87917 0.45224 0.0
C314 C 0.75414 0.92891 0.4482 0.0
C315 C 0.74948 0.8867 0.45219 0.0
N316 N 0.68763 0.91527 0.44604 0.0
N317 N 0.71595 0.94493 0.44511 0.0
C318 C 0.68451 0.8389 0.4576 0.0
H319 H 0.6615 0.84137 0.48561 0.0
H320 H 0.66683 0.83179 0.42613 0.0
H321 H 0.70657 0.81374 0.46509 0.0
C322 C 0.61225 0.96579 0.30083 0.0
N323 N 0.60398 0.95888 0.34523 0.0
N324 N 0.63601 0.94082 0.36392 0.0
C325 C 0.66496 0.93405 0.33174 0.0
C326 C 0.6512 0.94985 0.29093 0.0
C327 C 0.58376 0.98755 0.26898 0.0
H328 H 0.57908 0.0194 0.28132 0.0
H329 H 0.55292 0.97199 0.26887 0.0
H330 H 0.59661 0.98838 0.23396 0.0
O331 O 0.5698 0.00859 0.42833 0.0
O332 O 0.60825 0.96689 0.46842 0.0
H333 H 0.72785 0.9288 0.35437 0.0
H334 H 0.71561 0.89748 0.30572 0.0
C335 C 0.70341 0.90934 0.33844 0.0
H336 H 0.69597 0.88307 0.36081 0.0
H337 H 0.70931 0.97576 0.439 0.0
O338 O 0.51228 0.98808 0.34616 0.0
C339 C 0.58467 -0.00199 0.46632 0.0
Co340 Co 0.49515 0.57078 0.36227 0.0
Co341 Co 0.48989 0.63534 0.43773 0.0
C342 C 0.56931 0.59517 0.42015 0.0
O343 O 0.54984 0.57014 0.39416 0.0
O344 O 0.55139 0.62724 0.43492 0.0
C345 C 0.46525 0.51305 0.29707 0.0
O346 O 0.43086 0.51323 0.32122 0.0
C347 C 0.50184 0.71352 0.47946 0.0
C348 C 0.44404 0.72311 0.51866 0.0
C349 C 0.4799 0.74278 0.50335 0.0
N350 N 0.47951 0.67861 0.47909 0.0
N351 N 0.44553 0.68392 0.50373 0.0
C352 C 0.54083 0.72002 0.45209 0.0
H353 H 0.56753 0.70727 0.4712 0.0
H354 H 0.53858 0.7034 0.41928 0.0
H355 H 0.54719 0.75301 0.44534 0.0
C356 C 0.47812 0.64384 0.30511 0.0
N357 N 0.4795 0.62414 0.34538 0.0
N358 N 0.47066 0.65 0.37821 0.0
C359 C 0.46155 0.6867 0.35936 0.0
C360 C 0.46713 0.68442 0.3128 0.0
C361 C 0.49204 0.62541 0.26116 0.0
H362 H 0.46982 0.6007 0.25121 0.0
H363 H 0.52301 0.61113 0.26576 0.0
H364 H 0.49365 0.64874 0.23368 0.0
O365 O 0.45422 0.54721 0.40337 0.0
O366 O 0.47081 0.58195 0.46383 0.0
H367 H 0.4347 0.71677 0.41704 0.0
H368 H 0.4292 0.74391 0.36405 0.0
C369 C 0.45041 0.72473 0.38473 0.0
H370 H 0.47889 0.74332 0.39106 0.0
H371 H 0.42192 0.6619 0.50739 0.0
O372 O 0.49643 0.53499 0.30872 0.0
C373 C 0.46152 0.54773 0.44559 0.0
Co374 Co 0.93039 0.49002 0.37723 0.0
Co375 Co 0.85255 0.51463 0.43186 0.0
C376 C 0.91143 0.57747 0.40948 0.0
O377 O 0.93554 0.54867 0.39705 0.0
O378 O 0.87279 0.57059 0.41616 0.0
C379 C 0.01105 0.49495 0.34523 0.0
O380 O 0.01277 0.51816 0.38154 0.0
C381 C 0.76879 0.54576 0.44807 0.0
C382 C 0.74382 0.50577 0.50231 0.0
C383 C 0.73303 0.53718 0.4729 0.0
N384 N 0.79931 0.52054 0.46173 0.0
N385 N 0.78433 0.4971 0.49476 0.0
C386 C 0.77342 0.57647 0.41047 0.0
H387 H 0.78583 0.60563 0.42488 0.0
H388 H 0.79592 0.56542 0.3847 0.0
H389 H 0.74304 0.58287 0.39414 0.0
C390 C 0.86817 0.4665 0.30865 0.0
N391 N 0.87957 0.47932 0.35032 0.0
N392 N 0.84649 0.4837 0.37612 0.0
C393 C 0.8129 0.47237 0.35155 0.0
C394 C 0.82525 0.46207 0.308 0.0
C395 C 0.89747 0.46262 0.2694 0.0
H396 H 0.92055 0.43842 0.27702 0.0
H397 H 0.91491 0.49197 0.2649 0.0
H398 H 0.88067 0.45469 0.23758 0.0
O399 O 0.93226 0.45518 0.43015 0.0
O400 O 0.89989 0.49804 0.47402 0.0
H401 H 0.74969 0.45049 0.34927 0.0
H402 H 0.75614 0.50411 0.3615 0.0
C403 C 0.76916 0.47328 0.36793 0.0
H404 H 0.76841 0.46605 0.40465 0.0
H405 H 0.80114 0.47392 0.5107 0.0
O406 O 0.97661 0.47737 0.33611 0.0
C407 C 0.93171 0.47582 0.46653 0.0
Co408 Co 0.05088 0.60942 0.10593 0.0
Co409 Co 0.02998 0.66155 0.01939 0.0
C410 C 0.96474 0.61179 0.06491 0.0
O411 O 0.98945 0.59988 0.09597 0.0
O412 O 0.97658 0.63616 0.03384 0.0
C413 C 0.04548 0.55072 0.1749 0.0
O414 O 0.01758 0.53505 0.14708 0.0
C415 C 0.98093 0.70365 0.95198 0.0
C416 C 0.00935 0.7653 0.95499 0.0
C417 C 0.97268 0.74486 0.94363 0.0
N418 N 0.01859 0.70071 0.97181 0.0
N419 N 0.03656 0.73736 0.97053 0.0
C420 C 0.95349 0.66745 0.94058 0.0
H421 H 0.93419 0.67441 0.91031 0.0
H422 H 0.97292 0.64006 0.93391 0.0
H423 H 0.93213 0.65975 0.96887 0.0
C424 C 0.07937 0.68924 0.14 0.0
N425 N 0.06641 0.66545 0.10531 0.0
N426 N 0.05051 0.68871 0.07327 0.0
C427 C 0.04846 0.72762 0.0894 0.0
C428 C 0.06748 0.72914 0.13179 0.0
C429 C 0.09745 0.67394 0.18353 0.0
H430 H 0.11042 0.64277 0.17944 0.0
H431 H 0.07318 0.67422 0.21028 0.0
H432 H 0.12261 0.69522 0.19487 0.0
O433 O 0.07933 0.57992 0.05998 0.0
O434 O 0.06563 0.61481 -0.0027 0.0
H435 H 0.03908 0.78217 0.05077 0.0
H436 H 0.00534 0.77748 0.09873 0.0
C437 C 0.02034 0.75997 0.07089 0.0
H438 H 0.99573 0.74594 0.04942 0.0
H439 H 0.06525 0.74426 0.98547 0.0
O440 O 0.06544 0.58288 0.16333 0.0
C441 C 0.08215 0.58408 0.01737 0.0
Co442 Co 0.85891 0.85075 0.09021 0.0
Co443 Co 0.83987 0.92885 0.03323 0.0
C444 C 0.84648 0.84104 -0.0057 0.0
O445 O 0.84529 0.82432 0.03334 0.0
O446 O 0.84577 0.88004 -0.00935 0.0
C447 C 0.88059 0.80944 0.17723 0.0
O448 O 0.8891 0.77584 0.19993 0.0
C449 C 0.76277 0.95599 0.00038 0.0
C450 C 0.76834 0.02324 -0.00491 0.0
C451 C 0.73926 0.99127 -0.00404 0.0
N452 N 0.80321 0.9664 0.00358 0.0
N453 N 0.80667 0.00668 -0.00113 0.0
C454 C 0.7462 0.91375 0.01074 0.0
H455 H 0.77145 0.89246 0.02 0.0
H456 H 0.72328 0.91518 0.03889 0.0
H457 H 0.72988 0.90132 0.98043 0.0
C458 C 0.78557 0.88065 0.1423 0.0
N459 N 0.81494 0.88308 0.10965 0.0
N460 N 0.81452 0.91981 0.09159 0.0
C461 C 0.78824 0.94341 0.11565 0.0
C462 C 0.76807 0.91917 0.14776 0.0
C463 C 0.77068 0.84148 0.16348 0.0
H464 H 0.79465 0.81742 0.16097 0.0
H465 H 0.74294 0.83022 0.14461 0.0
H466 H 0.76089 0.84679 0.19914 0.0
O467 O 0.91009 0.88543 0.07688 0.0
O468 O 0.89807 0.94506 0.04197 0.0
H469 H 0.77855 0.00492 0.14097 0.0
H470 H 0.75491 0.99295 0.08829 0.0
C471 C 0.78312 0.98842 0.10849 0.0
H472 H 0.81049 0.00158 0.09046 0.0
H473 H 0.83441 0.02321 0.00315 0.0
O474 O 0.87265 0.80671 0.13494 0.0
C475 C 0.92314 0.91921 0.05945 0.0
Co476 Co 0.51295 0.93346 0.13239 0.0
Co477 Co 0.5353 0.8633 0.06536 0.0
C478 C 0.5943 0.93037 0.07808 0.0
O479 O 0.56749 0.94906 0.10236 0.0
O480 O 0.5895 0.89255 0.06765 0.0
C481 C 0.5049 0.00918 0.18706 0.0
O482 O 0.53922 0.02338 0.16821 0.0
C483 C 0.56974 0.78413 0.04145 0.0
C484 C 0.52577 0.7599 -0.00981 0.0
C485 C 0.5596 0.74922 0.0168 0.0
N486 N 0.54252 0.81379 0.03112 0.0
N487 N 0.51687 0.79947 -0.00041 0.0
C488 C 0.60291 0.78829 0.07694 0.0
H489 H 0.59507 0.81292 0.10149 0.0
H490 H 0.60747 0.75876 0.09507 0.0
H491 H 0.63272 0.79667 0.06006 0.0
C492 C 0.50023 0.86398 0.19577 0.0
N493 N 0.51114 0.8798 0.15504 0.0
N494 N 0.51519 0.84993 0.12536 0.0
C495 C 0.50584 0.81411 0.14636 0.0
C496 C 0.49686 0.82167 0.19154 0.0
C497 C 0.49179 0.88905 0.23727 0.0
H498 H 0.46296 0.90696 0.23202 0.0
H499 H 0.51779 0.91119 0.24257 0.0
H500 H 0.48798 0.86933 0.26781 0.0
O501 O 0.46975 0.93788 0.08559 0.0
O502 O 0.50287 0.90545 0.03099 0.0
H503 H 0.49188 0.7775 0.08822 0.0
H504 H 0.48039 0.75271 0.14151 0.0
C505 C 0.50262 0.77337 0.12359 0.0
H506 H 0.53347 0.7585 0.12427 0.0
H507 H 0.49173 0.8158 -0.0134 0.0
O508 O 0.49376 0.97227 0.1793 0.0
C509 C 0.47937 0.93444 0.04408 0.0
Co510 Co 0.60287 0.50393 0.09613 0.0
Co511 Co 0.68068 0.52496 0.04094 0.0
C512 C 0.62495 0.58973 0.06538 0.0
O513 O 0.59846 0.56248 0.07739 0.0
O514 O 0.66285 0.58044 0.05941 0.0
C515 C 0.53371 0.46171 0.13903 0.0
O516 O 0.53586 0.43393 0.10677 0.0
C517 C 0.7641 0.55592 0.03794 0.0
C518 C 0.79201 0.52954 0.97612 0.0
C519 C 0.80129 0.55284 0.01449 0.0
N520 N 0.73449 0.53473 0.01542 0.0
N521 N 0.75111 0.51945 0.97803 0.0
C522 C 0.75735 0.57645 0.08298 0.0
H523 H 0.73162 0.56137 0.10186 0.0
H524 H 0.78613 0.57617 0.10383 0.0
H525 H 0.74841 0.60887 0.07722 0.0
C526 C 0.66614 0.47431 0.16114 0.0
N527 N 0.6542 0.48883 0.12042 0.0
N528 N 0.68645 0.49061 0.09307 0.0
C529 C 0.71978 0.47545 0.11512 0.0
C530 C 0.70838 0.46594 0.15926 0.0
C531 C 0.63855 0.47244 0.20206 0.0
H532 H 0.62162 0.50184 0.20569 0.0
H533 H 0.65657 0.46611 0.23342 0.0
H534 H 0.61503 0.44766 0.19717 0.0
O535 O 0.59331 0.47179 0.04189 0.0
O536 O 0.6341 0.50875 -0.00252 0.0
H537 H 0.76161 0.46962 0.05823 0.0
H538 H 0.77715 0.44277 0.10902 0.0
C539 C 0.76264 0.47119 0.09579 0.0
H540 H 0.78254 0.49727 0.10704 0.0
H541 H 0.73506 0.50092 0.95484 0.0
O542 O 0.55856 0.49227 0.13973 0.0
C543 C 0.60064 0.48769 0.00331 0.0
C544 C 0.96585 0.97956 0.73596 0.0
C545 C 0.94735 0.01882 0.73292 0.0
C546 C 0.927 0.01477 0.81281 0.0
C547 C 0.95594 0.98275 0.81795 0.0
N548 N 0.98273 0.9214 0.7845 0.0
N549 N 0.90339 0.07091 0.76549 0.0
C550 C 0.96831 0.96039 0.77916 0.0
C551 C 0.92456 0.03498 0.77013 0.0
N552 N 0.98305 0.96224 0.69815 0.0
N553 N 0.9019 0.02498 0.84838 0.0
H554 H 0.89997 0.08563 0.73428 0.0
H555 H 0.89044 0.08681 0.79268 0.0
H556 H 0.90174 0.00788 0.87841 0.0
H557 H 0.87833 0.04664 0.84633 0.0
H558 H 1.00085 0.93569 0.69867 0.0
H559 H 0.97983 0.97525 0.66592 0.0
H560 H 0.99078 0.90217 0.75771 0.0
H561 H 0.98314 0.90739 0.81645 0.0
C562 C 0.51043 0.94025 0.78509 0.0
C563 C 0.51411 0.93891 0.73748 0.0
C564 C 0.55987 -0.00166 0.73729 0.0
C565 C 0.54657 0.00624 0.78211 0.0
N566 N 0.5253 0.97845 0.85444 0.0
N567 N 0.56112 0.94882 0.67541 0.0
C568 C 0.52816 0.97436 0.80841 0.0
C569 C 0.54663 0.96121 0.71656 0.0
N570 N 0.48532 0.91203 0.80598 0.0
N571 N 0.58184 0.02756 0.71396 0.0
H572 H 0.55004 0.92172 0.66045 0.0
H573 H 0.58608 0.96313 0.65899 0.0
H574 H 0.59216 0.05459 0.72967 0.0
H575 H 0.58864 0.02535 0.67943 0.0
H576 H 0.47763 0.91268 0.84033 0.0
H577 H 0.47188 0.88791 0.78744 0.0
H578 H 0.51271 0.95608 0.8758 0.0
H579 H 0.53862 0.00345 0.87143 0.0
C580 C 0.57303 0.53108 0.7432 0.0
C581 C 0.54014 0.55827 0.75319 0.0
C582 C 0.53218 0.5735 0.6724 0.0
C583 C 0.55656 0.5386 0.66305 0.0
N584 N 0.61911 0.50403 0.68512 0.0
N585 N 0.49631 0.61403 0.72958 0.0
C586 C 0.5836 0.52395 0.69711 0.0
C587 C 0.52314 0.5833 0.71846 0.0
N588 N 0.59209 0.51039 0.77761 0.0
N589 N 0.5179 0.59643 0.63699 0.0
H590 H 0.49037 0.62233 0.76315 0.0
H591 H 0.47986 0.63126 0.70601 0.0
H592 H 0.52684 0.59001 0.60364 0.0
H593 H 0.50047 0.62301 0.64044 0.0
H594 H 0.61289 0.48651 0.77226 0.0
H595 H 0.58574 0.51667 0.81172 0.0
H596 H 0.64132 0.49444 0.7085 0.0
H597 H 0.62831 0.50162 0.65119 0.0
C598 C 0.96288 0.47097 0.69349 0.0
C599 C 0.9791 0.48935 0.7335 0.0
C600 C 1.00177 0.5493 0.68996 0.0
C601 C 0.99494 0.52589 0.65018 0.0
N602 N 0.94656 0.4797 0.61382 0.0
N603 N 1.00297 0.55025 0.77265 0.0
C604 C 0.96749 0.49189 0.65185 0.0
C605 C 0.99388 0.5306 0.73283 0.0
N606 N 0.946 0.43238 0.69489 0.0
N607 N 0.01658 0.58858 0.68589 0.0
H608 H 0.9955 0.53762 0.80416 0.0
H609 H 0.01688 0.57917 0.77483 0.0
H610 H 0.02052 0.60217 0.65399 0.0
H611 H 0.02244 0.60823 0.71305 0.0
H612 H 0.93866 0.41525 0.66603 0.0
H613 H 0.94129 0.41691 0.72536 0.0
H614 H 0.92407 0.45641 0.61367 0.0
H615 H 0.94833 0.4965 0.58379 0.0
C616 C 0.91188 0.91789 0.21331 0.0
C617 C 0.88757 0.92237 0.25304 0.0
C618 C 0.85222 0.85693 0.23696 0.0
C619 C 0.88092 0.84964 0.20109 0.0
N620 N 0.94233 0.87028 0.15959 0.0
N621 N 0.82123 0.90681 0.28775 0.0
C622 C 0.91124 0.87982 0.18948 0.0
C623 C 0.85342 0.89519 0.26038 0.0
N624 N 0.93646 0.94998 0.19955 0.0
N625 N 0.82494 0.82665 0.24996 0.0
H626 H 0.81891 0.93646 0.3008 0.0
H627 H 0.79395 0.88973 0.29198 0.0
H628 H 0.82244 0.79833 0.2336 0.0
H629 H 0.80547 0.82888 0.278 0.0
H630 H 0.95485 0.94941 0.17054 0.0
H631 H 0.93582 0.97842 0.21599 0.0
H632 H 0.96767 0.88944 0.15257 0.0
H633 H 0.94458 0.8417 0.14377 0.0
C634 C 0.4977 0.06955 0.29309 0.0
C635 C 0.47222 0.04032 0.31578 0.0
C636 C 0.44691 0.01467 0.24343 0.0
C637 C 0.4829 0.03239 0.22333 0.0
N638 N 0.52437 0.09421 0.22039 0.0
N639 N 0.41357 0.99455 0.31435 0.0
C640 C 0.5024 0.06606 0.24526 0.0
C641 C 0.44255 0.0172 0.2912 0.0
N642 N 0.51999 0.0975 0.31789 0.0
N643 N 0.41801 0.99538 0.21679 0.0
H644 H 0.41069 0.99704 0.34963 0.0
H645 H 0.39353 0.97331 0.29916 0.0
H646 H 0.42055 0.99556 0.18139 0.0
H647 H 0.3902 0.98301 0.22911 0.0
H648 H 0.5428 0.11685 0.30435 0.0
H649 H 0.51513 0.10106 0.35273 0.0
H650 H 0.53862 0.12023 0.23414 0.0
H651 H 0.52428 0.09355 0.18493 0.0
C652 C 0.49617 0.45358 0.25707 0.0
C653 C 0.46865 0.48732 0.25625 0.0
C654 C 0.46917 0.48796 0.1734 0.0
C655 C 0.50194 0.4593 0.17479 0.0
N656 N 0.53788 0.40542 0.21344 0.0
N657 N 0.41957 0.52908 0.21581 0.0
C658 C 0.51203 0.43846 0.21532 0.0
C659 C 0.45143 0.50154 0.21492 0.0
N660 N 0.50838 0.43777 0.29794 0.0
N661 N 0.45729 0.50368 0.13239 0.0
H662 H 0.40648 0.53953 0.24607 0.0
H663 H 0.4044 0.53992 0.18709 0.0
H664 H 0.46926 0.49254 0.10179 0.0
H665 H 0.43607 0.5273 0.12825 0.0
H666 H 0.53104 0.41544 0.3018 0.0
H667 H 0.49551 0.44751 0.32867 0.0
H668 H 0.54596 0.38759 0.24132 0.0
H669 H 0.54929 0.39426 0.18263 0.0
C670 C 0.05882 0.54043 0.30255 0.0
C671 C 0.04183 0.50076 0.30818 0.0
C672 C 0.04938 0.48959 0.22662 0.0
C673 C 0.05067 0.53297 0.22079 0.0
N674 N 0.05087 0.60042 0.25649 0.0
N675 N 0.03107 0.43325 0.27737 0.0
C676 C 0.0551 0.55885 0.25951 0.0
C677 C 0.04115 0.4736 0.27068 0.0
N678 N 0.07606 0.56097 0.33836 0.0
N679 N 0.05634 0.46414 0.19055 0.0
H680 H 0.02781 0.42106 0.31005 0.0
H681 H 0.02513 0.41263 0.25104 0.0
H682 H 0.06448 0.47527 0.15846 0.0
H683 H 0.05828 0.43233 0.19352 0.0
H684 H 0.09025 0.58978 0.33488 0.0
H685 H 0.081 0.54655 0.36955 0.0
H686 H 0.05286 0.61976 0.28464 0.0
H687 H 0.03929 0.6148 0.22767 0.0
C688 C 0.03141 0.00736 0.45434 0.0
C689 C 0.01069 0.97109 0.46919 0.0
C690 C 0.97317 0.01061 0.52633 0.0
C691 C 0.99589 0.04646 0.51396 0.0
N692 N 0.05572 0.07544 0.47439 0.0
N693 N 0.97263 0.93647 0.5289 0.0
C694 C 0.02752 0.04408 0.48008 0.0
C695 C 0.98505 0.97211 0.50832 0.0
N696 N 0.05495 0.00665 0.41566 0.0
N697 N 0.93958 0.0135 0.55467 0.0
H698 H 0.98228 0.90767 0.51793 0.0
H699 H 0.95679 0.93578 0.55982 0.0
H700 H 0.92913 0.04159 0.56722 0.0
H701 H 0.91966 0.98881 0.56164 0.0
H702 H 0.06643 0.03318 0.40001 0.0
H703 H 0.06131 0.97953 0.39813 0.0
H704 H 0.082 0.07297 0.4538 0.0
H705 H 0.05554 0.10246 0.49331 0.0
C706 C 0.5535 0.97853 0.54035 0.0
C707 C 0.56004 0.00941 0.50741 0.0
C708 C 0.49255 0.03881 0.52804 0.0
C709 C 0.48171 0.00091 0.54964 0.0
N710 N 0.50219 0.93334 0.57429 0.0
N711 N 0.54092 0.07536 0.47827 0.0
C712 C 0.51245 0.97042 0.55551 0.0
C713 C 0.53122 0.04198 0.50442 0.0
N714 N 0.58654 0.95755 0.55734 0.0
N715 N 0.46698 0.07201 0.5317 0.0
H716 H 0.57063 0.07934 0.46434 0.0
H717 H 0.51976 0.09812 0.4697 0.0
H718 H 0.43861 0.07114 0.54887 0.0
H719 H 0.47523 0.1014 0.52076 0.0
H720 H 0.58367 0.93538 0.58268 0.0
H721 H 0.61716 0.96596 0.54939 0.0
H722 H 0.52305 0.90913 0.57657 0.0
H723 H 0.47169 0.92558 0.58338 0.0
C724 C 0.54699 0.4803 0.48902 0.0
C725 C 0.53435 0.44065 0.47439 0.0
C726 C 0.46981 0.47061 0.44497 0.0
C727 C 0.48033 0.5093 0.46496 0.0
N728 N 0.52635 0.5455 0.51765 0.0
N729 N 0.49025 0.40249 0.4228 0.0
C730 C 0.51791 0.5124 0.49063 0.0
C731 C 0.49775 0.43716 0.44763 0.0
N732 N 0.58706 0.48854 0.50142 0.0
N733 N 0.43262 0.46437 0.42379 0.0
H734 H 0.51244 0.37948 0.4192 0.0
H735 H 0.46365 0.39875 0.40278 0.0
H736 H 0.40879 0.48599 0.42318 0.0
H737 H 0.40879 0.48599 0.42318 0.0
H738 H 0.61126 0.46769 0.49743 0.0
H739 H 0.61126 0.46769 0.49743 0.0
H740 H 0.55464 0.54883 0.53481 0.0
H741 H 0.50341 0.56551 0.52882 0.0
C742 C 0.98175 0.53211 0.49329 0.0
C743 C 0.97394 0.49007 0.48276 0.0
C744 C 0.04795 0.48176 0.4635 0.0
C745 C 0.05582 0.52381 0.47363 0.0
N746 N 0.02758 0.59121 0.48411 0.0
N747 N 1.00289 0.4226 0.4752 0.0
C748 C 0.02173 0.54959 0.48418 0.0
C749 C 0.00828 0.46424 0.47354 0.0
N750 N 0.95275 0.55435 0.51634 0.0
N751 N 0.07628 0.4597 0.43929 0.0
H752 H 0.97441 0.40917 0.48431 0.0
H753 H 0.02751 0.40206 0.47286 0.0
H754 H 0.10238 0.47325 0.42425 0.0
H755 H 0.07027 0.43003 0.42753 0.0
H756 H 0.959 0.58334 0.52983 0.0
H757 H 0.92506 0.54166 0.52857 0.0
H758 H 1.0036 0.61204 0.48879 0.0
H759 H 0.05585 0.60477 0.47446 0.0
C760 C 0.06189 0.51095 0.92655 0.0
C761 C 0.05294 0.47633 0.95554 0.0
C762 C 0.09475 0.50877 0.0151 0.0
C763 C 0.0924 0.54635 -0.0088 0.0
N764 N 0.09701 0.57754 0.91836 0.0
N765 N 0.06326 0.44194 0.02754 0.0
C766 C 0.08355 0.5455 0.94468 0.0
C767 C 0.07108 0.47458 -0.0005 0.0
N768 N 0.04891 0.51154 0.88241 0.0
N769 N 0.11957 0.50636 0.05256 0.0
H770 H 0.04487 0.41679 0.01807 0.0
H771 H 0.07222 0.44135 0.06154 0.0
H772 H 0.13824 0.53122 0.06264 0.0
H773 H 0.12505 0.47909 0.07 0.0
H774 H 0.05016 0.53745 0.8618 0.0
H775 H 0.03605 0.48643 0.86586 0.0
H776 H 0.09468 0.57862 0.88314 0.0
H777 H 0.11464 0.6016 0.93227 0.0
C778 C 0.03525 0.90101 0.0223 0.0
C779 C 0.05229 0.94046 0.02879 0.0
C780 C 0.98876 0.96202 0.0682 0.0
C781 C 0.9688 0.92515 0.05333 0.0
N782 N 0.97254 0.8609 0.01148 0.0
N783 N 0.05099 0.00579 0.06562 0.0
C784 C 0.99214 0.89434 0.03026 0.0
C785 C 0.03097 0.96981 0.05523 0.0
N786 N 0.06031 0.87085 0.00576 0.0
N787 N 0.96701 0.98968 0.09364 0.0
H788 H 0.08248 0.01029 0.05799 0.0
H789 H 0.03732 0.03069 0.08174 0.0
H790 H 0.93604 0.98492 0.10314 0.0
H791 H 0.97967 0.01649 0.10724 0.0
H792 H 0.05108 0.84025 0.00254 0.0
H793 H 0.09189 0.87635 -0.00071 0.0
H794 H 0.9874 0.8403 -0.00993 0.0
H795 H 0.94055 0.85565 0.0128 0.0
C796 C 0.45478 0.00801 0.94713 0.0
C797 C 0.48561 0.03917 0.95504 0.0
C798 C 0.50377 0.00636 0.0258 0.0
C799 C 0.47776 0.97183 0.01514 0.0
N800 N 0.43346 0.93736 0.96083 0.0
N801 N 0.54787 0.0598 -0.00509 0.0
C802 C 0.45512 0.97167 0.97396 0.0
C803 C 0.51286 0.03569 -0.00794 0.0
N804 N 0.42359 0.01395 0.91634 0.0
N805 N 0.51819 0.01301 0.06861 0.0
H806 H 0.55634 0.08091 0.96979 0.0
H807 H 0.57075 0.05521 0.0195 0.0
H808 H 0.5085 0.99562 0.09599 0.0
H809 H 0.53468 0.03949 0.07785 0.0
H810 H 0.39875 0.99345 0.91244 0.0
H811 H 0.4197 0.04124 0.89844 0.0
H812 H 0.4202 0.93423 0.92867 0.0
H813 H 0.43124 0.91104 0.98098 0.0
C814 C 0.48665 0.48772 0.98047 0.0
C815 C 0.4814 0.52647 0.95921 0.0
C816 C 0.55757 0.53434 0.95371 0.0
C817 C 0.56275 0.49545 0.97472 0.0
N818 N 0.53207 0.42966 -0.00795 0.0
N819 N 0.51187 0.5921 0.94105 0.0
C820 C 0.52705 0.47043 0.98287 0.0
C821 C 0.51706 0.55146 0.95077 0.0
N822 N 0.45386 0.46905 0.00191 0.0
N823 N 0.59062 0.55338 0.93312 0.0
H824 H 0.4824 0.60542 0.9406 0.0
H825 H 0.53652 0.61309 0.93878 0.0
H826 H 0.61905 0.53879 0.92836 0.0
H827 H 0.58807 0.58054 0.91467 0.0
H828 H 0.45664 0.44201 0.02057 0.0
H829 H 0.42565 0.48389 0.0072 0.0
H830 H 0.50727 0.4089 -0.00531 0.0
H831 H 0.56144 0.41611 -0.00822 0.0
C832 C 0.90381 0.23804 0.73712 0.0
C833 C 0.93969 0.23708 0.70896 0.0
C834 C 0.96267 0.30312 0.73969 0.0
C835 C 0.93169 0.30009 0.77391 0.0
N836 N 0.87175 0.26583 0.80538 0.0
N837 N 0.00781 0.26501 0.69049 0.0
C838 C 0.90143 0.26817 0.77223 0.0
C839 C 0.97005 0.26896 0.71149 0.0
N840 N 0.87245 0.21002 0.73046 0.0
N841 N 0.98658 0.33782 0.73557 0.0
H842 H 0.01636 0.23896 0.67245 0.0
H843 H 0.0326 0.28543 0.6954 0.0
H844 H 0.98335 0.36305 0.75677 0.0
H845 H 0.00655 0.34311 0.70819 0.0
H846 H 0.84399 0.21102 0.74737 0.0
H847 H 0.87387 0.18738 0.70538 0.0
H848 H 0.85157 0.24087 0.80946 0.0
H849 H 0.86848 0.28873 0.82997 0.0
C850 C 0.24408 0.91135 0.73073 0.0
C851 C 0.26355 0.94983 0.72195 0.0
C852 C 0.21081 0.98456 0.76783 0.0
C853 C 0.19506 0.94575 0.78192 0.0
N854 N 0.1965 0.87195 0.77855 0.0
N855 N 0.26884 0.02288 0.73661 0.0
C856 C 0.21138 0.909 0.7635 0.0
C857 C 0.24764 0.98645 0.7414 0.0
N858 N 0.25677 0.87727 0.70761 0.0
N859 N 0.19056 0.01975 0.77974 0.0
H860 H 0.29594 0.02611 0.71751 0.0
H861 H 0.26175 0.0493 0.75492 0.0
H862 H 0.16379 0.01997 0.7997 0.0
H863 H 0.19792 0.04852 0.76629 0.0
H864 H 0.24142 0.84899 0.70917 0.0
H865 H 0.28115 0.87806 0.68414 0.0
H866 H 0.21009 0.84393 0.77064 0.0
H867 H 0.17132 0.86945 0.80088 0.0
C868 C 0.51211 0.26963 0.76711 0.0
C869 C 0.54788 0.24623 0.77827 0.0
C870 C 0.59265 0.2956 0.7379 0.0
C871 C 0.55656 0.31549 0.7219 0.0
N872 N 0.48225 0.32494 0.72303 0.0
N873 N 0.6221 0.2367 0.77692 0.0
C874 C 0.51645 0.30417 0.73806 0.0
C875 C 0.58829 0.2595 0.76493 0.0
N876 N 0.47391 0.25851 0.784 0.0
N877 N 0.63084 0.31141 0.72655 0.0
H878 H 0.61977 0.21057 0.79733 0.0
H879 H 0.65226 0.2424 0.76549 0.0
H880 H 0.63406 0.33819 0.70725 0.0
H881 H 0.65898 0.30025 0.73858 0.0
H882 H 0.44763 0.27688 0.7825 0.0
H883 H 0.46838 0.23128 0.80159 0.0
H884 H 0.45162 0.31521 0.72782 0.0
H885 H 0.48433 0.35195 0.70419 0.0
C886 C 0.26206 0.5155 0.6847 0.0
C887 C 0.2478 0.55514 0.67224 0.0
C888 C 0.30307 0.58765 0.71741 0.0
C889 C 0.31562 0.54818 0.73192 0.0
N890 N 0.30728 0.47443 0.73176 0.0
N891 N 0.25117 0.62877 0.67861 0.0
C892 C 0.2954 0.51205 0.71587 0.0
C893 C 0.26739 0.59125 0.68908 0.0
N894 N 0.24426 0.48112 0.66583 0.0
N895 N 0.32581 0.62141 0.73036 0.0
H896 H 0.22509 0.63212 0.65784 0.0
H897 H 0.26151 0.65638 0.69261 0.0
H898 H 0.35219 0.61932 0.75091 0.0
H899 H 0.32069 0.65099 0.71839 0.0
H900 H 0.25702 0.45191 0.66782 0.0
H901 H 0.21732 0.4817 0.64619 0.0
H902 H 0.29009 0.44747 0.72723 0.0
H903 H 0.33392 0.47011 0.75129 0.0
C904 C 0.09163 0.79002 0.17722 0.0
C905 C 0.06059 0.75986 0.16818 0.0
C906 C 0.01986 0.78318 0.23349 0.0
C907 C 0.05298 0.81048 0.24533 0.0
N908 N 0.12139 0.83856 0.2313 0.0
N909 N 0.9967 0.72474 0.18898 0.0
C910 C 0.08913 0.81367 0.21785 0.0
C911 C 0.02505 0.75569 0.1966 0.0
N912 N 0.12308 0.79625 0.14658 0.0
N913 N 0.9829 0.78435 0.25667 0.0
H914 H 0.99748 0.70559 0.16061 0.0
H915 H 0.97369 0.71616 0.21212 0.0
H916 H 0.97718 0.80401 0.28379 0.0
H917 H 0.95639 0.76792 0.2472 0.0
H918 H 0.14468 0.82021 0.14876 0.0
H919 H 0.12568 0.77913 0.11672 0.0
H920 H 0.15036 0.83933 0.21545 0.0
H921 H 0.12007 0.85674 0.26048 0.0
C922 C 0.69443 0.91439 0.17722 0.0
C923 C 0.73518 0.93156 0.1806 0.0
C924 C 0.71308 0.97206 0.24631 0.0
C925 C 0.67521 0.94949 0.24776 0.0
N926 N 0.62981 0.89745 0.21613 0.0
N927 N 0.78509 0.97291 0.22222 0.0
C928 C 0.66558 0.92044 0.21333 0.0
C929 C 0.74493 0.95976 0.21592 0.0
N930 N 0.68308 0.89306 0.13913 0.0
N931 N 0.71861 0.005 0.27454 0.0
H932 H 0.80983 0.96309 0.20212 0.0
H933 H 0.79458 0.99081 0.24973 0.0
H934 H 0.69549 0.01469 0.29697 0.0
H935 H 0.74405 0.02502 0.27241 0.0
H936 H 0.65291 0.88247 0.13307 0.0
H937 H 0.70312 0.889 0.11164 0.0
H938 H 0.62333 0.87248 0.19506 0.0
H939 H 0.60748 0.90188 0.24135 0.0
C940 C 0.51456 0.73864 0.27985 0.0
C941 C 0.47417 0.72042 0.28241 0.0
C942 C 0.44733 0.77182 0.22913 0.0
C943 C 0.48761 0.79013 0.22684 0.0
N944 N 0.55777 0.79615 0.2551 0.0
N945 N 0.40085 0.7225 0.26576 0.0
C946 C 0.52066 0.77512 0.25389 0.0
C947 C 0.44013 0.73792 0.25889 0.0
N948 N 0.54732 0.72045 0.30143 0.0
N949 N 0.41631 0.7863 0.20183 0.0
H950 H 0.39477 0.69689 0.28612 0.0
H951 H 0.37395 0.7363 0.25369 0.0
H952 H 0.41993 0.81244 0.18162 0.0
H953 H 0.38767 0.77161 0.19744 0.0
H954 H 0.5783 0.72906 0.29664 0.0
H955 H 0.54408 0.69479 0.32235 0.0
H956 H 0.5817 0.78978 0.27775 0.0
H957 H 0.56372 0.82233 0.23565 0.0
C958 C 0.75236 0.42579 0.21374 0.0
C959 C 0.73769 0.46419 0.19803 0.0
C960 C 0.78541 0.50052 0.24939 0.0
C961 C 0.79762 0.46219 0.26776 0.0
N962 N 0.79071 0.38856 0.2715 0.0
N963 N 0.73544 0.53818 0.20474 0.0
C964 C 0.7806 0.4248 0.25099 0.0
C965 C 0.75288 0.50159 0.21692 0.0
N966 N 0.73982 0.39044 0.19244 0.0
N967 N 0.80549 0.53592 0.26238 0.0
H968 H 0.71216 0.54079 0.18032 0.0
H969 H 0.74151 0.56582 0.22138 0.0
H970 H 0.82878 0.53686 0.28701 0.0
H971 H 0.80164 0.56405 0.24617 0.0
H972 H 0.75264 0.36178 0.19887 0.0
H973 H 0.7181 0.39013 0.16608 0.0
H974 H 0.776 0.36065 0.26441 0.0
H975 H 0.81243 0.38677 0.29776 0.0
C976 C 0.2059 0.12899 0.57692 0.0
C977 C 0.21182 0.08781 0.56244 0.0
C978 C 0.13882 0.07172 0.57924 0.0
C979 C 0.13391 0.11173 0.5978 0.0
N980 N 0.16355 0.17678 0.62002 0.0
N981 N 0.18578 0.01788 0.55733 0.0
C982 C 0.16769 0.14001 0.59814 0.0
C983 C 0.17879 0.05863 0.56544 0.0
N984 N 0.23659 0.15763 0.56952 0.0
N985 N 0.105 0.04644 0.57319 0.0
H986 H 0.21405 0.00642 0.54594 0.0
H987 H 0.16438 0.99474 0.56541 0.0
H988 H 0.0753 0.05349 0.58462 0.0
H989 H 0.10576 0.0197 0.55371 0.0
H990 H 0.23296 0.18893 0.57542 0.0
H991 H 0.26476 0.15046 0.55382 0.0
H992 H 0.18806 0.19741 0.62522 0.0
H993 H 0.13613 0.18503 0.63659 0.0
C994 C 0.46722 0.12901 0.63987 0.0
C995 C 0.4246 0.12573 0.65255 0.0
C996 C 0.40942 0.18929 0.61164 0.0
C997 C 0.45197 0.19275 0.59877 0.0
N998 N 0.52321 0.17198 0.61153 0.0
N999 N 0.35872 0.15821 0.66281 0.0
C1000 C 0.48148 0.16461 0.61644 0.0
C1001 C 0.3971 0.15816 0.64287 0.0
N1002 N 0.49363 0.09698 0.64719 0.0
N1003 N 0.38031 0.21374 0.5917 0.0
H1004 H 0.34969 0.13543 0.68593 0.0
H1005 H 0.33798 0.1825 0.66002 0.0
H1006 H 0.38778 0.23554 0.56696 0.0
H1007 H 0.34837 0.20981 0.5965 0.0
H1008 H 0.52292 0.09496 0.63212 0.0
H1009 H 0.48587 0.07139 0.66674 0.0
H1010 H 0.54587 0.15523 0.62854 0.0
H1011 H 0.53536 0.19697 0.59376 0.0
C1012 C 0.39037 0.40865 0.5012 0.0
C1013 C 0.4111 0.43001 0.53731 0.0
C1014 C 0.36454 0.4882 0.52541 0.0
C1015 C 0.33991 0.46418 0.49533 0.0
N1016 N 0.32623 0.39903 0.45914 0.0
N1017 N 0.40989 0.48647 0.59073 0.0
C1018 C 0.35172 0.42351 0.4849 0.0
C1019 C 0.39603 0.46889 0.55131 0.0
N1020 N 0.40862 0.37616 0.47976 0.0
N1021 N 0.35821 0.52945 0.52915 0.0
H1022 H 0.43019 0.47168 0.61286 0.0
H1023 H 0.39719 0.51321 0.60417 0.0
H1024 H 0.33631 0.54487 0.5096 0.0
H1025 H 0.3778 0.54879 0.54785 0.0
H1026 H 0.39619 0.36253 0.45067 0.0
H1027 H 0.43858 0.36606 0.4866 0.0
H1028 H 0.33095 0.36757 0.45523 0.0
H1029 H 0.2989 0.4096 0.44417 0.0
C1030 C 0.07935 0.38158 0.57954 0.0
C1031 C 0.10749 0.39647 0.54606 0.0
C1032 C 0.09634 0.3327 0.50258 0.0
C1033 C 0.06347 0.32152 0.53238 0.0
N1034 N 0.01735 0.34113 0.59317 0.0
N1035 N 0.13674 0.38835 0.4703 0.0
C1036 C 0.05318 0.34759 0.56922 0.0
C1037 C 0.11475 0.37254 0.50616 0.0
N1038 N 0.07827 0.39919 0.6217 0.0
N1039 N 0.11047 0.30517 0.4712 0.0
H1040 H 0.14926 0.41792 0.46942 0.0
H1041 H 0.13868 0.37357 0.43896 0.0
H1042 H 0.09749 0.27589 0.46717 0.0
H1043 H 0.13739 0.31011 0.45208 0.0
H1044 H 0.06057 0.3872 0.64839 0.0
H1045 H 0.09876 0.42264 0.63151 0.0
H1046 H 0.00668 0.36129 0.61804 0.0
H1047 H 0.99583 0.31862 0.5839 0.0
C1048 C 0.17645 0.47087 0.862 0.0
C1049 C 0.2056 0.44396 0.88277 0.0
C1050 C 0.16695 0.38482 0.85187 0.0
C1051 C 0.13391 0.411 0.83977 0.0
N1052 N 0.11729 0.47772 0.81089 0.0
N1053 N 0.22717 0.37467 0.89962 0.0
C1054 C 0.14158 0.45393 0.83816 0.0
C1055 C 0.20079 0.40072 0.87769 0.0
N1056 N 0.18164 0.51248 0.86561 0.0
N1057 N 0.16684 0.34534 0.83633 0.0
H1058 H 0.25165 0.38496 0.92008 0.0
H1059 H 0.22242 0.34297 0.90085 0.0
H1060 H 0.14392 0.33461 0.814 0.0
H1061 H 0.19166 0.32536 0.8408 0.0
H1062 H 0.15911 0.53356 0.85609 0.0
H1063 H 0.20775 0.52625 0.88031 0.0
H1064 H 0.12241 0.50892 0.8052 0.0
H1065 H 0.09489 0.46481 0.78939 0.0
C1066 C 0.09204 0.13642 0.8918 0.0
C1067 C 0.08772 0.11009 0.92961 0.0
C1068 C 0.07853 0.16969 0.97937 0.0
C1069 C 0.07553 0.19542 0.94065 0.0
N1070 N 0.07366 0.2008 0.85832 0.0
N1071 N 0.072 0.10062 0.00913 0.0
C1072 C 0.08117 0.17829 0.89638 0.0
C1073 C 0.07996 0.12642 0.97348 0.0
N1074 N 0.10744 0.12175 0.85165 0.0
N1075 N 0.08074 0.18672 0.02176 0.0
H1076 H 0.07178 0.06874 0.00584 0.0
H1077 H 0.06182 0.11077 0.04079 0.0
H1078 H 0.08095 0.21843 0.0271 0.0
H1079 H 0.0868 0.16974 0.05098 0.0
H1080 H 0.11566 0.14076 0.82452 0.0
H1081 H 0.11593 0.09118 0.84694 0.0
H1082 H 0.07163 0.18806 0.82589 0.0
H1083 H 0.06618 0.23149 0.8593 0.0
C1084 C 0.32997 0.13413 0.89826 0.0
C1085 C 0.35361 0.11365 0.86448 0.0
C1086 C 0.3192 0.0488 0.88303 0.0
C1087 C 0.29771 0.068 0.91929 0.0
N1088 N 0.27511 0.13048 0.95542 0.0
N1089 N 0.35075 0.05919 0.80929 0.0
C1090 C 0.30052 0.11136 0.92487 0.0
C1091 C 0.34177 0.07339 0.85173 0.0
N1092 N 0.33632 0.17525 0.90465 0.0
N1093 N 0.3193 0.00702 0.87916 0.0
H1094 H 0.36351 0.07823 0.78426 0.0
H1095 H 0.33965 0.03105 0.7973 0.0
H1096 H 0.3056 0.98778 0.90333 0.0
H1097 H 0.33704 0.99165 0.85495 0.0
H1098 H 0.32416 0.19201 0.9316 0.0
H1099 H 0.35424 0.19254 0.88189 0.0
H1100 H 0.27294 0.1622 0.95873 0.0
H1101 H 0.25461 0.11439 0.9766 0.0
C1102 C 0.41163 0.37714 0.9457 0.0
C1103 C 0.43695 0.39124 0.9087 0.0
C1104 C 0.4878 0.33907 0.92904 0.0
C1105 C 0.45769 0.31891 0.95634 0.0
N1106 N 0.3892 0.31802 -0.01044 0.0
N1107 N 0.49737 0.37915 0.86105 0.0
C1108 C 0.41899 0.33773 0.96436 0.0
C1109 C 0.47489 0.37073 0.89941 0.0
N1110 N 0.38255 0.40198 0.96521 0.0
N1111 N 0.52859 0.32814 0.93143 0.0
H1112 H 0.4873 0.39922 0.83587 0.0
H1113 H 0.52341 0.36218 0.85171 0.0
H1114 H 0.53899 0.30592 0.95416 0.0
H1115 H 0.55214 0.34417 0.91435 0.0
H1116 H 0.36577 0.39352 -0.00588 0.0
H1117 H 0.37939 0.43292 0.95709 0.0
H1118 H 0.3587 0.32851 -0.00797 0.0
H1119 H 0.39461 0.29008 0.00585 0.0
C1120 C 0.85892 0.86884 0.4656 0.0
C1121 C 0.8686 0.85306 0.4218 0.0
C1122 C 0.795 0.8389 0.40772 0.0
C1123 C 0.7854 0.85865 0.44946 0.0
N1124 N 0.80692 0.87491 0.52511 0.0
N1125 N 0.84847 0.80955 0.35944 0.0
C1126 C 0.81726 0.86664 0.48109 0.0
C1127 C 0.83741 0.83343 0.39557 0.0
N1128 N 0.88833 0.88938 0.49052 0.0
N1129 N 0.76397 0.82783 0.37853 0.0
H1130 H 0.87942 0.80586 0.34949 0.0
H1131 H 0.82755 0.79027 0.34253 0.0
H1132 H 0.73279 0.82856 0.38757 0.0
H1133 H 0.76909 0.81814 0.34533 0.0
H1134 H 0.88161 0.90518 0.52039 0.0
H1135 H 0.91875 0.89385 0.47938 0.0
H1136 H 0.82885 0.87835 0.55094 0.0
H1137 H 0.77593 0.87407 0.53601 0.0
C1138 C 0.49366 0.83683 0.43738 0.0
C1139 C 0.53098 0.85248 0.45689 0.0
C1140 C 0.52423 0.80355 0.51988 0.0
C1141 C 0.48797 0.78737 0.49928 0.0
N1142 N 0.4292 0.79957 0.45065 0.0
N1143 N 0.57378 0.85975 0.52435 0.0
C1144 C 0.46944 0.80812 0.4624 0.0
C1145 C 0.54373 0.8388 0.50073 0.0
N1146 N 0.48292 0.84658 0.39378 0.0
N1147 N 0.54105 0.78379 0.55634 0.0
H1148 H 0.58776 0.88665 0.51241 0.0
H1149 H 0.5817 0.85303 0.55782 0.0
H1150 H 0.52579 0.75921 0.57226 0.0
H1151 H 0.57048 0.79055 0.56936 0.0
H1152 H 0.45829 0.83234 0.37668 0.0
H1153 H 0.501 0.86552 0.37294 0.0
H1154 H 0.41321 0.816 0.4259 0.0
H1155 H 0.41062 0.77919 0.46918 0.0
C1156 C 0.6712 0.58278 0.48892 0.0
C1157 C 0.69017 0.55162 0.46276 0.0
C1158 C 0.63648 0.55901 0.40526 0.0
C1159 C 0.61293 0.58486 0.43426 0.0
N1160 N 0.60627 0.61398 0.51052 0.0
N1161 N 0.68046 0.4998 0.40532 0.0
C1162 C 0.62979 0.59513 0.47804 0.0
C1163 C 0.6697 0.53657 0.4237 0.0
N1164 N 0.69242 0.60045 0.52415 0.0
N1165 N 0.62837 0.55671 0.35979 0.0
H1166 H 0.70095 0.48023 0.42186 0.0
H1167 H 0.66452 0.48669 0.37795 0.0
H1168 H 0.6074 0.57613 0.34363 0.0
H1169 H 0.64673 0.53958 0.33762 0.0
H1170 H 0.68178 0.62636 0.54128 0.0
H1171 H 0.7221 0.59105 0.53383 0.0
H1172 H 0.61652 0.618 0.54384 0.0
H1173 H 0.57509 0.62136 0.50675 0.0
C1174 C 0.92103 0.64078 0.4597 0.0
C1175 C 0.93055 0.61854 0.41918 0.0
C1176 C 0.9906 0.66416 0.40605 0.0
C1177 C 0.97889 0.68844 0.44374 0.0
N1178 N 0.92774 0.70512 0.5007 0.0
N1179 N 0.967 0.61763 0.34736 0.0
C1180 C 0.9425 0.67838 0.46883 0.0
C1181 C 0.96328 0.63271 0.39051 0.0
N1182 N 0.89359 0.62533 0.49105 0.0
N1183 N 0.02802 0.67107 0.38514 0.0
H1184 H 0.9459 0.5965 0.33352 0.0
H1185 H 0.98766 0.62996 0.3236 0.0
H1186 H 0.04894 0.69379 0.39597 0.0
H1187 H 0.03989 0.6517 0.36021 0.0
H1188 H 0.88953 0.63835 0.52307 0.0
H1189 H 0.87816 0.59726 0.4879 0.0
H1190 H 0.89854 0.70186 0.51583 0.0
H1191 H 0.94321 0.73232 0.50948 0.0
C1192 C 0.88791 0.62066 0.06329 0.0
C1193 C 0.92233 0.59406 0.06084 0.0
C1194 C 0.87591 0.53821 0.03602 0.0
C1195 C 0.84319 0.56691 0.03033 0.0
N1196 N 0.82056 0.63746 0.03218 0.0
N1197 N 0.95044 0.52814 0.03962 0.0
C1198 C 0.84977 0.60872 0.04254 0.0
C1199 C 0.91675 0.55286 0.04603 0.0
N1200 N 0.8917 0.65718 0.08582 0.0
N1201 N 0.86788 0.49695 0.03386 0.0
H1202 H 0.98088 0.53731 0.04712 0.0
H1203 H 0.94842 0.49959 0.02366 0.0
H1204 H 0.83815 0.4847 0.02874 0.0
H1205 H 0.88991 0.47488 0.04212 0.0
H1206 H 0.86634 0.67577 0.09325 0.0
H1207 H 0.91952 0.66662 0.10116 0.0
H1208 H 0.82457 0.66865 0.03872 0.0
H1209 H 0.79385 0.63063 0.01339 0.0
C1210 C 0.92628 0.80217 0.91534 0.0
C1211 C 0.93112 0.76537 0.94108 0.0
C1212 C 0.85889 0.77223 0.96489 0.0
C1213 C 0.86055 0.81443 0.95576 0.0
N1214 N 0.88996 0.86742 0.90834 0.0
N1215 N 0.90244 0.72558 0.00411 0.0
C1216 C 0.89208 0.82865 0.9256 0.0
C1217 C 0.8971 0.75176 0.96854 0.0
N1218 N 0.95423 0.81172 0.88193 0.0
N1219 N 0.82256 0.75452 0.97897 0.0
H1220 H 0.93154 0.71678 0.0159 0.0
H1221 H 0.87821 0.71863 0.02645 0.0
H1222 H 0.79486 0.77113 0.97949 0.0
H1223 H 0.82021 0.72312 -0.01425 0.0
H1224 H 0.95111 0.83682 0.86031 0.0
H1225 H 0.97857 0.79218 0.87331 0.0
H1226 H 0.91435 0.88174 0.89095 0.0
H1227 H 0.86309 0.88497 0.91155 0.0
C1228 C 0.66653 0.96658 0.98307 0.0
C1229 C 0.6939 0.99279 0.00723 0.0
C1230 C 0.65171 0.98484 0.07592 0.0
C1231 C 0.62663 0.95498 0.05332 0.0
N1232 N 0.59925 0.93277 0.98045 0.0
N1233 N 0.69811 0.04348 0.06658 0.0
C1234 C 0.63054 0.95058 0.00521 0.0
C1235 C 0.68157 0.00765 0.05033 0.0
N1236 N 0.67611 0.9558 0.9395 0.0
N1237 N 0.64886 0.99011 0.12184 0.0
H1238 H 0.71829 0.06164 0.04722 0.0
H1239 H 0.68806 0.05717 0.09662 0.0
H1240 H 0.62818 0.97348 0.1422 0.0
H1241 H 0.66974 0.00837 0.14018 0.0
H1242 H 0.66058 0.93262 0.92168 0.0
H1243 H 0.70115 0.96925 0.92215 0.0
H1244 H 0.59898 0.93204 0.94507 0.0
H1245 H 0.57128 0.92305 -0.00512 0.0
C1246 C 0.57666 0.64891 0.07794 0.0
C1247 C 0.61003 0.63153 0.05312 0.0
C1248 C 0.61149 0.69285 0.0043 0.0
C1249 C 0.5749 0.70708 0.02567 0.0
N1250 N 0.51508 0.69016 0.07206 0.0
N1251 N 0.64989 0.63263 0.98268 0.0
C1252 C 0.55506 0.68254 0.05919 0.0
C1253 C 0.62522 0.65228 0.01353 0.0
N1254 N 0.56629 0.63444 0.12007 0.0
N1255 N 0.63284 0.71763 0.97476 0.0
H1256 H 0.65738 0.60166 0.98473 0.0
H1257 H 0.65845 0.64575 0.9517 0.0
H1258 H 0.62261 0.74685 0.9657 0.0
H1259 H 0.66209 0.71014 0.96197 0.0
H1260 H 0.54408 0.64854 0.14056 0.0
H1261 H 0.58331 0.61182 0.13667 0.0
H1262 H 0.49848 0.67101 0.09413 0.0
H1263 H 0.49705 0.71246 0.05636 0.0
loop_
_geom_bond_atom_site_label_1
_geom_bond_atom_site_label_2
_geom_bond_distance
_geom_bond_site_symmetry_2
_ccdc_geom_bond_type
Co0 O3 1.985 . S
Co0 N17 1.983 1_455 S
Co0 O25 1.959 1_455 S
Co0 O32 1.918 1_455 S
Co1 O4 1.966 1_655 S
Co1 N10 2.022 . S
Co1 N18 1.993 . S
Co1 O26 1.941 . S
C2 O3 1.258 . S
C2 O4 1.263 . S
O3 Co0 1.985 . S
O3 C2 1.258 . S
O4 Co1 1.966 1_455 S
O4 C2 1.263 . S
C5 O6 1.235 . S
C5 O32 1.289 1_455 S
O6 C5 1.235 . S
C7 C9 1.400 . S
C7 N10 1.351 1_455 S
C7 C12 1.501 . S
C8 C9 1.387 1_655 S
C8 N11 1.341 . S
C9 C7 1.400 . S
C9 C8 1.387 1_455 S
N10 Co1 2.022 . S
N10 C7 1.351 1_655 S
N10 N11 1.365 . S
N11 C8 1.341 . S
N11 N10 1.365 . S
N11 H31 0.862 . S
C12 C7 1.501 . S
C12 H13 0.961 . S
C12 H14 0.961 . S
C12 H15 0.960 . S
H13 C12 0.961 . S
H14 C12 0.961 . S
H15 C12 0.960 . S
C16 N17 1.342 . S
C16 C20 1.401 . S
C16 C21 1.499 . S
N17 Co0 1.983 1_655 S
N17 C16 1.342 . S
N17 N18 1.388 . S
N18 Co1 1.993 . S
N18 N17 1.388 . S
N18 C19 1.346 . S
C19 N18 1.346 . S
C19 C20 1.396 . S
C19 C29 1.510 . S
C20 C16 1.401 . S
C20 C19 1.396 . S
C21 C16 1.499 . S
C21 H22 0.959 . S
C21 H23 0.960 . S
C21 H24 0.961 . S
H22 C21 0.959 . S
H23 C21 0.960 . S
H24 C21 0.961 . S
O25 Co0 1.959 1_655 S
O25 C33 1.258 . S
O26 Co1 1.941 . S
O26 C33 1.266 . S
H27 C29 0.959 . S
H28 C29 0.961 . S
C29 C19 1.510 . S
C29 H27 0.959 . S
C29 H28 0.961 . S
C29 H30 0.960 . S
H30 C29 0.960 . S
H31 N11 0.862 . S
O32 Co0 1.918 1_655 S
O32 C5 1.289 1_655 S
C33 O25 1.258 . S
C33 O26 1.266 . S
Co34 O37 1.953 1_565 S
Co34 N51 1.996 . S
Co34 O59 1.976 . S
Co34 O66 1.923 . S
Co35 O38 1.966 1_565 S
Co35 N44 2.022 . S
Co35 N52 1.993 . S
Co35 O60 1.941 . S
C36 O37 1.258 . S
C36 O38 1.263 . S
O37 Co34 1.953 1_545 S
O37 C36 1.258 . S
O38 Co35 1.966 1_545 S
O38 C36 1.263 . S
C39 O40 1.235 . S
C39 O66 1.289 1_545 S
O40 C39 1.235 . S
C41 C43 1.400 . S
C41 N44 1.351 1_545 S
C41 C46 1.501 . S
C42 C43 1.387 1_565 S
C42 N45 1.341 . S
C43 C41 1.400 . S
C43 C42 1.387 1_545 S
N44 Co35 2.022 . S
N44 C41 1.351 1_565 S
N44 N45 1.365 . S
N45 C42 1.341 . S
N45 N44 1.365 . S
N45 H65 0.862 . S
C46 C41 1.501 . S
C46 H47 0.961 . S
C46 H48 0.961 . S
C46 H49 0.960 . S
H47 C46 0.961 . S
H48 C46 0.961 . S
H49 C46 0.960 . S
C50 N51 1.342 . S
C50 C54 1.401 . S
C50 C55 1.499 . S
N51 Co34 1.996 . S
N51 C50 1.342 . S
N51 N52 1.388 . S
N52 Co35 1.993 . S
N52 N51 1.388 . S
N52 C53 1.346 . S
C53 N52 1.346 . S
C53 C54 1.396 . S
C53 C63 1.510 . S
C54 C50 1.401 . S
C54 C53 1.396 . S
C55 C50 1.499 . S
C55 H56 0.959 . S
C55 H57 0.960 . S
C55 H58 0.961 . S
H56 C55 0.959 . S
H57 C55 0.960 . S
H58 C55 0.961 . S
O59 Co34 1.976 . S
O59 C67 1.258 . S
O60 Co35 1.941 . S
O60 C67 1.266 . S
H61 C63 0.959 . S
H62 C63 0.961 . S
C63 C53 1.510 . S
C63 H61 0.959 . S
C63 H62 0.961 . S
C63 H64 0.960 . S
H64 C63 0.960 . S
H65 N45 0.862 . S
O66 Co34 1.923 . S
O66 C39 1.289 1_565 S
C67 O59 1.258 . S
C67 O60 1.266 . S
Co68 O71 1.970 . S
Co68 N85 1.989 . S
Co68 O93 1.967 . S
Co68 O100 1.920 . S
Co69 O72 1.966 . S
Co69 N78 2.022 . S
Co69 N86 1.993 . S
Co69 O94 1.941 . S
C70 O71 1.258 . S
C70 O72 1.263 . S
O71 Co68 1.970 . S
O71 C70 1.258 . S
O72 Co69 1.966 . S
O72 C70 1.263 . S
C73 O74 1.235 . S
C73 O100 1.289 . S
O74 C73 1.235 . S
C75 C77 1.400 . S
C75 N78 1.351 . S
C75 C80 1.501 . S
C76 C77 1.387 . S
C76 N79 1.341 . S
C77 C75 1.400 . S
C77 C76 1.387 . S
N78 Co69 2.022 . S
N78 C75 1.351 . S
N78 N79 1.365 . S
N79 C76 1.341 . S
N79 N78 1.365 . S
N79 H99 0.862 . S
C80 C75 1.501 . S
C80 H81 0.961 . S
C80 H82 0.961 . S
C80 H83 0.960 . S
H81 C80 0.961 . S
H82 C80 0.961 . S
H83 C80 0.960 . S
C84 N85 1.342 . S
C84 C88 1.401 . S
C84 C89 1.499 . S
N85 Co68 1.989 . S
N85 C84 1.342 . S
N85 N86 1.388 . S
N86 Co69 1.993 . S
N86 N85 1.388 . S
N86 C87 1.346 . S
C87 N86 1.346 . S
C87 C88 1.396 . S
C87 C97 1.510 . S
C88 C84 1.401 . S
C88 C87 1.396 . S
C89 C84 1.499 . S
C89 H90 0.959 . S
C89 H91 0.960 . S
C89 H92 0.961 . S
H90 C89 0.959 . S
H91 C89 0.960 . S
H92 C89 0.961 . S
O93 Co68 1.967 . S
O93 C101 1.258 . S
O94 Co69 1.941 . S
O94 C101 1.266 . S
H95 C97 0.959 . S
H96 C97 0.961 . S
C97 C87 1.510 . S
C97 H95 0.959 . S
C97 H96 0.961 . S
C97 H98 0.960 . S
H98 C97 0.960 . S
H99 N79 0.862 . S
O100 Co68 1.920 . S
O100 C73 1.289 . S
C101 O93 1.258 . S
C101 O94 1.266 . S
Co102 O105 1.970 . S
Co102 N119 1.989 . S
Co102 O127 1.967 . S
Co102 O134 1.920 . S
Co103 O106 1.966 . S
Co103 N112 2.022 . S
Co103 N120 1.993 . S
Co103 O128 1.941 . S
C104 O105 1.258 . S
C104 O106 1.263 . S
O105 Co102 1.970 . S
O105 C104 1.258 . S
O106 Co103 1.966 . S
O106 C104 1.263 . S
C107 O108 1.235 . S
C107 O134 1.289 . S
O108 C107 1.235 . S
C109 C111 1.400 . S
C109 N112 1.351 . S
C109 C114 1.501 . S
C110 C111 1.387 . S
C110 N113 1.341 . S
C111 C109 1.400 . S
C111 C110 1.387 . S
N112 Co103 2.022 . S
N112 C109 1.351 . S
N112 N113 1.365 . S
N113 C110 1.341 . S
N113 N112 1.365 . S
N113 H133 0.862 . S
C114 C109 1.501 . S
C114 H115 0.961 . S
C114 H116 0.961 . S
C114 H117 0.960 . S
H115 C114 0.961 . S
H116 C114 0.961 . S
H117 C114 0.960 . S
C118 N119 1.342 . S
C118 C122 1.401 . S
C118 C123 1.499 . S
N119 Co102 1.989 . S
N119 C118 1.342 . S
N119 N120 1.388 . S
N120 Co103 1.993 . S
N120 N119 1.388 . S
N120 C121 1.346 . S
C121 N120 1.346 . S
C121 C122 1.396 . S
C121 C131 1.510 . S
C122 C118 1.401 . S
C122 C121 1.396 . S
C123 C118 1.499 . S
C123 H124 0.959 . S
C123 H125 0.960 . S
C123 H126 0.961 . S
H124 C123 0.959 . S
H125 C123 0.960 . S
H126 C123 0.961 . S
O127 Co102 1.967 . S
O127 C135 1.258 . S
O128 Co103 1.941 . S
O128 C135 1.266 . S
H129 C131 0.959 . S
H130 C131 0.961 . S
C131 C121 1.510 . S
C131 H129 0.959 . S
C131 H130 0.961 . S
C131 H132 0.960 . S
H132 C131 0.960 . S
H133 N113 0.862 . S
O134 Co102 1.920 . S
O134 C107 1.289 . S
C135 O127 1.258 . S
C135 O128 1.266 . S
Co136 O139 1.953 1_655 S
Co136 N153 1.996 . S
Co136 O161 1.976 . S
Co136 O168 1.923 . S
Co137 O140 1.966 1_655 S
Co137 N146 2.022 1_556 S
Co137 N154 1.993 . S
Co137 O162 1.941 1_556 S
C138 O139 1.258 . S
C138 O140 1.263 . S
O139 Co136 1.953 1_455 S
O139 C138 1.258 . S
O140 Co137 1.966 1_455 S
O140 C138 1.263 . S
C141 O142 1.235 . S
C141 O168 1.289 1_455 S
O142 C141 1.235 . S
C143 C145 1.400 . S
C143 N146 1.351 1_455 S
C143 C148 1.501 . S
C144 C145 1.387 1_655 S
C144 N147 1.341 . S
C145 C143 1.400 . S
C145 C144 1.387 1_455 S
N146 Co137 2.022 1_554 S
N146 C143 1.351 1_655 S
N146 N147 1.365 . S
N147 C144 1.341 . S
N147 N146 1.365 . S
N147 H167 0.862 . S
C148 C143 1.501 . S
C148 H149 0.961 . S
C148 H150 0.961 1_554 S
C148 H151 0.960 . S
H149 C148 0.961 . S
H150 C148 0.961 1_556 S
H151 C148 0.960 . S
C152 N153 1.342 . S
C152 C156 1.401 . S
C152 C157 1.499 . S
N153 Co136 1.996 . S
N153 C152 1.342 . S
N153 N154 1.388 . S
N154 Co137 1.993 . S
N154 N153 1.388 . S
N154 C155 1.346 . S
C155 N154 1.346 . S
C155 C156 1.396 . S
C155 C165 1.510 . S
C156 C152 1.401 . S
C156 C155 1.396 . S
C157 C152 1.499 . S
C157 H158 0.959 . S
C157 H159 0.960 . S
C157 H160 0.961 . S
H158 C157 0.959 . S
H159 C157 0.960 . S
H160 C157 0.961 . S
O161 Co136 1.976 . S
O161 C169 1.258 . S
O162 Co137 1.941 1_554 S
O162 C169 1.266 1_554 S
H163 C165 0.959 . S
H164 C165 0.961 . S
C165 C155 1.510 . S
C165 H163 0.959 . S
C165 H164 0.961 . S
C165 H166 0.960 . S
H166 C165 0.960 . S
H167 N147 0.862 . S
O168 Co136 1.923 . S
O168 C141 1.289 1_655 S
C169 O161 1.258 . S
C169 O162 1.266 1_556 S
Co170 O173 1.985 . S
Co170 N187 1.983 1_545 S
Co170 O195 1.959 1_545 S
Co170 O202 1.918 1_545 S
Co171 O174 1.966 1_565 S
Co171 N180 2.022 1_556 S
Co171 N188 1.993 . S
Co171 O196 1.941 1_556 S
C172 O173 1.258 . S
C172 O174 1.263 . S
O173 Co170 1.985 . S
O173 C172 1.258 . S
O174 Co171 1.966 1_545 S
O174 C172 1.263 . S
C175 O176 1.235 . S
C175 O202 1.289 1_545 S
O176 C175 1.235 . S
C177 C179 1.400 . S
C177 N180 1.351 1_545 S
C177 C182 1.501 . S
C178 C179 1.387 1_565 S
C178 N181 1.341 . S
C179 C177 1.400 . S
C179 C178 1.387 1_545 S
N180 Co171 2.022 1_554 S
N180 C177 1.351 1_565 S
N180 N181 1.365 . S
N181 C178 1.341 . S
N181 N180 1.365 . S
N181 H201 0.862 . S
C182 C177 1.501 . S
C182 H183 0.961 . S
C182 H184 0.961 . S
C182 H185 0.960 . S
H183 C182 0.961 . S
H184 C182 0.961 . S
H185 C182 0.960 . S
C186 N187 1.342 . S
C186 C190 1.401 . S
C186 C191 1.499 . S
N187 Co170 1.983 1_565 S
N187 C186 1.342 . S
N187 N188 1.388 . S
N188 Co171 1.993 . S
N188 N187 1.388 . S
N188 C189 1.346 . S
C189 N188 1.346 . S
C189 C190 1.396 . S
C189 C199 1.510 . S
C190 C186 1.401 . S
C190 C189 1.396 . S
C191 C186 1.499 . S
C191 H192 0.959 . S
C191 H193 0.960 . S
C191 H194 0.961 . S
H192 C191 0.959 . S
H193 C191 0.960 . S
H194 C191 0.961 . S
O195 Co170 1.959 1_565 S
O195 C203 1.258 . S
O196 Co171 1.941 1_554 S
O196 C203 1.266 1_554 S
H197 C199 0.959 . S
H198 C199 0.961 . S
C199 C189 1.510 . S
C199 H197 0.959 . S
C199 H198 0.961 . S
C199 H200 0.960 . S
H200 C199 0.960 . S
H201 N181 0.862 . S
O202 Co170 1.918 1_565 S
O202 C175 1.289 1_565 S
C203 O195 1.258 . S
C203 O196 1.266 1_556 S
Co204 O207 1.970 . S
Co204 N221 1.989 . S
Co204 O229 1.967 . S
Co204 O236 1.920 . S
Co205 O208 1.966 . S
Co205 N214 2.022 1_556 S
Co205 N222 1.993 . S
Co205 O230 1.941 1_556 S
C206 O207 1.258 . S
C206 O208 1.263 . S
O207 Co204 1.970 . S
O207 C206 1.258 . S
O208 Co205 1.966 . S
O208 C206 1.263 . S
C209 O210 1.235 . S
C209 O236 1.289 . S
O210 C209 1.235 . S
C211 C213 1.400 . S
C211 N214 1.351 . S
C211 C216 1.501 . S
C212 C213 1.387 . S
C212 N215 1.341 . S
C213 C211 1.400 . S
C213 C212 1.387 . S
N214 Co205 2.022 1_554 S
N214 C211 1.351 . S
N214 N215 1.365 . S
N215 C212 1.341 . S
N215 N214 1.365 . S
N215 H235 0.862 . S
C216 C211 1.501 . S
C216 H217 0.961 . S
C216 H218 0.961 . S
C216 H219 0.960 . S
H217 C216 0.961 . S
H218 C216 0.961 . S
H219 C216 0.960 . S
C220 N221 1.342 . S
C220 C224 1.401 . S
C220 C225 1.499 . S
N221 Co204 1.989 . S
N221 C220 1.342 . S
N221 N222 1.388 . S
N222 Co205 1.993 . S
N222 N221 1.388 . S
N222 C223 1.346 . S
C223 N222 1.346 . S
C223 C224 1.396 . S
C223 C233 1.510 . S
C224 C220 1.401 . S
C224 C223 1.396 . S
C225 C220 1.499 . S
C225 H226 0.959 . S
C225 H227 0.960 . S
C225 H228 0.961 . S
H226 C225 0.959 . S
H227 C225 0.960 . S
H228 C225 0.961 . S
O229 Co204 1.967 . S
O229 C237 1.258 . S
O230 Co205 1.941 1_554 S
O230 C237 1.266 1_554 S
H231 C233 0.959 . S
H232 C233 0.961 . S
C233 C223 1.510 . S
C233 H231 0.959 . S
C233 H232 0.961 . S
C233 H234 0.960 . S
H234 C233 0.960 . S
H235 N215 0.862 . S
O236 Co204 1.920 . S
O236 C209 1.289 . S
C237 O229 1.258 . S
C237 O230 1.266 1_556 S
Co238 O241 1.970 . S
Co238 N255 1.989 . S
Co238 O263 1.967 . S
Co238 O270 1.920 . S
Co239 O242 1.966 . S
Co239 N248 2.022 1_556 S
Co239 N256 1.993 . S
Co239 O264 1.941 1_556 S
C240 O241 1.258 . S
C240 O242 1.263 . S
O241 Co238 1.970 . S
O241 C240 1.258 . S
O242 Co239 1.966 . S
O242 C240 1.263 . S
C243 O244 1.235 . S
C243 O270 1.289 . S
O244 C243 1.235 . S
C245 C247 1.400 . S
C245 N248 1.351 . S
C245 C250 1.501 . S
C246 C247 1.387 . S
C246 N249 1.341 . S
C247 C245 1.400 . S
C247 C246 1.387 . S
N248 Co239 2.022 1_554 S
N248 C245 1.351 . S
N248 N249 1.365 . S
N249 C246 1.341 . S
N249 N248 1.365 . S
N249 H269 0.862 . S
C250 C245 1.501 . S
C250 H251 0.961 . S
C250 H252 0.961 1_554 S
C250 H253 0.960 . S
H251 C250 0.961 . S
H252 C250 0.961 1_556 S
H253 C250 0.960 . S
C254 N255 1.342 . S
C254 C258 1.401 . S
C254 C259 1.499 . S
N255 Co238 1.989 . S
N255 C254 1.342 . S
N255 N256 1.388 . S
N256 Co239 1.993 . S
N256 N255 1.388 . S
N256 C257 1.346 . S
C257 N256 1.346 . S
C257 C258 1.396 . S
C257 C267 1.510 . S
C258 C254 1.401 . S
C258 C257 1.396 . S
C259 C254 1.499 . S
C259 H260 0.959 . S
C259 H261 0.960 . S
C259 H262 0.961 . S
H260 C259 0.959 . S
H261 C259 0.960 . S
H262 C259 0.961 . S
O263 Co238 1.967 . S
O263 C271 1.258 . S
O264 Co239 1.941 1_554 S
O264 C271 1.266 1_554 S
H265 C267 0.959 . S
H266 C267 0.961 . S
C267 C257 1.510 . S
C267 H265 0.959 . S
C267 H266 0.961 . S
C267 H268 0.960 . S
H268 C267 0.960 . S
H269 N249 0.862 . S
O270 Co238 1.920 . S
O270 C243 1.289 . S
C271 O263 1.258 . S
C271 O264 1.266 1_556 S
Co272 O275 1.985 . S
Co272 N289 1.983 1_655 S
Co272 O297 1.959 1_655 S
Co272 O304 1.918 1_655 S
Co273 O276 1.966 1_455 S
Co273 N282 2.022 . S
Co273 N290 1.993 . S
Co273 O298 1.941 . S
C274 O275 1.258 . S
C274 O276 1.263 . S
O275 Co272 1.985 . S
O275 C274 1.258 . S
O276 Co273 1.966 1_655 S
O276 C274 1.263 . S
C277 O278 1.235 . S
C277 O304 1.289 1_655 S
O278 C277 1.235 . S
C279 C281 1.400 . S
C279 N282 1.351 1_655 S
C279 C284 1.501 . S
C280 C281 1.387 1_455 S
C280 N283 1.341 . S
C281 C279 1.400 . S
C281 C280 1.387 1_655 S
N282 Co273 2.022 . S
N282 C279 1.351 1_455 S
N282 N283 1.365 . S
N283 C280 1.341 . S
N283 N282 1.365 . S
N283 H303 0.862 . S
C284 C279 1.501 . S
C284 H285 0.961 . S
C284 H286 0.961 . S
C284 H287 0.960 . S
H285 C284 0.961 . S
H286 C284 0.961 . S
H287 C284 0.960 . S
C288 N289 1.342 . S
C288 C292 1.401 . S
C288 C293 1.499 . S
N289 Co272 1.983 1_455 S
N289 C288 1.342 . S
N289 N290 1.388 . S
N290 Co273 1.993 . S
N290 N289 1.388 . S
N290 C291 1.346 . S
C291 N290 1.346 . S
C291 C292 1.396 . S
C291 C301 1.510 . S
C292 C288 1.401 . S
C292 C291 1.396 . S
C293 C288 1.499 . S
C293 H294 0.959 . S
C293 H295 0.960 . S
C293 H296 0.961 . S
H294 C293 0.959 . S
H295 C293 0.960 . S
H296 C293 0.961 . S
O297 Co272 1.959 1_455 S
O297 C305 1.258 . S
O298 Co273 1.941 . S
O298 C305 1.266 . S
H299 C301 0.959 . S
H300 C301 0.961 . S
C301 C291 1.510 . S
C301 H299 0.959 . S
C301 H300 0.961 . S
C301 H302 0.960 . S
H302 C301 0.960 . S
H303 N283 0.862 . S
O304 Co272 1.918 1_455 S
O304 C277 1.289 1_455 S
C305 O297 1.258 . S
C305 O298 1.266 . S
Co306 O309 1.953 1_545 S
Co306 N323 1.996 . S
Co306 O331 1.976 . S
Co306 O338 1.923 . S
Co307 O310 1.966 1_545 S
Co307 N316 2.022 . S
Co307 N324 1.993 . S
Co307 O332 1.941 . S
C308 O309 1.258 . S
C308 O310 1.263 . S
O309 Co306 1.953 1_565 S
O309 C308 1.258 . S
O310 Co307 1.966 1_565 S
O310 C308 1.263 . S
C311 O312 1.235 . S
C311 O338 1.289 1_565 S
O312 C311 1.235 . S
C313 C315 1.400 . S
C313 N316 1.351 1_565 S
C313 C318 1.501 . S
C314 C315 1.387 1_545 S
C314 N317 1.341 . S
C315 C313 1.400 . S
C315 C314 1.387 1_565 S
N316 Co307 2.022 . S
N316 C313 1.351 1_545 S
N316 N317 1.365 . S
N317 C314 1.341 . S
N317 N316 1.365 . S
N317 H337 0.862 . S
C318 C313 1.501 . S
C318 H319 0.961 . S
C318 H320 0.961 . S
C318 H321 0.960 . S
H319 C318 0.961 . S
H320 C318 0.961 . S
H321 C318 0.960 . S
C322 N323 1.342 . S
C322 C326 1.401 . S
C322 C327 1.499 . S
N323 Co306 1.996 . S
N323 C322 1.342 . S
N323 N324 1.388 . S
N324 Co307 1.993 . S
N324 N323 1.388 . S
N324 C325 1.346 . S
C325 N324 1.346 . S
C325 C326 1.396 . S
C325 C335 1.510 . S
C326 C322 1.401 . S
C326 C325 1.396 . S
C327 C322 1.499 . S
C327 H328 0.959 . S
C327 H329 0.960 . S
C327 H330 0.961 . S
H328 C327 0.959 . S
H329 C327 0.960 . S
H330 C327 0.961 . S
O331 Co306 1.976 . S
O331 C339 1.258 . S
O332 Co307 1.941 . S
O332 C339 1.266 . S
H333 C335 0.959 . S
H334 C335 0.961 . S
C335 C325 1.510 . S
C335 H333 0.959 . S
C335 H334 0.961 . S
C335 H336 0.960 . S
H336 C335 0.960 . S
H337 N317 0.862 . S
O338 Co306 1.923 . S
O338 C311 1.289 1_545 S
C339 O331 1.258 . S
C339 O332 1.266 . S
Co340 O343 1.970 . S
Co340 N357 1.989 . S
Co340 O365 1.967 . S
Co340 O372 1.920 . S
Co341 O344 1.966 . S
Co341 N350 2.022 . S
Co341 N358 1.993 . S
Co341 O366 1.941 . S
C342 O343 1.258 . S
C342 O344 1.263 . S
O343 Co340 1.970 . S
O343 C342 1.258 . S
O344 Co341 1.966 . S
O344 C342 1.263 . S
C345 O346 1.235 . S
C345 O372 1.289 . S
O346 C345 1.235 . S
C347 C349 1.400 . S
C347 N350 1.351 . S
C347 C352 1.501 . S
C348 C349 1.387 . S
C348 N351 1.341 . S
C349 C347 1.400 . S
C349 C348 1.387 . S
N350 Co341 2.022 . S
N350 C347 1.351 . S
N350 N351 1.365 . S
N351 C348 1.341 . S
N351 N350 1.365 . S
N351 H371 0.862 . S
C352 C347 1.501 . S
C352 H353 0.961 . S
C352 H354 0.961 . S
C352 H355 0.960 . S
H353 C352 0.961 . S
H354 C352 0.961 . S
H355 C352 0.960 . S
C356 N357 1.342 . S
C356 C360 1.401 . S
C356 C361 1.499 . S
N357 Co340 1.989 . S
N357 C356 1.342 . S
N357 N358 1.388 . S
N358 Co341 1.993 . S
N358 N357 1.388 . S
N358 C359 1.346 . S
C359 N358 1.346 . S
C359 C360 1.396 . S
C359 C369 1.510 . S
C360 C356 1.401 . S
C360 C359 1.396 . S
C361 C356 1.499 . S
C361 H362 0.959 . S
C361 H363 0.960 . S
C361 H364 0.961 . S
H362 C361 0.959 . S
H363 C361 0.960 . S
H364 C361 0.961 . S
O365 Co340 1.967 . S
O365 C373 1.258 . S
O366 Co341 1.941 . S
O366 C373 1.266 . S
H367 C369 0.959 . S
H368 C369 0.961 . S
C369 C359 1.510 . S
C369 H367 0.959 . S
C369 H368 0.961 . S
C369 H370 0.960 . S
H370 C369 0.960 . S
H371 N351 0.862 . S
O372 Co340 1.920 . S
O372 C345 1.289 . S
C373 O365 1.258 . S
C373 O366 1.266 . S
Co374 O377 1.970 . S
Co374 N391 1.989 . S
Co374 O399 1.967 . S
Co374 O406 1.920 . S
Co375 O378 1.966 . S
Co375 N384 2.022 . S
Co375 N392 1.993 . S
Co375 O400 1.941 . S
C376 O377 1.258 . S
C376 O378 1.263 . S
O377 Co374 1.970 . S
O377 C376 1.258 . S
O378 Co375 1.966 . S
O378 C376 1.263 . S
C379 O380 1.235 . S
C379 O406 1.289 . S
O380 C379 1.235 . S
C381 C383 1.400 . S
C381 N384 1.351 . S
C381 C386 1.501 . S
C382 C383 1.387 . S
C382 N385 1.341 . S
C383 C381 1.400 . S
C383 C382 1.387 . S
N384 Co375 2.022 . S
N384 C381 1.351 . S
N384 N385 1.365 . S
N385 C382 1.341 . S
N385 N384 1.365 . S
N385 H405 0.862 . S
C386 C381 1.501 . S
C386 H387 0.961 . S
C386 H388 0.961 . S
C386 H389 0.960 . S
H387 C386 0.961 . S
H388 C386 0.961 . S
H389 C386 0.960 . S
C390 N391 1.342 . S
C390 C394 1.401 . S
C390 C395 1.499 . S
N391 Co374 1.989 . S
N391 C390 1.342 . S
N391 N392 1.388 . S
N392 Co375 1.993 . S
N392 N391 1.388 . S
N392 C393 1.346 . S
C393 N392 1.346 . S
C393 C394 1.396 . S
C393 C403 1.510 . S
C394 C390 1.401 . S
C394 C393 1.396 . S
C395 C390 1.499 . S
C395 H396 0.959 . S
C395 H397 0.960 . S
C395 H398 0.961 . S
H396 C395 0.959 . S
H397 C395 0.960 . S
H398 C395 0.961 . S
O399 Co374 1.967 . S
O399 C407 1.258 . S
O400 Co375 1.941 . S
O400 C407 1.266 . S
H401 C403 0.959 . S
H402 C403 0.961 . S
C403 C393 1.510 . S
C403 H401 0.959 . S
C403 H402 0.961 . S
C403 H404 0.960 . S
H404 C403 0.960 . S
H405 N385 0.862 . S
O406 Co374 1.920 . S
O406 C379 1.289 . S
C407 O399 1.258 . S
C407 O400 1.266 . S
Co408 O411 1.953 1_455 S
Co408 N425 1.996 . S
Co408 O433 1.976 . S
Co408 O440 1.923 . S
Co409 O412 1.966 1_455 S
Co409 N418 2.022 1_554 S
Co409 N426 1.993 . S
Co409 O434 1.941 1_554 S
C410 O411 1.258 . S
C410 O412 1.263 . S
O411 Co408 1.953 1_655 S
O411 C410 1.258 . S
O412 Co409 1.966 1_655 S
O412 C410 1.263 . S
C413 O414 1.235 . S
C413 O440 1.289 1_655 S
O414 C413 1.235 . S
C415 C417 1.400 . S
C415 N418 1.351 1_655 S
C415 C420 1.501 . S
C416 C417 1.387 1_455 S
C416 N419 1.341 . S
C417 C415 1.400 . S
C417 C416 1.387 1_655 S
N418 Co409 2.022 1_556 S
N418 C415 1.351 1_455 S
N418 N419 1.365 . S
N419 C416 1.341 . S
N419 N418 1.365 . S
N419 H439 0.862 . S
C420 C415 1.501 . S
C420 H421 0.961 . S
C420 H422 0.961 1_556 S
C420 H423 0.960 . S
H421 C420 0.961 . S
H422 C420 0.961 1_554 S
H423 C420 0.960 . S
C424 N425 1.342 . S
C424 C428 1.401 . S
C424 C429 1.499 . S
N425 Co408 1.996 . S
N425 C424 1.342 . S
N425 N426 1.388 . S
N426 Co409 1.993 . S
N426 N425 1.388 . S
N426 C427 1.346 . S
C427 N426 1.346 . S
C427 C428 1.396 . S
C427 C437 1.510 . S
C428 C424 1.401 . S
C428 C427 1.396 . S
C429 C424 1.499 . S
C429 H430 0.959 . S
C429 H431 0.960 . S
C429 H432 0.961 . S
H430 C429 0.959 . S
H431 C429 0.960 . S
H432 C429 0.961 . S
O433 Co408 1.976 . S
O433 C441 1.258 . S
O434 Co409 1.941 1_556 S
O434 C441 1.266 1_556 S
H435 C437 0.959 . S
H436 C437 0.961 . S
C437 C427 1.510 . S
C437 H435 0.959 . S
C437 H436 0.961 . S
C437 H438 0.960 . S
H438 C437 0.960 . S
H439 N419 0.862 . S
O440 Co408 1.923 . S
O440 C413 1.289 1_455 S
C441 O433 1.258 . S
C441 O434 1.266 1_554 S
Co442 O445 1.985 . S
Co442 N459 1.983 1_565 S
Co442 O467 1.959 1_565 S
Co442 O474 1.918 1_565 S
Co443 O446 1.966 1_545 S
Co443 N452 2.022 1_554 S
Co443 N460 1.993 . S
Co443 O468 1.941 1_554 S
C444 O445 1.258 . S
C444 O446 1.263 . S
O445 Co442 1.985 . S
O445 C444 1.258 . S
O446 Co443 1.966 1_565 S
O446 C444 1.263 . S
C447 O448 1.235 . S
C447 O474 1.289 1_565 S
O448 C447 1.235 . S
C449 C451 1.400 . S
C449 N452 1.351 1_565 S
C449 C454 1.501 . S
C450 C451 1.387 1_545 S
C450 N453 1.341 . S
C451 C449 1.400 . S
C451 C450 1.387 1_565 S
N452 Co443 2.022 1_556 S
N452 C449 1.351 1_545 S
N452 N453 1.365 . S
N453 C450 1.341 . S
N453 N452 1.365 . S
N453 H473 0.862 . S
C454 C449 1.501 . S
C454 H455 0.961 . S
C454 H456 0.961 . S
C454 H457 0.960 . S
H455 C454 0.961 . S
H456 C454 0.961 . S
H457 C454 0.960 . S
C458 N459 1.342 . S
C458 C462 1.401 . S
C458 C463 1.499 . S
N459 Co442 1.983 1_545 S
N459 C458 1.342 . S
N459 N460 1.388 . S
N460 Co443 1.993 . S
N460 N459 1.388 . S
N460 C461 1.346 . S
C461 N460 1.346 . S
C461 C462 1.396 . S
C461 C471 1.510 . S
C462 C458 1.401 . S
C462 C461 1.396 . S
C463 C458 1.499 . S
C463 H464 0.959 . S
C463 H465 0.960 . S
C463 H466 0.961 . S
H464 C463 0.959 . S
H465 C463 0.960 . S
H466 C463 0.961 . S
O467 Co442 1.959 1_545 S
O467 C475 1.258 . S
O468 Co443 1.941 1_556 S
O468 C475 1.266 1_556 S
H469 C471 0.959 . S
H470 C471 0.961 . S
C471 C461 1.510 . S
C471 H469 0.959 . S
C471 H470 0.961 . S
C471 H472 0.960 . S
H472 C471 0.960 . S
H473 N453 0.862 . S
O474 Co442 1.918 1_545 S
O474 C447 1.289 1_545 S
C475 O467 1.258 . S
C475 O468 1.266 1_554 S
Co476 O479 1.970 . S
Co476 N493 1.989 . S
Co476 O501 1.967 . S
Co476 O508 1.920 . S
Co477 O480 1.966 . S
Co477 N486 2.022 1_554 S
Co477 N494 1.993 . S
Co477 O502 1.941 1_554 S
C478 O479 1.258 . S
C478 O480 1.263 . S
O479 Co476 1.970 . S
O479 C478 1.258 . S
O480 Co477 1.966 . S
O480 C478 1.263 . S
C481 O482 1.235 . S
C481 O508 1.289 . S
O482 C481 1.235 . S
C483 C485 1.400 . S
C483 N486 1.351 . S
C483 C488 1.501 . S
C484 C485 1.387 . S
C484 N487 1.341 . S
C485 C483 1.400 . S
C485 C484 1.387 . S
N486 Co477 2.022 1_556 S
N486 C483 1.351 . S
N486 N487 1.365 . S
N487 C484 1.341 . S
N487 N486 1.365 . S
N487 H507 0.862 . S
C488 C483 1.501 . S
C488 H489 0.961 . S
C488 H490 0.961 . S
C488 H491 0.960 . S
H489 C488 0.961 . S
H490 C488 0.961 . S
H491 C488 0.960 . S
C492 N493 1.342 . S
C492 C496 1.401 . S
C492 C497 1.499 . S
N493 Co476 1.989 . S
N493 C492 1.342 . S
N493 N494 1.388 . S
N494 Co477 1.993 . S
N494 N493 1.388 . S
N494 C495 1.346 . S
C495 N494 1.346 . S
C495 C496 1.396 . S
C495 C505 1.510 . S
C496 C492 1.401 . S
C496 C495 1.396 . S
C497 C492 1.499 . S
C497 H498 0.959 . S
C497 H499 0.960 . S
C497 H500 0.961 . S
H498 C497 0.959 . S
H499 C497 0.960 . S
H500 C497 0.961 . S
O501 Co476 1.967 . S
O501 C509 1.258 . S
O502 Co477 1.941 1_556 S
O502 C509 1.266 1_556 S
H503 C505 0.959 . S
H504 C505 0.961 . S
C505 C495 1.510 . S
C505 H503 0.959 . S
C505 H504 0.961 . S
C505 H506 0.960 . S
H506 C505 0.960 . S
H507 N487 0.862 . S
O508 Co476 1.920 . S
O508 C481 1.289 . S
C509 O501 1.258 . S
C509 O502 1.266 1_554 S
Co510 O513 1.970 . S
Co510 N527 1.989 . S
Co510 O535 1.967 . S
Co510 O542 1.920 . S
Co511 O514 1.966 . S
Co511 N520 2.022 1_554 S
Co511 N528 1.993 . S
Co511 O536 1.941 1_554 S
C512 O513 1.258 . S
C512 O514 1.263 . S
O513 Co510 1.970 . S
O513 C512 1.258 . S
O514 Co511 1.966 . S
O514 C512 1.263 . S
C515 O516 1.235 . S
C515 O542 1.289 . S
O516 C515 1.235 . S
C517 C519 1.400 . S
C517 N520 1.351 . S
C517 C522 1.501 . S
C518 C519 1.387 . S
C518 N521 1.341 . S
C519 C517 1.400 . S
C519 C518 1.387 . S
N520 Co511 2.022 1_556 S
N520 C517 1.351 . S
N520 N521 1.365 . S
N521 C518 1.341 . S
N521 N520 1.365 . S
N521 H541 0.862 . S
C522 C517 1.501 . S
C522 H523 0.961 . S
C522 H524 0.961 1_556 S
C522 H525 0.960 . S
H523 C522 0.961 . S
H524 C522 0.961 1_554 S
H525 C522 0.960 . S
C526 N527 1.342 . S
C526 C530 1.401 . S
C526 C531 1.499 . S
N527 Co510 1.989 . S
N527 C526 1.342 . S
N527 N528 1.388 . S
N528 Co511 1.993 . S
N528 N527 1.388 . S
N528 C529 1.346 . S
C529 N528 1.346 . S
C529 C530 1.396 . S
C529 C539 1.510 . S
C530 C526 1.401 . S
C530 C529 1.396 . S
C531 C526 1.499 . S
C531 H532 0.959 . S
C531 H533 0.960 . S
C531 H534 0.961 . S
H532 C531 0.959 . S
H533 C531 0.960 . S
H534 C531 0.961 . S
O535 Co510 1.967 . S
O535 C543 1.258 . S
O536 Co511 1.941 1_556 S
O536 C543 1.266 1_556 S
H537 C539 0.959 . S
H538 C539 0.961 . S
C539 C529 1.510 . S
C539 H537 0.959 . S
C539 H538 0.961 . S
C539 H540 0.960 . S
H540 C539 0.960 . S
H541 N521 0.862 . S
O542 Co510 1.920 . S
O542 C515 1.289 . S
C543 O535 1.258 . S
C543 O536 1.266 1_554 S
C544 C545 1.363 1_655 S
C544 C550 1.379 1_645 S
C544 N552 1.356 1_545 S
C545 C544 1.363 1_455 S
C545 C551 1.363 . S
C546 C547 1.363 . S
C546 C551 1.379 . S
C546 N553 1.356 . S
C547 C546 1.363 . S
C547 C550 1.363 1_545 S
N548 C550 1.356 1_655 S
N548 H560 0.984 . S
N548 H561 0.985 1_655 S
N549 C551 1.356 . S
N549 H554 0.984 . S
N549 H555 0.985 . S
C550 C544 1.379 1_465 S
C550 C547 1.363 1_565 S
C550 N548 1.356 1_455 S
C551 C545 1.363 . S
C551 C546 1.379 . S
C551 N549 1.356 . S
N552 C544 1.356 1_565 S
N552 H558 0.984 . S
N552 H559 0.984 1_565 S
N553 C546 1.356 . S
N553 H556 0.984 . S
N553 H557 0.985 . S
H554 N549 0.984 . S
H555 N549 0.985 . S
H556 N553 0.984 . S
H557 N553 0.985 . S
H558 N552 0.984 . S
H559 N552 0.984 1_545 S
H560 N548 0.984 . S
H561 N548 0.985 1_455 S
C562 C563 1.363 1_565 S
C562 C568 1.379 1_565 S
C562 N570 1.356 . S
C563 C562 1.363 1_545 S
C563 C569 1.363 . S
C564 C565 1.363 . S
C564 C569 1.379 . S
C564 N571 1.356 . S
C565 C564 1.363 . S
C565 C568 1.363 . S
N566 C568 1.356 1_565 S
N566 H578 0.984 . S
N566 H579 0.985 1_565 S
N567 C569 1.356 . S
N567 H572 0.984 . S
N567 H573 0.985 . S
C568 C562 1.379 1_545 S
C568 C565 1.363 . S
C568 N566 1.356 1_545 S
C569 C563 1.363 . S
C569 C564 1.379 . S
C569 N567 1.356 . S
N570 C562 1.356 . S
N570 H576 0.984 . S
N570 H577 0.984 . S
N571 C564 1.356 . S
N571 H574 0.984 . S
N571 H575 0.985 . S
H572 N567 0.984 . S
H573 N567 0.985 . S
H574 N571 0.984 . S
H575 N571 0.985 . S
H576 N570 0.984 . S
H577 N570 0.984 . S
H578 N566 0.984 . S
H579 N566 0.985 1_545 S
C580 C581 1.363 . S
C580 C586 1.379 . S
C580 N588 1.356 . S
C581 C580 1.363 . S
C581 C587 1.363 . S
C582 C583 1.363 . S
C582 C587 1.379 . S
C582 N589 1.356 . S
C583 C582 1.363 . S
C583 C586 1.363 . S
N584 C586 1.356 . S
N584 H596 0.984 . S
N584 H597 0.985 . S
N585 C587 1.356 . S
N585 H590 0.984 . S
N585 H591 0.985 . S
C586 C580 1.379 . S
C586 C583 1.363 . S
C586 N584 1.356 . S
C587 C581 1.363 . S
C587 C582 1.379 . S
C587 N585 1.356 . S
N588 C580 1.356 . S
N588 H594 0.984 . S
N588 H595 0.984 . S
N589 C582 1.356 . S
N589 H592 0.984 . S
N589 H593 0.985 . S
H590 N585 0.984 . S
H591 N585 0.985 . S
H592 N589 0.984 . S
H593 N589 0.985 . S
H594 N588 0.984 . S
H595 N588 0.984 . S
H596 N584 0.984 . S
H597 N584 0.985 . S
C598 C599 1.363 . S
C598 C604 1.379 . S
C598 N606 1.356 . S
C599 C598 1.363 . S
C599 C605 1.363 1_455 S
C600 C601 1.363 . S
C600 C605 1.379 1_455 S
C600 N607 1.356 . S
C601 C600 1.363 . S
C601 C604 1.363 . S
N602 C604 1.356 . S
N602 H614 0.984 . S
N602 H615 0.985 . S
N603 C605 1.356 . S
N603 H608 0.984 . S
N603 H609 0.985 . S
C604 C598 1.379 . S
C604 C601 1.363 . S
C604 N602 1.356 . S
C605 C599 1.363 1_655 S
C605 C600 1.379 1_655 S
C605 N603 1.356 . S
N606 C598 1.356 . S
N606 H612 0.984 . S
N606 H613 0.984 . S
N607 C600 1.356 . S
N607 H610 0.984 . S
N607 H611 0.985 1_455 S
H608 N603 0.984 . S
H609 N603 0.985 . S
H610 N607 0.984 . S
H611 N607 0.985 1_655 S
H612 N606 0.984 . S
H613 N606 0.984 . S
H614 N602 0.984 . S
H615 N602 0.985 . S
C616 C617 1.363 1_545 S
C616 C622 1.379 . S
C616 N624 1.356 . S
C617 C616 1.363 1_565 S
C617 C623 1.363 . S
C618 C619 1.363 . S
C618 C623 1.379 . S
C618 N625 1.356 . S
C619 C618 1.363 . S
C619 C622 1.363 1_565 S
N620 C622 1.356 . S
N620 H632 0.984 . S
N620 H633 0.985 . S
N621 C623 1.356 . S
N621 H626 0.984 . S
N621 H627 0.985 . S
C622 C616 1.379 . S
C622 C619 1.363 1_545 S
C622 N620 1.356 . S
C623 C617 1.363 . S
C623 C618 1.379 . S
C623 N621 1.356 . S
N624 C616 1.356 . S
N624 H630 0.984 . S
N624 H631 0.984 . S
N625 C618 1.356 . S
N625 H628 0.984 . S
N625 H629 0.985 . S
H626 N621 0.984 . S
H627 N621 0.985 . S
H628 N625 0.984 . S
H629 N625 0.985 . S
H630 N624 0.984 . S
H631 N624 0.984 . S
H632 N620 0.984 . S
H633 N620 0.985 . S
C634 C635 1.363 1_545 S
C634 C640 1.379 1_545 S
C634 N642 1.356 . S
C635 C634 1.363 1_565 S
C635 C641 1.363 . S
C636 C637 1.363 . S
C636 C641 1.379 . S
C636 N643 1.356 . S
C637 C636 1.363 . S
C637 C640 1.363 . S
N638 C640 1.356 1_545 S
N638 H650 0.984 . S
N638 H651 0.985 1_545 S
N639 C641 1.356 . S
N639 H644 0.984 . S
N639 H645 0.985 . S
C640 C634 1.379 1_565 S
C640 C637 1.363 . S
C640 N638 1.356 1_565 S
C641 C635 1.363 . S
C641 C636 1.379 . S
C641 N639 1.356 . S
N642 C634 1.356 . S
N642 H648 0.984 . S
N642 H649 0.984 . S
N643 C636 1.356 . S
N643 H646 0.984 . S
N643 H647 0.985 . S
H644 N639 0.984 . S
H645 N639 0.985 . S
H646 N643 0.984 . S
H647 N643 0.985 . S
H648 N642 0.984 . S
H649 N642 0.984 . S
H650 N638 0.984 . S
H651 N638 0.985 1_565 S
C652 C653 1.363 . S
C652 C658 1.379 . S
C652 N660 1.356 . S
C653 C652 1.363 . S
C653 C659 1.363 . S
C654 C655 1.363 . S
C654 C659 1.379 . S
C654 N661 1.356 . S
C655 C654 1.363 . S
C655 C658 1.363 . S
N656 C658 1.356 . S
N656 H668 0.984 . S
N656 H669 0.985 . S
N657 C659 1.356 . S
N657 H662 0.984 . S
N657 H663 0.985 . S
C658 C652 1.379 . S
C658 C655 1.363 . S
C658 N656 1.356 . S
C659 C653 1.363 . S
C659 C654 1.379 . S
C659 N657 1.356 . S
N660 C652 1.356 . S
N660 H666 0.984 . S
N660 H667 0.984 . S
N661 C654 1.356 . S
N661 H664 0.984 . S
N661 H665 0.985 . S
H662 N657 0.984 . S
H663 N657 0.985 . S
H664 N661 0.984 . S
H665 N661 0.985 . S
H666 N660 0.984 . S
H667 N660 0.984 . S
H668 N656 0.984 . S
H669 N656 0.985 . S
C670 C671 1.363 . S
C670 C676 1.379 . S
C670 N678 1.356 . S
C671 C670 1.363 . S
C671 C677 1.363 . S
C672 C673 1.363 . S
C672 C677 1.379 . S
C672 N679 1.356 1_655 S
C673 C672 1.363 . S
C673 C676 1.363 . S
N674 C676 1.356 . S
N674 H686 0.984 . S
N674 H687 0.985 . S
N675 C677 1.356 . S
N675 H680 0.984 . S
N675 H681 0.993 . S
C676 C670 1.379 . S
C676 C673 1.363 . S
C676 N674 1.356 . S
C677 C671 1.363 . S
C677 C672 1.379 . S
C677 N675 1.356 . S
N678 C670 1.356 . S
N678 H684 0.984 . S
N678 H685 0.984 . S
N679 C672 1.356 1_455 S
N679 H682 0.984 . S
N679 H683 0.985 . S
H680 N675 0.984 . S
H681 N675 0.993 . S
H682 N679 0.984 . S
H683 N679 0.985 . S
H684 N678 0.984 . S
H685 N678 0.984 . S
H686 N674 0.984 . S
H687 N674 0.985 . S
C688 C689 1.363 . S
C688 C694 1.379 1_565 S
C688 N696 1.356 . S
C689 C688 1.363 . S
C689 C695 1.363 1_455 S
C690 C691 1.363 . S
C690 C695 1.379 1_545 S
C690 N697 1.356 . S
C691 C690 1.363 . S
C691 C694 1.363 1_655 S
N692 C694 1.356 1_655 S
N692 H704 0.984 1_655 S
N692 H705 0.985 . S
N693 C695 1.356 1_455 S
N693 H698 0.984 . S
N693 H699 0.985 1_455 S
C694 C688 1.379 1_545 S
C694 C691 1.363 1_455 S
C694 N692 1.356 1_455 S
C695 C689 1.363 1_655 S
C695 C690 1.379 1_565 S
C695 N693 1.356 1_655 S
N696 C688 1.356 . S
N696 H702 0.984 . S
N696 H703 0.984 . S
N697 C690 1.356 . S
N697 H700 0.984 . S
N697 H701 0.985 . S
H698 N693 0.984 . S
H699 N693 0.985 1_655 S
H700 N697 0.984 . S
H701 N697 0.985 . S
H702 N696 0.984 . S
H703 N696 0.984 . S
H704 N692 0.984 1_455 S
H705 N692 0.985 . S
C706 C707 1.363 1_565 S
C706 C712 1.379 . S
C706 N714 1.356 1_565 S
C707 C706 1.363 1_545 S
C707 C713 1.363 . S
C708 C709 1.363 1_545 S
C708 C713 1.379 . S
C708 N715 1.356 1_545 S
C709 C708 1.363 1_565 S
C709 C712 1.363 . S
N710 C712 1.356 . S
N710 H722 0.984 . S
N710 H723 0.985 . S
N711 C713 1.356 . S
N711 H716 0.984 . S
N711 H717 0.985 . S
C712 C706 1.379 . S
C712 C709 1.363 . S
C712 N710 1.356 . S
C713 C707 1.363 . S
C713 C708 1.379 . S
C713 N711 1.356 . S
N714 C706 1.356 1_545 S
N714 H720 0.984 1_545 S
N714 H721 0.984 . S
N715 C708 1.356 1_565 S
N715 H718 0.984 . S
N715 H719 0.985 1_565 S
H716 N711 0.984 . S
H717 N711 0.985 . S
H718 N715 0.984 . S
H719 N715 0.985 1_545 S
H720 N714 0.984 1_565 S
H721 N714 0.984 . S
H722 N710 0.984 . S
H723 N710 0.985 . S
C724 C725 1.363 . S
C724 C730 1.379 . S
C724 N732 1.356 . S
C725 C724 1.363 . S
C725 C731 1.363 . S
C726 C727 1.363 . S
C726 C731 1.379 . S
C726 N733 1.356 . S
C727 C726 1.363 . S
C727 C730 1.363 . S
N728 C730 1.356 . S
N728 H740 0.984 . S
N728 H741 0.985 . S
N729 C731 1.356 . S
N729 H734 0.984 . S
N729 H735 0.985 . S
C730 C724 1.379 . S
C730 C727 1.363 . S
C730 N728 1.356 . S
C731 C725 1.363 . S
C731 C726 1.379 . S
C731 N729 1.356 . S
N732 C724 1.356 . S
N732 H738 0.984 . S
N732 H739 0.984 . S
N733 C726 1.356 . S
N733 H736 0.984 . S
N733 H737 0.985 . S
H734 N729 0.984 . S
H735 N729 0.985 . S
H736 N733 0.984 . S
H737 N733 0.985 . S
H738 N732 0.984 . S
H739 N732 0.984 . S
H740 N728 0.984 . S
H741 N728 0.985 . S
C742 C743 1.363 . S
C742 C748 1.379 . S
C742 N750 1.356 . S
C743 C742 1.363 . S
C743 C749 1.363 1_655 S
C744 C745 1.363 . S
C744 C749 1.379 . S
C744 N751 1.356 . S
C745 C744 1.363 . S
C745 C748 1.363 1_455 S
N746 C748 1.356 1_455 S
N746 H758 0.984 1_455 S
N746 H759 0.985 . S
N747 C749 1.356 1_655 S
N747 H752 0.984 . S
N747 H753 0.985 1_655 S
C748 C742 1.379 . S
C748 C745 1.363 1_655 S
C748 N746 1.356 1_655 S
C749 C743 1.363 1_455 S
C749 C744 1.379 . S
C749 N747 1.356 1_455 S
N750 C742 1.356 . S
N750 H756 0.984 . S
N750 H757 0.984 . S
N751 C744 1.356 . S
N751 H754 0.984 . S
N751 H755 0.985 . S
H752 N747 0.984 . S
H753 N747 0.985 1_455 S
H754 N751 0.984 . S
H755 N751 0.985 . S
H756 N750 0.984 . S
H757 N750 0.984 . S
H758 N746 0.984 1_655 S
H759 N746 0.985 . S
C760 C761 1.340 1_456 S
C760 C766 1.395 . S
C760 N768 1.352 1_455 S
C761 C760 1.340 1_654 S
C761 C767 1.369 . S
C762 C763 1.345 1_654 S
C762 C767 1.390 . S
C762 N769 1.353 1_655 S
C763 C762 1.345 1_456 S
C763 C766 1.369 . S
N764 C766 1.356 . S
N764 H776 0.984 . S
N764 H777 0.985 . S
N765 C767 1.356 . S
N765 H770 0.984 . S
N765 H771 0.985 . S
C766 C760 1.395 . S
C766 C763 1.369 . S
C766 N764 1.356 . S
C767 C761 1.369 . S
C767 C762 1.390 . S
C767 N765 1.356 . S
N768 C760 1.352 1_655 S
N768 H774 0.984 1_655 S
N768 H775 0.984 . S
N769 C762 1.353 1_455 S
N769 H772 0.984 . S
N769 H773 0.985 1_455 S
H770 N765 0.984 . S
H771 N765 0.985 . S
H772 N769 0.984 . S
H773 N769 0.985 1_655 S
H774 N768 0.984 1_455 S
H775 N768 0.984 . S
H776 N764 0.984 . S
H777 N764 0.985 . S
C778 C779 1.363 . S
C778 C784 1.379 1_455 S
C778 N786 1.356 . S
C779 C778 1.363 . S
C779 C785 1.363 1_564 S
C780 C781 1.363 . S
C780 C785 1.379 1_655 S
C780 N787 1.356 . S
C781 C780 1.363 . S
C781 C784 1.363 1_546 S
N782 C784 1.356 1_545 S
N782 H794 0.984 1_545 S
N782 H795 0.985 . S
N783 C785 1.356 1_565 S
N783 H788 0.984 . S
N783 H789 0.985 1_565 S
C784 C778 1.379 1_655 S
C784 C781 1.363 1_564 S
C784 N782 1.356 1_565 S
C785 C779 1.363 1_546 S
C785 C780 1.379 1_455 S
C785 N783 1.356 1_545 S
N786 C778 1.356 . S
N786 H792 0.986 1_455 S
N786 H793 0.984 . S
N787 C780 1.356 . S
N787 H790 0.984 . S
N787 H791 0.986 1_655 S
H788 N783 0.984 . S
H789 N783 0.985 1_545 S
H790 N787 0.984 . S
H791 N787 0.986 1_455 S
H792 N786 0.986 1_655 S
H793 N786 0.984 . S
H794 N782 0.984 1_565 S
H795 N782 0.985 . S
C796 C797 1.363 1_556 S
C796 C802 1.379 . S
C796 N804 1.356 . S
C797 C796 1.363 1_554 S
C797 C803 1.363 1_545 S
C798 C799 1.363 1_554 S
C798 C803 1.379 . S
C798 N805 1.356 . S
C799 C798 1.363 1_556 S
C799 C802 1.363 1_565 S
N800 C802 1.356 1_565 S
N800 H812 0.984 1_565 S
N800 H813 0.985 . S
N801 C803 1.356 1_545 S
N801 H806 0.984 . S
N801 H807 0.985 1_545 S
C802 C796 1.379 . S
C802 C799 1.363 1_545 S
C802 N800 1.356 1_545 S
C803 C797 1.363 1_565 S
C803 C798 1.379 . S
C803 N801 1.356 1_565 S
N804 C796 1.356 . S
N804 H810 0.984 . S
N804 H811 0.984 . S
N805 C798 1.356 . S
N805 H808 0.984 . S
N805 H809 0.985 . S
H806 N801 0.984 . S
H807 N801 0.985 1_565 S
H808 N805 0.984 . S
H809 N805 0.985 . S
H810 N804 0.984 . S
H811 N804 0.984 . S
H812 N800 0.984 1_545 S
H813 N800 0.985 . S
C814 C815 1.363 . S
C814 C820 1.379 . S
C814 N822 1.356 . S
C815 C814 1.363 . S
C815 C821 1.363 1_554 S
C816 C817 1.363 . S
C816 C821 1.379 . S
C816 N823 1.356 . S
C817 C816 1.363 . S
C817 C820 1.363 1_556 S
N818 C820 1.356 . S
N818 H830 0.984 . S
N818 H831 0.985 . S
N819 C821 1.356 . S
N819 H824 0.984 . S
N819 H825 0.985 . S
C820 C814 1.379 . S
C820 C817 1.363 1_554 S
C820 N818 1.356 . S
C821 C815 1.363 1_556 S
C821 C816 1.379 . S
C821 N819 1.356 . S
N822 C814 1.356 . S
N822 H828 0.984 . S
N822 H829 0.984 . S
N823 C816 1.356 . S
N823 H826 0.984 . S
N823 H827 0.985 . S
H824 N819 0.984 . S
H825 N819 0.985 . S
H826 N823 0.984 . S
H827 N823 0.985 . S
H828 N822 0.984 . S
H829 N822 0.984 . S
H830 N818 0.984 . S
H831 N818 0.985 . S
C832 C833 1.363 . S
C832 C838 1.379 . S
C832 N840 1.356 . S
C833 C832 1.363 . S
C833 C839 1.363 . S
C834 C835 1.363 . S
C834 C839 1.379 . S
C834 N841 1.356 . S
C835 C834 1.363 . S
C835 C838 1.363 . S
N836 C838 1.356 . S
N836 H848 0.984 . S
N836 H849 0.985 . S
N837 C839 1.356 . S
N837 H842 0.984 . S
N837 H843 0.985 1_655 S
C838 C832 1.379 . S
C838 C835 1.363 . S
C838 N836 1.356 . S
C839 C833 1.363 . S
C839 C834 1.379 . S
C839 N837 1.356 . S
N840 C832 1.356 . S
N840 H846 0.984 . S
N840 H847 0.984 . S
N841 C834 1.356 . S
N841 H844 0.984 . S
N841 H845 0.985 1_655 S
H842 N837 0.984 . S
H843 N837 0.985 1_455 S
H844 N841 0.984 . S
H845 N841 0.985 1_455 S
H846 N840 0.984 . S
H847 N840 0.984 . S
H848 N836 0.984 . S
H849 N836 0.985 . S
C850 C851 1.363 . S
C850 C856 1.379 . S
C850 N858 1.356 . S
C851 C850 1.363 . S
C851 C857 1.363 . S
C852 C853 1.363 . S
C852 C857 1.379 . S
C852 N859 1.356 . S
C853 C852 1.363 . S
C853 C856 1.363 . S
N854 C856 1.356 . S
N854 H866 0.984 . S
N854 H867 0.985 . S
N855 C857 1.356 . S
N855 H860 0.984 . S
N855 H861 0.985 1_565 S
C856 C850 1.379 . S
C856 C853 1.363 . S
C856 N854 1.356 . S
C857 C851 1.363 . S
C857 C852 1.379 . S
C857 N855 1.356 . S
N858 C850 1.356 . S
N858 H864 0.984 . S
N858 H865 0.984 . S
N859 C852 1.356 . S
N859 H862 0.984 . S
N859 H863 0.985 1_565 S
H860 N855 0.984 . S
H861 N855 0.985 1_545 S
H862 N859 0.984 . S
H863 N859 0.985 1_545 S
H864 N858 0.984 . S
H865 N858 0.984 . S
H866 N854 0.984 . S
H867 N854 0.985 . S
C868 C869 1.363 . S
C868 C874 1.379 . S
C868 N876 1.356 . S
C869 C868 1.363 . S
C869 C875 1.363 . S
C870 C871 1.363 . S
C870 C875 1.379 . S
C870 N877 1.356 . S
C871 C870 1.363 . S
C871 C874 1.363 . S
N872 C874 1.356 . S
N872 H884 0.984 . S
N872 H885 0.985 . S
N873 C875 1.356 . S
N873 H878 0.984 . S
N873 H879 0.985 . S
C874 C868 1.379 . S
C874 C871 1.363 . S
C874 N872 1.356 . S
C875 C869 1.363 . S
C875 C870 1.379 . S
C875 N873 1.356 . S
N876 C868 1.356 . S
N876 H882 0.984 . S
N876 H883 0.984 . S
N877 C870 1.356 . S
N877 H880 0.984 . S
N877 H881 0.985 . S
H878 N873 0.984 . S
H879 N873 0.985 . S
H880 N877 0.984 . S
H881 N877 0.985 . S
H882 N876 0.984 . S
H883 N876 0.984 . S
H884 N872 0.984 . S
H885 N872 0.985 . S
C886 C887 1.363 . S
C886 C892 1.379 . S
C886 N894 1.356 . S
C887 C886 1.363 . S
C887 C893 1.363 . S
C888 C889 1.363 . S
C888 C893 1.379 . S
C888 N895 1.356 . S
C889 C888 1.363 . S
C889 C892 1.363 . S
N890 C892 1.356 . S
N890 H902 0.984 . S
N890 H903 0.985 . S
N891 C893 1.356 . S
N891 H896 0.984 . S
N891 H897 0.985 . S
C892 C886 1.379 . S
C892 C889 1.363 . S
C892 N890 1.356 . S
C893 C887 1.363 . S
C893 C888 1.379 . S
C893 N891 1.356 . S
N894 C886 1.356 . S
N894 H900 0.984 . S
N894 H901 0.984 . S
N895 C888 1.356 . S
N895 H898 0.984 . S
N895 H899 0.985 . S
H896 N891 0.984 . S
H897 N891 0.985 . S
H898 N895 0.984 . S
H899 N895 0.985 . S
H900 N894 0.984 . S
H901 N894 0.984 . S
H902 N890 0.984 . S
H903 N890 0.985 . S
C904 C905 1.363 . S
C904 C910 1.379 . S
C904 N912 1.356 . S
C905 C904 1.363 . S
C905 C911 1.363 . S
C906 C907 1.363 . S
C906 C911 1.379 . S
C906 N913 1.356 . S
C907 C906 1.363 . S
C907 C910 1.363 . S
N908 C910 1.356 . S
N908 H920 0.984 . S
N908 H921 0.985 . S
N909 C911 1.356 . S
N909 H914 0.984 . S
N909 H915 0.985 1_455 S
C910 C904 1.379 . S
C910 C907 1.363 . S
C910 N908 1.356 . S
C911 C905 1.363 . S
C911 C906 1.379 . S
C911 N909 1.356 . S
N912 C904 1.356 . S
N912 H918 0.984 . S
N912 H919 0.984 . S
N913 C906 1.356 . S
N913 H916 0.984 . S
N913 H917 0.985 1_455 S
H914 N909 0.984 . S
H915 N909 0.985 1_655 S
H916 N913 0.984 . S
H917 N913 0.985 1_655 S
H918 N912 0.984 . S
H919 N912 0.984 . S
H920 N908 0.984 . S
H921 N908 0.985 . S
C922 C923 1.363 . S
C922 C928 1.379 . S
C922 N930 1.356 . S
C923 C922 1.363 . S
C923 C929 1.363 . S
C924 C925 1.363 . S
C924 C929 1.379 . S
C924 N931 1.356 . S
C925 C924 1.363 . S
C925 C928 1.363 . S
N926 C928 1.356 . S
N926 H938 0.984 1_545 S
N926 H939 0.985 . S
N927 C929 1.356 . S
N927 H932 0.984 . S
N927 H933 0.985 . S
C928 C922 1.379 . S
C928 C925 1.363 . S
C928 N926 1.356 . S
C929 C923 1.363 . S
C929 C924 1.379 . S
C929 N927 1.356 . S
N930 C922 1.356 . S
N930 H936 0.984 1_545 S
N930 H937 0.984 . S
N931 C924 1.356 . S
N931 H934 0.984 . S
N931 H935 0.985 . S
H932 N927 0.984 . S
H933 N927 0.985 . S
H934 N931 0.984 . S
H935 N931 0.985 . S
H936 N930 0.984 1_565 S
H937 N930 0.984 . S
H938 N926 0.984 1_565 S
H939 N926 0.985 . S
C940 C941 1.363 . S
C940 C946 1.379 . S
C940 N948 1.356 . S
C941 C940 1.363 . S
C941 C947 1.363 . S
C942 C943 1.363 . S
C942 C947 1.379 . S
C942 N949 1.356 . S
C943 C942 1.363 . S
C943 C946 1.363 . S
N944 C946 1.356 . S
N944 H956 0.984 . S
N944 H957 0.985 . S
N945 C947 1.356 . S
N945 H950 0.984 . S
N945 H951 0.985 . S
C946 C940 1.379 . S
C946 C943 1.363 . S
C946 N944 1.356 . S
C947 C941 1.363 . S
C947 C942 1.379 . S
C947 N945 1.356 . S
N948 C940 1.356 . S
N948 H954 0.984 . S
N948 H955 0.984 . S
N949 C942 1.356 . S
N949 H952 0.984 . S
N949 H953 0.985 . S
H950 N945 0.984 . S
H951 N945 0.985 . S
H952 N949 0.984 . S
H953 N949 0.985 . S
H954 N948 0.984 . S
H955 N948 0.984 . S
H956 N944 0.984 . S
H957 N944 0.985 . S
C958 C959 1.363 . S
C958 C964 1.379 . S
C958 N966 1.356 . S
C959 C958 1.363 . S
C959 C965 1.363 . S
C960 C961 1.363 . S
C960 C965 1.379 . S
C960 N967 1.356 . S
C961 C960 1.363 . S
C961 C964 1.363 . S
N962 C964 1.356 . S
N962 H974 0.984 . S
N962 H975 0.985 . S
N963 C965 1.356 . S
N963 H968 0.984 . S
N963 H969 0.985 . S
C964 C958 1.379 . S
C964 C961 1.363 . S
C964 N962 1.356 . S
C965 C959 1.363 . S
C965 C960 1.379 . S
C965 N963 1.356 . S
N966 C958 1.356 . S
N966 H972 0.984 . S
N966 H973 0.984 . S
N967 C960 1.356 . S
N967 H970 0.984 . S
N967 H971 0.985 . S
H968 N963 0.984 . S
H969 N963 0.985 . S
H970 N967 0.984 . S
H971 N967 0.985 . S
H972 N966 0.984 . S
H973 N966 0.984 . S
H974 N962 0.984 . S
H975 N962 0.985 . S
C976 C977 1.363 . S
C976 C982 1.379 . S
C976 N984 1.356 . S
C977 C976 1.363 . S
C977 C983 1.363 . S
C978 C979 1.363 . S
C978 C983 1.379 . S
C978 N985 1.356 . S
C979 C978 1.363 . S
C979 C982 1.363 . S
N980 C982 1.356 . S
N980 H992 0.984 . S
N980 H993 0.985 . S
N981 C983 1.356 1_565 S
N981 H986 0.984 . S
N981 H987 0.985 . S
C982 C976 1.379 . S
C982 C979 1.363 . S
C982 N980 1.356 . S
C983 C977 1.363 . S
C983 C978 1.379 . S
C983 N981 1.356 1_545 S
N984 C976 1.356 . S
N984 H990 0.984 . S
N984 H991 0.984 . S
N985 C978 1.356 . S
N985 H988 0.984 . S
N985 H989 0.985 . S
H986 N981 0.984 . S
H987 N981 0.985 . S
H988 N985 0.984 . S
H989 N985 0.985 . S
H990 N984 0.984 . S
H991 N984 0.984 . S
H992 N980 0.984 . S
H993 N980 0.985 . S
C994 C995 1.363 . S
C994 C1000 1.379 . S
C994 N1002 1.356 . S
C995 C994 1.363 . S
C995 C1001 1.363 . S
C996 C997 1.363 . S
C996 C1001 1.379 . S
C996 N1003 1.356 . S
C997 C996 1.363 . S
C997 C1000 1.363 . S
N998 C1000 1.356 . S
N998 H1010 0.984 . S
N998 H1011 0.985 . S
N999 C1001 1.356 . S
N999 H1004 0.984 . S
N999 H1005 0.985 . S
C1000 C994 1.379 . S
C1000 C997 1.363 . S
C1000 N998 1.356 . S
C1001 C995 1.363 . S
C1001 C996 1.379 . S
C1001 N999 1.356 . S
N1002 C994 1.356 . S
N1002 H1008 0.984 . S
N1002 H1009 0.984 . S
N1003 C996 1.356 . S
N1003 H1006 0.984 . S
N1003 H1007 0.985 . S
H1004 N999 0.984 . S
H1005 N999 0.985 . S
H1006 N1003 0.984 . S
H1007 N1003 0.985 . S
H1008 N1002 0.984 . S
H1009 N1002 0.984 . S
H1010 N998 0.984 . S
H1011 N998 0.985 . S
C1012 C1013 1.363 . S
C1012 C1018 1.379 . S
C1012 N1020 1.356 . S
C1013 C1012 1.363 . S
C1013 C1019 1.363 . S
C1014 C1015 1.363 . S
C1014 C1019 1.379 . S
C1014 N1021 1.356 . S
C1015 C1014 1.363 . S
C1015 C1018 1.363 . S
N1016 C1018 1.356 . S
N1016 H1028 0.984 . S
N1016 H1029 0.985 . S
N1017 C1019 1.356 . S
N1017 H1022 0.984 . S
N1017 H1023 0.985 . S
C1018 C1012 1.379 . S
C1018 C1015 1.363 . S
C1018 N1016 1.356 . S
C1019 C1013 1.363 . S
C1019 C1014 1.379 . S
C1019 N1017 1.356 . S
N1020 C1012 1.356 . S
N1020 H1026 0.984 . S
N1020 H1027 0.984 . S
N1021 C1014 1.356 . S
N1021 H1024 0.984 . S
N1021 H1025 0.985 . S
H1022 N1017 0.984 . S
H1023 N1017 0.985 . S
H1024 N1021 0.984 . S
H1025 N1021 0.985 . S
H1026 N1020 0.984 . S
H1027 N1020 0.984 . S
H1028 N1016 0.984 . S
H1029 N1016 0.985 . S
C1030 C1031 1.363 . S
C1030 C1036 1.379 . S
C1030 N1038 1.356 . S
C1031 C1030 1.363 . S
C1031 C1037 1.363 . S
C1032 C1033 1.363 . S
C1032 C1037 1.379 . S
C1032 N1039 1.356 . S
C1033 C1032 1.363 . S
C1033 C1036 1.363 . S
N1034 C1036 1.356 . S
N1034 H1046 0.984 . S
N1034 H1047 0.985 . S
N1035 C1037 1.356 . S
N1035 H1040 0.984 . S
N1035 H1041 0.985 . S
C1036 C1030 1.379 . S
C1036 C1033 1.363 . S
C1036 N1034 1.356 . S
C1037 C1031 1.363 . S
C1037 C1032 1.379 . S
C1037 N1035 1.356 . S
N1038 C1030 1.356 . S
N1038 H1044 0.984 . S
N1038 H1045 0.984 . S
N1039 C1032 1.356 . S
N1039 H1042 0.984 1_455 S
N1039 H1043 0.985 1_455 S
H1040 N1035 0.984 . S
H1041 N1035 0.985 . S
H1042 N1039 0.984 1_655 S
H1043 N1039 0.985 1_655 S
H1044 N1038 0.984 . S
H1045 N1038 0.984 . S
H1046 N1034 0.984 . S
H1047 N1034 0.985 . S
C1048 C1049 1.363 1_556 S
C1048 C1054 1.379 . S
C1048 N1056 1.356 . S
C1049 C1048 1.363 1_554 S
C1049 C1055 1.363 . S
C1050 C1051 1.363 1_554 S
C1050 C1055 1.379 . S
C1050 N1057 1.356 . S
C1051 C1050 1.363 1_556 S
C1051 C1054 1.363 . S
N1052 C1054 1.356 . S
N1052 H1064 0.984 . S
N1052 H1065 0.985 . S
N1053 C1055 1.356 . S
N1053 H1058 0.984 . S
N1053 H1059 0.985 . S
C1054 C1048 1.379 . S
C1054 C1051 1.363 . S
C1054 N1052 1.356 . S
C1055 C1049 1.363 . S
C1055 C1050 1.379 . S
C1055 N1053 1.356 . S
N1056 C1048 1.356 . S
N1056 H1062 0.984 . S
N1056 H1063 0.984 1_556 S
N1057 C1050 1.356 . S
N1057 H1060 0.984 1_554 S
N1057 H1061 0.985 . S
H1058 N1053 0.984 . S
H1059 N1053 0.985 . S
H1060 N1057 0.984 1_556 S
H1061 N1057 0.985 . S
H1062 N1056 0.984 . S
H1063 N1056 0.984 1_554 S
H1064 N1052 0.984 . S
H1065 N1052 0.985 . S
C1066 C1067 1.363 . S
C1066 C1072 1.379 . S
C1066 N1074 1.356 . S
C1067 C1066 1.363 . S
C1067 C1073 1.363 1_556 S
C1068 C1069 1.363 . S
C1068 C1073 1.379 . S
C1068 N1075 1.356 . S
C1069 C1068 1.363 . S
C1069 C1072 1.363 1_554 S
N1070 C1072 1.356 . S
N1070 H1082 0.984 . S
N1070 H1083 0.985 1_556 S
N1071 C1073 1.356 . S
N1071 H1076 0.984 . S
N1071 H1077 0.985 . S
C1072 C1066 1.379 . S
C1072 C1069 1.363 1_556 S
C1072 N1070 1.356 . S
C1073 C1067 1.363 1_554 S
C1073 C1068 1.379 . S
C1073 N1071 1.356 . S
N1074 C1066 1.356 . S
N1074 H1080 0.984 . S
N1074 H1081 0.984 . S
N1075 C1068 1.356 . S
N1075 H1078 0.979 1_455 S
N1075 H1079 0.991 . S
H1076 N1071 0.984 . S
H1077 N1071 0.985 . S
H1078 N1075 0.979 1_655 S
H1079 N1075 0.991 . S
H1080 N1074 0.984 . S
H1081 N1074 0.984 . S
H1082 N1070 0.984 . S
H1083 N1070 0.985 1_554 S
C1084 C1085 1.363 1_554 S
C1084 C1090 1.379 . S
C1084 N1092 1.356 . S
C1085 C1084 1.363 1_556 S
C1085 C1091 1.363 . S
C1086 C1087 1.363 . S
C1086 C1091 1.379 1_554 S
C1086 N1093 1.356 . S
C1087 C1086 1.363 . S
C1087 C1090 1.363 . S
N1088 C1090 1.356 1_565 S
N1088 H1100 0.984 . S
N1088 H1101 0.985 . S
N1089 C1091 1.356 . S
N1089 H1094 0.984 . S
N1089 H1095 0.985 . S
C1090 C1084 1.379 . S
C1090 C1087 1.363 . S
C1090 N1088 1.356 1_545 S
C1091 C1085 1.363 . S
C1091 C1086 1.379 1_556 S
C1091 N1089 1.356 . S
N1092 C1084 1.356 . S
N1092 H1098 0.984 . S
N1092 H1099 0.984 1_554 S
N1093 C1086 1.356 . S
N1093 H1096 0.984 . S
N1093 H1097 0.985 . S
H1094 N1089 0.984 . S
H1095 N1089 0.985 . S
H1096 N1093 0.984 . S
H1097 N1093 0.985 . S
H1098 N1092 0.984 . S
H1099 N1092 0.984 1_556 S
H1100 N1088 0.984 . S
H1101 N1088 0.985 . S
C1102 C1103 1.363 1_554 S
C1102 C1108 1.379 . S
C1102 N1110 1.356 . S
C1103 C1102 1.363 1_556 S
C1103 C1109 1.363 . S
C1104 C1105 1.363 1_556 S
C1104 C1109 1.379 . S
C1104 N1111 1.356 . S
C1105 C1104 1.363 1_554 S
C1105 C1108 1.363 . S
N1106 C1108 1.356 . S
N1106 H1118 0.984 . S
N1106 H1119 0.985 . S
N1107 C1109 1.356 . S
N1107 H1112 0.984 . S
N1107 H1113 0.985 . S
C1108 C1102 1.379 . S
C1108 C1105 1.363 . S
C1108 N1106 1.356 . S
C1109 C1103 1.363 . S
C1109 C1104 1.379 . S
C1109 N1107 1.356 . S
N1110 C1102 1.356 . S
N1110 H1116 0.984 . S
N1110 H1117 0.984 . S
N1111 C1104 1.356 . S
N1111 H1114 0.984 1_556 S
N1111 H1115 0.985 . S
H1112 N1107 0.984 . S
H1113 N1107 0.985 . S
H1114 N1111 0.984 1_554 S
H1115 N1111 0.985 . S
H1116 N1110 0.984 . S
H1117 N1110 0.984 . S
H1118 N1106 0.984 . S
H1119 N1106 0.985 . S
C1120 C1121 1.363 . S
C1120 C1126 1.379 . S
C1120 N1128 1.356 . S
C1121 C1120 1.363 . S
C1121 C1127 1.363 . S
C1122 C1123 1.363 . S
C1122 C1127 1.379 . S
C1122 N1129 1.356 . S
C1123 C1122 1.363 . S
C1123 C1126 1.363 . S
N1124 C1126 1.356 . S
N1124 H1136 0.984 . S
N1124 H1137 0.985 . S
N1125 C1127 1.356 . S
N1125 H1130 0.984 . S
N1125 H1131 0.985 . S
C1126 C1120 1.379 . S
C1126 C1123 1.363 . S
C1126 N1124 1.356 . S
C1127 C1121 1.363 . S
C1127 C1122 1.379 . S
C1127 N1125 1.356 . S
N1128 C1120 1.356 . S
N1128 H1134 0.984 . S
N1128 H1135 0.984 . S
N1129 C1122 1.356 . S
N1129 H1132 0.984 . S
N1129 H1133 0.985 . S
H1130 N1125 0.984 . S
H1131 N1125 0.985 . S
H1132 N1129 0.984 . S
H1133 N1129 0.985 . S
H1134 N1128 0.984 . S
H1135 N1128 0.984 . S
H1136 N1124 0.984 . S
H1137 N1124 0.985 . S
C1138 C1139 1.363 . S
C1138 C1144 1.379 . S
C1138 N1146 1.356 . S
C1139 C1138 1.363 . S
C1139 C1145 1.363 . S
C1140 C1141 1.363 . S
C1140 C1145 1.379 . S
C1140 N1147 1.356 . S
C1141 C1140 1.363 . S
C1141 C1144 1.363 . S
N1142 C1144 1.356 . S
N1142 H1154 0.984 . S
N1142 H1155 0.985 . S
N1143 C1145 1.356 . S
N1143 H1148 0.984 . S
N1143 H1149 0.985 . S
C1144 C1138 1.379 . S
C1144 C1141 1.363 . S
C1144 N1142 1.356 . S
C1145 C1139 1.363 . S
C1145 C1140 1.379 . S
C1145 N1143 1.356 . S
N1146 C1138 1.356 . S
N1146 H1152 0.984 . S
N1146 H1153 0.984 . S
N1147 C1140 1.356 . S
N1147 H1150 0.984 . S
N1147 H1151 0.985 . S
H1148 N1143 0.984 . S
H1149 N1143 0.985 . S
H1150 N1147 0.984 . S
H1151 N1147 0.985 . S
H1152 N1146 0.984 . S
H1153 N1146 0.984 . S
H1154 N1142 0.984 . S
H1155 N1142 0.985 . S
C1156 C1157 1.363 . S
C1156 C1162 1.379 . S
C1156 N1164 1.356 . S
C1157 C1156 1.363 . S
C1157 C1163 1.363 . S
C1158 C1159 1.363 . S
C1158 C1163 1.379 . S
C1158 N1165 1.356 . S
C1159 C1158 1.363 . S
C1159 C1162 1.363 . S
N1160 C1162 1.356 . S
N1160 H1172 0.984 . S
N1160 H1173 0.985 . S
N1161 C1163 1.356 . S
N1161 H1166 0.984 . S
N1161 H1167 0.985 . S
C1162 C1156 1.379 . S
C1162 C1159 1.363 . S
C1162 N1160 1.356 . S
C1163 C1157 1.363 . S
C1163 C1158 1.379 . S
C1163 N1161 1.356 . S
N1164 C1156 1.356 . S
N1164 H1170 0.984 . S
N1164 H1171 0.984 . S
N1165 C1158 1.356 . S
N1165 H1168 0.984 . S
N1165 H1169 0.985 . S
H1166 N1161 0.984 . S
H1167 N1161 0.985 . S
H1168 N1165 0.984 . S
H1169 N1165 0.985 . S
H1170 N1164 0.984 . S
H1171 N1164 0.984 . S
H1172 N1160 0.984 . S
H1173 N1160 0.985 . S
C1174 C1175 1.363 . S
C1174 C1180 1.379 . S
C1174 N1182 1.356 . S
C1175 C1174 1.363 . S
C1175 C1181 1.363 . S
C1176 C1177 1.363 . S
C1176 C1181 1.379 . S
C1176 N1183 1.356 . S
C1177 C1176 1.363 . S
C1177 C1180 1.363 . S
N1178 C1180 1.356 . S
N1178 H1190 0.978 1_655 S
N1178 H1191 0.985 1_655 S
N1179 C1181 1.356 . S
N1179 H1184 0.984 . S
N1179 H1185 0.985 . S
C1180 C1174 1.379 . S
C1180 C1177 1.363 . S
C1180 N1178 1.356 . S
C1181 C1175 1.363 . S
C1181 C1176 1.379 . S
C1181 N1179 1.356 . S
N1182 C1174 1.356 . S
N1182 H1188 0.984 . S
N1182 H1189 0.984 . S
N1183 C1176 1.356 . S
N1183 H1186 0.984 . S
N1183 H1187 0.985 . S
H1184 N1179 0.984 . S
H1185 N1179 0.985 . S
H1186 N1183 0.984 . S
H1187 N1183 0.985 . S
H1188 N1182 0.984 . S
H1189 N1182 0.984 . S
H1190 N1178 0.978 1_455 S
H1191 N1178 0.985 1_455 S
C1192 C1193 1.363 . S
C1192 C1198 1.379 1_554 S
C1192 N1200 1.356 . S
C1193 C1192 1.363 . S
C1193 C1199 1.363 . S
C1194 C1195 1.363 . S
C1194 C1199 1.379 1_556 S
C1194 N1201 1.356 . S
C1195 C1194 1.363 . S
C1195 C1198 1.363 . S
N1196 C1198 1.356 . S
N1196 H1208 0.984 . S
N1196 H1209 0.985 . S
N1197 C1199 1.356 . S
N1197 H1202 0.984 . S
N1197 H1203 0.985 . S
C1198 C1192 1.379 1_556 S
C1198 C1195 1.363 . S
C1198 N1196 1.356 . S
C1199 C1193 1.363 . S
C1199 C1194 1.379 1_554 S
C1199 N1197 1.356 . S
N1200 C1192 1.356 . S
N1200 H1206 0.984 . S
N1200 H1207 0.984 . S
N1201 C1194 1.356 . S
N1201 H1204 0.984 . S
N1201 H1205 0.985 . S
H1202 N1197 0.984 . S
H1203 N1197 0.985 . S
H1204 N1201 0.984 . S
H1205 N1201 0.985 . S
H1206 N1200 0.984 . S
H1207 N1200 0.984 . S
H1208 N1196 0.984 . S
H1209 N1196 0.985 . S
C1210 C1211 1.363 . S
C1210 C1216 1.379 . S
C1210 N1218 1.356 1_655 S
C1211 C1210 1.363 . S
C1211 C1217 1.363 . S
C1212 C1213 1.363 . S
C1212 C1217 1.379 1_554 S
C1212 N1219 1.356 . S
C1213 C1212 1.363 . S
C1213 C1216 1.363 1_554 S
N1214 C1216 1.356 . S
N1214 H1226 0.984 . S
N1214 H1227 0.985 1_556 S
N1215 C1217 1.356 . S
N1215 H1220 0.984 . S
N1215 H1221 0.985 1_556 S
C1216 C1210 1.379 . S
C1216 C1213 1.363 1_556 S
C1216 N1214 1.356 . S
C1217 C1211 1.363 . S
C1217 C1212 1.379 1_556 S
C1217 N1215 1.356 . S
N1218 C1210 1.356 1_455 S
N1218 H1224 0.984 . S
N1218 H1225 0.984 . S
N1219 C1212 1.356 . S
N1219 H1222 0.984 . S
N1219 H1223 0.985 . S
H1220 N1215 0.984 . S
H1221 N1215 0.985 1_554 S
H1222 N1219 0.984 . S
H1223 N1219 0.985 . S
H1224 N1218 0.984 . S
H1225 N1218 0.984 . S
H1226 N1214 0.984 . S
H1227 N1214 0.985 1_554 S
C1228 C1229 1.363 . S
C1228 C1234 1.379 . S
C1228 N1236 1.356 . S
C1229 C1228 1.363 . S
C1229 C1235 1.363 1_556 S
C1230 C1231 1.363 . S
C1230 C1235 1.379 . S
C1230 N1237 1.356 . S
C1231 C1230 1.363 . S
C1231 C1234 1.363 1_554 S
N1232 C1234 1.356 . S
N1232 H1244 0.984 . S
N1232 H1245 0.985 . S
N1233 C1235 1.362 . S
N1233 H1238 0.982 1_564 S
N1233 H1239 0.981 1_565 S
C1234 C1228 1.379 . S
C1234 C1231 1.363 1_556 S
C1234 N1232 1.356 . S
C1235 C1229 1.363 1_554 S
C1235 C1230 1.379 . S
C1235 N1233 1.362 . S
N1236 C1228 1.356 . S
N1236 H1242 0.984 . S
N1236 H1243 0.984 . S
N1237 C1230 1.356 . S
N1237 H1240 0.984 . S
N1237 H1241 0.985 . S
H1238 N1233 0.982 1_546 S
H1239 N1233 0.981 1_545 S
H1240 N1237 0.984 . S
H1241 N1237 0.985 . S
H1242 N1236 0.984 . S
H1243 N1236 0.984 . S
H1244 N1232 0.984 . S
H1245 N1232 0.985 . S
C1246 C1247 1.363 . S
C1246 C1252 1.379 . S
C1246 N1254 1.356 . S
C1247 C1246 1.363 . S
C1247 C1253 1.363 1_554 S
C1248 C1249 1.363 . S
C1248 C1253 1.379 . S
C1248 N1255 1.356 . S
C1249 C1248 1.363 . S
C1249 C1252 1.363 1_556 S
N1250 C1252 1.356 . S
N1250 H1262 0.984 . S
N1250 H1263 0.985 1_554 S
N1251 C1253 1.356 . S
N1251 H1256 0.984 . S
N1251 H1257 0.985 . S
C1252 C1246 1.379 . S
C1252 C1249 1.363 1_554 S
C1252 N1250 1.356 . S
C1253 C1247 1.363 1_556 S
C1253 C1248 1.379 . S
C1253 N1251 1.356 . S
N1254 C1246 1.356 . S
N1254 H1260 0.984 . S
N1254 H1261 0.984 . S
N1255 C1248 1.356 . S
N1255 H1258 0.984 . S
N1255 H1259 0.985 . S
H1256 N1251 0.984 . S
H1257 N1251 0.985 . S
H1258 N1255 0.984 . S
H1259 N1255 0.985 . S
H1260 N1254 0.984 . S
H1261 N1254 0.984 . S
H1262 N1250 0.984 . S
H1263 N1250 0.985 1_556 S
C545 C5 0.907 . S
C547 C175 0.905 . S
C563 C39 0.924 . S
C565 C209 0.920 . S
C581 C243 0.958 . S
C583 C73 0.958 . S
C599 C141 0.924 . S
C601 C107 0.920 . S
C617 C277 0.907 . S
C619 C447 0.905 . S
C635 C311 0.924 . S
C637 C481 0.920 . S
C653 C345 0.958 . S
C655 C515 0.958 . S
C671 C379 0.922 . S
C673 C413 0.924 . S
C689 C305 1.983 . S
C691 C33 1.981 . S
C707 C339 1.690 . S
C709 C67 1.688 . S
C725 C101 1.963 . S
C727 C373 1.963 . S
C743 C407 2.238 . S
C745 C135 2.238 . S
C761 C169 1.688 1_554 S
C763 C441 1.686 1_556 S
C779 C203 1.983 1_554 S
C781 C475 1.981 1_556 S
C797 C237 2.238 1_554 S
C799 C509 2.238 1_556 S
C815 C271 1.963 1_554 S
C817 C543 1.963 1_556 S
C833 C20 1.830 . S
C835 C156 1.832 . S
C851 C54 1.832 . S
C853 C190 1.830 . S
C869 C224 1.903 . S
C871 C88 1.902 . S
C887 C122 1.903 . S
C889 C258 1.902 . S
C905 C428 1.832 . S
C907 C292 1.830 . S
C923 C462 1.830 . S
C925 C326 1.832 . S
C941 C360 1.902 . S
C943 C496 1.903 . S
C959 C530 1.902 . S
C961 C394 1.903 . S
C977 C43 1.900 . S
C979 C2 1.967 . S
C995 C36 2.064 . S
C997 C77 1.998 . S
C1013 C70 2.269 . S
C1015 C111 2.188 . S
C1031 C104 2.151 . S
C1033 C9 2.062 . S
C1049 C247 2.000 . S
C1051 C138 2.061 . S
C1067 C172 1.972 . S
C1069 C145 1.896 . S
C1085 C206 2.151 . S
C1087 C179 2.061 . S
C1103 C240 2.269 . S
C1105 C213 2.188 . S
C1121 C274 1.972 . S
C1123 C315 1.896 . S
C1139 C308 2.064 . S
C1141 C349 1.998 . S
C1157 C383 2.188 . S
C1159 C342 2.269 . S
C1175 C376 2.151 . S
C1177 C281 2.062 . S
C1193 C410 2.064 . S
C1195 C519 1.998 . S
C1211 C417 1.900 . S
C1213 C444 1.968 . S
C1229 C451 2.063 . S
C1231 C478 2.149 . S
C1247 C512 2.269 . S
C1249 C485 2.188 . S
