# Generated by pormake.
# Topology bcu-f, (3)-cn, num edge types: 1
# Building blocks:
#     Node 0, Type 0, BuildingBlock: OLANEW_clean_sbu_2, # of connection points: 3
#     Node 1, Type 0, BuildingBlock: OLANEW_clean_sbu_2, # of connection points: 3
#     Node 2, Type 0, BuildingBlock: OLANEW_clean_sbu_2, # of connection points: 3
#     Node 3, Type 0, BuildingBlock: OLANEW_clean_sbu_2, # of connection points: 3
#     Node 4, Type 0, BuildingBlock: OLANEW_clean_sbu_2, # of connection points: 3
#     Node 5, Type 0, BuildingBlock: OLANEW_clean_sbu_2, # of connection points: 3
#     Node 6, Type 0, BuildingBlock: OLANEW_clean_sbu_2, # of connection points: 3
#     Node 7, Type 0, BuildingBlock: OLANEW_clean_sbu_2, # of connection points: 3
#     Node 8, Type 0, BuildingBlock: OLANEW_clean_sbu_2, # of connection points: 3
#     Node 9, Type 0, BuildingBlock: OLANEW_clean_sbu_2, # of connection points: 3
#     Node 10, Type 0, BuildingBlock: OLANEW_clean_sbu_2, # of connection points: 3
#     Node 11, Type 0, BuildingBlock: OLANEW_clean_sbu_2, # of connection points: 3
#     Node 12, Type 0, BuildingBlock: OLANEW_clean_sbu_2, # of connection points: 3
#     Node 13, Type 0, BuildingBlock: OLANEW_clean_sbu_2, # of connection points: 3
#     Node 14, Type 0, BuildingBlock: OLANEW_clean_sbu_2, # of connection points: 3
#     Node 15, Type 0, BuildingBlock: OLANEW_clean_sbu_2, # of connection points: 3
#     Edge 16, Type (0, 0), BuildingBlock: CIFDUS_clean_linker_0, # of connection points: 2
#     Edge 17, Type (0, 0), BuildingBlock: CIFDUS_clean_linker_0, # of connection points: 2
#     Edge 18, Type (0, 0), BuildingBlock: CIFDUS_clean_linker_0, # of connection points: 2
#     Edge 19, Type (0, 0), BuildingBlock: CIFDUS_clean_linker_0, # of connection points: 2
#     Edge 20, Type (0, 0), BuildingBlock: CIFDUS_clean_linker_0, # of connection points: 2
#     Edge 21, Type (0, 0), BuildingBlock: CIFDUS_clean_linker_0, # of connection points: 2
#     Edge 22, Type (0, 0), BuildingBlock: CIFDUS_clean_linker_0, # of connection points: 2
#     Edge 23, Type (0, 0), BuildingBlock: CIFDUS_clean_linker_0, # of connection points: 2
#     Edge 24, Type (0, 0), BuildingBlock: CIFDUS_clean_linker_0, # of connection points: 2
#     Edge 25, Type (0, 0), BuildingBlock: CIFDUS_clean_linker_0, # of connection points: 2
#     Edge 26, Type (0, 0), BuildingBlock: CIFDUS_clean_linker_0, # of connection points: 2
#     Edge 27, Type (0, 0), BuildingBlock: CIFDUS_clean_linker_0, # of connection points: 2
#     Edge 28, Type (0, 0), BuildingBlock: CIFDUS_clean_linker_0, # of connection points: 2
#     Edge 29, Type (0, 0), BuildingBlock: CIFDUS_clean_linker_0, # of connection points: 2
#     Edge 30, Type (0, 0), BuildingBlock: CIFDUS_clean_linker_0, # of connection points: 2
#     Edge 31, Type (0, 0), BuildingBlock: CIFDUS_clean_linker_0, # of connection points: 2
#     Edge 32, Type (0, 0), BuildingBlock: CIFDUS_clean_linker_0, # of connection points: 2
#     Edge 33, Type (0, 0), BuildingBlock: CIFDUS_clean_linker_0, # of connection points: 2
#     Edge 34, Type (0, 0), BuildingBlock: CIFDUS_clean_linker_0, # of connection points: 2
#     Edge 35, Type (0, 0), BuildingBlock: CIFDUS_clean_linker_0, # of connection points: 2
#     Edge 36, Type (0, 0), BuildingBlock: CIFDUS_clean_linker_0, # of connection points: 2
#     Edge 37, Type (0, 0), BuildingBlock: CIFDUS_clean_linker_0, # of connection points: 2
#     Edge 38, Type (0, 0), BuildingBlock: CIFDUS_clean_linker_0, # of connection points: 2
#     Edge 39, Type (0, 0), BuildingBlock: CIFDUS_clean_linker_0, # of connection points: 2
# Relax obj value: 0.001
# Max RMSD: 0.045
# Mean RMSD: 0.045
data_MOF--net-bcu-f--node1-OLANEW_clean_sbu_2--edge1-CIFDUS_clean_linker_0
_symmetry_space_group_name_H-M    P1
_symmetry_Int_Tables_number       1
_symmetry_cell_setting            triclinic
loop_
_symmetry_equiv_pos_as_xyz
'x, y, z'
_cell_length_a     65.830874
_cell_length_b     66.009985
_cell_length_c     19.484487
_cell_angle_alpha  90.095396
_cell_angle_beta   90.035682
_cell_angle_gamma 89.955455
loop_
_atom_site_label
_atom_site_type_symbol
_atom_site_fract_x
_atom_site_fract_y
_atom_site_fract_z
_atom_type_partial_charge
O0 O 0.20261 0.09415 0.95375 0.0
Cd1 Cd 0.2269 0.07159 0.89728 0.0
O2 O 0.22869 0.11 0.99834 0.0
Cd3 Cd 0.24364 0.13327 0.06071 0.0
O4 O 0.2567 0.16084 0.10415 0.0
C5 C 0.26465 0.16128 0.16357 0.0
O6 O 0.26492 0.14465 0.20055 0.0
C7 C 0.20957 0.10864 0.98968 0.0
C8 C 0.21106 0.03362 0.86515 0.0
O9 O 0.22151 0.03632 0.91994 0.0
O10 O 0.20794 0.0489 0.82605 0.0
O11 O 0.90004 0.21011 0.98702 0.0
Cd12 Cd 0.91396 0.2366 0.06092 0.0
O13 O 0.87016 0.21831 0.02651 0.0
Cd14 Cd 0.83741 0.22041 0.04492 0.0
O15 O 0.81023 0.23243 0.09485 0.0
C16 C 0.80906 0.231 0.15978 0.0
O17 O 0.82355 0.22141 0.19292 0.0
C18 C 0.88096 0.20718 0.98748 0.0
C19 C 0.95405 0.22905 0.0996 0.0
O20 O 0.93916 0.22233 0.13528 0.0
O21 O 0.94995 0.23924 0.04538 0.0
O22 O 0.83159 0.89378 0.10005 0.0
Cd23 Cd 0.81294 0.92531 0.11911 0.0
O24 O 0.80691 0.87722 0.15013 0.0
Cd25 Cd 0.79244 0.8508 0.19707 0.0
O26 O 0.7756 0.82442 0.23325 0.0
C27 C 0.76432 0.8258 0.28595 0.0
O28 O 0.76333 0.84316 0.31889 0.0
C29 C 0.82419 0.87713 0.12093 0.0
C30 C 0.81922 0.9537 0.01556 0.0
O31 O 0.83183 0.95183 0.0653 0.0
O32 O 0.80365 0.94205 0.0145 0.0
O33 O 0.10777 0.82881 0.20955 0.0
Cd34 Cd 0.09622 0.81539 0.31947 0.0
O35 O 0.1083 0.79697 0.17848 0.0
Cd36 Cd 0.11729 0.77155 0.1136 0.0
O37 O 0.13617 0.74456 0.12394 0.0
C38 C 0.15351 0.74778 0.15049 0.0
O39 O 0.1589 0.76659 0.16322 0.0
C40 C 0.11112 0.81549 0.16385 0.0
C41 C 0.05696 0.8001 0.30698 0.0
O42 O 0.06008 0.81787 0.33142 0.0
O43 O 0.07239 0.78949 0.28918 0.0
O44 O 0.13562 0.87617 0.79325 0.0
Cd45 Cd 0.14408 0.8947 0.68894 0.0
O46 O 0.16853 0.87254 0.80278 0.0
Cd47 Cd 0.19642 0.85966 0.84487 0.0
O48 O 0.22462 0.84328 0.82427 0.0
C49 C 0.22313 0.82879 0.78151 0.0
O50 O 0.20509 0.82426 0.757 0.0
C51 C 0.15082 0.86955 0.82654 0.0
C52 C 0.15822 0.93318 0.72333 0.0
O53 O 0.13979 0.93052 0.70418 0.0
O54 O 0.17001 0.91774 0.72531 0.0
O55 O 0.13372 0.19736 0.18135 0.0
Cd56 Cd 0.11236 0.22373 0.23201 0.0
O57 O 0.14852 0.22137 0.12235 0.0
Cd58 Cd 0.16987 0.23415 0.04783 0.0
O59 O 0.19504 0.24731 0.99018 0.0
C60 C 0.194 0.25073 0.92611 0.0
O61 O 0.17725 0.24611 0.89287 0.0
C62 C 0.14731 0.20275 0.13888 0.0
C63 C 0.07304 0.22521 0.17897 0.0
O64 O 0.08755 0.23508 0.15069 0.0
O65 O 0.07721 0.21441 0.23176 0.0
O66 O 0.86839 0.10223 0.71886 0.0
Cd67 Cd 0.85949 0.07097 0.65875 0.0
O68 O 0.83696 0.11324 0.71608 0.0
Cd69 Cd 0.81312 0.13598 0.7296 0.0
O70 O 0.78727 0.15669 0.7249 0.0
C71 C 0.78141 0.16295 0.66648 0.0
O72 O 0.79133 0.15702 0.61148 0.0
C73 C 0.85538 0.11576 0.73383 0.0
C74 C 0.85348 0.0395 0.75175 0.0
O75 O 0.87132 0.04404 0.73047 0.0
O76 O 0.83841 0.04974 0.72859 0.0
O77 O 0.88983 0.76779 0.15933 0.0
Cd78 Cd 0.91072 0.73815 0.18481 0.0
O79 O 0.86904 0.75038 0.09415 0.0
Cd80 Cd 0.84333 0.74543 0.02475 0.0
O81 O 0.8175 0.73536 0.96314 0.0
C82 C 0.82022 0.72195 0.91718 0.0
O83 O 0.83864 0.71491 0.90681 0.0
C84 C 0.87404 0.76712 0.12187 0.0
C85 C 0.95085 0.74975 0.20753 0.0
O86 O 0.94525 0.74284 0.14899 0.0
O87 O 0.93756 0.75095 0.25537 0.0
O88 O 0.63865 0.60772 0.68551 0.0
Cd89 Cd 0.64187 0.58336 0.77908 0.0
O90 O 0.66726 0.62259 0.7126 0.0
Cd91 Cd 0.69133 0.64543 0.71 0.0
O92 O 0.71739 0.66437 0.73636 0.0
C93 C 0.71482 0.68019 0.77257 0.0
O94 O 0.6963 0.68531 0.79082 0.0
C95 C 0.65181 0.62133 0.6736 0.0
C96 C 0.64674 0.54445 0.72582 0.0
O97 O 0.62902 0.55204 0.73492 0.0
O98 O 0.66217 0.55517 0.74283 0.0
O99 O 0.37281 0.71581 0.32734 0.0
Cd100 Cd 0.38953 0.74131 0.25641 0.0
O101 O 0.35503 0.7397 0.37759 0.0
Cd102 Cd 0.33291 0.75114 0.45215 0.0
O103 O 0.30722 0.76095 0.51485 0.0
C104 C 0.30946 0.77201 0.56778 0.0
O105 O 0.32785 0.77758 0.58606 0.0
C106 C 0.35924 0.721 0.37025 0.0
C107 C 0.43015 0.73164 0.23317 0.0
O108 O 0.42499 0.74331 0.28285 0.0
O109 O 0.41608 0.72461 0.19439 0.0
O110 O 0.33131 0.3951 0.58561 0.0
Cd111 Cd 0.31546 0.41299 0.68148 0.0
O112 O 0.30897 0.37176 0.60943 0.0
Cd113 Cd 0.29143 0.34366 0.60374 0.0
O114 O 0.26964 0.32069 0.63634 0.0
C115 C 0.27206 0.3132 0.69584 0.0
O116 O 0.28788 0.31888 0.73228 0.0
C117 C 0.32393 0.37768 0.57335 0.0
C118 C 0.3079 0.45395 0.65886 0.0
O119 O 0.32443 0.44809 0.68745 0.0
O120 O 0.29515 0.44039 0.63973 0.0
O121 O 0.58474 0.27453 0.66296 0.0
Cd122 Cd 0.56139 0.24587 0.65981 0.0
O123 O 0.60893 0.25251 0.64308 0.0
Cd124 Cd 0.64056 0.2435 0.62786 0.0
O125 O 0.67082 0.23004 0.63305 0.0
C126 C 0.67825 0.22629 0.69191 0.0
O127 O 0.66767 0.2311 0.74674 0.0
C128 C 0.60329 0.27081 0.65035 0.0
C129 C 0.5349 0.25203 0.55037 0.0
O130 O 0.52942 0.25605 0.61201 0.0
O131 O 0.55264 0.24457 0.54069 0.0
O132 O 0.66956 0.3741 0.52606 0.0
Cd133 Cd 0.68636 0.40418 0.48028 0.0
O134 O 0.69226 0.35631 0.47067 0.0
Cd135 Cd 0.70893 0.32987 0.43232 0.0
O136 O 0.72654 0.30664 0.3789 0.0
C137 C 0.72469 0.30488 0.31422 0.0
O138 O 0.71191 0.31682 0.28182 0.0
C139 C 0.67649 0.35689 0.50844 0.0
C140 C 0.6796 0.43913 0.55736 0.0
O141 O 0.66684 0.43334 0.51164 0.0
O142 O 0.69546 0.42824 0.56723 0.0
O143 O 0.59844 0.68076 0.31522 0.0
Cd144 Cd 0.59013 0.70014 0.21241 0.0
O145 O 0.62653 0.69809 0.32537 0.0
Cd146 Cd 0.6546 0.71026 0.36899 0.0
O147 O 0.6808 0.7305 0.37062 0.0
C148 C 0.69478 0.72774 0.32664 0.0
O149 O 0.69354 0.7121 0.28504 0.0
C150 C 0.61462 0.68455 0.34838 0.0
C151 C 0.54999 0.71332 0.22038 0.0
O152 O 0.55455 0.69674 0.18966 0.0
O153 O 0.56447 0.72382 0.24627 0.0
O154 O 0.29512 0.63715 0.62409 0.0
Cd155 Cd 0.27638 0.61292 0.69418 0.0
O156 O 0.26777 0.6418 0.5617 0.0
Cd157 Cd 0.25125 0.65581 0.47653 0.0
O158 O 0.23795 0.67722 0.40406 0.0
C159 C 0.22426 0.67237 0.36105 0.0
O160 O 0.21783 0.65354 0.35876 0.0
C161 C 0.28613 0.64627 0.57542 0.0
C162 C 0.29075 0.57333 0.68361 0.0
O163 O 0.27632 0.57965 0.64495 0.0
O164 O 0.29855 0.58583 0.72658 0.0
O165 O 0.40446 0.33128 0.25328 0.0
Cd166 Cd 0.42465 0.3063 0.19094 0.0
O167 O 0.38315 0.30612 0.26223 0.0
Cd168 Cd 0.35534 0.28967 0.28763 0.0
O169 O 0.33221 0.26618 0.27771 0.0
C170 C 0.3202 0.26696 0.2267 0.0
O171 O 0.32143 0.28243 0.18456 0.0
C172 C 0.38791 0.32429 0.27688 0.0
C173 C 0.45002 0.28707 0.28484 0.0
O174 O 0.4568 0.30115 0.24592 0.0
O175 O 0.43142 0.28172 0.27819 0.0
H176 H 0.18941 0.94194 0.80915 0.0
H177 H 0.14341 0.96982 0.68292 0.0
H178 H 0.15585 0.00343 0.71508 0.0
H179 H 0.17996 0.02485 0.77861 0.0
H180 H 0.22452 -0.00303 0.91073 0.0
H181 H 0.21244 0.96338 0.87707 0.0
C182 C 0.18217 0.95539 0.78856 0.0
C183 C 0.16565 0.95345 0.74329 0.0
C184 C 0.18911 0.97463 0.80851 0.0
C185 C 0.15617 0.97096 0.71784 0.0
C186 C 0.16329 0.99016 0.73613 0.0
C187 C 0.18701 0.01141 0.8 0.0
C188 C 0.20318 0.01337 0.84672 0.0
C189 C 0.17976 0.99218 0.78135 0.0
C190 C 0.21202 0.99585 0.87474 0.0
C191 C 0.20517 0.97665 0.85536 0.0
H192 H 0.98845 0.24306 0.0387 0.0
H193 H 0.96746 0.20706 0.2093 0.0
H194 H 0.00244 0.2021 0.24735 0.0
H195 H 0.0389 0.20878 0.23423 0.0
H196 H 0.05984 0.24527 0.06479 0.0
H197 H 0.02497 0.24914 0.02419 0.0
C198 C 0.99151 0.23406 0.08406 0.0
C199 C 0.97533 0.2255 0.12115 0.0
C200 C 0.01166 0.23136 0.10596 0.0
C201 C 0.97961 0.21388 0.17983 0.0
C202 C -0.00038 0.21102 0.20168 0.0
C203 C 0.03586 0.2175 0.18821 0.0
C204 C 0.05198 0.22675 0.15273 0.0
C205 C 0.01575 0.21981 0.16543 0.0
C206 C 0.04774 0.23801 0.09322 0.0
C207 C 0.02779 0.24025 0.06995 0.0
H208 H 0.8184 0.01966 0.78126 0.0
H209 H 0.88186 0.02263 0.8359 0.0
H210 H 0.87685 -0.0036 0.92247 0.0
H211 H 0.85434 0.97301 0.98396 0.0
H212 H 0.79124 0.96878 0.92578 0.0
H213 H 0.79621 0.99506 0.83915 0.0
C214 C 0.83112 0.01455 0.81213 0.0
C215 C 0.85044 0.02316 0.80248 0.0
C216 C 0.8282 -0.00075 0.86115 0.0
C217 C 0.86684 0.01623 0.84228 0.0
C218 C 0.86398 0.00127 0.89191 0.0
C219 C 0.84168 0.97784 0.9523 0.0
C220 C 0.82243 0.96907 0.96156 0.0
C221 C 0.84471 0.99274 0.90199 0.0
C222 C 0.80622 0.9753 0.9196 0.0
C223 C 0.80904 0.99035 0.87018 0.0
H224 H 0.04422 0.77122 0.21774 0.0
H225 H 0.023 0.81153 0.37681 0.0
H226 H 0.9884 0.79879 0.36217 0.0
H227 H 0.96409 0.77665 0.30267 0.0
H228 H 0.98484 0.73821 0.13771 0.0
H229 H 0.01973 0.74973 0.15607 0.0
C230 C 0.03202 0.77712 0.24942 0.0
C231 C 0.03614 0.79219 0.29855 0.0
C232 C 0.0121 0.77009 0.23952 0.0
C233 C 0.02017 0.79993 0.33858 0.0
C234 C 0.00041 0.79264 0.3303 0.0
C235 C 0.97628 0.77072 0.27103 0.0
C236 C 0.97195 0.75652 0.21922 0.0
C237 C 0.99619 0.77778 0.28075 0.0
C238 C 0.98782 0.74918 0.17789 0.0
C239 C 0.00776 0.75573 0.18841 0.0
H240 H 0.68096 0.52138 0.72285 0.0
H241 H 0.61819 0.52196 0.65881 0.0
H242 H 0.62272 0.48927 0.60203 0.0
H243 H 0.64478 0.46104 0.56739 0.0
H244 H 0.70726 0.4599 0.63446 0.0
H245 H 0.70254 0.49224 0.69345 0.0
C246 C 0.66826 0.51433 0.69663 0.0
C247 C 0.64931 0.52416 0.69468 0.0
C248 C 0.67092 0.49544 0.66455 0.0
C249 C 0.63294 0.51472 0.66109 0.0
C250 C 0.63552 0.49604 0.62845 0.0
C251 C 0.65735 0.46784 0.59508 0.0
C252 C 0.67637 0.45815 0.59613 0.0
C253 C 0.65449 0.48635 0.62935 0.0
C254 C 0.69245 0.46705 0.63284 0.0
C255 C 0.68978 0.48557 0.66645 0.0
H256 H 0.51678 0.69716 0.15795 0.0
H257 H 0.53514 0.74418 0.29913 0.0
H258 H 0.49972 0.75405 0.31526 0.0
H259 H 0.46348 0.74885 0.29135 0.0
H260 H 0.44516 0.70236 0.14812 0.0
H261 H 0.48063 0.69279 0.13073 0.0
C262 C 0.51304 0.7096 0.19212 0.0
C263 C 0.52859 0.71985 0.22749 0.0
C264 C 0.49265 0.71527 0.20094 0.0
C265 C 0.52349 0.73603 0.27122 0.0
C266 C 0.50322 0.74166 0.28062 0.0
C267 C 0.46724 0.73663 0.25629 0.0
C268 C 0.45169 0.72627 0.22138 0.0
C269 C 0.48767 0.7313 0.24611 0.0
C270 C 0.45684 0.71059 0.17567 0.0
C271 C 0.47712 0.70508 0.16574 0.0
H272 H 0.27333 0.54209 0.61418 0.0
H273 H 0.32381 0.55671 0.74677 0.0
H274 H 0.33429 0.52122 0.74726 0.0
H275 H 0.32818 0.48582 0.71467 0.0
H276 H 0.2769 0.47101 0.58588 0.0
H277 H 0.26776 0.50681 0.579 0.0
C278 C 0.28672 0.53755 0.64276 0.0
C279 C 0.29773 0.55203 0.68051 0.0
C280 C 0.29248 0.51707 0.6437 0.0
C281 C 0.315 0.54586 0.71748 0.0
C282 C 0.32101 0.52556 0.71781 0.0
C283 C 0.3151 0.49043 0.68459 0.0
C284 C 0.30322 0.47575 0.65096 0.0
C285 C 0.30973 0.511 0.68178 0.0
C286 C 0.28627 0.48199 0.61248 0.0
C287 C 0.28102 0.50246 0.60853 0.0
H288 H 0.49371 0.25334 0.54884 0.0
H289 H 0.54641 0.26185 0.42074 0.0
H290 H 0.52477 0.27317 0.32628 0.0
H291 H 0.49093 0.28235 0.28222 0.0
H292 H 0.43805 0.27152 0.40735 0.0
H293 H 0.45962 0.25928 0.50074 0.0
C294 C 0.50039 0.25755 0.50003 0.0
C295 C 0.52158 0.25696 0.49181 0.0
C296 C 0.48784 0.26367 0.44558 0.0
C297 C 0.5301 0.26216 0.42815 0.0
C298 C 0.51776 0.26872 0.37425 0.0
C299 C 0.48417 0.27718 0.32983 0.0
C300 C 0.46301 0.278 0.33833 0.0
C301 C 0.49663 0.26979 0.38271 0.0
C302 C 0.45434 0.271 0.39973 0.0
C303 C 0.46666 0.26408 0.45319 0.0
H304 H 0.21631 0.14888 0.00839 0.0
H305 H 0.17071 0.10265 0.03309 0.0
H306 H 0.14718 0.12777 0.08051 0.0
H307 H 0.13982 0.16291 0.11598 0.0
H308 H 0.18701 0.20799 0.10181 0.0
H309 H 0.20991 0.18321 0.05081 0.0
C310 C 0.20156 0.14409 0.02665 0.0
C311 C 0.19555 0.12378 0.01958 0.0
C312 C 0.18831 0.1585 0.0549 0.0
C313 C 0.17577 0.11818 0.03879 0.0
C314 C 0.16233 0.13251 0.06599 0.0
C315 C 0.15512 0.16728 0.10166 0.0
C316 C 0.16138 0.18752 0.1098 0.0
C317 C 0.16847 0.15272 0.07444 0.0
C318 C 0.18136 0.19288 0.09222 0.0
C319 C 0.19462 0.17859 0.06421 0.0
H320 H 0.83483 0.13641 0.833 0.0
H321 H 0.89113 0.13557 0.72002 0.0
H322 H 0.9035 0.16446 0.78644 0.0
H323 H 0.89888 0.189 0.87904 0.0
H324 H 0.84348 0.18867 0.99723 0.0
H325 H 0.82997 0.16161 0.92526 0.0
C326 C 0.84959 0.14289 0.82191 0.0
C327 C 0.86194 0.13412 0.77101 0.0
C328 C 0.85675 0.15928 0.86121 0.0
C329 C 0.88135 0.14214 0.75884 0.0
C330 C 0.88842 0.15864 0.79677 0.0
C331 C 0.88379 0.1831 0.88902 0.0
C332 C 0.8721 0.19121 0.94294 0.0
C333 C 0.87635 0.16716 0.84856 0.0
C334 C 0.85262 0.18327 0.95506 0.0
C335 C 0.84496 0.16756 0.91428 0.0
H336 H 0.8105 0.83852 0.10096 0.0
H337 H 0.86522 0.87369 0.12517 0.0
H338 H 0.88558 0.84274 0.12325 0.0
H339 H 0.88765 0.80565 0.12189 0.0
H340 H 0.8328 0.77032 0.10507 0.0
H341 H 0.81262 0.80129 0.09763 0.0
C342 C 0.82682 0.83937 0.10728 0.0
C343 C 0.83628 0.85831 0.11538 0.0
C344 C 0.8384 0.82149 0.10703 0.0
C345 C 0.85757 0.85926 0.11949 0.0
C346 C 0.86921 0.84158 0.11864 0.0
C347 C 0.87129 0.80474 0.11606 0.0
C348 C 0.8618 0.7857 0.11248 0.0
C349 C 0.85976 0.82261 0.11351 0.0
C350 C 0.84058 0.78474 0.10527 0.0
C351 C 0.82899 0.80247 0.10208 0.0
H352 H 0.14144 0.84156 0.13314 0.0
H353 H 0.09622 0.80285 0.0416 0.0
H354 H 0.10484 0.81576 0.92743 0.0
H355 H 0.12372 0.83995 0.85501 0.0
H356 H 0.17121 0.87617 0.94513 0.0
H357 H 0.16348 0.86227 0.05864 0.0
C358 C 0.13368 0.83585 0.08791 0.0
C359 C 0.1181 0.82152 0.09521 0.0
C360 C 0.13911 0.84293 0.02254 0.0
C361 C 0.10828 0.81392 0.03669 0.0
C362 C 0.11314 0.82134 0.97165 0.0
C363 C 0.13249 0.84454 0.89955 0.0
C364 C 0.14785 0.85912 0.89239 0.0
C365 C 0.12828 0.83612 0.96412 0.0
C366 C 0.15935 0.86489 0.94984 0.0
C367 C 0.15486 0.85704 0.01462 0.0
H368 H 0.61598 0.633 0.61989 0.0
H369 H 0.68062 0.64019 0.59417 0.0
H370 H 0.67491 0.66147 0.49339 0.0
H371 H 0.65141 0.6761 0.40797 0.0
H372 H 0.58682 0.66793 0.43347 0.0
H373 H 0.59267 0.64853 0.53788 0.0
C374 C 0.62883 0.63934 0.59252 0.0
C375 C 0.64868 0.63532 0.61531 0.0
C376 C 0.62544 0.65118 0.53397 0.0
C377 C 0.66517 0.64358 0.57918 0.0
C378 C 0.66191 0.65553 0.52089 0.0
C379 C 0.63862 0.67052 0.43724 0.0
C380 C 0.6187 0.67369 0.41331 0.0
C381 C 0.64209 0.65928 0.49743 0.0
C382 C 0.60231 0.66568 0.45065 0.0
C383 C 0.60563 0.65462 0.51049 0.0
H384 H 0.32576 0.64644 0.53824 0.0
H385 H 0.2709 0.68204 0.52838 0.0
H386 H 0.28854 0.70809 0.46268 0.0
H387 H 0.31948 0.72053 0.40677 0.0
H388 H 0.3748 0.68579 0.41995 0.0
H389 H 0.35707 0.65945 0.4848 0.0
C390 C 0.31771 0.65991 0.52155 0.0
C391 C 0.29692 0.66204 0.53614 0.0
C392 C 0.32806 0.67497 0.48462 0.0
C393 C 0.28668 0.67964 0.51506 0.0
C394 C 0.29683 0.69468 0.47833 0.0
C395 C 0.32778 0.70749 0.42551 0.0
C396 C 0.34853 0.70536 0.41039 0.0
C397 C 0.3175 0.69248 0.46271 0.0
C398 C 0.35884 0.68781 0.43162 0.0
C399 C 0.34873 0.67279 0.46872 0.0
H400 H 0.3445 0.38999 0.46065 0.0
H401 H 0.32475 0.33626 0.56704 0.0
H402 H 0.34127 0.31502 0.48119 0.0
H403 H 0.36356 0.31175 0.38097 0.0
H404 H 0.38447 0.36536 0.27654 0.0
H405 H 0.36566 0.38665 0.35737 0.0
C406 C 0.34368 0.37362 0.46468 0.0
C407 C 0.333 0.36474 0.51939 0.0
C408 C 0.35362 0.3615 0.41586 0.0
C409 C 0.33219 0.34352 0.52423 0.0
C410 C 0.34191 0.33134 0.47558 0.0
C411 C 0.36348 0.32804 0.37449 0.0
C412 C 0.37505 0.33694 0.322 0.0
C413 C 0.35281 0.34016 0.42154 0.0
C414 C 0.37557 0.35815 0.31637 0.0
C415 C 0.36484 0.37033 0.36256 0.0
H416 H 0.65184 0.35243 0.61877 0.0
H417 H 0.67588 0.31977 0.44488 0.0
H418 H 0.65753 0.28955 0.47949 0.0
H419 H 0.63238 0.27314 0.55339 0.0
H420 H 0.60527 0.30658 0.71995 0.0
H421 H 0.62674 0.33587 0.69349 0.0
C422 C 0.65321 0.33864 0.5888 0.0
C423 C 0.6659 0.33822 0.53068 0.0
C424 C 0.64184 0.3215 0.60737 0.0
C425 C 0.66721 0.32032 0.49182 0.0
C426 C 0.65636 0.30307 0.5109 0.0
C427 C 0.63159 0.28665 0.58501 0.0
C428 C 0.61763 0.28763 0.63938 0.0
C429 C 0.64349 0.30354 0.56816 0.0
C430 C 0.61609 0.30549 0.67822 0.0
C431 C 0.6283 0.32221 0.66298 0.0
H432 H 0.31622 0.23157 0.29728 0.0
H433 H 0.29367 0.26353 0.11963 0.0
H434 H 0.27371 0.23399 0.08646 0.0
H435 H 0.26431 0.19845 0.10378 0.0
H436 H 0.28705 0.16626 0.28061 0.0
H437 H 0.30519 0.19657 0.31825 0.0
C438 C 0.3068 0.23215 0.25163 0.0
C439 C 0.3066 0.24971 0.21075 0.0
C440 C 0.29549 0.21502 0.2324 0.0
C441 C 0.29422 0.2502 0.15192 0.0
C442 C 0.28282 0.23328 0.13277 0.0
C443 C 0.27316 0.19806 0.15075 0.0
C444 C 0.27447 0.18003 0.18892 0.0
C445 C 0.28362 0.21551 0.17194 0.0
C446 C 0.28584 0.1799 0.25003 0.0
C447 C 0.29625 0.19722 0.27158 0.0
H448 H 0.75163 0.2775 0.36559 0.0
H449 H 0.72693 0.30008 0.17516 0.0
H450 H 0.74996 0.27826 0.11051 0.0
H451 H 0.77847 0.25425 0.1079 0.0
H452 H 0.80333 0.23192 0.29847 0.0
H453 H 0.77877 0.25202 0.36295 0.0
C454 C 0.75119 0.27758 0.30995 0.0
C455 C 0.73768 0.29056 0.27537 0.0
C456 C 0.76455 0.26506 0.27299 0.0
C457 C 0.73722 0.29033 0.20321 0.0
C458 C 0.75042 0.27786 0.1661 0.0
C459 C 0.77841 0.25363 0.16352 0.0
C460 C 0.79285 0.2417 0.1982 0.0
C461 C 0.76434 0.26538 0.20044 0.0
C462 C 0.79247 0.24104 0.27034 0.0
C463 C 0.77845 0.25257 0.30736 0.0
H464 H 0.76329 0.78796 0.23031 0.0
H465 H 0.73637 0.82479 0.38946 0.0
H466 H 0.71341 0.79717 0.41928 0.0
H467 H 0.69958 0.76335 0.39562 0.0
H468 H 0.72622 0.72673 0.23534 0.0
H469 H 0.75078 0.75343 0.2111 0.0
C470 C 0.75249 0.78993 0.27181 0.0
C471 C 0.75146 0.80851 0.30716 0.0
C472 C 0.73924 0.77402 0.28848 0.0
C473 C 0.73746 0.81071 0.36114 0.0
C474 C 0.72429 0.79491 0.37823 0.0
C475 C 0.71088 0.76111 0.35582 0.0
C476 C 0.71093 0.7431 0.31705 0.0
C477 C 0.72484 0.77662 0.34157 0.0
C478 C 0.72574 0.74046 0.26581 0.0
C479 C 0.73978 0.75575 0.25176 0.0
H480 H 0.19201 0.66829 0.27406 0.0
H481 H 0.23525 0.71206 0.35044 0.0
H482 H 0.21816 0.73885 0.28677 0.0
H483 H 0.18965 0.75033 0.21662 0.0
H484 H 0.14567 0.70706 0.14232 0.0
H485 H 0.16453 0.67958 0.19719 0.0
C486 C 0.19781 0.68365 0.2763 0.0
C487 C 0.21478 0.68816 0.31759 0.0
C488 C 0.18776 0.6991 0.24005 0.0
C489 C 0.22212 0.70815 0.3196 0.0
C490 C 0.21237 0.72351 0.28316 0.0
C491 C 0.18427 0.73487 0.21171 0.0
C492 C 0.16616 0.73081 0.17589 0.0
C493 C 0.19497 0.71923 0.2443 0.0
C494 C 0.15951 0.71064 0.16982 0.0
C495 C 0.17025 0.69492 0.20141 0.0
H496 H 0.22453 0.79878 0.6864 0.0
H497 H 0.26297 0.83575 0.81518 0.0
H498 H 0.29314 0.82068 0.76272 0.0
H499 H 0.30854 0.79839 0.67565 0.0
H500 H 0.26977 0.76204 0.54577 0.0
H501 H 0.23983 0.77549 0.60355 0.0
C502 C 0.23949 0.80347 0.70347 0.0
C503 C 0.24145 0.81848 0.75438 0.0
C504 C 0.25674 0.79493 0.67259 0.0
C505 C 0.26099 0.82427 0.77595 0.0
C506 C 0.27827 0.81569 0.74586 0.0
C507 C 0.29356 0.79331 0.66025 0.0
C508 C 0.29145 0.77933 0.60605 0.0
C509 C 0.27632 0.80123 0.69338 0.0
C510 C 0.27188 0.77288 0.58698 0.0
C511 C 0.25471 0.78056 0.62001 0.0
H512 H 0.27229 0.29638 0.82287 0.0
H513 H 0.2366 0.30003 0.63733 0.0
H514 H 0.20967 0.2802 0.6912 0.0
H515 H 0.1955 0.26337 0.79305 0.0
H516 H 0.23117 0.26039 0.97889 0.0
H517 H 0.25884 0.27836 0.92261 0.0
C518 C 0.2587 0.29274 0.79393 0.0
C519 C 0.25645 0.2998 0.72627 0.0
C520 C 0.24319 0.28153 0.8254 0.0
C521 C 0.23873 0.29485 0.68956 0.0
C522 C 0.22328 0.28354 0.72038 0.0
C523 C 0.20937 0.26654 0.82115 0.0
C524 C 0.21115 0.26065 0.89029 0.0
C525 C 0.22523 0.27705 0.78861 0.0
C526 C 0.22928 0.26485 0.9258 0.0
C527 C 0.24515 0.27514 0.89365 0.0
H528 H 0.70363 0.21409 0.58949 0.0
H529 H 0.69724 0.21462 0.81002 0.0
H530 H 0.72886 0.19566 0.82171 0.0
H531 H 0.75772 0.17788 0.76935 0.0
H532 H 0.76405 0.17723 0.5488 0.0
H533 H 0.73312 0.19733 0.53731 0.0
C534 C 0.70918 0.21014 0.64015 0.0
C535 C 0.69799 0.2157 0.69873 0.0
C536 C 0.72736 0.19916 0.64657 0.0
C537 C 0.70549 0.21051 0.76398 0.0
C538 C 0.72358 0.19963 0.77077 0.0
C539 C 0.75239 0.18219 0.71875 0.0
C540 C 0.76316 0.17595 0.66005 0.0
C541 C 0.73454 0.19371 0.71241 0.0
C542 C 0.75605 0.18176 0.59491 0.0
C543 C 0.73834 0.19326 0.58822 0.0
H544 H 0.75489 0.67247 0.74963 0.0
H545 H 0.71459 0.71364 0.85536 0.0
H546 H 0.74368 0.73082 0.90673 0.0
H547 H 0.78043 0.73297 0.92677 0.0
H548 H 0.82068 0.69155 0.82196 0.0
H549 H 0.79172 0.67576 0.76498 0.0
C550 C 0.75245 0.68529 0.78349 0.0
C551 C 0.73255 0.69163 0.79895 0.0
C552 C 0.76924 0.69502 0.81336 0.0
C553 C 0.72971 0.70835 0.84274 0.0
C554 C 0.74635 0.71819 0.87229 0.0
C555 C 0.7829 0.72057 0.89116 0.0
C556 C 0.80272 0.71338 0.87913 0.0
C557 C 0.76616 0.71146 0.85879 0.0
C558 C 0.80561 0.69736 0.83247 0.0
C559 C 0.78904 0.68828 0.79986 0.0
loop_
_geom_bond_atom_site_label_1
_geom_bond_atom_site_label_2
_geom_bond_distance
_geom_bond_site_symmetry_2
_ccdc_geom_bond_type
O0 Cd1 2.300 . S
O0 C7 1.275 . S
Cd1 O0 2.300 . S
Cd1 O9 2.381 . S
Cd1 O10 2.378 . S
O2 Cd3 2.385 . S
O2 C7 1.255 . S
Cd3 O2 2.385 . S
Cd3 O4 2.317 . S
O4 Cd3 2.317 . S
O4 C5 1.232 . S
C5 O4 1.232 . S
C5 O6 1.218 . S
O6 C5 1.218 . S
C7 O0 1.275 . S
C7 O2 1.255 . S
C8 O9 1.258 . S
C8 O10 1.256 . S
O9 Cd1 2.381 . S
O9 C8 1.258 . S
O10 Cd1 2.378 . S
O10 C8 1.256 . S
O11 Cd12 2.300 . S
O11 C18 1.275 . S
Cd12 O11 2.300 . S
Cd12 O20 2.381 . S
Cd12 O21 2.378 . S
O13 Cd14 2.385 . S
O13 C18 1.255 . S
Cd14 O13 2.385 . S
Cd14 O15 2.317 . S
O15 Cd14 2.317 . S
O15 C16 1.232 . S
C16 O15 1.232 . S
C16 O17 1.218 . S
O17 C16 1.218 . S
C18 O11 1.275 . S
C18 O13 1.255 . S
C19 O20 1.258 . S
C19 O21 1.256 . S
O20 Cd12 2.381 . S
O20 C19 1.258 . S
O21 Cd12 2.378 . S
O21 C19 1.256 . S
O22 Cd23 2.300 . S
O22 C29 1.275 . S
Cd23 O22 2.300 . S
Cd23 O31 2.381 . S
Cd23 O32 2.378 . S
O24 Cd25 2.385 . S
O24 C29 1.255 . S
Cd25 O24 2.385 . S
Cd25 O26 2.317 . S
O26 Cd25 2.317 . S
O26 C27 1.232 . S
C27 O26 1.232 . S
C27 O28 1.218 . S
O28 C27 1.218 . S
C29 O22 1.275 . S
C29 O24 1.255 . S
C30 O31 1.258 . S
C30 O32 1.256 . S
O31 Cd23 2.381 . S
O31 C30 1.258 . S
O32 Cd23 2.378 . S
O32 C30 1.256 . S
O33 Cd34 2.300 . S
O33 C40 1.275 . S
Cd34 O33 2.300 . S
Cd34 O42 2.381 . S
Cd34 O43 2.378 . S
O35 Cd36 2.385 . S
O35 C40 1.255 . S
Cd36 O35 2.385 . S
Cd36 O37 2.317 . S
O37 Cd36 2.317 . S
O37 C38 1.232 . S
C38 O37 1.232 . S
C38 O39 1.218 . S
O39 C38 1.218 . S
C40 O33 1.275 . S
C40 O35 1.255 . S
C41 O42 1.258 . S
C41 O43 1.256 . S
O42 Cd34 2.381 . S
O42 C41 1.258 . S
O43 Cd34 2.378 . S
O43 C41 1.256 . S
O44 Cd45 2.300 . S
O44 C51 1.275 . S
Cd45 O44 2.300 . S
Cd45 O53 2.381 . S
Cd45 O54 2.378 . S
O46 Cd47 2.385 . S
O46 C51 1.255 . S
Cd47 O46 2.385 . S
Cd47 O48 2.317 . S
O48 Cd47 2.317 . S
O48 C49 1.232 . S
C49 O48 1.232 . S
C49 O50 1.218 . S
O50 C49 1.218 . S
C51 O44 1.275 . S
C51 O46 1.255 . S
C52 O53 1.258 . S
C52 O54 1.256 . S
O53 Cd45 2.381 . S
O53 C52 1.258 . S
O54 Cd45 2.378 . S
O54 C52 1.256 . S
O55 Cd56 2.300 . S
O55 C62 1.275 . S
Cd56 O55 2.300 . S
Cd56 O64 2.381 . S
Cd56 O65 2.378 . S
O57 Cd58 2.385 . S
O57 C62 1.255 . S
Cd58 O57 2.385 . S
Cd58 O59 2.317 . S
O59 Cd58 2.317 . S
O59 C60 1.232 . S
C60 O59 1.232 . S
C60 O61 1.218 . S
O61 C60 1.218 . S
C62 O55 1.275 . S
C62 O57 1.255 . S
C63 O64 1.258 . S
C63 O65 1.256 . S
O64 Cd56 2.381 . S
O64 C63 1.258 . S
O65 Cd56 2.378 . S
O65 C63 1.256 . S
O66 Cd67 2.300 . S
O66 C73 1.275 . S
Cd67 O66 2.300 . S
Cd67 O75 2.381 . S
Cd67 O76 2.378 . S
O68 Cd69 2.385 . S
O68 C73 1.255 . S
Cd69 O68 2.385 . S
Cd69 O70 2.317 . S
O70 Cd69 2.317 . S
O70 C71 1.232 . S
C71 O70 1.232 . S
C71 O72 1.218 . S
O72 C71 1.218 . S
C73 O66 1.275 . S
C73 O68 1.255 . S
C74 O75 1.258 . S
C74 O76 1.256 . S
O75 Cd67 2.381 . S
O75 C74 1.258 . S
O76 Cd67 2.378 . S
O76 C74 1.256 . S
O77 Cd78 2.300 . S
O77 C84 1.275 . S
Cd78 O77 2.300 . S
Cd78 O86 2.381 . S
Cd78 O87 2.378 . S
O79 Cd80 2.385 . S
O79 C84 1.255 . S
Cd80 O79 2.385 . S
Cd80 O81 2.317 . S
O81 Cd80 2.317 . S
O81 C82 1.232 . S
C82 O81 1.232 . S
C82 O83 1.218 . S
O83 C82 1.218 . S
C84 O77 1.275 . S
C84 O79 1.255 . S
C85 O86 1.258 . S
C85 O87 1.256 . S
O86 Cd78 2.381 . S
O86 C85 1.258 . S
O87 Cd78 2.378 . S
O87 C85 1.256 . S
O88 Cd89 2.300 . S
O88 C95 1.275 . S
Cd89 O88 2.300 . S
Cd89 O97 2.381 . S
Cd89 O98 2.378 . S
O90 Cd91 2.385 . S
O90 C95 1.255 . S
Cd91 O90 2.385 . S
Cd91 O92 2.317 . S
O92 Cd91 2.317 . S
O92 C93 1.232 . S
C93 O92 1.232 . S
C93 O94 1.218 . S
O94 C93 1.218 . S
C95 O88 1.275 . S
C95 O90 1.255 . S
C96 O97 1.258 . S
C96 O98 1.256 . S
O97 Cd89 2.381 . S
O97 C96 1.258 . S
O98 Cd89 2.378 . S
O98 C96 1.256 . S
O99 Cd100 2.300 . S
O99 C106 1.275 . S
Cd100 O99 2.300 . S
Cd100 O108 2.381 . S
Cd100 O109 2.378 . S
O101 Cd102 2.385 . S
O101 C106 1.255 . S
Cd102 O101 2.385 . S
Cd102 O103 2.317 . S
O103 Cd102 2.317 . S
O103 C104 1.232 . S
C104 O103 1.232 . S
C104 O105 1.218 . S
O105 C104 1.218 . S
C106 O99 1.275 . S
C106 O101 1.255 . S
C107 O108 1.258 . S
C107 O109 1.256 . S
O108 Cd100 2.381 . S
O108 C107 1.258 . S
O109 Cd100 2.378 . S
O109 C107 1.256 . S
O110 Cd111 2.300 . S
O110 C117 1.275 . S
Cd111 O110 2.300 . S
Cd111 O119 2.381 . S
Cd111 O120 2.378 . S
O112 Cd113 2.385 . S
O112 C117 1.255 . S
Cd113 O112 2.385 . S
Cd113 O114 2.317 . S
O114 Cd113 2.317 . S
O114 C115 1.232 . S
C115 O114 1.232 . S
C115 O116 1.218 . S
O116 C115 1.218 . S
C117 O110 1.275 . S
C117 O112 1.255 . S
C118 O119 1.258 . S
C118 O120 1.256 . S
O119 Cd111 2.381 . S
O119 C118 1.258 . S
O120 Cd111 2.378 . S
O120 C118 1.256 . S
O121 Cd122 2.300 . S
O121 C128 1.275 . S
Cd122 O121 2.300 . S
Cd122 O130 2.381 . S
Cd122 O131 2.378 . S
O123 Cd124 2.385 . S
O123 C128 1.255 . S
Cd124 O123 2.385 . S
Cd124 O125 2.317 . S
O125 Cd124 2.317 . S
O125 C126 1.232 . S
C126 O125 1.232 . S
C126 O127 1.218 . S
O127 C126 1.218 . S
C128 O121 1.275 . S
C128 O123 1.255 . S
C129 O130 1.258 . S
C129 O131 1.256 . S
O130 Cd122 2.381 . S
O130 C129 1.258 . S
O131 Cd122 2.378 . S
O131 C129 1.256 . S
O132 Cd133 2.300 . S
O132 C139 1.275 . S
Cd133 O132 2.300 . S
Cd133 O141 2.381 . S
Cd133 O142 2.378 . S
O134 Cd135 2.385 . S
O134 C139 1.255 . S
Cd135 O134 2.385 . S
Cd135 O136 2.317 . S
O136 Cd135 2.317 . S
O136 C137 1.232 . S
C137 O136 1.232 . S
C137 O138 1.218 . S
O138 C137 1.218 . S
C139 O132 1.275 . S
C139 O134 1.255 . S
C140 O141 1.258 . S
C140 O142 1.256 . S
O141 Cd133 2.381 . S
O141 C140 1.258 . S
O142 Cd133 2.378 . S
O142 C140 1.256 . S
O143 Cd144 2.300 . S
O143 C150 1.275 . S
Cd144 O143 2.300 . S
Cd144 O152 2.381 . S
Cd144 O153 2.378 . S
O145 Cd146 2.385 . S
O145 C150 1.255 . S
Cd146 O145 2.385 . S
Cd146 O147 2.317 . S
O147 Cd146 2.317 . S
O147 C148 1.232 . S
C148 O147 1.232 . S
C148 O149 1.218 . S
O149 C148 1.218 . S
C150 O143 1.275 . S
C150 O145 1.255 . S
C151 O152 1.258 . S
C151 O153 1.256 . S
O152 Cd144 2.381 . S
O152 C151 1.258 . S
O153 Cd144 2.378 . S
O153 C151 1.256 . S
O154 Cd155 2.300 . S
O154 C161 1.275 . S
Cd155 O154 2.300 . S
Cd155 O163 2.381 . S
Cd155 O164 2.378 . S
O156 Cd157 2.385 . S
O156 C161 1.255 . S
Cd157 O156 2.385 . S
Cd157 O158 2.317 . S
O158 Cd157 2.317 . S
O158 C159 1.232 . S
C159 O158 1.232 . S
C159 O160 1.218 . S
O160 C159 1.218 . S
C161 O154 1.275 . S
C161 O156 1.255 . S
C162 O163 1.258 . S
C162 O164 1.256 . S
O163 Cd155 2.381 . S
O163 C162 1.258 . S
O164 Cd155 2.378 . S
O164 C162 1.256 . S
O165 Cd166 2.300 . S
O165 C172 1.275 . S
Cd166 O165 2.300 . S
Cd166 O174 2.381 . S
Cd166 O175 2.378 . S
O167 Cd168 2.385 . S
O167 C172 1.255 . S
Cd168 O167 2.385 . S
Cd168 O169 2.317 . S
O169 Cd168 2.317 . S
O169 C170 1.232 . S
C170 O169 1.232 . S
C170 O171 1.218 . S
O171 C170 1.218 . S
C172 O165 1.275 . S
C172 O167 1.255 . S
C173 O174 1.258 . S
C173 O175 1.256 . S
O174 Cd166 2.381 . S
O174 C173 1.258 . S
O175 Cd166 2.378 . S
O175 C173 1.256 . S
H176 C182 0.930 . S
H177 C185 0.930 . S
H178 C186 0.930 . S
H179 C187 0.930 . S
H180 C190 0.930 . S
H181 C191 0.930 . S
C182 H176 0.930 . S
C182 C183 1.355 1_554 S
C182 C184 1.415 . S
C183 C182 1.355 1_556 S
C183 C185 1.419 . S
C184 C182 1.415 . S
C184 C189 1.425 1_564 S
C184 C191 1.409 . S
C185 H177 0.930 . S
C185 C183 1.419 . S
C185 C186 1.362 1_565 S
C186 H178 0.930 . S
C186 C185 1.362 1_545 S
C186 C189 1.409 . S
C187 H179 0.930 . S
C187 C188 1.355 1_556 S
C187 C189 1.415 . S
C188 C187 1.355 1_554 S
C188 C190 1.419 . S
C189 C184 1.425 1_546 S
C189 C186 1.409 . S
C189 C187 1.415 . S
C190 H180 0.930 . S
C190 C188 1.419 . S
C190 C191 1.362 1_545 S
C191 H181 0.930 . S
C191 C184 1.409 . S
C191 C190 1.362 1_565 S
H192 C198 0.930 . S
H193 C201 0.930 . S
H194 C202 0.941 . S
H195 C203 0.930 . S
H196 C206 0.930 . S
H197 C207 0.940 . S
C198 H192 0.930 . S
C198 C199 1.355 1_556 S
C198 C200 1.415 . S
C199 C198 1.355 1_554 S
C199 C201 1.419 . S
C200 C198 1.415 . S
C200 C205 1.425 1_656 S
C200 C207 1.414 . S
C201 H193 0.930 . S
C201 C199 1.419 . S
C201 C202 1.347 1_655 S
C202 H194 0.941 . S
C202 C201 1.347 1_455 S
C202 C205 1.414 . S
C203 H195 0.930 . S
C203 C204 1.355 1_554 S
C203 C205 1.415 . S
C204 C203 1.355 1_556 S
C204 C206 1.419 . S
C205 C200 1.425 1_454 S
C205 C202 1.414 . S
C205 C203 1.415 . S
C206 H196 0.930 . S
C206 C204 1.419 . S
C206 C207 1.347 1_455 S
C207 H197 0.940 . S
C207 C200 1.414 . S
C207 C206 1.347 1_655 S
H208 C214 0.930 . S
H209 C217 0.930 . S
H210 C218 0.930 . S
H211 C219 0.930 . S
H212 C222 0.930 . S
H213 C223 0.930 . S
C214 H208 0.930 . S
C214 C215 1.355 . S
C214 C216 1.415 . S
C215 C214 1.355 . S
C215 C217 1.419 . S
C216 C214 1.415 . S
C216 C221 1.425 1_546 S
C216 C223 1.409 1_545 S
C217 H209 0.930 . S
C217 C215 1.419 . S
C217 C218 1.362 1_556 S
C218 H210 0.930 . S
C218 C217 1.362 1_554 S
C218 C221 1.409 1_545 S
C219 H211 0.930 . S
C219 C220 1.355 . S
C219 C221 1.415 . S
C220 C219 1.355 . S
C220 C222 1.419 . S
C221 C216 1.425 1_564 S
C221 C218 1.409 1_565 S
C221 C219 1.415 . S
C222 H212 0.930 . S
C222 C220 1.419 . S
C222 C223 1.362 1_554 S
C223 H213 0.930 . S
C223 C216 1.409 1_565 S
C223 C222 1.362 1_556 S
H224 C230 0.930 . S
H225 C233 0.930 . S
H226 C234 0.957 . S
H227 C235 0.930 . S
H228 C238 0.930 . S
H229 C239 0.957 . S
C230 H224 0.930 . S
C230 C231 1.355 1_556 S
C230 C232 1.415 . S
C231 C230 1.355 1_554 S
C231 C233 1.419 . S
C232 C230 1.415 . S
C232 C237 1.425 1_456 S
C232 C239 1.422 . S
C233 H225 0.930 . S
C233 C231 1.419 . S
C233 C234 1.325 1_455 S
C234 H226 0.957 . S
C234 C233 1.325 1_655 S
C234 C237 1.422 . S
C235 H227 0.930 . S
C235 C236 1.355 1_554 S
C235 C237 1.415 . S
C236 C235 1.355 1_556 S
C236 C238 1.419 . S
C237 C232 1.425 1_654 S
C237 C234 1.422 . S
C237 C235 1.415 . S
C238 H228 0.930 . S
C238 C236 1.419 . S
C238 C239 1.324 1_655 S
C239 H229 0.957 . S
C239 C232 1.422 . S
C239 C238 1.324 1_455 S
H240 C246 0.930 . S
H241 C249 0.930 . S
H242 C250 0.930 . S
H243 C251 0.930 . S
H244 C254 0.930 . S
H245 C255 0.930 . S
C246 H240 0.930 . S
C246 C247 1.355 . S
C246 C248 1.415 . S
C247 C246 1.355 . S
C247 C249 1.419 . S
C248 C246 1.415 . S
C248 C253 1.425 . S
C248 C255 1.409 . S
C249 H241 0.930 . S
C249 C247 1.419 . S
C249 C250 1.362 . S
C250 H242 0.930 . S
C250 C249 1.362 . S
C250 C253 1.409 . S
C251 H243 0.930 . S
C251 C252 1.355 . S
C251 C253 1.415 . S
C252 C251 1.355 . S
C252 C254 1.419 . S
C253 C248 1.425 . S
C253 C250 1.409 . S
C253 C251 1.415 . S
C254 H244 0.930 . S
C254 C252 1.419 . S
C254 C255 1.362 . S
C255 H245 0.930 . S
C255 C248 1.409 . S
C255 C254 1.362 . S
H256 C262 0.930 . S
H257 C265 0.930 . S
H258 C266 0.930 . S
H259 C267 0.930 . S
H260 C270 0.930 . S
H261 C271 0.930 . S
C262 H256 0.930 . S
C262 C263 1.355 . S
C262 C264 1.415 . S
C263 C262 1.355 . S
C263 C265 1.419 . S
C264 C262 1.415 . S
C264 C269 1.425 . S
C264 C271 1.409 . S
C265 H257 0.930 . S
C265 C263 1.419 . S
C265 C266 1.362 . S
C266 H258 0.930 . S
C266 C265 1.362 . S
C266 C269 1.409 . S
C267 H259 0.930 . S
C267 C268 1.355 . S
C267 C269 1.415 . S
C268 C267 1.355 . S
C268 C270 1.419 . S
C269 C264 1.425 . S
C269 C266 1.409 . S
C269 C267 1.415 . S
C270 H260 0.930 . S
C270 C268 1.419 . S
C270 C271 1.362 . S
C271 H261 0.930 . S
C271 C264 1.409 . S
C271 C270 1.362 . S
H272 C278 0.930 . S
H273 C281 0.930 . S
H274 C282 0.930 . S
H275 C283 0.930 . S
H276 C286 0.930 . S
H277 C287 0.930 . S
C278 H272 0.930 . S
C278 C279 1.355 . S
C278 C280 1.415 . S
C279 C278 1.355 . S
C279 C281 1.419 . S
C280 C278 1.415 . S
C280 C285 1.425 . S
C280 C287 1.409 . S
C281 H273 0.930 . S
C281 C279 1.419 . S
C281 C282 1.362 . S
C282 H274 0.930 . S
C282 C281 1.362 . S
C282 C285 1.409 . S
C283 H275 0.930 . S
C283 C284 1.355 . S
C283 C285 1.415 . S
C284 C283 1.355 . S
C284 C286 1.419 . S
C285 C280 1.425 . S
C285 C282 1.409 . S
C285 C283 1.415 . S
C286 H276 0.930 . S
C286 C284 1.419 . S
C286 C287 1.362 . S
C287 H277 0.930 . S
C287 C280 1.409 . S
C287 C286 1.362 . S
H288 C294 0.930 . S
H289 C297 0.930 . S
H290 C298 0.930 . S
H291 C299 0.930 . S
H292 C302 0.930 . S
H293 C303 0.930 . S
C294 H288 0.930 . S
C294 C295 1.355 . S
C294 C296 1.415 . S
C295 C294 1.355 . S
C295 C297 1.419 . S
C296 C294 1.415 . S
C296 C301 1.425 . S
C296 C303 1.409 . S
C297 H289 0.930 . S
C297 C295 1.419 . S
C297 C298 1.362 . S
C298 H290 0.930 . S
C298 C297 1.362 . S
C298 C301 1.409 . S
C299 H291 0.930 . S
C299 C300 1.355 . S
C299 C301 1.415 . S
C300 C299 1.355 . S
C300 C302 1.419 . S
C301 C296 1.425 . S
C301 C298 1.409 . S
C301 C299 1.415 . S
C302 H292 0.930 . S
C302 C300 1.419 . S
C302 C303 1.362 . S
C303 H293 0.930 . S
C303 C296 1.409 . S
C303 C302 1.362 . S
H304 C310 0.930 1_556 S
H305 C313 0.930 . S
H306 C314 0.930 . S
H307 C315 0.930 1_554 S
H308 C318 0.930 . S
H309 C319 0.930 . S
C310 H304 0.930 1_554 S
C310 C311 1.355 . S
C310 C312 1.415 1_554 S
C311 C310 1.355 . S
C311 C313 1.419 . S
C312 C310 1.415 1_556 S
C312 C317 1.425 1_556 S
C312 C319 1.409 . S
C313 H305 0.930 . S
C313 C311 1.419 . S
C313 C314 1.362 . S
C314 H306 0.930 . S
C314 C313 1.362 . S
C314 C317 1.409 . S
C315 H307 0.930 1_556 S
C315 C316 1.355 . S
C315 C317 1.415 1_556 S
C316 C315 1.355 . S
C316 C318 1.419 . S
C317 C312 1.425 1_554 S
C317 C314 1.409 . S
C317 C315 1.415 1_554 S
C318 H308 0.930 . S
C318 C316 1.419 . S
C318 C319 1.362 . S
C319 H309 0.930 . S
C319 C312 1.409 . S
C319 C318 1.362 . S
H320 C326 0.930 . S
H321 C329 0.930 . S
H322 C330 0.930 1_554 S
H323 C331 0.930 . S
H324 C334 0.930 . S
H325 C335 0.930 1_556 S
C326 H320 0.930 . S
C326 C327 1.355 . S
C326 C328 1.415 . S
C327 C326 1.355 . S
C327 C329 1.419 . S
C328 C326 1.415 . S
C328 C333 1.425 1_556 S
C328 C335 1.409 1_556 S
C329 H321 0.930 . S
C329 C327 1.419 . S
C329 C330 1.362 . S
C330 H322 0.930 1_556 S
C330 C329 1.362 . S
C330 C333 1.409 1_556 S
C331 H323 0.930 . S
C331 C332 1.355 . S
C331 C333 1.415 . S
C332 C331 1.355 . S
C332 C334 1.419 . S
C333 C328 1.425 1_554 S
C333 C330 1.409 1_554 S
C333 C331 1.415 . S
C334 H324 0.930 . S
C334 C332 1.419 . S
C334 C335 1.362 . S
C335 H325 0.930 1_554 S
C335 C328 1.409 1_554 S
C335 C334 1.362 . S
H336 C342 0.930 1_556 S
H337 C345 0.930 . S
H338 C346 0.930 . S
H339 C347 0.930 1_554 S
H340 C350 0.930 . S
H341 C351 0.930 . S
C342 H336 0.930 1_554 S
C342 C343 1.355 . S
C342 C344 1.415 1_554 S
C343 C342 1.355 . S
C343 C345 1.419 . S
C344 C342 1.415 1_556 S
C344 C349 1.425 1_556 S
C344 C351 1.409 . S
C345 H337 0.930 . S
C345 C343 1.419 . S
C345 C346 1.362 . S
C346 H338 0.930 . S
C346 C345 1.362 . S
C346 C349 1.409 . S
C347 H339 0.930 1_556 S
C347 C348 1.355 . S
C347 C349 1.415 1_556 S
C348 C347 1.355 . S
C348 C350 1.419 . S
C349 C344 1.425 1_554 S
C349 C346 1.409 . S
C349 C347 1.415 1_554 S
C350 H340 0.930 . S
C350 C348 1.419 . S
C350 C351 1.362 . S
C351 H341 0.930 . S
C351 C344 1.409 . S
C351 C350 1.362 . S
H352 C358 0.930 . S
H353 C361 0.930 . S
H354 C362 0.930 . S
H355 C363 0.930 . S
H356 C366 0.930 . S
H357 C367 0.930 . S
C358 H352 0.930 . S
C358 C359 1.355 . S
C358 C360 1.415 . S
C359 C358 1.355 . S
C359 C361 1.419 1_554 S
C360 C358 1.415 . S
C360 C365 1.425 1_554 S
C360 C367 1.409 . S
C361 H353 0.930 . S
C361 C359 1.419 1_556 S
C361 C362 1.362 . S
C362 H354 0.930 . S
C362 C361 1.362 . S
C362 C365 1.409 . S
C363 H355 0.930 . S
C363 C364 1.355 . S
C363 C365 1.415 . S
C364 C363 1.355 . S
C364 C366 1.419 1_556 S
C365 C360 1.425 1_556 S
C365 C362 1.409 . S
C365 C363 1.415 . S
C366 H356 0.930 . S
C366 C364 1.419 1_554 S
C366 C367 1.362 . S
C367 H357 0.930 . S
C367 C360 1.409 . S
C367 C366 1.362 . S
H368 C374 0.930 . S
H369 C377 0.930 . S
H370 C378 0.930 . S
H371 C379 0.930 . S
H372 C382 0.930 . S
H373 C383 0.930 . S
C374 H368 0.930 . S
C374 C375 1.355 . S
C374 C376 1.415 . S
C375 C374 1.355 . S
C375 C377 1.419 . S
C376 C374 1.415 . S
C376 C381 1.425 . S
C376 C383 1.409 . S
C377 H369 0.930 . S
C377 C375 1.419 . S
C377 C378 1.362 . S
C378 H370 0.930 . S
C378 C377 1.362 . S
C378 C381 1.409 . S
C379 H371 0.930 . S
C379 C380 1.355 . S
C379 C381 1.415 . S
C380 C379 1.355 . S
C380 C382 1.419 . S
C381 C376 1.425 . S
C381 C378 1.409 . S
C381 C379 1.415 . S
C382 H372 0.930 . S
C382 C380 1.419 . S
C382 C383 1.362 . S
C383 H373 0.930 . S
C383 C376 1.409 . S
C383 C382 1.362 . S
H384 C390 0.930 . S
H385 C393 0.930 . S
H386 C394 0.930 . S
H387 C395 0.930 . S
H388 C398 0.930 . S
H389 C399 0.930 . S
C390 H384 0.930 . S
C390 C391 1.355 . S
C390 C392 1.415 . S
C391 C390 1.355 . S
C391 C393 1.419 . S
C392 C390 1.415 . S
C392 C397 1.425 . S
C392 C399 1.409 . S
C393 H385 0.930 . S
C393 C391 1.419 . S
C393 C394 1.362 . S
C394 H386 0.930 . S
C394 C393 1.362 . S
C394 C397 1.409 . S
C395 H387 0.930 . S
C395 C396 1.355 . S
C395 C397 1.415 . S
C396 C395 1.355 . S
C396 C398 1.419 . S
C397 C392 1.425 . S
C397 C394 1.409 . S
C397 C395 1.415 . S
C398 H388 0.930 . S
C398 C396 1.419 . S
C398 C399 1.362 . S
C399 H389 0.930 . S
C399 C392 1.409 . S
C399 C398 1.362 . S
H400 C406 0.930 . S
H401 C409 0.930 . S
H402 C410 0.930 . S
H403 C411 0.930 . S
H404 C414 0.930 . S
H405 C415 0.930 . S
C406 H400 0.930 . S
C406 C407 1.355 . S
C406 C408 1.415 . S
C407 C406 1.355 . S
C407 C409 1.419 . S
C408 C406 1.415 . S
C408 C413 1.425 . S
C408 C415 1.409 . S
C409 H401 0.930 . S
C409 C407 1.419 . S
C409 C410 1.362 . S
C410 H402 0.930 . S
C410 C409 1.362 . S
C410 C413 1.409 . S
C411 H403 0.930 . S
C411 C412 1.355 . S
C411 C413 1.415 . S
C412 C411 1.355 . S
C412 C414 1.419 . S
C413 C408 1.425 . S
C413 C410 1.409 . S
C413 C411 1.415 . S
C414 H404 0.930 . S
C414 C412 1.419 . S
C414 C415 1.362 . S
C415 H405 0.930 . S
C415 C408 1.409 . S
C415 C414 1.362 . S
H416 C422 0.930 . S
H417 C425 0.930 . S
H418 C426 0.930 . S
H419 C427 0.930 . S
H420 C430 0.930 . S
H421 C431 0.930 . S
C422 H416 0.930 . S
C422 C423 1.355 . S
C422 C424 1.415 . S
C423 C422 1.355 . S
C423 C425 1.419 . S
C424 C422 1.415 . S
C424 C429 1.425 . S
C424 C431 1.409 . S
C425 H417 0.930 . S
C425 C423 1.419 . S
C425 C426 1.362 . S
C426 H418 0.930 . S
C426 C425 1.362 . S
C426 C429 1.409 . S
C427 H419 0.930 . S
C427 C428 1.355 . S
C427 C429 1.415 . S
C428 C427 1.355 . S
C428 C430 1.419 . S
C429 C424 1.425 . S
C429 C426 1.409 . S
C429 C427 1.415 . S
C430 H420 0.930 . S
C430 C428 1.419 . S
C430 C431 1.362 . S
C431 H421 0.930 . S
C431 C424 1.409 . S
C431 C430 1.362 . S
H432 C438 0.930 . S
H433 C441 0.930 . S
H434 C442 0.930 . S
H435 C443 0.930 . S
H436 C446 0.930 . S
H437 C447 0.930 . S
C438 H432 0.930 . S
C438 C439 1.355 . S
C438 C440 1.415 . S
C439 C438 1.355 . S
C439 C441 1.419 . S
C440 C438 1.415 . S
C440 C445 1.425 . S
C440 C447 1.409 . S
C441 H433 0.930 . S
C441 C439 1.419 . S
C441 C442 1.362 . S
C442 H434 0.930 . S
C442 C441 1.362 . S
C442 C445 1.409 . S
C443 H435 0.930 . S
C443 C444 1.355 . S
C443 C445 1.415 . S
C444 C443 1.355 . S
C444 C446 1.419 . S
C445 C440 1.425 . S
C445 C442 1.409 . S
C445 C443 1.415 . S
C446 H436 0.930 . S
C446 C444 1.419 . S
C446 C447 1.362 . S
C447 H437 0.930 . S
C447 C440 1.409 . S
C447 C446 1.362 . S
H448 C454 0.930 . S
H449 C457 0.930 . S
H450 C458 0.930 . S
H451 C459 0.930 . S
H452 C462 0.930 . S
H453 C463 0.930 . S
C454 H448 0.930 . S
C454 C455 1.355 . S
C454 C456 1.415 . S
C455 C454 1.355 . S
C455 C457 1.419 . S
C456 C454 1.415 . S
C456 C461 1.425 . S
C456 C463 1.409 . S
C457 H449 0.930 . S
C457 C455 1.419 . S
C457 C458 1.362 . S
C458 H450 0.930 . S
C458 C457 1.362 . S
C458 C461 1.409 . S
C459 H451 0.930 . S
C459 C460 1.355 . S
C459 C461 1.415 . S
C460 C459 1.355 . S
C460 C462 1.419 . S
C461 C456 1.425 . S
C461 C458 1.409 . S
C461 C459 1.415 . S
C462 H452 0.930 . S
C462 C460 1.419 . S
C462 C463 1.362 . S
C463 H453 0.930 . S
C463 C456 1.409 . S
C463 C462 1.362 . S
H464 C470 0.930 . S
H465 C473 0.930 . S
H466 C474 0.930 . S
H467 C475 0.930 . S
H468 C478 0.930 . S
H469 C479 0.930 . S
C470 H464 0.930 . S
C470 C471 1.355 . S
C470 C472 1.415 . S
C471 C470 1.355 . S
C471 C473 1.419 . S
C472 C470 1.415 . S
C472 C477 1.425 . S
C472 C479 1.409 . S
C473 H465 0.930 . S
C473 C471 1.419 . S
C473 C474 1.362 . S
C474 H466 0.930 . S
C474 C473 1.362 . S
C474 C477 1.409 . S
C475 H467 0.930 . S
C475 C476 1.355 . S
C475 C477 1.415 . S
C476 C475 1.355 . S
C476 C478 1.419 . S
C477 C472 1.425 . S
C477 C474 1.409 . S
C477 C475 1.415 . S
C478 H468 0.930 . S
C478 C476 1.419 . S
C478 C479 1.362 . S
C479 H469 0.930 . S
C479 C472 1.409 . S
C479 C478 1.362 . S
H480 C486 0.930 . S
H481 C489 0.930 . S
H482 C490 0.930 . S
H483 C491 0.930 . S
H484 C494 0.930 . S
H485 C495 0.930 . S
C486 H480 0.930 . S
C486 C487 1.355 . S
C486 C488 1.415 . S
C487 C486 1.355 . S
C487 C489 1.419 . S
C488 C486 1.415 . S
C488 C493 1.425 . S
C488 C495 1.409 . S
C489 H481 0.930 . S
C489 C487 1.419 . S
C489 C490 1.362 . S
C490 H482 0.930 . S
C490 C489 1.362 . S
C490 C493 1.409 . S
C491 H483 0.930 . S
C491 C492 1.355 . S
C491 C493 1.415 . S
C492 C491 1.355 . S
C492 C494 1.419 . S
C493 C488 1.425 . S
C493 C490 1.409 . S
C493 C491 1.415 . S
C494 H484 0.930 . S
C494 C492 1.419 . S
C494 C495 1.362 . S
C495 H485 0.930 . S
C495 C488 1.409 . S
C495 C494 1.362 . S
H496 C502 0.930 . S
H497 C505 0.930 . S
H498 C506 0.930 . S
H499 C507 0.930 . S
H500 C510 0.930 . S
H501 C511 0.930 . S
C502 H496 0.930 . S
C502 C503 1.355 . S
C502 C504 1.415 . S
C503 C502 1.355 . S
C503 C505 1.419 . S
C504 C502 1.415 . S
C504 C509 1.425 . S
C504 C511 1.409 . S
C505 H497 0.930 . S
C505 C503 1.419 . S
C505 C506 1.362 . S
C506 H498 0.930 . S
C506 C505 1.362 . S
C506 C509 1.409 . S
C507 H499 0.930 . S
C507 C508 1.355 . S
C507 C509 1.415 . S
C508 C507 1.355 . S
C508 C510 1.419 . S
C509 C504 1.425 . S
C509 C506 1.409 . S
C509 C507 1.415 . S
C510 H500 0.930 . S
C510 C508 1.419 . S
C510 C511 1.362 . S
C511 H501 0.930 . S
C511 C504 1.409 . S
C511 C510 1.362 . S
H512 C518 0.930 . S
H513 C521 0.930 . S
H514 C522 0.930 . S
H515 C523 0.930 . S
H516 C526 0.930 . S
H517 C527 0.930 . S
C518 H512 0.930 . S
C518 C519 1.355 . S
C518 C520 1.415 . S
C519 C518 1.355 . S
C519 C521 1.419 . S
C520 C518 1.415 . S
C520 C525 1.425 . S
C520 C527 1.409 . S
C521 H513 0.930 . S
C521 C519 1.419 . S
C521 C522 1.362 . S
C522 H514 0.930 . S
C522 C521 1.362 . S
C522 C525 1.409 . S
C523 H515 0.930 . S
C523 C524 1.355 . S
C523 C525 1.415 . S
C524 C523 1.355 . S
C524 C526 1.419 . S
C525 C520 1.425 . S
C525 C522 1.409 . S
C525 C523 1.415 . S
C526 H516 0.930 . S
C526 C524 1.419 . S
C526 C527 1.362 . S
C527 H517 0.930 . S
C527 C520 1.409 . S
C527 C526 1.362 . S
H528 C534 0.930 . S
H529 C537 0.930 . S
H530 C538 0.930 . S
H531 C539 0.930 . S
H532 C542 0.930 . S
H533 C543 0.930 . S
C534 H528 0.930 . S
C534 C535 1.355 . S
C534 C536 1.415 . S
C535 C534 1.355 . S
C535 C537 1.419 . S
C536 C534 1.415 . S
C536 C541 1.425 . S
C536 C543 1.409 . S
C537 H529 0.930 . S
C537 C535 1.419 . S
C537 C538 1.362 . S
C538 H530 0.930 . S
C538 C537 1.362 . S
C538 C541 1.409 . S
C539 H531 0.930 . S
C539 C540 1.355 . S
C539 C541 1.415 . S
C540 C539 1.355 . S
C540 C542 1.419 . S
C541 C536 1.425 . S
C541 C538 1.409 . S
C541 C539 1.415 . S
C542 H532 0.930 . S
C542 C540 1.419 . S
C542 C543 1.362 . S
C543 H533 0.930 . S
C543 C536 1.409 . S
C543 C542 1.362 . S
H544 C550 0.930 . S
H545 C553 0.930 . S
H546 C554 0.930 . S
H547 C555 0.930 . S
H548 C558 0.930 . S
H549 C559 0.930 . S
C550 H544 0.930 . S
C550 C551 1.355 . S
C550 C552 1.415 . S
C551 C550 1.355 . S
C551 C553 1.419 . S
C552 C550 1.415 . S
C552 C557 1.425 . S
C552 C559 1.409 . S
C553 H545 0.930 . S
C553 C551 1.419 . S
C553 C554 1.362 . S
C554 H546 0.930 . S
C554 C553 1.362 . S
C554 C557 1.409 . S
C555 H547 0.930 . S
C555 C556 1.355 . S
C555 C557 1.415 . S
C556 C555 1.355 . S
C556 C558 1.419 . S
C557 C552 1.425 . S
C557 C554 1.409 . S
C557 C555 1.415 . S
C558 H548 0.930 . S
C558 C556 1.419 . S
C558 C559 1.362 . S
C559 H549 0.930 . S
C559 C552 1.409 . S
C559 C558 1.362 . S
C183 C52 1.571 . S
C188 C8 1.564 . S
C199 C19 1.572 . S
C204 C63 1.566 . S
C215 C74 1.536 . S
C220 C30 1.527 . S
C231 C41 1.574 . S
C236 C85 1.569 . S
C247 C96 1.530 . S
C252 C140 1.522 . S
C263 C151 1.520 . S
C268 C107 1.526 . S
C279 C162 1.520 . S
C284 C118 1.519 . S
C295 C129 1.522 . S
C300 C173 1.519 . S
C311 C7 1.491 . S
C316 C62 1.497 . S
C327 C73 1.456 . S
C332 C18 1.468 . S
C343 C29 1.493 . S
C348 C84 1.498 . S
C359 C40 1.416 . S
C364 C51 1.422 . S
C375 C95 1.413 . S
C380 C150 1.417 . S
C391 C161 1.418 . S
C396 C106 1.414 . S
C407 C117 1.500 . S
C412 C172 1.499 . S
C423 C139 1.480 . S
C428 C128 1.470 . S
C439 C170 1.352 . S
C444 C5 1.342 . S
C455 C137 1.273 . S
C460 C16 1.258 . S
C471 C27 1.356 . S
C476 C148 1.348 . S
C487 C159 1.251 . S
C492 C38 1.266 . S
C503 C49 1.240 . S
C508 C104 1.253 . S
C519 C115 1.220 . S
C524 C60 1.229 . S
C535 C126 1.363 . S
C540 C71 1.359 . S
C551 C93 1.306 . S
C556 C82 1.321 . S
