# Generated by pormake.
# Topology sxg, (6)-cn, num edge types: 1
# Building blocks:
#     Node 0, Type 0, BuildingBlock: PAMTUU_clean_sbu_0, # of connection points: 6
#     Node 1, Type 0, BuildingBlock: PAMTUU_clean_sbu_0, # of connection points: 6
#     Node 2, Type 0, BuildingBlock: PAMTUU_clean_sbu_0, # of connection points: 6
#     Node 3, Type 0, BuildingBlock: PAMTUU_clean_sbu_0, # of connection points: 6
#     Node 4, Type 0, BuildingBlock: PAMTUU_clean_sbu_0, # of connection points: 6
#     Node 5, Type 0, BuildingBlock: PAMTUU_clean_sbu_0, # of connection points: 6
#     Node 6, Type 0, BuildingBlock: PAMTUU_clean_sbu_0, # of connection points: 6
#     Node 7, Type 0, BuildingBlock: PAMTUU_clean_sbu_0, # of connection points: 6
#     Node 8, Type 0, BuildingBlock: PAMTUU_clean_sbu_0, # of connection points: 6
#     Node 9, Type 0, BuildingBlock: PAMTUU_clean_sbu_0, # of connection points: 6
#     Node 10, Type 0, BuildingBlock: PAMTUU_clean_sbu_0, # of connection points: 6
#     Node 11, Type 0, BuildingBlock: PAMTUU_clean_sbu_0, # of connection points: 6
#     Node 12, Type 0, BuildingBlock: PAMTUU_clean_sbu_0, # of connection points: 6
#     Node 13, Type 0, BuildingBlock: PAMTUU_clean_sbu_0, # of connection points: 6
#     Node 14, Type 0, BuildingBlock: PAMTUU_clean_sbu_0, # of connection points: 6
#     Node 15, Type 0, BuildingBlock: PAMTUU_clean_sbu_0, # of connection points: 6
#     Node 16, Type 0, BuildingBlock: PAMTUU_clean_sbu_0, # of connection points: 6
#     Node 17, Type 0, BuildingBlock: PAMTUU_clean_sbu_0, # of connection points: 6
#     Node 18, Type 0, BuildingBlock: PAMTUU_clean_sbu_0, # of connection points: 6
#     Node 19, Type 0, BuildingBlock: PAMTUU_clean_sbu_0, # of connection points: 6
#     Node 20, Type 0, BuildingBlock: PAMTUU_clean_sbu_0, # of connection points: 6
#     Node 21, Type 0, BuildingBlock: PAMTUU_clean_sbu_0, # of connection points: 6
#     Node 22, Type 0, BuildingBlock: PAMTUU_clean_sbu_0, # of connection points: 6
#     Node 23, Type 0, BuildingBlock: PAMTUU_clean_sbu_0, # of connection points: 6
#     Edge 24, Type (0, 0), BuildingBlock: OJICUG_clean_linker_0, # of connection points: 2
#     Edge 25, Type (0, 0), BuildingBlock: OJICUG_clean_linker_0, # of connection points: 2
#     Edge 26, Type (0, 0), BuildingBlock: OJICUG_clean_linker_0, # of connection points: 2
#     Edge 27, Type (0, 0), BuildingBlock: OJICUG_clean_linker_0, # of connection points: 2
#     Edge 28, Type (0, 0), BuildingBlock: OJICUG_clean_linker_0, # of connection points: 2
#     Edge 29, Type (0, 0), BuildingBlock: OJICUG_clean_linker_0, # of connection points: 2
#     Edge 30, Type (0, 0), BuildingBlock: OJICUG_clean_linker_0, # of connection points: 2
#     Edge 31, Type (0, 0), BuildingBlock: OJICUG_clean_linker_0, # of connection points: 2
#     Edge 32, Type (0, 0), BuildingBlock: OJICUG_clean_linker_0, # of connection points: 2
#     Edge 33, Type (0, 0), BuildingBlock: OJICUG_clean_linker_0, # of connection points: 2
#     Edge 34, Type (0, 0), BuildingBlock: OJICUG_clean_linker_0, # of connection points: 2
#     Edge 35, Type (0, 0), BuildingBlock: OJICUG_clean_linker_0, # of connection points: 2
#     Edge 36, Type (0, 0), BuildingBlock: OJICUG_clean_linker_0, # of connection points: 2
#     Edge 37, Type (0, 0), BuildingBlock: OJICUG_clean_linker_0, # of connection points: 2
#     Edge 38, Type (0, 0), BuildingBlock: OJICUG_clean_linker_0, # of connection points: 2
#     Edge 39, Type (0, 0), BuildingBlock: OJICUG_clean_linker_0, # of connection points: 2
#     Edge 40, Type (0, 0), BuildingBlock: OJICUG_clean_linker_0, # of connection points: 2
#     Edge 41, Type (0, 0), BuildingBlock: OJICUG_clean_linker_0, # of connection points: 2
#     Edge 42, Type (0, 0), BuildingBlock: OJICUG_clean_linker_0, # of connection points: 2
#     Edge 43, Type (0, 0), BuildingBlock: OJICUG_clean_linker_0, # of connection points: 2
#     Edge 44, Type (0, 0), BuildingBlock: OJICUG_clean_linker_0, # of connection points: 2
#     Edge 45, Type (0, 0), BuildingBlock: OJICUG_clean_linker_0, # of connection points: 2
#     Edge 46, Type (0, 0), BuildingBlock: OJICUG_clean_linker_0, # of connection points: 2
#     Edge 47, Type (0, 0), BuildingBlock: OJICUG_clean_linker_0, # of connection points: 2
#     Edge 48, Type (0, 0), BuildingBlock: OJICUG_clean_linker_0, # of connection points: 2
#     Edge 49, Type (0, 0), BuildingBlock: OJICUG_clean_linker_0, # of connection points: 2
#     Edge 50, Type (0, 0), BuildingBlock: OJICUG_clean_linker_0, # of connection points: 2
#     Edge 51, Type (0, 0), BuildingBlock: OJICUG_clean_linker_0, # of connection points: 2
#     Edge 52, Type (0, 0), BuildingBlock: OJICUG_clean_linker_0, # of connection points: 2
#     Edge 53, Type (0, 0), BuildingBlock: OJICUG_clean_linker_0, # of connection points: 2
#     Edge 54, Type (0, 0), BuildingBlock: OJICUG_clean_linker_0, # of connection points: 2
#     Edge 55, Type (0, 0), BuildingBlock: OJICUG_clean_linker_0, # of connection points: 2
#     Edge 56, Type (0, 0), BuildingBlock: OJICUG_clean_linker_0, # of connection points: 2
#     Edge 57, Type (0, 0), BuildingBlock: OJICUG_clean_linker_0, # of connection points: 2
#     Edge 58, Type (0, 0), BuildingBlock: OJICUG_clean_linker_0, # of connection points: 2
#     Edge 59, Type (0, 0), BuildingBlock: OJICUG_clean_linker_0, # of connection points: 2
#     Edge 60, Type (0, 0), BuildingBlock: OJICUG_clean_linker_0, # of connection points: 2
#     Edge 61, Type (0, 0), BuildingBlock: OJICUG_clean_linker_0, # of connection points: 2
#     Edge 62, Type (0, 0), BuildingBlock: OJICUG_clean_linker_0, # of connection points: 2
#     Edge 63, Type (0, 0), BuildingBlock: OJICUG_clean_linker_0, # of connection points: 2
#     Edge 64, Type (0, 0), BuildingBlock: OJICUG_clean_linker_0, # of connection points: 2
#     Edge 65, Type (0, 0), BuildingBlock: OJICUG_clean_linker_0, # of connection points: 2
#     Edge 66, Type (0, 0), BuildingBlock: OJICUG_clean_linker_0, # of connection points: 2
#     Edge 67, Type (0, 0), BuildingBlock: OJICUG_clean_linker_0, # of connection points: 2
#     Edge 68, Type (0, 0), BuildingBlock: OJICUG_clean_linker_0, # of connection points: 2
#     Edge 69, Type (0, 0), BuildingBlock: OJICUG_clean_linker_0, # of connection points: 2
#     Edge 70, Type (0, 0), BuildingBlock: OJICUG_clean_linker_0, # of connection points: 2
#     Edge 71, Type (0, 0), BuildingBlock: OJICUG_clean_linker_0, # of connection points: 2
#     Edge 72, Type (0, 0), BuildingBlock: OJICUG_clean_linker_0, # of connection points: 2
#     Edge 73, Type (0, 0), BuildingBlock: OJICUG_clean_linker_0, # of connection points: 2
#     Edge 74, Type (0, 0), BuildingBlock: OJICUG_clean_linker_0, # of connection points: 2
#     Edge 75, Type (0, 0), BuildingBlock: OJICUG_clean_linker_0, # of connection points: 2
#     Edge 76, Type (0, 0), BuildingBlock: OJICUG_clean_linker_0, # of connection points: 2
#     Edge 77, Type (0, 0), BuildingBlock: OJICUG_clean_linker_0, # of connection points: 2
#     Edge 78, Type (0, 0), BuildingBlock: OJICUG_clean_linker_0, # of connection points: 2
#     Edge 79, Type (0, 0), BuildingBlock: OJICUG_clean_linker_0, # of connection points: 2
#     Edge 80, Type (0, 0), BuildingBlock: OJICUG_clean_linker_0, # of connection points: 2
#     Edge 81, Type (0, 0), BuildingBlock: OJICUG_clean_linker_0, # of connection points: 2
#     Edge 82, Type (0, 0), BuildingBlock: OJICUG_clean_linker_0, # of connection points: 2
#     Edge 83, Type (0, 0), BuildingBlock: OJICUG_clean_linker_0, # of connection points: 2
#     Edge 84, Type (0, 0), BuildingBlock: OJICUG_clean_linker_0, # of connection points: 2
#     Edge 85, Type (0, 0), BuildingBlock: OJICUG_clean_linker_0, # of connection points: 2
#     Edge 86, Type (0, 0), BuildingBlock: OJICUG_clean_linker_0, # of connection points: 2
#     Edge 87, Type (0, 0), BuildingBlock: OJICUG_clean_linker_0, # of connection points: 2
#     Edge 88, Type (0, 0), BuildingBlock: OJICUG_clean_linker_0, # of connection points: 2
#     Edge 89, Type (0, 0), BuildingBlock: OJICUG_clean_linker_0, # of connection points: 2
#     Edge 90, Type (0, 0), BuildingBlock: OJICUG_clean_linker_0, # of connection points: 2
#     Edge 91, Type (0, 0), BuildingBlock: OJICUG_clean_linker_0, # of connection points: 2
#     Edge 92, Type (0, 0), BuildingBlock: OJICUG_clean_linker_0, # of connection points: 2
#     Edge 93, Type (0, 0), BuildingBlock: OJICUG_clean_linker_0, # of connection points: 2
#     Edge 94, Type (0, 0), BuildingBlock: OJICUG_clean_linker_0, # of connection points: 2
#     Edge 95, Type (0, 0), BuildingBlock: OJICUG_clean_linker_0, # of connection points: 2
# Relax obj value: 0.261
# Max RMSD: 0.283
# Mean RMSD: 0.247
data_MOF--net-sxg--node1-PAMTUU_clean_sbu_0--edge1-OJICUG_clean_linker_0
_symmetry_space_group_name_H-M    P1
_symmetry_Int_Tables_number       1
_symmetry_cell_setting            triclinic
loop_
_symmetry_equiv_pos_as_xyz
'x, y, z'
_cell_length_a     38.065327
_cell_length_b     43.912271
_cell_length_c     37.737136
_cell_angle_alpha  85.76106
_cell_angle_beta   100.63737
_cell_angle_gamma 84.599728
loop_
_atom_site_label
_atom_site_type_symbol
_atom_site_fract_x
_atom_site_fract_y
_atom_site_fract_z
_atom_type_partial_charge
Tb0 Tb 1.02751 0.25408 0.25617 0.0
Tb1 Tb 1.00934 0.32871 0.2526 0.0
C2 C 0.97991 0.2916 0.18644 0.0
C3 C 0.07713 0.17838 0.28745 0.0
C4 C 0.13908 0.14571 0.33316 0.0
C5 C 0.10485 0.13544 0.33156 0.0
C6 C 0.07428 0.15159 0.30895 0.0
C7 C 0.11115 0.18875 0.28896 0.0
C8 C 0.14169 0.17253 0.31124 0.0
C9 C 1.04442 0.19656 0.26564 0.0
O10 O 0.06972 0.27192 0.22975 0.0
O11 O 0.06079 0.32404 0.23526 0.0
O12 O 1.04041 0.31299 0.3063 0.0
O13 O 0.07097 0.269 0.2933 0.0
O14 O 0.9745 0.36799 0.23083 0.0
O15 O 1.02355 0.37136 0.2691 0.0
O16 O 0.96888 0.31107 0.28071 0.0
O17 O 0.99933 0.26401 0.30146 0.0
O18 O 0.98384 0.26636 0.20879 0.0
O19 O 0.99328 0.31656 0.19728 0.0
C20 C 0.07944 0.30002 0.22624 0.0
O21 O 0.04859 0.21364 0.23728 0.0
O22 O 1.02387 0.21142 0.28404 0.0
C23 C 0.06678 0.2906 0.31456 0.0
C24 C 0.97214 0.40358 0.27412 0.0
C25 C 0.92961 0.44096 0.3111 0.0
C26 C 0.96374 0.44861 0.30652 0.0
C27 C 0.98468 0.43016 0.28787 0.0
C28 C 0.93951 0.39462 0.2811 0.0
C29 C 0.91838 0.41318 0.29904 0.0
C30 C 0.99273 0.38549 0.25215 0.0
C31 C 0.97576 0.28719 0.30504 0.0
H32 H 0.10144 0.11523 0.34827 0.0
H33 H 0.04827 0.14339 0.30869 0.0
H34 H 0.1142 0.20958 0.27308 0.0
H35 H 0.16744 0.18101 0.31094 0.0
H36 H 0.97366 0.46944 0.31599 0.0
H37 H 1.0102 0.43708 0.28333 0.0
H38 H 0.92948 0.37388 0.27137 0.0
H39 H 0.89216 0.40648 0.30116 0.0
Tb40 Tb 0.43595 0.73394 0.83475 0.0
Tb41 Tb 0.46765 0.68367 0.78462 0.0
C42 C 0.48335 0.7491 0.77722 0.0
C43 C 0.40151 0.80911 0.8707 0.0
C44 C 0.37669 0.87142 0.87832 0.0
C45 C 0.40807 0.86423 0.86444 0.0
C46 C 0.4203 0.83357 0.86068 0.0
C47 C 0.36998 0.8163 0.88413 0.0
C48 C 0.35772 0.8469 0.8878 0.0
C49 C 0.41687 0.77623 0.87226 0.0
O50 O 0.39087 0.73267 0.79104 0.0
O51 O 0.41945 0.70952 0.74932 0.0
O52 O 0.4233 0.66562 0.80329 0.0
O53 O 0.42843 0.68653 0.85722 0.0
O54 O 0.48403 0.67453 0.73607 0.0
O55 O 0.4863 0.63814 0.77867 0.0
O56 O 0.50557 0.67536 0.83666 0.0
O57 O 0.49059 0.71936 0.86264 0.0
O58 O 0.45254 0.75714 0.78701 0.0
O59 O 0.4993 0.72169 0.78797 0.0
C60 C 0.39113 0.72512 0.75807 0.0
O61 O 0.39611 0.75573 0.86001 0.0
O62 O 0.44884 0.77096 0.86481 0.0
C63 C 0.42068 0.66334 0.83731 0.0
C64 C 0.53661 0.63907 0.75022 0.0
C65 C 0.61229 0.62884 0.75891 0.0
C66 C 0.59341 0.60834 0.77652 0.0
C67 C 0.55594 0.61337 0.77215 0.0
C68 C 0.55546 0.65911 0.73199 0.0
C69 C 0.59274 0.65404 0.73626 0.0
C70 C 0.49767 0.64665 0.74921 0.0
C71 C 0.51221 0.69447 0.86175 0.0
H72 H 0.42316 0.88234 0.85625 0.0
H73 H 0.44492 0.82905 0.85054 0.0
H74 H 0.35524 0.79811 0.8928 0.0
H75 H 0.33367 0.85122 0.89895 0.0
H76 H 0.6076 0.58864 0.79404 0.0
H77 H 0.54219 0.59751 0.78658 0.0
H78 H 0.54154 0.67908 0.71477 0.0
H79 H 0.60616 0.66979 0.72131 0.0
Tb80 Tb 0.62827 0.21805 0.77861 0.0
Tb81 Tb 0.61435 0.16414 0.83445 0.0
C82 C 0.58476 0.23042 0.83862 0.0
C83 C 0.65712 0.28925 0.74029 0.0
C84 C 0.6842 0.34632 0.73701 0.0
C85 C 0.65067 0.34383 0.74674 0.0
C86 C 0.63718 0.31555 0.74828 0.0
C87 C 0.69198 0.29124 0.73374 0.0
C88 C 0.70554 0.3196 0.73232 0.0
C89 C 0.6407 0.26048 0.73604 0.0
O90 O 0.67806 0.21104 0.81763 0.0
O91 O 0.65953 0.18642 0.86555 0.0
O92 O 0.6555 0.1451 0.80746 0.0
O93 O 0.63525 0.17454 0.75422 0.0
O94 O 0.60215 0.14971 0.88477 0.0
O95 O 0.60588 0.11785 0.84439 0.0
O96 O 0.5727 0.16341 0.78511 0.0
O97 O 0.57249 0.21253 0.7601 0.0
O98 O 0.61208 0.23928 0.82519 0.0
O99 O 0.57533 0.20307 0.83387 0.0
C100 C 0.68267 0.20287 0.85236 0.0
O101 O 0.66208 0.23505 0.7456 0.0
O102 O 0.61005 0.25924 0.7465 0.0
C103 C 0.65163 0.14876 0.77214 0.0
C104 C 0.55557 0.11773 0.87206 0.0
C105 C 0.48228 0.1071 0.8608 0.0
C106 C 0.50974 0.0824 0.86992 0.0
C107 C 0.54609 0.08769 0.87545 0.0
C108 C 0.52813 0.14233 0.86286 0.0
C109 C 0.49202 0.1371 0.85735 0.0
C110 C 0.59346 0.12349 0.87348 0.0
C111 C 0.55736 0.18714 0.76226 0.0
H112 H 0.63343 0.36406 0.75013 0.0
H113 H 0.61032 0.31474 0.75374 0.0
H114 H 0.70803 0.2712 0.7279 0.0
H115 H 0.73167 0.32096 0.72517 0.0
H116 H 0.50316 0.05902 0.8731 0.0
H117 H 0.56674 0.06832 0.88182 0.0
H118 H 0.53449 0.16571 0.85923 0.0
H119 H 0.47168 0.15663 0.84978 0.0
Tb120 Tb 1.02479 0.7823 0.31395 0.0
Tb121 Tb 0.05863 0.84849 0.33204 0.0
C122 C 0.08271 0.79023 0.38575 0.0
C123 C 0.97277 0.70947 0.2854 0.0
C124 C 0.92671 0.66285 0.2676 0.0
C125 C 0.95382 0.65889 0.29909 0.0
C126 C 0.97678 0.68176 0.30768 0.0
C127 C 0.94625 0.71314 0.25351 0.0
C128 C 0.92382 0.69003 0.24453 0.0
C129 C 0.99289 0.73579 0.29722 0.0
O130 O 0.99663 0.79907 0.35433 0.0
O131 O 1.02139 0.84386 0.36969 0.0
O132 O 1.00237 0.86053 0.30984 0.0
O133 O 0.99328 0.82021 0.27553 0.0
O134 O 0.08931 0.87577 0.36645 0.0
O135 O 0.06308 0.89349 0.31205 0.0
O136 O 0.07898 0.83359 0.28449 0.0
O137 O 0.07193 0.78201 0.28822 0.0
O138 O 0.05503 0.77602 0.37108 0.0
O139 O 0.09408 0.81224 0.36673 0.0
C140 C 0.99934 0.82282 0.37348 0.0
O141 O 0.97889 0.76407 0.28787 0.0
O142 O 1.02597 0.73333 0.31536 0.0
C143 C 0.98284 0.84779 0.28415 0.0
C144 C 0.11557 0.91461 0.33698 0.0
C145 C 0.17547 0.9461 0.32971 0.0
C146 C 0.14521 0.96113 0.34014 0.0
C147 C 0.1156 0.94552 0.34368 0.0
C148 C 0.14517 0.89952 0.32573 0.0
C149 C 0.17495 0.91515 0.32214 0.0
C150 C 0.08413 0.89898 0.34171 0.0
C151 C 0.08646 0.80559 0.27547 0.0
H152 H 0.95691 0.63823 0.31743 0.0
H153 H 0.99664 0.67831 0.3326 0.0
H154 H 0.94222 0.73428 0.23585 0.0
H155 H 0.90313 0.69404 0.22028 0.0
H156 H 0.14488 0.98466 0.34697 0.0
H157 H 0.09286 0.95751 0.35227 0.0
H158 H 0.14537 0.87566 0.32011 0.0
H159 H 0.1977 0.90294 0.31387 0.0
Tb160 Tb 0.34269 0.06745 0.38154 0.0
Tb161 Tb 0.32662 0.02096 0.44926 0.0
C162 C 0.29649 1.01115 0.36913 0.0
C163 C 0.36442 0.12114 0.30029 0.0
C164 C 0.37884 0.16141 0.24409 0.0
C165 C 0.3448 0.15082 0.24185 0.0
C166 C 0.33764 0.13099 0.2697 0.0
C167 C 0.39889 0.13062 0.30195 0.0
C168 C 0.40604 0.1506 0.27412 0.0
C169 C 0.35629 0.10124 0.33037 0.0
O170 O 0.30134 0.09209 0.40409 0.0
O171 O 0.27667 0.05008 0.42389 0.0
O172 O 0.34398 0.06257 0.47362 0.0
O173 O 0.37408 0.08198 0.43094 0.0
O174 O 0.28793 1.0001 0.47271 0.0
O175 O 0.34404 0.99107 0.49726 0.0
O176 O 0.37597 0.99921 0.43489 0.0
O177 O 0.37202 0.02362 0.378 0.0
O178 O 0.30015 0.03981 0.35851 0.0
O179 O 0.31263 0.998 0.40096 0.0
C180 C 0.27341 0.0792 0.41109 0.0
O181 O 0.38129 0.08661 0.35591 0.0
O182 O 0.32354 0.09727 0.33405 0.0
C183 C 0.36508 0.08228 0.463 0.0
C184 C 0.3076 0.94974 0.50121 0.0
C185 C 0.29355 0.88721 0.5106 0.0
C186 C 0.30598 0.90338 0.54057 0.0
C187 C 0.31282 0.93416 0.53591 0.0
C188 C 0.29613 0.93356 0.47106 0.0
C189 C 0.28908 0.90274 0.4757 0.0
C190 C 0.31181 0.98319 0.49726 0.0
C191 C 0.38498 1.00076 0.4027 0.0
H192 H 0.32343 0.15834 0.2188 0.0
H193 H 0.31099 0.12366 0.26743 0.0
H194 H 0.4201 0.12325 0.3252 0.0
H195 H 0.4324 0.15857 0.27686 0.0
H196 H 0.30913 0.89265 0.56791 0.0
H197 H 0.32132 0.94609 0.55962 0.0
H198 H 0.29187 0.94493 0.44391 0.0
H199 H 0.27978 0.89117 0.45193 0.0
Tb200 Tb 0.26456 0.05138 0.83545 0.0
Tb201 Tb 0.29958 0.06251 0.91645 0.0
C202 C 0.3345 0.0828 0.8536 0.0
C203 C 0.21969 1.00723 0.77685 0.0
C204 C 0.22019 0.94504 0.80209 0.0
C205 C 0.23678 0.95323 0.77275 0.0
C206 C 0.23679 0.984 0.7605 0.0
C207 C 0.20004 0.99885 0.80355 0.0
C208 C 0.2012 0.9683 0.81676 0.0
C209 C 0.2329 0.03766 0.77663 0.0
O210 O 0.2905 1.00649 0.85647 0.0
O211 O 0.33055 1.01946 0.90502 0.0
O212 O 0.27243 0.02318 0.92507 0.0
O213 O 0.23173 0.0306 0.87155 0.0
O214 O 0.34514 0.07115 0.95339 0.0
O215 O 0.29321 0.07096 0.96892 0.0
O216 O 0.24831 0.09306 0.89988 0.0
O217 O 0.25153 0.09958 0.84062 0.0
O218 O 0.31948 0.06193 0.83471 0.0
O219 O 0.32007 0.09314 0.87975 0.0
C220 C 0.31912 0.9994 0.88187 0.0
O221 O 0.21763 0.05737 0.795 0.0
O222 O 0.26793 0.03647 0.78439 0.0
C223 C 0.24338 1.0165 0.90431 0.0
C224 C 0.32844 0.10935 0.99035 0.0
C225 C 0.32811 0.17006 1.01032 0.0
C226 C 0.30477 0.15031 1.02222 0.0
C227 C 0.30514 0.12024 1.01256 0.0
C228 C 0.35208 0.12892 0.97874 0.0
C229 C 0.35201 0.15887 0.98874 0.0
C230 C 0.32582 0.07861 0.97734 0.0
C231 C 0.2379 0.10874 0.86787 0.0
H232 H 0.25017 0.93598 0.75929 0.0
H233 H 0.25235 0.98972 0.7401 0.0
H234 H 0.18614 1.01606 0.81665 0.0
H235 H 0.18785 0.96314 0.83907 0.0
H236 H 0.28579 0.15818 1.03859 0.0
H237 H 0.28657 0.10566 1.02182 0.0
H238 H 0.37043 0.12128 0.96159 0.0
H239 H 0.37099 0.17314 0.9798 0.0
Tb240 Tb 0.82103 0.59385 0.70399 0.0
Tb241 Tb 0.74446 0.57697 0.66091 0.0
C242 C 0.8175 0.54849 0.64251 0.0
C243 C 0.89615 0.63857 0.72521 0.0
C244 C 0.93355 0.6885 0.71072 0.0
C245 C 0.95227 0.65957 0.72451 0.0
C246 C 0.93365 0.63485 0.73182 0.0
C247 C 0.87727 0.66653 0.70834 0.0
C248 C 0.89591 0.69143 0.70124 0.0
C249 C 0.87713 0.61309 0.73582 0.0
O250 O 0.79991 0.634 0.6655 0.0
O251 O 0.7534 0.61655 0.62691 0.0
O252 O 0.73812 0.61578 0.69179 0.0
O253 O 0.78087 0.59579 0.73851 0.0
O254 O 0.70778 0.56743 0.61528 0.0
O255 O 0.69206 0.57056 0.66735 0.0
O256 O 0.76153 0.54075 0.7066 0.0
O257 O 0.82085 0.54763 0.72726 0.0
O258 O 0.83584 0.56787 0.66111 0.0
O259 O 0.7831 0.54704 0.64107 0.0
C260 C 0.77479 0.63773 0.63601 0.0
O261 O 0.84545 0.6206 0.7431 0.0
O262 O 0.87739 0.59033 0.71564 0.0
C263 C 0.74979 0.61183 0.72653 0.0
C264 C 0.67938 0.52717 0.63835 0.0
C265 C 0.68437 0.46654 0.66939 0.0
C266 C 0.65471 0.4876 0.67128 0.0
C267 C 0.65226 0.5178 0.65587 0.0
C268 C 0.70721 0.50528 0.63369 0.0
C269 C 0.70979 0.4753 0.64924 0.0
C270 C 0.68525 0.55969 0.6358 0.0
C271 C 0.79345 0.53159 0.72708 0.0
H272 H 0.98129 0.65659 0.73268 0.0
H273 H 0.94853 0.61322 0.74412 0.0
H274 H 0.84816 0.66959 0.70213 0.0
H275 H 0.88091 0.71342 0.69061 0.0
H276 H 0.63424 0.48108 0.68595 0.0
H277 H 0.6309 0.53438 0.66024 0.0
H278 H 0.72887 0.51182 0.62076 0.0
H279 H 0.73294 0.45957 0.6474 0.0
Tb280 Tb 0.74026 0.56347 0.25857 0.0
Tb281 Tb 0.78438 0.51854 0.2067 0.0
C282 C 0.80401 0.51449 0.29029 0.0
C283 C 0.70916 0.61977 0.3251 0.0
C284 C 0.70339 0.66472 0.37618 0.0
C285 C 0.70919 0.63295 0.38741 0.0
C286 C 0.71192 0.6109 0.36232 0.0
C287 C 0.70362 0.65147 0.31394 0.0
C288 C 0.70088 0.67346 0.33892 0.0
C289 C 0.70665 0.59639 0.29762 0.0
O290 O 0.7873 0.5869 0.25201 0.0
O291 O 0.82134 0.55322 0.22284 0.0
O292 O 0.76387 0.56168 0.17493 0.0
O293 O 0.71596 0.5768 0.20122 0.0
O294 O 0.82577 0.48397 0.20228 0.0
O295 O 0.78607 0.50319 0.1556 0.0
O296 O 0.73264 0.50098 0.20601 0.0
O297 O 0.71933 0.51802 0.25866 0.0
O298 O 0.79137 0.54316 0.29118 0.0
O299 O 0.79275 0.49914 0.26266 0.0
C300 C 0.81646 0.57885 0.23888 0.0
O301 O 0.70993 0.6049 0.26463 0.0
O302 O 0.72112 0.56819 0.30744 0.0
C303 C 0.7337 0.579 0.1743 0.0
C304 C 0.81106 0.45152 0.15319 0.0
C305 C 0.81137 0.39425 0.12115 0.0
C306 C 0.79783 0.42235 0.10036 0.0
C307 C 0.79767 0.45032 0.11606 0.0
C308 C 0.82473 0.42361 0.17427 0.0
C309 C 0.82481 0.39539 0.15849 0.0
C310 C 0.81317 0.48231 0.16787 0.0
C311 C 0.71731 0.49761 0.23432 0.0
H312 H 0.71169 0.62501 0.41571 0.0
H313 H 0.71545 0.58677 0.37205 0.0
H314 H 0.70038 0.65942 0.28554 0.0
H315 H 0.69575 0.69745 0.32865 0.0
H316 H 0.78816 0.42303 0.07145 0.0
H317 H 0.78768 0.4713 0.09874 0.0
H318 H 0.83575 0.42355 0.20286 0.0
H319 H 0.83538 0.37448 0.17566 0.0
Tb320 Tb 0.36593 0.33129 0.12294 0.0
Tb321 Tb 0.43032 0.29729 0.08328 0.0
C322 C 0.35214 0.28758 0.06132 0.0
C323 C 0.28083 0.33987 0.16216 0.0
C324 C 0.21643 0.32324 0.18376 0.0
C325 C 0.23038 0.30847 0.15652 0.0
C326 C 0.2621 0.31672 0.14581 0.0
C327 C 0.26772 0.35373 0.19017 0.0
C328 C 0.23615 0.34555 0.20085 0.0
C329 C 0.31214 0.35167 0.14885 0.0
O330 O 0.38815 0.28976 0.15716 0.0
O331 O 0.41622 0.26079 0.11935 0.0
O332 O 0.45486 0.30963 0.13582 0.0
O333 O 0.41612 0.35072 0.14466 0.0
O334 O 0.44742 0.2623 1.05315 0.0
O335 O 0.48294 0.29551 0.07309 0.0
O336 O 0.42066 0.34419 0.05763 0.0
O337 O 0.36784 0.36208 0.07529 0.0
O338 O 0.34667 0.29345 0.09352 0.0
O339 O 0.3781 0.29925 1.04855 0.0
C340 C 0.40197 0.26342 0.14849 0.0
O341 O 0.34426 0.34381 0.16832 0.0
O342 O 0.31231 0.35121 0.11436 0.0
C343 C 0.44871 0.33554 0.15002 0.0
C344 C 0.49252 0.27387 1.0195 0.0
C345 C 0.52066 0.27233 0.95506 0.0
C346 C 0.54336 0.26559 0.98923 0.0
C347 C 0.52942 0.26636 1.02099 0.0
C348 C 0.46976 0.28158 0.98562 0.0
C349 C 0.4837 0.2808 0.95371 0.0
C350 C 0.47876 0.27228 1.05367 0.0
C351 C 0.39248 0.36467 1.05509 0.0
H352 H 0.21614 0.29128 0.14255 0.0
H353 H 0.27148 0.30551 0.12413 0.0
H354 H 0.28153 0.37154 0.20337 0.0
H355 H 0.22702 0.35702 0.22246 0.0
H356 H 0.57176 0.25843 0.99149 0.0
H357 H 0.54746 0.26029 1.04686 0.0
H358 H 0.44119 0.28766 0.98379 0.0
H359 H 0.46542 0.28641 0.92795 0.0
Tb360 Tb 0.87193 0.23873 1.00361 0.0
Tb361 Tb 0.85111 0.30808 0.96286 0.0
C362 C 0.9039 0.25988 0.93444 0.0
C363 C 0.89465 0.16775 0.07062 0.0
C364 C 0.89406 0.12859 0.13296 0.0
C365 C 0.91414 0.11919 0.1072 0.0
C366 C 0.91433 0.13863 0.07623 0.0
C367 C 0.8772 0.17835 0.09771 0.0
C368 C 0.87697 0.1589 0.12873 0.0
C369 C 0.88946 0.18487 1.03479 0.0
O370 O 0.91688 0.26471 1.01931 0.0
O371 O 0.88627 0.31173 1.01654 0.0
O372 O 0.81525 0.30153 1.00081 0.0
O373 O 0.85132 0.26715 1.04336 0.0
O374 O 0.86559 0.35215 0.94967 0.0
O375 O 0.81097 0.34171 0.93383 0.0
O376 O 0.81962 0.27696 0.92875 0.0
O377 O 0.81708 0.24002 0.97381 0.0
O378 O 0.89062 0.23742 0.95138 0.0
O379 O 0.89564 0.28875 0.93972 0.0
C380 C 0.91286 0.29096 1.033 0.0
O381 O 0.85671 0.19612 1.02018 0.0
O382 O 0.91242 0.2041 1.0299 0.0
C383 C 0.82633 0.291 1.03486 0.0
C384 C 0.82901 0.3836 0.89926 0.0
C385 C 0.81664 0.42865 0.83885 0.0
C386 C 0.83643 0.43428 0.87267 0.0
C387 C 0.8425 0.41211 0.90231 0.0
C388 C 0.80925 0.37762 0.86557 0.0
C389 C 0.8031 0.39996 0.83565 0.0
C390 C 0.83315 0.36245 0.93273 0.0
C391 C 0.80442 0.25346 0.94121 0.0
H392 H 0.92722 0.09595 0.10939 0.0
H393 H 0.92803 0.13015 0.05557 0.0
H394 H 0.86211 0.20092 0.09394 0.0
H395 H 0.86149 0.16684 0.14829 0.0
H396 H 0.84666 0.45623 0.87658 0.0
H397 H 0.85718 0.41759 0.92808 0.0
H398 H 0.79819 0.35592 0.86245 0.0
H399 H 0.78795 0.39473 0.81002 0.0
Tb400 Tb 0.73 0.81786 0.5085 0.0
Tb401 Tb 0.66155 0.79404 0.54126 0.0
C402 C 0.73802 0.76218 0.56749 0.0
C403 C 0.8148 0.83456 0.47176 0.0
C404 C 0.88064 0.83163 0.4473 0.0
C405 C 0.87649 0.81181 0.47695 0.0
C406 C 0.84386 0.81328 0.48914 0.0
C407 C 0.81867 0.85381 0.44172 0.0
C408 C 0.85118 0.85235 0.42954 0.0
C409 C 0.78195 0.84013 0.48678 0.0
O410 O 0.71566 0.78128 0.47484 0.0
O411 O 0.67348 0.75942 0.50309 0.0
O412 O 0.64124 0.81052 0.48528 0.0
O413 O 0.68056 0.84612 0.48002 0.0
O414 O 0.63975 0.76017 0.57059 0.0
O415 O 0.60858 0.80346 0.54937 0.0
O416 O 0.66896 0.8399 0.56107 0.0
O417 O 0.72771 0.84183 0.55628 0.0
O418 O 0.74812 0.77227 0.53765 0.0
O419 O 0.71119 0.77722 0.57839 0.0
C420 C 0.6942 0.75977 0.47812 0.0
O421 O 0.75102 0.83837 0.46581 0.0
O422 O 0.78279 0.82935 0.5201 0.0
C423 C 0.65015 0.83479 0.46831 0.0
C424 C 0.59384 0.77795 0.60237 0.0
C425 C 0.55465 0.77617 0.65962 0.0
C426 C 0.55913 0.80441 0.6418 0.0
C427 C 0.57827 0.8053 0.61326 0.0
C428 C 0.59053 0.74992 0.6213 0.0
C429 C 0.57116 0.74902 0.64946 0.0
C430 C 0.60964 0.77755 0.56904 0.0
C431 C 0.69923 0.85276 0.56795 0.0
H432 H 0.89869 0.7956 0.49122 0.0
H433 H 0.84171 0.79833 0.51261 0.0
H434 H 0.7967 0.87058 0.4281 0.0
H435 H 0.85319 0.86741 0.4061 0.0
H436 H 0.54664 0.82567 0.64899 0.0
H437 H 0.57996 0.82732 0.5991 0.0
H438 H 0.60196 0.72847 0.6135 0.0
H439 H 0.56857 0.72693 0.66298 0.0
Tb440 Tb 0.20122 0.72984 0.60169 0.0
Tb441 Tb 0.18203 0.79743 0.61661 0.0
C442 C 0.16063 0.74796 0.66385 0.0
C443 C 0.20754 0.64817 0.57377 0.0
C444 C 0.21808 0.59705 0.53537 0.0
C445 C 0.20673 0.59366 0.5686 0.0
C446 C 0.20144 0.6191 0.58764 0.0
C447 C 0.21658 0.65207 0.53947 0.0
C448 C 0.22173 0.62655 0.52026 0.0
C449 C 0.20897 0.67268 0.59788 0.0
O450 O 0.15607 0.74545 0.55703 0.0
O451 O 0.15496 0.79756 0.55948 0.0
O452 O 0.21668 0.80529 0.57941 0.0
O453 O 0.22721 0.75611 0.56238 0.0
O454 O 0.142 0.8297 0.62757 0.0
O455 O 0.19726 0.8394 0.63369 0.0
O456 O 0.23072 0.77776 0.65758 0.0
O457 O 0.25298 0.74019 0.62689 0.0
O458 O 0.18906 0.73154 0.65752 0.0
O459 O 0.14597 0.7695 0.6387 0.0
C460 C 0.14598 0.77362 0.54183 0.0
O461 O 0.2346 0.69029 0.59741 0.0
O462 O 0.17864 0.6879 0.60062 0.0
C463 C 0.23143 0.78596 0.56033 0.0
C464 C 0.16843 0.84792 0.68142 0.0
C465 C 0.18247 0.85131 0.75637 0.0
C466 C 0.166 0.87714 0.73245 0.0
C467 C 0.15915 0.87546 0.69515 0.0
C468 C 0.18301 0.82175 0.70526 0.0
C469 C 0.19029 0.82342 0.74252 0.0
C470 C 0.16622 0.84628 0.64264 0.0
C471 C 0.25769 0.7581 0.65282 0.0
H472 H 0.20334 0.57115 0.58048 0.0
H473 H 0.19441 0.61582 0.61411 0.0
H474 H 0.2214 0.67445 0.52846 0.0
H475 H 0.23062 0.62963 0.49469 0.0
H476 H 0.16087 0.89933 0.74241 0.0
H477 H 0.14827 0.89588 0.67713 0.0
H478 H 0.19026 0.80027 0.69498 0.0
H479 H 0.2037 0.80355 0.76027 0.0
Tb480 Tb 0.0836 0.71103 0.85936 0.0
Tb481 Tb 0.06371 0.78586 0.8539 0.0
C482 C 1.02804 0.74764 0.79462 0.0
C483 C 0.12075 0.63644 0.83782 0.0
C484 C 0.16212 0.59944 0.79938 0.0
C485 C 0.12846 0.59148 0.80516 0.0
C486 C 0.10812 0.60972 0.82458 0.0
C487 C 0.15266 0.64583 0.8294 0.0
C488 C 0.17322 0.62747 0.81074 0.0
C489 C 0.10096 0.65436 0.8606 0.0
O490 O 0.12353 0.72893 0.83045 0.0
O491 O 0.09367 0.77644 0.81012 0.0
O492 O 0.10665 0.77455 0.90227 0.0
O493 O 0.09966 0.72379 0.91426 0.0
O494 O 0.06681 0.82856 0.82587 0.0
O495 O 1.04172 0.82611 0.87239 0.0
O496 O 1.02035 0.7681 0.878 0.0
O497 O 1.03214 0.71555 0.87696 0.0
O498 O 0.05425 0.72538 0.80487 0.0
O499 O 1.0223 0.76981 0.81485 0.0
C500 C 0.11705 0.75318 0.80654 0.0
O501 O 0.11956 0.67236 0.88089 0.0
O502 O 0.06946 0.66788 0.84469 0.0
C503 C 0.1116 0.74934 0.92482 0.0
C504 C 1.01341 0.86139 0.82229 0.0
C505 C 0.95156 0.89449 0.77707 0.0
C506 C 0.98571 0.90502 0.77928 0.0
C507 C 1.01623 0.88868 0.80168 0.0
C508 C 0.97952 0.85066 0.82002 0.0
C509 C 0.949 0.8671 0.79799 0.0
C510 C 0.04604 0.84328 0.84418 0.0
C511 C 1.01205 0.73978 0.88353 0.0
H512 H 0.11852 0.57051 0.79616 0.0
H513 H 0.08306 0.60252 0.83012 0.0
H514 H 0.16267 0.66674 0.83861 0.0
H515 H 0.19904 0.63453 0.80763 0.0
H516 H 0.98908 0.92567 0.76331 0.0
H517 H 1.04218 0.89715 0.80256 0.0
H518 H 0.97655 0.82945 0.83521 0.0
H519 H 0.92331 0.85838 0.79781 0.0
Tb520 Tb 0.62223 0.3543 0.32858 0.0
Tb521 Tb 0.65487 0.307 0.27721 0.0
C522 C 0.66919 0.37886 0.27677 0.0
C523 C 0.5516 0.38823 0.3685 0.0
C524 C 0.47688 0.39029 0.36467 0.0
C525 C 0.5005 0.38775 0.39846 0.0
C526 C 0.53764 0.38663 0.40033 0.0
C527 C 0.52801 0.39065 0.33483 0.0
C528 C 0.49104 0.39164 0.33291 0.0
C529 C 0.59059 0.38339 0.37015 0.0
O530 O 0.5842 0.36511 0.27657 0.0
O531 O 0.60317 0.32587 0.24478 0.0
O532 O 0.63496 0.28286 0.32275 0.0
O533 O 0.58884 0.31873 0.31536 0.0
O534 O 0.69478 0.2853 0.25204 0.0
O535 O 0.64173 0.27054 0.24623 0.0
O536 O 0.7006 0.30811 0.31991 0.0
O537 O 0.67074 0.32752 0.36257 0.0
O538 O 0.66268 0.37812 0.30964 0.0
O539 O 0.66445 0.35478 0.25734 0.0
C540 C 0.58002 0.34917 0.24802 0.0
O541 O 0.60437 0.35476 0.3779 0.0
O542 O 0.60235 0.39682 0.34315 0.0
C543 C 0.60243 0.29131 0.3282 0.0
C544 C 0.68897 0.23228 0.24035 0.0
C545 C 0.71388 0.17007 0.23258 0.0
C546 C 0.68226 0.17718 0.24608 0.0
C547 C 0.66998 0.20781 0.24992 0.0
C548 C 0.72068 0.22515 0.22722 0.0
C549 C 0.73299 0.1946 0.22347 0.0
C550 C 0.67383 0.26516 0.23912 0.0
C551 C 0.69988 0.31387 0.35331 0.0
H552 H 0.49023 0.38728 0.42339 0.0
H553 H 0.55545 0.38426 0.42656 0.0
H554 H 0.53816 0.39154 0.30991 0.0
H555 H 0.4735 0.39354 0.30655 0.0
H556 H 0.66706 0.15903 0.25394 0.0
H557 H 0.64522 0.2123 0.25981 0.0
H558 H 0.73557 0.24336 0.21889 0.0
H559 H 0.75721 0.1903 0.21261 0.0
Tb560 Tb 0.47704 0.87931 0.27604 0.0
Tb561 Tb 0.46315 0.82558 0.33151 0.0
C562 C 0.4393 0.89479 0.338 0.0
C563 C 0.53571 0.92543 0.23802 0.0
C564 C 0.60916 0.93559 0.24941 0.0
C565 C 0.58188 0.96048 0.2408 0.0
C566 C 0.54547 0.95542 0.23524 0.0
C567 C 0.56297 0.90065 0.24658 0.0
C568 C 0.59915 0.90564 0.2522 0.0
C569 C 0.4978 0.91985 0.2368 0.0
O570 O 0.51868 0.88018 0.32554 0.0
O571 O 0.51869 0.83116 0.35067 0.0
O572 O 0.47961 0.80453 0.28489 0.0
O573 O 0.5165 0.84068 0.27696 0.0
O574 O 0.42964 0.80817 0.36454 0.0
O575 O 0.48168 0.78423 0.36313 0.0
O576 O 0.41318 0.8327 0.29288 0.0
O577 O 0.43208 0.85664 0.24488 0.0
O578 O 0.43565 0.8984 0.30271 0.0
O579 O 0.45574 0.86904 0.356 0.0
C580 C 0.53384 0.85651 0.34864 0.0
O581 O 0.48888 0.89368 0.22555 0.0
O582 O 0.4856 0.92556 0.26599 0.0
C583 C 0.50718 0.81336 0.27191 0.0
C584 C 0.43469 0.754 0.36813 0.0
C585 C 0.40711 0.69721 0.36966 0.0
C586 C 0.44191 0.69925 0.36301 0.0
C587 C 0.45566 0.72742 0.36241 0.0
C588 C 0.39869 0.75241 0.37114 0.0
C589 C 0.38489 0.72416 0.37165 0.0
C590 C 0.45102 0.78267 0.37345 0.0
C591 C 0.40875 0.84041 0.25811 0.0
H592 H 0.58866 0.98383 0.23811 0.0
H593 H 0.52497 0.97491 0.22934 0.0
H594 H 0.55642 0.87728 0.24969 0.0
H595 H 0.61932 0.88597 0.25936 0.0
H596 H 0.45975 0.67881 0.3617 0.0
H597 H 0.48342 0.72797 0.35962 0.0
H598 H 0.3818 0.77266 0.3751 0.0
H599 H 0.35782 0.72306 0.37645 0.0
Tb600 Tb 1.03275 0.19448 0.77887 0.0
Tb601 Tb 0.06685 0.26022 0.79729 0.0
C602 C 0.10877 0.19459 0.82642 0.0
C603 C 0.97555 0.12883 0.77392 0.0
C604 C 0.91538 0.09797 0.78143 0.0
C605 C 0.94579 0.08242 0.77187 0.0
C606 C 0.97556 0.09772 0.7682 0.0
C607 C 0.94581 0.14444 0.78438 0.0
C608 C 0.91587 0.12911 0.78808 0.0
C609 C 1.00706 0.14417 0.76896 0.0
O610 O 1.01259 0.2091 0.82665 0.0
O611 O 1.01974 0.26062 0.8231 0.0
O612 O 1.0365 0.26685 0.74017 0.0
O613 O 0.99723 0.2309 0.74461 0.0
O614 O 0.1129 0.27821 0.82332 0.0
O615 O 0.06577 0.30914 0.79635 0.0
O616 O 0.09469 0.24381 0.75649 0.0
O617 O 0.06967 0.1992 0.74091 0.0
O618 O 0.08901 0.18216 0.80061 0.0
O619 O 0.09851 0.2221 0.83539 0.0
C620 C 1.00514 0.23706 0.83578 0.0
O621 O 1.00185 0.16748 0.74435 0.0
O622 O 1.02838 0.14941 0.79856 0.0
C623 C 1.00866 0.25282 0.72553 0.0
C624 C 0.11916 0.33269 0.82632 0.0
C625 C 0.16537 0.3791 0.84428 0.0
C626 C 0.13784 0.38345 0.81315 0.0
C627 C 0.11479 0.36067 0.80449 0.0
C628 C 0.14611 0.32865 0.85787 0.0
C629 C 0.16863 0.35165 0.86694 0.0
C630 C 0.09892 0.30652 0.81433 0.0
C631 C 0.09174 0.22021 0.73712 0.0
H632 H 0.94612 0.05869 0.76577 0.0
H633 H 0.99844 0.08535 0.76025 0.0
H634 H 0.94562 0.16847 0.78924 0.0
H635 H 0.89295 0.1417 0.79565 0.0
H636 H 0.13448 0.40434 0.79516 0.0
H637 H 0.09459 0.3644 0.77984 0.0
H638 H 0.15041 0.3073 0.87518 0.0
H639 H 0.18967 0.34737 0.8909 0.0
Tb640 Tb 0.76421 0.02091 0.66342 0.0
Tb641 Tb 0.74858 0.97616 0.73338 0.0
C642 C 0.72645 0.95834 0.6525 0.0
C643 C 0.78397 0.09089 0.60982 0.0
C644 C 0.79796 0.15336 0.59912 0.0
C645 C 0.7867 0.13641 0.5695 0.0
C646 C 0.77989 0.10566 0.57481 0.0
C647 C 0.79427 0.10785 0.63956 0.0
C648 C 0.80131 0.13863 0.63429 0.0
C649 C 0.77986 0.05744 0.61465 0.0
O650 O 0.7147 0.04351 0.67623 0.0
O651 O 0.71824 1.02021 0.73353 0.0
O652 O 0.7918 1.00397 0.75359 0.0
O653 O 0.77744 0.04522 0.71076 0.0
O654 O 0.71106 0.96041 0.76262 0.0
O655 O 0.76843 0.94941 0.78317 0.0
O656 O 0.78962 0.94994 0.71215 0.0
O657 O 0.81374 0.99112 0.68878 0.0
O658 O 0.74562 0.97916 0.64051 0.0
O659 O 0.71914 0.9576 0.68546 0.0
C660 C 0.70516 0.04245 0.70812 0.0
O661 O 0.8034 0.04109 0.64003 0.0
O662 O 0.74758 0.04955 0.61431 0.0
C663 C 0.79449 0.03266 0.74249 0.0
C664 C 0.7287 0.92018 0.81092 0.0
C665 C 0.70892 0.87455 0.85799 0.0
C666 C 0.73632 0.89263 0.87064 0.0
C667 C 0.74607 0.91515 0.84735 0.0
C668 C 0.70173 0.90186 0.79787 0.0
C669 C 0.69205 0.87913 0.82118 0.0
C670 C 0.73606 0.94735 0.78927 0.0
C671 C 0.81698 0.96229 0.70278 0.0
H672 H 0.78443 0.14653 0.54201 0.0
H673 H 0.77231 0.09314 0.55139 0.0
H674 H 0.79765 0.09711 0.66693 0.0
H675 H 0.80968 0.1508 0.6578 0.0
H676 H 0.75034 0.88934 0.89859 0.0
H677 H 0.76664 0.9293 0.8581 0.0
H678 H 0.68758 0.90558 0.76998 0.0
H679 H 0.67076 0.86564 0.81061 0.0
Tb680 Tb 0.7918 0.97931 0.19428 0.0
Tb681 Tb 0.82706 0.99073 0.27523 0.0
C682 C 0.84791 0.02541 0.20618 0.0
C683 C 0.76317 0.93237 0.12018 0.0
C684 C 0.76377 0.87201 0.09907 0.0
C685 C 0.78564 0.89256 0.08602 0.0
C686 C 0.78515 0.92246 0.09628 0.0
C687 C 0.74102 0.91199 0.13302 0.0
C688 C 0.74122 0.8822 0.12244 0.0
C689 C 0.76564 0.96305 0.13342 0.0
O690 O 0.84318 0.94898 0.2109 0.0
O691 O 0.84041 0.9425 0.27032 0.0
O692 O 0.77231 0.9799 0.27632 0.0
O693 O 0.77171 0.94867 0.23128 0.0
O694 O 0.87389 0.98469 0.31579 0.0
O695 O 0.82392 1.00677 0.32584 0.0
O696 O 0.80091 0.03544 0.25388 0.0
O697 O 0.76062 0.02224 0.20568 0.0
O698 O 0.81878 1.01874 0.18555 0.0
O699 O 0.85977 1.01123 0.23885 0.0
C700 C 0.85375 0.93331 0.24291 0.0
O701 O 0.74633 0.97031 0.15745 0.0
O702 O 0.79819 0.97081 0.14181 0.0
C703 C 0.7573 0.95903 0.25743 0.0
C704 C 0.87292 0.03529 0.33254 0.0
C705 C 0.87659 0.09687 0.30736 0.0
C706 C 0.85825 0.08982 0.33572 0.0
C707 C 0.8562 0.05937 0.34793 0.0
C708 C 0.8937 0.04243 0.30639 0.0
C709 C 0.8947 0.07271 0.29331 0.0
C710 C 0.85898 1.00513 0.33354 0.0
C711 C 0.77212 0.04239 0.22868 0.0
H712 H 0.80358 0.88545 0.06826 0.0
H713 H 0.80259 0.93769 0.08611 0.0
H714 H 0.72376 0.91885 0.15152 0.0
H715 H 0.72337 0.86728 0.13236 0.0
H716 H 0.84526 0.10775 0.34858 0.0
H717 H 0.83966 0.05463 0.36775 0.0
H718 H 0.90714 0.02454 0.29384 0.0
H719 H 0.90925 0.07702 0.2717 0.0
Tb720 Tb 0.3441 0.46866 0.45102 0.0
Tb721 Tb 0.26992 0.44793 0.41125 0.0
C722 C 0.34024 0.43081 0.38559 0.0
C723 C 0.40644 0.52074 0.47685 0.0
C724 C 0.40374 0.57991 0.44267 0.0
C725 C 0.43364 0.55828 0.44362 0.0
C726 C 0.435 0.52881 0.46069 0.0
C727 C 0.37819 0.54331 0.47862 0.0
C728 C 0.37679 0.57257 0.46153 0.0
C729 C 0.40044 0.48838 0.48132 0.0
O730 O 0.31903 0.50976 0.41505 0.0
O731 O 0.27984 0.48585 0.37502 0.0
O732 O 0.25741 0.48951 0.43549 0.0
O733 O 0.30366 0.47974 0.48308 0.0
O734 O 0.23705 0.43083 0.36806 0.0
O735 O 0.21644 0.44486 0.41503 0.0
O736 O 0.2872 0.41698 0.46099 0.0
O737 O 0.34745 0.41966 0.46628 0.0
O738 O 0.34975 0.4564 0.39788 0.0
O739 O 0.3125 0.41893 0.39459 0.0
C740 C 0.29673 0.50994 0.38368 0.0
O741 O 0.37466 0.48238 0.49828 0.0
O742 O 0.3982 0.47486 0.45156 0.0
C743 C 0.27227 0.49422 0.46823 0.0
C744 C 0.19481 0.40257 0.38971 0.0
C745 C 0.16337 0.34819 0.39793 0.0
C746 C 0.14194 0.37671 0.38999 0.0
C747 C 0.1576 0.40366 0.38586 0.0
C748 C 0.21668 0.37459 0.39991 0.0
C749 C 0.20097 0.34741 0.40378 0.0
C750 C 0.21033 0.43118 0.38541 0.0
C751 C 0.3206 0.40497 0.47307 0.0
H752 H 0.45522 0.56375 0.42995 0.0
H753 H 0.45676 0.51165 0.45864 0.0
H754 H 0.35541 0.53775 0.49038 0.0
H755 H 0.35341 0.58879 0.46114 0.0
H756 H 0.11285 0.37817 0.38444 0.0
H757 H 0.1406 0.42529 0.37881 0.0
H758 H 0.24571 0.37374 0.40402 0.0
H759 H 0.21799 0.32574 0.40971 0.0
Tb760 Tb 0.30749 0.52317 0.9051 0.0
Tb761 Tb 0.3521 0.47823 0.85361 0.0
C762 C 0.35817 0.46285 0.93769 0.0
C763 C 0.2805 0.59028 0.95839 0.0
C764 C 0.2802 0.64749 0.99057 0.0
C765 C 0.29316 0.61931 1.01142 0.0
C766 C 0.29331 0.59136 0.99565 0.0
C767 C 0.26741 0.61827 0.93726 0.0
C768 C 0.26732 0.64646 0.95311 0.0
C769 C 0.27834 0.55954 0.94357 0.0
O770 O 0.35964 0.54006 0.90683 0.0
O771 O 0.37282 0.52373 0.85387 0.0
O772 O 0.30113 0.49828 0.82066 0.0
O773 O 0.29929 0.54239 0.84902 0.0
O774 O 0.382 0.43666 0.84735 0.0
O775 O 0.37231 0.47393 0.80525 0.0
O776 O 0.30494 0.45483 0.85986 0.0
O777 O 0.27076 0.48839 0.88905 0.0
O778 O 0.32779 0.47998 0.9368 0.0
O779 O 0.37617 0.46519 0.911 0.0
C780 C 0.37502 0.54374 0.87864 0.0
O781 O 0.26621 0.55801 0.90905 0.0
O782 O 0.30517 0.53848 0.95613 0.0
C783 C 0.28827 0.5269 0.82141 0.0
C784 C 0.38355 0.42265 0.78667 0.0
C785 C 0.38901 0.37818 0.73501 0.0
C786 C 0.38736 0.40996 0.72491 0.0
C787 C 0.38477 0.43176 0.7503 0.0
C788 C 0.38496 0.39095 0.79671 0.0
C789 C 0.38756 0.3692 0.77142 0.0
C790 C 0.38611 0.44551 0.81473 0.0
C791 C 0.27576 0.46281 0.87299 0.0
H792 H 0.30237 0.61856 1.0404 0.0
H793 H 0.30283 0.57032 1.01301 0.0
H794 H 0.25684 0.61842 0.90856 0.0
H795 H 0.25721 0.66744 0.9359 0.0
H796 H 0.38799 0.41811 0.69728 0.0
H797 H 0.38448 0.45585 0.74154 0.0
H798 H 0.38501 0.38273 0.8245 0.0
H799 H 0.38943 0.34512 0.78088 0.0
Tb800 Tb 0.66291 0.7446 1.02803 0.0
Tb801 Tb 0.72567 0.70976 0.98766 0.0
C802 C 0.64296 0.70516 0.96191 0.0
C803 C 0.60164 0.76992 0.09204 0.0
C804 C 0.57279 0.77181 0.15609 0.0
C805 C 0.55037 0.77828 0.12175 0.0
C806 C 0.56465 0.77734 0.09019 0.0
C807 C 0.62415 0.76256 0.12612 0.0
C808 C 0.60986 0.76351 0.15783 0.0
C809 C 0.61563 0.77106 0.05797 0.0
O810 O 0.67198 0.69812 1.05471 0.0
O811 O 0.72331 0.67894 1.03531 0.0
O812 O 0.74494 0.74858 1.01526 0.0
O813 O 0.71569 0.74223 0.06162 0.0
O814 O 0.74842 0.69868 0.9425 0.0
O815 O 0.77843 0.68753 0.99687 0.0
O816 O 0.70014 0.74904 0.9509 0.0
O817 O 0.67629 0.77982 0.98966 0.0
O818 O 0.63681 0.73073 0.97685 0.0
O819 O 0.67558 0.69013 0.96642 0.0
C820 C 0.69936 0.67702 0.05645 0.0
O821 O 0.6475 0.78 0.05855 0.0
O822 O 0.61035 0.74808 1.03837 0.0
C823 C 0.74082 0.75429 1.04792 0.0
C824 C 0.81296 0.69985 0.95204 0.0
C825 C 0.8778 0.71614 0.93109 0.0
C826 C 0.8787 0.69567 0.96191 0.0
C827 C 0.8469 0.68765 0.97211 0.0
C828 C 0.81179 0.72089 0.92163 0.0
C829 C 0.84377 0.729 0.9114 0.0
C830 C 0.7798 0.6889 0.96254 0.0
C831 C 0.6868 0.77587 0.95868 0.0
H832 H 0.5219 0.7853 0.11916 0.0
H833 H 0.54679 0.78313 0.06418 0.0
H834 H 0.65277 0.75655 0.12826 0.0
H835 H 0.62794 0.7581 0.18373 0.0
H836 H 0.90416 0.68565 0.97826 0.0
H837 H 0.84891 0.67141 0.99564 0.0
H838 H 0.7862 0.73075 0.90539 0.0
H839 H 0.84179 0.74466 0.88739 0.0
Tb840 Tb 0.24005 0.73422 0.14861 0.0
Tb841 Tb 0.21972 0.80349 0.10762 0.0
C842 C 0.26525 0.75083 0.07676 0.0
C843 C 0.26046 0.658 0.21135 0.0
C844 C 0.27111 0.61267 0.27137 0.0
C845 C 0.25909 0.60532 0.23575 0.0
C846 C 0.25374 0.62764 0.20633 0.0
C847 C 0.2725 0.66577 0.24674 0.0
C848 C 0.27775 0.6433 0.27649 0.0
C849 C 0.25719 0.67971 0.17856 0.0
O850 O 0.27203 0.76526 0.18256 0.0
O851 O 0.27453 0.80215 0.13743 0.0
O852 O 0.20108 0.80498 0.15989 0.0
O853 O 0.19546 0.75377 0.17138 0.0
O854 O 0.23543 0.84565 0.09019 0.0
O855 O 0.17945 0.83858 0.08201 0.0
O856 O 0.17461 0.77784 0.09137 0.0
O857 O 0.20501 0.73061 0.09483 0.0
O858 O 0.27615 0.74031 0.11084 0.0
O859 O 0.24036 0.77476 0.06811 0.0
C860 C 0.28725 0.78874 0.17001 0.0
O861 O 0.22509 0.69014 0.16089 0.0
O862 O 0.27943 0.70053 0.1788 0.0
C863 C 0.18749 0.78265 0.17672 0.0
C864 C 0.19691 0.87441 1.04041 0.0
C865 C 0.19699 0.91361 0.97794 0.0
C866 C 0.17733 0.92306 1.00401 0.0
C867 C 0.1774 0.90361 1.03504 0.0
C868 C 0.21385 0.86376 1.01299 0.0
C869 C 0.21383 0.88323 0.98191 0.0
C870 C 0.20266 0.85735 0.07634 0.0
C871 C 0.17855 0.75141 0.07807 0.0
H872 H 0.25448 0.58201 0.23031 0.0
H873 H 0.245 0.62093 0.17931 0.0
H874 H 0.27813 0.68902 0.25136 0.0
H875 H 0.28681 0.64996 0.30344 0.0
H876 H 0.16446 0.94636 1.00201 0.0
H877 H 0.16411 0.91214 0.05595 0.0
H878 H 0.22881 0.84114 1.01655 0.0
H879 H 0.22899 0.87525 0.96211 0.0
Tb880 Tb 0.43153 0.24774 0.57087 0.0
Tb881 Tb 0.3611 0.22594 0.60171 0.0
C882 C 0.44026 0.20834 0.6441 0.0
C883 C 0.5014 0.26088 0.51192 0.0
C884 C 0.53459 0.26078 0.45008 0.0
C885 C 0.55506 0.26165 0.48507 0.0
C886 C 0.53868 0.26163 0.51549 0.0
C887 C 0.48081 0.25923 0.47733 0.0
C888 C 0.4972 0.25906 0.44685 0.0
C889 C 0.48495 0.26287 0.54456 0.0
O890 O 0.42395 0.20129 0.55268 0.0
O891 O 0.36433 0.20128 0.5547 0.0
O892 O 0.34473 0.27128 0.57128 0.0
O893 O 0.38264 0.26336 0.53218 0.0
O894 O 0.339 0.20529 0.64346 0.0
O895 O 0.30754 0.21636 0.58926 0.0
O896 O 0.37534 0.26253 0.63517 0.0
O897 O 0.41899 0.2832 0.60805 0.0
O898 O 0.45016 0.23212 0.62717 0.0
O899 O 0.4097 0.1974 0.63189 0.0
C900 C 0.39329 0.18908 0.54491 0.0
O901 O 0.45468 0.28043 0.54144 0.0
O902 O 0.48508 0.2373 0.56451 0.0
C903 C 0.35612 0.28002 0.54166 0.0
C904 C 0.27518 0.21036 0.63741 0.0
C905 C 0.20956 0.21267 0.66226 0.0
C906 C 0.21299 0.23198 0.63189 0.0
C907 C 0.2455 0.23077 0.61947 0.0
C908 C 0.27199 0.1917 0.6682 0.0
C909 C 0.23959 0.19285 0.68055 0.0
C910 C 0.30792 0.20479 0.62219 0.0
C911 C 0.39747 0.28354 0.63235 0.0
H912 H 0.58365 0.26346 0.48901 0.0
H913 H 0.55516 0.2629 0.5419 0.0
H914 H 0.45203 0.25844 0.47381 0.0
H915 H 0.48036 0.25778 0.42067 0.0
H916 H 0.19032 0.24751 0.61725 0.0
H917 H 0.24708 0.24521 0.5954 0.0
H918 H 0.2944 0.17556 0.68225 0.0
H919 H 0.23809 0.17824 0.70452 0.0
Tb920 Tb 0.91085 0.24483 0.49435 0.0
Tb921 Tb 0.89031 0.31253 0.50966 0.0
C922 C 0.86023 0.25511 0.54956 0.0
C923 C 0.92895 0.19496 0.42997 0.0
C924 C 0.91954 0.19079 0.35518 0.0
C925 C 0.93874 0.16649 0.37997 0.0
C926 C 0.94327 0.16855 0.41717 0.0
C927 C 0.91219 0.22005 0.40539 0.0
C928 C 0.90736 0.21799 0.36823 0.0
C929 C 0.92916 0.19649 0.4685 0.0
O930 O 0.86178 0.26367 0.4533 0.0
O931 O 0.83914 0.30224 0.48264 0.0
O932 O 0.90272 0.31108 0.45367 0.0
O933 O 0.94635 0.27372 0.47303 0.0
O934 O 0.85698 0.35108 0.51758 0.0
O935 O 0.91115 0.35532 0.50917 0.0
O936 O 0.93606 0.29698 0.55376 0.0
O937 O 0.93671 0.24488 0.55183 0.0
O938 O 0.87588 0.236 0.53089 0.0
O939 O 0.86394 0.28508 0.54777 0.0
C940 C 0.83471 0.28359 0.45741 0.0
O941 O 0.95238 0.21337 0.48472 0.0
O942 O 0.89736 0.20277 0.47603 0.0
C943 C 0.93139 0.29479 0.44748 0.0
C944 C 0.88402 0.39437 0.53899 0.0
C945 C 0.87531 0.44624 0.57717 0.0
C946 C 0.88546 0.44906 0.54329 0.0
C947 C 0.88989 0.4233 0.52443 0.0
C948 C 0.87613 0.39103 0.57389 0.0
C949 C 0.87197 0.41689 0.59299 0.0
C950 C 0.88139 0.36957 0.51495 0.0
C951 C 0.94579 0.26888 0.5693 0.0
H952 H 0.94758 0.14478 0.3708 0.0
H953 H 0.95625 0.14905 0.43577 0.0
H954 H 0.9014 0.24082 0.41492 0.0
H955 H 0.89208 0.23676 0.34986 0.0
H956 H 0.88838 0.47143 0.53069 0.0
H957 H 0.89595 0.42628 0.4975 0.0
H958 H 0.87143 0.36883 0.58553 0.0
H959 H 0.86392 0.41422 0.61902 0.0
C960 C 0.08568 0.30536 0.37644 0.0
C961 C 0.09478 0.29258 0.346 0.0
H962 H 0.10307 0.33156 0.42053 0.0
C963 C 0.13086 0.28807 0.34255 0.0
H964 H 0.05797 0.30814 0.37997 0.0
C965 C 0.15645 0.30196 0.36524 0.0
C966 C 0.14573 0.32019 0.39128 0.0
H967 H 0.13838 0.27772 0.31944 0.0
H968 H 0.18285 0.30243 0.35846 0.0
C969 C 0.1115 0.31847 0.39973 0.0
C970 C 0.40584 0.57844 0.84098 0.0
C971 C 0.39061 0.57349 0.87174 0.0
H972 H 0.42714 0.60956 0.80681 0.0
C973 C 0.38719 0.59841 0.89322 0.0
H974 H 0.40907 0.56021 0.82363 0.0
C975 C 0.39769 0.62755 0.88339 0.0
C976 C 0.41155 0.63259 0.85161 0.0
H977 H 0.37533 0.59571 0.91708 0.0
H978 H 0.39387 0.64625 0.89994 0.0
C979 C 0.41604 0.60722 0.83118 0.0
C980 C 0.67116 0.12535 0.71837 0.0
C981 C 0.66197 0.122 0.75283 0.0
H982 H 0.69212 0.1027 0.67667 0.0
C983 C 0.66263 0.09225 0.76948 0.0
H984 H 0.67058 0.14802 0.70472 0.0
C985 C 0.67372 0.06655 0.75312 0.0
C986 C 0.6853 0.06965 0.71983 0.0
H987 H 0.65492 0.08873 0.7956 0.0
H988 H 0.67469 0.04414 0.76758 0.0
C989 C 0.68307 0.09938 0.70212 0.0
C990 C 0.92437 0.87097 0.29496 0.0
C991 C 0.94613 0.86385 0.2698 0.0
H992 H 0.8786 0.89753 0.30627 0.0
C993 C 0.93535 0.87753 0.23401 0.0
H994 H 0.93215 0.86117 0.32284 0.0
C995 C 0.90428 0.89909 0.22428 0.0
C996 C 0.88358 0.90736 0.25024 0.0
H997 H 0.95199 0.873 0.2142 0.0
H998 H 0.89748 0.91028 0.19698 0.0
C999 C 0.89362 0.89214 0.28537 0.0
C1000 C 0.40878 0.15298 0.49822 0.0
C1001 C 0.38985 0.16024 0.52576 0.0
H1002 H 0.41576 0.12312 0.45659 0.0
C1003 C 0.36478 0.14033 0.53384 0.0
H1004 H 0.42806 0.16778 0.491 0.0
C1005 C 0.35819 0.11451 0.51473 0.0
C1006 C 0.3759 0.10776 0.4862 0.0
H1007 H 0.34971 0.14493 0.55493 0.0
H1008 H 0.3381 0.10042 0.5216 0.0
C1009 C 0.4016 0.12731 0.47844 0.0
C1010 C 0.25384 0.9635 0.93318 0.0
C1011 C 0.22896 0.98833 0.9163 0.0
H1012 H 0.26312 0.92037 0.96473 0.0
C1013 C 0.19217 0.98653 0.9151 0.0
H1014 H 0.28242 0.96432 0.93474 0.0
C1015 C 0.18093 0.96112 0.93324 0.0
C1016 C 0.20635 0.93705 0.95183 0.0
H1017 H 0.17253 1.00543 0.90227 0.0
H1018 H 0.15267 0.96088 0.93406 0.0
C1019 C 0.24272 0.93809 0.95027 0.0
C1020 C 0.87721 0.47841 0.62974 0.0
C1021 C 0.86368 0.47414 0.59345 0.0
H1022 H 0.87376 0.50649 0.67353 0.0
C1023 C 0.83701 0.49601 0.57277 0.0
H1024 H 0.89758 0.4617 0.64622 0.0
C1025 C 0.8231 0.5211 0.58841 0.0
C1026 C 0.83635 0.52525 0.62468 0.0
H1027 H 0.8258 0.49297 0.54487 0.0
H1028 H 0.80136 0.53687 0.57244 0.0
C1029 C 0.86391 0.50407 0.64516 0.0
C1030 C 0.73926 0.6024 0.11314 0.0
C1031 C 0.72139 0.60267 0.14271 0.0
H1032 H 0.74635 0.62501 0.06323 0.0
C1033 C 0.69421 0.6268 0.14242 0.0
H1034 H 0.76022 0.58422 0.11203 0.0
C1035 C 0.68609 0.65049 0.1139 0.0
C1036 C 0.70504 0.65063 0.08506 0.0
H1037 H 0.67999 0.62792 0.16472 0.0
H1038 H 0.66574 0.66916 0.11506 0.0
C1039 C 0.7313 0.62595 0.08491 0.0
C1040 C 0.51428 0.34004 0.16264 0.0
C1041 C 0.48071 0.34641 0.17261 0.0
H1042 H 0.57147 0.33685 0.17797 0.0
C1043 C 0.47982 0.35887 0.20578 0.0
H1044 H 0.51602 0.33072 0.13714 0.0
C1045 C 0.51221 0.36243 0.22961 0.0
C1046 C 0.54586 0.35372 0.22049 0.0
H1047 H 0.45443 0.3638 0.21437 0.0
H1048 H 0.51085 0.36982 0.25607 0.0
C1049 C 0.54623 0.34366 0.18609 0.0
C1050 C 0.9457 0.27743 0.89393 0.0
C1051 C 0.92945 0.25328 0.90897 0.0
H1052 H 0.98174 0.2915 0.85997 0.0
C1053 C 0.93858 0.22342 0.8997 0.0
H1054 H 0.93977 0.30079 0.90025 0.0
C1055 C 0.96299 0.21805 0.87614 0.0
C1056 C 0.97927 0.24233 0.86125 0.0
H1057 H 0.92683 0.20414 0.91058 0.0
H1058 H 0.9691 0.19478 0.86961 0.0
C1059 C 0.97009 0.27208 0.87066 0.0
C1060 C 0.59327 0.82945 0.37752 0.0
C1061 C 0.56933 0.85647 0.37281 0.0
H1062 H 0.63809 0.80199 0.41128 0.0
C1063 C 0.57667 0.87938 0.39647 0.0
H1064 H 0.58831 0.81137 0.35976 0.0
C1065 C 0.60563 0.87393 0.42634 0.0
C1066 C 0.62745 0.8456 0.43256 0.0
H1067 H 0.55836 0.90022 0.39373 0.0
H1068 H 0.60909 0.89068 0.44602 0.0
C1069 C 0.62185 0.82408 0.40701 0.0
C1070 C 0.16567 0.7264 0.73043 0.0
C1071 C 0.14994 0.74798 0.70079 0.0
H1072 H 0.16801 0.71077 0.7866 0.0
C1073 C 0.12451 0.77149 0.70717 0.0
H1074 H 0.1854 0.70799 0.72699 0.0
C1075 C 0.11546 0.77371 0.74151 0.0
C1076 C 0.1307 0.7521 0.77116 0.0
H1077 H 0.11175 0.78882 0.68556 0.0
H1078 H 0.09567 0.79226 0.7445 0.0
C1079 C 0.1559 0.72822 0.7649 0.0
C1080 C 0.9654 0.75191 0.76092 0.0
C1081 C 1.00217 0.74487 0.76158 0.0
H1082 H 0.91305 0.73934 0.74189 0.0
C1083 C 1.0134 0.72865 0.73425 0.0
H1084 H 0.95618 0.76494 0.78138 0.0
C1085 C 0.98857 0.71455 0.71094 0.0
C1086 C 0.95283 0.71588 0.71588 0.0
H1087 H 1.04174 0.7239 0.73366 0.0
H1088 H 0.99833 0.69879 0.69323 0.0
C1089 C 0.94062 0.73741 0.73794 0.0
C1090 C 0.67494 0.43511 0.28219 0.0
C1091 C 0.67986 0.4092 0.26266 0.0
H1092 H 0.68183 0.48233 0.28866 0.0
C1093 C 0.6949 0.41349 0.23147 0.0
H1094 H 0.66297 0.43348 0.30607 0.0
C1095 C 0.7058 0.44241 0.22125 0.0
C1096 C 0.7017 0.46791 0.24175 0.0
H1097 H 0.69908 0.39443 0.21554 0.0
H1098 H 0.71838 0.44452 0.19782 0.0
C1099 C 0.68559 0.46366 0.27204 0.0
C1100 C 0.42036 0.91816 0.39212 0.0
C1101 C 0.42836 0.92152 0.35714 0.0
H1102 H 0.40031 0.94063 0.43443 0.0
C1103 C 0.42601 0.95126 0.33985 0.0
H1104 H 0.42222 0.89553 0.40628 0.0
C1105 C 0.4146 0.97688 0.35618 0.0
C1106 C 0.40445 0.97371 0.39019 0.0
H1107 H 0.43272 0.95486 0.31328 0.0
H1108 H 0.41243 0.99924 0.34127 0.0
C1109 C 0.40819 0.94403 0.4084 0.0
C1110 C 0.18838 0.14432 0.88653 0.0
C1111 C 0.20793 0.13461 0.86021 0.0
H1112 H 0.1417 0.17176 0.89696 0.0
C1113 C 0.19673 0.14841 0.82449 0.0
H1114 H 0.19613 0.13429 0.9143 0.0
C1115 C 0.16604 0.16959 0.81483 0.0
C1116 C 0.14543 0.17823 0.84043 0.0
H1117 H 0.21077 0.14188 0.80326 0.0
H1118 H 0.15744 0.17829 0.78663 0.0
C1119 C 0.15738 0.16599 0.87671 0.0
C1120 C 0.69156 0.91221 0.63737 0.0
C1121 C 0.71597 0.93286 0.62916 0.0
H1122 H 0.66624 0.87126 0.62437 0.0
C1123 C 0.7327 0.92746 0.59957 0.0
H1124 H 0.67817 0.91536 0.65999 0.0
C1125 C 0.72641 0.90198 0.5798 0.0
C1126 C 0.70257 0.88103 0.58822 0.0
H1127 H 0.75179 0.94242 0.59225 0.0
H1128 H 0.74069 0.89852 0.55785 0.0
C1129 C 0.68461 0.88687 0.61689 0.0
C1130 C 0.8483 0.10395 0.16044 0.0
C1131 C 0.88469 0.10512 0.15903 0.0
H1132 H 0.80867 0.07756 0.17586 0.0
C1133 C 0.91016 0.08113 0.17769 0.0
H1134 H 0.82786 0.12163 0.14595 0.0
C1135 C 0.89898 0.05562 0.19566 0.0
C1136 C 0.8622 0.05366 0.19426 0.0
H1137 H 0.93844 0.0815 0.17704 0.0
H1138 H 0.91868 0.03677 0.20854 0.0
C1139 C 0.83724 0.07846 0.17744 0.0
C1140 C 0.2181 0.56742 0.48141 0.0
C1141 C 0.22965 0.56963 0.5185 0.0
H1142 H 0.22219 0.54133 0.43648 0.0
C1143 C 0.25403 0.54615 0.53937 0.0
H1144 H 0.19934 0.5853 0.46485 0.0
C1145 C 0.26739 0.52118 0.52321 0.0
C1146 C 0.25618 0.51911 0.48603 0.0
H1147 H 0.26367 0.54761 0.56799 0.0
H1148 H 0.28682 0.50374 0.5397 0.0
C1149 C 0.23103 0.54221 0.46534 0.0
C1150 C 0.40629 0.39172 0.99827 0.0
C1151 C 0.38679 0.39113 1.02666 0.0
H1152 H 0.4128 0.41469 0.94784 0.0
C1153 C 0.35995 0.41541 1.0265 0.0
H1154 H 0.42709 0.37334 0.99737 0.0
C1155 C 0.35197 0.43902 0.99837 0.0
C1156 C 0.3704 0.43917 0.96922 0.0
H1157 H 0.34448 0.41599 1.04787 0.0
H1158 H 0.33056 0.45687 0.99922 0.0
C1159 C 0.39814 0.41546 0.96983 0.0
C1160 C 0.57964 0.67949 0.88127 0.0
C1161 C 0.54605 0.68979 0.88947 0.0
H1162 H 0.63748 0.6761 0.89793 0.0
C1163 C 0.54533 0.70044 0.92348 0.0
H1164 H 0.58103 0.6714 0.85509 0.0
C1165 C 0.5771 0.7029 0.94766 0.0
C1166 C 0.61086 0.69507 0.93866 0.0
H1167 H 0.52002 0.70834 0.93081 0.0
H1168 H 0.57514 0.71253 0.97295 0.0
C1169 C 0.61193 0.68217 0.90575 0.0
C1170 C 0.12861 0.82458 0.23511 0.0
C1171 C 0.1123 0.80032 0.24999 0.0
H1172 H 0.16476 0.83845 0.20063 0.0
C1173 C 0.12137 0.77057 0.24054 0.0
H1174 H 0.12256 0.84785 0.24167 0.0
C1175 C 0.14569 0.7652 0.21723 0.0
C1176 C 0.16199 0.78934 0.20219 0.0
H1177 H 0.10969 0.75117 0.25122 0.0
H1178 H 0.15155 0.74184 0.21088 0.0
C1179 C 0.15297 0.8192 0.21151 0.0
C1180 C 0.49739 0.21378 0.73442 0.0
C1181 C 0.52168 0.18704 0.73859 0.0
H1182 H 0.45175 0.24081 0.70143 0.0
C1183 C 0.51424 0.16406 0.71506 0.0
H1184 H 0.50244 0.23188 0.75213 0.0
C1185 C 0.48484 0.16927 0.68566 0.0
C1186 C 0.46257 0.19734 0.67991 0.0
H1187 H 0.53281 0.14342 0.71743 0.0
H1188 H 0.4814 0.1526 0.66587 0.0
C1189 C 0.46825 0.21885 0.70548 0.0
C1190 C 0.926 0.3148 0.38016 0.0
C1191 C 0.94228 0.29421 0.41056 0.0
H1192 H 0.92341 0.32908 0.32357 0.0
C1193 C 0.96865 0.27105 0.40505 0.0
H1194 H 0.90557 0.33291 0.38285 0.0
C1195 C 0.97802 0.2682 0.37088 0.0
C1196 C 0.96216 0.28881 0.34049 0.0
H1197 H 0.98193 0.25446 0.42725 0.0
H1198 H 0.99848 0.24997 0.36858 0.0
C1199 C 0.93607 0.31236 0.34588 0.0
C1200 C 0.23288 0.12829 0.39213 0.0
C1201 C 0.23725 0.09603 0.39677 0.0
H1202 H 0.19849 0.16917 0.37 0.0
C1203 C 0.20808 0.08018 0.38285 0.0
H1204 H 0.25481 0.14118 0.40263 0.0
C1205 C 0.17598 0.09621 0.36302 0.0
C1206 C 0.17203 0.12855 0.35703 0.0
H1207 H 0.21074 0.0553 0.38546 0.0
H1208 H 0.15491 0.08307 0.35105 0.0
C1209 C 0.20064 0.14432 0.37291 0.0
C1210 C 0.31234 0.9441 0.8745 0.0
C1211 C 0.33525 0.96659 0.88515 0.0
H1212 H 0.30697 0.89742 0.86454 0.0
C1213 C 0.3724 0.95735 0.89496 0.0
H1214 H 0.28353 0.95017 0.86664 0.0
C1215 C 0.38612 0.92655 0.89292 0.0
C1216 C 0.36292 0.90422 0.88178 0.0
H1217 H 0.39087 0.97405 0.90287 0.0
H1218 H 0.4149 0.92024 0.90008 0.0
C1219 C 0.32581 0.91357 0.87325 0.0
C1220 C 0.68304 0.43204 0.72471 0.0
C1221 C 0.68948 0.4358 0.68925 0.0
H1222 H 0.67774 0.40019 0.76868 0.0
C1223 C 0.70032 0.40995 0.6726 0.0
H1224 H 0.67582 0.45174 0.73859 0.0
C1225 C 0.70195 0.38068 0.68994 0.0
C1226 C 0.69264 0.37675 0.72418 0.0
H1227 H 0.70558 0.41222 0.64534 0.0
H1228 H 0.70776 0.36113 0.67524 0.0
C1229 C 0.68462 0.40268 0.74208 0.0
C1230 C 0.86476 0.60839 0.2188 0.0
C1231 C 0.84629 0.59878 0.24595 0.0
H1232 H 0.90409 0.63665 0.204 0.0
C1233 C 0.85542 0.60954 0.28031 0.0
H1234 H 0.85819 0.60069 0.192 0.0
C1235 C 0.88218 0.6294 0.28745 0.0
C1236 C 0.90001 0.63984 0.26016 0.0
H1237 H 0.8418 0.60251 0.30186 0.0
H1238 H 0.88817 0.63734 0.31418 0.0
C1239 C 0.89092 0.62908 0.22566 0.0
C1240 C 0.35817 0.21102 0.20618 0.0
C1241 C 0.38465 0.18595 0.21712 0.0
H1242 H 0.34311 0.25475 0.17596 0.0
C1243 C 0.41685 0.18565 0.20364 0.0
H1244 H 0.33326 0.21223 0.21628 0.0
C1245 C 0.4225 0.21029 0.18011 0.0
C1246 C 0.39636 0.23577 0.17054 0.0
H1247 H 0.43767 0.16652 0.21147 0.0
H1248 H 0.44761 0.20989 0.17046 0.0
C1249 C 0.364 0.23559 0.18336 0.0
C1250 C 0.18637 0.9026 0.82133 0.0
C1251 C 0.21869 0.91221 0.81363 0.0
H1252 H 0.1493 0.86933 0.81131 0.0
C1253 C 0.24514 0.8897 0.8074 0.0
H1254 H 0.16574 0.91854 0.8281 0.0
C1255 C 0.23528 0.86114 0.7981 0.0
C1256 C 0.19883 0.85644 0.79354 0.0
H1257 H 0.27139 0.89559 0.80398 0.0
H1258 H 0.25367 0.84656 0.78621 0.0
C1259 C 0.17694 0.87386 0.81231 0.0
C1260 C 0.83287 0.49542 0.77607 0.0
C1261 C 0.79907 0.50339 0.75316 0.0
H1262 H 0.86493 0.46574 0.81985 0.0
C1263 C 0.77139 0.4849 0.75683 0.0
H1264 H 0.85514 0.50866 0.77405 0.0
C1265 C 0.77718 0.45987 0.7837 0.0
C1266 C 0.81068 0.45295 0.80758 0.0
H1267 H 0.74511 0.49011 0.73953 0.0
H1268 H 0.75507 0.44666 0.78658 0.0
C1269 C 0.83854 0.47071 0.80269 0.0
C1270 C 0.68379 0.68393 0.43317 0.0
C1271 C 0.70028 0.68873 0.40279 0.0
H1272 H 0.66835 0.70217 0.48042 0.0
C1273 C 0.71378 0.71717 0.39774 0.0
H1274 H 0.67267 0.66257 0.43809 0.0
C1275 C 0.71106 0.7398 0.42179 0.0
C1276 C 0.69475 0.73517 0.45218 0.0
H1277 H 0.72721 0.72197 0.37537 0.0
H1278 H 0.72211 0.76113 0.41642 0.0
C1279 C 0.68093 0.70684 0.45739 0.0
C1280 C 0.17005 0.28677 0.19497 0.0
C1281 C 0.18091 0.31666 0.19347 0.0
H1282 H 0.13004 0.25783 0.20651 0.0
C1283 C 0.15733 0.3407 0.20153 0.0
H1284 H 0.18736 0.26755 0.18912 0.0
C1285 C 0.12458 0.33515 0.2114 0.0
C1286 C 0.11389 0.3053 0.21365 0.0
H1287 H 0.164 0.36413 0.19999 0.0
H1288 H 0.10772 0.35454 0.21756 0.0
C1289 C 0.13709 0.28115 0.20506 0.0
C1290 C 0.7543 0.21828 0.93402 0.0
C1291 C 0.77283 0.24086 0.91866 0.0
H1292 H 0.71175 0.18873 0.92607 0.0
C1293 C 0.76115 0.25046 0.8817 0.0
H1294 H 0.76222 0.21019 0.96245 0.0
C1295 C 0.73244 0.23779 0.86081 0.0
C1296 C 0.71388 0.21514 0.87599 0.0
H1297 H 0.77439 0.26765 0.86868 0.0
H1298 H 0.72464 0.24615 0.83244 0.0
C1299 C 0.7252 0.2058 0.91313 0.0
C1300 C 0.92835 0.85674 0.42129 0.0
C1301 C 0.91492 0.82993 0.43374 0.0
H1302 H 0.96652 0.87562 0.39288 0.0
C1303 C 0.93313 0.80122 0.43075 0.0
H1304 H 0.91523 0.87924 0.42381 0.0
C1305 C 0.96246 0.79925 0.41345 0.0
C1306 C 0.97433 0.82591 0.3988 0.0
H1307 H 0.9235 0.78015 0.43989 0.0
H1308 H 0.9748 0.77668 0.40998 0.0
C1309 C 0.95798 0.85475 0.40408 0.0
C1310 C 0.35327 0.72429 0.69578 0.0
C1311 C 0.35796 0.73521 0.73014 0.0
H1312 H 0.3185 0.72319 0.64466 0.0
C1313 C 0.33006 0.7557 0.73804 0.0
H1314 H 0.37402 0.70867 0.68857 0.0
C1315 C 0.29797 0.76424 0.7127 0.0
C1316 C 0.29285 0.75243 0.67883 0.0
H1317 H 0.33275 0.76495 0.7641 0.0
H1318 H 0.27687 0.77939 0.72005 0.0
C1319 C 0.32122 0.73272 0.67057 0.0
C1320 C 0.88244 0.96084 0.73005 0.0
C1321 C 0.85317 0.94528 0.7158 0.0
H1322 H 0.93579 0.95734 0.76147 0.0
C1323 C 0.85747 0.91303 0.71911 0.0
H1324 H 0.87974 0.98572 0.72847 0.0
C1325 C 0.88986 0.89665 0.73742 0.0
C1326 C 0.91859 0.91208 0.75379 0.0
H1327 H 0.83539 0.90041 0.70832 0.0
H1328 H 0.892 0.87181 0.73934 0.0
C1329 C 0.91466 0.94447 0.74906 0.0
C1330 C 0.71872 0.08434 0.21514 0.0
C1331 C 0.75584 0.07514 0.22553 0.0
H1332 H 0.67608 0.12139 0.20958 0.0
C1333 C 0.77856 0.09759 0.23692 0.0
H1334 H 0.70041 0.06768 0.20665 0.0
C1335 C 0.76491 0.12801 0.23844 0.0
C1336 C 0.72782 0.13734 0.22917 0.0
H1337 H 0.80734 0.09158 0.24523 0.0
H1338 H 0.78358 0.1441 0.24796 0.0
C1339 C 0.70482 0.11507 0.21727 0.0
C1340 C 0.40751 0.6405 0.36765 0.0
C1341 C 0.39811 0.66733 0.38336 0.0
H1342 H 0.41653 0.5914 0.37435 0.0
C1343 C 0.38708 0.66503 0.41687 0.0
H1344 H 0.41595 0.64179 0.34174 0.0
C1345 C 0.38811 0.63651 0.4357 0.0
C1346 C 0.39995 0.60979 0.42125 0.0
H1347 H 0.38037 0.68534 0.42996 0.0
H1348 H 0.38148 0.63554 0.46244 0.0
C1349 C 0.40837 0.61185 0.3865 0.0
C1350 C 0.20164 0.41238 0.88638 0.0
C1351 C 0.19213 0.40201 0.85174 0.0
H1352 H 0.23476 0.4404 0.92017 0.0
C1353 C 0.20962 0.41273 0.8243 0.0
H1354 H 0.18874 0.40457 0.90815 0.0
C1355 C 0.23647 0.43249 0.83144 0.0
C1356 C 0.24599 0.44287 0.86595 0.0
H1357 H 0.20328 0.40508 0.79744 0.0
H1358 H 0.24983 0.43977 0.80978 0.0
C1359 C 0.22787 0.43298 0.89325 0.0
C1360 C 0.69048 0.83206 0.94327 0.0
C1361 C 0.687 0.80247 0.93222 0.0
H1362 H 0.70007 0.87821 0.92836 0.0
C1363 C 0.68783 0.79753 0.89595 0.0
H1364 H 0.6902 0.83652 0.97107 0.0
C1365 C 0.6936 0.82121 0.87163 0.0
C1366 C 0.69894 0.85042 0.883 0.0
H1367 H 0.68511 0.775 0.88654 0.0
H1368 H 0.69547 0.81621 0.84432 0.0
C1369 C 0.69656 0.85579 0.91891 0.0
C1370 C 0.85551 0.15307 0.30162 0.0
C1371 C 0.88103 0.12927 0.29659 0.0
H1372 H 0.84874 0.19631 0.32295 0.0
C1373 C 0.9149 0.13692 0.29112 0.0
H1374 H 0.82831 0.14868 0.30329 0.0
C1375 C 0.92606 0.16493 0.30104 0.0
C1376 C 0.90407 0.18375 0.31835 0.0
H1377 H 0.935 0.11989 0.28537 0.0
H1378 H 0.95431 0.16796 0.30351 0.0
C1379 C 0.86706 0.18081 0.31208 0.0
C1380 C 0.25339 0.56493 0.30156 0.0
C1381 C 0.27663 0.58809 0.30239 0.0
H1382 H 0.24149 0.52269 0.32594 0.0
C1383 C 0.30571 0.58638 0.33199 0.0
H1384 H 0.2301 0.56573 0.28 0.0
C1385 C 0.31203 0.56152 0.35907 0.0
C1386 C 0.28954 0.53774 0.35702 0.0
H1387 H 0.32429 0.60367 0.33365 0.0
H1388 H 0.33506 0.56051 0.38097 0.0
C1389 C 0.25987 0.54015 0.32819 0.0
C1390 C 0.37462 0.32755 0.71055 0.0
C1391 C 0.3918 0.35442 0.70806 0.0
H1392 H 0.36317 0.28497 0.68983 0.0
C1393 C 0.41156 0.35785 0.67993 0.0
H1394 H 0.35857 0.32391 0.73104 0.0
C1395 C 0.41411 0.33507 0.65547 0.0
C1396 C 0.39677 0.30824 0.65823 0.0
H1397 H 0.42553 0.37798 0.67703 0.0
H1398 H 0.42944 0.3386 0.63431 0.0
C1399 C 0.37709 0.30506 0.68633 0.0
C1400 C 0.97276 0.70498 0.91049 0.0
C1401 C 0.97794 0.73453 0.89658 0.0
H1402 H 0.93785 0.67608 0.93175 0.0
C1403 C 0.94972 0.75828 0.89418 0.0
H1404 H 0.99366 0.68601 0.91278 0.0
C1405 C 0.91724 0.75248 0.90505 0.0
C1406 C 0.91222 0.72285 0.91912 0.0
H1407 H 0.95248 0.78129 0.88337 0.0
H1408 H 0.89621 0.77131 0.9028 0.0
C1409 C 0.94062 0.69929 0.92166 0.0
C1410 C 0.33055 0.79227 0.22944 0.0
C1411 C 0.31888 0.80147 0.19238 0.0
H1412 H 0.36695 0.79718 0.27858 0.0
C1413 C 0.33741 0.8239 0.17672 0.0
H1414 H 0.31733 0.77521 0.24271 0.0
C1415 C 0.36643 0.83666 0.19738 0.0
C1416 C 0.37769 0.82777 0.23462 0.0
H1417 H 0.32952 0.83169 0.1482 0.0
H1418 H 0.37982 0.85362 0.1842 0.0
C1419 C 0.35918 0.80522 0.25012 0.0
C1420 C 0.1566 0.24249 0.67863 0.0
C1421 C 0.17538 0.21397 0.67596 0.0
H1422 H 0.11472 0.2666 0.69956 0.0
C1423 C 0.1627 0.18697 0.68893 0.0
H1424 H 0.16567 0.26369 0.66903 0.0
C1425 C 0.13323 0.18864 0.70637 0.0
C1426 C 0.11638 0.21734 0.71143 0.0
H1427 H 0.17631 0.16461 0.68667 0.0
H1428 H 0.12525 0.16767 0.71797 0.0
C1429 C 0.12748 0.24414 0.69625 0.0
C1430 C 0.76162 0.28418 0.37289 0.0
C1431 C 0.73333 0.30407 0.38105 0.0
H1432 H 0.81549 0.26162 0.39039 0.0
C1433 C 0.73803 0.31506 0.41536 0.0
H1434 H 0.75891 0.27491 0.34683 0.0
C1435 C 0.77047 0.30738 0.44022 0.0
C1436 C 0.79926 0.28833 0.4317 0.0
H1437 H 0.71702 0.3303 0.42273 0.0
H1438 H 0.77315 0.31701 0.46607 0.0
C1439 C 0.79411 0.27632 0.39793 0.0
C1440 C 0.94883 0.31966 0.1255 0.0
C1441 C 0.96189 0.29183 0.14733 0.0
H1442 H 0.92294 0.34156 0.07278 0.0
C1443 C 0.95917 0.26432 0.13079 0.0
H1444 H 0.95034 0.3414 0.13719 0.0
C1445 C 0.94445 0.26454 0.09375 0.0
C1446 C 0.93114 0.29224 0.07181 0.0
H1447 H 0.96899 0.24247 0.14635 0.0
H1448 H 0.94288 0.24261 0.08252 0.0
C1449 C 0.93329 0.31985 0.08841 0.0
C1450 C 0.50426 0.75483 0.68413 0.0
C1451 C 0.53159 0.7744 0.68757 0.0
H1452 H 0.46584 0.73325 0.70926 0.0
C1453 C 0.53807 0.79024 0.71885 0.0
H1454 H 0.49844 0.74248 0.66028 0.0
C1455 C 0.51959 0.78454 0.74735 0.0
C1456 C 0.49355 0.76371 0.74449 0.0
H1457 H 0.55901 0.80544 0.72224 0.0
H1458 H 0.52724 0.79489 0.77242 0.0
C1459 C 0.48528 0.74981 0.71205 0.0
C1460 C 0.51521 0.2531 0.89346 0.0
C1461 C 0.53506 0.26753 0.92134 0.0
H1462 H 0.51532 0.23083 0.84501 0.0
C1463 C 0.56997 0.27426 0.91817 0.0
H1464 H 0.4885 0.24721 0.89494 0.0
C1465 C 0.58548 0.2648 0.88918 0.0
C1466 C 0.5664 0.24829 0.86301 0.0
H1467 H 0.58587 0.28574 0.93888 0.0
H1468 H 0.61315 0.26845 0.88871 0.0
C1469 C 0.53069 0.24359 0.86478 0.0
C1470 C 0.1116 0.75404 0.48463 0.0
C1471 C 0.12743 0.77808 0.50245 0.0
H1472 H 0.08474 0.73878 0.43451 0.0
C1473 C 0.12814 0.80569 0.48129 0.0
H1474 H 0.11065 0.73229 0.49975 0.0
C1475 C 0.11437 0.80898 0.44376 0.0
C1476 C 0.09857 0.78505 0.42581 0.0
H1477 H 0.14023 0.82468 0.49357 0.0
H1478 H 0.11578 0.83069 0.42879 0.0
C1479 C 0.09689 0.75764 0.44703 0.0
C1480 C 0.27215 0.962 0.35527 0.0
C1481 C 0.26903 0.99418 0.34869 0.0
H1482 H 0.24504 0.92165 0.35477 0.0
C1483 C 0.23641 1.00971 0.3295 0.0
H1484 H 0.2971 0.9494 0.36989 0.0
C1485 C 0.20636 0.99367 0.3206 0.0
C1486 C 0.20854 0.96188 0.33071 0.0
H1487 H 0.23321 0.0345 0.32418 0.0
H1488 H 0.18091 1.00646 0.30773 0.0
C1489 C 0.24224 0.94603 0.34645 0.0
C1490 C 0.41963 0.12159 0.87038 0.0
C1491 C 0.44358 0.10197 0.85593 0.0
H1492 H 0.36645 0.13126 0.8803 0.0
C1493 C 0.4303 0.07742 0.83754 0.0
H1494 H 0.42891 0.14055 0.88499 0.0
C1495 C 0.39414 0.07213 0.83467 0.0
C1496 C 0.37068 0.09114 0.85043 0.0
H1497 H 0.44794 0.06212 0.82567 0.0
H1498 H 0.38498 0.05244 0.82148 0.0
C1499 C 0.38373 0.11623 0.86771 0.0
C1500 C 0.70354 0.58917 0.75418 0.0
C1501 C 0.72229 0.61459 0.74878 0.0
H1502 H 0.6534 0.57375 0.76093 0.0
C1503 C 0.7073 0.64391 0.75378 0.0
H1504 H 0.71444 0.56641 0.7496 0.0
C1505 C 0.67254 0.64816 0.76085 0.0
C1506 C 0.65188 0.62325 0.76178 0.0
H1507 H 0.72123 0.66382 0.74919 0.0
H1508 H 0.66093 0.6713 0.76287 0.0
C1509 C 0.66846 0.59345 0.76046 0.0
C1510 C 0.87401 0.45382 0.33633 0.0
C1511 C 0.90301 0.46378 0.32189 0.0
H1512 H 0.81785 0.46295 0.33696 0.0
C1513 C 0.9014 0.49504 0.30953 0.0
H1514 H 0.87492 0.43036 0.34781 0.0
C1515 C 0.8693 0.51419 0.30562 0.0
C1516 C 0.8384 0.50206 0.31299 0.0
H1517 H 0.92308 0.50392 0.29848 0.0
H1518 H 0.86747 0.53695 0.29183 0.0
C1519 C 0.84147 0.47261 0.3309 0.0
C1520 C 0.34086 0.2547 1.0101 0.0
C1521 C 0.33869 0.26007 1.04586 0.0
H1522 H 0.33798 0.22232 0.97033 0.0
C1523 C 0.32909 0.23673 0.06856 0.0
H1524 H 0.34806 0.27236 0.992 0.0
C1525 C 0.32444 0.20782 0.0566 0.0
C1526 C 0.32865 0.20179 1.02146 0.0
H1527 H 0.32759 0.24003 0.09644 0.0
H1528 H 0.31951 0.1898 0.07566 0.0
C1529 C 0.33556 0.22591 0.9979 0.0
C1530 C 0.84328 0.31468 0.0943 0.0
C1531 C 0.81828 0.3124 0.0623 0.0
H1532 H 0.86165 0.34228 0.13729 0.0
C1533 C 0.78873 0.33521 1.05286 0.0
H1534 H 0.86632 0.29759 0.1026 0.0
C1535 C 0.78559 0.36057 0.07305 0.0
C1536 C 0.81222 0.36448 0.10323 0.0
H1537 H 0.76869 0.33426 1.02862 0.0
H1538 H 0.76264 0.37767 0.06412 0.0
C1539 C 0.8405 0.34047 0.1143 0.0
C1540 C 0.7849 0.71914 0.59878 0.0
C1541 C 0.74911 0.72992 0.58299 0.0
H1542 H 0.82123 0.68138 0.62848 0.0
C1543 C 0.72272 0.70957 0.58246 0.0
H1544 H 0.80577 0.73435 0.59938 0.0
C1545 C 0.73156 0.67926 0.59799 0.0
C1546 C 0.76699 0.66861 0.61527 0.0
H1547 H 0.69499 0.71716 0.57007 0.0
H1548 H 0.71024 0.66453 0.59773 0.0
C1549 C 0.79368 0.68886 0.61532 0.0
C1550 C 0.28801 0.80724 0.55522 0.0
C1551 C 0.25409 0.80059 0.53756 0.0
H1552 H 0.32718 0.83952 0.56073 0.0
C1553 C 0.23666 0.81986 0.50664 0.0
H1554 H 0.30164 0.7935 0.57982 0.0
C1555 C 0.2509 0.84677 0.49602 0.0
C1556 C 0.28286 0.85527 0.51629 0.0
H1557 H 0.20996 0.81605 0.49316 0.0
H1558 H 0.23508 0.86226 0.47396 0.0
C1559 C 0.30217 0.8342 0.54482 0.0
C1560 C 0.14351 0.72196 0.98581 0.0
C1561 C 0.12955 0.74957 0.96389 0.0
H1562 H 0.17004 0.70054 1.03855 0.0
C1563 C 0.13126 0.77719 0.98033 0.0
H1564 H 0.14281 0.70014 0.97422 0.0
C1565 C 0.14594 0.77727 1.01734 0.0
C1566 C 0.16017 0.74978 1.03936 0.0
H1567 H 0.1207 0.79887 0.9647 0.0
H1568 H 0.14675 0.79927 1.0285 0.0
C1569 C 0.15895 0.72208 1.02288 0.0
C1570 C 0.60436 0.25923 0.38777 0.0
C1571 C 0.5849 0.2769 0.35653 0.0
H1572 H 0.60381 0.23963 0.44157 0.0
C1573 C 0.54825 0.28646 0.35531 0.0
H1574 H 0.63269 0.25187 0.3899 0.0
C1575 C 0.53202 0.28041 0.385 0.0
C1576 C 0.55157 0.26402 0.41708 0.0
H1577 H 0.53236 0.30038 0.33186 0.0
H1578 H 0.50448 0.29014 0.38321 0.0
C1579 C 0.58783 0.25277 0.41766 0.0
C1580 C 0.52298 0.76975 0.1924 0.0
C1581 C 0.55794 0.77662 0.18958 0.0
H1582 H 0.47943 0.77533 0.22142 0.0
C1583 C 0.57743 0.79111 0.21763 0.0
H1584 H 0.50734 0.75821 0.17157 0.0
C1585 C 0.5616 0.8005 0.24615 0.0
C1586 C 0.52586 0.79564 0.24759 0.0
H1587 H 0.60417 0.79711 0.21644 0.0
H1588 H 0.57673 0.81328 0.26607 0.0
C1589 C 0.50711 0.77911 0.22122 0.0
C1590 C 0.96288 0.23723 0.63014 0.0
C1591 C 0.96413 0.26459 0.60875 0.0
H1592 H 0.97472 0.21256 0.68282 0.0
C1593 C 0.9804 0.28853 0.62636 0.0
H1594 H 0.95043 0.21832 0.61803 0.0
C1595 C 0.99504 0.28507 0.66398 0.0
C1596 C 0.99283 0.25791 0.68544 0.0
H1597 H 0.9818 0.31008 0.61104 0.0
H1598 H 1.00757 0.30383 0.67634 0.0
C1599 C 0.97656 0.23409 0.66769 0.0
C1600 C 0.85415 0.03484 0.78251 0.0
C1601 C 0.82192 0.05009 0.76209 0.0
H1602 H 0.9093 0.03832 0.80541 0.0
C1603 C 0.81897 0.08213 0.7543 0.0
H1604 H 0.85717 1.01016 0.78887 0.0
C1605 C 0.84879 0.09816 0.76323 0.0
C1606 C 0.88218 0.08248 0.78031 0.0
H1607 H 0.79428 0.09453 0.73883 0.0
H1608 H 0.84627 0.12237 0.75407 0.0
C1609 C 0.88409 0.05093 0.79154 0.0
C1610 C 0.70778 0.92597 0.24284 0.0
C1611 C 0.72102 0.95083 0.26045 0.0
H1612 H 0.66237 0.9021 0.225 0.0
C1613 C 0.69766 0.96984 0.27632 0.0
H1614 H 0.72498 0.91095 0.23015 0.0
C1615 C 0.66141 0.96478 0.27324 0.0
C1616 C 0.64793 0.94048 0.25448 0.0
H1617 H 0.70696 0.98937 0.28977 0.0
H1618 H 0.64386 0.98006 0.28522 0.0
C1619 C 0.67178 0.92086 0.23991 0.0
C1620 C 0.42123 0.37744 0.38664 0.0
C1621 C 0.43754 0.39466 0.36258 0.0
H1622 H 0.37501 0.37478 0.41123 0.0
C1623 C 0.4168 0.41892 0.33937 0.0
H1624 H 0.43653 0.35834 0.40442 0.0
C1625 C 0.38183 0.42817 0.34329 0.0
C1626 C 0.367 0.41306 0.37006 0.0
H1627 H 0.42864 0.43264 0.32061 0.0
H1628 H 0.36779 0.44906 0.328 0.0
C1629 C 0.38591 0.38646 0.3901 0.0
C1630 C 0.25046 0.56822 0.78006 0.0
C1631 C 0.25384 0.53898 0.79855 0.0
H1632 H 0.21644 0.60997 0.76194 0.0
C1633 C 0.22305 0.52661 0.80583 0.0
H1634 H 0.27399 0.57801 0.77394 0.0
C1635 C 0.19068 0.54545 0.80135 0.0
C1636 C 0.1887 0.57663 0.78851 0.0
H1637 H 0.22511 0.50397 0.81997 0.0
H1638 H 0.1691 0.53645 0.81244 0.0
C1639 C 0.21763 0.58663 0.77393 0.0
C1640 C 0.76112 0.80617 1.03946 0.0
C1641 C 0.75393 0.78211 0.06282 0.0
H1642 H 0.76863 0.85361 1.03218 0.0
C1643 C 0.75377 0.78688 0.09915 0.0
H1644 H 0.76093 0.80334 1.01115 0.0
C1645 C 0.75877 0.81568 0.11142 0.0
C1646 C 0.76339 0.84042 0.08743 0.0
H1647 H 0.74839 0.76867 0.11773 0.0
H1648 H 0.75796 0.81876 0.13948 0.0
C1649 C 0.76551 0.83509 1.05156 0.0
C1650 C 0.25135 0.70141 0.99722 0.0
C1651 C 0.27939 0.67724 1.00852 0.0
H1652 H 0.22569 0.74444 1.00873 0.0
C1653 C 0.30581 0.68096 1.03895 0.0
H1654 H 0.23037 0.69973 0.97403 0.0
C1655 C 0.3027 0.70635 0.0591 0.0
C1656 C 0.27336 0.72935 1.04941 0.0
H1657 H 0.32857 0.6637 1.04808 0.0
H1658 H 0.32257 0.70717 0.0835 0.0
C1659 C 0.24858 0.72722 1.01721 0.0
C1660 C 0.36943 0.32588 0.50542 0.0
C1661 C 0.34507 0.31152 0.52309 0.0
H1662 H 0.38143 0.3664 0.47739 0.0
C1663 C 0.31208 0.32836 0.52451 0.0
H1664 H 0.39524 0.3139 0.50399 0.0
C1665 C 0.3036 0.35871 0.50804 0.0
C1666 C 0.32853 0.37307 0.49104 0.0
H1667 H 0.29283 0.31805 0.53813 0.0
H1668 H 0.27786 0.37106 0.50909 0.0
C1669 C 0.36156 0.35624 0.49021 0.0
C1670 C 0.85406 0.22131 0.60311 0.0
C1671 C 0.83716 0.24009 0.5716 0.0
H1672 H 0.85526 0.17934 0.63649 0.0
C1673 C 0.80386 0.23278 0.55312 0.0
H1674 H 0.88034 0.22559 0.61722 0.0
C1675 C 0.78978 0.20577 0.56354 0.0
C1676 C 0.80854 0.1853 0.59292 0.0
H1677 H 0.79072 0.24608 0.52805 0.0
H1678 H 0.76529 0.19999 0.54711 0.0
C1679 C 0.83986 0.19438 0.61378 0.0
loop_
_geom_bond_atom_site_label_1
_geom_bond_atom_site_label_2
_geom_bond_distance
_geom_bond_site_symmetry_2
_ccdc_geom_bond_type
Tb0 C9 2.764 . S
Tb0 O10 2.325 . S
Tb0 O13 2.303 . S
Tb0 O17 2.322 1_455 S
Tb0 O18 2.349 1_455 S
Tb0 O21 2.415 . S
Tb0 O22 2.399 . S
Tb1 O11 2.322 1_655 S
Tb1 O12 2.349 1_655 S
Tb1 O14 2.415 . S
Tb1 O15 2.399 . S
Tb1 O16 2.325 . S
Tb1 O19 2.303 . S
Tb1 C30 2.764 . S
C2 O18 1.261 . S
C2 O19 1.257 . S
C3 C6 1.358 . S
C3 C7 1.332 . S
C3 C9 1.504 . S
C4 C5 1.373 . S
C4 C8 1.308 . S
C5 C4 1.373 . S
C5 C6 1.429 . S
C5 H32 0.932 . S
C6 C3 1.358 . S
C6 C5 1.429 . S
C6 H33 0.930 . S
C7 C3 1.332 . S
C7 C8 1.394 . S
C7 H34 0.932 . S
C8 C4 1.308 . S
C8 C7 1.394 . S
C8 H35 0.929 . S
C9 Tb0 2.764 . S
C9 C3 1.504 . S
C9 O21 1.239 . S
C9 O22 1.263 . S
O10 Tb0 2.325 . S
O10 C20 1.236 . S
O11 Tb1 2.322 1_455 S
O11 C20 1.257 . S
O12 Tb1 2.349 1_455 S
O12 C23 1.261 . S
O13 Tb0 2.303 . S
O13 C23 1.257 . S
O14 Tb1 2.415 . S
O14 C30 1.239 . S
O15 Tb1 2.399 . S
O15 C30 1.263 . S
O16 Tb1 2.325 . S
O16 C31 1.236 . S
O17 Tb0 2.322 1_655 S
O17 C31 1.257 . S
O18 Tb0 2.349 1_655 S
O18 C2 1.261 . S
O19 Tb1 2.303 . S
O19 C2 1.257 . S
C20 O10 1.236 . S
C20 O11 1.257 . S
O21 Tb0 2.415 . S
O21 C9 1.239 . S
O22 Tb0 2.399 . S
O22 C9 1.263 . S
C23 O12 1.261 . S
C23 O13 1.257 . S
C24 C27 1.358 . S
C24 C28 1.332 . S
C24 C30 1.504 . S
C25 C26 1.373 . S
C25 C29 1.308 . S
C26 C25 1.373 . S
C26 C27 1.429 . S
C26 H36 0.932 . S
C27 C24 1.358 . S
C27 C26 1.429 . S
C27 H37 0.930 . S
C28 C24 1.332 . S
C28 C29 1.394 . S
C28 H38 0.932 . S
C29 C25 1.308 . S
C29 C28 1.394 . S
C29 H39 0.929 . S
C30 Tb1 2.764 . S
C30 O14 1.239 . S
C30 O15 1.263 . S
C30 C24 1.504 . S
C31 O16 1.236 . S
C31 O17 1.257 . S
H32 C5 0.932 . S
H33 C6 0.930 . S
H34 C7 0.932 . S
H35 C8 0.929 . S
H36 C26 0.932 . S
H37 C27 0.930 . S
H38 C28 0.932 . S
H39 C29 0.929 . S
Tb40 C49 2.764 . S
Tb40 O50 2.325 . S
Tb40 O53 2.303 . S
Tb40 O57 2.322 . S
Tb40 O58 2.349 . S
Tb40 O61 2.415 . S
Tb40 O62 2.399 . S
Tb41 O51 2.322 . S
Tb41 O52 2.349 . S
Tb41 O54 2.415 . S
Tb41 O55 2.399 . S
Tb41 O56 2.325 . S
Tb41 O59 2.303 . S
Tb41 C70 2.764 . S
C42 O58 1.261 . S
C42 O59 1.257 . S
C43 C46 1.358 . S
C43 C47 1.332 . S
C43 C49 1.504 . S
C44 C45 1.373 . S
C44 C48 1.308 . S
C45 C44 1.373 . S
C45 C46 1.429 . S
C45 H72 0.932 . S
C46 C43 1.358 . S
C46 C45 1.429 . S
C46 H73 0.930 . S
C47 C43 1.332 . S
C47 C48 1.394 . S
C47 H74 0.932 . S
C48 C44 1.308 . S
C48 C47 1.394 . S
C48 H75 0.929 . S
C49 Tb40 2.764 . S
C49 C43 1.504 . S
C49 O61 1.239 . S
C49 O62 1.263 . S
O50 Tb40 2.325 . S
O50 C60 1.236 . S
O51 Tb41 2.322 . S
O51 C60 1.257 . S
O52 Tb41 2.349 . S
O52 C63 1.261 . S
O53 Tb40 2.303 . S
O53 C63 1.257 . S
O54 Tb41 2.415 . S
O54 C70 1.239 . S
O55 Tb41 2.399 . S
O55 C70 1.263 . S
O56 Tb41 2.325 . S
O56 C71 1.236 . S
O57 Tb40 2.322 . S
O57 C71 1.257 . S
O58 Tb40 2.349 . S
O58 C42 1.261 . S
O59 Tb41 2.303 . S
O59 C42 1.257 . S
C60 O50 1.236 . S
C60 O51 1.257 . S
O61 Tb40 2.415 . S
O61 C49 1.239 . S
O62 Tb40 2.399 . S
O62 C49 1.263 . S
C63 O52 1.261 . S
C63 O53 1.257 . S
C64 C67 1.358 . S
C64 C68 1.332 . S
C64 C70 1.504 . S
C65 C66 1.373 . S
C65 C69 1.308 . S
C66 C65 1.373 . S
C66 C67 1.429 . S
C66 H76 0.932 . S
C67 C64 1.358 . S
C67 C66 1.429 . S
C67 H77 0.930 . S
C68 C64 1.332 . S
C68 C69 1.394 . S
C68 H78 0.932 . S
C69 C65 1.308 . S
C69 C68 1.394 . S
C69 H79 0.929 . S
C70 Tb41 2.764 . S
C70 O54 1.239 . S
C70 O55 1.263 . S
C70 C64 1.504 . S
C71 O56 1.236 . S
C71 O57 1.257 . S
H72 C45 0.932 . S
H73 C46 0.930 . S
H74 C47 0.932 . S
H75 C48 0.929 . S
H76 C66 0.932 . S
H77 C67 0.930 . S
H78 C68 0.932 . S
H79 C69 0.929 . S
Tb80 C89 2.764 . S
Tb80 O90 2.325 . S
Tb80 O93 2.303 . S
Tb80 O97 2.322 . S
Tb80 O98 2.349 . S
Tb80 O101 2.415 . S
Tb80 O102 2.399 . S
Tb81 O91 2.322 . S
Tb81 O92 2.349 . S
Tb81 O94 2.415 . S
Tb81 O95 2.399 . S
Tb81 O96 2.325 . S
Tb81 O99 2.303 . S
Tb81 C110 2.764 . S
C82 O98 1.261 . S
C82 O99 1.257 . S
C83 C86 1.358 . S
C83 C87 1.332 . S
C83 C89 1.504 . S
C84 C85 1.373 . S
C84 C88 1.308 . S
C85 C84 1.373 . S
C85 C86 1.429 . S
C85 H112 0.932 . S
C86 C83 1.358 . S
C86 C85 1.429 . S
C86 H113 0.930 . S
C87 C83 1.332 . S
C87 C88 1.394 . S
C87 H114 0.932 . S
C88 C84 1.308 . S
C88 C87 1.394 . S
C88 H115 0.929 . S
C89 Tb80 2.764 . S
C89 C83 1.504 . S
C89 O101 1.239 . S
C89 O102 1.263 . S
O90 Tb80 2.325 . S
O90 C100 1.236 . S
O91 Tb81 2.322 . S
O91 C100 1.257 . S
O92 Tb81 2.349 . S
O92 C103 1.261 . S
O93 Tb80 2.303 . S
O93 C103 1.257 . S
O94 Tb81 2.415 . S
O94 C110 1.239 . S
O95 Tb81 2.399 . S
O95 C110 1.263 . S
O96 Tb81 2.325 . S
O96 C111 1.236 . S
O97 Tb80 2.322 . S
O97 C111 1.257 . S
O98 Tb80 2.349 . S
O98 C82 1.261 . S
O99 Tb81 2.303 . S
O99 C82 1.257 . S
C100 O90 1.236 . S
C100 O91 1.257 . S
O101 Tb80 2.415 . S
O101 C89 1.239 . S
O102 Tb80 2.399 . S
O102 C89 1.263 . S
C103 O92 1.261 . S
C103 O93 1.257 . S
C104 C107 1.358 . S
C104 C108 1.332 . S
C104 C110 1.504 . S
C105 C106 1.373 . S
C105 C109 1.308 . S
C106 C105 1.373 . S
C106 C107 1.429 . S
C106 H116 0.932 . S
C107 C104 1.358 . S
C107 C106 1.429 . S
C107 H117 0.930 . S
C108 C104 1.332 . S
C108 C109 1.394 . S
C108 H118 0.932 . S
C109 C105 1.308 . S
C109 C108 1.394 . S
C109 H119 0.929 . S
C110 Tb81 2.764 . S
C110 O94 1.239 . S
C110 O95 1.263 . S
C110 C104 1.504 . S
C111 O96 1.236 . S
C111 O97 1.257 . S
H112 C85 0.932 . S
H113 C86 0.930 . S
H114 C87 0.932 . S
H115 C88 0.929 . S
H116 C106 0.932 . S
H117 C107 0.930 . S
H118 C108 0.932 . S
H119 C109 0.929 . S
Tb120 C129 2.764 . S
Tb120 O130 2.325 . S
Tb120 O133 2.303 . S
Tb120 O137 2.322 1_655 S
Tb120 O138 2.349 1_655 S
Tb120 O141 2.415 . S
Tb120 O142 2.399 . S
Tb121 O131 2.322 1_455 S
Tb121 O132 2.349 1_455 S
Tb121 O134 2.415 . S
Tb121 O135 2.399 . S
Tb121 O136 2.325 . S
Tb121 O139 2.303 . S
Tb121 C150 2.764 . S
C122 O138 1.261 . S
C122 O139 1.257 . S
C123 C126 1.358 . S
C123 C127 1.332 . S
C123 C129 1.504 . S
C124 C125 1.373 . S
C124 C128 1.308 . S
C125 C124 1.373 . S
C125 C126 1.429 . S
C125 H152 0.932 . S
C126 C123 1.358 . S
C126 C125 1.429 . S
C126 H153 0.930 . S
C127 C123 1.332 . S
C127 C128 1.394 . S
C127 H154 0.932 . S
C128 C124 1.308 . S
C128 C127 1.394 . S
C128 H155 0.929 . S
C129 Tb120 2.764 . S
C129 C123 1.504 . S
C129 O141 1.239 . S
C129 O142 1.263 . S
O130 Tb120 2.325 . S
O130 C140 1.236 . S
O131 Tb121 2.322 1_655 S
O131 C140 1.257 . S
O132 Tb121 2.349 1_655 S
O132 C143 1.261 . S
O133 Tb120 2.303 . S
O133 C143 1.257 . S
O134 Tb121 2.415 . S
O134 C150 1.239 . S
O135 Tb121 2.399 . S
O135 C150 1.263 . S
O136 Tb121 2.325 . S
O136 C151 1.236 . S
O137 Tb120 2.322 1_455 S
O137 C151 1.257 . S
O138 Tb120 2.349 1_455 S
O138 C122 1.261 . S
O139 Tb121 2.303 . S
O139 C122 1.257 . S
C140 O130 1.236 . S
C140 O131 1.257 . S
O141 Tb120 2.415 . S
O141 C129 1.239 . S
O142 Tb120 2.399 . S
O142 C129 1.263 . S
C143 O132 1.261 . S
C143 O133 1.257 . S
C144 C147 1.358 . S
C144 C148 1.332 . S
C144 C150 1.504 . S
C145 C146 1.373 . S
C145 C149 1.308 . S
C146 C145 1.373 . S
C146 C147 1.429 . S
C146 H156 0.932 . S
C147 C144 1.358 . S
C147 C146 1.429 . S
C147 H157 0.930 . S
C148 C144 1.332 . S
C148 C149 1.394 . S
C148 H158 0.932 . S
C149 C145 1.308 . S
C149 C148 1.394 . S
C149 H159 0.929 . S
C150 Tb121 2.764 . S
C150 O134 1.239 . S
C150 O135 1.263 . S
C150 C144 1.504 . S
C151 O136 1.236 . S
C151 O137 1.257 . S
H152 C125 0.932 . S
H153 C126 0.930 . S
H154 C127 0.932 . S
H155 C128 0.929 . S
H156 C146 0.932 . S
H157 C147 0.930 . S
H158 C148 0.932 . S
H159 C149 0.929 . S
Tb160 C169 2.764 . S
Tb160 O170 2.325 . S
Tb160 O173 2.303 . S
Tb160 O177 2.322 1_545 S
Tb160 O178 2.349 1_545 S
Tb160 O181 2.415 . S
Tb160 O182 2.399 . S
Tb161 O171 2.322 1_565 S
Tb161 O172 2.349 1_565 S
Tb161 O174 2.415 . S
Tb161 O175 2.399 . S
Tb161 O176 2.325 . S
Tb161 O179 2.303 . S
Tb161 C190 2.764 . S
C162 O178 1.261 . S
C162 O179 1.257 . S
C163 C166 1.358 . S
C163 C167 1.332 . S
C163 C169 1.504 . S
C164 C165 1.373 . S
C164 C168 1.308 . S
C165 C164 1.373 . S
C165 C166 1.429 . S
C165 H192 0.932 . S
C166 C163 1.358 . S
C166 C165 1.429 . S
C166 H193 0.930 . S
C167 C163 1.332 . S
C167 C168 1.394 . S
C167 H194 0.932 . S
C168 C164 1.308 . S
C168 C167 1.394 . S
C168 H195 0.929 . S
C169 Tb160 2.764 . S
C169 C163 1.504 . S
C169 O181 1.239 . S
C169 O182 1.263 . S
O170 Tb160 2.325 . S
O170 C180 1.236 . S
O171 Tb161 2.322 1_545 S
O171 C180 1.257 . S
O172 Tb161 2.349 1_545 S
O172 C183 1.261 . S
O173 Tb160 2.303 . S
O173 C183 1.257 . S
O174 Tb161 2.415 . S
O174 C190 1.239 . S
O175 Tb161 2.399 . S
O175 C190 1.263 . S
O176 Tb161 2.325 . S
O176 C191 1.236 . S
O177 Tb160 2.322 1_565 S
O177 C191 1.257 . S
O178 Tb160 2.349 1_565 S
O178 C162 1.261 . S
O179 Tb161 2.303 . S
O179 C162 1.257 . S
C180 O170 1.236 . S
C180 O171 1.257 . S
O181 Tb160 2.415 . S
O181 C169 1.239 . S
O182 Tb160 2.399 . S
O182 C169 1.263 . S
C183 O172 1.261 . S
C183 O173 1.257 . S
C184 C187 1.358 . S
C184 C188 1.332 . S
C184 C190 1.504 . S
C185 C186 1.373 . S
C185 C189 1.308 . S
C186 C185 1.373 . S
C186 C187 1.429 . S
C186 H196 0.932 . S
C187 C184 1.358 . S
C187 C186 1.429 . S
C187 H197 0.930 . S
C188 C184 1.332 . S
C188 C189 1.394 . S
C188 H198 0.932 . S
C189 C185 1.308 . S
C189 C188 1.394 . S
C189 H199 0.929 . S
C190 Tb161 2.764 . S
C190 O174 1.239 . S
C190 O175 1.263 . S
C190 C184 1.504 . S
C191 O176 1.236 . S
C191 O177 1.257 . S
H192 C165 0.932 . S
H193 C166 0.930 . S
H194 C167 0.932 . S
H195 C168 0.929 . S
H196 C186 0.932 . S
H197 C187 0.930 . S
H198 C188 0.932 . S
H199 C189 0.929 . S
Tb200 C209 2.764 . S
Tb200 O210 2.325 . S
Tb200 O213 2.303 . S
Tb200 O217 2.322 1_565 S
Tb200 O218 2.349 1_565 S
Tb200 O221 2.415 . S
Tb200 O222 2.399 . S
Tb201 O211 2.322 1_545 S
Tb201 O212 2.349 1_545 S
Tb201 O214 2.415 . S
Tb201 O215 2.399 . S
Tb201 O216 2.325 . S
Tb201 O219 2.303 . S
Tb201 C230 2.764 . S
C202 O218 1.261 . S
C202 O219 1.257 . S
C203 C206 1.358 . S
C203 C207 1.332 . S
C203 C209 1.504 . S
C204 C205 1.373 . S
C204 C208 1.308 . S
C205 C204 1.373 . S
C205 C206 1.429 . S
C205 H232 0.932 . S
C206 C203 1.358 . S
C206 C205 1.429 . S
C206 H233 0.930 . S
C207 C203 1.332 . S
C207 C208 1.394 . S
C207 H234 0.932 . S
C208 C204 1.308 . S
C208 C207 1.394 . S
C208 H235 0.929 . S
C209 Tb200 2.764 . S
C209 C203 1.504 . S
C209 O221 1.239 . S
C209 O222 1.263 . S
O210 Tb200 2.325 . S
O210 C220 1.236 . S
O211 Tb201 2.322 1_565 S
O211 C220 1.257 . S
O212 Tb201 2.349 1_565 S
O212 C223 1.261 . S
O213 Tb200 2.303 . S
O213 C223 1.257 . S
O214 Tb201 2.415 . S
O214 C230 1.239 . S
O215 Tb201 2.399 . S
O215 C230 1.263 . S
O216 Tb201 2.325 . S
O216 C231 1.236 . S
O217 Tb200 2.322 1_545 S
O217 C231 1.257 . S
O218 Tb200 2.349 1_545 S
O218 C202 1.261 . S
O219 Tb201 2.303 . S
O219 C202 1.257 . S
C220 O210 1.236 . S
C220 O211 1.257 . S
O221 Tb200 2.415 . S
O221 C209 1.239 . S
O222 Tb200 2.399 . S
O222 C209 1.263 . S
C223 O212 1.261 . S
C223 O213 1.257 . S
C224 C227 1.358 . S
C224 C228 1.332 . S
C224 C230 1.504 . S
C225 C226 1.373 . S
C225 C229 1.308 . S
C226 C225 1.373 . S
C226 C227 1.429 . S
C226 H236 0.932 1_556 S
C227 C224 1.358 . S
C227 C226 1.429 . S
C227 H237 0.930 . S
C228 C224 1.332 . S
C228 C229 1.394 . S
C228 H238 0.932 . S
C229 C225 1.308 . S
C229 C228 1.394 . S
C229 H239 0.929 . S
C230 Tb201 2.764 . S
C230 O214 1.239 . S
C230 O215 1.263 . S
C230 C224 1.504 . S
C231 O216 1.236 . S
C231 O217 1.257 . S
H232 C205 0.932 . S
H233 C206 0.930 . S
H234 C207 0.932 . S
H235 C208 0.929 . S
H236 C226 0.932 1_554 S
H237 C227 0.930 . S
H238 C228 0.932 . S
H239 C229 0.929 . S
Tb240 C249 2.764 . S
Tb240 O250 2.325 . S
Tb240 O253 2.303 . S
Tb240 O257 2.322 . S
Tb240 O258 2.349 . S
Tb240 O261 2.415 . S
Tb240 O262 2.399 . S
Tb241 O251 2.322 . S
Tb241 O252 2.349 . S
Tb241 O254 2.415 . S
Tb241 O255 2.399 . S
Tb241 O256 2.325 . S
Tb241 O259 2.303 . S
Tb241 C270 2.764 . S
C242 O258 1.261 . S
C242 O259 1.257 . S
C243 C246 1.358 . S
C243 C247 1.332 . S
C243 C249 1.504 . S
C244 C245 1.373 . S
C244 C248 1.308 . S
C245 C244 1.373 . S
C245 C246 1.429 . S
C245 H272 0.932 . S
C246 C243 1.358 . S
C246 C245 1.429 . S
C246 H273 0.930 . S
C247 C243 1.332 . S
C247 C248 1.394 . S
C247 H274 0.932 . S
C248 C244 1.308 . S
C248 C247 1.394 . S
C248 H275 0.929 . S
C249 Tb240 2.764 . S
C249 C243 1.504 . S
C249 O261 1.239 . S
C249 O262 1.263 . S
O250 Tb240 2.325 . S
O250 C260 1.236 . S
O251 Tb241 2.322 . S
O251 C260 1.257 . S
O252 Tb241 2.349 . S
O252 C263 1.261 . S
O253 Tb240 2.303 . S
O253 C263 1.257 . S
O254 Tb241 2.415 . S
O254 C270 1.239 . S
O255 Tb241 2.399 . S
O255 C270 1.263 . S
O256 Tb241 2.325 . S
O256 C271 1.236 . S
O257 Tb240 2.322 . S
O257 C271 1.257 . S
O258 Tb240 2.349 . S
O258 C242 1.261 . S
O259 Tb241 2.303 . S
O259 C242 1.257 . S
C260 O250 1.236 . S
C260 O251 1.257 . S
O261 Tb240 2.415 . S
O261 C249 1.239 . S
O262 Tb240 2.399 . S
O262 C249 1.263 . S
C263 O252 1.261 . S
C263 O253 1.257 . S
C264 C267 1.358 . S
C264 C268 1.332 . S
C264 C270 1.504 . S
C265 C266 1.373 . S
C265 C269 1.308 . S
C266 C265 1.373 . S
C266 C267 1.429 . S
C266 H276 0.932 . S
C267 C264 1.358 . S
C267 C266 1.429 . S
C267 H277 0.930 . S
C268 C264 1.332 . S
C268 C269 1.394 . S
C268 H278 0.932 . S
C269 C265 1.308 . S
C269 C268 1.394 . S
C269 H279 0.929 . S
C270 Tb241 2.764 . S
C270 O254 1.239 . S
C270 O255 1.263 . S
C270 C264 1.504 . S
C271 O256 1.236 . S
C271 O257 1.257 . S
H272 C245 0.932 . S
H273 C246 0.930 . S
H274 C247 0.932 . S
H275 C248 0.929 . S
H276 C266 0.932 . S
H277 C267 0.930 . S
H278 C268 0.932 . S
H279 C269 0.929 . S
Tb280 C289 2.764 . S
Tb280 O290 2.325 . S
Tb280 O293 2.303 . S
Tb280 O297 2.322 . S
Tb280 O298 2.349 . S
Tb280 O301 2.415 . S
Tb280 O302 2.399 . S
Tb281 O291 2.322 . S
Tb281 O292 2.349 . S
Tb281 O294 2.415 . S
Tb281 O295 2.399 . S
Tb281 O296 2.325 . S
Tb281 O299 2.303 . S
Tb281 C310 2.764 . S
C282 O298 1.261 . S
C282 O299 1.257 . S
C283 C286 1.358 . S
C283 C287 1.332 . S
C283 C289 1.504 . S
C284 C285 1.373 . S
C284 C288 1.308 . S
C285 C284 1.373 . S
C285 C286 1.429 . S
C285 H312 0.932 . S
C286 C283 1.358 . S
C286 C285 1.429 . S
C286 H313 0.930 . S
C287 C283 1.332 . S
C287 C288 1.394 . S
C287 H314 0.932 . S
C288 C284 1.308 . S
C288 C287 1.394 . S
C288 H315 0.929 . S
C289 Tb280 2.764 . S
C289 C283 1.504 . S
C289 O301 1.239 . S
C289 O302 1.263 . S
O290 Tb280 2.325 . S
O290 C300 1.236 . S
O291 Tb281 2.322 . S
O291 C300 1.257 . S
O292 Tb281 2.349 . S
O292 C303 1.261 . S
O293 Tb280 2.303 . S
O293 C303 1.257 . S
O294 Tb281 2.415 . S
O294 C310 1.239 . S
O295 Tb281 2.399 . S
O295 C310 1.263 . S
O296 Tb281 2.325 . S
O296 C311 1.236 . S
O297 Tb280 2.322 . S
O297 C311 1.257 . S
O298 Tb280 2.349 . S
O298 C282 1.261 . S
O299 Tb281 2.303 . S
O299 C282 1.257 . S
C300 O290 1.236 . S
C300 O291 1.257 . S
O301 Tb280 2.415 . S
O301 C289 1.239 . S
O302 Tb280 2.399 . S
O302 C289 1.263 . S
C303 O292 1.261 . S
C303 O293 1.257 . S
C304 C307 1.358 . S
C304 C308 1.332 . S
C304 C310 1.504 . S
C305 C306 1.373 . S
C305 C309 1.308 . S
C306 C305 1.373 . S
C306 C307 1.429 . S
C306 H316 0.932 1_554 S
C307 C304 1.358 . S
C307 C306 1.429 . S
C307 H317 0.930 . S
C308 C304 1.332 . S
C308 C309 1.394 . S
C308 H318 0.932 . S
C309 C305 1.308 . S
C309 C308 1.394 . S
C309 H319 0.929 . S
C310 Tb281 2.764 . S
C310 O294 1.239 . S
C310 O295 1.263 . S
C310 C304 1.504 . S
C311 O296 1.236 . S
C311 O297 1.257 . S
H312 C285 0.932 . S
H313 C286 0.930 . S
H314 C287 0.932 . S
H315 C288 0.929 . S
H316 C306 0.932 1_556 S
H317 C307 0.930 . S
H318 C308 0.932 . S
H319 C309 0.929 . S
Tb320 C329 2.764 . S
Tb320 O330 2.325 . S
Tb320 O333 2.303 . S
Tb320 O337 2.322 . S
Tb320 O338 2.349 . S
Tb320 O341 2.415 . S
Tb320 O342 2.399 . S
Tb321 O331 2.322 . S
Tb321 O332 2.349 . S
Tb321 O334 2.415 1_554 S
Tb321 O335 2.399 . S
Tb321 O336 2.325 . S
Tb321 O339 2.303 . S
Tb321 C350 2.764 1_554 S
C322 O338 1.261 . S
C322 O339 1.257 . S
C323 C326 1.358 . S
C323 C327 1.332 . S
C323 C329 1.504 . S
C324 C325 1.373 . S
C324 C328 1.308 . S
C325 C324 1.373 . S
C325 C326 1.429 . S
C325 H352 0.932 . S
C326 C323 1.358 . S
C326 C325 1.429 . S
C326 H353 0.930 . S
C327 C323 1.332 . S
C327 C328 1.394 . S
C327 H354 0.932 . S
C328 C324 1.308 . S
C328 C327 1.394 . S
C328 H355 0.929 . S
C329 Tb320 2.764 . S
C329 C323 1.504 . S
C329 O341 1.239 . S
C329 O342 1.263 . S
O330 Tb320 2.325 . S
O330 C340 1.236 . S
O331 Tb321 2.322 . S
O331 C340 1.257 . S
O332 Tb321 2.349 . S
O332 C343 1.261 . S
O333 Tb320 2.303 . S
O333 C343 1.257 . S
O334 Tb321 2.415 1_556 S
O334 C350 1.239 . S
O335 Tb321 2.399 . S
O335 C350 1.263 1_554 S
O336 Tb321 2.325 . S
O336 C351 1.236 1_554 S
O337 Tb320 2.322 . S
O337 C351 1.257 1_554 S
O338 Tb320 2.349 . S
O338 C322 1.261 . S
O339 Tb321 2.303 . S
O339 C322 1.257 . S
C340 O330 1.236 . S
C340 O331 1.257 . S
O341 Tb320 2.415 . S
O341 C329 1.239 . S
O342 Tb320 2.399 . S
O342 C329 1.263 . S
C343 O332 1.261 . S
C343 O333 1.257 . S
C344 C347 1.358 . S
C344 C348 1.332 . S
C344 C350 1.504 . S
C345 C346 1.373 . S
C345 C349 1.308 . S
C346 C345 1.373 . S
C346 C347 1.429 . S
C346 H356 0.932 . S
C347 C344 1.358 . S
C347 C346 1.429 . S
C347 H357 0.930 . S
C348 C344 1.332 . S
C348 C349 1.394 . S
C348 H358 0.932 . S
C349 C345 1.308 . S
C349 C348 1.394 . S
C349 H359 0.929 . S
C350 Tb321 2.764 1_556 S
C350 O334 1.239 . S
C350 O335 1.263 1_556 S
C350 C344 1.504 . S
C351 O336 1.236 1_556 S
C351 O337 1.257 1_556 S
H352 C325 0.932 . S
H353 C326 0.930 . S
H354 C327 0.932 . S
H355 C328 0.929 . S
H356 C346 0.932 . S
H357 C347 0.930 . S
H358 C348 0.932 . S
H359 C349 0.929 . S
Tb360 C369 2.764 1_556 S
Tb360 O370 2.325 . S
Tb360 O373 2.303 . S
Tb360 O377 2.322 . S
Tb360 O378 2.349 . S
Tb360 O381 2.415 1_556 S
Tb360 O382 2.399 . S
Tb361 O371 2.322 . S
Tb361 O372 2.349 . S
Tb361 O374 2.415 . S
Tb361 O375 2.399 . S
Tb361 O376 2.325 . S
Tb361 O379 2.303 . S
Tb361 C390 2.764 . S
C362 O378 1.261 . S
C362 O379 1.257 . S
C363 C366 1.358 . S
C363 C367 1.332 . S
C363 C369 1.504 . S
C364 C365 1.373 . S
C364 C368 1.308 . S
C365 C364 1.373 . S
C365 C366 1.429 . S
C365 H392 0.932 . S
C366 C363 1.358 . S
C366 C365 1.429 . S
C366 H393 0.930 . S
C367 C363 1.332 . S
C367 C368 1.394 . S
C367 H394 0.932 . S
C368 C364 1.308 . S
C368 C367 1.394 . S
C368 H395 0.929 . S
C369 Tb360 2.764 1_554 S
C369 C363 1.504 . S
C369 O381 1.239 . S
C369 O382 1.263 1_554 S
O370 Tb360 2.325 . S
O370 C380 1.236 . S
O371 Tb361 2.322 . S
O371 C380 1.257 . S
O372 Tb361 2.349 . S
O372 C383 1.261 . S
O373 Tb360 2.303 . S
O373 C383 1.257 . S
O374 Tb361 2.415 . S
O374 C390 1.239 . S
O375 Tb361 2.399 . S
O375 C390 1.263 . S
O376 Tb361 2.325 . S
O376 C391 1.236 . S
O377 Tb360 2.322 . S
O377 C391 1.257 . S
O378 Tb360 2.349 . S
O378 C362 1.261 . S
O379 Tb361 2.303 . S
O379 C362 1.257 . S
C380 O370 1.236 . S
C380 O371 1.257 . S
O381 Tb360 2.415 1_554 S
O381 C369 1.239 . S
O382 Tb360 2.399 . S
O382 C369 1.263 1_556 S
C383 O372 1.261 . S
C383 O373 1.257 . S
C384 C387 1.358 . S
C384 C388 1.332 . S
C384 C390 1.504 . S
C385 C386 1.373 . S
C385 C389 1.308 . S
C386 C385 1.373 . S
C386 C387 1.429 . S
C386 H396 0.932 . S
C387 C384 1.358 . S
C387 C386 1.429 . S
C387 H397 0.930 . S
C388 C384 1.332 . S
C388 C389 1.394 . S
C388 H398 0.932 . S
C389 C385 1.308 . S
C389 C388 1.394 . S
C389 H399 0.929 . S
C390 Tb361 2.764 . S
C390 O374 1.239 . S
C390 O375 1.263 . S
C390 C384 1.504 . S
C391 O376 1.236 . S
C391 O377 1.257 . S
H392 C365 0.932 . S
H393 C366 0.930 . S
H394 C367 0.932 . S
H395 C368 0.929 . S
H396 C386 0.932 . S
H397 C387 0.930 . S
H398 C388 0.932 . S
H399 C389 0.929 . S
Tb400 C409 2.764 . S
Tb400 O410 2.325 . S
Tb400 O413 2.303 . S
Tb400 O417 2.322 . S
Tb400 O418 2.349 . S
Tb400 O421 2.415 . S
Tb400 O422 2.399 . S
Tb401 O411 2.322 . S
Tb401 O412 2.349 . S
Tb401 O414 2.415 . S
Tb401 O415 2.399 . S
Tb401 O416 2.325 . S
Tb401 O419 2.303 . S
Tb401 C430 2.764 . S
C402 O418 1.261 . S
C402 O419 1.257 . S
C403 C406 1.358 . S
C403 C407 1.332 . S
C403 C409 1.504 . S
C404 C405 1.373 . S
C404 C408 1.308 . S
C405 C404 1.373 . S
C405 C406 1.429 . S
C405 H432 0.932 . S
C406 C403 1.358 . S
C406 C405 1.429 . S
C406 H433 0.930 . S
C407 C403 1.332 . S
C407 C408 1.394 . S
C407 H434 0.932 . S
C408 C404 1.308 . S
C408 C407 1.394 . S
C408 H435 0.929 . S
C409 Tb400 2.764 . S
C409 C403 1.504 . S
C409 O421 1.239 . S
C409 O422 1.263 . S
O410 Tb400 2.325 . S
O410 C420 1.236 . S
O411 Tb401 2.322 . S
O411 C420 1.257 . S
O412 Tb401 2.349 . S
O412 C423 1.261 . S
O413 Tb400 2.303 . S
O413 C423 1.257 . S
O414 Tb401 2.415 . S
O414 C430 1.239 . S
O415 Tb401 2.399 . S
O415 C430 1.263 . S
O416 Tb401 2.325 . S
O416 C431 1.236 . S
O417 Tb400 2.322 . S
O417 C431 1.257 . S
O418 Tb400 2.349 . S
O418 C402 1.261 . S
O419 Tb401 2.303 . S
O419 C402 1.257 . S
C420 O410 1.236 . S
C420 O411 1.257 . S
O421 Tb400 2.415 . S
O421 C409 1.239 . S
O422 Tb400 2.399 . S
O422 C409 1.263 . S
C423 O412 1.261 . S
C423 O413 1.257 . S
C424 C427 1.358 . S
C424 C428 1.332 . S
C424 C430 1.504 . S
C425 C426 1.373 . S
C425 C429 1.308 . S
C426 C425 1.373 . S
C426 C427 1.429 . S
C426 H436 0.932 . S
C427 C424 1.358 . S
C427 C426 1.429 . S
C427 H437 0.930 . S
C428 C424 1.332 . S
C428 C429 1.394 . S
C428 H438 0.932 . S
C429 C425 1.308 . S
C429 C428 1.394 . S
C429 H439 0.929 . S
C430 Tb401 2.764 . S
C430 O414 1.239 . S
C430 O415 1.263 . S
C430 C424 1.504 . S
C431 O416 1.236 . S
C431 O417 1.257 . S
H432 C405 0.932 . S
H433 C406 0.930 . S
H434 C407 0.932 . S
H435 C408 0.929 . S
H436 C426 0.932 . S
H437 C427 0.930 . S
H438 C428 0.932 . S
H439 C429 0.929 . S
Tb440 C449 2.764 . S
Tb440 O450 2.325 . S
Tb440 O453 2.303 . S
Tb440 O457 2.322 . S
Tb440 O458 2.349 . S
Tb440 O461 2.415 . S
Tb440 O462 2.399 . S
Tb441 O451 2.322 . S
Tb441 O452 2.349 . S
Tb441 O454 2.415 . S
Tb441 O455 2.399 . S
Tb441 O456 2.325 . S
Tb441 O459 2.303 . S
Tb441 C470 2.764 . S
C442 O458 1.261 . S
C442 O459 1.257 . S
C443 C446 1.358 . S
C443 C447 1.332 . S
C443 C449 1.504 . S
C444 C445 1.373 . S
C444 C448 1.308 . S
C445 C444 1.373 . S
C445 C446 1.429 . S
C445 H472 0.932 . S
C446 C443 1.358 . S
C446 C445 1.429 . S
C446 H473 0.930 . S
C447 C443 1.332 . S
C447 C448 1.394 . S
C447 H474 0.932 . S
C448 C444 1.308 . S
C448 C447 1.394 . S
C448 H475 0.929 . S
C449 Tb440 2.764 . S
C449 C443 1.504 . S
C449 O461 1.239 . S
C449 O462 1.263 . S
O450 Tb440 2.325 . S
O450 C460 1.236 . S
O451 Tb441 2.322 . S
O451 C460 1.257 . S
O452 Tb441 2.349 . S
O452 C463 1.261 . S
O453 Tb440 2.303 . S
O453 C463 1.257 . S
O454 Tb441 2.415 . S
O454 C470 1.239 . S
O455 Tb441 2.399 . S
O455 C470 1.263 . S
O456 Tb441 2.325 . S
O456 C471 1.236 . S
O457 Tb440 2.322 . S
O457 C471 1.257 . S
O458 Tb440 2.349 . S
O458 C442 1.261 . S
O459 Tb441 2.303 . S
O459 C442 1.257 . S
C460 O450 1.236 . S
C460 O451 1.257 . S
O461 Tb440 2.415 . S
O461 C449 1.239 . S
O462 Tb440 2.399 . S
O462 C449 1.263 . S
C463 O452 1.261 . S
C463 O453 1.257 . S
C464 C467 1.358 . S
C464 C468 1.332 . S
C464 C470 1.504 . S
C465 C466 1.373 . S
C465 C469 1.308 . S
C466 C465 1.373 . S
C466 C467 1.429 . S
C466 H476 0.932 . S
C467 C464 1.358 . S
C467 C466 1.429 . S
C467 H477 0.930 . S
C468 C464 1.332 . S
C468 C469 1.394 . S
C468 H478 0.932 . S
C469 C465 1.308 . S
C469 C468 1.394 . S
C469 H479 0.929 . S
C470 Tb441 2.764 . S
C470 O454 1.239 . S
C470 O455 1.263 . S
C470 C464 1.504 . S
C471 O456 1.236 . S
C471 O457 1.257 . S
H472 C445 0.932 . S
H473 C446 0.930 . S
H474 C447 0.932 . S
H475 C448 0.929 . S
H476 C466 0.932 . S
H477 C467 0.930 . S
H478 C468 0.932 . S
H479 C469 0.929 . S
Tb480 C489 2.764 . S
Tb480 O490 2.325 . S
Tb480 O493 2.303 . S
Tb480 O497 2.322 1_455 S
Tb480 O498 2.349 1_455 S
Tb480 O501 2.415 . S
Tb480 O502 2.399 . S
Tb481 O491 2.322 1_655 S
Tb481 O492 2.349 1_655 S
Tb481 O494 2.415 . S
Tb481 O495 2.399 . S
Tb481 O496 2.325 . S
Tb481 O499 2.303 . S
Tb481 C510 2.764 . S
C482 O498 1.261 . S
C482 O499 1.257 . S
C483 C486 1.358 . S
C483 C487 1.332 . S
C483 C489 1.504 . S
C484 C485 1.373 . S
C484 C488 1.308 . S
C485 C484 1.373 . S
C485 C486 1.429 . S
C485 H512 0.932 . S
C486 C483 1.358 . S
C486 C485 1.429 . S
C486 H513 0.930 . S
C487 C483 1.332 . S
C487 C488 1.394 . S
C487 H514 0.932 . S
C488 C484 1.308 . S
C488 C487 1.394 . S
C488 H515 0.929 . S
C489 Tb480 2.764 . S
C489 C483 1.504 . S
C489 O501 1.239 . S
C489 O502 1.263 . S
O490 Tb480 2.325 . S
O490 C500 1.236 . S
O491 Tb481 2.322 1_455 S
O491 C500 1.257 . S
O492 Tb481 2.349 1_455 S
O492 C503 1.261 . S
O493 Tb480 2.303 . S
O493 C503 1.257 . S
O494 Tb481 2.415 . S
O494 C510 1.239 . S
O495 Tb481 2.399 . S
O495 C510 1.263 . S
O496 Tb481 2.325 . S
O496 C511 1.236 . S
O497 Tb480 2.322 1_655 S
O497 C511 1.257 . S
O498 Tb480 2.349 1_655 S
O498 C482 1.261 . S
O499 Tb481 2.303 . S
O499 C482 1.257 . S
C500 O490 1.236 . S
C500 O491 1.257 . S
O501 Tb480 2.415 . S
O501 C489 1.239 . S
O502 Tb480 2.399 . S
O502 C489 1.263 . S
C503 O492 1.261 . S
C503 O493 1.257 . S
C504 C507 1.358 . S
C504 C508 1.332 . S
C504 C510 1.504 . S
C505 C506 1.373 . S
C505 C509 1.308 . S
C506 C505 1.373 . S
C506 C507 1.429 . S
C506 H516 0.932 . S
C507 C504 1.358 . S
C507 C506 1.429 . S
C507 H517 0.930 . S
C508 C504 1.332 . S
C508 C509 1.394 . S
C508 H518 0.932 . S
C509 C505 1.308 . S
C509 C508 1.394 . S
C509 H519 0.929 . S
C510 Tb481 2.764 . S
C510 O494 1.239 . S
C510 O495 1.263 . S
C510 C504 1.504 . S
C511 O496 1.236 . S
C511 O497 1.257 . S
H512 C485 0.932 . S
H513 C486 0.930 . S
H514 C487 0.932 . S
H515 C488 0.929 . S
H516 C506 0.932 . S
H517 C507 0.930 . S
H518 C508 0.932 . S
H519 C509 0.929 . S
Tb520 C529 2.764 . S
Tb520 O530 2.325 . S
Tb520 O533 2.303 . S
Tb520 O537 2.322 . S
Tb520 O538 2.349 . S
Tb520 O541 2.415 . S
Tb520 O542 2.399 . S
Tb521 O531 2.322 . S
Tb521 O532 2.349 . S
Tb521 O534 2.415 . S
Tb521 O535 2.399 . S
Tb521 O536 2.325 . S
Tb521 O539 2.303 . S
Tb521 C550 2.764 . S
C522 O538 1.261 . S
C522 O539 1.257 . S
C523 C526 1.358 . S
C523 C527 1.332 . S
C523 C529 1.504 . S
C524 C525 1.373 . S
C524 C528 1.308 . S
C525 C524 1.373 . S
C525 C526 1.429 . S
C525 H552 0.932 . S
C526 C523 1.358 . S
C526 C525 1.429 . S
C526 H553 0.930 . S
C527 C523 1.332 . S
C527 C528 1.394 . S
C527 H554 0.932 . S
C528 C524 1.308 . S
C528 C527 1.394 . S
C528 H555 0.929 . S
C529 Tb520 2.764 . S
C529 C523 1.504 . S
C529 O541 1.239 . S
C529 O542 1.263 . S
O530 Tb520 2.325 . S
O530 C540 1.236 . S
O531 Tb521 2.322 . S
O531 C540 1.257 . S
O532 Tb521 2.349 . S
O532 C543 1.261 . S
O533 Tb520 2.303 . S
O533 C543 1.257 . S
O534 Tb521 2.415 . S
O534 C550 1.239 . S
O535 Tb521 2.399 . S
O535 C550 1.263 . S
O536 Tb521 2.325 . S
O536 C551 1.236 . S
O537 Tb520 2.322 . S
O537 C551 1.257 . S
O538 Tb520 2.349 . S
O538 C522 1.261 . S
O539 Tb521 2.303 . S
O539 C522 1.257 . S
C540 O530 1.236 . S
C540 O531 1.257 . S
O541 Tb520 2.415 . S
O541 C529 1.239 . S
O542 Tb520 2.399 . S
O542 C529 1.263 . S
C543 O532 1.261 . S
C543 O533 1.257 . S
C544 C547 1.358 . S
C544 C548 1.332 . S
C544 C550 1.504 . S
C545 C546 1.373 . S
C545 C549 1.308 . S
C546 C545 1.373 . S
C546 C547 1.429 . S
C546 H556 0.932 . S
C547 C544 1.358 . S
C547 C546 1.429 . S
C547 H557 0.930 . S
C548 C544 1.332 . S
C548 C549 1.394 . S
C548 H558 0.932 . S
C549 C545 1.308 . S
C549 C548 1.394 . S
C549 H559 0.929 . S
C550 Tb521 2.764 . S
C550 O534 1.239 . S
C550 O535 1.263 . S
C550 C544 1.504 . S
C551 O536 1.236 . S
C551 O537 1.257 . S
H552 C525 0.932 . S
H553 C526 0.930 . S
H554 C527 0.932 . S
H555 C528 0.929 . S
H556 C546 0.932 . S
H557 C547 0.930 . S
H558 C548 0.932 . S
H559 C549 0.929 . S
Tb560 C569 2.764 . S
Tb560 O570 2.325 . S
Tb560 O573 2.303 . S
Tb560 O577 2.322 . S
Tb560 O578 2.349 . S
Tb560 O581 2.415 . S
Tb560 O582 2.399 . S
Tb561 O571 2.322 . S
Tb561 O572 2.349 . S
Tb561 O574 2.415 . S
Tb561 O575 2.399 . S
Tb561 O576 2.325 . S
Tb561 O579 2.303 . S
Tb561 C590 2.764 . S
C562 O578 1.261 . S
C562 O579 1.257 . S
C563 C566 1.358 . S
C563 C567 1.332 . S
C563 C569 1.504 . S
C564 C565 1.373 . S
C564 C568 1.308 . S
C565 C564 1.373 . S
C565 C566 1.429 . S
C565 H592 0.932 . S
C566 C563 1.358 . S
C566 C565 1.429 . S
C566 H593 0.930 . S
C567 C563 1.332 . S
C567 C568 1.394 . S
C567 H594 0.932 . S
C568 C564 1.308 . S
C568 C567 1.394 . S
C568 H595 0.929 . S
C569 Tb560 2.764 . S
C569 C563 1.504 . S
C569 O581 1.239 . S
C569 O582 1.263 . S
O570 Tb560 2.325 . S
O570 C580 1.236 . S
O571 Tb561 2.322 . S
O571 C580 1.257 . S
O572 Tb561 2.349 . S
O572 C583 1.261 . S
O573 Tb560 2.303 . S
O573 C583 1.257 . S
O574 Tb561 2.415 . S
O574 C590 1.239 . S
O575 Tb561 2.399 . S
O575 C590 1.263 . S
O576 Tb561 2.325 . S
O576 C591 1.236 . S
O577 Tb560 2.322 . S
O577 C591 1.257 . S
O578 Tb560 2.349 . S
O578 C562 1.261 . S
O579 Tb561 2.303 . S
O579 C562 1.257 . S
C580 O570 1.236 . S
C580 O571 1.257 . S
O581 Tb560 2.415 . S
O581 C569 1.239 . S
O582 Tb560 2.399 . S
O582 C569 1.263 . S
C583 O572 1.261 . S
C583 O573 1.257 . S
C584 C587 1.358 . S
C584 C588 1.332 . S
C584 C590 1.504 . S
C585 C586 1.373 . S
C585 C589 1.308 . S
C586 C585 1.373 . S
C586 C587 1.429 . S
C586 H596 0.932 . S
C587 C584 1.358 . S
C587 C586 1.429 . S
C587 H597 0.930 . S
C588 C584 1.332 . S
C588 C589 1.394 . S
C588 H598 0.932 . S
C589 C585 1.308 . S
C589 C588 1.394 . S
C589 H599 0.929 . S
C590 Tb561 2.764 . S
C590 O574 1.239 . S
C590 O575 1.263 . S
C590 C584 1.504 . S
C591 O576 1.236 . S
C591 O577 1.257 . S
H592 C565 0.932 . S
H593 C566 0.930 . S
H594 C567 0.932 . S
H595 C568 0.929 . S
H596 C586 0.932 . S
H597 C587 0.930 . S
H598 C588 0.932 . S
H599 C589 0.929 . S
Tb600 C609 2.764 . S
Tb600 O610 2.325 . S
Tb600 O613 2.303 . S
Tb600 O617 2.322 1_655 S
Tb600 O618 2.349 1_655 S
Tb600 O621 2.415 . S
Tb600 O622 2.399 . S
Tb601 O611 2.322 1_455 S
Tb601 O612 2.349 1_455 S
Tb601 O614 2.415 . S
Tb601 O615 2.399 . S
Tb601 O616 2.325 . S
Tb601 O619 2.303 . S
Tb601 C630 2.764 . S
C602 O618 1.261 . S
C602 O619 1.257 . S
C603 C606 1.358 . S
C603 C607 1.332 . S
C603 C609 1.504 . S
C604 C605 1.373 . S
C604 C608 1.308 . S
C605 C604 1.373 . S
C605 C606 1.429 . S
C605 H632 0.932 . S
C606 C603 1.358 . S
C606 C605 1.429 . S
C606 H633 0.930 . S
C607 C603 1.332 . S
C607 C608 1.394 . S
C607 H634 0.932 . S
C608 C604 1.308 . S
C608 C607 1.394 . S
C608 H635 0.929 . S
C609 Tb600 2.764 . S
C609 C603 1.504 . S
C609 O621 1.239 . S
C609 O622 1.263 . S
O610 Tb600 2.325 . S
O610 C620 1.236 . S
O611 Tb601 2.322 1_655 S
O611 C620 1.257 . S
O612 Tb601 2.349 1_655 S
O612 C623 1.261 . S
O613 Tb600 2.303 . S
O613 C623 1.257 . S
O614 Tb601 2.415 . S
O614 C630 1.239 . S
O615 Tb601 2.399 . S
O615 C630 1.263 . S
O616 Tb601 2.325 . S
O616 C631 1.236 . S
O617 Tb600 2.322 1_455 S
O617 C631 1.257 . S
O618 Tb600 2.349 1_455 S
O618 C602 1.261 . S
O619 Tb601 2.303 . S
O619 C602 1.257 . S
C620 O610 1.236 . S
C620 O611 1.257 . S
O621 Tb600 2.415 . S
O621 C609 1.239 . S
O622 Tb600 2.399 . S
O622 C609 1.263 . S
C623 O612 1.261 . S
C623 O613 1.257 . S
C624 C627 1.358 . S
C624 C628 1.332 . S
C624 C630 1.504 . S
C625 C626 1.373 . S
C625 C629 1.308 . S
C626 C625 1.373 . S
C626 C627 1.429 . S
C626 H636 0.932 . S
C627 C624 1.358 . S
C627 C626 1.429 . S
C627 H637 0.930 . S
C628 C624 1.332 . S
C628 C629 1.394 . S
C628 H638 0.932 . S
C629 C625 1.308 . S
C629 C628 1.394 . S
C629 H639 0.929 . S
C630 Tb601 2.764 . S
C630 O614 1.239 . S
C630 O615 1.263 . S
C630 C624 1.504 . S
C631 O616 1.236 . S
C631 O617 1.257 . S
H632 C605 0.932 . S
H633 C606 0.930 . S
H634 C607 0.932 . S
H635 C608 0.929 . S
H636 C626 0.932 . S
H637 C627 0.930 . S
H638 C628 0.932 . S
H639 C629 0.929 . S
Tb640 C649 2.764 . S
Tb640 O650 2.325 . S
Tb640 O653 2.303 . S
Tb640 O657 2.322 1_545 S
Tb640 O658 2.349 1_545 S
Tb640 O661 2.415 . S
Tb640 O662 2.399 . S
Tb641 O651 2.322 1_565 S
Tb641 O652 2.349 1_565 S
Tb641 O654 2.415 . S
Tb641 O655 2.399 . S
Tb641 O656 2.325 . S
Tb641 O659 2.303 . S
Tb641 C670 2.764 . S
C642 O658 1.261 . S
C642 O659 1.257 . S
C643 C646 1.358 . S
C643 C647 1.332 . S
C643 C649 1.504 . S
C644 C645 1.373 . S
C644 C648 1.308 . S
C645 C644 1.373 . S
C645 C646 1.429 . S
C645 H672 0.932 . S
C646 C643 1.358 . S
C646 C645 1.429 . S
C646 H673 0.930 . S
C647 C643 1.332 . S
C647 C648 1.394 . S
C647 H674 0.932 . S
C648 C644 1.308 . S
C648 C647 1.394 . S
C648 H675 0.929 . S
C649 Tb640 2.764 . S
C649 C643 1.504 . S
C649 O661 1.239 . S
C649 O662 1.263 . S
O650 Tb640 2.325 . S
O650 C660 1.236 . S
O651 Tb641 2.322 1_545 S
O651 C660 1.257 . S
O652 Tb641 2.349 1_545 S
O652 C663 1.261 . S
O653 Tb640 2.303 . S
O653 C663 1.257 . S
O654 Tb641 2.415 . S
O654 C670 1.239 . S
O655 Tb641 2.399 . S
O655 C670 1.263 . S
O656 Tb641 2.325 . S
O656 C671 1.236 . S
O657 Tb640 2.322 1_565 S
O657 C671 1.257 . S
O658 Tb640 2.349 1_565 S
O658 C642 1.261 . S
O659 Tb641 2.303 . S
O659 C642 1.257 . S
C660 O650 1.236 . S
C660 O651 1.257 . S
O661 Tb640 2.415 . S
O661 C649 1.239 . S
O662 Tb640 2.399 . S
O662 C649 1.263 . S
C663 O652 1.261 . S
C663 O653 1.257 . S
C664 C667 1.358 . S
C664 C668 1.332 . S
C664 C670 1.504 . S
C665 C666 1.373 . S
C665 C669 1.308 . S
C666 C665 1.373 . S
C666 C667 1.429 . S
C666 H676 0.932 . S
C667 C664 1.358 . S
C667 C666 1.429 . S
C667 H677 0.930 . S
C668 C664 1.332 . S
C668 C669 1.394 . S
C668 H678 0.932 . S
C669 C665 1.308 . S
C669 C668 1.394 . S
C669 H679 0.929 . S
C670 Tb641 2.764 . S
C670 O654 1.239 . S
C670 O655 1.263 . S
C670 C664 1.504 . S
C671 O656 1.236 . S
C671 O657 1.257 . S
H672 C645 0.932 . S
H673 C646 0.930 . S
H674 C647 0.932 . S
H675 C648 0.929 . S
H676 C666 0.932 . S
H677 C667 0.930 . S
H678 C668 0.932 . S
H679 C669 0.929 . S
Tb680 C689 2.764 . S
Tb680 O690 2.325 . S
Tb680 O693 2.303 . S
Tb680 O697 2.322 1_565 S
Tb680 O698 2.349 1_565 S
Tb680 O701 2.415 . S
Tb680 O702 2.399 . S
Tb681 O691 2.322 1_545 S
Tb681 O692 2.349 1_545 S
Tb681 O694 2.415 . S
Tb681 O695 2.399 . S
Tb681 O696 2.325 . S
Tb681 O699 2.303 . S
Tb681 C710 2.764 . S
C682 O698 1.261 . S
C682 O699 1.257 . S
C683 C686 1.358 . S
C683 C687 1.332 . S
C683 C689 1.504 . S
C684 C685 1.373 . S
C684 C688 1.308 . S
C685 C684 1.373 . S
C685 C686 1.429 . S
C685 H712 0.932 1_554 S
C686 C683 1.358 . S
C686 C685 1.429 . S
C686 H713 0.930 . S
C687 C683 1.332 . S
C687 C688 1.394 . S
C687 H714 0.932 . S
C688 C684 1.308 . S
C688 C687 1.394 . S
C688 H715 0.929 . S
C689 Tb680 2.764 . S
C689 C683 1.504 . S
C689 O701 1.239 . S
C689 O702 1.263 . S
O690 Tb680 2.325 . S
O690 C700 1.236 . S
O691 Tb681 2.322 1_565 S
O691 C700 1.257 . S
O692 Tb681 2.349 1_565 S
O692 C703 1.261 . S
O693 Tb680 2.303 . S
O693 C703 1.257 . S
O694 Tb681 2.415 . S
O694 C710 1.239 . S
O695 Tb681 2.399 . S
O695 C710 1.263 . S
O696 Tb681 2.325 . S
O696 C711 1.236 . S
O697 Tb680 2.322 1_545 S
O697 C711 1.257 . S
O698 Tb680 2.349 1_545 S
O698 C682 1.261 . S
O699 Tb681 2.303 . S
O699 C682 1.257 . S
C700 O690 1.236 . S
C700 O691 1.257 . S
O701 Tb680 2.415 . S
O701 C689 1.239 . S
O702 Tb680 2.399 . S
O702 C689 1.263 . S
C703 O692 1.261 . S
C703 O693 1.257 . S
C704 C707 1.358 . S
C704 C708 1.332 . S
C704 C710 1.504 . S
C705 C706 1.373 . S
C705 C709 1.308 . S
C706 C705 1.373 . S
C706 C707 1.429 . S
C706 H716 0.932 . S
C707 C704 1.358 . S
C707 C706 1.429 . S
C707 H717 0.930 . S
C708 C704 1.332 . S
C708 C709 1.394 . S
C708 H718 0.932 . S
C709 C705 1.308 . S
C709 C708 1.394 . S
C709 H719 0.929 . S
C710 Tb681 2.764 . S
C710 O694 1.239 . S
C710 O695 1.263 . S
C710 C704 1.504 . S
C711 O696 1.236 . S
C711 O697 1.257 . S
H712 C685 0.932 1_556 S
H713 C686 0.930 . S
H714 C687 0.932 . S
H715 C688 0.929 . S
H716 C706 0.932 . S
H717 C707 0.930 . S
H718 C708 0.932 . S
H719 C709 0.929 . S
Tb720 C729 2.764 . S
Tb720 O730 2.325 . S
Tb720 O733 2.303 . S
Tb720 O737 2.322 . S
Tb720 O738 2.349 . S
Tb720 O741 2.415 . S
Tb720 O742 2.399 . S
Tb721 O731 2.322 . S
Tb721 O732 2.349 . S
Tb721 O734 2.415 . S
Tb721 O735 2.399 . S
Tb721 O736 2.325 . S
Tb721 O739 2.303 . S
Tb721 C750 2.764 . S
C722 O738 1.261 . S
C722 O739 1.257 . S
C723 C726 1.358 . S
C723 C727 1.332 . S
C723 C729 1.504 . S
C724 C725 1.373 . S
C724 C728 1.308 . S
C725 C724 1.373 . S
C725 C726 1.429 . S
C725 H752 0.932 . S
C726 C723 1.358 . S
C726 C725 1.429 . S
C726 H753 0.930 . S
C727 C723 1.332 . S
C727 C728 1.394 . S
C727 H754 0.932 . S
C728 C724 1.308 . S
C728 C727 1.394 . S
C728 H755 0.929 . S
C729 Tb720 2.764 . S
C729 C723 1.504 . S
C729 O741 1.239 . S
C729 O742 1.263 . S
O730 Tb720 2.325 . S
O730 C740 1.236 . S
O731 Tb721 2.322 . S
O731 C740 1.257 . S
O732 Tb721 2.349 . S
O732 C743 1.261 . S
O733 Tb720 2.303 . S
O733 C743 1.257 . S
O734 Tb721 2.415 . S
O734 C750 1.239 . S
O735 Tb721 2.399 . S
O735 C750 1.263 . S
O736 Tb721 2.325 . S
O736 C751 1.236 . S
O737 Tb720 2.322 . S
O737 C751 1.257 . S
O738 Tb720 2.349 . S
O738 C722 1.261 . S
O739 Tb721 2.303 . S
O739 C722 1.257 . S
C740 O730 1.236 . S
C740 O731 1.257 . S
O741 Tb720 2.415 . S
O741 C729 1.239 . S
O742 Tb720 2.399 . S
O742 C729 1.263 . S
C743 O732 1.261 . S
C743 O733 1.257 . S
C744 C747 1.358 . S
C744 C748 1.332 . S
C744 C750 1.504 . S
C745 C746 1.373 . S
C745 C749 1.308 . S
C746 C745 1.373 . S
C746 C747 1.429 . S
C746 H756 0.932 . S
C747 C744 1.358 . S
C747 C746 1.429 . S
C747 H757 0.930 . S
C748 C744 1.332 . S
C748 C749 1.394 . S
C748 H758 0.932 . S
C749 C745 1.308 . S
C749 C748 1.394 . S
C749 H759 0.929 . S
C750 Tb721 2.764 . S
C750 O734 1.239 . S
C750 O735 1.263 . S
C750 C744 1.504 . S
C751 O736 1.236 . S
C751 O737 1.257 . S
H752 C725 0.932 . S
H753 C726 0.930 . S
H754 C727 0.932 . S
H755 C728 0.929 . S
H756 C746 0.932 . S
H757 C747 0.930 . S
H758 C748 0.932 . S
H759 C749 0.929 . S
Tb760 C769 2.764 . S
Tb760 O770 2.325 . S
Tb760 O773 2.303 . S
Tb760 O777 2.322 . S
Tb760 O778 2.349 . S
Tb760 O781 2.415 . S
Tb760 O782 2.399 . S
Tb761 O771 2.322 . S
Tb761 O772 2.349 . S
Tb761 O774 2.415 . S
Tb761 O775 2.399 . S
Tb761 O776 2.325 . S
Tb761 O779 2.303 . S
Tb761 C790 2.764 . S
C762 O778 1.261 . S
C762 O779 1.257 . S
C763 C766 1.358 . S
C763 C767 1.332 . S
C763 C769 1.504 . S
C764 C765 1.373 . S
C764 C768 1.308 . S
C765 C764 1.373 . S
C765 C766 1.429 . S
C765 H792 0.932 1_556 S
C766 C763 1.358 . S
C766 C765 1.429 . S
C766 H793 0.930 . S
C767 C763 1.332 . S
C767 C768 1.394 . S
C767 H794 0.932 . S
C768 C764 1.308 . S
C768 C767 1.394 . S
C768 H795 0.929 . S
C769 Tb760 2.764 . S
C769 C763 1.504 . S
C769 O781 1.239 . S
C769 O782 1.263 . S
O770 Tb760 2.325 . S
O770 C780 1.236 . S
O771 Tb761 2.322 . S
O771 C780 1.257 . S
O772 Tb761 2.349 . S
O772 C783 1.261 . S
O773 Tb760 2.303 . S
O773 C783 1.257 . S
O774 Tb761 2.415 . S
O774 C790 1.239 . S
O775 Tb761 2.399 . S
O775 C790 1.263 . S
O776 Tb761 2.325 . S
O776 C791 1.236 . S
O777 Tb760 2.322 . S
O777 C791 1.257 . S
O778 Tb760 2.349 . S
O778 C762 1.261 . S
O779 Tb761 2.303 . S
O779 C762 1.257 . S
C780 O770 1.236 . S
C780 O771 1.257 . S
O781 Tb760 2.415 . S
O781 C769 1.239 . S
O782 Tb760 2.399 . S
O782 C769 1.263 . S
C783 O772 1.261 . S
C783 O773 1.257 . S
C784 C787 1.358 . S
C784 C788 1.332 . S
C784 C790 1.504 . S
C785 C786 1.373 . S
C785 C789 1.308 . S
C786 C785 1.373 . S
C786 C787 1.429 . S
C786 H796 0.932 . S
C787 C784 1.358 . S
C787 C786 1.429 . S
C787 H797 0.930 . S
C788 C784 1.332 . S
C788 C789 1.394 . S
C788 H798 0.932 . S
C789 C785 1.308 . S
C789 C788 1.394 . S
C789 H799 0.929 . S
C790 Tb761 2.764 . S
C790 O774 1.239 . S
C790 O775 1.263 . S
C790 C784 1.504 . S
C791 O776 1.236 . S
C791 O777 1.257 . S
H792 C765 0.932 1_554 S
H793 C766 0.930 . S
H794 C767 0.932 . S
H795 C768 0.929 . S
H796 C786 0.932 . S
H797 C787 0.930 . S
H798 C788 0.932 . S
H799 C789 0.929 . S
Tb800 C809 2.764 1_556 S
Tb800 O810 2.325 . S
Tb800 O813 2.303 . S
Tb800 O817 2.322 . S
Tb800 O818 2.349 . S
Tb800 O821 2.415 1_556 S
Tb800 O822 2.399 . S
Tb801 O811 2.322 . S
Tb801 O812 2.349 . S
Tb801 O814 2.415 . S
Tb801 O815 2.399 . S
Tb801 O816 2.325 . S
Tb801 O819 2.303 . S
Tb801 C830 2.764 . S
C802 O818 1.261 . S
C802 O819 1.257 . S
C803 C806 1.358 . S
C803 C807 1.332 . S
C803 C809 1.504 . S
C804 C805 1.373 . S
C804 C808 1.308 . S
C805 C804 1.373 . S
C805 C806 1.429 . S
C805 H832 0.932 . S
C806 C803 1.358 . S
C806 C805 1.429 . S
C806 H833 0.930 . S
C807 C803 1.332 . S
C807 C808 1.394 . S
C807 H834 0.932 . S
C808 C804 1.308 . S
C808 C807 1.394 . S
C808 H835 0.929 . S
C809 Tb800 2.764 1_554 S
C809 C803 1.504 . S
C809 O821 1.239 . S
C809 O822 1.263 1_554 S
O810 Tb800 2.325 . S
O810 C820 1.236 1_556 S
O811 Tb801 2.322 . S
O811 C820 1.257 1_556 S
O812 Tb801 2.349 . S
O812 C823 1.261 . S
O813 Tb800 2.303 . S
O813 C823 1.257 . S
O814 Tb801 2.415 . S
O814 C830 1.239 . S
O815 Tb801 2.399 . S
O815 C830 1.263 . S
O816 Tb801 2.325 . S
O816 C831 1.236 . S
O817 Tb800 2.322 . S
O817 C831 1.257 . S
O818 Tb800 2.349 . S
O818 C802 1.261 . S
O819 Tb801 2.303 . S
O819 C802 1.257 . S
C820 O810 1.236 1_554 S
C820 O811 1.257 1_554 S
O821 Tb800 2.415 1_554 S
O821 C809 1.239 . S
O822 Tb800 2.399 . S
O822 C809 1.263 1_556 S
C823 O812 1.261 . S
C823 O813 1.257 . S
C824 C827 1.358 . S
C824 C828 1.332 . S
C824 C830 1.504 . S
C825 C826 1.373 . S
C825 C829 1.308 . S
C826 C825 1.373 . S
C826 C827 1.429 . S
C826 H836 0.932 . S
C827 C824 1.358 . S
C827 C826 1.429 . S
C827 H837 0.930 . S
C828 C824 1.332 . S
C828 C829 1.394 . S
C828 H838 0.932 . S
C829 C825 1.308 . S
C829 C828 1.394 . S
C829 H839 0.929 . S
C830 Tb801 2.764 . S
C830 O814 1.239 . S
C830 O815 1.263 . S
C830 C824 1.504 . S
C831 O816 1.236 . S
C831 O817 1.257 . S
H832 C805 0.932 . S
H833 C806 0.930 . S
H834 C807 0.932 . S
H835 C808 0.929 . S
H836 C826 0.932 . S
H837 C827 0.930 . S
H838 C828 0.932 . S
H839 C829 0.929 . S
Tb840 C849 2.764 . S
Tb840 O850 2.325 . S
Tb840 O853 2.303 . S
Tb840 O857 2.322 . S
Tb840 O858 2.349 . S
Tb840 O861 2.415 . S
Tb840 O862 2.399 . S
Tb841 O851 2.322 . S
Tb841 O852 2.349 . S
Tb841 O854 2.415 1_554 S
Tb841 O855 2.399 . S
Tb841 O856 2.325 . S
Tb841 O859 2.303 . S
Tb841 C870 2.764 1_554 S
C842 O858 1.261 . S
C842 O859 1.257 . S
C843 C846 1.358 . S
C843 C847 1.332 . S
C843 C849 1.504 . S
C844 C845 1.373 . S
C844 C848 1.308 . S
C845 C844 1.373 . S
C845 C846 1.429 . S
C845 H872 0.932 . S
C846 C843 1.358 . S
C846 C845 1.429 . S
C846 H873 0.930 . S
C847 C843 1.332 . S
C847 C848 1.394 . S
C847 H874 0.932 . S
C848 C844 1.308 . S
C848 C847 1.394 . S
C848 H875 0.929 . S
C849 Tb840 2.764 . S
C849 C843 1.504 . S
C849 O861 1.239 . S
C849 O862 1.263 . S
O850 Tb840 2.325 . S
O850 C860 1.236 . S
O851 Tb841 2.322 . S
O851 C860 1.257 . S
O852 Tb841 2.349 . S
O852 C863 1.261 . S
O853 Tb840 2.303 . S
O853 C863 1.257 . S
O854 Tb841 2.415 1_556 S
O854 C870 1.239 . S
O855 Tb841 2.399 . S
O855 C870 1.263 1_554 S
O856 Tb841 2.325 . S
O856 C871 1.236 . S
O857 Tb840 2.322 . S
O857 C871 1.257 . S
O858 Tb840 2.349 . S
O858 C842 1.261 . S
O859 Tb841 2.303 . S
O859 C842 1.257 . S
C860 O850 1.236 . S
C860 O851 1.257 . S
O861 Tb840 2.415 . S
O861 C849 1.239 . S
O862 Tb840 2.399 . S
O862 C849 1.263 . S
C863 O852 1.261 . S
C863 O853 1.257 . S
C864 C867 1.358 . S
C864 C868 1.332 . S
C864 C870 1.504 . S
C865 C866 1.373 . S
C865 C869 1.308 . S
C866 C865 1.373 . S
C866 C867 1.429 . S
C866 H876 0.932 . S
C867 C864 1.358 . S
C867 C866 1.429 . S
C867 H877 0.930 . S
C868 C864 1.332 . S
C868 C869 1.394 . S
C868 H878 0.932 . S
C869 C865 1.308 . S
C869 C868 1.394 . S
C869 H879 0.929 . S
C870 Tb841 2.764 1_556 S
C870 O854 1.239 . S
C870 O855 1.263 1_556 S
C870 C864 1.504 . S
C871 O856 1.236 . S
C871 O857 1.257 . S
H872 C845 0.932 . S
H873 C846 0.930 . S
H874 C847 0.932 . S
H875 C848 0.929 . S
H876 C866 0.932 . S
H877 C867 0.930 . S
H878 C868 0.932 . S
H879 C869 0.929 . S
Tb880 C889 2.764 . S
Tb880 O890 2.325 . S
Tb880 O893 2.303 . S
Tb880 O897 2.322 . S
Tb880 O898 2.349 . S
Tb880 O901 2.415 . S
Tb880 O902 2.399 . S
Tb881 O891 2.322 . S
Tb881 O892 2.349 . S
Tb881 O894 2.415 . S
Tb881 O895 2.399 . S
Tb881 O896 2.325 . S
Tb881 O899 2.303 . S
Tb881 C910 2.764 . S
C882 O898 1.261 . S
C882 O899 1.257 . S
C883 C886 1.358 . S
C883 C887 1.332 . S
C883 C889 1.504 . S
C884 C885 1.373 . S
C884 C888 1.308 . S
C885 C884 1.373 . S
C885 C886 1.429 . S
C885 H912 0.932 . S
C886 C883 1.358 . S
C886 C885 1.429 . S
C886 H913 0.930 . S
C887 C883 1.332 . S
C887 C888 1.394 . S
C887 H914 0.932 . S
C888 C884 1.308 . S
C888 C887 1.394 . S
C888 H915 0.929 . S
C889 Tb880 2.764 . S
C889 C883 1.504 . S
C889 O901 1.239 . S
C889 O902 1.263 . S
O890 Tb880 2.325 . S
O890 C900 1.236 . S
O891 Tb881 2.322 . S
O891 C900 1.257 . S
O892 Tb881 2.349 . S
O892 C903 1.261 . S
O893 Tb880 2.303 . S
O893 C903 1.257 . S
O894 Tb881 2.415 . S
O894 C910 1.239 . S
O895 Tb881 2.399 . S
O895 C910 1.263 . S
O896 Tb881 2.325 . S
O896 C911 1.236 . S
O897 Tb880 2.322 . S
O897 C911 1.257 . S
O898 Tb880 2.349 . S
O898 C882 1.261 . S
O899 Tb881 2.303 . S
O899 C882 1.257 . S
C900 O890 1.236 . S
C900 O891 1.257 . S
O901 Tb880 2.415 . S
O901 C889 1.239 . S
O902 Tb880 2.399 . S
O902 C889 1.263 . S
C903 O892 1.261 . S
C903 O893 1.257 . S
C904 C907 1.358 . S
C904 C908 1.332 . S
C904 C910 1.504 . S
C905 C906 1.373 . S
C905 C909 1.308 . S
C906 C905 1.373 . S
C906 C907 1.429 . S
C906 H916 0.932 . S
C907 C904 1.358 . S
C907 C906 1.429 . S
C907 H917 0.930 . S
C908 C904 1.332 . S
C908 C909 1.394 . S
C908 H918 0.932 . S
C909 C905 1.308 . S
C909 C908 1.394 . S
C909 H919 0.929 . S
C910 Tb881 2.764 . S
C910 O894 1.239 . S
C910 O895 1.263 . S
C910 C904 1.504 . S
C911 O896 1.236 . S
C911 O897 1.257 . S
H912 C885 0.932 . S
H913 C886 0.930 . S
H914 C887 0.932 . S
H915 C888 0.929 . S
H916 C906 0.932 . S
H917 C907 0.930 . S
H918 C908 0.932 . S
H919 C909 0.929 . S
Tb920 C929 2.764 . S
Tb920 O930 2.325 . S
Tb920 O933 2.303 . S
Tb920 O937 2.322 . S
Tb920 O938 2.349 . S
Tb920 O941 2.415 . S
Tb920 O942 2.399 . S
Tb921 O931 2.322 . S
Tb921 O932 2.349 . S
Tb921 O934 2.415 . S
Tb921 O935 2.399 . S
Tb921 O936 2.325 . S
Tb921 O939 2.303 . S
Tb921 C950 2.764 . S
C922 O938 1.261 . S
C922 O939 1.257 . S
C923 C926 1.358 . S
C923 C927 1.332 . S
C923 C929 1.504 . S
C924 C925 1.373 . S
C924 C928 1.308 . S
C925 C924 1.373 . S
C925 C926 1.429 . S
C925 H952 0.932 . S
C926 C923 1.358 . S
C926 C925 1.429 . S
C926 H953 0.930 . S
C927 C923 1.332 . S
C927 C928 1.394 . S
C927 H954 0.932 . S
C928 C924 1.308 . S
C928 C927 1.394 . S
C928 H955 0.929 . S
C929 Tb920 2.764 . S
C929 C923 1.504 . S
C929 O941 1.239 . S
C929 O942 1.263 . S
O930 Tb920 2.325 . S
O930 C940 1.236 . S
O931 Tb921 2.322 . S
O931 C940 1.257 . S
O932 Tb921 2.349 . S
O932 C943 1.261 . S
O933 Tb920 2.303 . S
O933 C943 1.257 . S
O934 Tb921 2.415 . S
O934 C950 1.239 . S
O935 Tb921 2.399 . S
O935 C950 1.263 . S
O936 Tb921 2.325 . S
O936 C951 1.236 . S
O937 Tb920 2.322 . S
O937 C951 1.257 . S
O938 Tb920 2.349 . S
O938 C922 1.261 . S
O939 Tb921 2.303 . S
O939 C922 1.257 . S
C940 O930 1.236 . S
C940 O931 1.257 . S
O941 Tb920 2.415 . S
O941 C929 1.239 . S
O942 Tb920 2.399 . S
O942 C929 1.263 . S
C943 O932 1.261 . S
C943 O933 1.257 . S
C944 C947 1.358 . S
C944 C948 1.332 . S
C944 C950 1.504 . S
C945 C946 1.373 . S
C945 C949 1.308 . S
C946 C945 1.373 . S
C946 C947 1.429 . S
C946 H956 0.932 . S
C947 C944 1.358 . S
C947 C946 1.429 . S
C947 H957 0.930 . S
C948 C944 1.332 . S
C948 C949 1.394 . S
C948 H958 0.932 . S
C949 C945 1.308 . S
C949 C948 1.394 . S
C949 H959 0.929 . S
C950 Tb921 2.764 . S
C950 O934 1.239 . S
C950 O935 1.263 . S
C950 C944 1.504 . S
C951 O936 1.236 . S
C951 O937 1.257 . S
H952 C925 0.932 . S
H953 C926 0.930 . S
H954 C927 0.932 . S
H955 C928 0.929 . S
H956 C946 0.932 . S
H957 C947 0.930 . S
H958 C948 0.932 . S
H959 C949 0.929 . S
C960 C961 1.387 . S
C960 H964 0.950 . S
C960 C969 1.390 . S
C961 C960 1.387 . S
C961 C963 1.387 . S
H962 C969 0.950 . S
C963 C961 1.387 . S
C963 C965 1.390 . S
C963 H967 0.950 . S
H964 C960 0.950 . S
C965 C963 1.390 . S
C965 C966 1.387 . S
C965 H968 0.950 . S
C966 C965 1.387 . S
C966 C969 1.387 . S
H967 C963 0.950 . S
H968 C965 0.950 . S
C969 C960 1.390 . S
C969 H962 0.950 . S
C969 C966 1.387 . S
C970 C971 1.387 . S
C970 H974 0.950 . S
C970 C979 1.390 . S
C971 C970 1.387 . S
C971 C973 1.387 . S
H972 C979 0.950 . S
C973 C971 1.387 . S
C973 C975 1.390 . S
C973 H977 0.950 . S
H974 C970 0.950 . S
C975 C973 1.390 . S
C975 C976 1.387 . S
C975 H978 0.950 . S
C976 C975 1.387 . S
C976 C979 1.387 . S
H977 C973 0.950 . S
H978 C975 0.950 . S
C979 C970 1.390 . S
C979 H972 0.950 . S
C979 C976 1.387 . S
C980 C981 1.387 . S
C980 H984 0.950 . S
C980 C989 1.390 . S
C981 C980 1.387 . S
C981 C983 1.387 . S
H982 C989 0.950 . S
C983 C981 1.387 . S
C983 C985 1.390 . S
C983 H987 0.950 . S
H984 C980 0.950 . S
C985 C983 1.390 . S
C985 C986 1.387 . S
C985 H988 0.950 . S
C986 C985 1.387 . S
C986 C989 1.387 . S
H987 C983 0.950 . S
H988 C985 0.950 . S
C989 C980 1.390 . S
C989 H982 0.950 . S
C989 C986 1.387 . S
C990 C991 1.387 . S
C990 H994 0.950 . S
C990 C999 1.390 . S
C991 C990 1.387 . S
C991 C993 1.387 . S
H992 C999 0.950 . S
C993 C991 1.387 . S
C993 C995 1.390 . S
C993 H997 0.950 . S
H994 C990 0.950 . S
C995 C993 1.390 . S
C995 C996 1.387 . S
C995 H998 0.950 . S
C996 C995 1.387 . S
C996 C999 1.387 . S
H997 C993 0.950 . S
H998 C995 0.950 . S
C999 C990 1.390 . S
C999 H992 0.950 . S
C999 C996 1.387 . S
C1000 C1001 1.387 . S
C1000 H1004 0.950 . S
C1000 C1009 1.390 . S
C1001 C1000 1.387 . S
C1001 C1003 1.387 . S
H1002 C1009 0.950 . S
C1003 C1001 1.387 . S
C1003 C1005 1.390 . S
C1003 H1007 0.950 . S
H1004 C1000 0.950 . S
C1005 C1003 1.390 . S
C1005 C1006 1.387 . S
C1005 H1008 0.950 . S
C1006 C1005 1.387 . S
C1006 C1009 1.387 . S
H1007 C1003 0.950 . S
H1008 C1005 0.950 . S
C1009 C1000 1.390 . S
C1009 H1002 0.950 . S
C1009 C1006 1.387 . S
C1010 C1011 1.387 . S
C1010 H1014 0.950 . S
C1010 C1019 1.390 . S
C1011 C1010 1.387 . S
C1011 C1013 1.387 . S
H1012 C1019 0.950 . S
C1013 C1011 1.387 . S
C1013 C1015 1.390 . S
C1013 H1017 0.950 . S
H1014 C1010 0.950 . S
C1015 C1013 1.390 . S
C1015 C1016 1.387 . S
C1015 H1018 0.950 . S
C1016 C1015 1.387 . S
C1016 C1019 1.387 . S
H1017 C1013 0.950 . S
H1018 C1015 0.950 . S
C1019 C1010 1.390 . S
C1019 H1012 0.950 . S
C1019 C1016 1.387 . S
C1020 C1021 1.387 . S
C1020 H1024 0.950 . S
C1020 C1029 1.390 . S
C1021 C1020 1.387 . S
C1021 C1023 1.387 . S
H1022 C1029 0.950 . S
C1023 C1021 1.387 . S
C1023 C1025 1.390 . S
C1023 H1027 0.950 . S
H1024 C1020 0.950 . S
C1025 C1023 1.390 . S
C1025 C1026 1.387 . S
C1025 H1028 0.950 . S
C1026 C1025 1.387 . S
C1026 C1029 1.387 . S
H1027 C1023 0.950 . S
H1028 C1025 0.950 . S
C1029 C1020 1.390 . S
C1029 H1022 0.950 . S
C1029 C1026 1.387 . S
C1030 C1031 1.387 . S
C1030 H1034 0.950 . S
C1030 C1039 1.390 . S
C1031 C1030 1.387 . S
C1031 C1033 1.387 . S
H1032 C1039 0.950 . S
C1033 C1031 1.387 . S
C1033 C1035 1.390 . S
C1033 H1037 0.950 . S
H1034 C1030 0.950 . S
C1035 C1033 1.390 . S
C1035 C1036 1.387 . S
C1035 H1038 0.950 . S
C1036 C1035 1.387 . S
C1036 C1039 1.387 . S
H1037 C1033 0.950 . S
H1038 C1035 0.950 . S
C1039 C1030 1.390 . S
C1039 H1032 0.950 . S
C1039 C1036 1.387 . S
C1040 C1041 1.387 . S
C1040 H1044 0.950 . S
C1040 C1049 1.390 . S
C1041 C1040 1.387 . S
C1041 C1043 1.387 . S
H1042 C1049 0.950 . S
C1043 C1041 1.387 . S
C1043 C1045 1.390 . S
C1043 H1047 0.950 . S
H1044 C1040 0.950 . S
C1045 C1043 1.390 . S
C1045 C1046 1.387 . S
C1045 H1048 0.950 . S
C1046 C1045 1.387 . S
C1046 C1049 1.387 . S
H1047 C1043 0.950 . S
H1048 C1045 0.950 . S
C1049 C1040 1.390 . S
C1049 H1042 0.950 . S
C1049 C1046 1.387 . S
C1050 C1051 1.387 . S
C1050 H1054 0.950 . S
C1050 C1059 1.390 . S
C1051 C1050 1.387 . S
C1051 C1053 1.387 . S
H1052 C1059 0.950 . S
C1053 C1051 1.387 . S
C1053 C1055 1.390 . S
C1053 H1057 0.950 . S
H1054 C1050 0.950 . S
C1055 C1053 1.390 . S
C1055 C1056 1.387 . S
C1055 H1058 0.950 . S
C1056 C1055 1.387 . S
C1056 C1059 1.387 . S
H1057 C1053 0.950 . S
H1058 C1055 0.950 . S
C1059 C1050 1.390 . S
C1059 H1052 0.950 . S
C1059 C1056 1.387 . S
C1060 C1061 1.387 . S
C1060 H1064 0.950 . S
C1060 C1069 1.390 . S
C1061 C1060 1.387 . S
C1061 C1063 1.387 . S
H1062 C1069 0.950 . S
C1063 C1061 1.387 . S
C1063 C1065 1.390 . S
C1063 H1067 0.950 . S
H1064 C1060 0.950 . S
C1065 C1063 1.390 . S
C1065 C1066 1.387 . S
C1065 H1068 0.950 . S
C1066 C1065 1.387 . S
C1066 C1069 1.387 . S
H1067 C1063 0.950 . S
H1068 C1065 0.950 . S
C1069 C1060 1.390 . S
C1069 H1062 0.950 . S
C1069 C1066 1.387 . S
C1070 C1071 1.387 . S
C1070 H1074 0.950 . S
C1070 C1079 1.390 . S
C1071 C1070 1.387 . S
C1071 C1073 1.387 . S
H1072 C1079 0.950 . S
C1073 C1071 1.387 . S
C1073 C1075 1.390 . S
C1073 H1077 0.950 . S
H1074 C1070 0.950 . S
C1075 C1073 1.390 . S
C1075 C1076 1.387 . S
C1075 H1078 0.950 . S
C1076 C1075 1.387 . S
C1076 C1079 1.387 . S
H1077 C1073 0.950 . S
H1078 C1075 0.950 . S
C1079 C1070 1.390 . S
C1079 H1072 0.950 . S
C1079 C1076 1.387 . S
C1080 C1081 1.387 . S
C1080 H1084 0.950 . S
C1080 C1089 1.390 . S
C1081 C1080 1.387 . S
C1081 C1083 1.387 . S
H1082 C1089 0.950 . S
C1083 C1081 1.387 . S
C1083 C1085 1.390 . S
C1083 H1087 0.950 . S
H1084 C1080 0.950 . S
C1085 C1083 1.390 . S
C1085 C1086 1.387 . S
C1085 H1088 0.950 . S
C1086 C1085 1.387 . S
C1086 C1089 1.387 . S
H1087 C1083 0.950 . S
H1088 C1085 0.950 . S
C1089 C1080 1.390 . S
C1089 H1082 0.950 . S
C1089 C1086 1.387 . S
C1090 C1091 1.387 . S
C1090 H1094 0.950 . S
C1090 C1099 1.390 . S
C1091 C1090 1.387 . S
C1091 C1093 1.387 . S
H1092 C1099 0.950 . S
C1093 C1091 1.387 . S
C1093 C1095 1.390 . S
C1093 H1097 0.950 . S
H1094 C1090 0.950 . S
C1095 C1093 1.390 . S
C1095 C1096 1.387 . S
C1095 H1098 0.950 . S
C1096 C1095 1.387 . S
C1096 C1099 1.387 . S
H1097 C1093 0.950 . S
H1098 C1095 0.950 . S
C1099 C1090 1.390 . S
C1099 H1092 0.950 . S
C1099 C1096 1.387 . S
C1100 C1101 1.387 . S
C1100 H1104 0.950 . S
C1100 C1109 1.390 . S
C1101 C1100 1.387 . S
C1101 C1103 1.387 . S
H1102 C1109 0.950 . S
C1103 C1101 1.387 . S
C1103 C1105 1.390 . S
C1103 H1107 0.950 . S
H1104 C1100 0.950 . S
C1105 C1103 1.390 . S
C1105 C1106 1.387 . S
C1105 H1108 0.950 . S
C1106 C1105 1.387 . S
C1106 C1109 1.387 . S
H1107 C1103 0.950 . S
H1108 C1105 0.950 . S
C1109 C1100 1.390 . S
C1109 H1102 0.950 . S
C1109 C1106 1.387 . S
C1110 C1111 1.387 . S
C1110 H1114 0.950 . S
C1110 C1119 1.390 . S
C1111 C1110 1.387 . S
C1111 C1113 1.387 . S
H1112 C1119 0.950 . S
C1113 C1111 1.387 . S
C1113 C1115 1.390 . S
C1113 H1117 0.950 . S
H1114 C1110 0.950 . S
C1115 C1113 1.390 . S
C1115 C1116 1.387 . S
C1115 H1118 0.950 . S
C1116 C1115 1.387 . S
C1116 C1119 1.387 . S
H1117 C1113 0.950 . S
H1118 C1115 0.950 . S
C1119 C1110 1.390 . S
C1119 H1112 0.950 . S
C1119 C1116 1.387 . S
C1120 C1121 1.387 . S
C1120 H1124 0.950 . S
C1120 C1129 1.390 . S
C1121 C1120 1.387 . S
C1121 C1123 1.387 . S
H1122 C1129 0.950 . S
C1123 C1121 1.387 . S
C1123 C1125 1.390 . S
C1123 H1127 0.950 . S
H1124 C1120 0.950 . S
C1125 C1123 1.390 . S
C1125 C1126 1.387 . S
C1125 H1128 0.950 . S
C1126 C1125 1.387 . S
C1126 C1129 1.387 . S
H1127 C1123 0.950 . S
H1128 C1125 0.950 . S
C1129 C1120 1.390 . S
C1129 H1122 0.950 . S
C1129 C1126 1.387 . S
C1130 C1131 1.387 . S
C1130 H1134 0.950 . S
C1130 C1139 1.390 . S
C1131 C1130 1.387 . S
C1131 C1133 1.387 . S
H1132 C1139 0.950 . S
C1133 C1131 1.387 . S
C1133 C1135 1.390 . S
C1133 H1137 0.950 . S
H1134 C1130 0.950 . S
C1135 C1133 1.390 . S
C1135 C1136 1.387 . S
C1135 H1138 0.950 . S
C1136 C1135 1.387 . S
C1136 C1139 1.387 . S
H1137 C1133 0.950 . S
H1138 C1135 0.950 . S
C1139 C1130 1.390 . S
C1139 H1132 0.950 . S
C1139 C1136 1.387 . S
C1140 C1141 1.387 . S
C1140 H1144 0.950 . S
C1140 C1149 1.390 . S
C1141 C1140 1.387 . S
C1141 C1143 1.387 . S
H1142 C1149 0.950 . S
C1143 C1141 1.387 . S
C1143 C1145 1.390 . S
C1143 H1147 0.950 . S
H1144 C1140 0.950 . S
C1145 C1143 1.390 . S
C1145 C1146 1.387 . S
C1145 H1148 0.950 . S
C1146 C1145 1.387 . S
C1146 C1149 1.387 . S
H1147 C1143 0.950 . S
H1148 C1145 0.950 . S
C1149 C1140 1.390 . S
C1149 H1142 0.950 . S
C1149 C1146 1.387 . S
C1150 C1151 1.387 . S
C1150 H1154 0.950 . S
C1150 C1159 1.390 . S
C1151 C1150 1.387 . S
C1151 C1153 1.387 . S
H1152 C1159 0.950 . S
C1153 C1151 1.387 . S
C1153 C1155 1.390 . S
C1153 H1157 0.950 . S
H1154 C1150 0.950 . S
C1155 C1153 1.390 . S
C1155 C1156 1.387 . S
C1155 H1158 0.950 . S
C1156 C1155 1.387 . S
C1156 C1159 1.387 . S
H1157 C1153 0.950 . S
H1158 C1155 0.950 . S
C1159 C1150 1.390 . S
C1159 H1152 0.950 . S
C1159 C1156 1.387 . S
C1160 C1161 1.387 . S
C1160 H1164 0.950 . S
C1160 C1169 1.390 . S
C1161 C1160 1.387 . S
C1161 C1163 1.387 . S
H1162 C1169 0.950 . S
C1163 C1161 1.387 . S
C1163 C1165 1.390 . S
C1163 H1167 0.950 . S
H1164 C1160 0.950 . S
C1165 C1163 1.390 . S
C1165 C1166 1.387 . S
C1165 H1168 0.950 . S
C1166 C1165 1.387 . S
C1166 C1169 1.387 . S
H1167 C1163 0.950 . S
H1168 C1165 0.950 . S
C1169 C1160 1.390 . S
C1169 H1162 0.950 . S
C1169 C1166 1.387 . S
C1170 C1171 1.387 . S
C1170 H1174 0.950 . S
C1170 C1179 1.390 . S
C1171 C1170 1.387 . S
C1171 C1173 1.387 . S
H1172 C1179 0.950 . S
C1173 C1171 1.387 . S
C1173 C1175 1.390 . S
C1173 H1177 0.950 . S
H1174 C1170 0.950 . S
C1175 C1173 1.390 . S
C1175 C1176 1.387 . S
C1175 H1178 0.950 . S
C1176 C1175 1.387 . S
C1176 C1179 1.387 . S
H1177 C1173 0.950 . S
H1178 C1175 0.950 . S
C1179 C1170 1.390 . S
C1179 H1172 0.950 . S
C1179 C1176 1.387 . S
C1180 C1181 1.387 . S
C1180 H1184 0.950 . S
C1180 C1189 1.390 . S
C1181 C1180 1.387 . S
C1181 C1183 1.387 . S
H1182 C1189 0.950 . S
C1183 C1181 1.387 . S
C1183 C1185 1.390 . S
C1183 H1187 0.950 . S
H1184 C1180 0.950 . S
C1185 C1183 1.390 . S
C1185 C1186 1.387 . S
C1185 H1188 0.950 . S
C1186 C1185 1.387 . S
C1186 C1189 1.387 . S
H1187 C1183 0.950 . S
H1188 C1185 0.950 . S
C1189 C1180 1.390 . S
C1189 H1182 0.950 . S
C1189 C1186 1.387 . S
C1190 C1191 1.387 . S
C1190 H1194 0.950 . S
C1190 C1199 1.390 . S
C1191 C1190 1.387 . S
C1191 C1193 1.387 . S
H1192 C1199 0.950 . S
C1193 C1191 1.387 . S
C1193 C1195 1.390 . S
C1193 H1197 0.950 . S
H1194 C1190 0.950 . S
C1195 C1193 1.390 . S
C1195 C1196 1.387 . S
C1195 H1198 0.950 . S
C1196 C1195 1.387 . S
C1196 C1199 1.387 . S
H1197 C1193 0.950 . S
H1198 C1195 0.950 . S
C1199 C1190 1.390 . S
C1199 H1192 0.950 . S
C1199 C1196 1.387 . S
C1200 C1201 1.387 . S
C1200 H1204 0.950 . S
C1200 C1209 1.390 . S
C1201 C1200 1.387 . S
C1201 C1203 1.387 . S
H1202 C1209 0.950 . S
C1203 C1201 1.387 . S
C1203 C1205 1.390 . S
C1203 H1207 0.950 . S
H1204 C1200 0.950 . S
C1205 C1203 1.390 . S
C1205 C1206 1.387 . S
C1205 H1208 0.950 . S
C1206 C1205 1.387 . S
C1206 C1209 1.387 . S
H1207 C1203 0.950 . S
H1208 C1205 0.950 . S
C1209 C1200 1.390 . S
C1209 H1202 0.950 . S
C1209 C1206 1.387 . S
C1210 C1211 1.387 . S
C1210 H1214 0.950 . S
C1210 C1219 1.390 . S
C1211 C1210 1.387 . S
C1211 C1213 1.387 . S
H1212 C1219 0.950 . S
C1213 C1211 1.387 . S
C1213 C1215 1.390 . S
C1213 H1217 0.950 . S
H1214 C1210 0.950 . S
C1215 C1213 1.390 . S
C1215 C1216 1.387 . S
C1215 H1218 0.950 . S
C1216 C1215 1.387 . S
C1216 C1219 1.387 . S
H1217 C1213 0.950 . S
H1218 C1215 0.950 . S
C1219 C1210 1.390 . S
C1219 H1212 0.950 . S
C1219 C1216 1.387 . S
C1220 C1221 1.387 . S
C1220 H1224 0.950 . S
C1220 C1229 1.390 . S
C1221 C1220 1.387 . S
C1221 C1223 1.387 . S
H1222 C1229 0.950 . S
C1223 C1221 1.387 . S
C1223 C1225 1.390 . S
C1223 H1227 0.950 . S
H1224 C1220 0.950 . S
C1225 C1223 1.390 . S
C1225 C1226 1.387 . S
C1225 H1228 0.950 . S
C1226 C1225 1.387 . S
C1226 C1229 1.387 . S
H1227 C1223 0.950 . S
H1228 C1225 0.950 . S
C1229 C1220 1.390 . S
C1229 H1222 0.950 . S
C1229 C1226 1.387 . S
C1230 C1231 1.387 . S
C1230 H1234 0.950 . S
C1230 C1239 1.390 . S
C1231 C1230 1.387 . S
C1231 C1233 1.387 . S
H1232 C1239 0.950 . S
C1233 C1231 1.387 . S
C1233 C1235 1.390 . S
C1233 H1237 0.950 . S
H1234 C1230 0.950 . S
C1235 C1233 1.390 . S
C1235 C1236 1.387 . S
C1235 H1238 0.950 . S
C1236 C1235 1.387 . S
C1236 C1239 1.387 . S
H1237 C1233 0.950 . S
H1238 C1235 0.950 . S
C1239 C1230 1.390 . S
C1239 H1232 0.950 . S
C1239 C1236 1.387 . S
C1240 C1241 1.387 . S
C1240 H1244 0.950 . S
C1240 C1249 1.390 . S
C1241 C1240 1.387 . S
C1241 C1243 1.387 . S
H1242 C1249 0.950 . S
C1243 C1241 1.387 . S
C1243 C1245 1.390 . S
C1243 H1247 0.950 . S
H1244 C1240 0.950 . S
C1245 C1243 1.390 . S
C1245 C1246 1.387 . S
C1245 H1248 0.950 . S
C1246 C1245 1.387 . S
C1246 C1249 1.387 . S
H1247 C1243 0.950 . S
H1248 C1245 0.950 . S
C1249 C1240 1.390 . S
C1249 H1242 0.950 . S
C1249 C1246 1.387 . S
C1250 C1251 1.387 . S
C1250 H1254 0.950 . S
C1250 C1259 1.390 . S
C1251 C1250 1.387 . S
C1251 C1253 1.387 . S
H1252 C1259 0.950 . S
C1253 C1251 1.387 . S
C1253 C1255 1.390 . S
C1253 H1257 0.950 . S
H1254 C1250 0.950 . S
C1255 C1253 1.390 . S
C1255 C1256 1.387 . S
C1255 H1258 0.950 . S
C1256 C1255 1.387 . S
C1256 C1259 1.387 . S
H1257 C1253 0.950 . S
H1258 C1255 0.950 . S
C1259 C1250 1.390 . S
C1259 H1252 0.950 . S
C1259 C1256 1.387 . S
C1260 C1261 1.387 . S
C1260 H1264 0.950 . S
C1260 C1269 1.390 . S
C1261 C1260 1.387 . S
C1261 C1263 1.387 . S
H1262 C1269 0.950 . S
C1263 C1261 1.387 . S
C1263 C1265 1.390 . S
C1263 H1267 0.950 . S
H1264 C1260 0.950 . S
C1265 C1263 1.390 . S
C1265 C1266 1.387 . S
C1265 H1268 0.950 . S
C1266 C1265 1.387 . S
C1266 C1269 1.387 . S
H1267 C1263 0.950 . S
H1268 C1265 0.950 . S
C1269 C1260 1.390 . S
C1269 H1262 0.950 . S
C1269 C1266 1.387 . S
C1270 C1271 1.387 . S
C1270 H1274 0.950 . S
C1270 C1279 1.390 . S
C1271 C1270 1.387 . S
C1271 C1273 1.387 . S
H1272 C1279 0.950 . S
C1273 C1271 1.387 . S
C1273 C1275 1.390 . S
C1273 H1277 0.950 . S
H1274 C1270 0.950 . S
C1275 C1273 1.390 . S
C1275 C1276 1.387 . S
C1275 H1278 0.950 . S
C1276 C1275 1.387 . S
C1276 C1279 1.387 . S
H1277 C1273 0.950 . S
H1278 C1275 0.950 . S
C1279 C1270 1.390 . S
C1279 H1272 0.950 . S
C1279 C1276 1.387 . S
C1280 C1281 1.387 . S
C1280 H1284 0.950 . S
C1280 C1289 1.390 . S
C1281 C1280 1.387 . S
C1281 C1283 1.387 . S
H1282 C1289 0.950 . S
C1283 C1281 1.387 . S
C1283 C1285 1.390 . S
C1283 H1287 0.950 . S
H1284 C1280 0.950 . S
C1285 C1283 1.390 . S
C1285 C1286 1.387 . S
C1285 H1288 0.950 . S
C1286 C1285 1.387 . S
C1286 C1289 1.387 . S
H1287 C1283 0.950 . S
H1288 C1285 0.950 . S
C1289 C1280 1.390 . S
C1289 H1282 0.950 . S
C1289 C1286 1.387 . S
C1290 C1291 1.387 . S
C1290 H1294 0.950 . S
C1290 C1299 1.390 . S
C1291 C1290 1.387 . S
C1291 C1293 1.387 . S
H1292 C1299 0.950 . S
C1293 C1291 1.387 . S
C1293 C1295 1.390 . S
C1293 H1297 0.950 . S
H1294 C1290 0.950 . S
C1295 C1293 1.390 . S
C1295 C1296 1.387 . S
C1295 H1298 0.950 . S
C1296 C1295 1.387 . S
C1296 C1299 1.387 . S
H1297 C1293 0.950 . S
H1298 C1295 0.950 . S
C1299 C1290 1.390 . S
C1299 H1292 0.950 . S
C1299 C1296 1.387 . S
C1300 C1301 1.387 . S
C1300 H1304 0.950 . S
C1300 C1309 1.390 . S
C1301 C1300 1.387 . S
C1301 C1303 1.387 . S
H1302 C1309 0.950 . S
C1303 C1301 1.387 . S
C1303 C1305 1.390 . S
C1303 H1307 0.950 . S
H1304 C1300 0.950 . S
C1305 C1303 1.390 . S
C1305 C1306 1.387 . S
C1305 H1308 0.950 . S
C1306 C1305 1.387 . S
C1306 C1309 1.387 . S
H1307 C1303 0.950 . S
H1308 C1305 0.950 . S
C1309 C1300 1.390 . S
C1309 H1302 0.950 . S
C1309 C1306 1.387 . S
C1310 C1311 1.387 . S
C1310 H1314 0.950 . S
C1310 C1319 1.390 . S
C1311 C1310 1.387 . S
C1311 C1313 1.387 . S
H1312 C1319 0.950 . S
C1313 C1311 1.387 . S
C1313 C1315 1.390 . S
C1313 H1317 0.950 . S
H1314 C1310 0.950 . S
C1315 C1313 1.390 . S
C1315 C1316 1.387 . S
C1315 H1318 0.950 . S
C1316 C1315 1.387 . S
C1316 C1319 1.387 . S
H1317 C1313 0.950 . S
H1318 C1315 0.950 . S
C1319 C1310 1.390 . S
C1319 H1312 0.950 . S
C1319 C1316 1.387 . S
C1320 C1321 1.387 . S
C1320 H1324 0.950 . S
C1320 C1329 1.390 . S
C1321 C1320 1.387 . S
C1321 C1323 1.387 . S
H1322 C1329 0.950 . S
C1323 C1321 1.387 . S
C1323 C1325 1.390 . S
C1323 H1327 0.950 . S
H1324 C1320 0.950 . S
C1325 C1323 1.390 . S
C1325 C1326 1.387 . S
C1325 H1328 0.950 . S
C1326 C1325 1.387 . S
C1326 C1329 1.387 . S
H1327 C1323 0.950 . S
H1328 C1325 0.950 . S
C1329 C1320 1.390 . S
C1329 H1322 0.950 . S
C1329 C1326 1.387 . S
C1330 C1331 1.387 . S
C1330 H1334 0.950 . S
C1330 C1339 1.390 . S
C1331 C1330 1.387 . S
C1331 C1333 1.387 . S
H1332 C1339 0.950 . S
C1333 C1331 1.387 . S
C1333 C1335 1.390 . S
C1333 H1337 0.950 . S
H1334 C1330 0.950 . S
C1335 C1333 1.390 . S
C1335 C1336 1.387 . S
C1335 H1338 0.950 . S
C1336 C1335 1.387 . S
C1336 C1339 1.387 . S
H1337 C1333 0.950 . S
H1338 C1335 0.950 . S
C1339 C1330 1.390 . S
C1339 H1332 0.950 . S
C1339 C1336 1.387 . S
C1340 C1341 1.387 . S
C1340 H1344 0.950 . S
C1340 C1349 1.390 . S
C1341 C1340 1.387 . S
C1341 C1343 1.387 . S
H1342 C1349 0.950 . S
C1343 C1341 1.387 . S
C1343 C1345 1.390 . S
C1343 H1347 0.950 . S
H1344 C1340 0.950 . S
C1345 C1343 1.390 . S
C1345 C1346 1.387 . S
C1345 H1348 0.950 . S
C1346 C1345 1.387 . S
C1346 C1349 1.387 . S
H1347 C1343 0.950 . S
H1348 C1345 0.950 . S
C1349 C1340 1.390 . S
C1349 H1342 0.950 . S
C1349 C1346 1.387 . S
C1350 C1351 1.387 . S
C1350 H1354 0.950 . S
C1350 C1359 1.390 . S
C1351 C1350 1.387 . S
C1351 C1353 1.387 . S
H1352 C1359 0.950 . S
C1353 C1351 1.387 . S
C1353 C1355 1.390 . S
C1353 H1357 0.950 . S
H1354 C1350 0.950 . S
C1355 C1353 1.390 . S
C1355 C1356 1.387 . S
C1355 H1358 0.950 . S
C1356 C1355 1.387 . S
C1356 C1359 1.387 . S
H1357 C1353 0.950 . S
H1358 C1355 0.950 . S
C1359 C1350 1.390 . S
C1359 H1352 0.950 . S
C1359 C1356 1.387 . S
C1360 C1361 1.387 . S
C1360 H1364 0.950 . S
C1360 C1369 1.390 . S
C1361 C1360 1.387 . S
C1361 C1363 1.387 . S
H1362 C1369 0.950 . S
C1363 C1361 1.387 . S
C1363 C1365 1.390 . S
C1363 H1367 0.950 . S
H1364 C1360 0.950 . S
C1365 C1363 1.390 . S
C1365 C1366 1.387 . S
C1365 H1368 0.950 . S
C1366 C1365 1.387 . S
C1366 C1369 1.387 . S
H1367 C1363 0.950 . S
H1368 C1365 0.950 . S
C1369 C1360 1.390 . S
C1369 H1362 0.950 . S
C1369 C1366 1.387 . S
C1370 C1371 1.387 . S
C1370 H1374 0.950 . S
C1370 C1379 1.390 . S
C1371 C1370 1.387 . S
C1371 C1373 1.387 . S
H1372 C1379 0.950 . S
C1373 C1371 1.387 . S
C1373 C1375 1.390 . S
C1373 H1377 0.950 . S
H1374 C1370 0.950 . S
C1375 C1373 1.390 . S
C1375 C1376 1.387 . S
C1375 H1378 0.950 . S
C1376 C1375 1.387 . S
C1376 C1379 1.387 . S
H1377 C1373 0.950 . S
H1378 C1375 0.950 . S
C1379 C1370 1.390 . S
C1379 H1372 0.950 . S
C1379 C1376 1.387 . S
C1380 C1381 1.387 . S
C1380 H1384 0.950 . S
C1380 C1389 1.390 . S
C1381 C1380 1.387 . S
C1381 C1383 1.387 . S
H1382 C1389 0.950 . S
C1383 C1381 1.387 . S
C1383 C1385 1.390 . S
C1383 H1387 0.950 . S
H1384 C1380 0.950 . S
C1385 C1383 1.390 . S
C1385 C1386 1.387 . S
C1385 H1388 0.950 . S
C1386 C1385 1.387 . S
C1386 C1389 1.387 . S
H1387 C1383 0.950 . S
H1388 C1385 0.950 . S
C1389 C1380 1.390 . S
C1389 H1382 0.950 . S
C1389 C1386 1.387 . S
C1390 C1391 1.387 . S
C1390 H1394 0.950 . S
C1390 C1399 1.390 . S
C1391 C1390 1.387 . S
C1391 C1393 1.387 . S
H1392 C1399 0.950 . S
C1393 C1391 1.387 . S
C1393 C1395 1.390 . S
C1393 H1397 0.950 . S
H1394 C1390 0.950 . S
C1395 C1393 1.390 . S
C1395 C1396 1.387 . S
C1395 H1398 0.950 . S
C1396 C1395 1.387 . S
C1396 C1399 1.387 . S
H1397 C1393 0.950 . S
H1398 C1395 0.950 . S
C1399 C1390 1.390 . S
C1399 H1392 0.950 . S
C1399 C1396 1.387 . S
C1400 C1401 1.387 . S
C1400 H1404 0.950 . S
C1400 C1409 1.390 . S
C1401 C1400 1.387 . S
C1401 C1403 1.387 . S
H1402 C1409 0.950 . S
C1403 C1401 1.387 . S
C1403 C1405 1.390 . S
C1403 H1407 0.950 . S
H1404 C1400 0.950 . S
C1405 C1403 1.390 . S
C1405 C1406 1.387 . S
C1405 H1408 0.950 . S
C1406 C1405 1.387 . S
C1406 C1409 1.387 . S
H1407 C1403 0.950 . S
H1408 C1405 0.950 . S
C1409 C1400 1.390 . S
C1409 H1402 0.950 . S
C1409 C1406 1.387 . S
C1410 C1411 1.387 . S
C1410 H1414 0.950 . S
C1410 C1419 1.390 . S
C1411 C1410 1.387 . S
C1411 C1413 1.387 . S
H1412 C1419 0.950 . S
C1413 C1411 1.387 . S
C1413 C1415 1.390 . S
C1413 H1417 0.950 . S
H1414 C1410 0.950 . S
C1415 C1413 1.390 . S
C1415 C1416 1.387 . S
C1415 H1418 0.950 . S
C1416 C1415 1.387 . S
C1416 C1419 1.387 . S
H1417 C1413 0.950 . S
H1418 C1415 0.950 . S
C1419 C1410 1.390 . S
C1419 H1412 0.950 . S
C1419 C1416 1.387 . S
C1420 C1421 1.387 . S
C1420 H1424 0.950 . S
C1420 C1429 1.390 . S
C1421 C1420 1.387 . S
C1421 C1423 1.387 . S
H1422 C1429 0.950 . S
C1423 C1421 1.387 . S
C1423 C1425 1.390 . S
C1423 H1427 0.950 . S
H1424 C1420 0.950 . S
C1425 C1423 1.390 . S
C1425 C1426 1.387 . S
C1425 H1428 0.950 . S
C1426 C1425 1.387 . S
C1426 C1429 1.387 . S
H1427 C1423 0.950 . S
H1428 C1425 0.950 . S
C1429 C1420 1.390 . S
C1429 H1422 0.950 . S
C1429 C1426 1.387 . S
C1430 C1431 1.387 . S
C1430 H1434 0.950 . S
C1430 C1439 1.390 . S
C1431 C1430 1.387 . S
C1431 C1433 1.387 . S
H1432 C1439 0.950 . S
C1433 C1431 1.387 . S
C1433 C1435 1.390 . S
C1433 H1437 0.950 . S
H1434 C1430 0.950 . S
C1435 C1433 1.390 . S
C1435 C1436 1.387 . S
C1435 H1438 0.950 . S
C1436 C1435 1.387 . S
C1436 C1439 1.387 . S
H1437 C1433 0.950 . S
H1438 C1435 0.950 . S
C1439 C1430 1.390 . S
C1439 H1432 0.950 . S
C1439 C1436 1.387 . S
C1440 C1441 1.387 . S
C1440 H1444 0.950 . S
C1440 C1449 1.390 . S
C1441 C1440 1.387 . S
C1441 C1443 1.387 . S
H1442 C1449 0.950 . S
C1443 C1441 1.387 . S
C1443 C1445 1.390 . S
C1443 H1447 0.950 . S
H1444 C1440 0.950 . S
C1445 C1443 1.390 . S
C1445 C1446 1.387 . S
C1445 H1448 0.950 . S
C1446 C1445 1.387 . S
C1446 C1449 1.387 . S
H1447 C1443 0.950 . S
H1448 C1445 0.950 . S
C1449 C1440 1.390 . S
C1449 H1442 0.950 . S
C1449 C1446 1.387 . S
C1450 C1451 1.387 . S
C1450 H1454 0.950 . S
C1450 C1459 1.390 . S
C1451 C1450 1.387 . S
C1451 C1453 1.387 . S
H1452 C1459 0.950 . S
C1453 C1451 1.387 . S
C1453 C1455 1.390 . S
C1453 H1457 0.950 . S
H1454 C1450 0.950 . S
C1455 C1453 1.390 . S
C1455 C1456 1.387 . S
C1455 H1458 0.950 . S
C1456 C1455 1.387 . S
C1456 C1459 1.387 . S
H1457 C1453 0.950 . S
H1458 C1455 0.950 . S
C1459 C1450 1.390 . S
C1459 H1452 0.950 . S
C1459 C1456 1.387 . S
C1460 C1461 1.387 . S
C1460 H1464 0.950 . S
C1460 C1469 1.390 . S
C1461 C1460 1.387 . S
C1461 C1463 1.387 . S
H1462 C1469 0.950 . S
C1463 C1461 1.387 . S
C1463 C1465 1.390 . S
C1463 H1467 0.950 . S
H1464 C1460 0.950 . S
C1465 C1463 1.390 . S
C1465 C1466 1.387 . S
C1465 H1468 0.950 . S
C1466 C1465 1.387 . S
C1466 C1469 1.387 . S
H1467 C1463 0.950 . S
H1468 C1465 0.950 . S
C1469 C1460 1.390 . S
C1469 H1462 0.950 . S
C1469 C1466 1.387 . S
C1470 C1471 1.387 . S
C1470 H1474 0.950 . S
C1470 C1479 1.390 . S
C1471 C1470 1.387 . S
C1471 C1473 1.387 . S
H1472 C1479 0.950 . S
C1473 C1471 1.387 . S
C1473 C1475 1.390 . S
C1473 H1477 0.950 . S
H1474 C1470 0.950 . S
C1475 C1473 1.390 . S
C1475 C1476 1.387 . S
C1475 H1478 0.950 . S
C1476 C1475 1.387 . S
C1476 C1479 1.387 . S
H1477 C1473 0.950 . S
H1478 C1475 0.950 . S
C1479 C1470 1.390 . S
C1479 H1472 0.950 . S
C1479 C1476 1.387 . S
C1480 C1481 1.387 . S
C1480 H1484 0.950 . S
C1480 C1489 1.390 . S
C1481 C1480 1.387 . S
C1481 C1483 1.387 . S
H1482 C1489 0.950 . S
C1483 C1481 1.387 . S
C1483 C1485 1.390 . S
C1483 H1487 0.950 . S
H1484 C1480 0.950 . S
C1485 C1483 1.390 . S
C1485 C1486 1.387 . S
C1485 H1488 0.950 . S
C1486 C1485 1.387 . S
C1486 C1489 1.387 . S
H1487 C1483 0.950 . S
H1488 C1485 0.950 . S
C1489 C1480 1.390 . S
C1489 H1482 0.950 . S
C1489 C1486 1.387 . S
C1490 C1491 1.387 . S
C1490 H1494 0.950 . S
C1490 C1499 1.390 . S
C1491 C1490 1.387 . S
C1491 C1493 1.387 . S
H1492 C1499 0.950 . S
C1493 C1491 1.387 . S
C1493 C1495 1.390 . S
C1493 H1497 0.950 1_545 S
H1494 C1490 0.950 . S
C1495 C1493 1.390 . S
C1495 C1496 1.387 . S
C1495 H1498 0.948 . S
C1496 C1495 1.387 . S
C1496 C1499 1.387 . S
H1497 C1493 0.950 1_565 S
H1498 C1495 0.948 . S
C1499 C1490 1.390 . S
C1499 H1492 0.950 . S
C1499 C1496 1.387 . S
C1500 C1501 1.387 . S
C1500 H1504 0.950 . S
C1500 C1509 1.390 . S
C1501 C1500 1.387 . S
C1501 C1503 1.387 . S
H1502 C1509 0.950 . S
C1503 C1501 1.387 . S
C1503 C1505 1.390 . S
C1503 H1507 0.950 . S
H1504 C1500 0.950 . S
C1505 C1503 1.390 . S
C1505 C1506 1.387 . S
C1505 H1508 0.950 . S
C1506 C1505 1.387 . S
C1506 C1509 1.387 . S
H1507 C1503 0.950 . S
H1508 C1505 0.950 . S
C1509 C1500 1.390 . S
C1509 H1502 0.950 . S
C1509 C1506 1.387 . S
C1510 C1511 1.387 . S
C1510 H1514 0.950 . S
C1510 C1519 1.390 . S
C1511 C1510 1.387 . S
C1511 C1513 1.387 . S
H1512 C1519 0.950 . S
C1513 C1511 1.387 . S
C1513 C1515 1.390 . S
C1513 H1517 0.950 . S
H1514 C1510 0.950 . S
C1515 C1513 1.390 . S
C1515 C1516 1.387 . S
C1515 H1518 0.950 . S
C1516 C1515 1.387 . S
C1516 C1519 1.387 . S
H1517 C1513 0.950 . S
H1518 C1515 0.950 . S
C1519 C1510 1.390 . S
C1519 H1512 0.950 . S
C1519 C1516 1.387 . S
C1520 C1521 1.387 . S
C1520 H1524 0.950 . S
C1520 C1529 1.390 . S
C1521 C1520 1.387 . S
C1521 C1523 1.387 1_556 S
H1522 C1529 0.950 . S
C1523 C1521 1.387 1_554 S
C1523 C1525 1.390 . S
C1523 H1527 0.950 . S
H1524 C1520 0.950 . S
C1525 C1523 1.390 . S
C1525 C1526 1.387 1_554 S
C1525 H1528 0.950 . S
C1526 C1525 1.387 1_556 S
C1526 C1529 1.387 . S
H1527 C1523 0.950 . S
H1528 C1525 0.950 . S
C1529 C1520 1.390 . S
C1529 H1522 0.950 . S
C1529 C1526 1.387 . S
C1530 C1531 1.387 1_554 S
C1530 H1534 0.950 . S
C1530 C1539 1.390 . S
C1531 C1530 1.387 1_556 S
C1531 C1533 1.387 . S
H1532 C1539 0.950 . S
C1533 C1531 1.387 . S
C1533 C1535 1.390 . S
C1533 H1537 0.950 . S
H1534 C1530 0.950 . S
C1535 C1533 1.390 . S
C1535 C1536 1.387 1_556 S
C1535 H1538 0.950 . S
C1536 C1535 1.387 1_554 S
C1536 C1539 1.387 . S
H1537 C1533 0.950 . S
H1538 C1535 0.950 . S
C1539 C1530 1.390 . S
C1539 H1532 0.950 . S
C1539 C1536 1.387 . S
C1540 C1541 1.387 . S
C1540 H1544 0.950 . S
C1540 C1549 1.390 . S
C1541 C1540 1.387 . S
C1541 C1543 1.387 . S
H1542 C1549 0.950 . S
C1543 C1541 1.387 . S
C1543 C1545 1.390 . S
C1543 H1547 0.950 . S
H1544 C1540 0.950 . S
C1545 C1543 1.390 . S
C1545 C1546 1.387 . S
C1545 H1548 0.950 . S
C1546 C1545 1.387 . S
C1546 C1549 1.387 . S
H1547 C1543 0.950 . S
H1548 C1545 0.950 . S
C1549 C1540 1.390 . S
C1549 H1542 0.950 . S
C1549 C1546 1.387 . S
C1550 C1551 1.387 . S
C1550 H1554 0.950 . S
C1550 C1559 1.390 . S
C1551 C1550 1.387 . S
C1551 C1553 1.387 . S
H1552 C1559 0.950 . S
C1553 C1551 1.387 . S
C1553 C1555 1.390 . S
C1553 H1557 0.950 . S
H1554 C1550 0.950 . S
C1555 C1553 1.390 . S
C1555 C1556 1.387 . S
C1555 H1558 0.950 . S
C1556 C1555 1.387 . S
C1556 C1559 1.387 . S
H1557 C1553 0.950 . S
H1558 C1555 0.950 . S
C1559 C1550 1.390 . S
C1559 H1552 0.950 . S
C1559 C1556 1.387 . S
C1560 C1561 1.387 . S
C1560 H1564 0.950 . S
C1560 C1569 1.390 . S
C1561 C1560 1.387 . S
C1561 C1563 1.387 . S
H1562 C1569 0.950 . S
C1563 C1561 1.387 . S
C1563 C1565 1.390 . S
C1563 H1567 0.950 . S
H1564 C1560 0.950 . S
C1565 C1563 1.390 . S
C1565 C1566 1.387 . S
C1565 H1568 0.950 . S
C1566 C1565 1.387 . S
C1566 C1569 1.387 . S
H1567 C1563 0.950 . S
H1568 C1565 0.950 . S
C1569 C1560 1.390 . S
C1569 H1562 0.950 . S
C1569 C1566 1.387 . S
C1570 C1571 1.387 . S
C1570 H1574 0.950 . S
C1570 C1579 1.390 . S
C1571 C1570 1.387 . S
C1571 C1573 1.387 . S
H1572 C1579 0.950 . S
C1573 C1571 1.387 . S
C1573 C1575 1.390 . S
C1573 H1577 0.950 . S
H1574 C1570 0.950 . S
C1575 C1573 1.390 . S
C1575 C1576 1.387 . S
C1575 H1578 0.950 . S
C1576 C1575 1.387 . S
C1576 C1579 1.387 . S
H1577 C1573 0.950 . S
H1578 C1575 0.950 . S
C1579 C1570 1.390 . S
C1579 H1572 0.950 . S
C1579 C1576 1.387 . S
C1580 C1581 1.387 . S
C1580 H1584 0.950 . S
C1580 C1589 1.390 . S
C1581 C1580 1.387 . S
C1581 C1583 1.387 . S
H1582 C1589 0.950 . S
C1583 C1581 1.387 . S
C1583 C1585 1.390 . S
C1583 H1587 0.950 . S
H1584 C1580 0.950 . S
C1585 C1583 1.390 . S
C1585 C1586 1.387 . S
C1585 H1588 0.950 . S
C1586 C1585 1.387 . S
C1586 C1589 1.387 . S
H1587 C1583 0.950 . S
H1588 C1585 0.950 . S
C1589 C1580 1.390 . S
C1589 H1582 0.950 . S
C1589 C1586 1.387 . S
C1590 C1591 1.387 . S
C1590 H1594 0.950 . S
C1590 C1599 1.390 . S
C1591 C1590 1.387 . S
C1591 C1593 1.387 . S
H1592 C1599 0.950 . S
C1593 C1591 1.387 . S
C1593 C1595 1.390 . S
C1593 H1597 0.950 . S
H1594 C1590 0.950 . S
C1595 C1593 1.390 . S
C1595 C1596 1.387 . S
C1595 H1598 0.950 . S
C1596 C1595 1.387 . S
C1596 C1599 1.387 . S
H1597 C1593 0.950 . S
H1598 C1595 0.950 . S
C1599 C1590 1.390 . S
C1599 H1592 0.950 . S
C1599 C1596 1.387 . S
C1600 C1601 1.387 . S
C1600 H1604 0.950 . S
C1600 C1609 1.390 . S
C1601 C1600 1.387 . S
C1601 C1603 1.387 . S
H1602 C1609 0.950 . S
C1603 C1601 1.387 . S
C1603 C1605 1.390 . S
C1603 H1607 0.950 . S
H1604 C1600 0.950 . S
C1605 C1603 1.390 . S
C1605 C1606 1.387 . S
C1605 H1608 0.950 . S
C1606 C1605 1.387 . S
C1606 C1609 1.387 . S
H1607 C1603 0.950 . S
H1608 C1605 0.950 . S
C1609 C1600 1.390 . S
C1609 H1602 0.950 . S
C1609 C1606 1.387 . S
C1610 C1611 1.387 . S
C1610 H1614 0.950 . S
C1610 C1619 1.390 . S
C1611 C1610 1.387 . S
C1611 C1613 1.387 . S
H1612 C1619 0.950 . S
C1613 C1611 1.387 . S
C1613 C1615 1.390 . S
C1613 H1617 0.953 1_565 S
H1614 C1610 0.950 . S
C1615 C1613 1.390 . S
C1615 C1616 1.387 . S
C1615 H1618 0.950 1_565 S
C1616 C1615 1.387 . S
C1616 C1619 1.387 . S
H1617 C1613 0.953 1_545 S
H1618 C1615 0.950 1_545 S
C1619 C1610 1.390 . S
C1619 H1612 0.950 . S
C1619 C1616 1.387 . S
C1620 C1621 1.387 . S
C1620 H1624 0.950 . S
C1620 C1629 1.390 . S
C1621 C1620 1.387 . S
C1621 C1623 1.387 . S
H1622 C1629 0.950 . S
C1623 C1621 1.387 . S
C1623 C1625 1.390 . S
C1623 H1627 0.950 . S
H1624 C1620 0.950 . S
C1625 C1623 1.390 . S
C1625 C1626 1.387 . S
C1625 H1628 0.950 . S
C1626 C1625 1.387 . S
C1626 C1629 1.387 . S
H1627 C1623 0.950 . S
H1628 C1625 0.950 . S
C1629 C1620 1.390 . S
C1629 H1622 0.950 . S
C1629 C1626 1.387 . S
C1630 C1631 1.387 . S
C1630 H1634 0.950 . S
C1630 C1639 1.390 . S
C1631 C1630 1.387 . S
C1631 C1633 1.387 . S
H1632 C1639 0.950 . S
C1633 C1631 1.387 . S
C1633 C1635 1.390 . S
C1633 H1637 0.950 . S
H1634 C1630 0.950 . S
C1635 C1633 1.390 . S
C1635 C1636 1.387 . S
C1635 H1638 0.950 . S
C1636 C1635 1.387 . S
C1636 C1639 1.387 . S
H1637 C1633 0.950 . S
H1638 C1635 0.950 . S
C1639 C1630 1.390 . S
C1639 H1632 0.950 . S
C1639 C1636 1.387 . S
C1640 C1641 1.387 1_556 S
C1640 H1644 0.950 . S
C1640 C1649 1.390 . S
C1641 C1640 1.387 1_554 S
C1641 C1643 1.387 . S
H1642 C1649 0.950 . S
C1643 C1641 1.387 . S
C1643 C1645 1.390 . S
C1643 H1647 0.950 . S
H1644 C1640 0.950 . S
C1645 C1643 1.390 . S
C1645 C1646 1.387 . S
C1645 H1648 0.950 . S
C1646 C1645 1.387 . S
C1646 C1649 1.387 1_554 S
H1647 C1643 0.950 . S
H1648 C1645 0.950 . S
C1649 C1640 1.390 . S
C1649 H1642 0.950 . S
C1649 C1646 1.387 1_556 S
C1650 C1651 1.387 . S
C1650 H1654 0.950 . S
C1650 C1659 1.390 . S
C1651 C1650 1.387 . S
C1651 C1653 1.387 1_556 S
H1652 C1659 0.950 . S
C1653 C1651 1.387 1_554 S
C1653 C1655 1.390 . S
C1653 H1657 0.950 . S
H1654 C1650 0.950 . S
C1655 C1653 1.390 . S
C1655 C1656 1.387 . S
C1655 H1658 0.950 . S
C1656 C1655 1.387 . S
C1656 C1659 1.387 1_554 S
H1657 C1653 0.950 . S
H1658 C1655 0.950 . S
C1659 C1650 1.390 . S
C1659 H1652 0.950 . S
C1659 C1656 1.387 1_556 S
C1660 C1661 1.387 . S
C1660 H1664 0.950 . S
C1660 C1669 1.390 . S
C1661 C1660 1.387 . S
C1661 C1663 1.387 . S
H1662 C1669 0.950 . S
C1663 C1661 1.387 . S
C1663 C1665 1.390 . S
C1663 H1667 0.950 . S
H1664 C1660 0.950 . S
C1665 C1663 1.390 . S
C1665 C1666 1.387 . S
C1665 H1668 0.950 . S
C1666 C1665 1.387 . S
C1666 C1669 1.387 . S
H1667 C1663 0.950 . S
H1668 C1665 0.950 . S
C1669 C1660 1.390 . S
C1669 H1662 0.950 . S
C1669 C1666 1.387 . S
C1670 C1671 1.387 . S
C1670 H1674 0.950 . S
C1670 C1679 1.390 . S
C1671 C1670 1.387 . S
C1671 C1673 1.387 . S
H1672 C1679 0.950 . S
C1673 C1671 1.387 . S
C1673 C1675 1.390 . S
C1673 H1677 0.950 . S
H1674 C1670 0.950 . S
C1675 C1673 1.390 . S
C1675 C1676 1.387 . S
C1675 H1678 0.950 . S
C1676 C1675 1.387 . S
C1676 C1679 1.387 . S
H1677 C1673 0.950 . S
H1678 C1675 0.950 . S
C1679 C1670 1.390 . S
C1679 H1672 0.950 . S
C1679 C1676 1.387 . S
C961 C23 0.349 . S
C966 C745 0.563 . S
C971 C780 2.932 . S
C976 C63 2.729 . S
C981 C103 2.118 . S
C986 C660 2.215 . S
C991 C143 2.210 . S
C996 C700 2.397 . S
C1001 C900 3.131 . S
C1006 C183 2.979 . S
C1011 C223 0.850 . S
C1016 C865 0.838 . S
C1021 C945 1.061 . S
C1026 C242 1.075 . S
C1031 C303 2.181 . S
C1036 C820 2.440 . S
C1041 C343 1.789 . S
C1046 C540 1.969 . S
C1051 C362 2.334 . S
C1056 C620 2.338 . S
C1061 C580 1.493 . S
C1066 C423 1.381 . S
C1071 C442 2.668 . S
C1076 C500 2.626 . S
C1081 C482 0.350 . S
C1086 C244 0.567 . S
C1091 C522 2.728 . S
C1096 C311 2.931 . S
C1101 C562 2.119 . S
C1106 C191 2.216 . S
C1111 C231 2.393 . S
C1116 C602 2.212 . S
C1121 C642 2.983 . S
C1126 C431 3.127 . S
C1131 C364 0.843 . S
C1136 C682 0.851 . S
C1141 C444 1.062 . S
C1146 C743 1.075 . S
C1151 C351 2.440 . S
C1156 C762 2.179 . S
C1161 C71 1.969 . S
C1166 C802 1.789 . S
C1171 C151 2.338 . S
C1176 C863 2.334 . S
C1181 C111 1.495 . S
C1186 C882 1.379 . S
C1191 C943 2.667 . S
C1196 C31 2.624 . S
C1201 C180 1.038 . S
C1206 C4 1.043 . S
C1211 C220 1.933 . S
C1216 C44 1.914 . S
C1221 C265 0.882 . S
C1226 C84 0.925 . S
C1231 C300 1.837 . S
C1236 C124 1.841 . S
C1241 C164 1.460 . S
C1246 C340 1.437 . S
C1251 C204 0.694 . S
C1256 C465 0.621 . S
C1261 C271 1.228 . S
C1266 C385 1.221 . S
C1271 C284 1.927 . S
C1276 C420 1.924 . S
C1281 C324 1.697 . S
C1286 C20 1.742 . S
C1291 C391 3.066 . S
C1296 C100 3.121 . S
C1301 C404 1.567 . S
C1306 C140 1.575 . S
C1311 C60 2.568 . S
C1316 C471 2.525 . S
C1321 C671 1.039 . S
C1326 C505 1.043 . S
C1331 C711 1.934 . S
C1336 C545 1.914 . S
C1341 C585 0.933 . S
C1346 C724 0.891 . S
C1351 C625 1.841 . S
C1356 C791 1.837 . S
C1361 C831 1.441 . S
C1366 C665 1.458 . S
C1371 C705 0.695 . S
C1376 C924 0.623 . S
C1381 C844 1.223 . S
C1386 C740 1.229 . S
C1391 C785 1.927 . S
C1396 C911 1.924 . S
C1401 C511 1.745 . S
C1406 C825 1.692 . S
C1411 C860 3.066 . S
C1416 C591 3.121 . S
C1421 C905 1.567 . S
C1426 C631 1.575 . S
C1431 C551 2.568 . S
C1436 C940 2.524 . S
C1441 C2 3.377 . S
C1446 C380 3.451 1_554 S
C1451 C425 1.752 . S
C1456 C42 1.757 . S
C1461 C345 1.978 . S
C1466 C82 1.975 . S
C1471 C460 2.952 . S
C1476 C122 2.887 . S
C1481 C162 1.463 . S
C1486 C145 1.489 . S
C1491 C105 1.830 . S
C1496 C202 1.819 . S
C1501 C263 1.297 . S
C1506 C65 1.474 . S
C1511 C25 1.208 . S
C1516 C282 1.200 . S
C1521 C322 1.523 1_556 S
C1526 C225 1.582 . S
C1531 C383 1.694 . S
C1536 C305 1.853 . S
C1541 C402 2.481 . S
C1546 C260 2.555 . S
C1551 C463 1.917 . S
C1556 C185 2.093 . S
C1561 C503 3.375 . S
C1566 C871 3.450 1_556 S
C1571 C543 1.757 . S
C1576 C884 1.752 . S
C1581 C804 1.978 . S
C1586 C583 1.975 . S
C1591 C951 2.953 . S
C1596 C623 2.888 . S
C1601 C663 1.463 . S
C1606 C604 1.489 . S
C1611 C703 1.818 . S
C1616 C564 1.832 . S
C1621 C524 1.470 . S
C1626 C722 1.294 . S
C1631 C783 1.200 . S
C1636 C484 1.212 . S
C1641 C823 1.523 1_554 S
C1646 C684 1.582 . S
C1651 C764 1.854 . S
C1656 C842 1.692 . S
C1661 C903 2.481 . S
C1666 C751 2.555 . S
C1671 C922 1.917 . S
C1676 C644 2.093 . S
