# Generated by pormake.
# Topology rac, (4)-cn, num edge types: 1
# Building blocks:
#     Node 0, Type 0, BuildingBlock: TATPOV_clean_sbu_0, # of connection points: 4
#     Node 1, Type 0, BuildingBlock: TATPOV_clean_sbu_0, # of connection points: 4
#     Node 2, Type 0, BuildingBlock: TATPOV_clean_sbu_0, # of connection points: 4
#     Node 3, Type 0, BuildingBlock: TATPOV_clean_sbu_0, # of connection points: 4
#     Node 4, Type 0, BuildingBlock: TATPOV_clean_sbu_0, # of connection points: 4
#     Node 5, Type 0, BuildingBlock: TATPOV_clean_sbu_0, # of connection points: 4
#     Node 6, Type 0, BuildingBlock: TATPOV_clean_sbu_0, # of connection points: 4
#     Node 7, Type 0, BuildingBlock: TATPOV_clean_sbu_0, # of connection points: 4
#     Edge 8, Type (0, 0), BuildingBlock: ZUJKAS_clean_linker_0, # of connection points: 2
#     Edge 9, Type (0, 0), BuildingBlock: ZUJKAS_clean_linker_0, # of connection points: 2
#     Edge 10, Type (0, 0), BuildingBlock: ZUJKAS_clean_linker_0, # of connection points: 2
#     Edge 11, Type (0, 0), BuildingBlock: ZUJKAS_clean_linker_0, # of connection points: 2
#     Edge 12, Type (0, 0), BuildingBlock: ZUJKAS_clean_linker_0, # of connection points: 2
#     Edge 13, Type (0, 0), BuildingBlock: ZUJKAS_clean_linker_0, # of connection points: 2
#     Edge 14, Type (0, 0), BuildingBlock: ZUJKAS_clean_linker_0, # of connection points: 2
#     Edge 15, Type (0, 0), BuildingBlock: ZUJKAS_clean_linker_0, # of connection points: 2
#     Edge 16, Type (0, 0), BuildingBlock: ZUJKAS_clean_linker_0, # of connection points: 2
#     Edge 17, Type (0, 0), BuildingBlock: ZUJKAS_clean_linker_0, # of connection points: 2
#     Edge 18, Type (0, 0), BuildingBlock: ZUJKAS_clean_linker_0, # of connection points: 2
#     Edge 19, Type (0, 0), BuildingBlock: ZUJKAS_clean_linker_0, # of connection points: 2
#     Edge 20, Type (0, 0), BuildingBlock: ZUJKAS_clean_linker_0, # of connection points: 2
#     Edge 21, Type (0, 0), BuildingBlock: ZUJKAS_clean_linker_0, # of connection points: 2
#     Edge 22, Type (0, 0), BuildingBlock: ZUJKAS_clean_linker_0, # of connection points: 2
#     Edge 23, Type (0, 0), BuildingBlock: ZUJKAS_clean_linker_0, # of connection points: 2
# Relax obj value: 0.272
# Max RMSD: 0.123
# Mean RMSD: 0.123
data_MOF--net-rac--node1-TATPOV_clean_sbu_0--edge1-ZUJKAS_clean_linker_0
_symmetry_space_group_name_H-M    P1
_symmetry_Int_Tables_number       1
_symmetry_cell_setting            triclinic
loop_
_symmetry_equiv_pos_as_xyz
'x, y, z'
_cell_length_a     46.583086
_cell_length_b     26.959866
_cell_length_c     57.037096
_cell_angle_alpha  90.005628
_cell_angle_beta   90.035019
_cell_angle_gamma 90.039728
loop_
_atom_site_label
_atom_site_type_symbol
_atom_site_fract_x
_atom_site_fract_y
_atom_site_fract_z
_atom_type_partial_charge
Zn0 Zn 0.3802 0.22781 0.03857 0.0
Zn1 Zn 0.39688 0.23831 0.08277 0.0
O2 O 0.42953 0.2686 0.063 0.0
O3 O 0.41726 0.25531 0.02629 0.0
O4 O 0.4111 0.23888 0.11619 0.0
O5 O 0.3723 0.15504 0.04172 0.0
O6 O 0.38149 0.16716 0.07904 0.0
C7 C 0.43449 0.27357 0.04113 0.0
C8 C 0.34578 0.2966 0.06652 0.0
O9 O 0.3634 0.28583 0.08277 0.0
O10 O 0.34811 0.2766 0.04648 0.0
C11 C 0.41006 0.27772 0.1288 0.0
O12 O 0.40099 0.31941 0.11945 0.0
C13 C 0.37254 0.13916 0.06259 0.0
Zn14 Zn 0.1147 0.76577 0.03485 0.0
Zn15 Zn 0.09702 0.75732 0.07876 0.0
O16 O 0.06376 0.73029 0.05857 0.0
O17 O 0.07689 0.74276 0.02202 0.0
O18 O 0.08205 0.75952 0.11189 0.0
O19 O 0.12557 0.83744 0.03788 0.0
O20 O 0.11508 0.82655 0.07504 0.0
C21 C 0.05889 0.7261 0.03665 0.0
C22 C 0.14595 0.69329 0.06346 0.0
O23 O 0.12862 0.70614 0.07957 0.0
O24 O 0.14454 0.71332 0.04336 0.0
C25 C 0.07943 0.72099 0.12455 0.0
O26 O 0.08523 0.67736 0.11546 0.0
C27 C 0.12543 0.85343 0.05873 0.0
Zn28 Zn 0.38109 0.25556 0.46935 0.0
Zn29 Zn 0.39509 0.25215 0.4246 0.0
O30 O 0.42986 0.22411 0.44278 0.0
O31 O 0.42025 0.23534 0.48012 0.0
O32 O 0.40802 0.25656 0.39093 0.0
O33 O 0.36794 0.32617 0.46806 0.0
O34 O 0.37696 0.32081 0.43036 0.0
C35 C 0.43687 0.21936 0.4643 0.0
C36 C 0.34879 0.18375 0.44128 0.0
O37 O 0.36368 0.20038 0.42433 0.0
O38 O 0.35231 0.20081 0.46182 0.0
C39 C 0.40897 0.2186 0.37773 0.0
O40 O 0.4026 0.17492 0.38652 0.0
C41 C 0.36693 0.34491 0.44775 0.0
Zn42 Zn 0.10686 0.72675 0.46474 0.0
Zn43 Zn 0.09429 0.73237 0.42 0.0
O44 O 0.05993 0.76361 0.43757 0.0
O45 O 0.06836 0.75117 0.47503 0.0
O46 O 0.08227 0.72901 0.38613 0.0
O47 O 0.11745 0.65491 0.46388 0.0
O48 O 0.11034 0.66222 0.42599 0.0
C49 C 0.05264 0.76887 0.45899 0.0
C50 C 0.14235 0.79557 0.43747 0.0
O51 O 0.12712 0.78139 0.42021 0.0
O52 O 0.13788 0.77805 0.45779 0.0
C53 C 0.07614 0.76755 0.37433 0.0
O54 O 0.07652 0.81102 0.38475 0.0
C55 C 0.11882 0.6367 0.44348 0.0
Zn56 Zn 0.6093 0.75822 0.96819 0.0
Zn57 Zn 0.59492 0.75732 0.92381 0.0
O58 O 0.56017 0.72934 0.9421 0.0
O59 O 0.57006 0.74 0.97942 0.0
O60 O 0.58142 0.764 0.8904 0.0
O61 O 0.62392 0.82791 0.9678 0.0
O62 O 0.61431 0.82489 0.93014 0.0
C63 C 0.55324 0.72449 0.96362 0.0
C64 C 0.63998 0.68582 0.93922 0.0
O65 O 0.62542 0.70412 0.92246 0.0
O66 O 0.63681 0.70207 0.95994 0.0
C67 C 0.57687 0.72631 0.87754 0.0
O68 O 0.57987 0.68176 0.88656 0.0
C69 C 0.62499 0.84762 0.9477 0.0
Zn70 Zn 0.8815 0.23324 0.96532 0.0
Zn71 Zn 0.89504 0.23741 0.92061 0.0
O72 O 0.92871 0.27057 0.93831 0.0
O73 O 0.91942 0.26019 0.97576 0.0
O74 O 0.90772 0.2336 0.88694 0.0
O75 O 0.87231 0.16076 0.96485 0.0
O76 O 0.88017 0.16663 0.927 0.0
C77 C 0.9354 0.27731 0.95977 0.0
C78 C 0.84554 0.2989 0.93682 0.0
O79 O 0.86145 0.28485 0.91997 0.0
O80 O 0.84976 0.28244 0.95737 0.0
C81 C 0.91439 0.27202 0.87524 0.0
O82 O 0.91402 0.31551 0.88564 0.0
C83 C 0.87179 0.14147 0.94464 0.0
Zn84 Zn 0.61307 0.72927 0.53938 0.0
Zn85 Zn 0.59576 0.73517 0.58326 0.0
O86 O 0.56294 0.76552 0.56359 0.0
O87 O 0.57589 0.75536 0.52684 0.0
O88 O 0.58093 0.73262 0.61638 0.0
O89 O 0.62238 0.65693 0.54108 0.0
O90 O 0.61238 0.66503 0.5785 0.0
C91 C 0.55817 0.77172 0.54175 0.0
C92 C 0.64592 0.79754 0.56897 0.0
O93 O 0.62836 0.78448 0.58488 0.0
O94 O 0.64404 0.77916 0.54854 0.0
C95 C 0.57604 0.77193 0.62801 0.0
O96 O 0.57939 0.81518 0.61774 0.0
C97 C 0.62206 0.63908 0.56158 0.0
Zn98 Zn 0.87832 0.25996 0.5367 0.0
Zn99 Zn 0.89673 0.25467 0.5802 0.0
O100 O 0.92921 0.22472 0.55995 0.0
O101 O 0.91537 0.23526 0.52342 0.0
O102 O 0.91247 0.2589 0.61305 0.0
O103 O 0.86811 0.33188 0.53822 0.0
O104 O 0.87907 0.32413 0.57547 0.0
C105 C 0.93351 0.21895 0.53802 0.0
C106 C 0.8469 0.19078 0.56689 0.0
O107 O 0.86466 0.20448 0.58254 0.0
O108 O 0.84815 0.20905 0.54641 0.0
C109 C 0.9155 0.22082 0.62596 0.0
O110 O 0.90976 0.17682 0.61722 0.0
C111 C 0.86866 0.34974 0.55871 0.0
H112 H 0.35221 0.06844 0.03249 0.0
H113 H 0.31025 0.01611 0.03948 0.0
H114 H 0.31008 0.05909 0.11224 0.0
H115 H 0.3522 0.11127 0.10558 0.0
H116 H 0.29231 0.93907 0.07907 0.0
H117 H 0.23592 0.12143 0.07518 0.0
H118 H 0.27108 0.11276 0.06251 0.0
H119 H 0.26703 0.11515 0.09374 0.0
C120 C 0.34401 0.06525 0.05019 0.0
C121 C 0.3552 0.09482 0.06836 0.0
C122 C 0.31999 0.03542 0.05413 0.0
C123 C 0.30689 0.03476 0.07624 0.0
C124 C 0.31988 0.05961 0.09502 0.0
H125 H 0.14469 0.88071 0.10216 0.0
H126 H 0.18726 0.93109 0.11004 0.0
C127 C 0.34407 0.08919 0.09116 0.0
C128 C 0.27759 0.01459 0.07855 0.0
H129 H 0.20717 0.04985 0.07656 0.0
C130 C 0.27366 0.96313 0.07895 0.0
C131 C 0.25344 0.04642 0.0781 0.0
C132 C 0.25681 0.10208 0.07727 0.0
C133 C 0.246 0.94251 0.07845 0.0
C134 C 0.22188 0.97433 0.07745 0.0
C135 C 0.22579 0.0258 0.07753 0.0
C136 C 0.19274 0.95417 0.07404 0.0
C137 C 0.24265 0.88684 0.07802 0.0
C138 C 0.18088 0.95327 0.05146 0.0
C139 C 0.1566 0.92449 0.04683 0.0
C140 C 0.14388 0.89625 0.06478 0.0
C141 C 0.15399 0.90183 0.0879 0.0
C142 C 0.17843 0.93034 0.09246 0.0
H143 H 0.26364 0.86739 0.07708 0.0
H144 H 0.23133 0.87451 0.09412 0.0
H145 H 0.22938 0.87551 0.06275 0.0
H146 H 0.19164 0.97181 0.03708 0.0
H147 H 0.14924 0.92128 0.02888 0.0
H148 H 0.14123 0.57442 0.47654 0.0
H149 H 0.18305 0.52123 0.47138 0.0
H150 H 0.18011 0.54572 0.39672 0.0
H151 H 0.13841 0.59973 0.40168 0.0
H152 H 0.19881 0.43767 0.44453 0.0
H153 H 0.25703 0.60864 0.41712 0.0
H154 H 0.22166 0.61051 0.42995 0.0
H155 H 0.22614 0.59206 0.39992 0.0
C156 C 0.14887 0.56738 0.45892 0.0
C157 C 0.13687 0.59229 0.43959 0.0
C158 C 0.17286 0.53704 0.45601 0.0
C159 C 0.18516 0.53099 0.43377 0.0
C160 C 0.17131 0.55108 0.41411 0.0
H161 H 0.34789 0.38123 0.40565 0.0
H162 H 0.30482 0.43166 0.39988 0.0
C163 C 0.14727 0.58151 0.41698 0.0
C164 C 0.21391 0.5081 0.43176 0.0
H165 H 0.28438 0.53578 0.42106 0.0
C166 C 0.21746 0.45891 0.43914 0.0
C167 C 0.23824 0.5362 0.4249 0.0
C168 C 0.23579 0.5899 0.41768 0.0
C169 C 0.24477 0.43724 0.44019 0.0
C170 C 0.26909 0.46572 0.43394 0.0
C171 C 0.26557 0.51434 0.42586 0.0
C172 C 0.29831 0.44559 0.4368 0.0
C173 C 0.2476 0.38425 0.4484 0.0
C174 C 0.30973 0.43967 0.45935 0.0
C175 C 0.33437 0.41117 0.46275 0.0
C176 C 0.34782 0.38787 0.44362 0.0
C177 C 0.33801 0.39843 0.42079 0.0
C178 C 0.31331 0.42703 0.41742 0.0
H179 H 0.22659 0.36475 0.44869 0.0
H180 H 0.26257 0.36343 0.43688 0.0
H181 H 0.25662 0.38384 0.46641 0.0
H182 H 0.29849 0.45434 0.47447 0.0
H183 H 0.34147 0.40419 0.48054 0.0
H184 H 0.65142 0.90432 0.98101 0.0
H185 H 0.69464 0.95403 0.97533 0.0
H186 H 0.68764 0.93497 0.90051 0.0
H187 H 0.64428 0.88511 0.90593 0.0
H188 H 0.7426 0.90301 0.95063 0.0
H189 H 0.71194 0.08448 0.9111 0.0
H190 H 0.68733 0.04889 0.92891 0.0
H191 H 0.69549 0.029 0.89969 0.0
C192 C 0.65843 0.91204 0.96327 0.0
C193 C 0.64462 0.89006 0.94394 0.0
C194 C 0.68323 0.94029 0.96009 0.0
C195 C 0.6944 0.94758 0.93755 0.0
C196 C 0.67922 0.92982 0.91805 0.0
H197 H 0.85327 0.10197 0.90306 0.0
H198 H 0.81301 0.04472 0.89828 0.0
C199 C 0.65437 0.90145 0.9212 0.0
C200 C 0.72368 0.96782 0.93485 0.0
H201 H 0.76117 0.06962 0.91711 0.0
C202 C 0.74675 0.93934 0.94319 0.0
C203 C 0.72892 0.01467 0.92474 0.0
C204 C 0.7047 0.0464 0.91564 0.0
C205 C 0.775 0.95717 0.94227 0.0
C206 C 0.78017 0.0051 0.93319 0.0
C207 C 0.75717 0.03277 0.924 0.0
C208 C 0.8085 0.02965 0.93534 0.0
C209 C 0.79898 0.92461 0.95115 0.0
C210 C 0.82022 0.03812 0.95765 0.0
C211 C 0.84333 0.07053 0.96045 0.0
C212 C 0.85487 0.09563 0.941 0.0
C213 C 0.84488 0.08337 0.91843 0.0
C214 C 0.82172 0.05089 0.91566 0.0
H215 H 0.79336 0.88469 0.94953 0.0
H216 H 0.81928 0.93156 0.94149 0.0
H217 H 0.80268 0.93253 0.97 0.0
H218 H 0.81015 0.02271 0.97314 0.0
H219 H 0.85053 0.079 0.97807 0.0
H220 H 0.64091 0.60595 0.60428 0.0
H221 H 0.68267 0.55278 0.61072 0.0
H222 H 0.6862 0.52058 0.53675 0.0
H223 H 0.64444 0.5733 0.53009 0.0
H224 H 0.70208 0.43931 0.56741 0.0
H225 H 0.75924 0.61633 0.5869 0.0
H226 H 0.72814 0.60227 0.60436 0.0
H227 H 0.72406 0.61496 0.57365 0.0
C228 C 0.64986 0.58613 0.58947 0.0
C229 C 0.63973 0.59472 0.56656 0.0
C230 C 0.67391 0.55613 0.59319 0.0
C231 C 0.68793 0.53412 0.5741 0.0
C232 C 0.67583 0.53785 0.55166 0.0
H233 H 0.8446 0.41448 0.52756 0.0
H234 H 0.80211 0.4652 0.53485 0.0
C235 C 0.65189 0.5679 0.5479 0.0
C236 C 0.71684 0.5123 0.57676 0.0
H237 H 0.78731 0.54407 0.5846 0.0
C238 C 0.72066 0.46197 0.57153 0.0
C239 C 0.74105 0.54231 0.58189 0.0
C240 C 0.73815 0.59706 0.58688 0.0
C241 C 0.74817 0.44098 0.57087 0.0
C242 C 0.77235 0.47127 0.57533 0.0
C243 C 0.76859 0.5212 0.58125 0.0
C244 C 0.80163 0.45172 0.5722 0.0
C245 C 0.75145 0.38685 0.56469 0.0
C246 C 0.81627 0.4302 0.59108 0.0
C247 C 0.8407 0.40137 0.58702 0.0
C248 C 0.85049 0.39332 0.56397 0.0
C249 C 0.83749 0.41956 0.54548 0.0
C250 C 0.81316 0.44844 0.54958 0.0
H251 H 0.73047 0.36728 0.564 0.0
H252 H 0.76197 0.3835 0.54731 0.0
H253 H 0.76543 0.36809 0.57773 0.0
H254 H 0.80761 0.43265 0.60867 0.0
H255 H 0.85022 0.38181 0.60167 0.0
H256 H 0.4005 0.34881 0.16206 0.0
H257 H 0.4057 0.34066 0.20457 0.0
H258 H 0.43771 0.19183 0.19583 0.0
H259 H 0.43251 0.19944 0.15327 0.0
H260 H 0.37649 0.26207 0.23098 0.0
H261 H 0.4951 0.26159 0.24259 0.0
H262 H 0.47783 0.28791 0.21708 0.0
H263 H 0.48097 0.22188 0.21998 0.0
C264 C 0.40906 0.31458 0.16912 0.0
C265 C 0.41601 0.2747 0.15427 0.0
C266 C 0.41197 0.31001 0.19341 0.0
C267 C 0.42226 0.26581 0.20326 0.0
C268 C 0.43007 0.22647 0.18851 0.0
H269 H 0.40417 0.14798 0.34353 0.0
H270 H 0.40913 0.15948 0.30114 0.0
C271 C 0.42696 0.23084 0.16421 0.0
C272 C 0.42262 0.25944 0.22902 0.0
H273 H 0.46694 0.24282 0.27612 0.0
C274 C 0.39625 0.25803 0.24087 0.0
C275 C 0.44846 0.25427 0.24179 0.0
C276 C 0.47728 0.2568 0.22983 0.0
C277 C 0.39503 0.25083 0.26519 0.0
C278 C 0.42082 0.24498 0.27792 0.0
C279 C 0.44724 0.24705 0.26618 0.0
C280 C 0.42044 0.23708 0.30353 0.0
C281 C 0.36622 0.24955 0.27725 0.0
C282 C 0.42565 0.27683 0.31878 0.0
C283 C 0.42266 0.27055 0.34299 0.0
C284 C 0.41459 0.22427 0.35231 0.0
C285 C 0.41041 0.18408 0.33694 0.0
C286 C 0.41322 0.19052 0.31274 0.0
H287 H 0.34839 0.25985 0.26526 0.0
H288 H 0.36215 0.2116 0.28403 0.0
H289 H 0.36618 0.27525 0.29247 0.0
H290 H 0.4312 0.31304 0.3119 0.0
H291 H 0.42613 0.3022 0.35434 0.0
H292 H 0.07658 0.68385 0.34722 0.0
H293 H 0.07194 0.67847 0.30461 0.0
H294 H 0.05898 0.83661 0.30089 0.0
H295 H 0.06398 0.84257 0.34352 0.0
H296 H 0.02742 0.70719 0.27371 0.0
H297 H 0.1281 0.81265 0.25766 0.0
H298 H 0.11889 0.78805 0.2861 0.0
H299 H 0.10216 0.84389 0.27566 0.0
C300 C 0.07258 0.71752 0.33739 0.0
C301 C 0.07094 0.76375 0.34877 0.0
C302 C 0.06988 0.71432 0.31303 0.0
C303 C 0.06558 0.75722 0.29959 0.0
C304 C 0.06284 0.80317 0.31093 0.0
H305 H 0.06733 0.80589 0.14887 0.0
H306 H 0.06062 0.81489 0.19115 0.0
C307 C 0.06557 0.80646 0.3353 0.0
C308 C 0.06493 0.75389 0.27366 0.0
H309 H 0.1011 0.78953 0.22443 0.0
C310 C 0.04347 0.72524 0.2629 0.0
C311 C 0.08596 0.77741 0.25964 0.0
C312 C 0.11025 0.8069 0.27028 0.0
C313 C 0.04235 0.71977 0.23841 0.0
C314 C 0.06354 0.74294 0.22443 0.0
C315 C 0.08481 0.77198 0.2352 0.0
C316 C 0.06473 0.73655 0.19862 0.0
C317 C 0.01835 0.68974 0.22772 0.0
C318 C 0.06908 0.68944 0.18877 0.0
C319 C 0.07289 0.68411 0.16458 0.0
C320 C 0.07266 0.72591 0.14982 0.0
C321 C 0.06764 0.77292 0.15971 0.0
C322 C 0.06381 0.77817 0.18388 0.0
H323 H -0.00021 0.68639 0.23985 0.0
H324 H 0.01085 0.70657 0.21104 0.0
H325 H 0.02627 0.65179 0.22388 0.0
H326 H 0.07047 0.65693 0.19987 0.0
H327 H 0.07683 0.64742 0.15757 0.0
H328 H 0.57158 0.65395 0.84414 0.0
H329 H 0.56602 0.6651 0.80181 0.0
H330 H 0.56252 0.82366 0.81127 0.0
H331 H 0.56851 0.81302 0.85356 0.0
H332 H 0.52338 0.71234 0.77443 0.0
H333 H 0.62959 0.80454 0.76562 0.0
H334 H 0.61907 0.77154 0.79177 0.0
H335 H 0.60576 0.83305 0.78636 0.0
C336 C 0.56943 0.69121 0.83726 0.0
C337 C 0.57082 0.73263 0.85222 0.0
C338 C 0.56622 0.69748 0.81307 0.0
C339 C 0.56438 0.74522 0.8034 0.0
C340 C 0.5645 0.78654 0.81835 0.0
H341 H 0.56824 0.84866 0.65877 0.0
H342 H 0.56185 0.84349 0.70127 0.0
C343 C 0.5678 0.78034 0.84253 0.0
C344 C 0.5634 0.75178 0.77762 0.0
H345 H 0.60104 0.79966 0.73153 0.0
C346 C 0.54031 0.73149 0.76502 0.0
C347 C 0.58556 0.77672 0.76542 0.0
C348 C 0.61155 0.79737 0.7779 0.0
C349 C 0.5387 0.73579 0.7405 0.0
C350 C 0.561 0.76036 0.72831 0.0
C351 C 0.5839 0.7811 0.74095 0.0
C352 C 0.56181 0.76328 0.70237 0.0
C353 C 0.51305 0.71443 0.72789 0.0
C354 C 0.56374 0.71987 0.6889 0.0
C355 C 0.5674 0.72267 0.66462 0.0
C356 C 0.56941 0.76898 0.65337 0.0
C357 C 0.56676 0.8124 0.66686 0.0
C358 C 0.56312 0.80955 0.69115 0.0
H359 H 0.49444 0.7097 0.73987 0.0
H360 H 0.50648 0.73845 0.71301 0.0
H361 H 0.51872 0.67739 0.7208 0.0
H362 H 0.56339 0.68379 0.69724 0.0
H363 H 0.56945 0.6885 0.65477 0.0
H364 H 0.92752 0.30662 0.64965 0.0
H365 H 0.93405 0.31705 0.69189 0.0
H366 H 0.92457 0.15929 0.70171 0.0
H367 H 0.91843 0.14835 0.65947 0.0
H368 H 0.89344 0.29277 0.72493 0.0
H369 H 0.99441 0.19035 0.74224 0.0
H370 H 0.98372 0.20926 0.71315 0.0
H371 H 0.96825 0.15485 0.72632 0.0
C372 C 0.92729 0.27399 0.66073 0.0
C373 C 0.9224 0.22662 0.65117 0.0
C374 C 0.93102 0.28006 0.68488 0.0
C375 C 0.93011 0.23892 0.69992 0.0
C376 C 0.92597 0.19145 0.69039 0.0
H377 H 0.91439 0.18824 0.84819 0.0
H378 H 0.92028 0.18265 0.8057 0.0
C379 C 0.92228 0.18531 0.66623 0.0
C380 C 0.93093 0.24614 0.72569 0.0
H381 H 0.96591 0.21115 0.77566 0.0
C382 C 0.90949 0.27543 0.73601 0.0
C383 C 0.9518 0.22324 0.74009 0.0
C384 C 0.97602 0.19303 0.7299 0.0
C385 C 0.90781 0.28126 0.76041 0.0
C386 C 0.92846 0.25787 0.77485 0.0
C387 C 0.95014 0.22908 0.76453 0.0
C388 C 0.9271 0.26132 0.80075 0.0
C389 C 0.88333 0.31096 0.77057 0.0
C390 C 0.92969 0.30729 0.81211 0.0
C391 C 0.92624 0.31069 0.83641 0.0
C392 C 0.92029 0.26808 0.84979 0.0
C393 C 0.91881 0.22182 0.83842 0.0
C394 C 0.92223 0.2185 0.81413 0.0
H395 H 0.86586 0.31686 0.7576 0.0
H396 H 0.8742 0.29219 0.78621 0.0
H397 H 0.8914 0.34788 0.77611 0.0
H398 H 0.93397 0.34065 0.80212 0.0
H399 H 0.92773 0.34681 0.84463 0.0
H400 H 0.46356 0.34185 0.06758 0.0
H401 H 0.48399 0.41945 0.05308 0.0
H402 H 0.47268 0.36936 0.9819 0.0
H403 H 0.45189 0.29182 0.99615 0.0
H404 H 0.52837 0.44927 0.02177 0.0
H405 H 0.4195 0.49164 0.98717 0.0
H406 H 0.42625 0.44099 0.00711 0.0
H407 H 0.43508 0.43496 0.97658 0.0
C408 C 0.46628 0.3465 0.04885 0.0
C409 C 0.45551 0.31103 0.03301 0.0
C410 C 0.4778 0.39109 0.0406 0.0
C411 C 0.47886 0.40068 0.01644 0.0
C412 C 0.47124 0.3631 1.00062 0.0
H413 H 0.52487 0.65859 0.93536 0.0
H414 H 0.5028 0.58127 0.94858 0.0
C415 C 0.45963 0.31861 0.00883 0.0
C416 C 0.48543 0.45129 0.00794 0.0
H417 H 0.45589 0.55073 0.97961 0.0
C418 C 0.51256 0.4715 0.01258 0.0
C419 C 0.4646 0.48024 0.99608 0.0
C420 C 0.43462 0.46117 0.99158 0.0
C421 C 0.51962 0.51969 0.00531 0.0
C422 C 0.49877 0.54866 0.99351 0.0
C423 C 0.47169 0.52843 0.98877 0.0
C424 C 0.50533 0.59955 0.98544 0.0
C425 C 0.54954 0.53894 0.00992 0.0
C426 C 0.51189 0.63681 0.00172 0.0
C427 C 0.52439 0.68116 0.99425 0.0
C428 C 0.53056 0.68877 0.97037 0.0
C429 C 0.52058 0.65389 0.95389 0.0
C430 C 0.50813 0.60945 0.96141 0.0
H431 H 0.56466 0.50862 0.01455 0.0
H432 H 0.55801 0.55887 0.99435 0.0
H433 H 0.54891 0.56546 0.02479 0.0
H434 H 0.5092 0.63019 0.02033 0.0
H435 H 0.53147 0.70751 0.00738 0.0
H436 H 0.02783 0.6597 0.06258 0.0
H437 H 0.00549 0.58418 0.04754 0.0
H438 H 0.01825 0.63537 0.97671 0.0
H439 H 0.04103 0.71078 0.99152 0.0
H440 H 0.96086 0.55745 0.01627 0.0
H441 H 0.06875 0.51014 0.98112 0.0
H442 H 0.06301 0.56083 1.00123 0.0
H443 H 0.05408 0.5677 0.97075 0.0
C444 C 0.02503 0.65582 0.04382 0.0
C445 C 0.0368 0.69082 0.02824 0.0
C446 C 0.0124 0.6124 0.03525 0.0
C447 C 0.0112 0.60354 0.01103 0.0
C448 C 0.01977 0.64098 0.99547 0.0
H449 H 0.96192 0.34424 0.93085 0.0
H450 H 0.98355 0.42267 0.94322 0.0
C451 C 0.03253 0.68429 0.004 0.0
C452 C 0.00364 0.55355 0.00223 0.0
H453 H 0.03145 0.45282 0.97376 0.0
C454 C 0.97624 0.53458 0.00696 0.0
C455 C 0.02392 0.52371 0.99023 0.0
C456 C 0.05418 0.5413 0.98567 0.0
C457 C 0.96842 0.48669 0.99974 0.0
C458 C 0.98873 0.45681 0.98786 0.0
C459 C 0.01604 0.47586 0.98294 0.0
C460 C 0.9816 0.40584 0.98025 0.0
C461 C 0.93833 0.4686 0.00461 0.0
C462 C 0.97534 0.36922 0.99692 0.0
C463 C 0.96313 0.32428 0.98995 0.0
C464 C 0.95697 0.31534 0.96616 0.0
C465 C 0.96627 0.34994 0.94931 0.0
C466 C 0.97846 0.39498 0.95634 0.0
H467 H 0.92363 0.49955 0.00919 0.0
H468 H 0.92947 0.44864 0.98919 0.0
H469 H 0.93881 0.44236 0.0196 0.0
H470 H 0.97826 0.37662 0.01544 0.0
H471 H 0.95652 0.29823 0.00336 0.0
H472 H 0.52815 0.83759 0.56876 0.0
H473 H 0.50614 0.91442 0.5549 0.0
H474 H 0.51909 0.8682 0.48332 0.0
H475 H 0.54081 0.79118 0.49693 0.0
H476 H 0.54026 0.97943 0.52811 0.0
H477 H 0.43946 0.9322 0.4812 0.0
H478 H 0.45605 0.89081 0.5021 0.0
H479 H 0.46984 0.89533 0.47276 0.0
C480 C 0.52526 0.84275 0.55007 0.0
C481 C 0.53657 0.80846 0.53394 0.0
C482 C 0.51288 0.88693 0.54219 0.0
C483 C 0.51119 0.89713 0.5181 0.0
C484 C 0.51994 0.86091 0.50198 0.0
H485 H 0.46641 0.15556 0.43582 0.0
H486 H 0.48998 0.07924 0.44851 0.0
C487 C 0.53239 0.81683 0.50982 0.0
C488 C 0.50408 0.94775 0.50989 0.0
H489 H 0.45823 0.01319 0.47506 0.0
C490 C 0.52219 0.98694 0.51664 0.0
C491 C 0.4808 0.95722 0.49468 0.0
C492 C 0.46025 0.91678 0.48739 0.0
C493 C 0.51778 0.03539 0.5084 0.0
C494 C 0.49439 0.04494 0.49329 0.0
C495 C 0.47635 0.00568 0.48647 0.0
C496 C 0.48684 0.09573 0.48553 0.0
C497 C 0.53844 0.0757 0.51564 0.0
C498 C 0.47875 0.13152 0.50211 0.0
C499 C 0.46547 0.17537 0.49492 0.0
C500 C 0.45968 0.18387 0.47103 0.0
C501 C 0.47047 0.15026 0.45435 0.0
C502 C 0.48375 0.10635 0.46157 0.0
H503 H 0.55955 0.06015 0.52096 0.0
H504 H 0.54188 0.10274 0.50123 0.0
H505 H 0.52946 0.09592 0.53091 0.0
H506 H 0.48064 0.12394 0.52069 0.0
H507 H 0.45753 0.20051 0.50824 0.0
H508 H 0.95141 0.20299 0.49302 0.0
H509 H 0.97293 0.12656 0.4782 0.0
H510 H 0.9841 0.07407 0.54901 0.0
H511 H 0.963 0.15064 0.56406 0.0
H512 H 0.02864 0.04572 0.51797 0.0
H513 H 0.92046 0.00353 0.48186 0.0
H514 H 0.93601 0.06065 0.47177 0.0
H515 H 0.92677 0.05367 0.50219 0.0
C516 C 0.9593 0.17594 0.50549 0.0
C517 C 0.95497 0.18251 0.52972 0.0
C518 C 0.97132 0.13206 0.49697 0.0
C519 C 0.97908 0.09406 0.5125 0.0
C520 C 0.97781 0.10275 0.53673 0.0
H521 H 0.03043 0.78709 0.50248 0.0
H522 H 0.0089 0.86509 0.51526 0.0
C523 C 0.96592 0.14676 0.54531 0.0
C524 C 0.98596 0.04387 0.5036 0.0
H525 H 0.95713 0.94517 0.47414 0.0
C526 C 0.01304 0.02371 0.5084 0.0
C527 C 0.9654 0.01516 0.49126 0.0
C528 C 0.93543 0.03404 0.4866 0.0
C529 C 0.02032 0.97581 0.50086 0.0
C530 C -0.00025 0.94712 0.48857 0.0
C531 C 0.97273 0.9673 0.48364 0.0
C532 C 0.00642 0.89635 0.48042 0.0
C533 C 0.05013 0.95648 0.50578 0.0
C534 C 0.00992 0.88678 0.45642 0.0
C535 C 0.02199 0.84197 0.44899 0.0
C536 C 0.03084 0.80634 0.46552 0.0
C537 C 0.02418 0.81396 0.48931 0.0
C538 C 0.0121 0.85867 0.4967 0.0
H539 H 0.06513 0.98667 0.51089 0.0
H540 H 0.04915 0.92941 0.52042 0.0
H541 H 0.05895 0.93711 0.49019 0.0
H542 H 0.00529 0.91531 0.44359 0.0
H543 H 0.02672 0.83731 0.43052 0.0
H544 H 0.15137 0.63555 0.10265 0.0
H545 H 0.18572 0.56824 0.10918 0.0
H546 H 0.22272 0.59471 0.04103 0.0
H547 H 0.18869 0.66201 0.03432 0.0
H548 H 0.19175 0.48233 0.07987 0.0
H549 H 0.29246 0.59156 0.08627 0.0
H550 H 0.25738 0.61891 0.09013 0.0
H551 H 0.27081 0.60652 0.06118 0.0
C552 C 0.167 0.62736 0.08914 0.0
C553 C 0.16735 0.65412 0.06796 0.0
C554 C 0.18654 0.58893 0.09291 0.0
C555 C 0.20687 0.57714 0.0757 0.0
C556 C 0.20745 0.60397 0.05467 0.0
H557 H 0.30173 0.32238 0.03739 0.0
H558 H 0.26658 0.38837 0.0432 0.0
C559 C 0.18789 0.6422 0.05082 0.0
C560 C 0.22655 0.53497 0.07901 0.0
H561 H 0.29752 0.50441 0.07949 0.0
C562 C 0.21488 0.48707 0.08014 0.0
C563 C 0.25662 0.54156 0.07959 0.0
C564 C 0.27012 0.59244 0.07945 0.0
C565 C 0.23267 0.4452 0.08068 0.0
C566 C 0.26273 0.45173 0.07988 0.0
C567 C 0.2744 0.49969 0.07993 0.0
C568 C 0.28248 0.40939 0.07744 0.0
C569 C 0.21921 0.39433 0.08168 0.0
C570 C 0.30307 0.39977 0.09476 0.0
C571 C 0.32322 0.36211 0.09151 0.0
C572 C 0.32326 0.33399 0.07073 0.0
C573 C 0.30227 0.34336 0.05358 0.0
C574 C 0.28206 0.38081 0.05692 0.0
H575 H 0.19686 0.39586 0.08844 0.0
H576 H 0.21857 0.37836 0.06376 0.0
H577 H 0.23198 0.36906 0.09298 0.0
H578 H 0.30377 0.42183 0.11063 0.0
H579 H 0.33916 0.35588 0.10503 0.0
H580 H 0.31858 0.13223 0.47417 0.0
H581 H 0.28538 0.06353 0.46769 0.0
H582 H 0.29837 0.07506 0.39306 0.0
H583 H 0.33193 0.14397 0.39928 0.0
H584 H 0.23684 0.06929 0.41265 0.0
H585 H 0.31164 0.92125 0.44208 0.0
H586 H 0.30988 0.97544 0.46044 0.0
H587 H 0.32392 0.9806 0.43124 0.0
C588 C 0.31439 0.12035 0.45635 0.0
C589 C 0.32795 0.14343 0.43723 0.0
C590 C 0.29551 0.08102 0.45272 0.0
C591 C 0.28981 0.06422 0.42995 0.0
C592 C 0.30276 0.08759 0.41075 0.0
H593 H 0.16008 0.83771 0.39622 0.0
H594 H 0.19706 0.9014 0.39107 0.0
C595 C 0.32187 0.12682 0.41436 0.0
C596 C 0.27005 0.02229 0.4265 0.0
H597 H 0.26231 0.89944 0.43895 0.0
C598 C 0.2424 0.03188 0.41798 0.0
C599 C 0.27766 0.97387 0.43352 0.0
C600 C 0.30746 0.96182 0.44218 0.0
C601 C 0.22145 0.99451 0.41755 0.0
C602 C 0.22875 0.94639 0.42544 0.0
C603 C 0.25684 0.93644 0.43296 0.0
C604 C 0.20702 0.90697 0.42804 0.0
C605 C 0.19134 0.00743 0.40992 0.0
C606 C 0.20101 0.8883 0.45044 0.0
C607 C 0.18019 0.85177 0.45343 0.0
C608 C 0.16497 0.83322 0.43404 0.0
C609 C 0.17132 0.8515 0.41152 0.0
C610 C 0.19231 0.888 0.40854 0.0
H611 H 0.18802 0.04816 0.40871 0.0
H612 H 0.1872 0.99116 0.39237 0.0
H613 H 0.17533 0.99183 0.42231 0.0
H614 H 0.21222 0.90251 0.46568 0.0
H615 H 0.17585 0.8385 0.47099 0.0
H616 H 0.65674 0.64797 0.89679 0.0
H617 H 0.68941 0.57813 0.88989 0.0
H618 H 0.70088 0.56085 0.96445 0.0
H619 H 0.66859 0.6304 0.9716 0.0
H620 H 0.75021 0.56963 0.90973 0.0
H621 H 0.67462 0.42089 0.93686 0.0
H622 H 0.66271 0.4811 0.92685 0.0
H623 H 0.67636 0.47371 0.95609 0.0
C624 C 0.66624 0.62929 0.91171 0.0
C625 C 0.66007 0.64462 0.93476 0.0
C626 C 0.68483 0.58952 0.90771 0.0
C627 C 0.69712 0.56431 0.92669 0.0
C628 C 0.69123 0.57971 0.94964 0.0
H629 H 0.81026 0.34093 0.96931 0.0
H630 H 0.77341 0.40354 0.96286 0.0
C631 C 0.67289 0.61957 0.95366 0.0
C632 C 0.7167 0.5223 0.92286 0.0
H633 H 0.72417 0.39922 0.93487 0.0
C634 C 0.74451 0.53209 0.91475 0.0
C635 C 0.70892 0.47369 0.92948 0.0
C636 C 0.67895 0.4614 0.93764 0.0
C637 C 0.76547 0.49478 0.91448 0.0
C638 C 0.75803 0.44653 0.92212 0.0
C639 C 0.72975 0.43632 0.92907 0.0
C640 C 0.77982 0.40746 0.92533 0.0
C641 C 0.79575 0.50795 0.90742 0.0
C642 C 0.79535 0.38858 0.90627 0.0
C643 C 0.81663 0.35289 0.90991 0.0
C644 C 0.82247 0.33535 0.93265 0.0
C645 C 0.80636 0.35367 0.95159 0.0
C646 C 0.78525 0.38938 0.94794 0.0
H647 H 0.79898 0.54869 0.90612 0.0
H648 H 0.81143 0.49275 0.9202 0.0
H649 H 0.80047 0.49141 0.89003 0.0
H650 H 0.79108 0.40154 0.88864 0.0
H651 H 0.82856 0.33925 0.89494 0.0
H652 H 0.65291 0.8515 0.60926 0.0
H653 H 0.68774 0.91797 0.61634 0.0
H654 H 0.72314 0.89583 0.5473 0.0
H655 H 0.6887 0.82937 0.54004 0.0
H656 H 0.76458 0.90695 0.58529 0.0
H657 H 0.68121 0.05511 0.5821 0.0
H658 H 0.67538 0.00404 0.60186 0.0
H659 H 0.67481 0.99352 0.57081 0.0
C660 C 0.66825 0.86054 0.59564 0.0
C661 C 0.66792 0.83545 0.574 0.0
C662 C 0.68803 0.89854 0.59972 0.0
C663 C 0.7077 0.91186 0.58224 0.0
C664 C 0.70803 0.88593 0.56096 0.0
H665 H 0.80375 0.15773 0.53861 0.0
H666 H 0.76976 0.09095 0.54655 0.0
C667 C 0.68828 0.84811 0.55683 0.0
C668 C 0.72735 0.95413 0.58547 0.0
H669 H 0.72927 0.08058 0.58524 0.0
C670 C 0.75696 0.94496 0.58569 0.0
C671 C 0.7171 0.00345 0.58579 0.0
C672 C 0.68541 0.01501 0.58499 0.0
C673 C 0.77676 0.98409 0.58536 0.0
C674 C 0.7665 0.0334 0.58502 0.0
C675 C 0.7369 0.04258 0.58566 0.0
C676 C 0.78605 0.07562 0.58132 0.0
C677 C 0.80842 0.97253 0.58414 0.0
C678 C 0.80607 0.08941 0.59847 0.0
C679 C 0.82559 0.12761 0.594 0.0
C680 C 0.8253 0.15242 0.57229 0.0
C681 C 0.80465 0.13921 0.55543 0.0
C682 C 0.78515 0.1012 0.55996 0.0
H683 H 0.81256 0.93237 0.58138 0.0
H684 H 0.81866 0.9937 0.56968 0.0
H685 H 0.81887 0.98391 0.60078 0.0
H686 H 0.8068 0.07025 0.61515 0.0
H687 H 0.84118 0.13706 0.60738 0.0
loop_
_geom_bond_atom_site_label_1
_geom_bond_atom_site_label_2
_geom_bond_distance
_geom_bond_site_symmetry_2
_ccdc_geom_bond_type
Zn0 O3 2.031 . S
Zn0 O5 2.049 . S
Zn0 O10 2.067 . S
Zn1 O2 1.962 . S
Zn1 O4 1.986 . S
Zn1 O6 1.996 . S
Zn1 O9 1.943 . S
O2 Zn1 1.962 . S
O2 C7 1.254 . S
O3 Zn0 2.031 . S
O3 C7 1.269 . S
O4 Zn1 1.986 . S
O4 C11 1.262 . S
O5 Zn0 2.049 . S
O5 C13 1.260 . S
O6 Zn1 1.996 . S
O6 C13 1.257 . S
C7 O2 1.254 . S
C7 O3 1.269 . S
C8 O9 1.249 . S
C8 O10 1.270 . S
O9 Zn1 1.943 . S
O9 C8 1.249 . S
O10 Zn0 2.067 . S
O10 C8 1.270 . S
C11 O4 1.262 . S
C11 O12 1.232 . S
O12 C11 1.232 . S
C13 O5 1.260 . S
C13 O6 1.257 . S
Zn14 O17 2.031 . S
Zn14 O19 2.049 . S
Zn14 O24 2.067 . S
Zn15 O16 1.962 . S
Zn15 O18 1.986 . S
Zn15 O20 1.996 . S
Zn15 O23 1.943 . S
O16 Zn15 1.962 . S
O16 C21 1.254 . S
O17 Zn14 2.031 . S
O17 C21 1.269 . S
O18 Zn15 1.986 . S
O18 C25 1.262 . S
O19 Zn14 2.049 . S
O19 C27 1.260 . S
O20 Zn15 1.996 . S
O20 C27 1.257 . S
C21 O16 1.254 . S
C21 O17 1.269 . S
C22 O23 1.249 . S
C22 O24 1.270 . S
O23 Zn15 1.943 . S
O23 C22 1.249 . S
O24 Zn14 2.067 . S
O24 C22 1.270 . S
C25 O18 1.262 . S
C25 O26 1.232 . S
O26 C25 1.232 . S
C27 O19 1.260 . S
C27 O20 1.257 . S
Zn28 O31 2.031 . S
Zn28 O33 2.049 . S
Zn28 O38 2.067 . S
Zn29 O30 1.962 . S
Zn29 O32 1.986 . S
Zn29 O34 1.996 . S
Zn29 O37 1.943 . S
O30 Zn29 1.962 . S
O30 C35 1.254 . S
O31 Zn28 2.031 . S
O31 C35 1.269 . S
O32 Zn29 1.986 . S
O32 C39 1.262 . S
O33 Zn28 2.049 . S
O33 C41 1.260 . S
O34 Zn29 1.996 . S
O34 C41 1.257 . S
C35 O30 1.254 . S
C35 O31 1.269 . S
C36 O37 1.249 . S
C36 O38 1.270 . S
O37 Zn29 1.943 . S
O37 C36 1.249 . S
O38 Zn28 2.067 . S
O38 C36 1.270 . S
C39 O32 1.262 . S
C39 O40 1.232 . S
O40 C39 1.232 . S
C41 O33 1.260 . S
C41 O34 1.257 . S
Zn42 O45 2.031 . S
Zn42 O47 2.049 . S
Zn42 O52 2.067 . S
Zn43 O44 1.962 . S
Zn43 O46 1.986 . S
Zn43 O48 1.996 . S
Zn43 O51 1.943 . S
O44 Zn43 1.962 . S
O44 C49 1.254 . S
O45 Zn42 2.031 . S
O45 C49 1.269 . S
O46 Zn43 1.986 . S
O46 C53 1.262 . S
O47 Zn42 2.049 . S
O47 C55 1.260 . S
O48 Zn43 1.996 . S
O48 C55 1.257 . S
C49 O44 1.254 . S
C49 O45 1.269 . S
C50 O51 1.249 . S
C50 O52 1.270 . S
O51 Zn43 1.943 . S
O51 C50 1.249 . S
O52 Zn42 2.067 . S
O52 C50 1.270 . S
C53 O46 1.262 . S
C53 O54 1.232 . S
O54 C53 1.232 . S
C55 O47 1.260 . S
C55 O48 1.257 . S
Zn56 O59 2.031 . S
Zn56 O61 2.049 . S
Zn56 O66 2.067 . S
Zn57 O58 1.962 . S
Zn57 O60 1.986 . S
Zn57 O62 1.996 . S
Zn57 O65 1.943 . S
O58 Zn57 1.962 . S
O58 C63 1.254 . S
O59 Zn56 2.031 . S
O59 C63 1.269 . S
O60 Zn57 1.986 . S
O60 C67 1.262 . S
O61 Zn56 2.049 . S
O61 C69 1.260 . S
O62 Zn57 1.996 . S
O62 C69 1.257 . S
C63 O58 1.254 . S
C63 O59 1.269 . S
C64 O65 1.249 . S
C64 O66 1.270 . S
O65 Zn57 1.943 . S
O65 C64 1.249 . S
O66 Zn56 2.067 . S
O66 C64 1.270 . S
C67 O60 1.262 . S
C67 O68 1.232 . S
O68 C67 1.232 . S
C69 O61 1.260 . S
C69 O62 1.257 . S
Zn70 O73 2.031 . S
Zn70 O75 2.049 . S
Zn70 O80 2.067 . S
Zn71 O72 1.962 . S
Zn71 O74 1.986 . S
Zn71 O76 1.996 . S
Zn71 O79 1.943 . S
O72 Zn71 1.962 . S
O72 C77 1.254 . S
O73 Zn70 2.031 . S
O73 C77 1.269 . S
O74 Zn71 1.986 . S
O74 C81 1.262 . S
O75 Zn70 2.049 . S
O75 C83 1.260 . S
O76 Zn71 1.996 . S
O76 C83 1.257 . S
C77 O72 1.254 . S
C77 O73 1.269 . S
C78 O79 1.249 . S
C78 O80 1.270 . S
O79 Zn71 1.943 . S
O79 C78 1.249 . S
O80 Zn70 2.067 . S
O80 C78 1.270 . S
C81 O74 1.262 . S
C81 O82 1.232 . S
O82 C81 1.232 . S
C83 O75 1.260 . S
C83 O76 1.257 . S
Zn84 O87 2.031 . S
Zn84 O89 2.049 . S
Zn84 O94 2.067 . S
Zn85 O86 1.962 . S
Zn85 O88 1.986 . S
Zn85 O90 1.996 . S
Zn85 O93 1.943 . S
O86 Zn85 1.962 . S
O86 C91 1.254 . S
O87 Zn84 2.031 . S
O87 C91 1.269 . S
O88 Zn85 1.986 . S
O88 C95 1.262 . S
O89 Zn84 2.049 . S
O89 C97 1.260 . S
O90 Zn85 1.996 . S
O90 C97 1.257 . S
C91 O86 1.254 . S
C91 O87 1.269 . S
C92 O93 1.249 . S
C92 O94 1.270 . S
O93 Zn85 1.943 . S
O93 C92 1.249 . S
O94 Zn84 2.067 . S
O94 C92 1.270 . S
C95 O88 1.262 . S
C95 O96 1.232 . S
O96 C95 1.232 . S
C97 O89 1.260 . S
C97 O90 1.257 . S
Zn98 O101 2.031 . S
Zn98 O103 2.049 . S
Zn98 O108 2.067 . S
Zn99 O100 1.962 . S
Zn99 O102 1.986 . S
Zn99 O104 1.996 . S
Zn99 O107 1.943 . S
O100 Zn99 1.962 . S
O100 C105 1.254 . S
O101 Zn98 2.031 . S
O101 C105 1.269 . S
O102 Zn99 1.986 . S
O102 C109 1.262 . S
O103 Zn98 2.049 . S
O103 C111 1.260 . S
O104 Zn99 1.996 . S
O104 C111 1.257 . S
C105 O100 1.254 . S
C105 O101 1.269 . S
C106 O107 1.249 . S
C106 O108 1.270 . S
O107 Zn99 1.943 . S
O107 C106 1.249 . S
O108 Zn98 2.067 . S
O108 C106 1.270 . S
C109 O102 1.262 . S
C109 O110 1.232 . S
O110 C109 1.232 . S
C111 O103 1.260 . S
C111 O104 1.257 . S
H112 C120 0.929 . S
H113 C122 0.930 . S
H114 C124 0.930 . S
H115 C127 0.929 . S
H116 C130 0.930 . S
H117 C132 0.960 . S
H118 C132 0.960 . S
H119 C132 0.960 . S
C120 H112 0.929 . S
C120 C121 1.377 . S
C120 C122 1.384 . S
C121 C120 1.377 . S
C121 C127 1.390 . S
C122 H113 0.930 . S
C122 C120 1.384 . S
C122 C123 1.372 . S
C123 C122 1.372 . S
C123 C124 1.400 . S
C123 C128 1.490 . S
C124 H114 0.930 . S
C124 C123 1.400 . S
C124 C127 1.386 . S
H125 C141 0.930 . S
H126 C142 0.931 . S
C127 H115 0.929 . S
C127 C121 1.390 . S
C127 C124 1.386 . S
C128 C123 1.490 . S
C128 C130 1.395 1_545 S
C128 C131 1.403 . S
H129 C135 0.930 . S
C130 H116 0.930 . S
C130 C128 1.395 1_565 S
C130 C133 1.403 . S
C131 C128 1.403 . S
C131 C132 1.524 . S
C131 C135 1.400 . S
C132 H117 0.960 . S
C132 H118 0.960 . S
C132 H119 0.960 . S
C132 C131 1.524 . S
C133 C130 1.403 . S
C133 C134 1.392 . S
C133 C137 1.495 . S
C134 C133 1.392 . S
C134 C135 1.385 1_565 S
C134 C136 1.478 . S
C135 H129 0.930 . S
C135 C131 1.400 . S
C135 C134 1.385 1_545 S
C136 C134 1.478 . S
C136 C138 1.381 . S
C136 C142 1.383 . S
C137 C133 1.495 . S
C137 H143 0.959 . S
C137 H144 0.961 . S
C137 H145 0.960 . S
C138 C136 1.381 . S
C138 C139 1.394 . S
C138 H146 0.930 . S
C139 C138 1.394 . S
C139 C140 1.383 . S
C139 H147 0.929 . S
C140 C139 1.383 . S
C140 C141 1.377 . S
C141 H125 0.930 . S
C141 C140 1.377 . S
C141 C142 1.379 . S
C142 H126 0.931 . S
C142 C136 1.383 . S
C142 C141 1.379 . S
H143 C137 0.959 . S
H144 C137 0.961 . S
H145 C137 0.960 . S
H146 C138 0.930 . S
H147 C139 0.929 . S
H148 C156 0.929 . S
H149 C158 0.930 . S
H150 C160 0.930 . S
H151 C163 0.929 . S
H152 C166 0.930 . S
H153 C168 0.960 . S
H154 C168 0.960 . S
H155 C168 0.960 . S
C156 H148 0.929 . S
C156 C157 1.377 . S
C156 C158 1.384 . S
C157 C156 1.377 . S
C157 C163 1.390 . S
C158 H149 0.930 . S
C158 C156 1.384 . S
C158 C159 1.372 . S
C159 C158 1.372 . S
C159 C160 1.400 . S
C159 C164 1.490 . S
C160 H150 0.930 . S
C160 C159 1.400 . S
C160 C163 1.386 . S
H161 C177 0.930 . S
H162 C178 0.931 . S
C163 H151 0.929 . S
C163 C157 1.390 . S
C163 C160 1.386 . S
C164 C159 1.490 . S
C164 C166 1.395 . S
C164 C167 1.403 . S
H165 C171 0.930 . S
C166 H152 0.930 . S
C166 C164 1.395 . S
C166 C169 1.403 . S
C167 C164 1.403 . S
C167 C168 1.524 . S
C167 C171 1.400 . S
C168 H153 0.960 . S
C168 H154 0.960 . S
C168 H155 0.960 . S
C168 C167 1.524 . S
C169 C166 1.403 . S
C169 C170 1.392 . S
C169 C173 1.495 . S
C170 C169 1.392 . S
C170 C171 1.385 . S
C170 C172 1.478 . S
C171 H165 0.930 . S
C171 C167 1.400 . S
C171 C170 1.385 . S
C172 C170 1.478 . S
C172 C174 1.381 . S
C172 C178 1.383 . S
C173 C169 1.495 . S
C173 H179 0.959 . S
C173 H180 0.961 . S
C173 H181 0.960 . S
C174 C172 1.381 . S
C174 C175 1.394 . S
C174 H182 0.930 . S
C175 C174 1.394 . S
C175 C176 1.383 . S
C175 H183 0.929 . S
C176 C175 1.383 . S
C176 C177 1.377 . S
C177 H161 0.930 . S
C177 C176 1.377 . S
C177 C178 1.379 . S
C178 H162 0.931 . S
C178 C172 1.383 . S
C178 C177 1.379 . S
H179 C173 0.959 . S
H180 C173 0.961 . S
H181 C173 0.960 . S
H182 C174 0.930 . S
H183 C175 0.929 . S
H184 C192 0.929 . S
H185 C194 0.930 . S
H186 C196 0.930 . S
H187 C199 0.929 . S
H188 C202 0.930 . S
H189 C204 0.960 . S
H190 C204 0.960 . S
H191 C204 0.960 . S
C192 H184 0.929 . S
C192 C193 1.377 . S
C192 C194 1.384 . S
C193 C192 1.377 . S
C193 C199 1.390 . S
C194 H185 0.930 . S
C194 C192 1.384 . S
C194 C195 1.372 . S
C195 C194 1.372 . S
C195 C196 1.400 . S
C195 C200 1.490 . S
C196 H186 0.930 . S
C196 C195 1.400 . S
C196 C199 1.386 . S
H197 C213 0.930 . S
H198 C214 0.931 . S
C199 H187 0.929 . S
C199 C193 1.390 . S
C199 C196 1.386 . S
C200 C195 1.490 . S
C200 C202 1.395 . S
C200 C203 1.403 1_565 S
H201 C207 0.930 . S
C202 H188 0.930 . S
C202 C200 1.395 . S
C202 C205 1.403 . S
C203 C200 1.403 1_545 S
C203 C204 1.524 . S
C203 C207 1.400 . S
C204 H189 0.960 . S
C204 H190 0.960 . S
C204 H191 0.960 . S
C204 C203 1.524 . S
C205 C202 1.403 . S
C205 C206 1.392 1_565 S
C205 C209 1.495 . S
C206 C205 1.392 1_545 S
C206 C207 1.385 . S
C206 C208 1.478 . S
C207 H201 0.930 . S
C207 C203 1.400 . S
C207 C206 1.385 . S
C208 C206 1.478 . S
C208 C210 1.381 . S
C208 C214 1.383 . S
C209 C205 1.495 . S
C209 H215 0.959 . S
C209 H216 0.961 . S
C209 H217 0.960 . S
C210 C208 1.381 . S
C210 C211 1.394 . S
C210 H218 0.930 . S
C211 C210 1.394 . S
C211 C212 1.383 . S
C211 H219 0.929 . S
C212 C211 1.383 . S
C212 C213 1.377 . S
C213 H197 0.930 . S
C213 C212 1.377 . S
C213 C214 1.379 . S
C214 H198 0.931 . S
C214 C208 1.383 . S
C214 C213 1.379 . S
H215 C209 0.959 . S
H216 C209 0.961 . S
H217 C209 0.960 . S
H218 C210 0.930 . S
H219 C211 0.929 . S
H220 C228 0.929 . S
H221 C230 0.930 . S
H222 C232 0.930 . S
H223 C235 0.929 . S
H224 C238 0.930 . S
H225 C240 0.960 . S
H226 C240 0.960 . S
H227 C240 0.960 . S
C228 H220 0.929 . S
C228 C229 1.377 . S
C228 C230 1.384 . S
C229 C228 1.377 . S
C229 C235 1.390 . S
C230 H221 0.930 . S
C230 C228 1.384 . S
C230 C231 1.372 . S
C231 C230 1.372 . S
C231 C232 1.400 . S
C231 C236 1.490 . S
C232 H222 0.930 . S
C232 C231 1.400 . S
C232 C235 1.386 . S
H233 C249 0.930 . S
H234 C250 0.931 . S
C235 H223 0.929 . S
C235 C229 1.390 . S
C235 C232 1.386 . S
C236 C231 1.490 . S
C236 C238 1.395 . S
C236 C239 1.403 . S
H237 C243 0.930 . S
C238 H224 0.930 . S
C238 C236 1.395 . S
C238 C241 1.403 . S
C239 C236 1.403 . S
C239 C240 1.524 . S
C239 C243 1.400 . S
C240 H225 0.960 . S
C240 H226 0.960 . S
C240 H227 0.960 . S
C240 C239 1.524 . S
C241 C238 1.403 . S
C241 C242 1.392 . S
C241 C245 1.495 . S
C242 C241 1.392 . S
C242 C243 1.385 . S
C242 C244 1.478 . S
C243 H237 0.930 . S
C243 C239 1.400 . S
C243 C242 1.385 . S
C244 C242 1.478 . S
C244 C246 1.381 . S
C244 C250 1.383 . S
C245 C241 1.495 . S
C245 H251 0.959 . S
C245 H252 0.961 . S
C245 H253 0.960 . S
C246 C244 1.381 . S
C246 C247 1.394 . S
C246 H254 0.930 . S
C247 C246 1.394 . S
C247 C248 1.383 . S
C247 H255 0.929 . S
C248 C247 1.383 . S
C248 C249 1.377 . S
C249 H233 0.930 . S
C249 C248 1.377 . S
C249 C250 1.379 . S
C250 H234 0.931 . S
C250 C244 1.383 . S
C250 C249 1.379 . S
H251 C245 0.959 . S
H252 C245 0.961 . S
H253 C245 0.960 . S
H254 C246 0.930 . S
H255 C247 0.929 . S
H256 C264 0.929 . S
H257 C266 0.930 . S
H258 C268 0.930 . S
H259 C271 0.929 . S
H260 C274 0.930 . S
H261 C276 0.960 . S
H262 C276 0.960 . S
H263 C276 0.960 . S
C264 H256 0.929 . S
C264 C265 1.377 . S
C264 C266 1.384 . S
C265 C264 1.377 . S
C265 C271 1.390 . S
C266 H257 0.930 . S
C266 C264 1.384 . S
C266 C267 1.372 . S
C267 C266 1.372 . S
C267 C268 1.400 . S
C267 C272 1.490 . S
C268 H258 0.930 . S
C268 C267 1.400 . S
C268 C271 1.386 . S
H269 C285 0.930 . S
H270 C286 0.931 . S
C271 H259 0.929 . S
C271 C265 1.390 . S
C271 C268 1.386 . S
C272 C267 1.490 . S
C272 C274 1.395 . S
C272 C275 1.403 . S
H273 C279 0.930 . S
C274 H260 0.930 . S
C274 C272 1.395 . S
C274 C277 1.403 . S
C275 C272 1.403 . S
C275 C276 1.524 . S
C275 C279 1.400 . S
C276 H261 0.960 . S
C276 H262 0.960 . S
C276 H263 0.960 . S
C276 C275 1.524 . S
C277 C274 1.403 . S
C277 C278 1.392 . S
C277 C281 1.495 . S
C278 C277 1.392 . S
C278 C279 1.385 . S
C278 C280 1.478 . S
C279 H273 0.930 . S
C279 C275 1.400 . S
C279 C278 1.385 . S
C280 C278 1.478 . S
C280 C282 1.381 . S
C280 C286 1.383 . S
C281 C277 1.495 . S
C281 H287 0.959 . S
C281 H288 0.961 . S
C281 H289 0.960 . S
C282 C280 1.381 . S
C282 C283 1.394 . S
C282 H290 0.930 . S
C283 C282 1.394 . S
C283 C284 1.383 . S
C283 H291 0.929 . S
C284 C283 1.383 . S
C284 C285 1.377 . S
C285 H269 0.930 . S
C285 C284 1.377 . S
C285 C286 1.379 . S
C286 H270 0.931 . S
C286 C280 1.383 . S
C286 C285 1.379 . S
H287 C281 0.959 . S
H288 C281 0.961 . S
H289 C281 0.960 . S
H290 C282 0.930 . S
H291 C283 0.929 . S
H292 C300 0.929 . S
H293 C302 0.930 . S
H294 C304 0.930 . S
H295 C307 0.929 . S
H296 C310 0.930 . S
H297 C312 0.960 . S
H298 C312 0.960 . S
H299 C312 0.960 . S
C300 H292 0.929 . S
C300 C301 1.377 . S
C300 C302 1.384 . S
C301 C300 1.377 . S
C301 C307 1.390 . S
C302 H293 0.930 . S
C302 C300 1.384 . S
C302 C303 1.372 . S
C303 C302 1.372 . S
C303 C304 1.400 . S
C303 C308 1.490 . S
C304 H294 0.930 . S
C304 C303 1.400 . S
C304 C307 1.386 . S
H305 C321 0.930 . S
H306 C322 0.931 . S
C307 H295 0.929 . S
C307 C301 1.390 . S
C307 C304 1.386 . S
C308 C303 1.490 . S
C308 C310 1.395 . S
C308 C311 1.403 . S
H309 C315 0.930 . S
C310 H296 0.930 . S
C310 C308 1.395 . S
C310 C313 1.403 . S
C311 C308 1.403 . S
C311 C312 1.524 . S
C311 C315 1.400 . S
C312 H297 0.960 . S
C312 H298 0.960 . S
C312 H299 0.960 . S
C312 C311 1.524 . S
C313 C310 1.403 . S
C313 C314 1.392 . S
C313 C317 1.495 . S
C314 C313 1.392 . S
C314 C315 1.385 . S
C314 C316 1.478 . S
C315 H309 0.930 . S
C315 C311 1.400 . S
C315 C314 1.385 . S
C316 C314 1.478 . S
C316 C318 1.381 . S
C316 C322 1.383 . S
C317 C313 1.495 . S
C317 H323 0.959 . S
C317 H324 0.961 . S
C317 H325 0.960 . S
C318 C316 1.381 . S
C318 C319 1.394 . S
C318 H326 0.930 . S
C319 C318 1.394 . S
C319 C320 1.383 . S
C319 H327 0.929 . S
C320 C319 1.383 . S
C320 C321 1.377 . S
C321 H305 0.930 . S
C321 C320 1.377 . S
C321 C322 1.379 . S
C322 H306 0.931 . S
C322 C316 1.383 . S
C322 C321 1.379 . S
H323 C317 0.959 . S
H324 C317 0.961 . S
H325 C317 0.960 . S
H326 C318 0.930 . S
H327 C319 0.929 . S
H328 C336 0.929 . S
H329 C338 0.930 . S
H330 C340 0.930 . S
H331 C343 0.929 . S
H332 C346 0.930 . S
H333 C348 0.960 . S
H334 C348 0.960 . S
H335 C348 0.960 . S
C336 H328 0.929 . S
C336 C337 1.377 . S
C336 C338 1.384 . S
C337 C336 1.377 . S
C337 C343 1.390 . S
C338 H329 0.930 . S
C338 C336 1.384 . S
C338 C339 1.372 . S
C339 C338 1.372 . S
C339 C340 1.400 . S
C339 C344 1.490 . S
C340 H330 0.930 . S
C340 C339 1.400 . S
C340 C343 1.386 . S
H341 C357 0.930 . S
H342 C358 0.931 . S
C343 H331 0.929 . S
C343 C337 1.390 . S
C343 C340 1.386 . S
C344 C339 1.490 . S
C344 C346 1.395 . S
C344 C347 1.403 . S
H345 C351 0.930 . S
C346 H332 0.930 . S
C346 C344 1.395 . S
C346 C349 1.403 . S
C347 C344 1.403 . S
C347 C348 1.524 . S
C347 C351 1.400 . S
C348 H333 0.960 . S
C348 H334 0.960 . S
C348 H335 0.960 . S
C348 C347 1.524 . S
C349 C346 1.403 . S
C349 C350 1.392 . S
C349 C353 1.495 . S
C350 C349 1.392 . S
C350 C351 1.385 . S
C350 C352 1.478 . S
C351 H345 0.930 . S
C351 C347 1.400 . S
C351 C350 1.385 . S
C352 C350 1.478 . S
C352 C354 1.381 . S
C352 C358 1.383 . S
C353 C349 1.495 . S
C353 H359 0.959 . S
C353 H360 0.961 . S
C353 H361 0.960 . S
C354 C352 1.381 . S
C354 C355 1.394 . S
C354 H362 0.930 . S
C355 C354 1.394 . S
C355 C356 1.383 . S
C355 H363 0.929 . S
C356 C355 1.383 . S
C356 C357 1.377 . S
C357 H341 0.930 . S
C357 C356 1.377 . S
C357 C358 1.379 . S
C358 H342 0.931 . S
C358 C352 1.383 . S
C358 C357 1.379 . S
H359 C353 0.959 . S
H360 C353 0.961 . S
H361 C353 0.960 . S
H362 C354 0.930 . S
H363 C355 0.929 . S
H364 C372 0.929 . S
H365 C374 0.930 . S
H366 C376 0.930 . S
H367 C379 0.929 . S
H368 C382 0.930 . S
H369 C384 0.960 . S
H370 C384 0.960 . S
H371 C384 0.960 . S
C372 H364 0.929 . S
C372 C373 1.377 . S
C372 C374 1.384 . S
C373 C372 1.377 . S
C373 C379 1.390 . S
C374 H365 0.930 . S
C374 C372 1.384 . S
C374 C375 1.372 . S
C375 C374 1.372 . S
C375 C376 1.400 . S
C375 C380 1.490 . S
C376 H366 0.930 . S
C376 C375 1.400 . S
C376 C379 1.386 . S
H377 C393 0.930 . S
H378 C394 0.931 . S
C379 H367 0.929 . S
C379 C373 1.390 . S
C379 C376 1.386 . S
C380 C375 1.490 . S
C380 C382 1.395 . S
C380 C383 1.403 . S
H381 C387 0.930 . S
C382 H368 0.930 . S
C382 C380 1.395 . S
C382 C385 1.403 . S
C383 C380 1.403 . S
C383 C384 1.524 . S
C383 C387 1.400 . S
C384 H369 0.960 . S
C384 H370 0.960 . S
C384 H371 0.960 . S
C384 C383 1.524 . S
C385 C382 1.403 . S
C385 C386 1.392 . S
C385 C389 1.495 . S
C386 C385 1.392 . S
C386 C387 1.385 . S
C386 C388 1.478 . S
C387 H381 0.930 . S
C387 C383 1.400 . S
C387 C386 1.385 . S
C388 C386 1.478 . S
C388 C390 1.381 . S
C388 C394 1.383 . S
C389 C385 1.495 . S
C389 H395 0.959 . S
C389 H396 0.961 . S
C389 H397 0.960 . S
C390 C388 1.381 . S
C390 C391 1.394 . S
C390 H398 0.930 . S
C391 C390 1.394 . S
C391 C392 1.383 . S
C391 H399 0.929 . S
C392 C391 1.383 . S
C392 C393 1.377 . S
C393 H377 0.930 . S
C393 C392 1.377 . S
C393 C394 1.379 . S
C394 H378 0.931 . S
C394 C388 1.383 . S
C394 C393 1.379 . S
H395 C389 0.959 . S
H396 C389 0.961 . S
H397 C389 0.960 . S
H398 C390 0.930 . S
H399 C391 0.929 . S
H400 C408 0.929 . S
H401 C410 0.930 . S
H402 C412 0.901 1_556 S
H403 C415 0.929 . S
H404 C418 0.930 . S
H405 C420 0.960 . S
H406 C420 0.960 . S
H407 C420 0.960 . S
C408 H400 0.929 . S
C408 C409 1.377 . S
C408 C410 1.384 . S
C409 C408 1.377 . S
C409 C415 1.390 . S
C410 H401 0.930 . S
C410 C408 1.384 . S
C410 C411 1.372 . S
C411 C410 1.372 . S
C411 C412 1.400 . S
C411 C416 1.490 . S
C412 H402 0.901 1_554 S
C412 C411 1.400 . S
C412 C415 1.386 . S
H413 C429 0.930 . S
H414 C430 0.931 . S
C415 H403 0.929 . S
C415 C409 1.390 . S
C415 C412 1.386 . S
C416 C411 1.490 . S
C416 C418 1.395 . S
C416 C419 1.403 1_554 S
H417 C423 0.930 . S
C418 H404 0.930 . S
C418 C416 1.395 . S
C418 C421 1.403 . S
C419 C416 1.403 1_556 S
C419 C420 1.524 . S
C419 C423 1.400 . S
C420 H405 0.960 . S
C420 H406 0.960 . S
C420 H407 0.960 . S
C420 C419 1.524 . S
C421 C418 1.403 . S
C421 C422 1.392 1_554 S
C421 C425 1.495 . S
C422 C421 1.392 1_556 S
C422 C423 1.385 . S
C422 C424 1.478 . S
C423 H417 0.930 . S
C423 C419 1.400 . S
C423 C422 1.385 . S
C424 C422 1.478 . S
C424 C426 1.381 . S
C424 C430 1.383 . S
C425 C421 1.495 . S
C425 H431 0.959 . S
C425 H432 0.961 . S
C425 H433 0.960 . S
C426 C424 1.381 . S
C426 C427 1.394 . S
C426 H434 0.930 1_556 S
C427 C426 1.394 . S
C427 C428 1.383 . S
C427 H435 0.929 . S
C428 C427 1.383 . S
C428 C429 1.377 . S
C429 H413 0.930 . S
C429 C428 1.377 . S
C429 C430 1.379 . S
C430 H414 0.931 . S
C430 C424 1.383 . S
C430 C429 1.379 . S
H431 C425 0.959 . S
H432 C425 0.961 . S
H433 C425 0.960 . S
H434 C426 0.930 1_554 S
H435 C427 0.929 . S
H436 C444 0.929 . S
H437 C446 0.930 . S
H438 C448 0.930 1_556 S
H439 C451 0.929 . S
H440 C454 0.930 . S
H441 C456 0.960 . S
H442 C456 0.960 1_554 S
H443 C456 0.960 . S
C444 H436 0.929 . S
C444 C445 1.377 . S
C444 C446 1.384 . S
C445 C444 1.377 . S
C445 C451 1.390 . S
C446 H437 0.930 . S
C446 C444 1.384 . S
C446 C447 1.372 . S
C447 C446 1.372 . S
C447 C448 1.400 . S
C447 C452 1.490 . S
C448 H438 0.930 1_554 S
C448 C447 1.400 . S
C448 C451 1.386 . S
H449 C465 0.930 . S
H450 C466 0.931 . S
C451 H439 0.929 . S
C451 C445 1.390 . S
C451 C448 1.386 . S
C452 C447 1.490 . S
C452 C454 1.395 1_455 S
C452 C455 1.384 1_554 S
H453 C459 0.930 . S
C454 H440 0.930 . S
C454 C452 1.395 1_655 S
C454 C457 1.403 . S
C455 C452 1.384 1_556 S
C455 C456 1.528 . S
C455 C459 1.415 . S
C456 H441 0.960 . S
C456 H442 0.960 1_556 S
C456 H443 0.960 . S
C456 C455 1.528 . S
C457 C454 1.403 . S
C457 C458 1.392 1_554 S
C457 C461 1.495 . S
C458 C457 1.392 1_556 S
C458 C459 1.385 1_655 S
C458 C460 1.478 . S
C459 H453 0.930 . S
C459 C455 1.415 . S
C459 C458 1.385 1_455 S
C460 C458 1.478 . S
C460 C462 1.381 . S
C460 C466 1.383 . S
C461 C457 1.495 . S
C461 H467 0.959 . S
C461 H468 0.961 1_554 S
C461 H469 0.960 . S
C462 C460 1.381 . S
C462 C463 1.394 . S
C462 H470 0.930 1_556 S
C463 C462 1.394 . S
C463 C464 1.383 . S
C463 H471 0.929 . S
C464 C463 1.383 . S
C464 C465 1.377 . S
C465 H449 0.930 . S
C465 C464 1.377 . S
C465 C466 1.379 . S
C466 H450 0.931 . S
C466 C460 1.383 . S
C466 C465 1.379 . S
H467 C461 0.959 . S
H468 C461 0.961 1_556 S
H469 C461 0.960 . S
H470 C462 0.930 1_554 S
H471 C463 0.929 . S
H472 C480 0.929 . S
H473 C482 0.930 . S
H474 C484 0.930 . S
H475 C487 0.929 . S
H476 C490 0.930 . S
H477 C492 0.960 . S
H478 C492 0.960 . S
H479 C492 0.960 . S
C480 H472 0.929 . S
C480 C481 1.377 . S
C480 C482 1.384 . S
C481 C480 1.377 . S
C481 C487 1.390 . S
C482 H473 0.930 . S
C482 C480 1.384 . S
C482 C483 1.372 . S
C483 C482 1.372 . S
C483 C484 1.400 . S
C483 C488 1.490 . S
C484 H474 0.930 . S
C484 C483 1.400 . S
C484 C487 1.386 . S
H485 C501 0.930 . S
H486 C502 0.931 . S
C487 H475 0.929 . S
C487 C481 1.390 . S
C487 C484 1.386 . S
C488 C483 1.490 . S
C488 C490 1.395 . S
C488 C491 1.403 . S
H489 C495 0.930 . S
C490 H476 0.930 . S
C490 C488 1.395 . S
C490 C493 1.403 1_565 S
C491 C488 1.403 . S
C491 C492 1.524 . S
C491 C495 1.400 1_565 S
C492 H477 0.960 . S
C492 H478 0.960 . S
C492 H479 0.960 . S
C492 C491 1.524 . S
C493 C490 1.403 1_545 S
C493 C494 1.392 . S
C493 C497 1.495 . S
C494 C493 1.392 . S
C494 C495 1.385 . S
C494 C496 1.478 . S
C495 H489 0.930 . S
C495 C491 1.400 1_545 S
C495 C494 1.385 . S
C496 C494 1.478 . S
C496 C498 1.381 . S
C496 C502 1.383 . S
C497 C493 1.495 . S
C497 H503 0.959 . S
C497 H504 0.961 . S
C497 H505 0.960 . S
C498 C496 1.381 . S
C498 C499 1.394 . S
C498 H506 0.930 . S
C499 C498 1.394 . S
C499 C500 1.383 . S
C499 H507 0.929 . S
C500 C499 1.383 . S
C500 C501 1.377 . S
C501 H485 0.930 . S
C501 C500 1.377 . S
C501 C502 1.379 . S
C502 H486 0.931 . S
C502 C496 1.383 . S
C502 C501 1.379 . S
H503 C497 0.959 . S
H504 C497 0.961 . S
H505 C497 0.960 . S
H506 C498 0.930 . S
H507 C499 0.929 . S
H508 C516 0.929 . S
H509 C518 0.930 . S
H510 C520 0.930 . S
H511 C523 0.929 . S
H512 C526 0.930 . S
H513 C528 0.960 1_565 S
H514 C528 0.960 . S
H515 C528 0.960 . S
C516 H508 0.929 . S
C516 C517 1.377 . S
C516 C518 1.384 . S
C517 C516 1.377 . S
C517 C523 1.390 . S
C518 H509 0.930 . S
C518 C516 1.384 . S
C518 C519 1.372 . S
C519 C518 1.372 . S
C519 C520 1.400 . S
C519 C524 1.490 . S
C520 H510 0.930 . S
C520 C519 1.400 . S
C520 C523 1.386 . S
H521 C537 0.930 . S
H522 C538 0.931 . S
C523 H511 0.929 . S
C523 C517 1.390 . S
C523 C520 1.386 . S
C524 C519 1.490 . S
C524 C526 1.395 1_655 S
C524 C527 1.403 . S
H525 C531 0.930 . S
C526 H512 0.930 . S
C526 C524 1.395 1_455 S
C526 C529 1.403 1_545 S
C527 C524 1.403 . S
C527 C528 1.524 . S
C527 C531 1.400 1_545 S
C528 H513 0.960 1_545 S
C528 H514 0.960 . S
C528 H515 0.960 . S
C528 C527 1.524 . S
C529 C526 1.403 1_565 S
C529 C530 1.392 . S
C529 C533 1.495 . S
C530 C529 1.392 . S
C530 C531 1.385 1_455 S
C530 C532 1.478 . S
C531 H525 0.930 . S
C531 C527 1.400 1_565 S
C531 C530 1.385 1_655 S
C532 C530 1.478 . S
C532 C534 1.381 . S
C532 C538 1.383 . S
C533 C529 1.495 . S
C533 H539 0.959 1_565 S
C533 H540 0.961 . S
C533 H541 0.960 . S
C534 C532 1.381 . S
C534 C535 1.394 . S
C534 H542 0.930 . S
C535 C534 1.394 . S
C535 C536 1.383 . S
C535 H543 0.929 . S
C536 C535 1.383 . S
C536 C537 1.377 . S
C537 H521 0.930 . S
C537 C536 1.377 . S
C537 C538 1.379 . S
C538 H522 0.931 . S
C538 C532 1.383 . S
C538 C537 1.379 . S
H539 C533 0.959 1_545 S
H540 C533 0.961 . S
H541 C533 0.960 . S
H542 C534 0.930 . S
H543 C535 0.929 . S
H544 C552 0.929 . S
H545 C554 0.930 . S
H546 C556 0.930 . S
H547 C559 0.929 . S
H548 C562 0.930 . S
H549 C564 0.960 . S
H550 C564 0.960 . S
H551 C564 0.960 . S
C552 H544 0.929 . S
C552 C553 1.377 . S
C552 C554 1.384 . S
C553 C552 1.377 . S
C553 C559 1.390 . S
C554 H545 0.930 . S
C554 C552 1.384 . S
C554 C555 1.372 . S
C555 C554 1.372 . S
C555 C556 1.400 . S
C555 C560 1.490 . S
C556 H546 0.930 . S
C556 C555 1.400 . S
C556 C559 1.386 . S
H557 C573 0.930 . S
H558 C574 0.931 . S
C559 H547 0.929 . S
C559 C553 1.390 . S
C559 C556 1.386 . S
C560 C555 1.490 . S
C560 C562 1.395 . S
C560 C563 1.403 . S
H561 C567 0.930 . S
C562 H548 0.930 . S
C562 C560 1.395 . S
C562 C565 1.403 . S
C563 C560 1.403 . S
C563 C564 1.524 . S
C563 C567 1.400 . S
C564 H549 0.960 . S
C564 H550 0.960 . S
C564 H551 0.960 . S
C564 C563 1.524 . S
C565 C562 1.403 . S
C565 C566 1.392 . S
C565 C569 1.495 . S
C566 C565 1.392 . S
C566 C567 1.385 . S
C566 C568 1.478 . S
C567 H561 0.930 . S
C567 C563 1.400 . S
C567 C566 1.385 . S
C568 C566 1.478 . S
C568 C570 1.381 . S
C568 C574 1.383 . S
C569 C565 1.495 . S
C569 H575 0.959 . S
C569 H576 0.961 . S
C569 H577 0.960 . S
C570 C568 1.381 . S
C570 C571 1.394 . S
C570 H578 0.930 . S
C571 C570 1.394 . S
C571 C572 1.383 . S
C571 H579 0.929 . S
C572 C571 1.383 . S
C572 C573 1.377 . S
C573 H557 0.930 . S
C573 C572 1.377 . S
C573 C574 1.379 . S
C574 H558 0.931 . S
C574 C568 1.383 . S
C574 C573 1.379 . S
H575 C569 0.959 . S
H576 C569 0.961 . S
H577 C569 0.960 . S
H578 C570 0.930 . S
H579 C571 0.929 . S
H580 C588 0.929 . S
H581 C590 0.930 . S
H582 C592 0.930 . S
H583 C595 0.929 . S
H584 C598 0.930 . S
H585 C600 0.960 . S
H586 C600 0.960 1_545 S
H587 C600 0.960 . S
C588 H580 0.929 . S
C588 C589 1.377 . S
C588 C590 1.384 . S
C589 C588 1.377 . S
C589 C595 1.390 . S
C590 H581 0.930 . S
C590 C588 1.384 . S
C590 C591 1.372 . S
C591 C590 1.372 . S
C591 C592 1.400 . S
C591 C596 1.490 . S
C592 H582 0.930 . S
C592 C591 1.400 . S
C592 C595 1.386 . S
H593 C609 0.930 . S
H594 C610 0.931 . S
C595 H583 0.929 . S
C595 C589 1.390 . S
C595 C592 1.386 . S
C596 C591 1.490 . S
C596 C598 1.395 . S
C596 C599 1.404 . S
H597 C603 0.930 . S
C598 H584 0.930 . S
C598 C596 1.395 . S
C598 C601 1.403 . S
C599 C596 1.404 . S
C599 C600 1.524 1_545 S
C599 C603 1.399 1_545 S
C600 H585 0.960 . S
C600 H586 0.960 1_565 S
C600 H587 0.960 . S
C600 C599 1.524 1_565 S
C601 C598 1.403 . S
C601 C602 1.392 1_545 S
C601 C605 1.495 . S
C602 C601 1.392 1_565 S
C602 C603 1.385 . S
C602 C604 1.478 . S
C603 H597 0.930 . S
C603 C599 1.399 1_565 S
C603 C602 1.385 . S
C604 C602 1.478 . S
C604 C606 1.381 . S
C604 C610 1.383 . S
C605 C601 1.495 . S
C605 H611 0.959 . S
C605 H612 0.961 1_545 S
C605 H613 0.960 . S
C606 C604 1.381 . S
C606 C607 1.394 . S
C606 H614 0.930 . S
C607 C606 1.394 . S
C607 C608 1.383 . S
C607 H615 0.929 . S
C608 C607 1.383 . S
C608 C609 1.377 . S
C609 H593 0.930 . S
C609 C608 1.377 . S
C609 C610 1.379 . S
C610 H594 0.931 . S
C610 C604 1.383 . S
C610 C609 1.379 . S
H611 C605 0.959 . S
H612 C605 0.961 1_565 S
H613 C605 0.960 . S
H614 C606 0.930 . S
H615 C607 0.929 . S
H616 C624 0.929 . S
H617 C626 0.930 . S
H618 C628 0.930 . S
H619 C631 0.929 . S
H620 C634 0.930 . S
H621 C636 0.960 . S
H622 C636 0.960 . S
H623 C636 0.960 . S
C624 H616 0.929 . S
C624 C625 1.377 . S
C624 C626 1.384 . S
C625 C624 1.377 . S
C625 C631 1.390 . S
C626 H617 0.930 . S
C626 C624 1.384 . S
C626 C627 1.372 . S
C627 C626 1.372 . S
C627 C628 1.400 . S
C627 C632 1.490 . S
C628 H618 0.930 . S
C628 C627 1.400 . S
C628 C631 1.386 . S
H629 C645 0.930 . S
H630 C646 0.931 . S
C631 H619 0.929 . S
C631 C625 1.390 . S
C631 C628 1.386 . S
C632 C627 1.490 . S
C632 C634 1.395 . S
C632 C635 1.403 . S
H633 C639 0.930 . S
C634 H620 0.930 . S
C634 C632 1.395 . S
C634 C637 1.403 . S
C635 C632 1.403 . S
C635 C636 1.524 . S
C635 C639 1.400 . S
C636 H621 0.960 . S
C636 H622 0.960 . S
C636 H623 0.960 . S
C636 C635 1.524 . S
C637 C634 1.403 . S
C637 C638 1.392 . S
C637 C641 1.495 . S
C638 C637 1.392 . S
C638 C639 1.385 . S
C638 C640 1.478 . S
C639 H633 0.930 . S
C639 C635 1.400 . S
C639 C638 1.385 . S
C640 C638 1.478 . S
C640 C642 1.381 . S
C640 C646 1.383 . S
C641 C637 1.495 . S
C641 H647 0.959 . S
C641 H648 0.961 . S
C641 H649 0.960 . S
C642 C640 1.381 . S
C642 C643 1.394 . S
C642 H650 0.930 . S
C643 C642 1.394 . S
C643 C644 1.383 . S
C643 H651 0.929 . S
C644 C643 1.383 . S
C644 C645 1.377 . S
C645 H629 0.930 . S
C645 C644 1.377 . S
C645 C646 1.379 . S
C646 H630 0.931 . S
C646 C640 1.383 . S
C646 C645 1.379 . S
H647 C641 0.959 . S
H648 C641 0.961 . S
H649 C641 0.960 . S
H650 C642 0.930 . S
H651 C643 0.929 . S
H652 C660 0.929 . S
H653 C662 0.930 . S
H654 C664 0.930 . S
H655 C667 0.929 . S
H656 C670 0.930 . S
H657 C672 0.960 . S
H658 C672 0.960 . S
H659 C672 0.960 . S
C660 H652 0.929 . S
C660 C661 1.377 . S
C660 C662 1.384 . S
C661 C660 1.377 . S
C661 C667 1.390 . S
C662 H653 0.930 . S
C662 C660 1.384 . S
C662 C663 1.372 . S
C663 C662 1.372 . S
C663 C664 1.400 . S
C663 C668 1.490 . S
C664 H654 0.930 . S
C664 C663 1.400 . S
C664 C667 1.386 . S
H665 C681 0.930 . S
H666 C682 0.931 . S
C667 H655 0.929 . S
C667 C661 1.390 . S
C667 C664 1.386 . S
C668 C663 1.490 . S
C668 C670 1.395 . S
C668 C671 1.403 1_565 S
H669 C675 0.930 . S
C670 H656 0.930 . S
C670 C668 1.395 . S
C670 C673 1.403 . S
C671 C668 1.403 1_545 S
C671 C672 1.524 . S
C671 C675 1.400 . S
C672 H657 0.960 . S
C672 H658 0.960 . S
C672 H659 0.960 . S
C672 C671 1.524 . S
C673 C670 1.403 . S
C673 C674 1.392 1_565 S
C673 C677 1.495 . S
C674 C673 1.392 1_545 S
C674 C675 1.385 . S
C674 C676 1.478 . S
C675 H669 0.930 . S
C675 C671 1.400 . S
C675 C674 1.385 . S
C676 C674 1.478 . S
C676 C678 1.381 . S
C676 C682 1.383 . S
C677 C673 1.495 . S
C677 H683 0.959 . S
C677 H684 0.961 . S
C677 H685 0.960 . S
C678 C676 1.381 . S
C678 C679 1.394 . S
C678 H686 0.930 . S
C679 C678 1.394 . S
C679 C680 1.383 . S
C679 H687 0.929 . S
C680 C679 1.383 . S
C680 C681 1.377 . S
C681 H665 0.930 . S
C681 C680 1.377 . S
C681 C682 1.379 . S
C682 H666 0.931 . S
C682 C676 1.383 . S
C682 C681 1.379 . S
H683 C677 0.959 . S
H684 C677 0.961 . S
H685 C677 0.960 . S
H686 C678 0.930 . S
H687 C679 0.929 . S
C121 C13 1.229 . S
C140 C27 1.213 . S
C157 C55 1.228 . S
C176 C41 1.202 . S
C193 C69 1.237 . S
C212 C83 1.246 . S
C229 C97 1.240 . S
C248 C111 1.201 . S
C265 C11 1.551 . S
C284 C39 1.540 . S
C301 C53 1.552 . S
C320 C25 1.547 . S
C337 C67 1.551 . S
C356 C95 1.558 . S
C373 C109 1.554 . S
C392 C81 1.540 . S
C409 C7 1.298 . S
C428 C63 1.296 . S
C445 C21 1.300 . S
C464 C77 1.275 . S
C481 C91 1.310 . S
C500 C35 1.313 . S
C517 C105 1.306 . S
C536 C49 1.281 . S
C553 C22 0.712 . S
C572 C8 0.690 . S
C589 C36 0.711 . S
C608 C50 0.745 . S
C625 C64 0.724 . S
C644 C78 0.745 . S
C661 C92 0.721 . S
C680 C106 0.749 . S
