# Generated by pormake.
# Topology wiq, (6)-cn, num edge types: 1
# Building blocks:
#     Node 0, Type 0, BuildingBlock: IZENUY_clean_sbu_0, # of connection points: 6
#     Node 1, Type 0, BuildingBlock: IZENUY_clean_sbu_0, # of connection points: 6
#     Node 2, Type 0, BuildingBlock: IZENUY_clean_sbu_0, # of connection points: 6
#     Node 3, Type 0, BuildingBlock: IZENUY_clean_sbu_0, # of connection points: 6
#     Node 4, Type 0, BuildingBlock: IZENUY_clean_sbu_0, # of connection points: 6
#     Node 5, Type 0, BuildingBlock: IZENUY_clean_sbu_0, # of connection points: 6
#     Node 6, Type 0, BuildingBlock: IZENUY_clean_sbu_0, # of connection points: 6
#     Node 7, Type 0, BuildingBlock: IZENUY_clean_sbu_0, # of connection points: 6
#     Node 8, Type 0, BuildingBlock: IZENUY_clean_sbu_0, # of connection points: 6
#     Node 9, Type 0, BuildingBlock: IZENUY_clean_sbu_0, # of connection points: 6
#     Node 10, Type 0, BuildingBlock: IZENUY_clean_sbu_0, # of connection points: 6
#     Node 11, Type 0, BuildingBlock: IZENUY_clean_sbu_0, # of connection points: 6
#     Node 12, Type 0, BuildingBlock: IZENUY_clean_sbu_0, # of connection points: 6
#     Node 13, Type 0, BuildingBlock: IZENUY_clean_sbu_0, # of connection points: 6
#     Node 14, Type 0, BuildingBlock: IZENUY_clean_sbu_0, # of connection points: 6
#     Node 15, Type 0, BuildingBlock: IZENUY_clean_sbu_0, # of connection points: 6
#     Node 16, Type 0, BuildingBlock: IZENUY_clean_sbu_0, # of connection points: 6
#     Node 17, Type 0, BuildingBlock: IZENUY_clean_sbu_0, # of connection points: 6
#     Node 18, Type 0, BuildingBlock: IZENUY_clean_sbu_0, # of connection points: 6
#     Node 19, Type 0, BuildingBlock: IZENUY_clean_sbu_0, # of connection points: 6
#     Node 20, Type 0, BuildingBlock: IZENUY_clean_sbu_0, # of connection points: 6
#     Node 21, Type 0, BuildingBlock: IZENUY_clean_sbu_0, # of connection points: 6
#     Node 22, Type 0, BuildingBlock: IZENUY_clean_sbu_0, # of connection points: 6
#     Node 23, Type 0, BuildingBlock: IZENUY_clean_sbu_0, # of connection points: 6
#     Node 24, Type 0, BuildingBlock: IZENUY_clean_sbu_0, # of connection points: 6
#     Node 25, Type 0, BuildingBlock: IZENUY_clean_sbu_0, # of connection points: 6
#     Node 26, Type 0, BuildingBlock: IZENUY_clean_sbu_0, # of connection points: 6
#     Node 27, Type 0, BuildingBlock: IZENUY_clean_sbu_0, # of connection points: 6
#     Node 28, Type 0, BuildingBlock: IZENUY_clean_sbu_0, # of connection points: 6
#     Node 29, Type 0, BuildingBlock: IZENUY_clean_sbu_0, # of connection points: 6
#     Node 30, Type 0, BuildingBlock: IZENUY_clean_sbu_0, # of connection points: 6
#     Node 31, Type 0, BuildingBlock: IZENUY_clean_sbu_0, # of connection points: 6
#     Edge 32, Type (0, 0), BuildingBlock: UVAHIK_clean_linker_0, # of connection points: 2
#     Edge 33, Type (0, 0), BuildingBlock: UVAHIK_clean_linker_0, # of connection points: 2
#     Edge 34, Type (0, 0), BuildingBlock: UVAHIK_clean_linker_0, # of connection points: 2
#     Edge 35, Type (0, 0), BuildingBlock: UVAHIK_clean_linker_0, # of connection points: 2
#     Edge 36, Type (0, 0), BuildingBlock: UVAHIK_clean_linker_0, # of connection points: 2
#     Edge 37, Type (0, 0), BuildingBlock: UVAHIK_clean_linker_0, # of connection points: 2
#     Edge 38, Type (0, 0), BuildingBlock: UVAHIK_clean_linker_0, # of connection points: 2
#     Edge 39, Type (0, 0), BuildingBlock: UVAHIK_clean_linker_0, # of connection points: 2
#     Edge 40, Type (0, 0), BuildingBlock: UVAHIK_clean_linker_0, # of connection points: 2
#     Edge 41, Type (0, 0), BuildingBlock: UVAHIK_clean_linker_0, # of connection points: 2
#     Edge 42, Type (0, 0), BuildingBlock: UVAHIK_clean_linker_0, # of connection points: 2
#     Edge 43, Type (0, 0), BuildingBlock: UVAHIK_clean_linker_0, # of connection points: 2
#     Edge 44, Type (0, 0), BuildingBlock: UVAHIK_clean_linker_0, # of connection points: 2
#     Edge 45, Type (0, 0), BuildingBlock: UVAHIK_clean_linker_0, # of connection points: 2
#     Edge 46, Type (0, 0), BuildingBlock: UVAHIK_clean_linker_0, # of connection points: 2
#     Edge 47, Type (0, 0), BuildingBlock: UVAHIK_clean_linker_0, # of connection points: 2
#     Edge 48, Type (0, 0), BuildingBlock: UVAHIK_clean_linker_0, # of connection points: 2
#     Edge 49, Type (0, 0), BuildingBlock: UVAHIK_clean_linker_0, # of connection points: 2
#     Edge 50, Type (0, 0), BuildingBlock: UVAHIK_clean_linker_0, # of connection points: 2
#     Edge 51, Type (0, 0), BuildingBlock: UVAHIK_clean_linker_0, # of connection points: 2
#     Edge 52, Type (0, 0), BuildingBlock: UVAHIK_clean_linker_0, # of connection points: 2
#     Edge 53, Type (0, 0), BuildingBlock: UVAHIK_clean_linker_0, # of connection points: 2
#     Edge 54, Type (0, 0), BuildingBlock: UVAHIK_clean_linker_0, # of connection points: 2
#     Edge 55, Type (0, 0), BuildingBlock: UVAHIK_clean_linker_0, # of connection points: 2
#     Edge 56, Type (0, 0), BuildingBlock: UVAHIK_clean_linker_0, # of connection points: 2
#     Edge 57, Type (0, 0), BuildingBlock: UVAHIK_clean_linker_0, # of connection points: 2
#     Edge 58, Type (0, 0), BuildingBlock: UVAHIK_clean_linker_0, # of connection points: 2
#     Edge 59, Type (0, 0), BuildingBlock: UVAHIK_clean_linker_0, # of connection points: 2
#     Edge 60, Type (0, 0), BuildingBlock: UVAHIK_clean_linker_0, # of connection points: 2
#     Edge 61, Type (0, 0), BuildingBlock: UVAHIK_clean_linker_0, # of connection points: 2
#     Edge 62, Type (0, 0), BuildingBlock: UVAHIK_clean_linker_0, # of connection points: 2
#     Edge 63, Type (0, 0), BuildingBlock: UVAHIK_clean_linker_0, # of connection points: 2
#     Edge 64, Type (0, 0), BuildingBlock: UVAHIK_clean_linker_0, # of connection points: 2
#     Edge 65, Type (0, 0), BuildingBlock: UVAHIK_clean_linker_0, # of connection points: 2
#     Edge 66, Type (0, 0), BuildingBlock: UVAHIK_clean_linker_0, # of connection points: 2
#     Edge 67, Type (0, 0), BuildingBlock: UVAHIK_clean_linker_0, # of connection points: 2
#     Edge 68, Type (0, 0), BuildingBlock: UVAHIK_clean_linker_0, # of connection points: 2
#     Edge 69, Type (0, 0), BuildingBlock: UVAHIK_clean_linker_0, # of connection points: 2
#     Edge 70, Type (0, 0), BuildingBlock: UVAHIK_clean_linker_0, # of connection points: 2
#     Edge 71, Type (0, 0), BuildingBlock: UVAHIK_clean_linker_0, # of connection points: 2
#     Edge 72, Type (0, 0), BuildingBlock: UVAHIK_clean_linker_0, # of connection points: 2
#     Edge 73, Type (0, 0), BuildingBlock: UVAHIK_clean_linker_0, # of connection points: 2
#     Edge 74, Type (0, 0), BuildingBlock: UVAHIK_clean_linker_0, # of connection points: 2
#     Edge 75, Type (0, 0), BuildingBlock: UVAHIK_clean_linker_0, # of connection points: 2
#     Edge 76, Type (0, 0), BuildingBlock: UVAHIK_clean_linker_0, # of connection points: 2
#     Edge 77, Type (0, 0), BuildingBlock: UVAHIK_clean_linker_0, # of connection points: 2
#     Edge 78, Type (0, 0), BuildingBlock: UVAHIK_clean_linker_0, # of connection points: 2
#     Edge 79, Type (0, 0), BuildingBlock: UVAHIK_clean_linker_0, # of connection points: 2
#     Edge 80, Type (0, 0), BuildingBlock: UVAHIK_clean_linker_0, # of connection points: 2
#     Edge 81, Type (0, 0), BuildingBlock: UVAHIK_clean_linker_0, # of connection points: 2
#     Edge 82, Type (0, 0), BuildingBlock: UVAHIK_clean_linker_0, # of connection points: 2
#     Edge 83, Type (0, 0), BuildingBlock: UVAHIK_clean_linker_0, # of connection points: 2
#     Edge 84, Type (0, 0), BuildingBlock: UVAHIK_clean_linker_0, # of connection points: 2
#     Edge 85, Type (0, 0), BuildingBlock: UVAHIK_clean_linker_0, # of connection points: 2
#     Edge 86, Type (0, 0), BuildingBlock: UVAHIK_clean_linker_0, # of connection points: 2
#     Edge 87, Type (0, 0), BuildingBlock: UVAHIK_clean_linker_0, # of connection points: 2
#     Edge 88, Type (0, 0), BuildingBlock: UVAHIK_clean_linker_0, # of connection points: 2
#     Edge 89, Type (0, 0), BuildingBlock: UVAHIK_clean_linker_0, # of connection points: 2
#     Edge 90, Type (0, 0), BuildingBlock: UVAHIK_clean_linker_0, # of connection points: 2
#     Edge 91, Type (0, 0), BuildingBlock: UVAHIK_clean_linker_0, # of connection points: 2
#     Edge 92, Type (0, 0), BuildingBlock: UVAHIK_clean_linker_0, # of connection points: 2
#     Edge 93, Type (0, 0), BuildingBlock: UVAHIK_clean_linker_0, # of connection points: 2
#     Edge 94, Type (0, 0), BuildingBlock: UVAHIK_clean_linker_0, # of connection points: 2
#     Edge 95, Type (0, 0), BuildingBlock: UVAHIK_clean_linker_0, # of connection points: 2
#     Edge 96, Type (0, 0), BuildingBlock: UVAHIK_clean_linker_0, # of connection points: 2
#     Edge 97, Type (0, 0), BuildingBlock: UVAHIK_clean_linker_0, # of connection points: 2
#     Edge 98, Type (0, 0), BuildingBlock: UVAHIK_clean_linker_0, # of connection points: 2
#     Edge 99, Type (0, 0), BuildingBlock: UVAHIK_clean_linker_0, # of connection points: 2
#     Edge 100, Type (0, 0), BuildingBlock: UVAHIK_clean_linker_0, # of connection points: 2
#     Edge 101, Type (0, 0), BuildingBlock: UVAHIK_clean_linker_0, # of connection points: 2
#     Edge 102, Type (0, 0), BuildingBlock: UVAHIK_clean_linker_0, # of connection points: 2
#     Edge 103, Type (0, 0), BuildingBlock: UVAHIK_clean_linker_0, # of connection points: 2
#     Edge 104, Type (0, 0), BuildingBlock: UVAHIK_clean_linker_0, # of connection points: 2
#     Edge 105, Type (0, 0), BuildingBlock: UVAHIK_clean_linker_0, # of connection points: 2
#     Edge 106, Type (0, 0), BuildingBlock: UVAHIK_clean_linker_0, # of connection points: 2
#     Edge 107, Type (0, 0), BuildingBlock: UVAHIK_clean_linker_0, # of connection points: 2
#     Edge 108, Type (0, 0), BuildingBlock: UVAHIK_clean_linker_0, # of connection points: 2
#     Edge 109, Type (0, 0), BuildingBlock: UVAHIK_clean_linker_0, # of connection points: 2
#     Edge 110, Type (0, 0), BuildingBlock: UVAHIK_clean_linker_0, # of connection points: 2
#     Edge 111, Type (0, 0), BuildingBlock: UVAHIK_clean_linker_0, # of connection points: 2
#     Edge 112, Type (0, 0), BuildingBlock: UVAHIK_clean_linker_0, # of connection points: 2
#     Edge 113, Type (0, 0), BuildingBlock: UVAHIK_clean_linker_0, # of connection points: 2
#     Edge 114, Type (0, 0), BuildingBlock: UVAHIK_clean_linker_0, # of connection points: 2
#     Edge 115, Type (0, 0), BuildingBlock: UVAHIK_clean_linker_0, # of connection points: 2
#     Edge 116, Type (0, 0), BuildingBlock: UVAHIK_clean_linker_0, # of connection points: 2
#     Edge 117, Type (0, 0), BuildingBlock: UVAHIK_clean_linker_0, # of connection points: 2
#     Edge 118, Type (0, 0), BuildingBlock: UVAHIK_clean_linker_0, # of connection points: 2
#     Edge 119, Type (0, 0), BuildingBlock: UVAHIK_clean_linker_0, # of connection points: 2
#     Edge 120, Type (0, 0), BuildingBlock: UVAHIK_clean_linker_0, # of connection points: 2
#     Edge 121, Type (0, 0), BuildingBlock: UVAHIK_clean_linker_0, # of connection points: 2
#     Edge 122, Type (0, 0), BuildingBlock: UVAHIK_clean_linker_0, # of connection points: 2
#     Edge 123, Type (0, 0), BuildingBlock: UVAHIK_clean_linker_0, # of connection points: 2
#     Edge 124, Type (0, 0), BuildingBlock: UVAHIK_clean_linker_0, # of connection points: 2
#     Edge 125, Type (0, 0), BuildingBlock: UVAHIK_clean_linker_0, # of connection points: 2
#     Edge 126, Type (0, 0), BuildingBlock: UVAHIK_clean_linker_0, # of connection points: 2
#     Edge 127, Type (0, 0), BuildingBlock: UVAHIK_clean_linker_0, # of connection points: 2
# Relax obj value: 0.286
# Max RMSD: 0.209
# Mean RMSD: 0.208
data_MOF--net-wiq--node1-IZENUY_clean_sbu_0--edge1-UVAHIK_clean_linker_0
_symmetry_space_group_name_H-M    P1
_symmetry_Int_Tables_number       1
_symmetry_cell_setting            triclinic
loop_
_symmetry_equiv_pos_as_xyz
'x, y, z'
_cell_length_a     62.775694
_cell_length_b     62.773146
_cell_length_c     68.149017
_cell_angle_alpha  89.990608
_cell_angle_beta   89.979081
_cell_angle_gamma 90.012168
loop_
_atom_site_label
_atom_site_type_symbol
_atom_site_fract_x
_atom_site_fract_y
_atom_site_fract_z
_atom_type_partial_charge
Fe0 Fe 0.14944 0.15529 0.29015 0.0
Fe1 Fe 0.13238 0.18387 0.2569 0.0
O2 O 0.13137 0.15993 0.27058 0.0
Fe3 Fe 0.11166 0.14077 0.26469 0.0
O4 O 0.10856 0.13046 0.28968 0.0
O5 O 0.12774 0.15208 0.30758 0.0
O6 O 0.15021 0.18339 0.29803 0.0
C7 C 0.13791 0.19897 0.29436 0.0
C8 C 0.14616 0.11507 0.27049 0.0
O9 O 0.1273 0.19975 0.27862 0.0
C10 C 0.12507 0.15557 0.22752 0.0
O11 O 0.17285 0.15889 0.27451 0.0
O12 O 0.16091 0.18748 0.25942 0.0
O13 O 0.13178 0.12123 0.2589 0.0
O14 O 0.15133 0.12613 0.28545 0.0
C15 C 0.08848 0.17714 0.26163 0.0
O16 O 0.13764 0.1694 0.23433 0.0
O17 O 0.11104 0.14719 0.23842 0.0
C18 C 0.17596 0.17512 0.26387 0.0
O19 O 0.10378 0.18487 0.25191 0.0
O20 O 0.09038 0.15949 0.27028 0.0
C21 C 0.11225 0.13947 0.30588 0.0
Fe22 Fe 0.10076 0.89693 0.54123 0.0
Fe23 Fe 0.07093 0.88074 0.50854 0.0
O24 O 0.09536 0.87937 0.52137 0.0
Fe25 Fe 0.11428 0.85988 0.51434 0.0
O26 O 0.12547 0.85611 0.53885 0.0
O27 O 0.10469 0.8747 0.5581 0.0
O28 O 0.07296 0.89759 0.55 0.0
C29 C 0.05724 0.88538 0.5466 0.0
C30 C 0.14022 0.89421 0.52028 0.0
O31 O 0.05595 0.87508 0.53071 0.0
C32 C 0.09802 0.87411 0.47798 0.0
O33 O 0.09661 0.92076 0.5262 0.0
O34 O 0.06747 0.90919 0.51175 0.0
O35 O 0.13359 0.88025 0.50846 0.0
O36 O 0.12969 0.89891 0.53568 0.0
C37 C 0.07776 0.83667 0.51194 0.0
O38 O 0.08445 0.88652 0.48549 0.0
O39 O 0.10689 0.85996 0.48835 0.0
C40 C 0.08006 0.9241 0.51605 0.0
O41 O 0.06968 0.85234 0.50302 0.0
O42 O 0.09585 0.83829 0.51988 0.0
C43 C 0.11715 0.85923 0.55545 0.0
Fe44 Fe 0.37579 0.82142 0.75877 0.0
Fe45 Fe 0.39661 0.86469 0.76539 0.0
O46 O 0.37689 0.84572 0.77183 0.0
Fe47 Fe 0.35884 0.85092 0.79132 0.0
O48 O 0.35796 0.82305 0.79987 0.0
O49 O 0.38092 0.8062 0.78092 0.0
O50 O 0.40431 0.82026 0.75383 0.0
C51 C 0.41975 0.82813 0.76325 0.0
C52 C 0.33227 0.8305 0.76549 0.0
O53 O 0.41801 0.84615 0.77131 0.0
C54 C 0.36194 0.89037 0.77054 0.0
O55 O 0.37057 0.83524 0.73578 0.0
O56 O 0.39724 0.85749 0.73932 0.0
O57 O 0.3354 0.84696 0.77579 0.0
O58 O 0.34726 0.81792 0.7614 0.0
C59 C 0.39596 0.86736 0.80657 0.0
O60 O 0.37642 0.884 0.75914 0.0
O61 O 0.35697 0.8799 0.7859 0.0
C62 C 0.38321 0.84884 0.72862 0.0
O63 O 0.3997 0.87579 0.79011 0.0
O64 O 0.38063 0.8546 0.8086 0.0
C65 C 0.37032 0.8074 0.79665 0.0
Fe66 Fe 0.39204 0.14565 0.01492 0.0
Fe67 Fe 0.40414 0.10844 0.04224 0.0
O68 O 0.41028 0.1257 0.02235 0.0
Fe69 Fe 0.43483 0.12353 0.00977 0.0
O70 O 0.43683 0.1518 0.00383 0.0
O71 O 0.411 0.16674 0.02046 0.0
O72 O 0.38061 0.15002 0.03922 0.0
C73 C 0.3884 0.14664 0.05599 0.0
C74 C 0.40809 0.13019 0.979 0.0
O75 O 0.40035 0.13082 0.05892 0.0
C76 C 0.42456 0.08059 0.01752 0.0
O77 O 0.37225 0.12584 0.00904 0.0
O78 O 0.37529 0.10693 0.03621 0.0
O79 O 0.42135 0.11764 0.98676 0.0
O80 O 0.39978 0.14498 0.98901 0.0
C81 C 0.44786 0.11921 0.048 0.0
O82 O 0.40797 0.08441 0.02743 0.0
O83 O 0.43767 0.09509 0.01343 0.0
C84 C 0.36512 0.11194 0.02069 0.0
O85 O 0.43183 0.10737 0.0514 0.0
O86 O 0.4496 0.12921 0.03198 0.0
C87 C 0.42919 0.16775 0.01266 0.0
Fe88 Fe 0.11078 0.86286 0.23367 0.0
Fe89 Fe 0.14902 0.85649 0.20607 0.0
O90 O 0.13303 0.84775 0.22611 0.0
Fe91 Fe 0.13957 0.82395 0.23849 0.0
O92 O 0.11429 0.81212 0.23302 0.0
O93 O 0.09434 0.8397 0.24063 0.0
O94 O 0.09889 0.86068 0.20978 0.0
C95 C 0.10709 0.86724 0.19409 0.0
C96 C 0.12637 0.85129 0.26951 0.0
O97 O 0.12706 0.87028 0.19298 0.0
C98 C 0.17942 0.83741 0.23201 0.0
O99 O 0.12343 0.88855 0.22809 0.0
O100 O 0.15638 0.88077 0.21915 0.0
O101 O 0.13054 0.83291 0.26285 0.0
O102 O 0.12099 0.86613 0.25818 0.0
C103 C 0.14511 0.81396 0.19819 0.0
O104 O 0.17394 0.84369 0.21502 0.0
O105 O 0.16537 0.83449 0.24482 0.0
C106 C 0.14294 0.89359 0.22645 0.0
O107 O 0.14227 0.83279 0.19211 0.0
O108 O 0.14928 0.81036 0.21615 0.0
C109 C 0.09637 0.82008 0.2366 0.0
Fe110 Fe 0.39312 0.86298 0.48485 0.0
Fe111 Fe 0.39895 0.90065 0.45658 0.0
O112 O 0.40794 0.88518 0.47678 0.0
Fe113 Fe 0.43189 0.89206 0.48874 0.0
O114 O 0.44374 0.86682 0.48303 0.0
O115 O 0.41656 0.84699 0.49196 0.0
O116 O 0.39512 0.85053 0.46115 0.0
C117 C 0.38844 0.8584 0.44535 0.0
C118 C 0.40508 0.87918 0.52026 0.0
O119 O 0.38527 0.87832 0.44393 0.0
C120 C 0.41786 0.93164 0.48212 0.0
O121 O 0.36727 0.87525 0.47924 0.0
O122 O 0.37468 0.90807 0.46962 0.0
O123 O 0.42342 0.88304 0.51333 0.0
O124 O 0.39005 0.87382 0.50914 0.0
C125 C 0.44141 0.89704 0.44843 0.0
O126 O 0.41158 0.92585 0.46519 0.0
O127 O 0.4212 0.9178 0.49505 0.0
C128 C 0.36203 0.89465 0.4772 0.0
O129 O 0.42259 0.89365 0.44262 0.0
O130 O 0.44504 0.90192 0.46621 0.0
C131 C 0.43594 0.84889 0.48696 0.0
Fe132 Fe 0.36947 0.1795 0.74092 0.0
Fe133 Fe 0.39604 0.13904 0.7359 0.0
O134 O 0.37504 0.15571 0.72809 0.0
Fe135 Fe 0.3595 0.14857 0.7073 0.0
O136 O 0.36803 0.17235 0.69439 0.0
O137 O 0.36139 0.19444 0.71874 0.0
O138 O 0.39578 0.18982 0.7366 0.0
C139 C 0.41289 0.18058 0.74098 0.0
C140 C 0.32911 0.16845 0.73279 0.0
O141 O 0.41326 0.1608 0.74463 0.0
C142 C 0.36285 0.11042 0.72649 0.0
O143 O 0.3769 0.169 0.76524 0.0
O144 O 0.38426 0.13534 0.75976 0.0
O145 O 0.33492 0.16222 0.71587 0.0
O146 O 0.34276 0.1706 0.7461 0.0
C147 C 0.40135 0.13657 0.69631 0.0
O148 O 0.38251 0.11438 0.72869 0.0
O149 O 0.35035 0.1242 0.71929 0.0
C150 C 0.37937 0.15009 0.77138 0.0
O151 O 0.40926 0.14168 0.7126 0.0
O152 O 0.38133 0.13433 0.6945 0.0
C153 C 0.36581 0.19111 0.7008 0.0
Fe154 Fe 0.1075 0.10578 0.95613 0.0
Fe155 Fe 0.07468 0.11429 0.9884 0.0
O156 O 0.09816 0.1216 0.97594 0.0
Fe157 Fe 0.11235 0.14451 0.98323 0.0
O158 O 0.10935 0.15617 0.95926 0.0
O159 O 0.12022 0.12825 0.94273 0.0
O160 O 0.0835 0.11134 0.94217 0.0
C161 C 0.06486 0.10761 0.94833 0.0
C162 C 0.14447 0.11379 0.97608 0.0
O163 O 0.06154 0.10349 0.96632 0.0
C164 C 0.10164 0.12862 0.01913 0.0
O165 O 0.0958 0.08045 0.96543 0.0
O166 O 0.0863 0.08907 0.99513 0.0
O167 O 0.1385 0.13308 0.97725 0.0
O168 O 0.13205 0.09965 0.96933 0.0
C169 C 0.06914 0.15723 0.98591 0.0
O170 O 0.08331 0.12415 0.01255 0.0
O171 O 0.11631 0.13443 0.00775 0.0
C172 C 0.08963 0.07495 0.98247 0.0
O173 O 0.06189 0.13899 0.98235 0.0
O174 O 0.08855 0.15985 0.99048 0.0
C175 C 0.11617 0.14808 0.94359 0.0
Fe176 Fe 0.85715 0.85159 0.71095 0.0
Fe177 Fe 0.8954 0.86622 0.73577 0.0
O178 O 0.87586 0.84687 0.72999 0.0
Fe179 Fe 0.87558 0.82264 0.7432 0.0
O180 O 0.88044 0.80739 0.72102 0.0
O181 O 0.8563 0.82356 0.70282 0.0
O182 O 0.87838 0.85523 0.69307 0.0
C183 C 0.89382 0.86793 0.69461 0.0
C184 C 0.83172 0.83103 0.73756 0.0
O185 O 0.89772 0.87689 0.71081 0.0
C186 C 0.883 0.85052 0.77293 0.0
O187 O 0.85511 0.88066 0.71598 0.0
O188 O 0.87511 0.88533 0.74226 0.0
O189 O 0.84702 0.81864 0.7412 0.0
O190 O 0.83431 0.84755 0.72719 0.0
C191 C 0.91928 0.83024 0.73788 0.0
O192 O 0.89669 0.85937 0.76196 0.0
O193 O 0.87061 0.83653 0.76611 0.0
C194 C 0.86033 0.89143 0.73108 0.0
O195 O 0.91688 0.84799 0.72953 0.0
O196 O 0.90429 0.822 0.74764 0.0
C197 C 0.86903 0.80814 0.70575 0.0
Fe198 Fe 0.93456 0.12555 0.49114 0.0
Fe199 Fe 0.90478 0.10915 0.45851 0.0
O200 O 0.91009 0.12675 0.47836 0.0
Fe201 Fe 0.89106 0.14612 0.48542 0.0
O202 O 0.90932 0.16783 0.47984 0.0
O203 O 0.9356 0.15397 0.49669 0.0
O204 O 0.94942 0.13136 0.46897 0.0
C205 C 0.94819 0.12105 0.45308 0.0
C206 C 0.90746 0.1319 0.52172 0.0
O207 O 0.93257 0.1087 0.4497 0.0
C208 C 0.86538 0.11157 0.47959 0.0
O209 O 0.93824 0.09714 0.48789 0.0
O210 O 0.90914 0.08535 0.47355 0.0
O211 O 0.89853 0.14608 0.5114 0.0
O212 O 0.92111 0.11962 0.51417 0.0
C213 C 0.88821 0.14682 0.44435 0.0
O214 O 0.87587 0.10693 0.46415 0.0
O215 O 0.87194 0.12564 0.49134 0.0
C216 C 0.92574 0.08214 0.48366 0.0
O217 O 0.90068 0.13136 0.44167 0.0
O218 O 0.8798 0.14981 0.46093 0.0
C219 C 0.92741 0.16957 0.48775 0.0
Fe220 Fe 0.63484 0.18338 0.24147 0.0
Fe221 Fe 0.65083 0.15297 0.20917 0.0
O222 O 0.63301 0.15893 0.22866 0.0
Fe223 Fe 0.6128 0.14061 0.23544 0.0
O224 O 0.59191 0.15966 0.22952 0.0
O225 O 0.60639 0.18534 0.24669 0.0
O226 O 0.62988 0.19846 0.21929 0.0
C227 C 0.64022 0.19675 0.20345 0.0
C228 C 0.62728 0.15633 0.27183 0.0
O229 O 0.65208 0.1807 0.20016 0.0
C230 C 0.64666 0.11375 0.23041 0.0
O231 O 0.66338 0.18625 0.23854 0.0
O232 O 0.6745 0.15675 0.22449 0.0
O233 O 0.61272 0.14812 0.26144 0.0
O234 O 0.64005 0.16964 0.26446 0.0
C235 C 0.61301 0.13745 0.19431 0.0
O236 O 0.65215 0.12399 0.21505 0.0
O237 O 0.63239 0.12076 0.24171 0.0
C238 C 0.67807 0.17332 0.23452 0.0
O239 O 0.62891 0.14942 0.19202 0.0
O240 O 0.60909 0.12938 0.21088 0.0
C241 C 0.59069 0.17779 0.23742 0.0
Fe242 Fe 0.57215 0.89198 0.98883 0.0
Fe243 Fe 0.60511 0.89999 0.95661 0.0
O244 O 0.59581 0.88463 0.9767 0.0
Fe245 Fe 0.61013 0.86204 0.98451 0.0
O246 O 0.58644 0.8467 0.99211 0.0
O247 O 0.55968 0.867 0.98315 0.0
O248 O 0.55903 0.90216 0.9664 0.0
C249 C 0.56255 0.89732 0.94859 0.0
C250 C 0.5991 0.87852 0.02003 0.0
O251 O 0.58129 0.89369 0.9427 0.0
C252 C 0.64231 0.89264 0.97615 0.0
O253 O 0.58346 0.91744 0.99514 0.0
O254 O 0.59313 0.92543 0.96531 0.0
O255 O 0.61394 0.87284 0.00878 0.0
O256 O 0.58075 0.88271 0.01326 0.0
C257 C 0.61413 0.85751 0.94504 0.0
O258 O 0.62961 0.9067 0.96969 0.0
O259 O 0.63624 0.87346 0.97821 0.0
C260 C 0.5869 0.93128 0.98223 0.0
O261 O 0.61808 0.87733 0.94378 0.0
O262 O 0.60723 0.84976 0.96082 0.0
C263 C 0.56708 0.84895 0.9872 0.0
Fe264 Fe 0.89526 0.14073 0.76535 0.0
Fe265 Fe 0.86894 0.18138 0.76108 0.0
O266 O 0.87433 0.15733 0.77352 0.0
Fe267 Fe 0.85871 0.14986 0.7942 0.0
O268 O 0.88055 0.13544 0.80684 0.0
O269 O 0.90846 0.14278 0.78866 0.0
O270 O 0.91261 0.16262 0.75705 0.0
C271 C 0.91232 0.18229 0.76119 0.0
C272 C 0.86207 0.11193 0.7745 0.0
O273 O 0.89524 0.19147 0.76574 0.0
C274 C 0.82849 0.17009 0.7688 0.0
O275 O 0.8835 0.13759 0.7414 0.0
O276 O 0.8765 0.17143 0.73662 0.0
O277 O 0.84962 0.12563 0.78192 0.0
O278 O 0.88169 0.11594 0.77211 0.0
C279 C 0.86496 0.19235 0.80133 0.0
O280 O 0.84223 0.17271 0.75563 0.0
O281 O 0.83415 0.16357 0.78567 0.0
C282 C 0.87886 0.15269 0.73006 0.0
O283 O 0.8608 0.19592 0.78339 0.0
O284 O 0.86701 0.17349 0.80758 0.0
C285 C 0.90059 0.13741 0.80489 0.0
Fe286 Fe 0.60679 0.10732 0.54317 0.0
Fe287 Fe 0.61609 0.14448 0.51512 0.0
O288 O 0.59953 0.12325 0.52267 0.0
Fe289 Fe 0.57578 0.11777 0.50977 0.0
O290 O 0.56095 0.10915 0.53181 0.0
O291 O 0.583 0.11535 0.5563 0.0
O292 O 0.62098 0.12901 0.55631 0.0
C293 C 0.61878 0.14907 0.55477 0.0
C294 C 0.58706 0.07732 0.51718 0.0
O295 O 0.61349 0.15724 0.53864 0.0
C296 C 0.60504 0.12832 0.47943 0.0
O297 O 0.63112 0.09856 0.53094 0.0
O298 O 0.64089 0.13093 0.52204 0.0
O299 O 0.58488 0.09124 0.50411 0.0
O300 O 0.59324 0.08281 0.5342 0.0
C301 C 0.57438 0.16114 0.51031 0.0
O302 O 0.61979 0.13316 0.49107 0.0
O303 O 0.58615 0.12574 0.48556 0.0
C304 C 0.64485 0.11125 0.52397 0.0
O305 O 0.59418 0.16175 0.50672 0.0
O306 O 0.5653 0.1439 0.51454 0.0
C307 C 0.56426 0.11299 0.54987 0.0
Fe308 Fe 0.60778 0.86572 0.26537 0.0
Fe309 Fe 0.62826 0.82223 0.25901 0.0
O310 O 0.62746 0.8467 0.27182 0.0
Fe311 Fe 0.64573 0.85198 0.29111 0.0
O312 O 0.62413 0.85606 0.30854 0.0
O313 O 0.60486 0.87701 0.29001 0.0
O314 O 0.58631 0.84735 0.27152 0.0
C315 C 0.58438 0.82929 0.26359 0.0
C316 C 0.6425 0.8915 0.27013 0.0
O317 O 0.59972 0.82122 0.25419 0.0
C318 C 0.67193 0.8309 0.26537 0.0
O319 O 0.60705 0.85829 0.23934 0.0
O320 O 0.63347 0.83573 0.23586 0.0
O321 O 0.64785 0.88093 0.28535 0.0
O322 O 0.62795 0.88494 0.2589 0.0
C323 C 0.63384 0.8086 0.29699 0.0
O324 O 0.65675 0.81846 0.26152 0.0
O325 O 0.66904 0.84757 0.27547 0.0
C326 C 0.62094 0.84938 0.22865 0.0
O327 O 0.62311 0.80734 0.28134 0.0
O328 O 0.64638 0.82418 0.29998 0.0
C329 C 0.60873 0.86873 0.3065 0.0
Fe330 Fe 0.93317 0.89449 0.01139 0.0
Fe331 Fe 0.9006 0.90267 0.04398 0.0
O332 O 0.90993 0.88692 0.02413 0.0
Fe333 Fe 0.89595 0.86381 0.017 0.0
O334 O 0.91982 0.84885 0.00934 0.0
O335 O 0.94632 0.86994 0.01737 0.0
O336 O 0.94648 0.90553 0.03329 0.0
C337 C 0.94339 0.90147 0.05133 0.0
C338 C 0.9059 0.87985 0.98099 0.0
O339 O 0.92486 0.8976 0.05766 0.0
C340 C 0.86336 0.89386 0.02471 0.0
O341 O 0.92118 0.91955 0.00472 0.0
O342 O 0.91172 0.92814 0.03444 0.0
O343 O 0.89146 0.87396 0.99259 0.0
O344 O 0.92431 0.88445 0.98733 0.0
C345 C 0.89282 0.86023 0.05663 0.0
O346 O 0.87565 0.90833 0.03109 0.0
O347 O 0.86978 0.87474 0.02346 0.0
C348 C 0.91775 0.93366 0.01737 0.0
O349 O 0.88862 0.88002 0.05764 0.0
O350 O 0.89942 0.85213 0.04088 0.0
C351 C 0.93923 0.85165 0.0138 0.0
Fe352 Fe 0.61191 0.64437 0.7695 0.0
Fe353 Fe 0.65114 0.64955 0.79599 0.0
O354 O 0.63493 0.65868 0.7764 0.0
Fe355 Fe 0.64192 0.68217 0.76376 0.0
O356 O 0.61731 0.69482 0.77032 0.0
O357 O 0.59643 0.66813 0.7623 0.0
O358 O 0.60053 0.64738 0.7936 0.0
C359 C 0.60906 0.64094 0.80921 0.0
C360 C 0.62713 0.65501 0.73334 0.0
O361 O 0.62894 0.63717 0.80991 0.0
C362 C 0.68142 0.6673 0.769 0.0
O363 O 0.62338 0.61827 0.7756 0.0
O364 O 0.65696 0.62474 0.78302 0.0
O365 O 0.63153 0.6734 0.73982 0.0
O366 O 0.6217 0.64031 0.74485 0.0
C367 C 0.64941 0.69227 0.80358 0.0
O368 O 0.67627 0.66105 0.78611 0.0
O369 O 0.66706 0.67069 0.75658 0.0
C370 C 0.64256 0.61208 0.77717 0.0
O371 O 0.64588 0.67366 0.80985 0.0
O372 O 0.65321 0.69549 0.78553 0.0
C373 C 0.59904 0.6875 0.76705 0.0
Fe374 Fe 0.60644 0.40017 0.04231 0.0
Fe375 Fe 0.57329 0.39183 0.01029 0.0
O376 O 0.59702 0.38453 0.0224 0.0
Fe377 Fe 0.61133 0.36182 0.01467 0.0
O378 O 0.60895 0.34975 0.03851 0.0
O379 O 0.61933 0.37767 0.0554 0.0
O380 O 0.58264 0.39424 0.05641 0.0
C381 C 0.56389 0.39785 0.05054 0.0
C382 C 0.64339 0.39267 0.022 0.0
O383 O 0.5603 0.4022 0.03264 0.0
C384 C 0.59991 0.37797 0.97906 0.0
O385 O 0.59449 0.42554 0.03338 0.0
O386 O 0.58457 0.41724 0.00372 0.0
O387 O 0.63746 0.3734 0.02041 0.0
O388 O 0.63093 0.40663 0.02903 0.0
C389 C 0.56818 0.34879 0.01245 0.0
O390 O 0.58167 0.3824 0.98589 0.0
O391 O 0.61478 0.37221 0.99021 0.0
C392 C 0.58793 0.43121 0.01652 0.0
O393 O 0.56082 0.36693 0.0162 0.0
O394 O 0.58754 0.34635 0.0076 0.0
C395 C 0.61567 0.3578 0.05422 0.0
Fe396 Fe 0.85758 0.35666 0.29341 0.0
Fe397 Fe 0.86717 0.32419 0.26096 0.0
O398 O 0.87376 0.34782 0.27359 0.0
Fe399 Fe 0.89627 0.36276 0.2665 0.0
O400 O 0.90781 0.35985 0.29046 0.0
O401 O 0.87959 0.37014 0.30682 0.0
O402 O 0.86389 0.33288 0.30737 0.0
C403 C 0.86119 0.31406 0.30119 0.0
C404 C 0.86453 0.39393 0.27353 0.0
O405 O 0.8573 0.31047 0.28318 0.0
C406 C 0.88071 0.35203 0.23044 0.0
O407 O 0.83265 0.34408 0.28426 0.0
O408 O 0.84145 0.33486 0.25456 0.0
O409 O 0.88399 0.38851 0.27256 0.0
O410 O 0.85068 0.38107 0.28015 0.0
C411 C 0.91034 0.31999 0.26306 0.0
O412 O 0.87639 0.33353 0.23677 0.0
O413 O 0.88627 0.36662 0.24199 0.0
C414 C 0.8273 0.33758 0.26731 0.0
O415 O 0.89234 0.31212 0.26648 0.0
O416 O 0.9125 0.33962 0.25918 0.0
C417 C 0.89951 0.36652 0.30606 0.0
Fe418 Fe 0.89502 0.64368 0.51656 0.0
Fe419 Fe 0.89955 0.60501 0.54381 0.0
O420 O 0.9091 0.62079 0.52406 0.0
Fe421 Fe 0.93272 0.61357 0.5118 0.0
O422 O 0.94538 0.63823 0.5182 0.0
O423 O 0.91893 0.65888 0.50919 0.0
O424 O 0.89814 0.65548 0.54043 0.0
C425 C 0.89177 0.6474 0.55628 0.0
C426 C 0.90596 0.6276 0.48089 0.0
O427 O 0.88716 0.62768 0.55717 0.0
C428 C 0.91742 0.57423 0.51739 0.0
O429 O 0.86877 0.63256 0.52265 0.0
O430 O 0.87492 0.59911 0.53058 0.0
O431 O 0.92435 0.62369 0.48763 0.0
O432 O 0.89108 0.6332 0.49214 0.0
C433 C 0.9422 0.60666 0.55181 0.0
O434 O 0.91103 0.57965 0.5344 0.0
O435 O 0.92119 0.58839 0.50483 0.0
C436 C 0.8626 0.61335 0.52386 0.0
O437 O 0.92352 0.61025 0.55792 0.0
O438 O 0.94564 0.60259 0.53386 0.0
C439 C 0.93818 0.65642 0.51439 0.0
Fe440 Fe 0.6096 0.35944 0.73436 0.0
Fe441 Fe 0.64911 0.35396 0.70851 0.0
O442 O 0.63269 0.34496 0.72807 0.0
Fe443 Fe 0.63941 0.32167 0.74111 0.0
O444 O 0.61446 0.30899 0.73531 0.0
O445 O 0.59395 0.33623 0.74226 0.0
O446 O 0.59872 0.35525 0.71019 0.0
C447 C 0.60749 0.36143 0.69459 0.0
C448 C 0.62474 0.35 0.77086 0.0
O449 O 0.62708 0.36649 0.69448 0.0
C450 C 0.67919 0.33615 0.73546 0.0
O451 O 0.6212 0.38532 0.72772 0.0
O452 O 0.65498 0.37872 0.72158 0.0
O453 O 0.62953 0.33143 0.76494 0.0
O454 O 0.61902 0.36426 0.75897 0.0
C455 C 0.64689 0.31112 0.70115 0.0
O456 O 0.6741 0.34231 0.71835 0.0
O457 O 0.66484 0.33281 0.7479 0.0
C458 C 0.64051 0.39132 0.72741 0.0
O459 O 0.64386 0.3298 0.69475 0.0
O460 O 0.65014 0.30778 0.71932 0.0
C461 C 0.59634 0.31658 0.73879 0.0
Fe462 Fe 0.89231 0.35997 0.98604 0.0
Fe463 Fe 0.9046 0.39779 0.95945 0.0
O464 O 0.9106 0.38011 0.97907 0.0
Fe465 Fe 0.93511 0.38196 0.99174 0.0
O466 O 0.93705 0.35358 0.99713 0.0
O467 O 0.91132 0.339 0.98016 0.0
O468 O 0.88103 0.3561 0.9616 0.0
C469 C 0.88906 0.35971 0.94496 0.0
C470 C 0.90829 0.3746 0.02233 0.0
O471 O 0.90091 0.37568 0.94236 0.0
C472 C 0.92516 0.42518 0.98456 0.0
O473 O 0.87245 0.37962 0.99219 0.0
O474 O 0.8757 0.39918 0.96542 0.0
O475 O 0.92157 0.38733 0.01482 0.0
O476 O 0.89991 0.36008 0.01201 0.0
C477 C 0.94832 0.38718 0.95367 0.0
O478 O 0.9085 0.42158 0.97464 0.0
O479 O 0.93803 0.41047 0.98865 0.0
C480 C 0.86537 0.39374 0.98075 0.0
O481 O 0.93229 0.39906 0.95044 0.0
O482 O 0.94999 0.37676 0.96946 0.0
C483 C 0.92957 0.33791 0.98781 0.0
Fe484 Fe 0.89502 0.64075 0.23627 0.0
Fe485 Fe 0.85741 0.65508 0.2104 0.0
O486 O 0.87553 0.65997 0.22992 0.0
Fe487 Fe 0.87479 0.68433 0.24303 0.0
O488 O 0.90327 0.68502 0.24843 0.0
O489 O 0.91656 0.65917 0.23066 0.0
O490 O 0.89841 0.63006 0.21145 0.0
C491 C 0.89466 0.63864 0.19506 0.0
C492 C 0.88097 0.65639 0.27295 0.0
O493 O 0.87908 0.65108 0.19306 0.0
C494 C 0.83114 0.6761 0.23609 0.0
O495 O 0.8748 0.6214 0.2421 0.0
O496 O 0.85497 0.62604 0.21571 0.0
O497 O 0.86906 0.67062 0.26585 0.0
O498 O 0.89511 0.64753 0.26248 0.0
C499 C 0.86981 0.69844 0.20523 0.0
O500 O 0.83401 0.65947 0.22594 0.0
O501 O 0.84637 0.6884 0.24014 0.0
C502 C 0.8603 0.61511 0.23071 0.0
O503 O 0.85719 0.683 0.20191 0.0
O504 O 0.8804 0.69945 0.22097 0.0
C505 C 0.91859 0.67693 0.23904 0.0
Fe506 Fe 0.61337 0.64682 0.48779 0.0
Fe507 Fe 0.6008 0.6084 0.46209 0.0
O508 O 0.59518 0.62629 0.48162 0.0
Fe509 Fe 0.57111 0.62424 0.49498 0.0
O510 O 0.56889 0.65266 0.50015 0.0
O511 O 0.59383 0.66738 0.48226 0.0
O512 O 0.62374 0.65059 0.46288 0.0
C513 C 0.61532 0.64634 0.44652 0.0
C514 C 0.59871 0.63243 0.52476 0.0
O515 O 0.60352 0.63024 0.44467 0.0
C516 C 0.58155 0.58107 0.48801 0.0
O517 O 0.63375 0.62761 0.49356 0.0
O518 O 0.62992 0.60752 0.46721 0.0
O519 O 0.58544 0.6194 0.51772 0.0
O520 O 0.60668 0.64687 0.51403 0.0
C521 C 0.55678 0.61832 0.45735 0.0
O522 O 0.59785 0.58483 0.47766 0.0
O523 O 0.56855 0.59562 0.49227 0.0
C524 C 0.64062 0.61333 0.48219 0.0
O525 O 0.57283 0.60656 0.45387 0.0
O526 O 0.55547 0.62894 0.47306 0.0
C527 C 0.57589 0.66837 0.49055 0.0
Fe528 Fe 0.3664 0.32223 0.23946 0.0
Fe529 Fe 0.35844 0.35544 0.20733 0.0
O530 O 0.37404 0.3457 0.22716 0.0
Fe531 Fe 0.39713 0.35953 0.23458 0.0
O532 O 0.41212 0.33557 0.24192 0.0
O533 O 0.39104 0.30919 0.2336 0.0
O534 O 0.35583 0.30932 0.21719 0.0
C535 C 0.36018 0.31279 0.19926 0.0
C536 C 0.3808 0.34898 0.27037 0.0
O537 O 0.36375 0.33149 0.19319 0.0
C538 C 0.36699 0.39223 0.22735 0.0
O539 O 0.34122 0.33399 0.24602 0.0
O540 O 0.33292 0.34398 0.21638 0.0
O541 O 0.38702 0.36357 0.25907 0.0
O542 O 0.37601 0.33074 0.26375 0.0
C543 C 0.40089 0.36351 0.19502 0.0
O544 O 0.35258 0.38003 0.2207 0.0
O545 O 0.38614 0.38584 0.22855 0.0
C546 C 0.32724 0.33765 0.23331 0.0
O547 O 0.38115 0.36795 0.19415 0.0
O548 O 0.4088 0.35636 0.21064 0.0
C549 C 0.40933 0.31622 0.23728 0.0
Fe550 Fe 0.433 0.62401 0.99504 0.0
Fe551 Fe 0.40374 0.6079 0.96189 0.0
O552 O 0.409 0.62579 0.98151 0.0
Fe553 Fe 0.39047 0.64605 0.98764 0.0
O554 O 0.40976 0.66689 0.98227 0.0
O555 O 0.43483 0.65247 1.00021 0.0
O556 O 0.44885 0.62886 0.97326 0.0
C557 C 0.4477 0.61843 0.95744 0.0
C558 C 0.40507 0.63182 0.02465 0.0
O559 O 0.43175 0.6066 0.95373 0.0
C560 C 0.36368 0.61225 0.9818 0.0
O561 O 0.43593 0.59545 0.99231 0.0
O562 O 0.40699 0.58427 0.97735 0.0
O563 O 0.39698 0.64615 0.0139 0.0
O564 O 0.41855 0.61896 0.01768 0.0
C565 C 0.38877 0.64565 0.94638 0.0
O566 O 0.37459 0.6066 0.96689 0.0
O567 O 0.37029 0.62652 0.9933 0.0
C568 C 0.42324 0.58071 0.98782 0.0
O569 O 0.4008 0.62973 0.94455 0.0
O570 O 0.38019 0.64976 0.9627 0.0
C571 C 0.42763 0.66812 0.99065 0.0
Fe572 Fe 0.15057 0.65037 0.70627 0.0
Fe573 Fe 0.11072 0.64509 0.73182 0.0
O574 O 0.13401 0.65942 0.72575 0.0
Fe575 Fe 0.14084 0.68267 0.73881 0.0
O576 O 0.15157 0.69652 0.71699 0.0
O577 O 0.14534 0.67447 0.69242 0.0
O578 O 0.1287 0.63767 0.69214 0.0
C579 C 0.10913 0.64273 0.69207 0.0
C580 C 0.18055 0.66834 0.73323 0.0
O581 O 0.10026 0.64911 0.7075 0.0
C582 C 0.12551 0.65461 0.76849 0.0
O583 O 0.1563 0.62566 0.71943 0.0
O584 O 0.12244 0.61906 0.72557 0.0
O585 O 0.16615 0.67134 0.74565 0.0
O586 O 0.17551 0.66214 0.71613 0.0
C587 C 0.09778 0.6881 0.73564 0.0
O588 O 0.1195 0.64042 0.75665 0.0
O589 O 0.13087 0.67301 0.7626 0.0
C590 C 0.14173 0.61293 0.7248 0.0
O591 O 0.09498 0.66849 0.73913 0.0
O592 O 0.11611 0.69554 0.73294 0.0
C593 C 0.14811 0.69317 0.69885 0.0
Fe594 Fe 0.10587 0.4014 0.45675 0.0
Fe595 Fe 0.11015 0.36166 0.48271 0.0
O596 O 0.09633 0.38508 0.47614 0.0
Fe597 Fe 0.07304 0.39242 0.48892 0.0
O598 O 0.05994 0.40405 0.46717 0.0
O599 O 0.08172 0.39668 0.44277 0.0
O600 O 0.11803 0.37921 0.44266 0.0
C601 C 0.11377 0.35942 0.44301 0.0
C602 C 0.08858 0.43169 0.4839 0.0
O603 O 0.10693 0.35079 0.45844 0.0
C604 C 0.09995 0.3766 0.51911 0.0
O605 O 0.13068 0.40664 0.46998 0.0
O606 O 0.13644 0.37281 0.47688 0.0
O607 O 0.08509 0.41726 0.49622 0.0
O608 O 0.09468 0.4266 0.46674 0.0
C609 C 0.06675 0.34965 0.48534 0.0
O610 O 0.1144 0.37083 0.50747 0.0
O611 O 0.08168 0.38176 0.51281 0.0
C612 C 0.14287 0.39198 0.47617 0.0
O613 O 0.08613 0.34652 0.48969 0.0
O614 O 0.05979 0.36811 0.48234 0.0
C615 C 0.06313 0.40036 0.44908 0.0
Fe616 Fe 0.3925 0.64681 0.26908 0.0
Fe617 Fe 0.3613 0.6835 0.26315 0.0
O618 O 0.36909 0.66041 0.27595 0.0
Fe619 Fe 0.35338 0.65092 0.29574 0.0
O620 O 0.37615 0.63928 0.30951 0.0
O621 O 0.40382 0.65094 0.29303 0.0
O622 O 0.40712 0.67089 0.26131 0.0
C623 C 0.40402 0.69022 0.26588 0.0
C624 C 0.36298 0.61364 0.27714 0.0
O625 O 0.38559 0.69703 0.26931 0.0
C626 C 0.32234 0.66742 0.26889 0.0
O627 O 0.38265 0.64194 0.2446 0.0
O628 O 0.37168 0.67464 0.23922 0.0
O629 O 0.3482 0.62588 0.28291 0.0
O630 O 0.38199 0.62041 0.2757 0.0
C631 C 0.354 0.69376 0.30302 0.0
O632 O 0.33648 0.67113 0.25634 0.0
O633 O 0.32781 0.66163 0.28605 0.0
C634 C 0.3766 0.65627 0.23294 0.0
O635 O 0.34991 0.69674 0.28497 0.0
O636 O 0.35804 0.67528 0.30939 0.0
C637 C 0.39573 0.64443 0.30883 0.0
Fe638 Fe 0.11371 0.64734 0.01266 0.0
Fe639 Fe 0.07051 0.62575 0.00847 0.0
O640 O 0.09541 0.62755 0.02045 0.0
Fe641 Fe 0.10184 0.61011 0.04013 0.0
O642 O 0.10629 0.6324 0.05677 0.0
O643 O 0.12582 0.65148 0.03679 0.0
O644 O 0.09519 0.66863 0.01875 0.0
C645 C 0.07681 0.66992 0.01138 0.0
C646 C 0.14042 0.61337 0.01774 0.0
O647 O 0.06868 0.6541 0.00274 0.0
C648 C 0.08029 0.58257 0.01588 0.0
O649 O 0.10519 0.64699 0.9869 0.0
O650 O 0.08327 0.61981 0.98511 0.0
O651 O 0.13056 0.60838 0.03346 0.0
O652 O 0.13311 0.6273 0.00622 0.0
C653 C 0.05841 0.62133 0.04697 0.0
O654 O 0.06738 0.59733 0.01206 0.0
O655 O 0.09726 0.58613 0.02535 0.0
C656 C 0.09623 0.63244 0.97706 0.0
O657 O 0.0564 0.63148 0.03106 0.0
O658 O 0.07439 0.60929 0.04994 0.0
C659 C 0.11828 0.64815 0.05369 0.0
Fe660 Fe 0.14925 0.35342 0.79027 0.0
Fe661 Fe 0.11084 0.35887 0.76305 0.0
O662 O 0.1336 0.34438 0.77022 0.0
Fe663 Fe 0.14074 0.32097 0.75751 0.0
O664 O 0.15083 0.30719 0.77962 0.0
O665 O 0.14358 0.32924 0.80389 0.0
O666 O 0.12663 0.36578 0.80365 0.0
C667 C 0.10694 0.36109 0.80274 0.0
C668 C 0.18028 0.33563 0.76415 0.0
O669 O 0.0989 0.35495 0.78681 0.0
C670 C 0.12725 0.34908 0.72715 0.0
O671 O 0.15554 0.37832 0.77746 0.0
O672 O 0.12207 0.38476 0.77 0.0
O673 O 0.16636 0.33209 0.75135 0.0
O674 O 0.17462 0.34186 0.7811 0.0
C675 C 0.09763 0.31606 0.75878 0.0
O676 O 0.12133 0.36352 0.73877 0.0
O677 O 0.1316 0.33053 0.73336 0.0
C678 C 0.14127 0.3909 0.7712 0.0
O679 O 0.09551 0.33563 0.7548 0.0
O680 O 0.11559 0.30838 0.76277 0.0
C681 C 0.14694 0.31056 0.79766 0.0
Fe682 Fe 0.43375 0.38753 0.50872 0.0
Fe683 Fe 0.40218 0.3964 0.54212 0.0
O684 O 0.41047 0.38072 0.5218 0.0
Fe685 Fe 0.39531 0.35832 0.51466 0.0
O686 O 0.41812 0.34251 0.5059 0.0
O687 O 0.44585 0.36211 0.51346 0.0
O688 O 0.44827 0.39693 0.53066 0.0
C689 C 0.44503 0.39331 0.54877 0.0
C690 C 0.40477 0.37491 0.47873 0.0
O691 O 0.42644 0.39029 0.55531 0.0
C692 C 0.36404 0.38931 0.52408 0.0
O693 O 0.42314 0.41349 0.50305 0.0
O694 O 0.41405 0.42162 0.53299 0.0
O695 O 0.39044 0.36913 0.49054 0.0
O696 O 0.42349 0.37893 0.48467 0.0
C697 C 0.39377 0.35405 0.55436 0.0
O698 O 0.37722 0.40326 0.52982 0.0
O699 O 0.36975 0.37002 0.52216 0.0
C700 C 0.42036 0.42732 0.51608 0.0
O701 O 0.38969 0.37385 0.5556 0.0
O702 O 0.39938 0.34607 0.53823 0.0
C703 C 0.43785 0.34432 0.50937 0.0
C704 C 0.15693 0.0848 0.24892 0.0
C705 C 0.15406 0.093 0.26794 0.0
C706 C 0.16052 0.06303 0.24596 0.0
C707 C 0.14463 0.01276 0.26619 0.0
H708 H 0.18763 0.98736 0.23274 0.0
C709 C 0.14279 0.92267 0.25115 0.0
C710 C 0.14934 0.91521 0.23272 0.0
C711 C 0.14672 0.9437 0.25681 0.0
C712 C 0.17529 0.99413 0.2419 0.0
H713 H 0.15329 0.08495 0.29882 0.0
H714 H 0.15894 0.04663 0.2936 0.0
H715 H 0.18904 0.02546 0.24005 0.0
H716 H 0.16538 0.92369 0.20576 0.0
H717 H 0.17123 0.96089 0.21502 0.0
H718 H 0.12985 0.98225 0.26712 0.0
C719 C 0.15878 0.0572 0.28103 0.0
C720 C 0.17628 0.01598 0.24623 0.0
C721 C 0.15572 0.07911 0.28403 0.0
C722 C 0.16034 0.92906 0.22014 0.0
C723 C 0.16375 0.9504 0.22557 0.0
C724 C 0.14333 0.9911 0.26152 0.0
C725 C 0.16079 0.0489 0.26193 0.0
C726 C 0.16094 0.0255 0.25843 0.0
C727 C 0.15666 0.95818 0.24391 0.0
C728 C 0.15863 0.98134 0.24928 0.0
H729 H 0.15562 0.09514 0.23625 0.0
H730 H 0.16186 0.05708 0.23109 0.0
H731 H 0.13234 0.01976 0.27531 0.0
H732 H 0.13446 0.9122 0.2612 0.0
H733 H 0.14165 0.94858 0.27131 0.0
C734 C 0.33293 0.89502 0.50187 0.0
C735 C 0.34031 0.90092 0.48322 0.0
C736 C 0.31177 0.89861 0.50729 0.0
C737 C 0.26066 0.92495 0.49111 0.0
H738 H 0.23605 0.88247 0.52567 0.0
C739 C 0.17046 0.90447 0.49836 0.0
C740 C 0.16227 0.9021 0.51746 0.0
C741 C 0.19216 0.90841 0.49533 0.0
C742 C 0.24275 0.89463 0.51622 0.0
H743 H 0.33156 0.91545 0.45563 0.0
H744 H 0.29416 0.92069 0.46452 0.0
H745 H 0.27369 0.88085 0.51781 0.0
H746 H 0.17027 0.90265 0.54836 0.0
H747 H 0.20844 0.90891 0.54302 0.0
H748 H 0.22896 0.93766 0.48863 0.0
C749 C 0.3048 0.914 0.47538 0.0
C750 C 0.26448 0.89383 0.51174 0.0
C751 C 0.32625 0.91095 0.47017 0.0
C752 C 0.17609 0.90461 0.5335 0.0
C753 C 0.19793 0.90804 0.53044 0.0
C754 C 0.23877 0.92542 0.49526 0.0
C755 C 0.29711 0.90752 0.49394 0.0
C756 C 0.27387 0.90897 0.4991 0.0
C757 C 0.20622 0.90957 0.51131 0.0
C758 C 0.22961 0.91025 0.50787 0.0
H759 H 0.34356 0.88742 0.51225 0.0
H760 H 0.30692 0.89405 0.52194 0.0
H761 H 0.26716 0.93715 0.48161 0.0
H762 H 0.16017 0.90256 0.48572 0.0
H763 H 0.19812 0.90937 0.48044 0.0
C764 C 0.34212 0.07696 0.71917 0.0
C765 C 0.35527 0.08885 0.73174 0.0
C766 C 0.33759 0.05553 0.72341 0.0
C767 C 0.33544 0.01539 0.76257 0.0
H768 H 0.3562 0.9753 0.72385 0.0
C769 C 0.35301 0.92723 0.78206 0.0
C770 C 0.35333 0.91196 0.76704 0.0
C771 C 0.34891 0.9487 0.77773 0.0
C772 C 0.34973 0.98606 0.73473 0.0
H773 H 0.37301 0.08817 0.759 0.0
H774 H 0.36441 0.05116 0.76673 0.0
H775 H 0.35567 0.0131 0.71626 0.0
H776 H 0.34823 0.90673 0.73603 0.0
H777 H 0.33953 0.94363 0.72863 0.0
H778 H 0.32918 0.98855 0.78102 0.0
C779 C 0.35787 0.05819 0.75352 0.0
C780 C 0.34956 0.00783 0.73032 0.0
C781 C 0.36286 0.07933 0.74905 0.0
C782 C 0.34816 0.91826 0.74787 0.0
C783 C 0.34348 0.93954 0.74362 0.0
C784 C 0.33515 0.99355 0.76685 0.0
C785 C 0.3456 0.04591 0.74056 0.0
C786 C 0.34284 0.02275 0.74433 0.0
C787 C 0.34458 0.9553 0.75831 0.0
C788 C 0.34274 0.97851 0.75316 0.0
H789 H 0.33621 0.08392 0.70569 0.0
H790 H 0.32811 0.04635 0.71316 0.0
H791 H 0.33012 0.0266 0.77362 0.0
H792 H 0.35726 0.92282 0.79692 0.0
H793 H 0.35023 0.96017 0.78951 0.0
C794 C 0.33033 0.09624 0.03241 0.0
C795 C 0.34321 0.1039 0.01707 0.0
C796 C 0.30868 0.09182 0.02916 0.0
C797 C 0.26175 0.10153 0.02102 0.0
H798 H 0.24036 0.07986 0.97149 0.0
C799 C 0.1791 0.12378 0.99171 0.0
C800 C 0.16671 0.10848 0.98184 0.0
C801 C 0.19999 0.11932 0.99736 0.0
C802 C 0.24601 0.08566 0.98552 0.0
H803 H 0.34375 0.11156 0.98602 0.0
H804 H 0.30634 0.10395 0.98042 0.0
H805 H 0.27837 0.07748 0.97888 0.0
H806 H 0.16672 0.07627 0.97035 0.0
H807 H 0.20354 0.0685 0.98013 0.0
H808 H 0.22948 0.11004 0.02753 0.0
C809 C 0.31279 0.10128 0.99496 0.0
C810 C 0.26784 0.08448 0.98969 0.0
C811 C 0.33427 0.10583 0.99822 0.0
C812 C 0.17582 0.08845 0.97787 0.0
C813 C 0.19692 0.08402 0.98343 0.0
C814 C 0.23996 0.10276 0.01683 0.0
C815 C 0.29954 0.09474 0.01046 0.0
C816 C 0.27607 0.09291 0.00728 0.0
C817 C 0.20924 0.09943 0.99329 0.0
C818 C 0.23189 0.09538 0.9988 0.0
H819 H 0.33671 0.09458 0.0471 0.0
H820 H 0.29898 0.08658 0.04139 0.0
H821 H 0.26747 0.10831 0.03465 0.0
H822 H 0.17267 0.13935 0.99514 0.0
H823 H 0.20907 0.1317 0.00461 0.0
C824 C 0.85143 0.92824 0.71937 0.0
C825 C 0.85173 0.91305 0.73447 0.0
C826 C 0.84755 0.94978 0.72362 0.0
C827 C 0.84894 0.9874 0.76646 0.0
H828 H 0.82943 0.02794 0.72752 0.0
C829 C 0.84154 0.07836 0.78196 0.0
C830 C 0.8545 0.09033 0.76927 0.0
C831 C 0.83707 0.0569 0.77777 0.0
C832 C 0.83475 0.01674 0.73859 0.0
H833 H 0.84683 0.90807 0.76555 0.0
H834 H 0.83849 0.94509 0.7728 0.0
H835 H 0.82828 0.98987 0.72023 0.0
H836 H 0.87199 0.08973 0.74186 0.0
H837 H 0.86348 0.05267 0.73421 0.0
H838 H 0.85507 0.01447 0.78484 0.0
C839 C 0.84229 0.94088 0.75781 0.0
C840 C 0.83432 0.99487 0.73437 0.0
C841 C 0.84674 0.91952 0.75364 0.0
C842 C 0.86197 0.08083 0.75191 0.0
C843 C 0.85704 0.05967 0.74747 0.0
C844 C 0.8489 0.0092 0.77081 0.0
C845 C 0.84343 0.95655 0.74303 0.0
C846 C 0.84184 0.97982 0.74808 0.0
C847 C 0.84496 0.04731 0.76055 0.0
C848 C 0.84221 0.02413 0.75679 0.0
H849 H 0.85556 0.92371 0.70451 0.0
H850 H 0.84888 0.96117 0.71177 0.0
H851 H 0.85538 0.97665 0.77736 0.0
H852 H 0.83573 0.08528 0.7955 0.0
H853 H 0.82773 0.04769 0.7881 0.0
C854 C 0.83534 0.10184 0.5019 0.0
C855 C 0.84353 0.10327 0.48273 0.0
C856 C 0.81377 0.09749 0.50512 0.0
C857 C 0.76251 0.10712 0.48253 0.0
H858 H 0.74018 0.0697 0.52287 0.0
C859 C 0.67267 0.10579 0.49866 0.0
C860 C 0.6662 0.1037 0.51825 0.0
C861 C 0.69375 0.10173 0.49322 0.0
C862 C 0.7461 0.08042 0.51169 0.0
H863 H 0.83565 0.10047 0.4519 0.0
H864 H 0.7977 0.09326 0.45752 0.0
H865 H 0.77826 0.06941 0.51537 0.0
H866 H 0.6764 0.09556 0.54758 0.0
H867 H 0.71358 0.08929 0.53839 0.0
H868 H 0.73094 0.11917 0.47949 0.0
C869 C 0.80811 0.09535 0.47005 0.0
C870 C 0.76794 0.08011 0.5073 0.0
C871 C 0.82984 0.09931 0.46683 0.0
C872 C 0.68102 0.09695 0.53231 0.0
C873 C 0.70232 0.09332 0.52696 0.0
C874 C 0.7408 0.10771 0.48712 0.0
C875 C 0.79978 0.09484 0.48923 0.0
C876 C 0.77639 0.09355 0.49274 0.0
C877 C 0.70912 0.0961 0.50736 0.0
C878 C 0.73221 0.09447 0.50186 0.0
H879 H 0.84551 0.10482 0.51445 0.0
H880 H 0.80783 0.09734 0.52005 0.0
H881 H 0.76859 0.11797 0.4715 0.0
H882 H 0.66145 0.11099 0.48756 0.0
H883 H 0.69802 0.10345 0.47791 0.0
C884 C 0.65735 0.07704 0.21911 0.0
C885 C 0.65455 0.09187 0.23432 0.0
C886 C 0.6607 0.05539 0.2234 0.0
C887 C 0.65175 0.01673 0.26437 0.0
H888 H 0.6816 0.97762 0.23005 0.0
C889 C 0.65714 0.92663 0.28206 0.0
C890 C 0.65086 0.91332 0.26653 0.0
C891 C 0.66152 0.94828 0.27868 0.0
C892 C 0.67322 0.98837 0.2398 0.0
H893 H 0.65463 0.09598 0.26586 0.0
H894 H 0.66158 0.05876 0.27334 0.0
H895 H 0.68236 0.0158 0.22306 0.0
H896 H 0.64554 0.91199 0.23511 0.0
H897 H 0.65351 0.94943 0.22921 0.0
H898 H 0.6426 0.98929 0.28106 0.0
C899 C 0.66028 0.06342 0.2581 0.0
C900 C 0.67354 0.01029 0.23573 0.0
C901 C 0.65655 0.08488 0.25382 0.0
C902 C 0.65027 0.92183 0.24742 0.0
C903 C 0.65494 0.9433 0.24401 0.0
C904 C 0.65165 0.9949 0.26854 0.0
C905 C 0.66163 0.04816 0.24301 0.0
C906 C 0.66259 0.02483 0.24783 0.0
C907 C 0.66006 0.95696 0.25964 0.0
C908 C 0.66214 0.98038 0.25618 0.0
H909 H 0.65566 0.08193 0.20394 0.0
H910 H 0.66149 0.04423 0.21132 0.0
H911 H 0.64265 0.02716 0.27385 0.0
H912 H 0.65763 0.92061 0.29695 0.0
H913 H 0.66559 0.95835 0.29102 0.0
C914 C 0.83172 0.91884 0.02113 0.0
C915 C 0.84081 0.89841 0.01935 0.0
C916 C 0.81051 0.92251 0.01529 0.0
C917 C 0.7688 0.89935 0.98317 0.0
H918 H 0.72776 0.92791 0.01659 0.0
C919 C 0.68011 0.88086 0.97946 0.0
C920 C 0.6652 0.89759 0.97935 0.0
C921 C 0.70164 0.88481 0.98285 0.0
C922 C 0.73913 0.92024 0.00694 0.0
H923 H 0.83442 0.86586 0.01017 0.0
H924 H 0.79806 0.87221 1.00029 0.0
H925 H 0.76568 0.92796 0.02557 0.0
H926 H 0.66137 0.93168 0.98292 0.0
H927 H 0.6994 0.93858 0.98927 0.0
H928 H 0.74235 0.89083 0.965 0.0
C929 C 0.80722 0.8855 0.0059 0.0
C930 C 0.76082 0.92027 0.01207 0.0
C931 C 0.82815 0.88184 0.01177 0.0
C932 C 0.67247 0.91848 0.9828 0.0
C933 C 0.69417 0.92241 0.98653 0.0
C934 C 0.74725 0.89924 0.97813 0.0
C935 C 0.79814 0.90588 0.00736 0.0
C936 C 0.77578 0.90916 0.00058 0.0
C937 C 0.70898 0.90557 0.98645 0.0
C938 C 0.73207 0.90906 0.99026 0.0
H939 H 0.84099 0.93197 0.02689 0.0
H940 H 0.80394 0.93839 0.01662 0.0
H941 H 0.77995 0.89109 0.97373 0.0
H942 H 0.67516 0.86457 0.97685 0.0
H943 H 0.71258 0.87146 0.98294 0.0
C944 C 0.66786 0.58168 0.76977 0.0
C945 C 0.6472 0.58912 0.77397 0.0
C946 C 0.67145 0.55994 0.76595 0.0
C947 C 0.64797 0.50696 0.77493 0.0
H948 H 0.67527 0.48857 0.72676 0.0
C949 C 0.62904 0.4264 0.74105 0.0
C950 C 0.64536 0.41372 0.73305 0.0
C951 C 0.633 0.44724 0.74706 0.0
C952 C 0.66796 0.49342 0.74045 0.0
H953 H 0.61425 0.57942 0.77777 0.0
H954 H 0.62055 0.54194 0.7715 0.0
H955 H 0.67581 0.52642 0.73593 0.0
H956 H 0.67877 0.41335 0.72498 0.0
H957 H 0.68569 0.45023 0.73546 0.0
H958 H 0.63959 0.47431 0.77933 0.0
C959 C 0.63399 0.55276 0.77108 0.0
C960 C 0.66828 0.51508 0.74569 0.0
C961 C 0.63037 0.57434 0.77457 0.0
C962 C 0.66583 0.42265 0.73106 0.0
C963 C 0.66978 0.44377 0.73701 0.0
C964 C 0.64771 0.48545 0.76976 0.0
C965 C 0.65451 0.54525 0.76668 0.0
C966 C 0.65763 0.52214 0.76266 0.0
C967 C 0.65341 0.45619 0.7453 0.0
C968 C 0.65702 0.47849 0.75212 0.0
H969 H 0.68113 0.59268 0.76909 0.0
H970 H 0.68744 0.55458 0.76259 0.0
H971 H 0.63997 0.51185 0.78828 0.0
H972 H 0.61305 0.4202 0.74286 0.0
H973 H 0.6199 0.45644 0.75299 0.0
C974 C 0.83077 0.41002 0.96911 0.0
C975 C 0.84333 0.40159 0.98432 0.0
C976 C 0.80907 0.4144 0.9722 0.0
C977 C 0.76179 0.40509 0.97919 0.0
H978 H 0.73977 0.4245 0.02929 0.0
C979 C 0.67796 0.38314 0.00598 0.0
C980 C 0.66572 0.39806 0.01651 0.0
C981 C 0.69904 0.38749 0.00083 0.0
C982 C 0.74559 0.41934 0.01511 0.0
H983 H 0.84319 0.39242 0.01503 0.0
H984 H 0.80572 0.39994 0.02034 0.0
H985 H 0.77797 0.42646 0.02267 0.0
H986 H 0.66622 0.4295 0.02964 0.0
H987 H 0.70337 0.43708 0.02071 0.0
H988 H 0.7295 0.39767 0.97174 0.0
C989 C 0.81245 0.40326 0.00603 0.0
C990 C 0.76754 0.42026 0.01137 0.0
C991 C 0.83399 0.39877 0.00292 0.0
C992 C 0.67517 0.41763 0.02158 0.0
C993 C 0.69647 0.42194 0.01653 0.0
C994 C 0.73989 0.40411 0.98295 0.0
C995 C 0.79953 0.41065 0.99063 0.0
C996 C 0.776 0.41264 0.99354 0.0
C997 C 0.70866 0.40688 0.00606 0.0
C998 C 0.73155 0.41069 0.00115 0.0
H999 H 0.83744 0.41238 0.95461 0.0
H1000 H 0.79965 0.4203 0.96006 0.0
H1001 H 0.76766 0.39895 0.96536 0.0
H1002 H 0.67127 0.36793 0.0017 0.0
H1003 H 0.70797 0.37535 0.99308 0.0
C1004 C 0.83861 0.42493 0.27179 0.0
C1005 C 0.85876 0.41612 0.26778 0.0
C1006 C 0.83389 0.44604 0.26636 0.0
C1007 C 0.85231 0.4898 0.23333 0.0
H1008 H 0.82591 0.52741 0.27128 0.0
C1009 C 0.85348 0.58409 0.2528 0.0
C1010 C 0.85195 0.59321 0.23399 0.0
C1011 C 0.84915 0.5625 0.2558 0.0
C1012 C 0.83324 0.51711 0.26046 0.0
H1013 H 0.88953 0.42264 0.25448 0.0
H1014 H 0.8814 0.45898 0.24524 0.0
H1015 H 0.82878 0.48937 0.27839 0.0
H1016 H 0.8436 0.58689 0.20371 0.0
H1017 H 0.83594 0.54896 0.20895 0.0
H1018 H 0.85769 0.51759 0.2158 0.0
C1019 C 0.86913 0.4497 0.25243 0.0
C1020 C 0.8347 0.49524 0.26447 0.0
C1021 C 0.87386 0.42881 0.25795 0.0
C1022 C 0.84486 0.58038 0.21839 0.0
C1023 C 0.84068 0.55861 0.22138 0.0
C1024 C 0.85081 0.51163 0.2293 0.0
C1025 C 0.84913 0.45868 0.25656 0.0
C1026 C 0.84481 0.48138 0.2512 0.0
C1027 C 0.84326 0.54928 0.24007 0.0
C1028 C 0.84178 0.5257 0.24304 0.0
H1029 H 0.82657 0.41561 0.27928 0.0
H1030 H 0.81828 0.45242 0.2697 0.0
H1031 H 0.85989 0.47956 0.22261 0.0
H1032 H 0.85881 0.59351 0.26518 0.0
H1033 H 0.85155 0.55596 0.27034 0.0
C1034 C 0.67206 0.60803 0.50415 0.0
C1035 C 0.66271 0.60555 0.48553 0.0
C1036 C 0.6936 0.60354 0.50716 0.0
C1037 C 0.73844 0.5863 0.51216 0.0
H1038 H 0.77662 0.61028 0.4733 0.0
C1039 C 0.83071 0.58859 0.52276 0.0
C1040 C 0.84022 0.60829 0.51826 0.0
C1041 C 0.80943 0.5845 0.51751 0.0
C1042 C 0.76619 0.60345 0.4843 0.0
H1043 H 0.66859 0.59544 0.45562 0.0
H1044 H 0.70645 0.58756 0.46087 0.0
H1045 H 0.73847 0.60909 0.46675 0.0
H1046 H 0.83483 0.63891 0.50428 0.0
H1047 H 0.79814 0.63186 0.49533 0.0
H1048 H 0.76613 0.58154 0.53005 0.0
C1049 C 0.69701 0.59316 0.47313 0.0
C1050 C 0.7443 0.60253 0.48043 0.0
C1051 C 0.67528 0.5975 0.47014 0.0
C1052 C 0.82808 0.62359 0.50812 0.0
C1053 C 0.80701 0.61946 0.50277 0.0
C1054 C 0.76036 0.58716 0.516 0.0
C1055 C 0.70653 0.59652 0.49161 0.0
C1056 C 0.73005 0.59447 0.49452 0.0
C1057 C 0.79732 0.59992 0.50743 0.0
C1058 C 0.77446 0.59629 0.50234 0.0
H1059 H 0.66284 0.61408 0.51638 0.0
H1060 H 0.70033 0.60656 0.52152 0.0
H1061 H 0.72797 0.57973 0.52325 0.0
H1062 H 0.8396 0.57642 0.53049 0.0
H1063 H 0.80249 0.56923 0.52124 0.0
C1064 C 0.37873 0.42736 0.24077 0.0
C1065 C 0.36231 0.41471 0.2329 0.0
C1066 C 0.37492 0.44826 0.24668 0.0
C1067 C 0.33965 0.49447 0.24029 0.0
H1068 H 0.36859 0.51337 0.28746 0.0
C1069 C 0.33846 0.58258 0.26983 0.0
C1070 C 0.35897 0.59056 0.27385 0.0
C1071 C 0.3354 0.56078 0.26592 0.0
C1072 C 0.36036 0.50836 0.27428 0.0
H1073 H 0.32887 0.4145 0.22493 0.0
H1074 H 0.3222 0.45144 0.2353 0.0
H1075 H 0.36923 0.47583 0.27856 0.0
H1076 H 0.39222 0.58175 0.27715 0.0
H1077 H 0.38683 0.54413 0.27072 0.0
H1078 H 0.33118 0.52734 0.23594 0.0
C1079 C 0.33808 0.44493 0.23681 0.0
C1080 C 0.36077 0.48684 0.26913 0.0
C1081 C 0.34189 0.42376 0.23092 0.0
C1082 C 0.3762 0.57624 0.27412 0.0
C1083 C 0.37311 0.55459 0.27054 0.0
C1084 C 0.33916 0.51613 0.24552 0.0
C1085 C 0.35455 0.45733 0.24498 0.0
C1086 C 0.35106 0.47969 0.25173 0.0
C1087 C 0.35273 0.54655 0.26634 0.0
C1088 C 0.35012 0.52337 0.26225 0.0
H1089 H 0.39469 0.4211 0.24253 0.0
H1090 H 0.38812 0.45743 0.25248 0.0
H1091 H 0.33203 0.4895 0.22679 0.0
H1092 H 0.32488 0.59321 0.26939 0.0
H1093 H 0.31951 0.55502 0.26274 0.0
C1094 C 0.33253 0.60496 0.00367 0.0
C1095 C 0.34153 0.60451 0.98476 0.0
C1096 C 0.31084 0.60088 0.00652 0.0
C1097 C 0.26004 0.60642 0.98109 0.0
H1098 H 0.23714 0.57495 0.02529 0.0
C1099 C 0.16957 0.60401 0.99431 0.0
C1100 C 0.16229 0.60543 0.01377 0.0
C1101 C 0.191 0.59986 0.9902 0.0
C1102 C 0.24321 0.58399 0.01297 0.0
H1103 H 0.33486 0.59864 0.95406 0.0
H1104 H 0.29673 0.59175 0.95899 0.0
H1105 H 0.27546 0.57469 0.01902 0.0
H1106 H 0.17171 0.60287 0.04422 0.0
H1107 H 0.20933 0.59632 0.03718 0.0
H1108 H 0.22821 0.61666 0.97546 0.0
C1109 C 0.30659 0.59523 0.97163 0.0
C1110 C 0.26522 0.58372 0.00932 0.0
C1111 C 0.32845 0.59899 0.96881 0.0
C1112 C 0.1768 0.60168 0.02907 0.0
C1113 C 0.19841 0.59789 0.02497 0.0
C1114 C 0.23812 0.60692 0.98486 0.0
C1115 C 0.29746 0.59653 0.9905 0.0
C1116 C 0.27392 0.59508 0.99341 0.0
C1117 C 0.20595 0.59746 0.00545 0.0
C1118 C 0.22932 0.59584 0.00095 0.0
H1119 H 0.34218 0.60913 0.01629 0.0
H1120 H 0.30436 0.60218 0.02121 0.0
H1121 H 0.26622 0.61567 0.96893 0.0
H1122 H 0.15872 0.60663 0.98218 0.0
H1123 H 0.19588 0.599 0.97499 0.0
C1124 C 0.16707 0.58254 0.73222 0.0
C1125 C 0.14637 0.58996 0.72811 0.0
C1126 C 0.17074 0.56078 0.73591 0.0
C1127 C 0.14754 0.50787 0.72633 0.0
H1128 H 0.17543 0.48862 0.77391 0.0
C1129 C 0.12963 0.42632 0.75846 0.0
C1130 C 0.14605 0.41351 0.76611 0.0
C1131 C 0.1334 0.44735 0.75297 0.0
C1132 C 0.16796 0.49371 0.76038 0.0
H1133 H 0.11342 0.58018 0.7245 0.0
H1134 H 0.11988 0.54267 0.73056 0.0
H1135 H 0.17551 0.5267 0.76548 0.0
H1136 H 0.17945 0.41318 0.77417 0.0
H1137 H 0.18607 0.45044 0.76454 0.0
H1138 H 0.13952 0.47524 0.72132 0.0
C1139 C 0.13328 0.55354 0.73097 0.0
C1140 C 0.168 0.5155 0.75557 0.0
C1141 C 0.12958 0.57514 0.7276 0.0
C1142 C 0.16644 0.42256 0.76833 0.0
C1143 C 0.17022 0.44389 0.76287 0.0
C1144 C 0.14758 0.48623 0.73106 0.0
C1145 C 0.15386 0.54604 0.73517 0.0
C1146 C 0.15713 0.52286 0.73882 0.0
C1147 C 0.15373 0.45643 0.75488 0.0
C1148 C 0.1571 0.47893 0.74849 0.0
H1149 H 0.18033 0.59356 0.73284 0.0
H1150 H 0.18678 0.55545 0.73911 0.0
H1151 H 0.1394 0.51298 0.71313 0.0
H1152 H 0.11367 0.42009 0.75653 0.0
H1153 H 0.1202 0.45661 0.7473 0.0
C1154 C 0.17484 0.41658 0.47943 0.0
C1155 C 0.16535 0.39642 0.48188 0.0
C1156 C 0.19606 0.42011 0.48531 0.0
C1157 C 0.23738 0.39761 0.51833 0.0
H1158 H 0.27875 0.42408 0.48381 0.0
C1159 C 0.32593 0.37812 0.52258 0.0
C1160 C 0.34112 0.39454 0.52145 0.0
C1161 C 0.30438 0.38224 0.51938 0.0
C1162 C 0.26731 0.417 0.49376 0.0
H1163 H 0.17093 0.36424 0.49248 0.0
H1164 H 0.20733 0.37035 0.50246 0.0
H1165 H 0.24084 0.42432 0.47491 0.0
H1166 H 0.34548 0.42827 0.51598 0.0
H1167 H 0.30744 0.43545 0.50998 0.0
H1168 H 0.26373 0.38952 0.53677 0.0
C1169 C 0.1985 0.38355 0.49624 0.0
C1170 C 0.2456 0.41714 0.48867 0.0
C1171 C 0.17756 0.38 0.49031 0.0
C1172 C 0.33414 0.41531 0.51707 0.0
C1173 C 0.31243 0.41939 0.51353 0.0
C1174 C 0.25894 0.3974 0.52334 0.0
C1175 C 0.20804 0.40363 0.49398 0.0
C1176 C 0.23049 0.40678 0.5006 0.0
C1177 C 0.29733 0.40286 0.51473 0.0
C1178 C 0.27425 0.40647 0.51083 0.0
H1179 H 0.16592 0.42959 0.473 0.0
H1180 H 0.20296 0.43578 0.48336 0.0
H1181 H 0.22612 0.38994 0.5281 0.0
H1182 H 0.33067 0.36193 0.52593 0.0
H1183 H 0.29323 0.36909 0.52016 0.0
C1184 C 0.30044 0.32009 0.25496 0.0
C1185 C 0.30671 0.32627 0.23597 0.0
C1186 C 0.28577 0.30361 0.25769 0.0
C1187 C 0.26672 0.2556 0.23159 0.0
H1188 H 0.22888 0.25062 0.27631 0.0
C1189 C 0.2022 0.19051 0.24093 0.0
C1190 C 0.1975 0.18333 0.25997 0.0
C1191 C 0.21795 0.20588 0.23785 0.0
C1192 C 0.23965 0.25162 0.26393 0.0
H1193 H 0.30078 0.32138 0.20496 0.0
H1194 H 0.27455 0.29315 0.20972 0.0
H1195 H 0.24795 0.28385 0.27068 0.0
H1196 H 0.20639 0.18551 0.29055 0.0
H1197 H 0.23422 0.21229 0.2852 0.0
H1198 H 0.25798 0.22343 0.22468 0.0
C1199 C 0.28155 0.30058 0.22253 0.0
C1200 C 0.25052 0.27075 0.26062 0.0
C1201 C 0.2963 0.31708 0.21979 0.0
C1202 C 0.21007 0.19041 0.27569 0.0
C1203 C 0.22568 0.20604 0.27265 0.0
C1204 C 0.25572 0.23651 0.23483 0.0
C1205 C 0.27685 0.29296 0.24149 0.0
C1206 C 0.26423 0.27303 0.24441 0.0
C1207 C 0.22908 0.21465 0.25381 0.0
C1208 C 0.24209 0.23427 0.25106 0.0
H1209 H 0.30815 0.32684 0.26775 0.0
H1210 H 0.28263 0.29827 0.27252 0.0
H1211 H 0.27749 0.25652 0.21921 0.0
H1212 H 0.19238 0.18562 0.22865 0.0
H1213 H 0.22007 0.2122 0.22319 0.0
C1214 C 0.94143 0.05627 0.5067 0.0
C1215 C 0.93383 0.06059 0.48774 0.0
C1216 C 0.95663 0.04039 0.50982 0.0
C1217 C 1.00072 0.01547 0.48292 0.0
H1218 H 0.00659 0.98127 0.52996 0.0
C1219 C 0.06456 0.95011 0.49304 0.0
C1220 C 0.07212 0.94571 0.512 0.0
C1221 C 0.04942 0.96606 0.48994 0.0
C1222 C 0.00539 0.99102 0.5169 0.0
H1223 H 0.93511 0.05086 0.45733 0.0
H1224 H 0.96139 0.02258 0.46277 0.0
H1225 H 0.97408 1.00171 0.52463 0.0
H1226 H 0.07085 0.95537 0.54243 0.0
H1227 H 0.0447 0.98377 0.53703 0.0
H1228 H 0.03202 0.00477 0.47518 0.0
C1229 C 0.95573 0.03165 0.47524 0.0
C1230 C 0.98664 1.0026 0.51376 0.0
C1231 C 0.94034 0.04751 0.47216 0.0
C1232 C 0.06566 0.95879 0.5276 0.0
C1233 C 0.05034 0.97472 0.52454 0.0
C1234 C 0.01947 0.00389 0.48606 0.0
C1235 C 0.96477 0.02859 0.49397 0.0
C1236 C 0.98403 0.01497 0.49672 0.0
C1237 C 0.04131 0.97785 0.50582 0.0
C1238 C 0.02207 0.99151 0.50309 0.0
H1239 H 0.93699 0.06647 0.51887 0.0
H1240 H 0.96325 0.03861 0.5244 0.0
H1241 H 0.99952 0.02522 0.46985 0.0
H1242 H 0.06896 0.93991 0.48085 0.0
H1243 H 0.04282 0.96789 0.47536 0.0
C1244 C 0.29824 0.81467 0.7768 0.0
C1245 C 0.31073 0.82252 0.76133 0.0
C1246 C 0.28266 0.79915 0.77322 0.0
C1247 C 0.2731 0.75611 0.73728 0.0
H1248 H 0.22141 0.74688 0.76714 0.0
C1249 C 0.21169 0.6892 0.72046 0.0
C1250 C 0.20074 0.68016 0.73643 0.0
C1251 C 0.22628 0.70579 0.72345 0.0
C1252 C 0.23596 0.74909 0.75885 0.0
H1253 H 0.31569 0.8218 0.72994 0.0
H1254 H 0.28777 0.7957 0.72349 0.0
H1255 H 0.24157 0.77972 0.77173 0.0
H1256 H 0.19821 0.67993 0.76817 0.0
H1257 H 0.22395 0.70844 0.77337 0.0
H1258 H 0.26745 0.72549 0.72438 0.0
C1259 C 0.29032 0.80091 0.73845 0.0
C1260 C 0.24747 0.76799 0.76143 0.0
C1261 C 0.30601 0.81621 0.74206 0.0
C1262 C 0.20625 0.68665 0.75553 0.0
C1263 C 0.22079 0.7032 0.7585 0.0
C1264 C 0.26155 0.73726 0.73466 0.0
C1265 C 0.27929 0.79129 0.75409 0.0
C1266 C 0.26622 0.77176 0.75069 0.0
C1267 C 0.23025 0.71361 0.74246 0.0
C1268 C 0.2429 0.73345 0.74547 0.0
H1269 H 0.30201 0.81884 0.79183 0.0
H1270 H 0.27454 0.7921 0.78565 0.0
H1271 H 0.28774 0.75816 0.72909 0.0
H1272 H 0.20773 0.68475 0.70555 0.0
H1273 H 0.23333 0.71342 0.71076 0.0
C1274 C 0.43649 0.05314 0.9942 0.0
C1275 C 0.43191 0.05879 0.01367 0.0
C1276 C 0.45172 0.03753 0.99007 0.0
C1277 C 0.48784 0.99687 0.01246 0.0
H1278 H 0.52644 0.01578 0.97149 0.0
C1279 C 0.57011 0.95861 0.00375 0.0
C1280 C 0.57522 0.95163 0.98472 0.0
C1281 C 0.55334 0.97286 0.00683 0.0
C1282 C 0.51577 0.01019 0.98288 0.0
H1283 H 0.4386 0.0518 0.04409 0.0
H1284 H 0.46517 0.02448 0.03704 0.0
H1285 H 0.49347 0.03521 0.97739 0.0
H1286 H 0.56794 0.9557 0.95384 0.0
H1287 H 0.53889 0.98086 0.95919 0.0
H1288 H 0.5104 0.97205 0.01812 0.0
C1289 C 0.45682 0.03175 0.02487 0.0
C1290 C 0.49673 0.02123 0.98619 0.0
C1291 C 0.44139 0.04725 0.02897 0.0
C1292 C 0.5646 0.96091 0.96868 0.0
C1293 C 0.54778 0.97521 0.97177 0.0
C1294 C 0.50694 0.98591 0.00921 0.0
C1295 C 0.46298 0.02752 0.00536 0.0
C1296 C 0.48251 0.01475 0.00106 0.0
C1297 C 0.54132 0.98052 0.99094 0.0
C1298 C 0.5212 0.99252 0.99446 0.0
H1299 H 0.42969 0.06214 0.98216 0.0
H1300 H 0.45562 0.03429 0.97488 0.0
H1301 H 0.47723 0.99126 0.02388 0.0
H1302 H 0.57804 0.95181 0.01641 0.0
H1303 H 0.54915 0.97709 0.02174 0.0
C1304 C 0.2065 0.8209 0.25398 0.0
C1305 C 0.1995 0.82539 0.23482 0.0
C1306 C 0.22054 0.80406 0.25755 0.0
C1307 C 0.25654 0.76438 0.23421 0.0
H1308 H 0.23826 0.72867 0.27756 0.0
C1309 C 0.29493 0.68266 0.24648 0.0
C1310 C 0.30179 0.67853 0.26575 0.0
C1311 C 0.28051 0.69911 0.24263 0.0
C1312 C 0.24368 0.7385 0.26549 0.0
H1313 H 0.20323 0.81681 0.2042 0.0
H1314 H 0.22786 0.78752 0.21038 0.0
H1315 H 0.2199 0.76215 0.27108 0.0
H1316 H 0.29735 0.68723 0.29626 0.0
H1317 H 0.27212 0.71581 0.28959 0.0
H1318 H 0.28036 0.74077 0.22865 0.0
C1319 C 0.2225 0.79702 0.22269 0.0
C1320 C 0.23323 0.75779 0.26182 0.0
C1321 C 0.20848 0.81396 0.21911 0.0
C1322 C 0.29223 0.68979 0.28127 0.0
C1323 C 0.27786 0.70635 0.2774 0.0
C1324 C 0.267 0.74509 0.23789 0.0
C1325 C 0.22789 0.79125 0.24204 0.0
C1326 C 0.23956 0.77103 0.24617 0.0
C1327 C 0.27264 0.71187 0.25795 0.0
C1328 C 0.26071 0.73189 0.25358 0.0
H1329 H 0.19991 0.82945 0.26639 0.0
H1330 H 0.22484 0.80045 0.27257 0.0
H1331 H 0.26196 0.77423 0.22215 0.0
H1332 H 0.30198 0.67423 0.23421 0.0
H1333 H 0.27637 0.7025 0.22752 0.0
C1334 C 0.4408 0.961 0.46896 0.0
C1335 C 0.42944 0.95204 0.48472 0.0
C1336 C 0.45735 0.97552 0.47244 0.0
C1337 C 0.49587 0.9882 0.5117 0.0
H1338 H 0.51204 0.03493 0.47769 0.0
C1339 C 0.56341 0.04834 0.53003 0.0
C1340 C 0.57481 0.05736 0.51432 0.0
C1341 C 0.54668 0.03406 0.52648 0.0
C1342 C 0.50794 0.02171 0.48719 0.0
H1343 H 0.42509 0.9529 0.51625 0.0
H1344 H 0.45337 0.9787 0.52225 0.0
H1345 H 0.47908 0.01556 0.47136 0.0
H1346 H 0.57891 0.0569 0.48275 0.0
H1347 H 0.5503 0.03151 0.47662 0.0
H1348 H 0.52474 0.9943 0.5275 0.0
C1349 C 0.45003 0.97403 0.50727 0.0
C1350 C 0.48895 0.01068 0.48359 0.0
C1351 C 0.43359 0.95949 0.5038 0.0
C1352 C 0.57039 0.05028 0.49517 0.0
C1353 C 0.55376 0.03597 0.49163 0.0
C1354 C 0.51486 0.99922 0.51528 0.0
C1355 C 0.46278 0.98145 0.49174 0.0
C1356 C 0.48262 0.9938 0.49583 0.0
C1357 C 0.54106 0.02842 0.50715 0.0
C1358 C 0.52119 0.01611 0.50306 0.0
H1359 H 0.43824 0.95539 0.45411 0.0
H1360 H 0.46682 0.9809 0.46012 0.0
H1361 H 0.49177 0.97498 0.52119 0.0
H1362 H 0.56619 0.05364 0.54494 0.0
H1363 H 0.53726 0.0286 0.53881 0.0
C1364 C 0.20797 0.31993 0.74225 0.0
C1365 C 0.20093 0.32459 0.76137 0.0
C1366 C 0.22298 0.30387 0.73897 0.0
C1367 C 0.26137 0.26701 0.76318 0.0
H1368 H 0.24504 0.229 0.72087 0.0
C1369 C 0.30193 0.18571 0.75428 0.0
C1370 C 0.30907 0.18067 0.73527 0.0
C1371 C 0.28742 0.20228 0.75729 0.0
C1372 C 0.24993 0.23951 0.73264 0.0
H1373 H 0.20553 0.31722 0.79216 0.0
H1374 H 0.23176 0.28928 0.78647 0.0
H1375 H 0.22506 0.26176 0.72632 0.0
H1376 H 0.30521 0.18804 0.70439 0.0
H1377 H 0.27978 0.21686 0.70963 0.0
H1378 H 0.28619 0.2447 0.76955 0.0
C1379 C 0.22572 0.29805 0.77397 0.0
C1380 C 0.23855 0.25839 0.73572 0.0
C1381 C 0.21076 0.31422 0.77726 0.0
C1382 C 0.29989 0.19133 0.71921 0.0
C1383 C 0.28539 0.20799 0.72224 0.0
C1384 C 0.27274 0.24812 0.76011 0.0
C1385 C 0.23127 0.29201 0.75473 0.0
C1386 C 0.24411 0.27241 0.75103 0.0
C1387 C 0.2797 0.21426 0.74138 0.0
C1388 C 0.26713 0.23408 0.74484 0.0
H1389 H 0.20076 0.32768 0.7297 0.0
H1390 H 0.22735 0.30007 0.724 0.0
H1391 H 0.26625 0.27749 0.77497 0.0
H1392 H 0.30862 0.17774 0.76696 0.0
H1393 H 0.28292 0.20627 0.77219 0.0
C1394 C 0.94018 0.96345 0.03038 0.0
C1395 C 0.92945 0.95397 0.01451 0.0
C1396 C 0.95709 0.97757 0.02704 0.0
C1397 C 0.98546 0.00917 0.98868 0.0
H1398 H 0.03542 0.99555 0.01971 0.0
C1399 C 0.06696 0.04538 0.96936 0.0
C1400 C 0.07775 0.05474 0.98526 0.0
C1401 C 0.04999 0.03132 0.97266 0.0
C1402 C 0.02161 0.99965 0.01098 0.0
H1403 H 0.92661 0.95358 0.98283 0.0
H1404 H 0.95577 0.97833 0.97703 0.0
H1405 H 1.00167 0.97793 0.02677 0.0
H1406 H 0.08059 0.05501 0.01694 0.0
H1407 H 0.05133 0.03038 0.02267 0.0
H1408 H 0.0054 0.03089 0.97289 0.0
C1409 C 0.95134 0.97481 0.99204 0.0
C1410 C 1.00218 0.98966 0.01512 0.0
C1411 C 0.93452 0.96065 0.99537 0.0
C1412 C 0.07264 0.04803 0.00438 0.0
C1413 C 0.05576 0.03393 0.00767 0.0
C1414 C 0.00489 0.01916 0.98454 0.0
C1415 C 0.9635 0.98264 0.00779 0.0
C1416 C 0.98383 0.9943 0.00404 0.0
C1417 C 0.04357 0.0262 0.99189 0.0
C1418 C 0.02324 0.01453 0.99563 0.0
H1419 H 0.93681 0.95857 0.04531 0.0
H1420 H 0.96581 0.98371 0.03953 0.0
H1421 H 0.97165 0.01326 0.97994 0.0
H1422 H 0.07035 0.0503 0.95445 0.0
H1423 H 0.04124 0.02526 0.96015 0.0
C1424 C 0.71259 0.68793 0.78201 0.0
C1425 C 0.70171 0.679 0.76594 0.0
C1426 C 0.72713 0.70459 0.77918 0.0
C1427 C 0.73639 0.74839 0.74433 0.0
H1428 H 0.7884 0.75736 0.77372 0.0
C1429 C 0.79766 0.81496 0.72663 0.0
C1430 C 0.81041 0.82259 0.742 0.0
C1431 C 0.78233 0.79918 0.7302 0.0
C1432 C 0.77369 0.75534 0.76564 0.0
H1433 H 0.69932 0.67903 0.7342 0.0
H1434 H 0.72495 0.70771 0.72929 0.0
H1435 H 0.76837 0.72448 0.7782 0.0
H1436 H 0.8161 0.82117 0.77326 0.0
H1437 H 0.78857 0.79466 0.77974 0.0
H1438 H 0.74159 0.77929 0.73185 0.0
C1439 C 0.72178 0.70229 0.7441 0.0
C1440 C 0.7623 0.73637 0.76813 0.0
C1441 C 0.70731 0.68565 0.74691 0.0
C1442 C 0.80621 0.81576 0.76122 0.0
C1443 C 0.79075 0.80022 0.76483 0.0
C1444 C 0.74771 0.76743 0.74192 0.0
C1445 C 0.73112 0.71261 0.76024 0.0
C1446 C 0.74358 0.73259 0.75742 0.0
C1447 C 0.77945 0.79086 0.74923 0.0
C1448 C 0.76656 0.77117 0.75251 0.0
H1449 H 0.70856 0.68335 0.79688 0.0
H1450 H 0.7341 0.71214 0.79194 0.0
H1451 H 0.72177 0.74619 0.73614 0.0
H1452 H 0.80104 0.81953 0.71161 0.0
H1453 H 0.77402 0.79235 0.71778 0.0
C1454 C 0.70497 0.18656 0.25785 0.0
C1455 C 0.69977 0.181 0.23848 0.0
C1456 C 0.72053 0.20196 0.26165 0.0
C1457 C 0.76208 0.2367 0.2387 0.0
H1458 H 0.74277 0.27717 0.27791 0.0
C1459 C 0.80125 0.319 0.24556 0.0
C1460 C 0.80739 0.32514 0.2646 0.0
C1461 C 0.78715 0.30204 0.24269 0.0
C1462 C 0.74849 0.26597 0.26703 0.0
H1463 H 0.70753 0.1862 0.20796 0.0
H1464 H 0.73478 0.21305 0.21445 0.0
H1465 H 0.723 0.24426 0.27274 0.0
H1466 H 0.80203 0.31934 0.29558 0.0
H1467 H 0.77716 0.28994 0.29057 0.0
H1468 H 0.7874 0.25866 0.23282 0.0
C1469 C 0.72716 0.20534 0.22681 0.0
C1470 C 0.73724 0.24697 0.26413 0.0
C1471 C 0.71171 0.18973 0.22304 0.0
C1472 C 0.79751 0.3152 0.28072 0.0
C1473 C 0.78336 0.2982 0.27783 0.0
C1474 C 0.77327 0.25576 0.24155 0.0
C1475 C 0.73097 0.21244 0.24613 0.0
C1476 C 0.74385 0.23205 0.2499 0.0
C1477 C 0.77877 0.29082 0.25879 0.0
C1478 C 0.76656 0.2707 0.25568 0.0
H1479 H 0.69568 0.18035 0.26998 0.0
H1480 H 0.72341 0.20657 0.27673 0.0
H1481 H 0.76781 0.22556 0.22778 0.0
H1482 H 0.80849 0.32637 0.23282 0.0
H1483 H 0.7835 0.29716 0.22783 0.0
C1484 C 0.80134 0.18722 0.74723 0.0
C1485 C 0.8082 0.18188 0.76625 0.0
C1486 C 0.78649 0.20349 0.7443 0.0
C1487 C 0.76848 0.25277 0.76854 0.0
H1488 H 0.72775 0.25451 0.72584 0.0
C1489 C 0.70582 0.31959 0.75799 0.0
C1490 C 0.69969 0.32497 0.73876 0.0
C1491 C 0.72078 0.30351 0.76135 0.0
C1492 C 0.73931 0.25441 0.73764 0.0
H1493 H 0.80343 0.18827 0.79721 0.0
H1494 H 0.77705 0.21633 0.79211 0.0
H1495 H 0.74726 0.22173 0.73244 0.0
H1496 H 0.70596 0.31894 0.70796 0.0
H1497 H 0.73238 0.29115 0.71384 0.0
H1498 H 0.76039 0.28545 0.77378 0.0
C1499 C 0.78357 0.20825 0.77942 0.0
C1500 C 0.7504 0.23555 0.74151 0.0
C1501 C 0.79843 0.19189 0.78237 0.0
C1502 C 0.71036 0.3153 0.72295 0.0
C1503 C 0.72525 0.2991 0.72633 0.0
C1504 C 0.75733 0.27163 0.7647 0.0
C1505 C 0.7781 0.21484 0.76032 0.0
C1506 C 0.76518 0.23447 0.75698 0.0
C1507 C 0.72993 0.29238 0.74556 0.0
C1508 C 0.74266 0.27272 0.74915 0.0
H1509 H 0.80858 0.17984 0.7345 0.0
H1510 H 0.78273 0.2081 0.72938 0.0
H1511 H 0.78006 0.2527 0.78031 0.0
H1512 H 0.69787 0.32673 0.77048 0.0
H1513 H 0.724 0.29879 0.77635 0.0
C1514 C 0.80574 0.6927 0.25907 0.0
C1515 C 0.80972 0.68453 0.24024 0.0
C1516 C 0.78991 0.708 0.26202 0.0
C1517 C 0.74447 0.73665 0.23893 0.0
H1518 H 0.7647 0.78366 0.27091 0.0
C1519 C 0.69724 0.81447 0.24221 0.0
C1520 C 0.69335 0.8226 0.26106 0.0
C1521 C 0.7131 0.79923 0.23915 0.0
C1522 C 0.75872 0.77064 0.26206 0.0
H1523 H 0.7995 0.68494 0.20995 0.0
H1524 H 0.77161 0.71162 0.21504 0.0
H1525 H 0.78647 0.75174 0.26741 0.0
H1526 H 0.70377 0.82218 0.2913 0.0
H1527 H 0.73171 0.7956 0.28603 0.0
H1528 H 0.71672 0.75554 0.2336 0.0
C1529 C 0.78055 0.70606 0.22762 0.0
C1530 C 0.77115 0.75224 0.26011 0.0
C1531 C 0.79637 0.69057 0.2247 0.0
C1532 C 0.70683 0.81659 0.27652 0.0
C1533 C 0.72267 0.80115 0.2735 0.0
C1534 C 0.73204 0.75505 0.24088 0.0
C1535 C 0.77787 0.71571 0.24614 0.0
C1536 C 0.76417 0.73496 0.24857 0.0
C1537 C 0.72527 0.79154 0.25495 0.0
C1538 C 0.73901 0.77232 0.25244 0.0
H1539 H 0.81603 0.6885 0.27123 0.0
H1540 H 0.78791 0.71464 0.27657 0.0
H1541 H 0.7385 0.72363 0.23008 0.0
H1542 H 0.68685 0.81866 0.23011 0.0
H1543 H 0.71503 0.79261 0.22458 0.0
C1544 C 0.56618 0.4611 0.03051 0.0
C1545 C 0.57582 0.45138 0.01417 0.0
C1546 C 0.54921 0.47537 0.02799 0.0
C1547 C 0.50623 0.48583 0.99243 0.0
H1548 H 0.4952 0.53572 0.02427 0.0
C1549 C 0.4395 0.54725 0.97574 0.0
C1550 C 0.43113 0.55901 0.99146 0.0
C1551 C 0.45526 0.53183 0.97907 0.0
C1552 C 0.49778 0.52158 0.01548 0.0
H1553 H 0.57664 0.45072 0.98237 0.0
H1554 H 0.54749 0.47592 0.978 0.0
H1555 H 0.52827 0.51602 0.02869 0.0
H1556 H 0.43119 0.56275 0.023 0.0
H1557 H 0.45765 0.53505 0.02897 0.0
H1558 H 0.47573 0.49131 0.97926 0.0
C1559 C 0.55257 0.47205 0.99277 0.0
C1560 C 0.51688 0.51038 0.01795 0.0
C1561 C 0.5695 0.45784 0.99528 0.0
C1562 C 0.43715 0.55362 0.01066 0.0
C1563 C 0.45268 0.53809 0.01402 0.0
C1564 C 0.48708 0.49697 0.99002 0.0
C1565 C 0.54159 0.48024 0.00909 0.0
C1566 C 0.52142 0.49245 0.00637 0.0
C1567 C 0.46284 0.52787 0.9982 0.0
C1568 C 0.48259 0.51505 0.00148 0.0
H1569 H 0.57046 0.45633 0.04527 0.0
H1570 H 0.54115 0.48141 0.04089 0.0
H1571 H 0.50901 0.47181 0.98354 0.0
H1572 H 0.43559 0.55155 0.96077 0.0
H1573 H 0.4627 0.52437 0.96649 0.0
C1574 C 0.06624 0.46177 0.47135 0.0
C1575 C 0.07685 0.4519 0.48709 0.0
C1576 C 0.04936 0.47587 0.47484 0.0
C1577 C 0.00866 0.48563 0.51296 0.0
H1578 H 0.99317 0.53356 0.48014 0.0
C1579 C 0.93956 0.54428 0.53048 0.0
C1580 C 0.92893 0.55383 0.51459 0.0
C1581 C 0.9564 0.53007 0.52719 0.0
C1582 C 0.99709 0.52 0.48927 0.0
H1583 H 0.07956 0.45088 0.51877 0.0
H1584 H 0.05071 0.47602 0.52485 0.0
H1585 H 0.0269 0.51533 0.47458 0.0
H1586 H 0.92606 0.55414 0.4829 0.0
H1587 H 0.95488 0.52887 0.4772 0.0
H1588 H 0.97885 0.49036 0.52767 0.0
C1589 C 0.05488 0.47231 0.50981 0.0
C1590 C 0.01652 0.50961 0.48613 0.0
C1591 C 0.07166 0.45816 0.50633 0.0
C1592 C 0.93399 0.54712 0.49546 0.0
C1593 C 0.95074 0.53289 0.49218 0.0
C1594 C 0.98923 0.49604 0.51611 0.0
C1595 C 0.04284 0.48052 0.49414 0.0
C1596 C 0.02259 0.49229 0.49794 0.0
C1597 C 0.96286 0.52504 0.50794 0.0
C1598 C 0.98315 0.51332 0.50427 0.0
H1599 H 0.06963 0.45714 0.45635 0.0
H1600 H 0.04048 0.48187 0.4624 0.0
H1601 H 0.01255 0.47205 0.52208 0.0
H1602 H 0.93626 0.54927 0.54539 0.0
H1603 H 0.96534 0.5243 0.53969 0.0
C1604 C 0.06546 0.54826 0.02786 0.0
C1605 C 0.07238 0.56088 0.0121 0.0
C1606 C 0.04994 0.53249 0.02492 0.0
C1607 C 0.01913 0.50292 0.98659 0.0
H1608 H 0.97345 0.50613 0.0248 0.0
C1609 C 0.93977 0.45964 0.97272 0.0
C1610 C 0.93295 0.4469 0.98844 0.0
C1611 C 0.95525 0.47545 0.9757 0.0
C1612 C 0.98608 0.50495 0.01403 0.0
H1613 H 0.06971 0.56605 0.98083 0.0
H1614 H 0.04323 0.53833 0.97554 0.0
H1615 H 0.00609 0.52639 0.03006 0.0
H1616 H 0.9357 0.4416 0.01969 0.0
H1617 H 0.96208 0.46941 0.02504 0.0
H1618 H 0.99911 0.48149 0.97056 0.0
C1619 C 0.04965 0.54037 0.99016 0.0
C1620 C 0.00491 0.51644 0.01713 0.0
C1621 C 0.06501 0.55617 0.99314 0.0
C1622 C 0.94033 0.45156 0.00741 0.0
C1623 C 0.95563 0.46741 0.01042 0.0
C1624 C 1.00029 0.49145 0.98349 0.0
C1625 C 0.04112 0.52906 0.00616 0.0
C1626 C 0.02172 0.51557 0.00346 0.0
C1627 C 0.9641 0.47881 0.99446 0.0
C1628 C 0.98349 0.49231 0.99716 0.0
H1629 H 0.07046 0.55196 0.04269 0.0
H1630 H 0.04399 0.52381 0.03752 0.0
H1631 H 0.03176 0.50173 0.97582 0.0
H1632 H 0.93475 0.456 0.95788 0.0
H1633 H 0.96114 0.48421 0.96313 0.0
C1634 C 0.56637 0.54704 0.47605 0.0
C1635 C 0.57407 0.55925 0.49177 0.0
C1636 C 0.55104 0.53118 0.4793 0.0
C1637 C 0.50814 0.52012 0.51512 0.0
H1638 H 0.4992 0.46946 0.48375 0.0
C1639 C 0.44136 0.45783 0.52994 0.0
C1640 C 0.4323 0.44757 0.51359 0.0
C1641 C 0.45798 0.47251 0.52747 0.0
C1642 C 0.50134 0.48372 0.49248 0.0
H1643 H 0.57327 0.56341 0.52325 0.0
H1644 H 0.54755 0.53498 0.52913 0.0
H1645 H 0.53192 0.48997 0.47973 0.0
H1646 H 0.43215 0.44636 0.48179 0.0
H1647 H 0.46072 0.47223 0.47752 0.0
H1648 H 0.47757 0.5138 0.52789 0.0
C1649 C 0.55273 0.53798 0.51422 0.0
C1650 C 0.52017 0.49544 0.49022 0.0
C1651 C 0.56783 0.55395 0.51093 0.0
C1652 C 0.43886 0.45385 0.4947 0.0
C1653 C 0.45545 0.46847 0.49226 0.0
C1654 C 0.48937 0.50835 0.51743 0.0
C1655 C 0.54322 0.52723 0.49836 0.0
C1656 C 0.52382 0.51384 0.50148 0.0
C1657 C 0.46584 0.47727 0.50862 0.0
C1658 C 0.48566 0.49008 0.50605 0.0
H1659 H 0.57046 0.55125 0.46109 0.0
H1660 H 0.54408 0.52331 0.4667 0.0
H1661 H 0.51008 0.53448 0.52373 0.0
H1662 H 0.43687 0.45327 0.5447 0.0
H1663 H 0.46559 0.47903 0.54041 0.0
C1664 C 0.12839 0.23688 0.30244 0.0
C1665 C 0.13693 0.21716 0.30826 0.0
C1666 C 0.1275 0.254 0.3156 0.0
C1667 C 0.14932 0.27256 0.36374 0.0
H1668 H 0.10057 0.3105 0.36288 0.0
C1669 C 0.12394 0.32397 0.42945 0.0
C1670 C 0.11889 0.3455 0.42611 0.0
C1671 C 0.12791 0.31022 0.4138 0.0
C1672 C 0.11442 0.30021 0.3631 0.0
H1673 H 0.15088 0.19988 0.33261 0.0
H1674 H 0.14868 0.22932 0.35568 0.0
H1675 H 0.10361 0.2824 0.33826 0.0
H1676 H 0.11406 0.36949 0.40371 0.0
H1677 H 0.12049 0.34506 0.37606 0.0
H1678 H 0.15951 0.28982 0.38919 0.0
C1679 C 0.14328 0.23192 0.34079 0.0
C1680 C 0.11622 0.28409 0.34897 0.0
C1681 C 0.14442 0.21491 0.32757 0.0
C1682 C 0.11803 0.35301 0.4067 0.0
C1683 C 0.12159 0.33905 0.39093 0.0
C1684 C 0.14734 0.28845 0.37799 0.0
C1685 C 0.13488 0.25176 0.335 0.0
C1686 C 0.13356 0.26982 0.34926 0.0
C1687 C 0.12657 0.31751 0.39438 0.0
C1688 C 0.12974 0.30225 0.37798 0.0
H1689 H 0.12257 0.2392 0.28763 0.0
H1690 H 0.12122 0.26905 0.31045 0.0
H1691 H 0.16319 0.26232 0.36419 0.0
H1692 H 0.12481 0.31769 0.44424 0.0
H1693 H 0.13151 0.29368 0.4169 0.0
C1694 C 0.02182 0.87083 0.55751 0.0
C1695 C 0.0394 0.88424 0.56092 0.0
C1696 C 0.00502 0.86976 0.571 0.0
C1697 C 0.98005 0.89925 0.61218 0.0
H1698 H 0.95531 0.84436 0.62492 0.0
C1699 C 0.92514 0.88638 0.67925 0.0
C1700 C 0.90803 0.87201 0.67757 0.0
C1701 C 0.93987 0.88873 0.664 0.0
C1702 C 0.96179 0.85987 0.62133 0.0
H1703 H 0.05304 0.90697 0.58135 0.0
H1704 H 0.02388 0.90495 0.60489 0.0
H1705 H 0.98366 0.84656 0.60055 0.0
H1706 H 0.89278 0.84921 0.65821 0.0
H1707 H 0.91836 0.85352 0.6315 0.0
H1708 H 0.95831 0.91254 0.63309 0.0
C1709 C 0.02294 0.89547 0.59164 0.0
C1710 C 0.97809 0.86113 0.60735 0.0
C1711 C 0.03975 0.89652 0.57818 0.0
C1712 C 0.90573 0.86046 0.66001 0.0
C1713 C 0.92051 0.86278 0.64475 0.0
C1714 C 0.96374 0.898 0.62615 0.0
C1715 C 0.00535 0.88207 0.58824 0.0
C1716 C 0.98755 0.88082 0.6027 0.0
C1717 C 0.93794 0.87675 0.64666 0.0
C1718 C 0.9545 0.87827 0.63102 0.0
H1719 H 0.02097 0.86113 0.54439 0.0
H1720 H 0.99164 0.85944 0.56778 0.0
H1721 H 0.98669 0.91473 0.60872 0.0
H1722 H 0.92751 0.89549 0.69257 0.0
H1723 H 0.9532 0.89944 0.66611 0.0
C1724 C 0.38473 0.77198 0.80776 0.0
C1725 C 0.37144 0.78966 0.8111 0.0
C1726 C 0.38593 0.75539 0.82146 0.0
C1727 C 0.35706 0.73136 0.86362 0.0
H1728 H 0.412 0.70636 0.87562 0.0
C1729 C 0.3709 0.67745 0.93123 0.0
C1730 C 0.38484 0.66001 0.9294 0.0
C1731 C 0.36849 0.69207 0.9159 0.0
C1732 C 0.39647 0.71293 0.87225 0.0
H1733 H 0.34904 0.80369 0.83162 0.0
H1734 H 0.3513 0.77494 0.85553 0.0
H1735 H 0.40948 0.73423 0.85082 0.0
H1736 H 0.40687 0.64412 0.90971 0.0
H1737 H 0.40249 0.66954 0.88288 0.0
H1738 H 0.3441 0.7102 0.8852 0.0
C1739 C 0.36057 0.77372 0.84217 0.0
C1740 C 0.39503 0.72896 0.85802 0.0
C1741 C 0.35937 0.7903 0.82849 0.0
C1742 C 0.39597 0.65733 0.91164 0.0
C1743 C 0.39359 0.67201 0.8963 0.0
C1744 C 0.35851 0.71535 0.87786 0.0
C1745 C 0.37387 0.75604 0.83886 0.0
C1746 C 0.37532 0.7385 0.85361 0.0
C1747 C 0.37998 0.6897 0.89832 0.0
C1748 C 0.37826 0.70602 0.88247 0.0
H1749 H 0.39426 0.7709 0.79455 0.0
H1750 H 0.39615 0.74193 0.8183 0.0
H1751 H 0.34156 0.73806 0.86037 0.0
H1752 H 0.36213 0.6801 0.9447 0.0
H1753 H 0.35807 0.70561 0.91808 0.0
C1754 C 0.60059 0.14397 0.15971 0.0
C1755 C 0.5983 0.13319 0.17768 0.0
C1756 C 0.58543 0.14149 0.1448 0.0
C1757 C 0.54089 0.10687 0.12807 0.0
H1758 H 0.52203 0.15787 0.10111 0.0
C1759 C 0.46483 0.10854 0.08 0.0
C1760 C 0.46558 0.1203 0.06244 0.0
C1761 C 0.48159 0.10961 0.09352 0.0
C1762 C 0.52728 0.14341 0.1083 0.0
H1763 H 0.57846 0.11091 0.19381 0.0
H1764 H 0.55212 0.10669 0.16794 0.0
H1765 H 0.55071 0.16018 0.12509 0.0
H1766 H 0.48468 0.14245 0.04542 0.0
H1767 H 0.51388 0.14413 0.06885 0.0
H1768 H 0.51733 0.09013 0.11137 0.0
C1769 C 0.56571 0.11691 0.16525 0.0
C1770 C 0.54378 0.14474 0.12205 0.0
C1771 C 0.58081 0.11942 0.18015 0.0
C1772 C 0.4835 0.13317 0.05878 0.0
C1773 C 0.50023 0.13425 0.07229 0.0
C1774 C 0.52439 0.10554 0.11431 0.0
C1775 C 0.56764 0.12814 0.14749 0.0
C1776 C 0.55073 0.1265 0.13219 0.0
C1777 C 0.49951 0.1225 0.08985 0.0
C1778 C 0.5173 0.12381 0.10431 0.0
H1779 H 0.61382 0.15473 0.1573 0.0
H1780 H 0.58757 0.15016 0.1312 0.0
H1781 H 0.54604 0.09245 0.13539 0.0
H1782 H 0.45127 0.09851 0.08336 0.0
H1783 H 0.48036 0.10056 0.10701 0.0
C1784 C 0.11847 0.65876 0.08942 0.0
C1785 C 0.12346 0.66332 0.06975 0.0
C1786 C 0.12235 0.67383 0.10421 0.0
C1787 C 0.15154 0.72498 0.11387 0.0
H1788 H 0.11105 0.73039 0.15654 0.0
C1789 C 0.14598 0.79952 0.16378 0.0
C1790 C 0.14449 0.79593 0.18411 0.0
C1791 C 0.14467 0.78251 0.15054 0.0
C1792 C 0.12259 0.72894 0.1448 0.0
H1793 H 0.13629 0.68745 0.05024 0.0
H1794 H 0.14239 0.71372 0.07565 0.0
H1795 H 0.10646 0.70216 0.13229 0.0
H1796 H 0.14026 0.77162 0.20641 0.0
H1797 H 0.13761 0.74201 0.18321 0.0
H1798 H 0.16716 0.75232 0.12608 0.0
C1799 C 0.13613 0.69833 0.07994 0.0
C1800 C 0.12005 0.71267 0.13091 0.0
C1801 C 0.13251 0.68323 0.06526 0.0
C1802 C 0.14163 0.77493 0.19085 0.0
C1803 C 0.13996 0.75798 0.17759 0.0
C1804 C 0.15389 0.74141 0.12758 0.0
C1805 C 0.13108 0.69394 0.09965 0.0
C1806 C 0.1344 0.71054 0.11513 0.0
C1807 C 0.14147 0.76158 0.15728 0.0
C1808 C 0.13937 0.74366 0.14312 0.0
H1809 H 0.11149 0.64358 0.09341 0.0
H1810 H 0.11853 0.66967 0.11921 0.0
H1811 H 0.16325 0.72364 0.10227 0.0
H1812 H 0.14815 0.81548 0.15808 0.0
H1813 H 0.14572 0.7858 0.13496 0.0
C1814 C 0.45687 0.88507 0.41633 0.0
C1815 C 0.45933 0.89588 0.43427 0.0
C1816 C 0.47411 0.88274 0.40349 0.0
C1817 C 0.52561 0.90584 0.38955 0.0
H1818 H 0.53675 0.8501 0.36721 0.0
C1819 C 0.58074 0.89125 0.32259 0.0
C1820 C 0.59453 0.87361 0.32333 0.0
C1821 C 0.56575 0.8947 0.33746 0.0
C1822 C 0.53394 0.86572 0.37345 0.0
H1823 H 0.48177 0.91309 0.45256 0.0
H1824 H 0.51177 0.90934 0.4299 0.0
H1825 H 0.50722 0.85474 0.39023 0.0
H1826 H 0.60365 0.84598 0.34048 0.0
H1827 H 0.57724 0.8519 0.36635 0.0
H1828 H 0.55214 0.91688 0.37249 0.0
C1829 C 0.4965 0.90259 0.42587 0.0
C1830 C 0.51692 0.86842 0.38647 0.0
C1831 C 0.47933 0.90467 0.43887 0.0
C1832 C 0.59334 0.85979 0.33953 0.0
C1833 C 0.57812 0.86307 0.35426 0.0
C1834 C 0.54246 0.9032 0.3763 0.0
C1835 C 0.49413 0.89139 0.40815 0.0
C1836 C 0.51251 0.88852 0.39461 0.0
C1837 C 0.564 0.88043 0.35326 0.0
C1838 C 0.54678 0.88312 0.36806 0.0
H1839 H 0.44172 0.87801 0.41238 0.0
H1840 H 0.47175 0.8742 0.38985 0.0
H1841 H 0.52254 0.92153 0.39553 0.0
H1842 H 0.58122 0.90221 0.31032 0.0
H1843 H 0.555 0.90813 0.3362 0.0
C1844 C 0.39562 0.3177 0.56915 0.0
C1845 C 0.39062 0.33943 0.57129 0.0
C1846 C 0.39306 0.30354 0.5847 0.0
C1847 C 0.36485 0.29492 0.63134 0.0
H1848 H 0.40773 0.25097 0.63769 0.0
C1849 C 0.36269 0.23023 0.69303 0.0
C1850 C 0.3676 0.20934 0.68701 0.0
C1851 C 0.36534 0.24745 0.68016 0.0
C1852 C 0.39554 0.26305 0.63605 0.0
H1853 H 0.37889 0.36322 0.59167 0.0
H1854 H 0.37443 0.33822 0.61911 0.0
H1855 H 0.41308 0.27903 0.61357 0.0
H1856 H 0.37892 0.19025 0.66259 0.0
H1857 H 0.38349 0.22016 0.64027 0.0
H1858 H 0.34727 0.27866 0.65387 0.0
C1859 C 0.38025 0.33227 0.60519 0.0
C1860 C 0.3986 0.27916 0.62222 0.0
C1861 C 0.38287 0.3466 0.58951 0.0
C1862 C 0.37497 0.20609 0.66776 0.0
C1863 C 0.37775 0.22327 0.65498 0.0
C1864 C 0.36181 0.27877 0.6453 0.0
C1865 C 0.38548 0.31058 0.60296 0.0
C1866 C 0.38308 0.29502 0.61933 0.0
C1867 C 0.37317 0.24418 0.66106 0.0
C1868 C 0.37692 0.26238 0.64748 0.0
H1869 H 0.40159 0.31149 0.55537 0.0
H1870 H 0.39683 0.2869 0.58229 0.0
H1871 H 0.35254 0.30683 0.62943 0.0
H1872 H 0.35697 0.23333 0.70775 0.0
H1873 H 0.36175 0.26338 0.6853 0.0
C1874 C 0.93755 0.13214 0.81746 0.0
C1875 C 0.91546 0.13175 0.821 0.0
C1876 C 0.95198 0.12692 0.83219 0.0
C1877 C 0.95887 0.12448 0.88544 0.0
H1878 H 0.00875 0.09132 0.87135 0.0
C1879 C 0.02579 0.10419 0.94116 0.0
C1880 C 0.04676 0.10718 0.93436 0.0
C1881 C 0.00856 0.10491 0.92815 0.0
C1882 C 0.99498 0.10069 0.8755 0.0
H1883 H 0.89131 0.12571 0.84306 0.0
H1884 H 0.9168 0.11655 0.86907 0.0
H1885 H 0.98037 0.09643 0.84743 0.0
H1886 H 0.06601 0.11309 0.90848 0.0
H1887 H 0.03602 0.11434 0.88585 0.0
H1888 H 0.97376 0.12905 0.91343 0.0
C1889 C 0.92278 0.12094 0.85472 0.0
C1890 C 0.9787 0.10359 0.86182 0.0
C1891 C 0.90819 0.1261 0.83983 0.0
C1892 C 0.0501 0.1106 0.91422 0.0
C1893 C 0.0329 0.11122 0.90122 0.0
C1894 C 0.97521 0.12155 0.89918 0.0
C1895 C 0.94484 0.12117 0.85097 0.0
C1896 C 0.96069 0.11594 0.86645 0.0
C1897 C 0.01191 0.10852 0.90804 0.0
C1898 C 0.99366 0.11001 0.89419 0.0
H1899 H 0.94384 0.13654 0.80322 0.0
H1900 H 0.96885 0.12771 0.82891 0.0
H1901 H 0.94529 0.13419 0.8894 0.0
H1902 H 0.0226 0.10155 0.95659 0.0
H1903 H 0.99262 0.10258 0.93384 0.0
C1904 C 0.89542 0.68316 0.5719 0.0
C1905 C 0.88831 0.66194 0.5732 0.0
C1906 C 0.89188 0.69751 0.58715 0.0
C1907 C 0.87991 0.70209 0.63987 0.0
H1908 H 0.86442 0.75963 0.62482 0.0
C1909 C 0.88486 0.77386 0.69335 0.0
C1910 C 0.86943 0.79003 0.69172 0.0
C1911 C 0.88548 0.75707 0.67983 0.0
C1912 C 0.86847 0.74361 0.62938 0.0
H1913 H 0.87236 0.63908 0.59198 0.0
H1914 H 0.86599 0.66443 0.61883 0.0
H1915 H 0.86798 0.73235 0.59981 0.0
H1916 H 0.84219 0.80081 0.67484 0.0
H1917 H 0.84308 0.77146 0.65153 0.0
H1918 H 0.8802 0.71346 0.66955 0.0
C1919 C 0.87438 0.66981 0.60586 0.0
C1920 C 0.87077 0.72798 0.61497 0.0
C1921 C 0.87795 0.65532 0.59047 0.0
C1922 C 0.85443 0.78877 0.67645 0.0
C1923 C 0.85498 0.77194 0.66302 0.0
C1924 C 0.87758 0.71779 0.65436 0.0
C1925 C 0.88107 0.69117 0.60421 0.0
C1926 C 0.87688 0.70711 0.61996 0.0
C1927 C 0.87065 0.75597 0.66439 0.0
C1928 C 0.87206 0.73883 0.64926 0.0
H1929 H 0.90376 0.68885 0.55901 0.0
H1930 H 0.89776 0.71364 0.58556 0.0
H1931 H 0.8847 0.6862 0.64421 0.0
H1932 H 0.89671 0.77434 0.70489 0.0
H1933 H 0.89795 0.74525 0.68121 0.0
C1934 C 0.98348 0.13589 0.44223 0.0
C1935 C 0.96602 0.12234 0.43878 0.0
C1936 C 1.0003 0.13709 0.42879 0.0
C1937 C 0.02566 0.10776 0.38776 0.0
H1938 H 0.04996 0.16286 0.37503 0.0
C1939 C 0.08083 0.121 0.32099 0.0
C1940 C 0.09785 0.13545 0.32278 0.0
C1941 C 0.066 0.11859 0.33614 0.0
C1942 C 0.04359 0.1473 0.37863 0.0
H1943 H 0.9526 0.0995 0.41833 0.0
H1944 H 0.98181 0.10175 0.39485 0.0
H1945 H 0.02148 0.16045 0.39926 0.0
H1946 H 0.11284 0.15835 0.34222 0.0
H1947 H 0.08707 0.15394 0.36876 0.0
H1948 H 0.04765 0.09464 0.367 0.0
C1949 C 0.98264 0.11123 0.4081 0.0
C1950 C 0.02722 0.14592 0.39252 0.0
C1951 C 0.9658 0.11005 0.42152 0.0
C1952 C 0.09996 0.14704 0.34034 0.0
C1953 C 0.08508 0.14465 0.3555 0.0
C1954 C 0.04204 0.10914 0.37388 0.0
C1955 C 1.0001 0.12477 0.41156 0.0
C1956 C 0.01794 0.12616 0.39716 0.0
C1957 C 0.06776 0.13058 0.35349 0.0
C1958 C 0.05111 0.12895 0.36903 0.0
H1959 H 0.98422 0.1456 0.45535 0.0
H1960 H 0.01359 0.14751 0.43204 0.0
H1961 H 0.01915 0.09224 0.39123 0.0
H1962 H 0.07862 0.11185 0.30767 0.0
H1963 H 0.05275 0.1078 0.33396 0.0
C1964 C 0.62663 0.322 0.06629 0.0
C1965 C 0.62095 0.34314 0.07056 0.0
C1966 C 0.6299 0.30726 0.08129 0.0
C1967 C 0.6379 0.30138 0.13525 0.0
H1968 H 0.61889 0.24377 0.12434 0.0
C1969 C 0.63095 0.23438 0.19416 0.0
C1970 C 0.63922 0.21433 0.1889 0.0
C1971 C 0.62954 0.25081 0.18032 0.0
C1972 C 0.62444 0.25974 0.12756 0.0
H1973 H 0.61472 0.36557 0.09398 0.0
H1974 H 0.61977 0.33953 0.12043 0.0
H1975 H 0.61458 0.27126 0.09955 0.0
H1976 H 0.65251 0.1959 0.16493 0.0
H1977 H 0.64971 0.22449 0.14072 0.0
H1978 H 0.64715 0.28966 0.16361 0.0
C1979 C 0.62213 0.33445 0.1054 0.0
C1980 C 0.62207 0.27555 0.11331 0.0
C1981 C 0.61919 0.3494 0.09028 0.0
C1982 C 0.64612 0.21115 0.16949 0.0
C1983 C 0.64442 0.22748 0.1556 0.0
C1984 C 0.64002 0.28555 0.14965 0.0
C1985 C 0.62716 0.31306 0.10106 0.0
C1986 C 0.62903 0.29655 0.1168 0.0
C1987 C 0.63605 0.24747 0.16084 0.0
C1988 C 0.63352 0.2645 0.14585 0.0
H1989 H 0.62845 0.31674 0.05124 0.0
H1990 H 0.63444 0.2912 0.07729 0.0
H1991 H 0.64361 0.31727 0.13846 0.0
H1992 H 0.62552 0.23741 0.20898 0.0
H1993 H 0.62288 0.26599 0.18475 0.0
C1994 C 0.4237 0.89014 0.8227 0.0
C1995 C 0.41004 0.87239 0.82342 0.0
C1996 C 0.43848 0.89383 0.83767 0.0
C1997 C 0.47013 0.86533 0.87401 0.0
H1998 H 0.48106 0.92137 0.89581 0.0
C1999 C 0.54703 0.88547 0.91653 0.0
C2000 C 0.54458 0.89622 0.93449 0.0
C2001 C 0.52977 0.88303 0.90377 0.0
C2002 C 0.47811 0.90561 0.88992 0.0
H2003 H 0.40096 0.8448 0.84066 0.0
H2004 H 0.42703 0.85112 0.86671 0.0
H2005 H 0.45159 0.91634 0.8727 0.0
H2006 H 0.52214 0.91329 0.9529 0.0
H2007 H 0.49205 0.90938 0.93034 0.0
H2008 H 0.49686 0.85466 0.89092 0.0
C2009 C 0.42619 0.8622 0.85455 0.0
C2010 C 0.46133 0.90276 0.87663 0.0
C2011 C 0.41117 0.85868 0.8397 0.0
C2012 C 0.52456 0.90491 0.93918 0.0
C2013 C 0.50735 0.90273 0.92625 0.0
C2014 C 0.48707 0.86824 0.88707 0.0
C2015 C 0.44017 0.87968 0.85357 0.0
C2016 C 0.45722 0.8826 0.86848 0.0
C2017 C 0.50971 0.89153 0.90852 0.0
C2018 C 0.49132 0.88843 0.89509 0.0
H2019 H 0.42324 0.90103 0.81037 0.0
H2020 H 0.44914 0.90734 0.83642 0.0
H2021 H 0.46748 0.84964 0.86785 0.0
H2022 H 0.56219 0.87848 0.9125 0.0
H2023 H 0.53212 0.87451 0.89011 0.0
C2024 C 0.87517 0.32471 0.93293 0.0
C2025 C 0.88462 0.34451 0.92871 0.0
C2026 C 0.87212 0.30953 0.91823 0.0
C2027 C 0.89031 0.29439 0.86808 0.0
H2028 H 0.84245 0.25548 0.87163 0.0
C2029 C 0.86989 0.23132 0.80829 0.0
C2030 C 0.86622 0.21052 0.81524 0.0
C2031 C 0.87164 0.24845 0.82137 0.0
C2032 C 0.85594 0.26617 0.8705 0.0
H2033 H 0.89801 0.36391 0.90547 0.0
H2034 H 0.89198 0.33764 0.87954 0.0
H2035 H 0.84563 0.28454 0.89511 0.0
H2036 H 0.86135 0.1915 0.84143 0.0
H2037 H 0.86392 0.2215 0.8642 0.0
H2038 H 0.90023 0.27606 0.8431 0.0
C2039 C 0.88735 0.33367 0.8944 0.0
C2040 C 0.85786 0.28282 0.88402 0.0
C2041 C 0.89066 0.34884 0.90924 0.0
C2042 C 0.86416 0.2073 0.83558 0.0
C2043 C 0.86554 0.22449 0.84862 0.0
C2044 C 0.88818 0.27788 0.85436 0.0
C2045 C 0.87815 0.31371 0.89872 0.0
C2046 C 0.87528 0.29699 0.88326 0.0
C2047 C 0.8694 0.24523 0.84167 0.0
C2048 C 0.87115 0.2634 0.85561 0.0
H2049 H 0.87058 0.32062 0.94779 0.0
H2050 H 0.86549 0.29425 0.92237 0.0
H2051 H 0.90409 0.3047 0.8671 0.0
H2052 H 0.87171 0.23435 0.79273 0.0
H2053 H 0.87452 0.26426 0.81558 0.0
C2054 C 0.54963 0.11586 0.58403 0.0
C2055 C 0.54609 0.11319 0.56381 0.0
C2056 C 0.53256 0.11628 0.59718 0.0
C2057 C 0.47489 0.1266 0.60052 0.0
H2058 H 0.48095 0.09851 0.65088 0.0
C2059 C 0.40868 0.12726 0.66084 0.0
C2060 C 0.41612 0.13172 0.67988 0.0
C2061 C 0.42311 0.12312 0.64555 0.0
C2062 C 0.47902 0.10651 0.63691 0.0
H2063 H 0.52167 0.10894 0.54161 0.0
H2064 H 0.49186 0.10965 0.56466 0.0
H2065 H 0.50892 0.09488 0.62635 0.0
H2066 H 0.44464 0.13539 0.69765 0.0
H2067 H 0.46943 0.12829 0.67127 0.0
H2068 H 0.44509 0.13856 0.61135 0.0
C2069 C 0.50789 0.11151 0.57027 0.0
C2070 C 0.49508 0.10445 0.62286 0.0
C2071 C 0.525 0.11099 0.55708 0.0
C2072 C 0.43823 0.1319 0.68324 0.0
C2073 C 0.45253 0.12768 0.6681 0.0
C2074 C 0.45878 0.12868 0.61464 0.0
C2075 C 0.51148 0.11411 0.59049 0.0
C2076 C 0.49344 0.11484 0.60466 0.0
C2077 C 0.44522 0.12319 0.64909 0.0
C2078 C 0.46091 0.11904 0.63316 0.0
H2079 H 0.56562 0.11772 0.58975 0.0
H2080 H 0.53589 0.11867 0.61262 0.0
H2081 H 0.47319 0.13489 0.58668 0.0
H2082 H 0.39176 0.12709 0.65773 0.0
H2083 H 0.417 0.11968 0.63104 0.0
C2084 C 0.61928 0.7733 0.3083 0.0
C2085 C 0.63266 0.79095 0.31154 0.0
C2086 C 0.61805 0.75674 0.32202 0.0
C2087 C 0.64694 0.73262 0.36412 0.0
H2088 H 0.59201 0.70747 0.37598 0.0
C2089 C 0.63314 0.67822 0.43145 0.0
C2090 C 0.6192 0.66078 0.42957 0.0
C2091 C 0.63553 0.69293 0.41619 0.0
C2092 C 0.60753 0.71408 0.37266 0.0
H2093 H 0.65519 0.80493 0.33196 0.0
H2094 H 0.65287 0.77621 0.35594 0.0
H2095 H 0.59454 0.7355 0.35134 0.0
H2096 H 0.59713 0.64501 0.40986 0.0
H2097 H 0.60147 0.6706 0.38313 0.0
H2098 H 0.6599 0.71133 0.3856 0.0
C2099 C 0.64355 0.775 0.34262 0.0
C2100 C 0.60899 0.7302 0.35851 0.0
C2101 C 0.64478 0.79157 0.32889 0.0
C2102 C 0.60805 0.6582 0.41182 0.0
C2103 C 0.61039 0.67299 0.39655 0.0
C2104 C 0.64549 0.71651 0.37828 0.0
C2105 C 0.63016 0.75736 0.33938 0.0
C2106 C 0.62869 0.73979 0.35413 0.0
C2107 C 0.62401 0.69068 0.39861 0.0
C2108 C 0.62574 0.70711 0.38284 0.0
H2109 H 0.60971 0.77222 0.29511 0.0
H2110 H 0.60777 0.74331 0.31889 0.0
H2111 H 0.66245 0.73933 0.3609 0.0
H2112 H 0.64195 0.6808 0.4449 0.0
H2113 H 0.64596 0.70646 0.41842 0.0
C2114 C 0.1001 0.88043 0.15957 0.0
C2115 C 0.09252 0.87327 0.17785 0.0
C2116 C 0.08575 0.88621 0.14466 0.0
C2117 C 0.02987 0.90326 0.13763 0.0
H2118 H 0.03522 0.88054 0.08498 0.0
C2119 C 0.95849 0.89784 0.08523 0.0
C2120 C 0.96163 0.9019 0.06516 0.0
C2121 C 0.9758 0.89702 0.0981 0.0
C2122 C 0.03366 0.88732 0.09953 0.0
H2123 H 0.06382 0.86637 0.1946 0.0
H2124 H 0.03925 0.87639 0.16893 0.0
H2125 H 0.06367 0.87443 0.10887 0.0
H2126 H 0.98553 0.90852 0.04293 0.0
H2127 H 0.01572 0.90719 0.06548 0.0
H2128 H 0.99977 0.91579 0.12855 0.0
C2129 C 0.05617 0.87783 0.1661 0.0
C2130 C 0.04998 0.88382 0.11319 0.0
C2131 C 0.07036 0.87193 0.18081 0.0
C2132 C 0.98251 0.90538 0.05832 0.0
C2133 C 0.99985 0.90449 0.0712 0.0
C2134 C 0.01364 0.90677 0.12402 0.0
C2135 C 0.06362 0.88517 0.1479 0.0
C2136 C 0.04797 0.89128 0.13254 0.0
C2137 C 0.9967 0.9002 0.09124 0.0
C2138 C 0.01507 0.89839 0.10495 0.0
H2139 H 0.11705 0.88157 0.15679 0.0
H2140 H 0.09193 0.89179 0.13074 0.0
H2141 H 0.02805 0.90958 0.15233 0.0
H2142 H 0.94268 0.89494 0.09101 0.0
H2143 H 0.97282 0.89335 0.11339 0.0
C2144 C 0.64501 0.70733 0.83742 0.0
C2145 C 0.64961 0.71048 0.81745 0.0
C2146 C 0.64387 0.72463 0.85028 0.0
C2147 C 0.63457 0.78266 0.85139 0.0
H2148 H 0.65478 0.77687 0.90487 0.0
C2149 C 0.62769 0.84971 0.91082 0.0
C2150 C 0.61979 0.84256 0.92899 0.0
C2151 C 0.63336 0.83504 0.89615 0.0
C2152 C 0.64903 0.77873 0.88998 0.0
H2153 H 0.65691 0.73438 0.79541 0.0
H2154 H 0.65511 0.76453 0.81795 0.0
H2155 H 0.6614 0.74841 0.88137 0.0
H2156 H 0.61136 0.8143 0.94576 0.0
H2157 H 0.62121 0.78913 0.92048 0.0
H2158 H 0.62193 0.81295 0.86024 0.0
C2159 C 0.65217 0.74867 0.82359 0.0
C2160 C 0.65277 0.76239 0.87653 0.0
C2161 C 0.65334 0.73135 0.81071 0.0
C2162 C 0.61752 0.8205 0.93205 0.0
C2163 C 0.6233 0.80597 0.91757 0.0
C2164 C 0.63088 0.79909 0.86489 0.0
C2165 C 0.6473 0.74553 0.84352 0.0
C2166 C 0.64515 0.76391 0.85719 0.0
C2167 C 0.63145 0.81299 0.89952 0.0
C2168 C 0.63762 0.79703 0.88446 0.0
H2169 H 0.64189 0.69152 0.84311 0.0
H2170 H 0.63974 0.72164 0.86547 0.0
H2171 H 0.62836 0.78429 0.83664 0.0
H2172 H 0.62956 0.86658 0.90796 0.0
H2173 H 0.63957 0.84089 0.88234 0.0
C2174 C 0.525 0.40189 0.05858 0.0
C2175 C 0.54598 0.39771 0.06477 0.0
C2176 C 0.50797 0.40061 0.07181 0.0
C2177 C 0.49567 0.4002 0.12507 0.0
H2178 H 0.44383 0.37121 0.10932 0.0
C2179 C 0.4377 0.36584 0.1813 0.0
C2180 C 0.41566 0.36886 0.17871 0.0
C2181 C 0.45209 0.37134 0.16659 0.0
C2182 C 0.45807 0.37964 0.11384 0.0
H2183 H 0.56543 0.389 0.08983 0.0
H2184 H 0.53584 0.38666 0.11278 0.0
H2185 H 0.47209 0.37736 0.08522 0.0
H2186 H 0.39152 0.37966 0.15825 0.0
H2187 H 0.41695 0.38918 0.13224 0.0
H2188 H 0.48195 0.40199 0.15375 0.0
C2189 C 0.53254 0.39123 0.09776 0.0
C2190 C 0.47427 0.38317 0.10005 0.0
C2191 C 0.54953 0.39249 0.08456 0.0
C2192 C 0.40837 0.3772 0.16075 0.0
C2193 C 0.4229 0.38259 0.14586 0.0
C2194 C 0.47956 0.39662 0.13881 0.0
C2195 C 0.51152 0.39517 0.09155 0.0
C2196 C 0.49346 0.3931 0.10562 0.0
C2197 C 0.44495 0.37994 0.14877 0.0
C2198 C 0.46078 0.38588 0.13348 0.0
H2199 H 0.52166 0.40594 0.04344 0.0
H2200 H 0.49203 0.40395 0.06658 0.0
H2201 H 0.51 0.40834 0.12977 0.0
H2202 H 0.444 0.35932 0.19482 0.0
H2203 H 0.46892 0.36868 0.16916 0.0
C2204 C 0.88978 0.15818 0.4088 0.0
C2205 C 0.88362 0.16218 0.42831 0.0
C2206 C 0.88659 0.17363 0.39419 0.0
C2207 C 0.88238 0.23131 0.38817 0.0
H2208 H 0.85474 0.21951 0.3385 0.0
C2209 C 0.86035 0.29953 0.33551 0.0
C2210 C 0.86201 0.296 0.31522 0.0
C2211 C 0.86233 0.28263 0.34877 0.0
C2212 C 0.86279 0.22307 0.35216 0.0
H2213 H 0.86912 0.18556 0.44765 0.0
H2214 H 0.86392 0.21237 0.42235 0.0
H2215 H 0.86003 0.19072 0.36217 0.0
H2216 H 0.86706 0.27187 0.29294 0.0
H2217 H 0.87122 0.24253 0.31601 0.0
H2218 H 0.88578 0.26337 0.37823 0.0
C2219 C 0.87112 0.1973 0.41832 0.0
C2220 C 0.86575 0.20654 0.36573 0.0
C2221 C 0.87399 0.18183 0.43279 0.0
C2222 C 0.86549 0.27511 0.30848 0.0
C2223 C 0.86779 0.25824 0.32176 0.0
C2224 C 0.87973 0.24773 0.37454 0.0
C2225 C 0.87756 0.19348 0.39892 0.0
C2226 C 0.87534 0.21057 0.38396 0.0
C2227 C 0.86642 0.26177 0.34213 0.0
C2228 C 0.86965 0.24396 0.35642 0.0
H2229 H 0.89729 0.14324 0.40486 0.0
H2230 H 0.89176 0.17031 0.37934 0.0
H2231 H 0.89012 0.23481 0.402 0.0
H2232 H 0.85753 0.3154 0.34119 0.0
H2233 H 0.86063 0.286 0.36427 0.0
C2234 C 0.98117 0.61022 0.55872 0.0
C2235 C 0.96033 0.607 0.56569 0.0
C2236 C 0.99819 0.61239 0.57179 0.0
C2237 C 0.00903 0.62581 0.62393 0.0
H2238 H 0.06655 0.60872 0.61045 0.0
C2239 C 0.0789 0.65353 0.67097 0.0
C2240 C 0.0955 0.63915 0.67476 0.0
C2241 C 0.06379 0.64916 0.65655 0.0
C2242 C 0.05057 0.61341 0.61456 0.0
H2243 H 0.94115 0.60265 0.59181 0.0
H2244 H 0.97089 0.6055 0.61461 0.0
H2245 H 0.03725 0.60007 0.58838 0.0
H2246 H 0.10986 0.60927 0.66608 0.0
H2247 H 0.0829 0.60112 0.64115 0.0
H2248 H 0.02201 0.63831 0.65042 0.0
C2249 C 0.97407 0.6071 0.59907 0.0
C2250 C 0.03375 0.60869 0.60176 0.0
C2251 C 0.95699 0.60528 0.586 0.0
C2252 C 0.09726 0.62067 0.6633 0.0
C2253 C 0.0818 0.61605 0.64903 0.0
C2254 C 0.02573 0.63026 0.63679 0.0
C2255 C 0.99486 0.61111 0.59218 0.0
C2256 C 0.01275 0.61501 0.60618 0.0
C2257 C 0.06454 0.63001 0.64584 0.0
C2258 C 0.0468 0.62444 0.63219 0.0
H2259 H 0.98424 0.61183 0.54315 0.0
H2260 H 0.01382 0.61581 0.56587 0.0
H2261 H 0.99322 0.63126 0.62781 0.0
H2262 H 0.07735 0.66803 0.67949 0.0
H2263 H 0.05124 0.66069 0.65409 0.0
C2264 C 0.6292 0.15599 0.59009 0.0
C2265 C 0.62413 0.16363 0.57125 0.0
C2266 C 0.63403 0.17026 0.60535 0.0
C2267 C 0.65177 0.22587 0.61377 0.0
H2268 H 0.62506 0.22029 0.6648 0.0
C2269 C 0.64473 0.29656 0.66691 0.0
C2270 C 0.64738 0.293 0.68713 0.0
C2271 C 0.64416 0.27949 0.65376 0.0
C2272 C 0.63292 0.22191 0.65073 0.0
H2273 H 0.62006 0.19237 0.55384 0.0
H2274 H 0.62837 0.21685 0.58014 0.0
H2275 H 0.62013 0.19233 0.6402 0.0
H2276 H 0.65164 0.26854 0.70931 0.0
H2277 H 0.65073 0.23875 0.68626 0.0
H2278 H 0.66426 0.25554 0.62404 0.0
C2279 C 0.62892 0.19992 0.58317 0.0
C2280 C 0.6301 0.20587 0.63664 0.0
C2281 C 0.624 0.18579 0.56807 0.0
C2282 C 0.64962 0.2719 0.69383 0.0
C2283 C 0.64897 0.25479 0.68064 0.0
C2284 C 0.6546 0.24184 0.6278 0.0
C2285 C 0.63408 0.1924 0.60198 0.0
C2286 C 0.63908 0.20793 0.61784 0.0
C2287 C 0.64617 0.25838 0.66044 0.0
C2288 C 0.64482 0.24032 0.6463 0.0
H2289 H 0.62937 0.13904 0.59306 0.0
H2290 H 0.63796 0.16398 0.6197 0.0
H2291 H 0.65929 0.22774 0.59956 0.0
H2292 H 0.64282 0.31255 0.66121 0.0
H2293 H 0.64164 0.28285 0.63834 0.0
C2294 C 0.96633 0.40043 0.92309 0.0
C2295 C 0.966 0.38646 0.93921 0.0
C2296 C 0.98282 0.39949 0.9093 0.0
C2297 C 0.01088 0.38469 0.8759 0.0
H2298 H 0.06902 0.37117 0.89061 0.0
C2299 C 0.07146 0.35681 0.81875 0.0
C2300 C 0.09246 0.36456 0.81966 0.0
C2301 C 0.05714 0.36056 0.83399 0.0
C2302 C 0.05292 0.37518 0.88628 0.0
H2303 H 0.9829 0.36059 0.9535 0.0
H2304 H 0.01134 0.35866 0.92925 0.0
H2305 H 0.04215 0.37658 0.9161 0.0
H2306 H 0.11502 0.3819 0.83768 0.0
H2307 H 0.08974 0.3887 0.86443 0.0
H2308 H 0.02158 0.38359 0.84616 0.0
C2309 C 0.9991 0.37065 0.92745 0.0
C2310 C 0.03745 0.37803 0.90087 0.0
C2311 C 0.98268 0.37166 0.9413 0.0
C2312 C 0.09894 0.37576 0.8365 0.0
C2313 C 0.08448 0.3796 0.85183 0.0
C2314 C 0.02631 0.3819 0.86137 0.0
C2315 C 0.99932 0.38446 0.91119 0.0
C2316 C 0.01616 0.38258 0.89585 0.0
C2317 C 0.06331 0.37226 0.8506 0.0
C2318 C 0.04744 0.37677 0.86633 0.0
H2319 H 0.95386 0.41215 0.92109 0.0
H2320 H 0.98262 0.41061 0.89715 0.0
H2321 H 0.99466 0.38796 0.87142 0.0
H2322 H 0.06594 0.34782 0.80617 0.0
H2323 H 0.04116 0.35418 0.83274 0.0
C2324 C 0.8823 0.82446 0.069 0.0
C2325 C 0.88802 0.84563 0.07311 0.0
C2326 C 0.87949 0.80974 0.08409 0.0
C2327 C 0.87284 0.8038 0.13815 0.0
H2328 H 0.89174 0.74629 0.12668 0.0
C2329 C 0.88009 0.73594 0.19634 0.0
C2330 C 0.87127 0.71618 0.1909 0.0
C2331 C 0.88169 0.75256 0.1827 0.0
C2332 C 0.88625 0.76224 0.13006 0.0
H2333 H 0.89477 0.86814 0.09634 0.0
H2334 H 0.89051 0.84211 0.12295 0.0
H2335 H 0.89564 0.77393 0.10198 0.0
H2336 H 0.85726 0.69844 0.16684 0.0
H2337 H 0.86041 0.72732 0.143 0.0
H2338 H 0.86403 0.79188 0.16657 0.0
C2339 C 0.88779 0.83701 0.10799 0.0
C2340 C 0.88838 0.77813 0.11586 0.0
C2341 C 0.89027 0.85194 0.09278 0.0
C2342 C 0.86408 0.71345 0.17153 0.0
C2343 C 0.86597 0.72995 0.15785 0.0
C2344 C 0.87098 0.78788 0.1525 0.0
C2345 C 0.88274 0.81558 0.10378 0.0
C2346 C 0.88138 0.79908 0.11954 0.0
C2347 C 0.87483 0.74966 0.16327 0.0
C2348 C 0.8774 0.76687 0.14847 0.0
H2349 H 0.8801 0.81918 0.054 0.0
H2350 H 0.8749 0.79365 0.08022 0.0
H2351 H 0.86713 0.81966 0.1415 0.0
H2352 H 0.88575 0.7386 0.21115 0.0
H2353 H 0.88871 0.76753 0.18724 0.0
C2354 C 0.53833 0.60503 0.42699 0.0
C2355 C 0.53871 0.61877 0.44329 0.0
C2356 C 0.52155 0.60583 0.41351 0.0
C2357 C 0.46631 0.62626 0.40623 0.0
H2358 H 0.48147 0.62259 0.35121 0.0
C2359 C 0.43094 0.64949 0.32513 0.0
C2360 C 0.41019 0.64104 0.32579 0.0
C2361 C 0.4454 0.64559 0.3402 0.0
C2362 C 0.47694 0.62373 0.36651 0.0
H2363 H 0.52151 0.644 0.45823 0.0
H2364 H 0.49251 0.64565 0.43455 0.0
H2365 H 0.50884 0.61802 0.37602 0.0
H2366 H 0.38821 0.62236 0.34328 0.0
H2367 H 0.41375 0.61537 0.3698 0.0
H2368 H 0.43443 0.63274 0.39651 0.0
C2369 C 0.50498 0.63397 0.43236 0.0
C2370 C 0.49262 0.62083 0.38078 0.0
C2371 C 0.52173 0.63312 0.44589 0.0
C2372 C 0.40407 0.62905 0.3423 0.0
C2373 C 0.41869 0.6251 0.35749 0.0
C2374 C 0.45055 0.62918 0.3919 0.0
C2375 C 0.50475 0.62046 0.4159 0.0
C2376 C 0.48761 0.62229 0.40084 0.0
C2377 C 0.43965 0.63305 0.35642 0.0
C2378 C 0.45578 0.62831 0.37185 0.0
H2379 H 0.55104 0.59366 0.42459 0.0
H2380 H 0.52175 0.59495 0.40118 0.0
H2381 H 0.46181 0.62721 0.42155 0.0
H2382 H 0.43616 0.6591 0.31282 0.0
H2383 H 0.46119 0.65246 0.33911 0.0
C2384 C 0.38833 0.15721 0.09174 0.0
C2385 C 0.38335 0.16177 0.07207 0.0
C2386 C 0.38424 0.17223 0.10652 0.0
C2387 C 0.35422 0.22283 0.11602 0.0
H2388 H 0.39473 0.22942 0.1585 0.0
C2389 C 0.35926 0.29805 0.16499 0.0
C2390 C 0.36062 0.29466 0.18534 0.0
C2391 C 0.36066 0.28091 0.15192 0.0
C2392 C 0.38319 0.22762 0.1468 0.0
H2393 H 0.37044 0.18585 0.05255 0.0
H2394 H 0.36401 0.21198 0.07793 0.0
H2395 H 0.39976 0.201 0.1345 0.0
H2396 H 0.36471 0.27061 0.2079 0.0
H2397 H 0.36753 0.24077 0.18503 0.0
H2398 H 0.33819 0.25004 0.12799 0.0
C2399 C 0.37038 0.19665 0.08222 0.0
C2400 C 0.38598 0.21126 0.13308 0.0
C2401 C 0.37421 0.18162 0.06756 0.0
C2402 C 0.36341 0.27375 0.19232 0.0
C2403 C 0.36518 0.25667 0.17924 0.0
C2404 C 0.35163 0.23936 0.12955 0.0
C2405 C 0.37531 0.19223 0.10193 0.0
C2406 C 0.37165 0.20875 0.11736 0.0
C2407 C 0.36385 0.26007 0.15891 0.0
C2408 C 0.36617 0.24203 0.14499 0.0
H2409 H 0.3954 0.14208 0.09571 0.0
H2410 H 0.38803 0.1681 0.12155 0.0
H2411 H 0.34252 0.22115 0.10445 0.0
H2412 H 0.35717 0.31397 0.15914 0.0
H2413 H 0.35974 0.284 0.13631 0.0
C2414 C 0.46352 0.61161 0.92419 0.0
C2415 C 0.46587 0.61909 0.9435 0.0
C2416 C 0.48054 0.61254 0.91095 0.0
C2417 C 0.53296 0.63914 0.90275 0.0
H2418 H 0.53852 0.59569 0.86264 0.0
C2419 C 0.60223 0.63699 0.84549 0.0
C2420 C 0.59496 0.63584 0.82601 0.0
C2421 C 0.58809 0.63353 0.86116 0.0
C2422 C 0.53719 0.60791 0.8738 0.0
H2423 H 0.48814 0.63317 0.96409 0.0
H2424 H 0.51796 0.63417 0.94125 0.0
H2425 H 0.51083 0.59233 0.88752 0.0
H2426 H 0.56743 0.62946 0.80768 0.0
H2427 H 0.54312 0.62296 0.83483 0.0
H2428 H 0.55956 0.65454 0.88892 0.0
C2429 C 0.50283 0.62806 0.93612 0.0
C2430 C 0.5212 0.60611 0.88799 0.0
C2431 C 0.48572 0.62737 0.94929 0.0
C2432 C 0.57353 0.63056 0.82252 0.0
C2433 C 0.5596 0.6267 0.83807 0.0
C2434 C 0.54916 0.64077 0.88868 0.0
C2435 C 0.50048 0.62073 0.91672 0.0
C2436 C 0.51855 0.62191 0.90245 0.0
C2437 C 0.56663 0.62836 0.85755 0.0
C2438 C 0.55117 0.62539 0.87384 0.0
H2439 H 0.4484 0.60533 0.91917 0.0
H2440 H 0.47788 0.60716 0.89606 0.0
H2441 H 0.53134 0.65178 0.91344 0.0
H2442 H 0.61863 0.64115 0.84861 0.0
H2443 H 0.59391 0.63487 0.87607 0.0
C2444 C 0.14934 0.708 0.6647 0.0
C2445 C 0.14744 0.71138 0.685 0.0
C2446 C 0.14701 0.7249 0.65151 0.0
C2447 C 0.14476 0.78437 0.6481 0.0
H2448 H 0.11722 0.77167 0.59855 0.0
C2449 C 0.11593 0.8482 0.59111 0.0
C2450 C 0.12202 0.84409 0.5716 0.0
C2451 C 0.11953 0.83298 0.60585 0.0
C2452 C 0.12501 0.77545 0.6123 0.0
H2453 H 0.14174 0.73526 0.70737 0.0
H2454 H 0.13705 0.76464 0.68438 0.0
H2455 H 0.12254 0.74336 0.62239 0.0
H2456 H 0.13681 0.82076 0.55239 0.0
H2457 H 0.14273 0.79437 0.5779 0.0
H2458 H 0.14662 0.81673 0.6379 0.0
C2459 C 0.14088 0.74904 0.6786 0.0
C2460 C 0.12823 0.75918 0.62596 0.0
C2461 C 0.14352 0.73216 0.69182 0.0
C2462 C 0.13198 0.82457 0.56724 0.0
C2463 C 0.13526 0.80934 0.58184 0.0
C2464 C 0.14125 0.80075 0.63448 0.0
C2465 C 0.14233 0.74561 0.65822 0.0
C2466 C 0.13843 0.7633 0.64396 0.0
C2467 C 0.12892 0.81325 0.60125 0.0
C2468 C 0.1316 0.79637 0.61633 0.0
H2469 H 0.15251 0.69222 0.65896 0.0
H2470 H 0.14882 0.72165 0.636 0.0
H2471 H 0.15285 0.78819 0.66168 0.0
H2472 H 0.10819 0.86305 0.59496 0.0
H2473 H 0.11443 0.83637 0.62071 0.0
C2474 C 0.9064 0.38003 0.34053 0.0
C2475 C 0.914 0.37229 0.32246 0.0
C2476 C 0.92074 0.38573 0.35549 0.0
C2477 C 0.9768 0.40186 0.36259 0.0
H2478 H 0.97105 0.38009 0.41554 0.0
C2479 C 0.04806 0.39669 0.41515 0.0
C2480 C 0.04492 0.40089 0.4352 0.0
C2481 C 0.03076 0.39585 0.40227 0.0
C2482 C 0.97272 0.38661 0.40091 0.0
H2483 H 0.94271 0.36415 0.3062 0.0
H2484 H 0.96723 0.37407 0.33193 0.0
H2485 H 0.94254 0.37398 0.39169 0.0
H2486 H 0.02103 0.40776 0.45736 0.0
H2487 H 0.99087 0.40646 0.4348 0.0
H2488 H 0.00703 0.41418 0.37154 0.0
C2489 C 0.95032 0.37602 0.33455 0.0
C2490 C 0.95638 0.38311 0.38727 0.0
C2491 C 0.93615 0.3702 0.31981 0.0
C2492 C 0.02405 0.40452 0.442 0.0
C2493 C 0.00672 0.40363 0.4291 0.0
C2494 C 0.99305 0.4054 0.37618 0.0
C2495 C 0.94287 0.38402 0.3525 0.0
C2496 C 0.95853 0.39021 0.36782 0.0
C2497 C 0.00986 0.39917 0.40909 0.0
C2498 C 0.99148 0.39735 0.39536 0.0
H2499 H 0.88946 0.38175 0.34308 0.0
H2500 H 0.91456 0.39181 0.36923 0.0
H2501 H 0.97873 0.40788 0.3478 0.0
H2502 H 0.06387 0.39366 0.40941 0.0
H2503 H 0.03375 0.39203 0.38702 0.0
C2504 C 0.38352 0.82144 0.43256 0.0
C2505 C 0.38247 0.84355 0.42928 0.0
C2506 C 0.37778 0.80705 0.41794 0.0
C2507 C 0.37255 0.8003 0.36488 0.0
H2508 H 0.34001 0.75044 0.38021 0.0
C2509 C 0.35054 0.73296 0.30994 0.0
C2510 C 0.35361 0.71205 0.31683 0.0
C2511 C 0.3516 0.75032 0.32282 0.0
C2512 C 0.3492 0.7642 0.37569 0.0
H2513 H 0.37482 0.86779 0.40774 0.0
H2514 H 0.36485 0.84236 0.3819 0.0
H2515 H 0.34634 0.77873 0.40395 0.0
H2516 H 0.36001 0.69304 0.34276 0.0
H2517 H 0.36191 0.72317 0.36511 0.0
H2518 H 0.37584 0.78544 0.33672 0.0
C2519 C 0.3701 0.83634 0.39598 0.0
C2520 C 0.35279 0.78044 0.38929 0.0
C2521 C 0.37573 0.85088 0.41078 0.0
C2522 C 0.35743 0.70889 0.33694 0.0
C2523 C 0.35842 0.7262 0.3498 0.0
C2524 C 0.36898 0.78397 0.35124 0.0
C2525 C 0.37089 0.81425 0.39952 0.0
C2526 C 0.36493 0.79844 0.38421 0.0
C2527 C 0.35567 0.74715 0.3429 0.0
C2528 C 0.35767 0.7655 0.35663 0.0
H2529 H 0.38874 0.8151 0.44654 0.0
H2530 H 0.379 0.79016 0.42103 0.0
H2531 H 0.38207 0.81391 0.36056 0.0
H2532 H 0.34763 0.736 0.29453 0.0
H2533 H 0.34923 0.76622 0.31706 0.0
C2534 C 0.90715 0.64574 0.16055 0.0
C2535 C 0.90928 0.63451 0.17831 0.0
C2536 C 0.92227 0.64341 0.14558 0.0
C2537 C 0.96639 0.60862 0.1281 0.0
H2538 H 0.98555 0.65994 0.10181 0.0
C2539 C 0.04189 0.61036 0.07912 0.0
C2540 C 0.041 0.62244 0.06175 0.0
C2541 C 0.02536 0.61139 0.09291 0.0
C2542 C 0.98022 0.6454 0.10882 0.0
H2543 H 0.92882 0.61159 0.19396 0.0
H2544 H 0.9551 0.60763 0.16798 0.0
H2545 H 0.95709 0.66208 0.12604 0.0
H2546 H 0.0219 0.64513 0.04537 0.0
H2547 H 0.99312 0.64674 0.06925 0.0
H2548 H 0.98965 0.59197 0.11095 0.0
C2549 C 0.94165 0.61809 0.16551 0.0
C2550 C 0.96385 0.64662 0.12271 0.0
C2551 C 0.92658 0.62044 0.18047 0.0
C2552 C 0.02318 0.6356 0.05857 0.0
C2553 C 0.0067 0.63664 0.07235 0.0
C2554 C 0.98277 0.6074 0.1142 0.0
C2555 C 0.93988 0.62977 0.14797 0.0
C2556 C 0.95676 0.62827 0.1326 0.0
C2557 C 0.00755 0.62455 0.08971 0.0
C2558 C 0.98996 0.62578 0.10441 0.0
H2559 H 0.89407 0.65674 0.15838 0.0
H2560 H 0.92023 0.65242 0.13216 0.0
H2561 H 0.96115 0.59411 0.13522 0.0
H2562 H 0.05537 0.6001 0.08211 0.0
H2563 H 0.02669 0.60207 0.10623 0.0
C2564 C 0.14292 0.296 0.83177 0.0
C2565 C 0.14704 0.29248 0.81176 0.0
C2566 C 0.14201 0.27897 0.84496 0.0
C2567 C 0.13298 0.22083 0.84765 0.0
H2568 H 0.15486 0.22823 0.9004 0.0
C2569 C 0.12853 0.15517 0.90878 0.0
C2570 C 0.12141 0.1627 0.92709 0.0
C2571 C 0.13355 0.16954 0.89363 0.0
C2572 C 0.14862 0.22591 0.88573 0.0
H2573 H 0.15359 0.2681 0.78999 0.0
H2574 H 0.15216 0.23837 0.81311 0.0
H2575 H 0.16046 0.25609 0.87608 0.0
H2576 H 0.11375 0.19134 0.94361 0.0
H2577 H 0.12246 0.21596 0.91752 0.0
H2578 H 0.12091 0.19066 0.85755 0.0
C2579 C 0.14945 0.25435 0.81853 0.0
C2580 C 0.15178 0.24192 0.8718 0.0
C2581 C 0.15041 0.27143 0.80531 0.0
C2582 C 0.1193 0.18484 0.9298 0.0
C2583 C 0.12444 0.19906 0.91484 0.0
C2584 C 0.12987 0.20473 0.86164 0.0
C2585 C 0.14519 0.25791 0.83853 0.0
C2586 C 0.14357 0.23985 0.8527 0.0
C2587 C 0.13176 0.19167 0.89661 0.0
C2588 C 0.13721 0.20734 0.88098 0.0
H2589 H 0.14009 0.31194 0.83728 0.0
H2590 H 0.13832 0.28231 0.86018 0.0
H2591 H 0.12634 0.21874 0.83311 0.0
H2592 H 0.13025 0.13824 0.90617 0.0
H2593 H 0.13914 0.16337 0.87971 0.0
C2594 C 0.59705 0.38153 0.66409 0.0
C2595 C 0.59386 0.36452 0.67716 0.0
C2596 C 0.58222 0.38557 0.64912 0.0
C2597 C 0.52569 0.37352 0.63663 0.0
H2598 H 0.5404 0.39728 0.58594 0.0
C2599 C 0.45987 0.39739 0.58263 0.0
C2600 C 0.4632 0.39329 0.56261 0.0
C2601 C 0.47668 0.39589 0.59598 0.0
C2602 C 0.53601 0.39045 0.59996 0.0
H2603 H 0.5737 0.33753 0.68402 0.0
H2604 H 0.54863 0.3438 0.65756 0.0
H2605 H 0.56851 0.38937 0.60956 0.0
H2606 H 0.48683 0.38476 0.54081 0.0
H2607 H 0.51603 0.38125 0.5642 0.0
H2608 H 0.49345 0.3735 0.6269 0.0
C2609 C 0.56185 0.35472 0.65925 0.0
C2610 C 0.55215 0.38618 0.61363 0.0
C2611 C 0.57635 0.35097 0.67434 0.0
C2612 C 0.48382 0.38814 0.55615 0.0
C2613 C 0.5006 0.38623 0.56959 0.0
C2614 C 0.50967 0.37751 0.62294 0.0
C2615 C 0.56415 0.37245 0.64679 0.0
C2616 C 0.5472 0.3775 0.63212 0.0
C2617 C 0.49719 0.38976 0.58976 0.0
C2618 C 0.51453 0.38605 0.60439 0.0
H2619 H 0.61041 0.39225 0.66599 0.0
H2620 H 0.58452 0.39941 0.63988 0.0
H2621 H 0.52109 0.36732 0.65084 0.0
H2622 H 0.44421 0.40166 0.58802 0.0
H2623 H 0.47348 0.39935 0.61126 0.0
C2624 C 0.06292 0.20169 0.24568 0.0
C2625 C 0.06816 0.18874 0.26174 0.0
C2626 C 0.04534 0.21515 0.2465 0.0
C2627 C 0.01797 0.25254 0.25656 0.0
H2628 H 0.96471 0.23757 0.28175 0.0
C2629 C 0.94963 0.31338 0.26551 0.0
C2630 C 0.92887 0.30557 0.26288 0.0
C2631 C 0.96684 0.29929 0.26654 0.0
C2632 C 0.97943 0.24195 0.27451 0.0
H2633 H 0.05889 0.17903 0.29101 0.0
H2634 H 0.02825 0.20311 0.29274 0.0
H2635 H 0.99348 0.21162 0.28059 0.0
H2636 H 0.90988 0.27701 0.25876 0.0
H2637 H 0.93981 0.25266 0.25978 0.0
H2638 H 0.00366 0.28246 0.24964 0.0
C2639 C 0.03753 0.20259 0.27935 0.0
C2640 C 0.99603 0.22715 0.27409 0.0
C2641 C 0.05502 0.1888 0.27839 0.0
C2642 C 0.92569 0.28352 0.26095 0.0
C2643 C 0.94285 0.26951 0.26173 0.0
C2644 C 1.00132 0.26723 0.25679 0.0
C2645 C 0.03282 0.21628 0.26356 0.0
C2646 C 0.01539 0.23218 0.26487 0.0
C2647 C 0.96362 0.27717 0.26473 0.0
C2648 C 0.98177 0.26204 0.26556 0.0
H2649 H 0.07267 0.20173 0.23256 0.0
H2650 H 0.04179 0.22494 0.23383 0.0
H2651 H 0.03286 0.25715 0.24975 0.0
H2652 H 0.95249 0.33029 0.26724 0.0
H2653 H 0.98261 0.30571 0.26908 0.0
C2654 C 0.07319 0.7984 0.52225 0.0
C2655 C 0.06616 0.81621 0.51157 0.0
C2656 C 0.06115 0.77959 0.5223 0.0
C2657 C 0.01807 0.75213 0.49494 0.0
H2658 H 0.00657 0.72408 0.54451 0.0
C2659 C 0.94824 0.69378 0.50519 0.0
C2660 C 0.95313 0.67454 0.51466 0.0
C2661 C 0.96307 0.71038 0.5049 0.0
C2662 C 0.00981 0.73167 0.53055 0.0
H2663 H 0.04113 0.82817 0.49245 0.0
H2664 H 0.02034 0.79587 0.4928 0.0
H2665 H 0.032 0.75355 0.54333 0.0
H2666 H 0.97703 0.65783 0.53184 0.0
H2667 H 1.00274 0.68682 0.53138 0.0
H2668 H 0.9955 0.73063 0.48226 0.0
C2669 C 0.03521 0.79612 0.50085 0.0
C2670 C 0.02444 0.74842 0.52985 0.0
C2671 C 0.04712 0.81476 0.5008 0.0
C2672 C 0.97285 0.67242 0.52426 0.0
C2673 C 0.98755 0.68904 0.52413 0.0
C2674 C 0.00336 0.73553 0.49568 0.0
C2675 C 0.042 0.77835 0.51161 0.0
C2676 C 0.02845 0.75904 0.51208 0.0
C2677 C 0.9829 0.70808 0.51428 0.0
C2678 C 0.99888 0.72534 0.51352 0.0
H2679 H 0.08776 0.79907 0.53074 0.0
H2680 H 0.0668 0.76606 0.53068 0.0
H2681 H 0.02114 0.75975 0.48096 0.0
H2682 H 0.93315 0.69588 0.49773 0.0
H2683 H 0.95904 0.72505 0.49739 0.0
C2684 C 0.44157 0.79724 0.75261 0.0
C2685 C 0.44011 0.81637 0.76326 0.0
C2686 C 0.46011 0.7852 0.75293 0.0
C2687 C 0.50743 0.77424 0.78234 0.0
H2688 H 0.52542 0.74505 0.73494 0.0
C2689 C 0.58317 0.72218 0.77703 0.0
C2690 C 0.58093 0.70244 0.76747 0.0
C2691 C 0.56661 0.73693 0.77692 0.0
C2692 C 0.52047 0.75299 0.7483 0.0
H2693 H 0.45713 0.83794 0.78254 0.0
H2694 H 0.48999 0.81675 0.78295 0.0
H2695 H 0.49656 0.77094 0.73337 0.0
H2696 H 0.55946 0.68247 0.75068 0.0
H2697 H 0.53041 0.7085 0.75034 0.0
H2698 H 0.5315 0.75621 0.79721 0.0
C2699 C 0.47654 0.81115 0.77445 0.0
C2700 C 0.50401 0.76784 0.74741 0.0
C2701 C 0.45782 0.82331 0.77413 0.0
C2702 C 0.56163 0.69757 0.75811 0.0
C2703 C 0.5451 0.71248 0.75782 0.0
C2704 C 0.52405 0.75947 0.78319 0.0
C2705 C 0.4778 0.79195 0.76384 0.0
C2706 C 0.49701 0.7783 0.76449 0.0
C2707 C 0.54754 0.73234 0.76712 0.0
C2708 C 0.53043 0.74845 0.76623 0.0
H2709 H 0.42825 0.79128 0.74413 0.0
H2710 H 0.46037 0.77028 0.74495 0.0
H2711 H 0.50224 0.78187 0.79577 0.0
H2712 H 0.59781 0.72632 0.78454 0.0
H2713 H 0.56893 0.75215 0.78411 0.0
C2714 C 0.4339 0.2064 0.02154 0.0
C2715 C 0.44137 0.18787 0.01225 0.0
C2716 C 0.44617 0.22504 0.02128 0.0
C2717 C 0.49091 0.25038 0.99463 0.0
H2718 H 0.49916 0.28226 0.04275 0.0
C2719 C 0.55902 0.3109 0.00432 0.0
C2720 C 0.55337 0.33055 0.01267 0.0
C2721 C 0.54449 0.29404 0.00424 0.0
C2722 C 0.49684 0.2736 0.02917 0.0
H2723 H 0.4676 0.17434 0.99552 0.0
H2724 H 0.4888 0.20642 0.99533 0.0
H2725 H 0.47417 0.25242 0.04225 0.0
H2726 H 0.5283 0.34776 0.02795 0.0
H2727 H 0.50312 0.31836 0.02777 0.0
H2728 H 0.51387 0.27126 0.98166 0.0
C2729 C 0.47338 0.20683 0.00246 0.0
C2730 C 0.48247 0.25662 0.02886 0.0
C2731 C 0.46122 0.18835 0.00271 0.0
C2732 C 0.53311 0.33287 0.02125 0.0
C2733 C 0.5187 0.316 0.0213 0.0
C2734 C 0.50533 0.26724 0.99498 0.0
C2735 C 0.46603 0.22538 0.0117 0.0
C2736 C 0.4796 0.24466 0.01165 0.0
C2737 C 0.52418 0.29649 0.01268 0.0
C2738 C 0.50861 0.27885 0.01229 0.0
H2739 H 0.41869 0.20649 0.02906 0.0
H2740 H 0.4401 0.23917 0.02848 0.0
H2741 H 0.48873 0.24168 0.98105 0.0
H2742 H 0.57452 0.30864 0.99766 0.0
H2743 H 0.54916 0.27903 0.99768 0.0
C2744 C 0.9443 0.7014 0.25486 0.0
C2745 C 0.93898 0.68839 0.23886 0.0
C2746 C 0.96181 0.71494 0.25388 0.0
C2747 C 0.98881 0.7525 0.24347 0.0
H2748 H 0.04201 0.73775 0.21808 0.0
C2749 C 0.05705 0.81353 0.23425 0.0
C2750 C 0.0778 0.80572 0.23687 0.0
C2751 C 0.03982 0.79944 0.23326 0.0
C2752 C 0.0273 0.74208 0.22537 0.0
H2753 H 0.94805 0.67864 0.20956 0.0
H2754 H 0.97858 0.70284 0.20756 0.0
H2755 H 0.01338 0.71164 0.21944 0.0
H2756 H 0.09676 0.77716 0.24109 0.0
H2757 H 0.06683 0.75283 0.24014 0.0
H2758 H 1.00301 0.78252 0.25024 0.0
C2759 C 0.96941 0.70231 0.22101 0.0
C2760 C 0.01079 0.72718 0.22591 0.0
C2761 C 0.952 0.68844 0.22213 0.0
C2762 C 0.08096 0.78367 0.23888 0.0
C2763 C 0.0638 0.76967 0.23814 0.0
C2764 C 0.00538 0.76729 0.24312 0.0
C2765 C 0.97417 0.71609 0.23673 0.0
C2766 C 0.99147 0.73212 0.23523 0.0
C2767 C 0.04304 0.77732 0.23511 0.0
C2768 C 0.02492 0.76216 0.23429 0.0
H2769 H 0.93462 0.70145 0.26803 0.0
H2770 H 0.96541 0.72479 0.26649 0.0
H2771 H 0.97394 0.75703 0.25036 0.0
H2772 H 0.05421 0.83045 0.23247 0.0
H2773 H 0.02405 0.80585 0.23072 0.0
C2774 C 0.56999 0.70643 0.48025 0.0
C2775 C 0.5632 0.68817 0.49039 0.0
C2776 C 0.5572 0.7247 0.4799 0.0
C2777 C 0.51218 0.75011 0.50608 0.0
H2778 H 0.5032 0.78014 0.45707 0.0
C2779 C 0.44442 0.81098 0.49564 0.0
C2780 C 0.45029 0.83029 0.48677 0.0
C2781 C 0.45862 0.79382 0.49586 0.0
C2782 C 0.5057 0.77197 0.47088 0.0
H2783 H 0.53761 0.67474 0.50801 0.0
H2784 H 0.51549 0.70619 0.50715 0.0
H2785 H 0.5284 0.75051 0.45828 0.0
H2786 H 0.47532 0.84657 0.4706 0.0
H2787 H 0.49992 0.81671 0.47101 0.0
H2788 H 0.48926 0.77134 0.51861 0.0
C2789 C 0.53079 0.70668 0.49981 0.0
C2790 C 0.52019 0.75512 0.4716 0.0
C2791 C 0.54348 0.68856 0.50018 0.0
C2792 C 0.47037 0.83195 0.47772 0.0
C2793 C 0.48443 0.81481 0.4778 0.0
C2794 C 0.49763 0.76685 0.50533 0.0
C2795 C 0.53746 0.72496 0.4897 0.0
C2796 C 0.52342 0.74389 0.48917 0.0
C2797 C 0.47878 0.79566 0.48701 0.0
C2798 C 0.49414 0.77784 0.48771 0.0
H2799 H 0.58507 0.70658 0.47251 0.0
H2800 H 0.56278 0.73864 0.47206 0.0
H2801 H 0.51461 0.74199 0.51993 0.0
H2802 H 0.42903 0.80921 0.50266 0.0
H2803 H 0.45382 0.77911 0.50288 0.0
C2804 C 0.43112 0.21582 0.74297 0.0
C2805 C 0.43245 0.19347 0.74289 0.0
C2806 C 0.44949 0.2282 0.74419 0.0
C2807 C 0.50609 0.22736 0.73298 0.0
H2808 H 0.50812 0.27697 0.76686 0.0
C2809 C 0.58106 0.27981 0.7394 0.0
C2810 C 0.57796 0.30197 0.74021 0.0
C2811 C 0.56379 0.26592 0.74085 0.0
C2812 C 0.50771 0.2633 0.75718 0.0
H2813 H 0.45407 0.16655 0.74411 0.0
H2814 H 0.48634 0.18835 0.7461 0.0
H2815 H 0.47715 0.25352 0.76782 0.0
H2816 H 0.55427 0.32695 0.74294 0.0
H2817 H 0.52404 0.3027 0.74505 0.0
H2818 H 0.53635 0.23737 0.72194 0.0
C2819 C 0.471 0.19618 0.74524 0.0
C2820 C 0.49004 0.24984 0.7578 0.0
C2821 C 0.45256 0.18374 0.7442 0.0
C2822 C 0.5572 0.30996 0.7424 0.0
C2823 C 0.5399 0.29606 0.74373 0.0
C2824 C 0.52371 0.24089 0.73226 0.0
C2825 C 0.46959 0.21852 0.74521 0.0
C2826 C 0.48898 0.23187 0.74557 0.0
C2827 C 0.54301 0.27388 0.74299 0.0
C2828 C 0.52463 0.25911 0.74423 0.0
H2829 H 0.41588 0.22384 0.74199 0.0
H2830 H 0.44797 0.24539 0.74389 0.0
H2831 H 0.50553 0.21375 0.72322 0.0
H2832 H 0.59687 0.27311 0.7378 0.0
H2833 H 0.56677 0.24893 0.74049 0.0
C2834 C 0.93391 0.29904 0.97949 0.0
C2835 C 0.9421 0.31802 0.98739 0.0
C2836 C 0.94635 0.28051 0.97938 0.0
C2837 C 0.99339 0.25685 0.00368 0.0
H2838 H 0.99732 0.22161 0.95711 0.0
C2839 C 0.06038 0.19549 0.99281 0.0
C2840 C 0.05419 0.17537 0.98584 0.0
C2841 C 0.04585 0.21234 0.99295 0.0
C2842 C 0.99622 0.23122 0.97028 0.0
H2843 H 0.96995 0.3326 0.00081 0.0
H2844 H 0.99141 0.3007 1.00037 0.0
H2845 H 0.97248 0.25159 0.95772 0.0
H2846 H 0.02806 0.15727 0.97315 0.0
H2847 H 1.00286 0.18664 0.9735 0.0
H2848 H 0.01735 0.23677 0.01612 0.0
C2849 C 0.97529 0.29984 0.99473 0.0
C2850 C 0.98195 0.24829 0.97065 0.0
C2851 C 0.96296 0.31819 0.99489 0.0
C2852 C 0.03333 0.17255 0.97874 0.0
C2853 C 0.0189 0.18939 0.97879 0.0
C2854 C 0.00769 0.2399 0.00327 0.0
C2855 C 0.96712 0.28076 0.98715 0.0
C2856 C 0.98064 0.26146 0.98726 0.0
C2857 C 0.02497 0.2094 0.986 0.0
C2858 C 0.00943 0.22708 0.98649 0.0
H2859 H 0.91793 0.29847 0.97352 0.0
H2860 H 0.93966 0.26597 0.97345 0.0
H2861 H 0.99244 0.26649 0.01683 0.0
H2862 H 0.07635 0.19817 0.99828 0.0
H2863 H 0.051 0.22773 0.99838 0.0
C2864 C 0.05867 0.69529 0.73279 0.0
C2865 C 0.07952 0.70287 0.73529 0.0
C2866 C 0.04162 0.70954 0.73165 0.0
C2867 C 0.02909 0.7669 0.72367 0.0
H2868 H 0.97625 0.75173 0.74951 0.0
C2869 C 0.94582 0.80668 0.7537 0.0
C2870 C 0.93991 0.81921 0.73756 0.0
C2871 C 0.96366 0.79361 0.75273 0.0
C2872 C 0.99097 0.75634 0.74239 0.0
H2873 H 0.09889 0.73129 0.73875 0.0
H2874 H 0.06919 0.75598 0.73753 0.0
H2875 H 0.00547 0.72651 0.74919 0.0
H2876 H 0.94833 0.82868 0.70801 0.0
H2877 H 0.97948 0.80523 0.70602 0.0
H2878 H 0.0148 0.79718 0.71768 0.0
C2879 C 0.06596 0.73913 0.73585 0.0
C2880 C 0.00763 0.74169 0.74192 0.0
C2881 C 0.08299 0.72494 0.73675 0.0
C2882 C 0.95271 0.81921 0.72068 0.0
C2883 C 0.97048 0.8058 0.71957 0.0
C2884 C 0.01246 0.78168 0.72433 0.0
C2885 C 0.04507 0.73164 0.73322 0.0
C2886 C 0.02697 0.74685 0.73272 0.0
C2887 C 0.9758 0.79244 0.73544 0.0
C2888 C 0.99331 0.77665 0.73392 0.0
H2889 H 0.05556 0.67838 0.73136 0.0
H2890 H 0.02576 0.70323 0.72932 0.0
H2891 H 0.04365 0.77126 0.71615 0.0
H2892 H 0.93634 0.80663 0.767 0.0
H2893 H 0.96769 0.78408 0.76545 0.0
C2894 C 0.05636 0.31224 0.4939 0.0
C2895 C 0.05144 0.33184 0.48509 0.0
C2896 C 0.04127 0.29589 0.49427 0.0
C2897 C 0.99358 0.27583 0.46958 0.0
H2898 H 0.98379 0.24643 0.51881 0.0
C2899 C 0.93125 0.20807 0.47795 0.0
C2900 C 0.93883 0.19012 0.48809 0.0
C2901 C 0.94301 0.22705 0.47798 0.0
C2902 C 0.98641 0.25443 0.50493 0.0
H2903 H 0.02717 0.34949 0.4692 0.0
H2904 H 1.00098 0.32087 0.46977 0.0
H2905 H 0.00926 0.27569 0.51752 0.0
H2906 H 0.96463 0.17805 0.50626 0.0
H2907 H 0.98494 0.21066 0.50606 0.0
H2908 H 0.97118 0.25413 0.45686 0.0
C2909 C 0.01641 0.31821 0.47645 0.0
C2910 C 1.00101 0.27112 0.5042 0.0
C2911 C 0.03138 0.3346 0.47625 0.0
C2912 C 0.95819 0.19157 0.49837 0.0
C2913 C 0.96983 0.21038 0.4984 0.0
C2914 C 0.97906 0.25898 0.47027 0.0
C2915 C 0.02114 0.29881 0.48564 0.0
C2916 C 0.00498 0.28173 0.48647 0.0
C2917 C 0.96243 0.22832 0.48822 0.0
C2918 C 0.97565 0.24785 0.48788 0.0
H2919 H 0.0717 0.30966 0.50078 0.0
H2920 H 0.04535 0.28094 0.50126 0.0
H2921 H 0.99642 0.28378 0.45572 0.0
H2922 H 0.91642 0.2074 0.46984 0.0
H2923 H 0.93691 0.2407 0.47005 0.0
C2924 C 0.42469 0.28071 0.22902 0.0
C2925 C 0.42733 0.30113 0.2372 0.0
C2926 C 0.44144 0.26615 0.22902 0.0
C2927 C 0.49066 0.25308 0.25484 0.0
H2928 H 0.50495 0.2214 0.20774 0.0
C2929 C 0.56996 0.20999 0.24662 0.0
C2930 C 0.57054 0.1899 0.23751 0.0
C2931 C 0.55135 0.22195 0.2468 0.0
C2932 C 0.50091 0.22985 0.22109 0.0
H2933 H 0.44967 0.32237 0.25156 0.0
H2934 H 0.47902 0.29677 0.25162 0.0
H2935 H 0.47482 0.24606 0.20741 0.0
H2936 H 0.55199 0.16668 0.22128 0.0
H2937 H 0.51908 0.18774 0.22176 0.0
H2938 H 0.51668 0.23701 0.26856 0.0
C2939 C 0.46387 0.29208 0.24535 0.0
C2940 C 0.48375 0.24401 0.22087 0.0
C2941 C 0.44714 0.30675 0.24522 0.0
C2942 C 0.552 0.18206 0.22848 0.0
C2943 C 0.53323 0.19413 0.22868 0.0
C2944 C 0.5077 0.23887 0.25509 0.0
C2945 C 0.46113 0.27164 0.23729 0.0
C2946 C 0.47872 0.25601 0.23766 0.0
C2947 C 0.53276 0.21417 0.23793 0.0
C2948 C 0.51326 0.22741 0.23812 0.0
H2949 H 0.40966 0.27592 0.22258 0.0
H2950 H 0.43886 0.25046 0.22283 0.0
H2951 H 0.48683 0.2618 0.2681 0.0
H2952 H 0.58397 0.21667 0.25355 0.0
H2953 H 0.55166 0.23752 0.25365 0.0
C2954 C 0.55801 0.81124 0.99612 0.0
C2955 C 0.55234 0.83064 0.9873 0.0
C2956 C 0.54354 0.79432 0.99651 0.0
C2957 C 0.49613 0.77302 0.97185 0.0
H2958 H 0.48761 0.74258 0.02072 0.0
C2959 C 0.43282 0.70641 0.98073 0.0
C2960 C 0.43995 0.68816 0.99069 0.0
C2961 C 0.44526 0.72494 0.98058 0.0
C2962 C 0.48992 0.75084 0.00693 0.0
H2963 H 0.52733 0.84735 0.97149 0.0
H2964 H 0.50225 0.81785 0.97221 0.0
H2965 H 0.51281 0.77209 0.01948 0.0
H2966 H 0.46575 0.67503 0.00822 0.0
H2967 H 0.48726 0.70692 0.00769 0.0
H2968 H 0.47354 0.75149 0.95918 0.0
C2969 C 0.5178 0.81572 0.97882 0.0
C2970 C 0.50437 0.76768 0.00623 0.0
C2971 C 0.53214 0.83265 0.97856 0.0
C2972 C 0.45963 0.68883 0.00051 0.0
C2973 C 0.47197 0.7072 1.00034 0.0
C2974 C 0.48175 0.75607 0.97251 0.0
C2975 C 0.52329 0.79647 0.98792 0.0
C2976 C 0.50776 0.77879 0.98865 0.0
C2977 C 0.46496 0.72546 0.9904 0.0
C2978 C 0.4787 0.74464 0.99 0.0
H2979 H 0.57347 0.80922 0.00291 0.0
H2980 H 0.54822 0.77952 0.00345 0.0
H2981 H 0.49855 0.78129 0.95807 0.0
H2982 H 0.41776 0.70635 0.97298 0.0
H2983 H 0.43942 0.73885 0.97286 0.0
C2984 C 0.9306 0.21749 0.76022 0.0
C2985 C 0.93192 0.19515 0.75971 0.0
C2986 C 0.94897 0.22988 0.75956 0.0
C2987 C 0.00593 0.22879 0.74643 0.0
H2988 H 0.00787 0.27878 0.77987 0.0
C2989 C 0.08169 0.27955 0.75884 0.0
C2990 C 0.079 0.30177 0.75787 0.0
C2991 C 0.06405 0.26603 0.75853 0.0
C2992 C 0.00746 0.26497 0.77034 0.0
H2993 H 0.95353 0.16827 0.75795 0.0
H2994 H 0.98582 0.19003 0.75716 0.0
H2995 H 0.97672 0.2557 0.78065 0.0
H2996 H 0.05573 0.32723 0.75575 0.0
H2997 H 0.02491 0.30356 0.75532 0.0
H2998 H 0.03692 0.23807 0.73636 0.0
C2999 C 0.97049 0.19791 0.75776 0.0
C3000 C 0.98963 0.25177 0.77075 0.0
C3001 C 0.95202 0.18546 0.75827 0.0
C3002 C 0.05833 0.31018 0.75647 0.0
C3003 C 0.04069 0.29667 0.75634 0.0
C3004 C 0.02387 0.24195 0.74613 0.0
C3005 C 0.96913 0.22026 0.75857 0.0
C3006 C 0.98855 0.23366 0.75864 0.0
C3007 C 0.0434 0.27449 0.75746 0.0
C3008 C 0.02467 0.26027 0.75795 0.0
H3009 H 0.91535 0.22549 0.76114 0.0
H3010 H 0.94733 0.24706 0.75977 0.0
H3011 H 0.00548 0.21508 0.73679 0.0
H3012 H 0.09742 0.27256 0.75992 0.0
H3013 H 0.06654 0.24899 0.75957 0.0
C3014 C 0.47434 0.32863 0.50792 0.0
C3015 C 0.45213 0.32573 0.50754 0.0
C3016 C 0.48802 0.31121 0.5067 0.0
C3017 C 0.49029 0.25446 0.49242 0.0
H3018 H 0.54006 0.25391 0.52617 0.0
C3019 C 0.53887 0.17887 0.50839 0.0
C3020 C 0.56121 0.18051 0.50828 0.0
C3021 C 0.52621 0.197 0.50683 0.0
C3022 C 0.52639 0.25398 0.51648 0.0
H3023 H 0.42686 0.30228 0.50554 0.0
H3024 H 0.45082 0.27171 0.50382 0.0
H3025 H 0.51629 0.28459 0.52654 0.0
H3026 H 0.5878 0.2025 0.50638 0.0
H3027 H 0.56551 0.23438 0.50379 0.0
H3028 H 0.50021 0.22356 0.48276 0.0
C3029 C 0.45763 0.28754 0.50468 0.0
C3030 C 0.51277 0.27154 0.51667 0.0
C3031 C 0.4439 0.30502 0.50577 0.0
C3032 C 0.57063 0.20073 0.50648 0.0
C3033 C 0.55791 0.21895 0.50508 0.0
C3034 C 0.50386 0.23685 0.49233 0.0
C3035 C 0.47985 0.29045 0.50525 0.0
C3036 C 0.49451 0.27193 0.50471 0.0
C3037 C 0.53559 0.21722 0.50526 0.0
C3038 C 0.52195 0.2364 0.50445 0.0
H3039 H 0.48124 0.34439 0.50915 0.0
H3040 H 0.50504 0.31405 0.50682 0.0
H3041 H 0.47657 0.25443 0.48279 0.0
H3042 H 0.53107 0.16354 0.50975 0.0
H3043 H 0.50905 0.19524 0.50726 0.0
C3044 C 0.44135 0.70075 0.25713 0.0
C3045 C 0.42177 0.70561 0.266 0.0
C3046 C 0.45771 0.71584 0.25684 0.0
C3047 C 0.47781 0.7633 0.28191 0.0
H3048 H 0.50748 0.77328 0.23286 0.0
C3049 C 0.54594 0.82548 0.27374 0.0
C3050 C 0.56385 0.8178 0.26359 0.0
C3051 C 0.52692 0.81376 0.27379 0.0
C3052 C 0.4994 0.77062 0.24669 0.0
H3053 H 0.40415 0.72979 0.28206 0.0
H3054 H 0.43277 0.75597 0.28161 0.0
H3055 H 0.47809 0.74795 0.23389 0.0
H3056 H 0.57584 0.79178 0.24563 0.0
H3057 H 0.54319 0.77158 0.24596 0.0
H3058 H 0.49957 0.78554 0.29484 0.0
C3059 C 0.43542 0.74058 0.27482 0.0
C3060 C 0.48264 0.75609 0.24726 0.0
C3061 C 0.41902 0.72563 0.27495 0.0
C3062 C 0.56236 0.79833 0.2535 0.0
C3063 C 0.54353 0.78675 0.25354 0.0
C3064 C 0.49474 0.77776 0.28138 0.0
C3065 C 0.45482 0.73591 0.26561 0.0
C3066 C 0.47194 0.75203 0.26494 0.0
C3067 C 0.52558 0.79429 0.26362 0.0
C3068 C 0.50596 0.78122 0.26383 0.0
H3069 H 0.44393 0.68544 0.25018 0.0
H3070 H 0.47266 0.71179 0.24983 0.0
H3071 H 0.4698 0.76041 0.29574 0.0
H3072 H 0.54664 0.84039 0.28172 0.0
H3073 H 0.51328 0.81995 0.28167 0.0
C3074 C 0.94869 0.81395 0.00541 0.0
C3075 C 0.95434 0.83367 0.01361 0.0
C3076 C 0.96341 0.79728 0.00493 0.0
C3077 C 0.01171 0.77717 0.02873 0.0
H3078 H 0.0184 0.74501 0.98055 0.0
C3079 C 0.07315 0.70869 0.02022 0.0
C3080 C 0.06505 0.69028 0.01117 0.0
C3081 C 0.06132 0.7276 0.0201 0.0
C3082 C 0.01664 0.75379 0.99414 0.0
H3083 H 0.97965 0.85123 0.02819 0.0
H3084 H 0.0052 0.82211 0.02735 0.0
H3085 H 0.99362 0.77487 0.98157 0.0
H3086 H 0.03816 0.67726 0.99501 0.0
H3087 H 0.01772 0.70983 0.99505 0.0
H3088 H 0.03437 0.75574 0.04144 0.0
C3089 C 0.98945 0.81957 0.02128 0.0
C3090 C 1.00243 0.77082 0.99471 0.0
C3091 C 0.97484 0.83626 0.02162 0.0
C3092 C 0.04501 0.69116 0.00201 0.0
C3093 C 0.0333 0.70992 0.00189 0.0
C3094 C 0.02586 0.76002 0.02819 0.0
C3095 C 0.98393 0.79999 0.01281 0.0
C3096 C 0.99961 0.78246 0.01208 0.0
C3097 C 0.04128 0.72835 0.01088 0.0
C3098 C 0.02818 0.74794 0.01098 0.0
H3099 H 0.93302 0.81146 0.99918 0.0
H3100 H 0.95871 0.78221 0.99851 0.0
H3101 H 0.00975 0.78588 0.04233 0.0
H3102 H 0.08852 0.70846 0.02745 0.0
H3103 H 0.06787 0.74163 0.02711 0.0
C3104 C 0.12412 0.13834 0.04815 0.0
C3105 C 0.10534 0.12929 0.04057 0.0
C3106 C 0.12714 0.1401 0.06838 0.0
C3107 C 0.13441 0.13308 0.11191 0.0
H3108 H 0.08551 0.14838 0.14369 0.0
C3109 C 0.13972 0.16013 0.1934 0.0
C3110 C 0.12453 0.15123 0.20617 0.0
C3111 C 0.13836 0.15662 0.17315 0.0
C3112 C 0.09928 0.14393 0.13502 0.0
H3113 H 0.0754 0.11425 0.04833 0.0
H3114 H 0.0809 0.11684 0.08363 0.0
H3115 H 0.08119 0.14355 0.10849 0.0
H3116 H 0.09634 0.13119 0.20769 0.0
H3117 H 0.09399 0.12525 0.17254 0.0
H3118 H 0.15251 0.13393 0.13859 0.0
C3119 C 0.09305 0.1231 0.07393 0.0
C3120 C 0.0968 0.14107 0.11486 0.0
C3121 C 0.08994 0.1215 0.05369 0.0
C3122 C 0.10825 0.13842 0.19831 0.0
C3123 C 0.10681 0.13507 0.17814 0.0
C3124 C 0.13691 0.13613 0.13211 0.0
C3125 C 0.11156 0.13268 0.08153 0.0
C3126 C 0.1143 0.13551 0.10304 0.0
C3127 C 0.12169 0.1443 0.16533 0.0
C3128 C 0.11934 0.14147 0.14386 0.0
H3129 H 0.13632 0.14454 0.03846 0.0
H3130 H 0.14147 0.14779 0.07368 0.0
H3131 H 0.14818 0.12856 0.1033 0.0
H3132 H 0.15251 0.16998 0.19901 0.0
H3133 H 0.15 0.16398 0.16358 0.0
C3134 C 0.0927 0.88927 0.44404 0.0
C3135 C 0.10162 0.87379 0.4565 0.0
C3136 C 0.0958 0.88809 0.42369 0.0
C3137 C 0.10722 0.84925 0.38496 0.0
H3138 H 0.12551 0.89765 0.3539 0.0
C3139 C 0.13199 0.83918 0.30424 0.0
C3140 C 0.1254 0.85497 0.29096 0.0
C3141 C 0.12979 0.84231 0.32445 0.0
C3142 C 0.12014 0.88403 0.36231 0.0
H3143 H 0.12116 0.8452 0.4573 0.0
H3144 H 0.12629 0.84315 0.42209 0.0
H3145 H 0.11928 0.90201 0.38909 0.0
H3146 H 0.11179 0.88668 0.28858 0.0
H3147 H 0.10751 0.89187 0.32365 0.0
H3148 H 0.10768 0.83128 0.35836 0.0
C3149 C 0.11681 0.85608 0.42798 0.0
C3150 C 0.11659 0.88656 0.38245 0.0
C3151 C 0.11392 0.85736 0.4482 0.0
C3152 C 0.11704 0.87415 0.29837 0.0
C3153 C 0.1147 0.8772 0.31854 0.0
C3154 C 0.11057 0.84675 0.36486 0.0
C3155 C 0.10765 0.87128 0.41549 0.0
C3156 C 0.1103 0.86913 0.39398 0.0
C3157 C 0.12082 0.86124 0.33185 0.0
C3158 C 0.11726 0.86405 0.35328 0.0
H3159 H 0.08323 0.90218 0.44998 0.0
H3160 H 0.08854 0.9 0.41434 0.0
H3161 H 0.10207 0.8356 0.39347 0.0
H3162 H 0.13866 0.8243 0.29903 0.0
H3163 H 0.13509 0.82984 0.33428 0.0
C3164 C 0.36758 0.84529 0.69473 0.0
C3165 C 0.38366 0.85296 0.70721 0.0
C3166 C 0.3685 0.84923 0.67451 0.0
C3167 C 0.39526 0.88399 0.63755 0.0
H3168 H 0.37931 0.83921 0.60126 0.0
C3169 C 0.41767 0.88442 0.55498 0.0
C3170 C 0.40158 0.87837 0.54176 0.0
C3171 C 0.4145 0.88247 0.57524 0.0
C3172 C 0.38364 0.85194 0.61122 0.0
H3173 H 0.41334 0.87073 0.70818 0.0
H3174 H 0.4152 0.87703 0.67319 0.0
H3175 H 0.37518 0.83349 0.63644 0.0
H3176 H 0.36933 0.86597 0.53957 0.0
H3177 H 0.36399 0.86247 0.57476 0.0
H3178 H 0.40424 0.90218 0.61224 0.0
C3179 C 0.40159 0.86845 0.67892 0.0
C3180 C 0.38119 0.84871 0.63139 0.0
C3181 C 0.40059 0.86467 0.69905 0.0
C3182 C 0.38214 0.87071 0.54928 0.0
C3183 C 0.37907 0.86858 0.56946 0.0
C3184 C 0.3979 0.88713 0.61739 0.0
C3185 C 0.38557 0.86082 0.66636 0.0
C3186 C 0.3871 0.86464 0.64483 0.0
C3187 C 0.39526 0.87425 0.58265 0.0
C3188 C 0.3922 0.87111 0.60403 0.0
H3189 H 0.35427 0.83633 0.70058 0.0
H3190 H 0.35575 0.84334 0.66529 0.0
H3191 H 0.39959 0.89679 0.64742 0.0
H3192 H 0.4328 0.89042 0.54968 0.0
H3193 H 0.4273 0.88687 0.58509 0.0
C3194 C 0.37306 0.16124 0.80627 0.0
C3195 C 0.37922 0.14557 0.79269 0.0
C3196 C 0.37434 0.15726 0.82642 0.0
C3197 C 0.40392 0.12541 0.86192 0.0
H3198 H 0.35901 0.14171 0.89794 0.0
C3199 C 0.41125 0.11263 0.9459 0.0
C3200 C 0.40384 0.12946 0.95766 0.0
C3201 C 0.407 0.11239 0.92572 0.0
C3202 C 0.37179 0.13723 0.8881 0.0
H3203 H 0.39102 0.11317 0.78968 0.0
H3204 H 0.39342 0.10643 0.8248 0.0
H3205 H 0.35363 0.14589 0.86272 0.0
H3206 H 0.38619 0.15924 0.95741 0.0
H3207 H 0.37936 0.15908 0.9225 0.0
H3208 H 0.42242 0.11745 0.88724 0.0
C3209 C 0.38769 0.12179 0.81982 0.0
C3210 C 0.36866 0.13959 0.86794 0.0
C3211 C 0.38621 0.12566 0.79971 0.0
C3212 C 0.39208 0.14595 0.94885 0.0
C3213 C 0.38797 0.14577 0.92878 0.0
C3214 C 0.40716 0.12324 0.8821 0.0
C3215 C 0.38199 0.13761 0.83337 0.0
C3216 C 0.38478 0.13394 0.85467 0.0
C3217 C 0.39532 0.12901 0.91694 0.0
C3218 C 0.39125 0.12943 0.89545 0.0
H3219 H 0.36755 0.1767 0.80135 0.0
H3220 H 0.36996 0.16979 0.83658 0.0
H3221 H 0.4167 0.1211 0.85199 0.0
H3222 H 0.42023 0.09963 0.95228 0.0
H3223 H 0.41272 0.09913 0.91703 0.0
C3224 C 0.88272 0.87032 0.9524 0.0
C3225 C 0.90184 0.87903 0.95961 0.0
C3226 C 0.87927 0.86843 0.93225 0.0
C3227 C 0.89623 0.88899 0.88426 0.0
H3228 H 0.87628 0.83451 0.86468 0.0
C3229 C 0.89985 0.86728 0.80236 0.0
C3230 C 0.8834 0.85487 0.79428 0.0
C3231 C 0.90073 0.87108 0.8225 0.0
C3232 C 0.8815 0.84994 0.8699 0.0
H3233 H 0.93205 0.89314 0.95121 0.0
H3234 H 0.92592 0.88991 0.91594 0.0
H3235 H 0.8803 0.83991 0.8999 0.0
H3236 H 0.85467 0.83712 0.80102 0.0
H3237 H 0.85598 0.84412 0.83624 0.0
H3238 H 0.89735 0.89912 0.85432 0.0
C3239 C 0.91364 0.88456 0.92597 0.0
C3240 C 0.88387 0.85301 0.89008 0.0
C3241 C 0.91719 0.8863 0.94616 0.0
C3242 C 0.86765 0.84661 0.8068 0.0
C3243 C 0.86846 0.85054 0.827 0.0
C3244 C 0.8937 0.886 0.86408 0.0
C3245 C 0.89475 0.87537 0.91882 0.0
C3246 C 0.89145 0.87249 0.89745 0.0
C3247 C 0.88509 0.86274 0.8351 0.0
C3248 C 0.88654 0.86635 0.85663 0.0
H3249 H 0.8705 0.86463 0.96233 0.0
H3250 H 0.86445 0.86152 0.92715 0.0
H3251 H 0.90182 0.90427 0.88956 0.0
H3252 H 0.91231 0.87385 0.79316 0.0
H3253 H 0.91398 0.88022 0.82823 0.0
C3254 C 0.91218 0.11604 0.55542 0.0
C3255 C 0.9038 0.13201 0.54317 0.0
C3256 C 0.90893 0.11691 0.57575 0.0
C3257 C 0.89847 0.15521 0.61503 0.0
H3258 H 0.87775 0.107 0.64504 0.0
C3259 C 0.87325 0.16504 0.69547 0.0
C3260 C 0.8792 0.14889 0.70863 0.0
C3261 C 0.87531 0.16199 0.67524 0.0
C3262 C 0.88379 0.12054 0.63692 0.0
H3263 H 0.88512 0.16117 0.5427 0.0
H3264 H 0.87974 0.16268 0.57791 0.0
H3265 H 0.88431 0.10308 0.60984 0.0
H3266 H 0.89136 0.11658 0.71082 0.0
H3267 H 0.89545 0.11151 0.67568 0.0
H3268 H 0.89839 0.17264 0.64192 0.0
C3269 C 0.88889 0.14959 0.57186 0.0
C3270 C 0.88753 0.11827 0.61679 0.0
C3271 C 0.89192 0.14863 0.55165 0.0
C3272 C 0.88663 0.12939 0.7011 0.0
C3273 C 0.88887 0.12642 0.6809 0.0
C3274 C 0.89494 0.15743 0.63513 0.0
C3275 C 0.89749 0.13388 0.58414 0.0
C3276 C 0.89469 0.13566 0.60564 0.0
C3277 C 0.88355 0.1428 0.66773 0.0
C3278 C 0.88734 0.14021 0.64631 0.0
H3279 H 0.92131 0.10298 0.54932 0.0
H3280 H 0.91575 0.1046 0.58496 0.0
H3281 H 0.90429 0.16879 0.60682 0.0
H3282 H 0.86727 0.18016 0.70077 0.0
H3283 H 0.87059 0.17478 0.66551 0.0
C3284 C 0.59386 0.12209 0.44455 0.0
C3285 C 0.60957 0.1282 0.45812 0.0
C3286 C 0.59787 0.12327 0.42441 0.0
C3287 C 0.63007 0.15245 0.38887 0.0
H3288 H 0.61355 0.10753 0.35294 0.0
C3289 C 0.64419 0.1592 0.30517 0.0
C3290 C 0.6275 0.15196 0.29316 0.0
C3291 C 0.64399 0.15498 0.32535 0.0
C3292 C 0.61809 0.12031 0.36276 0.0
H3293 H 0.64204 0.13977 0.46114 0.0
H3294 H 0.64885 0.14198 0.42602 0.0
H3295 H 0.60905 0.10236 0.38818 0.0
H3296 H 0.59756 0.13462 0.29291 0.0
H3297 H 0.59696 0.12784 0.32787 0.0
H3298 H 0.63844 0.17072 0.36353 0.0
C3299 C 0.63344 0.1364 0.431 0.0
C3300 C 0.61555 0.1173 0.38292 0.0
C3301 C 0.62953 0.13503 0.45111 0.0
C3302 C 0.61073 0.14037 0.30169 0.0
C3303 C 0.61047 0.13631 0.32178 0.0
C3304 C 0.63242 0.15556 0.36869 0.0
C3305 C 0.61759 0.13074 0.41746 0.0
C3306 C 0.62132 0.13342 0.39615 0.0
C3307 C 0.62707 0.14354 0.33388 0.0
C3308 C 0.6262 0.13963 0.35538 0.0
H3309 H 0.57837 0.11668 0.44947 0.0
H3310 H 0.58533 0.11893 0.41426 0.0
H3311 H 0.63446 0.16523 0.39876 0.0
H3312 H 0.65741 0.16804 0.299 0.0
H3313 H 0.65716 0.16058 0.33422 0.0
C3314 C 0.60381 0.86547 0.19909 0.0
C3315 C 0.62033 0.85314 0.20719 0.0
C3316 C 0.60245 0.86862 0.17889 0.0
C3317 C 0.63316 0.86865 0.13329 0.0
H3318 H 0.57788 0.86082 0.10892 0.0
C3319 C 0.62148 0.86886 0.04914 0.0
C3320 C 0.60258 0.8776 0.04152 0.0
C3321 C 0.62428 0.86658 0.06936 0.0
C3322 C 0.59336 0.86342 0.11549 0.0
H3323 H 0.64871 0.83488 0.20035 0.0
H3324 H 0.64636 0.84058 0.16482 0.0
H3325 H 0.58187 0.85511 0.14405 0.0
H3326 H 0.57212 0.89156 0.04928 0.0
H3327 H 0.57722 0.88808 0.0846 0.0
H3328 H 0.64461 0.87729 0.10479 0.0
C3329 C 0.63447 0.84771 0.17427 0.0
C3330 C 0.59566 0.86003 0.13562 0.0
C3331 C 0.63575 0.84438 0.19457 0.0
C3332 C 0.58679 0.88459 0.05465 0.0
C3333 C 0.58967 0.88246 0.0749 0.0
C3334 C 0.63083 0.87223 0.11314 0.0
C3335 C 0.61764 0.85967 0.16624 0.0
C3336 C 0.61555 0.86267 0.14474 0.0
C3337 C 0.60833 0.87314 0.0825 0.0
C3338 C 0.61087 0.86969 0.10399 0.0
H3339 H 0.5917 0.87257 0.20833 0.0
H3340 H 0.58949 0.87816 0.17316 0.0
H3341 H 0.64863 0.87102 0.13998 0.0
H3342 H 0.63398 0.86326 0.03947 0.0
H3343 H 0.63873 0.85911 0.07463 0.0
C3344 C 0.5943 0.6174 0.55879 0.0
C3345 C 0.60289 0.63291 0.54615 0.0
C3346 C 0.5977 0.61867 0.57907 0.0
C3347 C 0.60973 0.65768 0.6176 0.0
H3348 H 0.62593 0.60875 0.64892 0.0
C3349 C 0.63338 0.66685 0.69867 0.0
C3350 C 0.62602 0.65132 0.71189 0.0
C3351 C 0.63136 0.66381 0.67844 0.0
C3352 C 0.62116 0.62252 0.64043 0.0
H3353 H 0.62227 0.66156 0.54493 0.0
H3354 H 0.62803 0.66373 0.58011 0.0
H3355 H 0.62035 0.6046 0.61363 0.0
H3356 H 0.61113 0.6202 0.71416 0.0
H3357 H 0.6072 0.61513 0.67895 0.0
H3358 H 0.61014 0.67559 0.64424 0.0
C3359 C 0.61851 0.65075 0.5744 0.0
C3360 C 0.618 0.62013 0.62022 0.0
C3361 C 0.61527 0.64941 0.5542 0.0
C3362 C 0.61699 0.6325 0.7044 0.0
C3363 C 0.61485 0.62952 0.68417 0.0
C3364 C 0.61273 0.66005 0.63776 0.0
C3365 C 0.6096 0.63554 0.58707 0.0
C3366 C 0.6124 0.63773 0.60859 0.0
C3367 C 0.62181 0.64523 0.67094 0.0
C3368 C 0.61862 0.64255 0.64944 0.0
H3369 H 0.58477 0.60443 0.55305 0.0
H3370 H 0.59058 0.60676 0.58852 0.0
H3371 H 0.60506 0.67147 0.60905 0.0
H3372 H 0.6406 0.68144 0.70393 0.0
H3373 H 0.6373 0.67606 0.66868 0.0
C3374 C 0.61141 0.37166 0.79912 0.0
C3375 C 0.62359 0.35445 0.79214 0.0
C3376 C 0.60941 0.37536 0.81923 0.0
C3377 C 0.63506 0.36701 0.86642 0.0
H3378 H 0.57817 0.37146 0.88825 0.0
C3379 C 0.62041 0.3655 0.94979 0.0
C3380 C 0.60331 0.37721 0.95759 0.0
C3381 C 0.62323 0.36386 0.92954 0.0
C3382 C 0.59419 0.37069 0.88242 0.0
H3383 H 0.64371 0.32798 0.80078 0.0
H3384 H 0.64057 0.3348 0.83605 0.0
H3385 H 0.58277 0.36672 0.85301 0.0
H3386 H 0.57613 0.39692 0.95027 0.0
H3387 H 0.5815 0.3948 0.91487 0.0
H3388 H 0.64664 0.37152 0.89559 0.0
C3389 C 0.63244 0.34525 0.82586 0.0
C3390 C 0.59678 0.36783 0.86223 0.0
C3391 C 0.63415 0.34131 0.80572 0.0
C3392 C 0.58935 0.38764 0.94468 0.0
C3393 C 0.59237 0.38629 0.92438 0.0
C3394 C 0.6325 0.37023 0.88658 0.0
C3395 C 0.61985 0.36216 0.83277 0.0
C3396 C 0.61722 0.36578 0.85409 0.0
C3397 C 0.60925 0.37419 0.91652 0.0
C3398 C 0.61202 0.37188 0.8949 0.0
H3399 H 0.60304 0.38207 0.78905 0.0
H3400 H 0.59973 0.38858 0.82422 0.0
H3401 H 0.65099 0.36572 0.86043 0.0
H3402 H 0.63138 0.35712 0.95932 0.0
H3403 H 0.63614 0.35405 0.92413 0.0
C3404 C 0.9125 0.39078 0.05591 0.0
C3405 C 0.90424 0.37472 0.04373 0.0
C3406 C 0.90872 0.39034 0.07616 0.0
C3407 C 0.87358 0.36538 0.11375 0.0
H3408 H 0.9199 0.37878 0.14926 0.0
C3409 C 0.87431 0.34088 0.19554 0.0
C3410 C 0.88139 0.35622 0.20906 0.0
C3411 C 0.87589 0.34466 0.17537 0.0
C3412 C 0.90674 0.37521 0.13952 0.0
H3413 H 0.88545 0.34565 0.0433 0.0
H3414 H 0.87938 0.34463 0.07835 0.0
H3415 H 0.92498 0.38306 0.114 0.0
H3416 H 0.89533 0.38777 0.21195 0.0
H3417 H 0.89818 0.39419 0.17682 0.0
H3418 H 0.85559 0.35695 0.13932 0.0
C3419 C 0.88837 0.35784 0.07235 0.0
C3420 C 0.90962 0.37774 0.11932 0.0
C3421 C 0.89202 0.35835 0.0522 0.0
C3422 C 0.88978 0.37554 0.20196 0.0
C3423 C 0.89152 0.37922 0.18184 0.0
C3424 C 0.87078 0.36268 0.13392 0.0
C3425 C 0.89666 0.37379 0.08462 0.0
C3426 C 0.89314 0.37263 0.10617 0.0
C3427 C 0.88474 0.36378 0.16834 0.0
C3428 C 0.88739 0.36739 0.14699 0.0
H3429 H 0.92187 0.40368 0.04982 0.0
H3430 H 0.91515 0.40301 0.08517 0.0
H3431 H 0.8604 0.3617 0.10408 0.0
H3432 H 0.86773 0.32587 0.20052 0.0
H3433 H 0.87066 0.33242 0.16526 0.0
C3434 C 0.91969 0.63019 0.44651 0.0
C3435 C 0.90242 0.62817 0.45947 0.0
C3436 C 0.91623 0.63203 0.42633 0.0
C3437 C 0.87402 0.64544 0.39011 0.0
H3438 H 0.91512 0.62232 0.35344 0.0
C3439 C 0.88813 0.63221 0.30117 0.0
C3440 C 0.88048 0.65181 0.29417 0.0
C3441 C 0.88911 0.62817 0.32127 0.0
C3442 C 0.90326 0.62862 0.3634 0.0
H3443 H 0.86803 0.62572 0.46146 0.0
H3444 H 0.86202 0.62806 0.42622 0.0
H3445 H 0.91987 0.61638 0.3883 0.0
H3446 H 0.86742 0.6824 0.30267 0.0
H3447 H 0.86992 0.67574 0.33784 0.0
H3448 H 0.85695 0.65695 0.36513 0.0
C3449 C 0.87821 0.62897 0.43162 0.0
C3450 C 0.90621 0.62551 0.3835 0.0
C3451 C 0.88166 0.62747 0.45182 0.0
C3452 C 0.87333 0.66711 0.30766 0.0
C3453 C 0.87466 0.66322 0.32783 0.0
C3454 C 0.8709 0.64829 0.36998 0.0
C3455 C 0.89544 0.63153 0.41861 0.0
C3456 C 0.89176 0.63406 0.39715 0.0
C3457 C 0.88284 0.64378 0.33491 0.0
C3458 C 0.88558 0.64007 0.35635 0.0
H3459 H 0.93587 0.63096 0.45198 0.0
H3460 H 0.92989 0.63436 0.41687 0.0
H3461 H 0.86268 0.65252 0.40015 0.0
H3462 H 0.89344 0.61999 0.29106 0.0
H3463 H 0.89493 0.6128 0.3261 0.0
C3464 C 0.41388 0.3846 0.44403 0.0
C3465 C 0.40028 0.37435 0.45743 0.0
C3466 C 0.41019 0.38304 0.42384 0.0
C3467 C 0.3875 0.34759 0.38742 0.0
H3468 H 0.38647 0.39697 0.35328 0.0
C3469 C 0.36999 0.33932 0.30466 0.0
C3470 C 0.38122 0.35271 0.2918 0.0
C3471 C 0.37085 0.34268 0.32493 0.0
C3472 C 0.38701 0.38296 0.36253 0.0
H3473 H 0.372 0.35464 0.46016 0.0
H3474 H 0.36589 0.35161 0.42491 0.0
H3475 H 0.39127 0.40174 0.38854 0.0
H3476 H 0.40222 0.3801 0.2901 0.0
H3477 H 0.40444 0.38543 0.3253 0.0
H3478 H 0.38415 0.32867 0.36158 0.0
C3479 C 0.3793 0.36092 0.43007 0.0
C3480 C 0.38965 0.38575 0.38273 0.0
C3481 C 0.38276 0.36277 0.45024 0.0
C3482 C 0.39325 0.36958 0.29961 0.0
C3483 C 0.39439 0.37273 0.31985 0.0
C3484 C 0.38522 0.34476 0.36721 0.0
C3485 C 0.39305 0.37091 0.4167 0.0
C3486 C 0.38992 0.36809 0.39534 0.0
C3487 C 0.38324 0.35931 0.33282 0.0
C3488 C 0.38499 0.3624 0.35445 0.0
H3489 H 0.42745 0.3937 0.44913 0.0
H3490 H 0.42107 0.39082 0.41379 0.0
H3491 H 0.3879 0.3337 0.39685 0.0
H3492 H 0.36042 0.32631 0.29906 0.0
H3493 H 0.3617 0.33227 0.33439 0.0
C3494 C 0.38712 0.63357 0.20426 0.0
C3495 C 0.37762 0.65226 0.21155 0.0
C3496 C 0.38923 0.63033 0.18407 0.0
C3497 C 0.39038 0.66022 0.13732 0.0
H3498 H 0.38412 0.60426 0.11385 0.0
C3499 C 0.38792 0.64849 0.05395 0.0
C3500 C 0.40078 0.63229 0.04603 0.0
C3501 C 0.38463 0.64992 0.07413 0.0
C3502 C 0.38609 0.61993 0.12026 0.0
H3503 H 0.36216 0.68183 0.20328 0.0
H3504 H 0.3654 0.67597 0.16808 0.0
H3505 H 0.37852 0.60875 0.14912 0.0
H3506 H 0.4197 0.60441 0.05314 0.0
H3507 H 0.41382 0.60691 0.0886 0.0
H3508 H 0.3977 0.67143 0.10846 0.0
C3509 C 0.37173 0.66405 0.17798 0.0
C3510 C 0.38291 0.62252 0.14044 0.0
C3511 C 0.36975 0.66736 0.19817 0.0
C3512 C 0.40979 0.61714 0.05878 0.0
C3513 C 0.40635 0.61851 0.07905 0.0
C3514 C 0.3934 0.65765 0.11718 0.0
C3515 C 0.38176 0.64564 0.17067 0.0
C3516 C 0.38495 0.64273 0.1492 0.0
C3517 C 0.39399 0.63512 0.08692 0.0
C3518 C 0.39121 0.63751 0.10842 0.0
H3519 H 0.39339 0.62161 0.21414 0.0
H3520 H 0.39724 0.61609 0.17899 0.0
H3521 H 0.39259 0.67591 0.1436 0.0
H3522 H 0.38057 0.66035 0.04459 0.0
H3523 H 0.37474 0.66268 0.07975 0.0
C3524 C 0.09781 0.65248 0.94576 0.0
C3525 C 0.09832 0.63287 0.95557 0.0
C3526 C 0.10097 0.65349 0.92554 0.0
C3527 C 0.1044 0.62001 0.88021 0.0
H3528 H 0.13025 0.67159 0.85999 0.0
C3529 C 0.10793 0.63718 0.79713 0.0
C3530 C 0.12414 0.65031 0.78972 0.0
C3531 C 0.10584 0.63393 0.81731 0.0
C3532 C 0.12341 0.65684 0.86527 0.0
H3533 H 0.10242 0.59887 0.95217 0.0
H3534 H 0.10926 0.60058 0.91685 0.0
H3535 H 0.12532 0.66755 0.89486 0.0
H3536 H 0.15144 0.66963 0.79739 0.0
H3537 H 0.14878 0.66293 0.83251 0.0
H3538 H 0.10386 0.60871 0.85067 0.0
C3539 C 0.10564 0.61521 0.92457 0.0
C3540 C 0.12008 0.65471 0.88542 0.0
C3541 C 0.10183 0.61416 0.94481 0.0
C3542 C 0.13864 0.65963 0.80279 0.0
C3543 C 0.13695 0.65588 0.82296 0.0
C3544 C 0.10825 0.6219 0.86006 0.0
C3545 C 0.10546 0.63496 0.91466 0.0
C3546 C 0.11011 0.63647 0.89319 0.0
C3547 C 0.12029 0.64327 0.83058 0.0
C3548 C 0.11748 0.64052 0.85223 0.0
H3549 H 0.09482 0.6671 0.95376 0.0
H3550 H 0.09988 0.66891 0.91852 0.0
H3551 H 0.09656 0.60576 0.88549 0.0
H3552 H 0.09641 0.62996 0.78734 0.0
H3553 H 0.09251 0.62452 0.82243 0.0
C3554 C 0.09049 0.38563 0.55391 0.0
C3555 C 0.10388 0.37518 0.54047 0.0
C3556 C 0.09407 0.38378 0.5741 0.0
C3557 C 0.1164 0.34793 0.61053 0.0
H3558 H 0.11976 0.39752 0.64427 0.0
C3559 C 0.13706 0.33965 0.69257 0.0
C3560 C 0.12655 0.35321 0.70579 0.0
C3561 C 0.13553 0.34307 0.67234 0.0
C3562 C 0.11856 0.38346 0.63514 0.0
H3563 H 0.13157 0.35466 0.53768 0.0
H3564 H 0.13746 0.35113 0.5729 0.0
H3565 H 0.11387 0.40213 0.60913 0.0
H3566 H 0.10628 0.38108 0.70818 0.0
H3567 H 0.10291 0.38655 0.67306 0.0
H3568 H 0.12026 0.32912 0.63639 0.0
C3569 C 0.1243 0.36081 0.56778 0.0
C3570 C 0.11527 0.38616 0.61501 0.0
C3571 C 0.12096 0.36294 0.54763 0.0
C3572 C 0.1147 0.37041 0.69838 0.0
C3573 C 0.11288 0.37363 0.67818 0.0
C3574 C 0.11933 0.34519 0.63069 0.0
C3575 C 0.11088 0.37117 0.58119 0.0
C3576 C 0.11422 0.36841 0.60254 0.0
C3577 C 0.12316 0.35994 0.66486 0.0
C3578 C 0.12049 0.36292 0.64329 0.0
H3579 H 0.07726 0.39523 0.54883 0.0
H3580 H 0.08345 0.39185 0.5842 0.0
H3581 H 0.11541 0.33397 0.60122 0.0
H3582 H 0.14649 0.32638 0.69785 0.0
H3583 H 0.14406 0.33246 0.6626 0.0
loop_
_geom_bond_atom_site_label_1
_geom_bond_atom_site_label_2
_geom_bond_distance
_geom_bond_site_symmetry_2
_ccdc_geom_bond_type
Fe0 O2 1.918 . S
Fe0 O5 1.997 . S
Fe0 O6 2.002 . S
Fe0 O11 1.976 . S
Fe0 O14 1.996 . S
Fe1 O2 1.918 . S
Fe1 O9 1.997 . S
Fe1 O12 1.996 . S
Fe1 O16 1.976 . S
Fe1 O19 2.002 . S
O2 Fe0 1.918 . S
O2 Fe1 1.918 . S
O2 Fe3 1.918 . S
Fe3 O2 1.918 . S
Fe3 O4 2.002 . S
Fe3 O13 1.976 . S
Fe3 O17 1.996 . S
Fe3 O20 1.997 . S
O4 Fe3 2.002 . S
O4 C21 1.295 . S
O5 Fe0 1.997 . S
O5 C21 1.235 . S
O6 Fe0 2.002 . S
O6 C7 1.295 . S
C7 O6 1.295 . S
C7 O9 1.235 . S
C8 O13 1.287 . S
C8 O14 1.255 . S
O9 Fe1 1.997 . S
O9 C7 1.235 . S
C10 O16 1.287 . S
C10 O17 1.255 . S
O11 Fe0 1.976 . S
O11 C18 1.287 . S
O12 Fe1 1.996 . S
O12 C18 1.255 . S
O13 Fe3 1.976 . S
O13 C8 1.287 . S
O14 Fe0 1.996 . S
O14 C8 1.255 . S
C15 O19 1.295 . S
C15 O20 1.235 . S
O16 Fe1 1.976 . S
O16 C10 1.287 . S
O17 Fe3 1.996 . S
O17 C10 1.255 . S
C18 O11 1.287 . S
C18 O12 1.255 . S
O19 Fe1 2.002 . S
O19 C15 1.295 . S
O20 Fe3 1.997 . S
O20 C15 1.235 . S
C21 O4 1.295 . S
C21 O5 1.235 . S
Fe22 O24 1.918 . S
Fe22 O27 1.997 . S
Fe22 O28 2.002 . S
Fe22 O33 1.976 . S
Fe22 O36 1.996 . S
Fe23 O24 1.918 . S
Fe23 O31 1.997 . S
Fe23 O34 1.996 . S
Fe23 O38 1.976 . S
Fe23 O41 2.002 . S
O24 Fe22 1.918 . S
O24 Fe23 1.918 . S
O24 Fe25 1.918 . S
Fe25 O24 1.918 . S
Fe25 O26 2.002 . S
Fe25 O35 1.976 . S
Fe25 O39 1.996 . S
Fe25 O42 1.997 . S
O26 Fe25 2.002 . S
O26 C43 1.295 . S
O27 Fe22 1.997 . S
O27 C43 1.235 . S
O28 Fe22 2.002 . S
O28 C29 1.295 . S
C29 O28 1.295 . S
C29 O31 1.235 . S
C30 O35 1.287 . S
C30 O36 1.255 . S
O31 Fe23 1.997 . S
O31 C29 1.235 . S
C32 O38 1.287 . S
C32 O39 1.255 . S
O33 Fe22 1.976 . S
O33 C40 1.287 . S
O34 Fe23 1.996 . S
O34 C40 1.255 . S
O35 Fe25 1.976 . S
O35 C30 1.287 . S
O36 Fe22 1.996 . S
O36 C30 1.255 . S
C37 O41 1.295 . S
C37 O42 1.235 . S
O38 Fe23 1.976 . S
O38 C32 1.287 . S
O39 Fe25 1.996 . S
O39 C32 1.255 . S
C40 O33 1.287 . S
C40 O34 1.255 . S
O41 Fe23 2.002 . S
O41 C37 1.295 . S
O42 Fe25 1.997 . S
O42 C37 1.235 . S
C43 O26 1.295 . S
C43 O27 1.235 . S
Fe44 O46 1.918 . S
Fe44 O49 1.997 . S
Fe44 O50 2.002 . S
Fe44 O55 1.976 . S
Fe44 O58 1.996 . S
Fe45 O46 1.918 . S
Fe45 O53 1.997 . S
Fe45 O56 1.996 . S
Fe45 O60 1.976 . S
Fe45 O63 2.002 . S
O46 Fe44 1.918 . S
O46 Fe45 1.918 . S
O46 Fe47 1.918 . S
Fe47 O46 1.918 . S
Fe47 O48 2.002 . S
Fe47 O57 1.976 . S
Fe47 O61 1.996 . S
Fe47 O64 1.997 . S
O48 Fe47 2.002 . S
O48 C65 1.295 . S
O49 Fe44 1.997 . S
O49 C65 1.235 . S
O50 Fe44 2.002 . S
O50 C51 1.295 . S
C51 O50 1.295 . S
C51 O53 1.235 . S
C52 O57 1.287 . S
C52 O58 1.255 . S
O53 Fe45 1.997 . S
O53 C51 1.235 . S
C54 O60 1.287 . S
C54 O61 1.255 . S
O55 Fe44 1.976 . S
O55 C62 1.287 . S
O56 Fe45 1.996 . S
O56 C62 1.255 . S
O57 Fe47 1.976 . S
O57 C52 1.287 . S
O58 Fe44 1.996 . S
O58 C52 1.255 . S
C59 O63 1.295 . S
C59 O64 1.235 . S
O60 Fe45 1.976 . S
O60 C54 1.287 . S
O61 Fe47 1.996 . S
O61 C54 1.255 . S
C62 O55 1.287 . S
C62 O56 1.255 . S
O63 Fe45 2.002 . S
O63 C59 1.295 . S
O64 Fe47 1.997 . S
O64 C59 1.235 . S
C65 O48 1.295 . S
C65 O49 1.235 . S
Fe66 O68 1.918 . S
Fe66 O71 1.997 . S
Fe66 O72 2.002 . S
Fe66 O77 1.976 . S
Fe66 O80 1.996 1_554 S
Fe67 O68 1.918 . S
Fe67 O75 1.997 . S
Fe67 O78 1.996 . S
Fe67 O82 1.976 . S
Fe67 O85 2.002 . S
O68 Fe66 1.918 . S
O68 Fe67 1.918 . S
O68 Fe69 1.918 . S
Fe69 O68 1.918 . S
Fe69 O70 2.002 . S
Fe69 O79 1.976 1_554 S
Fe69 O83 1.996 . S
Fe69 O86 1.997 . S
O70 Fe69 2.002 . S
O70 C87 1.295 . S
O71 Fe66 1.997 . S
O71 C87 1.235 . S
O72 Fe66 2.002 . S
O72 C73 1.295 . S
C73 O72 1.295 . S
C73 O75 1.235 . S
C74 O79 1.287 . S
C74 O80 1.255 . S
O75 Fe67 1.997 . S
O75 C73 1.235 . S
C76 O82 1.287 . S
C76 O83 1.255 . S
O77 Fe66 1.976 . S
O77 C84 1.287 . S
O78 Fe67 1.996 . S
O78 C84 1.255 . S
O79 Fe69 1.976 1_556 S
O79 C74 1.287 . S
O80 Fe66 1.996 1_556 S
O80 C74 1.255 . S
C81 O85 1.295 . S
C81 O86 1.235 . S
O82 Fe67 1.976 . S
O82 C76 1.287 . S
O83 Fe69 1.996 . S
O83 C76 1.255 . S
C84 O77 1.287 . S
C84 O78 1.255 . S
O85 Fe67 2.002 . S
O85 C81 1.295 . S
O86 Fe69 1.997 . S
O86 C81 1.235 . S
C87 O70 1.295 . S
C87 O71 1.235 . S
Fe88 O90 1.918 . S
Fe88 O93 1.997 . S
Fe88 O94 2.002 . S
Fe88 O99 1.976 . S
Fe88 O102 1.996 . S
Fe89 O90 1.918 . S
Fe89 O97 1.997 . S
Fe89 O100 1.996 . S
Fe89 O104 1.976 . S
Fe89 O107 2.002 . S
O90 Fe88 1.918 . S
O90 Fe89 1.918 . S
O90 Fe91 1.918 . S
Fe91 O90 1.918 . S
Fe91 O92 2.002 . S
Fe91 O101 1.976 . S
Fe91 O105 1.996 . S
Fe91 O108 1.997 . S
O92 Fe91 2.002 . S
O92 C109 1.295 . S
O93 Fe88 1.997 . S
O93 C109 1.235 . S
O94 Fe88 2.002 . S
O94 C95 1.295 . S
C95 O94 1.295 . S
C95 O97 1.235 . S
C96 O101 1.287 . S
C96 O102 1.255 . S
O97 Fe89 1.997 . S
O97 C95 1.235 . S
C98 O104 1.287 . S
C98 O105 1.255 . S
O99 Fe88 1.976 . S
O99 C106 1.287 . S
O100 Fe89 1.996 . S
O100 C106 1.255 . S
O101 Fe91 1.976 . S
O101 C96 1.287 . S
O102 Fe88 1.996 . S
O102 C96 1.255 . S
C103 O107 1.295 . S
C103 O108 1.235 . S
O104 Fe89 1.976 . S
O104 C98 1.287 . S
O105 Fe91 1.996 . S
O105 C98 1.255 . S
C106 O99 1.287 . S
C106 O100 1.255 . S
O107 Fe89 2.002 . S
O107 C103 1.295 . S
O108 Fe91 1.997 . S
O108 C103 1.235 . S
C109 O92 1.295 . S
C109 O93 1.235 . S
Fe110 O112 1.918 . S
Fe110 O115 1.997 . S
Fe110 O116 2.002 . S
Fe110 O121 1.976 . S
Fe110 O124 1.996 . S
Fe111 O112 1.918 . S
Fe111 O119 1.997 . S
Fe111 O122 1.996 . S
Fe111 O126 1.976 . S
Fe111 O129 2.002 . S
O112 Fe110 1.918 . S
O112 Fe111 1.918 . S
O112 Fe113 1.918 . S
Fe113 O112 1.918 . S
Fe113 O114 2.002 . S
Fe113 O123 1.976 . S
Fe113 O127 1.996 . S
Fe113 O130 1.997 . S
O114 Fe113 2.002 . S
O114 C131 1.295 . S
O115 Fe110 1.997 . S
O115 C131 1.235 . S
O116 Fe110 2.002 . S
O116 C117 1.295 . S
C117 O116 1.295 . S
C117 O119 1.235 . S
C118 O123 1.287 . S
C118 O124 1.255 . S
O119 Fe111 1.997 . S
O119 C117 1.235 . S
C120 O126 1.287 . S
C120 O127 1.255 . S
O121 Fe110 1.976 . S
O121 C128 1.287 . S
O122 Fe111 1.996 . S
O122 C128 1.255 . S
O123 Fe113 1.976 . S
O123 C118 1.287 . S
O124 Fe110 1.996 . S
O124 C118 1.255 . S
C125 O129 1.295 . S
C125 O130 1.235 . S
O126 Fe111 1.976 . S
O126 C120 1.287 . S
O127 Fe113 1.996 . S
O127 C120 1.255 . S
C128 O121 1.287 . S
C128 O122 1.255 . S
O129 Fe111 2.002 . S
O129 C125 1.295 . S
O130 Fe113 1.997 . S
O130 C125 1.235 . S
C131 O114 1.295 . S
C131 O115 1.235 . S
Fe132 O134 1.918 . S
Fe132 O137 1.997 . S
Fe132 O138 2.002 . S
Fe132 O143 1.976 . S
Fe132 O146 1.996 . S
Fe133 O134 1.918 . S
Fe133 O141 1.997 . S
Fe133 O144 1.996 . S
Fe133 O148 1.976 . S
Fe133 O151 2.002 . S
O134 Fe132 1.918 . S
O134 Fe133 1.918 . S
O134 Fe135 1.918 . S
Fe135 O134 1.918 . S
Fe135 O136 2.002 . S
Fe135 O145 1.976 . S
Fe135 O149 1.996 . S
Fe135 O152 1.997 . S
O136 Fe135 2.002 . S
O136 C153 1.295 . S
O137 Fe132 1.997 . S
O137 C153 1.235 . S
O138 Fe132 2.002 . S
O138 C139 1.295 . S
C139 O138 1.295 . S
C139 O141 1.235 . S
C140 O145 1.287 . S
C140 O146 1.255 . S
O141 Fe133 1.997 . S
O141 C139 1.235 . S
C142 O148 1.287 . S
C142 O149 1.255 . S
O143 Fe132 1.976 . S
O143 C150 1.287 . S
O144 Fe133 1.996 . S
O144 C150 1.255 . S
O145 Fe135 1.976 . S
O145 C140 1.287 . S
O146 Fe132 1.996 . S
O146 C140 1.255 . S
C147 O151 1.295 . S
C147 O152 1.235 . S
O148 Fe133 1.976 . S
O148 C142 1.287 . S
O149 Fe135 1.996 . S
O149 C142 1.255 . S
C150 O143 1.287 . S
C150 O144 1.255 . S
O151 Fe133 2.002 . S
O151 C147 1.295 . S
O152 Fe135 1.997 . S
O152 C147 1.235 . S
C153 O136 1.295 . S
C153 O137 1.235 . S
Fe154 O156 1.918 . S
Fe154 O159 1.997 . S
Fe154 O160 2.002 . S
Fe154 O165 1.976 . S
Fe154 O168 1.996 . S
Fe155 O156 1.918 . S
Fe155 O163 1.997 . S
Fe155 O166 1.996 . S
Fe155 O170 1.976 1_556 S
Fe155 O173 2.002 . S
O156 Fe154 1.918 . S
O156 Fe155 1.918 . S
O156 Fe157 1.918 . S
Fe157 O156 1.918 . S
Fe157 O158 2.002 . S
Fe157 O167 1.976 . S
Fe157 O171 1.996 1_556 S
Fe157 O174 1.997 . S
O158 Fe157 2.002 . S
O158 C175 1.295 . S
O159 Fe154 1.997 . S
O159 C175 1.235 . S
O160 Fe154 2.002 . S
O160 C161 1.295 . S
C161 O160 1.295 . S
C161 O163 1.235 . S
C162 O167 1.287 . S
C162 O168 1.255 . S
O163 Fe155 1.997 . S
O163 C161 1.235 . S
C164 O170 1.287 . S
C164 O171 1.255 . S
O165 Fe154 1.976 . S
O165 C172 1.287 . S
O166 Fe155 1.996 . S
O166 C172 1.255 . S
O167 Fe157 1.976 . S
O167 C162 1.287 . S
O168 Fe154 1.996 . S
O168 C162 1.255 . S
C169 O173 1.295 . S
C169 O174 1.235 . S
O170 Fe155 1.976 1_554 S
O170 C164 1.287 . S
O171 Fe157 1.996 1_554 S
O171 C164 1.255 . S
C172 O165 1.287 . S
C172 O166 1.255 . S
O173 Fe155 2.002 . S
O173 C169 1.295 . S
O174 Fe157 1.997 . S
O174 C169 1.235 . S
C175 O158 1.295 . S
C175 O159 1.235 . S
Fe176 O178 1.918 . S
Fe176 O181 1.997 . S
Fe176 O182 2.002 . S
Fe176 O187 1.976 . S
Fe176 O190 1.996 . S
Fe177 O178 1.918 . S
Fe177 O185 1.997 . S
Fe177 O188 1.996 . S
Fe177 O192 1.976 . S
Fe177 O195 2.002 . S
O178 Fe176 1.918 . S
O178 Fe177 1.918 . S
O178 Fe179 1.918 . S
Fe179 O178 1.918 . S
Fe179 O180 2.002 . S
Fe179 O189 1.976 . S
Fe179 O193 1.996 . S
Fe179 O196 1.997 . S
O180 Fe179 2.002 . S
O180 C197 1.295 . S
O181 Fe176 1.997 . S
O181 C197 1.235 . S
O182 Fe176 2.002 . S
O182 C183 1.295 . S
C183 O182 1.295 . S
C183 O185 1.235 . S
C184 O189 1.287 . S
C184 O190 1.255 . S
O185 Fe177 1.997 . S
O185 C183 1.235 . S
C186 O192 1.287 . S
C186 O193 1.255 . S
O187 Fe176 1.976 . S
O187 C194 1.287 . S
O188 Fe177 1.996 . S
O188 C194 1.255 . S
O189 Fe179 1.976 . S
O189 C184 1.287 . S
O190 Fe176 1.996 . S
O190 C184 1.255 . S
C191 O195 1.295 . S
C191 O196 1.235 . S
O192 Fe177 1.976 . S
O192 C186 1.287 . S
O193 Fe179 1.996 . S
O193 C186 1.255 . S
C194 O187 1.287 . S
C194 O188 1.255 . S
O195 Fe177 2.002 . S
O195 C191 1.295 . S
O196 Fe179 1.997 . S
O196 C191 1.235 . S
C197 O180 1.295 . S
C197 O181 1.235 . S
Fe198 O200 1.918 . S
Fe198 O203 1.997 . S
Fe198 O204 2.002 . S
Fe198 O209 1.976 . S
Fe198 O212 1.996 . S
Fe199 O200 1.918 . S
Fe199 O207 1.997 . S
Fe199 O210 1.996 . S
Fe199 O214 1.976 . S
Fe199 O217 2.002 . S
O200 Fe198 1.918 . S
O200 Fe199 1.918 . S
O200 Fe201 1.918 . S
Fe201 O200 1.918 . S
Fe201 O202 2.002 . S
Fe201 O211 1.976 . S
Fe201 O215 1.996 . S
Fe201 O218 1.997 . S
O202 Fe201 2.002 . S
O202 C219 1.295 . S
O203 Fe198 1.997 . S
O203 C219 1.235 . S
O204 Fe198 2.002 . S
O204 C205 1.295 . S
C205 O204 1.295 . S
C205 O207 1.235 . S
C206 O211 1.287 . S
C206 O212 1.255 . S
O207 Fe199 1.997 . S
O207 C205 1.235 . S
C208 O214 1.287 . S
C208 O215 1.255 . S
O209 Fe198 1.976 . S
O209 C216 1.287 . S
O210 Fe199 1.996 . S
O210 C216 1.255 . S
O211 Fe201 1.976 . S
O211 C206 1.287 . S
O212 Fe198 1.996 . S
O212 C206 1.255 . S
C213 O217 1.295 . S
C213 O218 1.235 . S
O214 Fe199 1.976 . S
O214 C208 1.287 . S
O215 Fe201 1.996 . S
O215 C208 1.255 . S
C216 O209 1.287 . S
C216 O210 1.255 . S
O217 Fe199 2.002 . S
O217 C213 1.295 . S
O218 Fe201 1.997 . S
O218 C213 1.235 . S
C219 O202 1.295 . S
C219 O203 1.235 . S
Fe220 O222 1.918 . S
Fe220 O225 1.997 . S
Fe220 O226 2.002 . S
Fe220 O231 1.976 . S
Fe220 O234 1.996 . S
Fe221 O222 1.918 . S
Fe221 O229 1.997 . S
Fe221 O232 1.996 . S
Fe221 O236 1.976 . S
Fe221 O239 2.002 . S
O222 Fe220 1.918 . S
O222 Fe221 1.918 . S
O222 Fe223 1.918 . S
Fe223 O222 1.918 . S
Fe223 O224 2.002 . S
Fe223 O233 1.976 . S
Fe223 O237 1.996 . S
Fe223 O240 1.997 . S
O224 Fe223 2.002 . S
O224 C241 1.295 . S
O225 Fe220 1.997 . S
O225 C241 1.235 . S
O226 Fe220 2.002 . S
O226 C227 1.295 . S
C227 O226 1.295 . S
C227 O229 1.235 . S
C228 O233 1.287 . S
C228 O234 1.255 . S
O229 Fe221 1.997 . S
O229 C227 1.235 . S
C230 O236 1.287 . S
C230 O237 1.255 . S
O231 Fe220 1.976 . S
O231 C238 1.287 . S
O232 Fe221 1.996 . S
O232 C238 1.255 . S
O233 Fe223 1.976 . S
O233 C228 1.287 . S
O234 Fe220 1.996 . S
O234 C228 1.255 . S
C235 O239 1.295 . S
C235 O240 1.235 . S
O236 Fe221 1.976 . S
O236 C230 1.287 . S
O237 Fe223 1.996 . S
O237 C230 1.255 . S
C238 O231 1.287 . S
C238 O232 1.255 . S
O239 Fe221 2.002 . S
O239 C235 1.295 . S
O240 Fe223 1.997 . S
O240 C235 1.235 . S
C241 O224 1.295 . S
C241 O225 1.235 . S
Fe242 O244 1.918 . S
Fe242 O247 1.997 . S
Fe242 O248 2.002 . S
Fe242 O253 1.976 . S
Fe242 O256 1.996 1_556 S
Fe243 O244 1.918 . S
Fe243 O251 1.997 . S
Fe243 O254 1.996 . S
Fe243 O258 1.976 . S
Fe243 O261 2.002 . S
O244 Fe242 1.918 . S
O244 Fe243 1.918 . S
O244 Fe245 1.918 . S
Fe245 O244 1.918 . S
Fe245 O246 2.002 . S
Fe245 O255 1.976 1_556 S
Fe245 O259 1.996 . S
Fe245 O262 1.997 . S
O246 Fe245 2.002 . S
O246 C263 1.295 . S
O247 Fe242 1.997 . S
O247 C263 1.235 . S
O248 Fe242 2.002 . S
O248 C249 1.295 . S
C249 O248 1.295 . S
C249 O251 1.235 . S
C250 O255 1.287 . S
C250 O256 1.255 . S
O251 Fe243 1.997 . S
O251 C249 1.235 . S
C252 O258 1.287 . S
C252 O259 1.255 . S
O253 Fe242 1.976 . S
O253 C260 1.287 . S
O254 Fe243 1.996 . S
O254 C260 1.255 . S
O255 Fe245 1.976 1_554 S
O255 C250 1.287 . S
O256 Fe242 1.996 1_554 S
O256 C250 1.255 . S
C257 O261 1.295 . S
C257 O262 1.235 . S
O258 Fe243 1.976 . S
O258 C252 1.287 . S
O259 Fe245 1.996 . S
O259 C252 1.255 . S
C260 O253 1.287 . S
C260 O254 1.255 . S
O261 Fe243 2.002 . S
O261 C257 1.295 . S
O262 Fe245 1.997 . S
O262 C257 1.235 . S
C263 O246 1.295 . S
C263 O247 1.235 . S
Fe264 O266 1.918 . S
Fe264 O269 1.997 . S
Fe264 O270 2.002 . S
Fe264 O275 1.976 . S
Fe264 O278 1.996 . S
Fe265 O266 1.918 . S
Fe265 O273 1.997 . S
Fe265 O276 1.996 . S
Fe265 O280 1.976 . S
Fe265 O283 2.002 . S
O266 Fe264 1.918 . S
O266 Fe265 1.918 . S
O266 Fe267 1.918 . S
Fe267 O266 1.918 . S
Fe267 O268 2.002 . S
Fe267 O277 1.976 . S
Fe267 O281 1.996 . S
Fe267 O284 1.997 . S
O268 Fe267 2.002 . S
O268 C285 1.295 . S
O269 Fe264 1.997 . S
O269 C285 1.235 . S
O270 Fe264 2.002 . S
O270 C271 1.295 . S
C271 O270 1.295 . S
C271 O273 1.235 . S
C272 O277 1.287 . S
C272 O278 1.255 . S
O273 Fe265 1.997 . S
O273 C271 1.235 . S
C274 O280 1.287 . S
C274 O281 1.255 . S
O275 Fe264 1.976 . S
O275 C282 1.287 . S
O276 Fe265 1.996 . S
O276 C282 1.255 . S
O277 Fe267 1.976 . S
O277 C272 1.287 . S
O278 Fe264 1.996 . S
O278 C272 1.255 . S
C279 O283 1.295 . S
C279 O284 1.235 . S
O280 Fe265 1.976 . S
O280 C274 1.287 . S
O281 Fe267 1.996 . S
O281 C274 1.255 . S
C282 O275 1.287 . S
C282 O276 1.255 . S
O283 Fe265 2.002 . S
O283 C279 1.295 . S
O284 Fe267 1.997 . S
O284 C279 1.235 . S
C285 O268 1.295 . S
C285 O269 1.235 . S
Fe286 O288 1.918 . S
Fe286 O291 1.997 . S
Fe286 O292 2.002 . S
Fe286 O297 1.976 . S
Fe286 O300 1.996 . S
Fe287 O288 1.918 . S
Fe287 O295 1.997 . S
Fe287 O298 1.996 . S
Fe287 O302 1.976 . S
Fe287 O305 2.002 . S
O288 Fe286 1.918 . S
O288 Fe287 1.918 . S
O288 Fe289 1.918 . S
Fe289 O288 1.918 . S
Fe289 O290 2.002 . S
Fe289 O299 1.976 . S
Fe289 O303 1.996 . S
Fe289 O306 1.997 . S
O290 Fe289 2.002 . S
O290 C307 1.295 . S
O291 Fe286 1.997 . S
O291 C307 1.235 . S
O292 Fe286 2.002 . S
O292 C293 1.295 . S
C293 O292 1.295 . S
C293 O295 1.235 . S
C294 O299 1.287 . S
C294 O300 1.255 . S
O295 Fe287 1.997 . S
O295 C293 1.235 . S
C296 O302 1.287 . S
C296 O303 1.255 . S
O297 Fe286 1.976 . S
O297 C304 1.287 . S
O298 Fe287 1.996 . S
O298 C304 1.255 . S
O299 Fe289 1.976 . S
O299 C294 1.287 . S
O300 Fe286 1.996 . S
O300 C294 1.255 . S
C301 O305 1.295 . S
C301 O306 1.235 . S
O302 Fe287 1.976 . S
O302 C296 1.287 . S
O303 Fe289 1.996 . S
O303 C296 1.255 . S
C304 O297 1.287 . S
C304 O298 1.255 . S
O305 Fe287 2.002 . S
O305 C301 1.295 . S
O306 Fe289 1.997 . S
O306 C301 1.235 . S
C307 O290 1.295 . S
C307 O291 1.235 . S
Fe308 O310 1.918 . S
Fe308 O313 1.997 . S
Fe308 O314 2.002 . S
Fe308 O319 1.976 . S
Fe308 O322 1.996 . S
Fe309 O310 1.918 . S
Fe309 O317 1.997 . S
Fe309 O320 1.996 . S
Fe309 O324 1.976 . S
Fe309 O327 2.002 . S
O310 Fe308 1.918 . S
O310 Fe309 1.918 . S
O310 Fe311 1.918 . S
Fe311 O310 1.918 . S
Fe311 O312 2.002 . S
Fe311 O321 1.976 . S
Fe311 O325 1.996 . S
Fe311 O328 1.997 . S
O312 Fe311 2.002 . S
O312 C329 1.295 . S
O313 Fe308 1.997 . S
O313 C329 1.235 . S
O314 Fe308 2.002 . S
O314 C315 1.295 . S
C315 O314 1.295 . S
C315 O317 1.235 . S
C316 O321 1.287 . S
C316 O322 1.255 . S
O317 Fe309 1.997 . S
O317 C315 1.235 . S
C318 O324 1.287 . S
C318 O325 1.255 . S
O319 Fe308 1.976 . S
O319 C326 1.287 . S
O320 Fe309 1.996 . S
O320 C326 1.255 . S
O321 Fe311 1.976 . S
O321 C316 1.287 . S
O322 Fe308 1.996 . S
O322 C316 1.255 . S
C323 O327 1.295 . S
C323 O328 1.235 . S
O324 Fe309 1.976 . S
O324 C318 1.287 . S
O325 Fe311 1.996 . S
O325 C318 1.255 . S
C326 O319 1.287 . S
C326 O320 1.255 . S
O327 Fe309 2.002 . S
O327 C323 1.295 . S
O328 Fe311 1.997 . S
O328 C323 1.235 . S
C329 O312 1.295 . S
C329 O313 1.235 . S
Fe330 O332 1.918 . S
Fe330 O335 1.997 . S
Fe330 O336 2.002 . S
Fe330 O341 1.976 . S
Fe330 O344 1.996 1_554 S
Fe331 O332 1.918 . S
Fe331 O339 1.997 . S
Fe331 O342 1.996 . S
Fe331 O346 1.976 . S
Fe331 O349 2.002 . S
O332 Fe330 1.918 . S
O332 Fe331 1.918 . S
O332 Fe333 1.918 . S
Fe333 O332 1.918 . S
Fe333 O334 2.002 . S
Fe333 O343 1.976 1_554 S
Fe333 O347 1.996 . S
Fe333 O350 1.997 . S
O334 Fe333 2.002 . S
O334 C351 1.295 . S
O335 Fe330 1.997 . S
O335 C351 1.235 . S
O336 Fe330 2.002 . S
O336 C337 1.295 . S
C337 O336 1.295 . S
C337 O339 1.235 . S
C338 O343 1.287 . S
C338 O344 1.255 . S
O339 Fe331 1.997 . S
O339 C337 1.235 . S
C340 O346 1.287 . S
C340 O347 1.255 . S
O341 Fe330 1.976 . S
O341 C348 1.287 . S
O342 Fe331 1.996 . S
O342 C348 1.255 . S
O343 Fe333 1.976 1_556 S
O343 C338 1.287 . S
O344 Fe330 1.996 1_556 S
O344 C338 1.255 . S
C345 O349 1.295 . S
C345 O350 1.235 . S
O346 Fe331 1.976 . S
O346 C340 1.287 . S
O347 Fe333 1.996 . S
O347 C340 1.255 . S
C348 O341 1.287 . S
C348 O342 1.255 . S
O349 Fe331 2.002 . S
O349 C345 1.295 . S
O350 Fe333 1.997 . S
O350 C345 1.235 . S
C351 O334 1.295 . S
C351 O335 1.235 . S
Fe352 O354 1.918 . S
Fe352 O357 1.997 . S
Fe352 O358 2.002 . S
Fe352 O363 1.976 . S
Fe352 O366 1.996 . S
Fe353 O354 1.918 . S
Fe353 O361 1.997 . S
Fe353 O364 1.996 . S
Fe353 O368 1.976 . S
Fe353 O371 2.002 . S
O354 Fe352 1.918 . S
O354 Fe353 1.918 . S
O354 Fe355 1.918 . S
Fe355 O354 1.918 . S
Fe355 O356 2.002 . S
Fe355 O365 1.976 . S
Fe355 O369 1.996 . S
Fe355 O372 1.997 . S
O356 Fe355 2.002 . S
O356 C373 1.295 . S
O357 Fe352 1.997 . S
O357 C373 1.235 . S
O358 Fe352 2.002 . S
O358 C359 1.295 . S
C359 O358 1.295 . S
C359 O361 1.235 . S
C360 O365 1.287 . S
C360 O366 1.255 . S
O361 Fe353 1.997 . S
O361 C359 1.235 . S
C362 O368 1.287 . S
C362 O369 1.255 . S
O363 Fe352 1.976 . S
O363 C370 1.287 . S
O364 Fe353 1.996 . S
O364 C370 1.255 . S
O365 Fe355 1.976 . S
O365 C360 1.287 . S
O366 Fe352 1.996 . S
O366 C360 1.255 . S
C367 O371 1.295 . S
C367 O372 1.235 . S
O368 Fe353 1.976 . S
O368 C362 1.287 . S
O369 Fe355 1.996 . S
O369 C362 1.255 . S
C370 O363 1.287 . S
C370 O364 1.255 . S
O371 Fe353 2.002 . S
O371 C367 1.295 . S
O372 Fe355 1.997 . S
O372 C367 1.235 . S
C373 O356 1.295 . S
C373 O357 1.235 . S
Fe374 O376 1.918 . S
Fe374 O379 1.997 . S
Fe374 O380 2.002 . S
Fe374 O385 1.976 . S
Fe374 O388 1.996 . S
Fe375 O376 1.918 . S
Fe375 O383 1.997 . S
Fe375 O386 1.996 . S
Fe375 O390 1.976 1_554 S
Fe375 O393 2.002 . S
O376 Fe374 1.918 . S
O376 Fe375 1.918 . S
O376 Fe377 1.918 . S
Fe377 O376 1.918 . S
Fe377 O378 2.002 . S
Fe377 O387 1.976 . S
Fe377 O391 1.996 1_554 S
Fe377 O394 1.997 . S
O378 Fe377 2.002 . S
O378 C395 1.295 . S
O379 Fe374 1.997 . S
O379 C395 1.235 . S
O380 Fe374 2.002 . S
O380 C381 1.295 . S
C381 O380 1.295 . S
C381 O383 1.235 . S
C382 O387 1.287 . S
C382 O388 1.255 . S
O383 Fe375 1.997 . S
O383 C381 1.235 . S
C384 O390 1.287 . S
C384 O391 1.255 . S
O385 Fe374 1.976 . S
O385 C392 1.287 . S
O386 Fe375 1.996 . S
O386 C392 1.255 . S
O387 Fe377 1.976 . S
O387 C382 1.287 . S
O388 Fe374 1.996 . S
O388 C382 1.255 . S
C389 O393 1.295 . S
C389 O394 1.235 . S
O390 Fe375 1.976 1_556 S
O390 C384 1.287 . S
O391 Fe377 1.996 1_556 S
O391 C384 1.255 . S
C392 O385 1.287 . S
C392 O386 1.255 . S
O393 Fe375 2.002 . S
O393 C389 1.295 . S
O394 Fe377 1.997 . S
O394 C389 1.235 . S
C395 O378 1.295 . S
C395 O379 1.235 . S
Fe396 O398 1.918 . S
Fe396 O401 1.997 . S
Fe396 O402 2.002 . S
Fe396 O407 1.976 . S
Fe396 O410 1.996 . S
Fe397 O398 1.918 . S
Fe397 O405 1.997 . S
Fe397 O408 1.996 . S
Fe397 O412 1.976 . S
Fe397 O415 2.002 . S
O398 Fe396 1.918 . S
O398 Fe397 1.918 . S
O398 Fe399 1.918 . S
Fe399 O398 1.918 . S
Fe399 O400 2.002 . S
Fe399 O409 1.976 . S
Fe399 O413 1.996 . S
Fe399 O416 1.997 . S
O400 Fe399 2.002 . S
O400 C417 1.295 . S
O401 Fe396 1.997 . S
O401 C417 1.235 . S
O402 Fe396 2.002 . S
O402 C403 1.295 . S
C403 O402 1.295 . S
C403 O405 1.235 . S
C404 O409 1.287 . S
C404 O410 1.255 . S
O405 Fe397 1.997 . S
O405 C403 1.235 . S
C406 O412 1.287 . S
C406 O413 1.255 . S
O407 Fe396 1.976 . S
O407 C414 1.287 . S
O408 Fe397 1.996 . S
O408 C414 1.255 . S
O409 Fe399 1.976 . S
O409 C404 1.287 . S
O410 Fe396 1.996 . S
O410 C404 1.255 . S
C411 O415 1.295 . S
C411 O416 1.235 . S
O412 Fe397 1.976 . S
O412 C406 1.287 . S
O413 Fe399 1.996 . S
O413 C406 1.255 . S
C414 O407 1.287 . S
C414 O408 1.255 . S
O415 Fe397 2.002 . S
O415 C411 1.295 . S
O416 Fe399 1.997 . S
O416 C411 1.235 . S
C417 O400 1.295 . S
C417 O401 1.235 . S
Fe418 O420 1.918 . S
Fe418 O423 1.997 . S
Fe418 O424 2.002 . S
Fe418 O429 1.976 . S
Fe418 O432 1.996 . S
Fe419 O420 1.918 . S
Fe419 O427 1.997 . S
Fe419 O430 1.996 . S
Fe419 O434 1.976 . S
Fe419 O437 2.002 . S
O420 Fe418 1.918 . S
O420 Fe419 1.918 . S
O420 Fe421 1.918 . S
Fe421 O420 1.918 . S
Fe421 O422 2.002 . S
Fe421 O431 1.976 . S
Fe421 O435 1.996 . S
Fe421 O438 1.997 . S
O422 Fe421 2.002 . S
O422 C439 1.295 . S
O423 Fe418 1.997 . S
O423 C439 1.235 . S
O424 Fe418 2.002 . S
O424 C425 1.295 . S
C425 O424 1.295 . S
C425 O427 1.235 . S
C426 O431 1.287 . S
C426 O432 1.255 . S
O427 Fe419 1.997 . S
O427 C425 1.235 . S
C428 O434 1.287 . S
C428 O435 1.255 . S
O429 Fe418 1.976 . S
O429 C436 1.287 . S
O430 Fe419 1.996 . S
O430 C436 1.255 . S
O431 Fe421 1.976 . S
O431 C426 1.287 . S
O432 Fe418 1.996 . S
O432 C426 1.255 . S
C433 O437 1.295 . S
C433 O438 1.235 . S
O434 Fe419 1.976 . S
O434 C428 1.287 . S
O435 Fe421 1.996 . S
O435 C428 1.255 . S
C436 O429 1.287 . S
C436 O430 1.255 . S
O437 Fe419 2.002 . S
O437 C433 1.295 . S
O438 Fe421 1.997 . S
O438 C433 1.235 . S
C439 O422 1.295 . S
C439 O423 1.235 . S
Fe440 O442 1.918 . S
Fe440 O445 1.997 . S
Fe440 O446 2.002 . S
Fe440 O451 1.976 . S
Fe440 O454 1.996 . S
Fe441 O442 1.918 . S
Fe441 O449 1.997 . S
Fe441 O452 1.996 . S
Fe441 O456 1.976 . S
Fe441 O459 2.002 . S
O442 Fe440 1.918 . S
O442 Fe441 1.918 . S
O442 Fe443 1.918 . S
Fe443 O442 1.918 . S
Fe443 O444 2.002 . S
Fe443 O453 1.976 . S
Fe443 O457 1.996 . S
Fe443 O460 1.997 . S
O444 Fe443 2.002 . S
O444 C461 1.295 . S
O445 Fe440 1.997 . S
O445 C461 1.235 . S
O446 Fe440 2.002 . S
O446 C447 1.295 . S
C447 O446 1.295 . S
C447 O449 1.235 . S
C448 O453 1.287 . S
C448 O454 1.255 . S
O449 Fe441 1.997 . S
O449 C447 1.235 . S
C450 O456 1.287 . S
C450 O457 1.255 . S
O451 Fe440 1.976 . S
O451 C458 1.287 . S
O452 Fe441 1.996 . S
O452 C458 1.255 . S
O453 Fe443 1.976 . S
O453 C448 1.287 . S
O454 Fe440 1.996 . S
O454 C448 1.255 . S
C455 O459 1.295 . S
C455 O460 1.235 . S
O456 Fe441 1.976 . S
O456 C450 1.287 . S
O457 Fe443 1.996 . S
O457 C450 1.255 . S
C458 O451 1.287 . S
C458 O452 1.255 . S
O459 Fe441 2.002 . S
O459 C455 1.295 . S
O460 Fe443 1.997 . S
O460 C455 1.235 . S
C461 O444 1.295 . S
C461 O445 1.235 . S
Fe462 O464 1.918 . S
Fe462 O467 1.997 . S
Fe462 O468 2.002 . S
Fe462 O473 1.976 . S
Fe462 O476 1.996 1_556 S
Fe463 O464 1.918 . S
Fe463 O471 1.997 . S
Fe463 O474 1.996 . S
Fe463 O478 1.976 . S
Fe463 O481 2.002 . S
O464 Fe462 1.918 . S
O464 Fe463 1.918 . S
O464 Fe465 1.918 . S
Fe465 O464 1.918 . S
Fe465 O466 2.002 . S
Fe465 O475 1.976 1_556 S
Fe465 O479 1.996 . S
Fe465 O482 1.997 . S
O466 Fe465 2.002 . S
O466 C483 1.295 . S
O467 Fe462 1.997 . S
O467 C483 1.235 . S
O468 Fe462 2.002 . S
O468 C469 1.295 . S
C469 O468 1.295 . S
C469 O471 1.235 . S
C470 O475 1.287 . S
C470 O476 1.255 . S
O471 Fe463 1.997 . S
O471 C469 1.235 . S
C472 O478 1.287 . S
C472 O479 1.255 . S
O473 Fe462 1.976 . S
O473 C480 1.287 . S
O474 Fe463 1.996 . S
O474 C480 1.255 . S
O475 Fe465 1.976 1_554 S
O475 C470 1.287 . S
O476 Fe462 1.996 1_554 S
O476 C470 1.255 . S
C477 O481 1.295 . S
C477 O482 1.235 . S
O478 Fe463 1.976 . S
O478 C472 1.287 . S
O479 Fe465 1.996 . S
O479 C472 1.255 . S
C480 O473 1.287 . S
C480 O474 1.255 . S
O481 Fe463 2.002 . S
O481 C477 1.295 . S
O482 Fe465 1.997 . S
O482 C477 1.235 . S
C483 O466 1.295 . S
C483 O467 1.235 . S
Fe484 O486 1.918 . S
Fe484 O489 1.997 . S
Fe484 O490 2.002 . S
Fe484 O495 1.976 . S
Fe484 O498 1.996 . S
Fe485 O486 1.918 . S
Fe485 O493 1.997 . S
Fe485 O496 1.996 . S
Fe485 O500 1.976 . S
Fe485 O503 2.002 . S
O486 Fe484 1.918 . S
O486 Fe485 1.918 . S
O486 Fe487 1.918 . S
Fe487 O486 1.918 . S
Fe487 O488 2.002 . S
Fe487 O497 1.976 . S
Fe487 O501 1.996 . S
Fe487 O504 1.997 . S
O488 Fe487 2.002 . S
O488 C505 1.295 . S
O489 Fe484 1.997 . S
O489 C505 1.235 . S
O490 Fe484 2.002 . S
O490 C491 1.295 . S
C491 O490 1.295 . S
C491 O493 1.235 . S
C492 O497 1.287 . S
C492 O498 1.255 . S
O493 Fe485 1.997 . S
O493 C491 1.235 . S
C494 O500 1.287 . S
C494 O501 1.255 . S
O495 Fe484 1.976 . S
O495 C502 1.287 . S
O496 Fe485 1.996 . S
O496 C502 1.255 . S
O497 Fe487 1.976 . S
O497 C492 1.287 . S
O498 Fe484 1.996 . S
O498 C492 1.255 . S
C499 O503 1.295 . S
C499 O504 1.235 . S
O500 Fe485 1.976 . S
O500 C494 1.287 . S
O501 Fe487 1.996 . S
O501 C494 1.255 . S
C502 O495 1.287 . S
C502 O496 1.255 . S
O503 Fe485 2.002 . S
O503 C499 1.295 . S
O504 Fe487 1.997 . S
O504 C499 1.235 . S
C505 O488 1.295 . S
C505 O489 1.235 . S
Fe506 O508 1.918 . S
Fe506 O511 1.997 . S
Fe506 O512 2.002 . S
Fe506 O517 1.976 . S
Fe506 O520 1.996 . S
Fe507 O508 1.918 . S
Fe507 O515 1.997 . S
Fe507 O518 1.996 . S
Fe507 O522 1.976 . S
Fe507 O525 2.002 . S
O508 Fe506 1.918 . S
O508 Fe507 1.918 . S
O508 Fe509 1.918 . S
Fe509 O508 1.918 . S
Fe509 O510 2.002 . S
Fe509 O519 1.976 . S
Fe509 O523 1.996 . S
Fe509 O526 1.997 . S
O510 Fe509 2.002 . S
O510 C527 1.295 . S
O511 Fe506 1.997 . S
O511 C527 1.235 . S
O512 Fe506 2.002 . S
O512 C513 1.295 . S
C513 O512 1.295 . S
C513 O515 1.235 . S
C514 O519 1.287 . S
C514 O520 1.255 . S
O515 Fe507 1.997 . S
O515 C513 1.235 . S
C516 O522 1.287 . S
C516 O523 1.255 . S
O517 Fe506 1.976 . S
O517 C524 1.287 . S
O518 Fe507 1.996 . S
O518 C524 1.255 . S
O519 Fe509 1.976 . S
O519 C514 1.287 . S
O520 Fe506 1.996 . S
O520 C514 1.255 . S
C521 O525 1.295 . S
C521 O526 1.235 . S
O522 Fe507 1.976 . S
O522 C516 1.287 . S
O523 Fe509 1.996 . S
O523 C516 1.255 . S
C524 O517 1.287 . S
C524 O518 1.255 . S
O525 Fe507 2.002 . S
O525 C521 1.295 . S
O526 Fe509 1.997 . S
O526 C521 1.235 . S
C527 O510 1.295 . S
C527 O511 1.235 . S
Fe528 O530 1.918 . S
Fe528 O533 1.997 . S
Fe528 O534 2.002 . S
Fe528 O539 1.976 . S
Fe528 O542 1.996 . S
Fe529 O530 1.918 . S
Fe529 O537 1.997 . S
Fe529 O540 1.996 . S
Fe529 O544 1.976 . S
Fe529 O547 2.002 . S
O530 Fe528 1.918 . S
O530 Fe529 1.918 . S
O530 Fe531 1.918 . S
Fe531 O530 1.918 . S
Fe531 O532 2.002 . S
Fe531 O541 1.976 . S
Fe531 O545 1.996 . S
Fe531 O548 1.997 . S
O532 Fe531 2.002 . S
O532 C549 1.295 . S
O533 Fe528 1.997 . S
O533 C549 1.235 . S
O534 Fe528 2.002 . S
O534 C535 1.295 . S
C535 O534 1.295 . S
C535 O537 1.235 . S
C536 O541 1.287 . S
C536 O542 1.255 . S
O537 Fe529 1.997 . S
O537 C535 1.235 . S
C538 O544 1.287 . S
C538 O545 1.255 . S
O539 Fe528 1.976 . S
O539 C546 1.287 . S
O540 Fe529 1.996 . S
O540 C546 1.255 . S
O541 Fe531 1.976 . S
O541 C536 1.287 . S
O542 Fe528 1.996 . S
O542 C536 1.255 . S
C543 O547 1.295 . S
C543 O548 1.235 . S
O544 Fe529 1.976 . S
O544 C538 1.287 . S
O545 Fe531 1.996 . S
O545 C538 1.255 . S
C546 O539 1.287 . S
C546 O540 1.255 . S
O547 Fe529 2.002 . S
O547 C543 1.295 . S
O548 Fe531 1.997 . S
O548 C543 1.235 . S
C549 O532 1.295 . S
C549 O533 1.235 . S
Fe550 O552 1.918 . S
Fe550 O555 1.997 . S
Fe550 O556 2.002 . S
Fe550 O561 1.976 . S
Fe550 O564 1.996 1_556 S
Fe551 O552 1.918 . S
Fe551 O559 1.997 . S
Fe551 O562 1.996 . S
Fe551 O566 1.976 . S
Fe551 O569 2.002 . S
O552 Fe550 1.918 . S
O552 Fe551 1.918 . S
O552 Fe553 1.918 . S
Fe553 O552 1.918 . S
Fe553 O554 2.002 . S
Fe553 O563 1.976 1_556 S
Fe553 O567 1.996 . S
Fe553 O570 1.997 . S
O554 Fe553 2.002 . S
O554 C571 1.295 . S
O555 Fe550 1.997 . S
O555 C571 1.235 . S
O556 Fe550 2.002 . S
O556 C557 1.295 . S
C557 O556 1.295 . S
C557 O559 1.235 . S
C558 O563 1.287 . S
C558 O564 1.255 . S
O559 Fe551 1.997 . S
O559 C557 1.235 . S
C560 O566 1.287 . S
C560 O567 1.255 . S
O561 Fe550 1.976 . S
O561 C568 1.287 . S
O562 Fe551 1.996 . S
O562 C568 1.255 . S
O563 Fe553 1.976 1_554 S
O563 C558 1.287 . S
O564 Fe550 1.996 1_554 S
O564 C558 1.255 . S
C565 O569 1.295 . S
C565 O570 1.235 . S
O566 Fe551 1.976 . S
O566 C560 1.287 . S
O567 Fe553 1.996 . S
O567 C560 1.255 . S
C568 O561 1.287 . S
C568 O562 1.255 . S
O569 Fe551 2.002 . S
O569 C565 1.295 . S
O570 Fe553 1.997 . S
O570 C565 1.235 . S
C571 O554 1.295 . S
C571 O555 1.235 . S
Fe572 O574 1.918 . S
Fe572 O577 1.997 . S
Fe572 O578 2.002 . S
Fe572 O583 1.976 . S
Fe572 O586 1.996 . S
Fe573 O574 1.918 . S
Fe573 O581 1.997 . S
Fe573 O584 1.996 . S
Fe573 O588 1.976 . S
Fe573 O591 2.002 . S
O574 Fe572 1.918 . S
O574 Fe573 1.918 . S
O574 Fe575 1.918 . S
Fe575 O574 1.918 . S
Fe575 O576 2.002 . S
Fe575 O585 1.976 . S
Fe575 O589 1.996 . S
Fe575 O592 1.997 . S
O576 Fe575 2.002 . S
O576 C593 1.295 . S
O577 Fe572 1.997 . S
O577 C593 1.235 . S
O578 Fe572 2.002 . S
O578 C579 1.295 . S
C579 O578 1.295 . S
C579 O581 1.235 . S
C580 O585 1.287 . S
C580 O586 1.255 . S
O581 Fe573 1.997 . S
O581 C579 1.235 . S
C582 O588 1.287 . S
C582 O589 1.255 . S
O583 Fe572 1.976 . S
O583 C590 1.287 . S
O584 Fe573 1.996 . S
O584 C590 1.255 . S
O585 Fe575 1.976 . S
O585 C580 1.287 . S
O586 Fe572 1.996 . S
O586 C580 1.255 . S
C587 O591 1.295 . S
C587 O592 1.235 . S
O588 Fe573 1.976 . S
O588 C582 1.287 . S
O589 Fe575 1.996 . S
O589 C582 1.255 . S
C590 O583 1.287 . S
C590 O584 1.255 . S
O591 Fe573 2.002 . S
O591 C587 1.295 . S
O592 Fe575 1.997 . S
O592 C587 1.235 . S
C593 O576 1.295 . S
C593 O577 1.235 . S
Fe594 O596 1.918 . S
Fe594 O599 1.997 . S
Fe594 O600 2.002 . S
Fe594 O605 1.976 . S
Fe594 O608 1.996 . S
Fe595 O596 1.918 . S
Fe595 O603 1.997 . S
Fe595 O606 1.996 . S
Fe595 O610 1.976 . S
Fe595 O613 2.002 . S
O596 Fe594 1.918 . S
O596 Fe595 1.918 . S
O596 Fe597 1.918 . S
Fe597 O596 1.918 . S
Fe597 O598 2.002 . S
Fe597 O607 1.976 . S
Fe597 O611 1.996 . S
Fe597 O614 1.997 . S
O598 Fe597 2.002 . S
O598 C615 1.295 . S
O599 Fe594 1.997 . S
O599 C615 1.235 . S
O600 Fe594 2.002 . S
O600 C601 1.295 . S
C601 O600 1.295 . S
C601 O603 1.235 . S
C602 O607 1.287 . S
C602 O608 1.255 . S
O603 Fe595 1.997 . S
O603 C601 1.235 . S
C604 O610 1.287 . S
C604 O611 1.255 . S
O605 Fe594 1.976 . S
O605 C612 1.287 . S
O606 Fe595 1.996 . S
O606 C612 1.255 . S
O607 Fe597 1.976 . S
O607 C602 1.287 . S
O608 Fe594 1.996 . S
O608 C602 1.255 . S
C609 O613 1.295 . S
C609 O614 1.235 . S
O610 Fe595 1.976 . S
O610 C604 1.287 . S
O611 Fe597 1.996 . S
O611 C604 1.255 . S
C612 O605 1.287 . S
C612 O606 1.255 . S
O613 Fe595 2.002 . S
O613 C609 1.295 . S
O614 Fe597 1.997 . S
O614 C609 1.235 . S
C615 O598 1.295 . S
C615 O599 1.235 . S
Fe616 O618 1.918 . S
Fe616 O621 1.997 . S
Fe616 O622 2.002 . S
Fe616 O627 1.976 . S
Fe616 O630 1.996 . S
Fe617 O618 1.918 . S
Fe617 O625 1.997 . S
Fe617 O628 1.996 . S
Fe617 O632 1.976 . S
Fe617 O635 2.002 . S
O618 Fe616 1.918 . S
O618 Fe617 1.918 . S
O618 Fe619 1.918 . S
Fe619 O618 1.918 . S
Fe619 O620 2.002 . S
Fe619 O629 1.976 . S
Fe619 O633 1.996 . S
Fe619 O636 1.997 . S
O620 Fe619 2.002 . S
O620 C637 1.295 . S
O621 Fe616 1.997 . S
O621 C637 1.235 . S
O622 Fe616 2.002 . S
O622 C623 1.295 . S
C623 O622 1.295 . S
C623 O625 1.235 . S
C624 O629 1.287 . S
C624 O630 1.255 . S
O625 Fe617 1.997 . S
O625 C623 1.235 . S
C626 O632 1.287 . S
C626 O633 1.255 . S
O627 Fe616 1.976 . S
O627 C634 1.287 . S
O628 Fe617 1.996 . S
O628 C634 1.255 . S
O629 Fe619 1.976 . S
O629 C624 1.287 . S
O630 Fe616 1.996 . S
O630 C624 1.255 . S
C631 O635 1.295 . S
C631 O636 1.235 . S
O632 Fe617 1.976 . S
O632 C626 1.287 . S
O633 Fe619 1.996 . S
O633 C626 1.255 . S
C634 O627 1.287 . S
C634 O628 1.255 . S
O635 Fe617 2.002 . S
O635 C631 1.295 . S
O636 Fe619 1.997 . S
O636 C631 1.235 . S
C637 O620 1.295 . S
C637 O621 1.235 . S
Fe638 O640 1.918 . S
Fe638 O643 1.997 . S
Fe638 O644 2.002 . S
Fe638 O649 1.976 1_554 S
Fe638 O652 1.996 . S
Fe639 O640 1.918 . S
Fe639 O647 1.997 . S
Fe639 O650 1.996 1_554 S
Fe639 O654 1.976 . S
Fe639 O657 2.002 . S
O640 Fe638 1.918 . S
O640 Fe639 1.918 . S
O640 Fe641 1.918 . S
Fe641 O640 1.918 . S
Fe641 O642 2.002 . S
Fe641 O651 1.976 . S
Fe641 O655 1.996 . S
Fe641 O658 1.997 . S
O642 Fe641 2.002 . S
O642 C659 1.295 . S
O643 Fe638 1.997 . S
O643 C659 1.235 . S
O644 Fe638 2.002 . S
O644 C645 1.295 . S
C645 O644 1.295 . S
C645 O647 1.235 . S
C646 O651 1.287 . S
C646 O652 1.255 . S
O647 Fe639 1.997 . S
O647 C645 1.235 . S
C648 O654 1.287 . S
C648 O655 1.255 . S
O649 Fe638 1.976 1_556 S
O649 C656 1.287 . S
O650 Fe639 1.996 1_556 S
O650 C656 1.255 . S
O651 Fe641 1.976 . S
O651 C646 1.287 . S
O652 Fe638 1.996 . S
O652 C646 1.255 . S
C653 O657 1.295 . S
C653 O658 1.235 . S
O654 Fe639 1.976 . S
O654 C648 1.287 . S
O655 Fe641 1.996 . S
O655 C648 1.255 . S
C656 O649 1.287 . S
C656 O650 1.255 . S
O657 Fe639 2.002 . S
O657 C653 1.295 . S
O658 Fe641 1.997 . S
O658 C653 1.235 . S
C659 O642 1.295 . S
C659 O643 1.235 . S
Fe660 O662 1.918 . S
Fe660 O665 1.997 . S
Fe660 O666 2.002 . S
Fe660 O671 1.976 . S
Fe660 O674 1.996 . S
Fe661 O662 1.918 . S
Fe661 O669 1.997 . S
Fe661 O672 1.996 . S
Fe661 O676 1.976 . S
Fe661 O679 2.002 . S
O662 Fe660 1.918 . S
O662 Fe661 1.918 . S
O662 Fe663 1.918 . S
Fe663 O662 1.918 . S
Fe663 O664 2.002 . S
Fe663 O673 1.976 . S
Fe663 O677 1.996 . S
Fe663 O680 1.997 . S
O664 Fe663 2.002 . S
O664 C681 1.295 . S
O665 Fe660 1.997 . S
O665 C681 1.235 . S
O666 Fe660 2.002 . S
O666 C667 1.295 . S
C667 O666 1.295 . S
C667 O669 1.235 . S
C668 O673 1.287 . S
C668 O674 1.255 . S
O669 Fe661 1.997 . S
O669 C667 1.235 . S
C670 O676 1.287 . S
C670 O677 1.255 . S
O671 Fe660 1.976 . S
O671 C678 1.287 . S
O672 Fe661 1.996 . S
O672 C678 1.255 . S
O673 Fe663 1.976 . S
O673 C668 1.287 . S
O674 Fe660 1.996 . S
O674 C668 1.255 . S
C675 O679 1.295 . S
C675 O680 1.235 . S
O676 Fe661 1.976 . S
O676 C670 1.287 . S
O677 Fe663 1.996 . S
O677 C670 1.255 . S
C678 O671 1.287 . S
C678 O672 1.255 . S
O679 Fe661 2.002 . S
O679 C675 1.295 . S
O680 Fe663 1.997 . S
O680 C675 1.235 . S
C681 O664 1.295 . S
C681 O665 1.235 . S
Fe682 O684 1.918 . S
Fe682 O687 1.997 . S
Fe682 O688 2.002 . S
Fe682 O693 1.976 . S
Fe682 O696 1.996 . S
Fe683 O684 1.918 . S
Fe683 O691 1.997 . S
Fe683 O694 1.996 . S
Fe683 O698 1.976 . S
Fe683 O701 2.002 . S
O684 Fe682 1.918 . S
O684 Fe683 1.918 . S
O684 Fe685 1.918 . S
Fe685 O684 1.918 . S
Fe685 O686 2.002 . S
Fe685 O695 1.976 . S
Fe685 O699 1.996 . S
Fe685 O702 1.997 . S
O686 Fe685 2.002 . S
O686 C703 1.295 . S
O687 Fe682 1.997 . S
O687 C703 1.235 . S
O688 Fe682 2.002 . S
O688 C689 1.295 . S
C689 O688 1.295 . S
C689 O691 1.235 . S
C690 O695 1.287 . S
C690 O696 1.255 . S
O691 Fe683 1.997 . S
O691 C689 1.235 . S
C692 O698 1.287 . S
C692 O699 1.255 . S
O693 Fe682 1.976 . S
O693 C700 1.287 . S
O694 Fe683 1.996 . S
O694 C700 1.255 . S
O695 Fe685 1.976 . S
O695 C690 1.287 . S
O696 Fe682 1.996 . S
O696 C690 1.255 . S
C697 O701 1.295 . S
C697 O702 1.235 . S
O698 Fe683 1.976 . S
O698 C692 1.287 . S
O699 Fe685 1.996 . S
O699 C692 1.255 . S
C700 O693 1.287 . S
C700 O694 1.255 . S
O701 Fe683 2.002 . S
O701 C697 1.295 . S
O702 Fe685 1.997 . S
O702 C697 1.235 . S
C703 O686 1.295 . S
C703 O687 1.235 . S
C704 C705 1.349 . S
C704 C706 1.327 . S
C704 H729 0.950 . S
C705 C704 1.349 . S
C705 C721 1.349 . S
C706 C704 1.327 . S
C706 C725 1.429 . S
C706 H730 0.950 . S
C707 C724 1.574 1_545 S
C707 C726 1.368 . S
C707 H731 0.949 . S
H708 C712 0.949 . S
C709 C710 1.349 . S
C709 C711 1.327 . S
C709 H732 0.950 . S
C710 C709 1.349 . S
C710 C722 1.349 . S
C711 C709 1.327 . S
C711 C727 1.429 . S
C711 H733 0.950 . S
C712 H708 0.949 . S
C712 C720 1.574 1_565 S
C712 C728 1.368 . S
H713 C721 0.950 . S
H714 C719 0.950 . S
H715 C720 0.949 . S
H716 C722 0.950 . S
H717 C723 0.950 . S
H718 C724 0.949 . S
C719 H714 0.950 . S
C719 C721 1.327 . S
C719 C725 1.429 . S
C720 C712 1.574 1_545 S
C720 H715 0.949 . S
C720 C726 1.368 . S
C721 C705 1.349 . S
C721 H713 0.950 . S
C721 C719 1.327 . S
C722 C710 1.349 . S
C722 H716 0.950 . S
C722 C723 1.327 . S
C723 H717 0.950 . S
C723 C722 1.327 . S
C723 C727 1.429 . S
C724 C707 1.574 1_565 S
C724 H718 0.949 . S
C724 C728 1.368 . S
C725 C706 1.429 . S
C725 C719 1.429 . S
C725 C726 1.523 . S
C726 C707 1.368 . S
C726 C720 1.368 . S
C726 C725 1.523 . S
C727 C711 1.429 . S
C727 C723 1.429 . S
C727 C728 1.523 . S
C728 C712 1.368 . S
C728 C724 1.368 . S
C728 C727 1.523 . S
H729 C704 0.950 . S
H730 C706 0.950 . S
H731 C707 0.949 . S
H732 C709 0.950 . S
H733 C711 0.950 . S
C734 C735 1.349 . S
C734 C736 1.327 . S
C734 H759 0.950 . S
C735 C734 1.349 . S
C735 C751 1.349 . S
C736 C734 1.327 . S
C736 C755 1.429 . S
C736 H760 0.950 . S
C737 C754 1.574 . S
C737 C756 1.368 . S
C737 H761 0.949 . S
H738 C742 0.949 . S
C739 C740 1.349 . S
C739 C741 1.327 . S
C739 H762 0.950 . S
C740 C739 1.349 . S
C740 C752 1.349 . S
C741 C739 1.327 . S
C741 C757 1.429 . S
C741 H763 0.950 . S
C742 H738 0.949 . S
C742 C750 1.574 . S
C742 C758 1.368 . S
H743 C751 0.950 . S
H744 C749 0.950 . S
H745 C750 0.949 . S
H746 C752 0.950 . S
H747 C753 0.950 . S
H748 C754 0.949 . S
C749 H744 0.950 . S
C749 C751 1.327 . S
C749 C755 1.429 . S
C750 C742 1.574 . S
C750 H745 0.949 . S
C750 C756 1.368 . S
C751 C735 1.349 . S
C751 H743 0.950 . S
C751 C749 1.327 . S
C752 C740 1.349 . S
C752 H746 0.950 . S
C752 C753 1.327 . S
C753 H747 0.950 . S
C753 C752 1.327 . S
C753 C757 1.429 . S
C754 C737 1.574 . S
C754 H748 0.949 . S
C754 C758 1.368 . S
C755 C736 1.429 . S
C755 C749 1.429 . S
C755 C756 1.523 . S
C756 C737 1.368 . S
C756 C750 1.368 . S
C756 C755 1.523 . S
C757 C741 1.429 . S
C757 C753 1.429 . S
C757 C758 1.523 . S
C758 C742 1.368 . S
C758 C754 1.368 . S
C758 C757 1.523 . S
H759 C734 0.950 . S
H760 C736 0.950 . S
H761 C737 0.949 . S
H762 C739 0.950 . S
H763 C741 0.950 . S
C764 C765 1.349 . S
C764 C766 1.327 . S
C764 H789 0.950 . S
C765 C764 1.349 . S
C765 C781 1.349 . S
C766 C764 1.327 . S
C766 C785 1.429 . S
C766 H790 0.950 . S
C767 C784 1.574 1_545 S
C767 C786 1.368 . S
C767 H791 0.949 . S
H768 C772 0.949 . S
C769 C770 1.349 . S
C769 C771 1.327 . S
C769 H792 0.950 . S
C770 C769 1.349 . S
C770 C782 1.349 . S
C771 C769 1.327 . S
C771 C787 1.429 . S
C771 H793 0.950 . S
C772 H768 0.949 . S
C772 C780 1.574 1_565 S
C772 C788 1.368 . S
H773 C781 0.950 . S
H774 C779 0.950 . S
H775 C780 0.949 . S
H776 C782 0.950 . S
H777 C783 0.950 . S
H778 C784 0.949 . S
C779 H774 0.950 . S
C779 C781 1.327 . S
C779 C785 1.429 . S
C780 C772 1.574 1_545 S
C780 H775 0.949 . S
C780 C786 1.368 . S
C781 C765 1.349 . S
C781 H773 0.950 . S
C781 C779 1.327 . S
C782 C770 1.349 . S
C782 H776 0.950 . S
C782 C783 1.327 . S
C783 H777 0.950 . S
C783 C782 1.327 . S
C783 C787 1.429 . S
C784 C767 1.574 1_565 S
C784 H778 0.949 . S
C784 C788 1.368 . S
C785 C766 1.429 . S
C785 C779 1.429 . S
C785 C786 1.523 . S
C786 C767 1.368 . S
C786 C780 1.368 . S
C786 C785 1.523 . S
C787 C771 1.429 . S
C787 C783 1.429 . S
C787 C788 1.523 . S
C788 C772 1.368 . S
C788 C784 1.368 . S
C788 C787 1.523 . S
H789 C764 0.950 . S
H790 C766 0.950 . S
H791 C767 0.949 . S
H792 C769 0.950 . S
H793 C771 0.950 . S
C794 C795 1.349 . S
C794 C796 1.327 . S
C794 H819 0.950 . S
C795 C794 1.349 . S
C795 C811 1.349 . S
C796 C794 1.327 . S
C796 C815 1.429 . S
C796 H820 0.950 . S
C797 C814 1.574 . S
C797 C816 1.368 1_556 S
C797 H821 0.949 . S
H798 C802 0.949 . S
C799 C800 1.349 . S
C799 C801 1.327 . S
C799 H822 0.950 . S
C800 C799 1.349 . S
C800 C812 1.349 . S
C801 C799 1.327 . S
C801 C817 1.429 . S
C801 H823 0.950 . S
C802 H798 0.949 . S
C802 C810 1.574 . S
C802 C818 1.368 1_554 S
H803 C811 0.950 1_556 S
H804 C809 0.962 . S
H805 C810 0.949 . S
H806 C812 0.950 1_554 S
H807 C813 0.962 . S
H808 C814 0.949 . S
C809 H804 0.962 . S
C809 C811 1.323 1_556 S
C809 C815 1.421 1_556 S
C810 C802 1.574 . S
C810 H805 0.949 . S
C810 C816 1.368 . S
C811 C795 1.349 . S
C811 H803 0.950 1_554 S
C811 C809 1.323 1_554 S
C812 C800 1.349 . S
C812 H806 0.950 1_556 S
C812 C813 1.323 1_556 S
C813 H807 0.962 . S
C813 C812 1.323 1_554 S
C813 C817 1.421 1_554 S
C814 C797 1.574 . S
C814 H808 0.949 . S
C814 C818 1.368 . S
C815 C796 1.429 . S
C815 C809 1.421 1_554 S
C815 C816 1.523 . S
C816 C797 1.368 1_554 S
C816 C810 1.368 . S
C816 C815 1.523 . S
C817 C801 1.429 . S
C817 C813 1.421 1_556 S
C817 C818 1.523 . S
C818 C802 1.368 1_556 S
C818 C814 1.368 . S
C818 C817 1.523 . S
H819 C794 0.950 . S
H820 C796 0.950 . S
H821 C797 0.949 . S
H822 C799 0.950 . S
H823 C801 0.950 . S
C824 C825 1.349 . S
C824 C826 1.327 . S
C824 H849 0.950 . S
C825 C824 1.349 . S
C825 C841 1.349 . S
C826 C824 1.327 . S
C826 C845 1.429 . S
C826 H850 0.950 . S
C827 C844 1.574 1_565 S
C827 C846 1.368 . S
C827 H851 0.949 . S
H828 C832 0.949 . S
C829 C830 1.349 . S
C829 C831 1.327 . S
C829 H852 0.950 . S
C830 C829 1.349 . S
C830 C842 1.349 . S
C831 C829 1.327 . S
C831 C847 1.429 . S
C831 H853 0.950 . S
C832 H828 0.949 . S
C832 C840 1.574 1_545 S
C832 C848 1.368 . S
H833 C841 0.950 . S
H834 C839 0.950 . S
H835 C840 0.949 . S
H836 C842 0.950 . S
H837 C843 0.950 . S
H838 C844 0.949 . S
C839 H834 0.950 . S
C839 C841 1.327 . S
C839 C845 1.429 . S
C840 C832 1.574 1_565 S
C840 H835 0.949 . S
C840 C846 1.368 . S
C841 C825 1.349 . S
C841 H833 0.950 . S
C841 C839 1.327 . S
C842 C830 1.349 . S
C842 H836 0.950 . S
C842 C843 1.327 . S
C843 H837 0.950 . S
C843 C842 1.327 . S
C843 C847 1.429 . S
C844 C827 1.574 1_545 S
C844 H838 0.949 . S
C844 C848 1.368 . S
C845 C826 1.429 . S
C845 C839 1.429 . S
C845 C846 1.523 . S
C846 C827 1.368 . S
C846 C840 1.368 . S
C846 C845 1.523 . S
C847 C831 1.429 . S
C847 C843 1.429 . S
C847 C848 1.523 . S
C848 C832 1.368 . S
C848 C844 1.368 . S
C848 C847 1.523 . S
H849 C824 0.950 . S
H850 C826 0.950 . S
H851 C827 0.949 . S
H852 C829 0.950 . S
H853 C831 0.950 . S
C854 C855 1.349 . S
C854 C856 1.327 . S
C854 H879 0.950 . S
C855 C854 1.349 . S
C855 C871 1.349 . S
C856 C854 1.327 . S
C856 C875 1.429 . S
C856 H880 0.950 . S
C857 C874 1.574 . S
C857 C876 1.368 . S
C857 H881 0.949 . S
H858 C862 0.949 . S
C859 C860 1.349 . S
C859 C861 1.327 . S
C859 H882 0.950 . S
C860 C859 1.349 . S
C860 C872 1.349 . S
C861 C859 1.327 . S
C861 C877 1.429 . S
C861 H883 0.950 . S
C862 H858 0.949 . S
C862 C870 1.574 . S
C862 C878 1.368 . S
H863 C871 0.950 . S
H864 C869 0.950 . S
H865 C870 0.949 . S
H866 C872 0.950 . S
H867 C873 0.950 . S
H868 C874 0.949 . S
C869 H864 0.950 . S
C869 C871 1.327 . S
C869 C875 1.429 . S
C870 C862 1.574 . S
C870 H865 0.949 . S
C870 C876 1.368 . S
C871 C855 1.349 . S
C871 H863 0.950 . S
C871 C869 1.327 . S
C872 C860 1.349 . S
C872 H866 0.950 . S
C872 C873 1.327 . S
C873 H867 0.950 . S
C873 C872 1.327 . S
C873 C877 1.429 . S
C874 C857 1.574 . S
C874 H868 0.949 . S
C874 C878 1.368 . S
C875 C856 1.429 . S
C875 C869 1.429 . S
C875 C876 1.523 . S
C876 C857 1.368 . S
C876 C870 1.368 . S
C876 C875 1.523 . S
C877 C861 1.429 . S
C877 C873 1.429 . S
C877 C878 1.523 . S
C878 C862 1.368 . S
C878 C874 1.368 . S
C878 C877 1.523 . S
H879 C854 0.950 . S
H880 C856 0.950 . S
H881 C857 0.949 . S
H882 C859 0.950 . S
H883 C861 0.950 . S
C884 C885 1.349 . S
C884 C886 1.327 . S
C884 H909 0.950 . S
C885 C884 1.349 . S
C885 C901 1.349 . S
C886 C884 1.327 . S
C886 C905 1.429 . S
C886 H910 0.950 . S
C887 C904 1.574 1_545 S
C887 C906 1.368 . S
C887 H911 0.949 . S
H888 C892 0.949 . S
C889 C890 1.349 . S
C889 C891 1.327 . S
C889 H912 0.950 . S
C890 C889 1.349 . S
C890 C902 1.349 . S
C891 C889 1.327 . S
C891 C907 1.429 . S
C891 H913 0.950 . S
C892 H888 0.949 . S
C892 C900 1.574 1_565 S
C892 C908 1.368 . S
H893 C901 0.950 . S
H894 C899 0.950 . S
H895 C900 0.949 . S
H896 C902 0.950 . S
H897 C903 0.950 . S
H898 C904 0.949 . S
C899 H894 0.950 . S
C899 C901 1.327 . S
C899 C905 1.429 . S
C900 C892 1.574 1_545 S
C900 H895 0.949 . S
C900 C906 1.368 . S
C901 C885 1.349 . S
C901 H893 0.950 . S
C901 C899 1.327 . S
C902 C890 1.349 . S
C902 H896 0.950 . S
C902 C903 1.327 . S
C903 H897 0.950 . S
C903 C902 1.327 . S
C903 C907 1.429 . S
C904 C887 1.574 1_565 S
C904 H898 0.949 . S
C904 C908 1.368 . S
C905 C886 1.429 . S
C905 C899 1.429 . S
C905 C906 1.523 . S
C906 C887 1.368 . S
C906 C900 1.368 . S
C906 C905 1.523 . S
C907 C891 1.429 . S
C907 C903 1.429 . S
C907 C908 1.523 . S
C908 C892 1.368 . S
C908 C904 1.368 . S
C908 C907 1.523 . S
H909 C884 0.950 . S
H910 C886 0.950 . S
H911 C887 0.949 . S
H912 C889 0.950 . S
H913 C891 0.950 . S
C914 C915 1.349 . S
C914 C916 1.323 1_554 S
C914 H939 0.950 1_554 S
C915 C914 1.349 . S
C915 C931 1.349 . S
C916 C914 1.323 1_556 S
C916 C935 1.420 1_556 S
C916 H940 0.963 . S
C917 C934 1.574 . S
C917 C936 1.368 . S
C917 H941 0.949 . S
H918 C922 0.949 . S
C919 C920 1.349 . S
C919 C921 1.323 1_556 S
C919 H942 0.950 1_556 S
C920 C919 1.349 . S
C920 C932 1.349 . S
C921 C919 1.323 1_554 S
C921 C937 1.420 1_554 S
C921 H943 0.963 . S
C922 H918 0.949 . S
C922 C930 1.574 . S
C922 C938 1.368 . S
H923 C931 0.950 . S
H924 C929 0.950 . S
H925 C930 0.949 . S
H926 C932 0.950 . S
H927 C933 0.950 . S
H928 C934 0.949 . S
C929 H924 0.950 . S
C929 C931 1.327 . S
C929 C935 1.429 . S
C930 C922 1.574 . S
C930 H925 0.949 . S
C930 C936 1.368 1_556 S
C931 C915 1.349 . S
C931 H923 0.950 . S
C931 C929 1.327 . S
C932 C920 1.349 . S
C932 H926 0.950 . S
C932 C933 1.327 . S
C933 H927 0.950 . S
C933 C932 1.327 . S
C933 C937 1.429 . S
C934 C917 1.574 . S
C934 H928 0.949 . S
C934 C938 1.368 1_554 S
C935 C916 1.420 1_554 S
C935 C929 1.429 . S
C935 C936 1.523 . S
C936 C917 1.368 . S
C936 C930 1.368 1_554 S
C936 C935 1.523 . S
C937 C921 1.420 1_556 S
C937 C933 1.429 . S
C937 C938 1.523 . S
C938 C922 1.368 . S
C938 C934 1.368 1_556 S
C938 C937 1.523 . S
H939 C914 0.950 1_556 S
H940 C916 0.963 . S
H941 C917 0.949 . S
H942 C919 0.950 1_554 S
H943 C921 0.963 . S
C944 C945 1.349 . S
C944 C946 1.327 . S
C944 H969 0.950 . S
C945 C944 1.349 . S
C945 C961 1.349 . S
C946 C944 1.327 . S
C946 C965 1.429 . S
C946 H970 0.950 . S
C947 C964 1.574 . S
C947 C966 1.368 . S
C947 H971 0.949 . S
H948 C952 0.949 . S
C949 C950 1.349 . S
C949 C951 1.327 . S
C949 H972 0.950 . S
C950 C949 1.349 . S
C950 C962 1.349 . S
C951 C949 1.327 . S
C951 C967 1.429 . S
C951 H973 0.950 . S
C952 H948 0.949 . S
C952 C960 1.574 . S
C952 C968 1.368 . S
H953 C961 0.950 . S
H954 C959 0.950 . S
H955 C960 0.949 . S
H956 C962 0.950 . S
H957 C963 0.950 . S
H958 C964 0.949 . S
C959 H954 0.950 . S
C959 C961 1.327 . S
C959 C965 1.429 . S
C960 C952 1.574 . S
C960 H955 0.949 . S
C960 C966 1.368 . S
C961 C945 1.349 . S
C961 H953 0.950 . S
C961 C959 1.327 . S
C962 C950 1.349 . S
C962 H956 0.950 . S
C962 C963 1.327 . S
C963 H957 0.950 . S
C963 C962 1.327 . S
C963 C967 1.429 . S
C964 C947 1.574 . S
C964 H958 0.949 . S
C964 C968 1.368 . S
C965 C946 1.429 . S
C965 C959 1.429 . S
C965 C966 1.523 . S
C966 C947 1.368 . S
C966 C960 1.368 . S
C966 C965 1.523 . S
C967 C951 1.429 . S
C967 C963 1.429 . S
C967 C968 1.523 . S
C968 C952 1.368 . S
C968 C964 1.368 . S
C968 C967 1.523 . S
H969 C944 0.950 . S
H970 C946 0.950 . S
H971 C947 0.949 . S
H972 C949 0.950 . S
H973 C951 0.950 . S
C974 C975 1.349 . S
C974 C976 1.327 . S
C974 H999 0.950 . S
C975 C974 1.349 . S
C975 C991 1.349 . S
C976 C974 1.327 . S
C976 C995 1.429 . S
C976 H1000 0.950 . S
C977 C994 1.574 . S
C977 C996 1.368 1_554 S
C977 H1001 0.949 . S
H978 C982 0.949 . S
C979 C980 1.349 . S
C979 C981 1.327 . S
C979 H1002 0.950 . S
C980 C979 1.349 . S
C980 C992 1.349 . S
C981 C979 1.327 . S
C981 C997 1.429 . S
C981 H1003 0.950 . S
C982 H978 0.949 . S
C982 C990 1.574 . S
C982 C998 1.368 1_556 S
H983 C991 0.950 1_554 S
H984 C989 0.962 . S
H985 C990 0.949 . S
H986 C992 0.950 1_556 S
H987 C993 0.962 . S
H988 C994 0.949 . S
C989 H984 0.962 . S
C989 C991 1.323 1_554 S
C989 C995 1.421 1_554 S
C990 C982 1.574 . S
C990 H985 0.949 . S
C990 C996 1.368 . S
C991 C975 1.349 . S
C991 H983 0.950 1_556 S
C991 C989 1.323 1_556 S
C992 C980 1.349 . S
C992 H986 0.950 1_554 S
C992 C993 1.323 1_554 S
C993 H987 0.962 . S
C993 C992 1.323 1_556 S
C993 C997 1.421 1_556 S
C994 C977 1.574 . S
C994 H988 0.949 . S
C994 C998 1.368 . S
C995 C976 1.429 . S
C995 C989 1.421 1_556 S
C995 C996 1.523 . S
C996 C977 1.368 1_556 S
C996 C990 1.368 . S
C996 C995 1.523 . S
C997 C981 1.429 . S
C997 C993 1.421 1_554 S
C997 C998 1.523 . S
C998 C982 1.368 1_554 S
C998 C994 1.368 . S
C998 C997 1.523 . S
H999 C974 0.950 . S
H1000 C976 0.950 . S
H1001 C977 0.949 . S
H1002 C979 0.950 . S
H1003 C981 0.950 . S
C1004 C1005 1.349 . S
C1004 C1006 1.327 . S
C1004 H1029 0.950 . S
C1005 C1004 1.349 . S
C1005 C1021 1.349 . S
C1006 C1004 1.327 . S
C1006 C1025 1.429 . S
C1006 H1030 0.950 . S
C1007 C1024 1.574 . S
C1007 C1026 1.368 . S
C1007 H1031 0.949 . S
H1008 C1012 0.949 . S
C1009 C1010 1.349 . S
C1009 C1011 1.327 . S
C1009 H1032 0.950 . S
C1010 C1009 1.349 . S
C1010 C1022 1.349 . S
C1011 C1009 1.327 . S
C1011 C1027 1.429 . S
C1011 H1033 0.950 . S
C1012 H1008 0.949 . S
C1012 C1020 1.574 . S
C1012 C1028 1.368 . S
H1013 C1021 0.950 . S
H1014 C1019 0.950 . S
H1015 C1020 0.949 . S
H1016 C1022 0.950 . S
H1017 C1023 0.950 . S
H1018 C1024 0.949 . S
C1019 H1014 0.950 . S
C1019 C1021 1.327 . S
C1019 C1025 1.429 . S
C1020 C1012 1.574 . S
C1020 H1015 0.949 . S
C1020 C1026 1.368 . S
C1021 C1005 1.349 . S
C1021 H1013 0.950 . S
C1021 C1019 1.327 . S
C1022 C1010 1.349 . S
C1022 H1016 0.950 . S
C1022 C1023 1.327 . S
C1023 H1017 0.950 . S
C1023 C1022 1.327 . S
C1023 C1027 1.429 . S
C1024 C1007 1.574 . S
C1024 H1018 0.949 . S
C1024 C1028 1.368 . S
C1025 C1006 1.429 . S
C1025 C1019 1.429 . S
C1025 C1026 1.523 . S
C1026 C1007 1.368 . S
C1026 C1020 1.368 . S
C1026 C1025 1.523 . S
C1027 C1011 1.429 . S
C1027 C1023 1.429 . S
C1027 C1028 1.523 . S
C1028 C1012 1.368 . S
C1028 C1024 1.368 . S
C1028 C1027 1.523 . S
H1029 C1004 0.950 . S
H1030 C1006 0.950 . S
H1031 C1007 0.949 . S
H1032 C1009 0.950 . S
H1033 C1011 0.950 . S
C1034 C1035 1.349 . S
C1034 C1036 1.327 . S
C1034 H1059 0.950 . S
C1035 C1034 1.349 . S
C1035 C1051 1.349 . S
C1036 C1034 1.327 . S
C1036 C1055 1.429 . S
C1036 H1060 0.950 . S
C1037 C1054 1.574 . S
C1037 C1056 1.368 . S
C1037 H1061 0.949 . S
H1038 C1042 0.949 . S
C1039 C1040 1.349 . S
C1039 C1041 1.327 . S
C1039 H1062 0.950 . S
C1040 C1039 1.349 . S
C1040 C1052 1.349 . S
C1041 C1039 1.327 . S
C1041 C1057 1.429 . S
C1041 H1063 0.950 . S
C1042 H1038 0.949 . S
C1042 C1050 1.574 . S
C1042 C1058 1.368 . S
H1043 C1051 0.950 . S
H1044 C1049 0.950 . S
H1045 C1050 0.949 . S
H1046 C1052 0.950 . S
H1047 C1053 0.950 . S
H1048 C1054 0.949 . S
C1049 H1044 0.950 . S
C1049 C1051 1.327 . S
C1049 C1055 1.429 . S
C1050 C1042 1.574 . S
C1050 H1045 0.949 . S
C1050 C1056 1.368 . S
C1051 C1035 1.349 . S
C1051 H1043 0.950 . S
C1051 C1049 1.327 . S
C1052 C1040 1.349 . S
C1052 H1046 0.950 . S
C1052 C1053 1.327 . S
C1053 H1047 0.950 . S
C1053 C1052 1.327 . S
C1053 C1057 1.429 . S
C1054 C1037 1.574 . S
C1054 H1048 0.949 . S
C1054 C1058 1.368 . S
C1055 C1036 1.429 . S
C1055 C1049 1.429 . S
C1055 C1056 1.523 . S
C1056 C1037 1.368 . S
C1056 C1050 1.368 . S
C1056 C1055 1.523 . S
C1057 C1041 1.429 . S
C1057 C1053 1.429 . S
C1057 C1058 1.523 . S
C1058 C1042 1.368 . S
C1058 C1054 1.368 . S
C1058 C1057 1.523 . S
H1059 C1034 0.950 . S
H1060 C1036 0.950 . S
H1061 C1037 0.949 . S
H1062 C1039 0.950 . S
H1063 C1041 0.950 . S
C1064 C1065 1.349 . S
C1064 C1066 1.327 . S
C1064 H1089 0.950 . S
C1065 C1064 1.349 . S
C1065 C1081 1.349 . S
C1066 C1064 1.327 . S
C1066 C1085 1.429 . S
C1066 H1090 0.950 . S
C1067 C1084 1.574 . S
C1067 C1086 1.368 . S
C1067 H1091 0.949 . S
H1068 C1072 0.949 . S
C1069 C1070 1.349 . S
C1069 C1071 1.327 . S
C1069 H1092 0.950 . S
C1070 C1069 1.349 . S
C1070 C1082 1.349 . S
C1071 C1069 1.327 . S
C1071 C1087 1.429 . S
C1071 H1093 0.950 . S
C1072 H1068 0.949 . S
C1072 C1080 1.574 . S
C1072 C1088 1.368 . S
H1073 C1081 0.950 . S
H1074 C1079 0.950 . S
H1075 C1080 0.949 . S
H1076 C1082 0.950 . S
H1077 C1083 0.950 . S
H1078 C1084 0.949 . S
C1079 H1074 0.950 . S
C1079 C1081 1.327 . S
C1079 C1085 1.429 . S
C1080 C1072 1.574 . S
C1080 H1075 0.949 . S
C1080 C1086 1.368 . S
C1081 C1065 1.349 . S
C1081 H1073 0.950 . S
C1081 C1079 1.327 . S
C1082 C1070 1.349 . S
C1082 H1076 0.950 . S
C1082 C1083 1.327 . S
C1083 H1077 0.950 . S
C1083 C1082 1.327 . S
C1083 C1087 1.429 . S
C1084 C1067 1.574 . S
C1084 H1078 0.949 . S
C1084 C1088 1.368 . S
C1085 C1066 1.429 . S
C1085 C1079 1.429 . S
C1085 C1086 1.523 . S
C1086 C1067 1.368 . S
C1086 C1080 1.368 . S
C1086 C1085 1.523 . S
C1087 C1071 1.429 . S
C1087 C1083 1.429 . S
C1087 C1088 1.523 . S
C1088 C1072 1.368 . S
C1088 C1084 1.368 . S
C1088 C1087 1.523 . S
H1089 C1064 0.950 . S
H1090 C1066 0.950 . S
H1091 C1067 0.949 . S
H1092 C1069 0.950 . S
H1093 C1071 0.950 . S
C1094 C1095 1.349 . S
C1094 C1096 1.323 1_556 S
C1094 H1119 0.950 1_556 S
C1095 C1094 1.349 . S
C1095 C1111 1.349 . S
C1096 C1094 1.323 1_554 S
C1096 C1115 1.420 1_554 S
C1096 H1120 0.963 . S
C1097 C1114 1.574 . S
C1097 C1116 1.368 . S
C1097 H1121 0.949 . S
H1098 C1102 0.949 . S
C1099 C1100 1.349 . S
C1099 C1101 1.323 1_554 S
C1099 H1122 0.950 1_554 S
C1100 C1099 1.349 . S
C1100 C1112 1.349 . S
C1101 C1099 1.323 1_556 S
C1101 C1117 1.420 1_556 S
C1101 H1123 0.963 . S
C1102 H1098 0.949 . S
C1102 C1110 1.574 . S
C1102 C1118 1.368 . S
H1103 C1111 0.950 . S
H1104 C1109 0.950 . S
H1105 C1110 0.949 . S
H1106 C1112 0.950 . S
H1107 C1113 0.950 . S
H1108 C1114 0.949 . S
C1109 H1104 0.950 . S
C1109 C1111 1.327 . S
C1109 C1115 1.429 . S
C1110 C1102 1.574 . S
C1110 H1105 0.949 . S
C1110 C1116 1.368 1_554 S
C1111 C1095 1.349 . S
C1111 H1103 0.950 . S
C1111 C1109 1.327 . S
C1112 C1100 1.349 . S
C1112 H1106 0.950 . S
C1112 C1113 1.327 . S
C1113 H1107 0.950 . S
C1113 C1112 1.327 . S
C1113 C1117 1.429 . S
C1114 C1097 1.574 . S
C1114 H1108 0.949 . S
C1114 C1118 1.368 1_556 S
C1115 C1096 1.420 1_556 S
C1115 C1109 1.429 . S
C1115 C1116 1.523 . S
C1116 C1097 1.368 . S
C1116 C1110 1.368 1_556 S
C1116 C1115 1.523 . S
C1117 C1101 1.420 1_554 S
C1117 C1113 1.429 . S
C1117 C1118 1.523 . S
C1118 C1102 1.368 . S
C1118 C1114 1.368 1_554 S
C1118 C1117 1.523 . S
H1119 C1094 0.950 1_554 S
H1120 C1096 0.963 . S
H1121 C1097 0.949 . S
H1122 C1099 0.950 1_556 S
H1123 C1101 0.963 . S
C1124 C1125 1.349 . S
C1124 C1126 1.327 . S
C1124 H1149 0.950 . S
C1125 C1124 1.349 . S
C1125 C1141 1.349 . S
C1126 C1124 1.327 . S
C1126 C1145 1.429 . S
C1126 H1150 0.950 . S
C1127 C1144 1.574 . S
C1127 C1146 1.368 . S
C1127 H1151 0.949 . S
H1128 C1132 0.949 . S
C1129 C1130 1.349 . S
C1129 C1131 1.327 . S
C1129 H1152 0.950 . S
C1130 C1129 1.349 . S
C1130 C1142 1.349 . S
C1131 C1129 1.327 . S
C1131 C1147 1.429 . S
C1131 H1153 0.950 . S
C1132 H1128 0.949 . S
C1132 C1140 1.574 . S
C1132 C1148 1.368 . S
H1133 C1141 0.950 . S
H1134 C1139 0.950 . S
H1135 C1140 0.949 . S
H1136 C1142 0.950 . S
H1137 C1143 0.950 . S
H1138 C1144 0.949 . S
C1139 H1134 0.950 . S
C1139 C1141 1.327 . S
C1139 C1145 1.429 . S
C1140 C1132 1.574 . S
C1140 H1135 0.949 . S
C1140 C1146 1.368 . S
C1141 C1125 1.349 . S
C1141 H1133 0.950 . S
C1141 C1139 1.327 . S
C1142 C1130 1.349 . S
C1142 H1136 0.950 . S
C1142 C1143 1.327 . S
C1143 H1137 0.950 . S
C1143 C1142 1.327 . S
C1143 C1147 1.429 . S
C1144 C1127 1.574 . S
C1144 H1138 0.949 . S
C1144 C1148 1.368 . S
C1145 C1126 1.429 . S
C1145 C1139 1.429 . S
C1145 C1146 1.523 . S
C1146 C1127 1.368 . S
C1146 C1140 1.368 . S
C1146 C1145 1.523 . S
C1147 C1131 1.429 . S
C1147 C1143 1.429 . S
C1147 C1148 1.523 . S
C1148 C1132 1.368 . S
C1148 C1144 1.368 . S
C1148 C1147 1.523 . S
H1149 C1124 0.950 . S
H1150 C1126 0.950 . S
H1151 C1127 0.949 . S
H1152 C1129 0.950 . S
H1153 C1131 0.950 . S
C1154 C1155 1.349 . S
C1154 C1156 1.327 . S
C1154 H1179 0.950 . S
C1155 C1154 1.349 . S
C1155 C1171 1.349 . S
C1156 C1154 1.327 . S
C1156 C1175 1.429 . S
C1156 H1180 0.950 . S
C1157 C1174 1.574 . S
C1157 C1176 1.368 . S
C1157 H1181 0.949 . S
H1158 C1162 0.949 . S
C1159 C1160 1.349 . S
C1159 C1161 1.327 . S
C1159 H1182 0.950 . S
C1160 C1159 1.349 . S
C1160 C1172 1.349 . S
C1161 C1159 1.327 . S
C1161 C1177 1.429 . S
C1161 H1183 0.950 . S
C1162 H1158 0.949 . S
C1162 C1170 1.574 . S
C1162 C1178 1.368 . S
H1163 C1171 0.950 . S
H1164 C1169 0.950 . S
H1165 C1170 0.949 . S
H1166 C1172 0.950 . S
H1167 C1173 0.950 . S
H1168 C1174 0.949 . S
C1169 H1164 0.950 . S
C1169 C1171 1.327 . S
C1169 C1175 1.429 . S
C1170 C1162 1.574 . S
C1170 H1165 0.949 . S
C1170 C1176 1.368 . S
C1171 C1155 1.349 . S
C1171 H1163 0.950 . S
C1171 C1169 1.327 . S
C1172 C1160 1.349 . S
C1172 H1166 0.950 . S
C1172 C1173 1.327 . S
C1173 H1167 0.950 . S
C1173 C1172 1.327 . S
C1173 C1177 1.429 . S
C1174 C1157 1.574 . S
C1174 H1168 0.949 . S
C1174 C1178 1.368 . S
C1175 C1156 1.429 . S
C1175 C1169 1.429 . S
C1175 C1176 1.523 . S
C1176 C1157 1.368 . S
C1176 C1170 1.368 . S
C1176 C1175 1.523 . S
C1177 C1161 1.429 . S
C1177 C1173 1.429 . S
C1177 C1178 1.523 . S
C1178 C1162 1.368 . S
C1178 C1174 1.368 . S
C1178 C1177 1.523 . S
H1179 C1154 0.950 . S
H1180 C1156 0.950 . S
H1181 C1157 0.949 . S
H1182 C1159 0.950 . S
H1183 C1161 0.950 . S
C1184 C1185 1.349 . S
C1184 C1186 1.327 . S
C1184 H1209 0.950 . S
C1185 C1184 1.349 . S
C1185 C1201 1.349 . S
C1186 C1184 1.327 . S
C1186 C1205 1.429 . S
C1186 H1210 0.950 . S
C1187 C1204 1.574 . S
C1187 C1206 1.368 . S
C1187 H1211 0.949 . S
H1188 C1192 0.949 . S
C1189 C1190 1.349 . S
C1189 C1191 1.327 . S
C1189 H1212 0.950 . S
C1190 C1189 1.349 . S
C1190 C1202 1.349 . S
C1191 C1189 1.327 . S
C1191 C1207 1.429 . S
C1191 H1213 0.950 . S
C1192 H1188 0.949 . S
C1192 C1200 1.574 . S
C1192 C1208 1.368 . S
H1193 C1201 0.950 . S
H1194 C1199 0.950 . S
H1195 C1200 0.949 . S
H1196 C1202 0.950 . S
H1197 C1203 0.950 . S
H1198 C1204 0.949 . S
C1199 H1194 0.950 . S
C1199 C1201 1.327 . S
C1199 C1205 1.429 . S
C1200 C1192 1.574 . S
C1200 H1195 0.949 . S
C1200 C1206 1.368 . S
C1201 C1185 1.349 . S
C1201 H1193 0.950 . S
C1201 C1199 1.327 . S
C1202 C1190 1.349 . S
C1202 H1196 0.950 . S
C1202 C1203 1.327 . S
C1203 H1197 0.950 . S
C1203 C1202 1.327 . S
C1203 C1207 1.429 . S
C1204 C1187 1.574 . S
C1204 H1198 0.949 . S
C1204 C1208 1.368 . S
C1205 C1186 1.429 . S
C1205 C1199 1.429 . S
C1205 C1206 1.523 . S
C1206 C1187 1.368 . S
C1206 C1200 1.368 . S
C1206 C1205 1.523 . S
C1207 C1191 1.429 . S
C1207 C1203 1.429 . S
C1207 C1208 1.523 . S
C1208 C1192 1.368 . S
C1208 C1204 1.368 . S
C1208 C1207 1.523 . S
H1209 C1184 0.950 . S
H1210 C1186 0.950 . S
H1211 C1187 0.949 . S
H1212 C1189 0.950 . S
H1213 C1191 0.950 . S
C1214 C1215 1.349 . S
C1214 C1216 1.327 . S
C1214 H1239 0.950 . S
C1215 C1214 1.349 . S
C1215 C1231 1.349 . S
C1216 C1214 1.327 . S
C1216 C1235 1.429 . S
C1216 H1240 0.950 . S
C1217 C1234 1.544 1_645 S
C1217 C1236 1.397 . S
C1217 H1241 0.952 . S
H1218 C1222 0.951 . S
C1219 C1220 1.349 . S
C1219 C1221 1.327 . S
C1219 H1242 0.950 . S
C1220 C1219 1.349 . S
C1220 C1232 1.349 . S
C1221 C1219 1.327 . S
C1221 C1237 1.429 . S
C1221 H1243 0.950 . S
C1222 H1218 0.951 . S
C1222 C1230 1.558 1_465 S
C1222 C1238 1.383 . S
H1223 C1231 0.950 . S
H1224 C1229 0.950 . S
H1225 C1230 0.949 . S
H1226 C1232 0.950 . S
H1227 C1233 0.950 . S
H1228 C1234 0.949 . S
C1229 H1224 0.950 . S
C1229 C1231 1.327 . S
C1229 C1235 1.429 . S
C1230 C1222 1.558 1_645 S
C1230 H1225 0.949 . S
C1230 C1236 1.368 . S
C1231 C1215 1.349 . S
C1231 H1223 0.950 . S
C1231 C1229 1.327 . S
C1232 C1220 1.349 . S
C1232 H1226 0.950 . S
C1232 C1233 1.327 . S
C1233 H1227 0.950 . S
C1233 C1232 1.327 . S
C1233 C1237 1.429 . S
C1234 C1217 1.544 1_465 S
C1234 H1228 0.949 . S
C1234 C1238 1.368 . S
C1235 C1216 1.429 . S
C1235 C1229 1.429 . S
C1235 C1236 1.523 . S
C1236 C1217 1.397 . S
C1236 C1230 1.368 . S
C1236 C1235 1.523 . S
C1237 C1221 1.429 . S
C1237 C1233 1.429 . S
C1237 C1238 1.523 . S
C1238 C1222 1.383 . S
C1238 C1234 1.368 . S
C1238 C1237 1.523 . S
H1239 C1214 0.950 . S
H1240 C1216 0.950 . S
H1241 C1217 0.952 . S
H1242 C1219 0.950 . S
H1243 C1221 0.950 . S
C1244 C1245 1.349 . S
C1244 C1246 1.327 . S
C1244 H1269 0.950 . S
C1245 C1244 1.349 . S
C1245 C1261 1.349 . S
C1246 C1244 1.327 . S
C1246 C1265 1.429 . S
C1246 H1270 0.950 . S
C1247 C1264 1.574 . S
C1247 C1266 1.368 . S
C1247 H1271 0.949 . S
H1248 C1252 0.949 . S
C1249 C1250 1.349 . S
C1249 C1251 1.327 . S
C1249 H1272 0.950 . S
C1250 C1249 1.349 . S
C1250 C1262 1.349 . S
C1251 C1249 1.327 . S
C1251 C1267 1.429 . S
C1251 H1273 0.950 . S
C1252 H1248 0.949 . S
C1252 C1260 1.574 . S
C1252 C1268 1.368 . S
H1253 C1261 0.950 . S
H1254 C1259 0.950 . S
H1255 C1260 0.949 . S
H1256 C1262 0.950 . S
H1257 C1263 0.950 . S
H1258 C1264 0.949 . S
C1259 H1254 0.950 . S
C1259 C1261 1.327 . S
C1259 C1265 1.429 . S
C1260 C1252 1.574 . S
C1260 H1255 0.949 . S
C1260 C1266 1.368 . S
C1261 C1245 1.349 . S
C1261 H1253 0.950 . S
C1261 C1259 1.327 . S
C1262 C1250 1.349 . S
C1262 H1256 0.950 . S
C1262 C1263 1.327 . S
C1263 H1257 0.950 . S
C1263 C1262 1.327 . S
C1263 C1267 1.429 . S
C1264 C1247 1.574 . S
C1264 H1258 0.949 . S
C1264 C1268 1.368 . S
C1265 C1246 1.429 . S
C1265 C1259 1.429 . S
C1265 C1266 1.523 . S
C1266 C1247 1.368 . S
C1266 C1260 1.368 . S
C1266 C1265 1.523 . S
C1267 C1251 1.429 . S
C1267 C1263 1.429 . S
C1267 C1268 1.523 . S
C1268 C1252 1.368 . S
C1268 C1264 1.368 . S
C1268 C1267 1.523 . S
H1269 C1244 0.950 . S
H1270 C1246 0.950 . S
H1271 C1247 0.949 . S
H1272 C1249 0.950 . S
H1273 C1251 0.950 . S
C1274 C1275 1.360 . S
C1274 C1276 1.324 1_554 S
C1274 H1299 0.942 1_554 S
C1275 C1274 1.360 . S
C1275 C1291 1.349 . S
C1276 C1274 1.324 1_556 S
C1276 C1295 1.429 1_556 S
C1276 H1300 0.950 . S
C1277 C1294 1.574 . S
C1277 C1296 1.368 1_565 S
C1277 H1301 0.949 . S
H1278 C1282 0.949 . S
C1279 C1280 1.377 . S
C1279 C1281 1.320 1_556 S
C1279 H1302 0.930 1_556 S
C1280 C1279 1.377 . S
C1280 C1292 1.349 . S
C1281 C1279 1.320 1_554 S
C1281 C1297 1.429 1_554 S
C1281 H1303 0.950 . S
C1282 H1278 0.949 . S
C1282 C1290 1.574 . S
C1282 C1298 1.368 1_545 S
H1283 C1291 0.950 . S
H1284 C1289 0.950 . S
H1285 C1290 0.949 . S
H1286 C1292 0.950 . S
H1287 C1293 0.950 . S
H1288 C1294 0.949 . S
C1289 H1284 0.950 . S
C1289 C1291 1.327 . S
C1289 C1295 1.429 . S
C1290 C1282 1.574 . S
C1290 H1285 0.949 . S
C1290 C1296 1.368 1_556 S
C1291 C1275 1.349 . S
C1291 H1283 0.950 . S
C1291 C1289 1.327 . S
C1292 C1280 1.349 . S
C1292 H1286 0.950 . S
C1292 C1293 1.327 . S
C1293 H1287 0.950 . S
C1293 C1292 1.327 . S
C1293 C1297 1.429 . S
C1294 C1277 1.574 . S
C1294 H1288 0.949 . S
C1294 C1298 1.368 1_554 S
C1295 C1276 1.429 1_554 S
C1295 C1289 1.429 . S
C1295 C1296 1.523 . S
C1296 C1277 1.368 1_545 S
C1296 C1290 1.368 1_554 S
C1296 C1295 1.523 . S
C1297 C1281 1.429 1_556 S
C1297 C1293 1.429 . S
C1297 C1298 1.523 . S
C1298 C1282 1.368 1_565 S
C1298 C1294 1.368 1_556 S
C1298 C1297 1.523 . S
H1299 C1274 0.942 1_556 S
H1300 C1276 0.950 . S
H1301 C1277 0.949 . S
H1302 C1279 0.930 1_554 S
H1303 C1281 0.950 . S
C1304 C1305 1.349 . S
C1304 C1306 1.327 . S
C1304 H1329 0.950 . S
C1305 C1304 1.349 . S
C1305 C1321 1.349 . S
C1306 C1304 1.327 . S
C1306 C1325 1.429 . S
C1306 H1330 0.950 . S
C1307 C1324 1.574 . S
C1307 C1326 1.368 . S
C1307 H1331 0.949 . S
H1308 C1312 0.949 . S
C1309 C1310 1.349 . S
C1309 C1311 1.327 . S
C1309 H1332 0.950 . S
C1310 C1309 1.349 . S
C1310 C1322 1.349 . S
C1311 C1309 1.327 . S
C1311 C1327 1.429 . S
C1311 H1333 0.950 . S
C1312 H1308 0.949 . S
C1312 C1320 1.574 . S
C1312 C1328 1.368 . S
H1313 C1321 0.950 . S
H1314 C1319 0.950 . S
H1315 C1320 0.949 . S
H1316 C1322 0.950 . S
H1317 C1323 0.950 . S
H1318 C1324 0.949 . S
C1319 H1314 0.950 . S
C1319 C1321 1.327 . S
C1319 C1325 1.429 . S
C1320 C1312 1.574 . S
C1320 H1315 0.949 . S
C1320 C1326 1.368 . S
C1321 C1305 1.349 . S
C1321 H1313 0.950 . S
C1321 C1319 1.327 . S
C1322 C1310 1.349 . S
C1322 H1316 0.950 . S
C1322 C1323 1.327 . S
C1323 H1317 0.950 . S
C1323 C1322 1.327 . S
C1323 C1327 1.429 . S
C1324 C1307 1.574 . S
C1324 H1318 0.949 . S
C1324 C1328 1.368 . S
C1325 C1306 1.429 . S
C1325 C1319 1.429 . S
C1325 C1326 1.523 . S
C1326 C1307 1.368 . S
C1326 C1320 1.368 . S
C1326 C1325 1.523 . S
C1327 C1311 1.429 . S
C1327 C1323 1.429 . S
C1327 C1328 1.523 . S
C1328 C1312 1.368 . S
C1328 C1324 1.368 . S
C1328 C1327 1.523 . S
H1329 C1304 0.950 . S
H1330 C1306 0.950 . S
H1331 C1307 0.949 . S
H1332 C1309 0.950 . S
H1333 C1311 0.950 . S
C1334 C1335 1.349 . S
C1334 C1336 1.327 . S
C1334 H1359 0.950 . S
C1335 C1334 1.349 . S
C1335 C1351 1.349 . S
C1336 C1334 1.327 . S
C1336 C1355 1.429 . S
C1336 H1360 0.950 . S
C1337 C1354 1.574 . S
C1337 C1356 1.368 . S
C1337 H1361 0.949 . S
H1338 C1342 0.949 . S
C1339 C1340 1.349 . S
C1339 C1341 1.327 . S
C1339 H1362 0.950 . S
C1340 C1339 1.349 . S
C1340 C1352 1.349 . S
C1341 C1339 1.327 . S
C1341 C1357 1.429 . S
C1341 H1363 0.950 . S
C1342 H1338 0.949 . S
C1342 C1350 1.574 . S
C1342 C1358 1.368 . S
H1343 C1351 0.950 . S
H1344 C1349 0.950 . S
H1345 C1350 0.949 . S
H1346 C1352 0.950 . S
H1347 C1353 0.950 . S
H1348 C1354 0.949 . S
C1349 H1344 0.950 . S
C1349 C1351 1.327 . S
C1349 C1355 1.429 . S
C1350 C1342 1.574 . S
C1350 H1345 0.949 . S
C1350 C1356 1.368 1_545 S
C1351 C1335 1.349 . S
C1351 H1343 0.950 . S
C1351 C1349 1.327 . S
C1352 C1340 1.349 . S
C1352 H1346 0.950 . S
C1352 C1353 1.327 . S
C1353 H1347 0.950 . S
C1353 C1352 1.327 . S
C1353 C1357 1.429 . S
C1354 C1337 1.574 . S
C1354 H1348 0.949 . S
C1354 C1358 1.368 1_565 S
C1355 C1336 1.429 . S
C1355 C1349 1.429 . S
C1355 C1356 1.523 . S
C1356 C1337 1.368 . S
C1356 C1350 1.368 1_565 S
C1356 C1355 1.523 . S
C1357 C1341 1.429 . S
C1357 C1353 1.429 . S
C1357 C1358 1.523 . S
C1358 C1342 1.368 . S
C1358 C1354 1.368 1_545 S
C1358 C1357 1.523 . S
H1359 C1334 0.950 . S
H1360 C1336 0.950 . S
H1361 C1337 0.949 . S
H1362 C1339 0.950 . S
H1363 C1341 0.950 . S
C1364 C1365 1.349 . S
C1364 C1366 1.327 . S
C1364 H1389 0.950 . S
C1365 C1364 1.349 . S
C1365 C1381 1.349 . S
C1366 C1364 1.327 . S
C1366 C1385 1.429 . S
C1366 H1390 0.950 . S
C1367 C1384 1.574 . S
C1367 C1386 1.368 . S
C1367 H1391 0.949 . S
H1368 C1372 0.949 . S
C1369 C1370 1.349 . S
C1369 C1371 1.327 . S
C1369 H1392 0.950 . S
C1370 C1369 1.349 . S
C1370 C1382 1.349 . S
C1371 C1369 1.327 . S
C1371 C1387 1.429 . S
C1371 H1393 0.950 . S
C1372 H1368 0.949 . S
C1372 C1380 1.574 . S
C1372 C1388 1.368 . S
H1373 C1381 0.950 . S
H1374 C1379 0.950 . S
H1375 C1380 0.949 . S
H1376 C1382 0.950 . S
H1377 C1383 0.950 . S
H1378 C1384 0.949 . S
C1379 H1374 0.950 . S
C1379 C1381 1.327 . S
C1379 C1385 1.429 . S
C1380 C1372 1.574 . S
C1380 H1375 0.949 . S
C1380 C1386 1.368 . S
C1381 C1365 1.349 . S
C1381 H1373 0.950 . S
C1381 C1379 1.327 . S
C1382 C1370 1.349 . S
C1382 H1376 0.950 . S
C1382 C1383 1.327 . S
C1383 H1377 0.950 . S
C1383 C1382 1.327 . S
C1383 C1387 1.429 . S
C1384 C1367 1.574 . S
C1384 H1378 0.949 . S
C1384 C1388 1.368 . S
C1385 C1366 1.429 . S
C1385 C1379 1.429 . S
C1385 C1386 1.523 . S
C1386 C1367 1.368 . S
C1386 C1380 1.368 . S
C1386 C1385 1.523 . S
C1387 C1371 1.429 . S
C1387 C1383 1.429 . S
C1387 C1388 1.523 . S
C1388 C1372 1.368 . S
C1388 C1384 1.368 . S
C1388 C1387 1.523 . S
H1389 C1364 0.950 . S
H1390 C1366 0.950 . S
H1391 C1367 0.949 . S
H1392 C1369 0.950 . S
H1393 C1371 0.950 . S
C1394 C1395 1.349 . S
C1394 C1396 1.327 . S
C1394 H1419 0.950 . S
C1395 C1394 1.349 . S
C1395 C1411 1.349 1_554 S
C1396 C1394 1.327 . S
C1396 C1415 1.429 . S
C1396 H1420 0.950 . S
C1397 C1414 1.546 1_665 S
C1397 C1416 1.368 1_556 S
C1397 H1421 0.949 . S
H1398 C1402 0.949 . S
C1399 C1400 1.349 . S
C1399 C1401 1.327 . S
C1399 H1422 0.950 . S
C1400 C1399 1.349 . S
C1400 C1412 1.349 1_556 S
C1401 C1399 1.327 . S
C1401 C1417 1.429 . S
C1401 H1423 0.950 . S
C1402 H1398 0.949 . S
C1402 C1410 1.574 1_445 S
C1402 C1418 1.368 1_554 S
H1403 C1411 0.950 . S
H1404 C1409 0.950 . S
H1405 C1410 0.949 . S
H1406 C1412 0.950 . S
H1407 C1413 0.950 . S
H1408 C1414 0.953 . S
C1409 H1404 0.950 . S
C1409 C1411 1.327 . S
C1409 C1415 1.429 1_556 S
C1410 C1402 1.574 1_665 S
C1410 H1405 0.949 . S
C1410 C1416 1.368 . S
C1411 C1395 1.349 1_556 S
C1411 H1403 0.950 . S
C1411 C1409 1.327 . S
C1412 C1400 1.349 1_554 S
C1412 H1406 0.950 . S
C1412 C1413 1.327 . S
C1413 H1407 0.950 . S
C1413 C1412 1.327 . S
C1413 C1417 1.429 1_554 S
C1414 C1397 1.546 1_445 S
C1414 H1408 0.953 . S
C1414 C1418 1.394 . S
C1415 C1396 1.429 . S
C1415 C1409 1.429 1_554 S
C1415 C1416 1.523 . S
C1416 C1397 1.368 1_554 S
C1416 C1410 1.368 . S
C1416 C1415 1.523 . S
C1417 C1401 1.429 . S
C1417 C1413 1.429 1_556 S
C1417 C1418 1.523 . S
C1418 C1402 1.368 1_556 S
C1418 C1414 1.394 . S
C1418 C1417 1.523 . S
H1419 C1394 0.950 . S
H1420 C1396 0.950 . S
H1421 C1397 0.949 . S
H1422 C1399 0.950 . S
H1423 C1401 0.950 . S
C1424 C1425 1.349 . S
C1424 C1426 1.327 . S
C1424 H1449 0.950 . S
C1425 C1424 1.349 . S
C1425 C1441 1.349 . S
C1426 C1424 1.327 . S
C1426 C1445 1.429 . S
C1426 H1450 0.950 . S
C1427 C1444 1.574 . S
C1427 C1446 1.368 . S
C1427 H1451 0.949 . S
H1428 C1432 0.949 . S
C1429 C1430 1.349 . S
C1429 C1431 1.327 . S
C1429 H1452 0.950 . S
C1430 C1429 1.349 . S
C1430 C1442 1.349 . S
C1431 C1429 1.327 . S
C1431 C1447 1.429 . S
C1431 H1453 0.950 . S
C1432 H1428 0.949 . S
C1432 C1440 1.574 . S
C1432 C1448 1.368 . S
H1433 C1441 0.950 . S
H1434 C1439 0.950 . S
H1435 C1440 0.949 . S
H1436 C1442 0.950 . S
H1437 C1443 0.950 . S
H1438 C1444 0.949 . S
C1439 H1434 0.950 . S
C1439 C1441 1.327 . S
C1439 C1445 1.429 . S
C1440 C1432 1.574 . S
C1440 H1435 0.949 . S
C1440 C1446 1.368 . S
C1441 C1425 1.349 . S
C1441 H1433 0.950 . S
C1441 C1439 1.327 . S
C1442 C1430 1.349 . S
C1442 H1436 0.950 . S
C1442 C1443 1.327 . S
C1443 H1437 0.950 . S
C1443 C1442 1.327 . S
C1443 C1447 1.429 . S
C1444 C1427 1.574 . S
C1444 H1438 0.949 . S
C1444 C1448 1.368 . S
C1445 C1426 1.429 . S
C1445 C1439 1.429 . S
C1445 C1446 1.523 . S
C1446 C1427 1.368 . S
C1446 C1440 1.368 . S
C1446 C1445 1.523 . S
C1447 C1431 1.429 . S
C1447 C1443 1.429 . S
C1447 C1448 1.523 . S
C1448 C1432 1.368 . S
C1448 C1444 1.368 . S
C1448 C1447 1.523 . S
H1449 C1424 0.950 . S
H1450 C1426 0.950 . S
H1451 C1427 0.949 . S
H1452 C1429 0.950 . S
H1453 C1431 0.950 . S
C1454 C1455 1.349 . S
C1454 C1456 1.327 . S
C1454 H1479 0.950 . S
C1455 C1454 1.349 . S
C1455 C1471 1.349 . S
C1456 C1454 1.327 . S
C1456 C1475 1.429 . S
C1456 H1480 0.950 . S
C1457 C1474 1.574 . S
C1457 C1476 1.368 . S
C1457 H1481 0.949 . S
H1458 C1462 0.949 . S
C1459 C1460 1.349 . S
C1459 C1461 1.327 . S
C1459 H1482 0.950 . S
C1460 C1459 1.349 . S
C1460 C1472 1.349 . S
C1461 C1459 1.327 . S
C1461 C1477 1.429 . S
C1461 H1483 0.950 . S
C1462 H1458 0.949 . S
C1462 C1470 1.574 . S
C1462 C1478 1.368 . S
H1463 C1471 0.950 . S
H1464 C1469 0.950 . S
H1465 C1470 0.949 . S
H1466 C1472 0.950 . S
H1467 C1473 0.950 . S
H1468 C1474 0.949 . S
C1469 H1464 0.950 . S
C1469 C1471 1.327 . S
C1469 C1475 1.429 . S
C1470 C1462 1.574 . S
C1470 H1465 0.949 . S
C1470 C1476 1.368 . S
C1471 C1455 1.349 . S
C1471 H1463 0.950 . S
C1471 C1469 1.327 . S
C1472 C1460 1.349 . S
C1472 H1466 0.950 . S
C1472 C1473 1.327 . S
C1473 H1467 0.950 . S
C1473 C1472 1.327 . S
C1473 C1477 1.429 . S
C1474 C1457 1.574 . S
C1474 H1468 0.949 . S
C1474 C1478 1.368 . S
C1475 C1456 1.429 . S
C1475 C1469 1.429 . S
C1475 C1476 1.523 . S
C1476 C1457 1.368 . S
C1476 C1470 1.368 . S
C1476 C1475 1.523 . S
C1477 C1461 1.429 . S
C1477 C1473 1.429 . S
C1477 C1478 1.523 . S
C1478 C1462 1.368 . S
C1478 C1474 1.368 . S
C1478 C1477 1.523 . S
H1479 C1454 0.950 . S
H1480 C1456 0.950 . S
H1481 C1457 0.949 . S
H1482 C1459 0.950 . S
H1483 C1461 0.950 . S
C1484 C1485 1.349 . S
C1484 C1486 1.327 . S
C1484 H1509 0.950 . S
C1485 C1484 1.349 . S
C1485 C1501 1.349 . S
C1486 C1484 1.327 . S
C1486 C1505 1.429 . S
C1486 H1510 0.950 . S
C1487 C1504 1.574 . S
C1487 C1506 1.368 . S
C1487 H1511 0.949 . S
H1488 C1492 0.949 . S
C1489 C1490 1.349 . S
C1489 C1491 1.327 . S
C1489 H1512 0.950 . S
C1490 C1489 1.349 . S
C1490 C1502 1.349 . S
C1491 C1489 1.327 . S
C1491 C1507 1.429 . S
C1491 H1513 0.950 . S
C1492 H1488 0.949 . S
C1492 C1500 1.574 . S
C1492 C1508 1.368 . S
H1493 C1501 0.950 . S
H1494 C1499 0.950 . S
H1495 C1500 0.949 . S
H1496 C1502 0.950 . S
H1497 C1503 0.950 . S
H1498 C1504 0.949 . S
C1499 H1494 0.950 . S
C1499 C1501 1.327 . S
C1499 C1505 1.429 . S
C1500 C1492 1.574 . S
C1500 H1495 0.949 . S
C1500 C1506 1.368 . S
C1501 C1485 1.349 . S
C1501 H1493 0.950 . S
C1501 C1499 1.327 . S
C1502 C1490 1.349 . S
C1502 H1496 0.950 . S
C1502 C1503 1.327 . S
C1503 H1497 0.950 . S
C1503 C1502 1.327 . S
C1503 C1507 1.429 . S
C1504 C1487 1.574 . S
C1504 H1498 0.949 . S
C1504 C1508 1.368 . S
C1505 C1486 1.429 . S
C1505 C1499 1.429 . S
C1505 C1506 1.523 . S
C1506 C1487 1.368 . S
C1506 C1500 1.368 . S
C1506 C1505 1.523 . S
C1507 C1491 1.429 . S
C1507 C1503 1.429 . S
C1507 C1508 1.523 . S
C1508 C1492 1.368 . S
C1508 C1504 1.368 . S
C1508 C1507 1.523 . S
H1509 C1484 0.950 . S
H1510 C1486 0.950 . S
H1511 C1487 0.949 . S
H1512 C1489 0.950 . S
H1513 C1491 0.950 . S
C1514 C1515 1.349 . S
C1514 C1516 1.327 . S
C1514 H1539 0.950 . S
C1515 C1514 1.349 . S
C1515 C1531 1.349 . S
C1516 C1514 1.327 . S
C1516 C1535 1.429 . S
C1516 H1540 0.950 . S
C1517 C1534 1.574 . S
C1517 C1536 1.368 . S
C1517 H1541 0.949 . S
H1518 C1522 0.949 . S
C1519 C1520 1.349 . S
C1519 C1521 1.327 . S
C1519 H1542 0.950 . S
C1520 C1519 1.349 . S
C1520 C1532 1.349 . S
C1521 C1519 1.327 . S
C1521 C1537 1.429 . S
C1521 H1543 0.950 . S
C1522 H1518 0.949 . S
C1522 C1530 1.574 . S
C1522 C1538 1.368 . S
H1523 C1531 0.950 . S
H1524 C1529 0.950 . S
H1525 C1530 0.949 . S
H1526 C1532 0.950 . S
H1527 C1533 0.950 . S
H1528 C1534 0.949 . S
C1529 H1524 0.950 . S
C1529 C1531 1.327 . S
C1529 C1535 1.429 . S
C1530 C1522 1.574 . S
C1530 H1525 0.949 . S
C1530 C1536 1.368 . S
C1531 C1515 1.349 . S
C1531 H1523 0.950 . S
C1531 C1529 1.327 . S
C1532 C1520 1.349 . S
C1532 H1526 0.950 . S
C1532 C1533 1.327 . S
C1533 H1527 0.950 . S
C1533 C1532 1.327 . S
C1533 C1537 1.429 . S
C1534 C1517 1.574 . S
C1534 H1528 0.949 . S
C1534 C1538 1.368 . S
C1535 C1516 1.429 . S
C1535 C1529 1.429 . S
C1535 C1536 1.523 . S
C1536 C1517 1.368 . S
C1536 C1530 1.368 . S
C1536 C1535 1.523 . S
C1537 C1521 1.429 . S
C1537 C1533 1.429 . S
C1537 C1538 1.523 . S
C1538 C1522 1.368 . S
C1538 C1534 1.368 . S
C1538 C1537 1.523 . S
H1539 C1514 0.950 . S
H1540 C1516 0.950 . S
H1541 C1517 0.949 . S
H1542 C1519 0.950 . S
H1543 C1521 0.950 . S
C1544 C1545 1.349 . S
C1544 C1546 1.327 . S
C1544 H1569 0.950 . S
C1545 C1544 1.349 . S
C1545 C1561 1.349 . S
C1546 C1544 1.327 . S
C1546 C1565 1.429 . S
C1546 H1570 0.950 . S
C1547 C1564 1.574 . S
C1547 C1566 1.368 1_556 S
C1547 H1571 0.949 . S
H1548 C1552 0.949 . S
C1549 C1550 1.349 . S
C1549 C1551 1.327 . S
C1549 H1572 0.950 . S
C1550 C1549 1.349 . S
C1550 C1562 1.349 . S
C1551 C1549 1.327 . S
C1551 C1567 1.429 . S
C1551 H1573 0.950 . S
C1552 H1548 0.949 . S
C1552 C1560 1.574 . S
C1552 C1568 1.368 1_554 S
H1553 C1561 0.950 1_556 S
H1554 C1559 0.950 . S
H1555 C1560 0.949 . S
H1556 C1562 0.950 1_554 S
H1557 C1563 0.950 . S
H1558 C1564 0.949 . S
C1559 H1554 0.950 . S
C1559 C1561 1.327 1_556 S
C1559 C1565 1.429 1_556 S
C1560 C1552 1.574 . S
C1560 H1555 0.949 . S
C1560 C1566 1.368 . S
C1561 C1545 1.349 . S
C1561 H1553 0.950 1_554 S
C1561 C1559 1.327 1_554 S
C1562 C1550 1.349 . S
C1562 H1556 0.950 1_556 S
C1562 C1563 1.327 1_556 S
C1563 H1557 0.950 . S
C1563 C1562 1.327 1_554 S
C1563 C1567 1.429 1_554 S
C1564 C1547 1.574 . S
C1564 H1558 0.949 . S
C1564 C1568 1.368 . S
C1565 C1546 1.429 . S
C1565 C1559 1.429 1_554 S
C1565 C1566 1.523 . S
C1566 C1547 1.368 1_554 S
C1566 C1560 1.368 . S
C1566 C1565 1.523 . S
C1567 C1551 1.429 . S
C1567 C1563 1.429 1_556 S
C1567 C1568 1.523 . S
C1568 C1552 1.368 1_556 S
C1568 C1564 1.368 . S
C1568 C1567 1.523 . S
H1569 C1544 0.950 . S
H1570 C1546 0.950 . S
H1571 C1547 0.949 . S
H1572 C1549 0.950 . S
H1573 C1551 0.950 . S
C1574 C1575 1.349 . S
C1574 C1576 1.327 . S
C1574 H1599 0.950 . S
C1575 C1574 1.349 . S
C1575 C1591 1.349 . S
C1576 C1574 1.327 . S
C1576 C1595 1.429 . S
C1576 H1600 0.950 . S
C1577 C1594 1.574 1_455 S
C1577 C1596 1.368 . S
C1577 H1601 0.949 . S
H1578 C1582 0.949 . S
C1579 C1580 1.349 . S
C1579 C1581 1.327 . S
C1579 H1602 0.950 . S
C1580 C1579 1.349 . S
C1580 C1592 1.349 . S
C1581 C1579 1.327 . S
C1581 C1597 1.429 . S
C1581 H1603 0.950 . S
C1582 H1578 0.949 . S
C1582 C1590 1.574 1_655 S
C1582 C1598 1.368 . S
H1583 C1591 0.950 . S
H1584 C1589 0.950 . S
H1585 C1590 0.949 . S
H1586 C1592 0.950 . S
H1587 C1593 0.950 . S
H1588 C1594 0.949 . S
C1589 H1584 0.950 . S
C1589 C1591 1.327 . S
C1589 C1595 1.429 . S
C1590 C1582 1.574 1_455 S
C1590 H1585 0.949 . S
C1590 C1596 1.368 . S
C1591 C1575 1.349 . S
C1591 H1583 0.950 . S
C1591 C1589 1.327 . S
C1592 C1580 1.349 . S
C1592 H1586 0.950 . S
C1592 C1593 1.327 . S
C1593 H1587 0.950 . S
C1593 C1592 1.327 . S
C1593 C1597 1.429 . S
C1594 C1577 1.574 1_655 S
C1594 H1588 0.949 . S
C1594 C1598 1.368 . S
C1595 C1576 1.429 . S
C1595 C1589 1.429 . S
C1595 C1596 1.523 . S
C1596 C1577 1.368 . S
C1596 C1590 1.368 . S
C1596 C1595 1.523 . S
C1597 C1581 1.429 . S
C1597 C1593 1.429 . S
C1597 C1598 1.523 . S
C1598 C1582 1.368 . S
C1598 C1594 1.368 . S
C1598 C1597 1.523 . S
H1599 C1574 0.950 . S
H1600 C1576 0.950 . S
H1601 C1577 0.949 . S
H1602 C1579 0.950 . S
H1603 C1581 0.950 . S
C1604 C1605 1.349 . S
C1604 C1606 1.327 . S
C1604 H1629 0.950 . S
C1605 C1604 1.349 . S
C1605 C1621 1.349 1_554 S
C1606 C1604 1.327 . S
C1606 C1625 1.429 . S
C1606 H1630 0.950 . S
C1607 C1624 1.574 1_455 S
C1607 C1626 1.368 1_556 S
C1607 H1631 0.949 . S
H1608 C1612 0.949 . S
C1609 C1610 1.349 . S
C1609 C1611 1.327 . S
C1609 H1632 0.950 . S
C1610 C1609 1.349 . S
C1610 C1622 1.349 1_556 S
C1611 C1609 1.327 . S
C1611 C1627 1.429 . S
C1611 H1633 0.950 . S
C1612 H1608 0.949 . S
C1612 C1620 1.560 1_655 S
C1612 C1628 1.368 1_554 S
H1613 C1621 0.950 . S
H1614 C1619 0.950 . S
H1615 C1620 0.949 . S
H1616 C1622 0.950 . S
H1617 C1623 0.950 . S
H1618 C1624 0.949 . S
C1619 H1614 0.950 . S
C1619 C1621 1.327 . S
C1619 C1625 1.429 1_556 S
C1620 C1612 1.560 1_455 S
C1620 H1615 0.949 . S
C1620 C1626 1.381 . S
C1621 C1605 1.349 1_556 S
C1621 H1613 0.950 . S
C1621 C1619 1.327 . S
C1622 C1610 1.349 1_554 S
C1622 H1616 0.950 . S
C1622 C1623 1.327 . S
C1623 H1617 0.950 . S
C1623 C1622 1.327 . S
C1623 C1627 1.429 1_554 S
C1624 C1607 1.574 1_655 S
C1624 H1618 0.949 . S
C1624 C1628 1.368 . S
C1625 C1606 1.429 . S
C1625 C1619 1.429 1_554 S
C1625 C1626 1.523 . S
C1626 C1607 1.368 1_554 S
C1626 C1620 1.381 . S
C1626 C1625 1.523 . S
C1627 C1611 1.429 . S
C1627 C1623 1.429 1_556 S
C1627 C1628 1.523 . S
C1628 C1612 1.368 1_556 S
C1628 C1624 1.368 . S
C1628 C1627 1.523 . S
H1629 C1604 0.950 . S
H1630 C1606 0.950 . S
H1631 C1607 0.949 . S
H1632 C1609 0.950 . S
H1633 C1611 0.950 . S
C1634 C1635 1.349 . S
C1634 C1636 1.327 . S
C1634 H1659 0.950 . S
C1635 C1634 1.349 . S
C1635 C1651 1.349 . S
C1636 C1634 1.327 . S
C1636 C1655 1.429 . S
C1636 H1660 0.950 . S
C1637 C1654 1.574 . S
C1637 C1656 1.368 . S
C1637 H1661 0.949 . S
H1638 C1642 0.949 . S
C1639 C1640 1.349 . S
C1639 C1641 1.327 . S
C1639 H1662 0.950 . S
C1640 C1639 1.349 . S
C1640 C1652 1.349 . S
C1641 C1639 1.327 . S
C1641 C1657 1.429 . S
C1641 H1663 0.950 . S
C1642 H1638 0.949 . S
C1642 C1650 1.574 . S
C1642 C1658 1.368 . S
H1643 C1651 0.950 . S
H1644 C1649 0.950 . S
H1645 C1650 0.949 . S
H1646 C1652 0.950 . S
H1647 C1653 0.950 . S
H1648 C1654 0.949 . S
C1649 H1644 0.950 . S
C1649 C1651 1.327 . S
C1649 C1655 1.429 . S
C1650 C1642 1.574 . S
C1650 H1645 0.949 . S
C1650 C1656 1.368 . S
C1651 C1635 1.349 . S
C1651 H1643 0.950 . S
C1651 C1649 1.327 . S
C1652 C1640 1.349 . S
C1652 H1646 0.950 . S
C1652 C1653 1.327 . S
C1653 H1647 0.950 . S
C1653 C1652 1.327 . S
C1653 C1657 1.429 . S
C1654 C1637 1.574 . S
C1654 H1648 0.949 . S
C1654 C1658 1.368 . S
C1655 C1636 1.429 . S
C1655 C1649 1.429 . S
C1655 C1656 1.523 . S
C1656 C1637 1.368 . S
C1656 C1650 1.368 . S
C1656 C1655 1.523 . S
C1657 C1641 1.429 . S
C1657 C1653 1.429 . S
C1657 C1658 1.523 . S
C1658 C1642 1.368 . S
C1658 C1654 1.368 . S
C1658 C1657 1.523 . S
H1659 C1634 0.950 . S
H1660 C1636 0.950 . S
H1661 C1637 0.949 . S
H1662 C1639 0.950 . S
H1663 C1641 0.950 . S
C1664 C1665 1.349 . S
C1664 C1666 1.327 . S
C1664 H1689 0.950 . S
C1665 C1664 1.349 . S
C1665 C1681 1.349 . S
C1666 C1664 1.327 . S
C1666 C1685 1.429 . S
C1666 H1690 0.950 . S
C1667 C1684 1.574 . S
C1667 C1686 1.368 . S
C1667 H1691 0.949 . S
H1668 C1672 0.949 . S
C1669 C1670 1.349 . S
C1669 C1671 1.327 . S
C1669 H1692 0.950 . S
C1670 C1669 1.349 . S
C1670 C1682 1.349 . S
C1671 C1669 1.327 . S
C1671 C1687 1.429 . S
C1671 H1693 0.950 . S
C1672 H1668 0.949 . S
C1672 C1680 1.574 . S
C1672 C1688 1.368 . S
H1673 C1681 0.950 . S
H1674 C1679 0.950 . S
H1675 C1680 0.949 . S
H1676 C1682 0.950 . S
H1677 C1683 0.950 . S
H1678 C1684 0.949 . S
C1679 H1674 0.950 . S
C1679 C1681 1.327 . S
C1679 C1685 1.429 . S
C1680 C1672 1.574 . S
C1680 H1675 0.949 . S
C1680 C1686 1.368 . S
C1681 C1665 1.349 . S
C1681 H1673 0.950 . S
C1681 C1679 1.327 . S
C1682 C1670 1.349 . S
C1682 H1676 0.950 . S
C1682 C1683 1.327 . S
C1683 H1677 0.950 . S
C1683 C1682 1.327 . S
C1683 C1687 1.429 . S
C1684 C1667 1.574 . S
C1684 H1678 0.949 . S
C1684 C1688 1.368 . S
C1685 C1666 1.429 . S
C1685 C1679 1.429 . S
C1685 C1686 1.523 . S
C1686 C1667 1.368 . S
C1686 C1680 1.368 . S
C1686 C1685 1.523 . S
C1687 C1671 1.429 . S
C1687 C1683 1.429 . S
C1687 C1688 1.523 . S
C1688 C1672 1.368 . S
C1688 C1684 1.368 . S
C1688 C1687 1.523 . S
H1689 C1664 0.950 . S
H1690 C1666 0.950 . S
H1691 C1667 0.949 . S
H1692 C1669 0.950 . S
H1693 C1671 0.950 . S
C1694 C1695 1.349 . S
C1694 C1696 1.327 . S
C1694 H1719 0.950 . S
C1695 C1694 1.349 . S
C1695 C1711 1.349 . S
C1696 C1694 1.327 . S
C1696 C1715 1.429 . S
C1696 H1720 0.950 . S
C1697 C1714 1.574 . S
C1697 C1716 1.368 . S
C1697 H1721 0.949 . S
H1698 C1702 0.949 . S
C1699 C1700 1.349 . S
C1699 C1701 1.327 . S
C1699 H1722 0.950 . S
C1700 C1699 1.349 . S
C1700 C1712 1.349 . S
C1701 C1699 1.327 . S
C1701 C1717 1.429 . S
C1701 H1723 0.950 . S
C1702 H1698 0.949 . S
C1702 C1710 1.574 . S
C1702 C1718 1.368 . S
H1703 C1711 0.950 . S
H1704 C1709 0.950 1_655 S
H1705 C1710 0.949 1_455 S
H1706 C1712 0.950 . S
H1707 C1713 0.950 . S
H1708 C1714 0.949 . S
C1709 H1704 0.950 1_455 S
C1709 C1711 1.327 . S
C1709 C1715 1.429 . S
C1710 C1702 1.574 . S
C1710 H1705 0.949 1_655 S
C1710 C1716 1.368 . S
C1711 C1695 1.349 . S
C1711 H1703 0.950 . S
C1711 C1709 1.327 . S
C1712 C1700 1.349 . S
C1712 H1706 0.950 . S
C1712 C1713 1.327 . S
C1713 H1707 0.950 . S
C1713 C1712 1.327 . S
C1713 C1717 1.429 . S
C1714 C1697 1.574 . S
C1714 H1708 0.949 . S
C1714 C1718 1.368 . S
C1715 C1696 1.429 . S
C1715 C1709 1.429 . S
C1715 C1716 1.523 1_455 S
C1716 C1697 1.368 . S
C1716 C1710 1.368 . S
C1716 C1715 1.523 1_655 S
C1717 C1701 1.429 . S
C1717 C1713 1.429 . S
C1717 C1718 1.523 . S
C1718 C1702 1.368 . S
C1718 C1714 1.368 . S
C1718 C1717 1.523 . S
H1719 C1694 0.950 . S
H1720 C1696 0.950 . S
H1721 C1697 0.949 . S
H1722 C1699 0.950 . S
H1723 C1701 0.950 . S
C1724 C1725 1.349 . S
C1724 C1726 1.327 . S
C1724 H1749 0.950 . S
C1725 C1724 1.349 . S
C1725 C1741 1.349 . S
C1726 C1724 1.327 . S
C1726 C1745 1.429 . S
C1726 H1750 0.950 . S
C1727 C1744 1.574 . S
C1727 C1746 1.368 . S
C1727 H1751 0.949 . S
H1728 C1732 0.949 . S
C1729 C1730 1.349 . S
C1729 C1731 1.327 . S
C1729 H1752 0.950 . S
C1730 C1729 1.349 . S
C1730 C1742 1.349 . S
C1731 C1729 1.327 . S
C1731 C1747 1.429 . S
C1731 H1753 0.950 . S
C1732 H1728 0.949 . S
C1732 C1740 1.574 . S
C1732 C1748 1.368 . S
H1733 C1741 0.950 . S
H1734 C1739 0.950 . S
H1735 C1740 0.949 . S
H1736 C1742 0.950 . S
H1737 C1743 0.950 . S
H1738 C1744 0.949 . S
C1739 H1734 0.950 . S
C1739 C1741 1.327 . S
C1739 C1745 1.429 . S
C1740 C1732 1.574 . S
C1740 H1735 0.949 . S
C1740 C1746 1.368 . S
C1741 C1725 1.349 . S
C1741 H1733 0.950 . S
C1741 C1739 1.327 . S
C1742 C1730 1.349 . S
C1742 H1736 0.950 . S
C1742 C1743 1.327 . S
C1743 H1737 0.950 . S
C1743 C1742 1.327 . S
C1743 C1747 1.429 . S
C1744 C1727 1.574 . S
C1744 H1738 0.949 . S
C1744 C1748 1.368 . S
C1745 C1726 1.429 . S
C1745 C1739 1.429 . S
C1745 C1746 1.523 . S
C1746 C1727 1.368 . S
C1746 C1740 1.368 . S
C1746 C1745 1.523 . S
C1747 C1731 1.429 . S
C1747 C1743 1.429 . S
C1747 C1748 1.523 . S
C1748 C1732 1.368 . S
C1748 C1744 1.368 . S
C1748 C1747 1.523 . S
H1749 C1724 0.950 . S
H1750 C1726 0.950 . S
H1751 C1727 0.949 . S
H1752 C1729 0.950 . S
H1753 C1731 0.950 . S
C1754 C1755 1.349 . S
C1754 C1756 1.327 . S
C1754 H1779 0.950 . S
C1755 C1754 1.349 . S
C1755 C1771 1.349 . S
C1756 C1754 1.327 . S
C1756 C1775 1.429 . S
C1756 H1780 0.950 . S
C1757 C1774 1.574 . S
C1757 C1776 1.368 . S
C1757 H1781 0.949 . S
H1758 C1762 0.949 . S
C1759 C1760 1.349 . S
C1759 C1761 1.327 . S
C1759 H1782 0.950 . S
C1760 C1759 1.349 . S
C1760 C1772 1.349 . S
C1761 C1759 1.327 . S
C1761 C1777 1.429 . S
C1761 H1783 0.950 . S
C1762 H1758 0.949 . S
C1762 C1770 1.574 . S
C1762 C1778 1.368 . S
H1763 C1771 0.950 . S
H1764 C1769 0.950 . S
H1765 C1770 0.949 . S
H1766 C1772 0.950 . S
H1767 C1773 0.950 . S
H1768 C1774 0.949 . S
C1769 H1764 0.950 . S
C1769 C1771 1.327 . S
C1769 C1775 1.429 . S
C1770 C1762 1.574 . S
C1770 H1765 0.949 . S
C1770 C1776 1.368 . S
C1771 C1755 1.349 . S
C1771 H1763 0.950 . S
C1771 C1769 1.327 . S
C1772 C1760 1.349 . S
C1772 H1766 0.950 . S
C1772 C1773 1.327 . S
C1773 H1767 0.950 . S
C1773 C1772 1.327 . S
C1773 C1777 1.429 . S
C1774 C1757 1.574 . S
C1774 H1768 0.949 . S
C1774 C1778 1.368 . S
C1775 C1756 1.429 . S
C1775 C1769 1.429 . S
C1775 C1776 1.523 . S
C1776 C1757 1.368 . S
C1776 C1770 1.368 . S
C1776 C1775 1.523 . S
C1777 C1761 1.429 . S
C1777 C1773 1.429 . S
C1777 C1778 1.523 . S
C1778 C1762 1.368 . S
C1778 C1774 1.368 . S
C1778 C1777 1.523 . S
H1779 C1754 0.950 . S
H1780 C1756 0.950 . S
H1781 C1757 0.949 . S
H1782 C1759 0.950 . S
H1783 C1761 0.950 . S
C1784 C1785 1.349 . S
C1784 C1786 1.327 . S
C1784 H1809 0.950 . S
C1785 C1784 1.349 . S
C1785 C1801 1.349 . S
C1786 C1784 1.327 . S
C1786 C1805 1.429 . S
C1786 H1810 0.950 . S
C1787 C1804 1.574 . S
C1787 C1806 1.368 . S
C1787 H1811 0.949 . S
H1788 C1792 0.949 . S
C1789 C1790 1.349 . S
C1789 C1791 1.327 . S
C1789 H1812 0.950 . S
C1790 C1789 1.349 . S
C1790 C1802 1.349 . S
C1791 C1789 1.327 . S
C1791 C1807 1.429 . S
C1791 H1813 0.950 . S
C1792 H1788 0.949 . S
C1792 C1800 1.574 . S
C1792 C1808 1.368 . S
H1793 C1801 0.950 . S
H1794 C1799 0.950 . S
H1795 C1800 0.949 . S
H1796 C1802 0.950 . S
H1797 C1803 0.950 . S
H1798 C1804 0.949 . S
C1799 H1794 0.950 . S
C1799 C1801 1.327 . S
C1799 C1805 1.429 . S
C1800 C1792 1.574 . S
C1800 H1795 0.949 . S
C1800 C1806 1.368 . S
C1801 C1785 1.349 . S
C1801 H1793 0.950 . S
C1801 C1799 1.327 . S
C1802 C1790 1.349 . S
C1802 H1796 0.950 . S
C1802 C1803 1.327 . S
C1803 H1797 0.950 . S
C1803 C1802 1.327 . S
C1803 C1807 1.429 . S
C1804 C1787 1.574 . S
C1804 H1798 0.949 . S
C1804 C1808 1.368 . S
C1805 C1786 1.429 . S
C1805 C1799 1.429 . S
C1805 C1806 1.523 . S
C1806 C1787 1.368 . S
C1806 C1800 1.368 . S
C1806 C1805 1.523 . S
C1807 C1791 1.429 . S
C1807 C1803 1.429 . S
C1807 C1808 1.523 . S
C1808 C1792 1.368 . S
C1808 C1804 1.368 . S
C1808 C1807 1.523 . S
H1809 C1784 0.950 . S
H1810 C1786 0.950 . S
H1811 C1787 0.949 . S
H1812 C1789 0.950 . S
H1813 C1791 0.950 . S
C1814 C1815 1.349 . S
C1814 C1816 1.327 . S
C1814 H1839 0.950 . S
C1815 C1814 1.349 . S
C1815 C1831 1.349 . S
C1816 C1814 1.327 . S
C1816 C1835 1.429 . S
C1816 H1840 0.950 . S
C1817 C1834 1.574 . S
C1817 C1836 1.368 . S
C1817 H1841 0.949 . S
H1818 C1822 0.949 . S
C1819 C1820 1.349 . S
C1819 C1821 1.327 . S
C1819 H1842 0.950 . S
C1820 C1819 1.349 . S
C1820 C1832 1.349 . S
C1821 C1819 1.327 . S
C1821 C1837 1.429 . S
C1821 H1843 0.950 . S
C1822 H1818 0.949 . S
C1822 C1830 1.574 . S
C1822 C1838 1.368 . S
H1823 C1831 0.950 . S
H1824 C1829 0.950 . S
H1825 C1830 0.949 . S
H1826 C1832 0.950 . S
H1827 C1833 0.950 . S
H1828 C1834 0.949 . S
C1829 H1824 0.950 . S
C1829 C1831 1.327 . S
C1829 C1835 1.429 . S
C1830 C1822 1.574 . S
C1830 H1825 0.949 . S
C1830 C1836 1.368 . S
C1831 C1815 1.349 . S
C1831 H1823 0.950 . S
C1831 C1829 1.327 . S
C1832 C1820 1.349 . S
C1832 H1826 0.950 . S
C1832 C1833 1.327 . S
C1833 H1827 0.950 . S
C1833 C1832 1.327 . S
C1833 C1837 1.429 . S
C1834 C1817 1.574 . S
C1834 H1828 0.949 . S
C1834 C1838 1.368 . S
C1835 C1816 1.429 . S
C1835 C1829 1.429 . S
C1835 C1836 1.523 . S
C1836 C1817 1.368 . S
C1836 C1830 1.368 . S
C1836 C1835 1.523 . S
C1837 C1821 1.429 . S
C1837 C1833 1.429 . S
C1837 C1838 1.523 . S
C1838 C1822 1.368 . S
C1838 C1834 1.368 . S
C1838 C1837 1.523 . S
H1839 C1814 0.950 . S
H1840 C1816 0.950 . S
H1841 C1817 0.949 . S
H1842 C1819 0.950 . S
H1843 C1821 0.950 . S
C1844 C1845 1.349 . S
C1844 C1846 1.327 . S
C1844 H1869 0.950 . S
C1845 C1844 1.349 . S
C1845 C1861 1.349 . S
C1846 C1844 1.327 . S
C1846 C1865 1.429 . S
C1846 H1870 0.950 . S
C1847 C1864 1.574 . S
C1847 C1866 1.368 . S
C1847 H1871 0.949 . S
H1848 C1852 0.949 . S
C1849 C1850 1.349 . S
C1849 C1851 1.327 . S
C1849 H1872 0.950 . S
C1850 C1849 1.349 . S
C1850 C1862 1.349 . S
C1851 C1849 1.327 . S
C1851 C1867 1.429 . S
C1851 H1873 0.950 . S
C1852 H1848 0.949 . S
C1852 C1860 1.574 . S
C1852 C1868 1.368 . S
H1853 C1861 0.950 . S
H1854 C1859 0.950 . S
H1855 C1860 0.949 . S
H1856 C1862 0.950 . S
H1857 C1863 0.950 . S
H1858 C1864 0.949 . S
C1859 H1854 0.950 . S
C1859 C1861 1.327 . S
C1859 C1865 1.429 . S
C1860 C1852 1.574 . S
C1860 H1855 0.949 . S
C1860 C1866 1.368 . S
C1861 C1845 1.349 . S
C1861 H1853 0.950 . S
C1861 C1859 1.327 . S
C1862 C1850 1.349 . S
C1862 H1856 0.950 . S
C1862 C1863 1.327 . S
C1863 H1857 0.950 . S
C1863 C1862 1.327 . S
C1863 C1867 1.429 . S
C1864 C1847 1.574 . S
C1864 H1858 0.949 . S
C1864 C1868 1.368 . S
C1865 C1846 1.429 . S
C1865 C1859 1.429 . S
C1865 C1866 1.523 . S
C1866 C1847 1.368 . S
C1866 C1860 1.368 . S
C1866 C1865 1.523 . S
C1867 C1851 1.429 . S
C1867 C1863 1.429 . S
C1867 C1868 1.523 . S
C1868 C1852 1.368 . S
C1868 C1864 1.368 . S
C1868 C1867 1.523 . S
H1869 C1844 0.950 . S
H1870 C1846 0.950 . S
H1871 C1847 0.949 . S
H1872 C1849 0.950 . S
H1873 C1851 0.950 . S
C1874 C1875 1.349 . S
C1874 C1876 1.327 . S
C1874 H1899 0.950 . S
C1875 C1874 1.349 . S
C1875 C1891 1.349 . S
C1876 C1874 1.327 . S
C1876 C1895 1.429 . S
C1876 H1900 0.950 . S
C1877 C1894 1.574 . S
C1877 C1896 1.368 . S
C1877 H1901 0.949 . S
H1878 C1882 0.949 1_455 S
C1879 C1880 1.349 . S
C1879 C1881 1.327 . S
C1879 H1902 0.950 . S
C1880 C1879 1.349 . S
C1880 C1892 1.349 . S
C1881 C1879 1.327 . S
C1881 C1897 1.429 . S
C1881 H1903 0.950 1_455 S
C1882 H1878 0.949 1_655 S
C1882 C1890 1.574 . S
C1882 C1898 1.368 . S
H1883 C1891 0.950 . S
H1884 C1889 0.950 . S
H1885 C1890 0.949 . S
H1886 C1892 0.950 . S
H1887 C1893 0.950 . S
H1888 C1894 0.949 . S
C1889 H1884 0.950 . S
C1889 C1891 1.327 . S
C1889 C1895 1.429 . S
C1890 C1882 1.574 . S
C1890 H1885 0.949 . S
C1890 C1896 1.368 . S
C1891 C1875 1.349 . S
C1891 H1883 0.950 . S
C1891 C1889 1.327 . S
C1892 C1880 1.349 . S
C1892 H1886 0.950 . S
C1892 C1893 1.327 . S
C1893 H1887 0.950 . S
C1893 C1892 1.327 . S
C1893 C1897 1.429 . S
C1894 C1877 1.574 . S
C1894 H1888 0.949 . S
C1894 C1898 1.368 . S
C1895 C1876 1.429 . S
C1895 C1889 1.429 . S
C1895 C1896 1.523 . S
C1896 C1877 1.368 . S
C1896 C1890 1.368 . S
C1896 C1895 1.523 . S
C1897 C1881 1.429 . S
C1897 C1893 1.429 . S
C1897 C1898 1.523 1_455 S
C1898 C1882 1.368 . S
C1898 C1894 1.368 . S
C1898 C1897 1.523 1_655 S
H1899 C1874 0.950 . S
H1900 C1876 0.950 . S
H1901 C1877 0.949 . S
H1902 C1879 0.950 . S
H1903 C1881 0.950 1_655 S
C1904 C1905 1.349 . S
C1904 C1906 1.327 . S
C1904 H1929 0.950 . S
C1905 C1904 1.349 . S
C1905 C1921 1.349 . S
C1906 C1904 1.327 . S
C1906 C1925 1.429 . S
C1906 H1930 0.950 . S
C1907 C1924 1.574 . S
C1907 C1926 1.368 . S
C1907 H1931 0.949 . S
H1908 C1912 0.949 . S
C1909 C1910 1.349 . S
C1909 C1911 1.327 . S
C1909 H1932 0.950 . S
C1910 C1909 1.349 . S
C1910 C1922 1.349 . S
C1911 C1909 1.327 . S
C1911 C1927 1.429 . S
C1911 H1933 0.950 . S
C1912 H1908 0.949 . S
C1912 C1920 1.574 . S
C1912 C1928 1.368 . S
H1913 C1921 0.950 . S
H1914 C1919 0.950 . S
H1915 C1920 0.949 . S
H1916 C1922 0.950 . S
H1917 C1923 0.950 . S
H1918 C1924 0.949 . S
C1919 H1914 0.950 . S
C1919 C1921 1.327 . S
C1919 C1925 1.429 . S
C1920 C1912 1.574 . S
C1920 H1915 0.949 . S
C1920 C1926 1.368 . S
C1921 C1905 1.349 . S
C1921 H1913 0.950 . S
C1921 C1919 1.327 . S
C1922 C1910 1.349 . S
C1922 H1916 0.950 . S
C1922 C1923 1.327 . S
C1923 H1917 0.950 . S
C1923 C1922 1.327 . S
C1923 C1927 1.429 . S
C1924 C1907 1.574 . S
C1924 H1918 0.949 . S
C1924 C1928 1.368 . S
C1925 C1906 1.429 . S
C1925 C1919 1.429 . S
C1925 C1926 1.523 . S
C1926 C1907 1.368 . S
C1926 C1920 1.368 . S
C1926 C1925 1.523 . S
C1927 C1911 1.429 . S
C1927 C1923 1.429 . S
C1927 C1928 1.523 . S
C1928 C1912 1.368 . S
C1928 C1924 1.368 . S
C1928 C1927 1.523 . S
H1929 C1904 0.950 . S
H1930 C1906 0.950 . S
H1931 C1907 0.949 . S
H1932 C1909 0.950 . S
H1933 C1911 0.950 . S
C1934 C1935 1.349 . S
C1934 C1936 1.327 . S
C1934 H1959 0.950 . S
C1935 C1934 1.349 . S
C1935 C1951 1.349 . S
C1936 C1934 1.327 . S
C1936 C1955 1.429 . S
C1936 H1960 0.950 1_655 S
C1937 C1954 1.574 . S
C1937 C1956 1.368 . S
C1937 H1961 0.949 1_455 S
H1938 C1942 0.949 . S
C1939 C1940 1.349 . S
C1939 C1941 1.327 . S
C1939 H1962 0.950 . S
C1940 C1939 1.349 . S
C1940 C1952 1.349 . S
C1941 C1939 1.327 . S
C1941 C1957 1.429 . S
C1941 H1963 0.950 . S
C1942 H1938 0.949 . S
C1942 C1950 1.574 . S
C1942 C1958 1.368 . S
H1943 C1951 0.950 . S
H1944 C1949 0.950 . S
H1945 C1950 0.949 . S
H1946 C1952 0.950 . S
H1947 C1953 0.950 . S
H1948 C1954 0.949 . S
C1949 H1944 0.950 . S
C1949 C1951 1.327 . S
C1949 C1955 1.429 . S
C1950 C1942 1.574 . S
C1950 H1945 0.949 . S
C1950 C1956 1.368 . S
C1951 C1935 1.349 . S
C1951 H1943 0.950 . S
C1951 C1949 1.327 . S
C1952 C1940 1.349 . S
C1952 H1946 0.950 . S
C1952 C1953 1.327 . S
C1953 H1947 0.950 . S
C1953 C1952 1.327 . S
C1953 C1957 1.429 . S
C1954 C1937 1.574 . S
C1954 H1948 0.949 . S
C1954 C1958 1.368 . S
C1955 C1936 1.429 . S
C1955 C1949 1.429 . S
C1955 C1956 1.523 1_655 S
C1956 C1937 1.368 . S
C1956 C1950 1.368 . S
C1956 C1955 1.523 1_455 S
C1957 C1941 1.429 . S
C1957 C1953 1.429 . S
C1957 C1958 1.523 . S
C1958 C1942 1.368 . S
C1958 C1954 1.368 . S
C1958 C1957 1.523 . S
H1959 C1934 0.950 . S
H1960 C1936 0.950 1_455 S
H1961 C1937 0.949 1_655 S
H1962 C1939 0.950 . S
H1963 C1941 0.950 . S
C1964 C1965 1.349 . S
C1964 C1966 1.327 . S
C1964 H1989 0.950 . S
C1965 C1964 1.349 . S
C1965 C1981 1.349 . S
C1966 C1964 1.327 . S
C1966 C1985 1.429 . S
C1966 H1990 0.950 . S
C1967 C1984 1.574 . S
C1967 C1986 1.368 . S
C1967 H1991 0.949 . S
H1968 C1972 0.949 . S
C1969 C1970 1.349 . S
C1969 C1971 1.327 . S
C1969 H1992 0.950 . S
C1970 C1969 1.349 . S
C1970 C1982 1.349 . S
C1971 C1969 1.327 . S
C1971 C1987 1.429 . S
C1971 H1993 0.950 . S
C1972 H1968 0.949 . S
C1972 C1980 1.574 . S
C1972 C1988 1.368 . S
H1973 C1981 0.950 . S
H1974 C1979 0.950 . S
H1975 C1980 0.949 . S
H1976 C1982 0.950 . S
H1977 C1983 0.950 . S
H1978 C1984 0.949 . S
C1979 H1974 0.950 . S
C1979 C1981 1.327 . S
C1979 C1985 1.429 . S
C1980 C1972 1.574 . S
C1980 H1975 0.949 . S
C1980 C1986 1.368 . S
C1981 C1965 1.349 . S
C1981 H1973 0.950 . S
C1981 C1979 1.327 . S
C1982 C1970 1.349 . S
C1982 H1976 0.950 . S
C1982 C1983 1.327 . S
C1983 H1977 0.950 . S
C1983 C1982 1.327 . S
C1983 C1987 1.429 . S
C1984 C1967 1.574 . S
C1984 H1978 0.949 . S
C1984 C1988 1.368 . S
C1985 C1966 1.429 . S
C1985 C1979 1.429 . S
C1985 C1986 1.523 . S
C1986 C1967 1.368 . S
C1986 C1980 1.368 . S
C1986 C1985 1.523 . S
C1987 C1971 1.429 . S
C1987 C1983 1.429 . S
C1987 C1988 1.523 . S
C1988 C1972 1.368 . S
C1988 C1984 1.368 . S
C1988 C1987 1.523 . S
H1989 C1964 0.950 . S
H1990 C1966 0.950 . S
H1991 C1967 0.949 . S
H1992 C1969 0.950 . S
H1993 C1971 0.950 . S
C1994 C1995 1.349 . S
C1994 C1996 1.327 . S
C1994 H2019 0.950 . S
C1995 C1994 1.349 . S
C1995 C2011 1.349 . S
C1996 C1994 1.327 . S
C1996 C2015 1.429 . S
C1996 H2020 0.950 . S
C1997 C2014 1.574 . S
C1997 C2016 1.368 . S
C1997 H2021 0.949 . S
H1998 C2002 0.949 . S
C1999 C2000 1.349 . S
C1999 C2001 1.327 . S
C1999 H2022 0.950 . S
C2000 C1999 1.349 . S
C2000 C2012 1.349 . S
C2001 C1999 1.327 . S
C2001 C2017 1.429 . S
C2001 H2023 0.950 . S
C2002 H1998 0.949 . S
C2002 C2010 1.574 . S
C2002 C2018 1.368 . S
H2003 C2011 0.950 . S
H2004 C2009 0.950 . S
H2005 C2010 0.949 . S
H2006 C2012 0.950 . S
H2007 C2013 0.950 . S
H2008 C2014 0.949 . S
C2009 H2004 0.950 . S
C2009 C2011 1.327 . S
C2009 C2015 1.429 . S
C2010 C2002 1.574 . S
C2010 H2005 0.949 . S
C2010 C2016 1.368 . S
C2011 C1995 1.349 . S
C2011 H2003 0.950 . S
C2011 C2009 1.327 . S
C2012 C2000 1.349 . S
C2012 H2006 0.950 . S
C2012 C2013 1.327 . S
C2013 H2007 0.950 . S
C2013 C2012 1.327 . S
C2013 C2017 1.429 . S
C2014 C1997 1.574 . S
C2014 H2008 0.949 . S
C2014 C2018 1.368 . S
C2015 C1996 1.429 . S
C2015 C2009 1.429 . S
C2015 C2016 1.523 . S
C2016 C1997 1.368 . S
C2016 C2010 1.368 . S
C2016 C2015 1.523 . S
C2017 C2001 1.429 . S
C2017 C2013 1.429 . S
C2017 C2018 1.523 . S
C2018 C2002 1.368 . S
C2018 C2014 1.368 . S
C2018 C2017 1.523 . S
H2019 C1994 0.950 . S
H2020 C1996 0.950 . S
H2021 C1997 0.949 . S
H2022 C1999 0.950 . S
H2023 C2001 0.950 . S
C2024 C2025 1.349 . S
C2024 C2026 1.327 . S
C2024 H2049 0.950 . S
C2025 C2024 1.349 . S
C2025 C2041 1.349 . S
C2026 C2024 1.327 . S
C2026 C2045 1.429 . S
C2026 H2050 0.950 . S
C2027 C2044 1.574 . S
C2027 C2046 1.368 . S
C2027 H2051 0.949 . S
H2028 C2032 0.949 . S
C2029 C2030 1.349 . S
C2029 C2031 1.327 . S
C2029 H2052 0.950 . S
C2030 C2029 1.349 . S
C2030 C2042 1.349 . S
C2031 C2029 1.327 . S
C2031 C2047 1.429 . S
C2031 H2053 0.950 . S
C2032 H2028 0.949 . S
C2032 C2040 1.574 . S
C2032 C2048 1.368 . S
H2033 C2041 0.950 . S
H2034 C2039 0.950 . S
H2035 C2040 0.949 . S
H2036 C2042 0.950 . S
H2037 C2043 0.950 . S
H2038 C2044 0.949 . S
C2039 H2034 0.950 . S
C2039 C2041 1.327 . S
C2039 C2045 1.429 . S
C2040 C2032 1.574 . S
C2040 H2035 0.949 . S
C2040 C2046 1.368 . S
C2041 C2025 1.349 . S
C2041 H2033 0.950 . S
C2041 C2039 1.327 . S
C2042 C2030 1.349 . S
C2042 H2036 0.950 . S
C2042 C2043 1.327 . S
C2043 H2037 0.950 . S
C2043 C2042 1.327 . S
C2043 C2047 1.429 . S
C2044 C2027 1.574 . S
C2044 H2038 0.949 . S
C2044 C2048 1.368 . S
C2045 C2026 1.429 . S
C2045 C2039 1.429 . S
C2045 C2046 1.523 . S
C2046 C2027 1.368 . S
C2046 C2040 1.368 . S
C2046 C2045 1.523 . S
C2047 C2031 1.429 . S
C2047 C2043 1.429 . S
C2047 C2048 1.523 . S
C2048 C2032 1.368 . S
C2048 C2044 1.368 . S
C2048 C2047 1.523 . S
H2049 C2024 0.950 . S
H2050 C2026 0.950 . S
H2051 C2027 0.949 . S
H2052 C2029 0.950 . S
H2053 C2031 0.950 . S
C2054 C2055 1.349 . S
C2054 C2056 1.327 . S
C2054 H2079 0.950 . S
C2055 C2054 1.349 . S
C2055 C2071 1.349 . S
C2056 C2054 1.327 . S
C2056 C2075 1.429 . S
C2056 H2080 0.950 . S
C2057 C2074 1.574 . S
C2057 C2076 1.368 . S
C2057 H2081 0.949 . S
H2058 C2062 0.949 . S
C2059 C2060 1.349 . S
C2059 C2061 1.327 . S
C2059 H2082 0.950 . S
C2060 C2059 1.349 . S
C2060 C2072 1.349 . S
C2061 C2059 1.327 . S
C2061 C2077 1.429 . S
C2061 H2083 0.950 . S
C2062 H2058 0.949 . S
C2062 C2070 1.574 . S
C2062 C2078 1.368 . S
H2063 C2071 0.950 . S
H2064 C2069 0.950 . S
H2065 C2070 0.949 . S
H2066 C2072 0.950 . S
H2067 C2073 0.950 . S
H2068 C2074 0.949 . S
C2069 H2064 0.950 . S
C2069 C2071 1.327 . S
C2069 C2075 1.429 . S
C2070 C2062 1.574 . S
C2070 H2065 0.949 . S
C2070 C2076 1.368 . S
C2071 C2055 1.349 . S
C2071 H2063 0.950 . S
C2071 C2069 1.327 . S
C2072 C2060 1.349 . S
C2072 H2066 0.950 . S
C2072 C2073 1.327 . S
C2073 H2067 0.950 . S
C2073 C2072 1.327 . S
C2073 C2077 1.429 . S
C2074 C2057 1.574 . S
C2074 H2068 0.949 . S
C2074 C2078 1.368 . S
C2075 C2056 1.429 . S
C2075 C2069 1.429 . S
C2075 C2076 1.523 . S
C2076 C2057 1.368 . S
C2076 C2070 1.368 . S
C2076 C2075 1.523 . S
C2077 C2061 1.429 . S
C2077 C2073 1.429 . S
C2077 C2078 1.523 . S
C2078 C2062 1.368 . S
C2078 C2074 1.368 . S
C2078 C2077 1.523 . S
H2079 C2054 0.950 . S
H2080 C2056 0.950 . S
H2081 C2057 0.949 . S
H2082 C2059 0.950 . S
H2083 C2061 0.950 . S
C2084 C2085 1.349 . S
C2084 C2086 1.327 . S
C2084 H2109 0.950 . S
C2085 C2084 1.349 . S
C2085 C2101 1.349 . S
C2086 C2084 1.327 . S
C2086 C2105 1.429 . S
C2086 H2110 0.950 . S
C2087 C2104 1.574 . S
C2087 C2106 1.368 . S
C2087 H2111 0.949 . S
H2088 C2092 0.949 . S
C2089 C2090 1.349 . S
C2089 C2091 1.327 . S
C2089 H2112 0.950 . S
C2090 C2089 1.349 . S
C2090 C2102 1.349 . S
C2091 C2089 1.327 . S
C2091 C2107 1.429 . S
C2091 H2113 0.950 . S
C2092 H2088 0.949 . S
C2092 C2100 1.574 . S
C2092 C2108 1.368 . S
H2093 C2101 0.950 . S
H2094 C2099 0.950 . S
H2095 C2100 0.949 . S
H2096 C2102 0.950 . S
H2097 C2103 0.950 . S
H2098 C2104 0.949 . S
C2099 H2094 0.950 . S
C2099 C2101 1.327 . S
C2099 C2105 1.429 . S
C2100 C2092 1.574 . S
C2100 H2095 0.949 . S
C2100 C2106 1.368 . S
C2101 C2085 1.349 . S
C2101 H2093 0.950 . S
C2101 C2099 1.327 . S
C2102 C2090 1.349 . S
C2102 H2096 0.950 . S
C2102 C2103 1.327 . S
C2103 H2097 0.950 . S
C2103 C2102 1.327 . S
C2103 C2107 1.429 . S
C2104 C2087 1.574 . S
C2104 H2098 0.949 . S
C2104 C2108 1.368 . S
C2105 C2086 1.429 . S
C2105 C2099 1.429 . S
C2105 C2106 1.523 . S
C2106 C2087 1.368 . S
C2106 C2100 1.368 . S
C2106 C2105 1.523 . S
C2107 C2091 1.429 . S
C2107 C2103 1.429 . S
C2107 C2108 1.523 . S
C2108 C2092 1.368 . S
C2108 C2104 1.368 . S
C2108 C2107 1.523 . S
H2109 C2084 0.950 . S
H2110 C2086 0.950 . S
H2111 C2087 0.949 . S
H2112 C2089 0.950 . S
H2113 C2091 0.950 . S
C2114 C2115 1.349 . S
C2114 C2116 1.327 . S
C2114 H2139 0.950 . S
C2115 C2114 1.349 . S
C2115 C2131 1.349 . S
C2116 C2114 1.327 . S
C2116 C2135 1.429 . S
C2116 H2140 0.950 . S
C2117 C2134 1.574 . S
C2117 C2136 1.368 . S
C2117 H2141 0.949 . S
H2118 C2122 0.949 . S
C2119 C2120 1.349 . S
C2119 C2121 1.327 . S
C2119 H2142 0.950 . S
C2120 C2119 1.349 . S
C2120 C2132 1.349 . S
C2121 C2119 1.327 . S
C2121 C2137 1.429 . S
C2121 H2143 0.950 . S
C2122 H2118 0.949 . S
C2122 C2130 1.574 . S
C2122 C2138 1.368 . S
H2123 C2131 0.950 . S
H2124 C2129 0.950 . S
H2125 C2130 0.949 . S
H2126 C2132 0.950 . S
H2127 C2133 0.950 1_455 S
H2128 C2134 0.949 1_655 S
C2129 H2124 0.950 . S
C2129 C2131 1.327 . S
C2129 C2135 1.429 . S
C2130 C2122 1.574 . S
C2130 H2125 0.949 . S
C2130 C2136 1.368 . S
C2131 C2115 1.349 . S
C2131 H2123 0.950 . S
C2131 C2129 1.327 . S
C2132 C2120 1.349 . S
C2132 H2126 0.950 . S
C2132 C2133 1.327 . S
C2133 H2127 0.950 1_655 S
C2133 C2132 1.327 . S
C2133 C2137 1.429 . S
C2134 C2117 1.574 . S
C2134 H2128 0.949 1_455 S
C2134 C2138 1.368 . S
C2135 C2116 1.429 . S
C2135 C2129 1.429 . S
C2135 C2136 1.523 . S
C2136 C2117 1.368 . S
C2136 C2130 1.368 . S
C2136 C2135 1.523 . S
C2137 C2121 1.429 . S
C2137 C2133 1.429 . S
C2137 C2138 1.523 1_655 S
C2138 C2122 1.368 . S
C2138 C2134 1.368 . S
C2138 C2137 1.523 1_455 S
H2139 C2114 0.950 . S
H2140 C2116 0.950 . S
H2141 C2117 0.949 . S
H2142 C2119 0.950 . S
H2143 C2121 0.950 . S
C2144 C2145 1.349 . S
C2144 C2146 1.327 . S
C2144 H2169 0.950 . S
C2145 C2144 1.349 . S
C2145 C2161 1.349 . S
C2146 C2144 1.327 . S
C2146 C2165 1.429 . S
C2146 H2170 0.950 . S
C2147 C2164 1.574 . S
C2147 C2166 1.368 . S
C2147 H2171 0.949 . S
H2148 C2152 0.949 . S
C2149 C2150 1.349 . S
C2149 C2151 1.327 . S
C2149 H2172 0.950 . S
C2150 C2149 1.349 . S
C2150 C2162 1.349 . S
C2151 C2149 1.327 . S
C2151 C2167 1.429 . S
C2151 H2173 0.950 . S
C2152 H2148 0.949 . S
C2152 C2160 1.574 . S
C2152 C2168 1.368 . S
H2153 C2161 0.950 . S
H2154 C2159 0.950 . S
H2155 C2160 0.949 . S
H2156 C2162 0.950 . S
H2157 C2163 0.950 . S
H2158 C2164 0.949 . S
C2159 H2154 0.950 . S
C2159 C2161 1.327 . S
C2159 C2165 1.429 . S
C2160 C2152 1.574 . S
C2160 H2155 0.949 . S
C2160 C2166 1.368 . S
C2161 C2145 1.349 . S
C2161 H2153 0.950 . S
C2161 C2159 1.327 . S
C2162 C2150 1.349 . S
C2162 H2156 0.950 . S
C2162 C2163 1.327 . S
C2163 H2157 0.950 . S
C2163 C2162 1.327 . S
C2163 C2167 1.429 . S
C2164 C2147 1.574 . S
C2164 H2158 0.949 . S
C2164 C2168 1.368 . S
C2165 C2146 1.429 . S
C2165 C2159 1.429 . S
C2165 C2166 1.523 . S
C2166 C2147 1.368 . S
C2166 C2160 1.368 . S
C2166 C2165 1.523 . S
C2167 C2151 1.429 . S
C2167 C2163 1.429 . S
C2167 C2168 1.523 . S
C2168 C2152 1.368 . S
C2168 C2164 1.368 . S
C2168 C2167 1.523 . S
H2169 C2144 0.950 . S
H2170 C2146 0.950 . S
H2171 C2147 0.949 . S
H2172 C2149 0.950 . S
H2173 C2151 0.950 . S
C2174 C2175 1.349 . S
C2174 C2176 1.327 . S
C2174 H2199 0.950 . S
C2175 C2174 1.349 . S
C2175 C2191 1.349 . S
C2176 C2174 1.327 . S
C2176 C2195 1.429 . S
C2176 H2200 0.950 . S
C2177 C2194 1.574 . S
C2177 C2196 1.368 . S
C2177 H2201 0.949 . S
H2178 C2182 0.949 . S
C2179 C2180 1.349 . S
C2179 C2181 1.327 . S
C2179 H2202 0.950 . S
C2180 C2179 1.349 . S
C2180 C2192 1.349 . S
C2181 C2179 1.327 . S
C2181 C2197 1.429 . S
C2181 H2203 0.950 . S
C2182 H2178 0.949 . S
C2182 C2190 1.574 . S
C2182 C2198 1.368 . S
H2183 C2191 0.950 . S
H2184 C2189 0.950 . S
H2185 C2190 0.949 . S
H2186 C2192 0.950 . S
H2187 C2193 0.950 . S
H2188 C2194 0.949 . S
C2189 H2184 0.950 . S
C2189 C2191 1.327 . S
C2189 C2195 1.429 . S
C2190 C2182 1.574 . S
C2190 H2185 0.949 . S
C2190 C2196 1.368 . S
C2191 C2175 1.349 . S
C2191 H2183 0.950 . S
C2191 C2189 1.327 . S
C2192 C2180 1.349 . S
C2192 H2186 0.950 . S
C2192 C2193 1.327 . S
C2193 H2187 0.950 . S
C2193 C2192 1.327 . S
C2193 C2197 1.429 . S
C2194 C2177 1.574 . S
C2194 H2188 0.949 . S
C2194 C2198 1.368 . S
C2195 C2176 1.429 . S
C2195 C2189 1.429 . S
C2195 C2196 1.523 . S
C2196 C2177 1.368 . S
C2196 C2190 1.368 . S
C2196 C2195 1.523 . S
C2197 C2181 1.429 . S
C2197 C2193 1.429 . S
C2197 C2198 1.523 . S
C2198 C2182 1.368 . S
C2198 C2194 1.368 . S
C2198 C2197 1.523 . S
H2199 C2174 0.950 . S
H2200 C2176 0.950 . S
H2201 C2177 0.949 . S
H2202 C2179 0.950 . S
H2203 C2181 0.950 . S
C2204 C2205 1.349 . S
C2204 C2206 1.327 . S
C2204 H2229 0.950 . S
C2205 C2204 1.349 . S
C2205 C2221 1.349 . S
C2206 C2204 1.327 . S
C2206 C2225 1.429 . S
C2206 H2230 0.950 . S
C2207 C2224 1.574 . S
C2207 C2226 1.368 . S
C2207 H2231 0.949 . S
H2208 C2212 0.949 . S
C2209 C2210 1.349 . S
C2209 C2211 1.327 . S
C2209 H2232 0.950 . S
C2210 C2209 1.349 . S
C2210 C2222 1.349 . S
C2211 C2209 1.327 . S
C2211 C2227 1.429 . S
C2211 H2233 0.950 . S
C2212 H2208 0.949 . S
C2212 C2220 1.574 . S
C2212 C2228 1.368 . S
H2213 C2221 0.950 . S
H2214 C2219 0.950 . S
H2215 C2220 0.949 . S
H2216 C2222 0.950 . S
H2217 C2223 0.950 . S
H2218 C2224 0.949 . S
C2219 H2214 0.950 . S
C2219 C2221 1.327 . S
C2219 C2225 1.429 . S
C2220 C2212 1.574 . S
C2220 H2215 0.949 . S
C2220 C2226 1.368 . S
C2221 C2205 1.349 . S
C2221 H2213 0.950 . S
C2221 C2219 1.327 . S
C2222 C2210 1.349 . S
C2222 H2216 0.950 . S
C2222 C2223 1.327 . S
C2223 H2217 0.950 . S
C2223 C2222 1.327 . S
C2223 C2227 1.429 . S
C2224 C2207 1.574 . S
C2224 H2218 0.949 . S
C2224 C2228 1.368 . S
C2225 C2206 1.429 . S
C2225 C2219 1.429 . S
C2225 C2226 1.523 . S
C2226 C2207 1.368 . S
C2226 C2220 1.368 . S
C2226 C2225 1.523 . S
C2227 C2211 1.429 . S
C2227 C2223 1.429 . S
C2227 C2228 1.523 . S
C2228 C2212 1.368 . S
C2228 C2224 1.368 . S
C2228 C2227 1.523 . S
H2229 C2204 0.950 . S
H2230 C2206 0.950 . S
H2231 C2207 0.949 . S
H2232 C2209 0.950 . S
H2233 C2211 0.950 . S
C2234 C2235 1.349 . S
C2234 C2236 1.327 . S
C2234 H2259 0.950 . S
C2235 C2234 1.349 . S
C2235 C2251 1.349 . S
C2236 C2234 1.327 . S
C2236 C2255 1.429 . S
C2236 H2260 0.950 1_655 S
C2237 C2254 1.574 . S
C2237 C2256 1.368 . S
C2237 H2261 0.949 1_455 S
H2238 C2242 0.949 . S
C2239 C2240 1.349 . S
C2239 C2241 1.327 . S
C2239 H2262 0.950 . S
C2240 C2239 1.349 . S
C2240 C2252 1.349 . S
C2241 C2239 1.327 . S
C2241 C2257 1.429 . S
C2241 H2263 0.950 . S
C2242 H2238 0.949 . S
C2242 C2250 1.574 . S
C2242 C2258 1.368 . S
H2243 C2251 0.950 . S
H2244 C2249 0.950 . S
H2245 C2250 0.949 . S
H2246 C2252 0.950 . S
H2247 C2253 0.950 . S
H2248 C2254 0.949 . S
C2249 H2244 0.950 . S
C2249 C2251 1.327 . S
C2249 C2255 1.429 . S
C2250 C2242 1.574 . S
C2250 H2245 0.949 . S
C2250 C2256 1.368 . S
C2251 C2235 1.349 . S
C2251 H2243 0.950 . S
C2251 C2249 1.327 . S
C2252 C2240 1.349 . S
C2252 H2246 0.950 . S
C2252 C2253 1.327 . S
C2253 H2247 0.950 . S
C2253 C2252 1.327 . S
C2253 C2257 1.429 . S
C2254 C2237 1.574 . S
C2254 H2248 0.949 . S
C2254 C2258 1.368 . S
C2255 C2236 1.429 . S
C2255 C2249 1.429 . S
C2255 C2256 1.523 1_655 S
C2256 C2237 1.368 . S
C2256 C2250 1.368 . S
C2256 C2255 1.523 1_455 S
C2257 C2241 1.429 . S
C2257 C2253 1.429 . S
C2257 C2258 1.523 . S
C2258 C2242 1.368 . S
C2258 C2254 1.368 . S
C2258 C2257 1.523 . S
H2259 C2234 0.950 . S
H2260 C2236 0.950 1_455 S
H2261 C2237 0.949 1_655 S
H2262 C2239 0.950 . S
H2263 C2241 0.950 . S
C2264 C2265 1.349 . S
C2264 C2266 1.327 . S
C2264 H2289 0.950 . S
C2265 C2264 1.349 . S
C2265 C2281 1.349 . S
C2266 C2264 1.327 . S
C2266 C2285 1.429 . S
C2266 H2290 0.950 . S
C2267 C2284 1.574 . S
C2267 C2286 1.368 . S
C2267 H2291 0.949 . S
H2268 C2272 0.949 . S
C2269 C2270 1.349 . S
C2269 C2271 1.327 . S
C2269 H2292 0.950 . S
C2270 C2269 1.349 . S
C2270 C2282 1.349 . S
C2271 C2269 1.327 . S
C2271 C2287 1.429 . S
C2271 H2293 0.950 . S
C2272 H2268 0.949 . S
C2272 C2280 1.574 . S
C2272 C2288 1.368 . S
H2273 C2281 0.950 . S
H2274 C2279 0.950 . S
H2275 C2280 0.949 . S
H2276 C2282 0.950 . S
H2277 C2283 0.950 . S
H2278 C2284 0.949 . S
C2279 H2274 0.950 . S
C2279 C2281 1.327 . S
C2279 C2285 1.429 . S
C2280 C2272 1.574 . S
C2280 H2275 0.949 . S
C2280 C2286 1.368 . S
C2281 C2265 1.349 . S
C2281 H2273 0.950 . S
C2281 C2279 1.327 . S
C2282 C2270 1.349 . S
C2282 H2276 0.950 . S
C2282 C2283 1.327 . S
C2283 H2277 0.950 . S
C2283 C2282 1.327 . S
C2283 C2287 1.429 . S
C2284 C2267 1.574 . S
C2284 H2278 0.949 . S
C2284 C2288 1.368 . S
C2285 C2266 1.429 . S
C2285 C2279 1.429 . S
C2285 C2286 1.523 . S
C2286 C2267 1.368 . S
C2286 C2280 1.368 . S
C2286 C2285 1.523 . S
C2287 C2271 1.429 . S
C2287 C2283 1.429 . S
C2287 C2288 1.523 . S
C2288 C2272 1.368 . S
C2288 C2284 1.368 . S
C2288 C2287 1.523 . S
H2289 C2264 0.950 . S
H2290 C2266 0.950 . S
H2291 C2267 0.949 . S
H2292 C2269 0.950 . S
H2293 C2271 0.950 . S
C2294 C2295 1.349 . S
C2294 C2296 1.327 . S
C2294 H2319 0.950 . S
C2295 C2294 1.349 . S
C2295 C2311 1.349 . S
C2296 C2294 1.327 . S
C2296 C2315 1.429 . S
C2296 H2320 0.950 1_655 S
C2297 C2314 1.574 . S
C2297 C2316 1.368 . S
C2297 H2321 0.949 1_455 S
H2298 C2302 0.949 . S
C2299 C2300 1.349 . S
C2299 C2301 1.327 . S
C2299 H2322 0.950 . S
C2300 C2299 1.349 . S
C2300 C2312 1.349 . S
C2301 C2299 1.327 . S
C2301 C2317 1.429 . S
C2301 H2323 0.950 . S
C2302 H2298 0.949 . S
C2302 C2310 1.574 . S
C2302 C2318 1.368 . S
H2303 C2311 0.950 . S
H2304 C2309 0.950 . S
H2305 C2310 0.949 . S
H2306 C2312 0.950 . S
H2307 C2313 0.950 . S
H2308 C2314 0.949 . S
C2309 H2304 0.950 . S
C2309 C2311 1.327 . S
C2309 C2315 1.429 . S
C2310 C2302 1.574 . S
C2310 H2305 0.949 . S
C2310 C2316 1.368 . S
C2311 C2295 1.349 . S
C2311 H2303 0.950 . S
C2311 C2309 1.327 . S
C2312 C2300 1.349 . S
C2312 H2306 0.950 . S
C2312 C2313 1.327 . S
C2313 H2307 0.950 . S
C2313 C2312 1.327 . S
C2313 C2317 1.429 . S
C2314 C2297 1.574 . S
C2314 H2308 0.949 . S
C2314 C2318 1.368 . S
C2315 C2296 1.429 . S
C2315 C2309 1.429 . S
C2315 C2316 1.523 1_655 S
C2316 C2297 1.368 . S
C2316 C2310 1.368 . S
C2316 C2315 1.523 1_455 S
C2317 C2301 1.429 . S
C2317 C2313 1.429 . S
C2317 C2318 1.523 . S
C2318 C2302 1.368 . S
C2318 C2314 1.368 . S
C2318 C2317 1.523 . S
H2319 C2294 0.950 . S
H2320 C2296 0.950 1_455 S
H2321 C2297 0.949 1_655 S
H2322 C2299 0.950 . S
H2323 C2301 0.950 . S
C2324 C2325 1.349 . S
C2324 C2326 1.327 . S
C2324 H2349 0.950 . S
C2325 C2324 1.349 . S
C2325 C2341 1.349 . S
C2326 C2324 1.327 . S
C2326 C2345 1.429 . S
C2326 H2350 0.950 . S
C2327 C2344 1.574 . S
C2327 C2346 1.368 . S
C2327 H2351 0.949 . S
H2328 C2332 0.949 . S
C2329 C2330 1.349 . S
C2329 C2331 1.327 . S
C2329 H2352 0.950 . S
C2330 C2329 1.349 . S
C2330 C2342 1.349 . S
C2331 C2329 1.327 . S
C2331 C2347 1.429 . S
C2331 H2353 0.950 . S
C2332 H2328 0.949 . S
C2332 C2340 1.574 . S
C2332 C2348 1.368 . S
H2333 C2341 0.950 . S
H2334 C2339 0.950 . S
H2335 C2340 0.949 . S
H2336 C2342 0.950 . S
H2337 C2343 0.950 . S
H2338 C2344 0.949 . S
C2339 H2334 0.950 . S
C2339 C2341 1.327 . S
C2339 C2345 1.429 . S
C2340 C2332 1.574 . S
C2340 H2335 0.949 . S
C2340 C2346 1.368 . S
C2341 C2325 1.349 . S
C2341 H2333 0.950 . S
C2341 C2339 1.327 . S
C2342 C2330 1.349 . S
C2342 H2336 0.950 . S
C2342 C2343 1.327 . S
C2343 H2337 0.950 . S
C2343 C2342 1.327 . S
C2343 C2347 1.429 . S
C2344 C2327 1.574 . S
C2344 H2338 0.949 . S
C2344 C2348 1.368 . S
C2345 C2326 1.429 . S
C2345 C2339 1.429 . S
C2345 C2346 1.523 . S
C2346 C2327 1.368 . S
C2346 C2340 1.368 . S
C2346 C2345 1.523 . S
C2347 C2331 1.429 . S
C2347 C2343 1.429 . S
C2347 C2348 1.523 . S
C2348 C2332 1.368 . S
C2348 C2344 1.368 . S
C2348 C2347 1.523 . S
H2349 C2324 0.950 . S
H2350 C2326 0.950 . S
H2351 C2327 0.949 . S
H2352 C2329 0.950 . S
H2353 C2331 0.950 . S
C2354 C2355 1.349 . S
C2354 C2356 1.327 . S
C2354 H2379 0.950 . S
C2355 C2354 1.349 . S
C2355 C2371 1.349 . S
C2356 C2354 1.327 . S
C2356 C2375 1.429 . S
C2356 H2380 0.950 . S
C2357 C2374 1.574 . S
C2357 C2376 1.368 . S
C2357 H2381 0.949 . S
H2358 C2362 0.949 . S
C2359 C2360 1.349 . S
C2359 C2361 1.327 . S
C2359 H2382 0.950 . S
C2360 C2359 1.349 . S
C2360 C2372 1.349 . S
C2361 C2359 1.327 . S
C2361 C2377 1.429 . S
C2361 H2383 0.950 . S
C2362 H2358 0.949 . S
C2362 C2370 1.574 . S
C2362 C2378 1.368 . S
H2363 C2371 0.950 . S
H2364 C2369 0.950 . S
H2365 C2370 0.949 . S
H2366 C2372 0.950 . S
H2367 C2373 0.950 . S
H2368 C2374 0.949 . S
C2369 H2364 0.950 . S
C2369 C2371 1.327 . S
C2369 C2375 1.429 . S
C2370 C2362 1.574 . S
C2370 H2365 0.949 . S
C2370 C2376 1.368 . S
C2371 C2355 1.349 . S
C2371 H2363 0.950 . S
C2371 C2369 1.327 . S
C2372 C2360 1.349 . S
C2372 H2366 0.950 . S
C2372 C2373 1.327 . S
C2373 H2367 0.950 . S
C2373 C2372 1.327 . S
C2373 C2377 1.429 . S
C2374 C2357 1.574 . S
C2374 H2368 0.949 . S
C2374 C2378 1.368 . S
C2375 C2356 1.429 . S
C2375 C2369 1.429 . S
C2375 C2376 1.523 . S
C2376 C2357 1.368 . S
C2376 C2370 1.368 . S
C2376 C2375 1.523 . S
C2377 C2361 1.429 . S
C2377 C2373 1.429 . S
C2377 C2378 1.523 . S
C2378 C2362 1.368 . S
C2378 C2374 1.368 . S
C2378 C2377 1.523 . S
H2379 C2354 0.950 . S
H2380 C2356 0.950 . S
H2381 C2357 0.949 . S
H2382 C2359 0.950 . S
H2383 C2361 0.950 . S
C2384 C2385 1.349 . S
C2384 C2386 1.327 . S
C2384 H2409 0.950 . S
C2385 C2384 1.349 . S
C2385 C2401 1.349 . S
C2386 C2384 1.327 . S
C2386 C2405 1.429 . S
C2386 H2410 0.950 . S
C2387 C2404 1.574 . S
C2387 C2406 1.368 . S
C2387 H2411 0.949 . S
H2388 C2392 0.949 . S
C2389 C2390 1.349 . S
C2389 C2391 1.327 . S
C2389 H2412 0.950 . S
C2390 C2389 1.349 . S
C2390 C2402 1.349 . S
C2391 C2389 1.327 . S
C2391 C2407 1.429 . S
C2391 H2413 0.950 . S
C2392 H2388 0.949 . S
C2392 C2400 1.574 . S
C2392 C2408 1.368 . S
H2393 C2401 0.950 . S
H2394 C2399 0.950 . S
H2395 C2400 0.949 . S
H2396 C2402 0.950 . S
H2397 C2403 0.950 . S
H2398 C2404 0.949 . S
C2399 H2394 0.950 . S
C2399 C2401 1.327 . S
C2399 C2405 1.429 . S
C2400 C2392 1.574 . S
C2400 H2395 0.949 . S
C2400 C2406 1.368 . S
C2401 C2385 1.349 . S
C2401 H2393 0.950 . S
C2401 C2399 1.327 . S
C2402 C2390 1.349 . S
C2402 H2396 0.950 . S
C2402 C2403 1.327 . S
C2403 H2397 0.950 . S
C2403 C2402 1.327 . S
C2403 C2407 1.429 . S
C2404 C2387 1.574 . S
C2404 H2398 0.949 . S
C2404 C2408 1.368 . S
C2405 C2386 1.429 . S
C2405 C2399 1.429 . S
C2405 C2406 1.523 . S
C2406 C2387 1.368 . S
C2406 C2400 1.368 . S
C2406 C2405 1.523 . S
C2407 C2391 1.429 . S
C2407 C2403 1.429 . S
C2407 C2408 1.523 . S
C2408 C2392 1.368 . S
C2408 C2404 1.368 . S
C2408 C2407 1.523 . S
H2409 C2384 0.950 . S
H2410 C2386 0.950 . S
H2411 C2387 0.949 . S
H2412 C2389 0.950 . S
H2413 C2391 0.950 . S
C2414 C2415 1.349 . S
C2414 C2416 1.327 . S
C2414 H2439 0.950 . S
C2415 C2414 1.349 . S
C2415 C2431 1.349 . S
C2416 C2414 1.327 . S
C2416 C2435 1.429 . S
C2416 H2440 0.950 . S
C2417 C2434 1.574 . S
C2417 C2436 1.368 . S
C2417 H2441 0.949 . S
H2418 C2422 0.949 . S
C2419 C2420 1.349 . S
C2419 C2421 1.327 . S
C2419 H2442 0.950 . S
C2420 C2419 1.349 . S
C2420 C2432 1.349 . S
C2421 C2419 1.327 . S
C2421 C2437 1.429 . S
C2421 H2443 0.950 . S
C2422 H2418 0.949 . S
C2422 C2430 1.574 . S
C2422 C2438 1.368 . S
H2423 C2431 0.950 . S
H2424 C2429 0.950 . S
H2425 C2430 0.949 . S
H2426 C2432 0.950 . S
H2427 C2433 0.950 . S
H2428 C2434 0.949 . S
C2429 H2424 0.950 . S
C2429 C2431 1.327 . S
C2429 C2435 1.429 . S
C2430 C2422 1.574 . S
C2430 H2425 0.949 . S
C2430 C2436 1.368 . S
C2431 C2415 1.349 . S
C2431 H2423 0.950 . S
C2431 C2429 1.327 . S
C2432 C2420 1.349 . S
C2432 H2426 0.950 . S
C2432 C2433 1.327 . S
C2433 H2427 0.950 . S
C2433 C2432 1.327 . S
C2433 C2437 1.429 . S
C2434 C2417 1.574 . S
C2434 H2428 0.949 . S
C2434 C2438 1.368 . S
C2435 C2416 1.429 . S
C2435 C2429 1.429 . S
C2435 C2436 1.523 . S
C2436 C2417 1.368 . S
C2436 C2430 1.368 . S
C2436 C2435 1.523 . S
C2437 C2421 1.429 . S
C2437 C2433 1.429 . S
C2437 C2438 1.523 . S
C2438 C2422 1.368 . S
C2438 C2434 1.368 . S
C2438 C2437 1.523 . S
H2439 C2414 0.950 . S
H2440 C2416 0.950 . S
H2441 C2417 0.949 . S
H2442 C2419 0.950 . S
H2443 C2421 0.950 . S
C2444 C2445 1.349 . S
C2444 C2446 1.327 . S
C2444 H2469 0.950 . S
C2445 C2444 1.349 . S
C2445 C2461 1.349 . S
C2446 C2444 1.327 . S
C2446 C2465 1.429 . S
C2446 H2470 0.950 . S
C2447 C2464 1.574 . S
C2447 C2466 1.368 . S
C2447 H2471 0.949 . S
H2448 C2452 0.949 . S
C2449 C2450 1.349 . S
C2449 C2451 1.327 . S
C2449 H2472 0.950 . S
C2450 C2449 1.349 . S
C2450 C2462 1.349 . S
C2451 C2449 1.327 . S
C2451 C2467 1.429 . S
C2451 H2473 0.950 . S
C2452 H2448 0.949 . S
C2452 C2460 1.574 . S
C2452 C2468 1.368 . S
H2453 C2461 0.950 . S
H2454 C2459 0.950 . S
H2455 C2460 0.949 . S
H2456 C2462 0.950 . S
H2457 C2463 0.950 . S
H2458 C2464 0.949 . S
C2459 H2454 0.950 . S
C2459 C2461 1.327 . S
C2459 C2465 1.429 . S
C2460 C2452 1.574 . S
C2460 H2455 0.949 . S
C2460 C2466 1.368 . S
C2461 C2445 1.349 . S
C2461 H2453 0.950 . S
C2461 C2459 1.327 . S
C2462 C2450 1.349 . S
C2462 H2456 0.950 . S
C2462 C2463 1.327 . S
C2463 H2457 0.950 . S
C2463 C2462 1.327 . S
C2463 C2467 1.429 . S
C2464 C2447 1.574 . S
C2464 H2458 0.949 . S
C2464 C2468 1.368 . S
C2465 C2446 1.429 . S
C2465 C2459 1.429 . S
C2465 C2466 1.523 . S
C2466 C2447 1.368 . S
C2466 C2460 1.368 . S
C2466 C2465 1.523 . S
C2467 C2451 1.429 . S
C2467 C2463 1.429 . S
C2467 C2468 1.523 . S
C2468 C2452 1.368 . S
C2468 C2464 1.368 . S
C2468 C2467 1.523 . S
H2469 C2444 0.950 . S
H2470 C2446 0.950 . S
H2471 C2447 0.949 . S
H2472 C2449 0.950 . S
H2473 C2451 0.950 . S
C2474 C2475 1.349 . S
C2474 C2476 1.327 . S
C2474 H2499 0.950 . S
C2475 C2474 1.349 . S
C2475 C2491 1.349 . S
C2476 C2474 1.327 . S
C2476 C2495 1.429 . S
C2476 H2500 0.950 . S
C2477 C2494 1.574 . S
C2477 C2496 1.368 . S
C2477 H2501 0.949 . S
H2478 C2482 0.949 . S
C2479 C2480 1.349 . S
C2479 C2481 1.327 . S
C2479 H2502 0.950 . S
C2480 C2479 1.349 . S
C2480 C2492 1.349 . S
C2481 C2479 1.327 . S
C2481 C2497 1.429 . S
C2481 H2503 0.950 . S
C2482 H2478 0.949 . S
C2482 C2490 1.574 . S
C2482 C2498 1.368 . S
H2483 C2491 0.950 . S
H2484 C2489 0.950 . S
H2485 C2490 0.949 . S
H2486 C2492 0.950 . S
H2487 C2493 0.950 1_655 S
H2488 C2494 0.949 1_455 S
C2489 H2484 0.950 . S
C2489 C2491 1.327 . S
C2489 C2495 1.429 . S
C2490 C2482 1.574 . S
C2490 H2485 0.949 . S
C2490 C2496 1.368 . S
C2491 C2475 1.349 . S
C2491 H2483 0.950 . S
C2491 C2489 1.327 . S
C2492 C2480 1.349 . S
C2492 H2486 0.950 . S
C2492 C2493 1.327 . S
C2493 H2487 0.950 1_455 S
C2493 C2492 1.327 . S
C2493 C2497 1.429 . S
C2494 C2477 1.574 . S
C2494 H2488 0.949 1_655 S
C2494 C2498 1.368 . S
C2495 C2476 1.429 . S
C2495 C2489 1.429 . S
C2495 C2496 1.523 . S
C2496 C2477 1.368 . S
C2496 C2490 1.368 . S
C2496 C2495 1.523 . S
C2497 C2481 1.429 . S
C2497 C2493 1.429 . S
C2497 C2498 1.523 1_455 S
C2498 C2482 1.368 . S
C2498 C2494 1.368 . S
C2498 C2497 1.523 1_655 S
H2499 C2474 0.950 . S
H2500 C2476 0.950 . S
H2501 C2477 0.949 . S
H2502 C2479 0.950 . S
H2503 C2481 0.950 . S
C2504 C2505 1.349 . S
C2504 C2506 1.327 . S
C2504 H2529 0.950 . S
C2505 C2504 1.349 . S
C2505 C2521 1.349 . S
C2506 C2504 1.327 . S
C2506 C2525 1.429 . S
C2506 H2530 0.950 . S
C2507 C2524 1.574 . S
C2507 C2526 1.368 . S
C2507 H2531 0.949 . S
H2508 C2512 0.949 . S
C2509 C2510 1.349 . S
C2509 C2511 1.327 . S
C2509 H2532 0.950 . S
C2510 C2509 1.349 . S
C2510 C2522 1.349 . S
C2511 C2509 1.327 . S
C2511 C2527 1.429 . S
C2511 H2533 0.950 . S
C2512 H2508 0.949 . S
C2512 C2520 1.574 . S
C2512 C2528 1.368 . S
H2513 C2521 0.950 . S
H2514 C2519 0.950 . S
H2515 C2520 0.949 . S
H2516 C2522 0.950 . S
H2517 C2523 0.950 . S
H2518 C2524 0.949 . S
C2519 H2514 0.950 . S
C2519 C2521 1.327 . S
C2519 C2525 1.429 . S
C2520 C2512 1.574 . S
C2520 H2515 0.949 . S
C2520 C2526 1.368 . S
C2521 C2505 1.349 . S
C2521 H2513 0.950 . S
C2521 C2519 1.327 . S
C2522 C2510 1.349 . S
C2522 H2516 0.950 . S
C2522 C2523 1.327 . S
C2523 H2517 0.950 . S
C2523 C2522 1.327 . S
C2523 C2527 1.429 . S
C2524 C2507 1.574 . S
C2524 H2518 0.949 . S
C2524 C2528 1.368 . S
C2525 C2506 1.429 . S
C2525 C2519 1.429 . S
C2525 C2526 1.523 . S
C2526 C2507 1.368 . S
C2526 C2520 1.368 . S
C2526 C2525 1.523 . S
C2527 C2511 1.429 . S
C2527 C2523 1.429 . S
C2527 C2528 1.523 . S
C2528 C2512 1.368 . S
C2528 C2524 1.368 . S
C2528 C2527 1.523 . S
H2529 C2504 0.950 . S
H2530 C2506 0.950 . S
H2531 C2507 0.949 . S
H2532 C2509 0.950 . S
H2533 C2511 0.950 . S
C2534 C2535 1.349 . S
C2534 C2536 1.327 . S
C2534 H2559 0.950 . S
C2535 C2534 1.349 . S
C2535 C2551 1.349 . S
C2536 C2534 1.327 . S
C2536 C2555 1.429 . S
C2536 H2560 0.950 . S
C2537 C2554 1.574 . S
C2537 C2556 1.368 . S
C2537 H2561 0.949 . S
H2538 C2542 0.949 1_455 S
C2539 C2540 1.349 . S
C2539 C2541 1.327 . S
C2539 H2562 0.950 . S
C2540 C2539 1.349 . S
C2540 C2552 1.349 . S
C2541 C2539 1.327 . S
C2541 C2557 1.429 . S
C2541 H2563 0.950 1_455 S
C2542 H2538 0.949 1_655 S
C2542 C2550 1.574 . S
C2542 C2558 1.368 . S
H2543 C2551 0.950 . S
H2544 C2549 0.950 . S
H2545 C2550 0.949 . S
H2546 C2552 0.950 . S
H2547 C2553 0.950 . S
H2548 C2554 0.949 . S
C2549 H2544 0.950 . S
C2549 C2551 1.327 . S
C2549 C2555 1.429 . S
C2550 C2542 1.574 . S
C2550 H2545 0.949 . S
C2550 C2556 1.368 . S
C2551 C2535 1.349 . S
C2551 H2543 0.950 . S
C2551 C2549 1.327 . S
C2552 C2540 1.349 . S
C2552 H2546 0.950 . S
C2552 C2553 1.327 . S
C2553 H2547 0.950 . S
C2553 C2552 1.327 . S
C2553 C2557 1.429 . S
C2554 C2537 1.574 . S
C2554 H2548 0.949 . S
C2554 C2558 1.368 . S
C2555 C2536 1.429 . S
C2555 C2549 1.429 . S
C2555 C2556 1.523 . S
C2556 C2537 1.368 . S
C2556 C2550 1.368 . S
C2556 C2555 1.523 . S
C2557 C2541 1.429 . S
C2557 C2553 1.429 . S
C2557 C2558 1.523 1_455 S
C2558 C2542 1.368 . S
C2558 C2554 1.368 . S
C2558 C2557 1.523 1_655 S
H2559 C2534 0.950 . S
H2560 C2536 0.950 . S
H2561 C2537 0.949 . S
H2562 C2539 0.950 . S
H2563 C2541 0.950 1_655 S
C2564 C2565 1.349 . S
C2564 C2566 1.327 . S
C2564 H2589 0.950 . S
C2565 C2564 1.349 . S
C2565 C2581 1.349 . S
C2566 C2564 1.327 . S
C2566 C2585 1.429 . S
C2566 H2590 0.950 . S
C2567 C2584 1.574 . S
C2567 C2586 1.368 . S
C2567 H2591 0.949 . S
H2568 C2572 0.949 . S
C2569 C2570 1.349 . S
C2569 C2571 1.327 . S
C2569 H2592 0.950 . S
C2570 C2569 1.349 . S
C2570 C2582 1.349 . S
C2571 C2569 1.327 . S
C2571 C2587 1.429 . S
C2571 H2593 0.950 . S
C2572 H2568 0.949 . S
C2572 C2580 1.574 . S
C2572 C2588 1.368 . S
H2573 C2581 0.950 . S
H2574 C2579 0.950 . S
H2575 C2580 0.949 . S
H2576 C2582 0.950 . S
H2577 C2583 0.950 . S
H2578 C2584 0.949 . S
C2579 H2574 0.950 . S
C2579 C2581 1.327 . S
C2579 C2585 1.429 . S
C2580 C2572 1.574 . S
C2580 H2575 0.949 . S
C2580 C2586 1.368 . S
C2581 C2565 1.349 . S
C2581 H2573 0.950 . S
C2581 C2579 1.327 . S
C2582 C2570 1.349 . S
C2582 H2576 0.950 . S
C2582 C2583 1.327 . S
C2583 H2577 0.950 . S
C2583 C2582 1.327 . S
C2583 C2587 1.429 . S
C2584 C2567 1.574 . S
C2584 H2578 0.949 . S
C2584 C2588 1.368 . S
C2585 C2566 1.429 . S
C2585 C2579 1.429 . S
C2585 C2586 1.523 . S
C2586 C2567 1.368 . S
C2586 C2580 1.368 . S
C2586 C2585 1.523 . S
C2587 C2571 1.429 . S
C2587 C2583 1.429 . S
C2587 C2588 1.523 . S
C2588 C2572 1.368 . S
C2588 C2584 1.368 . S
C2588 C2587 1.523 . S
H2589 C2564 0.950 . S
H2590 C2566 0.950 . S
H2591 C2567 0.949 . S
H2592 C2569 0.950 . S
H2593 C2571 0.950 . S
C2594 C2595 1.349 . S
C2594 C2596 1.327 . S
C2594 H2619 0.950 . S
C2595 C2594 1.349 . S
C2595 C2611 1.349 . S
C2596 C2594 1.327 . S
C2596 C2615 1.429 . S
C2596 H2620 0.950 . S
C2597 C2614 1.574 . S
C2597 C2616 1.368 . S
C2597 H2621 0.949 . S
H2598 C2602 0.949 . S
C2599 C2600 1.349 . S
C2599 C2601 1.327 . S
C2599 H2622 0.950 . S
C2600 C2599 1.349 . S
C2600 C2612 1.349 . S
C2601 C2599 1.327 . S
C2601 C2617 1.429 . S
C2601 H2623 0.950 . S
C2602 H2598 0.949 . S
C2602 C2610 1.574 . S
C2602 C2618 1.368 . S
H2603 C2611 0.950 . S
H2604 C2609 0.950 . S
H2605 C2610 0.949 . S
H2606 C2612 0.950 . S
H2607 C2613 0.950 . S
H2608 C2614 0.949 . S
C2609 H2604 0.950 . S
C2609 C2611 1.327 . S
C2609 C2615 1.429 . S
C2610 C2602 1.574 . S
C2610 H2605 0.949 . S
C2610 C2616 1.368 . S
C2611 C2595 1.349 . S
C2611 H2603 0.950 . S
C2611 C2609 1.327 . S
C2612 C2600 1.349 . S
C2612 H2606 0.950 . S
C2612 C2613 1.327 . S
C2613 H2607 0.950 . S
C2613 C2612 1.327 . S
C2613 C2617 1.429 . S
C2614 C2597 1.574 . S
C2614 H2608 0.949 . S
C2614 C2618 1.368 . S
C2615 C2596 1.429 . S
C2615 C2609 1.429 . S
C2615 C2616 1.523 . S
C2616 C2597 1.368 . S
C2616 C2610 1.368 . S
C2616 C2615 1.523 . S
C2617 C2601 1.429 . S
C2617 C2613 1.429 . S
C2617 C2618 1.523 . S
C2618 C2602 1.368 . S
C2618 C2614 1.368 . S
C2618 C2617 1.523 . S
H2619 C2594 0.950 . S
H2620 C2596 0.950 . S
H2621 C2597 0.949 . S
H2622 C2599 0.950 . S
H2623 C2601 0.950 . S
C2624 C2625 1.349 . S
C2624 C2626 1.327 . S
C2624 H2649 0.950 . S
C2625 C2624 1.349 . S
C2625 C2641 1.349 . S
C2626 C2624 1.327 . S
C2626 C2645 1.429 . S
C2626 H2650 0.950 . S
C2627 C2644 1.574 1_455 S
C2627 C2646 1.368 . S
C2627 H2651 0.949 . S
H2628 C2632 0.949 . S
C2629 C2630 1.349 . S
C2629 C2631 1.327 . S
C2629 H2652 0.950 . S
C2630 C2629 1.349 . S
C2630 C2642 1.349 . S
C2631 C2629 1.327 . S
C2631 C2647 1.429 . S
C2631 H2653 0.950 . S
C2632 H2628 0.949 . S
C2632 C2640 1.574 1_655 S
C2632 C2648 1.368 . S
H2633 C2641 0.950 . S
H2634 C2639 0.950 . S
H2635 C2640 0.949 . S
H2636 C2642 0.950 . S
H2637 C2643 0.950 . S
H2638 C2644 0.949 . S
C2639 H2634 0.950 . S
C2639 C2641 1.327 . S
C2639 C2645 1.429 . S
C2640 C2632 1.574 1_455 S
C2640 H2635 0.949 . S
C2640 C2646 1.368 . S
C2641 C2625 1.349 . S
C2641 H2633 0.950 . S
C2641 C2639 1.327 . S
C2642 C2630 1.349 . S
C2642 H2636 0.950 . S
C2642 C2643 1.327 . S
C2643 H2637 0.950 . S
C2643 C2642 1.327 . S
C2643 C2647 1.429 . S
C2644 C2627 1.574 1_655 S
C2644 H2638 0.949 . S
C2644 C2648 1.368 . S
C2645 C2626 1.429 . S
C2645 C2639 1.429 . S
C2645 C2646 1.523 . S
C2646 C2627 1.368 . S
C2646 C2640 1.368 . S
C2646 C2645 1.523 . S
C2647 C2631 1.429 . S
C2647 C2643 1.429 . S
C2647 C2648 1.523 . S
C2648 C2632 1.368 . S
C2648 C2644 1.368 . S
C2648 C2647 1.523 . S
H2649 C2624 0.950 . S
H2650 C2626 0.950 . S
H2651 C2627 0.949 . S
H2652 C2629 0.950 . S
H2653 C2631 0.950 . S
C2654 C2655 1.349 . S
C2654 C2656 1.327 . S
C2654 H2679 0.950 . S
C2655 C2654 1.349 . S
C2655 C2671 1.349 . S
C2656 C2654 1.327 . S
C2656 C2675 1.429 . S
C2656 H2680 0.950 . S
C2657 C2674 1.574 . S
C2657 C2676 1.368 . S
C2657 H2681 0.949 . S
H2658 C2662 0.949 . S
C2659 C2660 1.349 . S
C2659 C2661 1.327 . S
C2659 H2682 0.950 . S
C2660 C2659 1.349 . S
C2660 C2672 1.349 . S
C2661 C2659 1.327 . S
C2661 C2677 1.429 . S
C2661 H2683 0.950 . S
C2662 H2658 0.949 . S
C2662 C2670 1.574 . S
C2662 C2678 1.368 . S
H2663 C2671 0.950 . S
H2664 C2669 0.950 . S
H2665 C2670 0.949 . S
H2666 C2672 0.950 . S
H2667 C2673 0.950 . S
H2668 C2674 0.949 . S
C2669 H2664 0.950 . S
C2669 C2671 1.327 . S
C2669 C2675 1.429 . S
C2670 C2662 1.574 . S
C2670 H2665 0.949 . S
C2670 C2676 1.368 1_655 S
C2671 C2655 1.349 . S
C2671 H2663 0.950 . S
C2671 C2669 1.327 . S
C2672 C2660 1.349 . S
C2672 H2666 0.950 . S
C2672 C2673 1.327 . S
C2673 H2667 0.950 . S
C2673 C2672 1.327 . S
C2673 C2677 1.429 . S
C2674 C2657 1.574 . S
C2674 H2668 0.949 . S
C2674 C2678 1.368 1_455 S
C2675 C2656 1.429 . S
C2675 C2669 1.429 . S
C2675 C2676 1.523 . S
C2676 C2657 1.368 . S
C2676 C2670 1.368 1_455 S
C2676 C2675 1.523 . S
C2677 C2661 1.429 . S
C2677 C2673 1.429 . S
C2677 C2678 1.523 . S
C2678 C2662 1.368 . S
C2678 C2674 1.368 1_655 S
C2678 C2677 1.523 . S
H2679 C2654 0.950 . S
H2680 C2656 0.950 . S
H2681 C2657 0.949 . S
H2682 C2659 0.950 . S
H2683 C2661 0.950 . S
C2684 C2685 1.349 . S
C2684 C2686 1.327 . S
C2684 H2709 0.950 . S
C2685 C2684 1.349 . S
C2685 C2701 1.349 . S
C2686 C2684 1.327 . S
C2686 C2705 1.429 . S
C2686 H2710 0.950 . S
C2687 C2704 1.574 . S
C2687 C2706 1.368 . S
C2687 H2711 0.949 . S
H2688 C2692 0.949 . S
C2689 C2690 1.349 . S
C2689 C2691 1.327 . S
C2689 H2712 0.950 . S
C2690 C2689 1.349 . S
C2690 C2702 1.349 . S
C2691 C2689 1.327 . S
C2691 C2707 1.429 . S
C2691 H2713 0.950 . S
C2692 H2688 0.949 . S
C2692 C2700 1.574 . S
C2692 C2708 1.368 . S
H2693 C2701 0.950 . S
H2694 C2699 0.950 . S
H2695 C2700 0.949 . S
H2696 C2702 0.950 . S
H2697 C2703 0.950 . S
H2698 C2704 0.949 . S
C2699 H2694 0.950 . S
C2699 C2701 1.327 . S
C2699 C2705 1.429 . S
C2700 C2692 1.574 . S
C2700 H2695 0.949 . S
C2700 C2706 1.368 . S
C2701 C2685 1.349 . S
C2701 H2693 0.950 . S
C2701 C2699 1.327 . S
C2702 C2690 1.349 . S
C2702 H2696 0.950 . S
C2702 C2703 1.327 . S
C2703 H2697 0.950 . S
C2703 C2702 1.327 . S
C2703 C2707 1.429 . S
C2704 C2687 1.574 . S
C2704 H2698 0.949 . S
C2704 C2708 1.368 . S
C2705 C2686 1.429 . S
C2705 C2699 1.429 . S
C2705 C2706 1.523 . S
C2706 C2687 1.368 . S
C2706 C2700 1.368 . S
C2706 C2705 1.523 . S
C2707 C2691 1.429 . S
C2707 C2703 1.429 . S
C2707 C2708 1.523 . S
C2708 C2692 1.368 . S
C2708 C2704 1.368 . S
C2708 C2707 1.523 . S
H2709 C2684 0.950 . S
H2710 C2686 0.950 . S
H2711 C2687 0.949 . S
H2712 C2689 0.950 . S
H2713 C2691 0.950 . S
C2714 C2715 1.349 . S
C2714 C2716 1.327 . S
C2714 H2739 0.950 . S
C2715 C2714 1.349 . S
C2715 C2731 1.349 1_554 S
C2716 C2714 1.327 . S
C2716 C2735 1.429 . S
C2716 H2740 0.950 . S
C2717 C2734 1.574 . S
C2717 C2736 1.368 1_556 S
C2717 H2741 0.949 . S
H2718 C2722 0.949 . S
C2719 C2720 1.349 1_556 S
C2719 C2721 1.327 . S
C2719 H2742 0.950 . S
C2720 C2719 1.349 1_554 S
C2720 C2732 1.349 . S
C2721 C2719 1.327 . S
C2721 C2737 1.429 1_556 S
C2721 H2743 0.950 . S
C2722 H2718 0.949 . S
C2722 C2730 1.574 . S
C2722 C2738 1.368 . S
H2723 C2731 0.950 . S
H2724 C2729 0.950 . S
H2725 C2730 0.949 . S
H2726 C2732 0.950 . S
H2727 C2733 0.950 . S
H2728 C2734 0.949 . S
C2729 H2724 0.950 . S
C2729 C2731 1.327 . S
C2729 C2735 1.429 1_556 S
C2730 C2722 1.574 . S
C2730 H2725 0.949 . S
C2730 C2736 1.368 . S
C2731 C2715 1.349 1_556 S
C2731 H2723 0.950 . S
C2731 C2729 1.327 . S
C2732 C2720 1.349 . S
C2732 H2726 0.950 . S
C2732 C2733 1.327 . S
C2733 H2727 0.950 . S
C2733 C2732 1.327 . S
C2733 C2737 1.429 . S
C2734 C2717 1.574 . S
C2734 H2728 0.949 . S
C2734 C2738 1.368 1_556 S
C2735 C2716 1.429 . S
C2735 C2729 1.429 1_554 S
C2735 C2736 1.523 . S
C2736 C2717 1.368 1_554 S
C2736 C2730 1.368 . S
C2736 C2735 1.523 . S
C2737 C2721 1.429 1_554 S
C2737 C2733 1.429 . S
C2737 C2738 1.523 . S
C2738 C2722 1.368 . S
C2738 C2734 1.368 1_554 S
C2738 C2737 1.523 . S
H2739 C2714 0.950 . S
H2740 C2716 0.950 . S
H2741 C2717 0.949 . S
H2742 C2719 0.950 . S
H2743 C2721 0.950 . S
C2744 C2745 1.349 . S
C2744 C2746 1.327 . S
C2744 H2769 0.950 . S
C2745 C2744 1.349 . S
C2745 C2761 1.349 . S
C2746 C2744 1.327 . S
C2746 C2765 1.429 . S
C2746 H2770 0.950 . S
C2747 C2764 1.574 1_655 S
C2747 C2766 1.368 . S
C2747 H2771 0.949 . S
H2748 C2752 0.949 . S
C2749 C2750 1.349 . S
C2749 C2751 1.327 . S
C2749 H2772 0.950 . S
C2750 C2749 1.349 . S
C2750 C2762 1.349 . S
C2751 C2749 1.327 . S
C2751 C2767 1.429 . S
C2751 H2773 0.950 . S
C2752 H2748 0.949 . S
C2752 C2760 1.574 1_455 S
C2752 C2768 1.368 . S
H2753 C2761 0.950 . S
H2754 C2759 0.950 . S
H2755 C2760 0.949 . S
H2756 C2762 0.950 . S
H2757 C2763 0.950 . S
H2758 C2764 0.949 . S
C2759 H2754 0.950 . S
C2759 C2761 1.327 . S
C2759 C2765 1.429 . S
C2760 C2752 1.574 1_655 S
C2760 H2755 0.949 . S
C2760 C2766 1.368 . S
C2761 C2745 1.349 . S
C2761 H2753 0.950 . S
C2761 C2759 1.327 . S
C2762 C2750 1.349 . S
C2762 H2756 0.950 . S
C2762 C2763 1.327 . S
C2763 H2757 0.950 . S
C2763 C2762 1.327 . S
C2763 C2767 1.429 . S
C2764 C2747 1.574 1_455 S
C2764 H2758 0.949 . S
C2764 C2768 1.368 . S
C2765 C2746 1.429 . S
C2765 C2759 1.429 . S
C2765 C2766 1.523 . S
C2766 C2747 1.368 . S
C2766 C2760 1.368 . S
C2766 C2765 1.523 . S
C2767 C2751 1.429 . S
C2767 C2763 1.429 . S
C2767 C2768 1.523 . S
C2768 C2752 1.368 . S
C2768 C2764 1.368 . S
C2768 C2767 1.523 . S
H2769 C2744 0.950 . S
H2770 C2746 0.950 . S
H2771 C2747 0.949 . S
H2772 C2749 0.950 . S
H2773 C2751 0.950 . S
C2774 C2775 1.349 . S
C2774 C2776 1.327 . S
C2774 H2799 0.950 . S
C2775 C2774 1.349 . S
C2775 C2791 1.349 . S
C2776 C2774 1.327 . S
C2776 C2795 1.429 . S
C2776 H2800 0.950 . S
C2777 C2794 1.574 . S
C2777 C2796 1.368 . S
C2777 H2801 0.949 . S
H2778 C2782 0.949 . S
C2779 C2780 1.349 . S
C2779 C2781 1.327 . S
C2779 H2802 0.950 . S
C2780 C2779 1.349 . S
C2780 C2792 1.349 . S
C2781 C2779 1.327 . S
C2781 C2797 1.429 . S
C2781 H2803 0.950 . S
C2782 H2778 0.949 . S
C2782 C2790 1.574 . S
C2782 C2798 1.368 . S
H2783 C2791 0.950 . S
H2784 C2789 0.950 . S
H2785 C2790 0.949 . S
H2786 C2792 0.950 . S
H2787 C2793 0.950 . S
H2788 C2794 0.949 . S
C2789 H2784 0.950 . S
C2789 C2791 1.327 . S
C2789 C2795 1.429 . S
C2790 C2782 1.574 . S
C2790 H2785 0.949 . S
C2790 C2796 1.368 . S
C2791 C2775 1.349 . S
C2791 H2783 0.950 . S
C2791 C2789 1.327 . S
C2792 C2780 1.349 . S
C2792 H2786 0.950 . S
C2792 C2793 1.327 . S
C2793 H2787 0.950 . S
C2793 C2792 1.327 . S
C2793 C2797 1.429 . S
C2794 C2777 1.574 . S
C2794 H2788 0.949 . S
C2794 C2798 1.368 . S
C2795 C2776 1.429 . S
C2795 C2789 1.429 . S
C2795 C2796 1.523 . S
C2796 C2777 1.368 . S
C2796 C2790 1.368 . S
C2796 C2795 1.523 . S
C2797 C2781 1.429 . S
C2797 C2793 1.429 . S
C2797 C2798 1.523 . S
C2798 C2782 1.368 . S
C2798 C2794 1.368 . S
C2798 C2797 1.523 . S
H2799 C2774 0.950 . S
H2800 C2776 0.950 . S
H2801 C2777 0.949 . S
H2802 C2779 0.950 . S
H2803 C2781 0.950 . S
C2804 C2805 1.349 . S
C2804 C2806 1.327 . S
C2804 H2829 0.950 . S
C2805 C2804 1.349 . S
C2805 C2821 1.349 . S
C2806 C2804 1.327 . S
C2806 C2825 1.429 . S
C2806 H2830 0.950 . S
C2807 C2824 1.574 . S
C2807 C2826 1.368 . S
C2807 H2831 0.949 . S
H2808 C2812 0.949 . S
C2809 C2810 1.349 . S
C2809 C2811 1.327 . S
C2809 H2832 0.950 . S
C2810 C2809 1.349 . S
C2810 C2822 1.349 . S
C2811 C2809 1.327 . S
C2811 C2827 1.429 . S
C2811 H2833 0.950 . S
C2812 H2808 0.949 . S
C2812 C2820 1.574 . S
C2812 C2828 1.368 . S
H2813 C2821 0.950 . S
H2814 C2819 0.950 . S
H2815 C2820 0.949 . S
H2816 C2822 0.950 . S
H2817 C2823 0.950 . S
H2818 C2824 0.949 . S
C2819 H2814 0.950 . S
C2819 C2821 1.327 . S
C2819 C2825 1.429 . S
C2820 C2812 1.574 . S
C2820 H2815 0.949 . S
C2820 C2826 1.368 . S
C2821 C2805 1.349 . S
C2821 H2813 0.950 . S
C2821 C2819 1.327 . S
C2822 C2810 1.349 . S
C2822 H2816 0.950 . S
C2822 C2823 1.327 . S
C2823 H2817 0.950 . S
C2823 C2822 1.327 . S
C2823 C2827 1.429 . S
C2824 C2807 1.574 . S
C2824 H2818 0.949 . S
C2824 C2828 1.368 . S
C2825 C2806 1.429 . S
C2825 C2819 1.429 . S
C2825 C2826 1.523 . S
C2826 C2807 1.368 . S
C2826 C2820 1.368 . S
C2826 C2825 1.523 . S
C2827 C2811 1.429 . S
C2827 C2823 1.429 . S
C2827 C2828 1.523 . S
C2828 C2812 1.368 . S
C2828 C2824 1.368 . S
C2828 C2827 1.523 . S
H2829 C2804 0.950 . S
H2830 C2806 0.950 . S
H2831 C2807 0.949 . S
H2832 C2809 0.950 . S
H2833 C2811 0.950 . S
C2834 C2835 1.349 1_554 S
C2834 C2836 1.327 . S
C2834 H2859 0.950 . S
C2835 C2834 1.349 1_556 S
C2835 C2851 1.349 . S
C2836 C2834 1.327 . S
C2836 C2855 1.429 1_554 S
C2836 H2860 0.950 . S
C2837 C2854 1.574 . S
C2837 C2856 1.368 1_455 S
C2837 H2861 0.949 . S
H2838 C2842 0.949 . S
C2839 C2840 1.349 . S
C2839 C2841 1.327 . S
C2839 H2862 0.950 . S
C2840 C2839 1.349 . S
C2840 C2852 1.349 1_556 S
C2841 C2839 1.327 . S
C2841 C2857 1.429 . S
C2841 H2863 0.950 . S
C2842 H2838 0.949 . S
C2842 C2850 1.574 . S
C2842 C2858 1.368 1_654 S
H2843 C2851 0.950 . S
H2844 C2849 0.950 . S
H2845 C2850 0.949 . S
H2846 C2852 0.950 . S
H2847 C2853 0.950 . S
H2848 C2854 0.949 . S
C2849 H2844 0.950 . S
C2849 C2851 1.327 . S
C2849 C2855 1.429 . S
C2850 C2842 1.574 . S
C2850 H2845 0.949 . S
C2850 C2856 1.368 1_554 S
C2851 C2835 1.349 . S
C2851 H2843 0.950 . S
C2851 C2849 1.327 . S
C2852 C2840 1.349 1_554 S
C2852 H2846 0.950 . S
C2852 C2853 1.327 . S
C2853 H2847 0.950 . S
C2853 C2852 1.327 . S
C2853 C2857 1.429 1_554 S
C2854 C2837 1.574 . S
C2854 H2848 0.949 . S
C2854 C2858 1.368 . S
C2855 C2836 1.429 1_556 S
C2855 C2849 1.429 . S
C2855 C2856 1.523 . S
C2856 C2837 1.368 1_655 S
C2856 C2850 1.368 1_556 S
C2856 C2855 1.523 . S
C2857 C2841 1.429 . S
C2857 C2853 1.429 1_556 S
C2857 C2858 1.523 . S
C2858 C2842 1.368 1_456 S
C2858 C2854 1.368 . S
C2858 C2857 1.523 . S
H2859 C2834 0.950 . S
H2860 C2836 0.950 . S
H2861 C2837 0.949 . S
H2862 C2839 0.950 . S
H2863 C2841 0.950 . S
C2864 C2865 1.349 . S
C2864 C2866 1.327 . S
C2864 H2889 0.950 . S
C2865 C2864 1.349 . S
C2865 C2881 1.349 . S
C2866 C2864 1.327 . S
C2866 C2885 1.429 . S
C2866 H2890 0.950 . S
C2867 C2884 1.574 1_455 S
C2867 C2886 1.368 . S
C2867 H2891 0.949 . S
H2868 C2872 0.949 . S
C2869 C2870 1.349 . S
C2869 C2871 1.327 . S
C2869 H2892 0.950 . S
C2870 C2869 1.349 . S
C2870 C2882 1.349 . S
C2871 C2869 1.327 . S
C2871 C2887 1.429 . S
C2871 H2893 0.950 . S
C2872 H2868 0.949 . S
C2872 C2880 1.574 1_655 S
C2872 C2888 1.368 . S
H2873 C2881 0.950 . S
H2874 C2879 0.950 . S
H2875 C2880 0.949 . S
H2876 C2882 0.950 . S
H2877 C2883 0.950 . S
H2878 C2884 0.949 . S
C2879 H2874 0.950 . S
C2879 C2881 1.327 . S
C2879 C2885 1.429 . S
C2880 C2872 1.574 1_455 S
C2880 H2875 0.949 . S
C2880 C2886 1.368 . S
C2881 C2865 1.349 . S
C2881 H2873 0.950 . S
C2881 C2879 1.327 . S
C2882 C2870 1.349 . S
C2882 H2876 0.950 . S
C2882 C2883 1.327 . S
C2883 H2877 0.950 . S
C2883 C2882 1.327 . S
C2883 C2887 1.429 . S
C2884 C2867 1.574 1_655 S
C2884 H2878 0.949 . S
C2884 C2888 1.368 . S
C2885 C2866 1.429 . S
C2885 C2879 1.429 . S
C2885 C2886 1.523 . S
C2886 C2867 1.368 . S
C2886 C2880 1.368 . S
C2886 C2885 1.523 . S
C2887 C2871 1.429 . S
C2887 C2883 1.429 . S
C2887 C2888 1.523 . S
C2888 C2872 1.368 . S
C2888 C2884 1.368 . S
C2888 C2887 1.523 . S
H2889 C2864 0.950 . S
H2890 C2866 0.950 . S
H2891 C2867 0.949 . S
H2892 C2869 0.950 . S
H2893 C2871 0.950 . S
C2894 C2895 1.349 . S
C2894 C2896 1.327 . S
C2894 H2919 0.950 . S
C2895 C2894 1.349 . S
C2895 C2911 1.349 . S
C2896 C2894 1.327 . S
C2896 C2915 1.429 . S
C2896 H2920 0.950 . S
C2897 C2914 1.574 . S
C2897 C2916 1.368 . S
C2897 H2921 0.949 . S
H2898 C2902 0.949 . S
C2899 C2900 1.349 . S
C2899 C2901 1.327 . S
C2899 H2922 0.950 . S
C2900 C2899 1.349 . S
C2900 C2912 1.349 . S
C2901 C2899 1.327 . S
C2901 C2917 1.429 . S
C2901 H2923 0.950 . S
C2902 H2898 0.949 . S
C2902 C2910 1.574 . S
C2902 C2918 1.368 . S
H2903 C2911 0.950 . S
H2904 C2909 0.950 . S
H2905 C2910 0.949 . S
H2906 C2912 0.950 . S
H2907 C2913 0.950 . S
H2908 C2914 0.949 . S
C2909 H2904 0.950 . S
C2909 C2911 1.327 . S
C2909 C2915 1.429 . S
C2910 C2902 1.574 . S
C2910 H2905 0.949 . S
C2910 C2916 1.368 1_655 S
C2911 C2895 1.349 . S
C2911 H2903 0.950 . S
C2911 C2909 1.327 . S
C2912 C2900 1.349 . S
C2912 H2906 0.950 . S
C2912 C2913 1.327 . S
C2913 H2907 0.950 . S
C2913 C2912 1.327 . S
C2913 C2917 1.429 . S
C2914 C2897 1.574 . S
C2914 H2908 0.949 . S
C2914 C2918 1.368 1_455 S
C2915 C2896 1.429 . S
C2915 C2909 1.429 . S
C2915 C2916 1.523 . S
C2916 C2897 1.368 . S
C2916 C2910 1.368 1_455 S
C2916 C2915 1.523 . S
C2917 C2901 1.429 . S
C2917 C2913 1.429 . S
C2917 C2918 1.523 . S
C2918 C2902 1.368 . S
C2918 C2914 1.368 1_655 S
C2918 C2917 1.523 . S
H2919 C2894 0.950 . S
H2920 C2896 0.950 . S
H2921 C2897 0.949 . S
H2922 C2899 0.950 . S
H2923 C2901 0.950 . S
C2924 C2925 1.349 . S
C2924 C2926 1.327 . S
C2924 H2949 0.950 . S
C2925 C2924 1.349 . S
C2925 C2941 1.349 . S
C2926 C2924 1.327 . S
C2926 C2945 1.429 . S
C2926 H2950 0.950 . S
C2927 C2944 1.574 . S
C2927 C2946 1.368 . S
C2927 H2951 0.949 . S
H2928 C2932 0.949 . S
C2929 C2930 1.349 . S
C2929 C2931 1.327 . S
C2929 H2952 0.950 . S
C2930 C2929 1.349 . S
C2930 C2942 1.349 . S
C2931 C2929 1.327 . S
C2931 C2947 1.429 . S
C2931 H2953 0.950 . S
C2932 H2928 0.949 . S
C2932 C2940 1.574 . S
C2932 C2948 1.368 . S
H2933 C2941 0.950 . S
H2934 C2939 0.950 . S
H2935 C2940 0.949 . S
H2936 C2942 0.950 . S
H2937 C2943 0.950 . S
H2938 C2944 0.949 . S
C2939 H2934 0.950 . S
C2939 C2941 1.327 . S
C2939 C2945 1.429 . S
C2940 C2932 1.574 . S
C2940 H2935 0.949 . S
C2940 C2946 1.368 . S
C2941 C2925 1.349 . S
C2941 H2933 0.950 . S
C2941 C2939 1.327 . S
C2942 C2930 1.349 . S
C2942 H2936 0.950 . S
C2942 C2943 1.327 . S
C2943 H2937 0.950 . S
C2943 C2942 1.327 . S
C2943 C2947 1.429 . S
C2944 C2927 1.574 . S
C2944 H2938 0.949 . S
C2944 C2948 1.368 . S
C2945 C2926 1.429 . S
C2945 C2939 1.429 . S
C2945 C2946 1.523 . S
C2946 C2927 1.368 . S
C2946 C2940 1.368 . S
C2946 C2945 1.523 . S
C2947 C2931 1.429 . S
C2947 C2943 1.429 . S
C2947 C2948 1.523 . S
C2948 C2932 1.368 . S
C2948 C2944 1.368 . S
C2948 C2947 1.523 . S
H2949 C2924 0.950 . S
H2950 C2926 0.950 . S
H2951 C2927 0.949 . S
H2952 C2929 0.950 . S
H2953 C2931 0.950 . S
C2954 C2955 1.349 1_554 S
C2954 C2956 1.327 . S
C2954 H2979 0.950 . S
C2955 C2954 1.349 1_556 S
C2955 C2971 1.349 . S
C2956 C2954 1.327 . S
C2956 C2975 1.429 1_554 S
C2956 H2980 0.950 . S
C2957 C2974 1.574 . S
C2957 C2976 1.368 . S
C2957 H2981 0.949 . S
H2958 C2962 0.949 . S
C2959 C2960 1.349 . S
C2959 C2961 1.327 . S
C2959 H2982 0.950 . S
C2960 C2959 1.349 . S
C2960 C2972 1.349 1_556 S
C2961 C2959 1.327 . S
C2961 C2977 1.429 . S
C2961 H2983 0.950 . S
C2962 H2958 0.949 . S
C2962 C2970 1.574 . S
C2962 C2978 1.368 1_554 S
H2963 C2971 0.950 . S
H2964 C2969 0.950 . S
H2965 C2970 0.949 . S
H2966 C2972 0.950 . S
H2967 C2973 0.950 . S
H2968 C2974 0.949 . S
C2969 H2964 0.950 . S
C2969 C2971 1.327 . S
C2969 C2975 1.429 . S
C2970 C2962 1.574 . S
C2970 H2965 0.949 . S
C2970 C2976 1.368 1_554 S
C2971 C2955 1.349 . S
C2971 H2963 0.950 . S
C2971 C2969 1.327 . S
C2972 C2960 1.349 1_554 S
C2972 H2966 0.950 . S
C2972 C2973 1.327 . S
C2973 H2967 0.950 . S
C2973 C2972 1.327 . S
C2973 C2977 1.429 1_554 S
C2974 C2957 1.574 . S
C2974 H2968 0.949 . S
C2974 C2978 1.368 . S
C2975 C2956 1.429 1_556 S
C2975 C2969 1.429 . S
C2975 C2976 1.523 . S
C2976 C2957 1.368 . S
C2976 C2970 1.368 1_556 S
C2976 C2975 1.523 . S
C2977 C2961 1.429 . S
C2977 C2973 1.429 1_556 S
C2977 C2978 1.523 . S
C2978 C2962 1.368 1_556 S
C2978 C2974 1.368 . S
C2978 C2977 1.523 . S
H2979 C2954 0.950 . S
H2980 C2956 0.950 . S
H2981 C2957 0.949 . S
H2982 C2959 0.950 . S
H2983 C2961 0.950 . S
C2984 C2985 1.349 . S
C2984 C2986 1.327 . S
C2984 H3009 0.950 . S
C2985 C2984 1.349 . S
C2985 C3001 1.349 . S
C2986 C2984 1.327 . S
C2986 C3005 1.429 . S
C2986 H3010 0.950 . S
C2987 C3004 1.574 1_655 S
C2987 C3006 1.368 . S
C2987 H3011 0.949 . S
H2988 C2992 0.949 . S
C2989 C2990 1.349 . S
C2989 C2991 1.327 . S
C2989 H3012 0.950 . S
C2990 C2989 1.349 . S
C2990 C3002 1.349 . S
C2991 C2989 1.327 . S
C2991 C3007 1.429 . S
C2991 H3013 0.950 . S
C2992 H2988 0.949 . S
C2992 C3000 1.574 1_455 S
C2992 C3008 1.368 . S
H2993 C3001 0.950 . S
H2994 C2999 0.950 . S
H2995 C3000 0.949 . S
H2996 C3002 0.950 . S
H2997 C3003 0.950 . S
H2998 C3004 0.949 . S
C2999 H2994 0.950 . S
C2999 C3001 1.327 . S
C2999 C3005 1.429 . S
C3000 C2992 1.574 1_655 S
C3000 H2995 0.949 . S
C3000 C3006 1.368 . S
C3001 C2985 1.349 . S
C3001 H2993 0.950 . S
C3001 C2999 1.327 . S
C3002 C2990 1.349 . S
C3002 H2996 0.950 . S
C3002 C3003 1.327 . S
C3003 H2997 0.950 . S
C3003 C3002 1.327 . S
C3003 C3007 1.429 . S
C3004 C2987 1.574 1_455 S
C3004 H2998 0.949 . S
C3004 C3008 1.368 . S
C3005 C2986 1.429 . S
C3005 C2999 1.429 . S
C3005 C3006 1.523 . S
C3006 C2987 1.368 . S
C3006 C3000 1.368 . S
C3006 C3005 1.523 . S
C3007 C2991 1.429 . S
C3007 C3003 1.429 . S
C3007 C3008 1.523 . S
C3008 C2992 1.368 . S
C3008 C3004 1.368 . S
C3008 C3007 1.523 . S
H3009 C2984 0.950 . S
H3010 C2986 0.950 . S
H3011 C2987 0.949 . S
H3012 C2989 0.950 . S
H3013 C2991 0.950 . S
C3014 C3015 1.349 . S
C3014 C3016 1.327 . S
C3014 H3039 0.950 . S
C3015 C3014 1.349 . S
C3015 C3031 1.349 . S
C3016 C3014 1.327 . S
C3016 C3035 1.429 . S
C3016 H3040 0.950 . S
C3017 C3034 1.574 . S
C3017 C3036 1.368 . S
C3017 H3041 0.949 . S
H3018 C3022 0.949 . S
C3019 C3020 1.349 . S
C3019 C3021 1.327 . S
C3019 H3042 0.950 . S
C3020 C3019 1.349 . S
C3020 C3032 1.349 . S
C3021 C3019 1.327 . S
C3021 C3037 1.429 . S
C3021 H3043 0.950 . S
C3022 H3018 0.949 . S
C3022 C3030 1.574 . S
C3022 C3038 1.368 . S
H3023 C3031 0.950 . S
H3024 C3029 0.950 . S
H3025 C3030 0.949 . S
H3026 C3032 0.950 . S
H3027 C3033 0.950 . S
H3028 C3034 0.949 . S
C3029 H3024 0.950 . S
C3029 C3031 1.327 . S
C3029 C3035 1.429 . S
C3030 C3022 1.574 . S
C3030 H3025 0.949 . S
C3030 C3036 1.368 . S
C3031 C3015 1.349 . S
C3031 H3023 0.950 . S
C3031 C3029 1.327 . S
C3032 C3020 1.349 . S
C3032 H3026 0.950 . S
C3032 C3033 1.327 . S
C3033 H3027 0.950 . S
C3033 C3032 1.327 . S
C3033 C3037 1.429 . S
C3034 C3017 1.574 . S
C3034 H3028 0.949 . S
C3034 C3038 1.368 . S
C3035 C3016 1.429 . S
C3035 C3029 1.429 . S
C3035 C3036 1.523 . S
C3036 C3017 1.368 . S
C3036 C3030 1.368 . S
C3036 C3035 1.523 . S
C3037 C3021 1.429 . S
C3037 C3033 1.429 . S
C3037 C3038 1.523 . S
C3038 C3022 1.368 . S
C3038 C3034 1.368 . S
C3038 C3037 1.523 . S
H3039 C3014 0.950 . S
H3040 C3016 0.950 . S
H3041 C3017 0.949 . S
H3042 C3019 0.950 . S
H3043 C3021 0.950 . S
C3044 C3045 1.349 . S
C3044 C3046 1.327 . S
C3044 H3069 0.950 . S
C3045 C3044 1.349 . S
C3045 C3061 1.349 . S
C3046 C3044 1.327 . S
C3046 C3065 1.429 . S
C3046 H3070 0.950 . S
C3047 C3064 1.574 . S
C3047 C3066 1.368 . S
C3047 H3071 0.949 . S
H3048 C3052 0.949 . S
C3049 C3050 1.349 . S
C3049 C3051 1.327 . S
C3049 H3072 0.950 . S
C3050 C3049 1.349 . S
C3050 C3062 1.349 . S
C3051 C3049 1.327 . S
C3051 C3067 1.429 . S
C3051 H3073 0.950 . S
C3052 H3048 0.949 . S
C3052 C3060 1.574 . S
C3052 C3068 1.368 . S
H3053 C3061 0.950 . S
H3054 C3059 0.950 . S
H3055 C3060 0.949 . S
H3056 C3062 0.950 . S
H3057 C3063 0.950 . S
H3058 C3064 0.949 . S
C3059 H3054 0.950 . S
C3059 C3061 1.327 . S
C3059 C3065 1.429 . S
C3060 C3052 1.574 . S
C3060 H3055 0.949 . S
C3060 C3066 1.368 . S
C3061 C3045 1.349 . S
C3061 H3053 0.950 . S
C3061 C3059 1.327 . S
C3062 C3050 1.349 . S
C3062 H3056 0.950 . S
C3062 C3063 1.327 . S
C3063 H3057 0.950 . S
C3063 C3062 1.327 . S
C3063 C3067 1.429 . S
C3064 C3047 1.574 . S
C3064 H3058 0.949 . S
C3064 C3068 1.368 . S
C3065 C3046 1.429 . S
C3065 C3059 1.429 . S
C3065 C3066 1.523 . S
C3066 C3047 1.368 . S
C3066 C3060 1.368 . S
C3066 C3065 1.523 . S
C3067 C3051 1.429 . S
C3067 C3063 1.429 . S
C3067 C3068 1.523 . S
C3068 C3052 1.368 . S
C3068 C3064 1.368 . S
C3068 C3067 1.523 . S
H3069 C3044 0.950 . S
H3070 C3046 0.950 . S
H3071 C3047 0.949 . S
H3072 C3049 0.950 . S
H3073 C3051 0.950 . S
C3074 C3075 1.349 1_556 S
C3074 C3076 1.327 . S
C3074 H3099 0.950 . S
C3075 C3074 1.349 1_554 S
C3075 C3091 1.349 . S
C3076 C3074 1.327 . S
C3076 C3095 1.429 1_556 S
C3076 H3100 0.950 . S
C3077 C3094 1.574 . S
C3077 C3096 1.368 . S
C3077 H3101 0.949 . S
H3078 C3082 0.949 . S
C3079 C3080 1.349 . S
C3079 C3081 1.327 . S
C3079 H3102 0.950 . S
C3080 C3079 1.349 . S
C3080 C3092 1.349 1_554 S
C3081 C3079 1.327 . S
C3081 C3097 1.429 . S
C3081 H3103 0.950 . S
C3082 H3078 0.949 . S
C3082 C3090 1.574 . S
C3082 C3098 1.368 1_556 S
H3083 C3091 0.950 . S
H3084 C3089 0.950 . S
H3085 C3090 0.949 . S
H3086 C3092 0.950 . S
H3087 C3093 0.950 . S
H3088 C3094 0.949 . S
C3089 H3084 0.950 . S
C3089 C3091 1.327 . S
C3089 C3095 1.429 . S
C3090 C3082 1.574 . S
C3090 H3085 0.949 . S
C3090 C3096 1.368 1_456 S
C3091 C3075 1.349 . S
C3091 H3083 0.950 . S
C3091 C3089 1.327 . S
C3092 C3080 1.349 1_556 S
C3092 H3086 0.950 . S
C3092 C3093 1.327 . S
C3093 H3087 0.950 . S
C3093 C3092 1.327 . S
C3093 C3097 1.429 1_556 S
C3094 C3077 1.574 . S
C3094 H3088 0.949 . S
C3094 C3098 1.368 1_655 S
C3095 C3076 1.429 1_554 S
C3095 C3089 1.429 . S
C3095 C3096 1.523 . S
C3096 C3077 1.368 . S
C3096 C3090 1.368 1_654 S
C3096 C3095 1.523 . S
C3097 C3081 1.429 . S
C3097 C3093 1.429 1_554 S
C3097 C3098 1.523 . S
C3098 C3082 1.368 1_554 S
C3098 C3094 1.368 1_455 S
C3098 C3097 1.523 . S
H3099 C3074 0.950 . S
H3100 C3076 0.950 . S
H3101 C3077 0.949 . S
H3102 C3079 0.950 . S
H3103 C3081 0.950 . S
C3104 C3105 1.349 . S
C3104 C3106 1.327 . S
C3104 H3129 0.950 . S
C3105 C3104 1.349 . S
C3105 C3121 1.349 . S
C3106 C3104 1.327 . S
C3106 C3125 1.429 . S
C3106 H3130 0.950 . S
C3107 C3124 1.574 . S
C3107 C3126 1.368 . S
C3107 H3131 0.949 . S
H3108 C3112 0.949 . S
C3109 C3110 1.349 . S
C3109 C3111 1.327 . S
C3109 H3132 0.950 . S
C3110 C3109 1.349 . S
C3110 C3122 1.349 . S
C3111 C3109 1.327 . S
C3111 C3127 1.429 . S
C3111 H3133 0.950 . S
C3112 H3108 0.949 . S
C3112 C3120 1.574 . S
C3112 C3128 1.368 . S
H3113 C3121 0.950 . S
H3114 C3119 0.950 . S
H3115 C3120 0.949 . S
H3116 C3122 0.950 . S
H3117 C3123 0.950 . S
H3118 C3124 0.949 . S
C3119 H3114 0.950 . S
C3119 C3121 1.327 . S
C3119 C3125 1.429 . S
C3120 C3112 1.574 . S
C3120 H3115 0.949 . S
C3120 C3126 1.368 . S
C3121 C3105 1.349 . S
C3121 H3113 0.950 . S
C3121 C3119 1.327 . S
C3122 C3110 1.349 . S
C3122 H3116 0.950 . S
C3122 C3123 1.327 . S
C3123 H3117 0.950 . S
C3123 C3122 1.327 . S
C3123 C3127 1.429 . S
C3124 C3107 1.574 . S
C3124 H3118 0.949 . S
C3124 C3128 1.368 . S
C3125 C3106 1.429 . S
C3125 C3119 1.429 . S
C3125 C3126 1.523 . S
C3126 C3107 1.368 . S
C3126 C3120 1.368 . S
C3126 C3125 1.523 . S
C3127 C3111 1.429 . S
C3127 C3123 1.429 . S
C3127 C3128 1.523 . S
C3128 C3112 1.368 . S
C3128 C3124 1.368 . S
C3128 C3127 1.523 . S
H3129 C3104 0.950 . S
H3130 C3106 0.950 . S
H3131 C3107 0.949 . S
H3132 C3109 0.950 . S
H3133 C3111 0.950 . S
C3134 C3135 1.349 . S
C3134 C3136 1.327 . S
C3134 H3159 0.950 . S
C3135 C3134 1.349 . S
C3135 C3151 1.349 . S
C3136 C3134 1.327 . S
C3136 C3155 1.429 . S
C3136 H3160 0.950 . S
C3137 C3154 1.574 . S
C3137 C3156 1.368 . S
C3137 H3161 0.949 . S
H3138 C3142 0.949 . S
C3139 C3140 1.349 . S
C3139 C3141 1.327 . S
C3139 H3162 0.950 . S
C3140 C3139 1.349 . S
C3140 C3152 1.349 . S
C3141 C3139 1.327 . S
C3141 C3157 1.429 . S
C3141 H3163 0.950 . S
C3142 H3138 0.949 . S
C3142 C3150 1.574 . S
C3142 C3158 1.368 . S
H3143 C3151 0.950 . S
H3144 C3149 0.950 . S
H3145 C3150 0.949 . S
H3146 C3152 0.950 . S
H3147 C3153 0.950 . S
H3148 C3154 0.949 . S
C3149 H3144 0.950 . S
C3149 C3151 1.327 . S
C3149 C3155 1.429 . S
C3150 C3142 1.574 . S
C3150 H3145 0.949 . S
C3150 C3156 1.368 . S
C3151 C3135 1.349 . S
C3151 H3143 0.950 . S
C3151 C3149 1.327 . S
C3152 C3140 1.349 . S
C3152 H3146 0.950 . S
C3152 C3153 1.327 . S
C3153 H3147 0.950 . S
C3153 C3152 1.327 . S
C3153 C3157 1.429 . S
C3154 C3137 1.574 . S
C3154 H3148 0.949 . S
C3154 C3158 1.368 . S
C3155 C3136 1.429 . S
C3155 C3149 1.429 . S
C3155 C3156 1.523 . S
C3156 C3137 1.368 . S
C3156 C3150 1.368 . S
C3156 C3155 1.523 . S
C3157 C3141 1.429 . S
C3157 C3153 1.429 . S
C3157 C3158 1.523 . S
C3158 C3142 1.368 . S
C3158 C3154 1.368 . S
C3158 C3157 1.523 . S
H3159 C3134 0.950 . S
H3160 C3136 0.950 . S
H3161 C3137 0.949 . S
H3162 C3139 0.950 . S
H3163 C3141 0.950 . S
C3164 C3165 1.349 . S
C3164 C3166 1.327 . S
C3164 H3189 0.950 . S
C3165 C3164 1.349 . S
C3165 C3181 1.349 . S
C3166 C3164 1.327 . S
C3166 C3185 1.429 . S
C3166 H3190 0.950 . S
C3167 C3184 1.574 . S
C3167 C3186 1.368 . S
C3167 H3191 0.949 . S
H3168 C3172 0.949 . S
C3169 C3170 1.349 . S
C3169 C3171 1.327 . S
C3169 H3192 0.950 . S
C3170 C3169 1.349 . S
C3170 C3182 1.349 . S
C3171 C3169 1.327 . S
C3171 C3187 1.429 . S
C3171 H3193 0.950 . S
C3172 H3168 0.949 . S
C3172 C3180 1.574 . S
C3172 C3188 1.368 . S
H3173 C3181 0.950 . S
H3174 C3179 0.950 . S
H3175 C3180 0.949 . S
H3176 C3182 0.950 . S
H3177 C3183 0.950 . S
H3178 C3184 0.949 . S
C3179 H3174 0.950 . S
C3179 C3181 1.327 . S
C3179 C3185 1.429 . S
C3180 C3172 1.574 . S
C3180 H3175 0.949 . S
C3180 C3186 1.368 . S
C3181 C3165 1.349 . S
C3181 H3173 0.950 . S
C3181 C3179 1.327 . S
C3182 C3170 1.349 . S
C3182 H3176 0.950 . S
C3182 C3183 1.327 . S
C3183 H3177 0.950 . S
C3183 C3182 1.327 . S
C3183 C3187 1.429 . S
C3184 C3167 1.574 . S
C3184 H3178 0.949 . S
C3184 C3188 1.368 . S
C3185 C3166 1.429 . S
C3185 C3179 1.429 . S
C3185 C3186 1.523 . S
C3186 C3167 1.368 . S
C3186 C3180 1.368 . S
C3186 C3185 1.523 . S
C3187 C3171 1.429 . S
C3187 C3183 1.429 . S
C3187 C3188 1.523 . S
C3188 C3172 1.368 . S
C3188 C3184 1.368 . S
C3188 C3187 1.523 . S
H3189 C3164 0.950 . S
H3190 C3166 0.950 . S
H3191 C3167 0.949 . S
H3192 C3169 0.950 . S
H3193 C3171 0.950 . S
C3194 C3195 1.349 . S
C3194 C3196 1.327 . S
C3194 H3219 0.950 . S
C3195 C3194 1.349 . S
C3195 C3211 1.349 . S
C3196 C3194 1.327 . S
C3196 C3215 1.429 . S
C3196 H3220 0.950 . S
C3197 C3214 1.574 . S
C3197 C3216 1.368 . S
C3197 H3221 0.949 . S
H3198 C3202 0.949 . S
C3199 C3200 1.349 . S
C3199 C3201 1.327 . S
C3199 H3222 0.950 . S
C3200 C3199 1.349 . S
C3200 C3212 1.349 . S
C3201 C3199 1.327 . S
C3201 C3217 1.429 . S
C3201 H3223 0.950 . S
C3202 H3198 0.949 . S
C3202 C3210 1.574 . S
C3202 C3218 1.368 . S
H3203 C3211 0.950 . S
H3204 C3209 0.950 . S
H3205 C3210 0.949 . S
H3206 C3212 0.950 . S
H3207 C3213 0.950 . S
H3208 C3214 0.949 . S
C3209 H3204 0.950 . S
C3209 C3211 1.327 . S
C3209 C3215 1.429 . S
C3210 C3202 1.574 . S
C3210 H3205 0.949 . S
C3210 C3216 1.368 . S
C3211 C3195 1.349 . S
C3211 H3203 0.950 . S
C3211 C3209 1.327 . S
C3212 C3200 1.349 . S
C3212 H3206 0.950 . S
C3212 C3213 1.327 . S
C3213 H3207 0.950 . S
C3213 C3212 1.327 . S
C3213 C3217 1.429 . S
C3214 C3197 1.574 . S
C3214 H3208 0.949 . S
C3214 C3218 1.368 . S
C3215 C3196 1.429 . S
C3215 C3209 1.429 . S
C3215 C3216 1.523 . S
C3216 C3197 1.368 . S
C3216 C3210 1.368 . S
C3216 C3215 1.523 . S
C3217 C3201 1.429 . S
C3217 C3213 1.429 . S
C3217 C3218 1.523 . S
C3218 C3202 1.368 . S
C3218 C3214 1.368 . S
C3218 C3217 1.523 . S
H3219 C3194 0.950 . S
H3220 C3196 0.950 . S
H3221 C3197 0.949 . S
H3222 C3199 0.950 . S
H3223 C3201 0.950 . S
C3224 C3225 1.349 . S
C3224 C3226 1.327 . S
C3224 H3249 0.950 . S
C3225 C3224 1.349 . S
C3225 C3241 1.349 . S
C3226 C3224 1.327 . S
C3226 C3245 1.429 . S
C3226 H3250 0.950 . S
C3227 C3244 1.574 . S
C3227 C3246 1.368 . S
C3227 H3251 0.949 . S
H3228 C3232 0.949 . S
C3229 C3230 1.349 . S
C3229 C3231 1.327 . S
C3229 H3252 0.950 . S
C3230 C3229 1.349 . S
C3230 C3242 1.349 . S
C3231 C3229 1.327 . S
C3231 C3247 1.429 . S
C3231 H3253 0.950 . S
C3232 H3228 0.949 . S
C3232 C3240 1.574 . S
C3232 C3248 1.368 . S
H3233 C3241 0.950 . S
H3234 C3239 0.950 . S
H3235 C3240 0.949 . S
H3236 C3242 0.950 . S
H3237 C3243 0.950 . S
H3238 C3244 0.949 . S
C3239 H3234 0.950 . S
C3239 C3241 1.327 . S
C3239 C3245 1.429 . S
C3240 C3232 1.574 . S
C3240 H3235 0.949 . S
C3240 C3246 1.368 . S
C3241 C3225 1.349 . S
C3241 H3233 0.950 . S
C3241 C3239 1.327 . S
C3242 C3230 1.349 . S
C3242 H3236 0.950 . S
C3242 C3243 1.327 . S
C3243 H3237 0.950 . S
C3243 C3242 1.327 . S
C3243 C3247 1.429 . S
C3244 C3227 1.574 . S
C3244 H3238 0.949 . S
C3244 C3248 1.368 . S
C3245 C3226 1.429 . S
C3245 C3239 1.429 . S
C3245 C3246 1.523 . S
C3246 C3227 1.368 . S
C3246 C3240 1.368 . S
C3246 C3245 1.523 . S
C3247 C3231 1.429 . S
C3247 C3243 1.429 . S
C3247 C3248 1.523 . S
C3248 C3232 1.368 . S
C3248 C3244 1.368 . S
C3248 C3247 1.523 . S
H3249 C3224 0.950 . S
H3250 C3226 0.950 . S
H3251 C3227 0.949 . S
H3252 C3229 0.950 . S
H3253 C3231 0.950 . S
C3254 C3255 1.349 . S
C3254 C3256 1.327 . S
C3254 H3279 0.950 . S
C3255 C3254 1.349 . S
C3255 C3271 1.349 . S
C3256 C3254 1.327 . S
C3256 C3275 1.429 . S
C3256 H3280 0.950 . S
C3257 C3274 1.574 . S
C3257 C3276 1.368 . S
C3257 H3281 0.949 . S
H3258 C3262 0.949 . S
C3259 C3260 1.349 . S
C3259 C3261 1.327 . S
C3259 H3282 0.950 . S
C3260 C3259 1.349 . S
C3260 C3272 1.349 . S
C3261 C3259 1.327 . S
C3261 C3277 1.429 . S
C3261 H3283 0.950 . S
C3262 H3258 0.949 . S
C3262 C3270 1.574 . S
C3262 C3278 1.368 . S
H3263 C3271 0.950 . S
H3264 C3269 0.950 . S
H3265 C3270 0.949 . S
H3266 C3272 0.950 . S
H3267 C3273 0.950 . S
H3268 C3274 0.949 . S
C3269 H3264 0.950 . S
C3269 C3271 1.327 . S
C3269 C3275 1.429 . S
C3270 C3262 1.574 . S
C3270 H3265 0.949 . S
C3270 C3276 1.368 . S
C3271 C3255 1.349 . S
C3271 H3263 0.950 . S
C3271 C3269 1.327 . S
C3272 C3260 1.349 . S
C3272 H3266 0.950 . S
C3272 C3273 1.327 . S
C3273 H3267 0.950 . S
C3273 C3272 1.327 . S
C3273 C3277 1.429 . S
C3274 C3257 1.574 . S
C3274 H3268 0.949 . S
C3274 C3278 1.368 . S
C3275 C3256 1.429 . S
C3275 C3269 1.429 . S
C3275 C3276 1.523 . S
C3276 C3257 1.368 . S
C3276 C3270 1.368 . S
C3276 C3275 1.523 . S
C3277 C3261 1.429 . S
C3277 C3273 1.429 . S
C3277 C3278 1.523 . S
C3278 C3262 1.368 . S
C3278 C3274 1.368 . S
C3278 C3277 1.523 . S
H3279 C3254 0.950 . S
H3280 C3256 0.950 . S
H3281 C3257 0.949 . S
H3282 C3259 0.950 . S
H3283 C3261 0.950 . S
C3284 C3285 1.349 . S
C3284 C3286 1.327 . S
C3284 H3309 0.950 . S
C3285 C3284 1.349 . S
C3285 C3301 1.349 . S
C3286 C3284 1.327 . S
C3286 C3305 1.429 . S
C3286 H3310 0.950 . S
C3287 C3304 1.574 . S
C3287 C3306 1.368 . S
C3287 H3311 0.949 . S
H3288 C3292 0.949 . S
C3289 C3290 1.349 . S
C3289 C3291 1.327 . S
C3289 H3312 0.950 . S
C3290 C3289 1.349 . S
C3290 C3302 1.349 . S
C3291 C3289 1.327 . S
C3291 C3307 1.429 . S
C3291 H3313 0.950 . S
C3292 H3288 0.949 . S
C3292 C3300 1.574 . S
C3292 C3308 1.368 . S
H3293 C3301 0.950 . S
H3294 C3299 0.950 . S
H3295 C3300 0.949 . S
H3296 C3302 0.950 . S
H3297 C3303 0.950 . S
H3298 C3304 0.949 . S
C3299 H3294 0.950 . S
C3299 C3301 1.327 . S
C3299 C3305 1.429 . S
C3300 C3292 1.574 . S
C3300 H3295 0.949 . S
C3300 C3306 1.368 . S
C3301 C3285 1.349 . S
C3301 H3293 0.950 . S
C3301 C3299 1.327 . S
C3302 C3290 1.349 . S
C3302 H3296 0.950 . S
C3302 C3303 1.327 . S
C3303 H3297 0.950 . S
C3303 C3302 1.327 . S
C3303 C3307 1.429 . S
C3304 C3287 1.574 . S
C3304 H3298 0.949 . S
C3304 C3308 1.368 . S
C3305 C3286 1.429 . S
C3305 C3299 1.429 . S
C3305 C3306 1.523 . S
C3306 C3287 1.368 . S
C3306 C3300 1.368 . S
C3306 C3305 1.523 . S
C3307 C3291 1.429 . S
C3307 C3303 1.429 . S
C3307 C3308 1.523 . S
C3308 C3292 1.368 . S
C3308 C3304 1.368 . S
C3308 C3307 1.523 . S
H3309 C3284 0.950 . S
H3310 C3286 0.950 . S
H3311 C3287 0.949 . S
H3312 C3289 0.950 . S
H3313 C3291 0.950 . S
C3314 C3315 1.349 . S
C3314 C3316 1.327 . S
C3314 H3339 0.950 . S
C3315 C3314 1.349 . S
C3315 C3331 1.349 . S
C3316 C3314 1.327 . S
C3316 C3335 1.429 . S
C3316 H3340 0.950 . S
C3317 C3334 1.574 . S
C3317 C3336 1.368 . S
C3317 H3341 0.949 . S
H3318 C3322 0.949 . S
C3319 C3320 1.349 . S
C3319 C3321 1.327 . S
C3319 H3342 0.950 . S
C3320 C3319 1.349 . S
C3320 C3332 1.349 . S
C3321 C3319 1.327 . S
C3321 C3337 1.429 . S
C3321 H3343 0.950 . S
C3322 H3318 0.949 . S
C3322 C3330 1.574 . S
C3322 C3338 1.368 . S
H3323 C3331 0.950 . S
H3324 C3329 0.950 . S
H3325 C3330 0.949 . S
H3326 C3332 0.950 . S
H3327 C3333 0.950 . S
H3328 C3334 0.949 . S
C3329 H3324 0.950 . S
C3329 C3331 1.327 . S
C3329 C3335 1.429 . S
C3330 C3322 1.574 . S
C3330 H3325 0.949 . S
C3330 C3336 1.368 . S
C3331 C3315 1.349 . S
C3331 H3323 0.950 . S
C3331 C3329 1.327 . S
C3332 C3320 1.349 . S
C3332 H3326 0.950 . S
C3332 C3333 1.327 . S
C3333 H3327 0.950 . S
C3333 C3332 1.327 . S
C3333 C3337 1.429 . S
C3334 C3317 1.574 . S
C3334 H3328 0.949 . S
C3334 C3338 1.368 . S
C3335 C3316 1.429 . S
C3335 C3329 1.429 . S
C3335 C3336 1.523 . S
C3336 C3317 1.368 . S
C3336 C3330 1.368 . S
C3336 C3335 1.523 . S
C3337 C3321 1.429 . S
C3337 C3333 1.429 . S
C3337 C3338 1.523 . S
C3338 C3322 1.368 . S
C3338 C3334 1.368 . S
C3338 C3337 1.523 . S
H3339 C3314 0.950 . S
H3340 C3316 0.950 . S
H3341 C3317 0.949 . S
H3342 C3319 0.950 . S
H3343 C3321 0.950 . S
C3344 C3345 1.349 . S
C3344 C3346 1.327 . S
C3344 H3369 0.950 . S
C3345 C3344 1.349 . S
C3345 C3361 1.349 . S
C3346 C3344 1.327 . S
C3346 C3365 1.429 . S
C3346 H3370 0.950 . S
C3347 C3364 1.574 . S
C3347 C3366 1.368 . S
C3347 H3371 0.949 . S
H3348 C3352 0.949 . S
C3349 C3350 1.349 . S
C3349 C3351 1.327 . S
C3349 H3372 0.950 . S
C3350 C3349 1.349 . S
C3350 C3362 1.349 . S
C3351 C3349 1.327 . S
C3351 C3367 1.429 . S
C3351 H3373 0.950 . S
C3352 H3348 0.949 . S
C3352 C3360 1.574 . S
C3352 C3368 1.368 . S
H3353 C3361 0.950 . S
H3354 C3359 0.950 . S
H3355 C3360 0.949 . S
H3356 C3362 0.950 . S
H3357 C3363 0.950 . S
H3358 C3364 0.949 . S
C3359 H3354 0.950 . S
C3359 C3361 1.327 . S
C3359 C3365 1.429 . S
C3360 C3352 1.574 . S
C3360 H3355 0.949 . S
C3360 C3366 1.368 . S
C3361 C3345 1.349 . S
C3361 H3353 0.950 . S
C3361 C3359 1.327 . S
C3362 C3350 1.349 . S
C3362 H3356 0.950 . S
C3362 C3363 1.327 . S
C3363 H3357 0.950 . S
C3363 C3362 1.327 . S
C3363 C3367 1.429 . S
C3364 C3347 1.574 . S
C3364 H3358 0.949 . S
C3364 C3368 1.368 . S
C3365 C3346 1.429 . S
C3365 C3359 1.429 . S
C3365 C3366 1.523 . S
C3366 C3347 1.368 . S
C3366 C3360 1.368 . S
C3366 C3365 1.523 . S
C3367 C3351 1.429 . S
C3367 C3363 1.429 . S
C3367 C3368 1.523 . S
C3368 C3352 1.368 . S
C3368 C3364 1.368 . S
C3368 C3367 1.523 . S
H3369 C3344 0.950 . S
H3370 C3346 0.950 . S
H3371 C3347 0.949 . S
H3372 C3349 0.950 . S
H3373 C3351 0.950 . S
C3374 C3375 1.349 . S
C3374 C3376 1.327 . S
C3374 H3399 0.950 . S
C3375 C3374 1.349 . S
C3375 C3391 1.349 . S
C3376 C3374 1.327 . S
C3376 C3395 1.429 . S
C3376 H3400 0.950 . S
C3377 C3394 1.574 . S
C3377 C3396 1.368 . S
C3377 H3401 0.949 . S
H3378 C3382 0.949 . S
C3379 C3380 1.349 . S
C3379 C3381 1.327 . S
C3379 H3402 0.950 . S
C3380 C3379 1.349 . S
C3380 C3392 1.349 . S
C3381 C3379 1.327 . S
C3381 C3397 1.429 . S
C3381 H3403 0.950 . S
C3382 H3378 0.949 . S
C3382 C3390 1.574 . S
C3382 C3398 1.368 . S
H3383 C3391 0.950 . S
H3384 C3389 0.950 . S
H3385 C3390 0.949 . S
H3386 C3392 0.950 . S
H3387 C3393 0.950 . S
H3388 C3394 0.949 . S
C3389 H3384 0.950 . S
C3389 C3391 1.327 . S
C3389 C3395 1.429 . S
C3390 C3382 1.574 . S
C3390 H3385 0.949 . S
C3390 C3396 1.368 . S
C3391 C3375 1.349 . S
C3391 H3383 0.950 . S
C3391 C3389 1.327 . S
C3392 C3380 1.349 . S
C3392 H3386 0.950 . S
C3392 C3393 1.327 . S
C3393 H3387 0.950 . S
C3393 C3392 1.327 . S
C3393 C3397 1.429 . S
C3394 C3377 1.574 . S
C3394 H3388 0.949 . S
C3394 C3398 1.368 . S
C3395 C3376 1.429 . S
C3395 C3389 1.429 . S
C3395 C3396 1.523 . S
C3396 C3377 1.368 . S
C3396 C3390 1.368 . S
C3396 C3395 1.523 . S
C3397 C3381 1.429 . S
C3397 C3393 1.429 . S
C3397 C3398 1.523 . S
C3398 C3382 1.368 . S
C3398 C3394 1.368 . S
C3398 C3397 1.523 . S
H3399 C3374 0.950 . S
H3400 C3376 0.950 . S
H3401 C3377 0.949 . S
H3402 C3379 0.950 . S
H3403 C3381 0.950 . S
C3404 C3405 1.349 . S
C3404 C3406 1.327 . S
C3404 H3429 0.950 . S
C3405 C3404 1.349 . S
C3405 C3421 1.349 . S
C3406 C3404 1.327 . S
C3406 C3425 1.429 . S
C3406 H3430 0.950 . S
C3407 C3424 1.574 . S
C3407 C3426 1.368 . S
C3407 H3431 0.949 . S
H3408 C3412 0.949 . S
C3409 C3410 1.349 . S
C3409 C3411 1.327 . S
C3409 H3432 0.950 . S
C3410 C3409 1.349 . S
C3410 C3422 1.349 . S
C3411 C3409 1.327 . S
C3411 C3427 1.429 . S
C3411 H3433 0.950 . S
C3412 H3408 0.949 . S
C3412 C3420 1.574 . S
C3412 C3428 1.368 . S
H3413 C3421 0.950 . S
H3414 C3419 0.950 . S
H3415 C3420 0.949 . S
H3416 C3422 0.950 . S
H3417 C3423 0.950 . S
H3418 C3424 0.949 . S
C3419 H3414 0.950 . S
C3419 C3421 1.327 . S
C3419 C3425 1.429 . S
C3420 C3412 1.574 . S
C3420 H3415 0.949 . S
C3420 C3426 1.368 . S
C3421 C3405 1.349 . S
C3421 H3413 0.950 . S
C3421 C3419 1.327 . S
C3422 C3410 1.349 . S
C3422 H3416 0.950 . S
C3422 C3423 1.327 . S
C3423 H3417 0.950 . S
C3423 C3422 1.327 . S
C3423 C3427 1.429 . S
C3424 C3407 1.574 . S
C3424 H3418 0.949 . S
C3424 C3428 1.368 . S
C3425 C3406 1.429 . S
C3425 C3419 1.429 . S
C3425 C3426 1.523 . S
C3426 C3407 1.368 . S
C3426 C3420 1.368 . S
C3426 C3425 1.523 . S
C3427 C3411 1.429 . S
C3427 C3423 1.429 . S
C3427 C3428 1.523 . S
C3428 C3412 1.368 . S
C3428 C3424 1.368 . S
C3428 C3427 1.523 . S
H3429 C3404 0.950 . S
H3430 C3406 0.950 . S
H3431 C3407 0.949 . S
H3432 C3409 0.950 . S
H3433 C3411 0.950 . S
C3434 C3435 1.349 . S
C3434 C3436 1.327 . S
C3434 H3459 0.950 . S
C3435 C3434 1.349 . S
C3435 C3451 1.349 . S
C3436 C3434 1.327 . S
C3436 C3455 1.429 . S
C3436 H3460 0.950 . S
C3437 C3454 1.574 . S
C3437 C3456 1.368 . S
C3437 H3461 0.949 . S
H3438 C3442 0.949 . S
C3439 C3440 1.349 . S
C3439 C3441 1.327 . S
C3439 H3462 0.950 . S
C3440 C3439 1.349 . S
C3440 C3452 1.349 . S
C3441 C3439 1.327 . S
C3441 C3457 1.429 . S
C3441 H3463 0.950 . S
C3442 H3438 0.949 . S
C3442 C3450 1.574 . S
C3442 C3458 1.368 . S
H3443 C3451 0.950 . S
H3444 C3449 0.950 . S
H3445 C3450 0.949 . S
H3446 C3452 0.950 . S
H3447 C3453 0.950 . S
H3448 C3454 0.949 . S
C3449 H3444 0.950 . S
C3449 C3451 1.327 . S
C3449 C3455 1.429 . S
C3450 C3442 1.574 . S
C3450 H3445 0.949 . S
C3450 C3456 1.368 . S
C3451 C3435 1.349 . S
C3451 H3443 0.950 . S
C3451 C3449 1.327 . S
C3452 C3440 1.349 . S
C3452 H3446 0.950 . S
C3452 C3453 1.327 . S
C3453 H3447 0.950 . S
C3453 C3452 1.327 . S
C3453 C3457 1.429 . S
C3454 C3437 1.574 . S
C3454 H3448 0.949 . S
C3454 C3458 1.368 . S
C3455 C3436 1.429 . S
C3455 C3449 1.429 . S
C3455 C3456 1.523 . S
C3456 C3437 1.368 . S
C3456 C3450 1.368 . S
C3456 C3455 1.523 . S
C3457 C3441 1.429 . S
C3457 C3453 1.429 . S
C3457 C3458 1.523 . S
C3458 C3442 1.368 . S
C3458 C3454 1.368 . S
C3458 C3457 1.523 . S
H3459 C3434 0.950 . S
H3460 C3436 0.950 . S
H3461 C3437 0.949 . S
H3462 C3439 0.950 . S
H3463 C3441 0.950 . S
C3464 C3465 1.349 . S
C3464 C3466 1.327 . S
C3464 H3489 0.950 . S
C3465 C3464 1.349 . S
C3465 C3481 1.349 . S
C3466 C3464 1.327 . S
C3466 C3485 1.429 . S
C3466 H3490 0.950 . S
C3467 C3484 1.574 . S
C3467 C3486 1.368 . S
C3467 H3491 0.949 . S
H3468 C3472 0.949 . S
C3469 C3470 1.349 . S
C3469 C3471 1.327 . S
C3469 H3492 0.950 . S
C3470 C3469 1.349 . S
C3470 C3482 1.349 . S
C3471 C3469 1.327 . S
C3471 C3487 1.429 . S
C3471 H3493 0.950 . S
C3472 H3468 0.949 . S
C3472 C3480 1.574 . S
C3472 C3488 1.368 . S
H3473 C3481 0.950 . S
H3474 C3479 0.950 . S
H3475 C3480 0.949 . S
H3476 C3482 0.950 . S
H3477 C3483 0.950 . S
H3478 C3484 0.949 . S
C3479 H3474 0.950 . S
C3479 C3481 1.327 . S
C3479 C3485 1.429 . S
C3480 C3472 1.574 . S
C3480 H3475 0.949 . S
C3480 C3486 1.368 . S
C3481 C3465 1.349 . S
C3481 H3473 0.950 . S
C3481 C3479 1.327 . S
C3482 C3470 1.349 . S
C3482 H3476 0.950 . S
C3482 C3483 1.327 . S
C3483 H3477 0.950 . S
C3483 C3482 1.327 . S
C3483 C3487 1.429 . S
C3484 C3467 1.574 . S
C3484 H3478 0.949 . S
C3484 C3488 1.368 . S
C3485 C3466 1.429 . S
C3485 C3479 1.429 . S
C3485 C3486 1.523 . S
C3486 C3467 1.368 . S
C3486 C3480 1.368 . S
C3486 C3485 1.523 . S
C3487 C3471 1.429 . S
C3487 C3483 1.429 . S
C3487 C3488 1.523 . S
C3488 C3472 1.368 . S
C3488 C3484 1.368 . S
C3488 C3487 1.523 . S
H3489 C3464 0.950 . S
H3490 C3466 0.950 . S
H3491 C3467 0.949 . S
H3492 C3469 0.950 . S
H3493 C3471 0.950 . S
C3494 C3495 1.349 . S
C3494 C3496 1.327 . S
C3494 H3519 0.950 . S
C3495 C3494 1.349 . S
C3495 C3511 1.349 . S
C3496 C3494 1.327 . S
C3496 C3515 1.429 . S
C3496 H3520 0.950 . S
C3497 C3514 1.574 . S
C3497 C3516 1.368 . S
C3497 H3521 0.949 . S
H3498 C3502 0.949 . S
C3499 C3500 1.349 . S
C3499 C3501 1.327 . S
C3499 H3522 0.950 . S
C3500 C3499 1.349 . S
C3500 C3512 1.349 . S
C3501 C3499 1.327 . S
C3501 C3517 1.429 . S
C3501 H3523 0.950 . S
C3502 H3498 0.949 . S
C3502 C3510 1.574 . S
C3502 C3518 1.368 . S
H3503 C3511 0.950 . S
H3504 C3509 0.950 . S
H3505 C3510 0.949 . S
H3506 C3512 0.950 . S
H3507 C3513 0.950 . S
H3508 C3514 0.949 . S
C3509 H3504 0.950 . S
C3509 C3511 1.327 . S
C3509 C3515 1.429 . S
C3510 C3502 1.574 . S
C3510 H3505 0.949 . S
C3510 C3516 1.368 . S
C3511 C3495 1.349 . S
C3511 H3503 0.950 . S
C3511 C3509 1.327 . S
C3512 C3500 1.349 . S
C3512 H3506 0.950 . S
C3512 C3513 1.327 . S
C3513 H3507 0.950 . S
C3513 C3512 1.327 . S
C3513 C3517 1.429 . S
C3514 C3497 1.574 . S
C3514 H3508 0.949 . S
C3514 C3518 1.368 . S
C3515 C3496 1.429 . S
C3515 C3509 1.429 . S
C3515 C3516 1.523 . S
C3516 C3497 1.368 . S
C3516 C3510 1.368 . S
C3516 C3515 1.523 . S
C3517 C3501 1.429 . S
C3517 C3513 1.429 . S
C3517 C3518 1.523 . S
C3518 C3502 1.368 . S
C3518 C3514 1.368 . S
C3518 C3517 1.523 . S
H3519 C3494 0.950 . S
H3520 C3496 0.950 . S
H3521 C3497 0.949 . S
H3522 C3499 0.950 . S
H3523 C3501 0.950 . S
C3524 C3525 1.349 . S
C3524 C3526 1.327 . S
C3524 H3549 0.950 . S
C3525 C3524 1.349 . S
C3525 C3541 1.349 . S
C3526 C3524 1.327 . S
C3526 C3545 1.429 . S
C3526 H3550 0.950 . S
C3527 C3544 1.574 . S
C3527 C3546 1.368 . S
C3527 H3551 0.949 . S
H3528 C3532 0.949 . S
C3529 C3530 1.349 . S
C3529 C3531 1.327 . S
C3529 H3552 0.950 . S
C3530 C3529 1.349 . S
C3530 C3542 1.349 . S
C3531 C3529 1.327 . S
C3531 C3547 1.429 . S
C3531 H3553 0.950 . S
C3532 H3528 0.949 . S
C3532 C3540 1.574 . S
C3532 C3548 1.368 . S
H3533 C3541 0.950 . S
H3534 C3539 0.950 . S
H3535 C3540 0.949 . S
H3536 C3542 0.950 . S
H3537 C3543 0.950 . S
H3538 C3544 0.949 . S
C3539 H3534 0.950 . S
C3539 C3541 1.327 . S
C3539 C3545 1.429 . S
C3540 C3532 1.574 . S
C3540 H3535 0.949 . S
C3540 C3546 1.368 . S
C3541 C3525 1.349 . S
C3541 H3533 0.950 . S
C3541 C3539 1.327 . S
C3542 C3530 1.349 . S
C3542 H3536 0.950 . S
C3542 C3543 1.327 . S
C3543 H3537 0.950 . S
C3543 C3542 1.327 . S
C3543 C3547 1.429 . S
C3544 C3527 1.574 . S
C3544 H3538 0.949 . S
C3544 C3548 1.368 . S
C3545 C3526 1.429 . S
C3545 C3539 1.429 . S
C3545 C3546 1.523 . S
C3546 C3527 1.368 . S
C3546 C3540 1.368 . S
C3546 C3545 1.523 . S
C3547 C3531 1.429 . S
C3547 C3543 1.429 . S
C3547 C3548 1.523 . S
C3548 C3532 1.368 . S
C3548 C3544 1.368 . S
C3548 C3547 1.523 . S
H3549 C3524 0.950 . S
H3550 C3526 0.950 . S
H3551 C3527 0.949 . S
H3552 C3529 0.950 . S
H3553 C3531 0.950 . S
C3554 C3555 1.349 . S
C3554 C3556 1.327 . S
C3554 H3579 0.950 . S
C3555 C3554 1.349 . S
C3555 C3571 1.349 . S
C3556 C3554 1.327 . S
C3556 C3575 1.429 . S
C3556 H3580 0.950 . S
C3557 C3574 1.574 . S
C3557 C3576 1.368 . S
C3557 H3581 0.949 . S
H3558 C3562 0.949 . S
C3559 C3560 1.349 . S
C3559 C3561 1.327 . S
C3559 H3582 0.950 . S
C3560 C3559 1.349 . S
C3560 C3572 1.349 . S
C3561 C3559 1.327 . S
C3561 C3577 1.429 . S
C3561 H3583 0.950 . S
C3562 H3558 0.949 . S
C3562 C3570 1.574 . S
C3562 C3578 1.368 . S
H3563 C3571 0.950 . S
H3564 C3569 0.950 . S
H3565 C3570 0.949 . S
H3566 C3572 0.950 . S
H3567 C3573 0.950 . S
H3568 C3574 0.949 . S
C3569 H3564 0.950 . S
C3569 C3571 1.327 . S
C3569 C3575 1.429 . S
C3570 C3562 1.574 . S
C3570 H3565 0.949 . S
C3570 C3576 1.368 . S
C3571 C3555 1.349 . S
C3571 H3563 0.950 . S
C3571 C3569 1.327 . S
C3572 C3560 1.349 . S
C3572 H3566 0.950 . S
C3572 C3573 1.327 . S
C3573 H3567 0.950 . S
C3573 C3572 1.327 . S
C3573 C3577 1.429 . S
C3574 C3557 1.574 . S
C3574 H3568 0.949 . S
C3574 C3578 1.368 . S
C3575 C3556 1.429 . S
C3575 C3569 1.429 . S
C3575 C3576 1.523 . S
C3576 C3557 1.368 . S
C3576 C3570 1.368 . S
C3576 C3575 1.523 . S
C3577 C3561 1.429 . S
C3577 C3573 1.429 . S
C3577 C3578 1.523 . S
C3578 C3562 1.368 . S
C3578 C3574 1.368 . S
C3578 C3577 1.523 . S
H3579 C3554 0.950 . S
H3580 C3556 0.950 . S
H3581 C3557 0.949 . S
H3582 C3559 0.950 . S
H3583 C3561 0.950 . S
C705 C8 2.070 . S
C710 C106 2.070 . S
C735 C128 2.070 . S
C740 C30 2.070 . S
C765 C142 2.070 . S
C770 C54 2.070 . S
C795 C84 2.070 . S
C800 C162 2.070 . S
C825 C194 2.053 . S
C830 C272 2.053 . S
C855 C208 2.053 . S
C860 C304 2.053 . S
C885 C230 2.053 . S
C890 C316 2.053 . S
C915 C340 2.053 . S
C920 C252 2.053 . S
C945 C370 2.070 . S
C950 C458 2.070 . S
C975 C480 2.070 . S
C980 C382 2.070 . S
C1005 C404 2.070 . S
C1010 C502 2.070 . S
C1035 C524 2.070 . S
C1040 C436 2.070 . S
C1065 C538 2.053 . S
C1070 C624 2.053 . S
C1095 C560 2.053 . S
C1100 C646 2.053 . S
C1125 C590 2.053 . S
C1130 C678 2.053 . S
C1155 C612 2.053 . S
C1160 C692 2.053 . S
C1185 C546 1.386 . S
C1190 C18 1.376 . S
C1215 C216 1.386 . S
C1220 C40 1.376 . S
C1245 C52 1.376 . S
C1250 C580 1.386 . S
C1275 C76 1.376 . S
C1280 C260 1.386 . S
C1305 C98 1.376 . S
C1310 C626 1.386 . S
C1335 C120 1.376 . S
C1340 C294 1.386 . S
C1365 C668 1.386 . S
C1370 C140 1.376 . S
C1395 C348 1.386 . S
C1400 C172 1.376 . S
C1425 C362 1.376 . S
C1430 C184 1.386 . S
C1455 C238 1.386 . S
C1460 C414 1.376 . S
C1485 C274 1.386 . S
C1490 C450 1.376 . S
C1515 C494 1.376 . S
C1520 C318 1.386 . S
C1545 C392 1.376 . S
C1550 C568 1.386 . S
C1575 C602 1.386 . S
C1580 C428 1.376 . S
C1605 C648 1.386 . S
C1610 C472 1.376 . S
C1635 C516 1.376 . S
C1640 C700 1.386 . S
C1665 C7 0.930 . S
C1670 C601 0.930 . S
C1695 C29 0.930 . S
C1700 C183 0.930 . S
C1725 C65 0.930 . S
C1730 C565 0.930 . S
C1755 C235 0.930 . S
C1760 C81 0.930 . S
C1785 C659 0.930 . S
C1790 C103 0.930 . S
C1815 C125 0.930 . S
C1820 C329 0.930 . S
C1845 C697 0.930 . S
C1850 C153 0.930 . S
C1875 C285 0.930 . S
C1880 C161 0.930 . S
C1905 C425 0.933 . S
C1910 C197 0.933 . S
C1935 C205 0.933 . S
C1940 C21 0.933 . S
C1965 C395 0.933 . S
C1970 C227 0.933 . S
C1995 C59 0.933 . S
C2000 C249 0.933 . S
C2025 C469 0.933 . S
C2030 C279 0.933 . S
C2055 C307 0.933 . S
C2060 C147 0.933 . S
C2085 C323 0.933 . S
C2090 C513 0.933 . S
C2115 C95 0.933 . S
C2120 C337 0.933 . S
C2145 C367 0.930 . S
C2150 C257 0.930 . S
C2175 C381 0.930 . S
C2180 C543 0.930 . S
C2205 C213 0.930 . S
C2210 C403 0.930 . S
C2235 C433 0.930 . S
C2240 C579 0.930 . S
C2265 C293 0.930 . S
C2270 C455 0.930 . S
C2295 C477 0.930 . S
C2300 C667 0.930 . S
C2325 C345 0.930 . S
C2330 C499 0.930 . S
C2355 C521 0.930 . S
C2360 C637 0.930 . S
C2385 C73 0.933 . S
C2390 C535 0.933 . S
C2415 C557 0.933 . S
C2420 C359 0.933 . S
C2445 C593 0.933 . S
C2450 C43 0.933 . S
C2475 C417 0.933 . S
C2480 C615 0.933 . S
C2505 C117 0.933 . S
C2510 C631 0.933 . S
C2535 C491 0.933 . S
C2540 C653 0.933 . S
C2565 C681 0.933 . S
C2570 C175 0.933 . S
C2595 C447 0.933 . S
C2600 C689 0.933 . S
C2625 C15 0.261 . S
C2630 C411 0.261 . S
C2655 C37 0.261 . S
C2660 C439 0.261 . S
C2685 C51 0.261 . S
C2690 C373 0.261 . S
C2715 C87 0.261 . S
C2720 C389 0.261 . S
C2745 C505 0.261 . S
C2750 C109 0.261 . S
C2775 C527 0.261 . S
C2780 C131 0.261 . S
C2805 C139 0.261 . S
C2810 C461 0.261 . S
C2835 C483 0.261 . S
C2840 C169 0.261 . S
C2865 C587 0.254 . S
C2870 C191 0.254 . S
C2895 C609 0.254 . S
C2900 C219 0.254 . S
C2925 C549 0.254 . S
C2930 C241 0.254 . S
C2955 C263 0.254 . S
C2960 C571 0.254 . S
C2985 C271 0.254 . S
C2990 C675 0.254 . S
C3015 C703 0.254 . S
C3020 C301 0.254 . S
C3045 C623 0.254 . S
C3050 C315 0.254 . S
C3075 C351 0.254 . S
C3080 C645 0.254 . S
C3105 C164 1.251 . S
C3110 C10 1.251 . S
C3135 C32 1.251 . S
C3140 C96 1.251 . S
C3165 C62 1.251 . S
C3170 C118 1.251 . S
C3195 C150 1.251 . S
C3200 C74 1.251 . S
C3225 C338 1.267 . S
C3230 C186 1.267 . S
C3255 C206 1.267 . S
C3260 C282 1.267 . S
C3285 C296 1.267 . S
C3290 C228 1.267 . S
C3315 C326 1.267 . S
C3320 C250 1.267 . S
C3345 C514 1.251 . S
C3350 C360 1.251 . S
C3375 C448 1.251 . S
C3380 C384 1.251 . S
C3405 C470 1.251 . S
C3410 C406 1.251 . S
C3435 C426 1.251 . S
C3440 C492 1.251 . S
C3465 C690 1.267 . S
C3470 C536 1.267 . S
C3495 C634 1.267 . S
C3500 C558 1.267 . S
C3525 C656 1.267 . S
C3530 C582 1.267 . S
C3555 C604 1.267 . S
C3560 C670 1.267 . S
