# Generated by pormake.
# Topology ukt, (4)-cn, num edge types: 1
# Building blocks:
#     Node 0, Type 0, BuildingBlock: ICAMEG_clean_sbu_1, # of connection points: 4
#     Node 1, Type 0, BuildingBlock: ICAMEG_clean_sbu_1, # of connection points: 4
#     Node 2, Type 0, BuildingBlock: ICAMEG_clean_sbu_1, # of connection points: 4
#     Node 3, Type 0, BuildingBlock: ICAMEG_clean_sbu_1, # of connection points: 4
#     Node 4, Type 0, BuildingBlock: ICAMEG_clean_sbu_1, # of connection points: 4
#     Node 5, Type 0, BuildingBlock: ICAMEG_clean_sbu_1, # of connection points: 4
#     Node 6, Type 0, BuildingBlock: ICAMEG_clean_sbu_1, # of connection points: 4
#     Node 7, Type 0, BuildingBlock: ICAMEG_clean_sbu_1, # of connection points: 4
#     Node 8, Type 0, BuildingBlock: ICAMEG_clean_sbu_1, # of connection points: 4
#     Node 9, Type 0, BuildingBlock: ICAMEG_clean_sbu_1, # of connection points: 4
#     Node 10, Type 0, BuildingBlock: ICAMEG_clean_sbu_1, # of connection points: 4
#     Node 11, Type 0, BuildingBlock: ICAMEG_clean_sbu_1, # of connection points: 4
#     Node 12, Type 0, BuildingBlock: ICAMEG_clean_sbu_1, # of connection points: 4
#     Node 13, Type 0, BuildingBlock: ICAMEG_clean_sbu_1, # of connection points: 4
#     Node 14, Type 0, BuildingBlock: ICAMEG_clean_sbu_1, # of connection points: 4
#     Node 15, Type 0, BuildingBlock: ICAMEG_clean_sbu_1, # of connection points: 4
#     Edge 16, Type (0, 0), BuildingBlock: TEMPAE_clean_linker_10, # of connection points: 2
#     Edge 17, Type (0, 0), BuildingBlock: TEMPAE_clean_linker_10, # of connection points: 2
#     Edge 18, Type (0, 0), BuildingBlock: TEMPAE_clean_linker_10, # of connection points: 2
#     Edge 19, Type (0, 0), BuildingBlock: TEMPAE_clean_linker_10, # of connection points: 2
#     Edge 20, Type (0, 0), BuildingBlock: TEMPAE_clean_linker_10, # of connection points: 2
#     Edge 21, Type (0, 0), BuildingBlock: TEMPAE_clean_linker_10, # of connection points: 2
#     Edge 22, Type (0, 0), BuildingBlock: TEMPAE_clean_linker_10, # of connection points: 2
#     Edge 23, Type (0, 0), BuildingBlock: TEMPAE_clean_linker_10, # of connection points: 2
#     Edge 24, Type (0, 0), BuildingBlock: TEMPAE_clean_linker_10, # of connection points: 2
#     Edge 25, Type (0, 0), BuildingBlock: TEMPAE_clean_linker_10, # of connection points: 2
#     Edge 26, Type (0, 0), BuildingBlock: TEMPAE_clean_linker_10, # of connection points: 2
#     Edge 27, Type (0, 0), BuildingBlock: TEMPAE_clean_linker_10, # of connection points: 2
#     Edge 28, Type (0, 0), BuildingBlock: TEMPAE_clean_linker_10, # of connection points: 2
#     Edge 29, Type (0, 0), BuildingBlock: TEMPAE_clean_linker_10, # of connection points: 2
#     Edge 30, Type (0, 0), BuildingBlock: TEMPAE_clean_linker_10, # of connection points: 2
#     Edge 31, Type (0, 0), BuildingBlock: TEMPAE_clean_linker_10, # of connection points: 2
#     Edge 32, Type (0, 0), BuildingBlock: TEMPAE_clean_linker_10, # of connection points: 2
#     Edge 33, Type (0, 0), BuildingBlock: TEMPAE_clean_linker_10, # of connection points: 2
#     Edge 34, Type (0, 0), BuildingBlock: TEMPAE_clean_linker_10, # of connection points: 2
#     Edge 35, Type (0, 0), BuildingBlock: TEMPAE_clean_linker_10, # of connection points: 2
#     Edge 36, Type (0, 0), BuildingBlock: TEMPAE_clean_linker_10, # of connection points: 2
#     Edge 37, Type (0, 0), BuildingBlock: TEMPAE_clean_linker_10, # of connection points: 2
#     Edge 38, Type (0, 0), BuildingBlock: TEMPAE_clean_linker_10, # of connection points: 2
#     Edge 39, Type (0, 0), BuildingBlock: TEMPAE_clean_linker_10, # of connection points: 2
#     Edge 40, Type (0, 0), BuildingBlock: TEMPAE_clean_linker_10, # of connection points: 2
#     Edge 41, Type (0, 0), BuildingBlock: TEMPAE_clean_linker_10, # of connection points: 2
#     Edge 42, Type (0, 0), BuildingBlock: TEMPAE_clean_linker_10, # of connection points: 2
#     Edge 43, Type (0, 0), BuildingBlock: TEMPAE_clean_linker_10, # of connection points: 2
#     Edge 44, Type (0, 0), BuildingBlock: TEMPAE_clean_linker_10, # of connection points: 2
#     Edge 45, Type (0, 0), BuildingBlock: TEMPAE_clean_linker_10, # of connection points: 2
#     Edge 46, Type (0, 0), BuildingBlock: TEMPAE_clean_linker_10, # of connection points: 2
#     Edge 47, Type (0, 0), BuildingBlock: TEMPAE_clean_linker_10, # of connection points: 2
# Relax obj value: 0.226
# Max RMSD: 0.138
# Mean RMSD: 0.138
data_MOF--net-ukt--node1-ICAMEG_clean_sbu_1--edge1-TEMPAE_clean_linker_10
_symmetry_space_group_name_H-M    P1
_symmetry_Int_Tables_number       1
_symmetry_cell_setting            triclinic
loop_
_symmetry_equiv_pos_as_xyz
'x, y, z'
_cell_length_a     45.004862
_cell_length_b     45.011907
_cell_length_c     40.745968
_cell_angle_alpha  90.000892
_cell_angle_beta   89.999083
_cell_angle_gamma 90.004384
loop_
_atom_site_label
_atom_site_type_symbol
_atom_site_fract_x
_atom_site_fract_y
_atom_site_fract_z
_atom_type_partial_charge
Co0 Co 0.57298 0.15961 0.1052 0.0
Co1 Co 0.53143 0.16104 0.03374 0.0
O2 O 0.53671 0.15187 0.08029 0.0
C3 C 0.52702 0.19351 0.14104 0.0
O4 O 0.51692 0.20284 0.11262 0.0
C5 C 0.52409 0.09657 0.03854 0.0
O6 O 0.54595 0.09716 0.0598 0.0
O7 O 0.57125 0.14475 0.0223 0.0
O8 O 0.59802 0.14409 0.06882 0.0
H9 H 0.56121 0.20298 0.9243 0.0
H10 H 0.52446 0.12473 0.13584 0.0
O11 O 0.54883 0.17554 0.14224 0.0
H12 H 0.61119 0.05781 0.13419 0.0
H13 H 0.63523 0.16176 0.20784 0.0
H14 H 0.632 0.18532 0.0897 0.0
H15 H 0.61517 0.10897 0.11294 0.0
H16 H 0.59026 0.15122 0.17525 0.0
O17 O 0.51437 0.12059 0.02597 0.0
H18 H 0.56777 0.19118 0.98298 0.0
H19 H 0.48298 0.14982 0.98545 0.0
H20 H 0.67753 0.19597 0.12126 0.0
H21 H 0.51957 0.07382 0.1576 0.0
H22 H 0.67933 0.18418 0.18079 0.0
H23 H 0.56312 0.03993 0.15671 0.0
O24 O 0.57628 0.20041 0.08672 0.0
H25 H 0.43105 0.15859 0.08754 0.0
H26 H 0.49906 0.21709 0.01806 0.0
H27 H 0.45008 0.23779 0.03271 0.0
H28 H 0.41568 0.20844 0.06766 0.0
H29 H 0.48037 0.13886 0.07252 0.0
H30 H 0.47562 0.16088 0.9267 0.0
H31 H 0.51486 0.18777 0.89577 0.0
O32 O 0.54907 0.20119 0.04042 0.0
C33 C 0.59507 0.13945 0.03815 0.0
C34 C 0.5439 0.19134 0.93753 0.0
C35 C 0.49588 0.16767 0.93887 0.0
N36 N 0.52568 0.17007 0.98766 0.0
C37 C 0.54746 0.18469 0.97078 0.0
C38 C 0.5002 0.16142 0.9721 0.0
C39 C 0.51791 0.18277 0.92154 0.0
C40 C 0.54359 0.11022 0.13573 0.0
N41 N 0.57009 0.11985 0.12329 0.0
C42 C 0.54066 0.08138 0.14793 0.0
C43 C 0.56509 0.06236 0.14738 0.0
C44 C 0.59206 0.07237 0.13473 0.0
C45 C 0.59417 0.10134 0.12268 0.0
C46 C 0.63476 0.1669 0.18189 0.0
C47 C 0.63272 0.17987 0.11552 0.0
C48 C 0.60935 0.16102 0.16333 0.0
N49 N 0.60864 0.16734 0.13052 0.0
C50 C 0.65852 0.18606 0.13329 0.0
C51 C 0.6595 0.17948 0.1667 0.0
C52 C 0.56618 0.21356 0.06133 0.0
C53 C 0.44582 0.17156 0.07224 0.0
C54 C 0.48426 0.20424 0.03337 0.0
C55 C 0.45652 0.21604 0.04152 0.0
C56 C 0.43722 0.19955 0.06111 0.0
N57 N 0.4925 0.17676 0.04436 0.0
C58 C 0.47371 0.16046 0.06357 0.0
Co59 Co 0.3366 0.57336 0.10656 0.0
Co60 Co 0.3359 0.52804 0.03792 0.0
O61 O 0.34453 0.53579 0.08418 0.0
C62 C 0.30194 0.5294 0.14453 0.0
O63 O 0.29332 0.51768 0.1166 0.0
C64 C 0.40039 0.52111 0.04398 0.0
O65 O 0.39961 0.54373 0.06423 0.0
O66 O 0.35221 0.56726 0.02415 0.0
O67 O 0.35299 0.59626 0.069 0.0
H68 H 0.29507 0.55195 0.92624 0.0
H69 H 0.37054 0.52633 0.14107 0.0
O70 O 0.31979 0.55134 0.14475 0.0
H71 H 0.43814 0.61241 0.13537 0.0
H72 H 0.33316 0.64102 0.2049 0.0
H73 H 0.31179 0.63166 0.08665 0.0
H74 H 0.38742 0.61556 0.11271 0.0
H75 H 0.34381 0.59428 0.17556 0.0
O76 O 0.37649 0.51082 0.03167 0.0
H77 H 0.30613 0.56154 0.98459 0.0
H78 H 0.34783 0.47724 0.99289 0.0
H79 H 0.30106 0.67891 0.11492 0.0
H80 H 0.421 0.5223 0.1643 0.0
H81 H 0.31175 0.6838 0.17449 0.0
H82 H 0.45522 0.56551 0.16139 0.0
O83 O 0.29614 0.57595 0.08699 0.0
H84 H 0.33821 0.43075 0.09821 0.0
H85 H 0.28027 0.49448 0.02342 0.0
H86 H 0.25963 0.44626 0.04096 0.0
H87 H 0.2887 0.414 0.07859 0.0
H88 H 0.35786 0.4793 0.08028 0.0
H89 H 0.33752 0.46685 0.93453 0.0
H90 H 0.31083 0.50431 0.90084 0.0
O91 O 0.29556 0.54573 0.043 0.0
C92 C 0.35775 0.59175 0.0386 0.0
C93 C 0.30663 0.53541 0.94069 0.0
C94 C 0.33048 0.48766 0.94533 0.0
N95 N 0.32737 0.51986 0.99216 0.0
C96 C 0.31286 0.54067 0.97376 0.0
C97 C 0.33632 0.49369 0.97833 0.0
C98 C 0.3155 0.50869 0.92645 0.0
C99 C 0.38519 0.54533 0.14006 0.0
N100 N 0.376 0.57118 0.1257 0.0
C101 C 0.41378 0.54288 0.15311 0.0
C102 C 0.43299 0.56712 0.15142 0.0
C103 C 0.42343 0.59343 0.13681 0.0
C104 C 0.3947 0.59506 0.12397 0.0
C105 C 0.32849 0.6392 0.17892 0.0
C106 C 0.31675 0.63371 0.1125 0.0
C107 C 0.33443 0.61277 0.16219 0.0
N108 N 0.32871 0.61036 0.12935 0.0
C109 C 0.31051 0.66048 0.12841 0.0
C110 C 0.31648 0.66319 0.16184 0.0
C111 C 0.28313 0.5642 0.06239 0.0
C112 C 0.32535 0.44458 0.08176 0.0
C113 C 0.29298 0.48063 0.03991 0.0
C114 C 0.28122 0.45331 0.04968 0.0
C115 C 0.29756 0.43521 0.07078 0.0
N116 N 0.32025 0.48964 0.05079 0.0
C117 C 0.33641 0.47203 0.07145 0.0
Co118 Co 0.91878 0.33196 0.11062 0.0
Co119 Co 0.96853 0.33544 0.0461 0.0
O120 O 0.95653 0.34387 0.09118 0.0
C121 C 0.9643 0.30383 0.15238 0.0
O122 O 0.97857 0.29681 0.12538 0.0
C123 C 0.96668 0.40018 0.04934 0.0
O124 O 0.94116 0.3968 0.06441 0.0
O125 O 0.92896 0.34742 0.02854 0.0
O126 O 0.89685 0.34501 0.07075 0.0
H127 H 0.95771 0.29155 0.93334 0.0
H128 H 0.95918 0.3718 0.14763 0.0
O129 O 0.94005 0.31836 0.1509 0.0
H130 H 0.86632 0.42854 0.13349 0.0
H131 H 0.84549 0.322 0.20332 0.0
H132 H 0.86511 0.30049 0.08664 0.0
H133 H 0.87069 0.37752 0.11194 0.0
H134 H 0.89259 0.33757 0.17755 0.0
O135 O 0.98211 0.37762 0.04116 0.0
H136 H 0.9424 0.30214 0.99028 0.0
H137 H 0.02121 0.35209 0.00587 0.0
H138 H 0.81761 0.28475 0.11132 0.0
H139 H 0.95567 0.42267 0.16984 0.0
H140 H 0.80756 0.29549 0.17009 0.0
H141 H 0.90901 0.45141 0.16274 0.0
O142 O 0.9221 0.29131 0.09206 0.0
H143 H 0.0605 0.34803 0.11456 0.0
H144 H 0.00801 0.28298 0.0363 0.0
H145 H 0.05651 0.26732 0.05857 0.0
H146 H 0.0831 0.29998 0.09798 0.0
H147 H 0.01182 0.3627 0.0919 0.0
H148 H 0.03725 0.3423 0.94897 0.0
H149 H 0.00545 0.31171 0.91234 0.0
O150 O 0.9544 0.29354 0.05005 0.0
C151 C 0.90299 0.35006 0.04073 0.0
C152 C 0.9718 0.30483 0.94909 0.0
C153 C 0.01643 0.33334 0.95785 0.0
N154 N 0.98103 0.32748 0.00143 0.0
C155 C 0.9633 0.31082 0.98138 0.0
C156 C 0.00721 0.33886 0.99001 0.0
C157 C 0.99858 0.31617 0.93732 0.0
C158 C 0.93871 0.38407 0.14473 0.0
N159 N 0.91512 0.37164 0.12871 0.0
C160 C 0.93689 0.4129 0.15724 0.0
C161 C 0.91071 0.42904 0.1532 0.0
C162 C 0.88676 0.41622 0.13679 0.0
C163 C 0.88938 0.38734 0.12459 0.0
C164 C 0.84957 0.31726 0.17767 0.0
C165 C 0.86079 0.30546 0.11215 0.0
C166 C 0.87622 0.32598 0.16297 0.0
N167 N 0.88146 0.32019 0.13055 0.0
C168 C 0.8339 0.2964 0.12602 0.0
C169 C 0.82829 0.3024 0.15901 0.0
C170 C 0.9362 0.27941 0.06832 0.0
C171 C 0.04916 0.33364 0.09735 0.0
C172 C 0.01941 0.29727 0.05351 0.0
C173 C 0.0469 0.28832 0.06598 0.0
C174 C 0.06181 0.30666 0.08807 0.0
N175 N 0.00717 0.32377 0.06273 0.0
C176 C 0.02166 0.34189 0.08435 0.0
Co177 Co 0.16738 0.92733 0.1013 0.0
Co178 Co 0.16959 0.96932 0.03019 0.0
O179 O 0.15966 0.96365 0.0765 0.0
C180 C 0.20006 0.97329 0.13853 0.0
O181 O 0.21012 0.98364 0.11053 0.0
C182 C 0.10497 0.9756 0.03366 0.0
O183 O 0.10556 0.95353 0.05464 0.0
O184 O 0.15412 0.92937 0.01803 0.0
O185 O 0.15301 0.90235 0.06434 0.0
H186 H 0.21398 0.94092 0.92148 0.0
H187 H 0.13116 0.9751 0.13146 0.0
O188 O 0.18216 0.9514 0.13895 0.0
H189 H 0.06555 0.88743 0.12731 0.0
H190 H 0.16829 0.86434 0.20341 0.0
H191 H 0.1942 0.86878 0.08592 0.0
H192 H 0.11721 0.88435 0.10738 0.0
H193 H 0.15783 0.90942 0.17098 0.0
O194 O 0.12902 0.98584 0.02167 0.0
H195 H 0.20123 0.93379 0.97984 0.0
H196 H 0.15853 0.0179 0.98204 0.0
H197 H 0.2048 0.82316 0.11733 0.0
H198 H 0.07972 0.97908 0.15192 0.0
H199 H 0.19183 0.82075 0.17654 0.0
H200 H 0.0465 0.93506 0.14976 0.0
O201 O 0.20858 0.92474 0.08378 0.0
H202 H 0.16468 0.06934 0.08458 0.0
H203 H 0.2255 0.00253 0.01611 0.0
H204 H 0.24522 0.05172 0.03155 0.0
H205 H 0.21469 0.08552 0.06598 0.0
H206 H 0.14595 0.01983 0.0688 0.0
H207 H 0.17052 0.02581 0.92359 0.0
H208 H 0.19856 0.9872 0.89297 0.0
O209 O 0.20985 0.95217 0.03764 0.0
C210 C 0.14896 0.90537 0.03359 0.0
C211 C 0.20184 0.95795 0.93459 0.0
C212 C 0.17741 0.00558 0.93576 0.0
N213 N 0.17938 0.97552 0.98437 0.0
C214 C 0.19464 0.95408 0.96765 0.0
C215 C 0.17063 0.00095 0.96882 0.0
C216 C 0.19315 0.98391 0.9186 0.0
C217 C 0.11694 0.95576 0.13081 0.0
N218 N 0.12722 0.9295 0.1184 0.0
C219 C 0.08779 0.95818 0.14228 0.0
C220 C 0.06915 0.93349 0.14102 0.0
C221 C 0.07982 0.90676 0.1284 0.0
C222 C 0.10908 0.90517 0.1171 0.0
C223 C 0.17395 0.86508 0.17761 0.0
C224 C 0.18824 0.8678 0.1116 0.0
C225 C 0.16812 0.89056 0.15913 0.0
N226 N 0.1751 0.8916 0.1265 0.0
C227 C 0.1944 0.84195 0.12929 0.0
C228 C 0.18716 0.84063 0.16251 0.0
C229 C 0.22205 0.9351 0.05871 0.0
C230 C 0.17817 0.05484 0.06951 0.0
C231 C 0.21214 0.01707 0.0312 0.0
C232 C 0.22339 0.04493 0.03979 0.0
C233 C 0.20624 0.06389 0.0591 0.0
N234 N 0.18457 0.00839 0.04146 0.0
C235 C 0.16763 0.02684 0.0604 0.0
Co236 Co 0.58043 0.32706 0.39176 0.0
Co237 Co 0.53133 0.33088 0.45685 0.0
O238 O 0.54323 0.33979 0.41185 0.0
C239 C 0.53381 0.30097 0.34984 0.0
O240 O 0.51947 0.29402 0.37682 0.0
C241 C 0.53532 0.39563 0.45504 0.0
O242 O 0.56071 0.39173 0.43987 0.0
O243 O 0.57144 0.34115 0.47429 0.0
O244 O 0.60307 0.33869 0.43167 0.0
H245 H 0.54154 0.28454 0.56848 0.0
H246 H 0.54103 0.36881 0.35606 0.0
O247 O 0.55844 0.31484 0.35141 0.0
H248 H 0.63576 0.42233 0.37052 0.0
H249 H 0.65258 0.31632 0.29809 0.0
H250 H 0.63328 0.29356 0.41454 0.0
H251 H 0.62994 0.37108 0.39094 0.0
H252 H 0.60623 0.33299 0.32469 0.0
O253 O 0.51924 0.37341 0.46286 0.0
H254 H 0.55671 0.2956 0.5116 0.0
H255 H 0.47962 0.34863 0.49805 0.0
H256 H 0.68003 0.27669 0.38903 0.0
H257 H 0.54598 0.41996 0.33498 0.0
H258 H 0.6899 0.28805 0.33037 0.0
H259 H 0.59359 0.44709 0.34226 0.0
O260 O 0.57592 0.28621 0.40945 0.0
H261 H 0.43923 0.34799 0.3898 0.0
H262 H 0.49011 0.27967 0.46592 0.0
H263 H 0.44085 0.26617 0.44394 0.0
H264 H 0.41507 0.30048 0.40561 0.0
H265 H 0.48864 0.36048 0.41214 0.0
H266 H 0.46376 0.33839 0.55491 0.0
H267 H 0.49477 0.30603 0.59048 0.0
O268 O 0.54394 0.2886 0.45175 0.0
C269 C 0.59737 0.34325 0.46189 0.0
C270 C 0.5278 0.2986 0.55319 0.0
C271 C 0.48416 0.32885 0.54559 0.0
N272 N 0.51893 0.32252 0.50147 0.0
C273 C 0.53622 0.30486 0.52093 0.0
C274 C 0.49328 0.33462 0.51344 0.0
C275 C 0.50156 0.31068 0.56553 0.0
C276 C 0.56191 0.38038 0.35902 0.0
N277 N 0.58522 0.36692 0.37451 0.0
C278 C 0.56454 0.40938 0.34716 0.0
C279 C 0.59125 0.4246 0.35129 0.0
C280 C 0.61492 0.41072 0.36715 0.0
C281 C 0.61147 0.38172 0.37871 0.0
C282 C 0.64856 0.3113 0.32369 0.0
C283 C 0.63754 0.2988 0.38909 0.0
C284 C 0.62235 0.32063 0.33886 0.0
N285 N 0.6172 0.31447 0.37121 0.0
C286 C 0.66399 0.2891 0.37474 0.0
C287 C 0.6695 0.29545 0.34182 0.0
C288 C 0.56154 0.27427 0.43295 0.0
C289 C 0.45022 0.33289 0.40653 0.0
C290 C 0.47906 0.29467 0.44918 0.0
C291 C 0.45115 0.28694 0.43687 0.0
C292 C 0.43669 0.30621 0.41538 0.0
N293 N 0.49217 0.32088 0.44039 0.0
C294 C 0.47813 0.3399 0.41935 0.0
Co295 Co 0.16401 0.58377 0.39348 0.0
Co296 Co 0.15977 0.53509 0.45895 0.0
O297 O 0.1515 0.54652 0.41365 0.0
C298 C 0.19197 0.53734 0.35274 0.0
O299 O 0.19876 0.52341 0.38004 0.0
C300 C 0.09499 0.53843 0.45593 0.0
O301 O 0.09888 0.56357 0.44026 0.0
O302 O 0.14886 0.57527 0.47576 0.0
O303 O 0.15109 0.60654 0.43279 0.0
H304 H 0.20442 0.54673 0.57125 0.0
H305 H 0.12384 0.54323 0.35713 0.0
O306 O 0.17752 0.56165 0.35372 0.0
H307 H 0.06818 0.637 0.36897 0.0
H308 H 0.17537 0.6552 0.29924 0.0
H309 H 0.19591 0.63753 0.41651 0.0
H310 H 0.11906 0.63238 0.39088 0.0
H311 H 0.15911 0.60877 0.32595 0.0
O312 O 0.11725 0.52267 0.46437 0.0
H313 H 0.194 0.5613 0.51403 0.0
H314 H 0.1419 0.48359 0.5004 0.0
H315 H 0.21234 0.68438 0.39089 0.0
H316 H 0.07309 0.54696 0.33458 0.0
H317 H 0.2021 0.69344 0.33182 0.0
H318 H 0.04489 0.59409 0.34053 0.0
O319 O 0.20457 0.58024 0.41236 0.0
H320 H 0.14454 0.44233 0.39249 0.0
H321 H 0.21115 0.49438 0.4695 0.0
H322 H 0.22543 0.44508 0.44827 0.0
H323 H 0.19198 0.41871 0.4095 0.0
H324 H 0.13127 0.4918 0.41409 0.0
H325 H 0.1515 0.46832 0.55759 0.0
H326 H 0.18308 0.49994 0.59337 0.0
O327 O 0.20201 0.54803 0.45446 0.0
C328 C 0.14634 0.60103 0.46302 0.0
C329 C 0.1907 0.53272 0.55587 0.0
C330 C 0.16097 0.48873 0.54821 0.0
N331 N 0.16758 0.52318 0.50384 0.0
C332 C 0.1848 0.5408 0.52342 0.0
C333 C 0.15555 0.49752 0.51589 0.0
C334 C 0.1787 0.50648 0.56828 0.0
C335 C 0.1118 0.5639 0.35952 0.0
N336 N 0.12445 0.58761 0.3751 0.0
C337 C 0.08304 0.56584 0.34683 0.0
C338 C 0.06721 0.59228 0.35022 0.0
C339 C 0.08026 0.61636 0.36618 0.0
C340 C 0.10906 0.6136 0.37858 0.0
C341 C 0.17991 0.65154 0.32502 0.0
C342 C 0.19116 0.64142 0.39087 0.0
C343 C 0.1708 0.62528 0.34025 0.0
N344 N 0.17634 0.62057 0.37282 0.0
C345 C 0.20062 0.66794 0.37646 0.0
C346 C 0.19489 0.67299 0.34331 0.0
C347 C 0.21634 0.56595 0.43605 0.0
C348 C 0.15927 0.45358 0.40942 0.0
C349 C 0.19654 0.48308 0.45255 0.0
C350 C 0.2047 0.45515 0.44068 0.0
C351 C 0.18591 0.44035 0.41894 0.0
N352 N 0.17037 0.49589 0.4431 0.0
C353 C 0.15182 0.48153 0.42182 0.0
Co354 Co 0.9255 0.16856 0.40018 0.0
Co355 Co 0.96748 0.1691 0.47133 0.0
O356 O 0.96151 0.15954 0.42498 0.0
C357 C 0.97261 0.20003 0.36338 0.0
O358 O 0.98325 0.20954 0.39148 0.0
C359 C 0.97139 0.10427 0.46762 0.0
O360 O 0.94945 0.10564 0.44651 0.0
O361 O 0.92689 0.15512 0.48334 0.0
O362 O 0.90004 0.15458 0.4369 0.0
H363 H 0.94057 0.21424 0.58012 0.0
H364 H 0.97228 0.13119 0.36982 0.0
O365 O 0.9501 0.18292 0.36275 0.0
H366 H 0.88264 0.06823 0.37286 0.0
H367 H 0.8629 0.17239 0.29784 0.0
H368 H 0.86759 0.19667 0.41574 0.0
H369 H 0.88105 0.11976 0.39338 0.0
H370 H 0.90757 0.16031 0.3303 0.0
O371 O 0.98239 0.12793 0.47974 0.0
H372 H 0.93311 0.20199 0.52168 0.0
H373 H 0.01545 0.15595 0.5196 0.0
H374 H 0.82238 0.20888 0.38431 0.0
H375 H 0.97479 0.07985 0.34879 0.0
H376 H 0.81985 0.19674 0.3249 0.0
H377 H 0.92977 0.04796 0.35038 0.0
O378 O 0.92408 0.20968 0.41811 0.0
H379 H 0.06728 0.16046 0.41699 0.0
H380 H 0.00298 0.22345 0.48597 0.0
H381 H 0.05296 0.24125 0.47073 0.0
H382 H 0.0855 0.20961 0.43603 0.0
H383 H 0.01702 0.14367 0.43258 0.0
H384 H 0.02367 0.16742 0.57812 0.0
H385 H 0.98611 0.19689 0.60872 0.0
O386 O 0.95202 0.21003 0.46393 0.0
C387 C 0.90282 0.15051 0.46767 0.0
C388 C 0.95714 0.20147 0.56702 0.0
C389 C 0.00376 0.17515 0.56591 0.0
N390 N 0.97394 0.1785 0.51721 0.0
C391 C 0.95308 0.19455 0.53391 0.0
C392 C 0.99896 0.16867 0.53281 0.0
C393 C 0.98268 0.1917 0.58307 0.0
C394 C 0.95251 0.11755 0.37023 0.0
N395 N 0.92652 0.1285 0.38265 0.0
C396 C 0.9541 0.08846 0.35844 0.0
C397 C 0.92884 0.07057 0.35939 0.0
C398 C 0.9024 0.08192 0.37202 0.0
C399 C 0.90165 0.1111 0.38364 0.0
C400 C 0.8637 0.17771 0.32373 0.0
C401 C 0.86655 0.19109 0.38997 0.0
C402 C 0.88895 0.17097 0.34222 0.0
N403 N 0.89006 0.17753 0.37496 0.0
C404 C 0.84094 0.19816 0.37227 0.0
C405 C 0.83955 0.19137 0.33893 0.0
C406 C 0.93521 0.22278 0.44302 0.0
C407 C 0.05333 0.17442 0.43216 0.0
C408 C 0.01697 0.20964 0.47075 0.0
C409 C 0.04527 0.21979 0.46227 0.0
C410 C 0.06352 0.20202 0.44283 0.0
N411 N 0.00715 0.18253 0.46022 0.0
C412 C 0.0249 0.16499 0.44115 0.0
Co413 Co 0.32888 0.91415 0.39138 0.0
Co414 Co 0.33494 0.96326 0.45622 0.0
O415 O 0.34278 0.95108 0.41108 0.0
C416 C 0.30324 0.96119 0.34971 0.0
O417 O 0.29675 0.97564 0.37676 0.0
C418 C 0.39963 0.95834 0.45308 0.0
O419 O 0.39515 0.93282 0.43837 0.0
O420 O 0.34492 0.92305 0.47357 0.0
O421 O 0.34051 0.89137 0.43119 0.0
H422 H 0.29073 0.95416 0.56903 0.0
H423 H 0.37105 0.95242 0.35478 0.0
O424 O 0.31664 0.9363 0.35114 0.0
H425 H 0.42251 0.85652 0.36874 0.0
H426 H 0.3152 0.84194 0.29823 0.0
H427 H 0.29439 0.86221 0.41493 0.0
H428 H 0.37171 0.86363 0.39005 0.0
H429 H 0.33329 0.88798 0.32433 0.0
O430 O 0.37774 0.97477 0.46113 0.0
H431 H 0.30046 0.93858 0.512 0.0
H432 H 0.35421 0.01489 0.49668 0.0
H433 H 0.2761 0.81579 0.38992 0.0
H434 H 0.42176 0.94618 0.3328 0.0
H435 H 0.28647 0.80542 0.33114 0.0
H436 H 0.44785 0.89798 0.33981 0.0
O437 O 0.28841 0.91964 0.40977 0.0
H438 H 0.35197 0.05481 0.38825 0.0
H439 H 0.28448 0.00521 0.4663 0.0
H440 H 0.27121 0.05453 0.44434 0.0
H441 H 0.3051 0.07966 0.40504 0.0
H442 H 0.36425 0.00536 0.4106 0.0
H443 H 0.34533 0.03115 0.55368 0.0
H444 H 0.31327 0.00075 0.59022 0.0
O445 O 0.2924 0.95121 0.45229 0.0
C446 C 0.34593 0.89703 0.46124 0.0
C447 C 0.30467 0.96764 0.55332 0.0
C448 C 0.33534 0.01084 0.54471 0.0
N449 N 0.32766 0.97595 0.50097 0.0
C450 C 0.31017 0.95898 0.52097 0.0
C451 C 0.34034 0.00149 0.5125 0.0
C452 C 0.31734 0.99377 0.5652 0.0
C453 C 0.38216 0.93129 0.35763 0.0
N454 N 0.36838 0.90837 0.37347 0.0
C455 C 0.41091 0.92793 0.34526 0.0
C456 C 0.42555 0.90088 0.34924 0.0
C457 C 0.41136 0.87762 0.36548 0.0
C458 C 0.38261 0.88179 0.37754 0.0
C459 C 0.3106 0.84617 0.32388 0.0
C460 C 0.29921 0.85773 0.38941 0.0
C461 C 0.32075 0.87221 0.33878 0.0
N462 N 0.31513 0.87763 0.37119 0.0
C463 C 0.2887 0.83146 0.37535 0.0
C464 C 0.29449 0.82568 0.34236 0.0
C465 C 0.2773 0.93402 0.43377 0.0
C466 C 0.33706 0.04411 0.40541 0.0
C467 C 0.2993 0.01598 0.44914 0.0
C468 C 0.2917 0.04392 0.43684 0.0
C469 C 0.31074 0.05802 0.41481 0.0
N470 N 0.32516 0.00249 0.43981 0.0
C471 C 0.34395 0.01617 0.41824 0.0
Co472 Co 0.41962 0.82731 0.89116 0.0
Co473 Co 0.46885 0.83083 0.95616 0.0
O474 O 0.45696 0.83973 0.91116 0.0
C475 C 0.46596 0.80073 0.84919 0.0
O476 O 0.48029 0.79366 0.87614 0.0
C477 C 0.46523 0.89559 0.95431 0.0
O478 O 0.43987 0.8918 0.93905 0.0
O479 O 0.42881 0.84134 0.97367 0.0
O480 O 0.39715 0.83925 0.93104 0.0
H481 H 0.4585 0.78457 0.06782 0.0
H482 H 0.45943 0.86855 0.85526 0.0
O483 O 0.44143 0.81477 0.85081 0.0
H484 H 0.36532 0.92313 0.86972 0.0
H485 H 0.34726 0.81723 0.79759 0.0
H486 H 0.36634 0.79453 0.9141 0.0
H487 H 0.3706 0.87186 0.89028 0.0
H488 H 0.39386 0.83333 0.82408 0.0
O489 O 0.48119 0.87329 0.96214 0.0
H490 H 0.44331 0.79573 0.01097 0.0
H491 H 0.52071 0.84828 0.99727 0.0
H492 H 0.31934 0.77825 0.8887 0.0
H493 H 0.45502 0.9197 0.83404 0.0
H494 H 0.30956 0.78959 0.83001 0.0
H495 H 0.40772 0.94736 0.84132 0.0
O496 O 0.42368 0.78645 0.90903 0.0
H497 H 0.56093 0.84731 0.8889 0.0
H498 H 0.50976 0.77938 0.96522 0.0
H499 H 0.55888 0.76555 0.94313 0.0
H500 H 0.58481 0.79966 0.90471 0.0
H501 H 0.51165 0.86013 0.91135 0.0
H502 H 0.5366 0.83794 0.0541 0.0
H503 H 0.50544 0.80576 0.08973 0.0
O504 O 0.45594 0.78864 0.95112 0.0
C505 C 0.40289 0.84367 0.96128 0.0
C506 C 0.47231 0.79854 0.0525 0.0
C507 C 0.51612 0.82853 0.04482 0.0
N508 N 0.48125 0.82241 0.00076 0.0
C509 C 0.46388 0.80486 0.02026 0.0
C510 C 0.50699 0.83436 0.01269 0.0
C511 C 0.49864 0.81047 0.06479 0.0
C512 C 0.43868 0.88035 0.85821 0.0
N513 N 0.41524 0.86718 0.87378 0.0
C514 C 0.43635 0.90934 0.84628 0.0
C515 C 0.40982 0.92487 0.85041 0.0
C516 C 0.38602 0.91129 0.86635 0.0
C517 C 0.38916 0.88227 0.87798 0.0
C518 C 0.35123 0.81222 0.8232 0.0
C519 C 0.36215 0.79975 0.88862 0.0
C520 C 0.37759 0.82122 0.8383 0.0
N521 N 0.3827 0.81508 0.87067 0.0
C522 C 0.33554 0.79038 0.87434 0.0
C523 C 0.33009 0.79672 0.84141 0.0
C524 C 0.43805 0.77446 0.93252 0.0
C525 C 0.54988 0.83229 0.90568 0.0
C526 C 0.52087 0.79429 0.94843 0.0
C527 C 0.54871 0.78637 0.93607 0.0
C528 C 0.56325 0.80553 0.91452 0.0
N529 N 0.50792 0.82057 0.93964 0.0
C530 C 0.52204 0.83948 0.91856 0.0
Co531 Co 0.66854 0.4155 0.89508 0.0
Co532 Co 0.66596 0.4634 0.96133 0.0
O533 O 0.6562 0.4523 0.9163 0.0
C534 C 0.69344 0.46285 0.8533 0.0
O535 O 0.70109 0.47673 0.88034 0.0
C536 C 0.60116 0.45997 0.96105 0.0
O537 O 0.60453 0.43454 0.9458 0.0
O538 O 0.65568 0.42308 0.97816 0.0
O539 O 0.65803 0.39217 0.93488 0.0
H540 H 0.71419 0.45105 0.07172 0.0
H541 H 0.62578 0.45534 0.86149 0.0
O542 O 0.67966 0.43817 0.8548 0.0
H543 H 0.57283 0.3603 0.87584 0.0
H544 H 0.67687 0.34487 0.79973 0.0
H545 H 0.70283 0.36242 0.9157 0.0
H546 H 0.62461 0.36591 0.89469 0.0
H547 H 0.66087 0.39075 0.82774 0.0
O548 O 0.62367 0.47581 0.96841 0.0
H549 H 0.70191 0.43682 0.01485 0.0
H550 H 0.64945 0.51462 0.00385 0.0
H551 H 0.71906 0.31612 0.88875 0.0
H552 H 0.57409 0.45062 0.84199 0.0
H553 H 0.70608 0.30712 0.83033 0.0
H554 H 0.54725 0.40285 0.84923 0.0
O555 O 0.70982 0.41981 0.91163 0.0
H556 H 0.64865 0.55667 0.89637 0.0
H557 H 0.71775 0.50395 0.97007 0.0
H558 H 0.73139 0.55338 0.94868 0.0
H559 H 0.69669 0.58008 0.91158 0.0
H560 H 0.63602 0.50708 0.91808 0.0
H561 H 0.66091 0.52955 0.06073 0.0
H562 H 0.69362 0.49772 0.09501 0.0
O563 O 0.708 0.45045 0.95515 0.0
C564 C 0.65377 0.39732 0.96527 0.0
C565 C 0.69999 0.46516 0.05699 0.0
C566 C 0.67005 0.5092 0.05084 0.0
N567 N 0.6752 0.47501 0.00599 0.0
C568 C 0.69303 0.45726 0.02475 0.0
C569 C 0.66359 0.5006 0.01869 0.0
C570 C 0.68842 0.49133 0.07006 0.0
C571 C 0.61434 0.4344 0.86441 0.0
N572 N 0.62825 0.41088 0.879 0.0
C573 C 0.58504 0.43189 0.85345 0.0
C574 C 0.56997 0.40509 0.85756 0.0
C575 C 0.58431 0.38121 0.8725 0.0
C576 C 0.61361 0.38454 0.88317 0.0
C577 C 0.68259 0.3485 0.82521 0.0
C578 C 0.69689 0.35855 0.89035 0.0
C579 C 0.67364 0.37445 0.84118 0.0
N580 N 0.68068 0.37912 0.8734 0.0
C581 C 0.70623 0.33234 0.87519 0.0
C582 C 0.69898 0.32732 0.8424 0.0
C583 C 0.72206 0.43341 0.93551 0.0
C584 C 0.66392 0.54528 0.91258 0.0
C585 C 0.70258 0.5154 0.95386 0.0
C586 C 0.71039 0.54341 0.94189 0.0
C587 C 0.6909 0.55839 0.92109 0.0
N588 N 0.67607 0.50271 0.94541 0.0
C589 C 0.65683 0.51726 0.92505 0.0
Co590 Co 0.0739 0.66392 0.89716 0.0
Co591 Co 0.03177 0.66553 0.96819 0.0
O592 O 0.03769 0.65562 0.92193 0.0
C593 C 0.02733 0.69617 0.86045 0.0
O594 O 0.01661 0.70531 0.88867 0.0
C595 C 0.0269 0.60072 0.9649 0.0
O596 O 0.04882 0.60166 0.94374 0.0
O597 O 0.07217 0.65112 0.98038 0.0
O598 O 0.099 0.64948 0.93396 0.0
H599 H 0.05913 0.71093 0.07671 0.0
H600 H 0.0264 0.62752 0.86674 0.0
O601 O 0.04966 0.67883 0.85967 0.0
H602 H 0.11466 0.56267 0.87008 0.0
H603 H 0.13676 0.66619 0.79497 0.0
H604 H 0.13232 0.69094 0.91276 0.0
H605 H 0.11731 0.61418 0.89052 0.0
H606 H 0.09179 0.65514 0.82735 0.0
O607 O 0.01628 0.62461 0.97689 0.0
H608 H 0.06651 0.69823 0.01838 0.0
H609 H 0.98353 0.65333 0.01645 0.0
H610 H 0.17785 0.70211 0.88141 0.0
H611 H 0.02283 0.57621 0.84579 0.0
H612 H 0.18026 0.68973 0.82205 0.0
H613 H 0.06715 0.54338 0.84754 0.0
O614 O 0.07615 0.70502 0.91505 0.0
H615 H 0.93196 0.65789 0.91368 0.0
H616 H 0.99698 0.72044 0.98233 0.0
H617 H 0.94731 0.73883 0.9668 0.0
H618 H 0.9144 0.70743 0.93227 0.0
H619 H 0.98194 0.64051 0.92954 0.0
H620 H 0.97537 0.66526 0.07487 0.0
H621 H 0.01329 0.69438 0.10534 0.0
O622 O 0.04779 0.70619 0.96053 0.0
C623 C 0.09614 0.64586 0.96479 0.0
C624 C 0.0424 0.69831 0.06367 0.0
C625 C 0.99541 0.67264 0.06265 0.0
N626 N 0.02536 0.67528 0.01399 0.0
C627 C 0.04641 0.69114 0.03062 0.0
C628 C 0.00017 0.6659 0.02961 0.0
C629 C 0.01669 0.68899 0.07973 0.0
C630 C 0.04586 0.61346 0.86722 0.0
N631 N 0.07206 0.62387 0.87967 0.0
C632 C 0.04367 0.58439 0.85547 0.0
C633 C 0.06854 0.56597 0.8565 0.0
C634 C 0.0952 0.57677 0.86917 0.0
C635 C 0.09655 0.60595 0.88075 0.0
C636 C 0.13602 0.67161 0.82083 0.0
C637 C 0.1333 0.68526 0.88701 0.0
C638 C 0.1106 0.66545 0.83928 0.0
N639 N 0.10955 0.67213 0.87199 0.0
C640 C 0.15909 0.69174 0.86935 0.0
C641 C 0.16041 0.68482 0.83604 0.0
C642 C 0.06505 0.71849 0.93974 0.0
C643 C 0.94607 0.67176 0.92878 0.0
C644 C 0.98284 0.70672 0.96719 0.0
C645 C 0.9547 0.71721 0.95855 0.0
C646 C 0.93624 0.69957 0.93919 0.0
N647 N 0.99229 0.67941 0.95691 0.0
C648 C 0.97434 0.66199 0.93793 0.0
Co649 Co 0.83414 0.0825 0.89084 0.0
Co650 Co 0.83907 0.03306 0.95554 0.0
O651 O 0.8465 0.04486 0.91018 0.0
C652 C 0.80468 0.03685 0.85033 0.0
O653 O 0.7982 0.02282 0.87764 0.0
C654 C 0.90379 0.03538 0.95071 0.0
O655 O 0.89996 0.06071 0.93541 0.0
O656 O 0.851 0.07288 0.97256 0.0
O657 O 0.84827 0.10466 0.93009 0.0
H658 H 0.79724 0.04421 0.06922 0.0
H659 H 0.87287 0.04176 0.8529 0.0
O660 O 0.81943 0.06099 0.85118 0.0
H661 H 0.93019 0.13456 0.86435 0.0
H662 H 0.82184 0.1551 0.79784 0.0
H663 H 0.80361 0.13651 0.9154 0.0
H664 H 0.87976 0.13046 0.88763 0.0
H665 H 0.83793 0.10813 0.8235 0.0
O666 O 0.88147 0.01991 0.95962 0.0
H667 H 0.80655 0.05921 0.0119 0.0
H668 H 0.85701 0.98082 0.99579 0.0
H669 H 0.7874 0.18389 0.89083 0.0
H670 H 0.92313 0.04498 0.82898 0.0
H671 H 0.79648 0.19341 0.83161 0.0
H672 H 0.95217 0.09162 0.83473 0.0
O673 O 0.79396 0.07939 0.91077 0.0
H674 H 0.85122 0.94086 0.88739 0.0
H675 H 0.78729 0.99305 0.967 0.0
H676 H 0.7717 0.94425 0.94549 0.0
H677 H 0.80379 0.91781 0.90541 0.0
H678 H 0.86581 0.98984 0.90931 0.0
H679 H 0.8485 0.96509 0.05305 0.0
H680 H 0.8183 0.99684 0.09013 0.0
O681 O 0.79695 0.04671 0.9524 0.0
C682 C 0.85363 0.09874 0.96009 0.0
C683 C 0.81035 0.03014 0.05327 0.0
C684 C 0.83915 0.98575 0.0442 0.0
N685 N 0.83208 0.02078 0.00048 0.0
C686 C 0.81562 0.03847 0.02077 0.0
C687 C 0.84395 0.9948 0.01184 0.0
C688 C 0.8222 0.00357 0.06499 0.0
C689 C 0.88526 0.06222 0.85521 0.0
N690 N 0.87333 0.08594 0.87144 0.0
C691 C 0.91375 0.06387 0.84174 0.0
C692 C 0.93005 0.09004 0.84502 0.0
C693 C 0.91774 0.11413 0.86164 0.0
C694 C 0.8892 0.11166 0.87482 0.0
C695 C 0.81782 0.15124 0.82368 0.0
C696 C 0.80786 0.1406 0.88968 0.0
C697 C 0.82683 0.12467 0.83833 0.0
N698 N 0.82193 0.11971 0.87098 0.0
C699 C 0.79853 0.16742 0.87588 0.0
C700 C 0.8036 0.17273 0.84265 0.0
C701 C 0.7825 0.06505 0.93461 0.0
C702 C 0.83707 0.95213 0.90489 0.0
C703 C 0.80132 0.98172 0.94948 0.0
C704 C 0.79241 0.95407 0.93745 0.0
C705 C 0.81044 0.93923 0.91498 0.0
N706 N 0.82747 0.99421 0.93947 0.0
C707 C 0.84528 0.97981 0.91747 0.0
Co708 Co 0.42695 0.66063 0.60345 0.0
Co709 Co 0.46865 0.66151 0.53209 0.0
O710 O 0.46326 0.65265 0.5787 0.0
C711 C 0.47286 0.69446 0.6395 0.0
O712 O 0.48305 0.70389 0.61116 0.0
C713 C 0.47605 0.59711 0.5374 0.0
O714 O 0.45408 0.59778 0.55851 0.0
O715 O 0.42888 0.64508 0.52063 0.0
O716 O 0.40194 0.64516 0.56703 0.0
H717 H 0.43915 0.7027 0.42221 0.0
H718 H 0.47518 0.62558 0.6344 0.0
O719 O 0.45104 0.67649 0.64055 0.0
H720 H 0.38811 0.55908 0.63254 0.0
H721 H 0.36432 0.66326 0.7058 0.0
H722 H 0.36814 0.68666 0.58765 0.0
H723 H 0.38447 0.61021 0.61114 0.0
H724 H 0.40937 0.65245 0.67344 0.0
O725 O 0.48581 0.62106 0.5247 0.0
H726 H 0.43241 0.69127 0.48095 0.0
H727 H 0.51726 0.65007 0.48406 0.0
H728 H 0.32254 0.69757 0.61898 0.0
H729 H 0.47973 0.57469 0.65631 0.0
H730 H 0.32045 0.68587 0.67852 0.0
H731 H 0.43601 0.54102 0.65532 0.0
O732 O 0.42393 0.7014 0.58482 0.0
H733 H 0.56887 0.6596 0.58628 0.0
H734 H 0.50099 0.71751 0.51606 0.0
H735 H 0.54989 0.7384 0.53072 0.0
H736 H 0.58423 0.70934 0.56604 0.0
H737 H 0.51962 0.63969 0.57124 0.0
H738 H 0.52479 0.66076 0.42525 0.0
H739 H 0.48561 0.68739 0.39397 0.0
O740 O 0.45094 0.70168 0.53837 0.0
C741 C 0.40496 0.64015 0.53645 0.0
C742 C 0.45642 0.69117 0.4356 0.0
C743 C 0.50448 0.6676 0.43729 0.0
N744 N 0.47453 0.67025 0.48595 0.0
C745 C 0.45278 0.68472 0.46888 0.0
C746 C 0.50007 0.66154 0.47056 0.0
C747 C 0.48249 0.68255 0.41976 0.0
C748 C 0.45597 0.61117 0.63424 0.0
N749 N 0.42956 0.6209 0.62165 0.0
C750 C 0.45871 0.58234 0.64654 0.0
C751 C 0.43419 0.56344 0.64592 0.0
C752 C 0.40731 0.57355 0.63312 0.0
C753 C 0.4054 0.60251 0.62099 0.0
C754 C 0.36492 0.66837 0.67985 0.0
C755 C 0.36729 0.68124 0.61347 0.0
C756 C 0.39038 0.66233 0.66141 0.0
N757 N 0.39124 0.6686 0.6286 0.0
C758 C 0.34145 0.68759 0.63112 0.0
C759 C 0.34031 0.68105 0.66453 0.0
C760 C 0.43397 0.7143 0.55924 0.0
C761 C 0.55413 0.67245 0.57082 0.0
C762 C 0.51576 0.70479 0.53153 0.0
C763 C 0.54345 0.7167 0.53968 0.0
C764 C 0.56272 0.70037 0.55948 0.0
N765 N 0.50752 0.67738 0.54272 0.0
C766 C 0.52628 0.66124 0.56213 0.0
Co767 Co 0.83077 0.43014 0.6051 0.0
Co768 Co 0.82912 0.47252 0.53426 0.0
O769 O 0.83817 0.46678 0.58078 0.0
C770 C 0.79636 0.4751 0.64198 0.0
O771 O 0.78649 0.4854 0.61387 0.0
C772 C 0.8935 0.48034 0.53944 0.0
O773 O 0.89297 0.45822 0.56036 0.0
O774 O 0.84584 0.43304 0.52222 0.0
O775 O 0.84642 0.40572 0.56833 0.0
H776 H 0.78795 0.44373 0.42413 0.0
H777 H 0.86528 0.47849 0.63656 0.0
O778 O 0.81473 0.45361 0.64257 0.0
H779 H 0.93291 0.39234 0.63336 0.0
H780 H 0.8293 0.36643 0.70666 0.0
H781 H 0.80549 0.37114 0.58865 0.0
H782 H 0.88177 0.38826 0.61207 0.0
H783 H 0.83939 0.41195 0.67485 0.0
O784 O 0.86946 0.49008 0.52692 0.0
H785 H 0.79953 0.43654 0.48278 0.0
H786 H 0.84002 0.52169 0.4868 0.0
H787 H 0.7953 0.32508 0.61943 0.0
H788 H 0.91617 0.48347 0.65839 0.0
H789 H 0.80722 0.32253 0.6789 0.0
H790 H 0.95041 0.44022 0.65672 0.0
O791 O 0.79001 0.42675 0.58654 0.0
H792 H 0.83035 0.57226 0.5895 0.0
H793 H 0.77273 0.50441 0.51894 0.0
H794 H 0.75145 0.55298 0.53422 0.0
H795 H 0.78036 0.58731 0.56971 0.0
H796 H 0.85065 0.52334 0.57384 0.0
H797 H 0.82918 0.52968 0.42809 0.0
H798 H 0.80284 0.49057 0.39641 0.0
O799 O 0.78914 0.45431 0.54048 0.0
C800 C 0.85113 0.40904 0.53773 0.0
C801 C 0.79935 0.46097 0.4377 0.0
C802 C 0.82252 0.5092 0.43992 0.0
N803 N 0.8202 0.47878 0.48823 0.0
C804 C 0.80587 0.45707 0.47093 0.0
C805 C 0.82866 0.50453 0.47312 0.0
C806 C 0.80774 0.48725 0.42215 0.0
C807 C 0.87994 0.45948 0.63611 0.0
N808 N 0.87052 0.43309 0.62321 0.0
C809 C 0.90877 0.46247 0.64836 0.0
C810 C 0.92799 0.4382 0.64737 0.0
C811 C 0.91819 0.41134 0.63424 0.0
C812 C 0.88923 0.40918 0.62217 0.0
C813 C 0.8241 0.36723 0.68074 0.0
C814 C 0.81099 0.3701 0.61444 0.0
C815 C 0.82973 0.39295 0.66261 0.0
N816 N 0.82335 0.39407 0.62983 0.0
C817 C 0.80506 0.344 0.63178 0.0
C818 C 0.81172 0.3426 0.66515 0.0
C819 C 0.77688 0.43685 0.56112 0.0
C820 C 0.81757 0.55753 0.57397 0.0
C821 C 0.78539 0.51918 0.53448 0.0
C822 C 0.77326 0.54669 0.54299 0.0
C823 C 0.7895 0.56594 0.56288 0.0
N824 N 0.81294 0.51113 0.54541 0.0
C825 C 0.829 0.52986 0.56493 0.0
Co826 Co 0.07962 0.83556 0.61228 0.0
Co827 Co 0.03078 0.83848 0.54686 0.0
O828 O 0.04192 0.84683 0.59223 0.0
C829 C 0.03413 0.80595 0.65281 0.0
O830 O 0.02043 0.79894 0.62545 0.0
C831 C 0.03141 0.90321 0.55065 0.0
O832 O 0.05669 0.90016 0.56627 0.0
O833 O 0.0704 0.85129 0.53016 0.0
O834 O 0.10191 0.84939 0.57296 0.0
H835 H 0.04421 0.79552 0.43401 0.0
H836 H 0.03778 0.87416 0.6489 0.0
O837 O 0.05801 0.82113 0.65199 0.0
H838 H 0.12957 0.93306 0.63713 0.0
H839 H 0.1516 0.82643 0.7063 0.0
H840 H 0.13428 0.80534 0.58909 0.0
H841 H 0.12666 0.88214 0.61498 0.0
H842 H 0.1046 0.84121 0.67975 0.0
O843 O 0.01652 0.88044 0.54196 0.0
H844 H 0.0584 0.80602 0.49132 0.0
H845 H 0.97846 0.85442 0.50572 0.0
H846 H 0.18171 0.79042 0.61455 0.0
H847 H 0.03981 0.92491 0.67168 0.0
H848 H 0.1906 0.80096 0.67359 0.0
H849 H 0.08594 0.95474 0.66576 0.0
O850 O 0.07745 0.795 0.59324 0.0
H851 H 0.93751 0.84896 0.61358 0.0
H852 H 0.99242 0.78539 0.53587 0.0
H853 H 0.94385 0.76872 0.55704 0.0
H854 H 0.91604 0.80062 0.59616 0.0
H855 H 0.98629 0.86464 0.59203 0.0
H856 H 0.96352 0.8447 0.44843 0.0
H857 H 0.99646 0.81494 0.41222 0.0
O858 O 0.0456 0.79682 0.55079 0.0
C859 C 0.09611 0.85443 0.54286 0.0
C860 C 0.02963 0.80844 0.44957 0.0
C861 C 0.98435 0.83607 0.45766 0.0
N862 N 0.01915 0.83058 0.50189 0.0
C863 C 0.0375 0.81437 0.48208 0.0
C864 C 0.99295 0.84156 0.49004 0.0
C865 C 0.00284 0.81936 0.43736 0.0
C866 C 0.05802 0.88691 0.64653 0.0
N867 N 0.08213 0.87515 0.63083 0.0
C868 C 0.059 0.91567 0.65935 0.0
C869 C 0.08488 0.93241 0.65598 0.0
C870 C 0.10936 0.92027 0.6399 0.0
C871 C 0.10757 0.89144 0.62737 0.0
C872 C 0.14803 0.8218 0.68054 0.0
C873 C 0.1381 0.81024 0.61471 0.0
C874 C 0.12145 0.83007 0.66539 0.0
N875 N 0.11685 0.82441 0.63282 0.0
C876 C 0.16495 0.80163 0.62903 0.0
C877 C 0.1699 0.80751 0.66217 0.0
C878 C 0.06387 0.78296 0.56922 0.0
C879 C 0.94938 0.83489 0.59649 0.0
C880 C 0.98049 0.79935 0.55296 0.0
C881 C 0.95297 0.78983 0.5648 0.0
C882 C 0.93737 0.80775 0.58674 0.0
N883 N 0.99211 0.82601 0.56264 0.0
C884 C 0.97694 0.84371 0.58411 0.0
Co885 Co 0.66168 0.07063 0.60275 0.0
Co886 Co 0.66453 0.02646 0.53325 0.0
O887 O 0.65487 0.0333 0.57945 0.0
C888 C 0.69599 0.02677 0.64119 0.0
O889 O 0.70562 0.01561 0.61338 0.0
C890 C 0.60019 0.01789 0.5377 0.0
O891 O 0.60011 0.0404 0.55811 0.0
O892 O 0.6474 0.06543 0.51981 0.0
O893 O 0.64612 0.09392 0.56506 0.0
H894 H 0.70677 0.05299 0.42293 0.0
H895 H 0.62738 0.02273 0.6353 0.0
O896 O 0.67766 0.0483 0.64113 0.0
H897 H 0.55881 0.10796 0.62846 0.0
H898 H 0.66127 0.13694 0.70228 0.0
H899 H 0.68656 0.12943 0.58483 0.0
H900 H 0.61015 0.11209 0.60776 0.0
H901 H 0.65206 0.09051 0.67178 0.0
O902 O 0.62453 0.00824 0.52583 0.0
H903 H 0.69433 0.0615 0.48115 0.0
H904 H 0.65479 0.976 0.48713 0.0
H905 H 0.69588 0.17639 0.61427 0.0
H906 H 0.5763 0.01771 0.65657 0.0
H907 H 0.68321 0.18035 0.67345 0.0
H908 H 0.54159 0.06049 0.65306 0.0
O909 O 0.70261 0.07398 0.58461 0.0
H910 H 0.66381 0.92828 0.59181 0.0
H911 H 0.72133 0.99466 0.51947 0.0
H912 H 0.74298 0.94679 0.53667 0.0
H913 H 0.71412 0.91321 0.57307 0.0
H914 H 0.64315 0.97652 0.57424 0.0
H915 H 0.66651 0.96667 0.42888 0.0
H916 H 0.69282 0.00528 0.39643 0.0
O917 O 0.70429 0.04519 0.53951 0.0
C918 C 0.64163 0.08971 0.53456 0.0
C919 C 0.69539 0.03595 0.43684 0.0
C920 C 0.67276 0.98752 0.44017 0.0
N921 N 0.67408 0.01917 0.48756 0.0
C922 C 0.68838 0.04061 0.46983 0.0
C923 C 0.66612 0.99295 0.47311 0.0
C924 C 0.68753 0.00919 0.42198 0.0
C925 C 0.61251 0.04155 0.63406 0.0
N926 N 0.62178 0.0677 0.62046 0.0
C927 C 0.58357 0.03853 0.64599 0.0
C928 C 0.5641 0.06253 0.64397 0.0
C929 C 0.57374 0.08916 0.63014 0.0
C930 C 0.60281 0.09136 0.61841 0.0
C931 C 0.66679 0.13553 0.67647 0.0
C932 C 0.68073 0.13109 0.61049 0.0
C933 C 0.66166 0.10928 0.65909 0.0
N934 N 0.66845 0.10739 0.62645 0.0
C935 C 0.68617 0.15769 0.62707 0.0
C936 C 0.6791 0.15988 0.66028 0.0
C937 C 0.71615 0.06323 0.5598 0.0
C938 C 0.67658 0.9427 0.5759 0.0
C939 C 0.7087 0.98023 0.53542 0.0
C940 C 0.72104 0.95311 0.545 0.0
C941 C 0.70483 0.93427 0.56541 0.0
N942 N 0.68099 0.98832 0.54581 0.0
C943 C 0.66495 0.96997 0.56579 0.0
C944 C 0.6014 0.25582 0.07065 0.0
C945 C 0.57653 0.24414 0.05432 0.0
C946 C 0.61417 0.2828 0.06072 0.0
C947 C 0.60159 0.29855 0.03407 0.0
C948 C 0.57533 0.28791 0.019 0.0
C949 C 0.56319 0.26078 0.0292 0.0
C950 C 0.64219 0.29345 0.07735 0.0
C951 C 0.56101 0.30429 0.99077 0.0
C952 C 0.62464 0.37739 0.01267 0.0
C953 C 0.64336 0.37235 0.98572 0.0
C954 C 0.6115 0.35354 0.02949 0.0
C955 C 0.61761 0.32409 0.0193 0.0
C956 C 0.63767 0.31893 0.99315 0.0
C957 C 0.65012 0.34313 0.97654 0.0
C958 C 0.58996 0.35989 0.05701 0.0
C959 C 0.64507 0.28784 0.98179 0.0
H960 H 0.61183 0.24322 0.09017 0.0
H961 H 0.54379 0.25215 0.01667 0.0
H962 H 0.66125 0.29091 0.06031 0.0
H963 H 0.64044 0.31737 0.08359 0.0
H964 H 0.64707 0.28075 0.10011 0.0
H965 H 0.53895 0.29491 0.98425 0.0
H966 H 0.55822 0.32815 0.99688 0.0
H967 H 0.57559 0.30297 0.96886 0.0
H968 H 0.61913 0.39998 0.01964 0.0
H969 H 0.66475 0.33914 0.95587 0.0
H970 H 0.59517 0.34603 0.07877 0.0
H971 H 0.56712 0.35408 0.04902 0.0
H972 H 0.59022 0.38365 0.06439 0.0
H973 H 0.65249 0.27409 0.00284 0.0
H974 H 0.66274 0.28764 0.96275 0.0
H975 H 0.62491 0.27719 0.97143 0.0
C976 C 0.11826 0.61948 0.01313 0.0
C977 C 0.122 0.63423 0.98308 0.0
C978 C 0.14269 0.60707 0.02966 0.0
C979 C 0.17147 0.61001 0.01603 0.0
C980 C 0.17542 0.62553 0.98614 0.0
C981 C 0.15062 0.6372 0.96991 0.0
C982 C 0.13763 0.59023 0.0612 0.0
C983 C 0.20583 0.62955 0.97104 0.0
C984 C 0.24187 0.60125 0.06608 0.0
C985 C 0.25254 0.57389 0.05451 0.0
C986 C 0.2147 0.61274 0.05496 0.0
C987 C 0.19762 0.59622 0.03221 0.0
C988 C 0.20734 0.56773 0.02216 0.0
C989 C 0.23481 0.55702 0.03321 0.0
C990 C 0.20525 0.64335 0.06594 0.0
C991 C 0.18947 0.54921 0.99837 0.0
H992 H 0.09614 0.61694 0.02331 0.0
H993 H 0.15373 0.64872 0.94681 0.0
H994 H 0.14436 0.5667 0.05793 0.0
H995 H 0.15161 0.59959 0.08108 0.0
H996 H 0.11402 0.59083 0.06912 0.0
H997 H 0.20521 0.64345 0.94852 0.0
H998 H 0.22109 0.6401 0.98898 0.0
H999 H 0.21535 0.60757 0.9646 0.0
H1000 H 0.25542 0.61444 0.08254 0.0
H1001 H 0.24273 0.53571 0.02446 0.0
H1002 H 0.18176 0.64318 0.07417 0.0
H1003 H 0.20682 0.65898 0.04494 0.0
H1004 H 0.21934 0.65195 0.08623 0.0
H1005 H 0.16586 0.5482 0.00612 0.0
H1006 H 0.19818 0.52619 0.99625 0.0
H1007 H 0.19009 0.55964 0.97371 0.0
C1008 C 0.85983 0.15252 0.97255 0.0
C1009 C 0.86576 0.12286 0.98065 0.0
C1010 C 0.87274 0.17585 0.99021 0.0
C1011 C 0.89249 0.16937 0.01631 0.0
C1012 C 0.89838 0.13947 0.02487 0.0
C1013 C 0.88472 0.1165 0.00707 0.0
C1014 C 0.86557 0.20747 0.98059 0.0
C1015 C 0.91969 0.13176 0.05218 0.0
C1016 C 0.94385 0.23396 0.03386 0.0
C1017 C 0.92863 0.24841 0.05933 0.0
C1018 C 0.93349 0.20692 0.02112 0.0
C1019 C 0.90717 0.19422 0.03397 0.0
C1020 C 0.89292 0.20757 0.06116 0.0
C1021 C 0.90393 0.23442 0.07366 0.0
C1022 C 0.9496 0.19305 0.99245 0.0
C1023 C 0.86475 0.19476 0.07548 0.0
H1024 H 0.84512 0.15753 0.95223 0.0
H1025 H 0.88967 0.09357 0.01313 0.0
H1026 H 0.85684 0.21983 0.00209 0.0
H1027 H 0.88607 0.21896 0.97237 0.0
H1028 H 0.8489 0.20866 0.96051 0.0
H1029 H 0.92088 0.10745 0.05668 0.0
H1030 H 0.94226 0.13989 0.04591 0.0
H1031 H 0.91294 0.14298 0.07524 0.0
H1032 H 0.96314 0.24437 0.02284 0.0
H1033 H 0.89207 0.24522 0.0935 0.0
H1034 H 0.93621 0.19602 0.96981 0.0
H1035 H 0.95245 0.16882 0.99632 0.0
H1036 H 0.97179 0.20323 0.98841 0.0
H1037 H 0.84627 0.19774 0.05775 0.0
H1038 H 0.85847 0.20568 0.09893 0.0
H1039 H 0.86723 0.17057 0.07986 0.0
C1040 C 0.34899 0.84896 0.97345 0.0
C1041 C 0.37852 0.85491 0.98207 0.0
C1042 C 0.32541 0.86221 0.99039 0.0
C1043 C 0.33153 0.88224 0.01631 0.0
C1044 C 0.36128 0.88758 0.02593 0.0
C1045 C 0.3845 0.87367 0.00877 0.0
C1046 C 0.29395 0.85565 0.97963 0.0
C1047 C 0.36866 0.90907 0.05317 0.0
C1048 C 0.26944 0.93788 0.02685 0.0
C1049 C 0.2527 0.92476 0.05203 0.0
C1050 C 0.29635 0.92535 0.01651 0.0
C1051 C 0.30664 0.89893 0.03153 0.0
C1052 C 0.29093 0.8867 0.0584 0.0
C1053 C 0.26418 0.89986 0.06846 0.0
C1054 C 0.31272 0.93931 0.98806 0.0
C1055 C 0.30125 0.85856 0.07503 0.0
H1056 H 0.34427 0.83434 0.95297 0.0
H1057 H 0.40734 0.87857 0.0153 0.0
H1058 H 0.28035 0.84857 0.00095 0.0
H1059 H 0.28367 0.87608 0.96949 0.0
H1060 H 0.29296 0.838 0.9606 0.0
H1061 H 0.39248 0.90804 0.06024 0.0
H1062 H 0.36356 0.93204 0.04506 0.0
H1063 H 0.35487 0.90449 0.07516 0.0
H1064 H 0.26097 0.95733 0.01427 0.0
H1065 H 0.25153 0.88961 0.08806 0.0
H1066 H 0.31067 0.92485 0.96613 0.0
H1067 H 0.33673 0.94144 0.99375 0.0
H1068 H 0.30383 0.96163 0.98179 0.0
H1069 H 0.29795 0.83946 0.0582 0.0
H1070 H 0.28884 0.85412 0.09809 0.0
H1071 H 0.32531 0.8598 0.08073 0.0
C1072 C 0.59244 0.22851 0.4264 0.0
C1073 C 0.56802 0.24281 0.44092 0.0
C1074 C 0.60253 0.20103 0.4381 0.0
C1075 C 0.58756 0.1873 0.46459 0.0
C1076 C 0.56141 0.20034 0.47745 0.0
C1077 C 0.55204 0.22806 0.46561 0.0
C1078 C 0.63063 0.18797 0.42387 0.0
C1079 C 0.54451 0.18607 0.5053 0.0
C1080 C 0.60968 0.10875 0.48891 0.0
C1081 C 0.62843 0.11434 0.51569 0.0
C1082 C 0.59587 0.13224 0.47208 0.0
C1083 C 0.6016 0.16188 0.48187 0.0
C1084 C 0.62101 0.16756 0.50848 0.0
C1085 C 0.63389 0.14372 0.52529 0.0
C1086 C 0.57478 0.12538 0.44429 0.0
C1087 C 0.6282 0.19887 0.51929 0.0
H1088 H 0.60485 0.23953 0.40714 0.0
H1089 H 0.53293 0.23872 0.47672 0.0
H1090 H 0.64894 0.19026 0.44196 0.0
H1091 H 0.62779 0.16393 0.41883 0.0
H1092 H 0.63741 0.19926 0.4008 0.0
H1093 H 0.52233 0.1964 0.50894 0.0
H1094 H 0.54152 0.16195 0.50077 0.0
H1095 H 0.55737 0.18849 0.52839 0.0
H1096 H 0.60518 0.086 0.4817 0.0
H1097 H 0.64849 0.14812 0.54585 0.0
H1098 H 0.5823 0.13652 0.42147 0.0
H1099 H 0.55237 0.13421 0.45012 0.0
H1100 H 0.5729 0.10115 0.43954 0.0
H1101 H 0.63741 0.21172 0.49839 0.0
H1102 H 0.64451 0.19942 0.53976 0.0
H1103 H 0.60764 0.2103 0.52742 0.0
C1104 C 0.38327 0.611 0.48985 0.0
C1105 C 0.37926 0.62758 0.51867 0.0
C1106 C 0.35887 0.59841 0.47344 0.0
C1107 C 0.32985 0.60312 0.4858 0.0
C1108 C 0.32571 0.62011 0.51468 0.0
C1109 C 0.35047 0.63184 0.53093 0.0
C1110 C 0.36412 0.57989 0.4431 0.0
C1111 C 0.29508 0.62611 0.52836 0.0
C1112 C 0.26118 0.59853 0.43251 0.0
C1113 C 0.24765 0.5726 0.4445 0.0
C1114 C 0.28879 0.60798 0.44452 0.0
C1115 C 0.3035 0.59078 0.46862 0.0
C1116 C 0.29105 0.56346 0.47899 0.0
C1117 C 0.26312 0.55482 0.46703 0.0
C1118 C 0.30112 0.63744 0.43314 0.0
C1119 C 0.30641 0.5442 0.50414 0.0
H1120 H 0.40553 0.6074 0.48047 0.0
H1121 H 0.3472 0.64473 0.5531 0.0
H1122 H 0.35483 0.55729 0.4467 0.0
H1123 H 0.35242 0.58986 0.42183 0.0
H1124 H 0.3881 0.57789 0.43703 0.0
H1125 H 0.2957 0.64032 0.55064 0.0
H1126 H 0.28117 0.63726 0.50955 0.0
H1127 H 0.28401 0.60485 0.53471 0.0
H1128 H 0.24949 0.61242 0.41504 0.0
H1129 H 0.25301 0.53458 0.47617 0.0
H1130 H 0.32479 0.63516 0.42601 0.0
H1131 H 0.30009 0.65368 0.45361 0.0
H1132 H 0.28854 0.64664 0.41199 0.0
H1133 H 0.33027 0.54155 0.49797 0.0
H1134 H 0.29609 0.52184 0.50599 0.0
H1135 H 0.30515 0.55501 0.52857 0.0
C1136 C 0.88004 0.3881 0.49055 0.0
C1137 C 0.86391 0.38367 0.51961 0.0
C1138 C 0.89331 0.36406 0.47415 0.0
C1139 C 0.88983 0.335 0.48686 0.0
C1140 C 0.87301 0.3304 0.51577 0.0
C1141 C 0.86052 0.3548 0.53194 0.0
C1142 C 0.91156 0.3698 0.44373 0.0
C1143 C 0.86839 0.29967 0.52985 0.0
C1144 C 0.89985 0.26516 0.4364 0.0
C1145 C 0.92632 0.25383 0.44961 0.0
C1146 C 0.88845 0.29255 0.4469 0.0
C1147 C 0.90419 0.30917 0.47071 0.0
C1148 C 0.93206 0.29895 0.48217 0.0
C1149 C 0.94267 0.27126 0.4717 0.0
C1150 C 0.85851 0.30255 0.43436 0.0
C1151 C 0.94979 0.31634 0.50709 0.0
H1152 H 0.88291 0.41042 0.48107 0.0
H1153 H 0.84794 0.3512 0.55426 0.0
H1154 H 0.9349 0.36289 0.44806 0.0
H1155 H 0.90305 0.35634 0.42295 0.0
H1156 H 0.91138 0.39359 0.43648 0.0
H1157 H 0.8536 0.29982 0.55169 0.0
H1158 H 0.85855 0.28483 0.51102 0.0
H1159 H 0.89008 0.28998 0.5371 0.0
H1160 H 0.88709 0.25187 0.41927 0.0
H1161 H 0.96334 0.26285 0.48169 0.0
H1162 H 0.85922 0.32625 0.42695 0.0
H1163 H 0.84183 0.3005 0.45429 0.0
H1164 H 0.85089 0.28908 0.41311 0.0
H1165 H 0.95102 0.34011 0.50002 0.0
H1166 H 0.97274 0.30759 0.50985 0.0
H1167 H 0.9386 0.31515 0.53132 0.0
C1168 C 0.11377 0.88664 0.49687 0.0
C1169 C 0.12016 0.86672 0.52239 0.0
C1170 C 0.13674 0.90034 0.4791 0.0
C1171 C 0.16663 0.8934 0.48668 0.0
C1172 C 0.1731 0.87274 0.51191 0.0
C1173 C 0.14978 0.8599 0.52966 0.0
C1174 C 0.12906 0.92271 0.45284 0.0
C1175 C 0.2047 0.8644 0.52043 0.0
C1176 C 0.23078 0.9041 0.42801 0.0
C1177 C 0.24605 0.92776 0.44288 0.0
C1178 C 0.20375 0.89381 0.44076 0.0
C1179 C 0.1915 0.90777 0.46877 0.0
C1180 C 0.20544 0.93324 0.48214 0.0
C1181 C 0.23264 0.94287 0.46912 0.0
C1182 C 0.18961 0.86654 0.42586 0.0
C1183 C 0.19277 0.94904 0.51167 0.0
H1184 H 0.09085 0.89228 0.49153 0.0
H1185 H 0.15476 0.84445 0.54932 0.0
H1186 H 0.13848 0.9447 0.45939 0.0
H1187 H 0.1391 0.91605 0.4291 0.0
H1188 H 0.10468 0.92515 0.44948 0.0
H1189 H 0.20584 0.84719 0.53993 0.0
H1190 H 0.21632 0.85591 0.49832 0.0
H1191 H 0.21698 0.88433 0.52897 0.0
H1192 H 0.24074 0.89237 0.40755 0.0
H1193 H 0.24403 0.96139 0.48056 0.0
H1194 H 0.16542 0.86994 0.42234 0.0
H1195 H 0.19241 0.84745 0.44282 0.0
H1196 H 0.19972 0.86061 0.40186 0.0
H1197 H 0.16853 0.95263 0.50869 0.0
H1198 H 0.20366 0.97085 0.51597 0.0
H1199 H 0.19598 0.93508 0.53383 0.0
C1200 C 0.40529 0.72979 0.92844 0.0
C1201 C 0.43109 0.74321 0.94094 0.0
C1202 C 0.39499 0.70271 0.94102 0.0
C1203 C 0.41119 0.6884 0.96622 0.0
C1204 C 0.43857 0.70049 0.97692 0.0
C1205 C 0.44808 0.72791 0.96434 0.0
C1206 C 0.36552 0.69072 0.92919 0.0
C1207 C 0.45681 0.68553 0.00324 0.0
C1208 C 0.36734 0.64564 0.02987 0.0
C1209 C 0.37105 0.61621 0.01943 0.0
C1210 C 0.38009 0.66924 0.01252 0.0
C1211 C 0.39756 0.66325 0.98439 0.0
C1212 C 0.40163 0.63358 0.9738 0.0
C1213 C 0.38802 0.61036 0.99128 0.0
C1214 C 0.37476 0.70064 0.02429 0.0
C1215 C 0.42063 0.62637 0.94433 0.0
H1216 H 0.39203 0.74129 0.91024 0.0
H1217 H 0.46823 0.73789 0.97388 0.0
H1218 H 0.36722 0.66667 0.92361 0.0
H1219 H 0.34868 0.69334 0.94888 0.0
H1220 H 0.35744 0.7025 0.90694 0.0
H1221 H 0.47951 0.69509 0.00505 0.0
H1222 H 0.44566 0.68826 0.02733 0.0
H1223 H 0.45867 0.66134 0.99839 0.0
H1224 H 0.35416 0.65031 0.05152 0.0
H1225 H 0.39121 0.58759 0.98335 0.0
H1226 H 0.36459 0.71404 0.00438 0.0
H1227 H 0.39621 0.71128 0.03078 0.0
H1228 H 0.35995 0.70149 0.04608 0.0
H1229 H 0.41172 0.63763 0.92222 0.0
H1230 H 0.42175 0.60211 0.93945 0.0
H1231 H 0.44352 0.63482 0.94822 0.0
C1232 C 0.76813 0.44091 0.96893 0.0
C1233 C 0.75344 0.42627 0.94322 0.0
C1234 C 0.79537 0.43039 0.98093 0.0
C1235 C 0.80805 0.4045 0.96706 0.0
C1236 C 0.79457 0.39104 0.93945 0.0
C1237 C 0.7675 0.40221 0.92771 0.0
C1238 C 0.80937 0.44568 0.01007 0.0
C1239 C 0.8074 0.36339 0.92398 0.0
C1240 C 0.8856 0.3815 0.99393 0.0
C1241 C 0.87905 0.36206 0.01986 0.0
C1242 C 0.86275 0.39537 0.97615 0.0
C1243 C 0.83279 0.38922 0.98425 0.0
C1244 C 0.82614 0.36887 0.00972 0.0
C1245 C 0.84936 0.35574 0.02738 0.0
C1246 C 0.87064 0.41732 0.94953 0.0
C1247 C 0.79446 0.36139 0.01883 0.0
H1248 H 0.75769 0.45976 0.98083 0.0
H1249 H 0.75654 0.39084 0.90763 0.0
H1250 H 0.80635 0.43174 0.03228 0.0
H1251 H 0.8336 0.44854 0.00625 0.0
H1252 H 0.79929 0.4678 0.01483 0.0
H1253 H 0.79662 0.35805 0.90016 0.0
H1254 H 0.83164 0.3659 0.91995 0.0
H1255 H 0.80417 0.34428 0.94081 0.0
H1256 H 0.90857 0.38673 0.98834 0.0
H1257 H 0.84423 0.34065 0.04732 0.0
H1258 H 0.86311 0.43985 0.9568 0.0
H1259 H 0.85904 0.41157 0.92637 0.0
H1260 H 0.89494 0.41812 0.94477 0.0
H1261 H 0.78294 0.38162 0.02778 0.0
H1262 H 0.79316 0.3441 0.03824 0.0
H1263 H 0.78221 0.35337 0.99692 0.0
C1264 C 0.10129 0.76016 0.9333 0.0
C1265 C 0.07445 0.74941 0.9462 0.0
C1266 C 0.113 0.78748 0.94364 0.0
C1267 C 0.09721 0.80461 0.96696 0.0
C1268 C 0.06905 0.79493 0.97814 0.0
C1269 C 0.05812 0.76731 0.96784 0.0
C1270 C 0.14323 0.79691 0.93141 0.0
C1271 C 0.05127 0.81287 0.00254 0.0
C1272 C 0.14015 0.85097 0.02816 0.0
C1273 C 0.13688 0.87969 0.01538 0.0
C1274 C 0.12798 0.82635 0.01209 0.0
C1275 C 0.11163 0.83058 0.98279 0.0
C1276 C 0.10842 0.85947 0.96953 0.0
C1277 C 0.12134 0.88372 0.98587 0.0
C1278 C 0.1323 0.79581 0.02677 0.0
C1279 C 0.0907 0.86482 0.93863 0.0
H1280 H 0.11405 0.74649 0.91655 0.0
H1281 H 0.03718 0.75934 0.97758 0.0
H1282 H 0.14292 0.8205 0.92357 0.0
H1283 H 0.15962 0.79495 0.95165 0.0
H1284 H 0.15096 0.78303 0.91054 0.0
H1285 H 0.02824 0.80433 0.00529 0.0
H1286 H 0.06229 0.81204 0.02688 0.0
H1287 H 0.05026 0.83651 0.99494 0.0
H1288 H 0.15231 0.84767 0.05083 0.0
H1289 H 0.11857 0.90593 0.97601 0.0
H1290 H 0.14222 0.78064 0.00832 0.0
H1291 H 0.11048 0.78636 0.03395 0.0
H1292 H 0.14689 0.79621 0.04877 0.0
H1293 H 0.09927 0.85076 0.91837 0.0
H1294 H 0.09138 0.88844 0.93076 0.0
H1295 H 0.06719 0.85839 0.94275 0.0
C1296 C 0.61659 0.11073 0.99118 0.0
C1297 C 0.62071 0.12688 0.02027 0.0
C1298 C 0.6409 0.09823 0.97453 0.0
C1299 C 0.66995 0.1026 0.98696 0.0
C1300 C 0.6742 0.11911 0.01615 0.0
C1301 C 0.64951 0.13075 0.03262 0.0
C1302 C 0.63552 0.08021 0.94386 0.0
C1303 C 0.70488 0.12473 0.02989 0.0
C1304 C 0.73614 0.05409 0.96644 0.0
C1305 C 0.75149 0.07205 0.94396 0.0
C1306 C 0.70849 0.06284 0.97905 0.0
C1307 C 0.6962 0.09045 0.96942 0.0
C1308 C 0.71082 0.10793 0.94551 0.0
C1309 C 0.73814 0.09837 0.93282 0.0
C1310 C 0.69321 0.04329 0.00399 0.0
C1311 C 0.69866 0.13771 0.93493 0.0
H1312 H 0.59431 0.10742 0.98172 0.0
H1313 H 0.65286 0.1433 0.05501 0.0
H1314 H 0.64709 0.09057 0.92272 0.0
H1315 H 0.64486 0.05756 0.94692 0.0
H1316 H 0.61151 0.07827 0.93789 0.0
H1317 H 0.70435 0.13853 0.0525 0.0
H1318 H 0.71588 0.10332 0.03573 0.0
H1319 H 0.7188 0.13619 0.0113 0.0
H1320 H 0.74613 0.03357 0.97495 0.0
H1321 H 0.74975 0.11242 0.91544 0.0
H1322 H 0.66931 0.04078 0.9979 0.0
H1323 H 0.69459 0.05379 0.02858 0.0
H1324 H 0.70347 0.02088 0.00544 0.0
H1325 H 0.67498 0.13569 0.92773 0.0
H1326 H 0.71129 0.14732 0.91404 0.0
H1327 H 0.69974 0.15347 0.95584 0.0
C1328 C 0.43688 0.76112 0.52642 0.0
C1329 C 0.42368 0.74484 0.55191 0.0
C1330 C 0.42473 0.78814 0.51589 0.0
C1331 C 0.39859 0.79902 0.53102 0.0
C1332 C 0.38618 0.78366 0.55803 0.0
C1333 C 0.39896 0.75678 0.56828 0.0
C1334 C 0.43887 0.80411 0.48726 0.0
C1335 C 0.35831 0.79459 0.57475 0.0
C1336 C 0.3756 0.87762 0.50853 0.0
C1337 C 0.35659 0.87227 0.48189 0.0
C1338 C 0.38882 0.85396 0.52561 0.0
C1339 C 0.38253 0.8244 0.51598 0.0
C1340 C 0.36223 0.81894 0.49013 0.0
C1341 C 0.34967 0.84294 0.47328 0.0
C1342 C 0.41059 0.86063 0.5528 0.0
C1343 C 0.35466 0.78772 0.47935 0.0
H1344 H 0.45617 0.75229 0.51385 0.0
H1345 H 0.38864 0.74445 0.58808 0.0
H1346 H 0.42411 0.80253 0.46552 0.0
H1347 H 0.44177 0.82803 0.49296 0.0
H1348 H 0.46085 0.79457 0.48068 0.0
H1349 H 0.35358 0.78221 0.59776 0.0
H1350 H 0.36017 0.81859 0.58058 0.0
H1351 H 0.33911 0.79187 0.55793 0.0
H1352 H 0.38123 0.90028 0.51509 0.0
H1353 H 0.33482 0.8387 0.45286 0.0
H1354 H 0.43336 0.85467 0.54468 0.0
H1355 H 0.40554 0.84706 0.57483 0.0
H1356 H 0.41044 0.88448 0.55981 0.0
H1357 H 0.37472 0.77687 0.46901 0.0
H1358 H 0.33686 0.7873 0.46047 0.0
H1359 H 0.34734 0.77428 0.5007 0.0
C1360 C 0.73534 0.40066 0.56971 0.0
C1361 C 0.74665 0.4258 0.55356 0.0
C1362 C 0.709 0.38703 0.55911 0.0
C1363 C 0.69349 0.39902 0.53197 0.0
C1364 C 0.70365 0.42554 0.51706 0.0
C1365 C 0.73017 0.43854 0.52794 0.0
C1366 C 0.69885 0.35876 0.5756 0.0
C1367 C 0.68747 0.43924 0.48833 0.0
C1368 C 0.65131 0.34872 0.474 0.0
C1369 C 0.62176 0.35458 0.48262 0.0
C1370 C 0.67486 0.36212 0.49088 0.0
C1371 C 0.66868 0.38222 0.51672 0.0
C1372 C 0.63891 0.38749 0.52631 0.0
C1373 C 0.61574 0.37342 0.50924 0.0
C1374 C 0.70634 0.35562 0.48017 0.0
C1375 C 0.63146 0.40906 0.55345 0.0
H1376 H 0.74781 0.39067 0.58961 0.0
H1377 H 0.73851 0.45813 0.51552 0.0
H1378 H 0.67478 0.35988 0.58135 0.0
H1379 H 0.70218 0.33975 0.55866 0.0
H1380 H 0.71129 0.35426 0.59863 0.0
H1381 H 0.69635 0.46153 0.48191 0.0
H1382 H 0.68968 0.42461 0.46655 0.0
H1383 H 0.66341 0.44136 0.4938 0.0
H1384 H 0.65606 0.33405 0.45356 0.0
H1385 H 0.59289 0.37828 0.51577 0.0
H1386 H 0.71996 0.34869 0.50154 0.0
H1387 H 0.71656 0.37604 0.46993 0.0
H1388 H 0.70739 0.33788 0.46124 0.0
H1389 H 0.64503 0.40438 0.57558 0.0
H1390 H 0.60757 0.40824 0.56028 0.0
H1391 H 0.63684 0.43199 0.54538 0.0
C1392 C 0.14103 0.65499 0.47495 0.0
C1393 C 0.13481 0.62549 0.48349 0.0
C1394 C 0.12837 0.67865 0.49231 0.0
C1395 C 0.10861 0.67267 0.51853 0.0
C1396 C 0.10254 0.64293 0.52762 0.0
C1397 C 0.11594 0.61962 0.51011 0.0
C1398 C 0.13574 0.71009 0.48215 0.0
C1399 C 0.08121 0.63573 0.55509 0.0
C1400 C 0.09676 0.73844 0.57482 0.0
C1401 C 0.07196 0.75208 0.5603 0.0
C1402 C 0.10801 0.71157 0.56267 0.0
C1403 C 0.0939 0.69782 0.53562 0.0
C1404 C 0.06757 0.71025 0.52248 0.0
C1405 C 0.05698 0.73732 0.53487 0.0
C1406 C 0.13619 0.69905 0.57728 0.0
C1407 C 0.05164 0.69596 0.49393 0.0
H1408 H 0.15567 0.65962 0.45447 0.0
H1409 H 0.11077 0.59682 0.51651 0.0
H1410 H 0.11533 0.72152 0.47355 0.0
H1411 H 0.14438 0.72276 0.50347 0.0
H1412 H 0.15253 0.71089 0.46217 0.0
H1413 H 0.08014 0.61152 0.56025 0.0
H1414 H 0.08783 0.64751 0.57785 0.0
H1415 H 0.05862 0.64357 0.5485 0.0
H1416 H 0.10845 0.74951 0.59461 0.0
H1417 H 0.03762 0.74746 0.52369 0.0
H1418 H 0.15468 0.70171 0.55949 0.0
H1419 H 0.13372 0.67494 0.58219 0.0
H1420 H 0.14246 0.7104 0.60049 0.0
H1421 H 0.06523 0.69844 0.47138 0.0
H1422 H 0.02953 0.70617 0.48943 0.0
H1423 H 0.04862 0.67183 0.49832 0.0
C1424 C 0.76473 0.05832 0.53054 0.0
C1425 C 0.74665 0.07377 0.55278 0.0
C1426 C 0.79208 0.07002 0.52035 0.0
C1427 C 0.80132 0.09807 0.53225 0.0
C1428 C 0.7839 0.11311 0.55591 0.0
C1429 C 0.75686 0.10065 0.56612 0.0
C1430 C 0.81031 0.05305 0.49551 0.0
C1431 C 0.79285 0.14323 0.5689 0.0
C1432 C 0.8806 0.12269 0.51492 0.0
C1433 C 0.87688 0.13869 0.48566 0.0
C1434 C 0.85615 0.10957 0.53073 0.0
C1435 C 0.82739 0.11301 0.51719 0.0
C1436 C 0.82346 0.12995 0.48825 0.0
C1437 C 0.84826 0.14234 0.4727 0.0
C1438 C 0.86121 0.09128 0.56128 0.0
C1439 C 0.79307 0.13454 0.4733 0.0
H1440 H 0.75718 0.03739 0.52038 0.0
H1441 H 0.74305 0.11276 0.58332 0.0
H1442 H 0.80975 0.06482 0.47159 0.0
H1443 H 0.83387 0.05186 0.5034 0.0
H1444 H 0.80188 0.03009 0.49175 0.0
H1445 H 0.77856 0.15053 0.58962 0.0
H1446 H 0.81631 0.14296 0.57723 0.0
H1447 H 0.79115 0.15991 0.54893 0.0
H1448 H 0.90272 0.11962 0.52491 0.0
H1449 H 0.84521 0.15484 0.45022 0.0
H1450 H 0.8551 0.0678 0.55642 0.0
H1451 H 0.84675 0.09926 0.58148 0.0
H1452 H 0.8847 0.09202 0.56961 0.0
H1453 H 0.7838 0.11288 0.46529 0.0
H1454 H 0.79366 0.1497 0.45178 0.0
H1455 H 0.77763 0.1439 0.49184 0.0
C1456 C 0.45107 0.94478 0.97659 0.0
C1457 C 0.47336 0.92539 0.9658 0.0
C1458 C 0.45823 0.97282 0.98919 0.0
C1459 C 0.48831 0.98194 0.9899 0.0
C1460 C 0.51087 0.96259 0.97841 0.0
C1461 C 0.50313 0.93422 0.96702 0.0
C1462 C 0.43369 0.99244 0.00223 0.0
C1463 C 0.5431 0.97192 0.978 0.0
C1464 C 0.50382 0.0646 0.99414 0.0
C1465 C 0.51295 0.06781 0.02681 0.0
C1466 C 0.49586 0.03668 0.98172 0.0
C1467 C 0.4962 0.0117 0.00282 0.0
C1468 C 0.50441 0.01507 0.03616 0.0
C1469 C 0.51319 0.04308 0.04764 0.0
C1470 C 0.48797 0.03377 0.94584 0.0
C1471 C 0.50411 0.98909 0.05961 0.0
H1472 H 0.42805 0.93766 0.97608 0.0
H1473 H 0.52027 0.91911 0.95857 0.0
H1474 H 0.4383 0.99842 0.02815 0.0
H1475 H 0.43277 0.01344 0.98804 0.0
H1476 H 0.41157 0.98153 0.00094 0.0
H1477 H 0.5577 0.95473 0.96693 0.0
H1478 H 0.54564 0.99287 0.96391 0.0
H1479 H 0.55083 0.97636 0.00337 0.0
H1480 H 0.50401 0.08373 0.97796 0.0
H1481 H 0.52016 0.04568 0.07295 0.0
H1482 H 0.46526 0.02453 0.94316 0.0
H1483 H 0.50347 0.01802 0.93374 0.0
H1484 H 0.48898 0.05538 0.93272 0.0
H1485 H 0.48196 0.97826 0.05937 0.0
H1486 H 0.50938 0.99587 0.08518 0.0
H1487 H 0.52058 0.97223 0.0517 0.0
C1488 C 0.43257 0.49991 0.00035 0.0
C1489 C 0.42924 0.50979 0.03273 0.0
C1490 C 0.46054 0.49171 0.98827 0.0
C1491 C 0.48545 0.49255 0.00945 0.0
C1492 C 0.48197 0.50156 0.04252 0.0
C1493 C 0.45391 0.51059 0.05363 0.0
C1494 C 0.46357 0.483 0.95263 0.0
C1495 C 0.50787 0.50181 0.06608 0.0
C1496 C 0.55212 0.44656 0.98431 0.0
C1497 C 0.57155 0.46849 0.97278 0.0
C1498 C 0.52419 0.45415 0.99693 0.0
C1499 C 0.51523 0.48427 0.99688 0.0
C1500 C 0.53465 0.50647 0.98471 0.0
C1501 C 0.56292 0.49833 0.97334 0.0
C1502 C 0.50449 0.43 0.0107 0.0
C1503 C 0.52546 0.53872 0.98344 0.0
H1504 H 0.41349 0.49969 0.98409 0.0
H1505 H 0.4512 0.51818 0.07873 0.0
H1506 H 0.47947 0.49812 0.94019 0.0
H1507 H 0.47268 0.46018 0.95063 0.0
H1508 H 0.44202 0.48383 0.93936 0.0
H1509 H 0.50102 0.50774 0.09145 0.0
H1510 H 0.51865 0.47965 0.06657 0.0
H1511 H 0.5248 0.51804 0.05774 0.0
H1512 H 0.55911 0.42349 0.98429 0.0
H1513 H 0.57807 0.5152 0.96431 0.0
H1514 H 0.48354 0.42872 0.99645 0.0
H1515 H 0.49842 0.43531 0.03644 0.0
H1516 H 0.51538 0.40785 0.01018 0.0
H1517 H 0.50459 0.54104 0.96916 0.0
H1518 H 0.54276 0.55302 0.97209 0.0
H1519 H 0.52093 0.54701 0.00857 0.0
C1520 C 0.01712 0.54695 0.95625 0.0
C1521 C 0.01634 0.57182 0.97685 0.0
C1522 C 0.0084 0.51895 0.96781 0.0
C1523 C -0.00028 0.51574 0.00102 0.0
C1524 C 0.99903 0.54083 0.02195 0.0
C1525 C 0.00692 0.56873 0.00943 0.0
C1526 C 0.00848 0.49284 0.94452 0.0
C1527 C 0.99063 0.53809 0.05771 0.0
C1528 C 0.95347 0.44943 0.02661 0.0
C1529 C 0.97535 0.42986 0.03798 0.0
C1530 C 0.96116 0.47731 0.014 0.0
C1531 C 0.99134 0.48611 0.01389 0.0
C1532 C 0.01348 0.46658 0.02598 0.0
C1533 C 0.00523 0.43834 0.03735 0.0
C1534 C 0.93706 0.49711 0.0003 0.0
C1535 C 0.04578 0.47559 0.02706 0.0
H1536 H 0.02432 0.54947 0.931 0.0
H1537 H 0.00669 0.58798 0.02544 0.0
H1538 H 0.02456 0.47585 0.95305 0.0
H1539 H 0.98622 0.48223 0.94414 0.0
H1540 H 0.01446 0.49942 0.91908 0.0
H1541 H 0.99183 0.5597 0.07081 0.0
H1542 H 0.96773 0.52925 0.06001 0.0
H1543 H 0.00569 0.5221 0.07008 0.0
H1544 H 0.93037 0.44254 0.02665 0.0
H1545 H 0.02205 0.42307 0.04622 0.0
H1546 H 0.94224 0.50301 0.97448 0.0
H1547 H 0.93602 0.51814 0.01442 0.0
H1548 H 0.91483 0.48639 0.00105 0.0
H1549 H 0.05402 0.47986 0.00185 0.0
H1550 H 0.06001 0.45829 0.03852 0.0
H1551 H 0.04828 0.49656 0.04111 0.0
C1552 C 0.05144 0.98638 0.04254 0.0
C1553 C 0.07619 0.98655 0.02175 0.0
C1554 C 0.02345 0.99514 0.031 0.0
C1555 C 0.0201 0.00322 0.99762 0.0
C1556 C 0.04509 0.00335 0.97652 0.0
C1557 C 0.07301 0.99546 0.98902 0.0
C1558 C 0.99748 0.99566 0.05447 0.0
C1559 C 0.0422 0.01106 0.94058 0.0
C1560 C 0.94227 0.99709 0.96253 0.0
C1561 C 0.93374 0.02695 0.96143 0.0
C1562 C 0.9707 0.98906 0.97352 0.0
C1563 C 0.99041 0.01141 0.98476 0.0
C1564 C 0.98162 0.04158 0.98406 0.0
C1565 C 0.95352 0.04903 0.97184 0.0
C1566 C 0.97966 0.95673 0.97306 0.0
C1567 C 0.00162 0.06592 0.99687 0.0
H1568 H 0.05403 0.97955 0.06791 0.0
H1569 H 0.09217 0.99519 0.97287 0.0
H1570 H 0.98687 0.01792 0.05425 0.0
H1571 H 0.98044 0.97937 0.04655 0.0
H1572 H 0.0042 0.99031 0.08003 0.0
H1573 H 0.06377 0.00967 0.92741 0.0
H1574 H 0.02621 0.9957 0.92865 0.0
H1575 H 0.03326 0.03387 0.93777 0.0
H1576 H 0.92684 0.98011 0.95439 0.0
H1577 H 0.94663 0.07212 0.97144 0.0
H1578 H 0.98397 0.94892 0.99843 0.0
H1579 H 0.0006 0.95397 0.959 0.0
H1580 H 0.96231 0.94234 0.96194 0.0
H1581 H 0.00756 0.06138 0.02283 0.0
H1582 H 0.99103 0.08818 0.99544 0.0
H1583 H 0.02262 0.06645 0.98265 0.0
C1584 C 0.48719 0.54374 0.54702 0.0
C1585 C 0.48731 0.5683 0.52595 0.0
C1586 C 0.49608 0.51568 0.53581 0.0
C1587 C 0.50427 0.51207 0.50249 0.0
C1588 C 0.50449 0.53689 0.48115 0.0
C1589 C 0.49643 0.56487 0.49331 0.0
C1590 C 0.49651 0.48989 0.55951 0.0
C1591 C 0.51235 0.53372 0.44529 0.0
C1592 C 0.54947 0.44503 0.47682 0.0
C1593 C 0.52719 0.42551 0.46628 0.0
C1594 C 0.54228 0.47317 0.48915 0.0
C1595 C 0.51219 0.48224 0.48984 0.0
C1596 C 0.48965 0.46276 0.4786 0.0
C1597 C 0.49741 0.43431 0.46747 0.0
C1598 C 0.56682 0.49294 0.50192 0.0
C1599 C 0.4574 0.47203 0.47816 0.0
H1600 H 0.48022 0.54652 0.57232 0.0
H1601 H 0.49615 0.58387 0.47695 0.0
H1602 H 0.48005 0.47293 0.55182 0.0
H1603 H 0.51868 0.47911 0.5593 0.0
H1604 H 0.49129 0.49686 0.58503 0.0
H1605 H 0.5113 0.55523 0.43197 0.0
H1606 H 0.53507 0.52449 0.44266 0.0
H1607 H 0.49685 0.51787 0.43336 0.0
H1608 H 0.5725 0.43794 0.47633 0.0
H1609 H 0.48027 0.41911 0.4592 0.0
H1610 H 0.56227 0.4991 0.52781 0.0
H1611 H 0.56765 0.51384 0.48755 0.0
H1612 H 0.58896 0.48207 0.50065 0.0
H1613 H 0.4497 0.47664 0.50351 0.0
H1614 H 0.4428 0.45473 0.46728 0.0
H1615 H 0.4548 0.49286 0.46389 0.0
C1616 C 0.04574 0.55288 0.47785 0.0
C1617 C 0.0651 0.53047 0.46731 0.0
C1618 C 0.01763 0.5459 0.49038 0.0
C1619 C 0.00839 0.51586 0.49127 0.0
C1620 C 0.02772 0.49317 0.48005 0.0
C1621 C 0.05617 0.50074 0.46873 0.0
C1622 C 0.99806 0.57058 0.50316 0.0
C1623 C 0.01828 0.46098 0.47983 0.0
C1624 C 0.94692 0.49144 0.54883 0.0
C1625 C 0.92228 0.49162 0.52787 0.0
C1626 C 0.975 0.50012 0.53746 0.0
C1627 C 0.97854 0.50816 0.50409 0.0
C1628 C 0.95363 0.50848 0.48287 0.0
C1629 C 0.92563 0.50063 0.49519 0.0
C1630 C 0.00088 0.50046 0.56105 0.0
C1631 C 0.95673 0.51618 0.44695 0.0
H1632 H 0.05296 0.57587 0.4772 0.0
H1633 H 0.07127 0.4835 0.4605 0.0
H1634 H 0.97711 0.57151 0.48887 0.0
H1635 H 0.99195 0.56613 0.52909 0.0
H1636 H 0.00906 0.59264 0.50179 0.0
H1637 H 0.03545 0.44625 0.46892 0.0
H1638 H 0.01373 0.45341 0.50523 0.0
H1639 H 0.99736 0.45843 0.46567 0.0
H1640 H 0.9442 0.48453 0.57416 0.0
H1641 H 0.90657 0.50039 0.47891 0.0
H1642 H 0.01185 0.52254 0.56065 0.0
H1643 H 0.01768 0.48383 0.55339 0.0
H1644 H 0.99396 0.49544 0.58663 0.0
H1645 H 0.96611 0.53882 0.44418 0.0
H1646 H 0.93515 0.51522 0.43374 0.0
H1647 H 0.97243 0.50052 0.43503 0.0
C1648 C 0.99255 0.94098 0.53837 0.0
C1649 C 0.02251 0.93279 0.53926 0.0
C1650 C 0.98413 0.96922 0.52714 0.0
C1651 C 0.00619 0.98903 0.51542 0.0
C1652 C 0.03645 0.98049 0.5157 0.0
C1653 C 0.04429 0.95261 0.52818 0.0
C1654 C 0.95175 0.97795 0.52805 0.0
C1655 C 0.06047 0.00059 0.50238 0.0
C1656 C 0.98078 0.05051 0.45841 0.0
C1657 C 0.98154 0.07515 0.47935 0.0
C1658 C 0.98928 0.02235 0.46969 0.0
C1659 C 0.9977 0.01876 0.50294 0.0
C1660 C 0.99825 0.04361 0.52422 0.0
C1661 C 0.99061 0.07167 0.51198 0.0
C1662 C 0.98938 0.99652 0.44604 0.0
C1663 C 0.00634 0.04045 0.56003 0.0
H1664 H 0.97582 0.92551 0.54701 0.0
H1665 H 0.06745 0.94594 0.52841 0.0
H1666 H 0.94899 0.99868 0.54247 0.0
H1667 H 0.94368 0.98255 0.50284 0.0
H1668 H 0.93756 0.96037 0.53905 0.0
H1669 H 0.08275 0.98996 0.50297 0.0
H1670 H 0.0553 0.00685 0.47666 0.0
H1671 H 0.06141 0.02141 0.51689 0.0
H1672 H 0.97383 0.05335 0.43312 0.0
H1673 H 0.9908 0.09075 0.52824 0.0
H1674 H 0.97341 0.97932 0.4543 0.0
H1675 H 0.01171 0.98606 0.44554 0.0
H1676 H 0.98339 0.00335 0.42068 0.0
H1677 H 0.99136 0.02411 0.57196 0.0
H1678 H 0.00478 0.06186 0.57349 0.0
H1679 H 0.02932 0.03184 0.56243 0.0
C1680 C 0.56909 0.99652 0.49317 0.0
C1681 C 0.57176 0.00607 0.52574 0.0
C1682 C 0.5414 0.98822 0.48037 0.0
C1683 C 0.51611 0.98864 0.50102 0.0
C1684 C 0.51898 0.99716 0.53433 0.0
C1685 C 0.54675 0.00629 0.54616 0.0
C1686 C 0.53902 0.98003 0.44452 0.0
C1687 C 0.49267 0.99698 0.55733 0.0
C1688 C 0.43889 0.99586 0.46466 0.0
C1689 C 0.42974 0.96618 0.46385 0.0
C1690 C 0.46736 0.00343 0.47588 0.0
C1691 C 0.4865 0.98081 0.48764 0.0
C1692 C 0.47715 0.9508 0.48712 0.0
C1693 C 0.449 0.94379 0.47468 0.0
C1694 C 0.47694 0.03558 0.47522 0.0
C1695 C 0.49655 0.92621 0.50043 0.0
H1696 H 0.58844 0.99674 0.47729 0.0
H1697 H 0.54895 0.01361 0.57141 0.0
H1698 H 0.52948 0.95744 0.44186 0.0
H1699 H 0.52374 0.99566 0.43193 0.0
H1700 H 0.56089 0.98061 0.43188 0.0
H1701 H 0.49911 0.00221 0.58301 0.0
H1702 H 0.47601 0.01355 0.54914 0.0
H1703 H 0.48171 0.97489 0.5569 0.0
H1704 H 0.42389 0.01308 0.45618 0.0
H1705 H 0.44164 0.92084 0.47447 0.0
H1706 H 0.4982 0.03782 0.46163 0.0
H1707 H 0.48089 0.04358 0.50059 0.0
H1708 H 0.46009 0.05016 0.4635 0.0
H1709 H 0.51785 0.92539 0.48678 0.0
H1710 H 0.4857 0.90409 0.49873 0.0
H1711 H 0.50198 0.93068 0.52653 0.0
C1712 C 0.54122 0.29405 0.2898 0.0
C1713 C 0.52364 0.28949 0.31776 0.0
C1714 C 0.53495 0.27942 0.26033 0.0
C1715 C 0.51022 0.26004 0.25861 0.0
C1716 C 0.49088 0.25734 0.28583 0.0
C1717 C 0.49794 0.27198 0.31527 0.0
C1718 C 0.55619 0.28295 0.23186 0.0
C1719 C 0.46384 0.23754 0.28461 0.0
C1720 C 0.49867 0.23258 0.1718 0.0
C1721 C 0.51665 0.20712 0.17199 0.0
C1722 C 0.49393 0.24889 0.20074 0.0
C1723 C 0.50775 0.23957 0.2302 0.0
C1724 C 0.52362 0.21244 0.23101 0.0
C1725 C 0.5277 0.19647 0.20194 0.0
C1726 C 0.47608 0.27722 0.19918 0.0
C1727 C 0.53865 0.20158 0.26194 0.0
H1728 H 0.56088 0.30789 0.29131 0.0
H1729 H 0.48397 0.26871 0.33664 0.0
H1730 H 0.56813 0.26171 0.22765 0.0
H1731 H 0.54387 0.28833 0.20906 0.0
H1732 H 0.57292 0.30067 0.23628 0.0
H1733 H 0.44779 0.24303 0.30442 0.0
H1734 H 0.45244 0.23939 0.26056 0.0
H1735 H 0.47079 0.21407 0.28772 0.0
H1736 H 0.48969 0.24073 0.14882 0.0
H1737 H 0.54109 0.17645 0.20244 0.0
H1738 H 0.49142 0.29648 0.19797 0.0
H1739 H 0.46216 0.27989 0.22147 0.0
H1740 H 0.46151 0.27782 0.17718 0.0
H1741 H 0.55732 0.21668 0.26821 0.0
H1742 H 0.54762 0.17872 0.25921 0.0
H1743 H 0.52289 0.20183 0.28285 0.0
C1744 C 0.19848 0.54358 0.29246 0.0
C1745 C 0.20416 0.52711 0.321 0.0
C1746 C 0.21354 0.5375 0.2632 0.0
C1747 C 0.23458 0.51414 0.26232 0.0
C1748 C 0.23856 0.4958 0.29019 0.0
C1749 C 0.22338 0.50261 0.31936 0.0
C1750 C 0.20857 0.5576 0.23401 0.0
C1751 C 0.26026 0.47025 0.2899 0.0
C1752 C 0.26352 0.50098 0.17626 0.0
C1753 C 0.28797 0.52031 0.1758 0.0
C1754 C 0.24708 0.49663 0.20519 0.0
C1755 C 0.25522 0.51223 0.23399 0.0
C1756 C 0.28126 0.52985 0.23422 0.0
C1757 C 0.2974 0.53351 0.20519 0.0
C1758 C 0.2199 0.47704 0.20427 0.0
C1759 C 0.2908 0.54684 0.26444 0.0
H1760 H 0.18331 0.56226 0.29332 0.0
H1761 H 0.22757 0.4895 0.34119 0.0
H1762 H 0.22887 0.571 0.2295 0.0
H1763 H 0.20429 0.54428 0.21161 0.0
H1764 H 0.18961 0.57304 0.23778 0.0
H1765 H 0.25622 0.45463 0.31054 0.0
H1766 H 0.25892 0.4578 0.26643 0.0
H1767 H 0.28321 0.47899 0.29219 0.0
H1768 H 0.25632 0.49038 0.15373 0.0
H1769 H 0.3166 0.54805 0.20523 0.0
H1770 H 0.19972 0.49111 0.20254 0.0
H1771 H 0.21807 0.46366 0.22706 0.0
H1772 H 0.22021 0.4618 0.18282 0.0
H1773 H 0.27434 0.56455 0.26977 0.0
H1774 H 0.31296 0.55736 0.26137 0.0
H1775 H 0.29159 0.53192 0.28607 0.0
C1776 C 0.95656 0.2964 0.2123 0.0
C1777 C 0.97433 0.29217 0.18444 0.0
C1778 C 0.96311 0.28209 0.24188 0.0
C1779 C 0.98832 0.26336 0.24382 0.0
C1780 C 0.00768 0.26083 0.2166 0.0
C1781 C 0.00033 0.27513 0.18704 0.0
C1782 C 0.94179 0.2854 0.27033 0.0
C1783 C 0.03517 0.24168 0.21803 0.0
C1784 C 0.0007 0.23841 0.33134 0.0
C1785 C 0.98317 0.21265 0.33201 0.0
C1786 C 0.00515 0.25399 0.30186 0.0
C1787 C 0.99153 0.24357 0.27273 0.0
C1788 C 0.97631 0.21607 0.27281 0.0
C1789 C 0.97247 0.20087 0.30242 0.0
C1790 C 0.0223 0.28278 0.30248 0.0
C1791 C 0.96155 0.20403 0.24226 0.0
H1792 H 0.93662 0.30983 0.21067 0.0
H1793 H 0.01443 0.2721 0.16573 0.0
H1794 H 0.9306 0.26384 0.27506 0.0
H1795 H 0.95398 0.29162 0.29296 0.0
H1796 H 0.92446 0.30244 0.26558 0.0
H1797 H 0.05101 0.24721 0.19802 0.0
H1798 H 0.04664 0.24418 0.24198 0.0
H1799 H 0.02876 0.218 0.21543 0.0
H1800 H 0.0094 0.24744 0.35406 0.0
H1801 H 0.95945 0.1806 0.30263 0.0
H1802 H 0.00649 0.30168 0.30305 0.0
H1803 H 0.03616 0.28518 0.28012 0.0
H1804 H 0.03683 0.28433 0.32446 0.0
H1805 H 0.94229 0.21829 0.23577 0.0
H1806 H 0.95345 0.18092 0.24564 0.0
H1807 H 0.97716 0.20444 0.22123 0.0
C1808 C 0.27554 0.99814 0.31523 0.0
C1809 C 0.29206 0.97179 0.31767 0.0
C1810 C 0.26147 0.00597 0.28568 0.0
C1811 C 0.26372 0.98676 0.25829 0.0
C1812 C 0.282 0.96121 0.26007 0.0
C1813 C 0.29608 0.95417 0.28964 0.0
C1814 C 0.24282 0.0338 0.28444 0.0
C1815 C 0.28501 0.94006 0.23143 0.0
C1816 C 0.20096 0.97253 0.1995 0.0
C1817 C 0.21293 0.98328 0.17002 0.0
C1818 C 0.21624 0.9758 0.22915 0.0
C1819 C 0.24403 0.99052 0.22939 0.0
C1820 C 0.2547 0.00418 0.20039 0.0
C1821 C 0.23903 0.00029 0.17087 0.0
C1822 C 0.20394 0.961 0.25954 0.0
C1823 C 0.2838 0.02081 0.19994 0.0
H1824 H 0.27268 0.01211 0.33666 0.0
H1825 H 0.30913 0.93397 0.29114 0.0
H1826 H 0.24558 0.0454 0.2606 0.0
H1827 H 0.21902 0.02778 0.2869 0.0
H1828 H 0.24857 0.04938 0.30461 0.0
H1829 H 0.30177 0.92243 0.23605 0.0
H1830 H 0.26328 0.92925 0.22658 0.0
H1831 H 0.29145 0.95231 0.20892 0.0
H1832 H 0.18044 0.95991 0.19917 0.0
H1833 H 0.24821 0.00902 0.14824 0.0
H1834 H 0.20458 0.97643 0.28072 0.0
H1835 H 0.21788 0.94147 0.26585 0.0
H1836 H 0.1807 0.9533 0.25606 0.0
H1837 H 0.28644 0.03445 0.22244 0.0
H1838 H 0.28563 0.03547 0.1781 0.0
H1839 H 0.30241 0.00466 0.19924 0.0
C1840 C 0.50173 0.77178 0.81444 0.0
C1841 C 0.47606 0.78933 0.81704 0.0
C1842 C 0.50878 0.75733 0.78488 0.0
C1843 C 0.48947 0.76025 0.75766 0.0
C1844 C 0.46477 0.77965 0.75953 0.0
C1845 C 0.45851 0.79409 0.78911 0.0
C1846 C 0.53579 0.73751 0.78351 0.0
C1847 C 0.44355 0.78342 0.73107 0.0
C1848 C 0.50112 0.73338 0.67062 0.0
C1849 C 0.48316 0.70792 0.67057 0.0
C1850 C 0.50582 0.74951 0.6997 0.0
C1851 C 0.49195 0.73999 0.72906 0.0
C1852 C 0.47606 0.71287 0.72962 0.0
C1853 C 0.47205 0.69708 0.70042 0.0
C1854 C 0.52368 0.77785 0.69841 0.0
C1855 C 0.46095 0.70182 0.76042 0.0
H1856 H 0.51568 0.76836 0.83579 0.0
H1857 H 0.43888 0.80797 0.79071 0.0
H1858 H 0.52879 0.71401 0.78626 0.0
H1859 H 0.54727 0.73961 0.75952 0.0
H1860 H 0.55179 0.74274 0.80345 0.0
H1861 H 0.42685 0.80112 0.73563 0.0
H1862 H 0.4559 0.78896 0.70833 0.0
H1863 H 0.4316 0.76222 0.72665 0.0
H1864 H 0.51015 0.74168 0.64772 0.0
H1865 H 0.45866 0.67705 0.70074 0.0
H1866 H 0.53755 0.78037 0.72075 0.0
H1867 H 0.50835 0.79712 0.69731 0.0
H1868 H 0.53829 0.77858 0.67645 0.0
H1869 H 0.47667 0.7019 0.78137 0.0
H1870 H 0.45196 0.67899 0.75748 0.0
H1871 H 0.4423 0.71689 0.76678 0.0
C1872 C 0.75693 0.50184 0.67396 0.0
C1873 C 0.78301 0.48479 0.67334 0.0
C1874 C 0.74104 0.50575 0.70334 0.0
C1875 C 0.75143 0.49202 0.73242 0.0
C1876 C 0.77912 0.47713 0.7324 0.0
C1877 C 0.79465 0.47389 0.70291 0.0
C1878 C 0.71207 0.52259 0.70267 0.0
C1879 C 0.79112 0.46221 0.76287 0.0
C1880 C 0.72057 0.49993 0.81844 0.0
C1881 C 0.70397 0.47364 0.82106 0.0
C1882 C 0.7343 0.50777 0.7887 0.0
C1883 C 0.73166 0.4886 0.76132 0.0
C1884 C 0.71318 0.46321 0.76325 0.0
C1885 C 0.6994 0.45618 0.79301 0.0
C1886 C 0.75311 0.53548 0.78727 0.0
C1887 C 0.70977 0.4421 0.73464 0.0
H1888 H 0.748 0.51069 0.65127 0.0
H1889 H 0.81515 0.46123 0.70278 0.0
H1890 H 0.69334 0.50659 0.70168 0.0
H1891 H 0.70933 0.53616 0.7252 0.0
H1892 H 0.71054 0.53735 0.68088 0.0
H1893 H 0.81421 0.45404 0.75947 0.0
H1894 H 0.79078 0.47776 0.78396 0.0
H1895 H 0.7768 0.44299 0.76931 0.0
H1896 H 0.72381 0.51381 0.83988 0.0
H1897 H 0.68627 0.43605 0.79465 0.0
H1898 H 0.75025 0.54707 0.76344 0.0
H1899 H 0.77689 0.52933 0.78956 0.0
H1900 H 0.74757 0.55112 0.80746 0.0
H1901 H 0.70347 0.45443 0.71213 0.0
H1902 H 0.69274 0.42474 0.73932 0.0
H1903 H 0.73132 0.43095 0.72974 0.0
C1904 C 0.99899 0.77496 0.68615 0.0
C1905 C 0.02412 0.79337 0.68444 0.0
C1906 C 0.99201 0.75965 0.71519 0.0
C1907 C 0.01086 0.76258 0.7428 0.0
C1908 C 0.03503 0.78268 0.74182 0.0
C1909 C 0.04123 0.79796 0.71274 0.0
C1910 C 0.96558 0.73902 0.71561 0.0
C1911 C 0.05574 0.78648 0.77073 0.0
C1912 C 0.9984 0.73445 0.82917 0.0
C1913 C 0.01708 0.7095 0.8293 0.0
C1914 C 0.99375 0.75073 0.80019 0.0
C1915 C 0.00838 0.7419 0.77102 0.0
C1916 C 0.02499 0.71521 0.77046 0.0
C1917 C 0.02896 0.69925 0.79956 0.0
C1918 C 0.97514 0.77858 0.80146 0.0
C1919 C 0.0409 0.7049 0.73985 0.0
H1920 H 0.98539 0.77163 0.6645 0.0
H1921 H 0.06045 0.81245 0.71182 0.0
H1922 H 0.97332 0.71578 0.71257 0.0
H1923 H 0.95364 0.7404 0.73938 0.0
H1924 H 0.94977 0.7441 0.69543 0.0
H1925 H 0.07211 0.80461 0.76681 0.0
H1926 H 0.04293 0.79138 0.79333 0.0
H1927 H 0.06811 0.76549 0.77498 0.0
H1928 H 0.98878 0.74228 0.85198 0.0
H1929 H 0.04292 0.67962 0.7993 0.0
H1930 H 0.9615 0.7809 0.77892 0.0
H1931 H 0.98995 0.79824 0.80296 0.0
H1932 H 0.96023 0.77877 0.82319 0.0
H1933 H 0.02559 0.70495 0.71853 0.0
H1934 H 0.05031 0.68222 0.74264 0.0
H1935 H 0.05935 0.72044 0.73419 0.0
C1936 C 0.73434 0.99901 0.67369 0.0
C1937 C 0.7095 0.01782 0.67275 0.0
C1938 C 0.75045 0.99508 0.70292 0.0
C1939 C 0.74159 0.01059 0.73152 0.0
C1940 C 0.71514 0.02758 0.73127 0.0
C1941 C 0.69933 0.03081 0.70195 0.0
C1942 C 0.77808 0.97611 0.70253 0.0
C1943 C 0.70484 0.04448 0.76124 0.0
C1944 C 0.77333 0.00192 0.81712 0.0
C1945 C 0.79219 0.02671 0.81869 0.0
C1946 C 0.75822 0.99484 0.78798 0.0
C1947 C 0.7619 0.01319 0.76007 0.0
C1948 C 0.78244 0.03699 0.76095 0.0
C1949 C 0.79743 0.04334 0.79018 0.0
C1950 C 0.73702 0.96886 0.78771 0.0
C1951 C 0.78705 0.05714 0.73171 0.0
H1952 H 0.74212 0.98855 0.65132 0.0
H1953 H 0.67983 0.04494 0.70162 0.0
H1954 H 0.79795 0.99063 0.70113 0.0
H1955 H 0.77987 0.96281 0.72537 0.0
H1956 H 0.77842 0.96083 0.68111 0.0
H1957 H 0.68241 0.05432 0.75785 0.0
H1958 H 0.70431 0.02971 0.783 0.0
H1959 H 0.72073 0.06272 0.76658 0.0
H1960 H 0.76946 0.9887 0.83895 0.0
H1961 H 0.8123 0.06228 0.79099 0.0
H1962 H 0.7388 0.95628 0.76437 0.0
H1963 H 0.71388 0.97716 0.78967 0.0
H1964 H 0.74118 0.95347 0.80853 0.0
H1965 H 0.79192 0.04387 0.70943 0.0
H1966 H 0.80551 0.07315 0.73559 0.0
H1967 H 0.7664 0.0699 0.72692 0.0
loop_
_geom_bond_atom_site_label_1
_geom_bond_atom_site_label_2
_geom_bond_distance
_geom_bond_site_symmetry_2
_ccdc_geom_bond_type
Co0 O2 2.143 . S
Co0 O8 2.074 . S
Co0 O11 2.093 . S
Co0 O24 2.097 . S
Co0 N41 2.151 . S
Co0 N49 2.214 . S
Co1 O2 2.160 . S
Co1 O7 2.058 . S
Co1 O17 2.057 . S
Co1 O32 2.037 . S
Co1 N36 2.145 1_554 S
Co1 N57 2.257 . S
O2 Co0 2.143 . S
O2 Co1 2.160 . S
C3 O4 1.278 . S
C3 O11 1.224 . S
O4 C3 1.278 . S
C5 O6 1.245 . S
C5 O17 1.232 . S
O6 C5 1.245 . S
O7 Co1 2.058 . S
O7 C33 1.269 . S
O8 Co0 2.074 . S
O8 C33 1.257 . S
H9 C34 0.930 . S
H10 C40 0.930 . S
O11 Co0 2.093 . S
O11 C3 1.224 . S
H12 C44 0.929 . S
H13 C46 0.930 . S
H14 C47 0.930 . S
H15 C45 0.929 . S
H16 C48 0.928 . S
O17 Co1 2.057 . S
O17 C5 1.232 . S
H18 C37 0.929 . S
H19 C38 0.929 . S
H20 C50 0.931 . S
H21 C42 0.929 . S
H22 C51 0.930 . S
H23 C43 0.931 . S
O24 Co0 2.097 . S
O24 C52 1.214 . S
H25 C53 0.929 . S
H26 C54 0.929 1_556 S
H27 C55 0.930 . S
H28 C56 0.929 . S
H29 C58 0.930 . S
H30 C35 0.930 . S
H31 C39 0.930 . S
O32 Co1 2.037 . S
O32 C52 1.234 . S
C33 O7 1.269 . S
C33 O8 1.257 . S
C34 H9 0.930 . S
C34 C37 1.388 . S
C34 C39 1.418 . S
C35 H30 0.930 . S
C35 C38 1.404 . S
C35 C39 1.353 . S
N36 Co1 2.145 1_556 S
N36 C37 1.397 . S
N36 C38 1.334 . S
C37 H18 0.929 . S
C37 C34 1.388 . S
C37 N36 1.397 . S
C38 H19 0.929 . S
C38 C35 1.404 . S
C38 N36 1.334 . S
C39 H31 0.930 . S
C39 C34 1.418 . S
C39 C35 1.353 . S
C40 H10 0.930 . S
C40 N41 1.330 . S
C40 C42 1.446 . S
N41 Co0 2.151 . S
N41 C40 1.330 . S
N41 C45 1.418 . S
C42 H21 0.929 . S
C42 C40 1.446 . S
C42 C43 1.332 . S
C43 H23 0.931 . S
C43 C42 1.332 . S
C43 C44 1.267 . S
C44 H12 0.929 . S
C44 C43 1.267 . S
C44 C45 1.251 . S
C45 H15 0.929 . S
C45 N41 1.418 . S
C45 C44 1.251 . S
C46 H13 0.930 . S
C46 C48 1.406 . S
C46 C51 1.261 . S
C47 H14 0.930 . S
C47 N49 1.325 . S
C47 C50 1.357 . S
C48 H16 0.928 . S
C48 C46 1.406 . S
C48 N49 1.261 . S
N49 Co0 2.214 . S
N49 C47 1.325 . S
N49 C48 1.261 . S
C50 H20 0.931 . S
C50 C47 1.357 . S
C50 C51 1.312 . S
C51 H22 0.930 . S
C51 C46 1.261 . S
C51 C50 1.312 . S
C52 O24 1.214 . S
C52 O32 1.234 . S
C53 H25 0.929 . S
C53 C56 1.391 . S
C53 C58 1.391 . S
C54 H26 0.929 1_554 S
C54 C55 1.390 . S
C54 N57 1.391 . S
C55 H27 0.930 . S
C55 C54 1.390 . S
C55 C56 1.392 . S
C56 H28 0.929 . S
C56 C53 1.391 . S
C56 C55 1.392 . S
N57 Co1 2.257 . S
N57 C54 1.391 . S
N57 C58 1.388 . S
C58 H29 0.930 . S
C58 C53 1.391 . S
C58 N57 1.388 . S
Co59 O61 2.143 . S
Co59 O67 2.074 . S
Co59 O70 2.093 . S
Co59 O83 2.097 . S
Co59 N100 2.151 . S
Co59 N108 2.214 . S
Co60 O61 2.160 . S
Co60 O66 2.058 . S
Co60 O76 2.057 . S
Co60 O91 2.037 . S
Co60 N95 2.145 1_554 S
Co60 N116 2.257 . S
O61 Co59 2.143 . S
O61 Co60 2.160 . S
C62 O63 1.278 . S
C62 O70 1.224 . S
O63 C62 1.278 . S
C64 O65 1.245 . S
C64 O76 1.232 . S
O65 C64 1.245 . S
O66 Co60 2.058 . S
O66 C92 1.269 . S
O67 Co59 2.074 . S
O67 C92 1.257 . S
H68 C93 0.930 . S
H69 C99 0.930 . S
O70 Co59 2.093 . S
O70 C62 1.224 . S
H71 C103 0.929 . S
H72 C105 0.930 . S
H73 C106 0.930 . S
H74 C104 0.929 . S
H75 C107 0.928 . S
O76 Co60 2.057 . S
O76 C64 1.232 . S
H77 C96 0.929 . S
H78 C97 0.929 . S
H79 C109 0.931 . S
H80 C101 0.929 . S
H81 C110 0.930 . S
H82 C102 0.931 . S
O83 Co59 2.097 . S
O83 C111 1.214 . S
H84 C112 0.929 . S
H85 C113 0.929 1_556 S
H86 C114 0.930 . S
H87 C115 0.929 . S
H88 C117 0.930 . S
H89 C94 0.930 . S
H90 C98 0.930 . S
O91 Co60 2.037 . S
O91 C111 1.234 . S
C92 O66 1.269 . S
C92 O67 1.257 . S
C93 H68 0.930 . S
C93 C96 1.388 . S
C93 C98 1.418 . S
C94 H89 0.930 . S
C94 C97 1.404 . S
C94 C98 1.353 . S
N95 Co60 2.145 1_556 S
N95 C96 1.397 . S
N95 C97 1.334 . S
C96 H77 0.929 . S
C96 C93 1.388 . S
C96 N95 1.397 . S
C97 H78 0.929 . S
C97 C94 1.404 . S
C97 N95 1.334 . S
C98 H90 0.930 . S
C98 C93 1.418 . S
C98 C94 1.353 . S
C99 H69 0.930 . S
C99 N100 1.330 . S
C99 C101 1.446 . S
N100 Co59 2.151 . S
N100 C99 1.330 . S
N100 C104 1.418 . S
C101 H80 0.929 . S
C101 C99 1.446 . S
C101 C102 1.332 . S
C102 H82 0.931 . S
C102 C101 1.332 . S
C102 C103 1.267 . S
C103 H71 0.929 . S
C103 C102 1.267 . S
C103 C104 1.251 . S
C104 H74 0.929 . S
C104 N100 1.418 . S
C104 C103 1.251 . S
C105 H72 0.930 . S
C105 C107 1.406 . S
C105 C110 1.261 . S
C106 H73 0.930 . S
C106 N108 1.325 . S
C106 C109 1.357 . S
C107 H75 0.928 . S
C107 C105 1.406 . S
C107 N108 1.261 . S
N108 Co59 2.214 . S
N108 C106 1.325 . S
N108 C107 1.261 . S
C109 H79 0.931 . S
C109 C106 1.357 . S
C109 C110 1.312 . S
C110 H81 0.930 . S
C110 C105 1.261 . S
C110 C109 1.312 . S
C111 O83 1.214 . S
C111 O91 1.234 . S
C112 H84 0.929 . S
C112 C115 1.391 . S
C112 C117 1.391 . S
C113 H85 0.929 1_554 S
C113 C114 1.390 . S
C113 N116 1.391 . S
C114 H86 0.930 . S
C114 C113 1.390 . S
C114 C115 1.392 . S
C115 H87 0.929 . S
C115 C112 1.391 . S
C115 C114 1.392 . S
N116 Co60 2.257 . S
N116 C113 1.391 . S
N116 C117 1.388 . S
C117 H88 0.930 . S
C117 C112 1.391 . S
C117 N116 1.388 . S
Co118 O120 2.143 . S
Co118 O126 2.074 . S
Co118 O129 2.093 . S
Co118 O142 2.097 . S
Co118 N159 2.151 . S
Co118 N167 2.214 . S
Co119 O120 2.160 . S
Co119 O125 2.058 . S
Co119 O135 2.057 . S
Co119 O150 2.037 . S
Co119 N154 2.145 1_554 S
Co119 N175 2.257 1_655 S
O120 Co118 2.143 . S
O120 Co119 2.160 . S
C121 O122 1.278 . S
C121 O129 1.224 . S
O122 C121 1.278 . S
C123 O124 1.245 . S
C123 O135 1.232 . S
O124 C123 1.245 . S
O125 Co119 2.058 . S
O125 C151 1.269 . S
O126 Co118 2.074 . S
O126 C151 1.257 . S
H127 C152 0.930 . S
H128 C158 0.930 . S
O129 Co118 2.093 . S
O129 C121 1.224 . S
H130 C162 0.929 . S
H131 C164 0.930 . S
H132 C165 0.930 . S
H133 C163 0.929 . S
H134 C166 0.928 . S
O135 Co119 2.057 . S
O135 C123 1.232 . S
H136 C155 0.929 . S
H137 C156 0.929 1_455 S
H138 C168 0.931 . S
H139 C160 0.929 . S
H140 C169 0.930 . S
H141 C161 0.931 . S
O142 Co118 2.097 . S
O142 C170 1.214 . S
H143 C171 0.929 . S
H144 C172 0.929 1_656 S
H145 C173 0.930 . S
H146 C174 0.929 . S
H147 C176 0.930 . S
H148 C153 0.930 1_455 S
H149 C157 0.930 . S
O150 Co119 2.037 . S
O150 C170 1.234 . S
C151 O125 1.269 . S
C151 O126 1.257 . S
C152 H127 0.930 . S
C152 C155 1.388 . S
C152 C157 1.418 . S
C153 H148 0.930 1_655 S
C153 C156 1.404 . S
C153 C157 1.353 . S
N154 Co119 2.145 1_556 S
N154 C155 1.397 . S
N154 C156 1.334 . S
C155 H136 0.929 . S
C155 C152 1.388 . S
C155 N154 1.397 . S
C156 H137 0.929 1_655 S
C156 C153 1.404 . S
C156 N154 1.334 . S
C157 H149 0.930 . S
C157 C152 1.418 . S
C157 C153 1.353 . S
C158 H128 0.930 . S
C158 N159 1.330 . S
C158 C160 1.446 . S
N159 Co118 2.151 . S
N159 C158 1.330 . S
N159 C163 1.418 . S
C160 H139 0.929 . S
C160 C158 1.446 . S
C160 C161 1.332 . S
C161 H141 0.931 . S
C161 C160 1.332 . S
C161 C162 1.267 . S
C162 H130 0.929 . S
C162 C161 1.267 . S
C162 C163 1.251 . S
C163 H133 0.929 . S
C163 N159 1.418 . S
C163 C162 1.251 . S
C164 H131 0.930 . S
C164 C166 1.406 . S
C164 C169 1.261 . S
C165 H132 0.930 . S
C165 N167 1.325 . S
C165 C168 1.357 . S
C166 H134 0.928 . S
C166 C164 1.406 . S
C166 N167 1.261 . S
N167 Co118 2.214 . S
N167 C165 1.325 . S
N167 C166 1.261 . S
C168 H138 0.931 . S
C168 C165 1.357 . S
C168 C169 1.312 . S
C169 H140 0.930 . S
C169 C164 1.261 . S
C169 C168 1.312 . S
C170 O142 1.214 . S
C170 O150 1.234 . S
C171 H143 0.929 . S
C171 C174 1.391 . S
C171 C176 1.391 . S
C172 H144 0.929 1_454 S
C172 C173 1.390 . S
C172 N175 1.391 . S
C173 H145 0.930 . S
C173 C172 1.390 . S
C173 C174 1.392 . S
C174 H146 0.929 . S
C174 C171 1.391 . S
C174 C173 1.392 . S
N175 Co119 2.257 1_455 S
N175 C172 1.391 . S
N175 C176 1.388 . S
C176 H147 0.930 . S
C176 C171 1.391 . S
C176 N175 1.388 . S
Co177 O179 2.143 . S
Co177 O185 2.074 . S
Co177 O188 2.093 . S
Co177 O201 2.097 . S
Co177 N218 2.151 . S
Co177 N226 2.214 . S
Co178 O179 2.160 . S
Co178 O184 2.058 . S
Co178 O194 2.057 . S
Co178 O209 2.037 . S
Co178 N213 2.145 1_554 S
Co178 N234 2.257 1_565 S
O179 Co177 2.143 . S
O179 Co178 2.160 . S
C180 O181 1.278 . S
C180 O188 1.224 . S
O181 C180 1.278 . S
C182 O183 1.245 . S
C182 O194 1.232 . S
O183 C182 1.245 . S
O184 Co178 2.058 . S
O184 C210 1.269 . S
O185 Co177 2.074 . S
O185 C210 1.257 . S
H186 C211 0.930 . S
H187 C217 0.930 . S
O188 Co177 2.093 . S
O188 C180 1.224 . S
H189 C221 0.929 . S
H190 C223 0.930 . S
H191 C224 0.930 . S
H192 C222 0.929 . S
H193 C225 0.928 . S
O194 Co178 2.057 . S
O194 C182 1.232 . S
H195 C214 0.929 . S
H196 C215 0.929 1_545 S
H197 C227 0.931 . S
H198 C219 0.929 . S
H199 C228 0.930 . S
H200 C220 0.931 . S
O201 Co177 2.097 . S
O201 C229 1.214 . S
H202 C230 0.929 . S
H203 C231 0.929 1_566 S
H204 C232 0.930 . S
H205 C233 0.929 . S
H206 C235 0.930 . S
H207 C212 0.930 1_545 S
H208 C216 0.930 . S
O209 Co178 2.037 . S
O209 C229 1.234 . S
C210 O184 1.269 . S
C210 O185 1.257 . S
C211 H186 0.930 . S
C211 C214 1.388 . S
C211 C216 1.418 . S
C212 H207 0.930 1_565 S
C212 C215 1.404 . S
C212 C216 1.353 . S
N213 Co178 2.145 1_556 S
N213 C214 1.397 . S
N213 C215 1.334 . S
C214 H195 0.929 . S
C214 C211 1.388 . S
C214 N213 1.397 . S
C215 H196 0.929 1_565 S
C215 C212 1.404 . S
C215 N213 1.334 . S
C216 H208 0.930 . S
C216 C211 1.418 . S
C216 C212 1.353 . S
C217 H187 0.930 . S
C217 N218 1.330 . S
C217 C219 1.446 . S
N218 Co177 2.151 . S
N218 C217 1.330 . S
N218 C222 1.418 . S
C219 H198 0.929 . S
C219 C217 1.446 . S
C219 C220 1.332 . S
C220 H200 0.931 . S
C220 C219 1.332 . S
C220 C221 1.267 . S
C221 H189 0.929 . S
C221 C220 1.267 . S
C221 C222 1.251 . S
C222 H192 0.929 . S
C222 N218 1.418 . S
C222 C221 1.251 . S
C223 H190 0.930 . S
C223 C225 1.406 . S
C223 C228 1.261 . S
C224 H191 0.930 . S
C224 N226 1.325 . S
C224 C227 1.357 . S
C225 H193 0.928 . S
C225 C223 1.406 . S
C225 N226 1.261 . S
N226 Co177 2.214 . S
N226 C224 1.325 . S
N226 C225 1.261 . S
C227 H197 0.931 . S
C227 C224 1.357 . S
C227 C228 1.312 . S
C228 H199 0.930 . S
C228 C223 1.261 . S
C228 C227 1.312 . S
C229 O201 1.214 . S
C229 O209 1.234 . S
C230 H202 0.929 . S
C230 C233 1.391 . S
C230 C235 1.391 . S
C231 H203 0.929 1_544 S
C231 C232 1.390 . S
C231 N234 1.391 . S
C232 H204 0.930 . S
C232 C231 1.390 . S
C232 C233 1.392 . S
C233 H205 0.929 . S
C233 C230 1.391 . S
C233 C232 1.392 . S
N234 Co178 2.257 1_545 S
N234 C231 1.391 . S
N234 C235 1.388 . S
C235 H206 0.930 . S
C235 C230 1.391 . S
C235 N234 1.388 . S
Co236 O238 2.143 . S
Co236 O244 2.074 . S
Co236 O247 2.093 . S
Co236 O260 2.097 . S
Co236 N277 2.151 . S
Co236 N285 2.214 . S
Co237 O238 2.160 . S
Co237 O243 2.058 . S
Co237 O253 2.057 . S
Co237 O268 2.037 . S
Co237 N272 2.145 . S
Co237 N293 2.257 . S
O238 Co236 2.143 . S
O238 Co237 2.160 . S
C239 O240 1.278 . S
C239 O247 1.224 . S
O240 C239 1.278 . S
C241 O242 1.245 . S
C241 O253 1.232 . S
O242 C241 1.245 . S
O243 Co237 2.058 . S
O243 C269 1.269 . S
O244 Co236 2.074 . S
O244 C269 1.257 . S
H245 C270 0.930 . S
H246 C276 0.930 . S
O247 Co236 2.093 . S
O247 C239 1.224 . S
H248 C280 0.929 . S
H249 C282 0.930 . S
H250 C283 0.930 . S
H251 C281 0.929 . S
H252 C284 0.928 . S
O253 Co237 2.057 . S
O253 C241 1.232 . S
H254 C273 0.929 . S
H255 C274 0.929 . S
H256 C286 0.931 . S
H257 C278 0.929 . S
H258 C287 0.930 . S
H259 C279 0.931 . S
O260 Co236 2.097 . S
O260 C288 1.214 . S
H261 C289 0.929 . S
H262 C290 0.929 . S
H263 C291 0.930 . S
H264 C292 0.929 . S
H265 C294 0.930 . S
H266 C271 0.930 . S
H267 C275 0.930 . S
O268 Co237 2.037 . S
O268 C288 1.234 . S
C269 O243 1.269 . S
C269 O244 1.257 . S
C270 H245 0.930 . S
C270 C273 1.388 . S
C270 C275 1.418 . S
C271 H266 0.930 . S
C271 C274 1.404 . S
C271 C275 1.353 . S
N272 Co237 2.145 . S
N272 C273 1.397 . S
N272 C274 1.334 . S
C273 H254 0.929 . S
C273 C270 1.388 . S
C273 N272 1.397 . S
C274 H255 0.929 . S
C274 C271 1.404 . S
C274 N272 1.334 . S
C275 H267 0.930 . S
C275 C270 1.418 . S
C275 C271 1.353 . S
C276 H246 0.930 . S
C276 N277 1.330 . S
C276 C278 1.446 . S
N277 Co236 2.151 . S
N277 C276 1.330 . S
N277 C281 1.418 . S
C278 H257 0.929 . S
C278 C276 1.446 . S
C278 C279 1.332 . S
C279 H259 0.931 . S
C279 C278 1.332 . S
C279 C280 1.267 . S
C280 H248 0.929 . S
C280 C279 1.267 . S
C280 C281 1.251 . S
C281 H251 0.929 . S
C281 N277 1.418 . S
C281 C280 1.251 . S
C282 H249 0.930 . S
C282 C284 1.406 . S
C282 C287 1.261 . S
C283 H250 0.930 . S
C283 N285 1.325 . S
C283 C286 1.357 . S
C284 H252 0.928 . S
C284 C282 1.406 . S
C284 N285 1.261 . S
N285 Co236 2.214 . S
N285 C283 1.325 . S
N285 C284 1.261 . S
C286 H256 0.931 . S
C286 C283 1.357 . S
C286 C287 1.312 . S
C287 H258 0.930 . S
C287 C282 1.261 . S
C287 C286 1.312 . S
C288 O260 1.214 . S
C288 O268 1.234 . S
C289 H261 0.929 . S
C289 C292 1.391 . S
C289 C294 1.391 . S
C290 H262 0.929 . S
C290 C291 1.390 . S
C290 N293 1.391 . S
C291 H263 0.930 . S
C291 C290 1.390 . S
C291 C292 1.392 . S
C292 H264 0.929 . S
C292 C289 1.391 . S
C292 C291 1.392 . S
N293 Co237 2.257 . S
N293 C290 1.391 . S
N293 C294 1.388 . S
C294 H265 0.930 . S
C294 C289 1.391 . S
C294 N293 1.388 . S
Co295 O297 2.143 . S
Co295 O303 2.074 . S
Co295 O306 2.093 . S
Co295 O319 2.097 . S
Co295 N336 2.151 . S
Co295 N344 2.214 . S
Co296 O297 2.160 . S
Co296 O302 2.058 . S
Co296 O312 2.057 . S
Co296 O327 2.037 . S
Co296 N331 2.145 . S
Co296 N352 2.257 . S
O297 Co295 2.143 . S
O297 Co296 2.160 . S
C298 O299 1.278 . S
C298 O306 1.224 . S
O299 C298 1.278 . S
C300 O301 1.245 . S
C300 O312 1.232 . S
O301 C300 1.245 . S
O302 Co296 2.058 . S
O302 C328 1.269 . S
O303 Co295 2.074 . S
O303 C328 1.257 . S
H304 C329 0.930 . S
H305 C335 0.930 . S
O306 Co295 2.093 . S
O306 C298 1.224 . S
H307 C339 0.929 . S
H308 C341 0.930 . S
H309 C342 0.930 . S
H310 C340 0.929 . S
H311 C343 0.928 . S
O312 Co296 2.057 . S
O312 C300 1.232 . S
H313 C332 0.929 . S
H314 C333 0.929 . S
H315 C345 0.931 . S
H316 C337 0.929 . S
H317 C346 0.930 . S
H318 C338 0.931 . S
O319 Co295 2.097 . S
O319 C347 1.214 . S
H320 C348 0.929 . S
H321 C349 0.929 . S
H322 C350 0.930 . S
H323 C351 0.929 . S
H324 C353 0.930 . S
H325 C330 0.930 . S
H326 C334 0.930 . S
O327 Co296 2.037 . S
O327 C347 1.234 . S
C328 O302 1.269 . S
C328 O303 1.257 . S
C329 H304 0.930 . S
C329 C332 1.388 . S
C329 C334 1.418 . S
C330 H325 0.930 . S
C330 C333 1.404 . S
C330 C334 1.353 . S
N331 Co296 2.145 . S
N331 C332 1.397 . S
N331 C333 1.334 . S
C332 H313 0.929 . S
C332 C329 1.388 . S
C332 N331 1.397 . S
C333 H314 0.929 . S
C333 C330 1.404 . S
C333 N331 1.334 . S
C334 H326 0.930 . S
C334 C329 1.418 . S
C334 C330 1.353 . S
C335 H305 0.930 . S
C335 N336 1.330 . S
C335 C337 1.446 . S
N336 Co295 2.151 . S
N336 C335 1.330 . S
N336 C340 1.418 . S
C337 H316 0.929 . S
C337 C335 1.446 . S
C337 C338 1.332 . S
C338 H318 0.931 . S
C338 C337 1.332 . S
C338 C339 1.267 . S
C339 H307 0.929 . S
C339 C338 1.267 . S
C339 C340 1.251 . S
C340 H310 0.929 . S
C340 N336 1.418 . S
C340 C339 1.251 . S
C341 H308 0.930 . S
C341 C343 1.406 . S
C341 C346 1.261 . S
C342 H309 0.930 . S
C342 N344 1.325 . S
C342 C345 1.357 . S
C343 H311 0.928 . S
C343 C341 1.406 . S
C343 N344 1.261 . S
N344 Co295 2.214 . S
N344 C342 1.325 . S
N344 C343 1.261 . S
C345 H315 0.931 . S
C345 C342 1.357 . S
C345 C346 1.312 . S
C346 H317 0.930 . S
C346 C341 1.261 . S
C346 C345 1.312 . S
C347 O319 1.214 . S
C347 O327 1.234 . S
C348 H320 0.929 . S
C348 C351 1.391 . S
C348 C353 1.391 . S
C349 H321 0.929 . S
C349 C350 1.390 . S
C349 N352 1.391 . S
C350 H322 0.930 . S
C350 C349 1.390 . S
C350 C351 1.392 . S
C351 H323 0.929 . S
C351 C348 1.391 . S
C351 C350 1.392 . S
N352 Co296 2.257 . S
N352 C349 1.391 . S
N352 C353 1.388 . S
C353 H324 0.930 . S
C353 C348 1.391 . S
C353 N352 1.388 . S
Co354 O356 2.143 . S
Co354 O362 2.074 . S
Co354 O365 2.093 . S
Co354 O378 2.097 . S
Co354 N395 2.151 . S
Co354 N403 2.214 . S
Co355 O356 2.160 . S
Co355 O361 2.058 . S
Co355 O371 2.057 . S
Co355 O386 2.037 . S
Co355 N390 2.145 . S
Co355 N411 2.257 1_655 S
O356 Co354 2.143 . S
O356 Co355 2.160 . S
C357 O358 1.278 . S
C357 O365 1.224 . S
O358 C357 1.278 . S
C359 O360 1.245 . S
C359 O371 1.232 . S
O360 C359 1.245 . S
O361 Co355 2.058 . S
O361 C387 1.269 . S
O362 Co354 2.074 . S
O362 C387 1.257 . S
H363 C388 0.930 . S
H364 C394 0.930 . S
O365 Co354 2.093 . S
O365 C357 1.224 . S
H366 C398 0.929 . S
H367 C400 0.930 . S
H368 C401 0.930 . S
H369 C399 0.929 . S
H370 C402 0.928 . S
O371 Co355 2.057 . S
O371 C359 1.232 . S
H372 C391 0.929 . S
H373 C392 0.929 1_455 S
H374 C404 0.931 . S
H375 C396 0.929 . S
H376 C405 0.930 . S
H377 C397 0.931 . S
O378 Co354 2.097 . S
O378 C406 1.214 . S
H379 C407 0.929 . S
H380 C408 0.929 1_655 S
H381 C409 0.930 . S
H382 C410 0.929 . S
H383 C412 0.930 . S
H384 C389 0.930 1_455 S
H385 C393 0.930 . S
O386 Co355 2.037 . S
O386 C406 1.234 . S
C387 O361 1.269 . S
C387 O362 1.257 . S
C388 H363 0.930 . S
C388 C391 1.388 . S
C388 C393 1.418 . S
C389 H384 0.930 1_655 S
C389 C392 1.404 . S
C389 C393 1.353 . S
N390 Co355 2.145 . S
N390 C391 1.397 . S
N390 C392 1.334 . S
C391 H372 0.929 . S
C391 C388 1.388 . S
C391 N390 1.397 . S
C392 H373 0.929 1_655 S
C392 C389 1.404 . S
C392 N390 1.334 . S
C393 H385 0.930 . S
C393 C388 1.418 . S
C393 C389 1.353 . S
C394 H364 0.930 . S
C394 N395 1.330 . S
C394 C396 1.446 . S
N395 Co354 2.151 . S
N395 C394 1.330 . S
N395 C399 1.418 . S
C396 H375 0.929 . S
C396 C394 1.446 . S
C396 C397 1.332 . S
C397 H377 0.931 . S
C397 C396 1.332 . S
C397 C398 1.267 . S
C398 H366 0.929 . S
C398 C397 1.267 . S
C398 C399 1.251 . S
C399 H369 0.929 . S
C399 N395 1.418 . S
C399 C398 1.251 . S
C400 H367 0.930 . S
C400 C402 1.406 . S
C400 C405 1.261 . S
C401 H368 0.930 . S
C401 N403 1.325 . S
C401 C404 1.357 . S
C402 H370 0.928 . S
C402 C400 1.406 . S
C402 N403 1.261 . S
N403 Co354 2.214 . S
N403 C401 1.325 . S
N403 C402 1.261 . S
C404 H374 0.931 . S
C404 C401 1.357 . S
C404 C405 1.312 . S
C405 H376 0.930 . S
C405 C400 1.261 . S
C405 C404 1.312 . S
C406 O378 1.214 . S
C406 O386 1.234 . S
C407 H379 0.929 . S
C407 C410 1.391 . S
C407 C412 1.391 . S
C408 H380 0.929 1_455 S
C408 C409 1.390 . S
C408 N411 1.391 . S
C409 H381 0.930 . S
C409 C408 1.390 . S
C409 C410 1.392 . S
C410 H382 0.929 . S
C410 C407 1.391 . S
C410 C409 1.392 . S
N411 Co355 2.257 1_455 S
N411 C408 1.391 . S
N411 C412 1.388 . S
C412 H383 0.930 . S
C412 C407 1.391 . S
C412 N411 1.388 . S
Co413 O415 2.143 . S
Co413 O421 2.074 . S
Co413 O424 2.093 . S
Co413 O437 2.097 . S
Co413 N454 2.151 . S
Co413 N462 2.214 . S
Co414 O415 2.160 . S
Co414 O420 2.058 . S
Co414 O430 2.057 . S
Co414 O445 2.037 . S
Co414 N449 2.145 . S
Co414 N470 2.257 1_565 S
O415 Co413 2.143 . S
O415 Co414 2.160 . S
C416 O417 1.278 . S
C416 O424 1.224 . S
O417 C416 1.278 . S
C418 O419 1.245 . S
C418 O430 1.232 . S
O419 C418 1.245 . S
O420 Co414 2.058 . S
O420 C446 1.269 . S
O421 Co413 2.074 . S
O421 C446 1.257 . S
H422 C447 0.930 . S
H423 C453 0.930 . S
O424 Co413 2.093 . S
O424 C416 1.224 . S
H425 C457 0.929 . S
H426 C459 0.930 . S
H427 C460 0.930 . S
H428 C458 0.929 . S
H429 C461 0.928 . S
O430 Co414 2.057 . S
O430 C418 1.232 . S
H431 C450 0.929 . S
H432 C451 0.929 1_545 S
H433 C463 0.931 . S
H434 C455 0.929 . S
H435 C464 0.930 . S
H436 C456 0.931 . S
O437 Co413 2.097 . S
O437 C465 1.214 . S
H438 C466 0.929 . S
H439 C467 0.929 1_565 S
H440 C468 0.930 . S
H441 C469 0.929 . S
H442 C471 0.930 . S
H443 C448 0.930 1_545 S
H444 C452 0.930 . S
O445 Co414 2.037 . S
O445 C465 1.234 . S
C446 O420 1.269 . S
C446 O421 1.257 . S
C447 H422 0.930 . S
C447 C450 1.388 . S
C447 C452 1.418 . S
C448 H443 0.930 1_565 S
C448 C451 1.404 . S
C448 C452 1.353 . S
N449 Co414 2.145 . S
N449 C450 1.397 . S
N449 C451 1.334 . S
C450 H431 0.929 . S
C450 C447 1.388 . S
C450 N449 1.397 . S
C451 H432 0.929 1_565 S
C451 C448 1.404 . S
C451 N449 1.334 . S
C452 H444 0.930 . S
C452 C447 1.418 . S
C452 C448 1.353 . S
C453 H423 0.930 . S
C453 N454 1.330 . S
C453 C455 1.446 . S
N454 Co413 2.151 . S
N454 C453 1.330 . S
N454 C458 1.418 . S
C455 H434 0.929 . S
C455 C453 1.446 . S
C455 C456 1.332 . S
C456 H436 0.931 . S
C456 C455 1.332 . S
C456 C457 1.267 . S
C457 H425 0.929 . S
C457 C456 1.267 . S
C457 C458 1.251 . S
C458 H428 0.929 . S
C458 N454 1.418 . S
C458 C457 1.251 . S
C459 H426 0.930 . S
C459 C461 1.406 . S
C459 C464 1.261 . S
C460 H427 0.930 . S
C460 N462 1.325 . S
C460 C463 1.357 . S
C461 H429 0.928 . S
C461 C459 1.406 . S
C461 N462 1.261 . S
N462 Co413 2.214 . S
N462 C460 1.325 . S
N462 C461 1.261 . S
C463 H433 0.931 . S
C463 C460 1.357 . S
C463 C464 1.312 . S
C464 H435 0.930 . S
C464 C459 1.261 . S
C464 C463 1.312 . S
C465 O437 1.214 . S
C465 O445 1.234 . S
C466 H438 0.929 . S
C466 C469 1.391 . S
C466 C471 1.391 . S
C467 H439 0.929 1_545 S
C467 C468 1.390 . S
C467 N470 1.391 . S
C468 H440 0.930 . S
C468 C467 1.390 . S
C468 C469 1.392 . S
C469 H441 0.929 . S
C469 C466 1.391 . S
C469 C468 1.392 . S
N470 Co414 2.257 1_545 S
N470 C467 1.391 . S
N470 C471 1.388 . S
C471 H442 0.930 . S
C471 C466 1.391 . S
C471 N470 1.388 . S
Co472 O474 2.143 . S
Co472 O480 2.074 . S
Co472 O483 2.093 . S
Co472 O496 2.097 . S
Co472 N513 2.151 . S
Co472 N521 2.214 . S
Co473 O474 2.160 . S
Co473 O479 2.058 . S
Co473 O489 2.057 . S
Co473 O504 2.037 . S
Co473 N508 2.145 1_556 S
Co473 N529 2.257 . S
O474 Co472 2.143 . S
O474 Co473 2.160 . S
C475 O476 1.278 . S
C475 O483 1.224 . S
O476 C475 1.278 . S
C477 O478 1.245 . S
C477 O489 1.232 . S
O478 C477 1.245 . S
O479 Co473 2.058 . S
O479 C505 1.269 . S
O480 Co472 2.074 . S
O480 C505 1.257 . S
H481 C506 0.930 . S
H482 C512 0.930 . S
O483 Co472 2.093 . S
O483 C475 1.224 . S
H484 C516 0.929 . S
H485 C518 0.930 . S
H486 C519 0.930 . S
H487 C517 0.929 . S
H488 C520 0.928 . S
O489 Co473 2.057 . S
O489 C477 1.232 . S
H490 C509 0.929 . S
H491 C510 0.929 . S
H492 C522 0.931 . S
H493 C514 0.929 . S
H494 C523 0.930 . S
H495 C515 0.931 . S
O496 Co472 2.097 . S
O496 C524 1.214 . S
H497 C525 0.929 . S
H498 C526 0.929 1_554 S
H499 C527 0.930 . S
H500 C528 0.929 . S
H501 C530 0.930 . S
H502 C507 0.930 . S
H503 C511 0.930 . S
O504 Co473 2.037 . S
O504 C524 1.234 . S
C505 O479 1.269 . S
C505 O480 1.257 . S
C506 H481 0.930 . S
C506 C509 1.388 . S
C506 C511 1.418 . S
C507 H502 0.930 . S
C507 C510 1.404 . S
C507 C511 1.353 . S
N508 Co473 2.145 1_554 S
N508 C509 1.397 . S
N508 C510 1.334 . S
C509 H490 0.929 . S
C509 C506 1.388 . S
C509 N508 1.397 . S
C510 H491 0.929 . S
C510 C507 1.404 . S
C510 N508 1.334 . S
C511 H503 0.930 . S
C511 C506 1.418 . S
C511 C507 1.353 . S
C512 H482 0.930 . S
C512 N513 1.330 . S
C512 C514 1.446 . S
N513 Co472 2.151 . S
N513 C512 1.330 . S
N513 C517 1.418 . S
C514 H493 0.929 . S
C514 C512 1.446 . S
C514 C515 1.332 . S
C515 H495 0.931 . S
C515 C514 1.332 . S
C515 C516 1.267 . S
C516 H484 0.929 . S
C516 C515 1.267 . S
C516 C517 1.251 . S
C517 H487 0.929 . S
C517 N513 1.418 . S
C517 C516 1.251 . S
C518 H485 0.930 . S
C518 C520 1.406 . S
C518 C523 1.261 . S
C519 H486 0.930 . S
C519 N521 1.325 . S
C519 C522 1.357 . S
C520 H488 0.928 . S
C520 C518 1.406 . S
C520 N521 1.261 . S
N521 Co472 2.214 . S
N521 C519 1.325 . S
N521 C520 1.261 . S
C522 H492 0.931 . S
C522 C519 1.357 . S
C522 C523 1.312 . S
C523 H494 0.930 . S
C523 C518 1.261 . S
C523 C522 1.312 . S
C524 O496 1.214 . S
C524 O504 1.234 . S
C525 H497 0.929 . S
C525 C528 1.391 . S
C525 C530 1.391 . S
C526 H498 0.929 1_556 S
C526 C527 1.390 . S
C526 N529 1.391 . S
C527 H499 0.930 . S
C527 C526 1.390 . S
C527 C528 1.392 . S
C528 H500 0.929 . S
C528 C525 1.391 . S
C528 C527 1.392 . S
N529 Co473 2.257 . S
N529 C526 1.391 . S
N529 C530 1.388 . S
C530 H501 0.930 . S
C530 C525 1.391 . S
C530 N529 1.388 . S
Co531 O533 2.143 . S
Co531 O539 2.074 . S
Co531 O542 2.093 . S
Co531 O555 2.097 . S
Co531 N572 2.151 . S
Co531 N580 2.214 . S
Co532 O533 2.160 . S
Co532 O538 2.058 . S
Co532 O548 2.057 . S
Co532 O563 2.037 . S
Co532 N567 2.145 1_556 S
Co532 N588 2.257 . S
O533 Co531 2.143 . S
O533 Co532 2.160 . S
C534 O535 1.278 . S
C534 O542 1.224 . S
O535 C534 1.278 . S
C536 O537 1.245 . S
C536 O548 1.232 . S
O537 C536 1.245 . S
O538 Co532 2.058 . S
O538 C564 1.269 . S
O539 Co531 2.074 . S
O539 C564 1.257 . S
H540 C565 0.930 . S
H541 C571 0.930 . S
O542 Co531 2.093 . S
O542 C534 1.224 . S
H543 C575 0.929 . S
H544 C577 0.930 . S
H545 C578 0.930 . S
H546 C576 0.929 . S
H547 C579 0.928 . S
O548 Co532 2.057 . S
O548 C536 1.232 . S
H549 C568 0.929 . S
H550 C569 0.929 . S
H551 C581 0.931 . S
H552 C573 0.929 . S
H553 C582 0.930 . S
H554 C574 0.931 . S
O555 Co531 2.097 . S
O555 C583 1.214 . S
H556 C584 0.929 . S
H557 C585 0.929 1_554 S
H558 C586 0.930 . S
H559 C587 0.929 . S
H560 C589 0.930 . S
H561 C566 0.930 . S
H562 C570 0.930 . S
O563 Co532 2.037 . S
O563 C583 1.234 . S
C564 O538 1.269 . S
C564 O539 1.257 . S
C565 H540 0.930 . S
C565 C568 1.388 . S
C565 C570 1.418 . S
C566 H561 0.930 . S
C566 C569 1.404 . S
C566 C570 1.353 . S
N567 Co532 2.145 1_554 S
N567 C568 1.397 . S
N567 C569 1.334 . S
C568 H549 0.929 . S
C568 C565 1.388 . S
C568 N567 1.397 . S
C569 H550 0.929 . S
C569 C566 1.404 . S
C569 N567 1.334 . S
C570 H562 0.930 . S
C570 C565 1.418 . S
C570 C566 1.353 . S
C571 H541 0.930 . S
C571 N572 1.330 . S
C571 C573 1.446 . S
N572 Co531 2.151 . S
N572 C571 1.330 . S
N572 C576 1.418 . S
C573 H552 0.929 . S
C573 C571 1.446 . S
C573 C574 1.332 . S
C574 H554 0.931 . S
C574 C573 1.332 . S
C574 C575 1.267 . S
C575 H543 0.929 . S
C575 C574 1.267 . S
C575 C576 1.251 . S
C576 H546 0.929 . S
C576 N572 1.418 . S
C576 C575 1.251 . S
C577 H544 0.930 . S
C577 C579 1.406 . S
C577 C582 1.261 . S
C578 H545 0.930 . S
C578 N580 1.325 . S
C578 C581 1.357 . S
C579 H547 0.928 . S
C579 C577 1.406 . S
C579 N580 1.261 . S
N580 Co531 2.214 . S
N580 C578 1.325 . S
N580 C579 1.261 . S
C581 H551 0.931 . S
C581 C578 1.357 . S
C581 C582 1.312 . S
C582 H553 0.930 . S
C582 C577 1.261 . S
C582 C581 1.312 . S
C583 O555 1.214 . S
C583 O563 1.234 . S
C584 H556 0.929 . S
C584 C587 1.391 . S
C584 C589 1.391 . S
C585 H557 0.929 1_556 S
C585 C586 1.390 . S
C585 N588 1.391 . S
C586 H558 0.930 . S
C586 C585 1.390 . S
C586 C587 1.392 . S
C587 H559 0.929 . S
C587 C584 1.391 . S
C587 C586 1.392 . S
N588 Co532 2.257 . S
N588 C585 1.391 . S
N588 C589 1.388 . S
C589 H560 0.930 . S
C589 C584 1.391 . S
C589 N588 1.388 . S
Co590 O592 2.143 . S
Co590 O598 2.074 . S
Co590 O601 2.093 . S
Co590 O614 2.097 . S
Co590 N631 2.151 . S
Co590 N639 2.214 . S
Co591 O592 2.160 . S
Co591 O597 2.058 . S
Co591 O607 2.057 . S
Co591 O622 2.037 . S
Co591 N626 2.145 1_556 S
Co591 N647 2.257 1_455 S
O592 Co590 2.143 . S
O592 Co591 2.160 . S
C593 O594 1.278 . S
C593 O601 1.224 . S
O594 C593 1.278 . S
C595 O596 1.245 . S
C595 O607 1.232 . S
O596 C595 1.245 . S
O597 Co591 2.058 . S
O597 C623 1.269 . S
O598 Co590 2.074 . S
O598 C623 1.257 . S
H599 C624 0.930 . S
H600 C630 0.930 . S
O601 Co590 2.093 . S
O601 C593 1.224 . S
H602 C634 0.929 . S
H603 C636 0.930 . S
H604 C637 0.930 . S
H605 C635 0.929 . S
H606 C638 0.928 . S
O607 Co591 2.057 . S
O607 C595 1.232 . S
H608 C627 0.929 . S
H609 C628 0.929 1_655 S
H610 C640 0.931 . S
H611 C632 0.929 . S
H612 C641 0.930 . S
H613 C633 0.931 . S
O614 Co590 2.097 . S
O614 C642 1.214 . S
H615 C643 0.929 . S
H616 C644 0.929 1_454 S
H617 C645 0.930 . S
H618 C646 0.929 . S
H619 C648 0.930 . S
H620 C625 0.930 1_655 S
H621 C629 0.930 . S
O622 Co591 2.037 . S
O622 C642 1.234 . S
C623 O597 1.269 . S
C623 O598 1.257 . S
C624 H599 0.930 . S
C624 C627 1.388 . S
C624 C629 1.418 . S
C625 H620 0.930 1_455 S
C625 C628 1.404 . S
C625 C629 1.353 . S
N626 Co591 2.145 1_554 S
N626 C627 1.397 . S
N626 C628 1.334 . S
C627 H608 0.929 . S
C627 C624 1.388 . S
C627 N626 1.397 . S
C628 H609 0.929 1_455 S
C628 C625 1.404 . S
C628 N626 1.334 . S
C629 H621 0.930 . S
C629 C624 1.418 . S
C629 C625 1.353 . S
C630 H600 0.930 . S
C630 N631 1.330 . S
C630 C632 1.446 . S
N631 Co590 2.151 . S
N631 C630 1.330 . S
N631 C635 1.418 . S
C632 H611 0.929 . S
C632 C630 1.446 . S
C632 C633 1.332 . S
C633 H613 0.931 . S
C633 C632 1.332 . S
C633 C634 1.267 . S
C634 H602 0.929 . S
C634 C633 1.267 . S
C634 C635 1.251 . S
C635 H605 0.929 . S
C635 N631 1.418 . S
C635 C634 1.251 . S
C636 H603 0.930 . S
C636 C638 1.406 . S
C636 C641 1.261 . S
C637 H604 0.930 . S
C637 N639 1.325 . S
C637 C640 1.357 . S
C638 H606 0.928 . S
C638 C636 1.406 . S
C638 N639 1.261 . S
N639 Co590 2.214 . S
N639 C637 1.325 . S
N639 C638 1.261 . S
C640 H610 0.931 . S
C640 C637 1.357 . S
C640 C641 1.312 . S
C641 H612 0.930 . S
C641 C636 1.261 . S
C641 C640 1.312 . S
C642 O614 1.214 . S
C642 O622 1.234 . S
C643 H615 0.929 . S
C643 C646 1.391 . S
C643 C648 1.391 . S
C644 H616 0.929 1_656 S
C644 C645 1.390 . S
C644 N647 1.391 . S
C645 H617 0.930 . S
C645 C644 1.390 . S
C645 C646 1.392 . S
C646 H618 0.929 . S
C646 C643 1.391 . S
C646 C645 1.392 . S
N647 Co591 2.257 1_655 S
N647 C644 1.391 . S
N647 C648 1.388 . S
C648 H619 0.930 . S
C648 C643 1.391 . S
C648 N647 1.388 . S
Co649 O651 2.143 . S
Co649 O657 2.074 . S
Co649 O660 2.093 . S
Co649 O673 2.097 . S
Co649 N690 2.151 . S
Co649 N698 2.214 . S
Co650 O651 2.160 . S
Co650 O656 2.058 . S
Co650 O666 2.057 . S
Co650 O681 2.037 . S
Co650 N685 2.145 1_556 S
Co650 N706 2.257 1_545 S
O651 Co649 2.143 . S
O651 Co650 2.160 . S
C652 O653 1.278 . S
C652 O660 1.224 . S
O653 C652 1.278 . S
C654 O655 1.245 . S
C654 O666 1.232 . S
O655 C654 1.245 . S
O656 Co650 2.058 . S
O656 C682 1.269 . S
O657 Co649 2.074 . S
O657 C682 1.257 . S
H658 C683 0.930 . S
H659 C689 0.930 . S
O660 Co649 2.093 . S
O660 C652 1.224 . S
H661 C693 0.929 . S
H662 C695 0.930 . S
H663 C696 0.930 . S
H664 C694 0.929 . S
H665 C697 0.928 . S
O666 Co650 2.057 . S
O666 C654 1.232 . S
H667 C686 0.929 . S
H668 C687 0.929 1_565 S
H669 C699 0.931 . S
H670 C691 0.929 . S
H671 C700 0.930 . S
H672 C692 0.931 . S
O673 Co649 2.097 . S
O673 C701 1.214 . S
H674 C702 0.929 . S
H675 C703 0.929 1_544 S
H676 C704 0.930 . S
H677 C705 0.929 . S
H678 C707 0.930 . S
H679 C684 0.930 1_565 S
H680 C688 0.930 . S
O681 Co650 2.037 . S
O681 C701 1.234 . S
C682 O656 1.269 . S
C682 O657 1.257 . S
C683 H658 0.930 . S
C683 C686 1.388 . S
C683 C688 1.418 . S
C684 H679 0.930 1_545 S
C684 C687 1.404 . S
C684 C688 1.353 . S
N685 Co650 2.145 1_554 S
N685 C686 1.397 . S
N685 C687 1.334 . S
C686 H667 0.929 . S
C686 C683 1.388 . S
C686 N685 1.397 . S
C687 H668 0.929 1_545 S
C687 C684 1.404 . S
C687 N685 1.334 . S
C688 H680 0.930 . S
C688 C683 1.418 . S
C688 C684 1.353 . S
C689 H659 0.930 . S
C689 N690 1.330 . S
C689 C691 1.446 . S
N690 Co649 2.151 . S
N690 C689 1.330 . S
N690 C694 1.418 . S
C691 H670 0.929 . S
C691 C689 1.446 . S
C691 C692 1.332 . S
C692 H672 0.931 . S
C692 C691 1.332 . S
C692 C693 1.267 . S
C693 H661 0.929 . S
C693 C692 1.267 . S
C693 C694 1.251 . S
C694 H664 0.929 . S
C694 N690 1.418 . S
C694 C693 1.251 . S
C695 H662 0.930 . S
C695 C697 1.406 . S
C695 C700 1.261 . S
C696 H663 0.930 . S
C696 N698 1.325 . S
C696 C699 1.357 . S
C697 H665 0.928 . S
C697 C695 1.406 . S
C697 N698 1.261 . S
N698 Co649 2.214 . S
N698 C696 1.325 . S
N698 C697 1.261 . S
C699 H669 0.931 . S
C699 C696 1.357 . S
C699 C700 1.312 . S
C700 H671 0.930 . S
C700 C695 1.261 . S
C700 C699 1.312 . S
C701 O673 1.214 . S
C701 O681 1.234 . S
C702 H674 0.929 . S
C702 C705 1.391 . S
C702 C707 1.391 . S
C703 H675 0.929 1_566 S
C703 C704 1.390 . S
C703 N706 1.391 . S
C704 H676 0.930 . S
C704 C703 1.390 . S
C704 C705 1.392 . S
C705 H677 0.929 . S
C705 C702 1.391 . S
C705 C704 1.392 . S
N706 Co650 2.257 1_565 S
N706 C703 1.391 . S
N706 C707 1.388 . S
C707 H678 0.930 . S
C707 C702 1.391 . S
C707 N706 1.388 . S
Co708 O710 2.143 . S
Co708 O716 2.074 . S
Co708 O719 2.093 . S
Co708 O732 2.097 . S
Co708 N749 2.151 . S
Co708 N757 2.214 . S
Co709 O710 2.160 . S
Co709 O715 2.058 . S
Co709 O725 2.057 . S
Co709 O740 2.037 . S
Co709 N744 2.145 . S
Co709 N765 2.257 . S
O710 Co708 2.143 . S
O710 Co709 2.160 . S
C711 O712 1.278 . S
C711 O719 1.224 . S
O712 C711 1.278 . S
C713 O714 1.245 . S
C713 O725 1.232 . S
O714 C713 1.245 . S
O715 Co709 2.058 . S
O715 C741 1.269 . S
O716 Co708 2.074 . S
O716 C741 1.257 . S
H717 C742 0.930 . S
H718 C748 0.930 . S
O719 Co708 2.093 . S
O719 C711 1.224 . S
H720 C752 0.929 . S
H721 C754 0.930 . S
H722 C755 0.930 . S
H723 C753 0.929 . S
H724 C756 0.928 . S
O725 Co709 2.057 . S
O725 C713 1.232 . S
H726 C745 0.929 . S
H727 C746 0.929 . S
H728 C758 0.931 . S
H729 C750 0.929 . S
H730 C759 0.930 . S
H731 C751 0.931 . S
O732 Co708 2.097 . S
O732 C760 1.214 . S
H733 C761 0.929 . S
H734 C762 0.929 . S
H735 C763 0.930 . S
H736 C764 0.929 . S
H737 C766 0.930 . S
H738 C743 0.930 . S
H739 C747 0.930 . S
O740 Co709 2.037 . S
O740 C760 1.234 . S
C741 O715 1.269 . S
C741 O716 1.257 . S
C742 H717 0.930 . S
C742 C745 1.388 . S
C742 C747 1.418 . S
C743 H738 0.930 . S
C743 C746 1.404 . S
C743 C747 1.353 . S
N744 Co709 2.145 . S
N744 C745 1.397 . S
N744 C746 1.334 . S
C745 H726 0.929 . S
C745 C742 1.388 . S
C745 N744 1.397 . S
C746 H727 0.929 . S
C746 C743 1.404 . S
C746 N744 1.334 . S
C747 H739 0.930 . S
C747 C742 1.418 . S
C747 C743 1.353 . S
C748 H718 0.930 . S
C748 N749 1.330 . S
C748 C750 1.446 . S
N749 Co708 2.151 . S
N749 C748 1.330 . S
N749 C753 1.418 . S
C750 H729 0.929 . S
C750 C748 1.446 . S
C750 C751 1.332 . S
C751 H731 0.931 . S
C751 C750 1.332 . S
C751 C752 1.267 . S
C752 H720 0.929 . S
C752 C751 1.267 . S
C752 C753 1.251 . S
C753 H723 0.929 . S
C753 N749 1.418 . S
C753 C752 1.251 . S
C754 H721 0.930 . S
C754 C756 1.406 . S
C754 C759 1.261 . S
C755 H722 0.930 . S
C755 N757 1.325 . S
C755 C758 1.357 . S
C756 H724 0.928 . S
C756 C754 1.406 . S
C756 N757 1.261 . S
N757 Co708 2.214 . S
N757 C755 1.325 . S
N757 C756 1.261 . S
C758 H728 0.931 . S
C758 C755 1.357 . S
C758 C759 1.312 . S
C759 H730 0.930 . S
C759 C754 1.261 . S
C759 C758 1.312 . S
C760 O732 1.214 . S
C760 O740 1.234 . S
C761 H733 0.929 . S
C761 C764 1.391 . S
C761 C766 1.391 . S
C762 H734 0.929 . S
C762 C763 1.390 . S
C762 N765 1.391 . S
C763 H735 0.930 . S
C763 C762 1.390 . S
C763 C764 1.392 . S
C764 H736 0.929 . S
C764 C761 1.391 . S
C764 C763 1.392 . S
N765 Co709 2.257 . S
N765 C762 1.391 . S
N765 C766 1.388 . S
C766 H737 0.930 . S
C766 C761 1.391 . S
C766 N765 1.388 . S
Co767 O769 2.143 . S
Co767 O775 2.074 . S
Co767 O778 2.093 . S
Co767 O791 2.097 . S
Co767 N808 2.151 . S
Co767 N816 2.214 . S
Co768 O769 2.160 . S
Co768 O774 2.058 . S
Co768 O784 2.057 . S
Co768 O799 2.037 . S
Co768 N803 2.145 . S
Co768 N824 2.257 . S
O769 Co767 2.143 . S
O769 Co768 2.160 . S
C770 O771 1.278 . S
C770 O778 1.224 . S
O771 C770 1.278 . S
C772 O773 1.245 . S
C772 O784 1.232 . S
O773 C772 1.245 . S
O774 Co768 2.058 . S
O774 C800 1.269 . S
O775 Co767 2.074 . S
O775 C800 1.257 . S
H776 C801 0.930 . S
H777 C807 0.930 . S
O778 Co767 2.093 . S
O778 C770 1.224 . S
H779 C811 0.929 . S
H780 C813 0.930 . S
H781 C814 0.930 . S
H782 C812 0.929 . S
H783 C815 0.928 . S
O784 Co768 2.057 . S
O784 C772 1.232 . S
H785 C804 0.929 . S
H786 C805 0.929 . S
H787 C817 0.931 . S
H788 C809 0.929 . S
H789 C818 0.930 . S
H790 C810 0.931 . S
O791 Co767 2.097 . S
O791 C819 1.214 . S
H792 C820 0.929 . S
H793 C821 0.929 . S
H794 C822 0.930 . S
H795 C823 0.929 . S
H796 C825 0.930 . S
H797 C802 0.930 . S
H798 C806 0.930 . S
O799 Co768 2.037 . S
O799 C819 1.234 . S
C800 O774 1.269 . S
C800 O775 1.257 . S
C801 H776 0.930 . S
C801 C804 1.388 . S
C801 C806 1.418 . S
C802 H797 0.930 . S
C802 C805 1.404 . S
C802 C806 1.353 . S
N803 Co768 2.145 . S
N803 C804 1.397 . S
N803 C805 1.334 . S
C804 H785 0.929 . S
C804 C801 1.388 . S
C804 N803 1.397 . S
C805 H786 0.929 . S
C805 C802 1.404 . S
C805 N803 1.334 . S
C806 H798 0.930 . S
C806 C801 1.418 . S
C806 C802 1.353 . S
C807 H777 0.930 . S
C807 N808 1.330 . S
C807 C809 1.446 . S
N808 Co767 2.151 . S
N808 C807 1.330 . S
N808 C812 1.418 . S
C809 H788 0.929 . S
C809 C807 1.446 . S
C809 C810 1.332 . S
C810 H790 0.931 . S
C810 C809 1.332 . S
C810 C811 1.267 . S
C811 H779 0.929 . S
C811 C810 1.267 . S
C811 C812 1.251 . S
C812 H782 0.929 . S
C812 N808 1.418 . S
C812 C811 1.251 . S
C813 H780 0.930 . S
C813 C815 1.406 . S
C813 C818 1.261 . S
C814 H781 0.930 . S
C814 N816 1.325 . S
C814 C817 1.357 . S
C815 H783 0.928 . S
C815 C813 1.406 . S
C815 N816 1.261 . S
N816 Co767 2.214 . S
N816 C814 1.325 . S
N816 C815 1.261 . S
C817 H787 0.931 . S
C817 C814 1.357 . S
C817 C818 1.312 . S
C818 H789 0.930 . S
C818 C813 1.261 . S
C818 C817 1.312 . S
C819 O791 1.214 . S
C819 O799 1.234 . S
C820 H792 0.929 . S
C820 C823 1.391 . S
C820 C825 1.391 . S
C821 H793 0.929 . S
C821 C822 1.390 . S
C821 N824 1.391 . S
C822 H794 0.930 . S
C822 C821 1.390 . S
C822 C823 1.392 . S
C823 H795 0.929 . S
C823 C820 1.391 . S
C823 C822 1.392 . S
N824 Co768 2.257 . S
N824 C821 1.391 . S
N824 C825 1.388 . S
C825 H796 0.930 . S
C825 C820 1.391 . S
C825 N824 1.388 . S
Co826 O828 2.143 . S
Co826 O834 2.074 . S
Co826 O837 2.093 . S
Co826 O850 2.097 . S
Co826 N867 2.151 . S
Co826 N875 2.214 . S
Co827 O828 2.160 . S
Co827 O833 2.058 . S
Co827 O843 2.057 . S
Co827 O858 2.037 . S
Co827 N862 2.145 . S
Co827 N883 2.257 1_455 S
O828 Co826 2.143 . S
O828 Co827 2.160 . S
C829 O830 1.278 . S
C829 O837 1.224 . S
O830 C829 1.278 . S
C831 O832 1.245 . S
C831 O843 1.232 . S
O832 C831 1.245 . S
O833 Co827 2.058 . S
O833 C859 1.269 . S
O834 Co826 2.074 . S
O834 C859 1.257 . S
H835 C860 0.930 . S
H836 C866 0.930 . S
O837 Co826 2.093 . S
O837 C829 1.224 . S
H838 C870 0.929 . S
H839 C872 0.930 . S
H840 C873 0.930 . S
H841 C871 0.929 . S
H842 C874 0.928 . S
O843 Co827 2.057 . S
O843 C831 1.232 . S
H844 C863 0.929 . S
H845 C864 0.929 1_655 S
H846 C876 0.931 . S
H847 C868 0.929 . S
H848 C877 0.930 . S
H849 C869 0.931 . S
O850 Co826 2.097 . S
O850 C878 1.214 . S
H851 C879 0.929 . S
H852 C880 0.929 1_455 S
H853 C881 0.930 . S
H854 C882 0.929 . S
H855 C884 0.930 . S
H856 C861 0.930 1_655 S
H857 C865 0.930 . S
O858 Co827 2.037 . S
O858 C878 1.234 . S
C859 O833 1.269 . S
C859 O834 1.257 . S
C860 H835 0.930 . S
C860 C863 1.388 . S
C860 C865 1.418 . S
C861 H856 0.930 1_455 S
C861 C864 1.404 . S
C861 C865 1.353 . S
N862 Co827 2.145 . S
N862 C863 1.397 . S
N862 C864 1.334 . S
C863 H844 0.929 . S
C863 C860 1.388 . S
C863 N862 1.397 . S
C864 H845 0.929 1_455 S
C864 C861 1.404 . S
C864 N862 1.334 . S
C865 H857 0.930 . S
C865 C860 1.418 . S
C865 C861 1.353 . S
C866 H836 0.930 . S
C866 N867 1.330 . S
C866 C868 1.446 . S
N867 Co826 2.151 . S
N867 C866 1.330 . S
N867 C871 1.418 . S
C868 H847 0.929 . S
C868 C866 1.446 . S
C868 C869 1.332 . S
C869 H849 0.931 . S
C869 C868 1.332 . S
C869 C870 1.267 . S
C870 H838 0.929 . S
C870 C869 1.267 . S
C870 C871 1.251 . S
C871 H841 0.929 . S
C871 N867 1.418 . S
C871 C870 1.251 . S
C872 H839 0.930 . S
C872 C874 1.406 . S
C872 C877 1.261 . S
C873 H840 0.930 . S
C873 N875 1.325 . S
C873 C876 1.357 . S
C874 H842 0.928 . S
C874 C872 1.406 . S
C874 N875 1.261 . S
N875 Co826 2.214 . S
N875 C873 1.325 . S
N875 C874 1.261 . S
C876 H846 0.931 . S
C876 C873 1.357 . S
C876 C877 1.312 . S
C877 H848 0.930 . S
C877 C872 1.261 . S
C877 C876 1.312 . S
C878 O850 1.214 . S
C878 O858 1.234 . S
C879 H851 0.929 . S
C879 C882 1.391 . S
C879 C884 1.391 . S
C880 H852 0.929 1_655 S
C880 C881 1.390 . S
C880 N883 1.391 . S
C881 H853 0.930 . S
C881 C880 1.390 . S
C881 C882 1.392 . S
C882 H854 0.929 . S
C882 C879 1.391 . S
C882 C881 1.392 . S
N883 Co827 2.257 1_655 S
N883 C880 1.391 . S
N883 C884 1.388 . S
C884 H855 0.930 . S
C884 C879 1.391 . S
C884 N883 1.388 . S
Co885 O887 2.143 . S
Co885 O893 2.074 . S
Co885 O896 2.093 . S
Co885 O909 2.097 . S
Co885 N926 2.151 . S
Co885 N934 2.214 . S
Co886 O887 2.160 . S
Co886 O892 2.058 . S
Co886 O902 2.057 . S
Co886 O917 2.037 . S
Co886 N921 2.145 . S
Co886 N942 2.257 1_545 S
O887 Co885 2.143 . S
O887 Co886 2.160 . S
C888 O889 1.278 . S
C888 O896 1.224 . S
O889 C888 1.278 . S
C890 O891 1.245 . S
C890 O902 1.232 . S
O891 C890 1.245 . S
O892 Co886 2.058 . S
O892 C918 1.269 . S
O893 Co885 2.074 . S
O893 C918 1.257 . S
H894 C919 0.930 . S
H895 C925 0.930 . S
O896 Co885 2.093 . S
O896 C888 1.224 . S
H897 C929 0.929 . S
H898 C931 0.930 . S
H899 C932 0.930 . S
H900 C930 0.929 . S
H901 C933 0.928 . S
O902 Co886 2.057 . S
O902 C890 1.232 . S
H903 C922 0.929 . S
H904 C923 0.929 1_565 S
H905 C935 0.931 . S
H906 C927 0.929 . S
H907 C936 0.930 . S
H908 C928 0.931 . S
O909 Co885 2.097 . S
O909 C937 1.214 . S
H910 C938 0.929 . S
H911 C939 0.929 1_545 S
H912 C940 0.930 . S
H913 C941 0.929 . S
H914 C943 0.930 . S
H915 C920 0.930 1_565 S
H916 C924 0.930 . S
O917 Co886 2.037 . S
O917 C937 1.234 . S
C918 O892 1.269 . S
C918 O893 1.257 . S
C919 H894 0.930 . S
C919 C922 1.388 . S
C919 C924 1.418 . S
C920 H915 0.930 1_545 S
C920 C923 1.404 . S
C920 C924 1.353 . S
N921 Co886 2.145 . S
N921 C922 1.397 . S
N921 C923 1.334 . S
C922 H903 0.929 . S
C922 C919 1.388 . S
C922 N921 1.397 . S
C923 H904 0.929 1_545 S
C923 C920 1.404 . S
C923 N921 1.334 . S
C924 H916 0.930 . S
C924 C919 1.418 . S
C924 C920 1.353 . S
C925 H895 0.930 . S
C925 N926 1.330 . S
C925 C927 1.446 . S
N926 Co885 2.151 . S
N926 C925 1.330 . S
N926 C930 1.418 . S
C927 H906 0.929 . S
C927 C925 1.446 . S
C927 C928 1.332 . S
C928 H908 0.931 . S
C928 C927 1.332 . S
C928 C929 1.267 . S
C929 H897 0.929 . S
C929 C928 1.267 . S
C929 C930 1.251 . S
C930 H900 0.929 . S
C930 N926 1.418 . S
C930 C929 1.251 . S
C931 H898 0.930 . S
C931 C933 1.406 . S
C931 C936 1.261 . S
C932 H899 0.930 . S
C932 N934 1.325 . S
C932 C935 1.357 . S
C933 H901 0.928 . S
C933 C931 1.406 . S
C933 N934 1.261 . S
N934 Co885 2.214 . S
N934 C932 1.325 . S
N934 C933 1.261 . S
C935 H905 0.931 . S
C935 C932 1.357 . S
C935 C936 1.312 . S
C936 H907 0.930 . S
C936 C931 1.261 . S
C936 C935 1.312 . S
C937 O909 1.214 . S
C937 O917 1.234 . S
C938 H910 0.929 . S
C938 C941 1.391 . S
C938 C943 1.391 . S
C939 H911 0.929 1_565 S
C939 C940 1.390 . S
C939 N942 1.391 . S
C940 H912 0.930 . S
C940 C939 1.390 . S
C940 C941 1.392 . S
C941 H913 0.929 . S
C941 C938 1.391 . S
C941 C940 1.392 . S
N942 Co886 2.257 1_565 S
N942 C939 1.391 . S
N942 C943 1.388 . S
C943 H914 0.930 . S
C943 C938 1.391 . S
C943 N942 1.388 . S
C944 C945 1.391 . S
C944 C946 1.394 . S
C944 H960 0.931 . S
C945 C944 1.391 . S
C945 C949 1.376 1_554 S
C946 C944 1.394 . S
C946 C947 1.369 . S
C946 C950 1.531 . S
C947 C946 1.369 . S
C947 C948 1.410 1_554 S
C947 C955 1.503 1_554 S
C948 C947 1.410 1_556 S
C948 C949 1.392 . S
C948 C951 1.511 . S
C949 C945 1.376 1_556 S
C949 C948 1.392 . S
C949 H961 0.929 . S
C950 C946 1.531 . S
C950 H962 0.960 . S
C950 H963 0.962 . S
C950 H964 0.960 . S
C951 C948 1.511 . S
C951 H965 0.961 . S
C951 H966 0.961 . S
C951 H967 0.961 . S
C952 C953 1.370 . S
C952 C954 1.363 . S
C952 H968 0.931 . S
C953 C952 1.370 . S
C953 C957 1.408 . S
C954 C952 1.363 . S
C954 C955 1.370 . S
C954 C958 1.524 1_556 S
C955 C947 1.503 1_556 S
C955 C954 1.370 . S
C955 C956 1.403 . S
C956 C955 1.403 . S
C956 C957 1.404 . S
C956 C959 1.539 . S
C957 C953 1.408 . S
C957 C956 1.404 . S
C957 H969 0.930 . S
C958 C954 1.524 1_554 S
C958 H970 0.956 . S
C958 H971 0.961 1_554 S
C958 H972 0.961 . S
C959 C956 1.539 . S
C959 H973 0.958 1_556 S
C959 H974 0.961 . S
C959 H975 0.960 . S
H960 C944 0.931 . S
H961 C949 0.929 . S
H962 C950 0.960 . S
H963 C950 0.962 . S
H964 C950 0.960 . S
H965 C951 0.961 . S
H966 C951 0.961 . S
H967 C951 0.961 . S
H968 C952 0.931 . S
H969 C957 0.930 . S
H970 C958 0.956 . S
H971 C958 0.961 1_556 S
H972 C958 0.961 . S
H973 C959 0.958 1_554 S
H974 C959 0.961 . S
H975 C959 0.960 . S
C976 C977 1.391 1_554 S
C976 C978 1.394 . S
C976 H992 0.931 . S
C977 C976 1.391 1_556 S
C977 C981 1.376 . S
C978 C976 1.394 . S
C978 C979 1.369 1_554 S
C978 C982 1.531 . S
C979 C978 1.369 1_556 S
C979 C980 1.410 . S
C979 C987 1.503 1_556 S
C980 C979 1.410 . S
C980 C981 1.392 . S
C980 C983 1.511 . S
C981 C977 1.376 . S
C981 C980 1.392 . S
C981 H993 0.929 . S
C982 C978 1.531 . S
C982 H994 0.960 . S
C982 H995 0.962 . S
C982 H996 0.960 . S
C983 C980 1.511 . S
C983 H997 0.961 . S
C983 H998 0.961 . S
C983 H999 0.961 . S
C984 C985 1.370 . S
C984 C986 1.363 . S
C984 H1000 0.931 . S
C985 C984 1.370 . S
C985 C989 1.408 . S
C986 C984 1.363 . S
C986 C987 1.370 . S
C986 C990 1.524 . S
C987 C979 1.503 1_554 S
C987 C986 1.370 . S
C987 C988 1.403 . S
C988 C987 1.403 . S
C988 C989 1.404 . S
C988 C991 1.539 1_554 S
C989 C985 1.408 . S
C989 C988 1.404 . S
C989 H1001 0.930 . S
C990 C986 1.524 . S
C990 H1002 0.956 . S
C990 H1003 0.961 1_554 S
C990 H1004 0.961 . S
C991 C988 1.539 1_556 S
C991 H1005 0.958 1_556 S
C991 H1006 0.961 . S
C991 H1007 0.960 . S
H992 C976 0.931 . S
H993 C981 0.929 . S
H994 C982 0.960 . S
H995 C982 0.962 . S
H996 C982 0.960 . S
H997 C983 0.961 . S
H998 C983 0.961 . S
H999 C983 0.961 . S
H1000 C984 0.931 . S
H1001 C989 0.930 . S
H1002 C990 0.956 . S
H1003 C990 0.961 1_556 S
H1004 C990 0.961 . S
H1005 C991 0.958 1_554 S
H1006 C991 0.961 . S
H1007 C991 0.960 . S
C1008 C1009 1.391 1_554 S
C1008 C1010 1.394 . S
C1008 H1024 0.931 . S
C1009 C1008 1.391 1_556 S
C1009 C1013 1.376 . S
C1010 C1008 1.394 . S
C1010 C1011 1.369 . S
C1010 C1014 1.531 . S
C1011 C1010 1.369 . S
C1011 C1012 1.410 1_554 S
C1011 C1019 1.503 . S
C1012 C1011 1.410 1_556 S
C1012 C1013 1.392 . S
C1012 C1015 1.511 . S
C1013 C1009 1.376 . S
C1013 C1012 1.392 . S
C1013 H1025 0.929 . S
C1014 C1010 1.531 . S
C1014 H1026 0.960 . S
C1014 H1027 0.962 . S
C1014 H1028 0.960 . S
C1015 C1012 1.511 . S
C1015 H1029 0.961 . S
C1015 H1030 0.961 . S
C1015 H1031 0.961 . S
C1016 C1017 1.370 1_556 S
C1016 C1018 1.363 . S
C1016 H1032 0.931 . S
C1017 C1016 1.370 1_554 S
C1017 C1021 1.408 . S
C1018 C1016 1.363 . S
C1018 C1019 1.370 1_556 S
C1018 C1022 1.524 . S
C1019 C1011 1.503 . S
C1019 C1018 1.370 1_554 S
C1019 C1020 1.403 . S
C1020 C1019 1.403 . S
C1020 C1021 1.404 . S
C1020 C1023 1.539 . S
C1021 C1017 1.408 . S
C1021 C1020 1.404 . S
C1021 H1033 0.930 . S
C1022 C1018 1.524 . S
C1022 H1034 0.956 . S
C1022 H1035 0.961 . S
C1022 H1036 0.961 . S
C1023 C1020 1.539 . S
C1023 H1037 0.958 . S
C1023 H1038 0.961 . S
C1023 H1039 0.960 . S
H1024 C1008 0.931 . S
H1025 C1013 0.929 . S
H1026 C1014 0.960 . S
H1027 C1014 0.962 . S
H1028 C1014 0.960 . S
H1029 C1015 0.961 . S
H1030 C1015 0.961 . S
H1031 C1015 0.961 . S
H1032 C1016 0.931 . S
H1033 C1021 0.930 . S
H1034 C1022 0.956 . S
H1035 C1022 0.961 . S
H1036 C1022 0.961 . S
H1037 C1023 0.958 . S
H1038 C1023 0.961 . S
H1039 C1023 0.960 . S
C1040 C1041 1.391 . S
C1040 C1042 1.394 . S
C1040 H1056 0.931 . S
C1041 C1040 1.391 . S
C1041 C1045 1.376 . S
C1042 C1040 1.394 . S
C1042 C1043 1.369 1_556 S
C1042 C1046 1.531 . S
C1043 C1042 1.369 1_554 S
C1043 C1044 1.410 . S
C1043 C1051 1.503 . S
C1044 C1043 1.410 . S
C1044 C1045 1.392 1_554 S
C1044 C1047 1.511 . S
C1045 C1041 1.376 . S
C1045 C1044 1.392 1_556 S
C1045 H1057 0.929 . S
C1046 C1042 1.531 . S
C1046 H1058 0.960 1_556 S
C1046 H1059 0.962 . S
C1046 H1060 0.960 . S
C1047 C1044 1.511 . S
C1047 H1061 0.961 . S
C1047 H1062 0.961 . S
C1047 H1063 0.961 . S
C1048 C1049 1.370 1_556 S
C1048 C1050 1.363 . S
C1048 H1064 0.931 . S
C1049 C1048 1.370 1_554 S
C1049 C1053 1.408 . S
C1050 C1048 1.363 . S
C1050 C1051 1.370 1_556 S
C1050 C1054 1.524 . S
C1051 C1043 1.503 . S
C1051 C1050 1.370 1_554 S
C1051 C1052 1.403 . S
C1052 C1051 1.403 . S
C1052 C1053 1.404 . S
C1052 C1055 1.539 . S
C1053 C1049 1.408 . S
C1053 C1052 1.404 . S
C1053 H1065 0.930 . S
C1054 C1050 1.524 . S
C1054 H1066 0.956 . S
C1054 H1067 0.961 . S
C1054 H1068 0.961 . S
C1055 C1052 1.539 . S
C1055 H1069 0.958 . S
C1055 H1070 0.961 . S
C1055 H1071 0.960 . S
H1056 C1040 0.931 . S
H1057 C1045 0.929 . S
H1058 C1046 0.960 1_554 S
H1059 C1046 0.962 . S
H1060 C1046 0.960 . S
H1061 C1047 0.961 . S
H1062 C1047 0.961 . S
H1063 C1047 0.961 . S
H1064 C1048 0.931 . S
H1065 C1053 0.930 . S
H1066 C1054 0.956 . S
H1067 C1054 0.961 . S
H1068 C1054 0.961 . S
H1069 C1055 0.958 . S
H1070 C1055 0.961 . S
H1071 C1055 0.960 . S
C1072 C1073 1.391 . S
C1072 C1074 1.394 . S
C1072 H1088 0.931 . S
C1073 C1072 1.391 . S
C1073 C1077 1.376 . S
C1074 C1072 1.394 . S
C1074 C1075 1.369 . S
C1074 C1078 1.531 . S
C1075 C1074 1.369 . S
C1075 C1076 1.410 . S
C1075 C1083 1.503 . S
C1076 C1075 1.410 . S
C1076 C1077 1.392 . S
C1076 C1079 1.511 . S
C1077 C1073 1.376 . S
C1077 C1076 1.392 . S
C1077 H1089 0.929 . S
C1078 C1074 1.531 . S
C1078 H1090 0.960 . S
C1078 H1091 0.962 . S
C1078 H1092 0.960 . S
C1079 C1076 1.511 . S
C1079 H1093 0.961 . S
C1079 H1094 0.961 . S
C1079 H1095 0.961 . S
C1080 C1081 1.370 . S
C1080 C1082 1.363 . S
C1080 H1096 0.931 . S
C1081 C1080 1.370 . S
C1081 C1085 1.408 . S
C1082 C1080 1.363 . S
C1082 C1083 1.370 . S
C1082 C1086 1.524 . S
C1083 C1075 1.503 . S
C1083 C1082 1.370 . S
C1083 C1084 1.403 . S
C1084 C1083 1.403 . S
C1084 C1085 1.404 . S
C1084 C1087 1.539 . S
C1085 C1081 1.408 . S
C1085 C1084 1.404 . S
C1085 H1097 0.930 . S
C1086 C1082 1.524 . S
C1086 H1098 0.956 . S
C1086 H1099 0.961 . S
C1086 H1100 0.961 . S
C1087 C1084 1.539 . S
C1087 H1101 0.958 . S
C1087 H1102 0.961 . S
C1087 H1103 0.960 . S
H1088 C1072 0.931 . S
H1089 C1077 0.929 . S
H1090 C1078 0.960 . S
H1091 C1078 0.962 . S
H1092 C1078 0.960 . S
H1093 C1079 0.961 . S
H1094 C1079 0.961 . S
H1095 C1079 0.961 . S
H1096 C1080 0.931 . S
H1097 C1085 0.930 . S
H1098 C1086 0.956 . S
H1099 C1086 0.961 . S
H1100 C1086 0.961 . S
H1101 C1087 0.958 . S
H1102 C1087 0.961 . S
H1103 C1087 0.960 . S
C1104 C1105 1.391 . S
C1104 C1106 1.394 . S
C1104 H1120 0.931 . S
C1105 C1104 1.391 . S
C1105 C1109 1.376 . S
C1106 C1104 1.394 . S
C1106 C1107 1.369 . S
C1106 C1110 1.531 . S
C1107 C1106 1.369 . S
C1107 C1108 1.410 . S
C1107 C1115 1.503 . S
C1108 C1107 1.410 . S
C1108 C1109 1.392 . S
C1108 C1111 1.511 . S
C1109 C1105 1.376 . S
C1109 C1108 1.392 . S
C1109 H1121 0.929 . S
C1110 C1106 1.531 . S
C1110 H1122 0.960 . S
C1110 H1123 0.962 . S
C1110 H1124 0.960 . S
C1111 C1108 1.511 . S
C1111 H1125 0.961 . S
C1111 H1126 0.961 . S
C1111 H1127 0.961 . S
C1112 C1113 1.370 . S
C1112 C1114 1.363 . S
C1112 H1128 0.931 . S
C1113 C1112 1.370 . S
C1113 C1117 1.408 . S
C1114 C1112 1.363 . S
C1114 C1115 1.370 . S
C1114 C1118 1.524 . S
C1115 C1107 1.503 . S
C1115 C1114 1.370 . S
C1115 C1116 1.403 . S
C1116 C1115 1.403 . S
C1116 C1117 1.404 . S
C1116 C1119 1.539 . S
C1117 C1113 1.408 . S
C1117 C1116 1.404 . S
C1117 H1129 0.930 . S
C1118 C1114 1.524 . S
C1118 H1130 0.956 . S
C1118 H1131 0.961 . S
C1118 H1132 0.961 . S
C1119 C1116 1.539 . S
C1119 H1133 0.958 . S
C1119 H1134 0.961 . S
C1119 H1135 0.960 . S
H1120 C1104 0.931 . S
H1121 C1109 0.929 . S
H1122 C1110 0.960 . S
H1123 C1110 0.962 . S
H1124 C1110 0.960 . S
H1125 C1111 0.961 . S
H1126 C1111 0.961 . S
H1127 C1111 0.961 . S
H1128 C1112 0.931 . S
H1129 C1117 0.930 . S
H1130 C1118 0.956 . S
H1131 C1118 0.961 . S
H1132 C1118 0.961 . S
H1133 C1119 0.958 . S
H1134 C1119 0.961 . S
H1135 C1119 0.960 . S
C1136 C1137 1.391 . S
C1136 C1138 1.394 . S
C1136 H1152 0.931 . S
C1137 C1136 1.391 . S
C1137 C1141 1.376 . S
C1138 C1136 1.394 . S
C1138 C1139 1.369 . S
C1138 C1142 1.531 . S
C1139 C1138 1.369 . S
C1139 C1140 1.410 . S
C1139 C1147 1.503 . S
C1140 C1139 1.410 . S
C1140 C1141 1.392 . S
C1140 C1143 1.511 . S
C1141 C1137 1.376 . S
C1141 C1140 1.392 . S
C1141 H1153 0.929 . S
C1142 C1138 1.531 . S
C1142 H1154 0.960 . S
C1142 H1155 0.962 . S
C1142 H1156 0.960 . S
C1143 C1140 1.511 . S
C1143 H1157 0.961 . S
C1143 H1158 0.961 . S
C1143 H1159 0.961 . S
C1144 C1145 1.370 . S
C1144 C1146 1.363 . S
C1144 H1160 0.931 . S
C1145 C1144 1.370 . S
C1145 C1149 1.408 . S
C1146 C1144 1.363 . S
C1146 C1147 1.370 . S
C1146 C1150 1.524 . S
C1147 C1139 1.503 . S
C1147 C1146 1.370 . S
C1147 C1148 1.403 . S
C1148 C1147 1.403 . S
C1148 C1149 1.404 . S
C1148 C1151 1.539 . S
C1149 C1145 1.408 . S
C1149 C1148 1.404 . S
C1149 H1161 0.930 . S
C1150 C1146 1.524 . S
C1150 H1162 0.956 . S
C1150 H1163 0.961 . S
C1150 H1164 0.961 . S
C1151 C1148 1.539 . S
C1151 H1165 0.958 . S
C1151 H1166 0.961 . S
C1151 H1167 0.960 . S
H1152 C1136 0.931 . S
H1153 C1141 0.929 . S
H1154 C1142 0.960 . S
H1155 C1142 0.962 . S
H1156 C1142 0.960 . S
H1157 C1143 0.961 . S
H1158 C1143 0.961 . S
H1159 C1143 0.961 . S
H1160 C1144 0.931 . S
H1161 C1149 0.930 . S
H1162 C1150 0.956 . S
H1163 C1150 0.961 . S
H1164 C1150 0.961 . S
H1165 C1151 0.958 . S
H1166 C1151 0.961 . S
H1167 C1151 0.960 . S
C1168 C1169 1.391 . S
C1168 C1170 1.394 . S
C1168 H1184 0.931 . S
C1169 C1168 1.391 . S
C1169 C1173 1.376 . S
C1170 C1168 1.394 . S
C1170 C1171 1.369 . S
C1170 C1174 1.531 . S
C1171 C1170 1.369 . S
C1171 C1172 1.410 . S
C1171 C1179 1.503 . S
C1172 C1171 1.410 . S
C1172 C1173 1.392 . S
C1172 C1175 1.511 . S
C1173 C1169 1.376 . S
C1173 C1172 1.392 . S
C1173 H1185 0.929 . S
C1174 C1170 1.531 . S
C1174 H1186 0.960 . S
C1174 H1187 0.962 . S
C1174 H1188 0.960 . S
C1175 C1172 1.511 . S
C1175 H1189 0.961 . S
C1175 H1190 0.961 . S
C1175 H1191 0.961 . S
C1176 C1177 1.370 . S
C1176 C1178 1.363 . S
C1176 H1192 0.931 . S
C1177 C1176 1.370 . S
C1177 C1181 1.408 . S
C1178 C1176 1.363 . S
C1178 C1179 1.370 . S
C1178 C1182 1.524 . S
C1179 C1171 1.503 . S
C1179 C1178 1.370 . S
C1179 C1180 1.403 . S
C1180 C1179 1.403 . S
C1180 C1181 1.404 . S
C1180 C1183 1.539 . S
C1181 C1177 1.408 . S
C1181 C1180 1.404 . S
C1181 H1193 0.930 . S
C1182 C1178 1.524 . S
C1182 H1194 0.956 . S
C1182 H1195 0.961 . S
C1182 H1196 0.961 . S
C1183 C1180 1.539 . S
C1183 H1197 0.958 . S
C1183 H1198 0.961 . S
C1183 H1199 0.960 . S
H1184 C1168 0.931 . S
H1185 C1173 0.929 . S
H1186 C1174 0.960 . S
H1187 C1174 0.962 . S
H1188 C1174 0.960 . S
H1189 C1175 0.961 . S
H1190 C1175 0.961 . S
H1191 C1175 0.961 . S
H1192 C1176 0.931 . S
H1193 C1181 0.930 . S
H1194 C1182 0.956 . S
H1195 C1182 0.961 . S
H1196 C1182 0.961 . S
H1197 C1183 0.958 . S
H1198 C1183 0.961 . S
H1199 C1183 0.960 . S
C1200 C1201 1.391 . S
C1200 C1202 1.394 . S
C1200 H1216 0.931 . S
C1201 C1200 1.391 . S
C1201 C1205 1.376 1_556 S
C1202 C1200 1.394 . S
C1202 C1203 1.369 . S
C1202 C1206 1.531 . S
C1203 C1202 1.369 . S
C1203 C1204 1.410 1_556 S
C1203 C1211 1.506 . S
C1204 C1203 1.410 1_554 S
C1204 C1205 1.392 . S
C1204 C1207 1.511 . S
C1205 C1201 1.376 1_554 S
C1205 C1204 1.392 . S
C1205 H1217 0.929 . S
C1206 C1202 1.531 . S
C1206 H1218 0.960 . S
C1206 H1219 0.962 . S
C1206 H1220 0.960 . S
C1207 C1204 1.511 . S
C1207 H1221 0.961 . S
C1207 H1222 0.961 . S
C1207 H1223 0.961 . S
C1208 C1209 1.370 . S
C1208 C1210 1.363 . S
C1208 H1224 0.931 . S
C1209 C1208 1.370 . S
C1209 C1213 1.408 . S
C1210 C1208 1.363 . S
C1210 C1211 1.366 1_554 S
C1210 C1214 1.524 . S
C1211 C1203 1.506 . S
C1211 C1210 1.366 1_556 S
C1211 C1212 1.405 . S
C1212 C1211 1.405 . S
C1212 C1213 1.404 1_556 S
C1212 C1215 1.539 . S
C1213 C1209 1.408 . S
C1213 C1212 1.404 1_554 S
C1213 H1225 0.930 1_554 S
C1214 C1210 1.524 . S
C1214 H1226 0.956 . S
C1214 H1227 0.961 . S
C1214 H1228 0.961 . S
C1215 C1212 1.539 . S
C1215 H1229 0.958 . S
C1215 H1230 0.961 . S
C1215 H1231 0.960 . S
H1216 C1200 0.931 . S
H1217 C1205 0.929 . S
H1218 C1206 0.960 . S
H1219 C1206 0.962 . S
H1220 C1206 0.960 . S
H1221 C1207 0.961 . S
H1222 C1207 0.961 . S
H1223 C1207 0.961 . S
H1224 C1208 0.931 . S
H1225 C1213 0.930 1_556 S
H1226 C1214 0.956 . S
H1227 C1214 0.961 . S
H1228 C1214 0.961 . S
H1229 C1215 0.958 . S
H1230 C1215 0.961 . S
H1231 C1215 0.960 . S
C1232 C1233 1.391 1_554 S
C1232 C1234 1.394 . S
C1232 H1248 0.931 . S
C1233 C1232 1.391 1_556 S
C1233 C1237 1.376 . S
C1234 C1232 1.394 . S
C1234 C1235 1.369 1_554 S
C1234 C1238 1.531 . S
C1235 C1234 1.369 1_556 S
C1235 C1236 1.410 . S
C1235 C1243 1.503 1_556 S
C1236 C1235 1.410 . S
C1236 C1237 1.392 . S
C1236 C1239 1.511 . S
C1237 C1233 1.376 . S
C1237 C1236 1.392 . S
C1237 H1249 0.929 . S
C1238 C1234 1.531 . S
C1238 H1250 0.960 . S
C1238 H1251 0.962 . S
C1238 H1252 0.960 . S
C1239 C1236 1.511 . S
C1239 H1253 0.961 . S
C1239 H1254 0.961 . S
C1239 H1255 0.961 . S
C1240 C1241 1.370 . S
C1240 C1242 1.364 1_554 S
C1240 H1256 0.931 . S
C1241 C1240 1.370 . S
C1241 C1245 1.408 . S
C1242 C1240 1.364 1_556 S
C1242 C1243 1.371 1_556 S
C1242 C1246 1.523 . S
C1243 C1235 1.503 1_554 S
C1243 C1242 1.371 1_554 S
C1243 C1244 1.403 . S
C1244 C1243 1.403 . S
C1244 C1245 1.404 . S
C1244 C1247 1.539 . S
C1245 C1241 1.408 . S
C1245 C1244 1.404 . S
C1245 H1257 0.930 . S
C1246 C1242 1.523 . S
C1246 H1258 0.956 1_556 S
C1246 H1259 0.961 . S
C1246 H1260 0.961 . S
C1247 C1244 1.539 . S
C1247 H1261 0.958 . S
C1247 H1262 0.961 . S
C1247 H1263 0.960 . S
H1248 C1232 0.931 . S
H1249 C1237 0.929 . S
H1250 C1238 0.960 . S
H1251 C1238 0.962 . S
H1252 C1238 0.960 . S
H1253 C1239 0.961 . S
H1254 C1239 0.961 . S
H1255 C1239 0.961 . S
H1256 C1240 0.931 . S
H1257 C1245 0.930 . S
H1258 C1246 0.956 1_554 S
H1259 C1246 0.961 . S
H1260 C1246 0.961 . S
H1261 C1247 0.958 . S
H1262 C1247 0.961 . S
H1263 C1247 0.960 . S
C1264 C1265 1.391 . S
C1264 C1266 1.394 . S
C1264 H1280 0.931 . S
C1265 C1264 1.391 . S
C1265 C1269 1.376 1_556 S
C1266 C1264 1.394 . S
C1266 C1267 1.369 . S
C1266 C1270 1.531 . S
C1267 C1266 1.369 . S
C1267 C1268 1.410 1_556 S
C1267 C1275 1.507 . S
C1268 C1267 1.410 1_554 S
C1268 C1269 1.392 . S
C1268 C1271 1.511 . S
C1269 C1265 1.376 1_554 S
C1269 C1268 1.392 . S
C1269 H1281 0.929 . S
C1270 C1266 1.531 . S
C1270 H1282 0.960 . S
C1270 H1283 0.962 . S
C1270 H1284 0.960 . S
C1271 C1268 1.511 . S
C1271 H1285 0.961 . S
C1271 H1286 0.961 . S
C1271 H1287 0.961 . S
C1272 C1273 1.370 . S
C1272 C1274 1.363 . S
C1272 H1288 0.931 . S
C1273 C1272 1.370 . S
C1273 C1277 1.408 . S
C1274 C1272 1.363 . S
C1274 C1275 1.364 1_554 S
C1274 C1278 1.524 . S
C1275 C1267 1.507 . S
C1275 C1274 1.364 1_556 S
C1275 C1276 1.406 . S
C1276 C1275 1.406 . S
C1276 C1277 1.404 1_556 S
C1276 C1279 1.539 . S
C1277 C1273 1.408 . S
C1277 C1276 1.404 1_554 S
C1277 H1289 0.930 1_554 S
C1278 C1274 1.524 . S
C1278 H1290 0.956 . S
C1278 H1291 0.961 . S
C1278 H1292 0.961 . S
C1279 C1276 1.539 . S
C1279 H1293 0.958 . S
C1279 H1294 0.961 . S
C1279 H1295 0.960 . S
H1280 C1264 0.931 . S
H1281 C1269 0.929 . S
H1282 C1270 0.960 . S
H1283 C1270 0.962 . S
H1284 C1270 0.960 . S
H1285 C1271 0.961 . S
H1286 C1271 0.961 . S
H1287 C1271 0.961 . S
H1288 C1272 0.931 . S
H1289 C1277 0.930 1_556 S
H1290 C1278 0.956 . S
H1291 C1278 0.961 . S
H1292 C1278 0.961 . S
H1293 C1279 0.958 . S
H1294 C1279 0.961 . S
H1295 C1279 0.960 . S
C1296 C1297 1.391 1_556 S
C1296 C1298 1.394 . S
C1296 H1312 0.931 . S
C1297 C1296 1.391 1_554 S
C1297 C1301 1.376 . S
C1298 C1296 1.394 . S
C1298 C1299 1.369 . S
C1298 C1302 1.531 . S
C1299 C1298 1.369 . S
C1299 C1300 1.410 1_556 S
C1299 C1307 1.503 . S
C1300 C1299 1.410 1_554 S
C1300 C1301 1.392 . S
C1300 C1303 1.511 . S
C1301 C1297 1.376 . S
C1301 C1300 1.392 . S
C1301 H1313 0.929 . S
C1302 C1298 1.531 . S
C1302 H1314 0.960 . S
C1302 H1315 0.962 . S
C1302 H1316 0.960 . S
C1303 C1300 1.511 . S
C1303 H1317 0.961 . S
C1303 H1318 0.961 . S
C1303 H1319 0.961 . S
C1304 C1305 1.370 1_554 S
C1304 C1306 1.363 . S
C1304 H1320 0.931 . S
C1305 C1304 1.370 1_556 S
C1305 C1309 1.408 . S
C1306 C1304 1.363 . S
C1306 C1307 1.370 1_554 S
C1306 C1310 1.524 . S
C1307 C1299 1.503 . S
C1307 C1306 1.370 1_556 S
C1307 C1308 1.403 . S
C1308 C1307 1.403 . S
C1308 C1309 1.404 . S
C1308 C1311 1.539 . S
C1309 C1305 1.408 . S
C1309 C1308 1.404 . S
C1309 H1321 0.930 . S
C1310 C1306 1.524 . S
C1310 H1322 0.956 . S
C1310 H1323 0.961 . S
C1310 H1324 0.961 . S
C1311 C1308 1.539 . S
C1311 H1325 0.958 . S
C1311 H1326 0.961 . S
C1311 H1327 0.960 . S
H1312 C1296 0.931 . S
H1313 C1301 0.929 . S
H1314 C1302 0.960 . S
H1315 C1302 0.962 . S
H1316 C1302 0.960 . S
H1317 C1303 0.961 . S
H1318 C1303 0.961 . S
H1319 C1303 0.961 . S
H1320 C1304 0.931 . S
H1321 C1309 0.930 . S
H1322 C1310 0.956 . S
H1323 C1310 0.961 . S
H1324 C1310 0.961 . S
H1325 C1311 0.958 . S
H1326 C1311 0.961 . S
H1327 C1311 0.960 . S
C1328 C1329 1.391 . S
C1328 C1330 1.394 . S
C1328 H1344 0.931 . S
C1329 C1328 1.391 . S
C1329 C1333 1.376 . S
C1330 C1328 1.394 . S
C1330 C1331 1.369 . S
C1330 C1334 1.531 . S
C1331 C1330 1.369 . S
C1331 C1332 1.410 . S
C1331 C1339 1.503 . S
C1332 C1331 1.410 . S
C1332 C1333 1.392 . S
C1332 C1335 1.511 . S
C1333 C1329 1.376 . S
C1333 C1332 1.392 . S
C1333 H1345 0.929 . S
C1334 C1330 1.531 . S
C1334 H1346 0.960 . S
C1334 H1347 0.962 . S
C1334 H1348 0.960 . S
C1335 C1332 1.511 . S
C1335 H1349 0.961 . S
C1335 H1350 0.961 . S
C1335 H1351 0.961 . S
C1336 C1337 1.370 . S
C1336 C1338 1.363 . S
C1336 H1352 0.931 . S
C1337 C1336 1.370 . S
C1337 C1341 1.408 . S
C1338 C1336 1.363 . S
C1338 C1339 1.370 . S
C1338 C1342 1.524 . S
C1339 C1331 1.503 . S
C1339 C1338 1.370 . S
C1339 C1340 1.403 . S
C1340 C1339 1.403 . S
C1340 C1341 1.404 . S
C1340 C1343 1.539 . S
C1341 C1337 1.408 . S
C1341 C1340 1.404 . S
C1341 H1353 0.930 . S
C1342 C1338 1.524 . S
C1342 H1354 0.956 . S
C1342 H1355 0.961 . S
C1342 H1356 0.961 . S
C1343 C1340 1.539 . S
C1343 H1357 0.958 . S
C1343 H1358 0.961 . S
C1343 H1359 0.960 . S
H1344 C1328 0.931 . S
H1345 C1333 0.929 . S
H1346 C1334 0.960 . S
H1347 C1334 0.962 . S
H1348 C1334 0.960 . S
H1349 C1335 0.961 . S
H1350 C1335 0.961 . S
H1351 C1335 0.961 . S
H1352 C1336 0.931 . S
H1353 C1341 0.930 . S
H1354 C1342 0.956 . S
H1355 C1342 0.961 . S
H1356 C1342 0.961 . S
H1357 C1343 0.958 . S
H1358 C1343 0.961 . S
H1359 C1343 0.960 . S
C1360 C1361 1.391 . S
C1360 C1362 1.394 . S
C1360 H1376 0.931 . S
C1361 C1360 1.391 . S
C1361 C1365 1.376 . S
C1362 C1360 1.394 . S
C1362 C1363 1.369 . S
C1362 C1366 1.531 . S
C1363 C1362 1.369 . S
C1363 C1364 1.410 . S
C1363 C1371 1.503 . S
C1364 C1363 1.410 . S
C1364 C1365 1.392 . S
C1364 C1367 1.511 . S
C1365 C1361 1.376 . S
C1365 C1364 1.392 . S
C1365 H1377 0.929 . S
C1366 C1362 1.531 . S
C1366 H1378 0.960 . S
C1366 H1379 0.962 . S
C1366 H1380 0.960 . S
C1367 C1364 1.511 . S
C1367 H1381 0.961 . S
C1367 H1382 0.961 . S
C1367 H1383 0.961 . S
C1368 C1369 1.370 . S
C1368 C1370 1.363 . S
C1368 H1384 0.931 . S
C1369 C1368 1.370 . S
C1369 C1373 1.408 . S
C1370 C1368 1.363 . S
C1370 C1371 1.370 . S
C1370 C1374 1.524 . S
C1371 C1363 1.503 . S
C1371 C1370 1.370 . S
C1371 C1372 1.403 . S
C1372 C1371 1.403 . S
C1372 C1373 1.404 . S
C1372 C1375 1.539 . S
C1373 C1369 1.408 . S
C1373 C1372 1.404 . S
C1373 H1385 0.930 . S
C1374 C1370 1.524 . S
C1374 H1386 0.956 . S
C1374 H1387 0.961 . S
C1374 H1388 0.961 . S
C1375 C1372 1.539 . S
C1375 H1389 0.958 . S
C1375 H1390 0.961 . S
C1375 H1391 0.960 . S
H1376 C1360 0.931 . S
H1377 C1365 0.929 . S
H1378 C1366 0.960 . S
H1379 C1366 0.962 . S
H1380 C1366 0.960 . S
H1381 C1367 0.961 . S
H1382 C1367 0.961 . S
H1383 C1367 0.961 . S
H1384 C1368 0.931 . S
H1385 C1373 0.930 . S
H1386 C1374 0.956 . S
H1387 C1374 0.961 . S
H1388 C1374 0.961 . S
H1389 C1375 0.958 . S
H1390 C1375 0.961 . S
H1391 C1375 0.960 . S
C1392 C1393 1.391 . S
C1392 C1394 1.394 . S
C1392 H1408 0.931 . S
C1393 C1392 1.391 . S
C1393 C1397 1.376 . S
C1394 C1392 1.394 . S
C1394 C1395 1.369 . S
C1394 C1398 1.531 . S
C1395 C1394 1.369 . S
C1395 C1396 1.410 . S
C1395 C1403 1.503 . S
C1396 C1395 1.410 . S
C1396 C1397 1.392 . S
C1396 C1399 1.511 . S
C1397 C1393 1.376 . S
C1397 C1396 1.392 . S
C1397 H1409 0.929 . S
C1398 C1394 1.531 . S
C1398 H1410 0.960 . S
C1398 H1411 0.962 . S
C1398 H1412 0.960 . S
C1399 C1396 1.511 . S
C1399 H1413 0.961 . S
C1399 H1414 0.961 . S
C1399 H1415 0.961 . S
C1400 C1401 1.370 . S
C1400 C1402 1.363 . S
C1400 H1416 0.931 . S
C1401 C1400 1.370 . S
C1401 C1405 1.408 . S
C1402 C1400 1.363 . S
C1402 C1403 1.370 . S
C1402 C1406 1.524 . S
C1403 C1395 1.503 . S
C1403 C1402 1.370 . S
C1403 C1404 1.403 . S
C1404 C1403 1.403 . S
C1404 C1405 1.404 . S
C1404 C1407 1.539 . S
C1405 C1401 1.408 . S
C1405 C1404 1.404 . S
C1405 H1417 0.930 . S
C1406 C1402 1.524 . S
C1406 H1418 0.956 . S
C1406 H1419 0.961 . S
C1406 H1420 0.961 . S
C1407 C1404 1.539 . S
C1407 H1421 0.958 . S
C1407 H1422 0.961 . S
C1407 H1423 0.960 . S
H1408 C1392 0.931 . S
H1409 C1397 0.929 . S
H1410 C1398 0.960 . S
H1411 C1398 0.962 . S
H1412 C1398 0.960 . S
H1413 C1399 0.961 . S
H1414 C1399 0.961 . S
H1415 C1399 0.961 . S
H1416 C1400 0.931 . S
H1417 C1405 0.930 . S
H1418 C1406 0.956 . S
H1419 C1406 0.961 . S
H1420 C1406 0.961 . S
H1421 C1407 0.958 . S
H1422 C1407 0.961 . S
H1423 C1407 0.960 . S
C1424 C1425 1.391 . S
C1424 C1426 1.394 . S
C1424 H1440 0.931 . S
C1425 C1424 1.391 . S
C1425 C1429 1.376 . S
C1426 C1424 1.394 . S
C1426 C1427 1.369 . S
C1426 C1430 1.531 . S
C1427 C1426 1.369 . S
C1427 C1428 1.410 . S
C1427 C1435 1.503 . S
C1428 C1427 1.410 . S
C1428 C1429 1.392 . S
C1428 C1431 1.511 . S
C1429 C1425 1.376 . S
C1429 C1428 1.392 . S
C1429 H1441 0.929 . S
C1430 C1426 1.531 . S
C1430 H1442 0.960 . S
C1430 H1443 0.962 . S
C1430 H1444 0.960 . S
C1431 C1428 1.511 . S
C1431 H1445 0.961 . S
C1431 H1446 0.961 . S
C1431 H1447 0.961 . S
C1432 C1433 1.370 . S
C1432 C1434 1.363 . S
C1432 H1448 0.931 . S
C1433 C1432 1.370 . S
C1433 C1437 1.408 . S
C1434 C1432 1.363 . S
C1434 C1435 1.370 . S
C1434 C1438 1.524 . S
C1435 C1427 1.503 . S
C1435 C1434 1.370 . S
C1435 C1436 1.403 . S
C1436 C1435 1.403 . S
C1436 C1437 1.404 . S
C1436 C1439 1.539 . S
C1437 C1433 1.408 . S
C1437 C1436 1.404 . S
C1437 H1449 0.930 . S
C1438 C1434 1.524 . S
C1438 H1450 0.956 . S
C1438 H1451 0.961 . S
C1438 H1452 0.961 . S
C1439 C1436 1.539 . S
C1439 H1453 0.958 . S
C1439 H1454 0.961 . S
C1439 H1455 0.960 . S
H1440 C1424 0.931 . S
H1441 C1429 0.929 . S
H1442 C1430 0.960 . S
H1443 C1430 0.962 . S
H1444 C1430 0.960 . S
H1445 C1431 0.961 . S
H1446 C1431 0.961 . S
H1447 C1431 0.961 . S
H1448 C1432 0.931 . S
H1449 C1437 0.930 . S
H1450 C1438 0.956 . S
H1451 C1438 0.961 . S
H1452 C1438 0.961 . S
H1453 C1439 0.958 . S
H1454 C1439 0.961 . S
H1455 C1439 0.960 . S
C1456 C1457 1.391 . S
C1456 C1458 1.394 . S
C1456 H1472 0.931 . S
C1457 C1456 1.391 . S
C1457 C1461 1.376 . S
C1458 C1456 1.394 . S
C1458 C1459 1.374 . S
C1458 C1462 1.531 . S
C1459 C1458 1.374 . S
C1459 C1460 1.411 . S
C1459 C1467 1.498 1_566 S
C1460 C1459 1.411 . S
C1460 C1461 1.392 . S
C1460 C1463 1.511 1_556 S
C1461 C1457 1.376 . S
C1461 C1460 1.392 . S
C1461 H1473 0.929 . S
C1462 C1458 1.531 . S
C1462 H1474 0.971 1_556 S
C1462 H1475 0.960 1_565 S
C1462 H1476 0.960 . S
C1463 C1460 1.511 1_554 S
C1463 H1477 0.961 1_554 S
C1463 H1478 0.961 . S
C1463 H1479 0.961 . S
C1464 C1465 1.370 . S
C1464 C1466 1.363 1_554 S
C1464 H1480 0.931 1_554 S
C1465 C1464 1.370 . S
C1465 C1469 1.408 . S
C1466 C1464 1.363 1_556 S
C1466 C1467 1.370 1_556 S
C1466 C1470 1.524 . S
C1467 C1459 1.498 1_544 S
C1467 C1466 1.370 1_554 S
C1467 C1468 1.403 . S
C1468 C1467 1.403 . S
C1468 C1469 1.404 . S
C1468 C1471 1.539 1_545 S
C1469 C1465 1.408 . S
C1469 C1468 1.404 . S
C1469 H1481 0.930 . S
C1470 C1466 1.524 . S
C1470 H1482 0.956 . S
C1470 H1483 0.961 . S
C1470 H1484 0.961 . S
C1471 C1468 1.539 1_565 S
C1471 H1485 0.958 . S
C1471 H1486 0.961 . S
C1471 H1487 0.960 . S
H1472 C1456 0.931 . S
H1473 C1461 0.929 . S
H1474 C1462 0.971 1_554 S
H1475 C1462 0.960 1_545 S
H1476 C1462 0.960 . S
H1477 C1463 0.961 1_556 S
H1478 C1463 0.961 . S
H1479 C1463 0.961 . S
H1480 C1464 0.931 1_556 S
H1481 C1469 0.930 . S
H1482 C1470 0.956 . S
H1483 C1470 0.961 . S
H1484 C1470 0.961 . S
H1485 C1471 0.958 . S
H1486 C1471 0.961 . S
H1487 C1471 0.960 . S
C1488 C1489 1.406 . S
C1488 C1490 1.387 1_554 S
C1488 H1504 0.922 1_554 S
C1489 C1488 1.406 . S
C1489 C1493 1.376 . S
C1490 C1488 1.387 1_556 S
C1490 C1491 1.369 1_556 S
C1490 C1494 1.531 . S
C1491 C1490 1.369 1_554 S
C1491 C1492 1.410 . S
C1491 C1499 1.503 1_554 S
C1492 C1491 1.410 . S
C1492 C1493 1.392 . S
C1492 C1495 1.511 . S
C1493 C1489 1.376 . S
C1493 C1492 1.392 . S
C1493 H1505 0.929 . S
C1494 C1490 1.531 . S
C1494 H1506 0.960 . S
C1494 H1507 0.962 . S
C1494 H1508 0.960 . S
C1495 C1492 1.511 . S
C1495 H1509 0.961 . S
C1495 H1510 0.961 . S
C1495 H1511 0.961 . S
C1496 C1497 1.370 . S
C1496 C1498 1.363 . S
C1496 H1512 0.931 . S
C1497 C1496 1.370 . S
C1497 C1501 1.408 . S
C1498 C1496 1.363 . S
C1498 C1499 1.370 . S
C1498 C1502 1.524 1_556 S
C1499 C1491 1.503 1_556 S
C1499 C1498 1.370 . S
C1499 C1500 1.403 . S
C1500 C1499 1.403 . S
C1500 C1501 1.404 . S
C1500 C1503 1.539 . S
C1501 C1497 1.408 . S
C1501 C1500 1.404 . S
C1501 H1513 0.930 . S
C1502 C1498 1.524 1_554 S
C1502 H1514 0.956 1_554 S
C1502 H1515 0.961 . S
C1502 H1516 0.961 . S
C1503 C1500 1.539 . S
C1503 H1517 0.958 . S
C1503 H1518 0.961 . S
C1503 H1519 0.960 . S
H1504 C1488 0.922 1_556 S
H1505 C1493 0.929 . S
H1506 C1494 0.960 . S
H1507 C1494 0.962 . S
H1508 C1494 0.960 . S
H1509 C1495 0.961 . S
H1510 C1495 0.961 . S
H1511 C1495 0.961 . S
H1512 C1496 0.931 . S
H1513 C1501 0.930 . S
H1514 C1502 0.956 1_556 S
H1515 C1502 0.961 . S
H1516 C1502 0.961 . S
H1517 C1503 0.958 . S
H1518 C1503 0.961 . S
H1519 C1503 0.960 . S
C1520 C1521 1.391 . S
C1520 C1522 1.394 . S
C1520 H1536 0.931 . S
C1521 C1520 1.391 . S
C1521 C1525 1.376 . S
C1522 C1520 1.394 . S
C1522 C1523 1.369 . S
C1522 C1526 1.531 . S
C1523 C1522 1.369 . S
C1523 C1524 1.410 1_556 S
C1523 C1531 1.503 1_556 S
C1524 C1523 1.410 1_554 S
C1524 C1525 1.392 1_554 S
C1524 C1527 1.511 . S
C1525 C1521 1.376 . S
C1525 C1524 1.392 1_556 S
C1525 H1537 0.929 1_556 S
C1526 C1522 1.531 . S
C1526 H1538 0.960 . S
C1526 H1539 0.962 1_455 S
C1526 H1540 0.960 . S
C1527 C1524 1.511 . S
C1527 H1541 0.961 . S
C1527 H1542 0.961 . S
C1527 H1543 0.961 . S
C1528 C1529 1.370 . S
C1528 C1530 1.363 . S
C1528 H1544 0.931 . S
C1529 C1528 1.370 . S
C1529 C1533 1.409 1_655 S
C1530 C1528 1.363 . S
C1530 C1531 1.370 1_655 S
C1530 C1534 1.524 . S
C1531 C1523 1.503 1_554 S
C1531 C1530 1.370 1_455 S
C1531 C1532 1.403 . S
C1532 C1531 1.403 . S
C1532 C1533 1.404 . S
C1532 C1535 1.539 . S
C1533 C1529 1.409 1_455 S
C1533 C1532 1.404 . S
C1533 H1545 0.930 . S
C1534 C1530 1.524 . S
C1534 H1546 0.956 1_554 S
C1534 H1547 0.961 . S
C1534 H1548 0.961 . S
C1535 C1532 1.539 . S
C1535 H1549 0.958 1_554 S
C1535 H1550 0.961 . S
C1535 H1551 0.960 . S
H1536 C1520 0.931 . S
H1537 C1525 0.929 1_554 S
H1538 C1526 0.960 . S
H1539 C1526 0.962 1_655 S
H1540 C1526 0.960 . S
H1541 C1527 0.961 . S
H1542 C1527 0.961 . S
H1543 C1527 0.961 . S
H1544 C1528 0.931 . S
H1545 C1533 0.930 . S
H1546 C1534 0.956 1_556 S
H1547 C1534 0.961 . S
H1548 C1534 0.961 . S
H1549 C1535 0.958 1_556 S
H1550 C1535 0.961 . S
H1551 C1535 0.960 . S
C1552 C1553 1.413 . S
C1552 C1554 1.394 . S
C1552 H1568 0.931 . S
C1553 C1552 1.413 . S
C1553 C1557 1.359 1_545 S
C1554 C1552 1.394 . S
C1554 C1555 1.369 . S
C1554 C1558 1.531 1_455 S
C1555 C1554 1.369 . S
C1555 C1556 1.410 1_544 S
C1555 C1563 1.503 1_454 S
C1556 C1555 1.410 1_566 S
C1556 C1557 1.392 1_556 S
C1556 C1559 1.511 . S
C1557 C1553 1.359 1_565 S
C1557 C1556 1.392 1_554 S
C1557 H1569 0.929 1_554 S
C1558 C1554 1.531 1_655 S
C1558 H1570 0.960 . S
C1558 H1571 0.962 . S
C1558 H1572 0.960 1_655 S
C1559 C1556 1.511 . S
C1559 H1573 0.961 . S
C1559 H1574 0.961 . S
C1559 H1575 0.961 . S
C1560 C1561 1.370 1_565 S
C1560 C1562 1.375 . S
C1560 H1576 0.931 . S
C1561 C1560 1.370 1_545 S
C1561 C1565 1.408 . S
C1562 C1560 1.375 . S
C1562 C1563 1.380 1_565 S
C1562 C1566 1.504 1_556 S
C1563 C1555 1.503 1_656 S
C1563 C1562 1.380 1_545 S
C1563 C1564 1.403 . S
C1564 C1563 1.403 . S
C1564 C1565 1.404 . S
C1564 C1567 1.539 . S
C1565 C1561 1.408 . S
C1565 C1564 1.404 . S
C1565 H1577 0.930 . S
C1566 C1562 1.504 1_554 S
C1566 H1578 0.956 . S
C1566 H1579 0.961 . S
C1566 H1580 0.961 . S
C1567 C1564 1.539 . S
C1567 H1581 0.958 . S
C1567 H1582 0.961 . S
C1567 H1583 0.960 1_655 S
H1568 C1552 0.931 . S
H1569 C1557 0.929 1_556 S
H1570 C1558 0.960 . S
H1571 C1558 0.962 . S
H1572 C1558 0.960 1_455 S
H1573 C1559 0.961 . S
H1574 C1559 0.961 . S
H1575 C1559 0.961 . S
H1576 C1560 0.931 . S
H1577 C1565 0.930 . S
H1578 C1566 0.956 . S
H1579 C1566 0.961 . S
H1580 C1566 0.961 . S
H1581 C1567 0.958 . S
H1582 C1567 0.961 . S
H1583 C1567 0.960 1_455 S
C1584 C1585 1.391 . S
C1584 C1586 1.394 . S
C1584 H1600 0.931 . S
C1585 C1584 1.391 . S
C1585 C1589 1.376 . S
C1586 C1584 1.394 . S
C1586 C1587 1.369 . S
C1586 C1590 1.531 . S
C1587 C1586 1.369 . S
C1587 C1588 1.410 . S
C1587 C1595 1.503 . S
C1588 C1587 1.410 . S
C1588 C1589 1.392 . S
C1588 C1591 1.511 . S
C1589 C1585 1.376 . S
C1589 C1588 1.392 . S
C1589 H1601 0.929 . S
C1590 C1586 1.531 . S
C1590 H1602 0.960 . S
C1590 H1603 0.962 . S
C1590 H1604 0.960 . S
C1591 C1588 1.511 . S
C1591 H1605 0.961 . S
C1591 H1606 0.961 . S
C1591 H1607 0.961 . S
C1592 C1593 1.370 . S
C1592 C1594 1.363 . S
C1592 H1608 0.931 . S
C1593 C1592 1.370 . S
C1593 C1597 1.408 . S
C1594 C1592 1.363 . S
C1594 C1595 1.370 . S
C1594 C1598 1.524 . S
C1595 C1587 1.503 . S
C1595 C1594 1.370 . S
C1595 C1596 1.403 . S
C1596 C1595 1.403 . S
C1596 C1597 1.404 . S
C1596 C1599 1.539 . S
C1597 C1593 1.408 . S
C1597 C1596 1.404 . S
C1597 H1609 0.930 . S
C1598 C1594 1.524 . S
C1598 H1610 0.956 . S
C1598 H1611 0.961 . S
C1598 H1612 0.961 . S
C1599 C1596 1.539 . S
C1599 H1613 0.958 . S
C1599 H1614 0.961 . S
C1599 H1615 0.960 . S
H1600 C1584 0.931 . S
H1601 C1589 0.929 . S
H1602 C1590 0.960 . S
H1603 C1590 0.962 . S
H1604 C1590 0.960 . S
H1605 C1591 0.961 . S
H1606 C1591 0.961 . S
H1607 C1591 0.961 . S
H1608 C1592 0.931 . S
H1609 C1597 0.930 . S
H1610 C1598 0.956 . S
H1611 C1598 0.961 . S
H1612 C1598 0.961 . S
H1613 C1599 0.958 . S
H1614 C1599 0.961 . S
H1615 C1599 0.960 . S
C1616 C1617 1.391 . S
C1616 C1618 1.394 . S
C1616 H1632 0.931 . S
C1617 C1616 1.391 . S
C1617 C1621 1.376 . S
C1618 C1616 1.394 . S
C1618 C1619 1.369 . S
C1618 C1622 1.531 . S
C1619 C1618 1.369 . S
C1619 C1620 1.410 . S
C1619 C1627 1.503 1_455 S
C1620 C1619 1.410 . S
C1620 C1621 1.392 . S
C1620 C1623 1.511 . S
C1621 C1617 1.376 . S
C1621 C1620 1.392 . S
C1621 H1633 0.929 . S
C1622 C1618 1.531 . S
C1622 H1634 0.960 1_455 S
C1622 H1635 0.962 . S
C1622 H1636 0.960 . S
C1623 C1620 1.511 . S
C1623 H1637 0.961 . S
C1623 H1638 0.961 . S
C1623 H1639 0.961 . S
C1624 C1625 1.370 . S
C1624 C1626 1.363 . S
C1624 H1640 0.931 . S
C1625 C1624 1.370 . S
C1625 C1629 1.408 . S
C1626 C1624 1.363 . S
C1626 C1627 1.370 . S
C1626 C1630 1.524 1_655 S
C1627 C1619 1.503 1_655 S
C1627 C1626 1.370 . S
C1627 C1628 1.403 . S
C1628 C1627 1.403 . S
C1628 C1629 1.404 . S
C1628 C1631 1.539 . S
C1629 C1625 1.408 . S
C1629 C1628 1.404 . S
C1629 H1641 0.930 . S
C1630 C1626 1.524 1_455 S
C1630 H1642 0.956 . S
C1630 H1643 0.961 . S
C1630 H1644 0.961 . S
C1631 C1628 1.539 . S
C1631 H1645 0.958 . S
C1631 H1646 0.961 . S
C1631 H1647 0.960 . S
H1632 C1616 0.931 . S
H1633 C1621 0.929 . S
H1634 C1622 0.960 1_655 S
H1635 C1622 0.962 . S
H1636 C1622 0.960 . S
H1637 C1623 0.961 . S
H1638 C1623 0.961 . S
H1639 C1623 0.961 . S
H1640 C1624 0.931 . S
H1641 C1629 0.930 . S
H1642 C1630 0.956 . S
H1643 C1630 0.961 . S
H1644 C1630 0.961 . S
H1645 C1631 0.958 . S
H1646 C1631 0.961 . S
H1647 C1631 0.960 . S
C1648 C1649 1.391 1_655 S
C1648 C1650 1.394 . S
C1648 H1664 0.931 . S
C1649 C1648 1.391 1_455 S
C1649 C1653 1.376 . S
C1650 C1648 1.394 . S
C1650 C1651 1.369 1_655 S
C1650 C1654 1.531 1_565 S
C1651 C1650 1.369 1_455 S
C1651 C1652 1.410 . S
C1651 C1659 1.503 1_565 S
C1652 C1651 1.410 . S
C1652 C1653 1.392 . S
C1652 C1655 1.511 . S
C1653 C1649 1.376 . S
C1653 C1652 1.392 . S
C1653 H1665 0.929 . S
C1654 C1650 1.531 1_545 S
C1654 H1666 0.960 . S
C1654 H1667 0.963 . S
C1654 H1668 0.960 1_545 S
C1655 C1652 1.511 . S
C1655 H1669 0.961 . S
C1655 H1670 0.961 . S
C1655 H1671 0.961 . S
C1656 C1657 1.376 . S
C1656 C1658 1.363 . S
C1656 H1672 0.931 . S
C1657 C1656 1.376 . S
C1657 C1661 1.402 1_655 S
C1658 C1656 1.363 . S
C1658 C1659 1.370 1_655 S
C1658 C1662 1.524 1_545 S
C1659 C1651 1.503 1_545 S
C1659 C1658 1.370 1_455 S
C1659 C1660 1.403 . S
C1660 C1659 1.403 . S
C1660 C1661 1.404 . S
C1660 C1663 1.539 . S
C1661 C1657 1.402 1_455 S
C1661 C1660 1.404 . S
C1661 H1673 0.930 . S
C1662 C1658 1.524 1_565 S
C1662 H1674 0.956 . S
C1662 H1675 0.961 . S
C1662 H1676 0.957 1_565 S
C1663 C1660 1.539 . S
C1663 H1677 0.958 . S
C1663 H1678 0.961 . S
C1663 H1679 0.960 . S
H1664 C1648 0.931 . S
H1665 C1653 0.929 . S
H1666 C1654 0.960 . S
H1667 C1654 0.963 . S
H1668 C1654 0.960 1_565 S
H1669 C1655 0.961 . S
H1670 C1655 0.961 . S
H1671 C1655 0.961 . S
H1672 C1656 0.931 . S
H1673 C1661 0.930 . S
H1674 C1662 0.956 . S
H1675 C1662 0.961 . S
H1676 C1662 0.957 1_545 S
H1677 C1663 0.958 . S
H1678 C1663 0.961 . S
H1679 C1663 0.960 . S
C1680 C1681 1.391 . S
C1680 C1682 1.394 . S
C1680 H1696 0.931 . S
C1681 C1680 1.391 . S
C1681 C1685 1.376 . S
C1682 C1680 1.394 . S
C1682 C1683 1.369 . S
C1682 C1686 1.531 . S
C1683 C1682 1.369 . S
C1683 C1684 1.410 . S
C1683 C1691 1.503 . S
C1684 C1683 1.410 . S
C1684 C1685 1.392 . S
C1684 C1687 1.511 . S
C1685 C1681 1.376 . S
C1685 C1684 1.392 . S
C1685 H1697 0.929 . S
C1686 C1682 1.531 . S
C1686 H1698 0.960 . S
C1686 H1699 0.962 1_565 S
C1686 H1700 0.960 . S
C1687 C1684 1.511 . S
C1687 H1701 0.961 1_565 S
C1687 H1702 0.961 1_565 S
C1687 H1703 0.961 . S
C1688 C1689 1.370 1_545 S
C1688 C1690 1.363 . S
C1688 H1704 0.931 . S
C1689 C1688 1.370 1_565 S
C1689 C1693 1.408 . S
C1690 C1688 1.363 . S
C1690 C1691 1.370 1_545 S
C1690 C1694 1.524 . S
C1691 C1683 1.503 . S
C1691 C1690 1.370 1_565 S
C1691 C1692 1.403 . S
C1692 C1691 1.403 . S
C1692 C1693 1.404 . S
C1692 C1695 1.539 . S
C1693 C1689 1.408 . S
C1693 C1692 1.404 . S
C1693 H1705 0.930 . S
C1694 C1690 1.524 . S
C1694 H1706 0.956 . S
C1694 H1707 0.961 . S
C1694 H1708 0.961 . S
C1695 C1692 1.539 . S
C1695 H1709 0.958 . S
C1695 H1710 0.961 . S
C1695 H1711 0.960 . S
H1696 C1680 0.931 . S
H1697 C1685 0.929 . S
H1698 C1686 0.960 . S
H1699 C1686 0.962 1_545 S
H1700 C1686 0.960 . S
H1701 C1687 0.961 1_545 S
H1702 C1687 0.961 1_545 S
H1703 C1687 0.961 . S
H1704 C1688 0.931 . S
H1705 C1693 0.930 . S
H1706 C1694 0.956 . S
H1707 C1694 0.961 . S
H1708 C1694 0.961 . S
H1709 C1695 0.958 . S
H1710 C1695 0.961 . S
H1711 C1695 0.960 . S
C1712 C1713 1.391 . S
C1712 C1714 1.394 . S
C1712 H1728 0.931 . S
C1713 C1712 1.391 . S
C1713 C1717 1.376 . S
C1714 C1712 1.394 . S
C1714 C1715 1.369 . S
C1714 C1718 1.531 . S
C1715 C1714 1.369 . S
C1715 C1716 1.410 . S
C1715 C1723 1.503 . S
C1716 C1715 1.410 . S
C1716 C1717 1.392 . S
C1716 C1719 1.511 . S
C1717 C1713 1.376 . S
C1717 C1716 1.392 . S
C1717 H1729 0.929 . S
C1718 C1714 1.531 . S
C1718 H1730 0.960 . S
C1718 H1731 0.962 . S
C1718 H1732 0.960 . S
C1719 C1716 1.511 . S
C1719 H1733 0.961 . S
C1719 H1734 0.961 . S
C1719 H1735 0.961 . S
C1720 C1721 1.370 . S
C1720 C1722 1.363 . S
C1720 H1736 0.931 . S
C1721 C1720 1.370 . S
C1721 C1725 1.408 . S
C1722 C1720 1.363 . S
C1722 C1723 1.370 . S
C1722 C1726 1.524 . S
C1723 C1715 1.503 . S
C1723 C1722 1.370 . S
C1723 C1724 1.403 . S
C1724 C1723 1.403 . S
C1724 C1725 1.404 . S
C1724 C1727 1.539 . S
C1725 C1721 1.408 . S
C1725 C1724 1.404 . S
C1725 H1737 0.930 . S
C1726 C1722 1.524 . S
C1726 H1738 0.956 . S
C1726 H1739 0.961 . S
C1726 H1740 0.961 . S
C1727 C1724 1.539 . S
C1727 H1741 0.958 . S
C1727 H1742 0.961 . S
C1727 H1743 0.960 . S
H1728 C1712 0.931 . S
H1729 C1717 0.929 . S
H1730 C1718 0.960 . S
H1731 C1718 0.962 . S
H1732 C1718 0.960 . S
H1733 C1719 0.961 . S
H1734 C1719 0.961 . S
H1735 C1719 0.961 . S
H1736 C1720 0.931 . S
H1737 C1725 0.930 . S
H1738 C1726 0.956 . S
H1739 C1726 0.961 . S
H1740 C1726 0.961 . S
H1741 C1727 0.958 . S
H1742 C1727 0.961 . S
H1743 C1727 0.960 . S
C1744 C1745 1.391 . S
C1744 C1746 1.394 . S
C1744 H1760 0.931 . S
C1745 C1744 1.391 . S
C1745 C1749 1.376 . S
C1746 C1744 1.394 . S
C1746 C1747 1.369 . S
C1746 C1750 1.531 . S
C1747 C1746 1.369 . S
C1747 C1748 1.410 . S
C1747 C1755 1.503 . S
C1748 C1747 1.410 . S
C1748 C1749 1.392 . S
C1748 C1751 1.511 . S
C1749 C1745 1.376 . S
C1749 C1748 1.392 . S
C1749 H1761 0.929 . S
C1750 C1746 1.531 . S
C1750 H1762 0.960 . S
C1750 H1763 0.962 . S
C1750 H1764 0.960 . S
C1751 C1748 1.511 . S
C1751 H1765 0.961 . S
C1751 H1766 0.961 . S
C1751 H1767 0.961 . S
C1752 C1753 1.370 . S
C1752 C1754 1.363 . S
C1752 H1768 0.931 . S
C1753 C1752 1.370 . S
C1753 C1757 1.408 . S
C1754 C1752 1.363 . S
C1754 C1755 1.370 . S
C1754 C1758 1.524 . S
C1755 C1747 1.503 . S
C1755 C1754 1.370 . S
C1755 C1756 1.403 . S
C1756 C1755 1.403 . S
C1756 C1757 1.404 . S
C1756 C1759 1.539 . S
C1757 C1753 1.408 . S
C1757 C1756 1.404 . S
C1757 H1769 0.930 . S
C1758 C1754 1.524 . S
C1758 H1770 0.956 . S
C1758 H1771 0.961 . S
C1758 H1772 0.961 . S
C1759 C1756 1.539 . S
C1759 H1773 0.958 . S
C1759 H1774 0.961 . S
C1759 H1775 0.960 . S
H1760 C1744 0.931 . S
H1761 C1749 0.929 . S
H1762 C1750 0.960 . S
H1763 C1750 0.962 . S
H1764 C1750 0.960 . S
H1765 C1751 0.961 . S
H1766 C1751 0.961 . S
H1767 C1751 0.961 . S
H1768 C1752 0.931 . S
H1769 C1757 0.930 . S
H1770 C1758 0.956 . S
H1771 C1758 0.961 . S
H1772 C1758 0.961 . S
H1773 C1759 0.958 . S
H1774 C1759 0.961 . S
H1775 C1759 0.960 . S
C1776 C1777 1.391 . S
C1776 C1778 1.394 . S
C1776 H1792 0.931 . S
C1777 C1776 1.391 . S
C1777 C1781 1.376 . S
C1778 C1776 1.394 . S
C1778 C1779 1.369 . S
C1778 C1782 1.531 . S
C1779 C1778 1.369 . S
C1779 C1780 1.427 . S
C1779 C1787 1.503 . S
C1780 C1779 1.427 . S
C1780 C1781 1.394 . S
C1780 C1783 1.493 1_655 S
C1781 C1777 1.376 . S
C1781 C1780 1.394 . S
C1781 H1793 0.929 1_655 S
C1782 C1778 1.531 . S
C1782 H1794 0.960 . S
C1782 H1795 0.962 . S
C1782 H1796 0.960 . S
C1783 C1780 1.493 1_455 S
C1783 H1797 0.961 . S
C1783 H1798 0.961 . S
C1783 H1799 0.961 . S
C1784 C1785 1.370 . S
C1784 C1786 1.363 . S
C1784 H1800 0.931 . S
C1785 C1784 1.370 . S
C1785 C1789 1.408 . S
C1786 C1784 1.363 . S
C1786 C1787 1.370 . S
C1786 C1790 1.524 . S
C1787 C1779 1.503 . S
C1787 C1786 1.370 . S
C1787 C1788 1.403 . S
C1788 C1787 1.403 . S
C1788 C1789 1.404 . S
C1788 C1791 1.539 1_655 S
C1789 C1785 1.408 . S
C1789 C1788 1.404 . S
C1789 H1801 0.930 . S
C1790 C1786 1.524 . S
C1790 H1802 0.956 . S
C1790 H1803 0.961 . S
C1790 H1804 0.961 . S
C1791 C1788 1.539 1_455 S
C1791 H1805 0.958 1_455 S
C1791 H1806 0.961 . S
C1791 H1807 0.960 . S
H1792 C1776 0.931 . S
H1793 C1781 0.929 1_455 S
H1794 C1782 0.960 . S
H1795 C1782 0.962 . S
H1796 C1782 0.960 . S
H1797 C1783 0.961 . S
H1798 C1783 0.961 . S
H1799 C1783 0.961 . S
H1800 C1784 0.931 . S
H1801 C1789 0.930 . S
H1802 C1790 0.956 . S
H1803 C1790 0.961 . S
H1804 C1790 0.961 . S
H1805 C1791 0.958 1_655 S
H1806 C1791 0.961 . S
H1807 C1791 0.960 . S
C1808 C1809 1.391 . S
C1808 C1810 1.394 . S
C1808 H1824 0.931 1_565 S
C1809 C1808 1.391 . S
C1809 C1813 1.376 . S
C1810 C1808 1.394 . S
C1810 C1811 1.369 . S
C1810 C1814 1.531 1_565 S
C1811 C1810 1.369 . S
C1811 C1812 1.410 . S
C1811 C1819 1.503 . S
C1812 C1811 1.410 . S
C1812 C1813 1.392 . S
C1812 C1815 1.511 . S
C1813 C1809 1.376 . S
C1813 C1812 1.392 . S
C1813 H1825 0.929 . S
C1814 C1810 1.531 1_545 S
C1814 H1826 0.960 . S
C1814 H1827 0.962 . S
C1814 H1828 0.960 . S
C1815 C1812 1.511 . S
C1815 H1829 0.961 . S
C1815 H1830 0.961 . S
C1815 H1831 0.961 . S
C1816 C1817 1.370 . S
C1816 C1818 1.363 . S
C1816 H1832 0.931 . S
C1817 C1816 1.370 . S
C1817 C1821 1.408 . S
C1818 C1816 1.363 . S
C1818 C1819 1.370 . S
C1818 C1822 1.524 . S
C1819 C1811 1.503 . S
C1819 C1818 1.370 . S
C1819 C1820 1.403 . S
C1820 C1819 1.403 . S
C1820 C1821 1.404 . S
C1820 C1823 1.539 . S
C1821 C1817 1.408 . S
C1821 C1820 1.404 . S
C1821 H1833 0.930 . S
C1822 C1818 1.524 . S
C1822 H1834 0.956 . S
C1822 H1835 0.961 . S
C1822 H1836 0.961 . S
C1823 C1820 1.539 . S
C1823 H1837 0.958 . S
C1823 H1838 0.961 . S
C1823 H1839 0.960 . S
H1824 C1808 0.931 1_545 S
H1825 C1813 0.929 . S
H1826 C1814 0.960 . S
H1827 C1814 0.962 . S
H1828 C1814 0.960 . S
H1829 C1815 0.961 . S
H1830 C1815 0.961 . S
H1831 C1815 0.961 . S
H1832 C1816 0.931 . S
H1833 C1821 0.930 . S
H1834 C1822 0.956 . S
H1835 C1822 0.961 . S
H1836 C1822 0.961 . S
H1837 C1823 0.958 . S
H1838 C1823 0.961 . S
H1839 C1823 0.960 . S
C1840 C1841 1.391 . S
C1840 C1842 1.394 . S
C1840 H1856 0.931 . S
C1841 C1840 1.391 . S
C1841 C1845 1.376 . S
C1842 C1840 1.394 . S
C1842 C1843 1.369 . S
C1842 C1846 1.531 . S
C1843 C1842 1.369 . S
C1843 C1844 1.410 . S
C1843 C1851 1.503 . S
C1844 C1843 1.410 . S
C1844 C1845 1.392 . S
C1844 C1847 1.511 . S
C1845 C1841 1.376 . S
C1845 C1844 1.392 . S
C1845 H1857 0.929 . S
C1846 C1842 1.531 . S
C1846 H1858 0.960 . S
C1846 H1859 0.962 . S
C1846 H1860 0.960 . S
C1847 C1844 1.511 . S
C1847 H1861 0.961 . S
C1847 H1862 0.961 . S
C1847 H1863 0.961 . S
C1848 C1849 1.370 . S
C1848 C1850 1.363 . S
C1848 H1864 0.931 . S
C1849 C1848 1.370 . S
C1849 C1853 1.408 . S
C1850 C1848 1.363 . S
C1850 C1851 1.370 . S
C1850 C1854 1.524 . S
C1851 C1843 1.503 . S
C1851 C1850 1.370 . S
C1851 C1852 1.403 . S
C1852 C1851 1.403 . S
C1852 C1853 1.404 . S
C1852 C1855 1.539 . S
C1853 C1849 1.408 . S
C1853 C1852 1.404 . S
C1853 H1865 0.930 . S
C1854 C1850 1.524 . S
C1854 H1866 0.956 . S
C1854 H1867 0.961 . S
C1854 H1868 0.961 . S
C1855 C1852 1.539 . S
C1855 H1869 0.958 . S
C1855 H1870 0.961 . S
C1855 H1871 0.960 . S
H1856 C1840 0.931 . S
H1857 C1845 0.929 . S
H1858 C1846 0.960 . S
H1859 C1846 0.962 . S
H1860 C1846 0.960 . S
H1861 C1847 0.961 . S
H1862 C1847 0.961 . S
H1863 C1847 0.961 . S
H1864 C1848 0.931 . S
H1865 C1853 0.930 . S
H1866 C1854 0.956 . S
H1867 C1854 0.961 . S
H1868 C1854 0.961 . S
H1869 C1855 0.958 . S
H1870 C1855 0.961 . S
H1871 C1855 0.960 . S
C1872 C1873 1.391 . S
C1872 C1874 1.394 . S
C1872 H1888 0.931 . S
C1873 C1872 1.391 . S
C1873 C1877 1.376 . S
C1874 C1872 1.394 . S
C1874 C1875 1.369 . S
C1874 C1878 1.531 . S
C1875 C1874 1.369 . S
C1875 C1876 1.410 . S
C1875 C1883 1.503 . S
C1876 C1875 1.410 . S
C1876 C1877 1.392 . S
C1876 C1879 1.511 . S
C1877 C1873 1.376 . S
C1877 C1876 1.392 . S
C1877 H1889 0.929 . S
C1878 C1874 1.531 . S
C1878 H1890 0.960 . S
C1878 H1891 0.962 . S
C1878 H1892 0.960 . S
C1879 C1876 1.511 . S
C1879 H1893 0.961 . S
C1879 H1894 0.961 . S
C1879 H1895 0.961 . S
C1880 C1881 1.370 . S
C1880 C1882 1.363 . S
C1880 H1896 0.931 . S
C1881 C1880 1.370 . S
C1881 C1885 1.408 . S
C1882 C1880 1.363 . S
C1882 C1883 1.370 . S
C1882 C1886 1.524 . S
C1883 C1875 1.503 . S
C1883 C1882 1.370 . S
C1883 C1884 1.403 . S
C1884 C1883 1.403 . S
C1884 C1885 1.404 . S
C1884 C1887 1.539 . S
C1885 C1881 1.408 . S
C1885 C1884 1.404 . S
C1885 H1897 0.930 . S
C1886 C1882 1.524 . S
C1886 H1898 0.956 . S
C1886 H1899 0.961 . S
C1886 H1900 0.961 . S
C1887 C1884 1.539 . S
C1887 H1901 0.958 . S
C1887 H1902 0.961 . S
C1887 H1903 0.960 . S
H1888 C1872 0.931 . S
H1889 C1877 0.929 . S
H1890 C1878 0.960 . S
H1891 C1878 0.962 . S
H1892 C1878 0.960 . S
H1893 C1879 0.961 . S
H1894 C1879 0.961 . S
H1895 C1879 0.961 . S
H1896 C1880 0.931 . S
H1897 C1885 0.930 . S
H1898 C1886 0.956 . S
H1899 C1886 0.961 . S
H1900 C1886 0.961 . S
H1901 C1887 0.958 . S
H1902 C1887 0.961 . S
H1903 C1887 0.960 . S
C1904 C1905 1.391 . S
C1904 C1906 1.394 . S
C1904 H1920 0.931 1_455 S
C1905 C1904 1.391 . S
C1905 C1909 1.376 . S
C1906 C1904 1.394 . S
C1906 C1907 1.369 . S
C1906 C1910 1.531 1_455 S
C1907 C1906 1.369 . S
C1907 C1908 1.410 . S
C1907 C1915 1.503 . S
C1908 C1907 1.410 . S
C1908 C1909 1.392 . S
C1908 C1911 1.511 . S
C1909 C1905 1.376 . S
C1909 C1908 1.392 . S
C1909 H1921 0.929 . S
C1910 C1906 1.531 1_655 S
C1910 H1922 0.960 . S
C1910 H1923 0.962 . S
C1910 H1924 0.960 . S
C1911 C1908 1.511 . S
C1911 H1925 0.961 . S
C1911 H1926 0.961 . S
C1911 H1927 0.961 . S
C1912 C1913 1.370 . S
C1912 C1914 1.363 . S
C1912 H1928 0.938 . S
C1913 C1912 1.370 . S
C1913 C1917 1.408 . S
C1914 C1912 1.363 . S
C1914 C1915 1.370 . S
C1914 C1918 1.524 1_455 S
C1915 C1907 1.503 . S
C1915 C1914 1.370 . S
C1915 C1916 1.403 . S
C1916 C1915 1.403 . S
C1916 C1917 1.404 . S
C1916 C1919 1.539 . S
C1917 C1913 1.408 . S
C1917 C1916 1.404 . S
C1917 H1929 0.930 . S
C1918 C1914 1.524 1_655 S
C1918 H1930 0.956 . S
C1918 H1931 0.961 1_655 S
C1918 H1932 0.961 . S
C1919 C1916 1.539 . S
C1919 H1933 0.958 . S
C1919 H1934 0.961 . S
C1919 H1935 0.960 . S
H1920 C1904 0.931 1_655 S
H1921 C1909 0.929 . S
H1922 C1910 0.960 . S
H1923 C1910 0.962 . S
H1924 C1910 0.960 . S
H1925 C1911 0.961 . S
H1926 C1911 0.961 . S
H1927 C1911 0.961 . S
H1928 C1912 0.938 . S
H1929 C1917 0.930 . S
H1930 C1918 0.956 . S
H1931 C1918 0.961 1_455 S
H1932 C1918 0.961 . S
H1933 C1919 0.958 . S
H1934 C1919 0.961 . S
H1935 C1919 0.960 . S
C1936 C1937 1.401 . S
C1936 C1938 1.394 . S
C1936 H1952 0.921 1_545 S
C1937 C1936 1.401 . S
C1937 C1941 1.376 . S
C1938 C1936 1.394 . S
C1938 C1939 1.369 . S
C1938 C1942 1.530 1_545 S
C1939 C1938 1.369 . S
C1939 C1940 1.410 . S
C1939 C1947 1.503 . S
C1940 C1939 1.410 . S
C1940 C1941 1.392 . S
C1940 C1943 1.511 . S
C1941 C1937 1.376 . S
C1941 C1940 1.392 . S
C1941 H1953 0.929 . S
C1942 C1938 1.530 1_565 S
C1942 H1954 0.960 . S
C1942 H1955 0.962 . S
C1942 H1956 0.960 . S
C1943 C1940 1.511 . S
C1943 H1957 0.961 . S
C1943 H1958 0.961 . S
C1943 H1959 0.961 . S
C1944 C1945 1.370 . S
C1944 C1946 1.363 . S
C1944 H1960 0.931 . S
C1945 C1944 1.370 . S
C1945 C1949 1.408 . S
C1946 C1944 1.363 . S
C1946 C1947 1.370 . S
C1946 C1950 1.524 . S
C1947 C1939 1.503 . S
C1947 C1946 1.370 . S
C1947 C1948 1.403 . S
C1948 C1947 1.403 . S
C1948 C1949 1.404 . S
C1948 C1951 1.539 . S
C1949 C1945 1.408 . S
C1949 C1948 1.404 . S
C1949 H1961 0.930 . S
C1950 C1946 1.524 . S
C1950 H1962 0.956 . S
C1950 H1963 0.961 . S
C1950 H1964 0.961 . S
C1951 C1948 1.539 . S
C1951 H1965 0.958 1_545 S
C1951 H1966 0.961 . S
C1951 H1967 0.960 . S
H1952 C1936 0.921 1_565 S
H1953 C1941 0.929 . S
H1954 C1942 0.960 . S
H1955 C1942 0.962 . S
H1956 C1942 0.960 . S
H1957 C1943 0.961 . S
H1958 C1943 0.961 . S
H1959 C1943 0.961 . S
H1960 C1944 0.931 . S
H1961 C1949 0.930 . S
H1962 C1950 0.956 . S
H1963 C1950 0.961 . S
H1964 C1950 0.961 . S
H1965 C1951 0.958 1_565 S
H1966 C1951 0.961 . S
H1967 C1951 0.960 . S
C945 C52 0.948 . S
C953 C564 0.972 . S
C977 C623 0.959 . S
C985 C111 0.976 . S
C1009 C682 0.980 . S
C1017 C170 0.964 . S
C1041 C505 0.986 . S
C1049 C229 0.957 . S
C1073 C288 0.936 . S
C1081 C918 0.978 . S
C1105 C741 0.952 . S
C1113 C347 0.975 . S
C1137 C800 0.955 . S
C1145 C406 0.972 . S
C1169 C859 0.971 . S
C1177 C465 0.960 . S
C1201 C524 0.973 . S
C1209 C92 0.970 . S
C1233 C583 0.951 . S
C1241 C151 0.973 . S
C1265 C642 0.972 . S
C1273 C210 0.970 . S
C1297 C33 0.986 . S
C1305 C701 0.954 . S
C1329 C760 0.967 . S
C1337 C446 0.969 . S
C1361 C819 0.946 . S
C1369 C269 0.976 . S
C1393 C328 0.952 . S
C1401 C878 0.977 . S
C1425 C937 0.951 . S
C1433 C387 0.974 . S
C1457 C477 1.774 . S
C1465 C5 1.797 . S
C1489 C64 1.755 . S
C1497 C536 1.806 . S
C1521 C595 1.757 . S
C1529 C123 1.806 . S
C1553 C182 1.796 1_545 S
C1561 C654 1.786 . S
C1585 C713 1.762 . S
C1593 C241 1.805 . S
C1617 C300 1.806 . S
C1625 C772 1.784 . S
C1649 C831 1.777 . S
C1657 C359 1.803 . S
C1681 C890 1.819 1_565 S
C1689 C418 1.779 . S
C1713 C239 1.667 . S
C1721 C3 1.696 . S
C1745 C298 1.656 . S
C1753 C62 1.683 . S
C1777 C121 1.673 . S
C1785 C357 1.696 . S
C1809 C416 1.698 . S
C1817 C180 1.675 . S
C1841 C475 1.654 . S
C1849 C711 1.685 . S
C1873 C770 1.669 . S
C1881 C534 1.674 . S
C1905 C829 1.654 . S
C1913 C593 1.685 . S
C1937 C888 1.668 . S
C1945 C652 1.694 . S
