# Generated by pormake.
# Topology bto, (3)-cn, num edge types: 1
# Building blocks:
#     Node 0, Type 0, BuildingBlock: WUSLED_clean_sbu_0, # of connection points: 3
#     Node 1, Type 0, BuildingBlock: WUSLED_clean_sbu_0, # of connection points: 3
#     Node 2, Type 0, BuildingBlock: WUSLED_clean_sbu_0, # of connection points: 3
#     Node 3, Type 0, BuildingBlock: WUSLED_clean_sbu_0, # of connection points: 3
#     Node 4, Type 0, BuildingBlock: WUSLED_clean_sbu_0, # of connection points: 3
#     Node 5, Type 0, BuildingBlock: WUSLED_clean_sbu_0, # of connection points: 3
#     Edge 6, Type (0, 0), BuildingBlock: UKIBUN_clean_linker_0, # of connection points: 2
#     Edge 7, Type (0, 0), BuildingBlock: UKIBUN_clean_linker_0, # of connection points: 2
#     Edge 8, Type (0, 0), BuildingBlock: UKIBUN_clean_linker_0, # of connection points: 2
#     Edge 9, Type (0, 0), BuildingBlock: UKIBUN_clean_linker_0, # of connection points: 2
#     Edge 10, Type (0, 0), BuildingBlock: UKIBUN_clean_linker_0, # of connection points: 2
#     Edge 11, Type (0, 0), BuildingBlock: UKIBUN_clean_linker_0, # of connection points: 2
#     Edge 12, Type (0, 0), BuildingBlock: UKIBUN_clean_linker_0, # of connection points: 2
#     Edge 13, Type (0, 0), BuildingBlock: UKIBUN_clean_linker_0, # of connection points: 2
#     Edge 14, Type (0, 0), BuildingBlock: UKIBUN_clean_linker_0, # of connection points: 2
# Relax obj value: 0.000
# Max RMSD: 0.004
# Mean RMSD: 0.004
data_MOF--net-bto--node1-WUSLED_clean_sbu_0--edge1-UKIBUN_clean_linker_0
_symmetry_space_group_name_H-M    P1
_symmetry_Int_Tables_number       1
_symmetry_cell_setting            triclinic
loop_
_symmetry_equiv_pos_as_xyz
'x, y, z'
_cell_length_a     58.115309
_cell_length_b     58.222532
_cell_length_c     146.153
_cell_angle_alpha  88.864997
_cell_angle_beta   90.570834
_cell_angle_gamma 119.51148
loop_
_atom_site_label
_atom_site_type_symbol
_atom_site_fract_x
_atom_site_fract_y
_atom_site_fract_z
_atom_type_partial_charge
C0 C 0.95765 0.49404 0.04649 0.0
C1 C 0.93749 0.49402 0.05179 0.0
C2 C 0.91855 0.50378 0.03825 0.0
C3 C 0.91814 0.4987 0.04769 0.0
C4 C 0.93895 0.50466 0.03295 0.0
C5 C 0.95814 0.49969 0.03701 0.0
U6 U 0.02085 0.50289 0.06052 0.0
O7 O 0.03973 0.4985 0.04778 0.0
O8 O 0.05846 0.50093 0.06059 0.0
C9 C 0.06074 0.50147 0.05184 0.0
C10 C 0.9762 0.48505 0.05032 0.0
C11 C 0.08305 0.50069 0.04706 0.0
C12 C 0.10633 0.50358 0.03289 0.0
C13 C 0.084 0.50086 0.03744 0.0
C14 C 0.12802 0.50706 0.0474 0.0
C15 C 0.12841 0.50635 0.03781 0.0
C16 C 0.10556 0.5042 0.05198 0.0
C17 C 0.01778 0.4949 0.0878 0.0
C18 C 0.04144 0.50129 0.1023 0.0
C19 C 1.00109 0.50364 0.10198 0.0
C20 C 0.99883 0.49876 0.09253 0.0
C21 C 0.02224 0.50448 0.10699 0.0
C22 C 0.03931 0.49661 0.09286 0.0
C23 C 0.01263 0.48518 0.0781 0.0
O24 O 0.99994 0.49696 0.04722 0.0
O25 O 0.97659 0.4802 0.05896 0.0
O26 O 0.03162 0.48697 0.07304 0.0
O27 O 0.99718 0.49052 0.07326 0.0
H28 H 0.9361 0.48951 0.05904 0.0
H29 H 0.90247 0.49785 0.0519 0.0
H30 H 0.93944 0.50814 0.02562 0.0
H31 H 0.97293 0.49937 0.03265 0.0
H32 H 0.10645 0.50377 0.02547 0.0
H33 H 0.06766 0.49943 0.03339 0.0
H34 H 0.14492 0.50949 0.05137 0.0
H35 H 0.106 0.50522 0.05937 0.0
H36 H 0.05804 0.50202 0.106 0.0
H37 H 0.98581 0.50574 0.10543 0.0
H38 H 0.98164 0.49707 0.08897 0.0
H39 H 0.05411 0.49343 0.08959 0.0
C40 C 0.58395 0.08133 0.3798 0.0
C41 C 0.60405 0.10148 0.38502 0.0
C42 C 0.63194 0.1207 0.37139 0.0
C43 C 0.62766 0.12087 0.38087 0.0
C44 C 0.6125 0.09971 0.3663 0.0
C45 C 0.58888 0.0806 0.37041 0.0
U46 U 0.52991 0.01819 0.39368 0.0
O47 O 0.50647 0.9997 0.38091 0.0
O48 O 0.49077 0.9809 0.39377 0.0
C49 C 0.48879 0.97869 0.38503 0.0
C50 C 0.55659 0.06311 0.38351 0.0
C51 C 0.46572 0.95647 0.38033 0.0
C52 C 0.44506 0.93249 0.36635 0.0
C53 C 0.46481 0.95483 0.37075 0.0
C54 C 0.42671 0.91242 0.381 0.0
C55 C 0.42479 0.9111 0.37134 0.0
C56 C 0.44685 0.93455 0.38538 0.0
C57 C 0.52515 0.02142 0.42068 0.0
C58 C 0.50876 0.9982 0.4353 0.0
C59 C 0.55033 0.0389 0.4348 0.0
C60 C 0.54768 0.04042 0.42531 0.0
C61 C 0.53063 0.01802 0.44011 0.0
C62 C 0.506 1.00002 0.42581 0.0
C63 C 0.52022 0.02658 0.41096 0.0
O64 O 0.54453 0.03957 0.3804 0.0
O65 O 0.55155 0.06246 0.39212 0.0
O66 O 0.50326 0.00761 0.40596 0.0
O67 O 0.54075 0.042 0.40619 0.0
H68 H 0.60111 0.10301 0.39223 0.0
H69 H 0.64186 0.1368 0.38505 0.0
H70 H 0.61507 0.09834 0.35904 0.0
H71 H 0.57393 0.06566 0.36611 0.0
H72 H 0.44623 0.93251 0.35899 0.0
H73 H 0.47983 0.97064 0.3666 0.0
H74 H 0.41258 0.89683 0.38539 0.0
H75 H 0.44766 0.9344 0.39278 0.0
H76 H 0.49299 0.98125 0.43869 0.0
H77 H 0.56764 0.055 0.43779 0.0
H78 H 0.56286 0.05743 0.42165 0.0
H79 H 0.48826 0.98503 0.42255 0.0
C80 C 0.51906 0.56792 0.71301 0.0
C81 C 0.51879 0.58816 0.71812 0.0
C82 C 0.52943 0.61648 0.70446 0.0
C83 C 0.5238 0.61215 0.71386 0.0
C84 C 0.53039 0.59681 0.6994 0.0
C85 C 0.5252 0.57288 0.7036 0.0
U86 U 0.5272 0.51287 0.72716 0.0
O87 O 0.52333 0.49037 0.71435 0.0
O88 O 0.52494 0.4733 0.72719 0.0
C89 C 0.52596 0.47203 0.71845 0.0
C90 C 0.50975 0.54045 0.71684 0.0
C91 C 0.52529 0.44919 0.71368 0.0
C92 C 0.53028 0.43013 0.69961 0.0
C93 C 0.52672 0.4492 0.70409 0.0
C94 C 0.53073 0.41007 0.71417 0.0
C95 C 0.53178 0.40978 0.70453 0.0
C96 C 0.52789 0.42965 0.71866 0.0
C97 C 0.5176 0.50672 0.75427 0.0
C98 C 0.52289 0.48958 0.76913 0.0
C99 C 0.52547 0.53226 0.76824 0.0
C100 C 0.52129 0.52956 0.75876 0.0
C101 C 0.52586 0.51211 0.77353 0.0
C102 C 0.51894 0.48694 0.7596 0.0
C103 C 0.50824 0.50224 0.74447 0.0
O104 O 0.5214 0.52826 0.71382 0.0
O105 O 0.50487 0.53518 0.72545 0.0
O106 O 0.51104 0.48569 0.73949 0.0
O107 O 0.51309 0.52287 0.73966 0.0
H108 H 0.51378 0.58512 0.72532 0.0
H109 H 0.52253 0.627 0.71784 0.0
H110 H 0.53408 0.59953 0.6921 0.0
H111 H 0.52499 0.55774 0.69937 0.0
H112 H 0.53245 0.43202 0.69225 0.0
H113 H 0.52606 0.46461 0.70002 0.0
H114 H 0.53183 0.39517 0.71838 0.0
H115 H 0.52806 0.42964 0.72606 0.0
H116 H 0.52292 0.47369 0.77311 0.0
H117 H 0.52715 0.54959 0.77151 0.0
H118 H 0.5198 0.54499 0.75501 0.0
H119 H 0.51582 0.46891 0.75648 0.0
C120 C 0.52569 0.95239 0.63292 0.0
C121 C 0.52579 0.93244 0.62763 0.0
C122 C 0.53555 0.9133 0.64113 0.0
C123 C 0.53063 0.91312 0.6317 0.0
C124 C 0.53618 0.93338 0.64642 0.0
C125 C 0.53133 0.95268 0.64237 0.0
U126 U 0.53403 0.01565 0.61887 0.0
O127 O 0.52956 0.03404 0.6317 0.0
O128 O 0.53223 0.05318 0.61888 0.0
C129 C 0.53265 0.05518 0.62764 0.0
C130 C 0.5165 0.97087 0.62916 0.0
C131 C 0.53197 0.07751 0.63234 0.0
C132 C 0.53484 0.10122 0.64634 0.0
C133 C 0.53218 0.07877 0.64195 0.0
C134 C 0.53863 0.12239 0.63162 0.0
C135 C 0.53794 0.12343 0.64125 0.0
C136 C 0.5355 0.09979 0.62726 0.0
C137 C 0.52564 0.01308 0.59166 0.0
C138 C 0.53238 0.03694 0.57706 0.0
C139 C 0.53309 0.99579 0.57746 0.0
C140 C 0.52889 0.99385 0.58696 0.0
C141 C 0.53461 0.01724 0.57243 0.0
C142 C 0.52775 0.03482 0.58654 0.0
C143 C 0.51598 0.00783 0.60143 0.0
O144 O 0.52837 0.9945 0.63219 0.0
O145 O 0.51149 0.97141 0.62056 0.0
O146 O 0.51792 0.02671 0.60647 0.0
O147 O 0.52128 0.99225 0.60622 0.0
H148 H 0.52115 0.93112 0.6204 0.0
H149 H 0.52957 0.89741 0.62755 0.0
H150 H 0.53938 0.93355 0.65375 0.0
H151 H 0.53091 0.9673 0.64673 0.0
H152 H 0.53411 0.1008 0.65373 0.0
H153 H 0.5306 0.06247 0.64612 0.0
H154 H 0.54213 0.1392 0.62736 0.0
H155 H 0.53662 0.1001 0.61987 0.0
H156 H 0.53293 0.05336 0.57325 0.0
H157 H 0.53444 0.98018 0.57401 0.0
H158 H 0.52696 0.97656 0.59056 0.0
H159 H 0.52478 0.0497 0.58979 0.0
C160 C 0.57995 0.4985 0.96626 0.0
C161 C 0.60067 0.49887 0.96115 0.0
C162 C 0.62817 0.50853 0.97485 0.0
C163 C 0.62459 0.50393 0.96541 0.0
C164 C 0.60796 0.50877 0.97991 0.0
C165 C 0.58428 0.50389 0.97568 0.0
U166 U 0.52534 0.50721 0.9522 0.0
O167 O 0.50228 0.50267 0.96511 0.0
O168 O 0.48591 0.50523 0.95229 0.0
C169 C 0.48418 0.50569 0.96104 0.0
C170 C 0.55261 0.48933 0.96245 0.0
C171 C 0.461 0.50495 0.96575 0.0
C172 C 0.43995 0.50857 0.97969 0.0
C173 C 0.45988 0.50564 0.97538 0.0
C174 C 0.422 0.51054 0.96489 0.0
C175 C 0.42063 0.51063 0.97446 0.0
C176 C 0.44201 0.50794 0.96059 0.0
C177 C 0.52039 0.49916 0.92504 0.0
C178 C 0.50309 0.50557 0.91046 0.0
C179 C 0.54569 0.50776 0.91076 0.0
C180 C 0.54315 0.50297 0.92027 0.0
C181 C 0.52538 0.5086 0.90574 0.0
C182 C 0.50061 0.50094 0.91996 0.0
C183 C 0.51586 0.4894 0.93484 0.0
O184 O 0.54022 0.50075 0.96549 0.0
O185 O 0.5477 0.48491 0.95384 0.0
O186 O 0.49876 0.49139 0.93988 0.0
O187 O 0.53651 0.49455 0.93961 0.0
H188 H 0.59808 0.49437 0.95394 0.0
H189 H 0.63982 0.50314 0.96143 0.0
H190 H 0.61017 0.51188 0.98723 0.0
H191 H 0.5688 0.50327 0.97992 0.0
H192 H 0.4394 0.50885 0.9871 0.0
H193 H 0.4747 0.50444 0.97959 0.0
H194 H 0.40765 0.51271 0.96071 0.0
H195 H 0.44283 0.50868 0.95319 0.0
H196 H 0.48722 0.50631 0.90676 0.0
H197 H 0.563 0.50975 0.90729 0.0
H198 H 0.55865 0.50125 0.92386 0.0
H199 H 0.48269 0.49781 0.92326 0.0
C200 C 0.95963 0.46538 0.29937 0.0
C201 C 0.9397 0.4449 0.29422 0.0
C202 C 0.92062 0.41733 0.30808 0.0
C203 C 0.92074 0.42116 0.29848 0.0
C204 C 0.9411 0.43763 0.31313 0.0
C205 C 0.96025 0.46095 0.30885 0.0
U206 U 0.02251 0.51949 0.2854 0.0
O207 O 0.04132 0.54251 0.29816 0.0
O208 O 0.05979 0.55873 0.28534 0.0
C209 C 0.0622 0.56042 0.29409 0.0
C210 C 0.97776 0.49265 0.29549 0.0
C211 C 0.08449 0.58337 0.29884 0.0
C212 C 0.10771 0.60431 0.31297 0.0
C213 C 0.08568 0.58439 0.30845 0.0
C214 C 0.12908 0.62181 0.29843 0.0
C215 C 0.12981 0.62384 0.30807 0.0
C216 C 0.10676 0.60213 0.29392 0.0
C217 C 0.01881 0.52431 0.25815 0.0
C218 C 0.04196 0.54136 0.24358 0.0
C219 C 1.00201 0.49897 0.24402 0.0
C220 C 0.99994 0.50164 0.25348 0.0
C221 C 0.02287 0.51907 0.23897 0.0
C222 C 0.04004 0.54395 0.25304 0.0
C223 C 0.01376 0.52892 0.26786 0.0
O224 O 1.00143 0.50469 0.29865 0.0
O225 O 0.97817 0.49768 0.28684 0.0
O226 O 0.03272 0.54598 0.27289 0.0
O227 O 0.99864 0.50832 0.27271 0.0
H228 H 0.93829 0.44743 0.28692 0.0
H229 H 0.90599 0.40613 0.29418 0.0
H230 H 0.94193 0.43647 0.3205 0.0
H231 H 0.97495 0.47625 0.31311 0.0
H232 H 0.10663 0.60438 0.32033 0.0
H233 H 0.06949 0.56966 0.31253 0.0
H234 H 0.14568 0.63518 0.29423 0.0
H235 H 0.10721 0.6013 0.28653 0.0
H236 H 0.0582 0.55712 0.23981 0.0
H237 H 0.98682 0.48172 0.2406 0.0
H238 H 0.98295 0.4863 0.25708 0.0
H239 H 0.05472 0.56182 0.25627 0.0
C240 C 0.02855 0.48998 0.1226 0.0
C241 C 0.0242 0.50762 0.11711 0.0
C242 C 0.03303 0.49392 0.13198 0.0
C243 C 0.0484 0.50544 0.16852 0.0
C244 C 0.02469 0.5382 0.22339 0.0
C245 C 0.02448 0.51797 0.22887 0.0
C246 C 0.02912 0.53932 0.21399 0.0
C247 C 0.04419 0.54539 0.17741 0.0
H248 H 0.0288 0.47325 0.11959 0.0
H249 H 0.03661 0.48022 0.13605 0.0
H250 H 0.04957 0.48965 0.16513 0.0
H251 H 0.02185 0.55343 0.22644 0.0
H252 H 0.02948 0.55525 0.20991 0.0
H253 H 0.04209 0.56065 0.1808 0.0
C254 C 0.02367 0.52894 0.12129 0.0
C255 C 0.02835 0.53297 0.13071 0.0
C256 C 0.04415 0.5449 0.16787 0.0
C257 C 0.02814 0.49842 0.22471 0.0
C258 C 0.03281 0.49969 0.21527 0.0
C259 C 0.04846 0.50594 0.17805 0.0
C260 C 0.03326 0.51556 0.13603 0.0
C261 C 0.03835 0.51962 0.14564 0.0
C262 C 0.04268 0.52247 0.15371 0.0
C263 C 0.04578 0.52467 0.16343 0.0
H264 H 0.02052 0.54292 0.11723 0.0
H265 H 0.02842 0.54976 0.13381 0.0
H266 H 0.04202 0.55978 0.16397 0.0
H267 H 0.02829 0.48277 0.22879 0.0
H268 H 0.03618 0.48484 0.21216 0.0
H269 H 0.04969 0.49054 0.18195 0.0
C270 C 0.03353 0.5203 0.20994 0.0
C271 C 0.03867 0.52209 0.20031 0.0
C272 C 0.0429 0.52428 0.19222 0.0
C273 C 0.0459 0.52563 0.18249 0.0
C274 C 0.51376 0.99931 0.55733 0.0
C275 C 0.53563 0.01795 0.5623 0.0
C276 C 0.5126 0.00209 0.54785 0.0
C277 C 0.50509 0.01082 0.51132 0.0
C278 C 0.55392 0.03761 0.4553 0.0
C279 C 0.5319 0.01791 0.45048 0.0
C280 C 0.55327 0.03962 0.46477 0.0
C281 C 0.54821 0.04953 0.50139 0.0
H282 H 0.49707 0.98328 0.56083 0.0
H283 H 0.49522 0.98803 0.54415 0.0
H284 H 0.48856 0.99552 0.51513 0.0
H285 H 0.57174 0.05208 0.45192 0.0
H286 H 0.56999 0.05546 0.46824 0.0
H287 H 0.56517 0.06426 0.49758 0.0
C288 C 0.55686 0.0388 0.55758 0.0
C289 C 0.55583 0.04136 0.54807 0.0
C290 C 0.54868 0.04984 0.5109 0.0
C291 C 0.5103 0.99905 0.4558 0.0
C292 C 0.5099 0.00106 0.46527 0.0
C293 C 0.50462 0.01052 0.50179 0.0
C294 C 0.53345 0.02329 0.54326 0.0
C295 C 0.53152 0.0266 0.53362 0.0
C296 C 0.52925 0.02879 0.52555 0.0
C297 C 0.52734 0.03022 0.51585 0.0
H298 H 0.57388 0.05339 0.56129 0.0
H299 H 0.57213 0.05773 0.54453 0.0
H300 H 0.56599 0.06481 0.51439 0.0
H301 H 0.49294 0.98296 0.45286 0.0
H302 H 0.49271 0.9868 0.4691 0.0
H303 H 0.48775 0.99498 0.4983 0.0
C304 C 0.53096 0.02178 0.46968 0.0
C305 C 0.52925 0.02507 0.47922 0.0
C306 C 0.52746 0.02751 0.48723 0.0
C307 C 0.52641 0.02961 0.49687 0.0
C308 C 0.50429 0.49365 0.89042 0.0
C309 C 0.52631 0.51133 0.89558 0.0
C310 C 0.50347 0.49717 0.88099 0.0
C311 C 0.49773 0.50624 0.84434 0.0
C312 C 0.54806 0.5343 0.78819 0.0
C313 C 0.52669 0.51351 0.78365 0.0
C314 C 0.54746 0.53649 0.79769 0.0
C315 C 0.54137 0.54528 0.83471 0.0
H316 H 0.4875 0.4772 0.89372 0.0
H317 H 0.48616 0.48345 0.87717 0.0
H318 H 0.48098 0.4908 0.84803 0.0
H319 H 0.565 0.54893 0.78436 0.0
H320 H 0.56392 0.55274 0.8011 0.0
H321 H 0.55853 0.56018 0.83104 0.0
C322 C 0.54794 0.53227 0.89102 0.0
C323 C 0.54702 0.53586 0.88154 0.0
C324 C 0.54123 0.54532 0.84424 0.0
C325 C 0.50506 0.49472 0.7888 0.0
C326 C 0.50433 0.49714 0.79826 0.0
C327 C 0.49787 0.5062 0.8348 0.0
C328 C 0.52464 0.5184 0.87656 0.0
C329 C 0.52319 0.52189 0.86689 0.0
C330 C 0.52106 0.52399 0.85879 0.0
C331 C 0.51965 0.52555 0.84905 0.0
H332 H 0.56509 0.54626 0.89482 0.0
H333 H 0.56355 0.55234 0.87812 0.0
H334 H 0.55828 0.56025 0.84785 0.0
H335 H 0.48831 0.47866 0.78546 0.0
H336 H 0.48715 0.48287 0.80209 0.0
H337 H 0.48122 0.49075 0.83119 0.0
C338 C 0.52532 0.51822 0.80268 0.0
C339 C 0.52358 0.52147 0.81228 0.0
C340 C 0.52156 0.52368 0.82033 0.0
C341 C 0.51993 0.52544 0.83001 0.0
C342 C 0.1469 0.48988 0.02587 0.0
C343 C 0.1513 0.50798 0.03282 0.0
C344 C 0.16777 0.49259 0.02047 0.0
C345 C 0.24794 0.50253 0.99903 0.0
C346 C 0.40329 0.53198 0.98511 0.0
C347 C 0.39852 0.51204 0.97886 0.0
C348 C 0.38217 0.53398 0.98874 0.0
C349 C 0.29985 0.54176 1.00278 0.0
H350 H 0.12718 0.47384 0.02452 0.0
H351 H 0.16389 0.4787 0.01505 0.0
H352 H 0.22795 0.48702 0.99766 0.0
H353 H 0.42332 0.54636 0.98699 0.0
H354 H 0.38611 0.54974 0.99341 0.0
H355 H 0.3199 0.55674 1.00439 0.0
C356 C 0.17726 0.52828 0.03451 0.0
C357 C 0.19816 0.53104 0.02906 0.0
C358 C 0.27879 0.54144 0.00738 0.0
C359 C 0.37231 0.49375 0.97653 0.0
C360 C 0.35126 0.4956 0.98023 0.0
C361 C 0.269 0.50285 0.99443 0.0
C362 C 0.19329 0.51342 0.02196 0.0
C363 C 0.21434 0.51684 0.0161 0.0
C364 C 0.23175 0.51942 0.01112 0.0
C365 C 0.25291 0.52154 1.00563 0.0
H366 H 0.18121 0.54251 0.0398 0.0
H367 H 0.21797 0.54716 0.03026 0.0
H368 H 0.28276 0.55617 0.0125 0.0
H369 H 0.36815 0.47808 0.9718 0.0
H370 H 0.33118 0.48141 0.9783 0.0
H371 H 0.26511 0.48759 0.98954 0.0
C372 C 0.35621 0.51593 0.98622 0.0
C373 C 0.33464 0.51848 0.98965 0.0
C374 C 0.31657 0.52065 0.99254 0.0
C375 C 0.29495 0.52217 0.99644 0.0
C376 C 0.65211 0.15175 0.35784 0.0
C377 C 0.65503 0.1435 0.36672 0.0
C378 C 0.67223 0.17483 0.35385 0.0
C379 C 0.74689 0.26545 0.33806 0.0
C380 C 0.90159 0.38636 0.32194 0.0
C381 C 0.89847 0.39365 0.3129 0.0
C382 C 0.87995 0.36727 0.32691 0.0
C383 C 0.79578 0.29527 0.34672 0.0
H384 H 0.6338 0.14116 0.35408 0.0
H385 H 0.66918 0.1811 0.34713 0.0
H386 H 0.72817 0.25371 0.33461 0.0
H387 H 0.92059 0.39557 0.32532 0.0
H388 H 0.88266 0.36283 0.33395 0.0
H389 H 0.8148 0.30641 0.35005 0.0
C390 C 0.67934 0.15859 0.37128 0.0
C391 C 0.6994 0.18186 0.36729 0.0
C392 C 0.77524 0.27404 0.35135 0.0
C393 C 0.87322 0.37928 0.30882 0.0
C394 C 0.8518 0.35974 0.31374 0.0
C395 C 0.76744 0.2867 0.33342 0.0
C396 C 0.69557 0.19019 0.35866 0.0
C397 C 0.71516 0.21482 0.35478 0.0
C398 C 0.73115 0.23533 0.35132 0.0
C399 C 0.75099 0.25886 0.34696 0.0
H400 H 0.68275 0.15274 0.37801 0.0
H401 H 0.71764 0.19357 0.37102 0.0
H402 H 0.77855 0.26896 0.35822 0.0
H403 H 0.86932 0.38372 0.30196 0.0
H404 H 0.83253 0.34948 0.31051 0.0
H405 H 0.76447 0.2912 0.32643 0.0
C406 C 0.85499 0.35439 0.32286 0.0
C407 C 0.83253 0.33611 0.3281 0.0
C408 C 0.81389 0.32084 0.33259 0.0
C409 C 0.792 0.30126 0.3377 0.0
C410 C 0.51286 0.86774 0.64768 0.0
C411 C 0.53662 0.8907 0.64548 0.0
C412 C 0.51308 0.84529 0.65105 0.0
C413 C 0.51064 0.75685 0.6643 0.0
C414 C 0.55573 0.6606 0.69659 0.0
C415 C 0.53124 0.63987 0.69961 0.0
C416 C 0.55671 0.68076 0.69093 0.0
C417 C 0.55813 0.75744 0.66836 0.0
H418 H 0.49407 0.86707 0.6466 0.0
H419 H 0.49451 0.82762 0.65259 0.0
H420 H 0.49222 0.7567 0.66288 0.0
H421 H 0.57395 0.66083 0.69841 0.0
H422 H 0.57566 0.69646 0.68852 0.0
H423 H 0.57661 0.75803 0.67005 0.0
C424 C 0.56078 0.89108 0.6469 0.0
C425 C 0.56099 0.86849 0.65028 0.0
C426 C 0.55861 0.77881 0.66373 0.0
C427 C 0.50789 0.6399 0.69709 0.0
C428 C 0.50887 0.65987 0.69138 0.0
C429 C 0.51015 0.73544 0.66892 0.0
C430 C 0.53708 0.84554 0.65225 0.0
C431 C 0.53687 0.82204 0.65542 0.0
C432 C 0.53581 0.80194 0.65809 0.0
C433 C 0.53493 0.77872 0.66186 0.0
H434 H 0.57932 0.90856 0.64521 0.0
H435 H 0.57967 0.86881 0.65123 0.0
H436 H 0.57746 0.79572 0.66189 0.0
H437 H 0.48883 0.62393 0.69926 0.0
H438 H 0.49061 0.65922 0.68929 0.0
H439 H 0.49137 0.71891 0.67106 0.0
C440 C 0.53322 0.68005 0.6882 0.0
C441 C 0.53387 0.6996 0.68198 0.0
C442 C 0.53379 0.71572 0.67677 0.0
C443 C 0.53395 0.73601 0.67109 0.0
C444 C 0.87062 0.48519 0.03471 0.0
C445 C 0.89664 0.50628 0.03395 0.0
C446 C 0.84951 0.4876 0.03118 0.0
C447 C 0.76619 0.49433 0.01748 0.0
C448 C 0.67595 0.53322 0.9797 0.0
C449 C 0.65124 0.50999 0.97977 0.0
C450 C 0.69645 0.53503 0.98532 0.0
C451 C 0.77493 0.53968 0.00763 0.0
H452 H 0.86665 0.46688 0.03808 0.0
H453 H 0.82956 0.47116 0.03187 0.0
H454 H 0.76278 0.47656 0.02115 0.0
H455 H 0.67909 0.55014 0.97555 0.0
H456 H 0.71528 0.55319 0.98537 0.0
H457 H 0.77856 0.55712 1.00369 0.0
C458 C 0.90124 0.52975 0.02945 0.0
C459 C 0.87999 0.53224 0.026 0.0
C460 C 0.79578 0.53929 0.01226 0.0
C461 C 0.64761 0.48847 0.98531 0.0
C462 C 0.66805 0.49025 0.99086 0.0
C463 C 0.7453 0.49472 0.01284 0.0
C464 C 0.85414 0.5112 0.02694 0.0
C465 C 0.83225 0.51368 0.0236 0.0
C466 C 0.8135 0.51516 0.02088 0.0
C467 C 0.7915 0.51647 0.01704 0.0
H468 H 0.92111 0.5463 0.02882 0.0
H469 H 0.88368 0.55059 0.02269 0.0
H470 H 0.81536 0.55644 0.01188 0.0
H471 H 0.62869 0.47045 0.98548 0.0
H472 H 0.66474 0.47356 0.9952 0.0
H473 H 0.72591 0.47725 0.01295 0.0
C474 C 0.69231 0.51364 0.99098 0.0
C475 C 0.71268 0.51562 0.99702 0.0
C476 C 0.72935 0.51665 1.00216 0.0
C477 C 0.74983 0.51724 0.00778 0.0
C478 C 0.38209 0.86621 0.37144 0.0
C479 C 0.40128 0.88878 0.36656 0.0
C480 C 0.35893 0.84734 0.36719 0.0
C481 C 0.26846 0.77439 0.35024 0.0
C482 C 0.16997 0.67031 0.30816 0.0
C483 C 0.15244 0.6467 0.31292 0.0
C484 C 0.18917 0.69231 0.31281 0.0
C485 C 0.26317 0.7784 0.3313 0.0
H486 H 0.38431 0.86274 0.37859 0.0
H487 H 0.34431 0.83067 0.37117 0.0
H488 H 0.27062 0.77249 0.35755 0.0
H489 H 0.16857 0.67258 0.30086 0.0
H490 H 0.20206 0.71021 0.30898 0.0
H491 H 0.26151 0.77991 0.32395 0.0
C492 C 0.39658 0.89053 0.3571 0.0
C493 C 0.37365 0.87139 0.35287 0.0
C494 C 0.28424 0.79885 0.3359 0.0
C495 C 0.15591 0.64598 0.32252 0.0
C496 C 0.17468 0.66821 0.32715 0.0
C497 C 0.2474 0.75394 0.34565 0.0
C498 C 0.35457 0.85014 0.35794 0.0
C499 C 0.33042 0.83145 0.35364 0.0
C500 C 0.31033 0.81603 0.3499 0.0
C501 C 0.28715 0.7966 0.34535 0.0
H502 H 0.40984 0.90697 0.35283 0.0
H503 H 0.37054 0.87361 0.34565 0.0
H504 H 0.29865 0.81596 0.33206 0.0
H505 H 0.1442 0.62841 0.3266 0.0
H506 H 0.17628 0.66724 0.33453 0.0
H507 H 0.23349 0.73645 0.34945 0.0
C508 C 0.19109 0.69146 0.32232 0.0
C509 C 0.20976 0.71446 0.32714 0.0
C510 C 0.2253 0.73355 0.33128 0.0
C511 C 0.24504 0.75573 0.33615 0.0
C512 C 0.5504 0.15384 0.65487 0.0
C513 C 0.54045 0.14744 0.64586 0.0
C514 C 0.55309 0.17642 0.65904 0.0
C515 C 0.56481 0.2646 0.67541 0.0
C516 C 0.52727 0.38359 0.6903 0.0
C517 C 0.53465 0.38884 0.6996 0.0
C518 C 0.53166 0.36569 0.68548 0.0
C519 C 0.54808 0.29651 0.66625 0.0
H520 H 0.55681 0.14191 0.65868 0.0
H521 H 0.56089 0.18097 0.66594 0.0
H522 H 0.57087 0.25206 0.67905 0.0
H523 H 0.51797 0.39312 0.68663 0.0
H524 H 0.52647 0.36261 0.67829 0.0
H525 H 0.54114 0.30849 0.66271 0.0
C526 C 0.53298 0.16439 0.64128 0.0
C527 C 0.53619 0.18721 0.64541 0.0
C528 C 0.54852 0.27598 0.66166 0.0
C529 C 0.54513 0.37411 0.704 0.0
C530 C 0.54884 0.35567 0.69919 0.0
C531 C 0.56438 0.28514 0.68 0.0
C532 C 0.54642 0.1933 0.65426 0.0
C533 C 0.55046 0.21707 0.65839 0.0
C534 C 0.55393 0.23694 0.66192 0.0
C535 C 0.55641 0.25975 0.6663 0.0
H536 H 0.52443 0.16011 0.6345 0.0
H537 H 0.53071 0.20009 0.64169 0.0
H538 H 0.54193 0.27226 0.65461 0.0
H539 H 0.5513 0.37714 0.71107 0.0
H540 H 0.55711 0.34479 0.70268 0.0
H541 H 0.5701 0.28829 0.68714 0.0
C542 C 0.54269 0.35198 0.6899 0.0
C543 C 0.54792 0.33434 0.68483 0.0
C544 C 0.55217 0.31963 0.68046 0.0
C545 C 0.55555 0.30074 0.67546 0.0
loop_
_geom_bond_atom_site_label_1
_geom_bond_atom_site_label_2
_geom_bond_distance
_geom_bond_site_symmetry_2
_ccdc_geom_bond_type
C0 C1 1.264 . S
C0 C5 1.479 . S
C0 C10 1.465 . S
C1 C0 1.264 . S
C1 C3 1.339 . S
C1 H28 0.931 . S
C2 C3 1.395 . S
C2 C4 1.320 . S
C3 C1 1.339 . S
C3 C2 1.395 . S
C3 H29 0.929 . S
C4 C2 1.320 . S
C4 C5 1.405 . S
C4 H30 0.930 . S
C5 C0 1.479 . S
C5 C4 1.405 . S
C5 H31 0.931 . S
U6 O7 2.454 . S
U6 O8 2.458 . S
U6 C9 2.984 . S
U6 C10 2.847 1_455 S
U6 C23 2.882 . S
U6 O24 2.441 1_455 S
U6 O25 2.420 1_455 S
U6 O26 2.455 . S
U6 O27 2.449 1_455 S
O7 U6 2.454 . S
O7 C9 1.353 . S
O8 U6 2.458 . S
O8 C9 1.286 . S
C9 U6 2.984 . S
C9 O7 1.353 . S
C9 O8 1.286 . S
C9 C11 1.363 . S
C10 C0 1.465 . S
C10 U6 2.847 1_655 S
C10 O24 1.249 . S
C10 O25 1.202 . S
C11 C9 1.363 . S
C11 C13 1.408 . S
C11 C16 1.342 . S
C12 C13 1.310 . S
C12 C15 1.461 . S
C12 H32 0.932 . S
C13 C11 1.408 . S
C13 C12 1.310 . S
C13 H33 0.930 . S
C14 C15 1.474 . S
C14 C16 1.285 . S
C14 H34 0.929 . S
C15 C12 1.461 . S
C15 C14 1.474 . S
C16 C11 1.342 . S
C16 C14 1.285 . S
C16 H35 0.930 . S
C17 C20 1.424 1_455 S
C17 C22 1.245 . S
C17 C23 1.428 . S
C18 C21 1.260 . S
C18 C22 1.477 . S
C18 H36 0.932 . S
C19 C20 1.384 . S
C19 C21 1.479 1_655 S
C19 H37 0.929 . S
C20 C17 1.424 1_655 S
C20 C19 1.384 . S
C20 H38 0.928 . S
C21 C18 1.260 . S
C21 C19 1.479 1_455 S
C22 C17 1.245 . S
C22 C18 1.477 . S
C22 H39 0.932 . S
C23 U6 2.882 . S
C23 C17 1.428 . S
C23 O26 1.301 . S
C23 O27 1.282 1_455 S
O24 U6 2.441 1_655 S
O24 C10 1.249 . S
O25 U6 2.420 1_655 S
O25 C10 1.202 . S
O26 U6 2.455 . S
O26 C23 1.301 . S
O27 U6 2.449 1_655 S
O27 C23 1.282 1_655 S
H28 C1 0.931 . S
H29 C3 0.929 . S
H30 C4 0.930 . S
H31 C5 0.931 . S
H32 C12 0.932 . S
H33 C13 0.930 . S
H34 C14 0.929 . S
H35 C16 0.930 . S
H36 C18 0.932 . S
H37 C19 0.929 . S
H38 C20 0.928 . S
H39 C22 0.932 . S
C40 C41 1.264 . S
C40 C45 1.479 . S
C40 C50 1.465 . S
C41 C40 1.264 . S
C41 C43 1.339 . S
C41 H68 0.931 . S
C42 C43 1.395 . S
C42 C44 1.320 . S
C43 C41 1.339 . S
C43 C42 1.395 . S
C43 H69 0.929 . S
C44 C42 1.320 . S
C44 C45 1.405 . S
C44 H70 0.930 . S
C45 C40 1.479 . S
C45 C44 1.405 . S
C45 H71 0.931 . S
U46 O47 2.454 1_545 S
U46 O48 2.458 1_545 S
U46 C49 2.984 1_545 S
U46 C50 2.847 . S
U46 C63 2.882 . S
U46 O64 2.441 . S
U46 O65 2.420 . S
U46 O66 2.455 . S
U46 O67 2.449 . S
O47 U46 2.454 1_565 S
O47 C49 1.353 . S
O48 U46 2.458 1_565 S
O48 C49 1.286 . S
C49 U46 2.984 1_565 S
C49 O47 1.353 . S
C49 O48 1.286 . S
C49 C51 1.363 . S
C50 C40 1.465 . S
C50 U46 2.847 . S
C50 O64 1.249 . S
C50 O65 1.202 . S
C51 C49 1.363 . S
C51 C53 1.408 . S
C51 C56 1.342 . S
C52 C53 1.310 . S
C52 C55 1.461 . S
C52 H72 0.932 . S
C53 C51 1.408 . S
C53 C52 1.310 . S
C53 H73 0.930 . S
C54 C55 1.474 . S
C54 C56 1.285 . S
C54 H74 0.929 . S
C55 C52 1.461 . S
C55 C54 1.474 . S
C56 C51 1.342 . S
C56 C54 1.285 . S
C56 H75 0.930 . S
C57 C60 1.424 . S
C57 C62 1.245 . S
C57 C63 1.428 . S
C58 C61 1.260 . S
C58 C62 1.477 . S
C58 H76 0.932 1_545 S
C59 C60 1.384 . S
C59 C61 1.479 . S
C59 H77 0.929 . S
C60 C57 1.424 . S
C60 C59 1.384 . S
C60 H78 0.928 . S
C61 C58 1.260 . S
C61 C59 1.479 . S
C62 C57 1.245 . S
C62 C58 1.477 . S
C62 H79 0.932 1_545 S
C63 U46 2.882 . S
C63 C57 1.428 . S
C63 O66 1.301 . S
C63 O67 1.282 . S
O64 U46 2.441 . S
O64 C50 1.249 . S
O65 U46 2.420 . S
O65 C50 1.202 . S
O66 U46 2.455 . S
O66 C63 1.301 . S
O67 U46 2.449 . S
O67 C63 1.282 . S
H68 C41 0.931 . S
H69 C43 0.929 . S
H70 C44 0.930 . S
H71 C45 0.931 . S
H72 C52 0.932 . S
H73 C53 0.930 . S
H74 C54 0.929 . S
H75 C56 0.930 . S
H76 C58 0.932 1_565 S
H77 C59 0.929 . S
H78 C60 0.928 . S
H79 C62 0.932 1_565 S
C80 C81 1.264 . S
C80 C85 1.479 . S
C80 C90 1.465 . S
C81 C80 1.264 . S
C81 C83 1.339 . S
C81 H108 0.931 . S
C82 C83 1.395 . S
C82 C84 1.320 . S
C83 C81 1.339 . S
C83 C82 1.395 . S
C83 H109 0.929 . S
C84 C82 1.320 . S
C84 C85 1.405 . S
C84 H110 0.930 . S
C85 C80 1.479 . S
C85 C84 1.405 . S
C85 H111 0.931 . S
U86 O87 2.454 . S
U86 O88 2.458 . S
U86 C89 2.984 . S
U86 C90 2.847 . S
U86 C103 2.882 . S
U86 O104 2.441 . S
U86 O105 2.420 . S
U86 O106 2.455 . S
U86 O107 2.449 . S
O87 U86 2.454 . S
O87 C89 1.353 . S
O88 U86 2.458 . S
O88 C89 1.286 . S
C89 U86 2.984 . S
C89 O87 1.353 . S
C89 O88 1.286 . S
C89 C91 1.363 . S
C90 C80 1.465 . S
C90 U86 2.847 . S
C90 O104 1.249 . S
C90 O105 1.202 . S
C91 C89 1.363 . S
C91 C93 1.408 . S
C91 C96 1.342 . S
C92 C93 1.310 . S
C92 C95 1.461 . S
C92 H112 0.932 . S
C93 C91 1.408 . S
C93 C92 1.310 . S
C93 H113 0.930 . S
C94 C95 1.474 . S
C94 C96 1.285 . S
C94 H114 0.929 . S
C95 C92 1.461 . S
C95 C94 1.474 . S
C96 C91 1.342 . S
C96 C94 1.285 . S
C96 H115 0.930 . S
C97 C100 1.424 . S
C97 C102 1.245 . S
C97 C103 1.428 . S
C98 C101 1.260 . S
C98 C102 1.477 . S
C98 H116 0.932 . S
C99 C100 1.384 . S
C99 C101 1.479 . S
C99 H117 0.929 . S
C100 C97 1.424 . S
C100 C99 1.384 . S
C100 H118 0.928 . S
C101 C98 1.260 . S
C101 C99 1.479 . S
C102 C97 1.245 . S
C102 C98 1.477 . S
C102 H119 0.932 . S
C103 U86 2.882 . S
C103 C97 1.428 . S
C103 O106 1.301 . S
C103 O107 1.282 . S
O104 U86 2.441 . S
O104 C90 1.249 . S
O105 U86 2.420 . S
O105 C90 1.202 . S
O106 U86 2.455 . S
O106 C103 1.301 . S
O107 U86 2.449 . S
O107 C103 1.282 . S
H108 C81 0.931 . S
H109 C83 0.929 . S
H110 C84 0.930 . S
H111 C85 0.931 . S
H112 C92 0.932 . S
H113 C93 0.930 . S
H114 C94 0.929 . S
H115 C96 0.930 . S
H116 C98 0.932 . S
H117 C99 0.929 . S
H118 C100 0.928 . S
H119 C102 0.932 . S
C120 C121 1.264 . S
C120 C125 1.479 . S
C120 C130 1.465 . S
C121 C120 1.264 . S
C121 C123 1.339 . S
C121 H148 0.931 . S
C122 C123 1.395 . S
C122 C124 1.320 . S
C123 C121 1.339 . S
C123 C122 1.395 . S
C123 H149 0.929 . S
C124 C122 1.320 . S
C124 C125 1.405 . S
C124 H150 0.930 . S
C125 C120 1.479 . S
C125 C124 1.405 . S
C125 H151 0.931 . S
U126 O127 2.454 . S
U126 O128 2.458 . S
U126 C129 2.984 . S
U126 C130 2.847 1_545 S
U126 C143 2.882 . S
U126 O144 2.441 1_545 S
U126 O145 2.420 1_545 S
U126 O146 2.455 . S
U126 O147 2.449 1_545 S
O127 U126 2.454 . S
O127 C129 1.353 . S
O128 U126 2.458 . S
O128 C129 1.286 . S
C129 U126 2.984 . S
C129 O127 1.353 . S
C129 O128 1.286 . S
C129 C131 1.363 . S
C130 C120 1.465 . S
C130 U126 2.847 1_565 S
C130 O144 1.249 . S
C130 O145 1.202 . S
C131 C129 1.363 . S
C131 C133 1.408 . S
C131 C136 1.342 . S
C132 C133 1.310 . S
C132 C135 1.461 . S
C132 H152 0.932 . S
C133 C131 1.408 . S
C133 C132 1.310 . S
C133 H153 0.930 . S
C134 C135 1.474 . S
C134 C136 1.285 . S
C134 H154 0.929 . S
C135 C132 1.461 . S
C135 C134 1.474 . S
C136 C131 1.342 . S
C136 C134 1.285 . S
C136 H155 0.930 . S
C137 C140 1.424 1_545 S
C137 C142 1.245 . S
C137 C143 1.428 . S
C138 C141 1.260 . S
C138 C142 1.477 . S
C138 H156 0.932 . S
C139 C140 1.384 . S
C139 C141 1.479 1_565 S
C139 H157 0.929 . S
C140 C137 1.424 1_565 S
C140 C139 1.384 . S
C140 H158 0.928 . S
C141 C138 1.260 . S
C141 C139 1.479 1_545 S
C142 C137 1.245 . S
C142 C138 1.477 . S
C142 H159 0.932 . S
C143 U126 2.882 . S
C143 C137 1.428 . S
C143 O146 1.301 . S
C143 O147 1.282 1_545 S
O144 U126 2.441 1_565 S
O144 C130 1.249 . S
O145 U126 2.420 1_565 S
O145 C130 1.202 . S
O146 U126 2.455 . S
O146 C143 1.301 . S
O147 U126 2.449 1_565 S
O147 C143 1.282 1_565 S
H148 C121 0.931 . S
H149 C123 0.929 . S
H150 C124 0.930 . S
H151 C125 0.931 . S
H152 C132 0.932 . S
H153 C133 0.930 . S
H154 C134 0.929 . S
H155 C136 0.930 . S
H156 C138 0.932 . S
H157 C139 0.929 . S
H158 C140 0.928 . S
H159 C142 0.932 . S
C160 C161 1.264 . S
C160 C165 1.479 . S
C160 C170 1.465 . S
C161 C160 1.264 . S
C161 C163 1.339 . S
C161 H188 0.931 . S
C162 C163 1.395 . S
C162 C164 1.320 . S
C163 C161 1.339 . S
C163 C162 1.395 . S
C163 H189 0.929 . S
C164 C162 1.320 . S
C164 C165 1.405 . S
C164 H190 0.930 . S
C165 C160 1.479 . S
C165 C164 1.405 . S
C165 H191 0.931 . S
U166 O167 2.454 . S
U166 O168 2.458 . S
U166 C169 2.984 . S
U166 C170 2.847 . S
U166 C183 2.882 . S
U166 O184 2.441 . S
U166 O185 2.420 . S
U166 O186 2.455 . S
U166 O187 2.449 . S
O167 U166 2.454 . S
O167 C169 1.353 . S
O168 U166 2.458 . S
O168 C169 1.286 . S
C169 U166 2.984 . S
C169 O167 1.353 . S
C169 O168 1.286 . S
C169 C171 1.363 . S
C170 C160 1.465 . S
C170 U166 2.847 . S
C170 O184 1.249 . S
C170 O185 1.202 . S
C171 C169 1.363 . S
C171 C173 1.408 . S
C171 C176 1.342 . S
C172 C173 1.310 . S
C172 C175 1.461 . S
C172 H192 0.932 . S
C173 C171 1.408 . S
C173 C172 1.310 . S
C173 H193 0.930 . S
C174 C175 1.474 . S
C174 C176 1.285 . S
C174 H194 0.929 . S
C175 C172 1.461 . S
C175 C174 1.474 . S
C176 C171 1.342 . S
C176 C174 1.285 . S
C176 H195 0.930 . S
C177 C180 1.424 . S
C177 C182 1.245 . S
C177 C183 1.428 . S
C178 C181 1.260 . S
C178 C182 1.477 . S
C178 H196 0.932 . S
C179 C180 1.384 . S
C179 C181 1.479 . S
C179 H197 0.929 . S
C180 C177 1.424 . S
C180 C179 1.384 . S
C180 H198 0.928 . S
C181 C178 1.260 . S
C181 C179 1.479 . S
C182 C177 1.245 . S
C182 C178 1.477 . S
C182 H199 0.932 . S
C183 U166 2.882 . S
C183 C177 1.428 . S
C183 O186 1.301 . S
C183 O187 1.282 . S
O184 U166 2.441 . S
O184 C170 1.249 . S
O185 U166 2.420 . S
O185 C170 1.202 . S
O186 U166 2.455 . S
O186 C183 1.301 . S
O187 U166 2.449 . S
O187 C183 1.282 . S
H188 C161 0.931 . S
H189 C163 0.929 . S
H190 C164 0.930 . S
H191 C165 0.931 . S
H192 C172 0.932 . S
H193 C173 0.930 . S
H194 C174 0.929 . S
H195 C176 0.930 . S
H196 C178 0.932 . S
H197 C179 0.929 . S
H198 C180 0.928 . S
H199 C182 0.932 . S
C200 C201 1.264 . S
C200 C205 1.479 . S
C200 C210 1.465 . S
C201 C200 1.264 . S
C201 C203 1.339 . S
C201 H228 0.931 . S
C202 C203 1.395 . S
C202 C204 1.320 . S
C203 C201 1.339 . S
C203 C202 1.395 . S
C203 H229 0.929 . S
C204 C202 1.320 . S
C204 C205 1.405 . S
C204 H230 0.930 . S
C205 C200 1.479 . S
C205 C204 1.405 . S
C205 H231 0.931 . S
U206 O207 2.454 . S
U206 O208 2.458 . S
U206 C209 2.984 . S
U206 C210 2.847 1_455 S
U206 C223 2.882 . S
U206 O224 2.441 1_455 S
U206 O225 2.420 1_455 S
U206 O226 2.455 . S
U206 O227 2.449 1_455 S
O207 U206 2.454 . S
O207 C209 1.353 . S
O208 U206 2.458 . S
O208 C209 1.286 . S
C209 U206 2.984 . S
C209 O207 1.353 . S
C209 O208 1.286 . S
C209 C211 1.363 . S
C210 C200 1.465 . S
C210 U206 2.847 1_655 S
C210 O224 1.249 . S
C210 O225 1.202 . S
C211 C209 1.363 . S
C211 C213 1.408 . S
C211 C216 1.342 . S
C212 C213 1.310 . S
C212 C215 1.461 . S
C212 H232 0.932 . S
C213 C211 1.408 . S
C213 C212 1.310 . S
C213 H233 0.930 . S
C214 C215 1.474 . S
C214 C216 1.285 . S
C214 H234 0.929 . S
C215 C212 1.461 . S
C215 C214 1.474 . S
C216 C211 1.342 . S
C216 C214 1.285 . S
C216 H235 0.930 . S
C217 C220 1.424 1_455 S
C217 C222 1.245 . S
C217 C223 1.428 . S
C218 C221 1.260 . S
C218 C222 1.477 . S
C218 H236 0.932 . S
C219 C220 1.384 . S
C219 C221 1.479 1_655 S
C219 H237 0.929 . S
C220 C217 1.424 1_655 S
C220 C219 1.384 . S
C220 H238 0.928 . S
C221 C218 1.260 . S
C221 C219 1.479 1_455 S
C222 C217 1.245 . S
C222 C218 1.477 . S
C222 H239 0.932 . S
C223 U206 2.882 . S
C223 C217 1.428 . S
C223 O226 1.301 . S
C223 O227 1.282 1_455 S
O224 U206 2.441 1_655 S
O224 C210 1.249 . S
O225 U206 2.420 1_655 S
O225 C210 1.202 . S
O226 U206 2.455 . S
O226 C223 1.301 . S
O227 U206 2.449 1_655 S
O227 C223 1.282 1_655 S
H228 C201 0.931 . S
H229 C203 0.929 . S
H230 C204 0.930 . S
H231 C205 0.931 . S
H232 C212 0.932 . S
H233 C213 0.930 . S
H234 C214 0.929 . S
H235 C216 0.930 . S
H236 C218 0.932 . S
H237 C219 0.929 . S
H238 C220 0.928 . S
H239 C222 0.932 . S
C240 C241 1.420 . S
C240 C242 1.385 . S
C240 H248 0.928 . S
C241 C240 1.420 . S
C241 C254 1.420 . S
C242 C240 1.385 . S
C242 H249 0.929 . S
C242 C260 1.407 . S
C243 H250 0.928 . S
C243 C259 1.374 . S
C243 C263 1.388 . S
C244 C245 1.420 . S
C244 C246 1.385 . S
C244 H251 0.928 . S
C245 C244 1.420 . S
C245 C257 1.420 . S
C246 C244 1.385 . S
C246 H252 0.929 . S
C246 C270 1.407 . S
C247 H253 0.928 . S
C247 C256 1.374 . S
C247 C273 1.388 . S
H248 C240 0.928 . S
H249 C242 0.929 . S
H250 C243 0.928 . S
H251 C244 0.928 . S
H252 C246 0.929 . S
H253 C247 0.928 . S
C254 C241 1.420 . S
C254 C255 1.385 . S
C254 H264 0.928 . S
C255 C254 1.385 . S
C255 C260 1.407 . S
C255 H265 0.929 . S
C256 C247 1.374 . S
C256 C263 1.388 . S
C256 H266 0.928 . S
C257 C245 1.420 . S
C257 C258 1.385 . S
C257 H267 0.928 . S
C258 C257 1.385 . S
C258 H268 0.929 . S
C258 C270 1.407 . S
C259 C243 1.374 . S
C259 H269 0.928 . S
C259 C273 1.388 . S
C260 C242 1.407 . S
C260 C255 1.407 . S
C260 C261 1.428 . S
C261 C260 1.428 . S
C261 C262 1.230 . S
C262 C261 1.230 . S
C262 C263 1.405 . S
C263 C243 1.388 . S
C263 C256 1.388 . S
C263 C262 1.405 . S
H264 C254 0.928 . S
H265 C255 0.929 . S
H266 C256 0.928 . S
H267 C257 0.928 . S
H268 C258 0.929 . S
H269 C259 0.928 . S
C270 C246 1.407 . S
C270 C258 1.407 . S
C270 C271 1.428 . S
C271 C270 1.428 . S
C271 C272 1.230 . S
C272 C271 1.230 . S
C272 C273 1.405 . S
C273 C247 1.388 . S
C273 C259 1.388 . S
C273 C272 1.405 . S
C274 C275 1.422 . S
C274 C276 1.386 . S
C274 H282 0.925 1_545 S
C275 C274 1.422 . S
C275 C288 1.420 . S
C276 C274 1.386 . S
C276 H283 0.929 1_545 S
C276 C294 1.407 . S
C277 H284 0.928 1_545 S
C277 C293 1.374 . S
C277 C297 1.388 . S
C278 C279 1.420 . S
C278 C280 1.385 . S
C278 H285 0.928 . S
C279 C278 1.420 . S
C279 C291 1.420 1_545 S
C280 C278 1.385 . S
C280 H286 0.929 . S
C280 C304 1.407 . S
C281 H287 0.928 . S
C281 C290 1.374 . S
C281 C307 1.388 . S
H282 C274 0.925 1_565 S
H283 C276 0.929 1_565 S
H284 C277 0.928 1_565 S
H285 C278 0.928 . S
H286 C280 0.929 . S
H287 C281 0.928 . S
C288 C275 1.420 . S
C288 C289 1.385 . S
C288 H298 0.928 . S
C289 C288 1.385 . S
C289 C294 1.407 . S
C289 H299 0.929 . S
C290 C281 1.374 . S
C290 C297 1.388 . S
C290 H300 0.928 . S
C291 C279 1.420 1_565 S
C291 C292 1.388 . S
C291 H301 0.928 . S
C292 C291 1.388 . S
C292 H302 0.936 . S
C292 C304 1.398 1_565 S
C293 C277 1.374 . S
C293 H303 0.928 1_545 S
C293 C307 1.388 . S
C294 C276 1.407 . S
C294 C289 1.407 . S
C294 C295 1.428 . S
C295 C294 1.428 . S
C295 C296 1.230 . S
C296 C295 1.230 . S
C296 C297 1.405 . S
C297 C277 1.388 . S
C297 C290 1.388 . S
C297 C296 1.405 . S
H298 C288 0.928 . S
H299 C289 0.929 . S
H300 C290 0.928 . S
H301 C291 0.928 . S
H302 C292 0.936 . S
H303 C293 0.928 1_565 S
C304 C280 1.407 . S
C304 C292 1.398 1_545 S
C304 C305 1.428 . S
C305 C304 1.428 . S
C305 C306 1.230 . S
C306 C305 1.230 . S
C306 C307 1.405 . S
C307 C281 1.388 . S
C307 C293 1.388 . S
C307 C306 1.405 . S
C308 C309 1.420 . S
C308 C310 1.385 . S
C308 H316 0.928 . S
C309 C308 1.420 . S
C309 C322 1.420 . S
C310 C308 1.385 . S
C310 H317 0.929 . S
C310 C328 1.407 . S
C311 H318 0.928 . S
C311 C327 1.374 . S
C311 C331 1.388 . S
C312 C313 1.420 . S
C312 C314 1.385 . S
C312 H319 0.928 . S
C313 C312 1.420 . S
C313 C325 1.420 . S
C314 C312 1.385 . S
C314 H320 0.929 . S
C314 C338 1.407 . S
C315 H321 0.928 . S
C315 C324 1.374 . S
C315 C341 1.388 . S
H316 C308 0.928 . S
H317 C310 0.929 . S
H318 C311 0.928 . S
H319 C312 0.928 . S
H320 C314 0.929 . S
H321 C315 0.928 . S
C322 C309 1.420 . S
C322 C323 1.385 . S
C322 H332 0.928 . S
C323 C322 1.385 . S
C323 C328 1.407 . S
C323 H333 0.929 . S
C324 C315 1.374 . S
C324 C331 1.388 . S
C324 H334 0.928 . S
C325 C313 1.420 . S
C325 C326 1.385 . S
C325 H335 0.928 . S
C326 C325 1.385 . S
C326 H336 0.929 . S
C326 C338 1.407 . S
C327 C311 1.374 . S
C327 H337 0.928 . S
C327 C341 1.388 . S
C328 C310 1.407 . S
C328 C323 1.407 . S
C328 C329 1.428 . S
C329 C328 1.428 . S
C329 C330 1.230 . S
C330 C329 1.230 . S
C330 C331 1.405 . S
C331 C311 1.388 . S
C331 C324 1.388 . S
C331 C330 1.405 . S
H332 C322 0.928 . S
H333 C323 0.929 . S
H334 C324 0.928 . S
H335 C325 0.928 . S
H336 C326 0.929 . S
H337 C327 0.928 . S
C338 C314 1.407 . S
C338 C326 1.407 . S
C338 C339 1.428 . S
C339 C338 1.428 . S
C339 C340 1.230 . S
C340 C339 1.230 . S
C340 C341 1.405 . S
C341 C315 1.388 . S
C341 C327 1.388 . S
C341 C340 1.405 . S
C342 C343 1.420 . S
C342 C344 1.385 . S
C342 H350 0.928 . S
C343 C342 1.420 . S
C343 C356 1.420 . S
C344 C342 1.385 . S
C344 H351 0.929 . S
C344 C362 1.407 . S
C345 H352 0.928 . S
C345 C361 1.374 . S
C345 C365 1.441 . S
C346 C347 1.420 . S
C346 C348 1.385 . S
C346 H353 0.928 . S
C347 C346 1.420 . S
C347 C359 1.420 . S
C348 C346 1.385 . S
C348 H354 0.929 . S
C348 C372 1.407 . S
C349 H355 0.928 . S
C349 C358 1.317 1_556 S
C349 C375 1.388 . S
H350 C342 0.928 . S
H351 C344 0.929 . S
H352 C345 0.928 . S
H353 C346 0.928 . S
H354 C348 0.929 . S
H355 C349 0.928 . S
C356 C343 1.420 . S
C356 C357 1.385 . S
C356 H366 0.928 . S
C357 C356 1.385 . S
C357 C362 1.407 . S
C357 H367 0.929 . S
C358 C349 1.317 1_554 S
C358 C365 1.369 1_554 S
C358 H368 1.015 . S
C359 C347 1.420 . S
C359 C360 1.385 . S
C359 H369 0.928 . S
C360 C359 1.385 . S
C360 H370 0.929 . S
C360 C372 1.407 . S
C361 C345 1.374 . S
C361 H371 0.928 . S
C361 C375 1.388 . S
C362 C344 1.407 . S
C362 C357 1.407 . S
C362 C363 1.428 . S
C363 C362 1.428 . S
C363 C364 1.230 . S
C364 C363 1.230 . S
C364 C365 1.367 1_554 S
C365 C345 1.441 . S
C365 C358 1.369 1_556 S
C365 C364 1.367 1_556 S
H366 C356 0.928 . S
H367 C357 0.929 . S
H368 C358 1.015 . S
H369 C359 0.928 . S
H370 C360 0.929 . S
H371 C361 0.928 . S
C372 C348 1.407 . S
C372 C360 1.407 . S
C372 C373 1.428 . S
C373 C372 1.428 . S
C373 C374 1.230 . S
C374 C373 1.230 . S
C374 C375 1.405 . S
C375 C349 1.388 . S
C375 C361 1.388 . S
C375 C374 1.405 . S
C376 C377 1.420 . S
C376 C378 1.385 . S
C376 H384 0.928 . S
C377 C376 1.420 . S
C377 C390 1.420 . S
C378 C376 1.385 . S
C378 H385 0.929 . S
C378 C396 1.407 . S
C379 H386 0.928 . S
C379 C395 1.374 . S
C379 C399 1.388 . S
C380 C381 1.420 . S
C380 C382 1.385 . S
C380 H387 0.928 . S
C381 C380 1.420 . S
C381 C393 1.420 . S
C382 C380 1.385 . S
C382 H388 0.929 . S
C382 C406 1.407 . S
C383 H389 0.928 . S
C383 C392 1.374 . S
C383 C409 1.388 . S
H384 C376 0.928 . S
H385 C378 0.929 . S
H386 C379 0.928 . S
H387 C380 0.928 . S
H388 C382 0.929 . S
H389 C383 0.928 . S
C390 C377 1.420 . S
C390 C391 1.385 . S
C390 H400 0.928 . S
C391 C390 1.385 . S
C391 C396 1.407 . S
C391 H401 0.929 . S
C392 C383 1.374 . S
C392 C399 1.388 . S
C392 H402 0.928 . S
C393 C381 1.420 . S
C393 C394 1.385 . S
C393 H403 0.928 . S
C394 C393 1.385 . S
C394 H404 0.929 . S
C394 C406 1.407 . S
C395 C379 1.374 . S
C395 H405 0.928 . S
C395 C409 1.388 . S
C396 C378 1.407 . S
C396 C391 1.407 . S
C396 C397 1.428 . S
C397 C396 1.428 . S
C397 C398 1.230 . S
C398 C397 1.230 . S
C398 C399 1.405 . S
C399 C379 1.388 . S
C399 C392 1.388 . S
C399 C398 1.405 . S
H400 C390 0.928 . S
H401 C391 0.929 . S
H402 C392 0.928 . S
H403 C393 0.928 . S
H404 C394 0.929 . S
H405 C395 0.928 . S
C406 C382 1.407 . S
C406 C394 1.407 . S
C406 C407 1.428 . S
C407 C406 1.428 . S
C407 C408 1.230 . S
C408 C407 1.230 . S
C408 C409 1.405 . S
C409 C383 1.388 . S
C409 C395 1.388 . S
C409 C408 1.405 . S
C410 C411 1.420 . S
C410 C412 1.385 . S
C410 H418 0.928 . S
C411 C410 1.420 . S
C411 C424 1.420 . S
C412 C410 1.385 . S
C412 H419 0.929 . S
C412 C430 1.407 . S
C413 H420 0.928 . S
C413 C429 1.374 . S
C413 C433 1.388 . S
C414 C415 1.420 . S
C414 C416 1.385 . S
C414 H421 0.928 . S
C415 C414 1.420 . S
C415 C427 1.420 . S
C416 C414 1.385 . S
C416 H422 0.929 . S
C416 C440 1.407 . S
C417 H423 0.928 . S
C417 C426 1.374 . S
C417 C443 1.388 . S
H418 C410 0.928 . S
H419 C412 0.929 . S
H420 C413 0.928 . S
H421 C414 0.928 . S
H422 C416 0.929 . S
H423 C417 0.928 . S
C424 C411 1.420 . S
C424 C425 1.385 . S
C424 H434 0.928 . S
C425 C424 1.385 . S
C425 C430 1.407 . S
C425 H435 0.929 . S
C426 C417 1.374 . S
C426 C433 1.388 . S
C426 H436 0.928 . S
C427 C415 1.420 . S
C427 C428 1.385 . S
C427 H437 0.928 . S
C428 C427 1.385 . S
C428 H438 0.929 . S
C428 C440 1.407 . S
C429 C413 1.374 . S
C429 H439 0.928 . S
C429 C443 1.388 . S
C430 C412 1.407 . S
C430 C425 1.407 . S
C430 C431 1.428 . S
C431 C430 1.428 . S
C431 C432 1.230 . S
C432 C431 1.230 . S
C432 C433 1.405 . S
C433 C413 1.388 . S
C433 C426 1.388 . S
C433 C432 1.405 . S
H434 C424 0.928 . S
H435 C425 0.929 . S
H436 C426 0.928 . S
H437 C427 0.928 . S
H438 C428 0.929 . S
H439 C429 0.928 . S
C440 C416 1.407 . S
C440 C428 1.407 . S
C440 C441 1.428 . S
C441 C440 1.428 . S
C441 C442 1.230 . S
C442 C441 1.230 . S
C442 C443 1.405 . S
C443 C417 1.388 . S
C443 C429 1.388 . S
C443 C442 1.405 . S
C444 C445 1.420 . S
C444 C446 1.385 . S
C444 H452 0.928 . S
C445 C444 1.420 . S
C445 C458 1.420 . S
C446 C444 1.385 . S
C446 H453 0.929 . S
C446 C464 1.407 . S
C447 H454 0.928 . S
C447 C463 1.374 . S
C447 C467 1.388 . S
C448 C449 1.420 . S
C448 C450 1.385 . S
C448 H455 0.928 . S
C449 C448 1.420 . S
C449 C461 1.420 . S
C450 C448 1.385 . S
C450 H456 0.929 . S
C450 C474 1.407 . S
C451 H457 0.928 1_554 S
C451 C460 1.374 . S
C451 C477 1.388 . S
H452 C444 0.928 . S
H453 C446 0.929 . S
H454 C447 0.928 . S
H455 C448 0.928 . S
H456 C450 0.929 . S
H457 C451 0.928 1_556 S
C458 C445 1.420 . S
C458 C459 1.385 . S
C458 H468 0.928 . S
C459 C458 1.385 . S
C459 C464 1.407 . S
C459 H469 0.929 . S
C460 C451 1.374 . S
C460 C467 1.388 . S
C460 H470 0.928 . S
C461 C449 1.420 . S
C461 C462 1.385 . S
C461 H471 0.928 . S
C462 C461 1.385 . S
C462 H472 0.929 . S
C462 C474 1.407 . S
C463 C447 1.374 . S
C463 H473 0.928 . S
C463 C477 1.388 . S
C464 C446 1.407 . S
C464 C459 1.407 . S
C464 C465 1.428 . S
C465 C464 1.428 . S
C465 C466 1.230 . S
C466 C465 1.230 . S
C466 C467 1.405 . S
C467 C447 1.388 . S
C467 C460 1.388 . S
C467 C466 1.405 . S
H468 C458 0.928 . S
H469 C459 0.929 . S
H470 C460 0.928 . S
H471 C461 0.928 . S
H472 C462 0.929 . S
H473 C463 0.928 . S
C474 C450 1.407 . S
C474 C462 1.407 . S
C474 C475 1.428 . S
C475 C474 1.428 . S
C475 C476 1.230 . S
C476 C475 1.230 . S
C476 C477 1.405 1_556 S
C477 C451 1.388 . S
C477 C463 1.388 . S
C477 C476 1.405 1_554 S
C478 C479 1.420 . S
C478 C480 1.385 . S
C478 H486 0.928 . S
C479 C478 1.420 . S
C479 C492 1.420 . S
C480 C478 1.385 . S
C480 H487 0.929 . S
C480 C498 1.407 . S
C481 H488 0.928 . S
C481 C497 1.374 . S
C481 C501 1.388 . S
C482 C483 1.420 . S
C482 C484 1.385 . S
C482 H489 0.928 . S
C483 C482 1.420 . S
C483 C495 1.420 . S
C484 C482 1.385 . S
C484 H490 0.929 . S
C484 C508 1.407 . S
C485 H491 0.928 . S
C485 C494 1.374 . S
C485 C511 1.388 . S
H486 C478 0.928 . S
H487 C480 0.929 . S
H488 C481 0.928 . S
H489 C482 0.928 . S
H490 C484 0.929 . S
H491 C485 0.928 . S
C492 C479 1.420 . S
C492 C493 1.385 . S
C492 H502 0.928 . S
C493 C492 1.385 . S
C493 C498 1.407 . S
C493 H503 0.929 . S
C494 C485 1.374 . S
C494 C501 1.388 . S
C494 H504 0.928 . S
C495 C483 1.420 . S
C495 C496 1.385 . S
C495 H505 0.928 . S
C496 C495 1.385 . S
C496 H506 0.929 . S
C496 C508 1.407 . S
C497 C481 1.374 . S
C497 H507 0.928 . S
C497 C511 1.388 . S
C498 C480 1.407 . S
C498 C493 1.407 . S
C498 C499 1.428 . S
C499 C498 1.428 . S
C499 C500 1.230 . S
C500 C499 1.230 . S
C500 C501 1.405 . S
C501 C481 1.388 . S
C501 C494 1.388 . S
C501 C500 1.405 . S
H502 C492 0.928 . S
H503 C493 0.929 . S
H504 C494 0.928 . S
H505 C495 0.928 . S
H506 C496 0.929 . S
H507 C497 0.928 . S
C508 C484 1.407 . S
C508 C496 1.407 . S
C508 C509 1.428 . S
C509 C508 1.428 . S
C509 C510 1.230 . S
C510 C509 1.230 . S
C510 C511 1.405 . S
C511 C485 1.388 . S
C511 C497 1.388 . S
C511 C510 1.405 . S
C512 C513 1.420 . S
C512 C514 1.385 . S
C512 H520 0.928 . S
C513 C512 1.420 . S
C513 C526 1.420 . S
C514 C512 1.385 . S
C514 H521 0.929 . S
C514 C532 1.407 . S
C515 H522 0.928 . S
C515 C531 1.374 . S
C515 C535 1.388 . S
C516 C517 1.420 . S
C516 C518 1.385 . S
C516 H523 0.928 . S
C517 C516 1.420 . S
C517 C529 1.420 . S
C518 C516 1.385 . S
C518 H524 0.929 . S
C518 C542 1.407 . S
C519 H525 0.928 . S
C519 C528 1.374 . S
C519 C545 1.388 . S
H520 C512 0.928 . S
H521 C514 0.929 . S
H522 C515 0.928 . S
H523 C516 0.928 . S
H524 C518 0.929 . S
H525 C519 0.928 . S
C526 C513 1.420 . S
C526 C527 1.385 . S
C526 H536 0.928 . S
C527 C526 1.385 . S
C527 C532 1.407 . S
C527 H537 0.929 . S
C528 C519 1.374 . S
C528 C535 1.388 . S
C528 H538 0.928 . S
C529 C517 1.420 . S
C529 C530 1.385 . S
C529 H539 0.928 . S
C530 C529 1.385 . S
C530 H540 0.929 . S
C530 C542 1.407 . S
C531 C515 1.374 . S
C531 H541 0.928 . S
C531 C545 1.388 . S
C532 C514 1.407 . S
C532 C527 1.407 . S
C532 C533 1.428 . S
C533 C532 1.428 . S
C533 C534 1.230 . S
C534 C533 1.230 . S
C534 C535 1.405 . S
C535 C515 1.388 . S
C535 C528 1.388 . S
C535 C534 1.405 . S
H536 C526 0.928 . S
H537 C527 0.929 . S
H538 C528 0.928 . S
H539 C529 0.928 . S
H540 C530 0.929 . S
H541 C531 0.928 . S
C542 C518 1.407 . S
C542 C530 1.407 . S
C542 C543 1.428 . S
C543 C542 1.428 . S
C543 C544 1.230 . S
C544 C543 1.230 . S
C544 C545 1.405 . S
C545 C519 1.388 . S
C545 C531 1.388 . S
C545 C544 1.405 . S
C241 C21 1.496 . S
C245 C221 1.495 . S
C275 C141 1.486 . S
C279 C61 1.482 . S
C309 C181 1.492 . S
C313 C101 1.486 . S
C343 C15 1.500 . S
C347 C175 1.500 . S
C377 C42 1.482 . S
C381 C202 1.483 . S
C411 C122 1.489 . S
C415 C82 1.484 . S
C445 C2 1.493 . S
C449 C162 1.485 . S
C479 C55 1.500 . S
C483 C215 1.501 . S
C513 C135 1.501 . S
C517 C95 1.500 . S
