# Generated by pormake.
# Topology umm, (4)-cn, num edge types: 1
# Building blocks:
#     Node 0, Type 0, BuildingBlock: QUQFOY_clean_sbu_1, # of connection points: 4
#     Node 1, Type 0, BuildingBlock: QUQFOY_clean_sbu_1, # of connection points: 4
#     Node 2, Type 0, BuildingBlock: QUQFOY_clean_sbu_1, # of connection points: 4
#     Node 3, Type 0, BuildingBlock: QUQFOY_clean_sbu_1, # of connection points: 4
#     Node 4, Type 0, BuildingBlock: QUQFOY_clean_sbu_1, # of connection points: 4
#     Node 5, Type 0, BuildingBlock: QUQFOY_clean_sbu_1, # of connection points: 4
#     Node 6, Type 0, BuildingBlock: QUQFOY_clean_sbu_1, # of connection points: 4
#     Node 7, Type 0, BuildingBlock: QUQFOY_clean_sbu_1, # of connection points: 4
#     Node 8, Type 0, BuildingBlock: QUQFOY_clean_sbu_1, # of connection points: 4
#     Node 9, Type 0, BuildingBlock: QUQFOY_clean_sbu_1, # of connection points: 4
#     Node 10, Type 0, BuildingBlock: QUQFOY_clean_sbu_1, # of connection points: 4
#     Node 11, Type 0, BuildingBlock: QUQFOY_clean_sbu_1, # of connection points: 4
#     Edge 12, Type (0, 0), BuildingBlock: XUDNAN_clean_linker_2, # of connection points: 2
#     Edge 13, Type (0, 0), BuildingBlock: XUDNAN_clean_linker_2, # of connection points: 2
#     Edge 14, Type (0, 0), BuildingBlock: XUDNAN_clean_linker_2, # of connection points: 2
#     Edge 15, Type (0, 0), BuildingBlock: XUDNAN_clean_linker_2, # of connection points: 2
#     Edge 16, Type (0, 0), BuildingBlock: XUDNAN_clean_linker_2, # of connection points: 2
#     Edge 17, Type (0, 0), BuildingBlock: XUDNAN_clean_linker_2, # of connection points: 2
#     Edge 18, Type (0, 0), BuildingBlock: XUDNAN_clean_linker_2, # of connection points: 2
#     Edge 19, Type (0, 0), BuildingBlock: XUDNAN_clean_linker_2, # of connection points: 2
#     Edge 20, Type (0, 0), BuildingBlock: XUDNAN_clean_linker_2, # of connection points: 2
#     Edge 21, Type (0, 0), BuildingBlock: XUDNAN_clean_linker_2, # of connection points: 2
#     Edge 22, Type (0, 0), BuildingBlock: XUDNAN_clean_linker_2, # of connection points: 2
#     Edge 23, Type (0, 0), BuildingBlock: XUDNAN_clean_linker_2, # of connection points: 2
#     Edge 24, Type (0, 0), BuildingBlock: XUDNAN_clean_linker_2, # of connection points: 2
#     Edge 25, Type (0, 0), BuildingBlock: XUDNAN_clean_linker_2, # of connection points: 2
#     Edge 26, Type (0, 0), BuildingBlock: XUDNAN_clean_linker_2, # of connection points: 2
#     Edge 27, Type (0, 0), BuildingBlock: XUDNAN_clean_linker_2, # of connection points: 2
#     Edge 28, Type (0, 0), BuildingBlock: XUDNAN_clean_linker_2, # of connection points: 2
#     Edge 29, Type (0, 0), BuildingBlock: XUDNAN_clean_linker_2, # of connection points: 2
#     Edge 30, Type (0, 0), BuildingBlock: XUDNAN_clean_linker_2, # of connection points: 2
#     Edge 31, Type (0, 0), BuildingBlock: XUDNAN_clean_linker_2, # of connection points: 2
#     Edge 32, Type (0, 0), BuildingBlock: XUDNAN_clean_linker_2, # of connection points: 2
#     Edge 33, Type (0, 0), BuildingBlock: XUDNAN_clean_linker_2, # of connection points: 2
#     Edge 34, Type (0, 0), BuildingBlock: XUDNAN_clean_linker_2, # of connection points: 2
#     Edge 35, Type (0, 0), BuildingBlock: XUDNAN_clean_linker_2, # of connection points: 2
# Relax obj value: 0.042
# Max RMSD: 0.170
# Mean RMSD: 0.170
data_MOF--net-umm--node1-QUQFOY_clean_sbu_1--edge1-XUDNAN_clean_linker_2
_symmetry_space_group_name_H-M    P1
_symmetry_Int_Tables_number       1
_symmetry_cell_setting            triclinic
loop_
_symmetry_equiv_pos_as_xyz
'x, y, z'
_cell_length_a     56.937971
_cell_length_b     56.772433
_cell_length_c     28.711037
_cell_angle_alpha  90.133869
_cell_angle_beta   89.727195
_cell_angle_gamma 120.28924
loop_
_atom_site_label
_atom_site_type_symbol
_atom_site_fract_x
_atom_site_fract_y
_atom_site_fract_z
_atom_type_partial_charge
O0 O 0.47097 0.5579 0.08019 0.0
Cd1 Cd 0.45008 0.57884 0.08199 0.0
Cd2 Cd 0.41218 0.53169 0.05105 0.0
O3 O 0.4344 0.51712 0.08582 0.0
O4 O 0.47085 0.61123 0.12372 0.0
O5 O 0.43095 0.57572 0.14262 0.0
C6 C 0.45176 0.59879 0.15424 0.0
C7 C 0.37048 0.52887 0.05992 0.0
C8 C 0.46022 0.53242 0.08745 0.0
C9 C 0.43478 0.57488 0.98319 0.0
O10 O 0.42763 0.54993 0.98832 0.0
O11 O 0.44113 0.59037 0.01873 0.0
O12 O 0.37173 0.50853 0.04216 0.0
O13 O 0.39212 0.54829 0.07917 0.0
O14 O 0.91851 0.47092 0.44076 0.0
Cd15 Cd 0.87806 0.44055 0.44328 0.0
Cd16 Cd 0.89968 0.41513 0.39673 0.0
O17 O 0.93739 0.44689 0.41912 0.0
O18 O 0.86195 0.44962 0.49751 0.0
O19 O 0.86582 0.41274 0.49435 0.0
C20 C 0.85892 0.4279 0.51745 0.0
C21 C 0.88159 0.36822 0.39602 0.0
C22 C 0.93971 0.46937 0.43279 0.0
C23 C 0.86188 0.42857 0.34567 0.0
O24 O 0.88142 0.42389 0.34383 0.0
O25 O 0.85479 0.43409 0.38432 0.0
O26 O 0.90095 0.38379 0.36777 0.0
O27 O 0.87511 0.37954 0.42885 0.0
O28 O 0.4901 0.91254 0.76638 0.0
Cd29 Cd 0.46786 0.87085 0.77474 0.0
Cd30 Cd 0.51385 0.87474 0.7311 0.0
O31 O 0.52913 0.91637 0.74397 0.0
O32 O 0.44451 0.86309 0.83133 0.0
O33 O 0.47823 0.85432 0.82662 0.0
C34 C 0.45927 0.85467 0.85114 0.0
C35 C 0.53986 0.8533 0.72856 0.0
C36 C 0.51507 0.92731 0.7555 0.0
C37 C 0.45801 0.84586 0.68249 0.0
O38 O 0.48356 0.85576 0.68259 0.0
O39 O 0.44589 0.84848 0.71764 0.0
O40 O 0.54232 0.87055 0.69712 0.0
O41 O 0.52481 0.85035 0.76441 0.0
O42 O 0.60177 0.46207 0.10772 0.0
Cd43 Cd 0.62993 0.4494 0.10726 0.0
Cd44 Cd 0.65702 0.49645 0.05892 0.0
O45 O 0.6274 0.50466 0.08429 0.0
O46 O 0.61868 0.42323 0.16037 0.0
O47 O 0.65757 0.46255 0.15862 0.0
C48 C 0.64076 0.44069 0.18111 0.0
C49 C 0.70391 0.52518 0.05064 0.0
C50 C 0.60476 0.48548 0.09986 0.0
C51 C 0.63817 0.44332 1.00811 0.0
O52 O 0.64501 0.46832 1.00645 0.0
O53 O 0.63295 0.43095 0.04698 0.0
O54 O 0.68694 0.52894 0.02672 0.0
O55 O 0.6942 0.50745 0.084 0.0
O56 O 0.1466 0.60747 0.44958 0.0
Cd57 Cd 0.18839 0.62793 0.45528 0.0
Cd58 Cd 0.18255 0.66591 0.40701 0.0
O59 O 0.14223 0.64267 0.42995 0.0
O60 O 0.19667 0.61257 0.51142 0.0
O61 O 0.20526 0.65512 0.50737 0.0
C62 C 0.20489 0.63576 0.53165 0.0
C63 C 0.20745 0.71339 0.395 0.0
C64 C 0.13158 0.61763 0.44162 0.0
C65 C 0.20562 0.63446 0.35782 0.0
O66 O 0.19366 0.64819 0.35578 0.0
O67 O 0.20887 0.62595 0.39686 0.0
O68 O 0.18598 0.69773 0.3712 0.0
O69 O 0.2131 0.70255 0.42954 0.0
O70 O 0.58459 0.14126 0.75312 0.0
Cd71 Cd 0.59442 0.1816 0.75659 0.0
Cd72 Cd 0.54778 0.15979 0.71236 0.0
O73 O 0.5408 0.12241 0.73838 0.0
O74 O 0.62004 0.19786 0.81031 0.0
O75 O 0.57864 0.19223 0.80971 0.0
C76 C 0.60093 0.19938 0.83201 0.0
C77 C 0.5212 0.18026 0.7093 0.0
C78 C 0.56127 0.12 0.74863 0.0
C79 C 0.59777 0.19561 0.65781 0.0
O80 O 0.57407 0.17479 0.65722 0.0
O81 O 0.60994 0.20481 0.6964 0.0
O82 O 0.51484 0.15849 0.68555 0.0
O83 O 0.54022 0.18789 0.74006 0.0
O84 O 0.50041 0.58714 0.57483 0.0
Cd85 Cd 0.4793 0.60757 0.5671 0.0
Cd86 Cd 0.52377 0.64755 0.61558 0.0
O87 O 0.53939 0.62217 0.59836 0.0
O88 O 0.4569 0.59365 0.50956 0.0
O89 O 0.49142 0.63593 0.51691 0.0
C90 C 0.4725 0.61735 0.49123 0.0
C91 C 0.54921 0.69491 0.62816 0.0
C92 C 0.52527 0.59722 0.58582 0.0
C93 C 0.4672 0.61827 0.66083 0.0
O94 O 0.49284 0.63303 0.66357 0.0
O95 O 0.45586 0.60627 0.62316 0.0
O96 O 0.55223 0.67804 0.65378 0.0
O97 O 0.53428 0.68523 0.59145 0.0
O98 O 0.90962 0.46455 0.92973 0.0
Cd99 Cd 0.86874 0.45208 0.92753 0.0
Cd100 Cd 0.889 0.50214 0.96346 0.0
O101 O 0.92688 0.50869 0.94124 0.0
O102 O 0.85301 0.42087 0.88307 0.0
O103 O 0.85552 0.46031 0.8683 0.0
C104 C 0.84956 0.43627 0.85429 0.0
C105 C 0.86815 0.5279 0.95456 0.0
C106 C 0.93018 0.48849 0.93239 0.0
C107 C 0.85374 0.4545 0.02464 0.0
O108 O 0.87269 0.47915 0.02209 0.0
O109 O 0.8465 0.43921 0.98894 0.0
O110 O 0.88852 0.53569 0.98235 0.0
O111 O 0.8621 0.50758 0.92699 0.0
O112 O 0.47767 0.91724 0.26758 0.0
Cd113 Cd 0.44719 0.87665 0.26353 0.0
Cd114 Cd 0.42129 0.89875 0.3033 0.0
O115 O 0.45233 0.93603 0.27799 0.0
O116 O 0.46145 0.85968 0.21897 0.0
O117 O 0.42635 0.86483 0.20313 0.0
C118 C 0.44336 0.85744 0.18962 0.0
C119 C 0.3744 0.87612 0.29663 0.0
C120 C 0.4755 0.93846 0.26987 0.0
C121 C 0.43206 0.86293 0.36217 0.0
O122 O 0.43036 0.88434 0.36143 0.0
O123 O 0.43584 0.85352 0.3244 0.0
O124 O 0.38698 0.89724 0.32325 0.0
O125 O 0.38867 0.87009 0.26914 0.0
O126 O 0.59322 0.45255 0.59515 0.0
Cd127 Cd 0.60424 0.42309 0.59071 0.0
Cd128 Cd 0.55381 0.39398 0.62547 0.0
O129 O 0.54884 0.42652 0.60426 0.0
O130 O 0.63628 0.43896 0.54779 0.0
O131 O 0.5968 0.40274 0.52991 0.0
C132 C 0.62128 0.42072 0.51762 0.0
C133 C 0.52705 0.34718 0.61575 0.0
C134 C 0.56974 0.45002 0.59756 0.0
C135 C 0.60019 0.40456 0.68737 0.0
O136 O 0.57595 0.39973 0.6846 0.0
O137 O 0.61569 0.41234 0.65185 0.0
O138 O 0.51953 0.36017 0.64333 0.0
O139 O 0.54776 0.36122 0.58874 0.0
O140 O 0.13768 0.564 0.94029 0.0
Cd141 Cd 0.17963 0.58625 0.93978 0.0
Cd142 Cd 0.17222 0.53777 0.96293 0.0
O143 O 0.13409 0.52361 0.93276 0.0
O144 O 0.19123 0.61933 0.89946 0.0
O145 O 0.19659 0.58478 0.87894 0.0
C146 C 0.19853 0.60778 0.86835 0.0
C147 C 0.2096 0.53302 0.94796 0.0
C148 C 0.12317 0.53851 0.93274 0.0
C149 C 0.19223 0.5788 0.03701 0.0
O150 O 0.17712 0.55358 0.02827 0.0
O151 O 0.19893 0.59641 1.0046 0.0
O152 O 0.18791 0.51304 0.96641 0.0
O153 O 0.20809 0.55342 0.93159 0.0
O154 O 0.61106 0.14631 0.25018 0.0
Cd155 Cd 0.6293 0.18802 0.24288 0.0
Cd156 Cd 0.67359 0.18369 0.2832 0.0
O157 O 0.64716 0.14267 0.26586 0.0
O158 O 0.60564 0.19385 0.1988 0.0
O159 O 0.64775 0.20454 0.18146 0.0
C160 C 0.6252 0.20286 0.16877 0.0
C161 C 0.72107 0.20441 0.29138 0.0
C162 C 0.62178 0.13165 0.25706 0.0
C163 C 0.64665 0.21071 0.33737 0.0
O164 O 0.66163 0.20014 0.33531 0.0
O165 O 0.6324 0.20979 0.30275 0.0
O166 O 0.70448 0.18419 0.31705 0.0
O167 O 0.71086 0.21074 0.25683 0.0
H168 H 0.42287 0.57101 0.23156 0.0
H169 H 0.48867 0.64982 0.18628 0.0
H170 H 0.4978 0.66515 0.26825 0.0
H171 H 0.40026 0.59541 0.33334 0.0
H172 H 0.39373 0.56625 0.36794 0.0
H173 H 0.38973 0.56308 0.3056 0.0
H174 H 0.42313 0.54471 0.3015 0.0
H175 H 0.42735 0.54795 0.36363 0.0
H176 H 0.45667 0.5647 0.32594 0.0
H177 H 0.50289 0.67011 0.35563 0.0
H178 H 0.50408 0.66396 0.44062 0.0
H179 H 0.43559 0.5815 0.42843 0.0
C180 C 0.43868 0.59177 0.23874 0.0
C181 C 0.45486 0.60933 0.20245 0.0
C182 C 0.47587 0.63609 0.21348 0.0
C183 C 0.48117 0.64499 0.25995 0.0
C184 C 0.4653 0.6269 0.29503 0.0
C185 C 0.44441 0.60086 0.28492 0.0
C186 C 0.43207 0.58449 0.32897 0.0
C187 C 0.40218 0.57687 0.33427 0.0
C188 C 0.435 0.55897 0.33005 0.0
C189 C 0.44975 0.60509 0.36542 0.0
C190 C 0.46855 0.62958 0.34525 0.0
C191 C 0.48803 0.65115 0.37182 0.0
C192 C 0.48855 0.64746 0.42011 0.0
C193 C 0.46987 0.6223 0.44131 0.0
C194 C 0.44999 0.60108 0.41346 0.0
H195 H 0.85738 0.46252 0.58218 0.0
H196 H 0.84086 0.37966 0.56396 0.0
H197 H 0.8302 0.37095 0.6479 0.0
H198 H 0.89236 0.47444 0.68563 0.0
H199 H 0.88007 0.4951 0.71177 0.0
H200 H 0.88195 0.49344 0.64944 0.0
H201 H 0.83073 0.47781 0.64333 0.0
H202 H 0.82869 0.47944 0.70584 0.0
H203 H 0.80615 0.44827 0.67549 0.0
H204 H 0.82637 0.37281 0.73459 0.0
H205 H 0.83163 0.38556 0.81765 0.0
H206 H 0.85155 0.4676 0.77995 0.0
C207 C 0.85076 0.4423 0.59559 0.0
C208 C 0.84963 0.42164 0.56645 0.0
C209 C 0.84167 0.39571 0.58559 0.0
C210 C 0.83547 0.39055 0.63318 0.0
C211 C 0.83735 0.41155 0.66117 0.0
C212 C 0.84481 0.43692 0.64308 0.0
C213 C 0.84814 0.45684 0.6813 0.0
C214 C 0.87736 0.48139 0.68207 0.0
C215 C 0.82717 0.46613 0.67618 0.0
C216 C 0.84221 0.43896 0.72387 0.0
C217 C 0.83558 0.41278 0.71143 0.0
C218 C 0.83113 0.39312 0.74472 0.0
C219 C 0.8342 0.40058 0.79186 0.0
C220 C 0.84183 0.42753 0.80537 0.0
C221 C 0.84521 0.44671 0.77083 0.0
H222 H 0.42772 0.86224 0.91513 0.0
H223 H 0.48376 0.83191 0.90116 0.0
H224 H 0.48159 0.82446 0.9862 0.0
H225 H 0.45598 0.89971 0.01618 0.0
H226 H 0.42423 0.89276 0.04217 0.0
H227 H 0.42731 0.89231 0.97985 0.0
H228 H 0.38608 0.84306 0.9773 0.0
H229 H 0.38284 0.84338 0.03976 0.0
H230 H 0.38644 0.81684 1.01206 0.0
H231 H 0.47709 0.82481 0.07323 0.0
H232 H 0.47107 0.83336 0.15552 0.0
H233 H 0.41789 0.86347 0.11324 0.0
C234 C 0.43903 0.85341 0.92976 0.0
C235 C 0.45575 0.84745 0.90134 0.0
C236 C 0.47069 0.83649 0.92211 0.0
C237 C 0.46953 0.83213 0.97041 0.0
C238 C 0.45328 0.83874 0.99752 0.0
C239 C 0.43821 0.84906 0.97793 0.0
C240 C 0.42408 0.85654 0.01512 0.0
C241 C 0.43347 0.88714 0.01321 0.0
C242 C 0.39301 0.83889 1.0108 0.0
C243 C 0.43413 0.8495 0.05878 0.0
C244 C 0.45071 0.83898 0.04782 0.0
C245 C 0.46382 0.83264 0.08221 0.0
C246 C 0.4603 0.83761 0.1289 0.0
C247 C 0.44382 0.84887 0.14092 0.0
C248 C 0.43019 0.85437 0.10529 0.0
H249 H 0.60347 0.40468 0.24332 0.0
H250 H 0.68781 0.46906 0.23138 0.0
H251 H 0.69346 0.46649 0.31622 0.0
H252 H 0.58981 0.42869 0.34438 0.0
H253 H 0.56726 0.3957 0.36954 0.0
H254 H 0.57103 0.39937 0.30734 0.0
H255 H 0.58455 0.36213 0.30414 0.0
H256 H 0.58074 0.35826 0.36649 0.0
H257 H 0.61237 0.36579 0.33927 0.0
H258 H 0.68847 0.46062 0.40301 0.0
H259 H 0.67311 0.45293 0.4849 0.0
H260 H 0.59168 0.39285 0.44062 0.0
C261 C 0.62337 0.41769 0.25829 0.0
C262 C 0.64532 0.43687 0.23061 0.0
C263 C 0.67079 0.45407 0.25182 0.0
C264 C 0.67419 0.45269 0.29997 0.0
C265 C 0.65193 0.43401 0.32643 0.0
C266 C 0.62701 0.41676 0.30631 0.0
C267 C 0.60561 0.40052 0.34294 0.0
C268 C 0.58205 0.40644 0.34092 0.0
C269 C 0.59521 0.36986 0.3379 0.0
C270 C 0.62217 0.41188 0.38695 0.0
C271 C 0.64893 0.43088 0.37663 0.0
C272 C 0.66767 0.44549 0.41148 0.0
C273 C 0.65872 0.441 0.45795 0.0
C274 C 0.63122 0.42215 0.46928 0.0
C275 C 0.61292 0.40703 0.43322 0.0
H276 H 0.20339 0.59772 0.59244 0.0
H277 H 0.21978 0.68104 0.58581 0.0
H278 H 0.22451 0.68456 0.67145 0.0
H279 H 0.16247 0.57868 0.69115 0.0
H280 H 0.17447 0.55745 0.71556 0.0
H281 H 0.17575 0.5626 0.65361 0.0
H282 H 0.22748 0.5801 0.65343 0.0
H283 H 0.22635 0.57488 0.7155 0.0
H284 H 0.24956 0.60792 0.69116 0.0
H285 H 0.22188 0.67702 0.75858 0.0
H286 H 0.21365 0.65956 0.8394 0.0
H287 H 0.20017 0.58161 0.78909 0.0
C288 C 0.20862 0.61695 0.60881 0.0
C289 C 0.21135 0.63917 0.58222 0.0
C290 C 0.21777 0.6638 0.60526 0.0
C291 C 0.22049 0.66598 0.65397 0.0
C292 C 0.21699 0.64346 0.67922 0.0
C293 C 0.21147 0.6195 0.65735 0.0
C294 C 0.20692 0.5977 0.69257 0.0
C295 C 0.1782 0.57264 0.68794 0.0
C296 C 0.22889 0.58969 0.68788 0.0
C297 C 0.20996 0.61286 0.73773 0.0
C298 C 0.21593 0.63929 0.72933 0.0
C299 C 0.2177 0.65653 0.76555 0.0
C300 C 0.21295 0.64643 0.81137 0.0
C301 C 0.2066 0.61934 0.82071 0.0
C302 C 0.20556 0.60259 0.78328 0.0
H303 H 0.65499 0.20714 0.09019 0.0
H304 H 0.58488 0.21151 0.13797 0.0
H305 H 0.57406 0.21639 0.05673 0.0
H306 H 0.67291 0.25473 0.98964 0.0
H307 H 0.68205 0.23459 0.95343 0.0
H308 H 0.68653 0.23528 0.01563 0.0
H309 H 0.65716 0.18255 0.01814 0.0
H310 H 0.65253 0.18171 0.95611 0.0
H311 H 0.62332 0.16596 0.9942 0.0
H312 H 0.56785 0.21571 0.97027 0.0
H313 H 0.5666 0.20915 0.88505 0.0
H314 H 0.64056 0.20504 0.89279 0.0
C315 C 0.63781 0.20989 0.08362 0.0
C316 C 0.62093 0.2092 0.12052 0.0
C317 C 0.5982 0.21212 0.11034 0.0
C318 C 0.59191 0.21498 0.06427 0.0
C319 C 0.60856 0.21491 0.02859 0.0
C320 C 0.63112 0.21256 0.03769 0.0
C321 C 0.64425 0.21068 0.9928 0.0
C322 C 0.67315 0.23529 0.98757 0.0
C323 C 0.6443 0.18362 0.99018 0.0
C324 C 0.62514 0.21161 0.95717 0.0
C325 C 0.60487 0.21437 0.97853 0.0
C326 C 0.58386 0.21395 0.95309 0.0
C327 C 0.5833 0.21019 0.90467 0.0
C328 C 0.60358 0.20681 0.88209 0.0
C329 C 0.62501 0.20804 0.90881 0.0
H330 H 0.31625 0.49057 0.04174 0.0
H331 H 0.37366 0.57763 0.04948 0.0
H332 H 0.33973 0.58698 0.0154 0.0
H333 H 0.28382 0.48996 0.93576 0.0
H334 H 0.24972 0.46565 0.95431 0.0
H335 H 0.27827 0.46488 0.97945 0.0
H336 H 0.26279 0.46951 0.06225 0.0
H337 H 0.23385 0.46962 0.03743 0.0
H338 H 0.25683 0.49721 0.07471 0.0
H339 H 0.30225 0.58731 0.97303 0.0
H340 H 0.25855 0.57967 0.94364 0.0
H341 H 0.22191 0.4929 0.97117 0.0
C342 C 0.3214 0.51157 0.03707 0.0
C343 C 0.34767 0.53336 0.04841 0.0
C344 C 0.35366 0.56057 0.04169 0.0
C345 C 0.33461 0.56614 0.02173 0.0
C346 C 0.30931 0.54432 1.00963 0.0
C347 C 0.30218 0.51761 0.01852 0.0
C348 C 0.27278 0.49827 1.00459 0.0
C349 C 0.27106 0.47852 0.96625 0.0
C350 C 0.25554 0.48274 0.04729 0.0
C351 C 0.2648 0.51835 0.98605 0.0
C352 C 0.28656 0.5447 0.98825 0.0
C353 C 0.28489 0.56683 0.97177 0.0
C354 C 0.25995 0.56218 0.95462 0.0
C355 C 0.23665 0.53568 0.9551 0.0
C356 C 0.23933 0.51337 0.9702 0.0
H357 H 0.8564 0.34829 0.314 0.0
H358 H 0.86348 0.32361 0.4533 0.0
H359 H 0.82758 0.27607 0.43527 0.0
H360 H 0.78601 0.31186 0.31416 0.0
H361 H 0.78245 0.30363 0.25297 0.0
H362 H 0.81227 0.33371 0.27361 0.0
H363 H 0.84255 0.31685 0.23568 0.0
H364 H 0.81267 0.28649 0.21542 0.0
H365 H 0.83727 0.28369 0.25068 0.0
H366 H 0.78847 0.23244 0.40407 0.0
H367 H 0.74556 0.19805 0.36801 0.0
H368 H 0.76079 0.25246 0.2513 0.0
C369 C 0.85111 0.33257 0.33999 0.0
C370 C 0.86333 0.33919 0.38445 0.0
C371 C 0.85484 0.31863 0.41868 0.0
C372 C 0.83452 0.29165 0.40863 0.0
C373 C 0.82252 0.28581 0.36454 0.0
C374 C 0.83028 0.30582 0.33098 0.0
C375 C 0.81142 0.29545 0.28925 0.0
C376 C 0.7972 0.31214 0.28211 0.0
C377 C 0.82691 0.29563 0.24515 0.0
C378 C 0.79147 0.26654 0.30481 0.0
C379 C 0.7987 0.2612 0.34778 0.0
C380 C 0.78277 0.23636 0.37032 0.0
C381 C 0.75838 0.21686 0.34936 0.0
C382 C 0.7497 0.22241 0.30661 0.0
C383 C 0.76696 0.24736 0.28356 0.0
H384 H 0.53901 0.82916 0.64651 0.0
H385 H 0.56159 0.83313 0.79138 0.0
H386 H 0.5737 0.79743 0.77691 0.0
H387 H 0.50477 0.75849 0.64105 0.0
H388 H 0.51368 0.75647 0.58144 0.0
H389 H 0.51206 0.78574 0.60089 0.0
H390 H 0.56167 0.81744 0.57307 0.0
H391 H 0.56347 0.78817 0.5536 0.0
H392 H 0.58829 0.81189 0.59407 0.0
H393 H 0.58012 0.75909 0.74769 0.0
H394 H 0.57438 0.71737 0.71062 0.0
H395 H 0.54332 0.7354 0.58622 0.0
C396 C 0.54743 0.82317 0.67477 0.0
C397 C 0.55021 0.83444 0.71978 0.0
C398 C 0.55989 0.82512 0.75651 0.0
C399 C 0.56686 0.80493 0.74849 0.0
C400 C 0.56351 0.79392 0.70375 0.0
C401 C 0.55366 0.8025 0.66765 0.0
C402 C 0.54813 0.78478 0.62475 0.0
C403 C 0.51787 0.77053 0.61128 0.0
C404 C 0.56649 0.80158 0.58396 0.0
C405 C 0.55593 0.76452 0.64251 0.0
C406 C 0.56543 0.77062 0.68774 0.0
C407 C 0.57287 0.75426 0.71222 0.0
C408 C 0.56961 0.73057 0.69068 0.0
C409 C 0.55845 0.72302 0.64531 0.0
C410 C 0.55223 0.74072 0.62061 0.0
H411 H 0.74605 0.52316 0.09382 0.0
H412 H 0.72577 0.55164 0.96859 0.0
H413 H 0.7688 0.56064 0.93235 0.0
H414 H 0.82189 0.57281 0.08665 0.0
H415 H 0.82943 0.54766 0.10872 0.0
H416 H 0.79894 0.54727 0.12725 0.0
H417 H 0.77002 0.49695 0.10027 0.0
H418 H 0.8004 0.49737 0.08181 0.0
H419 H 0.77315 0.48821 0.04104 0.0
H420 H 0.8089 0.55696 0.9038 0.0
H421 H 0.8465 0.54748 0.89029 0.0
H422 H 0.84361 0.52635 0.0358 0.0
C423 C 0.75113 0.53225 0.05946 0.0
C424 C 0.73247 0.53675 0.03425 0.0
C425 C 0.73974 0.54823 0.98896 0.0
C426 C 0.76417 0.55333 0.96788 0.0
C427 C 0.78156 0.54752 0.99285 0.0
C428 C 0.77574 0.53797 0.03819 0.0
C429 C 0.79714 0.53201 0.05649 0.0
C430 C 0.81278 0.55108 0.09719 0.0
C431 C 0.7844 0.50185 0.0707 0.0
C432 C 0.81517 0.53852 0.01377 0.0
C433 C 0.80582 0.54734 0.97727 0.0
C434 C 0.81706 0.55109 0.93258 0.0
C435 C 0.83835 0.54566 0.9251 0.0
C436 C 0.84852 0.53726 0.96236 0.0
C437 C 0.83697 0.53401 1.00724 0.0
H438 H 0.25571 0.7522 0.4353 0.0
H439 H 0.20402 0.73766 0.31534 0.0
H440 H 0.23978 0.78007 0.27924 0.0
H441 H 0.28759 0.82833 0.43466 0.0
H442 H 0.32015 0.8333 0.4522 0.0
H443 H 0.28929 0.80334 0.4709 0.0
H444 H 0.30675 0.77287 0.43576 0.0
H445 H 0.33745 0.80272 0.41667 0.0
H446 H 0.31652 0.7767 0.3752 0.0
H447 H 0.28409 0.81975 0.2501 0.0
H448 H 0.33157 0.857 0.23555 0.0
H449 H 0.35301 0.84844 0.37642 0.0
C450 C 0.25159 0.75835 0.4021 0.0
C451 C 0.22691 0.74151 0.37835 0.0
C452 C 0.22258 0.75019 0.33454 0.0
C453 C 0.24287 0.77427 0.31356 0.0
C454 C 0.2673 0.7899 0.33708 0.0
C455 C 0.27152 0.78263 0.38089 0.0
C456 C 0.30005 0.80248 0.39784 0.0
C457 C 0.29921 0.81777 0.44149 0.0
C458 C 0.31613 0.78781 0.40688 0.0
C459 C 0.31138 0.82146 0.35622 0.0
C460 C 0.29226 0.8138 0.32134 0.0
C461 C 0.29898 0.82649 0.2777 0.0
C462 C 0.32591 0.84757 0.26962 0.0
C463 C 0.34549 0.85605 0.30535 0.0
C464 C 0.33802 0.84296 0.34918 0.0
H465 H 0.53047 0.22789 0.75136 0.0
H466 H 0.49073 0.17548 0.63265 0.0
H467 H 0.48373 0.21115 0.59805 0.0
H468 H 0.48702 0.26058 0.75414 0.0
H469 H 0.51555 0.29307 0.77072 0.0
H470 H 0.51392 0.26192 0.789 0.0
H471 H 0.56124 0.27841 0.75171 0.0
H472 H 0.56282 0.30936 0.73293 0.0
H473 H 0.5665 0.28776 0.69097 0.0
H474 H 0.48938 0.25601 0.56918 0.0
H475 H 0.50123 0.30398 0.55477 0.0
H476 H 0.53318 0.32552 0.69463 0.0
C477 C 0.51939 0.22349 0.71894 0.0
C478 C 0.51105 0.19872 0.69496 0.0
C479 C 0.49708 0.19409 0.65209 0.0
C480 C 0.49312 0.21435 0.63193 0.0
C481 C 0.50268 0.239 0.65544 0.0
C482 C 0.51488 0.24336 0.69865 0.0
C483 C 0.52464 0.27216 0.71555 0.0
C484 C 0.50936 0.27191 0.75999 0.0
C485 C 0.55563 0.28783 0.72321 0.0
C486 C 0.51685 0.28355 0.67453 0.0
C487 C 0.50436 0.26422 0.63997 0.0
C488 C 0.49829 0.27105 0.59663 0.0
C489 C 0.50509 0.29826 0.58861 0.0
C490 C 0.51722 0.31802 0.62412 0.0
C491 C 0.52291 0.31044 0.66759 0.0
H492 H 0.51517 0.55716 0.07197 0.0
H493 H 0.44602 0.48165 0.12148 0.0
H494 H 0.47627 0.46275 0.13433 0.0
H495 H 0.54656 0.52625 1.00903 0.0
H496 H 0.58081 0.5525 0.02264 0.0
H497 H 0.55409 0.56063 0.02018 0.0
H498 H 0.56548 0.57978 0.10417 0.0
H499 H 0.59221 0.57164 0.10697 0.0
H500 H 0.56569 0.55851 0.1505 0.0
H501 H 0.51381 0.4519 0.14038 0.0
H502 H 0.555 0.44836 0.13509 0.0
H503 H 0.59993 0.53061 0.07913 0.0
C504 C 0.50637 0.53672 0.08599 0.0
C505 C 0.47817 0.52093 0.09608 0.0
C506 C 0.4675 0.49414 0.1136 0.0
C507 C 0.48456 0.48329 0.12115 0.0
C508 C 0.51221 0.49942 0.11072 0.0
C509 C 0.52303 0.5255 0.09325 0.0
C510 C 0.55317 0.53808 0.0827 0.0
C511 C 0.55899 0.54475 0.03054 0.0
C512 C 0.57013 0.56351 0.1129 0.0
C513 C 0.55765 0.51491 0.0967 0.0
C514 C 0.53378 0.49294 0.11318 0.0
C515 C 0.53259 0.46899 0.12758 0.0
C516 C 0.55622 0.46723 0.1244 0.0
C517 C 0.58088 0.4892 0.10661 0.0
C518 C 0.58155 0.5135 0.0931 0.0
H519 H 0.99112 0.47492 0.43088 0.0
H520 H 0.94978 0.5213 0.445 0.0
H521 H 0.99389 0.56378 0.45008 0.0
H522 H 0.04576 0.51621 0.51208 0.0
H523 H 0.07131 0.51374 0.47866 0.0
H524 H 0.03636 0.4866 0.47641 0.0
H525 H 0.03694 0.49101 0.38656 0.0
H526 H 0.07187 0.51816 0.38857 0.0
H527 H 0.04669 0.52363 0.3608 0.0
H528 H 0.04254 0.60189 0.44972 0.0
H529 H 0.09252 0.63241 0.44834 0.0
H530 H 0.10262 0.56171 0.43827 0.0
C531 C 0.99135 0.49399 0.43522 0.0
C532 C 0.96681 0.49459 0.43748 0.0
C533 C 0.96815 0.52009 0.44331 0.0
C534 C 0.99318 0.54447 0.44615 0.0
C535 C 1.01691 0.54321 0.44359 0.0
C536 C 1.01629 0.51865 0.43868 0.0
C537 C 0.04491 0.52315 0.43715 0.0
C538 C 0.04987 0.50909 0.47855 0.0
C539 C 0.05042 0.51341 0.39049 0.0
C540 C 0.06158 0.55401 0.44149 0.0
C541 C 0.04503 0.5652 0.44492 0.0
C542 C 0.05574 0.59336 0.44752 0.0
C543 C 0.08415 0.61055 0.44664 0.0
C544 C 0.10155 0.59954 0.44368 0.0
C545 C 0.08994 0.57083 0.44127 0.0
H546 H 0.51479 0.06854 0.75028 0.0
H547 H 0.60299 0.10969 0.75548 0.0
H548 H 0.60078 0.06536 0.75813 0.0
H549 H 0.50303 1.01359 0.82988 0.0
H550 H 0.47377 0.98808 0.79869 0.0
H551 H 0.48207 1.02318 0.79754 0.0
H552 H 0.48314 1.02261 0.70733 0.0
H553 H 0.47494 0.98754 0.70824 0.0
H554 H 0.50495 1.01277 0.67799 0.0
H555 H 0.58951 1.01654 0.75639 0.0
H556 H 0.56934 0.96641 0.75568 0.0
H557 H 0.4886 0.95654 0.75509 0.0
C558 C 0.53361 0.06822 0.75223 0.0
C559 C 0.55905 0.09278 0.75261 0.0
C560 C 0.58319 0.09132 0.75526 0.0
C561 C 0.58221 0.06616 0.75667 0.0
C562 C 0.55692 0.04242 0.75586 0.0
C563 C 0.53302 0.04315 0.75419 0.0
C564 C 0.50854 1.01448 0.75412 0.0
C565 C 0.49081 1.00955 0.79765 0.0
C566 C 0.49192 1.00904 0.70925 0.0
C567 C 0.52248 0.99766 0.75556 0.0
C568 C 0.5504 1.01419 0.75628 0.0
C569 C 0.56764 1.00336 0.75623 0.0
C570 C 0.55602 0.97486 0.75569 0.0
C571 C 0.52742 0.95747 0.75568 0.0
C572 C 0.51055 0.9692 0.75564 0.0
H573 H 0.49833 0.54115 0.58257 0.0
H574 H 0.57929 0.61242 0.58978 0.0
H575 H 0.59899 0.58233 0.59162 0.0
H576 H 0.5109 0.50008 0.66172 0.0
H577 H 0.49014 0.46864 0.63075 0.0
H578 H 0.48237 0.49567 0.62784 0.0
H579 H 0.48504 0.49536 0.5378 0.0
H580 H 0.4928 0.46829 0.5404 0.0
H581 H 0.51537 0.4995 0.51004 0.0
H582 H 0.60988 0.54481 0.5928 0.0
H583 H 0.6117 0.50258 0.59642 0.0
H584 H 0.52345 0.4548 0.59136 0.0
C585 C 0.52024 0.55049 0.58411 0.0
C586 C 0.5373 0.57926 0.58567 0.0
C587 C 0.56582 0.59053 0.58842 0.0
C588 C 0.57718 0.57358 0.58942 0.0
C589 C 0.55978 0.54537 0.58802 0.0
C590 C 0.53191 0.53386 0.58566 0.0
C591 C 0.51775 0.50288 0.58619 0.0
C592 C 0.49919 0.49113 0.62919 0.0
C593 C 0.5018 0.4908 0.54091 0.0
C594 C 0.54204 0.49874 0.58923 0.0
C595 C 0.56604 0.52358 0.58991 0.0
C596 C 0.59122 0.52526 0.59233 0.0
C597 C 0.59198 0.50101 0.59431 0.0
C598 C 0.56771 0.47515 0.5942 0.0
C599 C 0.54237 0.47413 0.59158 0.0
H600 H 0.09295 0.56353 0.94434 0.0
H601 H 0.08572 0.48595 0.90722 0.0
H602 H 0.03595 0.46566 0.89967 0.0
H603 H 1.03328 0.53617 0.01423 0.0
H604 H 1.02412 0.56092 0.99651 0.0
H605 H 0.05927 0.5698 0.99619 0.0
H606 H 0.06328 0.58323 0.90914 0.0
H607 H 1.02812 0.57442 0.90917 0.0
H608 H 0.03998 0.55885 0.86764 0.0
H609 H 0.98703 0.45348 0.89876 0.0
H610 H 0.94217 0.44956 0.90584 0.0
H611 H 0.98074 0.53504 0.94487 0.0
C612 C 0.081 0.54233 0.9341 0.0
C613 C 0.09337 0.52636 0.92612 0.0
C614 C 0.07681 0.49863 0.9134 0.0
C615 C 0.04851 0.48694 0.90896 0.0
C616 C 0.03703 0.50323 0.91746 0.0
C617 C 0.05274 0.53032 0.9298 0.0
C618 C 1.03523 0.54306 0.93881 0.0
C619 C 0.03815 0.55307 0.98944 0.0
C620 C 0.04206 0.56626 0.90411 0.0
C621 C 1.00712 0.51882 0.92999 0.0
C622 C 1.00872 0.49612 0.91745 0.0
C623 C 0.98556 0.47114 0.9084 0.0
C624 C 0.9601 0.46916 0.91262 0.0
C625 C 0.95775 0.49199 0.92597 0.0
C626 C 0.98174 0.51723 0.93437 0.0
H627 H 0.48034 0.98969 0.26721 0.0
H628 H 0.52777 0.94916 0.26168 0.0
H629 H 0.56987 0.99366 0.25648 0.0
H630 H 0.52261 0.04386 0.18531 0.0
H631 H 0.51905 0.06954 0.21629 0.0
H632 H 0.49229 0.03436 0.21894 0.0
H633 H 0.49487 0.03591 0.30905 0.0
H634 H 0.52164 0.07107 0.30665 0.0
H635 H 0.52695 0.04639 0.33704 0.0
H636 H 0.6074 0.04272 0.25524 0.0
H637 H 0.63724 0.09289 0.2548 0.0
H638 H 0.56589 0.10187 0.25852 0.0
C639 C 0.49955 0.99016 0.26467 0.0
C640 C 0.50055 0.96574 0.26491 0.0
C641 C 0.52625 0.96742 0.26151 0.0
C642 C 0.55041 0.99268 0.25857 0.0
C643 C 0.54875 1.0163 0.25872 0.0
C644 C 0.52401 1.01532 0.26134 0.0
C645 C 0.52806 0.04387 0.26088 0.0
C646 C 0.51471 0.04816 0.21778 0.0
C647 C 0.51724 0.04964 0.3061 0.0
C648 C 0.55887 0.06092 0.25804 0.0
C649 C 0.57042 0.04462 0.25696 0.0
C650 C 0.59858 0.05572 0.25571 0.0
C651 C 0.61539 0.08426 0.25554 0.0
C652 C 0.60403 0.10143 0.25628 0.0
C653 C 0.57532 0.08941 0.25739 0.0
H654 H 0.4373 0.57106 0.70821 0.0
H655 H 0.46571 0.65751 0.71159 0.0
H656 H 0.45316 0.65412 0.79473 0.0
H657 H 0.38157 0.54907 0.80272 0.0
H658 H 0.38994 0.52461 0.82523 0.0
H659 H 0.3932 0.5321 0.76375 0.0
H660 H 0.44339 0.54377 0.76684 0.0
H661 H 0.44063 0.53711 0.8283 0.0
H662 H 0.46652 0.5698 0.80643 0.0
H663 H 0.44758 0.64376 0.87935 0.0
H664 H 0.44646 0.62644 0.95867 0.0
H665 H 0.42313 0.54685 0.90101 0.0
C666 C 0.43917 0.58879 0.72594 0.0
C667 C 0.45155 0.61434 0.70362 0.0
C668 C 0.45544 0.63765 0.72815 0.0
C669 C 0.44848 0.6359 0.77535 0.0
C670 C 0.43779 0.6107 0.7974 0.0
C671 C 0.43271 0.5874 0.77336 0.0
C672 C 0.42533 0.56391 0.80645 0.0
C673 C 0.39575 0.54107 0.7991 0.0
C674 C 0.44516 0.55305 0.8017 0.0
C675 C 0.42864 0.57806 0.85271 0.0
C676 C 0.43527 0.60485 0.84681 0.0
C677 C 0.44173 0.62261 0.88448 0.0
C678 C 0.44129 0.61268 0.92938 0.0
C679 C 0.43472 0.58531 0.93608 0.0
C680 C 0.42804 0.56783 0.89714 0.0
H681 H 0.85861 0.39981 0.26825 0.0
H682 H 0.835 0.45593 0.32391 0.0
H683 H 0.81963 0.46024 0.2455 0.0
H684 H 0.88854 0.43411 0.17208 0.0
H685 H 0.87791 0.40538 0.13359 0.0
H686 H 0.88015 0.4012 0.19497 0.0
H687 H 0.82991 0.36232 0.1965 0.0
H688 H 0.82728 0.36635 0.1348 0.0
H689 H 0.80377 0.36833 0.17462 0.0
H690 H 0.81814 0.4673 0.16061 0.0
H691 H 0.82929 0.4755 0.07685 0.0
H692 H 0.85182 0.41328 0.07548 0.0
C693 C 0.84941 0.41236 0.26418 0.0
C694 C 0.84807 0.42768 0.30186 0.0
C695 C 0.83601 0.44392 0.29544 0.0
C696 C 0.82717 0.44638 0.25108 0.0
C697 C 0.82996 0.43194 0.21405 0.0
C698 C 0.84036 0.41482 0.2204 0.0
C699 C 0.84472 0.40442 0.17444 0.0
C700 C 0.87459 0.41175 0.16845 0.0
C701 C 0.82525 0.37352 0.16983 0.0
C702 C 0.83728 0.42009 0.14088 0.0
C703 C 0.82816 0.43535 0.16444 0.0
C704 C 0.82419 0.45471 0.14167 0.0
C705 C 0.83058 0.45926 0.09418 0.0
C706 C 0.84058 0.44439 0.06999 0.0
C707 C 0.84304 0.42393 0.09309 0.0
H708 H 0.42479 0.85878 0.63547 0.0
H709 H 0.46228 0.80887 0.62912 0.0
H710 H 0.45099 0.80014 0.54569 0.0
H711 H 0.37146 0.82169 0.53801 0.0
H712 H 0.37659 0.85392 0.51744 0.0
H713 H 0.37927 0.84886 0.57875 0.0
H714 H 0.42749 0.89164 0.57923 0.0
H715 H 0.42527 0.89655 0.51808 0.0
H716 H 0.45309 0.89323 0.53999 0.0
H717 H 0.44558 0.80552 0.46115 0.0
H718 H 0.44554 0.82391 0.3831 0.0
H719 H 0.41331 0.87193 0.44375 0.0
C720 C 0.42899 0.84465 0.617 0.0
C721 C 0.44368 0.83387 0.63864 0.0
C722 C 0.45042 0.81674 0.61311 0.0
C723 C 0.44411 0.8117 0.56572 0.0
C724 C 0.43112 0.82403 0.54438 0.0
C725 C 0.42325 0.83987 0.56934 0.0
C726 C 0.41409 0.85471 0.53702 0.0
C727 C 0.38353 0.84415 0.54318 0.0
C728 C 0.43101 0.88585 0.544 0.0
C729 C 0.41988 0.8463 0.49025 0.0
C730 C 0.4289 0.82797 0.49507 0.0
C731 C 0.4379 0.81936 0.45684 0.0
C732 C 0.43796 0.83 0.41268 0.0
C733 C 0.42957 0.84943 0.4074 0.0
C734 C 0.41985 0.85709 0.44664 0.0
H735 H 0.64357 0.44307 0.7356 0.0
H736 H 0.57645 0.35999 0.74266 0.0
H737 H 0.58581 0.35776 0.82596 0.0
H738 H 0.6881 0.43768 0.8302 0.0
H739 H 0.6975 0.47117 0.85157 0.0
H740 H 0.69107 0.46355 0.79036 0.0
H741 H 0.65531 0.47898 0.79275 0.0
H742 H 0.66139 0.48635 0.85373 0.0
H743 H 0.62742 0.4631 0.83359 0.0
H744 H 0.59643 0.36736 0.91044 0.0
H745 H 0.60589 0.38868 0.98863 0.0
H746 H 0.66432 0.46633 0.92719 0.0
C747 C 0.63189 0.42404 0.75433 0.0
C748 C 0.60985 0.40145 0.73293 0.0
C749 C 0.59383 0.37725 0.75863 0.0
C750 C 0.59905 0.37581 0.80585 0.0
C751 C 0.62021 0.39888 0.82686 0.0
C752 C 0.63648 0.42256 0.80183 0.0
C753 C 0.65444 0.44595 0.83389 0.0
C754 C 0.68457 0.45512 0.82603 0.0
C755 C 0.6493 0.46998 0.82814 0.0
C756 C 0.64459 0.43218 0.88073 0.0
C757 C 0.62551 0.40484 0.87608 0.0
C758 C 0.61178 0.38861 0.9146 0.0
C759 C 0.61723 0.40085 0.95885 0.0
C760 C 0.63574 0.42909 0.96378 0.0
C761 C 0.6501 0.44463 0.92438 0.0
H762 H 0.20246 0.62536 0.08353 0.0
H763 H 0.20325 0.54983 0.09925 0.0
H764 H 0.21485 0.56013 0.18228 0.0
H765 H 0.25691 0.66649 0.1717 0.0
H766 H 0.23898 0.68316 0.19214 0.0
H767 H 0.23614 0.67269 0.1321 0.0
H768 H 0.18363 0.64483 0.1404 0.0
H769 H 0.18633 0.65522 0.20021 0.0
H770 H 0.16853 0.61946 0.18566 0.0
H771 H 0.22036 0.57536 0.26531 0.0
H772 H 0.21636 0.59297 0.34208 0.0
H773 H 0.21091 0.65791 0.2729 0.0
C774 C 0.20595 0.6115 0.10422 0.0
C775 C 0.20218 0.58695 0.08506 0.0
C776 C 0.20607 0.5688 0.11339 0.0
C777 C 0.21287 0.57456 0.1605 0.0
C778 C 0.21569 0.59856 0.17886 0.0
C779 C 0.21236 0.61677 0.15162 0.0
C780 C 0.213 0.63922 0.18108 0.0
C781 C 0.23774 0.66704 0.1685 0.0
C782 C 0.18629 0.63968 0.17657 0.0
C783 C 0.21599 0.63011 0.22915 0.0
C784 C 0.21821 0.60701 0.22712 0.0
C785 C 0.21911 0.59372 0.26737 0.0
C786 C 0.21687 0.60387 0.31084 0.0
C787 C 0.21332 0.62677 0.31348 0.0
C788 C 0.21374 0.64043 0.27205 0.0
H789 H 0.57229 0.18835 0.57478 0.0
H790 H 0.65191 0.23153 0.63913 0.0
H791 H 0.67284 0.24837 0.56151 0.0
H792 H 0.58999 0.16391 0.48201 0.0
H793 H 0.5682 0.16718 0.44038 0.0
H794 H 0.55946 0.16327 0.50111 0.0
H795 H 0.55755 0.20792 0.49922 0.0
H796 H 0.56643 0.21203 0.43822 0.0
H797 H 0.58662 0.23901 0.47874 0.0
H798 H 0.6853 0.25266 0.47716 0.0
H799 H 0.6884 0.2441 0.39363 0.0
H800 H 0.60057 0.19989 0.38395 0.0
C801 C 0.59411 0.20187 0.57278 0.0
C802 C 0.61054 0.20857 0.61293 0.0
C803 C 0.63896 0.22624 0.60882 0.0
C804 C 0.65096 0.23598 0.56491 0.0
C805 C 0.63417 0.22829 0.5258 0.0
C806 C 0.60628 0.21186 0.52949 0.0
C807 C 0.59293 0.204 0.4821 0.0
C808 C 0.57672 0.17275 0.47607 0.0
C809 C 0.57481 0.2165 0.47411 0.0
C810 C 0.61778 0.21715 0.45093 0.0
C811 C 0.64137 0.23152 0.47679 0.0
C812 C 0.66701 0.24226 0.45644 0.0
C813 C 0.66859 0.23732 0.40902 0.0
C814 C 0.6447 0.22195 0.38245 0.0
C815 C 0.61906 0.21265 0.40322 0.0
loop_
_geom_bond_atom_site_label_1
_geom_bond_atom_site_label_2
_geom_bond_distance
_geom_bond_site_symmetry_2
_ccdc_geom_bond_type
O0 Cd1 2.223 . S
O0 C8 1.315 . S
Cd1 O0 2.223 . S
Cd1 O4 2.297 . S
Cd1 O5 2.439 . S
Cd1 O11 2.240 . S
Cd2 O3 2.240 . S
Cd2 O10 2.223 1_554 S
Cd2 O12 2.297 1_554 S
Cd2 O13 2.439 . S
O3 Cd2 2.240 . S
O3 C8 1.279 . S
O4 Cd1 2.297 . S
O4 C6 1.247 . S
O5 Cd1 2.439 . S
O5 C6 1.208 . S
C6 O4 1.247 . S
C6 O5 1.208 . S
C7 O12 1.247 1_554 S
C7 O13 1.208 . S
C8 O0 1.315 . S
C8 O3 1.279 . S
C9 O10 1.315 . S
C9 O11 1.279 1_556 S
O10 Cd2 2.223 1_556 S
O10 C9 1.315 . S
O11 Cd1 2.240 . S
O11 C9 1.279 1_554 S
O12 Cd2 2.297 1_556 S
O12 C7 1.247 1_556 S
O13 Cd2 2.439 . S
O13 C7 1.208 . S
O14 Cd15 2.223 . S
O14 C22 1.315 . S
Cd15 O14 2.223 . S
Cd15 O18 2.297 . S
Cd15 O19 2.439 . S
Cd15 O25 2.240 . S
Cd16 O17 2.240 . S
Cd16 O24 2.223 . S
Cd16 O26 2.297 . S
Cd16 O27 2.439 . S
O17 Cd16 2.240 . S
O17 C22 1.279 . S
O18 Cd15 2.297 . S
O18 C20 1.247 . S
O19 Cd15 2.439 . S
O19 C20 1.208 . S
C20 O18 1.247 . S
C20 O19 1.208 . S
C21 O26 1.247 . S
C21 O27 1.208 . S
C22 O14 1.315 . S
C22 O17 1.279 . S
C23 O24 1.315 . S
C23 O25 1.279 . S
O24 Cd16 2.223 . S
O24 C23 1.315 . S
O25 Cd15 2.240 . S
O25 C23 1.279 . S
O26 Cd16 2.297 . S
O26 C21 1.247 . S
O27 Cd16 2.439 . S
O27 C21 1.208 . S
O28 Cd29 2.223 . S
O28 C36 1.315 . S
Cd29 O28 2.223 . S
Cd29 O32 2.297 . S
Cd29 O33 2.439 . S
Cd29 O39 2.240 . S
Cd30 O31 2.240 . S
Cd30 O38 2.223 . S
Cd30 O40 2.297 . S
Cd30 O41 2.439 . S
O31 Cd30 2.240 . S
O31 C36 1.279 . S
O32 Cd29 2.297 . S
O32 C34 1.247 . S
O33 Cd29 2.439 . S
O33 C34 1.208 . S
C34 O32 1.247 . S
C34 O33 1.208 . S
C35 O40 1.247 . S
C35 O41 1.208 . S
C36 O28 1.315 . S
C36 O31 1.279 . S
C37 O38 1.315 . S
C37 O39 1.279 . S
O38 Cd30 2.223 . S
O38 C37 1.315 . S
O39 Cd29 2.240 . S
O39 C37 1.279 . S
O40 Cd30 2.297 . S
O40 C35 1.247 . S
O41 Cd30 2.439 . S
O41 C35 1.208 . S
O42 Cd43 2.223 . S
O42 C50 1.315 . S
Cd43 O42 2.223 . S
Cd43 O46 2.297 . S
Cd43 O47 2.439 . S
Cd43 O53 2.240 . S
Cd44 O45 2.240 . S
Cd44 O52 2.223 1_554 S
Cd44 O54 2.297 1_554 S
Cd44 O55 2.439 . S
O45 Cd44 2.240 . S
O45 C50 1.279 . S
O46 Cd43 2.297 . S
O46 C48 1.247 . S
O47 Cd43 2.439 . S
O47 C48 1.208 . S
C48 O46 1.247 . S
C48 O47 1.208 . S
C49 O54 1.247 1_554 S
C49 O55 1.208 . S
C50 O42 1.315 . S
C50 O45 1.279 . S
C51 O52 1.315 . S
C51 O53 1.279 1_556 S
O52 Cd44 2.223 1_556 S
O52 C51 1.315 . S
O53 Cd43 2.240 . S
O53 C51 1.279 1_554 S
O54 Cd44 2.297 1_556 S
O54 C49 1.247 1_556 S
O55 Cd44 2.439 . S
O55 C49 1.208 . S
O56 Cd57 2.223 . S
O56 C64 1.315 . S
Cd57 O56 2.223 . S
Cd57 O60 2.297 . S
Cd57 O61 2.439 . S
Cd57 O67 2.240 . S
Cd58 O59 2.240 . S
Cd58 O66 2.223 . S
Cd58 O68 2.297 . S
Cd58 O69 2.439 . S
O59 Cd58 2.240 . S
O59 C64 1.279 . S
O60 Cd57 2.297 . S
O60 C62 1.247 . S
O61 Cd57 2.439 . S
O61 C62 1.208 . S
C62 O60 1.247 . S
C62 O61 1.208 . S
C63 O68 1.247 . S
C63 O69 1.208 . S
C64 O56 1.315 . S
C64 O59 1.279 . S
C65 O66 1.315 . S
C65 O67 1.279 . S
O66 Cd58 2.223 . S
O66 C65 1.315 . S
O67 Cd57 2.240 . S
O67 C65 1.279 . S
O68 Cd58 2.297 . S
O68 C63 1.247 . S
O69 Cd58 2.439 . S
O69 C63 1.208 . S
O70 Cd71 2.223 . S
O70 C78 1.315 . S
Cd71 O70 2.223 . S
Cd71 O74 2.297 . S
Cd71 O75 2.439 . S
Cd71 O81 2.240 . S
Cd72 O73 2.240 . S
Cd72 O80 2.223 . S
Cd72 O82 2.297 . S
Cd72 O83 2.439 . S
O73 Cd72 2.240 . S
O73 C78 1.279 . S
O74 Cd71 2.297 . S
O74 C76 1.247 . S
O75 Cd71 2.439 . S
O75 C76 1.208 . S
C76 O74 1.247 . S
C76 O75 1.208 . S
C77 O82 1.247 . S
C77 O83 1.208 . S
C78 O70 1.315 . S
C78 O73 1.279 . S
C79 O80 1.315 . S
C79 O81 1.279 . S
O80 Cd72 2.223 . S
O80 C79 1.315 . S
O81 Cd71 2.240 . S
O81 C79 1.279 . S
O82 Cd72 2.297 . S
O82 C77 1.247 . S
O83 Cd72 2.439 . S
O83 C77 1.208 . S
O84 Cd85 2.223 . S
O84 C92 1.315 . S
Cd85 O84 2.223 . S
Cd85 O88 2.297 . S
Cd85 O89 2.439 . S
Cd85 O95 2.240 . S
Cd86 O87 2.240 . S
Cd86 O94 2.223 . S
Cd86 O96 2.297 . S
Cd86 O97 2.439 . S
O87 Cd86 2.240 . S
O87 C92 1.279 . S
O88 Cd85 2.297 . S
O88 C90 1.247 . S
O89 Cd85 2.439 . S
O89 C90 1.208 . S
C90 O88 1.247 . S
C90 O89 1.208 . S
C91 O96 1.247 . S
C91 O97 1.208 . S
C92 O84 1.315 . S
C92 O87 1.279 . S
C93 O94 1.315 . S
C93 O95 1.279 . S
O94 Cd86 2.223 . S
O94 C93 1.315 . S
O95 Cd85 2.240 . S
O95 C93 1.279 . S
O96 Cd86 2.297 . S
O96 C91 1.247 . S
O97 Cd86 2.439 . S
O97 C91 1.208 . S
O98 Cd99 2.223 . S
O98 C106 1.315 . S
Cd99 O98 2.223 . S
Cd99 O102 2.297 . S
Cd99 O103 2.439 . S
Cd99 O109 2.240 . S
Cd100 O101 2.240 . S
Cd100 O108 2.223 1_556 S
Cd100 O110 2.297 1_556 S
Cd100 O111 2.439 . S
O101 Cd100 2.240 . S
O101 C106 1.279 . S
O102 Cd99 2.297 . S
O102 C104 1.247 . S
O103 Cd99 2.439 . S
O103 C104 1.208 . S
C104 O102 1.247 . S
C104 O103 1.208 . S
C105 O110 1.247 1_556 S
C105 O111 1.208 . S
C106 O98 1.315 . S
C106 O101 1.279 . S
C107 O108 1.315 . S
C107 O109 1.279 1_554 S
O108 Cd100 2.223 1_554 S
O108 C107 1.315 . S
O109 Cd99 2.240 . S
O109 C107 1.279 1_556 S
O110 Cd100 2.297 1_554 S
O110 C105 1.247 1_554 S
O111 Cd100 2.439 . S
O111 C105 1.208 . S
O112 Cd113 2.223 . S
O112 C120 1.315 . S
Cd113 O112 2.223 . S
Cd113 O116 2.297 . S
Cd113 O117 2.439 . S
Cd113 O123 2.240 . S
Cd114 O115 2.240 . S
Cd114 O122 2.223 . S
Cd114 O124 2.297 . S
Cd114 O125 2.439 . S
O115 Cd114 2.240 . S
O115 C120 1.279 . S
O116 Cd113 2.297 . S
O116 C118 1.247 . S
O117 Cd113 2.439 . S
O117 C118 1.208 . S
C118 O116 1.247 . S
C118 O117 1.208 . S
C119 O124 1.247 . S
C119 O125 1.208 . S
C120 O112 1.315 . S
C120 O115 1.279 . S
C121 O122 1.315 . S
C121 O123 1.279 . S
O122 Cd114 2.223 . S
O122 C121 1.315 . S
O123 Cd113 2.240 . S
O123 C121 1.279 . S
O124 Cd114 2.297 . S
O124 C119 1.247 . S
O125 Cd114 2.439 . S
O125 C119 1.208 . S
O126 Cd127 2.223 . S
O126 C134 1.315 . S
Cd127 O126 2.223 . S
Cd127 O130 2.297 . S
Cd127 O131 2.439 . S
Cd127 O137 2.240 . S
Cd128 O129 2.240 . S
Cd128 O136 2.223 . S
Cd128 O138 2.297 . S
Cd128 O139 2.439 . S
O129 Cd128 2.240 . S
O129 C134 1.279 . S
O130 Cd127 2.297 . S
O130 C132 1.247 . S
O131 Cd127 2.439 . S
O131 C132 1.208 . S
C132 O130 1.247 . S
C132 O131 1.208 . S
C133 O138 1.247 . S
C133 O139 1.208 . S
C134 O126 1.315 . S
C134 O129 1.279 . S
C135 O136 1.315 . S
C135 O137 1.279 . S
O136 Cd128 2.223 . S
O136 C135 1.315 . S
O137 Cd127 2.240 . S
O137 C135 1.279 . S
O138 Cd128 2.297 . S
O138 C133 1.247 . S
O139 Cd128 2.439 . S
O139 C133 1.208 . S
O140 Cd141 2.223 . S
O140 C148 1.315 . S
Cd141 O140 2.223 . S
Cd141 O144 2.297 . S
Cd141 O145 2.439 . S
Cd141 O151 2.240 . S
Cd142 O143 2.240 . S
Cd142 O150 2.223 1_556 S
Cd142 O152 2.297 1_556 S
Cd142 O153 2.439 . S
O143 Cd142 2.240 . S
O143 C148 1.279 . S
O144 Cd141 2.297 . S
O144 C146 1.247 . S
O145 Cd141 2.439 . S
O145 C146 1.208 . S
C146 O144 1.247 . S
C146 O145 1.208 . S
C147 O152 1.247 1_556 S
C147 O153 1.208 . S
C148 O140 1.315 . S
C148 O143 1.279 . S
C149 O150 1.315 . S
C149 O151 1.279 1_554 S
O150 Cd142 2.223 1_554 S
O150 C149 1.315 . S
O151 Cd141 2.240 . S
O151 C149 1.279 1_556 S
O152 Cd142 2.297 1_554 S
O152 C147 1.247 1_554 S
O153 Cd142 2.439 . S
O153 C147 1.208 . S
O154 Cd155 2.223 . S
O154 C162 1.315 . S
Cd155 O154 2.223 . S
Cd155 O158 2.297 . S
Cd155 O159 2.439 . S
Cd155 O165 2.240 . S
Cd156 O157 2.240 . S
Cd156 O164 2.223 . S
Cd156 O166 2.297 . S
Cd156 O167 2.439 . S
O157 Cd156 2.240 . S
O157 C162 1.279 . S
O158 Cd155 2.297 . S
O158 C160 1.247 . S
O159 Cd155 2.439 . S
O159 C160 1.208 . S
C160 O158 1.247 . S
C160 O159 1.208 . S
C161 O166 1.247 . S
C161 O167 1.208 . S
C162 O154 1.315 . S
C162 O157 1.279 . S
C163 O164 1.315 . S
C163 O165 1.279 . S
O164 Cd156 2.223 . S
O164 C163 1.315 . S
O165 Cd155 2.240 . S
O165 C163 1.279 . S
O166 Cd156 2.297 . S
O166 C161 1.247 . S
O167 Cd156 2.439 . S
O167 C161 1.208 . S
H168 C180 0.930 . S
H169 C182 0.930 . S
H170 C183 0.930 . S
H171 C187 0.959 . S
H172 C187 0.959 . S
H173 C187 0.961 . S
H174 C188 0.960 . S
H175 C188 0.961 . S
H176 C188 0.959 . S
H177 C191 0.929 . S
H178 C192 0.931 . S
H179 C194 0.930 . S
C180 H168 0.930 . S
C180 C181 1.399 . S
C180 C185 1.399 . S
C181 C180 1.399 . S
C181 C182 1.376 . S
C182 H169 0.930 . S
C182 C181 1.376 . S
C182 C183 1.388 . S
C183 H170 0.930 . S
C183 C182 1.388 . S
C183 C184 1.390 . S
C184 C183 1.390 . S
C184 C185 1.394 . S
C184 C190 1.465 . S
C185 C180 1.399 . S
C185 C184 1.394 . S
C185 C186 1.516 . S
C186 C185 1.516 . S
C186 C187 1.502 . S
C186 C188 1.561 . S
C186 C189 1.526 . S
C187 H171 0.959 . S
C187 H172 0.959 . S
C187 H173 0.961 . S
C187 C186 1.502 . S
C188 H174 0.960 . S
C188 H175 0.961 . S
C188 H176 0.959 . S
C188 C186 1.561 . S
C189 C186 1.526 . S
C189 C190 1.396 . S
C189 C194 1.390 . S
C190 C184 1.465 . S
C190 C189 1.396 . S
C190 C191 1.399 . S
C191 H177 0.929 . S
C191 C190 1.399 . S
C191 C192 1.385 . S
C192 H178 0.931 . S
C192 C191 1.385 . S
C192 C193 1.389 . S
C193 C192 1.389 . S
C193 C194 1.387 . S
C194 H179 0.930 . S
C194 C189 1.390 . S
C194 C193 1.387 . S
H195 C207 0.930 . S
H196 C209 0.930 . S
H197 C210 0.930 . S
H198 C214 0.959 . S
H199 C214 0.959 . S
H200 C214 0.961 . S
H201 C215 0.960 . S
H202 C215 0.961 . S
H203 C215 0.959 . S
H204 C218 0.929 . S
H205 C219 0.931 . S
H206 C221 0.930 . S
C207 H195 0.930 . S
C207 C208 1.399 . S
C207 C212 1.399 . S
C208 C207 1.399 . S
C208 C209 1.376 . S
C209 H196 0.930 . S
C209 C208 1.376 . S
C209 C210 1.388 . S
C210 H197 0.930 . S
C210 C209 1.388 . S
C210 C211 1.390 . S
C211 C210 1.390 . S
C211 C212 1.394 . S
C211 C217 1.465 . S
C212 C207 1.399 . S
C212 C211 1.394 . S
C212 C213 1.516 . S
C213 C212 1.516 . S
C213 C214 1.502 . S
C213 C215 1.561 . S
C213 C216 1.526 . S
C214 H198 0.959 . S
C214 H199 0.959 . S
C214 H200 0.961 . S
C214 C213 1.502 . S
C215 H201 0.960 . S
C215 H202 0.961 . S
C215 H203 0.959 . S
C215 C213 1.561 . S
C216 C213 1.526 . S
C216 C217 1.396 . S
C216 C221 1.390 . S
C217 C211 1.465 . S
C217 C216 1.396 . S
C217 C218 1.399 . S
C218 H204 0.929 . S
C218 C217 1.399 . S
C218 C219 1.385 . S
C219 H205 0.931 . S
C219 C218 1.385 . S
C219 C220 1.389 . S
C220 C219 1.389 . S
C220 C221 1.387 . S
C221 H206 0.930 . S
C221 C216 1.390 . S
C221 C220 1.387 . S
H222 C234 0.930 . S
H223 C236 0.930 . S
H224 C237 0.930 . S
H225 C241 0.959 . S
H226 C241 0.959 1_554 S
H227 C241 0.961 . S
H228 C242 0.960 1_556 S
H229 C242 0.961 . S
H230 C242 0.959 . S
H231 C245 0.929 . S
H232 C246 0.931 . S
H233 C248 0.930 . S
C234 H222 0.930 . S
C234 C235 1.399 . S
C234 C239 1.399 . S
C235 C234 1.399 . S
C235 C236 1.376 . S
C236 H223 0.930 . S
C236 C235 1.376 . S
C236 C237 1.388 . S
C237 H224 0.930 . S
C237 C236 1.388 . S
C237 C238 1.390 . S
C238 C237 1.390 . S
C238 C239 1.394 . S
C238 C244 1.465 1_556 S
C239 C234 1.399 . S
C239 C238 1.394 . S
C239 C240 1.516 . S
C240 C239 1.516 . S
C240 C241 1.502 . S
C240 C242 1.561 1_556 S
C240 C243 1.526 1_556 S
C241 H225 0.959 . S
C241 H226 0.959 1_556 S
C241 H227 0.961 . S
C241 C240 1.502 . S
C242 H228 0.960 1_554 S
C242 H229 0.961 . S
C242 H230 0.959 . S
C242 C240 1.561 1_554 S
C243 C240 1.526 1_554 S
C243 C244 1.396 . S
C243 C248 1.390 . S
C244 C238 1.465 1_554 S
C244 C243 1.396 . S
C244 C245 1.399 . S
C245 H231 0.929 . S
C245 C244 1.399 . S
C245 C246 1.385 . S
C246 H232 0.931 . S
C246 C245 1.385 . S
C246 C247 1.389 . S
C247 C246 1.389 . S
C247 C248 1.387 . S
C248 H233 0.930 . S
C248 C243 1.390 . S
C248 C247 1.387 . S
H249 C261 0.930 . S
H250 C263 0.930 . S
H251 C264 0.930 . S
H252 C268 0.959 . S
H253 C268 0.959 . S
H254 C268 0.961 . S
H255 C269 0.960 . S
H256 C269 0.961 . S
H257 C269 0.959 . S
H258 C272 0.929 . S
H259 C273 0.931 . S
H260 C275 0.930 . S
C261 H249 0.930 . S
C261 C262 1.399 . S
C261 C266 1.399 . S
C262 C261 1.399 . S
C262 C263 1.376 . S
C263 H250 0.930 . S
C263 C262 1.376 . S
C263 C264 1.388 . S
C264 H251 0.930 . S
C264 C263 1.388 . S
C264 C265 1.390 . S
C265 C264 1.390 . S
C265 C266 1.394 . S
C265 C271 1.465 . S
C266 C261 1.399 . S
C266 C265 1.394 . S
C266 C267 1.516 . S
C267 C266 1.516 . S
C267 C268 1.502 . S
C267 C269 1.561 . S
C267 C270 1.526 . S
C268 H252 0.959 . S
C268 H253 0.959 . S
C268 H254 0.961 . S
C268 C267 1.502 . S
C269 H255 0.960 . S
C269 H256 0.961 . S
C269 H257 0.959 . S
C269 C267 1.561 . S
C270 C267 1.526 . S
C270 C271 1.396 . S
C270 C275 1.390 . S
C271 C265 1.465 . S
C271 C270 1.396 . S
C271 C272 1.399 . S
C272 H258 0.929 . S
C272 C271 1.399 . S
C272 C273 1.385 . S
C273 H259 0.931 . S
C273 C272 1.385 . S
C273 C274 1.389 . S
C274 C273 1.389 . S
C274 C275 1.387 . S
C275 H260 0.930 . S
C275 C270 1.390 . S
C275 C274 1.387 . S
H276 C288 0.930 . S
H277 C290 0.930 . S
H278 C291 0.930 . S
H279 C295 0.959 . S
H280 C295 0.959 . S
H281 C295 0.961 . S
H282 C296 0.960 . S
H283 C296 0.961 . S
H284 C296 0.959 . S
H285 C299 0.929 . S
H286 C300 0.931 . S
H287 C302 0.930 . S
C288 H276 0.930 . S
C288 C289 1.399 . S
C288 C293 1.399 . S
C289 C288 1.399 . S
C289 C290 1.376 . S
C290 H277 0.930 . S
C290 C289 1.376 . S
C290 C291 1.388 . S
C291 H278 0.930 . S
C291 C290 1.388 . S
C291 C292 1.390 . S
C292 C291 1.390 . S
C292 C293 1.394 . S
C292 C298 1.465 . S
C293 C288 1.399 . S
C293 C292 1.394 . S
C293 C294 1.516 . S
C294 C293 1.516 . S
C294 C295 1.502 . S
C294 C296 1.561 . S
C294 C297 1.526 . S
C295 H279 0.959 . S
C295 H280 0.959 . S
C295 H281 0.961 . S
C295 C294 1.502 . S
C296 H282 0.960 . S
C296 H283 0.961 . S
C296 H284 0.959 . S
C296 C294 1.561 . S
C297 C294 1.526 . S
C297 C298 1.396 . S
C297 C302 1.390 . S
C298 C292 1.465 . S
C298 C297 1.396 . S
C298 C299 1.399 . S
C299 H285 0.929 . S
C299 C298 1.399 . S
C299 C300 1.385 . S
C300 H286 0.931 . S
C300 C299 1.385 . S
C300 C301 1.389 . S
C301 C300 1.389 . S
C301 C302 1.387 . S
C302 H287 0.930 . S
C302 C297 1.390 . S
C302 C301 1.387 . S
H303 C315 0.930 . S
H304 C317 0.930 . S
H305 C318 0.930 . S
H306 C322 0.956 1_554 S
H307 C322 0.980 . S
H308 C322 0.941 1_554 S
H309 C323 0.960 1_554 S
H310 C323 0.961 . S
H311 C323 0.959 . S
H312 C326 0.929 . S
H313 C327 0.931 . S
H314 C329 0.930 . S
C315 H303 0.930 . S
C315 C316 1.399 . S
C315 C320 1.399 . S
C316 C315 1.399 . S
C316 C317 1.376 . S
C317 H304 0.930 . S
C317 C316 1.376 . S
C317 C318 1.388 . S
C318 H305 0.930 . S
C318 C317 1.388 . S
C318 C319 1.390 . S
C319 C318 1.390 . S
C319 C320 1.394 . S
C319 C325 1.465 1_554 S
C320 C315 1.399 . S
C320 C319 1.394 . S
C320 C321 1.516 1_554 S
C321 C320 1.516 1_556 S
C321 C322 1.504 . S
C321 C323 1.561 . S
C321 C324 1.526 . S
C322 H306 0.956 1_556 S
C322 H307 0.980 . S
C322 H308 0.941 1_556 S
C322 C321 1.504 . S
C323 H309 0.960 1_556 S
C323 H310 0.961 . S
C323 H311 0.959 . S
C323 C321 1.561 . S
C324 C321 1.526 . S
C324 C325 1.396 . S
C324 C329 1.390 . S
C325 C319 1.465 1_556 S
C325 C324 1.396 . S
C325 C326 1.399 . S
C326 H312 0.929 . S
C326 C325 1.399 . S
C326 C327 1.385 . S
C327 H313 0.931 . S
C327 C326 1.385 . S
C327 C328 1.389 . S
C328 C327 1.389 . S
C328 C329 1.387 . S
C329 H314 0.930 . S
C329 C324 1.390 . S
C329 C328 1.387 . S
H330 C342 0.930 1_556 S
H331 C344 0.930 . S
H332 C345 0.930 . S
H333 C349 0.959 . S
H334 C349 0.959 . S
H335 C349 0.961 . S
H336 C350 0.960 . S
H337 C350 0.955 1_556 S
H338 C350 0.959 . S
H339 C353 0.929 . S
H340 C354 0.931 1_554 S
H341 C356 0.930 . S
C342 H330 0.930 1_554 S
C342 C343 1.399 . S
C342 C347 1.399 . S
C343 C342 1.399 . S
C343 C344 1.376 . S
C344 H331 0.930 . S
C344 C343 1.376 . S
C344 C345 1.388 . S
C345 H332 0.930 . S
C345 C344 1.388 . S
C345 C346 1.390 . S
C346 C345 1.390 . S
C346 C347 1.394 . S
C346 C352 1.465 . S
C347 C342 1.399 . S
C347 C346 1.394 . S
C347 C348 1.516 1_554 S
C348 C347 1.516 1_556 S
C348 C349 1.502 . S
C348 C350 1.561 1_556 S
C348 C351 1.526 . S
C349 H333 0.959 . S
C349 H334 0.959 . S
C349 H335 0.961 . S
C349 C348 1.502 . S
C350 H336 0.960 . S
C350 H337 0.955 1_554 S
C350 H338 0.959 . S
C350 C348 1.561 1_554 S
C351 C348 1.526 . S
C351 C352 1.396 1_556 S
C351 C356 1.390 . S
C352 C346 1.465 . S
C352 C351 1.396 1_554 S
C352 C353 1.399 . S
C353 H339 0.929 . S
C353 C352 1.399 . S
C353 C354 1.385 1_554 S
C354 H340 0.931 1_556 S
C354 C353 1.385 1_556 S
C354 C355 1.389 . S
C355 C354 1.389 . S
C355 C356 1.387 . S
C356 H341 0.930 . S
C356 C351 1.390 . S
C356 C355 1.387 . S
H357 C369 0.930 . S
H358 C371 0.930 . S
H359 C372 0.930 . S
H360 C376 0.959 . S
H361 C376 0.959 . S
H362 C376 0.961 . S
H363 C377 0.960 . S
H364 C377 0.961 . S
H365 C377 0.959 . S
H366 C380 0.929 . S
H367 C381 0.931 . S
H368 C383 0.930 . S
C369 H357 0.930 . S
C369 C370 1.399 . S
C369 C374 1.399 . S
C370 C369 1.399 . S
C370 C371 1.376 . S
C371 H358 0.930 . S
C371 C370 1.376 . S
C371 C372 1.388 . S
C372 H359 0.930 . S
C372 C371 1.388 . S
C372 C373 1.390 . S
C373 C372 1.390 . S
C373 C374 1.394 . S
C373 C379 1.465 . S
C374 C369 1.399 . S
C374 C373 1.394 . S
C374 C375 1.516 . S
C375 C374 1.516 . S
C375 C376 1.502 . S
C375 C377 1.561 . S
C375 C378 1.526 . S
C376 H360 0.959 . S
C376 H361 0.959 . S
C376 H362 0.961 . S
C376 C375 1.502 . S
C377 H363 0.960 . S
C377 H364 0.961 . S
C377 H365 0.959 . S
C377 C375 1.561 . S
C378 C375 1.526 . S
C378 C379 1.396 . S
C378 C383 1.390 . S
C379 C373 1.465 . S
C379 C378 1.396 . S
C379 C380 1.399 . S
C380 H366 0.929 . S
C380 C379 1.399 . S
C380 C381 1.385 . S
C381 H367 0.931 . S
C381 C380 1.385 . S
C381 C382 1.389 . S
C382 C381 1.389 . S
C382 C383 1.387 . S
C383 H368 0.930 . S
C383 C378 1.390 . S
C383 C382 1.387 . S
H384 C396 0.930 . S
H385 C398 0.930 . S
H386 C399 0.930 . S
H387 C403 0.959 . S
H388 C403 0.959 . S
H389 C403 0.961 . S
H390 C404 0.960 . S
H391 C404 0.961 . S
H392 C404 0.959 . S
H393 C407 0.929 . S
H394 C408 0.931 . S
H395 C410 0.930 . S
C396 H384 0.930 . S
C396 C397 1.399 . S
C396 C401 1.399 . S
C397 C396 1.399 . S
C397 C398 1.376 . S
C398 H385 0.930 . S
C398 C397 1.376 . S
C398 C399 1.388 . S
C399 H386 0.930 . S
C399 C398 1.388 . S
C399 C400 1.390 . S
C400 C399 1.390 . S
C400 C401 1.394 . S
C400 C406 1.465 . S
C401 C396 1.399 . S
C401 C400 1.394 . S
C401 C402 1.516 . S
C402 C401 1.516 . S
C402 C403 1.502 . S
C402 C404 1.561 . S
C402 C405 1.526 . S
C403 H387 0.959 . S
C403 H388 0.959 . S
C403 H389 0.961 . S
C403 C402 1.502 . S
C404 H390 0.960 . S
C404 H391 0.961 . S
C404 H392 0.959 . S
C404 C402 1.561 . S
C405 C402 1.526 . S
C405 C406 1.396 . S
C405 C410 1.390 . S
C406 C400 1.465 . S
C406 C405 1.396 . S
C406 C407 1.399 . S
C407 H393 0.929 . S
C407 C406 1.399 . S
C407 C408 1.385 . S
C408 H394 0.931 . S
C408 C407 1.385 . S
C408 C409 1.389 . S
C409 C408 1.389 . S
C409 C410 1.387 . S
C410 H395 0.930 . S
C410 C405 1.390 . S
C410 C409 1.387 . S
H411 C423 0.930 . S
H412 C425 0.930 . S
H413 C426 0.930 . S
H414 C430 0.959 . S
H415 C430 0.959 . S
H416 C430 0.961 . S
H417 C431 0.960 . S
H418 C431 0.961 . S
H419 C431 0.959 . S
H420 C434 0.929 . S
H421 C435 0.931 . S
H422 C437 0.930 . S
C423 H411 0.930 . S
C423 C424 1.399 . S
C423 C428 1.399 . S
C424 C423 1.399 . S
C424 C425 1.376 . S
C425 H412 0.930 . S
C425 C424 1.376 . S
C425 C426 1.388 . S
C426 H413 0.930 . S
C426 C425 1.388 . S
C426 C427 1.390 . S
C427 C426 1.390 . S
C427 C428 1.394 . S
C427 C433 1.465 1_554 S
C428 C423 1.399 . S
C428 C427 1.394 . S
C428 C429 1.516 . S
C429 C428 1.516 . S
C429 C430 1.502 1_554 S
C429 C431 1.561 . S
C429 C432 1.526 1_554 S
C430 H414 0.959 . S
C430 H415 0.959 . S
C430 H416 0.961 . S
C430 C429 1.502 1_556 S
C431 H417 0.960 . S
C431 H418 0.961 . S
C431 H419 0.959 . S
C431 C429 1.561 . S
C432 C429 1.526 1_556 S
C432 C433 1.396 . S
C432 C437 1.390 . S
C433 C427 1.465 1_556 S
C433 C432 1.396 . S
C433 C434 1.399 . S
C434 H420 0.929 . S
C434 C433 1.399 . S
C434 C435 1.385 . S
C435 H421 0.931 . S
C435 C434 1.385 . S
C435 C436 1.389 . S
C436 C435 1.389 . S
C436 C437 1.387 . S
C437 H422 0.930 . S
C437 C432 1.390 . S
C437 C436 1.387 . S
H438 C450 0.930 . S
H439 C452 0.930 . S
H440 C453 0.930 . S
H441 C457 0.959 . S
H442 C457 0.959 . S
H443 C457 0.961 . S
H444 C458 0.960 . S
H445 C458 0.961 . S
H446 C458 0.959 . S
H447 C461 0.929 . S
H448 C462 0.931 . S
H449 C464 0.930 . S
C450 H438 0.930 . S
C450 C451 1.399 . S
C450 C455 1.399 . S
C451 C450 1.399 . S
C451 C452 1.376 . S
C452 H439 0.930 . S
C452 C451 1.376 . S
C452 C453 1.388 . S
C453 H440 0.930 . S
C453 C452 1.388 . S
C453 C454 1.390 . S
C454 C453 1.390 . S
C454 C455 1.394 . S
C454 C460 1.465 . S
C455 C450 1.399 . S
C455 C454 1.394 . S
C455 C456 1.516 . S
C456 C455 1.516 . S
C456 C457 1.502 . S
C456 C458 1.561 . S
C456 C459 1.526 . S
C457 H441 0.959 . S
C457 H442 0.959 . S
C457 H443 0.961 . S
C457 C456 1.502 . S
C458 H444 0.960 . S
C458 H445 0.961 . S
C458 H446 0.959 . S
C458 C456 1.561 . S
C459 C456 1.526 . S
C459 C460 1.396 . S
C459 C464 1.390 . S
C460 C454 1.465 . S
C460 C459 1.396 . S
C460 C461 1.399 . S
C461 H447 0.929 . S
C461 C460 1.399 . S
C461 C462 1.385 . S
C462 H448 0.931 . S
C462 C461 1.385 . S
C462 C463 1.389 . S
C463 C462 1.389 . S
C463 C464 1.387 . S
C464 H449 0.930 . S
C464 C459 1.390 . S
C464 C463 1.387 . S
H465 C477 0.930 . S
H466 C479 0.930 . S
H467 C480 0.930 . S
H468 C484 0.959 . S
H469 C484 0.959 . S
H470 C484 0.961 . S
H471 C485 0.960 . S
H472 C485 0.961 . S
H473 C485 0.959 . S
H474 C488 0.929 . S
H475 C489 0.931 . S
H476 C491 0.930 . S
C477 H465 0.930 . S
C477 C478 1.399 . S
C477 C482 1.399 . S
C478 C477 1.399 . S
C478 C479 1.376 . S
C479 H466 0.930 . S
C479 C478 1.376 . S
C479 C480 1.388 . S
C480 H467 0.930 . S
C480 C479 1.388 . S
C480 C481 1.390 . S
C481 C480 1.390 . S
C481 C482 1.394 . S
C481 C487 1.465 . S
C482 C477 1.399 . S
C482 C481 1.394 . S
C482 C483 1.516 . S
C483 C482 1.516 . S
C483 C484 1.502 . S
C483 C485 1.561 . S
C483 C486 1.526 . S
C484 H468 0.959 . S
C484 H469 0.959 . S
C484 H470 0.961 . S
C484 C483 1.502 . S
C485 H471 0.960 . S
C485 H472 0.961 . S
C485 H473 0.959 . S
C485 C483 1.561 . S
C486 C483 1.526 . S
C486 C487 1.396 . S
C486 C491 1.390 . S
C487 C481 1.465 . S
C487 C486 1.396 . S
C487 C488 1.399 . S
C488 H474 0.929 . S
C488 C487 1.399 . S
C488 C489 1.385 . S
C489 H475 0.931 . S
C489 C488 1.385 . S
C489 C490 1.389 . S
C490 C489 1.389 . S
C490 C491 1.387 . S
C491 H476 0.930 . S
C491 C486 1.390 . S
C491 C490 1.387 . S
H492 C504 0.930 . S
H493 C506 0.930 1_556 S
H494 C507 0.930 1_556 S
H495 C511 0.959 . S
H496 C511 0.959 . S
H497 C511 0.961 . S
H498 C512 0.960 . S
H499 C512 0.961 . S
H500 C512 0.959 . S
H501 C515 0.929 1_556 S
H502 C516 0.931 1_556 S
H503 C518 0.930 . S
C504 H492 0.930 . S
C504 C505 1.399 . S
C504 C509 1.399 . S
C505 C504 1.399 . S
C505 C506 1.376 . S
C506 H493 0.930 1_554 S
C506 C505 1.376 . S
C506 C507 1.388 . S
C507 H494 0.930 1_554 S
C507 C506 1.388 . S
C507 C508 1.390 . S
C508 C507 1.390 . S
C508 C509 1.394 . S
C508 C514 1.465 . S
C509 C504 1.399 . S
C509 C508 1.394 . S
C509 C510 1.516 . S
C510 C509 1.516 . S
C510 C511 1.502 . S
C510 C512 1.561 . S
C510 C513 1.526 . S
C511 H495 0.959 . S
C511 H496 0.959 . S
C511 H497 0.961 . S
C511 C510 1.502 . S
C512 H498 0.960 . S
C512 H499 0.961 . S
C512 H500 0.959 . S
C512 C510 1.561 . S
C513 C510 1.526 . S
C513 C514 1.396 . S
C513 C518 1.390 . S
C514 C508 1.465 . S
C514 C513 1.396 . S
C514 C515 1.399 . S
C515 H501 0.929 1_554 S
C515 C514 1.399 . S
C515 C516 1.385 . S
C516 H502 0.931 1_554 S
C516 C515 1.385 . S
C516 C517 1.389 . S
C517 C516 1.389 . S
C517 C518 1.387 . S
C518 H503 0.930 . S
C518 C513 1.390 . S
C518 C517 1.387 . S
H519 C531 0.930 . S
H520 C533 0.930 . S
H521 C534 0.930 . S
H522 C538 0.959 . S
H523 C538 0.959 . S
H524 C538 0.961 . S
H525 C539 0.960 . S
H526 C539 0.961 1_455 S
H527 C539 0.959 . S
H528 C542 0.929 . S
H529 C543 0.931 . S
H530 C545 0.930 . S
C531 H519 0.930 . S
C531 C532 1.399 . S
C531 C536 1.399 . S
C532 C531 1.399 . S
C532 C533 1.376 . S
C533 H520 0.930 . S
C533 C532 1.376 . S
C533 C534 1.388 . S
C534 H521 0.930 . S
C534 C533 1.388 . S
C534 C535 1.390 . S
C535 C534 1.390 . S
C535 C536 1.394 . S
C535 C541 1.465 1_655 S
C536 C531 1.399 . S
C536 C535 1.394 . S
C536 C537 1.516 1_655 S
C537 C536 1.516 1_455 S
C537 C538 1.502 . S
C537 C539 1.561 1_455 S
C537 C540 1.526 . S
C538 H522 0.959 . S
C538 H523 0.959 . S
C538 H524 0.961 . S
C538 C537 1.502 . S
C539 H525 0.960 . S
C539 H526 0.961 1_655 S
C539 H527 0.959 . S
C539 C537 1.561 1_655 S
C540 C537 1.526 . S
C540 C541 1.396 . S
C540 C545 1.390 . S
C541 C535 1.465 1_455 S
C541 C540 1.396 . S
C541 C542 1.399 . S
C542 H528 0.929 . S
C542 C541 1.399 . S
C542 C543 1.385 . S
C543 H529 0.931 . S
C543 C542 1.385 . S
C543 C544 1.389 . S
C544 C543 1.389 . S
C544 C545 1.387 . S
C545 H530 0.930 . S
C545 C540 1.390 . S
C545 C544 1.387 . S
H546 C558 0.930 . S
H547 C560 0.930 . S
H548 C561 0.930 . S
H549 C565 0.959 . S
H550 C565 0.959 . S
H551 C565 0.961 . S
H552 C566 0.960 1_545 S
H553 C566 0.961 . S
H554 C566 0.959 1_545 S
H555 C569 0.929 . S
H556 C570 0.931 . S
H557 C572 0.930 . S
C558 H546 0.930 . S
C558 C559 1.399 . S
C558 C563 1.399 . S
C559 C558 1.399 . S
C559 C560 1.376 . S
C560 H547 0.930 . S
C560 C559 1.376 . S
C560 C561 1.388 . S
C561 H548 0.930 . S
C561 C560 1.388 . S
C561 C562 1.390 . S
C562 C561 1.390 . S
C562 C563 1.394 . S
C562 C568 1.465 1_545 S
C563 C558 1.399 . S
C563 C562 1.394 . S
C563 C564 1.516 1_545 S
C564 C563 1.516 1_565 S
C564 C565 1.502 . S
C564 C566 1.561 . S
C564 C567 1.526 . S
C565 H549 0.959 . S
C565 H550 0.959 . S
C565 H551 0.961 . S
C565 C564 1.502 . S
C566 H552 0.960 1_565 S
C566 H553 0.961 . S
C566 H554 0.959 1_565 S
C566 C564 1.561 . S
C567 C564 1.526 . S
C567 C568 1.396 . S
C567 C572 1.390 . S
C568 C562 1.465 1_565 S
C568 C567 1.396 . S
C568 C569 1.399 . S
C569 H555 0.929 . S
C569 C568 1.399 . S
C569 C570 1.385 . S
C570 H556 0.931 . S
C570 C569 1.385 . S
C570 C571 1.389 . S
C571 C570 1.389 . S
C571 C572 1.387 . S
C572 H557 0.930 . S
C572 C567 1.390 . S
C572 C571 1.387 . S
H573 C585 0.930 . S
H574 C587 0.930 . S
H575 C588 0.930 . S
H576 C592 0.959 . S
H577 C592 0.959 . S
H578 C592 0.961 . S
H579 C593 0.960 . S
H580 C593 0.961 . S
H581 C593 0.959 . S
H582 C596 0.929 . S
H583 C597 0.931 . S
H584 C599 0.930 . S
C585 H573 0.930 . S
C585 C586 1.399 . S
C585 C590 1.399 . S
C586 C585 1.399 . S
C586 C587 1.376 . S
C587 H574 0.930 . S
C587 C586 1.376 . S
C587 C588 1.388 . S
C588 H575 0.930 . S
C588 C587 1.388 . S
C588 C589 1.390 . S
C589 C588 1.390 . S
C589 C590 1.394 . S
C589 C595 1.465 . S
C590 C585 1.399 . S
C590 C589 1.394 . S
C590 C591 1.516 . S
C591 C590 1.516 . S
C591 C592 1.502 . S
C591 C593 1.561 . S
C591 C594 1.526 . S
C592 H576 0.959 . S
C592 H577 0.959 . S
C592 H578 0.961 . S
C592 C591 1.502 . S
C593 H579 0.960 . S
C593 H580 0.961 . S
C593 H581 0.959 . S
C593 C591 1.561 . S
C594 C591 1.526 . S
C594 C595 1.396 . S
C594 C599 1.390 . S
C595 C589 1.465 . S
C595 C594 1.396 . S
C595 C596 1.399 . S
C596 H582 0.929 . S
C596 C595 1.399 . S
C596 C597 1.385 . S
C597 H583 0.931 . S
C597 C596 1.385 . S
C597 C598 1.389 . S
C598 C597 1.389 . S
C598 C599 1.387 . S
C599 H584 0.930 . S
C599 C594 1.390 . S
C599 C598 1.387 . S
H600 C612 0.930 . S
H601 C614 0.930 1_554 S
H602 C615 0.934 . S
H603 C619 0.959 . S
H604 C619 0.959 . S
H605 C619 0.961 . S
H606 C620 0.960 1_455 S
H607 C620 0.961 . S
H608 C620 0.959 . S
H609 C623 0.929 . S
H610 C624 0.931 1_554 S
H611 C626 0.930 . S
C612 H600 0.930 . S
C612 C613 1.399 . S
C612 C617 1.399 . S
C613 C612 1.399 . S
C613 C614 1.376 . S
C614 H601 0.930 1_556 S
C614 C613 1.376 . S
C614 C615 1.387 1_556 S
C615 H602 0.934 . S
C615 C614 1.387 1_554 S
C615 C616 1.386 1_554 S
C616 C615 1.386 1_556 S
C616 C617 1.394 . S
C616 C622 1.465 1_455 S
C617 C612 1.399 . S
C617 C616 1.394 . S
C617 C618 1.516 . S
C618 C617 1.516 . S
C618 C619 1.502 . S
C618 C620 1.561 1_455 S
C618 C621 1.526 1_455 S
C619 H603 0.959 . S
C619 H604 0.959 . S
C619 H605 0.961 . S
C619 C618 1.502 . S
C620 H606 0.960 1_655 S
C620 H607 0.961 . S
C620 H608 0.959 . S
C620 C618 1.561 1_655 S
C621 C618 1.526 1_655 S
C621 C622 1.396 . S
C621 C626 1.390 . S
C622 C616 1.465 1_655 S
C622 C621 1.396 . S
C622 C623 1.399 1_556 S
C623 H609 0.929 . S
C623 C622 1.399 1_554 S
C623 C624 1.385 1_554 S
C624 H610 0.931 1_556 S
C624 C623 1.385 1_556 S
C624 C625 1.389 . S
C625 C624 1.389 . S
C625 C626 1.387 . S
C626 H611 0.930 . S
C626 C621 1.390 . S
C626 C625 1.387 . S
H627 C639 0.930 . S
H628 C641 0.930 . S
H629 C642 0.930 . S
H630 C646 0.959 . S
H631 C646 0.959 1_545 S
H632 C646 0.961 . S
H633 C647 0.960 . S
H634 C647 0.961 . S
H635 C647 0.959 . S
H636 C650 0.929 . S
H637 C651 0.931 . S
H638 C653 0.930 . S
C639 H627 0.930 . S
C639 C640 1.399 . S
C639 C644 1.399 . S
C640 C639 1.399 . S
C640 C641 1.376 . S
C641 H628 0.930 . S
C641 C640 1.376 . S
C641 C642 1.388 . S
C642 H629 0.930 . S
C642 C641 1.388 . S
C642 C643 1.390 . S
C643 C642 1.390 . S
C643 C644 1.394 . S
C643 C649 1.465 1_565 S
C644 C639 1.399 . S
C644 C643 1.394 . S
C644 C645 1.516 1_565 S
C645 C644 1.516 1_545 S
C645 C646 1.502 1_545 S
C645 C647 1.561 . S
C645 C648 1.526 . S
C646 H630 0.959 . S
C646 H631 0.959 1_565 S
C646 H632 0.961 . S
C646 C645 1.502 1_565 S
C647 H633 0.960 . S
C647 H634 0.961 . S
C647 H635 0.959 . S
C647 C645 1.561 . S
C648 C645 1.526 . S
C648 C649 1.396 . S
C648 C653 1.390 . S
C649 C643 1.465 1_545 S
C649 C648 1.396 . S
C649 C650 1.399 . S
C650 H636 0.929 . S
C650 C649 1.399 . S
C650 C651 1.385 . S
C651 H637 0.931 . S
C651 C650 1.385 . S
C651 C652 1.389 . S
C652 C651 1.389 . S
C652 C653 1.387 . S
C653 H638 0.930 . S
C653 C648 1.390 . S
C653 C652 1.387 . S
H654 C666 0.930 . S
H655 C668 0.930 . S
H656 C669 0.930 . S
H657 C673 0.959 . S
H658 C673 0.959 . S
H659 C673 0.961 . S
H660 C674 0.960 . S
H661 C674 0.961 . S
H662 C674 0.959 . S
H663 C677 0.929 . S
H664 C678 0.931 . S
H665 C680 0.930 . S
C666 H654 0.930 . S
C666 C667 1.399 . S
C666 C671 1.399 . S
C667 C666 1.399 . S
C667 C668 1.376 . S
C668 H655 0.930 . S
C668 C667 1.376 . S
C668 C669 1.388 . S
C669 H656 0.930 . S
C669 C668 1.388 . S
C669 C670 1.390 . S
C670 C669 1.390 . S
C670 C671 1.394 . S
C670 C676 1.465 . S
C671 C666 1.399 . S
C671 C670 1.394 . S
C671 C672 1.516 . S
C672 C671 1.516 . S
C672 C673 1.502 . S
C672 C674 1.561 . S
C672 C675 1.526 . S
C673 H657 0.959 . S
C673 H658 0.959 . S
C673 H659 0.961 . S
C673 C672 1.502 . S
C674 H660 0.960 . S
C674 H661 0.961 . S
C674 H662 0.959 . S
C674 C672 1.561 . S
C675 C672 1.526 . S
C675 C676 1.396 . S
C675 C680 1.390 . S
C676 C670 1.465 . S
C676 C675 1.396 . S
C676 C677 1.399 . S
C677 H663 0.929 . S
C677 C676 1.399 . S
C677 C678 1.385 . S
C678 H664 0.931 . S
C678 C677 1.385 . S
C678 C679 1.389 . S
C679 C678 1.389 . S
C679 C680 1.387 . S
C680 H665 0.930 . S
C680 C675 1.390 . S
C680 C679 1.387 . S
H681 C693 0.930 . S
H682 C695 0.930 . S
H683 C696 0.930 . S
H684 C700 0.959 . S
H685 C700 0.959 . S
H686 C700 0.961 . S
H687 C701 0.960 . S
H688 C701 0.961 . S
H689 C701 0.959 . S
H690 C704 0.929 . S
H691 C705 0.931 . S
H692 C707 0.930 . S
C693 H681 0.930 . S
C693 C694 1.399 . S
C693 C698 1.399 . S
C694 C693 1.399 . S
C694 C695 1.376 . S
C695 H682 0.930 . S
C695 C694 1.376 . S
C695 C696 1.388 . S
C696 H683 0.930 . S
C696 C695 1.388 . S
C696 C697 1.390 . S
C697 C696 1.390 . S
C697 C698 1.394 . S
C697 C703 1.465 . S
C698 C693 1.399 . S
C698 C697 1.394 . S
C698 C699 1.516 . S
C699 C698 1.516 . S
C699 C700 1.502 . S
C699 C701 1.561 . S
C699 C702 1.526 . S
C700 H684 0.959 . S
C700 H685 0.959 . S
C700 H686 0.961 . S
C700 C699 1.502 . S
C701 H687 0.960 . S
C701 H688 0.961 . S
C701 H689 0.959 . S
C701 C699 1.561 . S
C702 C699 1.526 . S
C702 C703 1.396 . S
C702 C707 1.390 . S
C703 C697 1.465 . S
C703 C702 1.396 . S
C703 C704 1.399 . S
C704 H690 0.929 . S
C704 C703 1.399 . S
C704 C705 1.385 . S
C705 H691 0.931 . S
C705 C704 1.385 . S
C705 C706 1.389 . S
C706 C705 1.389 . S
C706 C707 1.387 . S
C707 H692 0.930 . S
C707 C702 1.390 . S
C707 C706 1.387 . S
H708 C720 0.930 . S
H709 C722 0.930 . S
H710 C723 0.930 . S
H711 C727 0.959 . S
H712 C727 0.959 . S
H713 C727 0.961 . S
H714 C728 0.960 . S
H715 C728 0.961 . S
H716 C728 0.959 . S
H717 C731 0.929 . S
H718 C732 0.931 . S
H719 C734 0.930 . S
C720 H708 0.930 . S
C720 C721 1.399 . S
C720 C725 1.399 . S
C721 C720 1.399 . S
C721 C722 1.376 . S
C722 H709 0.930 . S
C722 C721 1.376 . S
C722 C723 1.388 . S
C723 H710 0.930 . S
C723 C722 1.388 . S
C723 C724 1.390 . S
C724 C723 1.390 . S
C724 C725 1.394 . S
C724 C730 1.465 . S
C725 C720 1.399 . S
C725 C724 1.394 . S
C725 C726 1.516 . S
C726 C725 1.516 . S
C726 C727 1.502 . S
C726 C728 1.561 . S
C726 C729 1.526 . S
C727 H711 0.959 . S
C727 H712 0.959 . S
C727 H713 0.961 . S
C727 C726 1.502 . S
C728 H714 0.960 . S
C728 H715 0.961 . S
C728 H716 0.959 . S
C728 C726 1.561 . S
C729 C726 1.526 . S
C729 C730 1.396 . S
C729 C734 1.390 . S
C730 C724 1.465 . S
C730 C729 1.396 . S
C730 C731 1.399 . S
C731 H717 0.929 . S
C731 C730 1.399 . S
C731 C732 1.385 . S
C732 H718 0.931 . S
C732 C731 1.385 . S
C732 C733 1.389 . S
C733 C732 1.389 . S
C733 C734 1.387 . S
C734 H719 0.930 . S
C734 C729 1.390 . S
C734 C733 1.387 . S
H735 C747 0.930 . S
H736 C749 0.930 . S
H737 C750 0.930 . S
H738 C754 0.959 . S
H739 C754 0.959 . S
H740 C754 0.961 . S
H741 C755 0.960 . S
H742 C755 0.961 . S
H743 C755 0.959 . S
H744 C758 0.929 . S
H745 C759 0.931 . S
H746 C761 0.930 . S
C747 H735 0.930 . S
C747 C748 1.399 . S
C747 C752 1.399 . S
C748 C747 1.399 . S
C748 C749 1.376 . S
C749 H736 0.930 . S
C749 C748 1.376 . S
C749 C750 1.388 . S
C750 H737 0.930 . S
C750 C749 1.388 . S
C750 C751 1.390 . S
C751 C750 1.390 . S
C751 C752 1.394 . S
C751 C757 1.465 . S
C752 C747 1.399 . S
C752 C751 1.394 . S
C752 C753 1.516 . S
C753 C752 1.516 . S
C753 C754 1.502 . S
C753 C755 1.561 . S
C753 C756 1.526 . S
C754 H738 0.959 . S
C754 H739 0.959 . S
C754 H740 0.961 . S
C754 C753 1.502 . S
C755 H741 0.960 . S
C755 H742 0.961 . S
C755 H743 0.959 . S
C755 C753 1.561 . S
C756 C753 1.526 . S
C756 C757 1.396 . S
C756 C761 1.390 . S
C757 C751 1.465 . S
C757 C756 1.396 . S
C757 C758 1.399 . S
C758 H744 0.929 . S
C758 C757 1.399 . S
C758 C759 1.385 . S
C759 H745 0.931 . S
C759 C758 1.385 . S
C759 C760 1.389 . S
C760 C759 1.389 . S
C760 C761 1.387 . S
C761 H746 0.930 . S
C761 C756 1.390 . S
C761 C760 1.387 . S
H762 C774 0.930 . S
H763 C776 0.930 . S
H764 C777 0.930 . S
H765 C781 0.959 . S
H766 C781 0.959 . S
H767 C781 0.961 . S
H768 C782 0.960 . S
H769 C782 0.961 . S
H770 C782 0.959 . S
H771 C785 0.929 . S
H772 C786 0.931 . S
H773 C788 0.930 . S
C774 H762 0.930 . S
C774 C775 1.399 . S
C774 C779 1.399 . S
C775 C774 1.399 . S
C775 C776 1.376 . S
C776 H763 0.930 . S
C776 C775 1.376 . S
C776 C777 1.388 . S
C777 H764 0.930 . S
C777 C776 1.388 . S
C777 C778 1.390 . S
C778 C777 1.390 . S
C778 C779 1.394 . S
C778 C784 1.465 . S
C779 C774 1.399 . S
C779 C778 1.394 . S
C779 C780 1.516 . S
C780 C779 1.516 . S
C780 C781 1.502 . S
C780 C782 1.561 . S
C780 C783 1.526 . S
C781 H765 0.959 . S
C781 H766 0.959 . S
C781 H767 0.961 . S
C781 C780 1.502 . S
C782 H768 0.960 . S
C782 H769 0.961 . S
C782 H770 0.959 . S
C782 C780 1.561 . S
C783 C780 1.526 . S
C783 C784 1.396 . S
C783 C788 1.390 . S
C784 C778 1.465 . S
C784 C783 1.396 . S
C784 C785 1.399 . S
C785 H771 0.929 . S
C785 C784 1.399 . S
C785 C786 1.385 . S
C786 H772 0.931 . S
C786 C785 1.385 . S
C786 C787 1.389 . S
C787 C786 1.389 . S
C787 C788 1.387 . S
C788 H773 0.930 . S
C788 C783 1.390 . S
C788 C787 1.387 . S
H789 C801 0.930 . S
H790 C803 0.930 . S
H791 C804 0.930 . S
H792 C808 0.959 . S
H793 C808 0.959 . S
H794 C808 0.961 . S
H795 C809 0.960 . S
H796 C809 0.961 . S
H797 C809 0.959 . S
H798 C812 0.929 . S
H799 C813 0.931 . S
H800 C815 0.930 . S
C801 H789 0.930 . S
C801 C802 1.399 . S
C801 C806 1.399 . S
C802 C801 1.399 . S
C802 C803 1.376 . S
C803 H790 0.930 . S
C803 C802 1.376 . S
C803 C804 1.388 . S
C804 H791 0.930 . S
C804 C803 1.388 . S
C804 C805 1.390 . S
C805 C804 1.390 . S
C805 C806 1.394 . S
C805 C811 1.465 . S
C806 C801 1.399 . S
C806 C805 1.394 . S
C806 C807 1.516 . S
C807 C806 1.516 . S
C807 C808 1.502 . S
C807 C809 1.561 . S
C807 C810 1.526 . S
C808 H792 0.959 . S
C808 H793 0.959 . S
C808 H794 0.961 . S
C808 C807 1.502 . S
C809 H795 0.960 . S
C809 H796 0.961 . S
C809 H797 0.959 . S
C809 C807 1.561 . S
C810 C807 1.526 . S
C810 C811 1.396 . S
C810 C815 1.390 . S
C811 C805 1.465 . S
C811 C810 1.396 . S
C811 C812 1.399 . S
C812 H798 0.929 . S
C812 C811 1.399 . S
C812 C813 1.385 . S
C813 H799 0.931 . S
C813 C812 1.385 . S
C813 C814 1.389 . S
C814 C813 1.389 . S
C814 C815 1.387 . S
C815 H800 0.930 . S
C815 C810 1.390 . S
C815 C814 1.387 . S
C181 C6 1.435 . S
C193 C90 1.478 . S
C208 C20 1.472 . S
C220 C104 1.453 . S
C235 C34 1.463 . S
C247 C118 1.437 . S
C262 C48 1.479 . S
C274 C132 1.438 . S
C289 C62 1.475 . S
C301 C146 1.449 . S
C316 C160 1.448 . S
C328 C76 1.450 . S
C343 C7 1.411 . S
C355 C147 1.386 . S
C370 C21 1.395 . S
C382 C161 1.375 . S
C397 C35 1.407 . S
C409 C91 1.371 . S
C424 C49 1.404 . S
C436 C105 1.396 . S
C451 C63 1.370 . S
C463 C119 1.405 . S
C478 C77 1.400 . S
C490 C133 1.398 . S
C505 C8 1.306 . S
C517 C50 1.238 . S
C532 C22 1.184 . S
C544 C64 1.268 . S
C559 C78 1.180 . S
C571 C36 1.280 . S
C586 C92 1.312 . S
C598 C134 1.205 . S
C613 C148 1.300 . S
C625 C106 1.247 . S
C640 C120 1.286 . S
C652 C162 1.264 . S
C667 C93 1.182 . S
C679 C9 1.264 . S
C694 C23 1.263 . S
C706 C107 1.180 . S
C721 C37 1.188 . S
C733 C121 1.247 . S
C748 C135 1.179 . S
C760 C51 1.264 . S
C775 C149 1.216 . S
C787 C65 1.240 . S
C802 C79 1.191 . S
C814 C163 1.244 . S
