# Generated by pormake.
# Topology wmi, (6)-cn, num edge types: 1
# Building blocks:
#     Node 0, Type 0, BuildingBlock: INOVEN_clean_sbu_0, # of connection points: 6
#     Node 1, Type 0, BuildingBlock: INOVEN_clean_sbu_0, # of connection points: 6
#     Node 2, Type 0, BuildingBlock: INOVEN_clean_sbu_0, # of connection points: 6
#     Node 3, Type 0, BuildingBlock: INOVEN_clean_sbu_0, # of connection points: 6
#     Node 4, Type 0, BuildingBlock: INOVEN_clean_sbu_0, # of connection points: 6
#     Node 5, Type 0, BuildingBlock: INOVEN_clean_sbu_0, # of connection points: 6
#     Node 6, Type 0, BuildingBlock: INOVEN_clean_sbu_0, # of connection points: 6
#     Node 7, Type 0, BuildingBlock: INOVEN_clean_sbu_0, # of connection points: 6
#     Node 8, Type 0, BuildingBlock: INOVEN_clean_sbu_0, # of connection points: 6
#     Node 9, Type 0, BuildingBlock: INOVEN_clean_sbu_0, # of connection points: 6
#     Node 10, Type 0, BuildingBlock: INOVEN_clean_sbu_0, # of connection points: 6
#     Node 11, Type 0, BuildingBlock: INOVEN_clean_sbu_0, # of connection points: 6
#     Node 12, Type 0, BuildingBlock: INOVEN_clean_sbu_0, # of connection points: 6
#     Node 13, Type 0, BuildingBlock: INOVEN_clean_sbu_0, # of connection points: 6
#     Node 14, Type 0, BuildingBlock: INOVEN_clean_sbu_0, # of connection points: 6
#     Node 15, Type 0, BuildingBlock: INOVEN_clean_sbu_0, # of connection points: 6
#     Node 16, Type 0, BuildingBlock: INOVEN_clean_sbu_0, # of connection points: 6
#     Node 17, Type 0, BuildingBlock: INOVEN_clean_sbu_0, # of connection points: 6
#     Edge 18, Type (0, 0), BuildingBlock: UVAHIK_clean_linker_0, # of connection points: 2
#     Edge 19, Type (0, 0), BuildingBlock: UVAHIK_clean_linker_0, # of connection points: 2
#     Edge 20, Type (0, 0), BuildingBlock: UVAHIK_clean_linker_0, # of connection points: 2
#     Edge 21, Type (0, 0), BuildingBlock: UVAHIK_clean_linker_0, # of connection points: 2
#     Edge 22, Type (0, 0), BuildingBlock: UVAHIK_clean_linker_0, # of connection points: 2
#     Edge 23, Type (0, 0), BuildingBlock: UVAHIK_clean_linker_0, # of connection points: 2
#     Edge 24, Type (0, 0), BuildingBlock: UVAHIK_clean_linker_0, # of connection points: 2
#     Edge 25, Type (0, 0), BuildingBlock: UVAHIK_clean_linker_0, # of connection points: 2
#     Edge 26, Type (0, 0), BuildingBlock: UVAHIK_clean_linker_0, # of connection points: 2
#     Edge 27, Type (0, 0), BuildingBlock: UVAHIK_clean_linker_0, # of connection points: 2
#     Edge 28, Type (0, 0), BuildingBlock: UVAHIK_clean_linker_0, # of connection points: 2
#     Edge 29, Type (0, 0), BuildingBlock: UVAHIK_clean_linker_0, # of connection points: 2
#     Edge 30, Type (0, 0), BuildingBlock: UVAHIK_clean_linker_0, # of connection points: 2
#     Edge 31, Type (0, 0), BuildingBlock: UVAHIK_clean_linker_0, # of connection points: 2
#     Edge 32, Type (0, 0), BuildingBlock: UVAHIK_clean_linker_0, # of connection points: 2
#     Edge 33, Type (0, 0), BuildingBlock: UVAHIK_clean_linker_0, # of connection points: 2
#     Edge 34, Type (0, 0), BuildingBlock: UVAHIK_clean_linker_0, # of connection points: 2
#     Edge 35, Type (0, 0), BuildingBlock: UVAHIK_clean_linker_0, # of connection points: 2
#     Edge 36, Type (0, 0), BuildingBlock: UVAHIK_clean_linker_0, # of connection points: 2
#     Edge 37, Type (0, 0), BuildingBlock: UVAHIK_clean_linker_0, # of connection points: 2
#     Edge 38, Type (0, 0), BuildingBlock: UVAHIK_clean_linker_0, # of connection points: 2
#     Edge 39, Type (0, 0), BuildingBlock: UVAHIK_clean_linker_0, # of connection points: 2
#     Edge 40, Type (0, 0), BuildingBlock: UVAHIK_clean_linker_0, # of connection points: 2
#     Edge 41, Type (0, 0), BuildingBlock: UVAHIK_clean_linker_0, # of connection points: 2
#     Edge 42, Type (0, 0), BuildingBlock: UVAHIK_clean_linker_0, # of connection points: 2
#     Edge 43, Type (0, 0), BuildingBlock: UVAHIK_clean_linker_0, # of connection points: 2
#     Edge 44, Type (0, 0), BuildingBlock: UVAHIK_clean_linker_0, # of connection points: 2
#     Edge 45, Type (0, 0), BuildingBlock: UVAHIK_clean_linker_0, # of connection points: 2
#     Edge 46, Type (0, 0), BuildingBlock: UVAHIK_clean_linker_0, # of connection points: 2
#     Edge 47, Type (0, 0), BuildingBlock: UVAHIK_clean_linker_0, # of connection points: 2
#     Edge 48, Type (0, 0), BuildingBlock: UVAHIK_clean_linker_0, # of connection points: 2
#     Edge 49, Type (0, 0), BuildingBlock: UVAHIK_clean_linker_0, # of connection points: 2
#     Edge 50, Type (0, 0), BuildingBlock: UVAHIK_clean_linker_0, # of connection points: 2
#     Edge 51, Type (0, 0), BuildingBlock: UVAHIK_clean_linker_0, # of connection points: 2
#     Edge 52, Type (0, 0), BuildingBlock: UVAHIK_clean_linker_0, # of connection points: 2
#     Edge 53, Type (0, 0), BuildingBlock: UVAHIK_clean_linker_0, # of connection points: 2
#     Edge 54, Type (0, 0), BuildingBlock: UVAHIK_clean_linker_0, # of connection points: 2
#     Edge 55, Type (0, 0), BuildingBlock: UVAHIK_clean_linker_0, # of connection points: 2
#     Edge 56, Type (0, 0), BuildingBlock: UVAHIK_clean_linker_0, # of connection points: 2
#     Edge 57, Type (0, 0), BuildingBlock: UVAHIK_clean_linker_0, # of connection points: 2
#     Edge 58, Type (0, 0), BuildingBlock: UVAHIK_clean_linker_0, # of connection points: 2
#     Edge 59, Type (0, 0), BuildingBlock: UVAHIK_clean_linker_0, # of connection points: 2
#     Edge 60, Type (0, 0), BuildingBlock: UVAHIK_clean_linker_0, # of connection points: 2
#     Edge 61, Type (0, 0), BuildingBlock: UVAHIK_clean_linker_0, # of connection points: 2
#     Edge 62, Type (0, 0), BuildingBlock: UVAHIK_clean_linker_0, # of connection points: 2
#     Edge 63, Type (0, 0), BuildingBlock: UVAHIK_clean_linker_0, # of connection points: 2
#     Edge 64, Type (0, 0), BuildingBlock: UVAHIK_clean_linker_0, # of connection points: 2
#     Edge 65, Type (0, 0), BuildingBlock: UVAHIK_clean_linker_0, # of connection points: 2
#     Edge 66, Type (0, 0), BuildingBlock: UVAHIK_clean_linker_0, # of connection points: 2
#     Edge 67, Type (0, 0), BuildingBlock: UVAHIK_clean_linker_0, # of connection points: 2
#     Edge 68, Type (0, 0), BuildingBlock: UVAHIK_clean_linker_0, # of connection points: 2
#     Edge 69, Type (0, 0), BuildingBlock: UVAHIK_clean_linker_0, # of connection points: 2
#     Edge 70, Type (0, 0), BuildingBlock: UVAHIK_clean_linker_0, # of connection points: 2
#     Edge 71, Type (0, 0), BuildingBlock: UVAHIK_clean_linker_0, # of connection points: 2
# Relax obj value: 0.088
# Max RMSD: 0.201
# Mean RMSD: 0.201
data_MOF--net-wmi--node1-INOVEN_clean_sbu_0--edge1-UVAHIK_clean_linker_0
_symmetry_space_group_name_H-M    P1
_symmetry_Int_Tables_number       1
_symmetry_cell_setting            triclinic
loop_
_symmetry_equiv_pos_as_xyz
'x, y, z'
_cell_length_a     49.447625
_cell_length_b     49.446642
_cell_length_c     102.11436
_cell_angle_alpha  89.895752
_cell_angle_beta   90.069823
_cell_angle_gamma 120.02485
loop_
_atom_site_label
_atom_site_type_symbol
_atom_site_fract_x
_atom_site_fract_y
_atom_site_fract_z
_atom_type_partial_charge
Gd0 Gd 0.52302 0.04344 0.11832 0.0
Gd1 Gd 0.45106 1.00166 0.11158 0.0
C2 C 0.48404 0.07643 0.10855 0.0
C3 C 0.58223 0.08135 0.12126 0.0
C4 C 0.61131 0.11086 0.11849 0.0
C5 C 0.63238 0.12522 0.12883 0.0
C6 C 0.61994 0.12321 0.10578 0.0
C7 C 0.67135 0.16257 0.11378 0.0
C8 C 0.64973 0.14906 0.10347 0.0
C9 C 0.66205 0.15072 0.12652 0.0
C10 C 0.4818 0.02043 0.13856 0.0
C11 C 0.49471 0.96987 0.11607 0.0
C12 C 0.39228 0.96446 0.11554 0.0
C13 C 0.37023 0.93142 0.11278 0.0
C14 C 0.38076 0.91231 0.10732 0.0
C15 C 0.33899 0.91821 0.11664 0.0
C16 C 0.32905 0.86666 0.11006 0.0
C17 C 0.31853 0.88612 0.11526 0.0
C18 C 0.36035 0.88018 0.10598 0.0
C19 C 0.48494 1.01022 0.08959 0.0
O20 O 0.51154 0.07797 0.10925 0.0
O21 O 0.45725 0.05011 0.11058 0.0
O22 O 0.56105 0.08214 0.12869 0.0
O23 O 0.57058 0.05985 0.11213 0.0
O24 O 0.5089 0.0223 0.13876 0.0
O25 O 0.47847 0.03118 0.12792 0.0
O26 O 0.46616 0.96608 0.11611 0.0
O27 O 0.52018 0.9976 0.11554 0.0
O28 O 0.40299 0.98339 0.10542 0.0
O29 O 0.41395 0.9692 0.12413 0.0
O30 O 0.45468 0.99377 0.09002 0.0
O31 O 0.49528 0.02089 0.10084 0.0
H32 H 0.62624 0.11602 0.13869 0.0
H33 H 0.60408 0.11241 0.09764 0.0
H34 H 0.65627 0.15769 0.09355 0.0
H35 H 0.67797 0.16091 0.13469 0.0
H36 H 0.40492 0.92216 0.10435 0.0
H37 H 0.3306 0.93259 0.12102 0.0
H38 H 0.2947 0.87641 0.11865 0.0
H39 H 0.3691 0.86592 0.1018 0.0
Gd40 Gd 1.01625 0.50027 0.11688 0.0
Gd41 Gd 0.0565 0.46844 0.11225 0.0
C42 C 0.98234 0.42775 0.10827 0.0
C43 C 0.97824 0.52193 0.11839 0.0
C44 C 0.95036 0.52252 0.11336 0.0
C45 C 0.92011 0.50043 0.11755 0.0
C46 C 0.95435 0.54821 0.10591 0.0
C47 C 0.89894 0.53109 0.10784 0.0
C48 C 0.92897 0.55239 0.10316 0.0
C49 C 0.89467 0.5046 0.11478 0.0
C50 C 0.03724 0.48332 0.13833 0.0
C51 C 0.08957 0.5444 0.11418 0.0
C52 C 0.09333 0.44717 0.11761 0.0
C53 C 0.12669 0.45824 0.11527 0.0
C54 C 0.13647 0.43691 0.11212 0.0
C55 C 0.14915 0.49003 0.1166 0.0
C56 C 0.19095 0.47876 0.11235 0.0
C57 C 0.1809 0.50015 0.11522 0.0
C58 C 0.16827 0.44706 0.11062 0.0
C59 C 0.05011 0.49098 0.08898 0.0
O60 O 0.98203 0.45437 0.10764 0.0
O61 O 1.00781 0.4267 0.1115 0.0
O62 O 0.97433 0.49742 0.12494 0.0
O63 O 1.0037 0.53485 0.11127 0.0
O64 O 0.0368 0.50926 0.13759 0.0
O65 O 0.02654 0.46828 0.12793 0.0
O66 O 0.09261 0.51946 0.11596 0.0
O67 O 0.06208 0.54227 0.11277 0.0
O68 O 0.07486 0.43788 0.10734 0.0
O69 O 0.08753 0.4641 0.12576 0.0
O70 O 0.06518 0.47603 0.09065 0.0
O71 O 0.03877 0.49289 0.09981 0.0
H72 H 0.91623 0.48059 0.12347 0.0
H73 H 0.97738 0.56586 0.10267 0.0
H74 H 0.93303 0.57279 0.09761 0.0
H75 H 0.87194 0.48785 0.11863 0.0
H76 H 0.11952 0.41233 0.11098 0.0
H77 H 0.14224 0.50704 0.11898 0.0
H78 H 0.19756 0.52463 0.11679 0.0
H79 H 0.17508 0.43 0.10816 0.0
Gd80 Gd 0.55942 0.53461 0.11983 0.0
Gd81 Gd 0.58966 0.60615 0.11231 0.0
C82 C 0.6309 0.57267 0.10935 0.0
C83 C 0.5379 0.47552 0.12338 0.0
C84 C 0.53748 0.44616 0.1204 0.0
C85 C 0.52848 0.42385 0.1304 0.0
C86 C 0.54288 0.43868 0.10777 0.0
C87 C 0.52813 0.38602 0.11511 0.0
C88 C 0.53843 0.40883 0.10516 0.0
C89 C 0.52379 0.39412 0.1278 0.0
C90 C 0.57789 0.57678 0.13968 0.0
C91 C 0.51432 0.56294 0.11712 0.0
C92 C 0.61111 0.66512 0.11549 0.0
C93 C 0.59949 0.68688 0.1129 0.0
C94 C 0.62048 0.71796 0.10952 0.0
C95 C 0.5677 0.67728 0.11445 0.0
C96 C 0.57839 0.73021 0.11014 0.0
C97 C 0.55729 0.69872 0.11314 0.0
C98 C 0.61004 0.73941 0.1081 0.0
C99 C 0.56353 0.57099 0.0907 0.0
O100 O 0.60482 0.54536 0.11048 0.0
O101 O 0.63176 0.59973 0.1111 0.0
O102 O 0.56137 0.49706 0.13011 0.0
O103 O 0.52675 0.48675 0.1146 0.0
O104 O 0.55276 0.54962 0.14008 0.0
O105 O 0.59193 0.57968 0.12907 0.0
O106 O 0.53913 0.59145 0.11692 0.0
O107 O 0.51647 0.53742 0.11684 0.0
O108 O 0.6183 0.65384 0.10529 0.0
O109 O 0.59602 0.64418 0.1246 0.0
O110 O 0.57747 0.60126 0.09079 0.0
O111 O 0.56414 0.56129 0.10207 0.0
H112 H 0.52413 0.42914 0.14021 0.0
H113 H 0.54973 0.45555 0.09989 0.0
H114 H 0.54193 0.40322 0.09528 0.0
H115 H 0.51638 0.37727 0.13571 0.0
H116 H 0.64506 0.7258 0.10822 0.0
H117 H 0.55098 0.65336 0.11703 0.0
H118 H 0.53286 0.69077 0.11493 0.0
H119 H 0.62687 0.76328 0.10551 0.0
Gd120 Gd 0.04953 0.51975 0.92764 0.0
Gd121 Gd 1.00903 0.44815 0.93306 0.0
C122 C 0.08301 0.48157 0.93742 0.0
C123 C 0.08797 0.57925 0.92542 0.0
C124 C 0.11546 0.60792 0.93055 0.0
C125 C 0.14595 0.61624 0.92668 0.0
C126 C 0.11098 0.62957 0.93775 0.0
C127 C 0.16643 0.66807 0.93626 0.0
C128 C 0.13613 0.65921 0.9406 0.0
C129 C 0.17117 0.64593 0.92955 0.0
C130 C 0.02845 0.48052 0.90663 0.0
C131 C 0.97634 0.49122 0.93032 0.0
C132 C 0.97203 0.38984 0.92821 0.0
C133 C 0.9385 0.36798 0.93048 0.0
C134 C 0.92839 0.33734 0.9346 0.0
C135 C 0.91627 0.37728 0.92826 0.0
C136 C 0.87406 0.32508 0.93365 0.0
C137 C 0.88443 0.35605 0.92976 0.0
C138 C 0.89649 0.31611 0.93622 0.0
C139 C 1.01546 0.47829 0.95595 0.0
O140 O 0.08337 0.50854 0.93759 0.0
O141 O 0.05757 0.45491 0.93431 0.0
O142 O 0.09229 0.55804 0.91967 0.0
O143 O 0.06182 0.56737 0.93205 0.0
O144 O 0.02885 0.5069 0.90697 0.0
O145 O 0.03918 0.47683 0.91716 0.0
O146 O 0.97309 0.46307 0.92889 0.0
O147 O 1.00393 0.51651 0.93159 0.0
O148 O 0.99013 0.39947 0.93859 0.0
O149 O 0.97845 0.41213 0.91969 0.0
O150 O 1.00011 0.44818 0.95458 0.0
O151 O 0.02692 0.49105 0.94504 0.0
H152 H 0.15022 0.60035 0.92095 0.0
H153 H 0.08777 0.6241 0.94075 0.0
H154 H 0.1317 0.67548 0.94596 0.0
H155 H 0.19413 0.65202 0.92596 0.0
H156 H 0.94514 0.32975 0.93646 0.0
H157 H 0.92341 0.40083 0.92511 0.0
H158 H 0.86795 0.36377 0.92752 0.0
H159 H 0.88944 0.29263 0.93946 0.0
Gd160 Gd 0.54216 0.55588 0.92932 0.0
Gd161 Gd 0.61472 0.58681 0.93447 0.0
C162 C 0.58186 0.6287 0.93779 0.0
C163 C 0.48259 0.53375 0.92739 0.0
C164 C 0.4536 0.53452 0.92993 0.0
C165 C 0.43235 0.52686 0.91958 0.0
C166 C 0.44517 0.53936 0.94248 0.0
C167 C 0.39364 0.52658 0.93434 0.0
C168 C 0.41542 0.53563 0.94465 0.0
C169 C 0.40273 0.52289 0.92175 0.0
C170 C 0.58103 0.57297 0.90827 0.0
C171 C 0.57083 0.51103 0.93123 0.0
C172 C 0.67299 0.60824 0.92932 0.0
C173 C 0.69542 0.59759 0.93182 0.0
C174 C 0.68568 0.56855 0.93777 0.0
C175 C 0.72613 0.61527 0.92724 0.0
C176 C 0.73708 0.5745 0.93418 0.0
C177 C 0.74683 0.60388 0.92844 0.0
C178 C 0.70633 0.55708 0.93894 0.0
C179 C 0.58388 0.56272 0.95725 0.0
O180 O 0.55432 0.60268 0.93764 0.0
O181 O 0.60845 0.62906 0.93538 0.0
O182 O 0.50271 0.55367 0.91898 0.0
O183 O 0.49549 0.52647 0.93696 0.0
O184 O 0.55435 0.54723 0.90876 0.0
O185 O 0.58532 0.5878 0.91874 0.0
O186 O 0.59916 0.53589 0.93008 0.0
O187 O 0.54556 0.51336 0.93263 0.0
O188 O 0.66345 0.61733 0.93952 0.0
O189 O 0.65033 0.59046 0.92127 0.0
O190 O 0.61404 0.57685 0.95607 0.0
O191 O 0.57196 0.56222 0.94624 0.0
H192 H 0.43831 0.52289 0.90984 0.0
H193 H 0.46114 0.54515 0.95064 0.0
H194 H 0.40903 0.53861 0.95446 0.0
H195 H 0.38668 0.51641 0.91358 0.0
H196 H 0.66192 0.55449 0.94128 0.0
H197 H 0.73388 0.63755 0.92247 0.0
H198 H 0.7702 0.61771 0.92452 0.0
H199 H 0.69819 0.53456 0.94354 0.0
Gd200 Gd 0.50638 0.01236 0.92754 0.0
Gd201 Gd 0.47512 0.05317 0.93379 0.0
C202 C 0.43403 0.9783 0.93684 0.0
C203 C 0.52868 0.97524 0.92487 0.0
C204 C 0.52871 0.94594 0.9276 0.0
C205 C 0.53628 0.93221 0.91731 0.0
C206 C 0.52459 0.93322 0.94026 0.0
C207 C 0.53782 0.8947 0.9323 0.0
C208 C 0.52891 0.9076 0.94257 0.0
C209 C 0.54084 0.90694 0.91962 0.0
C210 C 0.4885 0.03502 0.90702 0.0
C211 C 0.55082 0.08594 0.92987 0.0
C212 C 0.45293 0.08968 0.9293 0.0
C213 C 0.46291 0.12257 0.93186 0.0
C214 C 0.49069 0.14179 0.93869 0.0
C215 C 0.4462 0.13564 0.92629 0.0
C216 C 0.48546 0.1873 0.93394 0.0
C217 C 0.45731 0.16768 0.92732 0.0
C218 C 0.50186 0.1739 0.93974 0.0
C219 C 0.49994 0.04535 0.95612 0.0
O220 O 0.46026 0.97725 0.93623 0.0
O221 O 0.43318 1.00442 0.9348 0.0
O222 O 0.507 0.97431 0.91719 0.0
O223 O 0.53764 0.99639 0.93412 0.0
O224 O 0.51408 0.0338 0.90712 0.0
O225 O 0.47399 0.02395 0.91754 0.0
O226 O 0.52584 0.08934 0.92957 0.0
O227 O 0.54889 0.0584 0.93056 0.0
O228 O 0.44455 0.07085 0.93946 0.0
O229 O 0.4707 0.08544 0.92102 0.0
O230 O 0.48564 0.0613 0.95536 0.0
O231 O 0.50035 0.03465 0.94494 0.0
H232 H 0.53969 0.94171 0.90748 0.0
H233 H 0.51888 0.94354 0.94837 0.0
H234 H 0.52645 0.89867 0.95245 0.0
H235 H 0.54717 0.89723 0.91147 0.0
H236 H 0.50408 0.13206 0.94293 0.0
H237 H 0.42498 0.1212 0.9208 0.0
H238 H 0.44434 0.1772 0.92253 0.0
H239 H 0.52342 0.18824 0.94502 0.0
Gd240 Gd 0.19184 0.37745 0.45175 0.0
Gd241 Gd 0.11914 0.33688 0.44576 0.0
C242 C 0.15381 0.41156 0.4421 0.0
C243 C 0.25166 0.41446 0.45316 0.0
C244 C 0.28018 0.44245 0.44826 0.0
C245 C 0.28809 0.47271 0.45232 0.0
C246 C 0.30208 0.43853 0.44099 0.0
C247 C 0.34008 0.49405 0.44276 0.0
C248 C 0.3316 0.46398 0.43824 0.0
C249 C 0.31768 0.49824 0.44955 0.0
C250 C 0.1519 0.3569 0.47247 0.0
C251 C 0.16099 0.30331 0.45063 0.0
C252 C 0.06033 0.30131 0.45026 0.0
C253 C 0.03727 0.26839 0.44783 0.0
C254 C 0.04561 0.24904 0.44099 0.0
C255 C 1.00761 0.25544 0.45349 0.0
C256 C 0.9949 0.20365 0.44591 0.0
C257 C 0.98659 0.2234 0.45254 0.0
C258 C 0.02458 0.21693 0.44002 0.0
C259 C 0.15175 0.34332 0.42355 0.0
O260 O 0.18089 0.4121 0.44234 0.0
O261 O 0.1268 0.38586 0.44461 0.0
O262 O 0.23154 0.41824 0.46015 0.0
O263 O 0.23852 0.38961 0.44567 0.0
O264 O 0.17902 0.3588 0.47263 0.0
O265 O 0.14817 0.36688 0.46171 0.0
O266 O 0.13288 0.30054 0.45062 0.0
O267 O 0.18706 0.33048 0.44978 0.0
O268 O 0.07102 0.31975 0.43998 0.0
O269 O 0.08218 0.30564 0.45866 0.0
O270 O 0.12148 0.3276 0.42423 0.0
O271 O 0.16268 0.35439 0.43469 0.0
H272 H 0.27195 0.47654 0.45809 0.0
H273 H 0.29686 0.41549 0.43785 0.0
H274 H 0.34806 0.45997 0.43281 0.0
H275 H 0.32348 0.52102 0.45327 0.0
H276 H 0.06863 0.25867 0.43668 0.0
H277 H 1.00101 0.26999 0.45898 0.0
H278 H 0.96419 0.21396 0.45739 0.0
H279 H 0.03163 0.20251 0.43474 0.0
Gd280 Gd 0.68315 0.83476 0.45163 0.0
Gd281 Gd 0.72442 0.80419 0.44522 0.0
C282 C 0.64961 0.76279 0.44201 0.0
C283 C 0.64574 0.85664 0.45461 0.0
C284 C 0.61661 0.85685 0.45177 0.0
C285 C 0.60388 0.86642 0.46177 0.0
C286 C 0.60293 0.85062 0.43927 0.0
C287 C 0.56532 0.86561 0.4467 0.0
C288 C 0.57728 0.85477 0.43677 0.0
C289 C 0.57859 0.87081 0.45927 0.0
C290 C 0.7061 0.81688 0.47206 0.0
C291 C 0.75656 0.87977 0.4491 0.0
C292 C 0.76128 0.78219 0.44919 0.0
C293 C 0.79453 0.79317 0.44675 0.0
C294 C 0.805 0.77165 0.44591 0.0
C295 C 0.81632 0.82526 0.44615 0.0
C296 C 0.85908 0.81424 0.44494 0.0
C297 C 0.84826 0.8357 0.44532 0.0
C298 C 0.83697 0.78205 0.44495 0.0
C299 C 0.71627 0.82914 0.42297 0.0
O300 O 0.64842 0.78894 0.44264 0.0
O301 O 0.67578 0.76207 0.4441 0.0
O302 O 0.64436 0.83415 0.4619 0.0
O303 O 0.66741 0.86655 0.44556 0.0
O304 O 0.70484 0.84245 0.472 0.0
O305 O 0.69504 0.80244 0.46153 0.0
O306 O 0.76013 0.8549 0.44983 0.0
O307 O 0.72887 0.87741 0.44816 0.0
O308 O 0.74293 0.77462 0.43891 0.0
O309 O 0.75587 0.79833 0.45791 0.0
O310 O 0.73256 0.8152 0.42366 0.0
O311 O 0.70553 0.82924 0.43417 0.0
H312 H 0.61413 0.87141 0.47148 0.0
H313 H 0.6125 0.84332 0.43139 0.0
H314 H 0.56752 0.85059 0.42699 0.0
H315 H 0.56961 0.87867 0.46717 0.0
H316 H 0.78852 0.74679 0.4463 0.0
H317 H 0.80872 0.84229 0.44675 0.0
H318 H 0.86447 0.86061 0.44548 0.0
H319 H 0.84434 0.76483 0.44439 0.0
Gd320 Gd 0.22697 0.87004 0.45233 0.0
Gd321 Gd 0.25755 0.94198 0.44496 0.0
C322 C 0.29878 0.90852 0.44196 0.0
C323 C 0.20533 0.81081 0.45551 0.0
C324 C 0.20561 0.78166 0.45277 0.0
C325 C 0.19663 0.75957 0.46286 0.0
C326 C 0.21169 0.77413 0.44027 0.0
C327 C 0.19766 0.72185 0.4479 0.0
C328 C 0.20794 0.74446 0.43787 0.0
C329 C 0.19264 0.73001 0.46047 0.0
C330 C 0.24625 0.91223 0.47219 0.0
C331 C 0.18229 0.89898 0.45038 0.0
C332 C 0.27872 1.00087 0.44835 0.0
C333 C 0.26565 0.02167 0.44648 0.0
C334 C 0.28538 0.05343 0.44367 0.0
C335 C 0.23354 1.01029 0.44822 0.0
C336 C 0.24135 0.06252 0.44523 0.0
C337 C 0.22155 0.03052 0.44767 0.0
C338 C 0.27331 0.07371 0.44299 0.0
C339 C 0.23073 0.90678 0.4234 0.0
O340 O 0.27279 0.88111 0.44316 0.0
O341 O 0.29957 0.93557 0.44361 0.0
O342 O 0.22752 0.83206 0.46286 0.0
O343 O 0.19547 0.82241 0.44634 0.0
O344 O 0.22095 0.88519 0.47269 0.0
O345 O 0.25992 0.915 0.4615 0.0
O346 O 0.2073 0.92733 0.45002 0.0
O347 O 0.18398 0.8732 0.44996 0.0
O348 O 0.28465 0.98973 0.43776 0.0
O349 O 0.26546 0.97996 0.45764 0.0
O350 O 0.24489 0.93706 0.42347 0.0
O351 O 0.23162 0.89718 0.43475 0.0
H352 H 0.19175 0.76487 0.47258 0.0
H353 H 0.21854 0.79082 0.43231 0.0
H354 H 0.21195 0.73881 0.42808 0.0
H355 H 0.18522 0.71334 0.46845 0.0
H356 H 0.3102 0.06267 0.44231 0.0
H357 H 0.21778 0.98586 0.45034 0.0
H358 H 0.19679 0.02117 0.44926 0.0
H359 H 0.28914 0.0983 0.44116 0.0
Gd360 Gd 0.71599 0.85477 0.26091 0.0
Gd361 Gd 0.67612 0.78244 0.26737 0.0
C362 C 0.75114 0.81732 0.2701 0.0
C363 C 0.75257 0.91433 0.2581 0.0
C364 C 0.78205 0.94345 0.26085 0.0
C365 C 0.79549 0.96533 0.2507 0.0
C366 C 0.79536 0.95122 0.27343 0.0
C367 C 0.8339 1.00332 0.26573 0.0
C368 C 0.82126 0.98092 0.27582 0.0
C369 C 0.82106 0.99491 0.2531 0.0
C370 C 0.69326 0.81399 0.24054 0.0
C371 C 0.64238 0.82461 0.26424 0.0
C372 C 0.64031 0.72359 0.26296 0.0
C373 C 0.60752 0.70017 0.26546 0.0
C374 C 0.58756 0.70835 0.27189 0.0
C375 C 0.59531 0.67012 0.26026 0.0
C376 C 0.54304 0.6567 0.26746 0.0
C377 C 0.5634 0.64857 0.26125 0.0
C378 C 0.55558 0.68678 0.2729 0.0
C379 C 0.68429 0.81545 0.28957 0.0
O380 O 0.7518 0.84442 0.26939 0.0
O381 O 0.72516 0.79009 0.26826 0.0
O382 O 0.75337 0.89368 0.25034 0.0
O383 O 0.73167 0.90196 0.26744 0.0
O384 O 0.69393 0.84055 0.24062 0.0
O385 O 0.70475 0.81088 0.25101 0.0
O386 O 0.63942 0.79644 0.2634 0.0
O387 O 0.66983 0.85043 0.26479 0.0
O388 O 0.65898 0.73429 0.27315 0.0
O389 O 0.64427 0.74548 0.25463 0.0
O390 O 0.66843 0.78516 0.28903 0.0
O391 O 0.69453 0.82621 0.27831 0.0
H392 H 0.78556 0.95985 0.24094 0.0
H393 H 0.7853 0.93472 0.28143 0.0
H394 H 0.83064 0.98676 0.28566 0.0
H395 H 0.83056 0.01141 0.24507 0.0
H396 H 0.59661 0.73162 0.27585 0.0
H397 H 0.61032 0.66361 0.2551 0.0
H398 H 0.55455 0.62586 0.25675 0.0
H399 H 0.54067 0.69372 0.27785 0.0
Gd400 Gd 0.20903 0.8889 0.26196 0.0
Gd401 Gd 0.28154 0.92021 0.26739 0.0
C402 C 0.24795 0.9609 0.2715 0.0
C403 C 0.14938 0.86722 0.2605 0.0
C404 C 0.121 0.86695 0.2654 0.0
C405 C 0.11304 0.88908 0.26105 0.0
C406 C 0.0992 0.84151 0.27293 0.0
C407 C 0.06117 0.8589 0.27077 0.0
C408 C 0.06971 0.83758 0.27561 0.0
C409 C 0.0835 0.88516 0.26375 0.0
C410 C 0.24805 0.90695 0.24094 0.0
C411 C 0.2384 0.84457 0.26364 0.0
C412 C 0.33998 0.94207 0.26248 0.0
C413 C 0.36218 0.93118 0.26508 0.0
C414 C 0.3522 0.90232 0.27126 0.0
C415 C 0.39285 0.94836 0.26042 0.0
C416 C 0.40328 0.90748 0.26772 0.0
C417 C 0.41327 0.93667 0.26175 0.0
C418 C 0.37256 0.89055 0.27256 0.0
C419 C 0.25026 0.89537 0.29001 0.0
O420 O 0.22082 0.93444 0.27146 0.0
O421 O 0.27472 0.96203 0.26868 0.0
O422 O 0.16989 0.8913 0.25369 0.0
O423 O 0.16202 0.85473 0.26786 0.0
O424 O 0.22101 0.88164 0.24115 0.0
O425 O 0.25231 0.92127 0.25155 0.0
O426 O 0.26672 0.86958 0.26301 0.0
O427 O 0.21283 0.84645 0.26474 0.0
O428 O 0.33009 0.95085 0.27267 0.0
O429 O 0.3176 0.92459 0.25427 0.0
O430 O 0.28045 0.90971 0.28894 0.0
O431 O 0.2385 0.89499 0.27898 0.0
H432 H 0.12908 0.90873 0.25508 0.0
H433 H 0.10444 0.82384 0.2763 0.0
H434 H 0.05331 0.81737 0.28122 0.0
H435 H 0.07765 0.90191 0.25977 0.0
H436 H 0.32847 0.88865 0.27485 0.0
H437 H 0.40078 0.97048 0.25548 0.0
H438 H 0.43663 0.95011 0.25777 0.0
H439 H 0.36424 0.86818 0.27733 0.0
Gd440 Gd 0.17229 0.34359 0.2613 0.0
Gd441 Gd 0.14378 0.38646 0.26747 0.0
C442 C 0.10134 0.31239 0.27163 0.0
C443 C 0.19163 0.30386 0.25894 0.0
C444 C 0.19309 0.27679 0.26441 0.0
C445 C 0.17128 0.24614 0.26059 0.0
C446 C 0.21912 0.28175 0.27186 0.0
C447 C 0.2028 0.22643 0.27069 0.0
C448 C 0.22387 0.25688 0.27499 0.0
C449 C 0.176 0.22122 0.26375 0.0
C450 C 0.15442 0.36601 0.24062 0.0
C451 C 0.21895 0.4167 0.26369 0.0
C452 C 0.12341 0.42455 0.26341 0.0
C453 C 0.13537 0.45802 0.2659 0.0
C454 C 0.11512 0.46808 0.27039 0.0
C455 C 0.16675 0.48027 0.26338 0.0
C456 C 0.157 0.52242 0.26906 0.0
C457 C 0.1774 0.5121 0.26488 0.0
C458 C 0.12583 0.49996 0.27201 0.0
C459 C 0.16806 0.37802 0.28987 0.0
O460 O 0.12742 0.31102 0.27164 0.0
O461 O 0.10102 0.33839 0.26867 0.0
O462 O 0.16526 0.29935 0.25393 0.0
O463 O 0.2076 0.33087 0.26484 0.0
O464 O 0.1792 0.3634 0.24054 0.0
O465 O 0.14052 0.35604 0.25132 0.0
O466 O 0.1946 0.421 0.26264 0.0
O467 O 0.2157 0.38869 0.26497 0.0
O468 O 0.11507 0.40604 0.27367 0.0
O469 O 0.13884 0.41827 0.25465 0.0
O470 O 0.15483 0.39493 0.289 0.0
O471 O 0.16793 0.36679 0.27875 0.0
H472 H 0.15124 0.24153 0.25467 0.0
H473 H 0.23661 0.30508 0.27484 0.0
H474 H 0.24451 0.26165 0.28051 0.0
H475 H 0.15944 0.19812 0.26018 0.0
H476 H 0.09089 0.4513 0.27247 0.0
H477 H 0.18297 0.47314 0.25996 0.0
H478 H 0.20141 0.52861 0.26236 0.0
H479 H 0.1096 0.50698 0.27551 0.0
Gd480 Gd 0.85696 0.70997 0.78605 0.0
Gd481 Gd 0.78513 0.66843 0.77924 0.0
C482 C 0.81855 0.74287 0.77558 0.0
C483 C 0.91632 0.74845 0.78847 0.0
C484 C 0.94483 0.7764 0.78351 0.0
C485 C 0.95285 0.80659 0.7877 0.0
C486 C 0.96663 0.77258 0.77609 0.0
C487 C 1.00467 0.82807 0.77798 0.0
C488 C 0.99611 0.79808 0.77333 0.0
C489 C 0.98239 0.83215 0.78492 0.0
C490 C 0.81582 0.6876 0.80635 0.0
C491 C 0.82844 0.63639 0.78377 0.0
C492 C 0.7263 0.63121 0.78303 0.0
C493 C 0.70477 0.59812 0.78016 0.0
C494 C 0.71603 0.57955 0.77476 0.0
C495 C 0.67335 0.58431 0.78382 0.0
C496 C 0.66471 0.53324 0.77718 0.0
C497 C 0.65342 0.55214 0.7823 0.0
C498 C 0.69618 0.54737 0.77331 0.0
C499 C 0.81909 0.67676 0.75729 0.0
O500 O 0.84577 0.74376 0.7761 0.0
O501 O 0.79164 0.71697 0.77799 0.0
O502 O 0.89498 0.7522 0.79447 0.0
O503 O 0.90463 0.72279 0.7815 0.0
O504 O 0.84314 0.69002 0.8067 0.0
O505 O 0.81245 0.69797 0.79563 0.0
O506 O 0.79995 0.63272 0.78389 0.0
O507 O 0.85393 0.66407 0.78317 0.0
O508 O 0.73717 0.65022 0.77294 0.0
O509 O 0.74778 0.63613 0.79174 0.0
O510 O 0.78883 0.66038 0.7577 0.0
O511 O 0.82942 0.68744 0.76854 0.0
H512 H 0.93683 0.81033 0.7936 0.0
H513 H 0.96139 0.74961 0.77285 0.0
H514 H 1.0125 0.79416 0.76779 0.0
H515 H 0.98826 0.85485 0.78876 0.0
H516 H 0.74032 0.58987 0.77193 0.0
H517 H 0.6644 0.59827 0.78814 0.0
H518 H 0.62941 0.54194 0.78551 0.0
H519 H 0.70549 0.53353 0.76919 0.0
Gd520 Gd 0.35184 0.17062 0.78351 0.0
Gd521 Gd 0.39012 0.13596 0.77922 0.0
C522 C 0.31505 0.09644 0.77662 0.0
C523 C 0.31622 0.19511 0.7846 0.0
C524 C 0.28574 0.19316 0.78232 0.0
C525 C 0.2722 0.20073 0.7927 0.0
C526 C 0.27166 0.18733 0.76989 0.0
C527 C 0.23215 0.1988 0.7782 0.0
C528 C 0.24495 0.18996 0.76787 0.0
C529 C 0.24577 0.20352 0.79069 0.0
C530 C 0.37272 0.15384 0.80497 0.0
C531 C 0.42544 0.21233 0.78048 0.0
C532 C 0.42544 0.11324 0.78527 0.0
C533 C 0.45818 0.12221 0.78292 0.0
C534 C 0.47778 0.14892 0.77553 0.0
C535 C 0.47075 0.10576 0.78917 0.0
C536 C 0.52266 0.1432 0.78104 0.0
C537 C 0.50267 0.1161 0.78823 0.0
C538 C 0.50975 0.15931 0.77458 0.0
C539 C 0.38424 0.1585 0.75588 0.0
O540 O 0.31483 0.12315 0.77663 0.0
O541 O 0.34082 0.09499 0.77873 0.0
O542 O 0.31821 0.17831 0.79407 0.0
O543 O 0.33415 0.19852 0.77455 0.0
O544 O 0.37371 0.18049 0.80394 0.0
O545 O 0.36111 0.13821 0.79476 0.0
O546 O 0.42752 0.18685 0.78236 0.0
O547 O 0.39842 0.21132 0.77921 0.0
O548 O 0.40659 0.10357 0.77512 0.0
O549 O 0.42172 0.1326 0.79277 0.0
O550 O 0.39852 0.14273 0.75753 0.0
O551 O 0.37355 0.16108 0.76676 0.0
H552 H 0.28271 0.2055 0.80236 0.0
H553 H 0.28172 0.18163 0.76167 0.0
H554 H 0.23505 0.18624 0.75813 0.0
H555 H 0.23621 0.20981 0.79891 0.0
H556 H 0.46846 0.1621 0.77075 0.0
H557 H 0.45602 0.08539 0.79508 0.0
H558 H 0.51183 0.1034 0.7935 0.0
H559 H 0.52437 0.18005 0.76886 0.0
Gd560 Gd 0.89267 0.20068 0.78573 0.0
Gd561 Gd 0.92208 0.27205 0.77885 0.0
C562 C 0.96328 0.2391 0.77479 0.0
C563 C 0.87285 0.14158 0.7886 0.0
C564 C 0.87142 0.11297 0.78328 0.0
C565 C 0.89323 0.1042 0.78721 0.0
C566 C 0.84553 0.09185 0.77578 0.0
C567 C 0.86207 0.05302 0.77706 0.0
C568 C 0.84097 0.06231 0.77268 0.0
C569 C 0.88868 0.07463 0.78409 0.0
C570 C 0.91163 0.24211 0.80596 0.0
C571 C 0.84681 0.228 0.78315 0.0
C572 C 0.94352 0.33085 0.7825 0.0
C573 C 0.93186 0.35266 0.78014 0.0
C574 C 0.9526 0.38349 0.77634 0.0
C575 C 0.90028 0.34331 0.78222 0.0
C576 C 0.91073 0.39597 0.77749 0.0
C577 C 0.88986 0.36475 0.78097 0.0
C578 C 0.94214 0.40493 0.77497 0.0
C579 C 0.89651 0.23817 0.75687 0.0
O580 O 0.93693 0.21189 0.77516 0.0
O581 O 0.96431 0.26586 0.77752 0.0
O582 O 0.89922 0.1635 0.79359 0.0
O583 O 0.85704 0.1526 0.78252 0.0
O584 O 0.88653 0.21495 0.80632 0.0
O585 O 0.92523 0.24525 0.79524 0.0
O586 O 0.87146 0.25657 0.78384 0.0
O587 O 0.84957 0.20291 0.78212 0.0
O588 O 0.95072 0.32001 0.77215 0.0
O589 O 0.92853 0.30957 0.7915 0.0
O590 O 0.9101 0.26839 0.75735 0.0
O591 O 0.89698 0.2277 0.7681 0.0
H592 H 0.91315 0.11967 0.79318 0.0
H593 H 0.82805 0.09763 0.77271 0.0
H594 H 0.82047 0.04644 0.76709 0.0
H595 H 0.90527 0.06818 0.78772 0.0
H596 H 0.977 0.39112 0.77462 0.0
H597 H 0.88374 0.31958 0.78513 0.0
H598 H 0.86563 0.35701 0.78314 0.0
H599 H 0.95876 0.42859 0.77202 0.0
Gd600 Gd 0.38346 0.18639 0.59507 0.0
Gd601 Gd 0.34307 0.1139 0.59975 0.0
C602 C 0.41777 0.14771 0.6034 0.0
C603 C 0.42029 0.24617 0.59334 0.0
C604 C 0.45009 0.27515 0.59593 0.0
C605 C 0.46425 0.2961 0.58552 0.0
C606 C 0.46283 0.28395 0.60857 0.0
C607 C 0.50211 0.3352 0.60036 0.0
C608 C 0.48882 0.31372 0.61074 0.0
C609 C 0.4899 0.32576 0.58769 0.0
C610 C 0.3628 0.14812 0.57382 0.0
C611 C 0.3099 0.1567 0.59681 0.0
C612 C 0.30723 0.05575 0.59407 0.0
C613 C 0.27423 0.03262 0.59629 0.0
C614 C 0.25471 0.04069 0.60315 0.0
C615 C 0.26148 1.00304 0.59056 0.0
C616 C 0.20957 0.98987 0.59818 0.0
C617 C 0.22947 0.98184 0.5915 0.0
C618 C 0.22264 0.01949 0.6041 0.0
C619 C 0.34861 0.14311 0.62282 0.0
O620 O 0.41874 0.17498 0.60335 0.0
O621 O 0.39184 0.12096 0.60083 0.0
O622 O 0.42004 0.22642 0.58475 0.0
O623 O 0.40036 0.2328 0.60295 0.0
O624 O 0.36251 0.17417 0.57447 0.0
O625 O 0.37359 0.14403 0.58426 0.0
O626 O 0.30695 0.12862 0.5955 0.0
O627 O 0.33725 0.18216 0.59837 0.0
O628 O 0.32551 0.06509 0.60441 0.0
O629 O 0.31191 0.07865 0.5862 0.0
O630 O 0.33344 0.11302 0.62129 0.0
O631 O 0.36017 0.15606 0.61195 0.0
H632 H 0.45475 0.2899 0.5757 0.0
H633 H 0.45223 0.26825 0.61679 0.0
H634 H 0.49772 0.32037 0.62062 0.0
H635 H 0.4999 0.34155 0.57946 0.0
H636 H 0.26419 0.06361 0.60754 0.0
H637 H 0.27618 0.99662 0.58508 0.0
H638 H 0.22019 0.95948 0.58664 0.0
H639 H 0.20808 0.02632 0.60942 0.0
Gd640 Gd 0.87645 0.22127 0.59489 0.0
Gd641 Gd 0.94869 0.2528 0.60069 0.0
C642 C 0.91476 0.29364 0.60413 0.0
C643 C 0.81689 0.19865 0.59243 0.0
C644 C 0.78769 0.19895 0.59502 0.0
C645 C 0.76626 0.19087 0.58471 0.0
C646 C 0.77935 0.20397 0.60755 0.0
C647 C 0.7276 0.19063 0.5995 0.0
C648 C 0.74954 0.20004 0.60976 0.0
C649 C 0.73658 0.18671 0.58691 0.0
C650 C 0.9163 0.23948 0.57416 0.0
C651 C 0.90581 0.17708 0.59698 0.0
C652 C 1.00725 0.27518 0.59585 0.0
C653 C 0.03008 0.26497 0.59817 0.0
C654 C 0.02168 0.23733 0.6051 0.0
C655 C 0.05953 0.28129 0.59229 0.0
C656 C 0.0719 0.24191 0.59985 0.0
C657 C 0.08027 0.26991 0.59312 0.0
C658 C 0.04244 0.22591 0.60595 0.0
C659 C 0.91698 0.22777 0.62318 0.0
O660 O 0.8875 0.26737 0.60355 0.0
O661 O 0.94174 0.29461 0.60196 0.0
O662 O 0.83736 0.21958 0.58443 0.0
O663 O 0.82942 0.19059 0.60189 0.0
O664 O 0.88978 0.21356 0.57441 0.0
O665 O 0.91994 0.25396 0.58469 0.0
O666 O 0.93406 0.20218 0.59617 0.0
O667 O 0.88027 0.17899 0.59813 0.0
O668 O 0.99713 0.28334 0.60616 0.0
O669 O 0.985 0.25767 0.58761 0.0
O670 O 0.94721 0.24217 0.62223 0.0
O671 O 0.90541 0.22734 0.6121 0.0
H672 H 0.77217 0.18679 0.57497 0.0
H673 H 0.79548 0.21009 0.61568 0.0
H674 H 0.74325 0.20319 0.61956 0.0
H675 H 0.72042 0.17997 0.57877 0.0
H676 H 0.99881 0.22424 0.60957 0.0
H677 H 0.06616 0.30238 0.58672 0.0
H678 H 0.10248 0.28257 0.5881 0.0
H679 H 0.03535 0.20448 0.61132 0.0
Gd680 Gd 0.83999 0.67742 0.59551 0.0
Gd681 Gd 0.81007 0.71969 0.60067 0.0
C682 C 0.76835 0.64547 0.60503 0.0
C683 C 0.86074 0.63871 0.59393 0.0
C684 C 0.86169 0.61115 0.59911 0.0
C685 C 0.83971 0.58073 0.59508 0.0
C686 C 0.88761 0.61555 0.6065 0.0
C687 C 0.87092 0.56022 0.60481 0.0
C688 C 0.89212 0.59041 0.60934 0.0
C689 C 0.8442 0.55553 0.59795 0.0
C690 C 0.82231 0.69858 0.57434 0.0
C691 C 0.88552 0.75093 0.59718 0.0
C692 C 0.78828 0.75622 0.5955 0.0
C693 C 0.79836 0.7892 0.59784 0.0
C694 C 0.82555 0.80827 0.60505 0.0
C695 C 0.78235 0.80244 0.59177 0.0
C696 C 0.82112 0.85397 0.59972 0.0
C697 C 0.79358 0.83451 0.59269 0.0
C698 C 0.83682 0.8404 0.606 0.0
C699 C 0.83396 0.71264 0.62347 0.0
O700 O 0.79459 0.64442 0.60538 0.0
O701 O 0.76781 0.67124 0.60181 0.0
O702 O 0.8356 0.63453 0.58781 0.0
O703 O 0.87468 0.66475 0.60065 0.0
O704 O 0.84746 0.69658 0.5746 0.0
O705 O 0.8081 0.68881 0.58498 0.0
O706 O 0.86087 0.75471 0.59601 0.0
O707 O 0.88282 0.72321 0.59874 0.0
O708 O 0.77948 0.73771 0.60577 0.0
O709 O 0.80624 0.75163 0.58747 0.0
O710 O 0.82032 0.72912 0.62223 0.0
O711 O 0.83436 0.70112 0.61249 0.0
H712 H 0.81972 0.57654 0.58921 0.0
H713 H 0.9052 0.63871 0.60962 0.0
H714 H 0.91269 0.59479 0.61481 0.0
H715 H 0.82753 0.53264 0.59421 0.0
H716 H 0.83839 0.79839 0.60968 0.0
H717 H 0.76161 0.7881 0.58599 0.0
H718 H 0.78119 0.84417 0.58754 0.0
H719 H 0.85789 0.85462 0.61159 0.0
C720 C 0.47534 0.9127 0.11211 0.0
C721 C 0.49904 0.94233 0.11621 0.0
C722 C 0.48136 0.88789 0.11098 0.0
C723 C 0.54831 0.87458 0.10697 0.0
H724 H 0.49028 0.78949 0.11762 0.0
C725 C 0.58685 0.78386 0.11467 0.0
C726 C 0.56769 0.75356 0.10973 0.0
C727 C 0.57669 0.80561 0.11467 0.0
C728 C 0.50655 0.8131 0.11446 0.0
H729 H 0.54692 0.96858 0.12313 0.0
H730 H 0.55704 0.92561 0.12146 0.0
H731 H 0.47507 0.82951 0.11945 0.0
H732 H 0.52272 0.72264 0.10077 0.0
H733 H 0.50482 0.76062 0.10101 0.0
H734 H 0.58 0.85849 0.10224 0.0
C735 C 0.53417 0.92158 0.11868 0.0
C736 C 0.49784 0.83599 0.1155 0.0
C737 C 0.52827 0.94623 0.11972 0.0
C738 C 0.53799 0.7456 0.10481 0.0
C739 C 0.5277 0.76734 0.10492 0.0
C740 C 0.55703 0.85185 0.10601 0.0
C741 C 0.51113 0.89232 0.11399 0.0
C742 C 0.5189 0.86715 0.112 0.0
C743 C 0.547 0.79761 0.10982 0.0
C744 C 0.5365 0.82098 0.10995 0.0
H745 H 0.45259 0.90898 0.10932 0.0
H746 H 0.46309 0.86561 0.10735 0.0
H747 H 0.5648 0.89815 0.10384 0.0
H748 H 0.60953 0.79068 0.11883 0.0
H749 H 0.59191 0.82859 0.11871 0.0
C750 C 0.31778 0.81136 0.11278 0.0
C751 C 0.3076 0.83232 0.10921 0.0
C752 C 0.29718 0.77907 0.11246 0.0
C753 C 0.22176 0.71915 0.0983 0.0
H754 H 0.21886 0.66839 0.12787 0.0
C755 C 0.114 0.60135 0.10938 0.0
C756 C 0.11757 0.576 0.11326 0.0
C757 C 0.13979 0.63122 0.10818 0.0
C758 C 0.21974 0.68214 0.11944 0.0
H759 H 0.26797 0.8357 0.10223 0.0
H760 H 0.23201 0.77957 0.10184 0.0
H761 H 0.25922 0.72357 0.12695 0.0
H762 H 0.15136 0.56245 0.11902 0.0
H763 H 0.19681 0.61522 0.11699 0.0
H764 H 0.1819 0.67806 0.09094 0.0
C765 C 0.25597 0.78801 0.10479 0.0
C766 C 0.24283 0.71376 0.11891 0.0
C767 C 0.27649 0.82023 0.10515 0.0
C768 C 0.14778 0.58142 0.116 0.0
C769 C 0.17377 0.61162 0.11488 0.0
C770 C 0.19874 0.68768 0.09883 0.0
C771 C 0.266 0.76702 0.1085 0.0
C772 C 0.24362 0.73279 0.10848 0.0
C773 C 0.16998 0.63677 0.11085 0.0
C774 C 0.19698 0.66899 0.10956 0.0
H775 H 0.34151 0.81992 0.11608 0.0
H776 H 0.30569 0.76354 0.1153 0.0
H777 H 0.22215 0.73295 0.08997 0.0
H778 H 0.09118 0.59823 0.10717 0.0
H779 H 0.13598 0.65015 0.10529 0.0
C780 C 0.23631 0.47044 0.1167 0.0
C781 C 0.22493 0.48935 0.11167 0.0
C782 C 0.26822 0.48063 0.11648 0.0
C783 C 0.34568 0.55085 0.11558 0.0
H784 H 0.37237 0.49242 0.10528 0.0
C785 C 0.47647 0.58214 0.1129 0.0
C786 C 0.48248 0.55866 0.11727 0.0
C787 C 0.44562 0.57607 0.1118 0.0
C788 C 0.36532 0.50897 0.10831 0.0
H789 H 0.23851 0.5338 0.10228 0.0
H790 H 0.2944 0.55177 0.10217 0.0
H791 H 0.3174 0.47698 0.10387 0.0
H792 H 0.46101 0.51117 0.12468 0.0
H793 H 0.40787 0.50096 0.12302 0.0
H794 H 0.39372 0.58263 0.1203 0.0
C795 C 0.27844 0.52909 0.10632 0.0
C796 C 0.33381 0.50011 0.10746 0.0
C797 C 0.24642 0.51877 0.10641 0.0
C798 C 0.45724 0.52963 0.12106 0.0
C799 C 0.42667 0.52368 0.12003 0.0
C800 C 0.37734 0.55971 0.11651 0.0
C801 C 0.28965 0.51008 0.11133 0.0
C802 C 0.32354 0.52071 0.1113 0.0
C803 C 0.42036 0.54647 0.11508 0.0
C804 C 0.38739 0.53858 0.11313 0.0
H805 H 0.22065 0.44799 0.12109 0.0
H806 H 0.27621 0.46565 0.12061 0.0
H807 H 0.33838 0.56717 0.11866 0.0
H808 H 0.49545 0.60473 0.1099 0.0
H809 H 0.44152 0.59414 0.10797 0.0
C810 C 0.9525 0.52468 0.93401 0.0
C811 C 0.9485 0.49512 0.93102 0.0
C812 C 0.92689 0.52904 0.93513 0.0
C813 C 0.84581 0.49849 0.92515 0.0
H814 H 0.84655 0.55102 0.95349 0.0
C815 C 0.74836 0.53037 0.93203 0.0
C816 C 0.75878 0.5619 0.93493 0.0
C817 C 0.76908 0.51884 0.93233 0.0
C818 C 0.84606 0.53646 0.94548 0.0
H819 H 0.91411 0.44697 0.92672 0.0
H820 H 0.86897 0.45478 0.9286 0.0
H821 H 0.8867 0.53629 0.95254 0.0
H822 H 0.79906 0.60583 0.94066 0.0
H823 H 0.83522 0.58594 0.94099 0.0
H824 H 0.80552 0.49935 0.91792 0.0
C825 C 0.89221 0.47449 0.93008 0.0
C826 C 0.86902 0.52795 0.94495 0.0
C827 C 0.91803 0.47002 0.92903 0.0
C828 C 0.79031 0.58151 0.93827 0.0
C829 C 0.81097 0.56999 0.9386 0.0
C830 C 0.82278 0.50708 0.92567 0.0
C831 C 0.89644 0.50404 0.93328 0.0
C832 C 0.86962 0.50951 0.93462 0.0
C833 C 0.80066 0.53855 0.9356 0.0
C834 C 0.8231 0.52678 0.93568 0.0
H835 H 0.97552 0.54467 0.93559 0.0
H836 H 0.93101 0.55222 0.93735 0.0
H837 H 0.84578 0.4844 0.91704 0.0
H838 H 0.72428 0.5147 0.92929 0.0
H839 H 0.76035 0.49447 0.93005 0.0
C840 C 0.47759 0.23355 0.93584 0.0
C841 C 0.49796 0.22167 0.93435 0.0
C842 C 0.4888 0.26563 0.93519 0.0
C843 C 0.55882 0.34333 0.93807 0.0
H844 H 0.50964 0.36845 0.91712 0.0
C845 C 0.59173 0.47367 0.92978 0.0
C846 C 0.56645 0.47906 0.93101 0.0
C847 C 0.58655 0.44301 0.92957 0.0
C848 C 0.52359 0.36186 0.92307 0.0
H849 H 0.5464 0.23454 0.93133 0.0
H850 H 0.56601 0.29078 0.93038 0.0
H851 H 0.49441 0.31353 0.91845 0.0
H852 H 0.51599 0.45622 0.9332 0.0
H853 H 0.50729 0.40369 0.93295 0.0
H854 H 0.58762 0.39188 0.94291 0.0
C855 C 0.54134 0.27508 0.93206 0.0
C856 C 0.51482 0.33037 0.92384 0.0
C857 C 0.53007 0.24286 0.93265 0.0
C858 C 0.53611 0.4532 0.93213 0.0
C859 C 0.53101 0.42288 0.93189 0.0
C860 C 0.56757 0.37502 0.93735 0.0
C861 C 0.52069 0.28674 0.93308 0.0
C862 C 0.53187 0.32062 0.93158 0.0
C863 C 0.55602 0.41729 0.93049 0.0
C864 C 0.54955 0.3845 0.93009 0.0
H865 H 0.45286 0.21801 0.93746 0.0
H866 H 0.4724 0.27395 0.93629 0.0
H867 H 0.57244 0.33649 0.94411 0.0
H868 H 0.6154 0.49305 0.92895 0.0
H869 H 0.60631 0.43943 0.92847 0.0
C870 C 0.60812 0.10981 0.9266 0.0
C871 C 0.5826 0.11366 0.92975 0.0
C872 C 0.63857 0.13462 0.92765 0.0
C873 C 0.68757 0.22012 0.92972 0.0
H874 H 0.74697 0.19878 0.94437 0.0
C875 C 0.81871 0.31095 0.93905 0.0
C876 C 0.84001 0.30202 0.93452 0.0
C877 C 0.78662 0.28946 0.93935 0.0
C878 C 0.73071 0.2051 0.94022 0.0
H879 H 0.56903 0.14709 0.93598 0.0
H880 H 0.62283 0.19087 0.93792 0.0
H881 H 0.69197 0.1592 0.94313 0.0
H882 H 0.84391 0.2634 0.9266 0.0
H883 H 0.78825 0.22594 0.92743 0.0
H884 H 0.72672 0.26617 0.92679 0.0
C885 C 0.61899 0.16843 0.9346 0.0
C886 C 0.69919 0.18242 0.93948 0.0
C887 C 0.58824 0.14341 0.93349 0.0
C888 C 0.82839 0.27101 0.93043 0.0
C889 C 0.79643 0.24952 0.93084 0.0
C890 C 0.71925 0.24297 0.93053 0.0
C891 C 0.64449 0.16403 0.93197 0.0
C892 C 0.67734 0.18939 0.93392 0.0
C893 C 0.77517 0.2585 0.93527 0.0
C894 C 0.74121 0.23543 0.93551 0.0
H895 H 0.60467 0.08738 0.92346 0.0
H896 H 0.65759 0.13064 0.92516 0.0
H897 H 0.67134 0.2262 0.92536 0.0
H898 H 0.82681 0.3345 0.94246 0.0
H899 H 0.77081 0.29694 0.94294 0.0
C900 C 0.20924 0.08246 0.456 0.0
C901 C 0.22886 0.08427 0.44567 0.0
C902 C 0.19817 0.10345 0.45674 0.0
C903 C 0.18317 0.15734 0.4374 0.0
H904 H 0.19381 0.20014 0.47045 0.0
C905 C 0.14029 0.2461 0.44659 0.0
C906 C 0.16392 0.27501 0.45136 0.0
C907 C 0.14481 0.22026 0.4463 0.0
C908 C 0.19051 0.18822 0.46119 0.0
H909 H 0.25171 0.10906 0.42787 0.0
H910 H 0.23211 0.14575 0.42912 0.0
H911 H 0.20844 0.15984 0.46871 0.0
H912 H 0.21017 0.29925 0.46003 0.0
H913 H 0.21765 0.25419 0.45979 0.0
H914 H 0.16561 0.18614 0.42986 0.0
C915 C 0.22535 0.12802 0.43663 0.0
C916 C 0.19874 0.16507 0.4602 0.0
C917 C 0.23677 0.10724 0.43598 0.0
C918 C 0.19158 0.27732 0.45624 0.0
C919 C 0.19582 0.25148 0.45618 0.0
C920 C 0.1745 0.18022 0.43844 0.0
C921 C 0.20618 0.12652 0.4471 0.0
C922 C 0.1956 0.14972 0.44825 0.0
C923 C 0.17271 0.22281 0.45105 0.0
C924 C 0.1786 0.19624 0.45029 0.0
H925 H 0.20296 0.06518 0.46368 0.0
H926 H 0.18333 0.10166 0.46489 0.0
H927 H 0.18029 0.1457 0.4281 0.0
H928 H 0.1188 0.2437 0.44271 0.0
H929 H 0.12658 0.19835 0.44235 0.0
C930 C 0.98386 0.14809 0.44725 0.0
C931 C 0.97296 0.1693 0.44557 0.0
C932 C 0.96287 0.11588 0.44786 0.0
C933 C 0.88109 0.06061 0.45616 0.0
H934 H 0.8923 0.99908 0.43713 0.0
C935 C 0.77957 0.93756 0.44807 0.0
C936 C 0.78415 0.91178 0.44924 0.0
C937 C 0.80476 0.96793 0.44823 0.0
C938 C 0.88913 0.01595 0.44267 0.0
H939 H 0.9315 0.173 0.44255 0.0
H940 H 0.89503 0.11706 0.44376 0.0
H941 H 0.93245 0.05448 0.43587 0.0
H942 H 0.81925 0.89799 0.45132 0.0
H943 H 0.8637 0.95166 0.45166 0.0
H944 H 0.8379 0.02251 0.46292 0.0
C945 C 0.91977 0.12536 0.44483 0.0
C946 C 0.91204 0.04764 0.44192 0.0
C947 C 0.94068 0.15744 0.44415 0.0
C948 C 0.81486 0.91728 0.45044 0.0
C949 C 0.84031 0.94798 0.45058 0.0
C950 C 0.85839 0.0291 0.45696 0.0
C951 C 0.93055 0.10424 0.44689 0.0
C952 C 0.90784 0.07035 0.44841 0.0
C953 C 0.83541 0.97363 0.44961 0.0
C954 C 0.86169 1.00646 0.44996 0.0
H955 H 1.00854 0.1564 0.44852 0.0
H956 H 0.97185 0.10018 0.44951 0.0
H957 H 0.87755 0.07745 0.46154 0.0
H958 H 0.75639 0.93446 0.447 0.0
H959 H 0.80015 0.98706 0.44715 0.0
C960 C 0.14494 0.9187 0.44632 0.0
C961 C 0.1508 0.89544 0.4511 0.0
C962 C 0.11441 0.91371 0.44613 0.0
C963 C 0.03685 0.86634 0.46113 0.0
H964 H 1.00385 0.87661 0.42821 0.0
C965 C 0.90476 0.80925 0.45256 0.0
C966 C 0.89324 0.82542 0.44523 0.0
C967 C 0.93682 0.82038 0.45341 0.0
C968 C 1.01276 0.87409 0.43755 0.0
H969 H 0.12954 0.84928 0.45986 0.0
H970 H 0.0767 0.84088 0.45972 0.0
H971 H 0.05928 0.89315 0.43001 0.0
H972 H 0.90677 0.86583 0.43278 0.0
H973 H 0.96275 0.8858 0.43462 0.0
H974 H 0.99064 0.84739 0.46875 0.0
C975 C 0.09552 0.86286 0.45605 0.0
C976 C 0.04453 0.88358 0.43856 0.0
C977 C 0.12579 0.86761 0.45605 0.0
C978 C 0.91474 0.85293 0.43865 0.0
C979 C 0.94689 0.86422 0.43959 0.0
C980 C 1.00523 0.85715 0.46017 0.0
C981 C 0.08941 0.88564 0.45095 0.0
C982 C 0.05673 0.87919 0.45029 0.0
C983 C 0.95837 0.8482 0.44706 0.0
C984 C 0.99258 0.86024 0.44829 0.0
H985 H 0.16373 0.94031 0.44237 0.0
H986 H 0.11031 0.93169 0.44218 0.0
H987 H 0.04573 0.86308 0.47035 0.0
H988 H 0.88906 0.78824 0.45792 0.0
H989 H 0.94468 0.80704 0.45905 0.0
C990 C 0.45628 0.91405 0.27194 0.0
C991 C 0.4247 0.89456 0.26866 0.0
C992 C 0.47668 0.90223 0.27246 0.0
C993 C 0.48776 0.83849 0.26005 0.0
H994 H 0.55205 0.86855 0.28678 0.0
C995 C 0.58386 0.80245 0.26354 0.0
C996 C 0.61426 0.828 0.26512 0.0
C997 C 0.5578 0.80652 0.26469 0.0
C998 C 0.53423 0.85993 0.27924 0.0
H999 H 0.38982 0.84728 0.2633 0.0
H1000 H 0.42545 0.82654 0.26436 0.0
H1001 H 0.51191 0.88331 0.28762 0.0
H1002 H 0.64088 0.87783 0.26916 0.0
H1003 H 0.59596 0.88465 0.27114 0.0
H1004 H 0.51067 0.81555 0.25156 0.0
C1005 C 0.43442 0.85104 0.26647 0.0
C1006 C 0.51129 0.86847 0.2797 0.0
C1007 C 0.41395 0.86286 0.266 0.0
C1008 C 0.61793 0.85753 0.26787 0.0
C1009 C 0.5921 0.86147 0.26912 0.0
C1010 C 0.51077 0.82986 0.2596 0.0
C1011 C 0.46605 0.87061 0.26969 0.0
C1012 C 0.48826 0.85856 0.26993 0.0
C1013 C 0.56174 0.83608 0.26762 0.0
C1014 C 0.53473 0.84122 0.26901 0.0
H1015 H 0.46527 0.9385 0.27416 0.0
H1016 H 0.50098 0.91809 0.2748 0.0
H1017 H 0.47043 0.83056 0.25233 0.0
H1018 H 0.5802 0.77939 0.26143 0.0
H1019 H 0.53462 0.78652 0.26348 0.0
C1020 C 0.20487 0.78709 0.26099 0.0
C1021 C 0.23451 0.81289 0.26357 0.0
C1022 C 0.19955 0.75678 0.26216 0.0
C1023 C 0.23682 0.70843 0.2636 0.0
H1024 H 0.158 0.64947 0.27983 0.0
C1025 C 0.19844 0.57809 0.27386 0.0
C1026 C 0.16786 0.55644 0.26979 0.0
C1027 C 0.20886 0.61014 0.27398 0.0
C1028 C 0.18004 0.66562 0.27524 0.0
H1029 H 0.28225 0.82707 0.26889 0.0
H1030 H 0.27281 0.77355 0.27105 0.0
H1031 H 0.17284 0.70427 0.27822 0.0
H1032 H 0.12451 0.55188 0.26249 0.0
H1033 H 0.14242 0.60747 0.26302 0.0
H1034 H 0.24376 0.66936 0.26061 0.0
C1035 C 0.25375 0.77705 0.26808 0.0
C1036 C 0.18855 0.69701 0.27429 0.0
C1037 C 0.25915 0.80765 0.26684 0.0
C1038 C 0.14793 0.56768 0.26597 0.0
C1039 C 0.15824 0.5996 0.26621 0.0
C1040 C 0.22834 0.67689 0.26463 0.0
C1041 C 0.22365 0.7513 0.26603 0.0
C1042 C 0.21663 0.71867 0.26816 0.0
C1043 C 0.18882 0.62118 0.27017 0.0
C1044 C 0.19951 0.65508 0.27019 0.0
H1045 H 0.18545 0.79023 0.25822 0.0
H1046 H 0.17634 0.73752 0.26012 0.0
H1047 H 0.25857 0.72452 0.2588 0.0
H1048 H 0.21432 0.5703 0.27705 0.0
H1049 H 0.23246 0.62624 0.27719 0.0
C1050 C 0.48708 0.64421 0.26563 0.0
C1051 C 0.5088 0.63416 0.2678 0.0
C1052 C 0.45501 0.62262 0.26505 0.0
C1053 C 0.40099 0.5397 0.25794 0.0
H1054 H 0.33837 0.55209 0.27538 0.0
C1055 C 0.27662 0.43876 0.26522 0.0
C1056 C 0.25124 0.44384 0.26363 0.0
C1057 C 0.3072 0.46365 0.26523 0.0
C1058 C 0.35554 0.54852 0.27028 0.0
H1059 H 0.51355 0.59359 0.2717 0.0
H1060 H 0.45784 0.55607 0.27057 0.0
H1061 H 0.39357 0.59255 0.27671 0.0
H1062 H 0.23836 0.47946 0.26092 0.0
H1063 H 0.29227 0.52328 0.26083 0.0
H1064 H 0.36334 0.49586 0.25151 0.0
C1065 C 0.46564 0.58059 0.26909 0.0
C1066 C 0.38714 0.57165 0.27108 0.0
C1067 C 0.49759 0.60212 0.26973 0.0
C1068 C 0.25734 0.47469 0.26214 0.0
C1069 C 0.28819 0.4998 0.26214 0.0
C1070 C 0.36955 0.51677 0.2571 0.0
C1071 C 0.444 0.59052 0.26655 0.0
C1072 C 0.41024 0.56716 0.26513 0.0
C1073 C 0.31348 0.49447 0.26359 0.0
C1074 C 0.34647 0.52054 0.26349 0.0
H1075 H 0.49488 0.66866 0.26395 0.0
H1076 H 0.43894 0.63097 0.263 0.0
H1077 H 0.41813 0.53587 0.25298 0.0
H1078 H 0.273 0.41544 0.26652 0.0
H1079 H 0.32599 0.45869 0.26667 0.0
C1080 C 0.86204 0.61265 0.78699 0.0
C1081 C 0.83264 0.60877 0.78384 0.0
C1082 C 0.86772 0.58788 0.78587 0.0
C1083 C 0.83093 0.50225 0.78326 0.0
H1084 H 0.91186 0.52381 0.76883 0.0
C1085 C 0.86999 0.41109 0.77253 0.0
C1086 C 0.90007 0.41933 0.77705 0.0
C1087 C 0.85976 0.43287 0.77262 0.0
C1088 C 0.88924 0.51744 0.77293 0.0
H1089 H 0.78568 0.57536 0.7775 0.0
H1090 H 0.79578 0.53175 0.7754 0.0
H1091 H 0.89691 0.56365 0.77052 0.0
H1092 H 0.94268 0.45699 0.78543 0.0
H1093 H 0.92512 0.49496 0.78529 0.0
H1094 H 0.82348 0.45585 0.78564 0.0
C1095 C 0.81436 0.55412 0.77881 0.0
C1096 C 0.88066 0.54027 0.77393 0.0
C1097 C 0.80858 0.57906 0.78001 0.0
C1098 C 0.91968 0.44994 0.78158 0.0
C1099 C 0.90956 0.47172 0.78156 0.0
C1100 C 0.83949 0.47926 0.78218 0.0
C1101 C 0.84426 0.55851 0.78146 0.0
C1102 C 0.85173 0.53318 0.77939 0.0
C1103 C 0.87949 0.46344 0.77711 0.0
C1104 C 0.86902 0.48683 0.77726 0.0
H1105 H 0.88098 0.63506 0.79018 0.0
H1106 H 0.89073 0.59187 0.78836 0.0
H1107 H 0.80853 0.49605 0.78754 0.0
H1108 H 0.85438 0.38787 0.76881 0.0
H1109 H 0.83657 0.42593 0.76902 0.0
C1110 C 0.61298 0.48634 0.7717 0.0
C1111 C 0.64384 0.49886 0.77616 0.0
C1112 C 0.59301 0.45405 0.77113 0.0
C1113 C 0.57993 0.38011 0.78538 0.0
H1114 H 0.52152 0.34428 0.75654 0.0
C1115 C 0.4839 0.24805 0.78232 0.0
C1116 C 0.45407 0.24338 0.77932 0.0
C1117 C 0.51042 0.27789 0.78114 0.0
C1118 C 0.53771 0.35392 0.76467 0.0
H1119 H 0.67792 0.48721 0.78354 0.0
H1120 H 0.643 0.43066 0.78243 0.0
H1121 H 0.56169 0.39925 0.75586 0.0
H1122 H 0.42895 0.26645 0.77259 0.0
H1123 H 0.47463 0.31768 0.77059 0.0
H1124 H 0.55525 0.33474 0.79431 0.0
C1125 C 0.63428 0.44592 0.77942 0.0
C1126 C 0.56065 0.38543 0.76429 0.0
C1127 C 0.65435 0.47829 0.77993 0.0
C1128 C 0.45144 0.26902 0.77503 0.0
C1129 C 0.47774 0.29849 0.77375 0.0
C1130 C 0.55689 0.34846 0.78575 0.0
C1131 C 0.60336 0.43344 0.77503 0.0
C1132 C 0.58149 0.39913 0.7748 0.0
C1133 C 0.50754 0.30335 0.77676 0.0
C1134 C 0.53498 0.3353 0.77556 0.0
H1135 H 0.60424 0.50154 0.76863 0.0
H1136 H 0.5692 0.44523 0.76786 0.0
H1137 H 0.59556 0.38999 0.79366 0.0
H1138 H 0.48672 0.22879 0.78563 0.0
H1139 H 0.53315 0.281 0.78352 0.0
C1140 C 0.5786 0.18715 0.78169 0.0
C1141 C 0.55691 0.15499 0.78068 0.0
C1142 C 0.61073 0.19793 0.78217 0.0
C1143 C 0.66572 0.17107 0.79089 0.0
H1144 H 0.72669 0.24245 0.77091 0.0
C1145 C 0.789 0.19261 0.78274 0.0
C1146 C 0.81465 0.22318 0.78342 0.0
C1147 C 0.75852 0.18715 0.78296 0.0
C1148 C 0.71 0.22279 0.77671 0.0
H1149 H 0.55224 0.10916 0.77877 0.0
H1150 H 0.60806 0.12788 0.7797 0.0
H1151 H 0.67135 0.22732 0.76989 0.0
H1152 H 0.82807 0.2721 0.7847 0.0
H1153 H 0.77429 0.26242 0.78515 0.0
H1154 H 0.70399 0.16627 0.79767 0.0
C1155 C 0.60021 0.14474 0.78036 0.0
C1156 C 0.67831 0.21407 0.7761 0.0
C1157 C 0.56819 0.134 0.77983 0.0
C1158 C 0.80889 0.24827 0.78421 0.0
C1159 C 0.77811 0.24274 0.7844 0.0
C1160 C 0.69724 0.1798 0.79154 0.0
C1161 C 0.62185 0.17677 0.78172 0.0
C1162 C 0.65577 0.18768 0.78297 0.0
C1163 C 0.75259 0.21203 0.78388 0.0
C1164 C 0.7197 0.20531 0.78423 0.0
H1165 H 0.57074 0.20396 0.78252 0.0
H1166 H 0.6268 0.22272 0.7833 0.0
H1167 H 0.64907 0.15112 0.79657 0.0
H1168 H 0.79231 0.1726 0.78202 0.0
H1169 H 0.7395 0.16326 0.78225 0.0
C1170 C 0.12593 0.24937 0.60126 0.0
C1171 C 0.09354 0.22915 0.60009 0.0
C1172 C 0.14654 0.23789 0.60047 0.0
C1173 C 0.15379 0.16775 0.60366 0.0
H1174 H 0.227 0.21569 0.58198 0.0
C1175 C 0.25147 0.1351 0.59538 0.0
C1176 C 0.28203 0.16062 0.59652 0.0
C1177 C 0.22576 0.13993 0.59511 0.0
C1178 C 0.20674 0.20207 0.58811 0.0
H1179 H 0.05748 0.18071 0.59751 0.0
H1180 H 0.09367 0.16062 0.59634 0.0
H1181 H 0.18743 0.23105 0.58337 0.0
H1182 H 0.30926 0.21118 0.59845 0.0
H1183 H 0.2651 0.21929 0.59806 0.0
H1184 H 0.17378 0.13921 0.60864 0.0
C1185 C 0.10295 0.18539 0.59787 0.0
C1186 C 0.1841 0.21092 0.58892 0.0
C1187 C 0.08225 0.19693 0.59858 0.0
C1188 C 0.28621 0.19086 0.59746 0.0
C1189 C 0.26079 0.19563 0.59715 0.0
C1190 C 0.17666 0.15893 0.6029 0.0
C1191 C 0.13535 0.20586 0.59856 0.0
C1192 C 0.15776 0.19437 0.59694 0.0
C1193 C 0.23028 0.17036 0.59585 0.0
C1194 C 0.20379 0.17654 0.59538 0.0
H1195 H 0.13543 0.27419 0.60273 0.0
H1196 H 0.17137 0.25416 0.60133 0.0
H1197 H 0.13368 0.15453 0.60991 0.0
H1198 H 0.24741 0.11149 0.59469 0.0
H1199 H 0.20247 0.11999 0.59411 0.0
C1200 C 0.81337 0.90035 0.60103 0.0
C1201 C 0.83375 0.88835 0.60007 0.0
C1202 C 0.82478 0.93245 0.60032 0.0
C1203 C 0.89442 1.00988 0.60416 0.0
H1204 H 0.84787 0.03546 0.58173 0.0
C1205 C 0.92744 0.14028 0.59597 0.0
C1206 C 0.90184 0.14528 0.59666 0.0
C1207 C 0.92262 0.10976 0.59571 0.0
C1208 C 0.86109 0.02873 0.58807 0.0
H1209 H 0.88237 0.90099 0.59799 0.0
H1210 H 0.90233 0.9573 0.59697 0.0
H1211 H 0.83259 0.98052 0.5831 0.0
H1212 H 0.85114 0.1219 0.5978 0.0
H1213 H 0.84305 0.06961 0.59745 0.0
H1214 H 0.92244 0.05828 0.60937 0.0
C1215 C 0.87749 0.94167 0.59825 0.0
C1216 C 0.85229 0.99725 0.58887 0.0
C1217 C 0.86603 0.90942 0.59888 0.0
C1218 C 0.87152 0.11919 0.59716 0.0
C1219 C 0.86678 0.089 0.59687 0.0
C1220 C 0.90318 0.04156 0.60341 0.0
C1221 C 0.85689 0.95344 0.59871 0.0
C1222 C 0.86834 0.98734 0.59715 0.0
C1223 C 0.89214 0.08381 0.59603 0.0
C1224 C 0.88604 0.05117 0.59561 0.0
H1225 H 0.78848 0.88489 0.60225 0.0
H1226 H 0.8084 0.94089 0.60099 0.0
H1227 H 0.90724 1.00288 0.61061 0.0
H1228 H 0.95109 0.15985 0.59563 0.0
H1229 H 0.94263 0.10645 0.59506 0.0
C1230 C 0.16376 0.93546 0.60013 0.0
C1231 C 0.17528 0.96766 0.5986 0.0
C1232 C 0.13171 0.9143 0.59966 0.0
C1233 C 0.05384 0.90628 0.603 0.0
H1234 H 0.02815 0.83104 0.58273 0.0
C1235 C 0.92329 0.80905 0.5954 0.0
C1236 C 0.91763 0.77833 0.59683 0.0
C1237 C 0.95404 0.83436 0.59505 0.0
C1238 C 0.03491 0.85183 0.58849 0.0
H1239 H 0.16187 1.00285 0.59565 0.0
H1240 H 0.10573 0.96577 0.59499 0.0
H1241 H 0.08309 0.87084 0.58364 0.0
H1242 H 0.94006 0.75039 0.59924 0.0
H1243 H 0.99281 0.79396 0.59874 0.0
H1244 H 1.00544 0.88675 0.60803 0.0
C1245 C 0.12164 0.95702 0.59658 0.0
C1246 C 0.06642 0.87463 0.58902 0.0
C1247 C 0.15381 0.97824 0.597 0.0
C1248 C 0.94331 0.77359 0.59801 0.0
C1249 C 0.97375 0.79866 0.59764 0.0
C1250 C 0.02214 0.8833 0.6025 0.0
C1251 C 0.11029 0.92477 0.5977 0.0
C1252 C 0.07638 0.90181 0.5965 0.0
C1253 C 0.97959 0.82932 0.59604 0.0
C1254 C 1.01245 0.8555 0.59547 0.0
H1255 H 0.17954 0.92653 0.60167 0.0
H1256 H 0.12366 0.88965 0.60084 0.0
H1257 H 0.06082 0.927 0.60885 0.0
H1258 H 0.90405 0.81354 0.59451 0.0
H1259 H 0.95782 0.85775 0.59379 0.0
C1260 C 0.49617 0.98708 0.07041 0.0
C1261 C 0.50283 0.0139 0.07755 0.0
C1262 C 0.50568 0.98935 0.05738 0.0
C1263 C 0.5508 0.04603 0.03038 0.0
H1264 H 0.48499 0.98255 1.00888 0.0
C1265 C 0.52432 0.06603 0.97766 0.0
C1266 C 0.51329 0.04168 0.96848 0.0
C1267 C 0.53129 0.06164 0.99045 0.0
C1268 C 0.50398 1.00011 1.0147 0.0
H1269 H 0.52563 0.06427 0.07697 0.0
H1270 H 0.54151 0.06851 0.05401 0.0
H1271 H 0.48198 0.97714 0.03251 0.0
H1272 H 0.50215 0.99399 0.96524 0.0
H1273 H 0.51379 0.98586 0.98791 0.0
H1274 H 0.57162 0.06986 1.01238 0.0
C1275 C 0.52977 0.04561 0.05852 0.0
C1276 C 0.50233 0.99705 0.02834 0.0
C1277 C 0.52078 0.0433 0.0717 0.0
C1278 C 0.5109 0.01319 0.97213 0.0
C1279 C 0.51732 1.00853 0.9851 0.0
C1280 C 0.55227 0.04924 1.0167 0.0
C1281 C 0.52124 0.01852 0.05101 0.0
C1282 C 0.52536 0.02027 0.03643 0.0
C1283 C 0.52684 0.03253 0.99449 0.0
C1284 C 0.52849 0.02664 1.00872 0.0
H1285 H 0.48218 0.96412 0.07474 0.0
H1286 H 0.49949 0.96801 0.05214 0.0
H1287 H 0.5693 0.06412 0.0362 0.0
H1288 H 0.5263 0.08823 0.97508 0.0
H1289 H 0.53821 0.0805 0.9974 0.0
C1290 C 0.99623 0.47547 0.9785 0.0
C1291 C 0.01761 0.49346 0.96869 0.0
C1292 C 0.99936 0.4867 0.99123 0.0
C1293 C 0.05996 0.53982 1.014 0.0
H1294 H 0.98868 0.50665 0.03742 0.0
C1295 C 0.06721 0.50332 0.06593 0.0
C1296 C 0.04819 0.50363 0.07607 0.0
C1297 C 0.0649 0.51249 0.05329 0.0
C1298 C 1.00895 0.5168 0.03108 0.0
H1299 H 0.05831 0.53817 0.96434 0.0
H1300 H 0.06403 0.55823 0.98686 0.0
H1301 H 0.98061 0.50521 1.01386 0.0
H1302 H 1.01243 0.51493 0.08099 0.0
H1303 H 1.00817 0.53116 0.05858 0.0
H1304 H 0.08828 0.55128 0.03122 0.0
C1305 C 0.04482 0.53515 0.98464 0.0
C1306 C 1.00431 0.5156 1.01751 0.0
C1307 C 0.04151 0.52382 0.97174 0.0
C1308 C 0.02734 0.51441 0.07334 0.0
C1309 C 0.02488 0.52357 0.06052 0.0
C1310 C 0.06463 0.54139 0.02757 0.0
C1311 C 0.02408 0.51638 0.99462 0.0
C1312 C 0.02961 0.52546 1.00877 0.0
C1313 C 0.04347 0.52237 0.05028 0.0
C1314 C 0.03907 0.52828 0.03628 0.0
H1315 H 0.97744 0.45201 0.97646 0.0
H1316 H 0.98323 0.47119 0.99856 0.0
H1317 H 0.08008 0.54781 1.00766 0.0
H1318 H 0.08361 0.49523 0.06768 0.0
H1319 H 0.07913 0.51045 0.04573 0.0
C1320 C 0.58238 0.53954 0.97889 0.0
C1321 C 0.56772 0.54926 0.96976 0.0
C1322 C 0.57107 0.5316 0.99165 0.0
C1323 C 0.53279 0.55336 1.01619 0.0
H1324 H 0.53624 0.48923 0.03684 0.0
C1325 C 0.52724 0.55728 0.07202 0.0
C1326 C 0.54912 0.55247 0.07883 0.0
C1327 C 0.52003 0.54806 0.05896 0.0
C1328 C 0.53526 0.50735 0.03126 0.0
H1329 H 0.52894 0.55714 0.96659 0.0
H1330 H 0.50926 0.54383 0.98922 0.0
H1331 H 0.54027 0.48887 1.013 0.0
H1332 H 0.57984 0.53328 0.07762 0.0
H1333 H 0.5681 0.51784 0.05465 0.0
H1334 H 0.52979 0.57312 0.03429 0.0
C1335 C 0.52944 0.5421 0.98639 0.0
C1336 C 0.53737 0.50702 1.01757 0.0
C1337 C 0.54051 0.54951 0.97344 0.0
C1338 C 0.56234 0.53656 0.07263 0.0
C1339 C 0.5556 0.52784 0.05943 0.0
C1340 C 0.53098 0.55389 0.02985 0.0
C1341 C 0.54506 0.53368 0.9957 0.0
C1342 C 0.53695 0.53048 1.0099 0.0
C1343 C 0.53531 0.53467 0.05224 0.0
C1344 C 0.53294 0.53133 0.03763 0.0
H1345 H 0.60342 0.53915 0.97629 0.0
H1346 H 0.5839 0.52561 0.99855 0.0
H1347 H 0.53287 0.57205 1.0106 0.0
H1348 H 0.51699 0.56979 0.07661 0.0
H1349 H 0.50363 0.55293 0.05394 0.0
C1350 C 0.18813 0.37531 0.40559 0.0
C1351 C 0.16899 0.34611 0.41141 0.0
C1352 C 0.19693 0.37722 0.39239 0.0
C1353 C 0.16759 0.32893 0.36217 0.0
H1354 H 0.23885 0.39998 0.34625 0.0
C1355 C 0.17725 0.34483 0.30597 0.0
C1356 C 0.18081 0.37378 0.30228 0.0
C1357 C 0.18322 0.33983 0.31896 0.0
C1358 C 0.21894 0.37984 0.35056 0.0
H1359 H 0.14602 0.29616 0.40855 0.0
H1360 H 0.16298 0.29924 0.38595 0.0
H1361 H 0.23622 0.3942 0.37006 0.0
H1362 H 0.19542 0.42074 0.30884 0.0
H1363 H 0.20657 0.41242 0.33121 0.0
H1364 H 0.15008 0.31494 0.3427 0.0
C1365 C 0.17023 0.3208 0.39121 0.0
C1366 C 0.2173 0.37662 0.36424 0.0
C1367 C 0.16089 0.31896 0.40424 0.0
C1368 C 0.19254 0.39819 0.31145 0.0
C1369 C 0.19907 0.39345 0.32426 0.0
C1370 C 0.16943 0.33197 0.34853 0.0
C1371 C 0.18704 0.3499 0.38486 0.0
C1372 C 0.19118 0.35152 0.37028 0.0
C1373 C 0.19346 0.36395 0.32833 0.0
C1374 C 0.19469 0.35788 0.34257 0.0
H1375 H 0.19414 0.39656 0.41089 0.0
H1376 H 0.20966 0.4001 0.38791 0.0
H1377 H 0.14674 0.30957 0.36632 0.0
H1378 H 0.16796 0.32558 0.29909 0.0
H1379 H 0.17878 0.31685 0.3218 0.0
C1380 C 0.68379 0.83965 0.40698 0.0
C1381 C 0.71251 0.84265 0.41067 0.0
C1382 C 0.67915 0.84615 0.39402 0.0
C1383 C 0.72002 0.88221 0.36254 0.0
H1384 H 0.64926 0.81107 0.34651 0.0
C1385 C 0.7163 0.8514 0.3076 0.0
C1386 C 0.68717 0.83295 0.30163 0.0
C1387 C 0.71802 0.86024 0.32078 0.0
C1388 C 0.66877 0.83164 0.35075 0.0
H1389 H 0.75944 0.85685 0.40419 0.0
H1390 H 0.75173 0.86893 0.38189 0.0
H1391 H 0.65414 0.81394 0.37016 0.0
H1392 H 0.6372 0.81124 0.3042 0.0
H1393 H 0.64004 0.82823 0.32679 0.0
H1394 H 0.73507 0.89961 0.3431 0.0
C1395 C 0.73268 0.86146 0.38879 0.0
C1396 C 0.67153 0.83322 0.3644 0.0
C1397 C 0.73707 0.8544 0.40157 0.0
C1398 C 0.65996 0.82559 0.30863 0.0
C1399 C 0.66164 0.83495 0.32165 0.0
C1400 C 0.71712 0.88082 0.34886 0.0
C1401 C 0.70338 0.85637 0.3847 0.0
C1402 C 0.69762 0.85805 0.37046 0.0
C1403 C 0.69059 0.85105 0.32815 0.0
C1404 C 0.69186 0.85506 0.34273 0.0
H1405 H 0.66443 0.83033 0.41381 0.0
H1406 H 0.65633 0.84212 0.39116 0.0
H1407 H 0.7403 0.90181 0.36693 0.0
H1408 H 0.73756 0.85681 0.30244 0.0
H1409 H 0.74078 0.8724 0.32538 0.0
C1410 C 0.24833 0.87192 0.31164 0.0
C1411 C 0.23393 0.8819 0.30249 0.0
C1412 C 0.23709 0.86431 0.32442 0.0
C1413 C 0.19993 0.88771 0.34884 0.0
H1414 H 0.20243 0.82359 0.36988 0.0
C1415 C 0.19476 0.89337 0.40463 0.0
C1416 C 0.21626 0.88819 0.41155 0.0
C1417 C 0.18746 0.88388 0.39159 0.0
C1418 C 0.20174 0.84173 0.36419 0.0
H1419 H 0.19564 0.89052 0.29931 0.0
H1420 H 0.17607 0.87776 0.32197 0.0
H1421 H 0.2062 0.82245 0.34605 0.0
H1422 H 0.2462 0.86807 0.41058 0.0
H1423 H 0.23435 0.85218 0.38766 0.0
H1424 H 0.19749 0.90825 0.36682 0.0
C1425 C 0.19599 0.87558 0.31914 0.0
C1426 C 0.20369 0.84094 0.35051 0.0
C1427 C 0.20698 0.88266 0.30617 0.0
C1428 C 0.229 0.87167 0.4055 0.0
C1429 C 0.22221 0.86269 0.39232 0.0
C1430 C 0.19829 0.88869 0.3625 0.0
C1431 C 0.21142 0.867 0.32848 0.0
C1432 C 0.20357 0.86436 0.34269 0.0
C1433 C 0.20231 0.86985 0.38502 0.0
C1434 C 0.19988 0.86613 0.37042 0.0
H1435 H 0.26918 0.87116 0.30904 0.0
H1436 H 0.24976 0.85816 0.33134 0.0
H1437 H 0.20028 0.9064 0.34315 0.0
H1438 H 0.18486 0.90634 0.4091 0.0
H1439 H 0.17134 0.889 0.38649 0.0
C1440 C 0.83072 0.65409 0.73805 0.0
C1441 C 0.83698 0.68075 0.74523 0.0
C1442 C 0.84013 0.65658 0.725 0.0
C1443 C 0.88411 0.71385 0.69798 0.0
H1444 H 0.81898 0.64956 0.67651 0.0
C1445 C 0.85638 0.73311 0.64533 0.0
C1446 C 0.84651 0.70904 0.63607 0.0
C1447 C 0.86324 0.72883 0.65816 0.0
C1448 C 0.83777 0.66737 0.68233 0.0
H1449 H 0.85891 0.73106 0.74467 0.0
H1450 H 0.87457 0.73566 0.72169 0.0
H1451 H 0.81631 0.64398 0.70014 0.0
H1452 H 0.83724 0.66196 0.63274 0.0
H1453 H 0.84861 0.65399 0.65548 0.0
H1454 H 0.90431 0.73807 0.67999 0.0
C1455 C 0.86328 0.71274 0.72618 0.0
C1456 C 0.83633 0.66421 0.69596 0.0
C1457 C 0.85441 0.71023 0.73938 0.0
C1458 C 0.84503 0.68094 0.6397 0.0
C1459 C 0.85133 0.67637 0.6527 0.0
C1460 C 0.88533 0.71716 0.68432 0.0
C1461 C 0.85515 0.68579 0.71864 0.0
C1462 C 0.85912 0.68769 0.70405 0.0
C1463 C 0.85986 0.7001 0.66214 0.0
C1464 C 0.86179 0.69427 0.67635 0.0
H1465 H 0.81711 0.63108 0.74237 0.0
H1466 H 0.83427 0.63536 0.71973 0.0
H1467 H 0.90244 0.73216 0.70379 0.0
H1468 H 0.85768 0.75501 0.64278 0.0
H1469 H 0.86938 0.74745 0.66516 0.0
C1470 C 0.33002 0.13966 0.64554 0.0
C1471 C 0.35076 0.15805 0.63562 0.0
C1472 C 0.33313 0.15097 0.65825 0.0
C1473 C 0.39311 0.20585 0.68077 0.0
H1474 H 0.32206 0.17158 0.70434 0.0
C1475 C 0.40182 0.17133 0.73291 0.0
C1476 C 0.38247 0.17125 0.74298 0.0
C1477 C 0.39933 0.1802 0.72023 0.0
C1478 C 0.34224 0.18205 0.69795 0.0
H1479 H 0.39031 0.20343 0.63107 0.0
H1480 H 0.39599 0.2236 0.65356 0.0
H1481 H 0.31361 0.16911 0.68078 0.0
H1482 H 0.346 0.18162 0.74778 0.0
H1483 H 0.34141 0.19728 0.72531 0.0
H1484 H 0.42172 0.21857 0.69793 0.0
C1485 C 0.3773 0.20018 0.65144 0.0
C1486 C 0.33739 0.18026 0.68439 0.0
C1487 C 0.37401 0.18877 0.63855 0.0
C1488 C 0.36119 0.18146 0.74018 0.0
C1489 C 0.35852 0.19026 0.72732 0.0
C1490 C 0.39797 0.20797 0.69433 0.0
C1491 C 0.35717 0.18112 0.66151 0.0
C1492 C 0.36267 0.19056 0.67561 0.0
C1493 C 0.37735 0.18932 0.71713 0.0
C1494 C 0.37254 0.19453 0.70309 0.0
H1495 H 0.31176 0.1159 0.64359 0.0
H1496 H 0.31752 0.13525 0.66567 0.0
H1497 H 0.4132 0.2142 0.67438 0.0
H1498 H 0.41855 0.1637 0.73474 0.0
H1499 H 0.4138 0.17843 0.71271 0.0
C1500 C 0.91449 0.2038 0.64474 0.0
C1501 C 0.90044 0.21422 0.63561 0.0
C1502 C 0.90324 0.19631 0.65752 0.0
C1503 C 0.86725 0.22093 0.68198 0.0
H1504 H 0.86815 0.15599 0.70303 0.0
C1505 C 0.86167 0.22642 0.73778 0.0
C1506 C 0.88248 0.22039 0.7448 0.0
C1507 C 0.85458 0.21726 0.72471 0.0
C1508 C 0.86793 0.17437 0.69734 0.0
H1509 H 0.86275 0.22377 0.63247 0.0
H1510 H 0.84318 0.21124 0.65514 0.0
H1511 H 0.87183 0.15473 0.6792 0.0
H1512 H 0.91141 0.19912 0.74394 0.0
H1513 H 0.9 0.18387 0.72092 0.0
H1514 H 0.86538 0.24181 0.69996 0.0
C1515 C 0.86282 0.20859 0.65229 0.0
C1516 C 0.86982 0.17351 0.68366 0.0
C1517 C 0.8738 0.21553 0.63932 0.0
C1518 C 0.89476 0.20342 0.73877 0.0
C1519 C 0.88821 0.19479 0.72555 0.0
C1520 C 0.86568 0.22199 0.69564 0.0
C1521 C 0.87794 0.1996 0.66161 0.0
C1522 C 0.87023 0.19718 0.67583 0.0
C1523 C 0.86897 0.20272 0.71817 0.0
C1524 C 0.86668 0.1991 0.70357 0.0
H1525 H 0.93512 0.20263 0.64212 0.0
H1526 H 0.91568 0.18983 0.66443 0.0
H1527 H 0.86804 0.23982 0.67629 0.0
H1528 H 0.85208 0.23968 0.74224 0.0
H1529 H 0.83893 0.22297 0.71956 0.0
C1530 C 0.29827 0.94691 0.2306 0.0
C1531 C 0.27124 0.91727 0.23014 0.0
C1532 C 0.32087 0.9566 0.22073 0.0
C1533 C 0.33266 0.94259 0.18623 0.0
H1534 H 0.4204 0.98697 0.19574 0.0
C1535 C 0.43091 1.00996 0.14824 0.0
C1536 C 0.45802 1.00759 0.14913 0.0
C1537 C 0.40806 0.99755 0.15803 0.0
C1538 C 0.39602 0.97441 0.1929 0.0
H1539 H 0.24632 0.87487 0.21876 0.0
H1540 H 0.28569 0.89191 0.20136 0.0
H1541 H 0.3806 0.96755 0.21287 0.0
H1542 H 0.4827 0.99085 0.16116 0.0
H1543 H 0.44289 0.96938 0.1784 0.0
H1544 H 0.3481 0.9495 0.16626 0.0
C1545 C 0.28947 0.90762 0.20943 0.0
C1546 C 0.37317 0.96354 0.20273 0.0
C1547 C 0.26694 0.8978 0.2194 0.0
C1548 C 0.46203 0.99298 0.16018 0.0
C1549 C 0.43925 0.98077 0.17007 0.0
C1550 C 0.35552 0.95369 0.17639 0.0
C1551 C 0.31688 0.93708 0.21002 0.0
C1552 C 0.34117 0.94765 0.19953 0.0
C1553 C 0.41187 0.98276 0.16909 0.0
C1554 C 0.38752 0.96992 0.17959 0.0
H1555 H 0.3021 0.96262 0.23868 0.0
H1556 H 0.34136 0.97962 0.22142 0.0
H1557 H 0.30829 0.93063 0.18339 0.0
H1558 H 0.42729 0.02142 0.13992 0.0
H1559 H 0.38758 1.0 0.15704 0.0
C1560 C 0.04582 0.44281 0.14917 0.0
C1561 C 0.04982 0.47304 0.14929 0.0
C1562 C 0.05868 0.43303 0.15903 0.0
C1563 C 0.0866 0.44777 0.19318 0.0
H1564 H 0.1272 0.40092 0.18344 0.0
C1565 C 0.11476 0.37754 0.23084 0.0
C1566 C 0.14392 0.37919 0.22998 0.0
C1567 C 0.10489 0.39065 0.2211 0.0
C1568 C 0.11616 0.41416 0.18634 0.0
H1569 H 0.06958 0.51636 0.16015 0.0
H1570 H 0.09172 0.49907 0.17761 0.0
H1571 H 0.10726 0.42115 0.16642 0.0
H1572 H 0.18527 0.39519 0.218 0.0
H1573 H 0.16782 0.41773 0.2008 0.0
H1574 H 0.09529 0.44055 0.21311 0.0
C1575 C 0.07883 0.48304 0.16976 0.0
C1576 C 0.10446 0.42553 0.17658 0.0
C1577 C 0.0662 0.49298 0.15976 0.0
C1578 C 0.16271 0.39363 0.21896 0.0
C1579 C 0.15267 0.40648 0.20911 0.0
C1580 C 0.09802 0.43612 0.20295 0.0
C1581 C 0.07552 0.45302 0.16943 0.0
C1582 C 0.0893 0.44228 0.17986 0.0
C1583 C 0.1237 0.40536 0.2101 0.0
C1584 C 0.11276 0.41896 0.19967 0.0
H1585 H 0.03299 0.42672 0.14132 0.0
H1586 H 0.05514 0.40959 0.15857 0.0
H1587 H 0.07494 0.46043 0.19607 0.0
H1588 H 0.09953 0.36622 0.23913 0.0
H1589 H 0.08223 0.38884 0.2221 0.0
C1590 C 0.68435 0.76396 0.23056 0.0
C1591 C 0.6807 0.79036 0.22991 0.0
C1592 C 0.67197 0.74103 0.22081 0.0
C1593 C 0.6273 0.6876 0.20305 0.0
H1594 H 0.63894 0.71147 0.16641 0.0
C1595 C 0.56962 0.59733 0.16091 0.0
C1596 C 0.58863 0.60099 0.15007 0.0
C1597 C 0.5798 0.62044 0.17063 0.0
C1598 C 0.63554 0.7044 0.1766 0.0
H1599 H 0.66195 0.81385 0.21828 0.0
H1600 H 0.64064 0.77392 0.20107 0.0
H1601 H 0.65871 0.75186 0.18332 0.0
H1602 H 0.63352 0.63141 0.14106 0.0
H1603 H 0.65112 0.67183 0.15788 0.0
H1604 H 0.60442 0.64016 0.19634 0.0
C1605 C 0.65291 0.77088 0.20922 0.0
C1606 C 0.64663 0.72757 0.1863 0.0
C1607 C 0.66503 0.79371 0.21908 0.0
C1608 C 0.61814 0.62809 0.14921 0.0
C1609 C 0.62819 0.65132 0.15883 0.0
C1610 C 0.61595 0.66444 0.19336 0.0
C1611 C 0.65601 0.7441 0.21002 0.0
C1612 C 0.64294 0.71948 0.19965 0.0
C1613 C 0.60917 0.64783 0.16967 0.0
C1614 C 0.62018 0.67252 0.18 0.0
H1615 H 0.69667 0.76088 0.23869 0.0
H1616 H 0.67528 0.72104 0.22165 0.0
H1617 H 0.62377 0.68051 0.21324 0.0
H1618 H 0.54678 0.57667 0.16186 0.0
H1619 H 0.56447 0.61705 0.1788 0.0
C1620 C 0.99809 0.4588 0.88565 0.0
C1621 C 1.01623 0.45714 0.89589 0.0
C1622 C 0.9861 0.43584 0.87581 0.0
C1623 C 0.99886 0.37514 0.86033 0.0
H1624 H 0.914 0.34091 0.84766 0.0
C1625 C 0.95313 0.29232 0.81569 0.0
C1626 C 0.92275 0.26643 0.81632 0.0
C1627 C 0.96392 0.31569 0.82526 0.0
C1628 C 0.9377 0.35009 0.85114 0.0
H1629 H 0.03628 0.43033 0.90375 0.0
H1630 H 1.01557 0.39058 0.88673 0.0
H1631 H 0.934 0.38165 0.86447 0.0
H1632 H 0.87987 0.24468 0.82754 0.0
H1633 H 0.89875 0.28553 0.84437 0.0
H1634 H 1.00257 0.34348 0.84718 0.0
C1635 C 1.01063 0.40956 0.88617 0.0
C1636 C 0.94929 0.37372 0.86068 0.0
C1637 C 0.02241 0.43231 0.89599 0.0
C1638 C 0.90339 0.26437 0.82679 0.0
C1639 C 0.91416 0.28791 0.83637 0.0
C1640 C 0.98737 0.35173 0.85076 0.0
C1641 C 0.9923 0.41093 0.87593 0.0
C1642 C 0.98001 0.38646 0.86545 0.0
C1643 C 0.94464 0.31387 0.83575 0.0
C1644 C 0.95662 0.33879 0.84603 0.0
H1645 H 0.99294 0.47766 0.88532 0.0
H1646 H 0.97231 0.43781 0.86802 0.0
H1647 H 0.02271 0.38455 0.86365 0.0
H1648 H 0.96864 0.29459 0.80775 0.0
H1649 H 0.98735 0.33545 0.82433 0.0
C1650 C 0.6002 0.56336 0.88687 0.0
C1651 C 0.60416 0.58313 0.89745 0.0
C1652 C 0.62278 0.57315 0.87691 0.0
C1653 C 0.70626 0.62978 0.87021 0.0
H1654 H 0.68171 0.61507 0.83369 0.0
C1655 C 0.79598 0.66019 0.82797 0.0
C1656 C 0.7919 0.67461 0.81687 0.0
C1657 C 0.77304 0.64771 0.83778 0.0
C1658 C 0.68898 0.61944 0.84385 0.0
H1659 H 0.63443 0.62897 0.90571 0.0
H1660 H 0.67375 0.64589 0.8885 0.0
H1661 H 0.64164 0.59581 0.85074 0.0
H1662 H 0.7609 0.68787 0.8075 0.0
H1663 H 0.72087 0.66594 0.82449 0.0
H1664 H 0.75357 0.65375 0.86333 0.0
C1665 C 0.65351 0.62268 0.88792 0.0
C1666 C 0.66598 0.60812 0.85363 0.0
C1667 C 0.63086 0.61302 0.89776 0.0
C1668 C 0.76457 0.67655 0.81586 0.0
C1669 C 0.74154 0.66385 0.82558 0.0
C1670 C 0.72925 0.64085 0.86044 0.0
C1671 C 0.64989 0.60287 0.87738 0.0
C1672 C 0.67431 0.61345 0.86694 0.0
C1673 C 0.74542 0.64924 0.83668 0.0
C1674 C 0.72093 0.63613 0.84712 0.0
H1675 H 0.57982 0.54022 0.88634 0.0
H1676 H 0.6193 0.55725 0.86897 0.0
H1677 H 0.71355 0.63401 0.88037 0.0
H1678 H 0.81682 0.65839 0.82903 0.0
H1679 H 0.77674 0.63647 0.84615 0.0
C1680 C 0.38032 0.11298 0.81604 0.0
C1681 C 0.3852 0.14355 0.81595 0.0
C1682 C 0.39313 0.10315 0.8259 0.0
C1683 C 0.43953 0.09586 0.8432 0.0
H1684 H 0.42978 0.11015 0.87977 0.0
C1685 C 0.49746 0.06391 0.88567 0.0
C1686 C 0.47812 0.04844 0.89644 0.0
C1687 C 0.48756 0.07696 0.87586 0.0
C1688 C 0.4327 0.10598 0.86959 0.0
H1689 H 0.40634 0.1874 0.82647 0.0
H1690 H 0.42823 0.16993 0.84399 0.0
H1691 H 0.40981 0.13051 0.86273 0.0
H1692 H 0.43293 0.03383 0.90516 0.0
H1693 H 0.41595 0.05701 0.88823 0.0
H1694 H 0.46221 0.07116 0.85003 0.0
C1695 C 0.4148 0.15374 0.83627 0.0
C1696 C 0.42148 0.11787 0.85984 0.0
C1697 C 0.40231 0.16377 0.82625 0.0
C1698 C 0.44857 0.04597 0.89708 0.0
C1699 C 0.43887 0.05937 0.8874 0.0
C1700 C 0.45111 0.08434 0.85294 0.0
C1701 C 0.41068 0.1234 0.83611 0.0
C1702 C 0.42437 0.11258 0.84652 0.0
C1703 C 0.45822 0.07507 0.87666 0.0
C1704 C 0.44748 0.08888 0.86627 0.0
H1705 H 0.3669 0.09667 0.80834 0.0
H1706 H 0.38902 0.07949 0.82559 0.0
H1707 H 0.4424 0.09162 0.83303 0.0
H1708 H 0.52031 0.06609 0.88487 0.0
H1709 H 0.50308 0.08896 0.86774 0.0
C1710 C 0.93622 0.23091 0.55275 0.0
C1711 C 0.93978 0.25024 0.56346 0.0
C1712 C 0.95901 0.24122 0.54287 0.0
C1713 C 0.04243 0.29838 0.53647 0.0
H1714 H 0.01829 0.28501 0.49988 0.0
C1715 C 0.10124 0.3468 0.4823 0.0
C1716 C 0.12827 0.34426 0.48312 0.0
C1717 C 0.07828 0.3341 0.49204 0.0
C1718 C 0.02545 0.289 0.51005 0.0
H1719 H 0.96958 0.29585 0.572 0.0
H1720 H 1.00933 0.31365 0.55492 0.0
H1721 H 0.97803 0.26509 0.51686 0.0
H1722 H 0.15281 0.32716 0.49503 0.0
H1723 H 0.11286 0.3053 0.51222 0.0
H1724 H 0.08983 0.32257 0.52967 0.0
C1725 C 0.98921 0.29039 0.55419 0.0
C1726 C 1.00234 0.27731 0.51979 0.0
C1727 C 0.96633 0.28023 0.56396 0.0
C1728 C 0.1322 0.32941 0.4941 0.0
C1729 C 0.10933 0.31695 0.50395 0.0
C1730 C 0.06553 0.30979 0.52674 0.0
C1731 C 0.98595 0.27103 0.54352 0.0
C1732 C 1.01052 0.28214 0.53313 0.0
C1733 C 0.08194 0.31892 0.503 0.0
C1734 C 0.05736 0.30555 0.51339 0.0
H1735 H 0.91597 0.20772 0.55207 0.0
H1736 H 0.95579 0.22565 0.53482 0.0
H1737 H 0.04959 0.30225 0.54664 0.0
H1738 H 0.09771 0.35849 0.47404 0.0
H1739 H 0.05779 0.33654 0.49108 0.0
C1740 C 0.7349 0.82552 0.49341 0.0
C1741 C 0.7192 0.80624 0.48267 0.0
C1742 C 0.74753 0.81529 0.50327 0.0
C1743 C 0.77387 0.75812 0.50978 0.0
H1744 H 0.76281 0.77163 0.54629 0.0
C1745 C 0.83112 0.72608 0.55261 0.0
C1746 C 0.81197 0.71141 0.56351 0.0
C1747 C 0.82121 0.73876 0.54263 0.0
C1748 C 0.76606 0.7676 0.53614 0.0
H1749 H 0.70379 0.76082 0.47403 0.0
H1750 H 0.72598 0.74313 0.49109 0.0
H1751 H 0.7428 0.79164 0.52921 0.0
H1752 H 0.76707 0.69778 0.57231 0.0
H1753 H 0.74998 0.72004 0.55508 0.0
H1754 H 0.79679 0.73373 0.51673 0.0
C1755 C 0.72896 0.76631 0.49185 0.0
C1756 C 0.75484 0.77935 0.52634 0.0
C1757 C 0.7161 0.77641 0.48209 0.0
C1758 C 0.78256 0.70928 0.56412 0.0
C1759 C 0.77281 0.72219 0.55426 0.0
C1760 C 0.78536 0.74663 0.51959 0.0
C1761 C 0.7449 0.7856 0.50257 0.0
C1762 C 0.75826 0.77447 0.51302 0.0
C1763 C 0.792 0.73721 0.54339 0.0
C1764 C 0.78128 0.75088 0.53291 0.0
H1765 H 0.7376 0.8486 0.49414 0.0
H1766 H 0.75978 0.83083 0.51135 0.0
H1767 H 0.77724 0.75421 0.49963 0.0
H1768 H 0.85387 0.72801 0.55185 0.0
H1769 H 0.83664 0.75027 0.53443 0.0
C1770 C 0.23806 0.93486 0.49288 0.0
C1771 C 0.25752 0.93665 0.4825 0.0
C1772 C 0.24891 0.95832 0.50248 0.0
C1773 C 0.32226 0.02139 0.51712 0.0
H1774 H 0.26901 0.05133 0.53095 0.0
C1775 C 0.35685 0.10035 0.56282 0.0
C1776 C 0.35067 0.12517 0.56292 0.0
C1777 C 0.3452 0.07801 0.55284 0.0
C1778 C 0.28428 0.04341 0.52712 0.0
H1779 H 0.3037 0.96424 0.47411 0.0
H1780 H 0.32256 1.00509 0.49072 0.0
H1781 H 0.24914 0.01119 0.5139 0.0
H1782 H 0.32751 0.14613 0.55256 0.0
H1783 H 0.30716 0.10705 0.53498 0.0
H1784 H 0.35746 0.05367 0.53019 0.0
C1785 C 0.29898 0.98556 0.49156 0.0
C1786 C 0.27275 0.02011 0.51745 0.0
C1787 C 0.2881 0.96222 0.48198 0.0
C1788 C 0.33266 0.12726 0.55274 0.0
C1789 C 0.32083 0.10474 0.54273 0.0
C1790 C 0.33369 0.0445 0.5268 0.0
C1791 C 0.27959 0.98398 0.50197 0.0
C1792 C 0.2916 1.00876 0.51231 0.0
C1793 C 0.32703 0.07983 0.54263 0.0
C1794 C 0.31487 0.0558 0.53199 0.0
H1795 H 0.21439 0.9154 0.49356 0.0
H1796 H 0.23342 0.95609 0.51042 0.0
H1797 H 0.3374 0.01308 0.51352 0.0
H1798 H 0.37062 0.09805 0.57053 0.0
H1799 H 0.3501 0.05899 0.55324 0.0
C1800 C 0.54142 0.3474 0.10523 0.0
C1801 C 0.52075 0.35348 0.11235 0.0
C1802 C 0.53502 0.31663 0.10344 0.0
C1803 C 0.48735 0.23703 0.11772 0.0
H1804 H 0.51188 0.21108 0.08625 0.0
C1805 C 0.45855 0.10942 0.11019 0.0
C1806 C 0.48402 0.1061 0.10633 0.0
C1807 C 0.46047 0.13867 0.10961 0.0
C1808 C 0.50495 0.21801 0.09511 0.0
H1809 H 0.47636 0.33202 0.12254 0.0
H1810 H 0.46483 0.27859 0.11918 0.0
H1811 H 0.52031 0.26404 0.08774 0.0
H1812 H 0.53084 0.1306 0.0982 0.0
H1813 H 0.53399 0.18128 0.09709 0.0
H1814 H 0.472 0.191 0.12506 0.0
C1815 C 0.48652 0.29745 0.11534 0.0
C1816 C 0.50991 0.24844 0.096 0.0
C1817 C 0.49307 0.32812 0.11723 0.0
C1818 C 0.51082 0.13232 0.10131 0.0
C1819 C 0.51259 0.1614 0.1006 0.0
C1820 C 0.48216 0.20658 0.11677 0.0
C1821 C 0.50762 0.29123 0.1086 0.0
C1822 C 0.50142 0.25848 0.10737 0.0
C1823 C 0.48773 0.1651 0.105 0.0
C1824 C 0.49114 0.19677 0.10551 0.0
H1825 H 0.56301 0.36647 0.10141 0.0
H1826 H 0.55202 0.31287 0.09833 0.0
H1827 H 0.48104 0.24395 0.12674 0.0
H1828 H 0.43761 0.08973 0.11413 0.0
H1829 H 0.4408 0.14071 0.11296 0.0
C1830 C 0.72905 0.18648 0.11708 0.0
C1831 C 0.70397 0.18803 0.11139 0.0
C1832 C 0.75974 0.21081 0.11545 0.0
C1833 C 0.80992 0.28211 0.09558 0.0
H1834 H 0.86507 0.30368 0.12559 0.0
C1835 C 0.9267 0.39901 0.10061 0.0
C1836 C 0.95233 0.39828 0.10624 0.0
C1837 C 0.89736 0.37197 0.09998 0.0
C1838 C 0.85013 0.2977 0.11705 0.0
H1839 H 0.69151 0.21615 0.0993 0.0
H1840 H 0.74515 0.25918 0.09667 0.0
H1841 H 0.81197 0.2599 0.12704 0.0
H1842 H 0.9673 0.36819 0.11524 0.0
H1843 H 0.91592 0.32095 0.11419 0.0
H1844 H 0.8481 0.32076 0.08578 0.0
C1845 C 0.74117 0.23884 0.10222 0.0
C1846 C 0.8196 0.27251 0.11786 0.0
C1847 C 0.71038 0.21425 0.10375 0.0
C1848 C 0.94811 0.36959 0.11082 0.0
C1849 C 0.91862 0.34257 0.11031 0.0
C1850 C 0.84043 0.30753 0.09482 0.0
C1851 C 0.76627 0.2376 0.10818 0.0
C1852 C 0.799 0.26433 0.10715 0.0
C1853 C 0.8928 0.34357 0.10507 0.0
C1854 C 0.86088 0.31564 0.10556 0.0
H1855 H 0.72492 0.1663 0.12281 0.0
H1856 H 0.77839 0.20853 0.11991 0.0
H1857 H 0.79499 0.2763 0.08706 0.0
H1858 H 0.92909 0.42067 0.09695 0.0
H1859 H 0.87794 0.37361 0.09596 0.0
C1860 C 0.6587 0.54384 0.10332 0.0
C1861 C 0.6602 0.57212 0.10673 0.0
C1862 C 0.68586 0.54205 0.10199 0.0
C1863 C 0.7679 0.58058 0.11284 0.0
H1864 H 0.77389 0.52667 0.08687 0.0
C1865 C 0.87774 0.56794 0.10801 0.0
C1866 C 0.87269 0.53754 0.10622 0.0
C1867 C 0.853 0.57396 0.10709 0.0
C1868 C 0.77249 0.54163 0.09425 0.0
H1869 H 0.69177 0.62102 0.11103 0.0
H1870 H 0.73942 0.61795 0.10859 0.0
H1871 H 0.72924 0.53493 0.08661 0.0
H1872 H 0.83757 0.48972 0.10185 0.0
H1873 H 0.79432 0.50013 0.1004 0.0
H1874 H 0.811 0.58699 0.12058 0.0
C1875 C 0.71703 0.59704 0.1071 0.0
C1876 C 0.74689 0.54642 0.09409 0.0
C1877 C 0.68973 0.59887 0.10839 0.0
C1878 C 0.84227 0.51336 0.10336 0.0
C1879 C 0.81753 0.51941 0.1024 0.0
C1880 C 0.79355 0.57584 0.11299 0.0
C1881 C 0.71539 0.56848 0.10403 0.0
C1882 C 0.74402 0.56562 0.10349 0.0
C1883 C 0.82253 0.54976 0.10434 0.0
C1884 C 0.79598 0.55599 0.10379 0.0
H1885 H 0.63642 0.52271 0.10193 0.0
H1886 H 0.68357 0.51958 0.09979 0.0
H1887 H 0.76628 0.59515 0.12035 0.0
H1888 H 0.90075 0.58708 0.1104 0.0
H1889 H 0.85778 0.59765 0.10853 0.0
C1890 C 0.35474 0.54014 0.94371 0.0
C1891 C 0.36105 0.51959 0.93663 0.0
C1892 C 0.32396 0.53408 0.94508 0.0
C1893 C 0.24547 0.48784 0.92966 0.0
H1894 H 0.21711 0.51064 0.9609 0.0
C1895 C 0.11709 0.4573 0.93585 0.0
C1896 C 0.11293 0.48217 0.93983 0.0
C1897 C 0.14653 0.45975 0.93667 0.0
C1898 C 0.22473 0.50422 0.9521 0.0
H1899 H 0.33998 0.47577 0.92605 0.0
H1900 H 0.28654 0.46479 0.92867 0.0
H1901 H 0.27019 0.51915 0.96003 0.0
H1902 H 0.13621 0.52855 0.94841 0.0
H1903 H 0.18728 0.53262 0.94994 0.0
H1904 H 0.20001 0.47285 0.92175 0.0
C1905 C 0.30524 0.48616 0.93281 0.0
C1906 C 0.25523 0.50923 0.95157 0.0
C1907 C 0.33591 0.49237 0.93134 0.0
C1908 C 0.13855 0.50895 0.94521 0.0
C1909 C 0.16785 0.51125 0.94615 0.0
C1910 C 0.21496 0.4826 0.93024 0.0
C1911 C 0.2988 0.50715 0.9395 0.0
C1912 C 0.26609 0.50126 0.9403 0.0
C1913 C 0.17237 0.48697 0.94164 0.0
C1914 C 0.20426 0.49089 0.94143 0.0
H1915 H 0.37366 0.56136 0.94785 0.0
H1916 H 0.32004 0.55097 0.95019 0.0
H1917 H 0.25306 0.48199 0.9207 0.0
H1918 H 0.0979 0.43637 0.93164 0.0
H1919 H 0.14919 0.44049 0.93324 0.0
C1920 C 0.57215 0.87132 0.92919 0.0
C1921 C 0.54521 0.86939 0.93472 0.0
C1922 C 0.57871 0.84712 0.93084 0.0
C1923 C 0.55735 0.77551 0.95055 0.0
H1924 H 0.5919 0.75458 0.92075 0.0
C1925 C 0.55578 0.6582 0.94532 0.0
C1926 C 0.58204 0.65851 0.93985 0.0
C1927 C 0.55405 0.68552 0.946 0.0
C1928 C 0.58269 0.7604 0.92924 0.0
H1929 H 0.50427 0.8407 0.94651 0.0
H1930 H 0.51524 0.79796 0.94918 0.0
H1931 H 0.58277 0.79849 0.91929 0.0
H1932 H 0.62753 0.68814 0.93115 0.0
H1933 H 0.6244 0.73598 0.93224 0.0
H1934 H 0.55641 0.73658 0.96031 0.0
C1935 C 0.53169 0.81848 0.94375 0.0
C1936 C 0.57745 0.78565 0.92842 0.0
C1937 C 0.52529 0.84292 0.94219 0.0
C1938 C 0.60702 0.68709 0.93545 0.0
C1939 C 0.60512 0.71443 0.93599 0.0
C1940 C 0.56236 0.75005 0.95133 0.0
C1941 C 0.55836 0.82011 0.93797 0.0
C1942 C 0.56458 0.79353 0.93904 0.0
C1943 C 0.57839 0.71385 0.94109 0.0
C1944 C 0.57495 0.7421 0.94065 0.0
H1945 H 0.58829 0.89169 0.92359 0.0
H1946 H 0.59985 0.84968 0.92652 0.0
H1947 H 0.54793 0.78111 0.95902 0.0
H1948 H 0.53613 0.63663 0.94886 0.0
H1949 H 0.53304 0.68418 0.94989 0.0
C1950 C 0.37517 0.94544 0.93704 0.0
C1951 C 0.40461 0.94833 0.93917 0.0
C1952 C 0.34784 0.91622 0.93808 0.0
C1953 C 0.31728 0.83555 0.95114 0.0
H1954 H 0.25501 0.8122 0.92383 0.0
C1955 C 0.22278 0.70709 0.94127 0.0
C1956 C 0.19254 0.70079 0.93801 0.0
C1957 C 0.24742 0.73792 0.94239 0.0
C1958 C 0.27194 0.81845 0.93164 0.0
H1959 H 0.42815 0.92275 0.94452 0.0
H1960 H 0.38096 0.87232 0.94622 0.0
H1961 H 0.29962 0.86517 0.9244 0.0
H1962 H 0.16467 0.7222 0.93328 0.0
H1963 H 0.20744 0.77581 0.93542 0.0
H1964 H 0.28989 0.78867 0.95824 0.0
C1965 C 0.37876 0.8925 0.94385 0.0
C1966 C 0.29752 0.84889 0.93199 0.0
C1967 C 0.40595 0.92153 0.94277 0.0
C1968 C 0.18754 0.72613 0.93598 0.0
C1969 C 0.21218 0.75692 0.93705 0.0
C1970 C 0.29176 0.80512 0.95078 0.0
C1971 C 0.34935 0.88931 0.94136 0.0
C1972 C 0.32075 0.85774 0.94164 0.0
C1973 C 0.24247 0.76323 0.9402 0.0
C1974 C 0.26893 0.79605 0.94094 0.0
H1975 H 0.37325 0.96555 0.93424 0.0
H1976 H 0.32554 0.91467 0.93624 0.0
H1977 H 0.33442 0.84167 0.95885 0.0
H1978 H 0.22744 0.68817 0.94297 0.0
H1979 H 0.27051 0.7419 0.9447 0.0
C1980 C 0.16338 0.66385 0.45018 0.0
C1981 C 0.19096 0.68942 0.44534 0.0
C1982 C 0.15741 0.63331 0.44846 0.0
C1983 C 0.18233 0.58481 0.42963 0.0
H1984 H 0.14344 0.52732 0.45859 0.0
C1985 C 0.18177 0.46773 0.43506 0.0
C1986 C 0.15458 0.44167 0.43994 0.0
C1987 C 0.18411 0.49709 0.43439 0.0
C1988 C 0.15391 0.54292 0.45033 0.0
H1989 H 0.23366 0.70289 0.43467 0.0
H1990 H 0.22368 0.64953 0.43188 0.0
H1991 H 0.15228 0.58022 0.46012 0.0
H1992 H 0.10811 0.42599 0.44754 0.0
H1993 H 0.11228 0.47736 0.44642 0.0
H1994 H 0.18473 0.54748 0.42004 0.0
C1995 C 0.20632 0.65302 0.43683 0.0
C1996 C 0.15898 0.57334 0.45119 0.0
C1997 C 0.21214 0.68366 0.43845 0.0
C1998 C 0.12936 0.4455 0.44371 0.0
C1999 C 0.13184 0.475 0.44317 0.0
C2000 C 0.17748 0.5544 0.42882 0.0
C2001 C 0.179 0.62742 0.44195 0.0
C2002 C 0.1733 0.59479 0.44086 0.0
C2003 C 0.15944 0.50124 0.43869 0.0
C2004 C 0.16326 0.5331 0.43918 0.0
H2005 H 0.14628 0.66747 0.45531 0.0
H2006 H 0.13576 0.6143 0.45225 0.0
H2007 H 0.19296 0.6004 0.42138 0.0
H2008 H 0.20164 0.46566 0.43203 0.0
H2009 H 0.20576 0.51681 0.43098 0.0
C2010 C 0.61695 0.70392 0.44174 0.0
C2011 C 0.61973 0.73332 0.43963 0.0
C2012 C 0.58778 0.67654 0.44072 0.0
C2013 C 0.50691 0.64577 0.42786 0.0
H2014 H 0.48414 0.58348 0.45514 0.0
C2015 C 0.37872 0.55064 0.43796 0.0
C2016 C 0.3727 0.52042 0.4411 0.0
C2017 C 0.40946 0.57546 0.43683 0.0
C2018 C 0.49022 0.60042 0.44734 0.0
H2019 H 0.59401 0.75673 0.43431 0.0
H2020 H 0.54366 0.70945 0.43266 0.0
H2021 H 0.537 0.62822 0.45446 0.0
H2022 H 0.39448 0.49281 0.44565 0.0
H2023 H 0.44792 0.53591 0.44351 0.0
H2024 H 0.45995 0.61824 0.42088 0.0
C2025 C 0.56389 0.70732 0.435 0.0
C2026 C 0.52061 0.62607 0.44693 0.0
C2027 C 0.59288 0.73457 0.43605 0.0
C2028 C 0.3982 0.51566 0.44303 0.0
C2029 C 0.4289 0.54047 0.44197 0.0
C2030 C 0.47652 0.62017 0.42829 0.0
C2031 C 0.5608 0.67795 0.43749 0.0
C2032 C 0.52926 0.64929 0.43728 0.0
C2033 C 0.43495 0.57073 0.4389 0.0
C2034 C 0.46768 0.59733 0.43811 0.0
H2035 H 0.63711 0.70208 0.44452 0.0
H2036 H 0.58632 0.65427 0.44256 0.0
H2037 H 0.51287 0.66289 0.42014 0.0
H2038 H 0.35966 0.55511 0.43633 0.0
H2039 H 0.41325 0.59852 0.43459 0.0
C2040 C 0.51258 0.85131 0.43738 0.0
C2041 C 0.53986 0.87263 0.44406 0.0
C2042 C 0.48793 0.85739 0.43575 0.0
C2043 C 0.45683 0.90584 0.44987 0.0
H2044 H 0.40354 0.87851 0.41918 0.0
C2045 C 0.35737 0.93397 0.44288 0.0
C2046 C 0.32824 0.90822 0.43956 0.0
C2047 C 0.38461 0.93193 0.44211 0.0
C2048 C 0.4182 0.88623 0.42782 0.0
H2049 H 0.5634 0.91777 0.45362 0.0
H2050 H 0.52104 0.92873 0.45052 0.0
H2051 H 0.44834 0.87042 0.42033 0.0
H2052 H 0.30516 0.86069 0.43219 0.0
H2053 H 0.35254 0.85733 0.43074 0.0
H2054 H 0.4267 0.92167 0.45734 0.0
C2055 C 0.51801 0.90681 0.44691 0.0
C2056 C 0.44382 0.88146 0.42852 0.0
C2057 C 0.54241 0.9006 0.44865 0.0
C2058 C 0.32718 0.88094 0.43488 0.0
C2059 C 0.35439 0.87905 0.43398 0.0
C2060 C 0.43143 0.91085 0.44912 0.0
C2061 C 0.49017 0.88509 0.44064 0.0
C2062 C 0.46338 0.89098 0.43961 0.0
C2063 C 0.38335 0.90426 0.43784 0.0
C2064 C 0.41164 0.90088 0.43814 0.0
H2065 H 0.50988 0.8295 0.43379 0.0
H2066 H 0.46679 0.83991 0.43099 0.0
H2067 H 0.47086 0.91296 0.45869 0.0
H2068 H 0.35901 0.95528 0.44654 0.0
H2069 H 0.40663 0.95187 0.44504 0.0
C2070 C 0.8082 0.84678 0.27552 0.0
C2071 C 0.78133 0.81829 0.27238 0.0
C2072 C 0.8373 0.8488 0.27666 0.0
C2073 C 0.88069 0.81012 0.26585 0.0
H2074 H 0.94131 0.8648 0.29149 0.0
C2075 C 1.00302 0.82233 0.27068 0.0
C2076 C 0.02855 0.85272 0.27233 0.0
C2077 C 0.97234 0.81653 0.27158 0.0
C2078 C 0.92475 0.84964 0.2842 0.0
H2079 H 0.76407 0.76931 0.26831 0.0
H2080 H 0.81504 0.77279 0.27041 0.0
H2081 H 0.88843 0.85666 0.29183 0.0
H2082 H 0.04162 0.90074 0.27644 0.0
H2083 H 0.98807 0.89069 0.27787 0.0
H2084 H 0.91714 0.80335 0.25814 0.0
C2085 C 0.81351 0.79368 0.27185 0.0
C2086 C 0.89439 0.84492 0.2844 0.0
C2087 C 0.78424 0.79162 0.27074 0.0
C2088 C 0.02255 0.8771 0.27504 0.0
C2089 C 0.99182 0.87127 0.27599 0.0
C2090 C 0.91106 0.8148 0.26566 0.0
C2091 C 0.84048 0.82241 0.2747 0.0
C2092 C 0.87205 0.82541 0.27513 0.0
C2093 C 0.96631 0.84093 0.27418 0.0
C2094 C 0.93359 0.8349 0.27475 0.0
H2095 H 0.80698 0.86787 0.27689 0.0
H2096 H 0.85752 0.87139 0.27869 0.0
H2097 H 0.86429 0.7953 0.25844 0.0
H2098 H 1.00672 0.80304 0.26841 0.0
H2099 H 0.9533 0.79284 0.27026 0.0
C2100 C 0.27369 0.01971 0.27167 0.0
C2101 C 0.24736 0.99021 0.274 0.0
C2102 C 0.27168 0.04693 0.2728 0.0
C2103 C 0.22165 0.07715 0.2862 0.0
H2104 H 0.25925 0.13898 0.25863 0.0
C2105 C 0.18611 0.17039 0.276 0.0
C2106 C 0.20983 0.20069 0.27266 0.0
C2107 C 0.19267 0.14604 0.27725 0.0
C2108 C 0.24894 0.12217 0.26651 0.0
H2109 H 0.19854 0.96646 0.27979 0.0
H2110 H 0.19505 0.01345 0.28161 0.0
H2111 H 0.26802 0.09467 0.25921 0.0
H2112 H 0.25907 0.22899 0.26795 0.0
H2113 H 0.27052 0.18667 0.27029 0.0
H2114 H 0.20204 0.10435 0.29333 0.0
C2115 C 0.21737 0.01579 0.27904 0.0
C2116 C 0.25405 0.09677 0.26686 0.0
C2117 C 0.21935 0.9887 0.2779 0.0
C2118 C 0.2403 0.20606 0.27071 0.0
C2119 C 0.24682 0.1817 0.27189 0.0
C2120 C 0.21647 0.10249 0.28582 0.0
C2121 C 0.24334 0.04525 0.27634 0.0
C2122 C 0.24015 0.0737 0.27662 0.0
C2123 C 0.22306 0.15133 0.27511 0.0
C2124 C 0.22976 0.12514 0.27589 0.0
H2125 H 0.29563 0.02176 0.26865 0.0
H2126 H 0.29226 0.06927 0.2708 0.0
H2127 H 0.21101 0.06015 0.29399 0.0
H2128 H 0.16245 0.16548 0.27765 0.0
H2129 H 0.17374 0.12287 0.27962 0.0
C2130 C 0.85777 0.06126 0.26314 0.0
C2131 C 0.85955 0.0358 0.26828 0.0
C2132 C 0.88224 0.09184 0.26491 0.0
C2133 C 0.95452 0.1407 0.28439 0.0
H2134 H 0.9751 0.19754 0.25503 0.0
C2135 C 0.0719 0.25684 0.27936 0.0
C2136 C 0.07154 0.28287 0.27397 0.0
C2137 C 0.04456 0.22776 0.28007 0.0
C2138 C 0.96939 0.18214 0.2634 0.0
H2139 H 0.88827 0.02256 0.27952 0.0
H2140 H 0.93148 0.07599 0.2824 0.0
H2141 H 0.93098 0.14467 0.2534 0.0
H2142 H 0.04176 0.29889 0.26553 0.0
H2143 H 0.99392 0.24797 0.26673 0.0
H2144 H 0.99373 0.17817 0.2942 0.0
C2145 C 0.91087 0.07238 0.27718 0.0
C2146 C 0.94402 0.15173 0.26248 0.0
C2147 C 0.88616 0.04171 0.2755 0.0
C2148 C 0.04288 0.27937 0.26976 0.0
C2149 C 1.01552 0.25014 0.27035 0.0
C2150 C 0.98009 0.1711 0.28527 0.0
C2151 C 0.90939 0.09787 0.27178 0.0
C2152 C 0.93622 0.13051 0.27295 0.0
C2153 C 1.01616 0.22387 0.27529 0.0
C2154 C 0.9879 0.19215 0.27476 0.0
H2155 H 0.8373 0.05754 0.25775 0.0
H2156 H 0.8798 0.11078 0.26089 0.0
H2157 H 0.949 0.12527 0.29274 0.0
H2158 H 0.09354 0.25868 0.28274 0.0
H2159 H 0.04595 0.20801 0.28385 0.0
C2160 C 0.7926 0.77571 0.77507 0.0
C2161 C 0.81914 0.77278 0.77304 0.0
C2162 C 0.79456 0.80493 0.77398 0.0
C2163 C 0.84512 0.88586 0.76121 0.0
H2164 H 0.80567 0.90859 0.78845 0.0
C2165 C 0.87931 0.01409 0.77181 0.0
C2166 C 0.85534 0.02036 0.77502 0.0
C2167 C 0.87301 0.98328 0.77048 0.0
C2168 C 0.81651 0.90252 0.78066 0.0
H2169 H 0.8683 0.79827 0.76778 0.0
H2170 H 0.87167 0.84874 0.76601 0.0
H2171 H 0.7972 0.85563 0.7877 0.0
H2172 H 0.80589 0.99893 0.77939 0.0
H2173 H 0.79488 0.94536 0.77688 0.0
H2174 H 0.86491 0.93297 0.75433 0.0
C2175 C 0.84925 0.82858 0.76834 0.0
C2176 C 0.81158 0.87208 0.78021 0.0
C2177 C 0.84733 0.79952 0.76945 0.0
C2178 C 0.82486 0.99503 0.77674 0.0
C2179 C 0.8186 0.96426 0.77546 0.0
C2180 C 0.85011 0.91632 0.76168 0.0
C2181 C 0.82305 0.83183 0.77078 0.0
C2182 C 0.82612 0.86344 0.77058 0.0
C2183 C 0.84261 0.95796 0.77239 0.0
C2184 C 0.83614 0.92514 0.7715 0.0
H2185 H 0.77053 0.75564 0.77786 0.0
H2186 H 0.77381 0.80651 0.77577 0.0
H2187 H 0.85628 0.87992 0.75352 0.0
H2188 H 0.90299 0.03302 0.77034 0.0
H2189 H 0.89213 0.9793 0.76823 0.0
C2190 C 0.25772 0.0688 0.7717 0.0
C2191 C 0.28461 0.0672 0.77483 0.0
C2192 C 0.22852 0.04174 0.77085 0.0
C2193 C 0.18508 0.9601 0.78234 0.0
H2194 H 0.12428 0.9532 0.75656 0.0
C2195 C 0.0628 0.84971 0.77807 0.0
C2196 C 0.03725 0.85448 0.77631 0.0
C2197 C 0.09346 0.8746 0.77706 0.0
C2198 C 0.14089 0.95487 0.76389 0.0
H2199 H 0.30175 0.0355 0.77924 0.0
H2200 H 0.2506 0.98806 0.77764 0.0
H2201 H 0.17716 0.99794 0.75597 0.0
H2202 H 0.02411 0.88925 0.77187 0.0
H2203 H 0.07763 0.93278 0.77025 0.0
H2204 H 0.1487 0.91715 0.79034 0.0
C2205 C 0.25221 1.01046 0.77599 0.0
C2206 C 0.17125 0.98052 0.76355 0.0
C2207 C 0.28157 0.03764 0.77681 0.0
C2208 C 0.0432 0.88477 0.77337 0.0
C2209 C 0.07391 0.90967 0.77231 0.0
C2210 C 0.15471 0.9344 0.78267 0.0
C2211 C 0.22526 0.01221 0.7731 0.0
C2212 C 0.19365 0.98368 0.77287 0.0
C2213 C 0.09944 0.90494 0.77423 0.0
C2214 C 0.13213 0.93163 0.77354 0.0
H2215 H 0.25902 0.09108 0.77009 0.0
H2216 H 0.20831 0.04411 0.76879 0.0
H2217 H 0.20155 0.96196 0.78979 0.0
H2218 H 0.05914 0.8268 0.78052 0.0
H2219 H 0.11253 0.87004 0.77848 0.0
C2220 C 0.20584 0.23052 0.78156 0.0
C2221 C 0.20545 0.20429 0.77601 0.0
C2222 C 0.18058 0.23549 0.77991 0.0
C2223 C 0.0962 0.19364 0.77325 0.0
H2224 H 0.10876 0.27645 0.7667 0.0
C2225 C 0.99119 0.21228 0.76626 0.0
C2226 C 0.99256 0.23856 0.7722 0.0
C2227 C 0.01787 0.20946 0.76529 0.0
C2228 C 0.1048 0.25322 0.76867 0.0
H2229 H 0.17823 0.16291 0.76424 0.0
H2230 H 0.13394 0.17155 0.76137 0.0
H2231 H 0.15374 0.26866 0.76775 0.0
H2232 H 0.02339 0.28304 0.78141 0.0
H2233 H 0.06993 0.2779 0.77998 0.0
H2234 H 0.04748 0.1782 0.77455 0.0
C2235 C 0.15385 0.1882 0.76705 0.0
C2236 C 0.13062 0.24874 0.76923 0.0
C2237 C 0.1793 0.18337 0.7686 0.0
C2238 C 0.02157 0.26259 0.7767 0.0
C2239 C 0.0483 0.25962 0.77585 0.0
C2240 C 0.07043 0.19813 0.77279 0.0
C2241 C 0.15413 0.21427 0.77274 0.0
C2242 C 0.12664 0.21891 0.77157 0.0
C2243 C 0.04666 0.23267 0.77039 0.0
C2244 C 0.07431 0.22799 0.77051 0.0
H2245 H 0.22579 0.24732 0.78718 0.0
H2246 H 0.18149 0.25564 0.78452 0.0
H2247 H 0.09232 0.17046 0.7753 0.0
H2248 H 0.96929 0.19346 0.76256 0.0
H2249 H 1.01575 0.18877 0.76069 0.0
C2250 C 0.47355 0.17461 0.61083 0.0
C2251 C 0.44761 0.14797 0.60555 0.0
C2252 C 0.50268 0.17653 0.61165 0.0
C2253 C 0.54894 0.14701 0.59565 0.0
H2254 H 0.60446 0.18332 0.62538 0.0
C2255 C 0.66982 0.15642 0.59655 0.0
C2256 C 0.69502 0.18364 0.60182 0.0
C2257 C 0.63916 0.15024 0.59806 0.0
C2258 C 0.58942 0.17346 0.61693 0.0
H2259 H 0.43187 0.10205 0.59734 0.0
H2260 H 0.48293 0.1055 0.59871 0.0
H2261 H 0.55154 0.17517 0.62633 0.0
H2262 H 0.70773 0.22547 0.61301 0.0
H2263 H 0.65416 0.21513 0.61542 0.0
H2264 H 0.58683 0.1461 0.58605 0.0
C2265 C 0.48062 0.12494 0.60218 0.0
C2266 C 0.55901 0.16866 0.61751 0.0
C2267 C 0.45132 0.12287 0.60148 0.0
C2268 C 0.68877 0.20423 0.6089 0.0
C2269 C 0.65802 0.1982 0.61031 0.0
C2270 C 0.57937 0.15204 0.59502 0.0
C2271 C 0.50674 0.15199 0.6071 0.0
C2272 C 0.53845 0.15547 0.60686 0.0
C2273 C 0.6328 0.17126 0.60477 0.0
C2274 C 0.60012 0.16541 0.60563 0.0
H2275 H 0.47155 0.19436 0.6141 0.0
H2276 H 0.52233 0.19778 0.6154 0.0
H2277 H 0.5339 0.13734 0.58718 0.0
H2278 H 0.67382 0.13978 0.59126 0.0
H2279 H 0.62042 0.12888 0.59394 0.0
C2280 C 0.88603 0.32146 0.61026 0.0
C2281 C 0.91417 0.32297 0.60658 0.0
C2282 C 0.88413 0.34858 0.61148 0.0
C2283 C 0.92157 0.43009 0.59995 0.0
H2284 H 0.86887 0.43677 0.62634 0.0
C2285 C 0.90817 0.53952 0.60452 0.0
C2286 C 0.87773 0.53424 0.60648 0.0
C2287 C 0.91451 0.515 0.60548 0.0
C2288 C 0.88349 0.43517 0.61885 0.0
H2289 H 0.96272 0.35452 0.60167 0.0
H2290 H 0.95948 0.40212 0.60393 0.0
H2291 H 0.87759 0.39241 0.62673 0.0
H2292 H 0.8302 0.49898 0.61123 0.0
H2293 H 0.84118 0.4561 0.6128 0.0
H2294 H 0.9272 0.47272 0.59199 0.0
C2295 C 0.93875 0.37975 0.60572 0.0
C2296 C 0.88854 0.40974 0.61907 0.0
C2297 C 0.94069 0.35248 0.60452 0.0
C2298 C 0.85385 0.50384 0.60959 0.0
C2299 C 0.86023 0.47932 0.61061 0.0
C2300 C 0.91659 0.45558 0.59974 0.0
C2301 C 0.91032 0.37808 0.60907 0.0
C2302 C 0.90728 0.40661 0.60952 0.0
C2303 C 0.8906 0.48455 0.60847 0.0
C2304 C 0.89715 0.45824 0.60909 0.0
H2305 H 0.86508 0.2992 0.61196 0.0
H2306 H 0.86175 0.34626 0.6139 0.0
H2307 H 0.93577 0.42825 0.59232 0.0
H2308 H 0.92706 0.56253 0.60193 0.0
H2309 H 0.9382 0.51994 0.60389 0.0
C2310 C 0.52615 0.3929 0.59689 0.0
C2311 C 0.52769 0.36785 0.60263 0.0
C2312 C 0.55052 0.4236 0.59845 0.0
C2313 C 0.62183 0.47387 0.61826 0.0
H2314 H 0.64349 0.52892 0.5882 0.0
C2315 C 0.73904 0.59016 0.61306 0.0
C2316 C 0.73863 0.61583 0.6073 0.0
C2317 C 0.71182 0.56098 0.6138 0.0
C2318 C 0.63748 0.51402 0.59675 0.0
H2319 H 0.55588 0.35547 0.61471 0.0
H2320 H 0.59894 0.40911 0.61723 0.0
H2321 H 0.59963 0.47585 0.58681 0.0
H2322 H 0.7089 0.63109 0.59818 0.0
H2323 H 0.6613 0.57997 0.59941 0.0
H2324 H 0.6605 0.51204 0.62803 0.0
C2325 C 0.57858 0.4051 0.61169 0.0
C2326 C 0.61225 0.4835 0.59597 0.0
C2327 C 0.55396 0.3743 0.61022 0.0
C2328 C 0.71004 0.61186 0.60271 0.0
C2329 C 0.68283 0.58252 0.60332 0.0
C2330 C 0.64727 0.50437 0.619 0.0
C2331 C 0.57733 0.43017 0.6057 0.0
C2332 C 0.60405 0.46292 0.6067 0.0
C2333 C 0.68353 0.55662 0.60867 0.0
C2334 C 0.65545 0.52478 0.60823 0.0
H2335 H 0.50593 0.38875 0.59119 0.0
H2336 H 0.54824 0.44222 0.59397 0.0
H2337 H 0.616 0.45896 0.6268 0.0
H2338 H 0.76062 0.59237 0.61674 0.0
H2339 H 0.71325 0.54152 0.6179 0.0
loop_
_geom_bond_atom_site_label_1
_geom_bond_atom_site_label_2
_geom_bond_distance
_geom_bond_site_symmetry_2
_ccdc_geom_bond_type
Gd0 C3 2.818 . S
Gd0 O20 2.377 . S
Gd0 O22 2.448 . S
Gd0 O23 2.506 . S
Gd0 O24 2.435 . S
Gd0 O25 2.717 1_545 S
Gd0 O27 2.395 1_545 S
Gd0 O31 2.327 . S
Gd1 C12 2.818 . S
Gd1 O21 2.395 1_565 S
Gd1 O25 2.327 . S
Gd1 O26 2.377 . S
Gd1 O28 2.448 . S
Gd1 O29 2.506 . S
Gd1 O30 2.435 . S
Gd1 O31 2.717 1_565 S
C2 O20 1.240 . S
C2 O21 1.240 . S
C3 Gd0 2.818 . S
C3 C4 1.510 . S
C3 O22 1.249 . S
C3 O23 1.252 . S
C4 C3 1.510 . S
C4 C5 1.404 . S
C4 C6 1.352 . S
C5 C4 1.404 . S
C5 C9 1.389 . S
C5 H32 0.930 . S
C6 C4 1.352 . S
C6 C8 1.374 . S
C6 H33 0.931 . S
C7 C8 1.359 . S
C7 C9 1.364 . S
C8 C6 1.374 . S
C8 C7 1.359 . S
C8 H34 0.931 . S
C9 C5 1.389 . S
C9 C7 1.364 . S
C9 H35 0.931 . S
C10 O24 1.256 . S
C10 O25 1.257 1_545 S
C11 O26 1.240 . S
C11 O27 1.240 . S
C12 Gd1 2.818 . S
C12 C13 1.510 . S
C12 O28 1.249 . S
C12 O29 1.252 . S
C13 C12 1.510 . S
C13 C14 1.404 . S
C13 C15 1.352 . S
C14 C13 1.404 . S
C14 C18 1.389 . S
C14 H36 0.930 . S
C15 C13 1.352 . S
C15 C17 1.374 . S
C15 H37 0.931 . S
C16 C17 1.359 . S
C16 C18 1.364 . S
C17 C15 1.374 . S
C17 C16 1.359 . S
C17 H38 0.931 . S
C18 C14 1.389 . S
C18 C16 1.364 . S
C18 H39 0.931 . S
C19 O30 1.256 1_545 S
C19 O31 1.257 . S
O20 Gd0 2.377 . S
O20 C2 1.240 . S
O21 Gd1 2.395 1_545 S
O21 C2 1.240 . S
O22 Gd0 2.448 . S
O22 C3 1.249 . S
O23 Gd0 2.506 . S
O23 C3 1.252 . S
O24 Gd0 2.435 . S
O24 C10 1.256 . S
O25 Gd0 2.717 1_565 S
O25 Gd1 2.327 . S
O25 C10 1.257 1_565 S
O26 Gd1 2.377 . S
O26 C11 1.240 . S
O27 Gd0 2.395 1_565 S
O27 C11 1.240 . S
O28 Gd1 2.448 . S
O28 C12 1.249 . S
O29 Gd1 2.506 . S
O29 C12 1.252 . S
O30 Gd1 2.435 . S
O30 C19 1.256 1_565 S
O31 Gd0 2.327 . S
O31 Gd1 2.717 1_545 S
O31 C19 1.257 . S
H32 C5 0.930 . S
H33 C6 0.931 . S
H34 C8 0.931 . S
H35 C9 0.931 . S
H36 C14 0.930 . S
H37 C15 0.931 . S
H38 C17 0.931 . S
H39 C18 0.931 . S
Gd40 C43 2.818 1_455 S
Gd40 O60 2.377 1_455 S
Gd40 O62 2.448 1_455 S
Gd40 O63 2.506 1_455 S
Gd40 O64 2.435 . S
Gd40 O65 2.717 . S
Gd40 O67 2.395 . S
Gd40 O71 2.327 . S
Gd41 C52 2.818 . S
Gd41 O61 2.395 1_455 S
Gd41 O65 2.327 . S
Gd41 O66 2.377 . S
Gd41 O68 2.448 . S
Gd41 O69 2.506 . S
Gd41 O70 2.435 . S
Gd41 O71 2.717 . S
C42 O60 1.240 . S
C42 O61 1.240 . S
C43 Gd40 2.818 1_655 S
C43 C44 1.510 . S
C43 O62 1.249 . S
C43 O63 1.252 . S
C44 C43 1.510 . S
C44 C45 1.404 . S
C44 C46 1.352 . S
C45 C44 1.404 . S
C45 C49 1.389 . S
C45 H72 0.930 . S
C46 C44 1.352 . S
C46 C48 1.374 . S
C46 H73 0.931 . S
C47 C48 1.359 . S
C47 C49 1.364 . S
C48 C46 1.374 . S
C48 C47 1.359 . S
C48 H74 0.931 . S
C49 C45 1.389 . S
C49 C47 1.364 . S
C49 H75 0.931 . S
C50 O64 1.256 . S
C50 O65 1.257 . S
C51 O66 1.240 . S
C51 O67 1.240 . S
C52 Gd41 2.818 . S
C52 C53 1.510 . S
C52 O68 1.249 . S
C52 O69 1.252 . S
C53 C52 1.510 . S
C53 C54 1.404 . S
C53 C55 1.352 . S
C54 C53 1.404 . S
C54 C58 1.389 . S
C54 H76 0.930 . S
C55 C53 1.352 . S
C55 C57 1.374 . S
C55 H77 0.931 . S
C56 C57 1.359 . S
C56 C58 1.364 . S
C57 C55 1.374 . S
C57 C56 1.359 . S
C57 H78 0.931 . S
C58 C54 1.389 . S
C58 C56 1.364 . S
C58 H79 0.931 . S
C59 O70 1.256 . S
C59 O71 1.257 . S
O60 Gd40 2.377 1_655 S
O60 C42 1.240 . S
O61 Gd41 2.395 1_655 S
O61 C42 1.240 . S
O62 Gd40 2.448 1_655 S
O62 C43 1.249 . S
O63 Gd40 2.506 1_655 S
O63 C43 1.252 . S
O64 Gd40 2.435 . S
O64 C50 1.256 . S
O65 Gd40 2.717 . S
O65 Gd41 2.327 . S
O65 C50 1.257 . S
O66 Gd41 2.377 . S
O66 C51 1.240 . S
O67 Gd40 2.395 . S
O67 C51 1.240 . S
O68 Gd41 2.448 . S
O68 C52 1.249 . S
O69 Gd41 2.506 . S
O69 C52 1.252 . S
O70 Gd41 2.435 . S
O70 C59 1.256 . S
O71 Gd40 2.327 . S
O71 Gd41 2.717 . S
O71 C59 1.257 . S
H72 C45 0.930 . S
H73 C46 0.931 . S
H74 C48 0.931 . S
H75 C49 0.931 . S
H76 C54 0.930 . S
H77 C55 0.931 . S
H78 C57 0.931 . S
H79 C58 0.931 . S
Gd80 C83 2.818 . S
Gd80 O100 2.377 . S
Gd80 O102 2.448 . S
Gd80 O103 2.506 . S
Gd80 O104 2.435 . S
Gd80 O105 2.717 . S
Gd80 O107 2.395 . S
Gd80 O111 2.327 . S
Gd81 C92 2.818 . S
Gd81 O101 2.395 . S
Gd81 O105 2.327 . S
Gd81 O106 2.377 . S
Gd81 O108 2.448 . S
Gd81 O109 2.506 . S
Gd81 O110 2.435 . S
Gd81 O111 2.717 . S
C82 O100 1.240 . S
C82 O101 1.240 . S
C83 Gd80 2.818 . S
C83 C84 1.510 . S
C83 O102 1.249 . S
C83 O103 1.252 . S
C84 C83 1.510 . S
C84 C85 1.404 . S
C84 C86 1.352 . S
C85 C84 1.404 . S
C85 C89 1.389 . S
C85 H112 0.930 . S
C86 C84 1.352 . S
C86 C88 1.374 . S
C86 H113 0.931 . S
C87 C88 1.359 . S
C87 C89 1.364 . S
C88 C86 1.374 . S
C88 C87 1.359 . S
C88 H114 0.931 . S
C89 C85 1.389 . S
C89 C87 1.364 . S
C89 H115 0.931 . S
C90 O104 1.256 . S
C90 O105 1.257 . S
C91 O106 1.240 . S
C91 O107 1.240 . S
C92 Gd81 2.818 . S
C92 C93 1.510 . S
C92 O108 1.249 . S
C92 O109 1.252 . S
C93 C92 1.510 . S
C93 C94 1.404 . S
C93 C95 1.352 . S
C94 C93 1.404 . S
C94 C98 1.389 . S
C94 H116 0.930 . S
C95 C93 1.352 . S
C95 C97 1.374 . S
C95 H117 0.931 . S
C96 C97 1.359 . S
C96 C98 1.364 . S
C97 C95 1.374 . S
C97 C96 1.359 . S
C97 H118 0.931 . S
C98 C94 1.389 . S
C98 C96 1.364 . S
C98 H119 0.931 . S
C99 O110 1.256 . S
C99 O111 1.257 . S
O100 Gd80 2.377 . S
O100 C82 1.240 . S
O101 Gd81 2.395 . S
O101 C82 1.240 . S
O102 Gd80 2.448 . S
O102 C83 1.249 . S
O103 Gd80 2.506 . S
O103 C83 1.252 . S
O104 Gd80 2.435 . S
O104 C90 1.256 . S
O105 Gd80 2.717 . S
O105 Gd81 2.327 . S
O105 C90 1.257 . S
O106 Gd81 2.377 . S
O106 C91 1.240 . S
O107 Gd80 2.395 . S
O107 C91 1.240 . S
O108 Gd81 2.448 . S
O108 C92 1.249 . S
O109 Gd81 2.506 . S
O109 C92 1.252 . S
O110 Gd81 2.435 . S
O110 C99 1.256 . S
O111 Gd80 2.327 . S
O111 Gd81 2.717 . S
O111 C99 1.257 . S
H112 C85 0.930 . S
H113 C86 0.931 . S
H114 C88 0.931 . S
H115 C89 0.931 . S
H116 C94 0.930 . S
H117 C95 0.931 . S
H118 C97 0.931 . S
H119 C98 0.931 . S
Gd120 C123 2.818 . S
Gd120 O140 2.377 . S
Gd120 O142 2.448 . S
Gd120 O143 2.506 . S
Gd120 O144 2.435 . S
Gd120 O145 2.717 1_455 S
Gd120 O147 2.395 1_455 S
Gd120 O151 2.327 . S
Gd121 C132 2.818 . S
Gd121 O141 2.395 1_655 S
Gd121 O145 2.327 . S
Gd121 O146 2.377 . S
Gd121 O148 2.448 . S
Gd121 O149 2.506 . S
Gd121 O150 2.435 . S
Gd121 O151 2.717 1_655 S
C122 O140 1.240 . S
C122 O141 1.240 . S
C123 Gd120 2.818 . S
C123 C124 1.510 . S
C123 O142 1.249 . S
C123 O143 1.252 . S
C124 C123 1.510 . S
C124 C125 1.404 . S
C124 C126 1.352 . S
C125 C124 1.404 . S
C125 C129 1.389 . S
C125 H152 0.930 . S
C126 C124 1.352 . S
C126 C128 1.374 . S
C126 H153 0.931 . S
C127 C128 1.359 . S
C127 C129 1.364 . S
C128 C126 1.374 . S
C128 C127 1.359 . S
C128 H154 0.931 . S
C129 C125 1.389 . S
C129 C127 1.364 . S
C129 H155 0.931 . S
C130 O144 1.256 . S
C130 O145 1.257 1_455 S
C131 O146 1.240 . S
C131 O147 1.240 . S
C132 Gd121 2.818 . S
C132 C133 1.510 . S
C132 O148 1.249 . S
C132 O149 1.252 . S
C133 C132 1.510 . S
C133 C134 1.404 . S
C133 C135 1.352 . S
C134 C133 1.404 . S
C134 C138 1.389 . S
C134 H156 0.930 . S
C135 C133 1.352 . S
C135 C137 1.374 . S
C135 H157 0.931 . S
C136 C137 1.359 . S
C136 C138 1.364 . S
C137 C135 1.374 . S
C137 C136 1.359 . S
C137 H158 0.931 . S
C138 C134 1.389 . S
C138 C136 1.364 . S
C138 H159 0.931 . S
C139 O150 1.256 1_455 S
C139 O151 1.257 . S
O140 Gd120 2.377 . S
O140 C122 1.240 . S
O141 Gd121 2.395 1_455 S
O141 C122 1.240 . S
O142 Gd120 2.448 . S
O142 C123 1.249 . S
O143 Gd120 2.506 . S
O143 C123 1.252 . S
O144 Gd120 2.435 . S
O144 C130 1.256 . S
O145 Gd120 2.717 1_655 S
O145 Gd121 2.327 . S
O145 C130 1.257 1_655 S
O146 Gd121 2.377 . S
O146 C131 1.240 . S
O147 Gd120 2.395 1_655 S
O147 C131 1.240 . S
O148 Gd121 2.448 . S
O148 C132 1.249 . S
O149 Gd121 2.506 . S
O149 C132 1.252 . S
O150 Gd121 2.435 . S
O150 C139 1.256 1_655 S
O151 Gd120 2.327 . S
O151 Gd121 2.717 1_455 S
O151 C139 1.257 . S
H152 C125 0.930 . S
H153 C126 0.931 . S
H154 C128 0.931 . S
H155 C129 0.931 . S
H156 C134 0.930 . S
H157 C135 0.931 . S
H158 C137 0.931 . S
H159 C138 0.931 . S
Gd160 C163 2.818 . S
Gd160 O180 2.377 . S
Gd160 O182 2.448 . S
Gd160 O183 2.506 . S
Gd160 O184 2.435 . S
Gd160 O185 2.717 . S
Gd160 O187 2.395 . S
Gd160 O191 2.327 . S
Gd161 C172 2.818 . S
Gd161 O181 2.395 . S
Gd161 O185 2.327 . S
Gd161 O186 2.377 . S
Gd161 O188 2.448 . S
Gd161 O189 2.506 . S
Gd161 O190 2.435 . S
Gd161 O191 2.717 . S
C162 O180 1.240 . S
C162 O181 1.240 . S
C163 Gd160 2.818 . S
C163 C164 1.510 . S
C163 O182 1.249 . S
C163 O183 1.252 . S
C164 C163 1.510 . S
C164 C165 1.404 . S
C164 C166 1.352 . S
C165 C164 1.404 . S
C165 C169 1.389 . S
C165 H192 0.930 . S
C166 C164 1.352 . S
C166 C168 1.374 . S
C166 H193 0.931 . S
C167 C168 1.359 . S
C167 C169 1.364 . S
C168 C166 1.374 . S
C168 C167 1.359 . S
C168 H194 0.931 . S
C169 C165 1.389 . S
C169 C167 1.364 . S
C169 H195 0.931 . S
C170 O184 1.256 . S
C170 O185 1.257 . S
C171 O186 1.240 . S
C171 O187 1.240 . S
C172 Gd161 2.818 . S
C172 C173 1.510 . S
C172 O188 1.249 . S
C172 O189 1.252 . S
C173 C172 1.510 . S
C173 C174 1.404 . S
C173 C175 1.352 . S
C174 C173 1.404 . S
C174 C178 1.389 . S
C174 H196 0.930 . S
C175 C173 1.352 . S
C175 C177 1.374 . S
C175 H197 0.931 . S
C176 C177 1.359 . S
C176 C178 1.364 . S
C177 C175 1.374 . S
C177 C176 1.359 . S
C177 H198 0.931 . S
C178 C174 1.389 . S
C178 C176 1.364 . S
C178 H199 0.931 . S
C179 O190 1.256 . S
C179 O191 1.257 . S
O180 Gd160 2.377 . S
O180 C162 1.240 . S
O181 Gd161 2.395 . S
O181 C162 1.240 . S
O182 Gd160 2.448 . S
O182 C163 1.249 . S
O183 Gd160 2.506 . S
O183 C163 1.252 . S
O184 Gd160 2.435 . S
O184 C170 1.256 . S
O185 Gd160 2.717 . S
O185 Gd161 2.327 . S
O185 C170 1.257 . S
O186 Gd161 2.377 . S
O186 C171 1.240 . S
O187 Gd160 2.395 . S
O187 C171 1.240 . S
O188 Gd161 2.448 . S
O188 C172 1.249 . S
O189 Gd161 2.506 . S
O189 C172 1.252 . S
O190 Gd161 2.435 . S
O190 C179 1.256 . S
O191 Gd160 2.327 . S
O191 Gd161 2.717 . S
O191 C179 1.257 . S
H192 C165 0.930 . S
H193 C166 0.931 . S
H194 C168 0.931 . S
H195 C169 0.931 . S
H196 C174 0.930 . S
H197 C175 0.931 . S
H198 C177 0.931 . S
H199 C178 0.931 . S
Gd200 C203 2.818 1_545 S
Gd200 O220 2.377 1_545 S
Gd200 O222 2.448 1_545 S
Gd200 O223 2.506 1_545 S
Gd200 O224 2.435 . S
Gd200 O225 2.717 . S
Gd200 O227 2.395 . S
Gd200 O231 2.327 . S
Gd201 C212 2.818 . S
Gd201 O221 2.395 1_545 S
Gd201 O225 2.327 . S
Gd201 O226 2.377 . S
Gd201 O228 2.448 . S
Gd201 O229 2.506 . S
Gd201 O230 2.435 . S
Gd201 O231 2.717 . S
C202 O220 1.240 . S
C202 O221 1.240 . S
C203 Gd200 2.818 1_565 S
C203 C204 1.510 . S
C203 O222 1.249 . S
C203 O223 1.252 . S
C204 C203 1.510 . S
C204 C205 1.404 . S
C204 C206 1.352 . S
C205 C204 1.404 . S
C205 C209 1.389 . S
C205 H232 0.930 . S
C206 C204 1.352 . S
C206 C208 1.374 . S
C206 H233 0.931 . S
C207 C208 1.359 . S
C207 C209 1.364 . S
C208 C206 1.374 . S
C208 C207 1.359 . S
C208 H234 0.931 . S
C209 C205 1.389 . S
C209 C207 1.364 . S
C209 H235 0.931 . S
C210 O224 1.256 . S
C210 O225 1.257 . S
C211 O226 1.240 . S
C211 O227 1.240 . S
C212 Gd201 2.818 . S
C212 C213 1.510 . S
C212 O228 1.249 . S
C212 O229 1.252 . S
C213 C212 1.510 . S
C213 C214 1.404 . S
C213 C215 1.352 . S
C214 C213 1.404 . S
C214 C218 1.389 . S
C214 H236 0.930 . S
C215 C213 1.352 . S
C215 C217 1.374 . S
C215 H237 0.931 . S
C216 C217 1.359 . S
C216 C218 1.364 . S
C217 C215 1.374 . S
C217 C216 1.359 . S
C217 H238 0.931 . S
C218 C214 1.389 . S
C218 C216 1.364 . S
C218 H239 0.931 . S
C219 O230 1.256 . S
C219 O231 1.257 . S
O220 Gd200 2.377 1_565 S
O220 C202 1.240 . S
O221 Gd201 2.395 1_565 S
O221 C202 1.240 . S
O222 Gd200 2.448 1_565 S
O222 C203 1.249 . S
O223 Gd200 2.506 1_565 S
O223 C203 1.252 . S
O224 Gd200 2.435 . S
O224 C210 1.256 . S
O225 Gd200 2.717 . S
O225 Gd201 2.327 . S
O225 C210 1.257 . S
O226 Gd201 2.377 . S
O226 C211 1.240 . S
O227 Gd200 2.395 . S
O227 C211 1.240 . S
O228 Gd201 2.448 . S
O228 C212 1.249 . S
O229 Gd201 2.506 . S
O229 C212 1.252 . S
O230 Gd201 2.435 . S
O230 C219 1.256 . S
O231 Gd200 2.327 . S
O231 Gd201 2.717 . S
O231 C219 1.257 . S
H232 C205 0.930 . S
H233 C206 0.931 . S
H234 C208 0.931 . S
H235 C209 0.931 . S
H236 C214 0.930 . S
H237 C215 0.931 . S
H238 C217 0.931 . S
H239 C218 0.931 . S
Gd240 C243 2.818 . S
Gd240 O260 2.377 . S
Gd240 O262 2.448 . S
Gd240 O263 2.506 . S
Gd240 O264 2.435 . S
Gd240 O265 2.717 . S
Gd240 O267 2.395 . S
Gd240 O271 2.327 . S
Gd241 C252 2.818 . S
Gd241 O261 2.395 . S
Gd241 O265 2.327 . S
Gd241 O266 2.377 . S
Gd241 O268 2.448 . S
Gd241 O269 2.506 . S
Gd241 O270 2.435 . S
Gd241 O271 2.717 . S
C242 O260 1.240 . S
C242 O261 1.240 . S
C243 Gd240 2.818 . S
C243 C244 1.510 . S
C243 O262 1.249 . S
C243 O263 1.252 . S
C244 C243 1.510 . S
C244 C245 1.404 . S
C244 C246 1.352 . S
C245 C244 1.404 . S
C245 C249 1.389 . S
C245 H272 0.930 . S
C246 C244 1.352 . S
C246 C248 1.374 . S
C246 H273 0.931 . S
C247 C248 1.359 . S
C247 C249 1.364 . S
C248 C246 1.374 . S
C248 C247 1.359 . S
C248 H274 0.931 . S
C249 C245 1.389 . S
C249 C247 1.364 . S
C249 H275 0.931 . S
C250 O264 1.256 . S
C250 O265 1.257 . S
C251 O266 1.240 . S
C251 O267 1.240 . S
C252 Gd241 2.818 . S
C252 C253 1.510 . S
C252 O268 1.249 . S
C252 O269 1.252 . S
C253 C252 1.510 . S
C253 C254 1.404 . S
C253 C255 1.352 . S
C254 C253 1.404 . S
C254 C258 1.389 1_455 S
C254 H276 0.930 . S
C255 C253 1.352 . S
C255 C257 1.374 . S
C255 H277 0.931 . S
C256 C257 1.359 1_655 S
C256 C258 1.364 . S
C257 C255 1.374 . S
C257 C256 1.359 1_455 S
C257 H278 0.931 1_455 S
C258 C254 1.389 1_655 S
C258 C256 1.364 . S
C258 H279 0.931 . S
C259 O270 1.256 . S
C259 O271 1.257 . S
O260 Gd240 2.377 . S
O260 C242 1.240 . S
O261 Gd241 2.395 . S
O261 C242 1.240 . S
O262 Gd240 2.448 . S
O262 C243 1.249 . S
O263 Gd240 2.506 . S
O263 C243 1.252 . S
O264 Gd240 2.435 . S
O264 C250 1.256 . S
O265 Gd240 2.717 . S
O265 Gd241 2.327 . S
O265 C250 1.257 . S
O266 Gd241 2.377 . S
O266 C251 1.240 . S
O267 Gd240 2.395 . S
O267 C251 1.240 . S
O268 Gd241 2.448 . S
O268 C252 1.249 . S
O269 Gd241 2.506 . S
O269 C252 1.252 . S
O270 Gd241 2.435 . S
O270 C259 1.256 . S
O271 Gd240 2.327 . S
O271 Gd241 2.717 . S
O271 C259 1.257 . S
H272 C245 0.930 . S
H273 C246 0.931 . S
H274 C248 0.931 . S
H275 C249 0.931 . S
H276 C254 0.930 . S
H277 C255 0.931 . S
H278 C257 0.931 1_655 S
H279 C258 0.931 . S
Gd280 C283 2.818 . S
Gd280 O300 2.377 . S
Gd280 O302 2.448 . S
Gd280 O303 2.506 . S
Gd280 O304 2.435 . S
Gd280 O305 2.717 . S
Gd280 O307 2.395 . S
Gd280 O311 2.327 . S
Gd281 C292 2.818 . S
Gd281 O301 2.395 . S
Gd281 O305 2.327 . S
Gd281 O306 2.377 . S
Gd281 O308 2.448 . S
Gd281 O309 2.506 . S
Gd281 O310 2.435 . S
Gd281 O311 2.717 . S
C282 O300 1.240 . S
C282 O301 1.240 . S
C283 Gd280 2.818 . S
C283 C284 1.510 . S
C283 O302 1.249 . S
C283 O303 1.252 . S
C284 C283 1.510 . S
C284 C285 1.404 . S
C284 C286 1.352 . S
C285 C284 1.404 . S
C285 C289 1.389 . S
C285 H312 0.930 . S
C286 C284 1.352 . S
C286 C288 1.374 . S
C286 H313 0.931 . S
C287 C288 1.359 . S
C287 C289 1.364 . S
C288 C286 1.374 . S
C288 C287 1.359 . S
C288 H314 0.931 . S
C289 C285 1.389 . S
C289 C287 1.364 . S
C289 H315 0.931 . S
C290 O304 1.256 . S
C290 O305 1.257 . S
C291 O306 1.240 . S
C291 O307 1.240 . S
C292 Gd281 2.818 . S
C292 C293 1.510 . S
C292 O308 1.249 . S
C292 O309 1.252 . S
C293 C292 1.510 . S
C293 C294 1.404 . S
C293 C295 1.352 . S
C294 C293 1.404 . S
C294 C298 1.389 . S
C294 H316 0.930 . S
C295 C293 1.352 . S
C295 C297 1.374 . S
C295 H317 0.931 . S
C296 C297 1.359 . S
C296 C298 1.364 . S
C297 C295 1.374 . S
C297 C296 1.359 . S
C297 H318 0.931 . S
C298 C294 1.389 . S
C298 C296 1.364 . S
C298 H319 0.931 . S
C299 O310 1.256 . S
C299 O311 1.257 . S
O300 Gd280 2.377 . S
O300 C282 1.240 . S
O301 Gd281 2.395 . S
O301 C282 1.240 . S
O302 Gd280 2.448 . S
O302 C283 1.249 . S
O303 Gd280 2.506 . S
O303 C283 1.252 . S
O304 Gd280 2.435 . S
O304 C290 1.256 . S
O305 Gd280 2.717 . S
O305 Gd281 2.327 . S
O305 C290 1.257 . S
O306 Gd281 2.377 . S
O306 C291 1.240 . S
O307 Gd280 2.395 . S
O307 C291 1.240 . S
O308 Gd281 2.448 . S
O308 C292 1.249 . S
O309 Gd281 2.506 . S
O309 C292 1.252 . S
O310 Gd281 2.435 . S
O310 C299 1.256 . S
O311 Gd280 2.327 . S
O311 Gd281 2.717 . S
O311 C299 1.257 . S
H312 C285 0.930 . S
H313 C286 0.931 . S
H314 C288 0.931 . S
H315 C289 0.931 . S
H316 C294 0.930 . S
H317 C295 0.931 . S
H318 C297 0.931 . S
H319 C298 0.931 . S
Gd320 C323 2.818 . S
Gd320 O340 2.377 . S
Gd320 O342 2.448 . S
Gd320 O343 2.506 . S
Gd320 O344 2.435 . S
Gd320 O345 2.717 . S
Gd320 O347 2.395 . S
Gd320 O351 2.327 . S
Gd321 C332 2.818 . S
Gd321 O341 2.395 . S
Gd321 O345 2.327 . S
Gd321 O346 2.377 . S
Gd321 O348 2.448 . S
Gd321 O349 2.506 . S
Gd321 O350 2.435 . S
Gd321 O351 2.717 . S
C322 O340 1.240 . S
C322 O341 1.240 . S
C323 Gd320 2.818 . S
C323 C324 1.510 . S
C323 O342 1.249 . S
C323 O343 1.252 . S
C324 C323 1.510 . S
C324 C325 1.404 . S
C324 C326 1.352 . S
C325 C324 1.404 . S
C325 C329 1.389 . S
C325 H352 0.930 . S
C326 C324 1.352 . S
C326 C328 1.374 . S
C326 H353 0.931 . S
C327 C328 1.359 . S
C327 C329 1.364 . S
C328 C326 1.374 . S
C328 C327 1.359 . S
C328 H354 0.931 . S
C329 C325 1.389 . S
C329 C327 1.364 . S
C329 H355 0.931 . S
C330 O344 1.256 . S
C330 O345 1.257 . S
C331 O346 1.240 . S
C331 O347 1.240 . S
C332 Gd321 2.818 . S
C332 C333 1.510 . S
C332 O348 1.249 . S
C332 O349 1.252 . S
C333 C332 1.510 . S
C333 C334 1.404 1_565 S
C333 C335 1.352 1_565 S
C334 C333 1.404 1_545 S
C334 C338 1.389 . S
C334 H356 0.930 . S
C335 C333 1.352 1_545 S
C335 C337 1.374 . S
C335 H357 0.931 1_545 S
C336 C337 1.359 . S
C336 C338 1.364 . S
C337 C335 1.374 . S
C337 C336 1.359 . S
C337 H358 0.931 . S
C338 C334 1.389 . S
C338 C336 1.364 . S
C338 H359 0.931 . S
C339 O350 1.256 . S
C339 O351 1.257 . S
O340 Gd320 2.377 . S
O340 C322 1.240 . S
O341 Gd321 2.395 . S
O341 C322 1.240 . S
O342 Gd320 2.448 . S
O342 C323 1.249 . S
O343 Gd320 2.506 . S
O343 C323 1.252 . S
O344 Gd320 2.435 . S
O344 C330 1.256 . S
O345 Gd320 2.717 . S
O345 Gd321 2.327 . S
O345 C330 1.257 . S
O346 Gd321 2.377 . S
O346 C331 1.240 . S
O347 Gd320 2.395 . S
O347 C331 1.240 . S
O348 Gd321 2.448 . S
O348 C332 1.249 . S
O349 Gd321 2.506 . S
O349 C332 1.252 . S
O350 Gd321 2.435 . S
O350 C339 1.256 . S
O351 Gd320 2.327 . S
O351 Gd321 2.717 . S
O351 C339 1.257 . S
H352 C325 0.930 . S
H353 C326 0.931 . S
H354 C328 0.931 . S
H355 C329 0.931 . S
H356 C334 0.930 . S
H357 C335 0.931 1_565 S
H358 C337 0.931 . S
H359 C338 0.931 . S
Gd360 C363 2.818 . S
Gd360 O380 2.377 . S
Gd360 O382 2.448 . S
Gd360 O383 2.506 . S
Gd360 O384 2.435 . S
Gd360 O385 2.717 . S
Gd360 O387 2.395 . S
Gd360 O391 2.327 . S
Gd361 C372 2.818 . S
Gd361 O381 2.395 . S
Gd361 O385 2.327 . S
Gd361 O386 2.377 . S
Gd361 O388 2.448 . S
Gd361 O389 2.506 . S
Gd361 O390 2.435 . S
Gd361 O391 2.717 . S
C362 O380 1.240 . S
C362 O381 1.240 . S
C363 Gd360 2.818 . S
C363 C364 1.510 . S
C363 O382 1.249 . S
C363 O383 1.252 . S
C364 C363 1.510 . S
C364 C365 1.404 . S
C364 C366 1.352 . S
C365 C364 1.404 . S
C365 C369 1.389 . S
C365 H392 0.930 . S
C366 C364 1.352 . S
C366 C368 1.374 . S
C366 H393 0.931 . S
C367 C368 1.359 . S
C367 C369 1.364 . S
C368 C366 1.374 . S
C368 C367 1.359 . S
C368 H394 0.931 . S
C369 C365 1.389 . S
C369 C367 1.364 . S
C369 H395 0.931 . S
C370 O384 1.256 . S
C370 O385 1.257 . S
C371 O386 1.240 . S
C371 O387 1.240 . S
C372 Gd361 2.818 . S
C372 C373 1.510 . S
C372 O388 1.249 . S
C372 O389 1.252 . S
C373 C372 1.510 . S
C373 C374 1.404 . S
C373 C375 1.352 . S
C374 C373 1.404 . S
C374 C378 1.389 . S
C374 H396 0.930 . S
C375 C373 1.352 . S
C375 C377 1.374 . S
C375 H397 0.931 . S
C376 C377 1.359 . S
C376 C378 1.364 . S
C377 C375 1.374 . S
C377 C376 1.359 . S
C377 H398 0.931 . S
C378 C374 1.389 . S
C378 C376 1.364 . S
C378 H399 0.931 . S
C379 O390 1.256 . S
C379 O391 1.257 . S
O380 Gd360 2.377 . S
O380 C362 1.240 . S
O381 Gd361 2.395 . S
O381 C362 1.240 . S
O382 Gd360 2.448 . S
O382 C363 1.249 . S
O383 Gd360 2.506 . S
O383 C363 1.252 . S
O384 Gd360 2.435 . S
O384 C370 1.256 . S
O385 Gd360 2.717 . S
O385 Gd361 2.327 . S
O385 C370 1.257 . S
O386 Gd361 2.377 . S
O386 C371 1.240 . S
O387 Gd360 2.395 . S
O387 C371 1.240 . S
O388 Gd361 2.448 . S
O388 C372 1.249 . S
O389 Gd361 2.506 . S
O389 C372 1.252 . S
O390 Gd361 2.435 . S
O390 C379 1.256 . S
O391 Gd360 2.327 . S
O391 Gd361 2.717 . S
O391 C379 1.257 . S
H392 C365 0.930 . S
H393 C366 0.931 . S
H394 C368 0.931 . S
H395 C369 0.931 . S
H396 C374 0.930 . S
H397 C375 0.931 . S
H398 C377 0.931 . S
H399 C378 0.931 . S
Gd400 C403 2.818 . S
Gd400 O420 2.377 . S
Gd400 O422 2.448 . S
Gd400 O423 2.506 . S
Gd400 O424 2.435 . S
Gd400 O425 2.717 . S
Gd400 O427 2.395 . S
Gd400 O431 2.327 . S
Gd401 C412 2.818 . S
Gd401 O421 2.395 . S
Gd401 O425 2.327 . S
Gd401 O426 2.377 . S
Gd401 O428 2.448 . S
Gd401 O429 2.506 . S
Gd401 O430 2.435 . S
Gd401 O431 2.717 . S
C402 O420 1.240 . S
C402 O421 1.240 . S
C403 Gd400 2.818 . S
C403 C404 1.510 . S
C403 O422 1.249 . S
C403 O423 1.252 . S
C404 C403 1.510 . S
C404 C405 1.404 . S
C404 C406 1.352 . S
C405 C404 1.404 . S
C405 C409 1.389 . S
C405 H432 0.930 . S
C406 C404 1.352 . S
C406 C408 1.374 . S
C406 H433 0.931 . S
C407 C408 1.359 . S
C407 C409 1.364 . S
C408 C406 1.374 . S
C408 C407 1.359 . S
C408 H434 0.931 . S
C409 C405 1.389 . S
C409 C407 1.364 . S
C409 H435 0.931 . S
C410 O424 1.256 . S
C410 O425 1.257 . S
C411 O426 1.240 . S
C411 O427 1.240 . S
C412 Gd401 2.818 . S
C412 C413 1.510 . S
C412 O428 1.249 . S
C412 O429 1.252 . S
C413 C412 1.510 . S
C413 C414 1.404 . S
C413 C415 1.352 . S
C414 C413 1.404 . S
C414 C418 1.389 . S
C414 H436 0.930 . S
C415 C413 1.352 . S
C415 C417 1.374 . S
C415 H437 0.931 . S
C416 C417 1.359 . S
C416 C418 1.364 . S
C417 C415 1.374 . S
C417 C416 1.359 . S
C417 H438 0.931 . S
C418 C414 1.389 . S
C418 C416 1.364 . S
C418 H439 0.931 . S
C419 O430 1.256 . S
C419 O431 1.257 . S
O420 Gd400 2.377 . S
O420 C402 1.240 . S
O421 Gd401 2.395 . S
O421 C402 1.240 . S
O422 Gd400 2.448 . S
O422 C403 1.249 . S
O423 Gd400 2.506 . S
O423 C403 1.252 . S
O424 Gd400 2.435 . S
O424 C410 1.256 . S
O425 Gd400 2.717 . S
O425 Gd401 2.327 . S
O425 C410 1.257 . S
O426 Gd401 2.377 . S
O426 C411 1.240 . S
O427 Gd400 2.395 . S
O427 C411 1.240 . S
O428 Gd401 2.448 . S
O428 C412 1.249 . S
O429 Gd401 2.506 . S
O429 C412 1.252 . S
O430 Gd401 2.435 . S
O430 C419 1.256 . S
O431 Gd400 2.327 . S
O431 Gd401 2.717 . S
O431 C419 1.257 . S
H432 C405 0.930 . S
H433 C406 0.931 . S
H434 C408 0.931 . S
H435 C409 0.931 . S
H436 C414 0.930 . S
H437 C415 0.931 . S
H438 C417 0.931 . S
H439 C418 0.931 . S
Gd440 C443 2.818 . S
Gd440 O460 2.377 . S
Gd440 O462 2.448 . S
Gd440 O463 2.506 . S
Gd440 O464 2.435 . S
Gd440 O465 2.717 . S
Gd440 O467 2.395 . S
Gd440 O471 2.327 . S
Gd441 C452 2.818 . S
Gd441 O461 2.395 . S
Gd441 O465 2.327 . S
Gd441 O466 2.377 . S
Gd441 O468 2.448 . S
Gd441 O469 2.506 . S
Gd441 O470 2.435 . S
Gd441 O471 2.717 . S
C442 O460 1.240 . S
C442 O461 1.240 . S
C443 Gd440 2.818 . S
C443 C444 1.510 . S
C443 O462 1.249 . S
C443 O463 1.252 . S
C444 C443 1.510 . S
C444 C445 1.404 . S
C444 C446 1.352 . S
C445 C444 1.404 . S
C445 C449 1.389 . S
C445 H472 0.930 . S
C446 C444 1.352 . S
C446 C448 1.374 . S
C446 H473 0.931 . S
C447 C448 1.359 . S
C447 C449 1.364 . S
C448 C446 1.374 . S
C448 C447 1.359 . S
C448 H474 0.931 . S
C449 C445 1.389 . S
C449 C447 1.364 . S
C449 H475 0.931 . S
C450 O464 1.256 . S
C450 O465 1.257 . S
C451 O466 1.240 . S
C451 O467 1.240 . S
C452 Gd441 2.818 . S
C452 C453 1.510 . S
C452 O468 1.249 . S
C452 O469 1.252 . S
C453 C452 1.510 . S
C453 C454 1.404 . S
C453 C455 1.352 . S
C454 C453 1.404 . S
C454 C458 1.389 . S
C454 H476 0.930 . S
C455 C453 1.352 . S
C455 C457 1.374 . S
C455 H477 0.931 . S
C456 C457 1.359 . S
C456 C458 1.364 . S
C457 C455 1.374 . S
C457 C456 1.359 . S
C457 H478 0.931 . S
C458 C454 1.389 . S
C458 C456 1.364 . S
C458 H479 0.931 . S
C459 O470 1.256 . S
C459 O471 1.257 . S
O460 Gd440 2.377 . S
O460 C442 1.240 . S
O461 Gd441 2.395 . S
O461 C442 1.240 . S
O462 Gd440 2.448 . S
O462 C443 1.249 . S
O463 Gd440 2.506 . S
O463 C443 1.252 . S
O464 Gd440 2.435 . S
O464 C450 1.256 . S
O465 Gd440 2.717 . S
O465 Gd441 2.327 . S
O465 C450 1.257 . S
O466 Gd441 2.377 . S
O466 C451 1.240 . S
O467 Gd440 2.395 . S
O467 C451 1.240 . S
O468 Gd441 2.448 . S
O468 C452 1.249 . S
O469 Gd441 2.506 . S
O469 C452 1.252 . S
O470 Gd441 2.435 . S
O470 C459 1.256 . S
O471 Gd440 2.327 . S
O471 Gd441 2.717 . S
O471 C459 1.257 . S
H472 C445 0.930 . S
H473 C446 0.931 . S
H474 C448 0.931 . S
H475 C449 0.931 . S
H476 C454 0.930 . S
H477 C455 0.931 . S
H478 C457 0.931 . S
H479 C458 0.931 . S
Gd480 C483 2.818 . S
Gd480 O500 2.377 . S
Gd480 O502 2.448 . S
Gd480 O503 2.506 . S
Gd480 O504 2.435 . S
Gd480 O505 2.717 . S
Gd480 O507 2.395 . S
Gd480 O511 2.327 . S
Gd481 C492 2.818 . S
Gd481 O501 2.395 . S
Gd481 O505 2.327 . S
Gd481 O506 2.377 . S
Gd481 O508 2.448 . S
Gd481 O509 2.506 . S
Gd481 O510 2.435 . S
Gd481 O511 2.717 . S
C482 O500 1.240 . S
C482 O501 1.240 . S
C483 Gd480 2.818 . S
C483 C484 1.510 . S
C483 O502 1.249 . S
C483 O503 1.252 . S
C484 C483 1.510 . S
C484 C485 1.404 . S
C484 C486 1.352 . S
C485 C484 1.404 . S
C485 C489 1.389 . S
C485 H512 0.930 . S
C486 C484 1.352 . S
C486 C488 1.374 . S
C486 H513 0.931 . S
C487 C488 1.359 . S
C487 C489 1.364 . S
C488 C486 1.374 . S
C488 C487 1.359 . S
C488 H514 0.931 . S
C489 C485 1.389 . S
C489 C487 1.364 . S
C489 H515 0.931 . S
C490 O504 1.256 . S
C490 O505 1.257 . S
C491 O506 1.240 . S
C491 O507 1.240 . S
C492 Gd481 2.818 . S
C492 C493 1.510 . S
C492 O508 1.249 . S
C492 O509 1.252 . S
C493 C492 1.510 . S
C493 C494 1.404 . S
C493 C495 1.352 . S
C494 C493 1.404 . S
C494 C498 1.389 . S
C494 H516 0.930 . S
C495 C493 1.352 . S
C495 C497 1.374 . S
C495 H517 0.931 . S
C496 C497 1.359 . S
C496 C498 1.364 . S
C497 C495 1.374 . S
C497 C496 1.359 . S
C497 H518 0.931 . S
C498 C494 1.389 . S
C498 C496 1.364 . S
C498 H519 0.931 . S
C499 O510 1.256 . S
C499 O511 1.257 . S
O500 Gd480 2.377 . S
O500 C482 1.240 . S
O501 Gd481 2.395 . S
O501 C482 1.240 . S
O502 Gd480 2.448 . S
O502 C483 1.249 . S
O503 Gd480 2.506 . S
O503 C483 1.252 . S
O504 Gd480 2.435 . S
O504 C490 1.256 . S
O505 Gd480 2.717 . S
O505 Gd481 2.327 . S
O505 C490 1.257 . S
O506 Gd481 2.377 . S
O506 C491 1.240 . S
O507 Gd480 2.395 . S
O507 C491 1.240 . S
O508 Gd481 2.448 . S
O508 C492 1.249 . S
O509 Gd481 2.506 . S
O509 C492 1.252 . S
O510 Gd481 2.435 . S
O510 C499 1.256 . S
O511 Gd480 2.327 . S
O511 Gd481 2.717 . S
O511 C499 1.257 . S
H512 C485 0.930 . S
H513 C486 0.931 . S
H514 C488 0.931 . S
H515 C489 0.931 . S
H516 C494 0.930 . S
H517 C495 0.931 . S
H518 C497 0.931 . S
H519 C498 0.931 . S
Gd520 C523 2.818 . S
Gd520 O540 2.377 . S
Gd520 O542 2.448 . S
Gd520 O543 2.506 . S
Gd520 O544 2.435 . S
Gd520 O545 2.717 . S
Gd520 O547 2.395 . S
Gd520 O551 2.327 . S
Gd521 C532 2.818 . S
Gd521 O541 2.395 . S
Gd521 O545 2.327 . S
Gd521 O546 2.377 . S
Gd521 O548 2.448 . S
Gd521 O549 2.506 . S
Gd521 O550 2.435 . S
Gd521 O551 2.717 . S
C522 O540 1.240 . S
C522 O541 1.240 . S
C523 Gd520 2.818 . S
C523 C524 1.510 . S
C523 O542 1.249 . S
C523 O543 1.252 . S
C524 C523 1.510 . S
C524 C525 1.404 . S
C524 C526 1.352 . S
C525 C524 1.404 . S
C525 C529 1.389 . S
C525 H552 0.930 . S
C526 C524 1.352 . S
C526 C528 1.374 . S
C526 H553 0.931 . S
C527 C528 1.359 . S
C527 C529 1.364 . S
C528 C526 1.374 . S
C528 C527 1.359 . S
C528 H554 0.931 . S
C529 C525 1.389 . S
C529 C527 1.364 . S
C529 H555 0.931 . S
C530 O544 1.256 . S
C530 O545 1.257 . S
C531 O546 1.240 . S
C531 O547 1.240 . S
C532 Gd521 2.818 . S
C532 C533 1.510 . S
C532 O548 1.249 . S
C532 O549 1.252 . S
C533 C532 1.510 . S
C533 C534 1.404 . S
C533 C535 1.352 . S
C534 C533 1.404 . S
C534 C538 1.389 . S
C534 H556 0.930 . S
C535 C533 1.352 . S
C535 C537 1.374 . S
C535 H557 0.931 . S
C536 C537 1.359 . S
C536 C538 1.364 . S
C537 C535 1.374 . S
C537 C536 1.359 . S
C537 H558 0.931 . S
C538 C534 1.389 . S
C538 C536 1.364 . S
C538 H559 0.931 . S
C539 O550 1.256 . S
C539 O551 1.257 . S
O540 Gd520 2.377 . S
O540 C522 1.240 . S
O541 Gd521 2.395 . S
O541 C522 1.240 . S
O542 Gd520 2.448 . S
O542 C523 1.249 . S
O543 Gd520 2.506 . S
O543 C523 1.252 . S
O544 Gd520 2.435 . S
O544 C530 1.256 . S
O545 Gd520 2.717 . S
O545 Gd521 2.327 . S
O545 C530 1.257 . S
O546 Gd521 2.377 . S
O546 C531 1.240 . S
O547 Gd520 2.395 . S
O547 C531 1.240 . S
O548 Gd521 2.448 . S
O548 C532 1.249 . S
O549 Gd521 2.506 . S
O549 C532 1.252 . S
O550 Gd521 2.435 . S
O550 C539 1.256 . S
O551 Gd520 2.327 . S
O551 Gd521 2.717 . S
O551 C539 1.257 . S
H552 C525 0.930 . S
H553 C526 0.931 . S
H554 C528 0.931 . S
H555 C529 0.931 . S
H556 C534 0.930 . S
H557 C535 0.931 . S
H558 C537 0.931 . S
H559 C538 0.931 . S
Gd560 C563 2.818 . S
Gd560 O580 2.377 . S
Gd560 O582 2.448 . S
Gd560 O583 2.506 . S
Gd560 O584 2.435 . S
Gd560 O585 2.717 . S
Gd560 O587 2.395 . S
Gd560 O591 2.327 . S
Gd561 C572 2.818 . S
Gd561 O581 2.395 . S
Gd561 O585 2.327 . S
Gd561 O586 2.377 . S
Gd561 O588 2.448 . S
Gd561 O589 2.506 . S
Gd561 O590 2.435 . S
Gd561 O591 2.717 . S
C562 O580 1.240 . S
C562 O581 1.240 . S
C563 Gd560 2.818 . S
C563 C564 1.510 . S
C563 O582 1.249 . S
C563 O583 1.252 . S
C564 C563 1.510 . S
C564 C565 1.404 . S
C564 C566 1.352 . S
C565 C564 1.404 . S
C565 C569 1.389 . S
C565 H592 0.930 . S
C566 C564 1.352 . S
C566 C568 1.374 . S
C566 H593 0.931 . S
C567 C568 1.359 . S
C567 C569 1.364 . S
C568 C566 1.374 . S
C568 C567 1.359 . S
C568 H594 0.931 . S
C569 C565 1.389 . S
C569 C567 1.364 . S
C569 H595 0.931 . S
C570 O584 1.256 . S
C570 O585 1.257 . S
C571 O586 1.240 . S
C571 O587 1.240 . S
C572 Gd561 2.818 . S
C572 C573 1.510 . S
C572 O588 1.249 . S
C572 O589 1.252 . S
C573 C572 1.510 . S
C573 C574 1.404 . S
C573 C575 1.352 . S
C574 C573 1.404 . S
C574 C578 1.389 . S
C574 H596 0.930 . S
C575 C573 1.352 . S
C575 C577 1.374 . S
C575 H597 0.931 . S
C576 C577 1.359 . S
C576 C578 1.364 . S
C577 C575 1.374 . S
C577 C576 1.359 . S
C577 H598 0.931 . S
C578 C574 1.389 . S
C578 C576 1.364 . S
C578 H599 0.931 . S
C579 O590 1.256 . S
C579 O591 1.257 . S
O580 Gd560 2.377 . S
O580 C562 1.240 . S
O581 Gd561 2.395 . S
O581 C562 1.240 . S
O582 Gd560 2.448 . S
O582 C563 1.249 . S
O583 Gd560 2.506 . S
O583 C563 1.252 . S
O584 Gd560 2.435 . S
O584 C570 1.256 . S
O585 Gd560 2.717 . S
O585 Gd561 2.327 . S
O585 C570 1.257 . S
O586 Gd561 2.377 . S
O586 C571 1.240 . S
O587 Gd560 2.395 . S
O587 C571 1.240 . S
O588 Gd561 2.448 . S
O588 C572 1.249 . S
O589 Gd561 2.506 . S
O589 C572 1.252 . S
O590 Gd561 2.435 . S
O590 C579 1.256 . S
O591 Gd560 2.327 . S
O591 Gd561 2.717 . S
O591 C579 1.257 . S
H592 C565 0.930 . S
H593 C566 0.931 . S
H594 C568 0.931 . S
H595 C569 0.931 . S
H596 C574 0.930 . S
H597 C575 0.931 . S
H598 C577 0.931 . S
H599 C578 0.931 . S
Gd600 C603 2.818 . S
Gd600 O620 2.377 . S
Gd600 O622 2.448 . S
Gd600 O623 2.506 . S
Gd600 O624 2.435 . S
Gd600 O625 2.717 . S
Gd600 O627 2.395 . S
Gd600 O631 2.327 . S
Gd601 C612 2.818 . S
Gd601 O621 2.395 . S
Gd601 O625 2.327 . S
Gd601 O626 2.377 . S
Gd601 O628 2.448 . S
Gd601 O629 2.506 . S
Gd601 O630 2.435 . S
Gd601 O631 2.717 . S
C602 O620 1.240 . S
C602 O621 1.240 . S
C603 Gd600 2.818 . S
C603 C604 1.510 . S
C603 O622 1.249 . S
C603 O623 1.252 . S
C604 C603 1.510 . S
C604 C605 1.404 . S
C604 C606 1.352 . S
C605 C604 1.404 . S
C605 C609 1.389 . S
C605 H632 0.930 . S
C606 C604 1.352 . S
C606 C608 1.374 . S
C606 H633 0.931 . S
C607 C608 1.359 . S
C607 C609 1.364 . S
C608 C606 1.374 . S
C608 C607 1.359 . S
C608 H634 0.931 . S
C609 C605 1.389 . S
C609 C607 1.364 . S
C609 H635 0.931 . S
C610 O624 1.256 . S
C610 O625 1.257 . S
C611 O626 1.240 . S
C611 O627 1.240 . S
C612 Gd601 2.818 . S
C612 C613 1.510 . S
C612 O628 1.249 . S
C612 O629 1.252 . S
C613 C612 1.510 . S
C613 C614 1.404 . S
C613 C615 1.352 . S
C614 C613 1.404 . S
C614 C618 1.389 1_545 S
C614 H636 0.930 . S
C615 C613 1.352 . S
C615 C617 1.374 . S
C615 H637 0.931 . S
C616 C617 1.359 1_565 S
C616 C618 1.364 . S
C617 C615 1.374 . S
C617 C616 1.359 1_545 S
C617 H638 0.931 1_545 S
C618 C614 1.389 1_565 S
C618 C616 1.364 . S
C618 H639 0.931 . S
C619 O630 1.256 . S
C619 O631 1.257 . S
O620 Gd600 2.377 . S
O620 C602 1.240 . S
O621 Gd601 2.395 . S
O621 C602 1.240 . S
O622 Gd600 2.448 . S
O622 C603 1.249 . S
O623 Gd600 2.506 . S
O623 C603 1.252 . S
O624 Gd600 2.435 . S
O624 C610 1.256 . S
O625 Gd600 2.717 . S
O625 Gd601 2.327 . S
O625 C610 1.257 . S
O626 Gd601 2.377 . S
O626 C611 1.240 . S
O627 Gd600 2.395 . S
O627 C611 1.240 . S
O628 Gd601 2.448 . S
O628 C612 1.249 . S
O629 Gd601 2.506 . S
O629 C612 1.252 . S
O630 Gd601 2.435 . S
O630 C619 1.256 . S
O631 Gd600 2.327 . S
O631 Gd601 2.717 . S
O631 C619 1.257 . S
H632 C605 0.930 . S
H633 C606 0.931 . S
H634 C608 0.931 . S
H635 C609 0.931 . S
H636 C614 0.930 . S
H637 C615 0.931 . S
H638 C617 0.931 1_565 S
H639 C618 0.931 . S
Gd640 C643 2.818 . S
Gd640 O660 2.377 . S
Gd640 O662 2.448 . S
Gd640 O663 2.506 . S
Gd640 O664 2.435 . S
Gd640 O665 2.717 . S
Gd640 O667 2.395 . S
Gd640 O671 2.327 . S
Gd641 C652 2.818 . S
Gd641 O661 2.395 . S
Gd641 O665 2.327 . S
Gd641 O666 2.377 . S
Gd641 O668 2.448 . S
Gd641 O669 2.506 . S
Gd641 O670 2.435 . S
Gd641 O671 2.717 . S
C642 O660 1.240 . S
C642 O661 1.240 . S
C643 Gd640 2.818 . S
C643 C644 1.510 . S
C643 O662 1.249 . S
C643 O663 1.252 . S
C644 C643 1.510 . S
C644 C645 1.404 . S
C644 C646 1.352 . S
C645 C644 1.404 . S
C645 C649 1.389 . S
C645 H672 0.930 . S
C646 C644 1.352 . S
C646 C648 1.374 . S
C646 H673 0.931 . S
C647 C648 1.359 . S
C647 C649 1.364 . S
C648 C646 1.374 . S
C648 C647 1.359 . S
C648 H674 0.931 . S
C649 C645 1.389 . S
C649 C647 1.364 . S
C649 H675 0.931 . S
C650 O664 1.256 . S
C650 O665 1.257 . S
C651 O666 1.240 . S
C651 O667 1.240 . S
C652 Gd641 2.818 . S
C652 C653 1.510 . S
C652 O668 1.249 . S
C652 O669 1.252 . S
C653 C652 1.510 . S
C653 C654 1.404 1_655 S
C653 C655 1.352 1_655 S
C654 C653 1.404 1_455 S
C654 C658 1.389 . S
C654 H676 0.930 . S
C655 C653 1.352 1_455 S
C655 C657 1.374 . S
C655 H677 0.931 1_455 S
C656 C657 1.359 . S
C656 C658 1.364 . S
C657 C655 1.374 . S
C657 C656 1.359 . S
C657 H678 0.931 . S
C658 C654 1.389 . S
C658 C656 1.364 . S
C658 H679 0.931 . S
C659 O670 1.256 . S
C659 O671 1.257 . S
O660 Gd640 2.377 . S
O660 C642 1.240 . S
O661 Gd641 2.395 . S
O661 C642 1.240 . S
O662 Gd640 2.448 . S
O662 C643 1.249 . S
O663 Gd640 2.506 . S
O663 C643 1.252 . S
O664 Gd640 2.435 . S
O664 C650 1.256 . S
O665 Gd640 2.717 . S
O665 Gd641 2.327 . S
O665 C650 1.257 . S
O666 Gd641 2.377 . S
O666 C651 1.240 . S
O667 Gd640 2.395 . S
O667 C651 1.240 . S
O668 Gd641 2.448 . S
O668 C652 1.249 . S
O669 Gd641 2.506 . S
O669 C652 1.252 . S
O670 Gd641 2.435 . S
O670 C659 1.256 . S
O671 Gd640 2.327 . S
O671 Gd641 2.717 . S
O671 C659 1.257 . S
H672 C645 0.930 . S
H673 C646 0.931 . S
H674 C648 0.931 . S
H675 C649 0.931 . S
H676 C654 0.930 . S
H677 C655 0.931 1_655 S
H678 C657 0.931 . S
H679 C658 0.931 . S
Gd680 C683 2.818 . S
Gd680 O700 2.377 . S
Gd680 O702 2.448 . S
Gd680 O703 2.506 . S
Gd680 O704 2.435 . S
Gd680 O705 2.717 . S
Gd680 O707 2.395 . S
Gd680 O711 2.327 . S
Gd681 C692 2.818 . S
Gd681 O701 2.395 . S
Gd681 O705 2.327 . S
Gd681 O706 2.377 . S
Gd681 O708 2.448 . S
Gd681 O709 2.506 . S
Gd681 O710 2.435 . S
Gd681 O711 2.717 . S
C682 O700 1.240 . S
C682 O701 1.240 . S
C683 Gd680 2.818 . S
C683 C684 1.510 . S
C683 O702 1.249 . S
C683 O703 1.252 . S
C684 C683 1.510 . S
C684 C685 1.404 . S
C684 C686 1.352 . S
C685 C684 1.404 . S
C685 C689 1.389 . S
C685 H712 0.930 . S
C686 C684 1.352 . S
C686 C688 1.374 . S
C686 H713 0.931 . S
C687 C688 1.359 . S
C687 C689 1.364 . S
C688 C686 1.374 . S
C688 C687 1.359 . S
C688 H714 0.931 . S
C689 C685 1.389 . S
C689 C687 1.364 . S
C689 H715 0.931 . S
C690 O704 1.256 . S
C690 O705 1.257 . S
C691 O706 1.240 . S
C691 O707 1.240 . S
C692 Gd681 2.818 . S
C692 C693 1.510 . S
C692 O708 1.249 . S
C692 O709 1.252 . S
C693 C692 1.510 . S
C693 C694 1.404 . S
C693 C695 1.352 . S
C694 C693 1.404 . S
C694 C698 1.389 . S
C694 H716 0.930 . S
C695 C693 1.352 . S
C695 C697 1.374 . S
C695 H717 0.931 . S
C696 C697 1.359 . S
C696 C698 1.364 . S
C697 C695 1.374 . S
C697 C696 1.359 . S
C697 H718 0.931 . S
C698 C694 1.389 . S
C698 C696 1.364 . S
C698 H719 0.931 . S
C699 O710 1.256 . S
C699 O711 1.257 . S
O700 Gd680 2.377 . S
O700 C682 1.240 . S
O701 Gd681 2.395 . S
O701 C682 1.240 . S
O702 Gd680 2.448 . S
O702 C683 1.249 . S
O703 Gd680 2.506 . S
O703 C683 1.252 . S
O704 Gd680 2.435 . S
O704 C690 1.256 . S
O705 Gd680 2.717 . S
O705 Gd681 2.327 . S
O705 C690 1.257 . S
O706 Gd681 2.377 . S
O706 C691 1.240 . S
O707 Gd680 2.395 . S
O707 C691 1.240 . S
O708 Gd681 2.448 . S
O708 C692 1.249 . S
O709 Gd681 2.506 . S
O709 C692 1.252 . S
O710 Gd681 2.435 . S
O710 C699 1.256 . S
O711 Gd680 2.327 . S
O711 Gd681 2.717 . S
O711 C699 1.257 . S
H712 C685 0.930 . S
H713 C686 0.931 . S
H714 C688 0.931 . S
H715 C689 0.931 . S
H716 C694 0.930 . S
H717 C695 0.931 . S
H718 C697 0.931 . S
H719 C698 0.931 . S
C720 C721 1.349 . S
C720 C722 1.327 . S
C720 H745 0.950 . S
C721 C720 1.349 . S
C721 C737 1.349 . S
C722 C720 1.327 . S
C722 C741 1.429 . S
C722 H746 0.950 . S
C723 C740 1.574 . S
C723 C742 1.368 . S
C723 H747 0.949 . S
H724 C728 0.949 . S
C725 C726 1.349 . S
C725 C727 1.327 . S
C725 H748 0.950 . S
C726 C725 1.349 . S
C726 C738 1.349 . S
C727 C725 1.327 . S
C727 C743 1.429 . S
C727 H749 0.950 . S
C728 H724 0.949 . S
C728 C736 1.574 . S
C728 C744 1.368 . S
H729 C737 0.950 . S
H730 C735 0.950 . S
H731 C736 0.949 . S
H732 C738 0.950 . S
H733 C739 0.950 . S
H734 C740 0.949 . S
C735 H730 0.950 . S
C735 C737 1.327 . S
C735 C741 1.429 . S
C736 C728 1.574 . S
C736 H731 0.949 . S
C736 C742 1.368 . S
C737 C721 1.349 . S
C737 H729 0.950 . S
C737 C735 1.327 . S
C738 C726 1.349 . S
C738 H732 0.950 . S
C738 C739 1.327 . S
C739 H733 0.950 . S
C739 C738 1.327 . S
C739 C743 1.429 . S
C740 C723 1.574 . S
C740 H734 0.949 . S
C740 C744 1.368 . S
C741 C722 1.429 . S
C741 C735 1.429 . S
C741 C742 1.523 . S
C742 C723 1.368 . S
C742 C736 1.368 . S
C742 C741 1.523 . S
C743 C727 1.429 . S
C743 C739 1.429 . S
C743 C744 1.523 . S
C744 C728 1.368 . S
C744 C740 1.368 . S
C744 C743 1.523 . S
H745 C720 0.950 . S
H746 C722 0.950 . S
H747 C723 0.949 . S
H748 C725 0.950 . S
H749 C727 0.950 . S
C750 C751 1.349 . S
C750 C752 1.327 . S
C750 H775 0.950 . S
C751 C750 1.349 . S
C751 C767 1.349 . S
C752 C750 1.327 . S
C752 C771 1.429 . S
C752 H776 0.950 . S
C753 C770 1.574 . S
C753 C772 1.368 . S
C753 H777 0.949 . S
H754 C758 0.949 . S
C755 C756 1.349 . S
C755 C757 1.327 . S
C755 H778 0.950 . S
C756 C755 1.349 . S
C756 C768 1.349 . S
C757 C755 1.327 . S
C757 C773 1.429 . S
C757 H779 0.950 . S
C758 H754 0.949 . S
C758 C766 1.574 . S
C758 C774 1.368 . S
H759 C767 0.950 . S
H760 C765 0.950 . S
H761 C766 0.949 . S
H762 C768 0.950 . S
H763 C769 0.950 . S
H764 C770 0.949 . S
C765 H760 0.950 . S
C765 C767 1.327 . S
C765 C771 1.429 . S
C766 C758 1.574 . S
C766 H761 0.949 . S
C766 C772 1.368 . S
C767 C751 1.349 . S
C767 H759 0.950 . S
C767 C765 1.327 . S
C768 C756 1.349 . S
C768 H762 0.950 . S
C768 C769 1.327 . S
C769 H763 0.950 . S
C769 C768 1.327 . S
C769 C773 1.429 . S
C770 C753 1.574 . S
C770 H764 0.949 . S
C770 C774 1.368 . S
C771 C752 1.429 . S
C771 C765 1.429 . S
C771 C772 1.523 . S
C772 C753 1.368 . S
C772 C766 1.368 . S
C772 C771 1.523 . S
C773 C757 1.429 . S
C773 C769 1.429 . S
C773 C774 1.523 . S
C774 C758 1.368 . S
C774 C770 1.368 . S
C774 C773 1.523 . S
H775 C750 0.950 . S
H776 C752 0.950 . S
H777 C753 0.949 . S
H778 C755 0.950 . S
H779 C757 0.950 . S
C780 C781 1.349 . S
C780 C782 1.327 . S
C780 H805 0.950 . S
C781 C780 1.349 . S
C781 C797 1.349 . S
C782 C780 1.327 . S
C782 C801 1.429 . S
C782 H806 0.950 . S
C783 C800 1.574 . S
C783 C802 1.368 . S
C783 H807 0.949 . S
H784 C788 0.949 . S
C785 C786 1.349 . S
C785 C787 1.327 . S
C785 H808 0.950 . S
C786 C785 1.349 . S
C786 C798 1.349 . S
C787 C785 1.327 . S
C787 C803 1.429 . S
C787 H809 0.950 . S
C788 H784 0.949 . S
C788 C796 1.574 . S
C788 C804 1.368 . S
H789 C797 0.950 . S
H790 C795 0.950 . S
H791 C796 0.949 . S
H792 C798 0.950 . S
H793 C799 0.950 . S
H794 C800 0.949 . S
C795 H790 0.950 . S
C795 C797 1.327 . S
C795 C801 1.429 . S
C796 C788 1.574 . S
C796 H791 0.949 . S
C796 C802 1.368 . S
C797 C781 1.349 . S
C797 H789 0.950 . S
C797 C795 1.327 . S
C798 C786 1.349 . S
C798 H792 0.950 . S
C798 C799 1.327 . S
C799 H793 0.950 . S
C799 C798 1.327 . S
C799 C803 1.429 . S
C800 C783 1.574 . S
C800 H794 0.949 . S
C800 C804 1.368 . S
C801 C782 1.429 . S
C801 C795 1.429 . S
C801 C802 1.523 . S
C802 C783 1.368 . S
C802 C796 1.368 . S
C802 C801 1.523 . S
C803 C787 1.429 . S
C803 C799 1.429 . S
C803 C804 1.523 . S
C804 C788 1.368 . S
C804 C800 1.368 . S
C804 C803 1.523 . S
H805 C780 0.950 . S
H806 C782 0.950 . S
H807 C783 0.949 . S
H808 C785 0.950 . S
H809 C787 0.950 . S
C810 C811 1.349 . S
C810 C812 1.327 . S
C810 H835 0.950 . S
C811 C810 1.349 . S
C811 C827 1.349 . S
C812 C810 1.327 . S
C812 C831 1.429 . S
C812 H836 0.950 . S
C813 C830 1.574 . S
C813 C832 1.368 . S
C813 H837 0.949 . S
H814 C818 0.949 . S
C815 C816 1.349 . S
C815 C817 1.327 . S
C815 H838 0.950 . S
C816 C815 1.349 . S
C816 C828 1.349 . S
C817 C815 1.327 . S
C817 C833 1.429 . S
C817 H839 0.950 . S
C818 H814 0.949 . S
C818 C826 1.574 . S
C818 C834 1.368 . S
H819 C827 0.950 . S
H820 C825 0.950 . S
H821 C826 0.949 . S
H822 C828 0.950 . S
H823 C829 0.950 . S
H824 C830 0.949 . S
C825 H820 0.950 . S
C825 C827 1.327 . S
C825 C831 1.429 . S
C826 C818 1.574 . S
C826 H821 0.949 . S
C826 C832 1.368 . S
C827 C811 1.349 . S
C827 H819 0.950 . S
C827 C825 1.327 . S
C828 C816 1.349 . S
C828 H822 0.950 . S
C828 C829 1.327 . S
C829 H823 0.950 . S
C829 C828 1.327 . S
C829 C833 1.429 . S
C830 C813 1.574 . S
C830 H824 0.949 . S
C830 C834 1.368 . S
C831 C812 1.429 . S
C831 C825 1.429 . S
C831 C832 1.523 . S
C832 C813 1.368 . S
C832 C826 1.368 . S
C832 C831 1.523 . S
C833 C817 1.429 . S
C833 C829 1.429 . S
C833 C834 1.523 . S
C834 C818 1.368 . S
C834 C830 1.368 . S
C834 C833 1.523 . S
H835 C810 0.950 . S
H836 C812 0.950 . S
H837 C813 0.949 . S
H838 C815 0.950 . S
H839 C817 0.950 . S
C840 C841 1.349 . S
C840 C842 1.327 . S
C840 H865 0.950 . S
C841 C840 1.349 . S
C841 C857 1.349 . S
C842 C840 1.327 . S
C842 C861 1.429 . S
C842 H866 0.950 . S
C843 C860 1.574 . S
C843 C862 1.368 . S
C843 H867 0.949 . S
H844 C848 0.949 . S
C845 C846 1.349 . S
C845 C847 1.327 . S
C845 H868 0.950 . S
C846 C845 1.349 . S
C846 C858 1.349 . S
C847 C845 1.327 . S
C847 C863 1.429 . S
C847 H869 0.950 . S
C848 H844 0.949 . S
C848 C856 1.574 . S
C848 C864 1.368 . S
H849 C857 0.950 . S
H850 C855 0.950 . S
H851 C856 0.949 . S
H852 C858 0.950 . S
H853 C859 0.950 . S
H854 C860 0.949 . S
C855 H850 0.950 . S
C855 C857 1.327 . S
C855 C861 1.429 . S
C856 C848 1.574 . S
C856 H851 0.949 . S
C856 C862 1.368 . S
C857 C841 1.349 . S
C857 H849 0.950 . S
C857 C855 1.327 . S
C858 C846 1.349 . S
C858 H852 0.950 . S
C858 C859 1.327 . S
C859 H853 0.950 . S
C859 C858 1.327 . S
C859 C863 1.429 . S
C860 C843 1.574 . S
C860 H854 0.949 . S
C860 C864 1.368 . S
C861 C842 1.429 . S
C861 C855 1.429 . S
C861 C862 1.523 . S
C862 C843 1.368 . S
C862 C856 1.368 . S
C862 C861 1.523 . S
C863 C847 1.429 . S
C863 C859 1.429 . S
C863 C864 1.523 . S
C864 C848 1.368 . S
C864 C860 1.368 . S
C864 C863 1.523 . S
H865 C840 0.950 . S
H866 C842 0.950 . S
H867 C843 0.949 . S
H868 C845 0.950 . S
H869 C847 0.950 . S
C870 C871 1.349 . S
C870 C872 1.327 . S
C870 H895 0.950 . S
C871 C870 1.349 . S
C871 C887 1.349 . S
C872 C870 1.327 . S
C872 C891 1.429 . S
C872 H896 0.950 . S
C873 C890 1.574 . S
C873 C892 1.368 . S
C873 H897 0.949 . S
H874 C878 0.949 . S
C875 C876 1.349 . S
C875 C877 1.327 . S
C875 H898 0.950 . S
C876 C875 1.349 . S
C876 C888 1.349 . S
C877 C875 1.327 . S
C877 C893 1.429 . S
C877 H899 0.950 . S
C878 H874 0.949 . S
C878 C886 1.574 . S
C878 C894 1.368 . S
H879 C887 0.950 . S
H880 C885 0.950 . S
H881 C886 0.949 . S
H882 C888 0.950 . S
H883 C889 0.950 . S
H884 C890 0.949 . S
C885 H880 0.950 . S
C885 C887 1.327 . S
C885 C891 1.429 . S
C886 C878 1.574 . S
C886 H881 0.949 . S
C886 C892 1.368 . S
C887 C871 1.349 . S
C887 H879 0.950 . S
C887 C885 1.327 . S
C888 C876 1.349 . S
C888 H882 0.950 . S
C888 C889 1.327 . S
C889 H883 0.950 . S
C889 C888 1.327 . S
C889 C893 1.429 . S
C890 C873 1.574 . S
C890 H884 0.949 . S
C890 C894 1.368 . S
C891 C872 1.429 . S
C891 C885 1.429 . S
C891 C892 1.523 . S
C892 C873 1.368 . S
C892 C886 1.368 . S
C892 C891 1.523 . S
C893 C877 1.429 . S
C893 C889 1.429 . S
C893 C894 1.523 . S
C894 C878 1.368 . S
C894 C890 1.368 . S
C894 C893 1.523 . S
H895 C870 0.950 . S
H896 C872 0.950 . S
H897 C873 0.949 . S
H898 C875 0.950 . S
H899 C877 0.950 . S
C900 C901 1.349 . S
C900 C902 1.327 . S
C900 H925 0.950 . S
C901 C900 1.349 . S
C901 C917 1.349 . S
C902 C900 1.327 . S
C902 C921 1.429 . S
C902 H926 0.950 . S
C903 C920 1.574 . S
C903 C922 1.368 . S
C903 H927 0.949 . S
H904 C908 0.949 . S
C905 C906 1.349 . S
C905 C907 1.327 . S
C905 H928 0.950 . S
C906 C905 1.349 . S
C906 C918 1.349 . S
C907 C905 1.327 . S
C907 C923 1.429 . S
C907 H929 0.950 . S
C908 H904 0.949 . S
C908 C916 1.574 . S
C908 C924 1.368 . S
H909 C917 0.950 . S
H910 C915 0.950 . S
H911 C916 0.949 . S
H912 C918 0.950 . S
H913 C919 0.950 . S
H914 C920 0.949 . S
C915 H910 0.950 . S
C915 C917 1.327 . S
C915 C921 1.429 . S
C916 C908 1.574 . S
C916 H911 0.949 . S
C916 C922 1.368 . S
C917 C901 1.349 . S
C917 H909 0.950 . S
C917 C915 1.327 . S
C918 C906 1.349 . S
C918 H912 0.950 . S
C918 C919 1.327 . S
C919 H913 0.950 . S
C919 C918 1.327 . S
C919 C923 1.429 . S
C920 C903 1.574 . S
C920 H914 0.949 . S
C920 C924 1.368 . S
C921 C902 1.429 . S
C921 C915 1.429 . S
C921 C922 1.523 . S
C922 C903 1.368 . S
C922 C916 1.368 . S
C922 C921 1.523 . S
C923 C907 1.429 . S
C923 C919 1.429 . S
C923 C924 1.523 . S
C924 C908 1.368 . S
C924 C920 1.368 . S
C924 C923 1.523 . S
H925 C900 0.950 . S
H926 C902 0.950 . S
H927 C903 0.949 . S
H928 C905 0.950 . S
H929 C907 0.950 . S
C930 C931 1.349 . S
C930 C932 1.327 . S
C930 H955 0.950 . S
C931 C930 1.349 . S
C931 C947 1.349 . S
C932 C930 1.327 . S
C932 C951 1.429 . S
C932 H956 0.950 . S
C933 C950 1.574 . S
C933 C952 1.368 . S
C933 H957 0.949 . S
H934 C938 0.949 . S
C935 C936 1.349 . S
C935 C937 1.327 . S
C935 H958 0.950 . S
C936 C935 1.349 . S
C936 C948 1.349 . S
C937 C935 1.327 . S
C937 C953 1.429 . S
C937 H959 0.950 . S
C938 H934 0.949 . S
C938 C946 1.574 1_565 S
C938 C954 1.368 . S
H939 C947 0.950 . S
H940 C945 0.950 . S
H941 C946 0.949 . S
H942 C948 0.950 . S
H943 C949 0.950 . S
H944 C950 0.949 . S
C945 H940 0.950 . S
C945 C947 1.327 . S
C945 C951 1.429 . S
C946 C938 1.574 1_545 S
C946 H941 0.949 . S
C946 C952 1.368 . S
C947 C931 1.349 . S
C947 H939 0.950 . S
C947 C945 1.327 . S
C948 C936 1.349 . S
C948 H942 0.950 . S
C948 C949 1.327 . S
C949 H943 0.950 . S
C949 C948 1.327 . S
C949 C953 1.429 . S
C950 C933 1.574 . S
C950 H944 0.949 . S
C950 C954 1.368 1_545 S
C951 C932 1.429 . S
C951 C945 1.429 . S
C951 C952 1.523 . S
C952 C933 1.368 . S
C952 C946 1.368 . S
C952 C951 1.523 . S
C953 C937 1.429 . S
C953 C949 1.429 . S
C953 C954 1.523 . S
C954 C938 1.368 . S
C954 C950 1.368 1_565 S
C954 C953 1.523 . S
H955 C930 0.950 . S
H956 C932 0.950 . S
H957 C933 0.949 . S
H958 C935 0.950 . S
H959 C937 0.950 . S
C960 C961 1.349 . S
C960 C962 1.327 . S
C960 H985 0.950 . S
C961 C960 1.349 . S
C961 C977 1.349 . S
C962 C960 1.327 . S
C962 C981 1.429 . S
C962 H986 0.950 . S
C963 C980 1.574 1_455 S
C963 C982 1.368 . S
C963 H987 0.949 . S
H964 C968 0.949 1_655 S
C965 C966 1.349 . S
C965 C967 1.327 . S
C965 H988 0.950 . S
C966 C965 1.349 . S
C966 C978 1.349 . S
C967 C965 1.327 . S
C967 C983 1.429 . S
C967 H989 0.950 . S
C968 H964 0.949 1_455 S
C968 C976 1.574 . S
C968 C984 1.368 1_455 S
H969 C977 0.950 . S
H970 C975 0.950 . S
H971 C976 0.949 . S
H972 C978 0.950 . S
H973 C979 0.950 . S
H974 C980 0.949 . S
C975 H970 0.950 . S
C975 C977 1.327 . S
C975 C981 1.429 . S
C976 C968 1.574 . S
C976 H971 0.949 . S
C976 C982 1.368 . S
C977 C961 1.349 . S
C977 H969 0.950 . S
C977 C975 1.327 . S
C978 C966 1.349 . S
C978 H972 0.950 . S
C978 C979 1.327 . S
C979 H973 0.950 . S
C979 C978 1.327 . S
C979 C983 1.429 . S
C980 C963 1.574 1_655 S
C980 H974 0.949 . S
C980 C984 1.368 . S
C981 C962 1.429 . S
C981 C975 1.429 . S
C981 C982 1.523 . S
C982 C963 1.368 . S
C982 C976 1.368 . S
C982 C981 1.523 . S
C983 C967 1.429 . S
C983 C979 1.429 . S
C983 C984 1.523 . S
C984 C968 1.368 1_655 S
C984 C980 1.368 . S
C984 C983 1.523 . S
H985 C960 0.950 . S
H986 C962 0.950 . S
H987 C963 0.949 . S
H988 C965 0.950 . S
H989 C967 0.950 . S
C990 C991 1.349 . S
C990 C992 1.327 . S
C990 H1015 0.950 . S
C991 C990 1.349 . S
C991 C1007 1.349 . S
C992 C990 1.327 . S
C992 C1011 1.429 . S
C992 H1016 0.950 . S
C993 C1010 1.574 . S
C993 C1012 1.368 . S
C993 H1017 0.949 . S
H994 C998 0.949 . S
C995 C996 1.349 . S
C995 C997 1.327 . S
C995 H1018 0.950 . S
C996 C995 1.349 . S
C996 C1008 1.349 . S
C997 C995 1.327 . S
C997 C1013 1.429 . S
C997 H1019 0.950 . S
C998 H994 0.949 . S
C998 C1006 1.574 . S
C998 C1014 1.368 . S
H999 C1007 0.950 . S
H1000 C1005 0.950 . S
H1001 C1006 0.949 . S
H1002 C1008 0.950 . S
H1003 C1009 0.950 . S
H1004 C1010 0.949 . S
C1005 H1000 0.950 . S
C1005 C1007 1.327 . S
C1005 C1011 1.429 . S
C1006 C998 1.574 . S
C1006 H1001 0.949 . S
C1006 C1012 1.368 . S
C1007 C991 1.349 . S
C1007 H999 0.950 . S
C1007 C1005 1.327 . S
C1008 C996 1.349 . S
C1008 H1002 0.950 . S
C1008 C1009 1.327 . S
C1009 H1003 0.950 . S
C1009 C1008 1.327 . S
C1009 C1013 1.429 . S
C1010 C993 1.574 . S
C1010 H1004 0.949 . S
C1010 C1014 1.368 . S
C1011 C992 1.429 . S
C1011 C1005 1.429 . S
C1011 C1012 1.523 . S
C1012 C993 1.368 . S
C1012 C1006 1.368 . S
C1012 C1011 1.523 . S
C1013 C997 1.429 . S
C1013 C1009 1.429 . S
C1013 C1014 1.523 . S
C1014 C998 1.368 . S
C1014 C1010 1.368 . S
C1014 C1013 1.523 . S
H1015 C990 0.950 . S
H1016 C992 0.950 . S
H1017 C993 0.949 . S
H1018 C995 0.950 . S
H1019 C997 0.950 . S
C1020 C1021 1.349 . S
C1020 C1022 1.327 . S
C1020 H1045 0.950 . S
C1021 C1020 1.349 . S
C1021 C1037 1.349 . S
C1022 C1020 1.327 . S
C1022 C1041 1.429 . S
C1022 H1046 0.950 . S
C1023 C1040 1.574 . S
C1023 C1042 1.368 . S
C1023 H1047 0.949 . S
H1024 C1028 0.949 . S
C1025 C1026 1.349 . S
C1025 C1027 1.327 . S
C1025 H1048 0.950 . S
C1026 C1025 1.349 . S
C1026 C1038 1.349 . S
C1027 C1025 1.327 . S
C1027 C1043 1.429 . S
C1027 H1049 0.950 . S
C1028 H1024 0.949 . S
C1028 C1036 1.574 . S
C1028 C1044 1.368 . S
H1029 C1037 0.950 . S
H1030 C1035 0.950 . S
H1031 C1036 0.949 . S
H1032 C1038 0.950 . S
H1033 C1039 0.950 . S
H1034 C1040 0.949 . S
C1035 H1030 0.950 . S
C1035 C1037 1.327 . S
C1035 C1041 1.429 . S
C1036 C1028 1.574 . S
C1036 H1031 0.949 . S
C1036 C1042 1.368 . S
C1037 C1021 1.349 . S
C1037 H1029 0.950 . S
C1037 C1035 1.327 . S
C1038 C1026 1.349 . S
C1038 H1032 0.950 . S
C1038 C1039 1.327 . S
C1039 H1033 0.950 . S
C1039 C1038 1.327 . S
C1039 C1043 1.429 . S
C1040 C1023 1.574 . S
C1040 H1034 0.949 . S
C1040 C1044 1.368 . S
C1041 C1022 1.429 . S
C1041 C1035 1.429 . S
C1041 C1042 1.523 . S
C1042 C1023 1.368 . S
C1042 C1036 1.368 . S
C1042 C1041 1.523 . S
C1043 C1027 1.429 . S
C1043 C1039 1.429 . S
C1043 C1044 1.523 . S
C1044 C1028 1.368 . S
C1044 C1040 1.368 . S
C1044 C1043 1.523 . S
H1045 C1020 0.950 . S
H1046 C1022 0.950 . S
H1047 C1023 0.949 . S
H1048 C1025 0.950 . S
H1049 C1027 0.950 . S
C1050 C1051 1.349 . S
C1050 C1052 1.327 . S
C1050 H1075 0.950 . S
C1051 C1050 1.349 . S
C1051 C1067 1.349 . S
C1052 C1050 1.327 . S
C1052 C1071 1.429 . S
C1052 H1076 0.950 . S
C1053 C1070 1.574 . S
C1053 C1072 1.368 . S
C1053 H1077 0.949 . S
H1054 C1058 0.949 . S
C1055 C1056 1.349 . S
C1055 C1057 1.327 . S
C1055 H1078 0.950 . S
C1056 C1055 1.349 . S
C1056 C1068 1.349 . S
C1057 C1055 1.327 . S
C1057 C1073 1.429 . S
C1057 H1079 0.950 . S
C1058 H1054 0.949 . S
C1058 C1066 1.574 . S
C1058 C1074 1.368 . S
H1059 C1067 0.950 . S
H1060 C1065 0.950 . S
H1061 C1066 0.949 . S
H1062 C1068 0.950 . S
H1063 C1069 0.950 . S
H1064 C1070 0.949 . S
C1065 H1060 0.950 . S
C1065 C1067 1.327 . S
C1065 C1071 1.429 . S
C1066 C1058 1.574 . S
C1066 H1061 0.949 . S
C1066 C1072 1.368 . S
C1067 C1051 1.349 . S
C1067 H1059 0.950 . S
C1067 C1065 1.327 . S
C1068 C1056 1.349 . S
C1068 H1062 0.950 . S
C1068 C1069 1.327 . S
C1069 H1063 0.950 . S
C1069 C1068 1.327 . S
C1069 C1073 1.429 . S
C1070 C1053 1.574 . S
C1070 H1064 0.949 . S
C1070 C1074 1.368 . S
C1071 C1052 1.429 . S
C1071 C1065 1.429 . S
C1071 C1072 1.523 . S
C1072 C1053 1.368 . S
C1072 C1066 1.368 . S
C1072 C1071 1.523 . S
C1073 C1057 1.429 . S
C1073 C1069 1.429 . S
C1073 C1074 1.523 . S
C1074 C1058 1.368 . S
C1074 C1070 1.368 . S
C1074 C1073 1.523 . S
H1075 C1050 0.950 . S
H1076 C1052 0.950 . S
H1077 C1053 0.949 . S
H1078 C1055 0.950 . S
H1079 C1057 0.950 . S
C1080 C1081 1.349 . S
C1080 C1082 1.327 . S
C1080 H1105 0.950 . S
C1081 C1080 1.349 . S
C1081 C1097 1.349 . S
C1082 C1080 1.327 . S
C1082 C1101 1.429 . S
C1082 H1106 0.950 . S
C1083 C1100 1.574 . S
C1083 C1102 1.368 . S
C1083 H1107 0.949 . S
H1084 C1088 0.949 . S
C1085 C1086 1.349 . S
C1085 C1087 1.327 . S
C1085 H1108 0.950 . S
C1086 C1085 1.349 . S
C1086 C1098 1.349 . S
C1087 C1085 1.327 . S
C1087 C1103 1.429 . S
C1087 H1109 0.950 . S
C1088 H1084 0.949 . S
C1088 C1096 1.574 . S
C1088 C1104 1.368 . S
H1089 C1097 0.950 . S
H1090 C1095 0.950 . S
H1091 C1096 0.949 . S
H1092 C1098 0.950 . S
H1093 C1099 0.950 . S
H1094 C1100 0.949 . S
C1095 H1090 0.950 . S
C1095 C1097 1.327 . S
C1095 C1101 1.429 . S
C1096 C1088 1.574 . S
C1096 H1091 0.949 . S
C1096 C1102 1.368 . S
C1097 C1081 1.349 . S
C1097 H1089 0.950 . S
C1097 C1095 1.327 . S
C1098 C1086 1.349 . S
C1098 H1092 0.950 . S
C1098 C1099 1.327 . S
C1099 H1093 0.950 . S
C1099 C1098 1.327 . S
C1099 C1103 1.429 . S
C1100 C1083 1.574 . S
C1100 H1094 0.949 . S
C1100 C1104 1.368 . S
C1101 C1082 1.429 . S
C1101 C1095 1.429 . S
C1101 C1102 1.523 . S
C1102 C1083 1.368 . S
C1102 C1096 1.368 . S
C1102 C1101 1.523 . S
C1103 C1087 1.429 . S
C1103 C1099 1.429 . S
C1103 C1104 1.523 . S
C1104 C1088 1.368 . S
C1104 C1100 1.368 . S
C1104 C1103 1.523 . S
H1105 C1080 0.950 . S
H1106 C1082 0.950 . S
H1107 C1083 0.949 . S
H1108 C1085 0.950 . S
H1109 C1087 0.950 . S
C1110 C1111 1.349 . S
C1110 C1112 1.327 . S
C1110 H1135 0.950 . S
C1111 C1110 1.349 . S
C1111 C1127 1.349 . S
C1112 C1110 1.327 . S
C1112 C1131 1.429 . S
C1112 H1136 0.950 . S
C1113 C1130 1.574 . S
C1113 C1132 1.368 . S
C1113 H1137 0.949 . S
H1114 C1118 0.949 . S
C1115 C1116 1.349 . S
C1115 C1117 1.327 . S
C1115 H1138 0.950 . S
C1116 C1115 1.349 . S
C1116 C1128 1.349 . S
C1117 C1115 1.327 . S
C1117 C1133 1.429 . S
C1117 H1139 0.950 . S
C1118 H1114 0.949 . S
C1118 C1126 1.574 . S
C1118 C1134 1.368 . S
H1119 C1127 0.950 . S
H1120 C1125 0.950 . S
H1121 C1126 0.949 . S
H1122 C1128 0.950 . S
H1123 C1129 0.950 . S
H1124 C1130 0.949 . S
C1125 H1120 0.950 . S
C1125 C1127 1.327 . S
C1125 C1131 1.429 . S
C1126 C1118 1.574 . S
C1126 H1121 0.949 . S
C1126 C1132 1.368 . S
C1127 C1111 1.349 . S
C1127 H1119 0.950 . S
C1127 C1125 1.327 . S
C1128 C1116 1.349 . S
C1128 H1122 0.950 . S
C1128 C1129 1.327 . S
C1129 H1123 0.950 . S
C1129 C1128 1.327 . S
C1129 C1133 1.429 . S
C1130 C1113 1.574 . S
C1130 H1124 0.949 . S
C1130 C1134 1.368 . S
C1131 C1112 1.429 . S
C1131 C1125 1.429 . S
C1131 C1132 1.523 . S
C1132 C1113 1.368 . S
C1132 C1126 1.368 . S
C1132 C1131 1.523 . S
C1133 C1117 1.429 . S
C1133 C1129 1.429 . S
C1133 C1134 1.523 . S
C1134 C1118 1.368 . S
C1134 C1130 1.368 . S
C1134 C1133 1.523 . S
H1135 C1110 0.950 . S
H1136 C1112 0.950 . S
H1137 C1113 0.949 . S
H1138 C1115 0.950 . S
H1139 C1117 0.950 . S
C1140 C1141 1.349 . S
C1140 C1142 1.327 . S
C1140 H1165 0.950 . S
C1141 C1140 1.349 . S
C1141 C1157 1.349 . S
C1142 C1140 1.327 . S
C1142 C1161 1.429 . S
C1142 H1166 0.950 . S
C1143 C1160 1.574 . S
C1143 C1162 1.368 . S
C1143 H1167 0.949 . S
H1144 C1148 0.949 . S
C1145 C1146 1.349 . S
C1145 C1147 1.327 . S
C1145 H1168 0.950 . S
C1146 C1145 1.349 . S
C1146 C1158 1.349 . S
C1147 C1145 1.327 . S
C1147 C1163 1.429 . S
C1147 H1169 0.950 . S
C1148 H1144 0.949 . S
C1148 C1156 1.574 . S
C1148 C1164 1.368 . S
H1149 C1157 0.950 . S
H1150 C1155 0.950 . S
H1151 C1156 0.949 . S
H1152 C1158 0.950 . S
H1153 C1159 0.950 . S
H1154 C1160 0.949 . S
C1155 H1150 0.950 . S
C1155 C1157 1.327 . S
C1155 C1161 1.429 . S
C1156 C1148 1.574 . S
C1156 H1151 0.949 . S
C1156 C1162 1.368 . S
C1157 C1141 1.349 . S
C1157 H1149 0.950 . S
C1157 C1155 1.327 . S
C1158 C1146 1.349 . S
C1158 H1152 0.950 . S
C1158 C1159 1.327 . S
C1159 H1153 0.950 . S
C1159 C1158 1.327 . S
C1159 C1163 1.429 . S
C1160 C1143 1.574 . S
C1160 H1154 0.949 . S
C1160 C1164 1.368 . S
C1161 C1142 1.429 . S
C1161 C1155 1.429 . S
C1161 C1162 1.523 . S
C1162 C1143 1.368 . S
C1162 C1156 1.368 . S
C1162 C1161 1.523 . S
C1163 C1147 1.429 . S
C1163 C1159 1.429 . S
C1163 C1164 1.523 . S
C1164 C1148 1.368 . S
C1164 C1160 1.368 . S
C1164 C1163 1.523 . S
H1165 C1140 0.950 . S
H1166 C1142 0.950 . S
H1167 C1143 0.949 . S
H1168 C1145 0.950 . S
H1169 C1147 0.950 . S
C1170 C1171 1.349 . S
C1170 C1172 1.327 . S
C1170 H1195 0.950 . S
C1171 C1170 1.349 . S
C1171 C1187 1.349 . S
C1172 C1170 1.327 . S
C1172 C1191 1.429 . S
C1172 H1196 0.950 . S
C1173 C1190 1.574 . S
C1173 C1192 1.368 . S
C1173 H1197 0.949 . S
H1174 C1178 0.949 . S
C1175 C1176 1.349 . S
C1175 C1177 1.327 . S
C1175 H1198 0.950 . S
C1176 C1175 1.349 . S
C1176 C1188 1.349 . S
C1177 C1175 1.327 . S
C1177 C1193 1.429 . S
C1177 H1199 0.950 . S
C1178 H1174 0.949 . S
C1178 C1186 1.574 . S
C1178 C1194 1.368 . S
H1179 C1187 0.950 . S
H1180 C1185 0.950 . S
H1181 C1186 0.949 . S
H1182 C1188 0.950 . S
H1183 C1189 0.950 . S
H1184 C1190 0.949 . S
C1185 H1180 0.950 . S
C1185 C1187 1.327 . S
C1185 C1191 1.429 . S
C1186 C1178 1.574 . S
C1186 H1181 0.949 . S
C1186 C1192 1.368 . S
C1187 C1171 1.349 . S
C1187 H1179 0.950 . S
C1187 C1185 1.327 . S
C1188 C1176 1.349 . S
C1188 H1182 0.950 . S
C1188 C1189 1.327 . S
C1189 H1183 0.950 . S
C1189 C1188 1.327 . S
C1189 C1193 1.429 . S
C1190 C1173 1.574 . S
C1190 H1184 0.949 . S
C1190 C1194 1.368 . S
C1191 C1172 1.429 . S
C1191 C1185 1.429 . S
C1191 C1192 1.523 . S
C1192 C1173 1.368 . S
C1192 C1186 1.368 . S
C1192 C1191 1.523 . S
C1193 C1177 1.429 . S
C1193 C1189 1.429 . S
C1193 C1194 1.523 . S
C1194 C1178 1.368 . S
C1194 C1190 1.368 . S
C1194 C1193 1.523 . S
H1195 C1170 0.950 . S
H1196 C1172 0.950 . S
H1197 C1173 0.949 . S
H1198 C1175 0.950 . S
H1199 C1177 0.950 . S
C1200 C1201 1.349 . S
C1200 C1202 1.327 . S
C1200 H1225 0.950 . S
C1201 C1200 1.349 . S
C1201 C1217 1.349 . S
C1202 C1200 1.327 . S
C1202 C1221 1.429 . S
C1202 H1226 0.950 . S
C1203 C1220 1.574 . S
C1203 C1222 1.368 1_545 S
C1203 H1227 0.949 1_545 S
H1204 C1208 0.949 . S
C1205 C1206 1.349 . S
C1205 C1207 1.327 . S
C1205 H1228 0.950 . S
C1206 C1205 1.349 . S
C1206 C1218 1.349 . S
C1207 C1205 1.327 . S
C1207 C1223 1.429 . S
C1207 H1229 0.950 . S
C1208 H1204 0.949 . S
C1208 C1216 1.574 1_545 S
C1208 C1224 1.368 . S
H1209 C1217 0.950 . S
H1210 C1215 0.950 . S
H1211 C1216 0.949 . S
H1212 C1218 0.950 . S
H1213 C1219 0.950 . S
H1214 C1220 0.949 . S
C1215 H1210 0.950 . S
C1215 C1217 1.327 . S
C1215 C1221 1.429 . S
C1216 C1208 1.574 1_565 S
C1216 H1211 0.949 . S
C1216 C1222 1.368 . S
C1217 C1201 1.349 . S
C1217 H1209 0.950 . S
C1217 C1215 1.327 . S
C1218 C1206 1.349 . S
C1218 H1212 0.950 . S
C1218 C1219 1.327 . S
C1219 H1213 0.950 . S
C1219 C1218 1.327 . S
C1219 C1223 1.429 . S
C1220 C1203 1.574 . S
C1220 H1214 0.949 . S
C1220 C1224 1.368 . S
C1221 C1202 1.429 . S
C1221 C1215 1.429 . S
C1221 C1222 1.523 . S
C1222 C1203 1.368 1_565 S
C1222 C1216 1.368 . S
C1222 C1221 1.523 . S
C1223 C1207 1.429 . S
C1223 C1219 1.429 . S
C1223 C1224 1.523 . S
C1224 C1208 1.368 . S
C1224 C1220 1.368 . S
C1224 C1223 1.523 . S
H1225 C1200 0.950 . S
H1226 C1202 0.950 . S
H1227 C1203 0.949 1_565 S
H1228 C1205 0.950 . S
H1229 C1207 0.950 . S
C1230 C1231 1.349 . S
C1230 C1232 1.327 . S
C1230 H1255 0.950 . S
C1231 C1230 1.349 . S
C1231 C1247 1.349 . S
C1232 C1230 1.327 . S
C1232 C1251 1.429 . S
C1232 H1256 0.950 . S
C1233 C1250 1.574 1_455 S
C1233 C1252 1.368 . S
C1233 H1257 0.949 . S
H1234 C1238 0.949 . S
C1235 C1236 1.349 . S
C1235 C1237 1.327 . S
C1235 H1258 0.950 . S
C1236 C1235 1.349 . S
C1236 C1248 1.349 . S
C1237 C1235 1.327 . S
C1237 C1253 1.429 . S
C1237 H1259 0.950 . S
C1238 H1234 0.949 . S
C1238 C1246 1.574 . S
C1238 C1254 1.368 1_455 S
H1239 C1247 0.950 . S
H1240 C1245 0.950 . S
H1241 C1246 0.949 . S
H1242 C1248 0.950 . S
H1243 C1249 0.950 . S
H1244 C1250 0.949 . S
C1245 H1240 0.950 . S
C1245 C1247 1.327 . S
C1245 C1251 1.429 . S
C1246 C1238 1.574 . S
C1246 H1241 0.949 . S
C1246 C1252 1.368 . S
C1247 C1231 1.349 . S
C1247 H1239 0.950 . S
C1247 C1245 1.327 . S
C1248 C1236 1.349 . S
C1248 H1242 0.950 . S
C1248 C1249 1.327 . S
C1249 H1243 0.950 . S
C1249 C1248 1.327 . S
C1249 C1253 1.429 . S
C1250 C1233 1.574 1_655 S
C1250 H1244 0.949 . S
C1250 C1254 1.368 . S
C1251 C1232 1.429 . S
C1251 C1245 1.429 . S
C1251 C1252 1.523 . S
C1252 C1233 1.368 . S
C1252 C1246 1.368 . S
C1252 C1251 1.523 . S
C1253 C1237 1.429 . S
C1253 C1249 1.429 . S
C1253 C1254 1.523 . S
C1254 C1238 1.368 1_655 S
C1254 C1250 1.368 . S
C1254 C1253 1.523 . S
H1255 C1230 0.950 . S
H1256 C1232 0.950 . S
H1257 C1233 0.949 . S
H1258 C1235 0.950 . S
H1259 C1237 0.950 . S
C1260 C1261 1.349 1_565 S
C1260 C1262 1.327 . S
C1260 H1285 0.950 . S
C1261 C1260 1.349 1_545 S
C1261 C1277 1.349 . S
C1262 C1260 1.327 . S
C1262 C1281 1.429 1_565 S
C1262 H1286 0.950 . S
C1263 C1280 1.574 1_554 S
C1263 C1282 1.368 . S
C1263 H1287 0.949 . S
H1264 C1268 0.949 . S
C1265 C1266 1.349 . S
C1265 C1267 1.327 . S
C1265 H1288 0.950 . S
C1266 C1265 1.349 . S
C1266 C1278 1.349 1_545 S
C1267 C1265 1.327 . S
C1267 C1283 1.429 . S
C1267 H1289 0.950 . S
C1268 H1264 0.949 . S
C1268 C1276 1.574 1_556 S
C1268 C1284 1.368 1_565 S
H1269 C1277 0.950 . S
H1270 C1275 0.950 . S
H1271 C1276 0.949 . S
H1272 C1278 0.950 . S
H1273 C1279 0.950 . S
H1274 C1280 0.949 . S
C1275 H1270 0.950 . S
C1275 C1277 1.327 . S
C1275 C1281 1.429 . S
C1276 C1268 1.574 1_554 S
C1276 H1271 0.949 . S
C1276 C1282 1.368 1_565 S
C1277 C1261 1.349 . S
C1277 H1269 0.950 . S
C1277 C1275 1.327 . S
C1278 C1266 1.349 1_565 S
C1278 H1272 0.950 . S
C1278 C1279 1.327 . S
C1279 H1273 0.950 . S
C1279 C1278 1.327 . S
C1279 C1283 1.429 1_565 S
C1280 C1263 1.574 1_556 S
C1280 H1274 0.949 . S
C1280 C1284 1.368 . S
C1281 C1262 1.429 1_545 S
C1281 C1275 1.429 . S
C1281 C1282 1.523 . S
C1282 C1263 1.368 . S
C1282 C1276 1.368 1_545 S
C1282 C1281 1.523 . S
C1283 C1267 1.429 . S
C1283 C1279 1.429 1_545 S
C1283 C1284 1.523 . S
C1284 C1268 1.368 1_545 S
C1284 C1280 1.368 . S
C1284 C1283 1.523 . S
H1285 C1260 0.950 . S
H1286 C1262 0.950 . S
H1287 C1263 0.949 . S
H1288 C1265 0.950 . S
H1289 C1267 0.950 . S
C1290 C1291 1.349 . S
C1290 C1292 1.327 . S
C1290 H1315 0.950 . S
C1291 C1290 1.349 . S
C1291 C1307 1.349 . S
C1292 C1290 1.327 . S
C1292 C1311 1.429 . S
C1292 H1316 0.950 . S
C1293 C1310 1.574 1_556 S
C1293 C1312 1.368 . S
C1293 H1317 0.949 . S
H1294 C1298 0.949 . S
C1295 C1296 1.349 . S
C1295 C1297 1.327 . S
C1295 H1318 0.950 . S
C1296 C1295 1.349 . S
C1296 C1308 1.349 . S
C1297 C1295 1.327 . S
C1297 C1313 1.429 . S
C1297 H1319 0.950 . S
C1298 H1294 0.949 . S
C1298 C1306 1.574 1_554 S
C1298 C1314 1.368 . S
H1299 C1307 0.950 . S
H1300 C1305 0.950 . S
H1301 C1306 0.949 . S
H1302 C1308 0.950 . S
H1303 C1309 0.950 . S
H1304 C1310 0.949 . S
C1305 H1300 0.950 . S
C1305 C1307 1.327 . S
C1305 C1311 1.429 . S
C1306 C1298 1.574 1_556 S
C1306 H1301 0.949 . S
C1306 C1312 1.368 . S
C1307 C1291 1.349 . S
C1307 H1299 0.950 . S
C1307 C1305 1.327 . S
C1308 C1296 1.349 . S
C1308 H1302 0.950 . S
C1308 C1309 1.327 . S
C1309 H1303 0.950 . S
C1309 C1308 1.327 . S
C1309 C1313 1.429 . S
C1310 C1293 1.574 1_554 S
C1310 H1304 0.949 . S
C1310 C1314 1.368 . S
C1311 C1292 1.429 . S
C1311 C1305 1.429 . S
C1311 C1312 1.523 . S
C1312 C1293 1.368 . S
C1312 C1306 1.368 . S
C1312 C1311 1.523 . S
C1313 C1297 1.429 . S
C1313 C1309 1.429 . S
C1313 C1314 1.523 . S
C1314 C1298 1.368 . S
C1314 C1310 1.368 . S
C1314 C1313 1.523 . S
H1315 C1290 0.950 . S
H1316 C1292 0.950 . S
H1317 C1293 0.949 . S
H1318 C1295 0.950 . S
H1319 C1297 0.950 . S
C1320 C1321 1.349 . S
C1320 C1322 1.327 . S
C1320 H1345 0.950 . S
C1321 C1320 1.349 . S
C1321 C1337 1.349 . S
C1322 C1320 1.327 . S
C1322 C1341 1.429 . S
C1322 H1346 0.950 . S
C1323 C1340 1.574 1_556 S
C1323 C1342 1.368 . S
C1323 H1347 0.949 . S
H1324 C1328 0.949 . S
C1325 C1326 1.349 . S
C1325 C1327 1.327 . S
C1325 H1348 0.950 . S
C1326 C1325 1.349 . S
C1326 C1338 1.349 . S
C1327 C1325 1.327 . S
C1327 C1343 1.429 . S
C1327 H1349 0.950 . S
C1328 H1324 0.949 . S
C1328 C1336 1.574 1_554 S
C1328 C1344 1.368 . S
H1329 C1337 0.950 . S
H1330 C1335 0.950 . S
H1331 C1336 0.949 . S
H1332 C1338 0.950 . S
H1333 C1339 0.950 . S
H1334 C1340 0.949 . S
C1335 H1330 0.950 . S
C1335 C1337 1.327 . S
C1335 C1341 1.429 . S
C1336 C1328 1.574 1_556 S
C1336 H1331 0.949 . S
C1336 C1342 1.368 . S
C1337 C1321 1.349 . S
C1337 H1329 0.950 . S
C1337 C1335 1.327 . S
C1338 C1326 1.349 . S
C1338 H1332 0.950 . S
C1338 C1339 1.327 . S
C1339 H1333 0.950 . S
C1339 C1338 1.327 . S
C1339 C1343 1.429 . S
C1340 C1323 1.574 1_554 S
C1340 H1334 0.949 . S
C1340 C1344 1.368 . S
C1341 C1322 1.429 . S
C1341 C1335 1.429 . S
C1341 C1342 1.523 . S
C1342 C1323 1.368 . S
C1342 C1336 1.368 . S
C1342 C1341 1.523 . S
C1343 C1327 1.429 . S
C1343 C1339 1.429 . S
C1343 C1344 1.523 . S
C1344 C1328 1.368 . S
C1344 C1340 1.368 . S
C1344 C1343 1.523 . S
H1345 C1320 0.950 . S
H1346 C1322 0.950 . S
H1347 C1323 0.949 . S
H1348 C1325 0.950 . S
H1349 C1327 0.950 . S
C1350 C1351 1.349 . S
C1350 C1352 1.327 . S
C1350 H1375 0.950 . S
C1351 C1350 1.349 . S
C1351 C1367 1.349 . S
C1352 C1350 1.327 . S
C1352 C1371 1.429 . S
C1352 H1376 0.950 . S
C1353 C1370 1.574 . S
C1353 C1372 1.368 . S
C1353 H1377 0.949 . S
H1354 C1358 0.949 . S
C1355 C1356 1.349 . S
C1355 C1357 1.327 . S
C1355 H1378 0.950 . S
C1356 C1355 1.349 . S
C1356 C1368 1.349 . S
C1357 C1355 1.327 . S
C1357 C1373 1.429 . S
C1357 H1379 0.950 . S
C1358 H1354 0.949 . S
C1358 C1366 1.574 . S
C1358 C1374 1.368 . S
H1359 C1367 0.950 . S
H1360 C1365 0.950 . S
H1361 C1366 0.949 . S
H1362 C1368 0.950 . S
H1363 C1369 0.950 . S
H1364 C1370 0.949 . S
C1365 H1360 0.950 . S
C1365 C1367 1.327 . S
C1365 C1371 1.429 . S
C1366 C1358 1.574 . S
C1366 H1361 0.949 . S
C1366 C1372 1.368 . S
C1367 C1351 1.349 . S
C1367 H1359 0.950 . S
C1367 C1365 1.327 . S
C1368 C1356 1.349 . S
C1368 H1362 0.950 . S
C1368 C1369 1.327 . S
C1369 H1363 0.950 . S
C1369 C1368 1.327 . S
C1369 C1373 1.429 . S
C1370 C1353 1.574 . S
C1370 H1364 0.949 . S
C1370 C1374 1.368 . S
C1371 C1352 1.429 . S
C1371 C1365 1.429 . S
C1371 C1372 1.523 . S
C1372 C1353 1.368 . S
C1372 C1366 1.368 . S
C1372 C1371 1.523 . S
C1373 C1357 1.429 . S
C1373 C1369 1.429 . S
C1373 C1374 1.523 . S
C1374 C1358 1.368 . S
C1374 C1370 1.368 . S
C1374 C1373 1.523 . S
H1375 C1350 0.950 . S
H1376 C1352 0.950 . S
H1377 C1353 0.949 . S
H1378 C1355 0.950 . S
H1379 C1357 0.950 . S
C1380 C1381 1.349 . S
C1380 C1382 1.327 . S
C1380 H1405 0.950 . S
C1381 C1380 1.349 . S
C1381 C1397 1.349 . S
C1382 C1380 1.327 . S
C1382 C1401 1.429 . S
C1382 H1406 0.950 . S
C1383 C1400 1.574 . S
C1383 C1402 1.368 . S
C1383 H1407 0.949 . S
H1384 C1388 0.949 . S
C1385 C1386 1.349 . S
C1385 C1387 1.327 . S
C1385 H1408 0.950 . S
C1386 C1385 1.349 . S
C1386 C1398 1.349 . S
C1387 C1385 1.327 . S
C1387 C1403 1.429 . S
C1387 H1409 0.950 . S
C1388 H1384 0.949 . S
C1388 C1396 1.574 . S
C1388 C1404 1.368 . S
H1389 C1397 0.950 . S
H1390 C1395 0.950 . S
H1391 C1396 0.949 . S
H1392 C1398 0.950 . S
H1393 C1399 0.950 . S
H1394 C1400 0.949 . S
C1395 H1390 0.950 . S
C1395 C1397 1.327 . S
C1395 C1401 1.429 . S
C1396 C1388 1.574 . S
C1396 H1391 0.949 . S
C1396 C1402 1.368 . S
C1397 C1381 1.349 . S
C1397 H1389 0.950 . S
C1397 C1395 1.327 . S
C1398 C1386 1.349 . S
C1398 H1392 0.950 . S
C1398 C1399 1.327 . S
C1399 H1393 0.950 . S
C1399 C1398 1.327 . S
C1399 C1403 1.429 . S
C1400 C1383 1.574 . S
C1400 H1394 0.949 . S
C1400 C1404 1.368 . S
C1401 C1382 1.429 . S
C1401 C1395 1.429 . S
C1401 C1402 1.523 . S
C1402 C1383 1.368 . S
C1402 C1396 1.368 . S
C1402 C1401 1.523 . S
C1403 C1387 1.429 . S
C1403 C1399 1.429 . S
C1403 C1404 1.523 . S
C1404 C1388 1.368 . S
C1404 C1400 1.368 . S
C1404 C1403 1.523 . S
H1405 C1380 0.950 . S
H1406 C1382 0.950 . S
H1407 C1383 0.949 . S
H1408 C1385 0.950 . S
H1409 C1387 0.950 . S
C1410 C1411 1.349 . S
C1410 C1412 1.327 . S
C1410 H1435 0.950 . S
C1411 C1410 1.349 . S
C1411 C1427 1.349 . S
C1412 C1410 1.327 . S
C1412 C1431 1.429 . S
C1412 H1436 0.950 . S
C1413 C1430 1.574 . S
C1413 C1432 1.368 . S
C1413 H1437 0.949 . S
H1414 C1418 0.949 . S
C1415 C1416 1.349 . S
C1415 C1417 1.327 . S
C1415 H1438 0.950 . S
C1416 C1415 1.349 . S
C1416 C1428 1.349 . S
C1417 C1415 1.327 . S
C1417 C1433 1.429 . S
C1417 H1439 0.950 . S
C1418 H1414 0.949 . S
C1418 C1426 1.574 . S
C1418 C1434 1.368 . S
H1419 C1427 0.950 . S
H1420 C1425 0.950 . S
H1421 C1426 0.949 . S
H1422 C1428 0.950 . S
H1423 C1429 0.950 . S
H1424 C1430 0.949 . S
C1425 H1420 0.950 . S
C1425 C1427 1.327 . S
C1425 C1431 1.429 . S
C1426 C1418 1.574 . S
C1426 H1421 0.949 . S
C1426 C1432 1.368 . S
C1427 C1411 1.349 . S
C1427 H1419 0.950 . S
C1427 C1425 1.327 . S
C1428 C1416 1.349 . S
C1428 H1422 0.950 . S
C1428 C1429 1.327 . S
C1429 H1423 0.950 . S
C1429 C1428 1.327 . S
C1429 C1433 1.429 . S
C1430 C1413 1.574 . S
C1430 H1424 0.949 . S
C1430 C1434 1.368 . S
C1431 C1412 1.429 . S
C1431 C1425 1.429 . S
C1431 C1432 1.523 . S
C1432 C1413 1.368 . S
C1432 C1426 1.368 . S
C1432 C1431 1.523 . S
C1433 C1417 1.429 . S
C1433 C1429 1.429 . S
C1433 C1434 1.523 . S
C1434 C1418 1.368 . S
C1434 C1430 1.368 . S
C1434 C1433 1.523 . S
H1435 C1410 0.950 . S
H1436 C1412 0.950 . S
H1437 C1413 0.949 . S
H1438 C1415 0.950 . S
H1439 C1417 0.950 . S
C1440 C1441 1.349 . S
C1440 C1442 1.327 . S
C1440 H1465 0.950 . S
C1441 C1440 1.349 . S
C1441 C1457 1.349 . S
C1442 C1440 1.327 . S
C1442 C1461 1.429 . S
C1442 H1466 0.950 . S
C1443 C1460 1.574 . S
C1443 C1462 1.368 . S
C1443 H1467 0.949 . S
H1444 C1448 0.949 . S
C1445 C1446 1.349 . S
C1445 C1447 1.327 . S
C1445 H1468 0.950 . S
C1446 C1445 1.349 . S
C1446 C1458 1.349 . S
C1447 C1445 1.327 . S
C1447 C1463 1.429 . S
C1447 H1469 0.950 . S
C1448 H1444 0.949 . S
C1448 C1456 1.574 . S
C1448 C1464 1.368 . S
H1449 C1457 0.950 . S
H1450 C1455 0.950 . S
H1451 C1456 0.949 . S
H1452 C1458 0.950 . S
H1453 C1459 0.950 . S
H1454 C1460 0.949 . S
C1455 H1450 0.950 . S
C1455 C1457 1.327 . S
C1455 C1461 1.429 . S
C1456 C1448 1.574 . S
C1456 H1451 0.949 . S
C1456 C1462 1.368 . S
C1457 C1441 1.349 . S
C1457 H1449 0.950 . S
C1457 C1455 1.327 . S
C1458 C1446 1.349 . S
C1458 H1452 0.950 . S
C1458 C1459 1.327 . S
C1459 H1453 0.950 . S
C1459 C1458 1.327 . S
C1459 C1463 1.429 . S
C1460 C1443 1.574 . S
C1460 H1454 0.949 . S
C1460 C1464 1.368 . S
C1461 C1442 1.429 . S
C1461 C1455 1.429 . S
C1461 C1462 1.523 . S
C1462 C1443 1.368 . S
C1462 C1456 1.368 . S
C1462 C1461 1.523 . S
C1463 C1447 1.429 . S
C1463 C1459 1.429 . S
C1463 C1464 1.523 . S
C1464 C1448 1.368 . S
C1464 C1460 1.368 . S
C1464 C1463 1.523 . S
H1465 C1440 0.950 . S
H1466 C1442 0.950 . S
H1467 C1443 0.949 . S
H1468 C1445 0.950 . S
H1469 C1447 0.950 . S
C1470 C1471 1.349 . S
C1470 C1472 1.327 . S
C1470 H1495 0.950 . S
C1471 C1470 1.349 . S
C1471 C1487 1.349 . S
C1472 C1470 1.327 . S
C1472 C1491 1.429 . S
C1472 H1496 0.950 . S
C1473 C1490 1.574 . S
C1473 C1492 1.368 . S
C1473 H1497 0.949 . S
H1474 C1478 0.949 . S
C1475 C1476 1.349 . S
C1475 C1477 1.327 . S
C1475 H1498 0.950 . S
C1476 C1475 1.349 . S
C1476 C1488 1.349 . S
C1477 C1475 1.327 . S
C1477 C1493 1.429 . S
C1477 H1499 0.950 . S
C1478 H1474 0.949 . S
C1478 C1486 1.574 . S
C1478 C1494 1.368 . S
H1479 C1487 0.950 . S
H1480 C1485 0.950 . S
H1481 C1486 0.949 . S
H1482 C1488 0.950 . S
H1483 C1489 0.950 . S
H1484 C1490 0.949 . S
C1485 H1480 0.950 . S
C1485 C1487 1.327 . S
C1485 C1491 1.429 . S
C1486 C1478 1.574 . S
C1486 H1481 0.949 . S
C1486 C1492 1.368 . S
C1487 C1471 1.349 . S
C1487 H1479 0.950 . S
C1487 C1485 1.327 . S
C1488 C1476 1.349 . S
C1488 H1482 0.950 . S
C1488 C1489 1.327 . S
C1489 H1483 0.950 . S
C1489 C1488 1.327 . S
C1489 C1493 1.429 . S
C1490 C1473 1.574 . S
C1490 H1484 0.949 . S
C1490 C1494 1.368 . S
C1491 C1472 1.429 . S
C1491 C1485 1.429 . S
C1491 C1492 1.523 . S
C1492 C1473 1.368 . S
C1492 C1486 1.368 . S
C1492 C1491 1.523 . S
C1493 C1477 1.429 . S
C1493 C1489 1.429 . S
C1493 C1494 1.523 . S
C1494 C1478 1.368 . S
C1494 C1490 1.368 . S
C1494 C1493 1.523 . S
H1495 C1470 0.950 . S
H1496 C1472 0.950 . S
H1497 C1473 0.949 . S
H1498 C1475 0.950 . S
H1499 C1477 0.950 . S
C1500 C1501 1.349 . S
C1500 C1502 1.327 . S
C1500 H1525 0.950 . S
C1501 C1500 1.349 . S
C1501 C1517 1.349 . S
C1502 C1500 1.327 . S
C1502 C1521 1.429 . S
C1502 H1526 0.950 . S
C1503 C1520 1.574 . S
C1503 C1522 1.368 . S
C1503 H1527 0.949 . S
H1504 C1508 0.949 . S
C1505 C1506 1.349 . S
C1505 C1507 1.327 . S
C1505 H1528 0.950 . S
C1506 C1505 1.349 . S
C1506 C1518 1.349 . S
C1507 C1505 1.327 . S
C1507 C1523 1.429 . S
C1507 H1529 0.950 . S
C1508 H1504 0.949 . S
C1508 C1516 1.574 . S
C1508 C1524 1.368 . S
H1509 C1517 0.950 . S
H1510 C1515 0.950 . S
H1511 C1516 0.949 . S
H1512 C1518 0.950 . S
H1513 C1519 0.950 . S
H1514 C1520 0.949 . S
C1515 H1510 0.950 . S
C1515 C1517 1.327 . S
C1515 C1521 1.429 . S
C1516 C1508 1.574 . S
C1516 H1511 0.949 . S
C1516 C1522 1.368 . S
C1517 C1501 1.349 . S
C1517 H1509 0.950 . S
C1517 C1515 1.327 . S
C1518 C1506 1.349 . S
C1518 H1512 0.950 . S
C1518 C1519 1.327 . S
C1519 H1513 0.950 . S
C1519 C1518 1.327 . S
C1519 C1523 1.429 . S
C1520 C1503 1.574 . S
C1520 H1514 0.949 . S
C1520 C1524 1.368 . S
C1521 C1502 1.429 . S
C1521 C1515 1.429 . S
C1521 C1522 1.523 . S
C1522 C1503 1.368 . S
C1522 C1516 1.368 . S
C1522 C1521 1.523 . S
C1523 C1507 1.429 . S
C1523 C1519 1.429 . S
C1523 C1524 1.523 . S
C1524 C1508 1.368 . S
C1524 C1520 1.368 . S
C1524 C1523 1.523 . S
H1525 C1500 0.950 . S
H1526 C1502 0.950 . S
H1527 C1503 0.949 . S
H1528 C1505 0.950 . S
H1529 C1507 0.950 . S
C1530 C1531 1.349 . S
C1530 C1532 1.327 . S
C1530 H1555 0.950 . S
C1531 C1530 1.349 . S
C1531 C1547 1.349 . S
C1532 C1530 1.327 . S
C1532 C1551 1.429 . S
C1532 H1556 0.950 . S
C1533 C1550 1.574 . S
C1533 C1552 1.368 . S
C1533 H1557 0.949 . S
H1534 C1538 0.949 . S
C1535 C1536 1.349 . S
C1535 C1537 1.327 . S
C1535 H1558 0.950 . S
C1536 C1535 1.349 . S
C1536 C1548 1.349 . S
C1537 C1535 1.327 . S
C1537 C1553 1.429 . S
C1537 H1559 0.950 . S
C1538 H1534 0.949 . S
C1538 C1546 1.574 . S
C1538 C1554 1.368 . S
H1539 C1547 0.950 . S
H1540 C1545 0.950 . S
H1541 C1546 0.949 . S
H1542 C1548 0.950 1_545 S
H1543 C1549 0.950 . S
H1544 C1550 0.949 . S
C1545 H1540 0.950 . S
C1545 C1547 1.327 . S
C1545 C1551 1.429 . S
C1546 C1538 1.574 . S
C1546 H1541 0.949 . S
C1546 C1552 1.368 . S
C1547 C1531 1.349 . S
C1547 H1539 0.950 . S
C1547 C1545 1.327 . S
C1548 C1536 1.349 . S
C1548 H1542 0.950 1_565 S
C1548 C1549 1.327 . S
C1549 H1543 0.950 . S
C1549 C1548 1.327 . S
C1549 C1553 1.429 . S
C1550 C1533 1.574 . S
C1550 H1544 0.949 . S
C1550 C1554 1.368 . S
C1551 C1532 1.429 . S
C1551 C1545 1.429 . S
C1551 C1552 1.523 . S
C1552 C1533 1.368 . S
C1552 C1546 1.368 . S
C1552 C1551 1.523 . S
C1553 C1537 1.429 . S
C1553 C1549 1.429 . S
C1553 C1554 1.523 . S
C1554 C1538 1.368 . S
C1554 C1550 1.368 . S
C1554 C1553 1.523 . S
H1555 C1530 0.950 . S
H1556 C1532 0.950 . S
H1557 C1533 0.949 . S
H1558 C1535 0.950 . S
H1559 C1537 0.950 . S
C1560 C1561 1.349 . S
C1560 C1562 1.327 . S
C1560 H1585 0.950 . S
C1561 C1560 1.349 . S
C1561 C1577 1.349 . S
C1562 C1560 1.327 . S
C1562 C1581 1.429 . S
C1562 H1586 0.950 . S
C1563 C1580 1.574 . S
C1563 C1582 1.368 . S
C1563 H1587 0.949 . S
H1564 C1568 0.949 . S
C1565 C1566 1.349 . S
C1565 C1567 1.327 . S
C1565 H1588 0.950 . S
C1566 C1565 1.349 . S
C1566 C1578 1.349 . S
C1567 C1565 1.327 . S
C1567 C1583 1.429 . S
C1567 H1589 0.950 . S
C1568 H1564 0.949 . S
C1568 C1576 1.574 . S
C1568 C1584 1.368 . S
H1569 C1577 0.950 . S
H1570 C1575 0.950 . S
H1571 C1576 0.949 . S
H1572 C1578 0.950 . S
H1573 C1579 0.950 . S
H1574 C1580 0.949 . S
C1575 H1570 0.950 . S
C1575 C1577 1.327 . S
C1575 C1581 1.429 . S
C1576 C1568 1.574 . S
C1576 H1571 0.949 . S
C1576 C1582 1.368 . S
C1577 C1561 1.349 . S
C1577 H1569 0.950 . S
C1577 C1575 1.327 . S
C1578 C1566 1.349 . S
C1578 H1572 0.950 . S
C1578 C1579 1.327 . S
C1579 H1573 0.950 . S
C1579 C1578 1.327 . S
C1579 C1583 1.429 . S
C1580 C1563 1.574 . S
C1580 H1574 0.949 . S
C1580 C1584 1.368 . S
C1581 C1562 1.429 . S
C1581 C1575 1.429 . S
C1581 C1582 1.523 . S
C1582 C1563 1.368 . S
C1582 C1576 1.368 . S
C1582 C1581 1.523 . S
C1583 C1567 1.429 . S
C1583 C1579 1.429 . S
C1583 C1584 1.523 . S
C1584 C1568 1.368 . S
C1584 C1580 1.368 . S
C1584 C1583 1.523 . S
H1585 C1560 0.950 . S
H1586 C1562 0.950 . S
H1587 C1563 0.949 . S
H1588 C1565 0.950 . S
H1589 C1567 0.950 . S
C1590 C1591 1.349 . S
C1590 C1592 1.327 . S
C1590 H1615 0.950 . S
C1591 C1590 1.349 . S
C1591 C1607 1.349 . S
C1592 C1590 1.327 . S
C1592 C1611 1.429 . S
C1592 H1616 0.950 . S
C1593 C1610 1.574 . S
C1593 C1612 1.368 . S
C1593 H1617 0.949 . S
H1594 C1598 0.949 . S
C1595 C1596 1.349 . S
C1595 C1597 1.327 . S
C1595 H1618 0.950 . S
C1596 C1595 1.349 . S
C1596 C1608 1.349 . S
C1597 C1595 1.327 . S
C1597 C1613 1.429 . S
C1597 H1619 0.950 . S
C1598 H1594 0.949 . S
C1598 C1606 1.574 . S
C1598 C1614 1.368 . S
H1599 C1607 0.950 . S
H1600 C1605 0.950 . S
H1601 C1606 0.949 . S
H1602 C1608 0.950 . S
H1603 C1609 0.950 . S
H1604 C1610 0.949 . S
C1605 H1600 0.950 . S
C1605 C1607 1.327 . S
C1605 C1611 1.429 . S
C1606 C1598 1.574 . S
C1606 H1601 0.949 . S
C1606 C1612 1.368 . S
C1607 C1591 1.349 . S
C1607 H1599 0.950 . S
C1607 C1605 1.327 . S
C1608 C1596 1.349 . S
C1608 H1602 0.950 . S
C1608 C1609 1.327 . S
C1609 H1603 0.950 . S
C1609 C1608 1.327 . S
C1609 C1613 1.429 . S
C1610 C1593 1.574 . S
C1610 H1604 0.949 . S
C1610 C1614 1.368 . S
C1611 C1592 1.429 . S
C1611 C1605 1.429 . S
C1611 C1612 1.523 . S
C1612 C1593 1.368 . S
C1612 C1606 1.368 . S
C1612 C1611 1.523 . S
C1613 C1597 1.429 . S
C1613 C1609 1.429 . S
C1613 C1614 1.523 . S
C1614 C1598 1.368 . S
C1614 C1610 1.368 . S
C1614 C1613 1.523 . S
H1615 C1590 0.950 . S
H1616 C1592 0.950 . S
H1617 C1593 0.949 . S
H1618 C1595 0.950 . S
H1619 C1597 0.950 . S
C1620 C1621 1.349 . S
C1620 C1622 1.327 . S
C1620 H1645 0.950 . S
C1621 C1620 1.349 . S
C1621 C1637 1.349 1_655 S
C1622 C1620 1.327 . S
C1622 C1641 1.429 . S
C1622 H1646 0.950 . S
C1623 C1640 1.574 . S
C1623 C1642 1.368 . S
C1623 H1647 0.949 . S
H1624 C1628 0.949 . S
C1625 C1626 1.349 . S
C1625 C1627 1.327 . S
C1625 H1648 0.950 . S
C1626 C1625 1.349 . S
C1626 C1638 1.349 . S
C1627 C1625 1.327 . S
C1627 C1643 1.429 . S
C1627 H1649 0.950 . S
C1628 H1624 0.949 . S
C1628 C1636 1.574 . S
C1628 C1644 1.368 . S
H1629 C1637 0.950 . S
H1630 C1635 0.950 1_455 S
H1631 C1636 0.949 . S
H1632 C1638 0.950 . S
H1633 C1639 0.950 . S
H1634 C1640 0.949 . S
C1635 H1630 0.950 1_655 S
C1635 C1637 1.327 1_655 S
C1635 C1641 1.429 . S
C1636 C1628 1.574 . S
C1636 H1631 0.949 . S
C1636 C1642 1.368 . S
C1637 C1621 1.349 1_455 S
C1637 H1629 0.950 . S
C1637 C1635 1.327 1_455 S
C1638 C1626 1.349 . S
C1638 H1632 0.950 . S
C1638 C1639 1.327 . S
C1639 H1633 0.950 . S
C1639 C1638 1.327 . S
C1639 C1643 1.429 . S
C1640 C1623 1.574 . S
C1640 H1634 0.949 . S
C1640 C1644 1.368 . S
C1641 C1622 1.429 . S
C1641 C1635 1.429 . S
C1641 C1642 1.523 . S
C1642 C1623 1.368 . S
C1642 C1636 1.368 . S
C1642 C1641 1.523 . S
C1643 C1627 1.429 . S
C1643 C1639 1.429 . S
C1643 C1644 1.523 . S
C1644 C1628 1.368 . S
C1644 C1640 1.368 . S
C1644 C1643 1.523 . S
H1645 C1620 0.950 . S
H1646 C1622 0.950 . S
H1647 C1623 0.949 . S
H1648 C1625 0.950 . S
H1649 C1627 0.950 . S
C1650 C1651 1.349 . S
C1650 C1652 1.327 . S
C1650 H1675 0.950 . S
C1651 C1650 1.349 . S
C1651 C1667 1.349 . S
C1652 C1650 1.327 . S
C1652 C1671 1.429 . S
C1652 H1676 0.950 . S
C1653 C1670 1.574 . S
C1653 C1672 1.368 . S
C1653 H1677 0.949 . S
H1654 C1658 0.949 . S
C1655 C1656 1.349 . S
C1655 C1657 1.327 . S
C1655 H1678 0.950 . S
C1656 C1655 1.349 . S
C1656 C1668 1.349 . S
C1657 C1655 1.327 . S
C1657 C1673 1.429 . S
C1657 H1679 0.950 . S
C1658 H1654 0.949 . S
C1658 C1666 1.574 . S
C1658 C1674 1.368 . S
H1659 C1667 0.950 . S
H1660 C1665 0.950 . S
H1661 C1666 0.949 . S
H1662 C1668 0.950 . S
H1663 C1669 0.950 . S
H1664 C1670 0.949 . S
C1665 H1660 0.950 . S
C1665 C1667 1.327 . S
C1665 C1671 1.429 . S
C1666 C1658 1.574 . S
C1666 H1661 0.949 . S
C1666 C1672 1.368 . S
C1667 C1651 1.349 . S
C1667 H1659 0.950 . S
C1667 C1665 1.327 . S
C1668 C1656 1.349 . S
C1668 H1662 0.950 . S
C1668 C1669 1.327 . S
C1669 H1663 0.950 . S
C1669 C1668 1.327 . S
C1669 C1673 1.429 . S
C1670 C1653 1.574 . S
C1670 H1664 0.949 . S
C1670 C1674 1.368 . S
C1671 C1652 1.429 . S
C1671 C1665 1.429 . S
C1671 C1672 1.523 . S
C1672 C1653 1.368 . S
C1672 C1666 1.368 . S
C1672 C1671 1.523 . S
C1673 C1657 1.429 . S
C1673 C1669 1.429 . S
C1673 C1674 1.523 . S
C1674 C1658 1.368 . S
C1674 C1670 1.368 . S
C1674 C1673 1.523 . S
H1675 C1650 0.950 . S
H1676 C1652 0.950 . S
H1677 C1653 0.949 . S
H1678 C1655 0.950 . S
H1679 C1657 0.950 . S
C1680 C1681 1.349 . S
C1680 C1682 1.327 . S
C1680 H1705 0.950 . S
C1681 C1680 1.349 . S
C1681 C1697 1.349 . S
C1682 C1680 1.327 . S
C1682 C1701 1.429 . S
C1682 H1706 0.950 . S
C1683 C1700 1.574 . S
C1683 C1702 1.368 . S
C1683 H1707 0.949 . S
H1684 C1688 0.949 . S
C1685 C1686 1.349 . S
C1685 C1687 1.327 . S
C1685 H1708 0.950 . S
C1686 C1685 1.349 . S
C1686 C1698 1.349 . S
C1687 C1685 1.327 . S
C1687 C1703 1.429 . S
C1687 H1709 0.950 . S
C1688 H1684 0.949 . S
C1688 C1696 1.574 . S
C1688 C1704 1.368 . S
H1689 C1697 0.950 . S
H1690 C1695 0.950 . S
H1691 C1696 0.949 . S
H1692 C1698 0.950 . S
H1693 C1699 0.950 . S
H1694 C1700 0.949 . S
C1695 H1690 0.950 . S
C1695 C1697 1.327 . S
C1695 C1701 1.429 . S
C1696 C1688 1.574 . S
C1696 H1691 0.949 . S
C1696 C1702 1.368 . S
C1697 C1681 1.349 . S
C1697 H1689 0.950 . S
C1697 C1695 1.327 . S
C1698 C1686 1.349 . S
C1698 H1692 0.950 . S
C1698 C1699 1.327 . S
C1699 H1693 0.950 . S
C1699 C1698 1.327 . S
C1699 C1703 1.429 . S
C1700 C1683 1.574 . S
C1700 H1694 0.949 . S
C1700 C1704 1.368 . S
C1701 C1682 1.429 . S
C1701 C1695 1.429 . S
C1701 C1702 1.523 . S
C1702 C1683 1.368 . S
C1702 C1696 1.368 . S
C1702 C1701 1.523 . S
C1703 C1687 1.429 . S
C1703 C1699 1.429 . S
C1703 C1704 1.523 . S
C1704 C1688 1.368 . S
C1704 C1700 1.368 . S
C1704 C1703 1.523 . S
H1705 C1680 0.950 . S
H1706 C1682 0.950 . S
H1707 C1683 0.949 . S
H1708 C1685 0.950 . S
H1709 C1687 0.950 . S
C1710 C1711 1.349 . S
C1710 C1712 1.327 . S
C1710 H1735 0.950 . S
C1711 C1710 1.349 . S
C1711 C1727 1.349 . S
C1712 C1710 1.327 . S
C1712 C1731 1.429 . S
C1712 H1736 0.950 . S
C1713 C1730 1.574 . S
C1713 C1732 1.368 1_455 S
C1713 H1737 0.949 . S
H1714 C1718 0.949 . S
C1715 C1716 1.349 . S
C1715 C1717 1.327 . S
C1715 H1738 0.950 . S
C1716 C1715 1.349 . S
C1716 C1728 1.349 . S
C1717 C1715 1.327 . S
C1717 C1733 1.429 . S
C1717 H1739 0.950 . S
C1718 H1714 0.949 . S
C1718 C1726 1.574 1_455 S
C1718 C1734 1.368 . S
H1719 C1727 0.950 . S
H1720 C1725 0.950 . S
H1721 C1726 0.949 . S
H1722 C1728 0.950 . S
H1723 C1729 0.950 . S
H1724 C1730 0.949 . S
C1725 H1720 0.950 . S
C1725 C1727 1.327 . S
C1725 C1731 1.429 . S
C1726 C1718 1.574 1_655 S
C1726 H1721 0.949 . S
C1726 C1732 1.368 . S
C1727 C1711 1.349 . S
C1727 H1719 0.950 . S
C1727 C1725 1.327 . S
C1728 C1716 1.349 . S
C1728 H1722 0.950 . S
C1728 C1729 1.327 . S
C1729 H1723 0.950 . S
C1729 C1728 1.327 . S
C1729 C1733 1.429 . S
C1730 C1713 1.574 . S
C1730 H1724 0.949 . S
C1730 C1734 1.368 . S
C1731 C1712 1.429 . S
C1731 C1725 1.429 . S
C1731 C1732 1.523 . S
C1732 C1713 1.368 1_655 S
C1732 C1726 1.368 . S
C1732 C1731 1.523 . S
C1733 C1717 1.429 . S
C1733 C1729 1.429 . S
C1733 C1734 1.523 . S
C1734 C1718 1.368 . S
C1734 C1730 1.368 . S
C1734 C1733 1.523 . S
H1735 C1710 0.950 . S
H1736 C1712 0.950 . S
H1737 C1713 0.949 . S
H1738 C1715 0.950 . S
H1739 C1717 0.950 . S
C1740 C1741 1.349 . S
C1740 C1742 1.327 . S
C1740 H1765 0.950 . S
C1741 C1740 1.349 . S
C1741 C1757 1.349 . S
C1742 C1740 1.327 . S
C1742 C1761 1.429 . S
C1742 H1766 0.950 . S
C1743 C1760 1.574 . S
C1743 C1762 1.368 . S
C1743 H1767 0.949 . S
H1744 C1748 0.949 . S
C1745 C1746 1.349 . S
C1745 C1747 1.327 . S
C1745 H1768 0.950 . S
C1746 C1745 1.349 . S
C1746 C1758 1.349 . S
C1747 C1745 1.327 . S
C1747 C1763 1.429 . S
C1747 H1769 0.950 . S
C1748 H1744 0.949 . S
C1748 C1756 1.574 . S
C1748 C1764 1.368 . S
H1749 C1757 0.950 . S
H1750 C1755 0.950 . S
H1751 C1756 0.949 . S
H1752 C1758 0.950 . S
H1753 C1759 0.950 . S
H1754 C1760 0.949 . S
C1755 H1750 0.950 . S
C1755 C1757 1.327 . S
C1755 C1761 1.429 . S
C1756 C1748 1.574 . S
C1756 H1751 0.949 . S
C1756 C1762 1.368 . S
C1757 C1741 1.349 . S
C1757 H1749 0.950 . S
C1757 C1755 1.327 . S
C1758 C1746 1.349 . S
C1758 H1752 0.950 . S
C1758 C1759 1.327 . S
C1759 H1753 0.950 . S
C1759 C1758 1.327 . S
C1759 C1763 1.429 . S
C1760 C1743 1.574 . S
C1760 H1754 0.949 . S
C1760 C1764 1.368 . S
C1761 C1742 1.429 . S
C1761 C1755 1.429 . S
C1761 C1762 1.523 . S
C1762 C1743 1.368 . S
C1762 C1756 1.368 . S
C1762 C1761 1.523 . S
C1763 C1747 1.429 . S
C1763 C1759 1.429 . S
C1763 C1764 1.523 . S
C1764 C1748 1.368 . S
C1764 C1760 1.368 . S
C1764 C1763 1.523 . S
H1765 C1740 0.950 . S
H1766 C1742 0.950 . S
H1767 C1743 0.949 . S
H1768 C1745 0.950 . S
H1769 C1747 0.950 . S
C1770 C1771 1.349 . S
C1770 C1772 1.327 . S
C1770 H1795 0.950 . S
C1771 C1770 1.349 . S
C1771 C1787 1.349 . S
C1772 C1770 1.327 . S
C1772 C1791 1.429 . S
C1772 H1796 0.950 . S
C1773 C1790 1.574 1_565 S
C1773 C1792 1.368 . S
C1773 H1797 0.949 . S
H1774 C1778 0.949 . S
C1775 C1776 1.349 . S
C1775 C1777 1.327 . S
C1775 H1798 0.950 . S
C1776 C1775 1.349 . S
C1776 C1788 1.349 . S
C1777 C1775 1.327 . S
C1777 C1793 1.429 . S
C1777 H1799 0.950 . S
C1778 H1774 0.949 . S
C1778 C1786 1.574 . S
C1778 C1794 1.368 . S
H1779 C1787 0.950 . S
H1780 C1785 0.950 . S
H1781 C1786 0.949 . S
H1782 C1788 0.950 . S
H1783 C1789 0.950 . S
H1784 C1790 0.949 . S
C1785 H1780 0.950 . S
C1785 C1787 1.327 . S
C1785 C1791 1.429 . S
C1786 C1778 1.574 . S
C1786 H1781 0.949 . S
C1786 C1792 1.368 1_545 S
C1787 C1771 1.349 . S
C1787 H1779 0.950 . S
C1787 C1785 1.327 . S
C1788 C1776 1.349 . S
C1788 H1782 0.950 . S
C1788 C1789 1.327 . S
C1789 H1783 0.950 . S
C1789 C1788 1.327 . S
C1789 C1793 1.429 . S
C1790 C1773 1.574 1_545 S
C1790 H1784 0.949 . S
C1790 C1794 1.368 . S
C1791 C1772 1.429 . S
C1791 C1785 1.429 . S
C1791 C1792 1.523 . S
C1792 C1773 1.368 . S
C1792 C1786 1.368 1_565 S
C1792 C1791 1.523 . S
C1793 C1777 1.429 . S
C1793 C1789 1.429 . S
C1793 C1794 1.523 . S
C1794 C1778 1.368 . S
C1794 C1790 1.368 . S
C1794 C1793 1.523 . S
H1795 C1770 0.950 . S
H1796 C1772 0.950 . S
H1797 C1773 0.949 . S
H1798 C1775 0.950 . S
H1799 C1777 0.950 . S
C1800 C1801 1.349 . S
C1800 C1802 1.327 . S
C1800 H1825 0.950 . S
C1801 C1800 1.349 . S
C1801 C1817 1.349 . S
C1802 C1800 1.327 . S
C1802 C1821 1.429 . S
C1802 H1826 0.950 . S
C1803 C1820 1.574 . S
C1803 C1822 1.368 . S
C1803 H1827 0.949 . S
H1804 C1808 0.949 . S
C1805 C1806 1.349 . S
C1805 C1807 1.327 . S
C1805 H1828 0.950 . S
C1806 C1805 1.349 . S
C1806 C1818 1.349 . S
C1807 C1805 1.327 . S
C1807 C1823 1.429 . S
C1807 H1829 0.950 . S
C1808 H1804 0.949 . S
C1808 C1816 1.574 . S
C1808 C1824 1.368 . S
H1809 C1817 0.950 . S
H1810 C1815 0.950 . S
H1811 C1816 0.949 . S
H1812 C1818 0.950 . S
H1813 C1819 0.950 . S
H1814 C1820 0.949 . S
C1815 H1810 0.950 . S
C1815 C1817 1.327 . S
C1815 C1821 1.429 . S
C1816 C1808 1.574 . S
C1816 H1811 0.949 . S
C1816 C1822 1.368 . S
C1817 C1801 1.349 . S
C1817 H1809 0.950 . S
C1817 C1815 1.327 . S
C1818 C1806 1.349 . S
C1818 H1812 0.950 . S
C1818 C1819 1.327 . S
C1819 H1813 0.950 . S
C1819 C1818 1.327 . S
C1819 C1823 1.429 . S
C1820 C1803 1.574 . S
C1820 H1814 0.949 . S
C1820 C1824 1.368 . S
C1821 C1802 1.429 . S
C1821 C1815 1.429 . S
C1821 C1822 1.523 . S
C1822 C1803 1.368 . S
C1822 C1816 1.368 . S
C1822 C1821 1.523 . S
C1823 C1807 1.429 . S
C1823 C1819 1.429 . S
C1823 C1824 1.523 . S
C1824 C1808 1.368 . S
C1824 C1820 1.368 . S
C1824 C1823 1.523 . S
H1825 C1800 0.950 . S
H1826 C1802 0.950 . S
H1827 C1803 0.949 . S
H1828 C1805 0.950 . S
H1829 C1807 0.950 . S
C1830 C1831 1.349 . S
C1830 C1832 1.327 . S
C1830 H1855 0.950 . S
C1831 C1830 1.349 . S
C1831 C1847 1.349 . S
C1832 C1830 1.327 . S
C1832 C1851 1.429 . S
C1832 H1856 0.950 . S
C1833 C1850 1.574 . S
C1833 C1852 1.368 . S
C1833 H1857 0.949 . S
H1834 C1838 0.949 . S
C1835 C1836 1.349 . S
C1835 C1837 1.327 . S
C1835 H1858 0.950 . S
C1836 C1835 1.349 . S
C1836 C1848 1.349 . S
C1837 C1835 1.327 . S
C1837 C1853 1.429 . S
C1837 H1859 0.950 . S
C1838 H1834 0.949 . S
C1838 C1846 1.574 . S
C1838 C1854 1.368 . S
H1839 C1847 0.950 . S
H1840 C1845 0.950 . S
H1841 C1846 0.949 . S
H1842 C1848 0.950 . S
H1843 C1849 0.950 . S
H1844 C1850 0.949 . S
C1845 H1840 0.950 . S
C1845 C1847 1.327 . S
C1845 C1851 1.429 . S
C1846 C1838 1.574 . S
C1846 H1841 0.949 . S
C1846 C1852 1.368 . S
C1847 C1831 1.349 . S
C1847 H1839 0.950 . S
C1847 C1845 1.327 . S
C1848 C1836 1.349 . S
C1848 H1842 0.950 . S
C1848 C1849 1.327 . S
C1849 H1843 0.950 . S
C1849 C1848 1.327 . S
C1849 C1853 1.429 . S
C1850 C1833 1.574 . S
C1850 H1844 0.949 . S
C1850 C1854 1.368 . S
C1851 C1832 1.429 . S
C1851 C1845 1.429 . S
C1851 C1852 1.523 . S
C1852 C1833 1.368 . S
C1852 C1846 1.368 . S
C1852 C1851 1.523 . S
C1853 C1837 1.429 . S
C1853 C1849 1.429 . S
C1853 C1854 1.523 . S
C1854 C1838 1.368 . S
C1854 C1850 1.368 . S
C1854 C1853 1.523 . S
H1855 C1830 0.950 . S
H1856 C1832 0.950 . S
H1857 C1833 0.949 . S
H1858 C1835 0.950 . S
H1859 C1837 0.950 . S
C1860 C1861 1.349 . S
C1860 C1862 1.327 . S
C1860 H1885 0.950 . S
C1861 C1860 1.349 . S
C1861 C1877 1.349 . S
C1862 C1860 1.327 . S
C1862 C1881 1.429 . S
C1862 H1886 0.950 . S
C1863 C1880 1.574 . S
C1863 C1882 1.368 . S
C1863 H1887 0.949 . S
H1864 C1868 0.949 . S
C1865 C1866 1.349 . S
C1865 C1867 1.327 . S
C1865 H1888 0.950 . S
C1866 C1865 1.349 . S
C1866 C1878 1.349 . S
C1867 C1865 1.327 . S
C1867 C1883 1.429 . S
C1867 H1889 0.950 . S
C1868 H1864 0.949 . S
C1868 C1876 1.574 . S
C1868 C1884 1.368 . S
H1869 C1877 0.950 . S
H1870 C1875 0.950 . S
H1871 C1876 0.949 . S
H1872 C1878 0.950 . S
H1873 C1879 0.950 . S
H1874 C1880 0.949 . S
C1875 H1870 0.950 . S
C1875 C1877 1.327 . S
C1875 C1881 1.429 . S
C1876 C1868 1.574 . S
C1876 H1871 0.949 . S
C1876 C1882 1.368 . S
C1877 C1861 1.349 . S
C1877 H1869 0.950 . S
C1877 C1875 1.327 . S
C1878 C1866 1.349 . S
C1878 H1872 0.950 . S
C1878 C1879 1.327 . S
C1879 H1873 0.950 . S
C1879 C1878 1.327 . S
C1879 C1883 1.429 . S
C1880 C1863 1.574 . S
C1880 H1874 0.949 . S
C1880 C1884 1.368 . S
C1881 C1862 1.429 . S
C1881 C1875 1.429 . S
C1881 C1882 1.523 . S
C1882 C1863 1.368 . S
C1882 C1876 1.368 . S
C1882 C1881 1.523 . S
C1883 C1867 1.429 . S
C1883 C1879 1.429 . S
C1883 C1884 1.523 . S
C1884 C1868 1.368 . S
C1884 C1880 1.368 . S
C1884 C1883 1.523 . S
H1885 C1860 0.950 . S
H1886 C1862 0.950 . S
H1887 C1863 0.949 . S
H1888 C1865 0.950 . S
H1889 C1867 0.950 . S
C1890 C1891 1.349 . S
C1890 C1892 1.327 . S
C1890 H1915 0.950 . S
C1891 C1890 1.349 . S
C1891 C1907 1.349 . S
C1892 C1890 1.327 . S
C1892 C1911 1.429 . S
C1892 H1916 0.950 . S
C1893 C1910 1.574 . S
C1893 C1912 1.368 . S
C1893 H1917 0.949 . S
H1894 C1898 0.949 . S
C1895 C1896 1.349 . S
C1895 C1897 1.327 . S
C1895 H1918 0.950 . S
C1896 C1895 1.349 . S
C1896 C1908 1.349 . S
C1897 C1895 1.327 . S
C1897 C1913 1.429 . S
C1897 H1919 0.950 . S
C1898 H1894 0.949 . S
C1898 C1906 1.574 . S
C1898 C1914 1.368 . S
H1899 C1907 0.950 . S
H1900 C1905 0.950 . S
H1901 C1906 0.949 . S
H1902 C1908 0.950 . S
H1903 C1909 0.950 . S
H1904 C1910 0.949 . S
C1905 H1900 0.950 . S
C1905 C1907 1.327 . S
C1905 C1911 1.429 . S
C1906 C1898 1.574 . S
C1906 H1901 0.949 . S
C1906 C1912 1.368 . S
C1907 C1891 1.349 . S
C1907 H1899 0.950 . S
C1907 C1905 1.327 . S
C1908 C1896 1.349 . S
C1908 H1902 0.950 . S
C1908 C1909 1.327 . S
C1909 H1903 0.950 . S
C1909 C1908 1.327 . S
C1909 C1913 1.429 . S
C1910 C1893 1.574 . S
C1910 H1904 0.949 . S
C1910 C1914 1.368 . S
C1911 C1892 1.429 . S
C1911 C1905 1.429 . S
C1911 C1912 1.523 . S
C1912 C1893 1.368 . S
C1912 C1906 1.368 . S
C1912 C1911 1.523 . S
C1913 C1897 1.429 . S
C1913 C1909 1.429 . S
C1913 C1914 1.523 . S
C1914 C1898 1.368 . S
C1914 C1910 1.368 . S
C1914 C1913 1.523 . S
H1915 C1890 0.950 . S
H1916 C1892 0.950 . S
H1917 C1893 0.949 . S
H1918 C1895 0.950 . S
H1919 C1897 0.950 . S
C1920 C1921 1.349 . S
C1920 C1922 1.327 . S
C1920 H1945 0.950 . S
C1921 C1920 1.349 . S
C1921 C1937 1.349 . S
C1922 C1920 1.327 . S
C1922 C1941 1.429 . S
C1922 H1946 0.950 . S
C1923 C1940 1.574 . S
C1923 C1942 1.368 . S
C1923 H1947 0.949 . S
H1924 C1928 0.949 . S
C1925 C1926 1.349 . S
C1925 C1927 1.327 . S
C1925 H1948 0.950 . S
C1926 C1925 1.349 . S
C1926 C1938 1.349 . S
C1927 C1925 1.327 . S
C1927 C1943 1.429 . S
C1927 H1949 0.950 . S
C1928 H1924 0.949 . S
C1928 C1936 1.574 . S
C1928 C1944 1.368 . S
H1929 C1937 0.950 . S
H1930 C1935 0.950 . S
H1931 C1936 0.949 . S
H1932 C1938 0.950 . S
H1933 C1939 0.950 . S
H1934 C1940 0.949 . S
C1935 H1930 0.950 . S
C1935 C1937 1.327 . S
C1935 C1941 1.429 . S
C1936 C1928 1.574 . S
C1936 H1931 0.949 . S
C1936 C1942 1.368 . S
C1937 C1921 1.349 . S
C1937 H1929 0.950 . S
C1937 C1935 1.327 . S
C1938 C1926 1.349 . S
C1938 H1932 0.950 . S
C1938 C1939 1.327 . S
C1939 H1933 0.950 . S
C1939 C1938 1.327 . S
C1939 C1943 1.429 . S
C1940 C1923 1.574 . S
C1940 H1934 0.949 . S
C1940 C1944 1.368 . S
C1941 C1922 1.429 . S
C1941 C1935 1.429 . S
C1941 C1942 1.523 . S
C1942 C1923 1.368 . S
C1942 C1936 1.368 . S
C1942 C1941 1.523 . S
C1943 C1927 1.429 . S
C1943 C1939 1.429 . S
C1943 C1944 1.523 . S
C1944 C1928 1.368 . S
C1944 C1940 1.368 . S
C1944 C1943 1.523 . S
H1945 C1920 0.950 . S
H1946 C1922 0.950 . S
H1947 C1923 0.949 . S
H1948 C1925 0.950 . S
H1949 C1927 0.950 . S
C1950 C1951 1.349 . S
C1950 C1952 1.327 . S
C1950 H1975 0.950 . S
C1951 C1950 1.349 . S
C1951 C1967 1.349 . S
C1952 C1950 1.327 . S
C1952 C1971 1.429 . S
C1952 H1976 0.950 . S
C1953 C1970 1.574 . S
C1953 C1972 1.368 . S
C1953 H1977 0.949 . S
H1954 C1958 0.949 . S
C1955 C1956 1.349 . S
C1955 C1957 1.327 . S
C1955 H1978 0.950 . S
C1956 C1955 1.349 . S
C1956 C1968 1.349 . S
C1957 C1955 1.327 . S
C1957 C1973 1.429 . S
C1957 H1979 0.950 . S
C1958 H1954 0.949 . S
C1958 C1966 1.574 . S
C1958 C1974 1.368 . S
H1959 C1967 0.950 . S
H1960 C1965 0.950 . S
H1961 C1966 0.949 . S
H1962 C1968 0.950 . S
H1963 C1969 0.950 . S
H1964 C1970 0.949 . S
C1965 H1960 0.950 . S
C1965 C1967 1.327 . S
C1965 C1971 1.429 . S
C1966 C1958 1.574 . S
C1966 H1961 0.949 . S
C1966 C1972 1.368 . S
C1967 C1951 1.349 . S
C1967 H1959 0.950 . S
C1967 C1965 1.327 . S
C1968 C1956 1.349 . S
C1968 H1962 0.950 . S
C1968 C1969 1.327 . S
C1969 H1963 0.950 . S
C1969 C1968 1.327 . S
C1969 C1973 1.429 . S
C1970 C1953 1.574 . S
C1970 H1964 0.949 . S
C1970 C1974 1.368 . S
C1971 C1952 1.429 . S
C1971 C1965 1.429 . S
C1971 C1972 1.523 . S
C1972 C1953 1.368 . S
C1972 C1966 1.368 . S
C1972 C1971 1.523 . S
C1973 C1957 1.429 . S
C1973 C1969 1.429 . S
C1973 C1974 1.523 . S
C1974 C1958 1.368 . S
C1974 C1970 1.368 . S
C1974 C1973 1.523 . S
H1975 C1950 0.950 . S
H1976 C1952 0.950 . S
H1977 C1953 0.949 . S
H1978 C1955 0.950 . S
H1979 C1957 0.950 . S
C1980 C1981 1.349 . S
C1980 C1982 1.327 . S
C1980 H2005 0.950 . S
C1981 C1980 1.349 . S
C1981 C1997 1.349 . S
C1982 C1980 1.327 . S
C1982 C2001 1.429 . S
C1982 H2006 0.950 . S
C1983 C2000 1.574 . S
C1983 C2002 1.368 . S
C1983 H2007 0.949 . S
H1984 C1988 0.949 . S
C1985 C1986 1.349 . S
C1985 C1987 1.327 . S
C1985 H2008 0.950 . S
C1986 C1985 1.349 . S
C1986 C1998 1.349 . S
C1987 C1985 1.327 . S
C1987 C2003 1.429 . S
C1987 H2009 0.950 . S
C1988 H1984 0.949 . S
C1988 C1996 1.574 . S
C1988 C2004 1.368 . S
H1989 C1997 0.950 . S
H1990 C1995 0.950 . S
H1991 C1996 0.949 . S
H1992 C1998 0.950 . S
H1993 C1999 0.950 . S
H1994 C2000 0.949 . S
C1995 H1990 0.950 . S
C1995 C1997 1.327 . S
C1995 C2001 1.429 . S
C1996 C1988 1.574 . S
C1996 H1991 0.949 . S
C1996 C2002 1.368 . S
C1997 C1981 1.349 . S
C1997 H1989 0.950 . S
C1997 C1995 1.327 . S
C1998 C1986 1.349 . S
C1998 H1992 0.950 . S
C1998 C1999 1.327 . S
C1999 H1993 0.950 . S
C1999 C1998 1.327 . S
C1999 C2003 1.429 . S
C2000 C1983 1.574 . S
C2000 H1994 0.949 . S
C2000 C2004 1.368 . S
C2001 C1982 1.429 . S
C2001 C1995 1.429 . S
C2001 C2002 1.523 . S
C2002 C1983 1.368 . S
C2002 C1996 1.368 . S
C2002 C2001 1.523 . S
C2003 C1987 1.429 . S
C2003 C1999 1.429 . S
C2003 C2004 1.523 . S
C2004 C1988 1.368 . S
C2004 C2000 1.368 . S
C2004 C2003 1.523 . S
H2005 C1980 0.950 . S
H2006 C1982 0.950 . S
H2007 C1983 0.949 . S
H2008 C1985 0.950 . S
H2009 C1987 0.950 . S
C2010 C2011 1.349 . S
C2010 C2012 1.327 . S
C2010 H2035 0.950 . S
C2011 C2010 1.349 . S
C2011 C2027 1.349 . S
C2012 C2010 1.327 . S
C2012 C2031 1.429 . S
C2012 H2036 0.950 . S
C2013 C2030 1.574 . S
C2013 C2032 1.368 . S
C2013 H2037 0.949 . S
H2014 C2018 0.949 . S
C2015 C2016 1.349 . S
C2015 C2017 1.327 . S
C2015 H2038 0.950 . S
C2016 C2015 1.349 . S
C2016 C2028 1.349 . S
C2017 C2015 1.327 . S
C2017 C2033 1.429 . S
C2017 H2039 0.950 . S
C2018 H2014 0.949 . S
C2018 C2026 1.574 . S
C2018 C2034 1.368 . S
H2019 C2027 0.950 . S
H2020 C2025 0.950 . S
H2021 C2026 0.949 . S
H2022 C2028 0.950 . S
H2023 C2029 0.950 . S
H2024 C2030 0.949 . S
C2025 H2020 0.950 . S
C2025 C2027 1.327 . S
C2025 C2031 1.429 . S
C2026 C2018 1.574 . S
C2026 H2021 0.949 . S
C2026 C2032 1.368 . S
C2027 C2011 1.349 . S
C2027 H2019 0.950 . S
C2027 C2025 1.327 . S
C2028 C2016 1.349 . S
C2028 H2022 0.950 . S
C2028 C2029 1.327 . S
C2029 H2023 0.950 . S
C2029 C2028 1.327 . S
C2029 C2033 1.429 . S
C2030 C2013 1.574 . S
C2030 H2024 0.949 . S
C2030 C2034 1.368 . S
C2031 C2012 1.429 . S
C2031 C2025 1.429 . S
C2031 C2032 1.523 . S
C2032 C2013 1.368 . S
C2032 C2026 1.368 . S
C2032 C2031 1.523 . S
C2033 C2017 1.429 . S
C2033 C2029 1.429 . S
C2033 C2034 1.523 . S
C2034 C2018 1.368 . S
C2034 C2030 1.368 . S
C2034 C2033 1.523 . S
H2035 C2010 0.950 . S
H2036 C2012 0.950 . S
H2037 C2013 0.949 . S
H2038 C2015 0.950 . S
H2039 C2017 0.950 . S
C2040 C2041 1.349 . S
C2040 C2042 1.327 . S
C2040 H2065 0.950 . S
C2041 C2040 1.349 . S
C2041 C2057 1.349 . S
C2042 C2040 1.327 . S
C2042 C2061 1.429 . S
C2042 H2066 0.950 . S
C2043 C2060 1.574 . S
C2043 C2062 1.368 . S
C2043 H2067 0.949 . S
H2044 C2048 0.949 . S
C2045 C2046 1.349 . S
C2045 C2047 1.327 . S
C2045 H2068 0.950 . S
C2046 C2045 1.349 . S
C2046 C2058 1.349 . S
C2047 C2045 1.327 . S
C2047 C2063 1.429 . S
C2047 H2069 0.950 . S
C2048 H2044 0.949 . S
C2048 C2056 1.574 . S
C2048 C2064 1.368 . S
H2049 C2057 0.950 . S
H2050 C2055 0.950 . S
H2051 C2056 0.949 . S
H2052 C2058 0.950 . S
H2053 C2059 0.950 . S
H2054 C2060 0.949 . S
C2055 H2050 0.950 . S
C2055 C2057 1.327 . S
C2055 C2061 1.429 . S
C2056 C2048 1.574 . S
C2056 H2051 0.949 . S
C2056 C2062 1.368 . S
C2057 C2041 1.349 . S
C2057 H2049 0.950 . S
C2057 C2055 1.327 . S
C2058 C2046 1.349 . S
C2058 H2052 0.950 . S
C2058 C2059 1.327 . S
C2059 H2053 0.950 . S
C2059 C2058 1.327 . S
C2059 C2063 1.429 . S
C2060 C2043 1.574 . S
C2060 H2054 0.949 . S
C2060 C2064 1.368 . S
C2061 C2042 1.429 . S
C2061 C2055 1.429 . S
C2061 C2062 1.523 . S
C2062 C2043 1.368 . S
C2062 C2056 1.368 . S
C2062 C2061 1.523 . S
C2063 C2047 1.429 . S
C2063 C2059 1.429 . S
C2063 C2064 1.523 . S
C2064 C2048 1.368 . S
C2064 C2060 1.368 . S
C2064 C2063 1.523 . S
H2065 C2040 0.950 . S
H2066 C2042 0.950 . S
H2067 C2043 0.949 . S
H2068 C2045 0.950 . S
H2069 C2047 0.950 . S
C2070 C2071 1.349 . S
C2070 C2072 1.327 . S
C2070 H2095 0.950 . S
C2071 C2070 1.349 . S
C2071 C2087 1.349 . S
C2072 C2070 1.327 . S
C2072 C2091 1.429 . S
C2072 H2096 0.950 . S
C2073 C2090 1.574 . S
C2073 C2092 1.368 . S
C2073 H2097 0.949 . S
H2074 C2078 0.949 . S
C2075 C2076 1.349 1_655 S
C2075 C2077 1.327 . S
C2075 H2098 0.950 . S
C2076 C2075 1.349 1_455 S
C2076 C2088 1.349 . S
C2077 C2075 1.327 . S
C2077 C2093 1.429 . S
C2077 H2099 0.950 . S
C2078 H2074 0.949 . S
C2078 C2086 1.574 . S
C2078 C2094 1.368 . S
H2079 C2087 0.950 . S
H2080 C2085 0.950 . S
H2081 C2086 0.949 . S
H2082 C2088 0.950 . S
H2083 C2089 0.950 . S
H2084 C2090 0.949 . S
C2085 H2080 0.950 . S
C2085 C2087 1.327 . S
C2085 C2091 1.429 . S
C2086 C2078 1.574 . S
C2086 H2081 0.949 . S
C2086 C2092 1.368 . S
C2087 C2071 1.349 . S
C2087 H2079 0.950 . S
C2087 C2085 1.327 . S
C2088 C2076 1.349 . S
C2088 H2082 0.950 . S
C2088 C2089 1.327 1_455 S
C2089 H2083 0.950 . S
C2089 C2088 1.327 1_655 S
C2089 C2093 1.429 . S
C2090 C2073 1.574 . S
C2090 H2084 0.949 . S
C2090 C2094 1.368 . S
C2091 C2072 1.429 . S
C2091 C2085 1.429 . S
C2091 C2092 1.523 . S
C2092 C2073 1.368 . S
C2092 C2086 1.368 . S
C2092 C2091 1.523 . S
C2093 C2077 1.429 . S
C2093 C2089 1.429 . S
C2093 C2094 1.523 . S
C2094 C2078 1.368 . S
C2094 C2090 1.368 . S
C2094 C2093 1.523 . S
H2095 C2070 0.950 . S
H2096 C2072 0.950 . S
H2097 C2073 0.949 . S
H2098 C2075 0.950 . S
H2099 C2077 0.950 . S
C2100 C2101 1.349 . S
C2100 C2102 1.324 1_565 S
C2100 H2125 0.950 . S
C2101 C2100 1.349 . S
C2101 C2117 1.349 . S
C2102 C2100 1.324 1_545 S
C2102 C2121 1.430 . S
C2102 H2126 0.951 . S
C2103 C2120 1.574 . S
C2103 C2122 1.368 . S
C2103 H2127 0.949 . S
H2104 C2108 0.949 . S
C2105 C2106 1.349 . S
C2105 C2107 1.327 . S
C2105 H2128 0.950 . S
C2106 C2105 1.349 . S
C2106 C2118 1.349 . S
C2107 C2105 1.327 . S
C2107 C2123 1.429 . S
C2107 H2129 0.950 . S
C2108 H2104 0.949 . S
C2108 C2116 1.574 . S
C2108 C2124 1.368 . S
H2109 C2117 0.950 . S
H2110 C2115 0.950 . S
H2111 C2116 0.949 . S
H2112 C2118 0.950 . S
H2113 C2119 0.950 . S
H2114 C2120 0.949 . S
C2115 H2110 0.950 . S
C2115 C2117 1.327 . S
C2115 C2121 1.429 1_565 S
C2116 C2108 1.574 . S
C2116 H2111 0.949 . S
C2116 C2122 1.368 . S
C2117 C2101 1.349 . S
C2117 H2109 0.950 . S
C2117 C2115 1.327 . S
C2118 C2106 1.349 . S
C2118 H2112 0.950 . S
C2118 C2119 1.327 . S
C2119 H2113 0.950 . S
C2119 C2118 1.327 . S
C2119 C2123 1.429 . S
C2120 C2103 1.574 . S
C2120 H2114 0.949 . S
C2120 C2124 1.368 . S
C2121 C2102 1.430 . S
C2121 C2115 1.429 1_545 S
C2121 C2122 1.523 . S
C2122 C2103 1.368 . S
C2122 C2116 1.368 . S
C2122 C2121 1.523 . S
C2123 C2107 1.429 . S
C2123 C2119 1.429 . S
C2123 C2124 1.523 . S
C2124 C2108 1.368 . S
C2124 C2120 1.368 . S
C2124 C2123 1.523 . S
H2125 C2100 0.950 . S
H2126 C2102 0.951 . S
H2127 C2103 0.949 . S
H2128 C2105 0.950 . S
H2129 C2107 0.950 . S
C2130 C2131 1.349 . S
C2130 C2132 1.327 . S
C2130 H2155 0.950 . S
C2131 C2130 1.349 . S
C2131 C2147 1.349 . S
C2132 C2130 1.327 . S
C2132 C2151 1.429 . S
C2132 H2156 0.950 . S
C2133 C2150 1.574 1_655 S
C2133 C2152 1.368 . S
C2133 H2157 0.949 . S
H2134 C2138 0.949 . S
C2135 C2136 1.349 . S
C2135 C2137 1.327 . S
C2135 H2158 0.950 . S
C2136 C2135 1.349 . S
C2136 C2148 1.349 . S
C2137 C2135 1.327 . S
C2137 C2153 1.429 . S
C2137 H2159 0.950 . S
C2138 H2134 0.949 . S
C2138 C2146 1.574 . S
C2138 C2154 1.368 1_655 S
H2139 C2147 0.950 . S
H2140 C2145 0.950 . S
H2141 C2146 0.949 . S
H2142 C2148 0.950 . S
H2143 C2149 0.950 . S
H2144 C2150 0.949 . S
C2145 H2140 0.950 . S
C2145 C2147 1.327 . S
C2145 C2151 1.429 . S
C2146 C2138 1.574 . S
C2146 H2141 0.949 . S
C2146 C2152 1.368 . S
C2147 C2131 1.349 . S
C2147 H2139 0.950 . S
C2147 C2145 1.327 . S
C2148 C2136 1.349 . S
C2148 H2142 0.950 . S
C2148 C2149 1.327 . S
C2149 H2143 0.950 . S
C2149 C2148 1.327 . S
C2149 C2153 1.429 . S
C2150 C2133 1.574 1_455 S
C2150 H2144 0.949 . S
C2150 C2154 1.368 . S
C2151 C2132 1.429 . S
C2151 C2145 1.429 . S
C2151 C2152 1.523 . S
C2152 C2133 1.368 . S
C2152 C2146 1.368 . S
C2152 C2151 1.523 . S
C2153 C2137 1.429 . S
C2153 C2149 1.429 . S
C2153 C2154 1.523 . S
C2154 C2138 1.368 1_455 S
C2154 C2150 1.368 . S
C2154 C2153 1.523 . S
H2155 C2130 0.950 . S
H2156 C2132 0.950 . S
H2157 C2133 0.949 . S
H2158 C2135 0.950 . S
H2159 C2137 0.950 . S
C2160 C2161 1.349 . S
C2160 C2162 1.327 . S
C2160 H2185 0.950 . S
C2161 C2160 1.349 . S
C2161 C2177 1.349 . S
C2162 C2160 1.327 . S
C2162 C2181 1.429 . S
C2162 H2186 0.950 . S
C2163 C2180 1.574 . S
C2163 C2182 1.368 . S
C2163 H2187 0.949 . S
H2164 C2168 0.949 . S
C2165 C2166 1.332 1_565 S
C2165 C2167 1.353 . S
C2165 H2188 0.941 1_565 S
C2166 C2165 1.332 1_545 S
C2166 C2178 1.349 1_545 S
C2167 C2165 1.353 . S
C2167 C2183 1.429 . S
C2167 H2189 0.950 . S
C2168 H2164 0.949 . S
C2168 C2176 1.574 . S
C2168 C2184 1.368 . S
H2169 C2177 0.950 . S
H2170 C2175 0.950 . S
H2171 C2176 0.949 . S
H2172 C2178 0.950 1_545 S
H2173 C2179 0.950 . S
H2174 C2180 0.949 . S
C2175 H2170 0.950 . S
C2175 C2177 1.327 . S
C2175 C2181 1.429 . S
C2176 C2168 1.574 . S
C2176 H2171 0.949 . S
C2176 C2182 1.368 . S
C2177 C2161 1.349 . S
C2177 H2169 0.950 . S
C2177 C2175 1.327 . S
C2178 C2166 1.349 1_565 S
C2178 H2172 0.950 1_565 S
C2178 C2179 1.327 . S
C2179 H2173 0.950 . S
C2179 C2178 1.327 . S
C2179 C2183 1.429 . S
C2180 C2163 1.574 . S
C2180 H2174 0.949 . S
C2180 C2184 1.368 . S
C2181 C2162 1.429 . S
C2181 C2175 1.429 . S
C2181 C2182 1.523 . S
C2182 C2163 1.368 . S
C2182 C2176 1.368 . S
C2182 C2181 1.523 . S
C2183 C2167 1.429 . S
C2183 C2179 1.429 . S
C2183 C2184 1.523 . S
C2184 C2168 1.368 . S
C2184 C2180 1.368 . S
C2184 C2183 1.523 . S
H2185 C2160 0.950 . S
H2186 C2162 0.950 . S
H2187 C2163 0.949 . S
H2188 C2165 0.941 1_545 S
H2189 C2167 0.950 . S
C2190 C2191 1.349 . S
C2190 C2192 1.327 . S
C2190 H2215 0.950 . S
C2191 C2190 1.349 . S
C2191 C2207 1.349 . S
C2192 C2190 1.327 . S
C2192 C2211 1.429 . S
C2192 H2216 0.950 . S
C2193 C2210 1.574 . S
C2193 C2212 1.368 1_565 S
C2193 H2217 0.949 . S
H2194 C2198 0.949 . S
C2195 C2196 1.349 . S
C2195 C2197 1.327 . S
C2195 H2218 0.950 . S
C2196 C2195 1.349 . S
C2196 C2208 1.349 . S
C2197 C2195 1.327 . S
C2197 C2213 1.429 . S
C2197 H2219 0.950 . S
C2198 H2194 0.949 . S
C2198 C2206 1.574 1_565 S
C2198 C2214 1.368 . S
H2199 C2207 0.950 . S
H2200 C2205 0.950 . S
H2201 C2206 0.949 . S
H2202 C2208 0.950 . S
H2203 C2209 0.950 . S
H2204 C2210 0.949 . S
C2205 H2200 0.950 . S
C2205 C2207 1.327 . S
C2205 C2211 1.429 . S
C2206 C2198 1.574 1_545 S
C2206 H2201 0.949 . S
C2206 C2212 1.368 . S
C2207 C2191 1.349 . S
C2207 H2199 0.950 . S
C2207 C2205 1.327 . S
C2208 C2196 1.349 . S
C2208 H2202 0.950 . S
C2208 C2209 1.327 . S
C2209 H2203 0.950 . S
C2209 C2208 1.327 . S
C2209 C2213 1.429 . S
C2210 C2193 1.574 . S
C2210 H2204 0.949 . S
C2210 C2214 1.368 . S
C2211 C2192 1.429 . S
C2211 C2205 1.429 . S
C2211 C2212 1.523 . S
C2212 C2193 1.368 1_545 S
C2212 C2206 1.368 . S
C2212 C2211 1.523 . S
C2213 C2197 1.429 . S
C2213 C2209 1.429 . S
C2213 C2214 1.523 . S
C2214 C2198 1.368 . S
C2214 C2210 1.368 . S
C2214 C2213 1.523 . S
H2215 C2190 0.950 . S
H2216 C2192 0.950 . S
H2217 C2193 0.949 . S
H2218 C2195 0.950 . S
H2219 C2197 0.950 . S
C2220 C2221 1.349 . S
C2220 C2222 1.327 . S
C2220 H2245 0.950 . S
C2221 C2220 1.349 . S
C2221 C2237 1.349 . S
C2222 C2220 1.327 . S
C2222 C2241 1.429 . S
C2222 H2246 0.950 . S
C2223 C2240 1.574 . S
C2223 C2242 1.368 . S
C2223 H2247 0.949 . S
H2224 C2228 0.949 . S
C2225 C2226 1.349 . S
C2225 C2227 1.327 . S
C2225 H2248 0.950 . S
C2226 C2225 1.349 . S
C2226 C2238 1.349 . S
C2227 C2225 1.327 . S
C2227 C2243 1.429 1_655 S
C2227 H2249 0.950 . S
C2228 H2224 0.949 . S
C2228 C2236 1.574 . S
C2228 C2244 1.368 . S
H2229 C2237 0.950 . S
H2230 C2235 0.950 . S
H2231 C2236 0.949 . S
H2232 C2238 0.950 . S
H2233 C2239 0.950 . S
H2234 C2240 0.949 . S
C2235 H2230 0.950 . S
C2235 C2237 1.327 . S
C2235 C2241 1.429 . S
C2236 C2228 1.574 . S
C2236 H2231 0.949 . S
C2236 C2242 1.368 . S
C2237 C2221 1.349 . S
C2237 H2229 0.950 . S
C2237 C2235 1.327 . S
C2238 C2226 1.349 . S
C2238 H2232 0.950 . S
C2238 C2239 1.327 1_655 S
C2239 H2233 0.950 . S
C2239 C2238 1.327 1_455 S
C2239 C2243 1.429 . S
C2240 C2223 1.574 . S
C2240 H2234 0.949 . S
C2240 C2244 1.368 . S
C2241 C2222 1.429 . S
C2241 C2235 1.429 . S
C2241 C2242 1.523 . S
C2242 C2223 1.368 . S
C2242 C2236 1.368 . S
C2242 C2241 1.523 . S
C2243 C2227 1.429 1_455 S
C2243 C2239 1.429 . S
C2243 C2244 1.523 . S
C2244 C2228 1.368 . S
C2244 C2240 1.368 . S
C2244 C2243 1.523 . S
H2245 C2220 0.950 . S
H2246 C2222 0.950 . S
H2247 C2223 0.949 . S
H2248 C2225 0.950 . S
H2249 C2227 0.950 . S
C2250 C2251 1.349 . S
C2250 C2252 1.327 . S
C2250 H2275 0.950 . S
C2251 C2250 1.349 . S
C2251 C2267 1.349 . S
C2252 C2250 1.327 . S
C2252 C2271 1.429 . S
C2252 H2276 0.950 . S
C2253 C2270 1.574 . S
C2253 C2272 1.368 . S
C2253 H2277 0.949 . S
H2254 C2258 0.949 . S
C2255 C2256 1.349 . S
C2255 C2257 1.327 . S
C2255 H2278 0.950 . S
C2256 C2255 1.349 . S
C2256 C2268 1.349 . S
C2257 C2255 1.327 . S
C2257 C2273 1.429 . S
C2257 H2279 0.950 . S
C2258 H2254 0.949 . S
C2258 C2266 1.574 . S
C2258 C2274 1.368 . S
H2259 C2267 0.950 . S
H2260 C2265 0.950 . S
H2261 C2266 0.949 . S
H2262 C2268 0.950 . S
H2263 C2269 0.950 . S
H2264 C2270 0.949 . S
C2265 H2260 0.950 . S
C2265 C2267 1.327 . S
C2265 C2271 1.429 . S
C2266 C2258 1.574 . S
C2266 H2261 0.949 . S
C2266 C2272 1.368 . S
C2267 C2251 1.349 . S
C2267 H2259 0.950 . S
C2267 C2265 1.327 . S
C2268 C2256 1.349 . S
C2268 H2262 0.950 . S
C2268 C2269 1.327 . S
C2269 H2263 0.950 . S
C2269 C2268 1.327 . S
C2269 C2273 1.429 . S
C2270 C2253 1.574 . S
C2270 H2264 0.949 . S
C2270 C2274 1.368 . S
C2271 C2252 1.429 . S
C2271 C2265 1.429 . S
C2271 C2272 1.523 . S
C2272 C2253 1.368 . S
C2272 C2266 1.368 . S
C2272 C2271 1.523 . S
C2273 C2257 1.429 . S
C2273 C2269 1.429 . S
C2273 C2274 1.523 . S
C2274 C2258 1.368 . S
C2274 C2270 1.368 . S
C2274 C2273 1.523 . S
H2275 C2250 0.950 . S
H2276 C2252 0.950 . S
H2277 C2253 0.949 . S
H2278 C2255 0.950 . S
H2279 C2257 0.950 . S
C2280 C2281 1.349 . S
C2280 C2282 1.327 . S
C2280 H2305 0.950 . S
C2281 C2280 1.349 . S
C2281 C2297 1.349 . S
C2282 C2280 1.327 . S
C2282 C2301 1.429 . S
C2282 H2306 0.950 . S
C2283 C2300 1.574 . S
C2283 C2302 1.368 . S
C2283 H2307 0.949 . S
H2284 C2288 0.949 . S
C2285 C2286 1.349 . S
C2285 C2287 1.327 . S
C2285 H2308 0.950 . S
C2286 C2285 1.349 . S
C2286 C2298 1.349 . S
C2287 C2285 1.327 . S
C2287 C2303 1.429 . S
C2287 H2309 0.950 . S
C2288 H2284 0.949 . S
C2288 C2296 1.574 . S
C2288 C2304 1.368 . S
H2289 C2297 0.950 . S
H2290 C2295 0.950 . S
H2291 C2296 0.949 . S
H2292 C2298 0.950 . S
H2293 C2299 0.950 . S
H2294 C2300 0.949 . S
C2295 H2290 0.950 . S
C2295 C2297 1.327 . S
C2295 C2301 1.429 . S
C2296 C2288 1.574 . S
C2296 H2291 0.949 . S
C2296 C2302 1.368 . S
C2297 C2281 1.349 . S
C2297 H2289 0.950 . S
C2297 C2295 1.327 . S
C2298 C2286 1.349 . S
C2298 H2292 0.950 . S
C2298 C2299 1.327 . S
C2299 H2293 0.950 . S
C2299 C2298 1.327 . S
C2299 C2303 1.429 . S
C2300 C2283 1.574 . S
C2300 H2294 0.949 . S
C2300 C2304 1.368 . S
C2301 C2282 1.429 . S
C2301 C2295 1.429 . S
C2301 C2302 1.523 . S
C2302 C2283 1.368 . S
C2302 C2296 1.368 . S
C2302 C2301 1.523 . S
C2303 C2287 1.429 . S
C2303 C2299 1.429 . S
C2303 C2304 1.523 . S
C2304 C2288 1.368 . S
C2304 C2300 1.368 . S
C2304 C2303 1.523 . S
H2305 C2280 0.950 . S
H2306 C2282 0.950 . S
H2307 C2283 0.949 . S
H2308 C2285 0.950 . S
H2309 C2287 0.950 . S
C2310 C2311 1.349 . S
C2310 C2312 1.327 . S
C2310 H2335 0.950 . S
C2311 C2310 1.349 . S
C2311 C2327 1.349 . S
C2312 C2310 1.327 . S
C2312 C2331 1.429 . S
C2312 H2336 0.950 . S
C2313 C2330 1.574 . S
C2313 C2332 1.368 . S
C2313 H2337 0.949 . S
H2314 C2318 0.949 . S
C2315 C2316 1.349 . S
C2315 C2317 1.327 . S
C2315 H2338 0.950 . S
C2316 C2315 1.349 . S
C2316 C2328 1.349 . S
C2317 C2315 1.327 . S
C2317 C2333 1.429 . S
C2317 H2339 0.950 . S
C2318 H2314 0.949 . S
C2318 C2326 1.574 . S
C2318 C2334 1.368 . S
H2319 C2327 0.950 . S
H2320 C2325 0.950 . S
H2321 C2326 0.949 . S
H2322 C2328 0.950 . S
H2323 C2329 0.950 . S
H2324 C2330 0.949 . S
C2325 H2320 0.950 . S
C2325 C2327 1.327 . S
C2325 C2331 1.429 . S
C2326 C2318 1.574 . S
C2326 H2321 0.949 . S
C2326 C2332 1.368 . S
C2327 C2311 1.349 . S
C2327 H2319 0.950 . S
C2327 C2325 1.327 . S
C2328 C2316 1.349 . S
C2328 H2322 0.950 . S
C2328 C2329 1.327 . S
C2329 H2323 0.950 . S
C2329 C2328 1.327 . S
C2329 C2333 1.429 . S
C2330 C2313 1.574 . S
C2330 H2324 0.949 . S
C2330 C2334 1.368 . S
C2331 C2312 1.429 . S
C2331 C2325 1.429 . S
C2331 C2332 1.523 . S
C2332 C2313 1.368 . S
C2332 C2326 1.368 . S
C2332 C2331 1.523 . S
C2333 C2317 1.429 . S
C2333 C2329 1.429 . S
C2333 C2334 1.523 . S
C2334 C2318 1.368 . S
C2334 C2330 1.368 . S
C2334 C2333 1.523 . S
H2335 C2310 0.950 . S
H2336 C2312 0.950 . S
H2337 C2313 0.949 . S
H2338 C2315 0.950 . S
H2339 C2317 0.950 . S
C721 C11 1.087 . S
C726 C96 1.101 . S
C751 C16 1.102 . S
C756 C51 1.087 . S
C781 C56 1.101 . S
C786 C91 1.087 . S
C811 C131 1.087 . S
C816 C176 1.101 . S
C841 C216 1.101 . S
C846 C171 1.087 . S
C871 C211 1.087 . S
C876 C136 1.102 . S
C901 C336 1.102 . S
C906 C251 1.087 . S
C931 C256 1.102 . S
C936 C291 1.087 . S
C961 C331 1.087 . S
C966 C296 1.101 . S
C991 C416 1.102 . S
C996 C371 1.087 . S
C1021 C411 1.087 . S
C1026 C456 1.102 . S
C1051 C376 1.102 . S
C1056 C451 1.087 . S
C1081 C491 1.087 . S
C1086 C576 1.102 . S
C1111 C496 1.102 . S
C1116 C531 1.087 . S
C1141 C536 1.102 . S
C1146 C571 1.087 . S
C1171 C656 1.102 . S
C1176 C611 1.087 . S
C1201 C696 1.101 . S
C1206 C651 1.087 . S
C1231 C616 1.102 . S
C1236 C691 1.087 . S
C1261 C19 1.727 . S
C1266 C219 1.727 . S
C1291 C139 1.727 . S
C1296 C59 1.727 . S
C1321 C179 1.727 . S
C1326 C99 1.727 . S
C1351 C259 1.727 . S
C1356 C459 1.727 . S
C1381 C299 1.727 . S
C1386 C379 1.727 . S
C1411 C419 1.727 . S
C1416 C339 1.727 . S
C1441 C499 1.727 . S
C1446 C699 1.727 . S
C1471 C619 1.727 . S
C1476 C539 1.727 . S
C1501 C659 1.727 . S
C1506 C579 1.727 . S
C1531 C410 2.235 . S
C1536 C10 2.235 1_565 S
C1561 C50 2.235 . S
C1566 C450 2.235 . S
C1591 C370 2.234 . S
C1596 C90 2.234 . S
C1621 C130 2.235 1_655 S
C1626 C570 2.235 . S
C1651 C170 2.234 . S
C1656 C490 2.234 . S
C1681 C530 2.235 . S
C1686 C210 2.235 . S
C1711 C650 2.235 . S
C1716 C250 2.235 . S
C1741 C290 2.234 . S
C1746 C690 2.234 . S
C1771 C330 2.235 . S
C1776 C610 2.235 . S
C1801 C87 1.889 . S
C1806 C2 1.907 . S
C1831 C7 1.889 . S
C1836 C42 1.908 . S
C1861 C82 1.907 . S
C1866 C47 1.888 . S
C1891 C167 1.889 . S
C1896 C122 1.907 . S
C1921 C207 1.888 . S
C1926 C162 1.907 . S
C1951 C202 1.908 . S
C1956 C127 1.889 . S
C1981 C327 1.888 . S
C1986 C242 1.907 . S
C2011 C282 1.908 . S
C2016 C247 1.889 . S
C2041 C287 1.888 . S
C2046 C322 1.907 . S
C2071 C362 1.907 . S
C2076 C407 1.888 . S
C2101 C402 1.907 . S
C2106 C447 1.888 . S
C2131 C367 1.889 1_545 S
C2136 C442 1.907 . S
C2161 C482 1.907 . S
C2166 C567 1.888 . S
C2191 C522 1.907 . S
C2196 C487 1.889 1_455 S
C2221 C527 1.888 . S
C2226 C562 1.907 . S
C2251 C602 1.907 . S
C2256 C647 1.888 . S
C2281 C642 1.907 . S
C2286 C687 1.888 . S
C2311 C607 1.889 . S
C2316 C682 1.908 . S
