# Generated by pormake.
# Topology tfs, (6)-cn, num edge types: 1
# Building blocks:
#     Node 0, Type 0, BuildingBlock: INOVEN_clean_sbu_0, # of connection points: 6
#     Node 1, Type 0, BuildingBlock: INOVEN_clean_sbu_0, # of connection points: 6
#     Node 2, Type 0, BuildingBlock: INOVEN_clean_sbu_0, # of connection points: 6
#     Node 3, Type 0, BuildingBlock: INOVEN_clean_sbu_0, # of connection points: 6
#     Node 4, Type 0, BuildingBlock: INOVEN_clean_sbu_0, # of connection points: 6
#     Node 5, Type 0, BuildingBlock: INOVEN_clean_sbu_0, # of connection points: 6
#     Edge 6, Type (0, 0), BuildingBlock: KIFKEQ_clean_linker_1, # of connection points: 2
#     Edge 7, Type (0, 0), BuildingBlock: KIFKEQ_clean_linker_1, # of connection points: 2
#     Edge 8, Type (0, 0), BuildingBlock: KIFKEQ_clean_linker_1, # of connection points: 2
#     Edge 9, Type (0, 0), BuildingBlock: KIFKEQ_clean_linker_1, # of connection points: 2
#     Edge 10, Type (0, 0), BuildingBlock: KIFKEQ_clean_linker_1, # of connection points: 2
#     Edge 11, Type (0, 0), BuildingBlock: KIFKEQ_clean_linker_1, # of connection points: 2
#     Edge 12, Type (0, 0), BuildingBlock: KIFKEQ_clean_linker_1, # of connection points: 2
#     Edge 13, Type (0, 0), BuildingBlock: KIFKEQ_clean_linker_1, # of connection points: 2
#     Edge 14, Type (0, 0), BuildingBlock: KIFKEQ_clean_linker_1, # of connection points: 2
#     Edge 15, Type (0, 0), BuildingBlock: KIFKEQ_clean_linker_1, # of connection points: 2
#     Edge 16, Type (0, 0), BuildingBlock: KIFKEQ_clean_linker_1, # of connection points: 2
#     Edge 17, Type (0, 0), BuildingBlock: KIFKEQ_clean_linker_1, # of connection points: 2
#     Edge 18, Type (0, 0), BuildingBlock: KIFKEQ_clean_linker_1, # of connection points: 2
#     Edge 19, Type (0, 0), BuildingBlock: KIFKEQ_clean_linker_1, # of connection points: 2
#     Edge 20, Type (0, 0), BuildingBlock: KIFKEQ_clean_linker_1, # of connection points: 2
#     Edge 21, Type (0, 0), BuildingBlock: KIFKEQ_clean_linker_1, # of connection points: 2
#     Edge 22, Type (0, 0), BuildingBlock: KIFKEQ_clean_linker_1, # of connection points: 2
#     Edge 23, Type (0, 0), BuildingBlock: KIFKEQ_clean_linker_1, # of connection points: 2
# Relax obj value: 0.474
# Max RMSD: 0.395
# Mean RMSD: 0.354
data_MOF--net-tfs--node1-INOVEN_clean_sbu_0--edge1-KIFKEQ_clean_linker_1
_symmetry_space_group_name_H-M    P1
_symmetry_Int_Tables_number       1
_symmetry_cell_setting            triclinic
loop_
_symmetry_equiv_pos_as_xyz
'x, y, z'
_cell_length_a     52.637309
_cell_length_b     52.301563
_cell_length_c     12.605057
_cell_angle_alpha  92.322089
_cell_angle_beta   99.254657
_cell_angle_gamma 119.92786
loop_
_atom_site_label
_atom_site_type_symbol
_atom_site_fract_x
_atom_site_fract_y
_atom_site_fract_z
_atom_type_partial_charge
Gd0 Gd 0.19324 0.38896 0.30355 0.0
Gd1 Gd 0.17399 0.42585 0.15585 0.0
C2 C 0.12865 0.35402 0.14411 0.0
C3 C 0.21156 0.36598 0.45329 0.0
C4 C 0.21861 0.34215 0.45673 0.0
C5 C 0.21043 0.32184 0.36374 0.0
C6 C 0.2363 0.34159 0.55109 0.0
C7 C 0.2393 0.30172 0.45797 0.0
C8 C 0.24657 0.32158 0.55184 0.0
C9 C 0.22063 0.30171 0.36443 0.0
C10 C 0.20638 0.39213 0.10577 0.0
C11 C 0.23354 0.46169 0.33544 0.0
C12 C 0.16084 0.45204 0.00605 0.0
C13 C 0.17036 0.4835 0.00104 0.0
C14 C 0.19758 0.50605 0.06576 0.0
C15 C 0.1505 0.49102 0.94343 0.0
C16 C 0.18352 0.54292 0.02469 0.0
C17 C 0.15706 0.52055 0.95481 0.0
C18 C 0.20414 0.53549 0.07725 0.0
C19 C 0.16045 0.4219 0.35298 0.0
O20 O 0.14547 0.35403 0.23441 0.0
O21 O 0.13757 0.37766 0.0917 0.0
O22 O 0.2296 0.38894 0.41084 0.0
O23 O 0.18335 0.35792 0.42136 0.0
O24 O 0.19845 0.3685 0.15312 0.0
O25 O 0.20773 0.41239 0.16692 0.0
O26 O 0.21955 0.46194 0.23911 0.0
O27 O 0.2241 0.43724 0.38302 0.0
O28 O 0.14445 0.44016 0.07789 0.0
O29 O 0.18143 0.44486 0.00624 0.0
O30 O 0.16853 0.44609 0.30853 0.0
O31 O 0.15972 0.4023 0.29095 0.0
H32 H 0.19691 0.32214 0.28984 0.0
H33 H 0.24309 0.35737 0.62315 0.0
H34 H 0.26131 0.32263 0.62472 0.0
H35 H 0.21432 0.28652 0.29119 0.0
H36 H 0.21318 0.50071 0.11128 0.0
H37 H 0.12927 0.47385 0.89393 0.0
H38 H 0.14064 0.52553 0.91392 0.0
H39 H 0.22489 0.5523 0.1304 0.0
Gd40 Gd 0.76239 0.19434 0.68038 0.0
Gd41 Gd 0.82048 0.22448 0.5885 0.0
C42 C 0.80609 0.26599 0.7269 0.0
C43 C 0.72216 0.17683 0.79755 0.0
C44 C 0.69978 0.1847 0.81515 0.0
C45 C 0.68397 0.19051 0.72839 0.0
C46 C 0.69468 0.18726 0.91988 0.0
C47 C 0.65801 0.20126 0.85068 0.0
C48 C 0.67396 0.19548 0.93761 0.0
C49 C 0.66318 0.19848 0.74582 0.0
C50 C 0.75649 0.20929 0.47788 0.0
C51 C 0.77549 0.15221 0.54177 0.0
C52 C 0.86006 0.24661 0.4688 0.0
C53 C 0.88448 0.24753 0.42185 0.0
C54 C 0.91397 0.27098 0.46279 0.0
C55 C 0.87853 0.22854 0.32707 0.0
C56 C 0.93075 0.25791 0.31183 0.0
C57 C 0.90159 0.23356 0.27298 0.0
C58 C 0.9368 0.27611 0.40848 0.0
C59 C 0.82573 0.20843 0.78958 0.0
O60 O 0.78748 0.24189 0.76496 0.0
O61 O 0.81719 0.264 0.64206 0.0
O62 O 0.71768 0.16311 0.70118 0.0
O63 O 0.75017 0.19755 0.8347 0.0
O64 O 0.73531 0.1869 0.51121 0.0
O65 O 0.77794 0.22381 0.55697 0.0
O66 O 0.79564 0.17621 0.50645 0.0
O67 O 0.76475 0.15449 0.62739 0.0
O68 O 0.86569 0.25578 0.57268 0.0
O69 O 0.83237 0.22504 0.43118 0.0
O70 O 0.84708 0.23163 0.76011 0.0
O71 O 0.80461 0.19456 0.70947 0.0
H72 H 0.68765 0.18891 0.64687 0.0
H73 H 0.70691 0.18313 -0.01196 0.0
H74 H 0.67078 0.19771 0.0195 0.0
H75 H 0.65092 0.20217 0.67654 0.0
H76 H 0.91921 0.28628 0.53448 0.0
H77 H 0.85592 0.21059 0.29236 0.0
H78 H 0.89638 0.2193 0.19828 0.0
H79 H 0.95916 0.29487 0.44066 0.0
Gd80 Gd 0.55732 0.75186 0.3541 0.0
Gd81 Gd 0.60067 0.80772 0.25621 0.0
C82 C 0.52798 0.78231 0.20616 0.0
C83 C 0.52845 0.71181 0.47161 0.0
C84 C 0.49772 0.68717 0.47031 0.0
C85 C 0.48325 0.66183 0.39099 0.0
C86 C 0.48303 0.68841 0.55237 0.0
C87 C 0.44012 0.6393 0.47672 0.0
C88 C 0.45444 0.66479 0.55524 0.0
C89 C 0.4548 0.63815 0.39436 0.0
C90 C 0.56188 0.74208 0.14848 0.0
C91 C 0.62787 0.77522 0.39604 0.0
C92 C 0.63051 0.84751 0.13948 0.0
C93 C 0.63999 0.87904 0.13871 0.0
C94 C 0.63033 0.8926 0.2074 0.0
C95 C 0.66208 0.89662 0.08196 0.0
C96 C 0.66691 0.94155 0.17075 0.0
C97 C 0.67542 0.92766 0.09761 0.0
C98 C 0.64364 0.92355 0.22325 0.0
C99 C 0.59309 0.81906 0.45543 0.0
O100 O 0.5238 0.76331 0.27706 0.0
O101 O 0.55452 0.80006 0.18203 0.0
O102 O 0.54258 0.70814 0.40121 0.0
O103 O 0.53314 0.7389 0.4849 0.0
O104 O 0.53715 0.72722 0.18314 0.0
O105 O 0.58266 0.75959 0.22573 0.0
O106 O 0.62858 0.7875 0.30631 0.0
O107 O 0.60416 0.76481 0.44115 0.0
O108 O 0.60175 0.8281 0.10873 0.0
O109 O 0.64295 0.84217 0.22735 0.0
O110 O 0.61812 0.83509 0.4245 0.0
O111 O 0.57403 0.79988 0.37873 0.0
H112 H 0.49391 0.66016 0.32653 0.0
H113 H 0.49381 0.70759 0.615 0.0
H114 H 0.44377 0.66623 0.62007 0.0
H115 H 0.44415 0.619 0.33177 0.0
H116 H 0.6136 0.87935 0.25311 0.0
H117 H 0.66993 0.88645 0.02923 0.0
H118 H 0.69299 0.94081 0.05497 0.0
H119 H 0.6368 0.9334 0.28146 0.0
Gd120 Gd 0.83995 0.57942 0.82888 0.0
Gd121 Gd 0.81815 0.61408 0.67892 0.0
C122 C 0.78007 0.54135 0.65257 0.0
C123 C 0.85472 0.55519 0.98229 0.0
C124 C 0.845 0.52392 -0.00778 0.0
C125 C 0.81681 0.50113 0.9345 0.0
C126 C 0.8655 0.51659 0.04554 0.0
C127 C 0.83118 0.46434 0.97185 0.0
C128 C 0.85861 0.48696 0.03581 0.0
C129 C 0.80993 0.47159 0.92466 0.0
C130 C 0.85295 0.58311 0.63121 0.0
C131 C 0.88307 0.65159 0.83509 0.0
C132 C 0.79767 0.63467 0.52625 0.0
C133 C 0.78937 0.65755 0.52014 0.0
C134 C 0.79631 0.67765 0.61221 0.0
C135 C 0.77156 0.65718 0.42427 0.0
C136 C 0.766 0.6957 0.51394 0.0
C137 C 0.75996 0.67607 0.42105 0.0
C138 C 0.78477 0.69666 0.60907 0.0
C139 C 0.80549 0.61096 0.87742 0.0
O140 O 0.79478 0.54197 0.74875 0.0
O141 O 0.78849 0.5654 0.6031 0.0
O142 O 0.86996 0.56559 0.90621 0.0
O143 O 0.83462 0.56297 0.98364 0.0
O144 O 0.84589 0.5593 0.67733 0.0
O145 O 0.85301 0.60257 0.6918 0.0
O146 O 0.86523 0.65084 0.74647 0.0
O147 O 0.87581 0.62811 0.88763 0.0
O148 O 0.78058 0.61196 0.57191 0.0
O149 O 0.8262 0.64389 0.55708 0.0
O150 O 0.81236 0.63427 0.82884 0.0
O151 O 0.80486 0.59103 0.81693 0.0
H152 H 0.80067 0.5063 0.89234 0.0
H153 H 0.88746 0.53394 0.08958 0.0
H154 H 0.8755 0.48207 0.07244 0.0
H155 H 0.78845 0.45457 0.87615 0.0
H156 H 0.8099 0.67802 0.68725 0.0
H157 H 0.76571 0.64151 0.35295 0.0
H158 H 0.7452 0.67434 0.34701 0.0
H159 H 0.79013 0.71173 0.68157 0.0
Gd160 Gd 0.1885 0.78219 0.38191 0.0
Gd161 Gd 0.2464 0.8138 0.28895 0.0
C162 C 0.23035 0.85494 0.41814 0.0
C163 C 0.1501 0.76165 0.50683 0.0
C164 C 0.1267 0.76356 0.55187 0.0
C165 C 0.09712 0.74974 0.49189 0.0
C166 C 0.13288 0.77558 0.66108 0.0
C167 C 0.07997 0.75814 0.65131 0.0
C168 C 0.10982 0.77304 0.71012 0.0
C169 C 0.07408 0.74706 0.54094 0.0
C170 C 0.18119 0.79445 0.17635 0.0
C171 C 0.2056 0.74127 0.25189 0.0
C172 C 0.28666 0.83212 0.17196 0.0
C173 C 0.30856 0.82383 0.15223 0.0
C174 C 0.32003 0.81226 0.23221 0.0
C175 C 0.31833 0.82761 0.05382 0.0
C176 C 0.35183 0.80935 0.11744 0.0
C177 C 0.3398 0.82042 0.03644 0.0
C178 C 0.34156 0.80531 0.21539 0.0
C179 C 0.25282 0.79961 0.49227 0.0
O180 O 0.21113 0.83092 0.45589 0.0
O181 O 0.24211 0.85284 0.33547 0.0
O182 O 0.14389 0.75104 0.4041 0.0
O183 O 0.17799 0.7831 0.54091 0.0
O184 O 0.16082 0.77179 0.21184 0.0
O185 O 0.20254 0.81046 0.25431 0.0
O186 O 0.2246 0.76545 0.21478 0.0
O187 O 0.19296 0.74305 0.33247 0.0
O188 O 0.29135 0.8448 0.27052 0.0
O189 O 0.25846 0.81213 0.13302 0.0
O190 O 0.27327 0.82329 0.46177 0.0
O191 O 0.23182 0.78471 0.41276 0.0
H192 H 0.09145 0.7398 0.40814 0.0
H193 H 0.1554 0.78599 0.70993 0.0
H194 H 0.1153 0.78215 0.79482 0.0
H195 H 0.05139 0.73494 0.49329 0.0
H196 H 0.31263 0.80896 0.30856 0.0
H197 H 0.30948 0.83626 -0.00925 0.0
H198 H 0.34687 0.82343 0.95956 0.0
H199 H 0.35062 0.79738 0.28049 0.0
Gd200 Gd 0.4121 0.19933 0.72419 0.0
Gd201 Gd 0.45174 0.25668 0.62302 0.0
C202 C 0.37879 0.22488 0.569 0.0
C203 C 0.38653 0.15867 0.84474 0.0
C204 C 0.36206 0.12741 0.82521 0.0
C205 C 0.34054 0.11574 0.72762 0.0
C206 C 0.36256 0.10819 0.89863 0.0
C207 C 0.32227 0.06547 0.77229 0.0
C208 C 0.34286 0.07745 0.8724 0.0
C209 C 0.32064 0.08499 0.70166 0.0
C210 C 0.42009 0.1896 0.5252 0.0
C211 C 0.48553 0.23256 0.78025 0.0
C212 C 0.47965 0.29746 0.50669 0.0
C213 C 0.51091 0.32119 0.51164 0.0
C214 C 0.52912 0.33981 0.60916 0.0
C215 C 0.52293 0.32498 0.41795 0.0
C216 C 0.57103 0.36586 0.51903 0.0
C217 C 0.5527 0.34707 0.42153 0.0
C218 C 0.55876 0.362 0.61263 0.0
C219 C 0.44572 0.26548 0.82746 0.0
O220 O 0.37683 0.20887 0.64914 0.0
O221 O 0.40423 0.24104 0.53589 0.0
O222 O 0.41017 0.16342 0.80827 0.0
O223 O 0.37932 0.17889 0.82528 0.0
O224 O 0.39532 0.1723 0.55634 0.0
O225 O 0.43878 0.20953 0.60111 0.0
O226 O 0.4874 0.24809 0.69877 0.0
O227 O 0.46001 0.21595 0.81262 0.0
O228 O 0.46631 0.30088 0.58073 0.0
O229 O 0.47391 0.27013 0.48747 0.0
O230 O 0.47017 0.28207 0.79329 0.0
O231 O 0.42603 0.24661 0.75044 0.0
H232 H 0.34008 0.13025 0.6693 0.0
H233 H 0.37916 0.11682 0.97403 0.0
H234 H 0.34447 0.06293 0.92859 0.0
H235 H 0.30527 0.07638 0.62345 0.0
H236 H 0.52047 0.33726 0.68287 0.0
H237 H 0.50931 0.31067 0.34206 0.0
H238 H 0.56146 0.3491 0.34828 0.0
H239 H 0.57198 0.37633 0.68872 0.0
H240 H 0.37671 0.26269 0.42886 0.0
H241 H 0.32222 0.19487 0.6107 0.0
H242 H 0.33805 0.27534 0.3869 0.0
H243 H 0.28298 0.20691 0.56555 0.0
H244 H 0.24887 0.27193 0.61909 0.0
H245 H 0.27819 0.24773 0.62678 0.0
H246 H 0.28913 0.26319 0.2985 0.0
H247 H 0.26122 0.28894 0.29316 0.0
C248 C 0.35615 0.2499 0.45756 0.0
C249 C 0.35284 0.2281 0.52477 0.0
C250 C 0.33381 0.25707 0.43292 0.0
C251 C 0.30749 0.24245 0.47413 0.0
C252 C 0.30325 0.2191 0.53455 0.0
C253 C 0.32569 0.21205 0.5598 0.0
C254 C 0.25745 0.2701 0.54838 0.0
C255 C 0.25303 0.2828 0.45617 0.0
C256 C 0.27393 0.2558 0.55214 0.0
C257 C 0.28627 0.25365 0.46346 0.0
C258 C 0.28037 0.26484 0.3689 0.0
C259 C 0.26402 0.27931 0.36538 0.0
H260 H 0.08222 0.35294 0.00497 0.0
H261 H 0.10205 0.30168 0.22854 0.0
H262 H 0.02934 0.32318 0.01169 0.0
H263 H 0.0494 0.27239 0.23642 0.0
H264 H 0.95095 0.22263 0.23792 0.0
H265 H 0.99527 0.23865 0.15767 0.0
H266 H 0.00873 0.32734 0.1687 0.0
H267 H 0.9648 0.3113 0.24754 0.0
C268 C 0.07526 0.33471 0.05263 0.0
C269 C 0.09655 0.33022 0.11837 0.0
C270 C 0.04492 0.31778 0.05711 0.0
C271 C 0.03527 0.29595 0.12682 0.0
C272 C 0.05602 0.28907 0.18209 0.0
C273 C 0.08633 0.30601 0.17784 0.0
C274 C 0.96313 0.24533 0.2208 0.0
C275 C 0.95477 0.26586 0.25001 0.0
C276 C 0.98849 0.25453 0.17529 0.0
C277 C 0.00555 0.28427 0.15668 0.0
C278 C 0.99595 0.30419 0.18029 0.0
C279 C 0.97096 0.29511 0.2267 0.0
H280 H 0.73265 0.09971 0.58966 0.0
H281 H 0.78922 0.13641 0.35698 0.0
H282 H 0.70739 0.05085 0.4828 0.0
H283 H 0.76374 0.08664 0.24997 0.0
H284 H 0.72763 0.98014 0.20161 0.0
H285 H 0.75581 0.03274 0.27978 0.0
H286 H 0.67294 0.02991 0.29018 0.0
H287 H 0.64462 0.97768 0.2093 0.0
C288 C 0.73998 0.09738 0.51623 0.0
C289 C 0.763 0.1221 0.4819 0.0
C290 C 0.72526 0.06933 0.45457 0.0
C291 C 0.73331 0.06512 0.35744 0.0
C292 C 0.75708 0.08942 0.32453 0.0
C293 C 0.77169 0.1178 0.38593 0.0
C294 C 0.71534 0.99093 0.21735 0.0
C295 C 0.68381 0.97452 0.20058 0.0
C296 C 0.73154 0.02103 0.26242 0.0
C297 C 0.71652 0.03515 0.29233 0.0
C298 C 0.68504 0.01933 0.26933 0.0
C299 C 0.66886 0.98942 0.22345 0.0
H300 H 0.74172 0.70682 0.67403 0.0
H301 H 0.75616 0.72462 0.35053 0.0
H302 H 0.71281 0.73163 0.66437 0.0
H303 H 0.72592 0.74782 0.33838 0.0
H304 H 0.68398 0.80261 0.35367 0.0
H305 H 0.72184 0.78881 0.39916 0.0
H306 H 0.66431 0.72051 0.57281 0.0
H307 H 0.62695 0.73514 0.53062 0.0
C308 C 0.73909 0.71637 0.6014 0.0
C309 C 0.75111 0.71354 0.5127 0.0
C310 C 0.72217 0.73026 0.59534 0.0
C311 C 0.71678 0.74154 0.50034 0.0
C312 C 0.72983 0.73973 0.4134 0.0
C313 C 0.74686 0.72602 0.41971 0.0
C314 C 0.67964 0.78496 0.40307 0.0
C315 C 0.65234 0.7697 0.43745 0.0
C316 C 0.70127 0.77693 0.42863 0.0
C317 C 0.69596 0.75319 0.48804 0.0
C318 C 0.66932 0.73905 0.52761 0.0
C319 C 0.64779 0.74734 0.50305 0.0
H320 H 0.07415 0.74422 0.85752 0.0
H321 H 0.0282 0.75767 0.5687 0.0
H322 H 0.03009 0.72742 0.93634 0.0
H323 H 0.98357 0.73883 0.64357 0.0
H324 H 0.90492 0.70794 0.78278 0.0
H325 H 0.95626 0.74213 0.76608 0.0
H326 H 0.98345 0.68369 0.91102 0.0
H327 H 0.93266 0.65061 0.93263 0.0
C328 C 0.05486 0.74408 0.8113 0.0
C329 C 0.05469 0.75193 0.70577 0.0
C330 C 0.02936 0.73402 0.85611 0.0
C331 C 1.00291 0.73126 0.79618 0.0
C332 C 1.00343 0.74082 0.69327 0.0
C333 C 0.02899 0.75119 0.64913 0.0
C334 C 0.92215 0.70304 0.81478 0.0
C335 C 0.91463 0.67636 0.85759 0.0
C336 C 0.95156 0.72245 0.80393 0.0
C337 C 0.97399 0.71531 0.83379 0.0
C338 C 0.96699 0.69014 0.88702 0.0
C339 C 0.93768 0.67102 0.89958 0.0
H340 H 0.20606 0.87081 0.56812 0.0
H341 H 0.27733 0.90739 0.38944 0.0
H342 H 0.22555 0.92107 0.66328 0.0
H343 H 0.29669 0.95678 0.4854 0.0
H344 H 0.34407 0.0281 0.78415 0.0
H345 H 0.31875 0.976 0.70369 0.0
H346 H 0.23724 0.97687 0.59448 0.0
H347 H 0.26273 0.02949 0.67476 0.0
C348 C 0.22565 0.88947 0.54862 0.0
C349 C 0.24011 0.88508 0.47115 0.0
C350 C 0.23671 0.91812 0.60287 0.0
C351 C 0.26268 0.94255 0.58186 0.0
C352 C 0.27675 0.9382 0.50342 0.0
C353 C 0.26551 0.90988 0.44817 0.0
C354 C 0.32057 0.01707 0.74528 0.0
C355 C 0.30537 0.03287 0.73573 0.0
C356 C 0.30617 0.98733 0.69879 0.0
C357 C 0.27616 0.97262 0.64297 0.0
C358 C 0.26038 0.98781 0.63775 0.0
C359 C 0.27497 0.01784 0.68299 0.0
H360 H 0.22348 0.72752 0.0763 0.0
H361 H 0.17687 0.68877 0.33274 0.0
H362 H 0.21833 0.67982 0.01561 0.0
H363 H 0.17162 0.64132 0.27155 0.0
H364 H 0.20257 0.57545 0.22472 0.0
H365 H 0.20753 0.62346 0.27292 0.0
H366 H 0.17877 0.62633 0.93515 0.0
H367 H 0.1743 0.57817 0.88616 0.0
C368 C 0.21202 0.70883 0.11936 0.0
C369 C 0.20085 0.71203 0.21008 0.0
C370 C 0.20894 0.68151 0.08415 0.0
C371 C 0.19486 0.65697 0.13957 0.0
C372 C 0.18302 0.66 0.22836 0.0
C373 C 0.18589 0.68716 0.263 0.0
C374 C 0.19776 0.58648 0.16035 0.0
C375 C 0.18817 0.57306 0.05152 0.0
C376 C 0.20024 0.61382 0.18818 0.0
C377 C 0.19327 0.6285 0.10792 0.0
C378 C 0.18435 0.61552 -0.00136 0.0
C379 C 0.18163 0.58793 0.97073 0.0
H380 H 0.48826 0.18589 0.85725 0.0
H381 H 0.54347 0.27755 0.81192 0.0
H382 H 0.53258 0.18134 0.89773 0.0
H383 H 0.5881 0.27382 0.85902 0.0
H384 H 0.64813 0.24227 0.7546 0.0
H385 H 0.60829 0.2522 0.76341 0.0
H386 H 0.5789 0.19183 0.00094 0.0
H387 H 0.61779 0.1802 0.98574 0.0
C388 C 0.51006 0.20536 0.85982 0.0
C389 C 0.51249 0.2319 0.82972 0.0
C390 C 0.53556 0.20284 0.88338 0.0
C391 C 0.56401 0.22703 0.87925 0.0
C392 C 0.56652 0.2544 0.85928 0.0
C393 C 0.541 0.25668 0.83328 0.0
C394 C 0.63311 0.23095 0.80839 0.0
C395 C 0.63586 0.20998 0.86776 0.0
C396 C 0.61048 0.23709 0.81514 0.0
C397 C 0.59015 0.22282 0.88294 0.0
C398 C 0.59381 0.20292 0.94661 0.0
C399 C 0.61636 0.19651 0.93888 0.0
H400 H 0.42088 0.5799 0.44904 0.0
H401 H 0.39113 0.64145 0.51117 0.0
H402 H 0.37026 0.53808 0.43876 0.0
H403 H 0.34049 0.59952 0.50279 0.0
H404 H 0.25156 0.51835 0.29552 0.0
H405 H 0.30152 0.56208 0.3508 0.0
H406 H 0.33038 0.51124 0.54363 0.0
H407 H 0.28014 0.46713 0.48737 0.0
C408 C 0.40355 0.58447 0.46136 0.0
C409 C 0.40991 0.61396 0.47976 0.0
C410 C 0.37464 0.56051 0.45687 0.0
C411 C 0.35136 0.56549 0.46997 0.0
C412 C 0.35793 0.59499 0.49178 0.0
C413 C 0.38694 0.61897 0.49716 0.0
C414 C 0.26838 0.51658 0.35129 0.0
C415 C 0.26199 0.48919 0.38614 0.0
C416 C 0.297 0.54174 0.38355 0.0
C417 C 0.31999 0.54006 0.45079 0.0
C418 C 0.31318 0.5131 0.49071 0.0
C419 C 0.28437 0.48793 0.45924 0.0
H420 H 0.80935 0.43134 0.77219 0.0
H421 H 0.84247 0.42956 0.1068 0.0
H422 H 0.8042 0.38341 0.72054 0.0
H423 H 0.83767 0.38139 0.05424 0.0
H424 H 0.79062 0.2797 0.90927 0.0
H425 H 0.79682 0.32752 0.97529 0.0
H426 H 0.84091 0.36632 0.71414 0.0
H427 H 0.83472 0.31877 0.64777 0.0
C428 C 0.81515 0.4205 0.83502 0.0
C429 C 0.82617 0.43414 0.9437 0.0
C430 C 0.81256 0.39322 0.80515 0.0
C431 C 0.82082 0.37886 0.88322 0.0
C432 C 0.83112 0.39202 -0.00749 0.0
C433 C 0.83399 0.41957 0.02242 0.0
C434 C 0.80181 0.29849 0.86636 0.0
C435 C 0.81192 0.29536 0.77258 0.0
C436 C 0.80547 0.32587 0.90456 0.0
C437 C 0.81904 0.35048 0.84909 0.0
C438 C 0.82994 0.34756 0.75745 0.0
C439 C 0.82653 0.32034 0.71983 0.0
H440 H 0.35834 0.76342 0.18381 0.0
H441 H 0.39918 0.84014 0.01707 0.0
H442 H 0.40028 0.75633 0.18311 0.0
H443 H 0.44035 0.83162 0.00843 0.0
H444 H 0.52736 0.83292 0.16709 0.0
H445 H 0.48326 0.83784 0.12341 0.0
H446 H 0.42619 0.74197 0.08889 0.0
H447 H 0.4703 0.73756 0.1398 0.0
C448 C 0.37614 0.77862 0.1457 0.0
C449 C 0.37556 0.80271 0.10242 0.0
C450 C 0.40009 0.77422 0.14341 0.0
C451 C 0.42399 0.79343 0.09587 0.0
C452 C 0.42267 0.81665 0.04742 0.0
C453 C 0.39879 0.8213 0.05102 0.0
C454 C 0.50533 0.81295 0.14823 0.0
C455 C 0.50208 0.78493 0.1584 0.0
C456 C 0.47998 0.81569 0.12269 0.0
C457 C 0.45093 0.79033 0.1047 0.0
C458 C 0.44804 0.7621 0.10592 0.0
C459 C 0.47331 0.75948 0.13409 0.0
H460 H 0.76493 0.4849 0.6866 0.0
H461 H 0.73095 0.53492 0.51429 0.0
H462 H 0.71544 0.44022 0.63768 0.0
H463 H 0.68099 0.49054 0.46919 0.0
H464 H 0.59458 0.40197 0.3656 0.0
H465 H 0.64634 0.44158 0.37753 0.0
H466 H 0.67061 0.42371 0.69832 0.0
H467 H 0.61961 0.38312 0.68339 0.0
C468 C 0.7469 0.48623 0.63711 0.0
C469 C 0.75173 0.51345 0.60509 0.0
C470 C 0.71843 0.46068 0.60985 0.0
C471 C 0.69394 0.46183 0.55159 0.0
C472 C 0.69926 0.48868 0.51364 0.0
C473 C 0.72793 0.51419 0.53956 0.0
C474 C 0.61111 0.40612 0.43776 0.0
C475 C 0.60279 0.3894 0.52384 0.0
C476 C 0.64076 0.4291 0.44512 0.0
C477 C 0.6628 0.43599 0.53891 0.0
C478 C 0.6545 0.41886 0.62396 0.0
C479 C 0.625 0.39582 0.61625 0.0
H480 H 0.15733 0.35115 0.96079 0.0
H481 H 0.24177 0.4333 -0.00594 0.0
H482 H 0.13976 0.36023 0.78467 0.0
H483 H 0.226 0.44093 0.81167 0.0
H484 H 0.18657 0.46521 0.53058 0.0
H485 H 0.19543 0.45611 0.71821 0.0
H486 H 0.1425 0.36096 0.60904 0.0
H487 H 0.13143 0.37029 0.42757 0.0
C488 C 0.17259 0.37043 0.92745 0.0
C489 C 0.20072 0.3916 -0.01065 0.0
C490 C 0.16257 0.37581 0.82675 0.0
C491 C 0.18123 0.40174 0.78456 0.0
C492 C 0.21057 0.42141 0.84332 0.0
C493 C 0.22001 0.41665 0.94607 0.0
C494 C 0.17584 0.44254 0.54883 0.0
C495 C 0.15888 0.41841 0.46588 0.0
C496 C 0.18141 0.4372 0.65527 0.0
C497 C 0.1706 0.40776 0.67817 0.0
C498 C 0.15122 0.38389 0.59558 0.0
C499 C 0.145 0.38924 0.49091 0.0
H500 H 0.74074 0.15966 0.34424 0.0
H501 H 0.78614 0.25545 0.36979 0.0
H502 H 0.76232 0.15769 0.19102 0.0
H503 H 0.80497 0.25365 0.20692 0.0
H504 H 0.85742 0.24943 0.97357 0.0
H505 H 0.8403 0.24801 0.1433 0.0
H506 H 0.76322 0.16038 0.01647 0.0
H507 H 0.78204 0.16093 0.85443 0.0
C508 C 0.75435 0.18023 0.31359 0.0
C509 C 0.76194 0.20772 0.36833 0.0
C510 C 0.76683 0.1792 0.22531 0.0
C511 C 0.78595 0.20558 0.18635 0.0
C512 C 0.79137 0.23292 0.23646 0.0
C513 C 0.77997 0.23401 0.32803 0.0
C514 C 0.83744 0.22955 0.98453 0.0
C515 C 0.82066 0.20553 0.90063 0.0
C516 C 0.82717 0.22892 0.08061 0.0
C517 C 0.79964 0.20454 0.09287 0.0
C518 C 0.78449 0.17957 0.01178 0.0
C519 C 0.7952 0.17991 0.91776 0.0
H520 H 0.51951 0.74641 0.01041 0.0
H521 H 0.60702 0.75647 0.04538 0.0
H522 H 0.52822 0.7744 0.85842 0.0
H523 H 0.61456 0.78105 0.88445 0.0
H524 H 0.63566 0.84076 0.64394 0.0
H525 H 0.62646 0.82469 0.82003 0.0
H526 H 0.53087 0.77551 0.68467 0.0
H527 H 0.54033 0.79457 0.51593 0.0
C528 C 0.54012 0.75359 0.98217 0.0
C529 C 0.56269 0.74955 0.03878 0.0
C530 C 0.54525 0.76975 0.89503 0.0
C531 C 0.57246 0.78073 0.85963 0.0
C532 C 0.59392 0.77426 0.91174 0.0
C533 C 0.5893 0.75935 0.00187 0.0
C534 C 0.61278 0.82758 0.65441 0.0
C535 C 0.58866 0.81782 0.56662 0.0
C536 C 0.6074 0.81775 0.75417 0.0
C537 C 0.57795 0.79739 0.76538 0.0
C538 C 0.55388 0.79087 0.68031 0.0
C539 C 0.55927 0.80157 0.58258 0.0
H540 H 0.88165 0.63455 0.55541 0.0
H541 H 0.82714 0.5395 0.45466 0.0
H542 H 0.87026 0.64346 0.37349 0.0
H543 H 0.8179 0.54819 0.26662 0.0
H544 H 0.77054 0.57009 -0.00901 0.0
H545 H 0.78682 0.56297 0.17364 0.0
H546 H 0.87271 0.64385 0.19728 0.0
H547 H 0.85465 0.65239 0.02076 0.0
C548 C 0.86819 0.61548 0.49243 0.0
C549 C 0.85458 0.58638 0.51823 0.0
C550 C 0.86177 0.62059 0.38753 0.0
C551 C 0.84241 0.59656 0.30552 0.0
C552 C 0.8319 0.56721 0.32914 0.0
C553 C 0.8377 0.56211 0.43579 0.0
C554 C 0.79233 0.5869 0.0383 0.0
C555 C 0.81138 0.61184 -0.00603 0.0
C556 C 0.80206 0.58243 0.1412 0.0
C557 C 0.83146 0.6023 0.19905 0.0
C558 C 0.84987 0.62813 0.15585 0.0
C559 C 0.83957 0.63319 0.05495 0.0
H560 H 0.21328 0.74982 0.56051 0.0
H561 H 0.28187 0.84162 0.67358 0.0
H562 H 0.19384 0.74712 0.72273 0.0
H563 H 0.26443 0.83837 0.84319 0.0
H564 H 0.20652 0.84012 0.06221 0.0
H565 H 0.22636 0.83972 0.90101 0.0
H566 H 0.19278 0.74521 0.89788 0.0
H567 H 0.17 0.74543 0.04979 0.0
C568 C 0.22493 0.76913 0.62272 0.0
C569 C 0.24841 0.79618 0.60372 0.0
C570 C 0.21388 0.76759 0.71672 0.0
C571 C 0.22679 0.79287 0.79553 0.0
C572 C 0.25284 0.81888 0.78198 0.0
C573 C 0.26337 0.82064 0.68602 0.0
C574 C 0.20251 0.81917 0.02362 0.0
C575 C 0.18666 0.79281 0.06701 0.0
C576 C 0.21456 0.81897 0.93312 0.0
C577 C 0.21211 0.7926 0.88735 0.0
C578 C 0.19503 0.76597 0.92906 0.0
C579 C 0.18184 0.76599 0.01641 0.0
H580 H 0.47268 0.21663 0.46372 0.0
H581 H 0.37726 0.1659 0.33703 0.0
H582 H 0.48084 0.23624 0.29588 0.0
H583 H 0.38533 0.18224 0.16077 0.0
H584 H 0.39906 0.24679 0.92576 0.0
H585 H 0.39338 0.22328 0.08895 0.0
H586 H 0.48433 0.24067 0.12709 0.0
H587 H 0.49085 0.26804 0.97432 0.0
C588 C 0.45348 0.20874 0.39732 0.0
C589 C 0.42432 0.19109 0.41378 0.0
C590 C 0.45813 0.2198 0.29977 0.0
C591 C 0.43361 0.21214 0.2149 0.0
C592 C 0.40466 0.19029 0.2264 0.0
C593 C 0.39995 0.18022 0.32627 0.0
C594 C 0.41808 0.24655 0.97267 0.0
C595 C 0.4453 0.25903 0.93852 0.0
C596 C 0.41463 0.23218 0.06421 0.0
C597 C 0.43796 0.22883 0.12033 0.0
C598 C 0.46576 0.24278 0.08801 0.0
C599 C 0.46965 0.25861 5e-05 0.0
loop_
_geom_bond_atom_site_label_1
_geom_bond_atom_site_label_2
_geom_bond_distance
_geom_bond_site_symmetry_2
_ccdc_geom_bond_type
Gd0 C3 2.818 . S
Gd0 O20 2.377 1_554 S
Gd0 O22 2.448 1_554 S
Gd0 O23 2.506 . S
Gd0 O24 2.435 1_554 S
Gd0 O25 2.717 1_554 S
Gd0 O27 2.395 1_554 S
Gd0 O31 2.327 . S
Gd1 C12 2.818 . S
Gd1 O21 2.395 1_556 S
Gd1 O25 2.327 . S
Gd1 O26 2.377 1_556 S
Gd1 O28 2.448 1_556 S
Gd1 O29 2.506 . S
Gd1 O30 2.435 1_556 S
Gd1 O31 2.717 1_556 S
C2 O20 1.240 1_554 S
C2 O21 1.240 . S
C3 Gd0 2.818 . S
C3 C4 1.510 . S
C3 O22 1.249 1_554 S
C3 O23 1.252 . S
C4 C3 1.510 . S
C4 C5 1.404 . S
C4 C6 1.352 . S
C5 C4 1.404 . S
C5 C9 1.389 . S
C5 H32 0.930 1_554 S
C6 C4 1.352 . S
C6 C8 1.374 . S
C6 H33 0.931 . S
C7 C8 1.359 . S
C7 C9 1.364 . S
C8 C6 1.374 . S
C8 C7 1.359 . S
C8 H34 0.931 . S
C9 C5 1.389 . S
C9 C7 1.364 . S
C9 H35 0.931 . S
C10 O24 1.256 . S
C10 O25 1.257 . S
C11 O26 1.240 1_556 S
C11 O27 1.240 . S
C12 Gd1 2.818 . S
C12 C13 1.510 . S
C12 O28 1.249 1_556 S
C12 O29 1.252 . S
C13 C12 1.510 . S
C13 C14 1.404 . S
C13 C15 1.352 . S
C14 C13 1.404 . S
C14 C18 1.389 . S
C14 H36 0.930 1_556 S
C15 C13 1.352 . S
C15 C17 1.374 . S
C15 H37 0.931 . S
C16 C17 1.359 . S
C16 C18 1.364 . S
C17 C15 1.374 . S
C17 C16 1.359 . S
C17 H38 0.931 . S
C18 C14 1.389 . S
C18 C16 1.364 . S
C18 H39 0.931 . S
C19 O30 1.256 . S
C19 O31 1.257 . S
O20 Gd0 2.377 1_556 S
O20 C2 1.240 1_556 S
O21 Gd1 2.395 1_554 S
O21 C2 1.240 . S
O22 Gd0 2.448 1_556 S
O22 C3 1.249 1_556 S
O23 Gd0 2.506 . S
O23 C3 1.252 . S
O24 Gd0 2.435 1_556 S
O24 C10 1.256 . S
O25 Gd0 2.717 1_556 S
O25 Gd1 2.327 . S
O25 C10 1.257 . S
O26 Gd1 2.377 1_554 S
O26 C11 1.240 1_554 S
O27 Gd0 2.395 1_556 S
O27 C11 1.240 . S
O28 Gd1 2.448 1_554 S
O28 C12 1.249 1_554 S
O29 Gd1 2.506 . S
O29 C12 1.252 . S
O30 Gd1 2.435 1_554 S
O30 C19 1.256 . S
O31 Gd0 2.327 . S
O31 Gd1 2.717 1_554 S
O31 C19 1.257 . S
H32 C5 0.930 1_556 S
H33 C6 0.931 . S
H34 C8 0.931 . S
H35 C9 0.931 . S
H36 C14 0.930 1_554 S
H37 C15 0.931 . S
H38 C17 0.931 . S
H39 C18 0.931 . S
Gd40 C43 2.818 1_556 S
Gd40 O60 2.377 . S
Gd40 O62 2.448 . S
Gd40 O63 2.506 1_556 S
Gd40 O64 2.435 . S
Gd40 O65 2.717 . S
Gd40 O67 2.395 . S
Gd40 O71 2.327 1_556 S
Gd41 C52 2.818 1_554 S
Gd41 O61 2.395 . S
Gd41 O65 2.327 1_554 S
Gd41 O66 2.377 . S
Gd41 O68 2.448 . S
Gd41 O69 2.506 1_554 S
Gd41 O70 2.435 . S
Gd41 O71 2.717 . S
C42 O60 1.240 1_554 S
C42 O61 1.240 . S
C43 Gd40 2.818 1_554 S
C43 C44 1.510 . S
C43 O62 1.249 1_554 S
C43 O63 1.252 . S
C44 C43 1.510 . S
C44 C45 1.404 1_554 S
C44 C46 1.352 . S
C45 C44 1.404 1_556 S
C45 C49 1.389 1_556 S
C45 H72 0.930 . S
C46 C44 1.352 . S
C46 C48 1.374 . S
C46 H73 0.931 . S
C47 C48 1.359 . S
C47 C49 1.364 . S
C48 C46 1.374 . S
C48 C47 1.359 . S
C48 H74 0.931 . S
C49 C45 1.389 1_554 S
C49 C47 1.364 . S
C49 H75 0.932 1_554 S
C50 O64 1.256 . S
C50 O65 1.257 . S
C51 O66 1.240 1_556 S
C51 O67 1.240 . S
C52 Gd41 2.818 1_556 S
C52 C53 1.510 . S
C52 O68 1.249 1_556 S
C52 O69 1.252 . S
C53 C52 1.510 . S
C53 C54 1.404 1_556 S
C53 C55 1.352 . S
C54 C53 1.404 1_554 S
C54 C58 1.388 1_554 S
C54 H76 0.930 . S
C55 C53 1.352 . S
C55 C57 1.374 . S
C55 H77 0.931 . S
C56 C57 1.359 . S
C56 C58 1.366 . S
C57 C55 1.374 . S
C57 C56 1.359 . S
C57 H78 0.931 . S
C58 C54 1.388 1_556 S
C58 C56 1.366 . S
C58 H79 0.930 1_656 S
C59 O70 1.256 . S
C59 O71 1.257 . S
O60 Gd40 2.377 . S
O60 C42 1.240 1_556 S
O61 Gd41 2.395 . S
O61 C42 1.240 . S
O62 Gd40 2.448 . S
O62 C43 1.249 1_556 S
O63 Gd40 2.506 1_554 S
O63 C43 1.252 . S
O64 Gd40 2.435 . S
O64 C50 1.256 . S
O65 Gd40 2.717 . S
O65 Gd41 2.327 1_556 S
O65 C50 1.257 . S
O66 Gd41 2.377 . S
O66 C51 1.240 1_554 S
O67 Gd40 2.395 . S
O67 C51 1.240 . S
O68 Gd41 2.448 . S
O68 C52 1.249 1_554 S
O69 Gd41 2.506 1_556 S
O69 C52 1.252 . S
O70 Gd41 2.435 . S
O70 C59 1.256 . S
O71 Gd40 2.327 1_554 S
O71 Gd41 2.717 . S
O71 C59 1.257 . S
H72 C45 0.930 . S
H73 C46 0.931 . S
H74 C48 0.931 . S
H75 C49 0.932 1_556 S
H76 C54 0.930 . S
H77 C55 0.931 . S
H78 C57 0.931 . S
H79 C58 0.930 1_454 S
Gd80 C83 2.818 . S
Gd80 O100 2.377 . S
Gd80 O102 2.448 . S
Gd80 O103 2.506 1_556 S
Gd80 O104 2.435 . S
Gd80 O105 2.717 . S
Gd80 O107 2.395 1_556 S
Gd80 O111 2.327 1_556 S
Gd81 C92 2.818 . S
Gd81 O101 2.395 1_554 S
Gd81 O105 2.327 1_554 S
Gd81 O106 2.377 . S
Gd81 O108 2.448 . S
Gd81 O109 2.506 1_554 S
Gd81 O110 2.435 . S
Gd81 O111 2.717 . S
C82 O100 1.240 . S
C82 O101 1.240 . S
C83 Gd80 2.818 . S
C83 C84 1.510 . S
C83 O102 1.249 . S
C83 O103 1.252 1_556 S
C84 C83 1.510 . S
C84 C85 1.404 . S
C84 C86 1.352 . S
C85 C84 1.404 . S
C85 C89 1.389 . S
C85 H112 0.930 . S
C86 C84 1.352 . S
C86 C88 1.374 . S
C86 H113 0.931 1_556 S
C87 C88 1.359 . S
C87 C89 1.364 . S
C88 C86 1.374 . S
C88 C87 1.359 . S
C88 H114 0.931 1_556 S
C89 C85 1.389 . S
C89 C87 1.364 . S
C89 H115 0.931 . S
C90 O104 1.256 . S
C90 O105 1.257 . S
C91 O106 1.240 . S
C91 O107 1.240 . S
C92 Gd81 2.818 . S
C92 C93 1.510 . S
C92 O108 1.249 . S
C92 O109 1.252 1_554 S
C93 C92 1.510 . S
C93 C94 1.404 . S
C93 C95 1.352 . S
C94 C93 1.404 . S
C94 C98 1.389 . S
C94 H116 0.930 . S
C95 C93 1.352 . S
C95 C97 1.374 . S
C95 H117 0.931 1_554 S
C96 C97 1.359 . S
C96 C98 1.364 . S
C97 C95 1.374 . S
C97 C96 1.359 . S
C97 H118 0.931 1_554 S
C98 C94 1.389 . S
C98 C96 1.364 . S
C98 H119 0.931 . S
C99 O110 1.256 . S
C99 O111 1.257 . S
O100 Gd80 2.377 . S
O100 C82 1.240 . S
O101 Gd81 2.395 1_556 S
O101 C82 1.240 . S
O102 Gd80 2.448 . S
O102 C83 1.249 . S
O103 Gd80 2.506 1_554 S
O103 C83 1.252 1_554 S
O104 Gd80 2.435 . S
O104 C90 1.256 . S
O105 Gd80 2.717 . S
O105 Gd81 2.327 1_556 S
O105 C90 1.257 . S
O106 Gd81 2.377 . S
O106 C91 1.240 . S
O107 Gd80 2.395 1_554 S
O107 C91 1.240 . S
O108 Gd81 2.448 . S
O108 C92 1.249 . S
O109 Gd81 2.506 1_556 S
O109 C92 1.252 1_556 S
O110 Gd81 2.435 . S
O110 C99 1.256 . S
O111 Gd80 2.327 1_554 S
O111 Gd81 2.717 . S
O111 C99 1.257 . S
H112 C85 0.930 . S
H113 C86 0.931 1_554 S
H114 C88 0.931 1_554 S
H115 C89 0.931 . S
H116 C94 0.930 . S
H117 C95 0.931 1_556 S
H118 C97 0.931 1_556 S
H119 C98 0.931 . S
Gd120 C123 2.818 . S
Gd120 O140 2.377 1_554 S
Gd120 O142 2.448 1_554 S
Gd120 O143 2.506 . S
Gd120 O144 2.435 1_554 S
Gd120 O145 2.717 1_554 S
Gd120 O147 2.395 1_554 S
Gd120 O151 2.327 . S
Gd121 C132 2.818 . S
Gd121 O141 2.395 1_556 S
Gd121 O145 2.327 . S
Gd121 O146 2.377 1_556 S
Gd121 O148 2.448 1_556 S
Gd121 O149 2.506 . S
Gd121 O150 2.435 1_556 S
Gd121 O151 2.717 1_556 S
C122 O140 1.240 1_554 S
C122 O141 1.240 . S
C123 Gd120 2.818 . S
C123 C124 1.510 . S
C123 O142 1.249 1_554 S
C123 O143 1.252 . S
C124 C123 1.510 . S
C124 C125 1.404 . S
C124 C126 1.352 . S
C125 C124 1.404 . S
C125 C129 1.389 . S
C125 H152 0.930 1_554 S
C126 C124 1.352 . S
C126 C128 1.374 . S
C126 H153 0.931 . S
C127 C128 1.359 . S
C127 C129 1.364 . S
C128 C126 1.374 . S
C128 C127 1.359 . S
C128 H154 0.931 . S
C129 C125 1.389 . S
C129 C127 1.364 . S
C129 H155 0.931 . S
C130 O144 1.256 . S
C130 O145 1.257 . S
C131 O146 1.240 1_556 S
C131 O147 1.240 . S
C132 Gd121 2.818 . S
C132 C133 1.510 . S
C132 O148 1.249 1_556 S
C132 O149 1.252 . S
C133 C132 1.510 . S
C133 C134 1.404 . S
C133 C135 1.352 . S
C134 C133 1.404 . S
C134 C138 1.389 . S
C134 H156 0.930 1_556 S
C135 C133 1.352 . S
C135 C137 1.374 . S
C135 H157 0.931 . S
C136 C137 1.359 . S
C136 C138 1.364 . S
C137 C135 1.374 . S
C137 C136 1.359 . S
C137 H158 0.931 . S
C138 C134 1.389 . S
C138 C136 1.364 . S
C138 H159 0.931 . S
C139 O150 1.256 . S
C139 O151 1.257 . S
O140 Gd120 2.377 1_556 S
O140 C122 1.240 1_556 S
O141 Gd121 2.395 1_554 S
O141 C122 1.240 . S
O142 Gd120 2.448 1_556 S
O142 C123 1.249 1_556 S
O143 Gd120 2.506 . S
O143 C123 1.252 . S
O144 Gd120 2.435 1_556 S
O144 C130 1.256 . S
O145 Gd120 2.717 1_556 S
O145 Gd121 2.327 . S
O145 C130 1.257 . S
O146 Gd121 2.377 1_554 S
O146 C131 1.240 1_554 S
O147 Gd120 2.395 1_556 S
O147 C131 1.240 . S
O148 Gd121 2.448 1_554 S
O148 C132 1.249 1_554 S
O149 Gd121 2.506 . S
O149 C132 1.252 . S
O150 Gd121 2.435 1_554 S
O150 C139 1.256 . S
O151 Gd120 2.327 . S
O151 Gd121 2.717 1_554 S
O151 C139 1.257 . S
H152 C125 0.930 1_556 S
H153 C126 0.931 . S
H154 C128 0.931 . S
H155 C129 0.931 . S
H156 C134 0.930 1_554 S
H157 C135 0.931 . S
H158 C137 0.931 . S
H159 C138 0.931 . S
Gd160 C163 2.818 1_556 S
Gd160 O180 2.377 . S
Gd160 O182 2.448 . S
Gd160 O183 2.506 1_556 S
Gd160 O184 2.435 . S
Gd160 O185 2.717 . S
Gd160 O187 2.395 . S
Gd160 O191 2.327 1_556 S
Gd161 C172 2.818 1_554 S
Gd161 O181 2.395 . S
Gd161 O185 2.327 1_554 S
Gd161 O186 2.377 . S
Gd161 O188 2.448 . S
Gd161 O189 2.506 1_554 S
Gd161 O190 2.435 . S
Gd161 O191 2.717 . S
C162 O180 1.240 1_554 S
C162 O181 1.240 . S
C163 Gd160 2.818 1_554 S
C163 C164 1.510 . S
C163 O182 1.249 1_554 S
C163 O183 1.252 . S
C164 C163 1.510 . S
C164 C165 1.404 1_554 S
C164 C166 1.352 . S
C165 C164 1.404 1_556 S
C165 C169 1.388 1_556 S
C165 H192 0.930 . S
C166 C164 1.352 . S
C166 C168 1.374 . S
C166 H193 0.931 . S
C167 C168 1.359 . S
C167 C169 1.366 . S
C168 C166 1.374 . S
C168 C167 1.359 . S
C168 H194 0.931 . S
C169 C165 1.388 1_554 S
C169 C167 1.366 . S
C169 H195 0.930 1_454 S
C170 O184 1.256 . S
C170 O185 1.257 . S
C171 O186 1.240 1_556 S
C171 O187 1.240 . S
C172 Gd161 2.818 1_556 S
C172 C173 1.510 . S
C172 O188 1.249 1_556 S
C172 O189 1.252 . S
C173 C172 1.510 . S
C173 C174 1.404 1_556 S
C173 C175 1.352 . S
C174 C173 1.404 1_554 S
C174 C178 1.389 1_554 S
C174 H196 0.930 . S
C175 C173 1.352 . S
C175 C177 1.374 . S
C175 H197 0.931 . S
C176 C177 1.359 . S
C176 C178 1.364 . S
C177 C175 1.374 . S
C177 C176 1.359 . S
C177 H198 0.931 . S
C178 C174 1.389 1_556 S
C178 C176 1.364 . S
C178 H199 0.932 1_556 S
C179 O190 1.256 . S
C179 O191 1.257 . S
O180 Gd160 2.377 . S
O180 C162 1.240 1_556 S
O181 Gd161 2.395 . S
O181 C162 1.240 . S
O182 Gd160 2.448 . S
O182 C163 1.249 1_556 S
O183 Gd160 2.506 1_554 S
O183 C163 1.252 . S
O184 Gd160 2.435 . S
O184 C170 1.256 . S
O185 Gd160 2.717 . S
O185 Gd161 2.327 1_556 S
O185 C170 1.257 . S
O186 Gd161 2.377 . S
O186 C171 1.240 1_554 S
O187 Gd160 2.395 . S
O187 C171 1.240 . S
O188 Gd161 2.448 . S
O188 C172 1.249 1_554 S
O189 Gd161 2.506 1_556 S
O189 C172 1.252 . S
O190 Gd161 2.435 . S
O190 C179 1.256 . S
O191 Gd160 2.327 1_554 S
O191 Gd161 2.717 . S
O191 C179 1.257 . S
H192 C165 0.930 . S
H193 C166 0.931 . S
H194 C168 0.931 . S
H195 C169 0.930 1_656 S
H196 C174 0.930 . S
H197 C175 0.931 . S
H198 C177 0.931 . S
H199 C178 0.932 1_554 S
Gd200 C203 2.818 . S
Gd200 O220 2.377 . S
Gd200 O222 2.448 . S
Gd200 O223 2.506 1_556 S
Gd200 O224 2.435 . S
Gd200 O225 2.717 . S
Gd200 O227 2.395 1_556 S
Gd200 O231 2.327 1_556 S
Gd201 C212 2.818 . S
Gd201 O221 2.395 1_554 S
Gd201 O225 2.327 1_554 S
Gd201 O226 2.377 . S
Gd201 O228 2.448 . S
Gd201 O229 2.506 1_554 S
Gd201 O230 2.435 . S
Gd201 O231 2.717 . S
C202 O220 1.240 . S
C202 O221 1.240 . S
C203 Gd200 2.818 . S
C203 C204 1.510 . S
C203 O222 1.249 . S
C203 O223 1.252 1_556 S
C204 C203 1.510 . S
C204 C205 1.404 . S
C204 C206 1.352 . S
C205 C204 1.404 . S
C205 C209 1.389 . S
C205 H232 0.930 . S
C206 C204 1.352 . S
C206 C208 1.374 . S
C206 H233 0.931 1_556 S
C207 C208 1.359 . S
C207 C209 1.364 . S
C208 C206 1.374 . S
C208 C207 1.359 . S
C208 H234 0.931 1_556 S
C209 C205 1.389 . S
C209 C207 1.364 . S
C209 H235 0.931 . S
C210 O224 1.256 . S
C210 O225 1.257 . S
C211 O226 1.240 . S
C211 O227 1.240 . S
C212 Gd201 2.818 . S
C212 C213 1.510 . S
C212 O228 1.249 . S
C212 O229 1.252 1_554 S
C213 C212 1.510 . S
C213 C214 1.404 . S
C213 C215 1.352 . S
C214 C213 1.404 . S
C214 C218 1.389 . S
C214 H236 0.930 . S
C215 C213 1.352 . S
C215 C217 1.374 . S
C215 H237 0.931 1_554 S
C216 C217 1.359 . S
C216 C218 1.364 . S
C217 C215 1.374 . S
C217 C216 1.359 . S
C217 H238 0.931 1_554 S
C218 C214 1.389 . S
C218 C216 1.364 . S
C218 H239 0.931 . S
C219 O230 1.256 . S
C219 O231 1.257 . S
O220 Gd200 2.377 . S
O220 C202 1.240 . S
O221 Gd201 2.395 1_556 S
O221 C202 1.240 . S
O222 Gd200 2.448 . S
O222 C203 1.249 . S
O223 Gd200 2.506 1_554 S
O223 C203 1.252 1_554 S
O224 Gd200 2.435 . S
O224 C210 1.256 . S
O225 Gd200 2.717 . S
O225 Gd201 2.327 1_556 S
O225 C210 1.257 . S
O226 Gd201 2.377 . S
O226 C211 1.240 . S
O227 Gd200 2.395 1_554 S
O227 C211 1.240 . S
O228 Gd201 2.448 . S
O228 C212 1.249 . S
O229 Gd201 2.506 1_556 S
O229 C212 1.252 1_556 S
O230 Gd201 2.435 . S
O230 C219 1.256 . S
O231 Gd200 2.327 1_554 S
O231 Gd201 2.717 . S
O231 C219 1.257 . S
H232 C205 0.930 . S
H233 C206 0.931 1_554 S
H234 C208 0.931 1_554 S
H235 C209 0.931 . S
H236 C214 0.930 . S
H237 C215 0.931 1_556 S
H238 C217 0.931 1_556 S
H239 C218 0.931 . S
H240 C248 0.950 . S
H241 C253 0.950 . S
H242 C250 0.950 . S
H243 C252 0.950 . S
H244 C254 0.950 . S
H245 C256 0.950 . S
H246 C258 0.950 . S
H247 C259 0.950 . S
C248 H240 0.950 . S
C248 C249 1.386 . S
C248 C250 1.391 . S
C249 C248 1.386 . S
C249 C253 1.393 . S
C250 H242 0.950 . S
C250 C248 1.391 . S
C250 C251 1.400 . S
C251 C250 1.400 . S
C251 C252 1.398 . S
C251 C257 1.491 . S
C252 H243 0.950 . S
C252 C251 1.398 . S
C252 C253 1.391 . S
C253 H241 0.950 . S
C253 C249 1.393 . S
C253 C252 1.391 . S
C254 H244 0.950 . S
C254 C255 1.386 . S
C254 C256 1.391 . S
C255 C254 1.386 . S
C255 C259 1.393 . S
C256 H245 0.950 . S
C256 C254 1.391 . S
C256 C257 1.400 . S
C257 C251 1.491 . S
C257 C256 1.400 . S
C257 C258 1.398 . S
C258 H246 0.950 . S
C258 C257 1.398 . S
C258 C259 1.391 . S
C259 H247 0.950 . S
C259 C255 1.393 . S
C259 C258 1.391 . S
H260 C268 0.950 . S
H261 C273 0.950 . S
H262 C270 0.950 . S
H263 C272 0.950 . S
H264 C274 0.950 . S
H265 C276 0.950 . S
H266 C278 0.950 . S
H267 C279 0.950 . S
C268 H260 0.950 . S
C268 C269 1.386 . S
C268 C270 1.391 . S
C269 C268 1.386 . S
C269 C273 1.393 . S
C270 H262 0.950 . S
C270 C268 1.391 . S
C270 C271 1.400 . S
C271 C270 1.400 . S
C271 C272 1.398 . S
C271 C277 1.491 . S
C272 H263 0.950 . S
C272 C271 1.398 . S
C272 C273 1.391 . S
C273 H261 0.950 . S
C273 C269 1.393 . S
C273 C272 1.391 . S
C274 H264 0.950 . S
C274 C275 1.386 . S
C274 C276 1.391 . S
C275 C274 1.386 . S
C275 C279 1.393 . S
C276 H265 0.950 . S
C276 C274 1.391 . S
C276 C277 1.400 . S
C277 C271 1.491 . S
C277 C276 1.400 . S
C277 C278 1.398 . S
C278 H266 0.950 . S
C278 C277 1.398 . S
C278 C279 1.391 . S
C279 H267 0.950 . S
C279 C275 1.393 . S
C279 C278 1.391 . S
H280 C288 0.950 . S
H281 C293 0.950 . S
H282 C290 0.950 . S
H283 C292 0.950 . S
H284 C294 0.950 . S
H285 C296 0.950 . S
H286 C298 0.950 . S
H287 C299 0.950 . S
C288 H280 0.950 . S
C288 C289 1.386 . S
C288 C290 1.391 . S
C289 C288 1.386 . S
C289 C293 1.393 . S
C290 H282 0.950 . S
C290 C288 1.391 . S
C290 C291 1.400 . S
C291 C290 1.400 . S
C291 C292 1.398 . S
C291 C297 1.491 . S
C292 H283 0.950 . S
C292 C291 1.398 . S
C292 C293 1.391 . S
C293 H281 0.950 . S
C293 C289 1.393 . S
C293 C292 1.391 . S
C294 H284 0.950 . S
C294 C295 1.386 1_545 S
C294 C296 1.391 . S
C295 C294 1.386 1_565 S
C295 C299 1.393 . S
C296 H285 0.950 . S
C296 C294 1.391 . S
C296 C297 1.400 . S
C297 C291 1.491 . S
C297 C296 1.400 . S
C297 C298 1.398 . S
C298 H286 0.950 . S
C298 C297 1.398 . S
C298 C299 1.391 1_545 S
C299 H287 0.950 . S
C299 C295 1.393 . S
C299 C298 1.391 1_565 S
H300 C308 0.950 . S
H301 C313 0.950 . S
H302 C310 0.950 . S
H303 C312 0.950 . S
H304 C314 0.950 . S
H305 C316 0.950 . S
H306 C318 0.950 . S
H307 C319 0.950 . S
C308 H300 0.950 . S
C308 C309 1.386 . S
C308 C310 1.391 . S
C309 C308 1.386 . S
C309 C313 1.393 . S
C310 H302 0.950 . S
C310 C308 1.391 . S
C310 C311 1.400 . S
C311 C310 1.400 . S
C311 C312 1.398 . S
C311 C317 1.491 . S
C312 H303 0.950 . S
C312 C311 1.398 . S
C312 C313 1.391 . S
C313 H301 0.950 . S
C313 C309 1.393 . S
C313 C312 1.391 . S
C314 H304 0.950 . S
C314 C315 1.386 . S
C314 C316 1.391 . S
C315 C314 1.386 . S
C315 C319 1.393 . S
C316 H305 0.950 . S
C316 C314 1.391 . S
C316 C317 1.400 . S
C317 C311 1.491 . S
C317 C316 1.400 . S
C317 C318 1.398 . S
C318 H306 0.950 . S
C318 C317 1.398 . S
C318 C319 1.391 . S
C319 H307 0.950 . S
C319 C315 1.393 . S
C319 C318 1.391 . S
H320 C328 0.950 1_455 S
H321 C333 0.950 . S
H322 C330 0.948 . S
H323 C332 0.950 . S
H324 C334 0.950 . S
H325 C336 0.950 . S
H326 C338 0.950 . S
H327 C339 0.950 . S
C328 H320 0.950 1_655 S
C328 C329 1.386 . S
C328 C330 1.391 . S
C329 C328 1.386 . S
C329 C333 1.393 . S
C330 H322 0.948 . S
C330 C328 1.391 . S
C330 C331 1.400 . S
C331 C330 1.400 . S
C331 C332 1.398 . S
C331 C337 1.491 . S
C332 H323 0.950 . S
C332 C331 1.398 . S
C332 C333 1.391 . S
C333 H321 0.950 . S
C333 C329 1.393 . S
C333 C332 1.391 . S
C334 H324 0.950 . S
C334 C335 1.386 . S
C334 C336 1.391 . S
C335 C334 1.386 . S
C335 C339 1.393 . S
C336 H325 0.950 . S
C336 C334 1.391 . S
C336 C337 1.400 . S
C337 C331 1.491 . S
C337 C336 1.400 . S
C337 C338 1.398 . S
C338 H326 0.950 . S
C338 C337 1.398 . S
C338 C339 1.391 . S
C339 H327 0.950 . S
C339 C335 1.393 . S
C339 C338 1.391 . S
H340 C348 0.950 . S
H341 C353 0.950 . S
H342 C350 0.950 . S
H343 C352 0.950 . S
H344 C354 0.950 1_545 S
H345 C356 0.950 . S
H346 C358 0.950 . S
H347 C359 0.950 . S
C348 H340 0.950 . S
C348 C349 1.386 . S
C348 C350 1.391 . S
C349 C348 1.386 . S
C349 C353 1.393 . S
C350 H342 0.950 . S
C350 C348 1.391 . S
C350 C351 1.400 . S
C351 C350 1.400 . S
C351 C352 1.398 . S
C351 C357 1.491 . S
C352 H343 0.950 . S
C352 C351 1.398 . S
C352 C353 1.391 . S
C353 H341 0.950 . S
C353 C349 1.393 . S
C353 C352 1.391 . S
C354 H344 0.950 1_565 S
C354 C355 1.386 1_565 S
C354 C356 1.391 . S
C355 C354 1.386 1_545 S
C355 C359 1.393 1_545 S
C356 H345 0.950 . S
C356 C354 1.391 . S
C356 C357 1.400 . S
C357 C351 1.491 . S
C357 C356 1.400 . S
C357 C358 1.398 . S
C358 H346 0.950 . S
C358 C357 1.398 . S
C358 C359 1.391 . S
C359 H347 0.950 . S
C359 C355 1.393 1_565 S
C359 C358 1.391 . S
H360 C368 0.950 . S
H361 C373 0.950 1_554 S
H362 C370 0.950 . S
H363 C372 0.950 1_554 S
H364 C374 0.950 . S
H365 C376 0.950 1_554 S
H366 C378 0.950 . S
H367 C379 0.950 . S
C368 H360 0.950 . S
C368 C369 1.386 . S
C368 C370 1.391 . S
C369 C368 1.386 . S
C369 C373 1.393 . S
C370 H362 0.950 . S
C370 C368 1.391 . S
C370 C371 1.400 . S
C371 C370 1.400 . S
C371 C372 1.398 . S
C371 C377 1.491 . S
C372 H363 0.950 1_556 S
C372 C371 1.398 . S
C372 C373 1.391 . S
C373 H361 0.950 1_556 S
C373 C369 1.393 . S
C373 C372 1.391 . S
C374 H364 0.950 . S
C374 C375 1.386 . S
C374 C376 1.391 . S
C375 C374 1.386 . S
C375 C379 1.393 . S
C376 H365 0.950 1_556 S
C376 C374 1.391 . S
C376 C377 1.400 . S
C377 C371 1.491 . S
C377 C376 1.400 . S
C377 C378 1.398 . S
C378 H366 0.950 . S
C378 C377 1.398 . S
C378 C379 1.391 . S
C379 H367 0.950 . S
C379 C375 1.393 . S
C379 C378 1.391 . S
H380 C388 0.950 . S
H381 C393 0.950 . S
H382 C390 0.950 . S
H383 C392 0.950 . S
H384 C394 0.950 1_556 S
H385 C396 0.950 1_556 S
H386 C398 0.950 . S
H387 C399 0.950 . S
C388 H380 0.950 . S
C388 C389 1.386 . S
C388 C390 1.391 . S
C389 C388 1.386 . S
C389 C393 1.393 1_554 S
C390 H382 0.950 . S
C390 C388 1.391 . S
C390 C391 1.400 . S
C391 C390 1.400 . S
C391 C392 1.398 1_554 S
C391 C397 1.491 . S
C392 H383 0.950 . S
C392 C391 1.398 1_556 S
C392 C393 1.391 . S
C393 H381 0.950 . S
C393 C389 1.393 1_556 S
C393 C392 1.391 . S
C394 H384 0.950 1_554 S
C394 C395 1.386 . S
C394 C396 1.391 . S
C395 C394 1.386 . S
C395 C399 1.393 . S
C396 H385 0.950 1_554 S
C396 C394 1.391 . S
C396 C397 1.400 . S
C397 C391 1.491 . S
C397 C396 1.400 . S
C397 C398 1.398 . S
C398 H386 0.950 . S
C398 C397 1.398 . S
C398 C399 1.391 . S
C399 H387 0.950 . S
C399 C395 1.393 . S
C399 C398 1.391 . S
H400 C408 0.950 . S
H401 C413 0.950 . S
H402 C410 0.950 . S
H403 C412 0.950 . S
H404 C414 0.950 . S
H405 C416 0.950 . S
H406 C418 0.950 . S
H407 C419 0.950 1_554 S
C408 H400 0.950 . S
C408 C409 1.386 . S
C408 C410 1.391 . S
C409 C408 1.386 . S
C409 C413 1.393 . S
C410 H402 0.950 . S
C410 C408 1.391 . S
C410 C411 1.400 . S
C411 C410 1.400 . S
C411 C412 1.398 . S
C411 C417 1.491 . S
C412 H403 0.950 . S
C412 C411 1.398 . S
C412 C413 1.391 . S
C413 H401 0.950 . S
C413 C409 1.393 . S
C413 C412 1.391 . S
C414 H404 0.950 . S
C414 C415 1.386 . S
C414 C416 1.391 . S
C415 C414 1.386 . S
C415 C419 1.393 . S
C416 H405 0.950 . S
C416 C414 1.391 . S
C416 C417 1.400 . S
C417 C411 1.491 . S
C417 C416 1.400 . S
C417 C418 1.398 . S
C418 H406 0.950 . S
C418 C417 1.398 . S
C418 C419 1.391 . S
C419 H407 0.950 1_556 S
C419 C415 1.393 . S
C419 C418 1.391 . S
H420 C428 0.950 . S
H421 C433 0.950 . S
H422 C430 0.950 . S
H423 C432 0.950 . S
H424 C434 0.950 . S
H425 C436 0.950 . S
H426 C438 0.950 . S
H427 C439 0.950 . S
C428 H420 0.950 . S
C428 C429 1.386 . S
C428 C430 1.391 . S
C429 C428 1.386 . S
C429 C433 1.393 . S
C430 H422 0.950 . S
C430 C428 1.391 . S
C430 C431 1.400 . S
C431 C430 1.400 . S
C431 C432 1.398 . S
C431 C437 1.491 . S
C432 H423 0.950 . S
C432 C431 1.398 . S
C432 C433 1.391 . S
C433 H421 0.950 . S
C433 C429 1.393 . S
C433 C432 1.391 . S
C434 H424 0.950 . S
C434 C435 1.386 . S
C434 C436 1.391 . S
C435 C434 1.386 . S
C435 C439 1.393 . S
C436 H425 0.950 . S
C436 C434 1.391 . S
C436 C437 1.400 . S
C437 C431 1.491 . S
C437 C436 1.400 . S
C437 C438 1.398 . S
C438 H426 0.950 . S
C438 C437 1.398 . S
C438 C439 1.391 . S
C439 H427 0.950 . S
C439 C435 1.393 . S
C439 C438 1.391 . S
H440 C448 0.950 1_554 S
H441 C453 0.950 . S
H442 C450 0.950 1_554 S
H443 C452 0.950 . S
H444 C454 0.950 . S
H445 C456 0.950 . S
H446 C458 0.950 . S
H447 C459 0.950 . S
C448 H440 0.950 1_556 S
C448 C449 1.386 . S
C448 C450 1.391 . S
C449 C448 1.386 . S
C449 C453 1.393 . S
C450 H442 0.950 1_556 S
C450 C448 1.391 . S
C450 C451 1.400 . S
C451 C450 1.400 . S
C451 C452 1.398 . S
C451 C457 1.491 . S
C452 H443 0.950 . S
C452 C451 1.398 . S
C452 C453 1.391 . S
C453 H441 0.950 . S
C453 C449 1.393 . S
C453 C452 1.391 . S
C454 H444 0.950 . S
C454 C455 1.386 . S
C454 C456 1.391 . S
C455 C454 1.386 . S
C455 C459 1.393 1_556 S
C456 H445 0.950 . S
C456 C454 1.391 . S
C456 C457 1.400 . S
C457 C451 1.491 . S
C457 C456 1.400 . S
C457 C458 1.398 1_556 S
C458 H446 0.950 . S
C458 C457 1.398 1_554 S
C458 C459 1.391 . S
C459 H447 0.950 . S
C459 C455 1.393 1_554 S
C459 C458 1.391 . S
H460 C468 0.950 . S
H461 C473 0.950 . S
H462 C470 0.950 . S
H463 C472 0.950 1_556 S
H464 C474 0.950 . S
H465 C476 0.950 1_556 S
H466 C478 0.950 . S
H467 C479 0.950 . S
C468 H460 0.950 . S
C468 C469 1.386 . S
C468 C470 1.391 . S
C469 C468 1.386 . S
C469 C473 1.393 1_554 S
C470 H462 0.950 . S
C470 C468 1.391 . S
C470 C471 1.400 . S
C471 C470 1.400 . S
C471 C472 1.398 . S
C471 C477 1.491 . S
C472 H463 0.950 1_554 S
C472 C471 1.398 . S
C472 C473 1.391 1_554 S
C473 H461 0.950 . S
C473 C469 1.393 1_556 S
C473 C472 1.391 1_556 S
C474 H464 0.950 . S
C474 C475 1.386 . S
C474 C476 1.391 . S
C475 C474 1.386 . S
C475 C479 1.393 . S
C476 H465 0.950 1_554 S
C476 C474 1.391 . S
C476 C477 1.400 . S
C477 C471 1.491 . S
C477 C476 1.400 . S
C477 C478 1.398 . S
C478 H466 0.950 . S
C478 C477 1.398 . S
C478 C479 1.391 . S
C479 H467 0.950 . S
C479 C475 1.393 . S
C479 C478 1.391 . S
H480 C488 0.950 . S
H481 C493 0.950 . S
H482 C490 0.950 . S
H483 C492 0.950 . S
H484 C494 0.950 . S
H485 C496 0.950 . S
H486 C498 0.950 . S
H487 C499 0.950 . S
C488 H480 0.950 . S
C488 C489 1.386 . S
C488 C490 1.391 . S
C489 C488 1.386 . S
C489 C493 1.393 . S
C490 H482 0.950 . S
C490 C488 1.391 . S
C490 C491 1.400 . S
C491 C490 1.400 . S
C491 C492 1.398 . S
C491 C497 1.491 . S
C492 H483 0.950 . S
C492 C491 1.398 . S
C492 C493 1.391 . S
C493 H481 0.950 . S
C493 C489 1.393 . S
C493 C492 1.391 . S
C494 H484 0.950 . S
C494 C495 1.386 . S
C494 C496 1.391 . S
C495 C494 1.386 . S
C495 C499 1.393 . S
C496 H485 0.950 . S
C496 C494 1.391 . S
C496 C497 1.400 . S
C497 C491 1.491 . S
C497 C496 1.400 . S
C497 C498 1.398 . S
C498 H486 0.950 . S
C498 C497 1.398 . S
C498 C499 1.391 . S
C499 H487 0.950 . S
C499 C495 1.393 . S
C499 C498 1.391 . S
H500 C508 0.950 . S
H501 C513 0.950 . S
H502 C510 0.950 . S
H503 C512 0.950 . S
H504 C514 0.950 . S
H505 C516 0.950 . S
H506 C518 0.950 . S
H507 C519 0.950 . S
C508 H500 0.950 . S
C508 C509 1.386 . S
C508 C510 1.391 . S
C509 C508 1.386 . S
C509 C513 1.393 . S
C510 H502 0.950 . S
C510 C508 1.391 . S
C510 C511 1.400 . S
C511 C510 1.400 . S
C511 C512 1.398 . S
C511 C517 1.491 . S
C512 H503 0.950 . S
C512 C511 1.398 . S
C512 C513 1.391 . S
C513 H501 0.950 . S
C513 C509 1.393 . S
C513 C512 1.391 . S
C514 H504 0.950 . S
C514 C515 1.386 . S
C514 C516 1.391 . S
C515 C514 1.386 . S
C515 C519 1.393 . S
C516 H505 0.950 . S
C516 C514 1.391 . S
C516 C517 1.400 . S
C517 C511 1.491 . S
C517 C516 1.400 . S
C517 C518 1.398 . S
C518 H506 0.950 . S
C518 C517 1.398 . S
C518 C519 1.391 . S
C519 H507 0.950 . S
C519 C515 1.393 . S
C519 C518 1.391 . S
H520 C528 0.950 . S
H521 C533 0.950 . S
H522 C530 0.950 . S
H523 C532 0.950 . S
H524 C534 0.950 . S
H525 C536 0.950 . S
H526 C538 0.950 . S
H527 C539 0.950 . S
C528 H520 0.950 . S
C528 C529 1.386 . S
C528 C530 1.391 . S
C529 C528 1.386 . S
C529 C533 1.393 . S
C530 H522 0.950 . S
C530 C528 1.391 . S
C530 C531 1.400 . S
C531 C530 1.400 . S
C531 C532 1.398 . S
C531 C537 1.491 . S
C532 H523 0.950 . S
C532 C531 1.398 . S
C532 C533 1.391 . S
C533 H521 0.950 . S
C533 C529 1.393 . S
C533 C532 1.391 . S
C534 H524 0.950 . S
C534 C535 1.386 . S
C534 C536 1.391 . S
C535 C534 1.386 . S
C535 C539 1.393 . S
C536 H525 0.950 . S
C536 C534 1.391 . S
C536 C537 1.400 . S
C537 C531 1.491 . S
C537 C536 1.400 . S
C537 C538 1.398 . S
C538 H526 0.950 . S
C538 C537 1.398 . S
C538 C539 1.391 . S
C539 H527 0.950 . S
C539 C535 1.393 . S
C539 C538 1.391 . S
H540 C548 0.950 . S
H541 C553 0.950 . S
H542 C550 0.950 . S
H543 C552 0.950 . S
H544 C554 0.950 . S
H545 C556 0.950 . S
H546 C558 0.950 . S
H547 C559 0.950 . S
C548 H540 0.950 . S
C548 C549 1.386 . S
C548 C550 1.391 . S
C549 C548 1.386 . S
C549 C553 1.393 . S
C550 H542 0.950 . S
C550 C548 1.391 . S
C550 C551 1.400 . S
C551 C550 1.400 . S
C551 C552 1.398 . S
C551 C557 1.491 . S
C552 H543 0.950 . S
C552 C551 1.398 . S
C552 C553 1.391 . S
C553 H541 0.950 . S
C553 C549 1.393 . S
C553 C552 1.391 . S
C554 H544 0.950 . S
C554 C555 1.386 . S
C554 C556 1.391 . S
C555 C554 1.386 . S
C555 C559 1.393 . S
C556 H545 0.950 . S
C556 C554 1.391 . S
C556 C557 1.400 . S
C557 C551 1.491 . S
C557 C556 1.400 . S
C557 C558 1.398 . S
C558 H546 0.950 . S
C558 C557 1.398 . S
C558 C559 1.391 . S
C559 H547 0.950 . S
C559 C555 1.393 . S
C559 C558 1.391 . S
H560 C568 0.950 . S
H561 C573 0.950 . S
H562 C570 0.950 . S
H563 C572 0.950 . S
H564 C574 0.950 . S
H565 C576 0.950 . S
H566 C578 0.950 . S
H567 C579 0.950 . S
C568 H560 0.950 . S
C568 C569 1.386 . S
C568 C570 1.391 . S
C569 C568 1.386 . S
C569 C573 1.393 . S
C570 H562 0.950 . S
C570 C568 1.391 . S
C570 C571 1.400 . S
C571 C570 1.400 . S
C571 C572 1.398 . S
C571 C577 1.491 . S
C572 H563 0.950 . S
C572 C571 1.398 . S
C572 C573 1.391 . S
C573 H561 0.950 . S
C573 C569 1.393 . S
C573 C572 1.391 . S
C574 H564 0.950 . S
C574 C575 1.386 . S
C574 C576 1.391 . S
C575 C574 1.386 . S
C575 C579 1.393 . S
C576 H565 0.950 . S
C576 C574 1.391 . S
C576 C577 1.400 . S
C577 C571 1.491 . S
C577 C576 1.400 . S
C577 C578 1.398 . S
C578 H566 0.950 . S
C578 C577 1.398 . S
C578 C579 1.391 . S
C579 H567 0.950 . S
C579 C575 1.393 . S
C579 C578 1.391 . S
H580 C588 0.950 . S
H581 C593 0.950 . S
H582 C590 0.950 . S
H583 C592 0.950 . S
H584 C594 0.950 . S
H585 C596 0.950 . S
H586 C598 0.950 . S
H587 C599 0.950 . S
C588 H580 0.950 . S
C588 C589 1.386 . S
C588 C590 1.391 . S
C589 C588 1.386 . S
C589 C593 1.393 . S
C590 H582 0.950 . S
C590 C588 1.391 . S
C590 C591 1.400 . S
C591 C590 1.400 . S
C591 C592 1.398 . S
C591 C597 1.491 . S
C592 H583 0.950 . S
C592 C591 1.398 . S
C592 C593 1.391 . S
C593 H581 0.950 . S
C593 C589 1.393 . S
C593 C592 1.391 . S
C594 H584 0.950 . S
C594 C595 1.386 . S
C594 C596 1.391 . S
C595 C594 1.386 . S
C595 C599 1.393 . S
C596 H585 0.950 . S
C596 C594 1.391 . S
C596 C597 1.400 . S
C597 C591 1.491 . S
C597 C596 1.400 . S
C597 C598 1.398 . S
C598 H586 0.950 . S
C598 C597 1.398 . S
C598 C599 1.391 . S
C599 H587 0.950 . S
C599 C595 1.393 . S
C599 C598 1.391 . S
C249 C202 3.100 . S
C255 C7 2.933 . S
C269 C2 3.303 . S
C275 C56 3.034 1_455 S
C289 C51 3.113 . S
C295 C96 2.931 . S
C309 C136 2.950 . S
C315 C91 3.105 . S
C329 C167 3.045 1_655 S
C335 C131 3.290 . S
C349 C162 3.114 . S
C355 C207 2.930 . S
C369 C171 2.263 . S
C375 C16 2.252 . S
C389 C211 2.096 . S
C395 C47 2.085 . S
C409 C87 2.103 . S
C415 C11 2.146 . S
C429 C127 2.255 . S
C435 C42 2.260 . S
C449 C176 2.085 . S
C455 C82 2.096 . S
C469 C122 2.145 . S
C475 C216 2.106 . S
C489 C10 0.396 . S
C495 C19 0.396 . S
C509 C50 0.256 . S
C515 C59 0.256 . S
C529 C90 0.508 . S
C535 C99 0.508 . S
C549 C130 0.467 . S
C555 C139 0.467 . S
C569 C179 0.254 . S
C575 C170 0.254 . S
C589 C210 0.428 . S
C595 C219 0.428 . S
