# Generated by pormake.
# Topology sxb, (6)-cn, num edge types: 1
# Building blocks:
#     Node 0, Type 0, BuildingBlock: BETGAK_clean_sbu_0, # of connection points: 6
#     Node 1, Type 0, BuildingBlock: BETGAK_clean_sbu_0, # of connection points: 6
#     Node 2, Type 0, BuildingBlock: BETGAK_clean_sbu_0, # of connection points: 6
#     Node 3, Type 0, BuildingBlock: BETGAK_clean_sbu_0, # of connection points: 6
#     Edge 4, Type (0, 0), BuildingBlock: FUNLAD_clean_linker_0, # of connection points: 2
#     Edge 5, Type (0, 0), BuildingBlock: FUNLAD_clean_linker_0, # of connection points: 2
#     Edge 6, Type (0, 0), BuildingBlock: FUNLAD_clean_linker_0, # of connection points: 2
#     Edge 7, Type (0, 0), BuildingBlock: FUNLAD_clean_linker_0, # of connection points: 2
#     Edge 8, Type (0, 0), BuildingBlock: FUNLAD_clean_linker_0, # of connection points: 2
#     Edge 9, Type (0, 0), BuildingBlock: FUNLAD_clean_linker_0, # of connection points: 2
#     Edge 10, Type (0, 0), BuildingBlock: FUNLAD_clean_linker_0, # of connection points: 2
#     Edge 11, Type (0, 0), BuildingBlock: FUNLAD_clean_linker_0, # of connection points: 2
#     Edge 12, Type (0, 0), BuildingBlock: FUNLAD_clean_linker_0, # of connection points: 2
#     Edge 13, Type (0, 0), BuildingBlock: FUNLAD_clean_linker_0, # of connection points: 2
#     Edge 14, Type (0, 0), BuildingBlock: FUNLAD_clean_linker_0, # of connection points: 2
#     Edge 15, Type (0, 0), BuildingBlock: FUNLAD_clean_linker_0, # of connection points: 2
# Relax obj value: 0.342
# Max RMSD: 0.114
# Mean RMSD: 0.076
data_MOF--net-sxb--node1-BETGAK_clean_sbu_0--edge1-FUNLAD_clean_linker_0
_symmetry_space_group_name_H-M    P1
_symmetry_Int_Tables_number       1
_symmetry_cell_setting            triclinic
loop_
_symmetry_equiv_pos_as_xyz
'x, y, z'
_cell_length_a     18.719048
_cell_length_b     39.781101
_cell_length_c     34.409916
_cell_angle_alpha  93.734174
_cell_angle_beta   92.736856
_cell_angle_gamma 66.61277
loop_
_atom_site_label
_atom_site_type_symbol
_atom_site_fract_x
_atom_site_fract_y
_atom_site_fract_z
_atom_type_partial_charge
La0 La 1.03338 1.0617 0.98404 0.0
La1 La 0.17704 0.07052 0.98386 0.0
C2 C 0.90324 1.06362 1.00201 0.0
C3 C 0.84781 0.08778 0.03059 0.0
C4 C 0.77445 0.08671 0.03361 0.0
C5 C 0.72521 0.10726 0.06347 0.0
C6 C 0.74959 0.12856 0.09089 0.0
C7 C 0.822 0.13046 0.08706 0.0
C8 C 0.87028 0.11063 0.05674 0.0
C9 C 1.09064 1.0516 0.91247 0.0
C10 C 1.02303 0.14307 0.98264 0.0
C11 C 0.29393 0.08673 0.98124 0.0
C12 C 0.35372 0.08512 0.01115 0.0
C13 C 0.37382 1.05932 0.04008 0.0
C14 C 0.40831 1.06535 0.07536 0.0
C15 C 0.42256 0.09737 0.08215 0.0
C16 C 0.40875 0.12137 0.05183 0.0
C17 C 0.37468 0.11525 0.0166 0.0
C18 C 0.14333 1.05679 0.05462 0.0
C19 C 0.18624 0.99052 0.97845 0.0
O20 O 0.91321 0.07953 0.97184 0.0
O21 O 0.9695 1.04153 0.01714 0.0
O22 O 1.0524 1.0341 0.92566 0.0
O23 O 1.09227 0.07516 0.93844 0.0
O24 O 0.98638 0.12197 0.99008 0.0
O25 O 1.09815 0.12804 0.97531 0.0
O26 O 0.22482 0.10988 0.99114 0.0
O27 O 0.29269 1.05586 0.96621 0.0
O28 O 0.21103 1.04484 0.03982 0.0
O29 O 1.09656 0.07749 0.03033 0.0
O30 O 0.21633 1.01219 0.96443 0.0
O31 O 0.11683 1.00542 0.99432 0.0
H32 H 0.7562 0.0693 0.0136 0.0
H33 H 0.66957 0.1053 0.0662 0.0
H34 H 0.84168 0.14676 0.1079 0.0
H35 H 0.92638 0.11216 0.05453 0.0
H36 H 0.35789 1.03593 0.03661 0.0
H37 H 0.41875 1.04635 0.09821 0.0
H38 H 0.42074 0.14587 0.05609 0.0
H39 H 0.35895 0.13566 0.99484 0.0
La40 La 0.13522 1.01017 0.48309 0.0
La41 La 1.06909 0.09352 0.47561 0.0
C42 C 0.20777 0.9448 0.50132 0.0
C43 C 0.19554 0.91042 0.49648 0.0
C44 C 0.24493 0.88134 0.47248 0.0
C45 C 0.22998 0.8498 0.4648 0.0
C46 C 0.16602 0.84673 0.48149 0.0
C47 C 0.11886 0.87516 0.50692 0.0
C48 C 0.13336 0.90671 0.51432 0.0
C49 C 1.08975 1.03283 0.41191 0.0
C50 C 0.95006 1.05232 0.48097 0.0
C51 C 1.02378 0.1552 0.44709 0.0
C52 C 1.06054 0.18149 0.45175 0.0
C53 C 0.11235 0.17883 0.48335 0.0
C54 C 0.15865 0.19887 0.48492 0.0
C55 C 0.15419 0.22182 0.45483 0.0
C56 C 1.0999 0.22572 0.42397 0.0
C57 C 1.05353 0.20541 0.42233 0.0
C58 C 1.09032 0.07774 0.55094 0.0
C59 C 0.25448 1.05299 0.48389 0.0
O60 O 0.21933 0.9577 0.46923 0.0
O61 O 0.16102 0.9707 0.52474 0.0
O62 O 1.08465 1.00422 0.42551 0.0
O63 O 0.1231 1.04619 0.43748 0.0
O64 O 1.01006 1.02228 0.49214 0.0
O65 O 0.96243 0.08093 0.46909 0.0
O66 O 0.99513 0.14938 0.47874 0.0
O67 O 1.06579 0.12461 0.42817 0.0
O68 O 1.06666 0.11055 0.53849 0.0
O69 O 1.10264 1.05662 0.52094 0.0
O70 O 0.19419 0.08466 0.47845 0.0
O71 O 0.24293 1.02227 0.48784 0.0
H72 H 0.29375 0.88348 0.45875 0.0
H73 H 0.26727 0.8282 0.4452 0.0
H74 H 1.0683 0.87383 0.51968 0.0
H75 H 1.09432 0.92857 0.53305 0.0
H76 H 0.11931 0.16013 0.50612 0.0
H77 H 0.19917 0.19585 0.50931 0.0
H78 H 1.0957 0.24322 0.40039 0.0
H79 H 1.01465 0.20725 0.39746 0.0
La80 La 0.53031 0.56377 0.98431 0.0
La81 La 0.67245 0.57192 0.9857 0.0
C82 C 0.41773 0.54925 1.00343 0.0
C83 C 0.36658 0.56121 0.03704 0.0
C84 C 0.34416 0.53582 0.05366 0.0
C85 C 0.30621 0.54455 0.08912 0.0
C86 C 0.29055 0.57879 0.10878 0.0
C87 C 0.31085 0.60467 0.09136 0.0
C88 C 0.34848 0.59597 0.05572 0.0
C89 C 0.56509 0.57346 0.91291 0.0
C90 C 0.51939 0.64292 0.98527 0.0
C91 C 0.78879 0.5887 0.98651 0.0
C92 C 0.8496 0.58169 0.01729 0.0
C93 C 0.87289 0.6099 0.03068 0.0
C94 C 0.91358 0.60759 0.06624 0.0
C95 C 0.93098 0.57716 0.08922 0.0
C96 C 0.91192 0.5479 0.07443 0.0
C97 C 0.8718 0.55012 0.03879 0.0
C98 C 0.63237 0.56141 0.05622 0.0
C99 C 0.68833 0.49089 0.97815 0.0
O100 O 0.41114 0.57397 0.97872 0.0
O101 O 0.49038 0.52947 0.0122 0.0
O102 O 0.4959 0.58434 0.92635 0.0
O103 O 0.61332 0.55469 0.9382 0.0
O104 O 0.49014 0.62227 1.00179 0.0
O105 O 0.58796 0.6265 0.96888 0.0
O106 O 0.72008 0.61123 0.99785 0.0
O107 O 0.78566 0.56016 0.96661 0.0
O108 O 0.7016 0.54796 0.04297 0.0
O109 O 0.58817 0.58149 0.03083 0.0
O110 O 0.72477 0.51262 0.97301 0.0
O111 O 0.61271 0.50537 0.98484 0.0
H112 H 0.35809 0.5088 0.03976 0.0
H113 H 0.28958 0.52433 0.10126 0.0
H114 H 0.29998 0.63118 0.10583 0.0
H115 H 0.36649 0.61578 0.04368 0.0
H116 H 0.8557 0.63464 0.01476 0.0
H117 H 0.92907 0.63023 0.07635 0.0
H118 H 0.92398 0.52415 0.09135 0.0
H119 H 0.85398 0.52805 0.02931 0.0
La120 La 0.61911 0.54034 0.49261 0.0
La121 La 0.54953 0.62312 0.48023 0.0
C122 C 0.65806 0.4806 0.5243 0.0
C123 C 0.62678 0.45252 0.51637 0.0
C124 C 0.57964 0.45467 0.48295 0.0
C125 C 0.53851 0.43231 0.4777 0.0
C126 C 0.54349 0.40753 0.50591 0.0
C127 C 0.5936 0.40408 0.53855 0.0
C128 C 0.63483 0.42673 0.54388 0.0
C129 C 0.59685 0.55278 0.4164 0.0
C130 C 0.43041 0.58331 0.4818 0.0
C131 C 0.51403 0.68547 0.45441 0.0
C132 C 0.56045 0.70299 0.43802 0.0
C133 C 0.53679 0.74106 0.4427 0.0
C134 C 0.58864 0.75714 0.43551 0.0
C135 C 0.66503 0.73518 0.424 0.0
C136 C 0.68596 0.6974 0.41621 0.0
C137 C 0.63403 0.68145 0.42317 0.0
C138 C 0.55013 0.60395 0.55246 0.0
C139 C 0.73914 0.57945 0.48677 0.0
O140 O 0.69661 0.48538 0.49574 0.0
O141 O 0.60725 0.51167 0.53908 0.0
O142 O 0.62385 0.52045 0.43027 0.0
O143 O 0.58317 0.57483 0.44552 0.0
O144 O 0.4907 0.55344 0.49319 0.0
O145 O 0.44166 0.61265 0.47169 0.0
O146 O 0.52963 0.67844 0.49125 0.0
O147 O 0.5084 0.65779 0.43358 0.0
O148 O 0.49578 0.63197 0.53705 0.0
O149 O 0.60344 0.58886 0.52805 0.0
O150 O 0.67789 0.61004 0.47798 0.0
O151 O 0.72865 0.54972 0.49617 0.0
H152 H 0.57199 0.47477 0.46164 0.0
H153 H 0.50101 0.43511 0.45208 0.0
H154 H 0.59797 0.3852 0.56073 0.0
H155 H 0.6703 0.42515 0.57006 0.0
H156 H 0.48005 0.75804 0.45412 0.0
H157 H 0.57047 0.78643 0.44109 0.0
H158 H 0.74445 0.67963 0.4077 0.0
H159 H 0.65343 0.65199 0.41939 0.0
C160 C 0.50615 0.70668 0.96807 0.0
C161 C 0.47573 0.68405 0.98529 0.0
C162 C 0.46496 0.74521 0.96839 0.0
C163 C 0.39162 0.7625 0.98602 0.0
C164 C 0.36165 0.73965 1.00311 0.0
C165 C 0.40269 0.70131 1.00278 0.0
C166 C 0.34373 0.80369 0.98763 0.0
C167 C 0.36398 0.82972 0.97312 0.0
C168 C 0.31574 0.87091 0.97503 0.0
C169 C 0.34647 0.89433 0.95973 0.0
C170 C 0.30488 0.93272 0.96065 0.0
C171 C 0.23052 0.94936 0.97692 0.0
H172 H 0.21367 0.87143 1.00333 0.0
C173 C 0.19933 0.92608 0.99214 0.0
C174 C 0.24096 0.88763 0.99124 0.0
H175 H 0.14236 0.93759 1.00496 0.0
H176 H 0.56214 0.69463 0.95428 0.0
H177 H 0.49126 0.76104 0.95473 0.0
H178 H 0.30569 0.75154 0.01697 0.0
H179 H 0.37684 0.68517 0.01639 0.0
H180 H 0.28848 0.81268 1.00197 0.0
H181 H 0.41947 0.82079 0.95899 0.0
H182 H 0.4035 0.88289 0.94695 0.0
H183 H 0.33138 0.94937 0.94862 0.0
C184 C 0.69596 0.42572 0.98283 0.0
C185 C 0.73281 0.44973 0.97677 0.0
C186 C 0.73819 0.38728 0.98246 0.0
C187 C 0.81922 0.37138 0.97604 0.0
C188 C 0.85556 0.39555 0.96982 0.0
C189 C 0.81344 0.43385 0.97021 0.0
C190 C 0.86865 0.33033 0.97534 0.0
C191 C 0.84354 0.30355 0.98253 0.0
C192 C 0.89281 0.26251 0.98207 0.0
C193 C 0.85699 0.23868 0.99053 0.0
C194 C 0.89885 0.20042 0.99067 0.0
C195 C 0.97872 0.18418 0.9823 0.0
H196 H 1.0041 0.26286 0.96695 0.0
C197 C 1.01506 0.20782 0.97383 0.0
C198 C 0.97303 0.24626 0.97368 0.0
H199 H 1.07644 0.1966 0.96725 0.0
H200 H 0.63404 0.43663 0.98805 0.0
H201 H 0.70655 0.37044 0.98721 0.0
H202 H 0.91751 0.38476 0.96472 0.0
H203 H 0.8445 0.45104 0.9655 0.0
H204 H 0.92943 0.32218 0.96869 0.0
H205 H 0.7829 0.31175 0.98947 0.0
H206 H 0.79566 0.24974 0.99717 0.0
H207 H 0.86826 0.18354 0.99743 0.0
C208 C 0.18093 0.27793 0.44851 0.0
C209 C 0.20829 0.2405 0.45544 0.0
C210 C 0.23155 0.29596 0.45212 0.0
C211 C 0.31032 0.27675 0.46278 0.0
C212 C 0.33831 0.23898 0.46767 0.0
C213 C 0.28767 0.22101 0.46428 0.0
C214 C 0.36455 0.29532 0.46944 0.0
C215 C 0.3409 0.33022 0.48355 0.0
C216 C 0.39431 0.34916 0.49071 0.0
C217 C 0.36427 0.38724 0.48767 0.0
C218 C 0.41288 0.40613 0.49304 0.0
C219 C 0.49234 0.38729 0.50207 0.0
H220 H 0.49791 0.30115 0.50488 0.0
C221 C 0.52211 0.34938 0.50665 0.0
C222 C 0.47347 0.33037 0.50095 0.0
H223 H 0.58313 0.3344 0.51388 0.0
H224 H 0.12007 0.29343 0.44137 0.0
H225 H 0.20875 0.32488 0.44667 0.0
H226 H 0.39899 0.22353 0.47526 0.0
H227 H 0.31044 0.19189 0.46893 0.0
H228 H 0.42573 0.27929 0.46394 0.0
H229 H 0.2797 0.34608 0.4892 0.0
H230 H 0.30328 0.40235 0.48039 0.0
H231 H 0.3883 0.43554 0.49012 0.0
C232 C 0.11361 0.80067 0.49706 0.0
C233 C 0.14207 0.81636 0.46939 0.0
C234 C 1.0709 0.77994 0.48506 0.0
C235 C 1.05609 0.77466 0.44521 0.0
C236 C 1.09252 0.7864 0.41756 0.0
C237 C 0.13511 0.80734 0.42958 0.0
C238 C 0.99393 0.76216 0.43255 0.0
C239 C 0.92414 0.77779 0.44945 0.0
C240 C 0.85569 0.7689 0.43921 0.0
C241 C 0.79269 0.78281 0.46443 0.0
C242 C 0.72881 0.77345 0.45816 0.0
C243 C 0.72608 0.75011 0.42623 0.0
H244 H 0.89757 0.73656 0.38523 0.0
C245 C 0.78713 0.73773 0.39969 0.0
C246 C 0.85146 0.74702 0.40607 0.0
H247 H 0.78605 0.72009 0.37452 0.0
H248 H 0.11979 0.80654 0.52794 0.0
H249 H 1.04495 0.77017 0.50689 0.0
H250 H 1.08228 0.78223 0.38671 0.0
H251 H 0.1566 0.81907 0.40764 0.0
H252 H 1.00414 0.74262 0.40786 0.0
H253 H 0.9167 0.79849 0.47296 0.0
H254 H 0.794 0.79998 0.49001 0.0
H255 H 0.68353 0.78301 0.47957 0.0
C256 C 0.40574 0.14313 0.13778 0.0
C257 C 0.44557 0.10753 0.12149 0.0
C258 C 0.43039 0.15415 0.17341 0.0
C259 C 0.49618 0.1299 0.19324 0.0
C260 C 0.53269 0.09351 0.17827 0.0
C261 C 0.50748 0.08238 0.14268 0.0
C262 C 0.53472 0.14371 0.22553 0.0
C263 C 0.54737 0.17395 0.21966 0.0
C264 C 0.60439 0.16978 0.18947 0.0
C265 C 0.57703 0.18372 0.15268 0.0
C266 C 0.62534 0.17145 0.12061 0.0
C267 C 0.70225 0.14604 0.12521 0.0
H268 H 0.70471 0.13478 0.2225 0.0
C269 C 0.73164 0.13455 0.16255 0.0
C270 C 0.68273 0.14604 0.19445 0.0
H271 H 0.79091 0.11482 0.16656 0.0
H272 H 0.35636 0.16276 0.12252 0.0
H273 H 0.40026 0.18218 0.18447 0.0
H274 H 0.58365 0.07428 0.19289 0.0
H275 H 0.53866 1.05469 0.13088 0.0
H276 H 0.58255 0.12204 0.23969 0.0
H277 H 0.49546 0.19913 0.21773 0.0
H278 H 0.51653 0.20172 0.14811 0.0
H279 H 0.60184 0.18062 0.092 0.0
C280 C 0.35682 0.08192 0.4792 0.0
C281 C 0.33862 1.05118 0.48502 0.0
C282 C 0.4354 0.07933 0.47959 0.0
C283 C 0.49986 1.04579 0.48591 0.0
C284 C 0.48103 1.01538 0.49184 0.0
C285 C 0.4031 1.01793 0.49135 0.0
C286 C 0.58677 1.04038 0.48701 0.0
C287 C 0.61733 1.06564 0.47987 0.0
C288 C 0.70433 1.06008 0.48062 0.0
C289 C 0.72386 0.08921 0.47025 0.0
C290 C 0.8019 0.08648 0.47036 0.0
C291 C 0.86578 1.0544 0.48102 0.0
H292 H 0.75794 1.00433 0.49971 0.0
C293 C 0.84683 1.02502 0.49152 0.0
C294 C 0.76816 1.02773 0.4913 0.0
H295 H 0.89304 0.99966 0.49998 0.0
H296 H 0.31009 0.10823 0.47416 0.0
H297 H 0.44503 0.10383 0.47499 0.0
H298 H 0.52743 0.98897 0.49688 0.0
H299 H 0.39362 0.99336 0.49595 0.0
H300 H 0.62814 1.0132 0.49391 0.0
H301 H 0.57604 0.09269 0.47248 0.0
H302 H 0.67797 0.11471 0.46184 0.0
H303 H 0.81194 0.11 0.46204 0.0
C304 C 1.02058 0.54441 0.14397 0.0
C305 C 0.96471 0.57687 0.12929 0.0
C306 C 1.05291 0.54453 0.18143 0.0
C307 C 1.03061 0.57715 0.20483 0.0
C308 C 0.97276 0.60928 0.1908 0.0
C309 C 0.94006 0.60913 0.15349 0.0
C310 C 1.07533 0.57845 0.24137 0.0
C311 C 0.10753 0.60328 0.2446 0.0
C312 C 0.16566 0.59984 0.21513 0.0
C313 C 0.15023 0.62809 0.18949 0.0
C314 C 0.19299 0.62182 0.15565 0.0
C315 C 0.25241 0.58729 0.1471 0.0
H316 H 0.24227 0.54418 0.22768 0.0
C317 C 0.27197 0.56011 0.17451 0.0
C318 C 0.22886 0.56628 0.20815 0.0
H319 H 0.31894 0.53357 0.1693 0.0
H320 H 1.04115 0.51912 0.12611 0.0
H321 H 1.09812 0.51948 0.19138 0.0
H322 H 0.95426 0.63478 0.20831 0.0
H323 H 0.89558 0.63438 0.14357 0.0
H324 H 0.11217 0.55149 0.25135 0.0
H325 H 1.06703 0.63137 0.25086 0.0
H326 H 1.10139 0.65411 0.1941 0.0
H327 H 0.17641 0.64332 0.13514 0.0
C328 C 0.32886 0.5548 0.49111 0.0
C329 C 0.34672 0.58459 0.48092 0.0
C330 C 0.25061 0.55694 0.49069 0.0
C331 C 0.18617 0.58909 0.48008 0.0
C332 C 0.20465 0.61858 0.46988 0.0
C333 C 0.28226 0.61644 0.47026 0.0
C334 C 1.09956 0.59402 0.47905 0.0
C335 C 1.06981 0.56884 0.48766 0.0
C336 C 0.98326 0.5737 0.48671 0.0
C337 C 0.96519 0.54391 0.49627 0.0
C338 C 0.88767 0.546 0.49623 0.0
C339 C 0.82282 0.57811 0.48662 0.0
H340 H 0.92754 0.63 0.46936 0.0
C341 C 0.84026 0.60817 0.47698 0.0
C342 C 0.91847 0.60607 0.47699 0.0
H343 H 0.79324 0.63358 0.46936 0.0
H344 H 0.37558 0.52959 0.49957 0.0
H345 H 0.24124 0.53324 0.49884 0.0
H346 H 0.15824 0.64392 0.46148 0.0
H347 H 0.2915 0.64024 0.4622 0.0
H348 H 1.05785 0.62057 0.47047 0.0
H349 H 0.11156 0.54227 0.49615 0.0
H350 H 1.01187 0.51839 0.50397 0.0
H351 H 0.87878 0.52198 0.50387 0.0
C352 C 0.11543 1.06185 0.35365 0.0
C353 C 1.08044 1.04061 0.36966 0.0
C354 C 0.11103 1.06657 0.31327 0.0
C355 C 1.07144 1.0501 0.28778 0.0
C356 C 1.03454 1.02988 0.30417 0.0
C357 C 1.03944 1.02497 0.34441 0.0
C358 C 1.06708 1.05317 0.24423 0.0
C359 C 0.11973 1.05994 0.22389 0.0
C360 C 0.12138 1.0597 0.18017 0.0
C361 C 0.19174 1.05493 0.16314 0.0
C362 C 0.19785 1.05414 0.12269 0.0
C363 C 0.13333 1.05878 0.09765 0.0
H364 H 1.0005 0.06878 0.16691 0.0
C365 C 1.06229 1.06405 0.11437 0.0
C366 C 1.05624 1.06446 0.15519 0.0
H367 H 1.01202 1.06699 0.09595 0.0
H368 H 0.14781 0.07415 0.37221 0.0
H369 H 0.13859 0.08322 0.3023 0.0
H370 H 1.00302 1.01708 0.28565 0.0
H371 H 1.01163 1.00853 0.35573 0.0
H372 H 1.02202 1.04693 0.22831 0.0
H373 H 0.16805 1.06338 0.23981 0.0
H374 H 0.24297 1.05136 0.18126 0.0
H375 H 0.25362 1.05005 0.11101 0.0
C376 C 1.08157 1.03141 0.84197 0.0
C377 C 1.1022 1.05348 0.87014 0.0
C378 C 1.0874 1.03491 0.80193 0.0
C379 C 0.11461 1.06055 0.78891 0.0
C380 C 0.13652 0.08205 0.81734 0.0
C381 C 0.13055 0.07856 0.85729 0.0
C382 C 0.11799 1.06724 0.74651 0.0
C383 C 0.10742 1.04632 0.7158 0.0
C384 C 0.10739 1.05452 0.6736 0.0
C385 C 0.11273 1.02708 0.64442 0.0
C386 C 0.10903 1.03403 0.60463 0.0
C387 C 1.09967 0.06867 0.59281 0.0
H388 H 1.09162 0.11171 0.68245 0.0
C389 C 1.09447 0.09612 0.62183 0.0
C390 C 1.09819 0.08926 0.66156 0.0
H391 H 1.08631 0.12331 0.61381 0.0
H392 H 1.05932 1.01185 0.85086 0.0
H393 H 1.06875 1.01799 0.78159 0.0
H394 H 0.15758 0.1021 0.80862 0.0
H395 H 0.14699 0.096 0.87814 0.0
H396 H 0.13082 0.0907 0.74072 0.0
H397 H 1.09931 1.02156 0.72132 0.0
H398 H 0.11887 1.00016 0.65241 0.0
H399 H 0.11123 1.0126 0.58324 0.0
C400 C 0.58287 0.53486 0.34605 0.0
C401 C 0.59025 0.56059 0.3743 0.0
C402 C 0.58389 0.53999 0.30607 0.0
C403 C 0.59403 0.5707 0.2933 0.0
C404 C 0.60086 0.59653 0.32164 0.0
C405 C 0.59797 0.59178 0.36161 0.0
C406 C 0.60496 0.57468 0.25116 0.0
C407 C 0.57042 0.56261 0.22111 0.0
C408 C 0.58585 0.5646 0.17909 0.0
C409 C 0.52647 0.5693 0.15061 0.0
C410 C 0.54084 0.56926 0.11083 0.0
C411 C 0.61542 0.56337 0.09842 0.0
H412 H 0.708 0.55472 0.18748 0.0
C413 C 0.67502 0.55831 0.12681 0.0
C414 C 0.66031 0.55929 0.16662 0.0
H415 H 0.73333 0.55359 0.11825 0.0
H416 H 0.57757 0.51033 0.35492 0.0
H417 H 0.58016 0.51906 0.28532 0.0
H418 H 0.60965 0.62024 0.31284 0.0
H419 H 0.60542 0.61165 0.38255 0.0
H420 H 0.64188 0.58881 0.24477 0.0
H421 H 0.52769 0.55167 0.22735 0.0
H422 H 0.46874 0.573 0.15914 0.0
H423 H 0.4943 0.57279 0.08964 0.0
C424 C 0.6218 0.57418 0.61407 0.0
C425 C 0.55256 0.59577 0.59434 0.0
C426 C 0.62229 0.56946 0.65447 0.0
C427 C 0.55316 0.5859 0.67579 0.0
C428 C 0.48413 0.6065 0.65545 0.0
C429 C 0.48392 0.61159 0.6156 0.0
C430 C 0.54803 0.58253 0.71878 0.0
C431 C 0.60807 0.57254 0.7452 0.0
C432 C 0.59712 0.57309 0.78847 0.0
C433 C 0.65965 0.55211 0.81287 0.0
C434 C 0.65068 0.55228 0.85341 0.0
C435 C 0.57888 0.57362 0.87052 0.0
H436 H 0.47719 0.61316 0.78935 0.0
C437 C 0.51726 0.59526 0.84634 0.0
C438 C 0.52617 0.59521 0.80615 0.0
H439 H 0.46147 0.61252 0.85856 0.0
H440 H 0.67571 0.56158 0.59847 0.0
H441 H 0.67656 0.55282 0.66868 0.0
H442 H 0.42973 0.61938 0.67065 0.0
H443 H 0.4295 0.62823 0.6014 0.0
H444 H 0.48966 0.59002 0.72919 0.0
H445 H 0.66712 0.56391 0.73521 0.0
H446 H 0.71547 0.53519 0.8005 0.0
H447 H 0.6995 0.53542 0.8712 0.0
loop_
_geom_bond_atom_site_label_1
_geom_bond_atom_site_label_2
_geom_bond_distance
_geom_bond_site_symmetry_2
_ccdc_geom_bond_type
La0 C2 2.931 . S
La0 O20 2.521 . S
La0 O21 2.628 1_566 S
La0 O22 2.554 . S
La0 O23 2.757 1_655 S
La0 O24 2.470 1_565 S
La0 O29 2.482 1_566 S
La0 O31 2.503 1_655 S
La1 C11 2.928 . S
La1 O23 2.482 1_544 S
La1 O25 2.503 1_455 S
La1 O26 2.521 . S
La1 O27 2.628 1_544 S
La1 O28 2.554 . S
La1 O29 2.757 1_455 S
La1 O30 2.470 1_545 S
C2 La0 2.931 . S
C2 C3 1.501 1_565 S
C2 O20 1.274 . S
C2 O21 1.233 1_566 S
C3 C2 1.501 1_545 S
C3 C4 1.394 . S
C3 C8 1.373 1_556 S
C4 C3 1.394 . S
C4 C5 1.380 . S
C4 H32 0.930 1_545 S
C5 C4 1.380 . S
C5 C6 1.376 . S
C5 H33 0.930 . S
C6 C5 1.376 . S
C6 C7 1.370 1_556 S
C7 C6 1.370 1_554 S
C7 C8 1.396 . S
C7 H34 0.929 . S
C8 C3 1.373 1_554 S
C8 C7 1.396 . S
C8 H35 0.929 . S
C9 O22 1.240 . S
C9 O23 1.289 1_655 S
C10 O24 1.258 . S
C10 O25 1.256 1_556 S
C11 La1 2.928 . S
C11 C12 1.503 1_545 S
C11 O26 1.261 . S
C11 O27 1.243 1_544 S
C12 C11 1.503 1_565 S
C12 C13 1.394 . S
C12 C17 1.373 1_554 S
C13 C12 1.394 . S
C13 C14 1.380 . S
C13 H36 0.930 1_565 S
C14 C13 1.380 . S
C14 C15 1.376 . S
C14 H37 0.930 . S
C15 C14 1.376 . S
C15 C16 1.370 1_554 S
C16 C15 1.370 1_556 S
C16 C17 1.396 . S
C16 H38 0.929 . S
C17 C12 1.373 1_556 S
C17 C16 1.396 . S
C17 H39 0.929 . S
C18 O28 1.240 . S
C18 O29 1.289 1_455 S
C19 O30 1.258 . S
C19 O31 1.256 1_554 S
O20 La0 2.521 . S
O20 C2 1.274 . S
O21 La0 2.628 1_544 S
O21 C2 1.233 1_544 S
O22 La0 2.554 . S
O22 C9 1.240 . S
O23 La0 2.757 1_455 S
O23 La1 2.482 1_566 S
O23 C9 1.289 1_455 S
O24 La0 2.470 1_545 S
O24 C10 1.258 . S
O25 La1 2.503 1_655 S
O25 C10 1.256 1_554 S
O26 La1 2.521 . S
O26 C11 1.261 . S
O27 La1 2.628 1_566 S
O27 C11 1.243 1_566 S
O28 La1 2.554 . S
O28 C18 1.240 . S
O29 La0 2.482 1_544 S
O29 La1 2.757 1_655 S
O29 C18 1.289 1_655 S
O30 La1 2.470 1_565 S
O30 C19 1.258 . S
O31 La0 2.503 1_455 S
O31 C19 1.256 1_556 S
H32 C4 0.930 1_565 S
H33 C5 0.930 . S
H34 C7 0.929 . S
H35 C8 0.929 . S
H36 C13 0.930 1_545 S
H37 C14 0.930 . S
H38 C16 0.929 . S
H39 C17 0.929 . S
La40 C42 2.928 1_455 S
La40 O60 2.521 1_455 S
La40 O61 2.628 1_455 S
La40 O62 2.554 . S
La40 O63 2.757 1_565 S
La40 O64 2.470 1_455 S
La40 O69 2.482 1_455 S
La40 O71 2.503 . S
La41 C51 2.928 1_655 S
La41 O63 2.482 1_655 S
La41 O65 2.503 . S
La41 O66 2.521 1_655 S
La41 O67 2.628 1_655 S
La41 O68 2.554 . S
La41 O69 2.757 1_545 S
La41 O70 2.470 1_655 S
C42 La40 2.928 1_655 S
C42 C43 1.503 . S
C42 O60 1.261 . S
C42 O61 1.243 . S
C43 C42 1.503 . S
C43 C44 1.394 . S
C43 C48 1.373 . S
C44 C43 1.394 . S
C44 C45 1.380 . S
C44 H72 0.930 . S
C45 C44 1.380 . S
C45 C46 1.376 . S
C45 H73 0.930 . S
C46 C45 1.376 . S
C46 C47 1.370 . S
C47 C46 1.370 . S
C47 C48 1.396 . S
C47 H74 0.929 . S
C48 C43 1.373 . S
C48 C47 1.396 . S
C48 H75 0.929 . S
C49 O62 1.240 . S
C49 O63 1.289 1_565 S
C50 O64 1.258 1_545 S
C50 O65 1.256 . S
C51 La41 2.928 1_455 S
C51 C52 1.503 . S
C51 O66 1.261 . S
C51 O67 1.243 . S
C52 C51 1.503 . S
C52 C53 1.394 . S
C52 C57 1.373 . S
C53 C52 1.394 . S
C53 C54 1.380 . S
C53 H76 0.930 . S
C54 C53 1.380 . S
C54 C55 1.376 . S
C54 H77 0.930 . S
C55 C54 1.376 . S
C55 C56 1.370 . S
C56 C55 1.370 . S
C56 C57 1.396 . S
C56 H78 0.929 . S
C57 C52 1.373 . S
C57 C56 1.396 . S
C57 H79 0.929 . S
C58 O68 1.240 . S
C58 O69 1.289 1_545 S
C59 O70 1.258 1_565 S
C59 O71 1.256 . S
O60 La40 2.521 1_655 S
O60 C42 1.261 . S
O61 La40 2.628 1_655 S
O61 C42 1.243 . S
O62 La40 2.554 . S
O62 C49 1.240 . S
O63 La40 2.757 1_545 S
O63 La41 2.482 1_455 S
O63 C49 1.289 1_545 S
O64 La40 2.470 1_655 S
O64 C50 1.258 1_565 S
O65 La41 2.503 . S
O65 C50 1.256 . S
O66 La41 2.521 1_455 S
O66 C51 1.261 . S
O67 La41 2.628 1_455 S
O67 C51 1.243 . S
O68 La41 2.554 . S
O68 C58 1.240 . S
O69 La40 2.482 1_655 S
O69 La41 2.757 1_565 S
O69 C58 1.289 1_565 S
O70 La41 2.470 1_455 S
O70 C59 1.258 1_545 S
O71 La40 2.503 . S
O71 C59 1.256 . S
H72 C44 0.930 . S
H73 C45 0.930 . S
H74 C47 0.929 . S
H75 C48 0.929 . S
H76 C53 0.930 . S
H77 C54 0.930 . S
H78 C56 0.929 . S
H79 C57 0.929 . S
La80 C82 2.928 . S
La80 O100 2.521 . S
La80 O101 2.628 1_556 S
La80 O102 2.554 . S
La80 O103 2.757 . S
La80 O104 2.470 . S
La80 O109 2.482 1_556 S
La80 O111 2.503 . S
La81 C91 2.928 . S
La81 O103 2.482 1_554 S
La81 O105 2.503 . S
La81 O106 2.521 . S
La81 O107 2.628 1_554 S
La81 O108 2.554 . S
La81 O109 2.757 . S
La81 O110 2.470 . S
C82 La80 2.928 . S
C82 C83 1.503 . S
C82 O100 1.261 . S
C82 O101 1.243 1_556 S
C83 C82 1.503 . S
C83 C84 1.394 . S
C83 C88 1.373 1_556 S
C84 C83 1.394 . S
C84 C85 1.380 . S
C84 H112 0.930 . S
C85 C84 1.380 . S
C85 C86 1.376 . S
C85 H113 0.930 . S
C86 C85 1.376 . S
C86 C87 1.370 1_556 S
C87 C86 1.370 1_554 S
C87 C88 1.396 . S
C87 H114 0.929 . S
C88 C83 1.373 1_554 S
C88 C87 1.396 . S
C88 H115 0.929 . S
C89 O102 1.240 . S
C89 O103 1.289 . S
C90 O104 1.258 . S
C90 O105 1.256 1_556 S
C91 La81 2.928 . S
C91 C92 1.503 . S
C91 O106 1.261 . S
C91 O107 1.243 1_554 S
C92 C91 1.503 . S
C92 C93 1.394 . S
C92 C97 1.373 1_554 S
C93 C92 1.394 . S
C93 C94 1.380 . S
C93 H116 0.930 . S
C94 C93 1.380 . S
C94 C95 1.376 . S
C94 H117 0.930 . S
C95 C94 1.376 . S
C95 C96 1.370 1_554 S
C96 C95 1.370 1_556 S
C96 C97 1.396 . S
C96 H118 0.929 . S
C97 C92 1.373 1_556 S
C97 C96 1.396 . S
C97 H119 0.929 . S
C98 O108 1.240 . S
C98 O109 1.289 . S
C99 O110 1.258 . S
C99 O111 1.256 1_554 S
O100 La80 2.521 . S
O100 C82 1.261 . S
O101 La80 2.628 1_554 S
O101 C82 1.243 1_554 S
O102 La80 2.554 . S
O102 C89 1.240 . S
O103 La80 2.757 . S
O103 La81 2.482 1_556 S
O103 C89 1.289 . S
O104 La80 2.470 . S
O104 C90 1.258 . S
O105 La81 2.503 . S
O105 C90 1.256 1_554 S
O106 La81 2.521 . S
O106 C91 1.261 . S
O107 La81 2.628 1_556 S
O107 C91 1.243 1_556 S
O108 La81 2.554 . S
O108 C98 1.240 . S
O109 La80 2.482 1_554 S
O109 La81 2.757 . S
O109 C98 1.289 . S
O110 La81 2.470 . S
O110 C99 1.258 . S
O111 La80 2.503 . S
O111 C99 1.256 1_556 S
H112 C84 0.930 . S
H113 C85 0.930 . S
H114 C87 0.929 . S
H115 C88 0.929 . S
H116 C93 0.930 . S
H117 C94 0.930 . S
H118 C96 0.929 . S
H119 C97 0.929 . S
La120 C122 2.928 . S
La120 O140 2.521 . S
La120 O141 2.628 . S
La120 O142 2.554 . S
La120 O143 2.757 . S
La120 O144 2.470 . S
La120 O149 2.482 . S
La120 O151 2.503 . S
La121 C131 2.928 . S
La121 O143 2.482 . S
La121 O145 2.503 . S
La121 O146 2.521 . S
La121 O147 2.628 . S
La121 O148 2.554 . S
La121 O149 2.757 . S
La121 O150 2.470 . S
C122 La120 2.928 . S
C122 C123 1.503 . S
C122 O140 1.261 . S
C122 O141 1.243 . S
C123 C122 1.503 . S
C123 C124 1.394 . S
C123 C128 1.373 . S
C124 C123 1.394 . S
C124 C125 1.380 . S
C124 H152 0.930 . S
C125 C124 1.380 . S
C125 C126 1.376 . S
C125 H153 0.930 . S
C126 C125 1.376 . S
C126 C127 1.370 . S
C127 C126 1.370 . S
C127 C128 1.396 . S
C127 H154 0.929 . S
C128 C123 1.373 . S
C128 C127 1.396 . S
C128 H155 0.929 . S
C129 O142 1.240 . S
C129 O143 1.289 . S
C130 O144 1.258 . S
C130 O145 1.256 . S
C131 La121 2.928 . S
C131 C132 1.503 . S
C131 O146 1.261 . S
C131 O147 1.243 . S
C132 C131 1.503 . S
C132 C133 1.394 . S
C132 C137 1.373 . S
C133 C132 1.394 . S
C133 C134 1.380 . S
C133 H156 0.930 . S
C134 C133 1.380 . S
C134 C135 1.376 . S
C134 H157 0.930 . S
C135 C134 1.376 . S
C135 C136 1.370 . S
C136 C135 1.370 . S
C136 C137 1.396 . S
C136 H158 0.929 . S
C137 C132 1.373 . S
C137 C136 1.396 . S
C137 H159 0.929 . S
C138 O148 1.240 . S
C138 O149 1.289 . S
C139 O150 1.258 . S
C139 O151 1.256 . S
O140 La120 2.521 . S
O140 C122 1.261 . S
O141 La120 2.628 . S
O141 C122 1.243 . S
O142 La120 2.554 . S
O142 C129 1.240 . S
O143 La120 2.757 . S
O143 La121 2.482 . S
O143 C129 1.289 . S
O144 La120 2.470 . S
O144 C130 1.258 . S
O145 La121 2.503 . S
O145 C130 1.256 . S
O146 La121 2.521 . S
O146 C131 1.261 . S
O147 La121 2.628 . S
O147 C131 1.243 . S
O148 La121 2.554 . S
O148 C138 1.240 . S
O149 La120 2.482 . S
O149 La121 2.757 . S
O149 C138 1.289 . S
O150 La121 2.470 . S
O150 C139 1.258 . S
O151 La120 2.503 . S
O151 C139 1.256 . S
H152 C124 0.930 . S
H153 C125 0.930 . S
H154 C127 0.929 . S
H155 C128 0.929 . S
H156 C133 0.930 . S
H157 C134 0.930 . S
H158 C136 0.929 . S
H159 C137 0.929 . S
C160 C161 1.386 1_554 S
C160 C162 1.383 . S
C160 H176 0.951 . S
C161 C160 1.386 1_556 S
C161 C165 1.383 . S
C162 C160 1.383 . S
C162 C163 1.402 1_554 S
C162 H177 0.951 . S
C163 C162 1.402 1_556 S
C163 C164 1.375 . S
C163 C166 1.481 . S
C164 C163 1.375 . S
C164 C165 1.367 . S
C164 H178 0.951 . S
C165 C161 1.383 . S
C165 C164 1.367 . S
C165 H179 0.950 . S
C166 C163 1.481 . S
C166 C167 1.297 . S
C166 H180 0.950 . S
C167 C166 1.297 . S
C167 C168 1.479 . S
C167 H181 0.950 1_556 S
C168 C167 1.479 . S
C168 C169 1.375 1_556 S
C168 C174 1.404 . S
C169 C168 1.375 1_554 S
C169 C170 1.369 . S
C169 H182 0.950 . S
C170 C169 1.369 . S
C170 C171 1.392 1_554 S
C170 H183 0.951 . S
C171 C170 1.392 1_556 S
C171 C173 1.384 . S
H172 C174 0.949 . S
C173 C171 1.384 . S
C173 C174 1.385 . S
C173 H175 0.950 . S
C174 C168 1.404 . S
C174 H172 0.949 . S
C174 C173 1.385 . S
H175 C173 0.950 . S
H176 C160 0.951 . S
H177 C162 0.951 . S
H178 C164 0.951 . S
H179 C165 0.950 . S
H180 C166 0.950 . S
H181 C167 0.950 1_554 S
H182 C169 0.950 . S
H183 C170 0.951 . S
C184 C185 1.393 . S
C184 C186 1.383 . S
C184 H200 0.951 . S
C185 C184 1.393 . S
C185 C189 1.376 1_556 S
C186 C184 1.383 . S
C186 C187 1.402 1_556 S
C186 H201 0.951 . S
C187 C186 1.402 1_554 S
C187 C188 1.375 . S
C187 C190 1.481 . S
C188 C187 1.375 . S
C188 C189 1.367 . S
C188 H202 0.951 . S
C189 C185 1.376 1_554 S
C189 C188 1.367 . S
C189 H203 0.950 . S
C190 C187 1.481 . S
C190 C191 1.297 1_554 S
C190 H204 0.950 . S
C191 C190 1.297 1_556 S
C191 C192 1.479 . S
C191 H205 0.950 . S
C192 C191 1.479 . S
C192 C193 1.375 . S
C192 C198 1.404 1_556 S
C193 C192 1.375 . S
C193 C194 1.369 . S
C193 H206 0.950 . S
C194 C193 1.369 . S
C194 C195 1.392 . S
C194 H207 0.951 . S
C195 C194 1.392 . S
C195 C197 1.384 1_556 S
H196 C198 0.949 . S
C197 C195 1.384 1_554 S
C197 C198 1.385 . S
C197 H199 0.950 . S
C198 C192 1.404 1_554 S
C198 H196 0.949 . S
C198 C197 1.385 . S
H199 C197 0.950 . S
H200 C184 0.951 . S
H201 C186 0.951 . S
H202 C188 0.951 . S
H203 C189 0.950 . S
H204 C190 0.950 . S
H205 C191 0.950 . S
H206 C193 0.950 . S
H207 C194 0.951 . S
C208 C209 1.386 . S
C208 C210 1.383 . S
C208 H224 0.951 . S
C209 C208 1.386 . S
C209 C213 1.383 . S
C210 C208 1.383 . S
C210 C211 1.402 . S
C210 H225 0.951 . S
C211 C210 1.402 . S
C211 C212 1.375 . S
C211 C214 1.481 . S
C212 C211 1.375 . S
C212 C213 1.367 . S
C212 H226 0.951 . S
C213 C209 1.383 . S
C213 C212 1.367 . S
C213 H227 0.950 . S
C214 C211 1.481 . S
C214 C215 1.297 . S
C214 H228 0.950 . S
C215 C214 1.297 . S
C215 C216 1.479 . S
C215 H229 0.950 . S
C216 C215 1.479 . S
C216 C217 1.375 . S
C216 C222 1.404 . S
C217 C216 1.375 . S
C217 C218 1.369 . S
C217 H230 0.950 . S
C218 C217 1.369 . S
C218 C219 1.392 . S
C218 H231 0.951 . S
C219 C218 1.392 . S
C219 C221 1.384 . S
H220 C222 0.949 . S
C221 C219 1.384 . S
C221 C222 1.385 . S
C221 H223 0.950 . S
C222 C216 1.404 . S
C222 H220 0.949 . S
C222 C221 1.385 . S
H223 C221 0.950 . S
H224 C208 0.951 . S
H225 C210 0.951 . S
H226 C212 0.951 . S
H227 C213 0.950 . S
H228 C214 0.950 . S
H229 C215 0.950 . S
H230 C217 0.950 . S
H231 C218 0.951 . S
C232 C233 1.386 . S
C232 C234 1.383 . S
C232 H248 0.951 . S
C233 C232 1.386 . S
C233 C237 1.383 . S
C234 C232 1.383 . S
C234 C235 1.402 . S
C234 H249 0.951 . S
C235 C234 1.402 . S
C235 C236 1.375 . S
C235 C238 1.481 . S
C236 C235 1.375 . S
C236 C237 1.367 . S
C236 H250 0.951 . S
C237 C233 1.383 . S
C237 C236 1.367 . S
C237 H251 0.950 . S
C238 C235 1.481 . S
C238 C239 1.297 . S
C238 H252 0.950 . S
C239 C238 1.297 . S
C239 C240 1.479 . S
C239 H253 0.950 . S
C240 C239 1.479 . S
C240 C241 1.375 . S
C240 C246 1.404 . S
C241 C240 1.375 . S
C241 C242 1.369 . S
C241 H254 0.950 . S
C242 C241 1.369 . S
C242 C243 1.392 . S
C242 H255 0.951 . S
C243 C242 1.392 . S
C243 C245 1.384 . S
H244 C246 0.949 . S
C245 C243 1.384 . S
C245 C246 1.385 . S
C245 H247 0.950 . S
C246 C240 1.404 . S
C246 H244 0.949 . S
C246 C245 1.385 . S
H247 C245 0.950 . S
H248 C232 0.951 . S
H249 C234 0.951 . S
H250 C236 0.951 . S
H251 C237 0.950 . S
H252 C238 0.950 . S
H253 C239 0.950 . S
H254 C241 0.950 . S
H255 C242 0.951 . S
C256 C257 1.386 1_556 S
C256 C258 1.383 . S
C256 H272 0.951 . S
C257 C256 1.386 1_554 S
C257 C261 1.383 . S
C258 C256 1.383 . S
C258 C259 1.402 1_556 S
C258 H273 0.951 . S
C259 C258 1.402 1_554 S
C259 C260 1.375 1_565 S
C259 C262 1.481 1_565 S
C260 C259 1.375 1_545 S
C260 C261 1.367 1_545 S
C260 H274 0.951 . S
C261 C257 1.383 . S
C261 C260 1.367 1_565 S
C261 H275 0.950 . S
C262 C259 1.481 1_545 S
C262 C263 1.297 1_554 S
C262 H276 0.950 . S
C263 C262 1.297 1_556 S
C263 C264 1.479 . S
C263 H277 0.950 1_545 S
C264 C263 1.479 . S
C264 C265 1.375 . S
C264 C270 1.404 1_556 S
C265 C264 1.375 . S
C265 C266 1.369 . S
C265 H278 0.950 1_545 S
C266 C265 1.369 . S
C266 C267 1.392 . S
C266 H279 0.951 . S
C267 C266 1.392 . S
C267 C269 1.384 1_556 S
H268 C270 0.949 . S
C269 C267 1.384 1_554 S
C269 C270 1.385 . S
C269 H271 0.950 . S
C270 C264 1.404 1_554 S
C270 H268 0.949 . S
C270 C269 1.385 . S
H271 C269 0.950 . S
H272 C256 0.951 . S
H273 C258 0.951 . S
H274 C260 0.951 . S
H275 C261 0.950 . S
H276 C262 0.950 . S
H277 C263 0.950 1_565 S
H278 C265 0.950 1_565 S
H279 C266 0.951 . S
C280 C281 1.384 1_545 S
C280 C282 1.383 . S
C280 H296 0.951 . S
C281 C280 1.384 1_565 S
C281 C285 1.382 . S
C282 C280 1.383 . S
C282 C283 1.402 . S
C282 H297 0.951 . S
C283 C282 1.402 . S
C283 C284 1.375 . S
C283 C286 1.481 . S
C284 C283 1.375 . S
C284 C285 1.367 1_545 S
C284 H298 0.951 1_545 S
C285 C281 1.382 . S
C285 C284 1.367 1_565 S
C285 H299 0.950 . S
C286 C283 1.481 . S
C286 C287 1.297 . S
C286 H300 0.950 . S
C287 C286 1.297 . S
C287 C288 1.479 . S
C287 H301 0.950 . S
C288 C287 1.479 . S
C288 C289 1.375 . S
C288 C294 1.404 . S
C289 C288 1.375 . S
C289 C290 1.369 . S
C289 H302 0.950 . S
C290 C289 1.369 . S
C290 C291 1.392 . S
C290 H303 0.951 . S
C291 C290 1.392 . S
C291 C293 1.384 . S
H292 C294 0.949 . S
C293 C291 1.384 . S
C293 C294 1.385 . S
C293 H295 0.950 . S
C294 C288 1.404 . S
C294 H292 0.949 . S
C294 C293 1.385 . S
H295 C293 0.950 . S
H296 C280 0.951 . S
H297 C282 0.951 . S
H298 C284 0.951 1_565 S
H299 C285 0.950 . S
H300 C286 0.950 . S
H301 C287 0.950 . S
H302 C289 0.950 . S
H303 C290 0.951 . S
C304 C305 1.386 1_556 S
C304 C306 1.383 . S
C304 H320 0.951 . S
C305 C304 1.386 1_554 S
C305 C309 1.383 . S
C306 C304 1.383 . S
C306 C307 1.402 1_556 S
C306 H321 0.951 . S
C307 C306 1.402 1_554 S
C307 C308 1.375 . S
C307 C310 1.481 . S
C308 C307 1.375 . S
C308 C309 1.367 . S
C308 H322 0.951 . S
C309 C305 1.383 . S
C309 C308 1.367 . S
C309 H323 0.950 . S
C310 C307 1.481 . S
C310 C311 1.304 . S
C310 H324 0.950 1_655 S
C311 C310 1.304 . S
C311 C312 1.462 1_655 S
C311 H325 0.962 1_554 S
C312 C311 1.462 1_455 S
C312 C313 1.375 1_554 S
C312 C318 1.404 . S
C313 C312 1.375 1_556 S
C313 C314 1.369 . S
C313 H326 0.950 . S
C314 C313 1.369 . S
C314 C315 1.392 1_556 S
C314 H327 0.951 . S
C315 C314 1.392 1_554 S
C315 C317 1.384 . S
H316 C318 0.949 . S
C317 C315 1.384 . S
C317 C318 1.385 . S
C317 H319 0.950 . S
C318 C312 1.404 . S
C318 H316 0.949 . S
C318 C317 1.385 . S
H319 C317 0.950 . S
H320 C304 0.951 . S
H321 C306 0.951 . S
H322 C308 0.951 . S
H323 C309 0.950 . S
H324 C310 0.950 1_455 S
H325 C311 0.962 1_556 S
H326 C313 0.950 . S
H327 C314 0.951 . S
C328 C329 1.386 . S
C328 C330 1.383 . S
C328 H344 0.951 . S
C329 C328 1.386 . S
C329 C333 1.383 . S
C330 C328 1.383 . S
C330 C331 1.402 . S
C330 H345 0.951 . S
C331 C330 1.402 . S
C331 C332 1.375 . S
C331 C334 1.481 . S
C332 C331 1.375 . S
C332 C333 1.367 . S
C332 H346 0.951 . S
C333 C329 1.383 . S
C333 C332 1.367 . S
C333 H347 0.950 . S
C334 C331 1.481 . S
C334 C335 1.297 1_455 S
C334 H348 0.950 . S
C335 C334 1.297 1_655 S
C335 C336 1.479 . S
C335 H349 0.950 1_655 S
C336 C335 1.479 . S
C336 C337 1.375 . S
C336 C342 1.404 . S
C337 C336 1.375 . S
C337 C338 1.369 . S
C337 H350 0.950 . S
C338 C337 1.369 . S
C338 C339 1.392 . S
C338 H351 0.951 . S
C339 C338 1.392 . S
C339 C341 1.384 . S
H340 C342 0.949 . S
C341 C339 1.384 . S
C341 C342 1.385 . S
C341 H343 0.950 . S
C342 C336 1.404 . S
C342 H340 0.949 . S
C342 C341 1.385 . S
H343 C341 0.950 . S
H344 C328 0.951 . S
H345 C330 0.951 . S
H346 C332 0.951 . S
H347 C333 0.950 . S
H348 C334 0.950 . S
H349 C335 0.950 1_455 S
H350 C337 0.950 . S
H351 C338 0.951 . S
C352 C353 1.382 1_445 S
C352 C354 1.383 . S
C352 H368 0.951 . S
C353 C352 1.382 1_665 S
C353 C357 1.386 . S
C354 C352 1.383 . S
C354 C355 1.402 1_545 S
C354 H369 0.951 . S
C355 C354 1.402 1_565 S
C355 C356 1.375 1_455 S
C355 C358 1.481 . S
C356 C355 1.375 1_655 S
C356 C357 1.367 . S
C356 H370 0.951 . S
C357 C353 1.386 . S
C357 C356 1.367 . S
C357 H371 0.950 . S
C358 C355 1.481 . S
C358 C359 1.297 . S
C358 H372 0.950 1_455 S
C359 C358 1.297 . S
C359 C360 1.479 . S
C359 H373 0.950 1_565 S
C360 C359 1.479 . S
C360 C361 1.375 1_565 S
C360 C366 1.404 . S
C361 C360 1.375 1_545 S
C361 C362 1.369 . S
C361 H374 0.950 . S
C362 C361 1.369 . S
C362 C363 1.368 1_545 S
C362 H375 0.951 . S
C363 C362 1.368 1_565 S
C363 C365 1.411 1_455 S
H364 C366 0.949 1_655 S
C365 C363 1.411 1_655 S
C365 C366 1.385 1_655 S
C365 H367 0.950 . S
C366 C360 1.404 . S
C366 H364 0.949 1_455 S
C366 C365 1.385 1_455 S
H367 C365 0.950 . S
H368 C352 0.951 . S
H369 C354 0.951 . S
H370 C356 0.951 . S
H371 C357 0.950 . S
H372 C358 0.950 1_655 S
H373 C359 0.950 1_545 S
H374 C361 0.950 . S
H375 C362 0.951 . S
C376 C377 1.376 1_665 S
C376 C378 1.386 . S
C376 H392 0.951 . S
C377 C376 1.376 1_445 S
C377 C381 1.400 . S
C378 C376 1.386 . S
C378 C379 1.391 1_665 S
C378 H393 0.958 . S
C379 C378 1.391 1_445 S
C379 C380 1.375 . S
C379 C382 1.481 . S
C380 C379 1.375 . S
C380 C381 1.367 . S
C380 H394 0.951 . S
C381 C377 1.400 . S
C381 C380 1.367 . S
C381 H395 0.950 . S
C382 C379 1.481 . S
C382 C383 1.297 1_455 S
C382 H396 0.950 . S
C383 C382 1.297 1_655 S
C383 C384 1.479 . S
C383 H397 0.950 . S
C384 C383 1.479 . S
C384 C385 1.390 . S
C384 C390 1.404 1_655 S
C385 C384 1.390 . S
C385 C386 1.367 1_545 S
C385 H398 0.938 1_545 S
C386 C385 1.367 1_565 S
C386 C387 1.392 1_565 S
C386 H399 0.951 . S
C387 C386 1.392 1_545 S
C387 C389 1.384 1_655 S
H388 C390 0.949 . S
C389 C387 1.384 1_455 S
C389 C390 1.385 . S
C389 H391 0.950 . S
C390 C384 1.404 1_455 S
C390 H388 0.949 . S
C390 C389 1.385 . S
H391 C389 0.950 . S
H392 C376 0.951 . S
H393 C378 0.958 . S
H394 C380 0.951 . S
H395 C381 0.950 . S
H396 C382 0.950 . S
H397 C383 0.950 . S
H398 C385 0.938 1_565 S
H399 C386 0.951 . S
C400 C401 1.386 . S
C400 C402 1.383 . S
C400 H416 0.951 . S
C401 C400 1.386 . S
C401 C405 1.383 . S
C402 C400 1.383 . S
C402 C403 1.402 . S
C402 H417 0.951 . S
C403 C402 1.402 . S
C403 C404 1.375 . S
C403 C406 1.481 . S
C404 C403 1.375 . S
C404 C405 1.367 . S
C404 H418 0.951 . S
C405 C401 1.383 . S
C405 C404 1.367 . S
C405 H419 0.950 . S
C406 C403 1.481 . S
C406 C407 1.297 . S
C406 H420 0.950 . S
C407 C406 1.297 . S
C407 C408 1.479 . S
C407 H421 0.950 . S
C408 C407 1.479 . S
C408 C409 1.375 . S
C408 C414 1.404 . S
C409 C408 1.375 . S
C409 C410 1.369 . S
C409 H422 0.950 . S
C410 C409 1.369 . S
C410 C411 1.392 . S
C410 H423 0.951 . S
C411 C410 1.392 . S
C411 C413 1.384 . S
H412 C414 0.949 . S
C413 C411 1.384 . S
C413 C414 1.385 . S
C413 H415 0.950 . S
C414 C408 1.404 . S
C414 H412 0.949 . S
C414 C413 1.385 . S
H415 C413 0.950 . S
H416 C400 0.951 . S
H417 C402 0.951 . S
H418 C404 0.951 . S
H419 C405 0.950 . S
H420 C406 0.950 . S
H421 C407 0.950 . S
H422 C409 0.950 . S
H423 C410 0.951 . S
C424 C425 1.386 . S
C424 C426 1.383 . S
C424 H440 0.951 . S
C425 C424 1.386 . S
C425 C429 1.383 . S
C426 C424 1.383 . S
C426 C427 1.402 . S
C426 H441 0.951 . S
C427 C426 1.402 . S
C427 C428 1.375 . S
C427 C430 1.481 . S
C428 C427 1.375 . S
C428 C429 1.367 . S
C428 H442 0.951 . S
C429 C425 1.383 . S
C429 C428 1.367 . S
C429 H443 0.950 . S
C430 C427 1.481 . S
C430 C431 1.297 . S
C430 H444 0.950 . S
C431 C430 1.297 . S
C431 C432 1.479 . S
C431 H445 0.950 . S
C432 C431 1.479 . S
C432 C433 1.375 . S
C432 C438 1.404 . S
C433 C432 1.375 . S
C433 C434 1.369 . S
C433 H446 0.950 . S
C434 C433 1.369 . S
C434 C435 1.392 . S
C434 H447 0.951 . S
C435 C434 1.392 . S
C435 C437 1.384 . S
H436 C438 0.949 . S
C437 C435 1.384 . S
C437 C438 1.385 . S
C437 H439 0.950 . S
C438 C432 1.404 . S
C438 H436 0.949 . S
C438 C437 1.385 . S
H439 C437 0.950 . S
H440 C424 0.951 . S
H441 C426 0.951 . S
H442 C428 0.951 . S
H443 C429 0.950 . S
H444 C430 0.950 . S
H445 C431 0.950 . S
H446 C433 0.950 . S
H447 C434 0.951 . S
C161 C90 3.544 . S
C171 C19 3.558 1_556 S
C185 C99 3.557 1_556 S
C195 C10 3.520 . S
C209 C55 0.102 . S
C219 C126 0.200 . S
C233 C46 0.096 . S
C243 C135 0.271 . S
C257 C15 0.941 . S
C267 C6 1.059 . S
C281 C59 4.895 . S
C291 C50 4.881 . S
C305 C95 0.997 . S
C315 C86 1.073 1_554 S
C329 C130 4.900 . S
C339 C139 4.880 . S
C353 C49 1.417 1_655 S
C363 C18 1.405 1_565 S
C377 C9 1.465 1_445 S
C387 C58 1.394 . S
C401 C129 1.473 . S
C411 C98 1.452 . S
C425 C138 1.417 . S
C435 C89 1.491 . S
