# Generated by pormake.
# Topology ukk, (4)-cn, num edge types: 1
# Building blocks:
#     Node 0, Type 0, BuildingBlock: CEKHIL_clean_sbu_0, # of connection points: 4
#     Node 1, Type 0, BuildingBlock: CEKHIL_clean_sbu_0, # of connection points: 4
#     Node 2, Type 0, BuildingBlock: CEKHIL_clean_sbu_0, # of connection points: 4
#     Node 3, Type 0, BuildingBlock: CEKHIL_clean_sbu_0, # of connection points: 4
#     Node 4, Type 0, BuildingBlock: CEKHIL_clean_sbu_0, # of connection points: 4
#     Node 5, Type 0, BuildingBlock: CEKHIL_clean_sbu_0, # of connection points: 4
#     Node 6, Type 0, BuildingBlock: CEKHIL_clean_sbu_0, # of connection points: 4
#     Node 7, Type 0, BuildingBlock: CEKHIL_clean_sbu_0, # of connection points: 4
#     Node 8, Type 0, BuildingBlock: CEKHIL_clean_sbu_0, # of connection points: 4
#     Node 9, Type 0, BuildingBlock: CEKHIL_clean_sbu_0, # of connection points: 4
#     Node 10, Type 0, BuildingBlock: CEKHIL_clean_sbu_0, # of connection points: 4
#     Node 11, Type 0, BuildingBlock: CEKHIL_clean_sbu_0, # of connection points: 4
#     Node 12, Type 0, BuildingBlock: CEKHIL_clean_sbu_0, # of connection points: 4
#     Node 13, Type 0, BuildingBlock: CEKHIL_clean_sbu_0, # of connection points: 4
#     Node 14, Type 0, BuildingBlock: CEKHIL_clean_sbu_0, # of connection points: 4
#     Node 15, Type 0, BuildingBlock: CEKHIL_clean_sbu_0, # of connection points: 4
#     Edge 16, Type (0, 0), BuildingBlock: ZUJKAS_clean_linker_0, # of connection points: 2
#     Edge 17, Type (0, 0), BuildingBlock: ZUJKAS_clean_linker_0, # of connection points: 2
#     Edge 18, Type (0, 0), BuildingBlock: ZUJKAS_clean_linker_0, # of connection points: 2
#     Edge 19, Type (0, 0), BuildingBlock: ZUJKAS_clean_linker_0, # of connection points: 2
#     Edge 20, Type (0, 0), BuildingBlock: ZUJKAS_clean_linker_0, # of connection points: 2
#     Edge 21, Type (0, 0), BuildingBlock: ZUJKAS_clean_linker_0, # of connection points: 2
#     Edge 22, Type (0, 0), BuildingBlock: ZUJKAS_clean_linker_0, # of connection points: 2
#     Edge 23, Type (0, 0), BuildingBlock: ZUJKAS_clean_linker_0, # of connection points: 2
#     Edge 24, Type (0, 0), BuildingBlock: ZUJKAS_clean_linker_0, # of connection points: 2
#     Edge 25, Type (0, 0), BuildingBlock: ZUJKAS_clean_linker_0, # of connection points: 2
#     Edge 26, Type (0, 0), BuildingBlock: ZUJKAS_clean_linker_0, # of connection points: 2
#     Edge 27, Type (0, 0), BuildingBlock: ZUJKAS_clean_linker_0, # of connection points: 2
#     Edge 28, Type (0, 0), BuildingBlock: ZUJKAS_clean_linker_0, # of connection points: 2
#     Edge 29, Type (0, 0), BuildingBlock: ZUJKAS_clean_linker_0, # of connection points: 2
#     Edge 30, Type (0, 0), BuildingBlock: ZUJKAS_clean_linker_0, # of connection points: 2
#     Edge 31, Type (0, 0), BuildingBlock: ZUJKAS_clean_linker_0, # of connection points: 2
#     Edge 32, Type (0, 0), BuildingBlock: ZUJKAS_clean_linker_0, # of connection points: 2
#     Edge 33, Type (0, 0), BuildingBlock: ZUJKAS_clean_linker_0, # of connection points: 2
#     Edge 34, Type (0, 0), BuildingBlock: ZUJKAS_clean_linker_0, # of connection points: 2
#     Edge 35, Type (0, 0), BuildingBlock: ZUJKAS_clean_linker_0, # of connection points: 2
#     Edge 36, Type (0, 0), BuildingBlock: ZUJKAS_clean_linker_0, # of connection points: 2
#     Edge 37, Type (0, 0), BuildingBlock: ZUJKAS_clean_linker_0, # of connection points: 2
#     Edge 38, Type (0, 0), BuildingBlock: ZUJKAS_clean_linker_0, # of connection points: 2
#     Edge 39, Type (0, 0), BuildingBlock: ZUJKAS_clean_linker_0, # of connection points: 2
#     Edge 40, Type (0, 0), BuildingBlock: ZUJKAS_clean_linker_0, # of connection points: 2
#     Edge 41, Type (0, 0), BuildingBlock: ZUJKAS_clean_linker_0, # of connection points: 2
#     Edge 42, Type (0, 0), BuildingBlock: ZUJKAS_clean_linker_0, # of connection points: 2
#     Edge 43, Type (0, 0), BuildingBlock: ZUJKAS_clean_linker_0, # of connection points: 2
#     Edge 44, Type (0, 0), BuildingBlock: ZUJKAS_clean_linker_0, # of connection points: 2
#     Edge 45, Type (0, 0), BuildingBlock: ZUJKAS_clean_linker_0, # of connection points: 2
#     Edge 46, Type (0, 0), BuildingBlock: ZUJKAS_clean_linker_0, # of connection points: 2
#     Edge 47, Type (0, 0), BuildingBlock: ZUJKAS_clean_linker_0, # of connection points: 2
# Relax obj value: 0.120
# Max RMSD: 0.296
# Mean RMSD: 0.296
data_MOF--net-ukk--node1-CEKHIL_clean_sbu_0--edge1-ZUJKAS_clean_linker_0
_symmetry_space_group_name_H-M    P1
_symmetry_Int_Tables_number       1
_symmetry_cell_setting            triclinic
loop_
_symmetry_equiv_pos_as_xyz
'x, y, z'
_cell_length_a     69.854939
_cell_length_b     69.895155
_cell_length_c     20.586603
_cell_angle_alpha  90.013058
_cell_angle_beta   89.98136
_cell_angle_gamma 90.00384
loop_
_atom_site_label
_atom_site_type_symbol
_atom_site_fract_x
_atom_site_fract_y
_atom_site_fract_z
_atom_type_partial_charge
Co0 Co 0.3514 0.10998 0.147 0.0
O1 O 0.32417 0.10854 0.13706 0.0
O2 O 0.34465 0.11383 0.05679 0.0
C3 C 0.35479 0.08382 0.2091 0.0
O4 O 0.38048 0.11172 0.13945 0.0
Co5 Co 0.36827 0.11762 0.28288 0.0
O6 O 0.39228 0.10893 0.2406 0.0
C7 C 0.35223 0.14978 0.20953 0.0
C8 C 0.32698 0.1118 0.07578 0.0
C9 C 0.39452 0.10932 0.17916 0.0
O10 O 0.34948 0.13823 0.16204 0.0
O11 O 0.35877 0.14434 0.26461 0.0
O12 O 0.35343 0.08241 0.14637 0.0
O13 O 0.35177 0.10071 0.23302 0.0
Co14 Co 0.11241 0.64366 0.84048 0.0
O15 O 0.1099 0.67082 0.85071 0.0
O16 O 0.11672 0.65058 0.93025 0.0
C17 C 0.08596 0.63919 0.78067 0.0
O18 O 0.11525 0.61466 0.84849 0.0
Co19 Co 0.11946 0.62637 0.70493 0.0
O20 O 0.11102 0.60253 0.74849 0.0
C21 C 0.15186 0.64321 0.77525 0.0
C22 C 0.1137 0.66813 0.9117 0.0
C23 C 0.11226 0.60048 0.80984 0.0
O24 O 0.1405 0.64671 0.82277 0.0
O25 O 0.14634 0.63554 0.72197 0.0
O26 O 0.08494 0.6405 0.84351 0.0
O27 O 0.10254 0.6428 0.75518 0.0
Co28 Co 0.64491 0.88639 0.15079 0.0
O29 O 0.67216 0.88659 0.13962 0.0
O30 O 0.65116 0.88226 0.0603 0.0
C31 C 0.64317 0.91274 0.21306 0.0
O32 O 0.61575 0.88594 0.14437 0.0
Co33 Co 0.62798 0.87961 0.28713 0.0
O34 O 0.6043 0.88944 0.24576 0.0
C35 C 0.64246 0.84669 0.21346 0.0
C36 C 0.66897 0.88357 0.07841 0.0
C37 C 0.60191 0.88899 0.18442 0.0
O38 O 0.64559 0.85807 0.16576 0.0
O39 O 0.63625 0.85247 0.26865 0.0
O40 O 0.64432 0.91404 0.15027 0.0
O41 O 0.6452 0.89568 0.23686 0.0
Co42 Co 0.88937 0.35259 0.85044 0.0
O43 O 0.88924 0.3255 0.86451 0.0
O44 O 0.88534 0.34728 0.94166 0.0
C45 C 0.91559 0.35348 0.78725 0.0
O46 O 0.88927 0.38175 0.85339 0.0
Co47 Co 0.88227 0.36787 0.71187 0.0
O48 O 0.89197 0.39207 0.75032 0.0
C49 C 0.84954 0.3544 0.78833 0.0
C50 C 0.88635 0.3293 0.92539 0.0
C51 C 0.89195 0.39513 0.81138 0.0
O52 O 0.86099 0.35224 0.83645 0.0
O53 O 0.85526 0.35929 0.73157 0.0
O54 O 0.91706 0.35285 0.85008 0.0
O55 O 0.89844 0.35135 0.76428 0.0
Co56 Co 0.35629 0.38839 0.09797 0.0
O57 O 0.32906 0.38782 0.10812 0.0
O58 O 0.34986 0.38506 0.18885 0.0
C59 C 0.3574 0.41412 0.03266 0.0
O60 O 0.38543 0.38887 0.10465 0.0
Co61 Co 0.37299 0.38047 0.96167 0.0
O62 O 0.39691 0.38997 0.00259 0.0
C63 C 0.35899 0.34826 0.03913 0.0
C64 C 0.33208 0.38557 0.16975 0.0
C65 C 0.39931 0.39082 0.06395 0.0
O66 O 0.35659 0.35994 0.08648 0.0
O67 O 0.36406 0.35367 0.98224 0.0
O68 O 0.35608 0.41604 0.09523 0.0
O69 O 0.3558 0.39678 0.01099 0.0
Co70 Co 0.38671 0.64204 0.90317 0.0
O71 O 0.38912 0.66922 0.89319 0.0
O72 O 0.38173 0.64898 0.81391 0.0
C73 C 0.41353 0.63793 0.96164 0.0
O74 O 0.38399 0.61307 0.89455 0.0
Co75 Co 0.38035 0.6243 0.03816 0.0
O76 O 0.38875 0.60059 0.99369 0.0
C77 C 0.3476 0.6414 0.97062 0.0
C78 C 0.3849 0.66649 0.83254 0.0
C79 C 0.38721 0.59875 0.93235 0.0
O80 O 0.35873 0.64494 0.92254 0.0
O81 O 0.35336 0.63358 0.02334 0.0
O82 O 0.4142 0.63922 0.89872 0.0
O83 O 0.39695 0.64108 0.98789 0.0
Co84 Co 0.64363 0.60805 0.10396 0.0
O85 O 0.67087 0.60751 0.11497 0.0
O86 O 0.64994 0.61201 0.19445 0.0
C87 C 0.64142 0.5818 0.04143 0.0
O88 O 0.61448 0.60882 0.11058 0.0
Co89 Co 0.62672 0.61518 0.96785 0.0
O90 O 0.60301 0.60544 0.00923 0.0
C91 C 0.64152 0.64787 0.04187 0.0
C92 C 0.66773 0.61052 0.17622 0.0
C93 C 0.60061 0.60585 0.07059 0.0
O94 O 0.64467 0.63638 0.08926 0.0
O95 O 0.63511 0.64225 0.98678 0.0
O96 O 0.64261 0.58043 0.1042 0.0
O97 O 0.64377 0.59884 0.01779 0.0
Co98 Co 0.61022 0.35293 0.90625 0.0
O99 O 0.60771 0.32573 0.89792 0.0
O100 O 0.61272 0.34567 0.81596 0.0
C101 C 0.58501 0.3578 0.97164 0.0
O102 O 0.61282 0.38189 0.89695 0.0
Co103 Co 0.62021 0.37006 0.04001 0.0
O104 O 0.61125 0.39401 0.99799 0.0
C105 C 0.65093 0.35284 0.96253 0.0
C106 C 0.61032 0.32818 0.8361 0.0
C107 C 0.61099 0.39606 0.93647 0.0
O108 O 0.63863 0.35014 0.91715 0.0
O109 O 0.64641 0.35978 0.01802 0.0
O110 O 0.58274 0.35603 0.90933 0.0
O111 O 0.60201 0.35409 0.9935 0.0
Co112 Co 0.85404 0.61243 0.67621 0.0
O113 O 0.82683 0.61004 0.66764 0.0
O114 O 0.84681 0.61549 0.58606 0.0
C115 C 0.85877 0.58682 0.73941 0.0
O116 O 0.88304 0.61499 0.66727 0.0
Co117 Co 0.87109 0.62151 0.81073 0.0
O118 O 0.89507 0.61291 0.76828 0.0
C119 C 0.85471 0.65287 0.73444 0.0
C120 C 0.82929 0.61297 0.606 0.0
C121 C 0.8972 0.613 0.70679 0.0
O122 O 0.85132 0.64075 0.68908 0.0
O123 O 0.86194 0.64811 0.78922 0.0
O124 O 0.85711 0.585 0.67694 0.0
O125 O 0.85506 0.60363 0.76294 0.0
Co126 Co 0.60835 0.14184 0.33636 0.0
O127 O 0.60691 0.16908 0.34655 0.0
O128 O 0.61252 0.14856 0.42636 0.0
C129 C 0.58189 0.13845 0.27548 0.0
O130 O 0.61013 0.11275 0.34428 0.0
Co131 Co 0.61525 0.12441 0.20098 0.0
O132 O 0.60641 0.10064 0.24402 0.0
C133 C 0.64799 0.14001 0.27282 0.0
C134 C 0.61034 0.16622 0.40772 0.0
C135 C 0.6073 0.09858 0.30543 0.0
O136 O 0.63659 0.14382 0.31992 0.0
O137 O 0.64239 0.13263 0.21916 0.0
O138 O 0.58078 0.13981 0.33828 0.0
O139 O 0.59871 0.14137 0.25065 0.0
Co140 Co 0.14445 0.38696 0.66401 0.0
O141 O 0.17171 0.38907 0.65545 0.0
O142 O 0.15173 0.38312 0.5743 0.0
C143 C 0.14011 0.41312 0.72546 0.0
O144 O 0.11543 0.38454 0.65447 0.0
Co145 Co 0.12664 0.37914 0.79804 0.0
O146 O 0.10295 0.38797 0.75435 0.0
C147 C 0.14351 0.34711 0.72621 0.0
C148 C 0.16925 0.38563 0.5941 0.0
C149 C 0.1011 0.38722 0.69284 0.0
O150 O 0.1471 0.35875 0.67964 0.0
O151 O 0.13577 0.35231 0.77974 0.0
O152 O 0.14172 0.41445 0.66278 0.0
O153 O 0.14338 0.39633 0.74999 0.0
Co154 Co 0.38569 0.85428 0.34118 0.0
O155 O 0.38936 0.82741 0.35506 0.0
O156 O 0.38043 0.84814 0.43099 0.0
C157 C 0.41268 0.8592 0.28429 0.0
O158 O 0.38154 0.88316 0.34544 0.0
Co159 Co 0.37937 0.8699 0.20334 0.0
O160 O 0.38644 0.89449 0.24478 0.0
C161 C 0.3469 0.85258 0.27167 0.0
C162 C 0.38458 0.83062 0.41496 0.0
C163 C 0.38444 0.89707 0.30566 0.0
O164 O 0.35799 0.84982 0.32041 0.0
O165 O 0.35259 0.86009 0.21834 0.0
O166 O 0.41295 0.85864 0.34736 0.0
O167 O 0.39654 0.8547 0.25715 0.0
Co168 Co 0.85652 0.889 0.58546 0.0
O169 O 0.82917 0.88818 0.59222 0.0
O170 O 0.84915 0.88578 0.67542 0.0
C171 C 0.85811 0.9145 0.51946 0.0
O172 O 0.88556 0.88985 0.59645 0.0
Co173 Co 0.87543 0.88087 0.45316 0.0
O174 O 0.89829 0.89188 0.4964 0.0
C175 C 0.8608 0.84861 0.52927 0.0
C176 C 0.83159 0.88602 0.65424 0.0
C177 C 0.89986 0.8926 0.55803 0.0
O178 O 0.85712 0.86054 0.57491 0.0
O179 O 0.8673 0.85379 0.47384 0.0
O180 O 0.85604 0.9166 0.58175 0.0
O181 O 0.85705 0.89708 0.49805 0.0
Co182 Co 0.88373 0.14231 0.41933 0.0
O183 O 0.88461 0.16971 0.41437 0.0
O184 O 0.87996 0.15037 0.33048 0.0
C185 C 0.90981 0.13831 0.48126 0.0
O186 O 0.88272 0.11339 0.40574 0.0
Co187 Co 0.87631 0.12255 0.5506 0.0
O188 O 0.88636 0.09987 0.5039 0.0
C189 C 0.84375 0.13873 0.47955 0.0
C190 C 0.88158 0.16775 0.35255 0.0
C191 C 0.88595 0.09876 0.44213 0.0
O192 O 0.85535 0.14346 0.43402 0.0
O193 O 0.84915 0.13061 0.53219 0.0
O194 O 0.91134 0.1408 0.41897 0.0
O195 O 0.89283 0.14061 0.50551 0.0
Co196 Co 0.14141 0.11368 0.57291 0.0
O197 O 0.16839 0.10993 0.58446 0.0
O198 O 0.14805 0.11734 0.6632 0.0
C199 C 0.13592 0.08763 0.51184 0.0
O200 O 0.11258 0.11794 0.57967 0.0
Co201 Co 0.12565 0.12219 0.43632 0.0
O202 O 0.1004 0.11922 0.47866 0.0
C203 C 0.14341 0.15339 0.50964 0.0
C204 C 0.16557 0.11376 0.64538 0.0
C205 C 0.09833 0.11896 0.54014 0.0
O206 O 0.1459 0.14168 0.55687 0.0
O207 O 0.13609 0.14845 0.4552 0.0
O208 O 0.13685 0.08642 0.57469 0.0
O209 O 0.14058 0.10404 0.48704 0.0
Co210 Co 0.11248 0.85475 0.40976 0.0
O211 O 0.11033 0.82753 0.40068 0.0
O212 O 0.11681 0.84755 0.32016 0.0
C213 C 0.08591 0.85887 0.46971 0.0
O214 O 0.11495 0.8838 0.40095 0.0
Co215 Co 0.11967 0.87221 0.54486 0.0
O216 O 0.11132 0.89602 0.50117 0.0
C217 C 0.152 0.85536 0.47459 0.0
C218 C 0.11403 0.83003 0.33953 0.0
C219 C 0.11228 0.89803 0.43975 0.0
O220 O 0.14061 0.85204 0.42709 0.0
O221 O 0.14656 0.86293 0.5281 0.0
O222 O 0.08497 0.85738 0.40692 0.0
O223 O 0.10262 0.85575 0.49515 0.0
H224 H 0.40091 0.92782 0.24802 0.0
H225 H 0.39802 0.96125 0.27867 0.0
H226 H 0.36517 0.94534 0.44771 0.0
H227 H 0.36798 0.91145 0.41688 0.0
H228 H 0.34726 0.9723 0.37015 0.0
H229 H 0.42129 0.99555 0.41669 0.0
H230 H 0.4203 0.98173 0.34344 0.0
H231 H 0.41421 0.97068 0.41986 0.0
C232 C 0.39334 0.93133 0.29237 0.0
C233 C 0.38456 0.917 0.3298 0.0
C234 C 0.3919 0.95048 0.31031 0.0
C235 C 0.38169 0.95579 0.36615 0.0
C236 C 0.37335 0.94151 0.40493 0.0
H237 H 0.35249 0.07965 0.34205 0.0
H238 H 0.35885 0.05023 0.40483 0.0
C239 C 0.37496 0.92219 0.38726 0.0
C240 C 0.37776 0.97636 0.37741 0.0
H241 H 0.40027 0.01949 0.36432 0.0
C242 C 0.35877 0.98271 0.37181 0.0
C243 C 0.39274 0.98995 0.38013 0.0
C244 C 0.41326 0.98409 0.3911 0.0
C245 C 0.35464 0.00209 0.36071 0.0
C246 C 0.36987 0.01526 0.35523 0.0
C247 C 0.38863 0.00928 0.36821 0.0
C248 C 0.3671 0.03356 0.32083 0.0
C249 C 0.33425 0.00808 0.34804 0.0
C250 C 0.36985 0.0338 0.25349 0.0
C251 C 0.36613 0.0503 0.21792 0.0
C252 C 0.35968 0.06698 0.24901 0.0
C253 C 0.35744 0.06696 0.31695 0.0
C254 C 0.36106 0.05025 0.35276 0.0
H255 H 0.32385 0.99681 0.36232 0.0
H256 H 0.33091 0.02142 0.37507 0.0
H257 H 0.33242 0.01112 0.29546 0.0
H258 H 0.3745 0.02102 0.22818 0.0
H259 H 0.36814 0.04988 0.16576 0.0
H260 H 0.05618 0.61798 0.8228 0.0
H261 H 0.02668 0.61047 0.7651 0.0
H262 H 0.04775 0.63976 0.59513 0.0
H263 H 0.0778 0.6471 0.65292 0.0
H264 H 0.01018 0.65195 0.64841 0.0
H265 H 0.01425 0.5738 0.60973 0.0
H266 H 0.02226 0.58089 0.68906 0.0
H267 H 0.03527 0.58871 0.61844 0.0
C268 C 0.05469 0.62258 0.77279 0.0
C269 C 0.06919 0.6332 0.74233 0.0
C270 C 0.0379 0.61814 0.7397 0.0
C271 C 0.03516 0.62436 0.67565 0.0
C272 C 0.04975 0.63465 0.64432 0.0
H273 H 0.9111 0.62512 0.58846 0.0
H274 H 0.94491 0.62684 0.55538 0.0
C275 C 0.06683 0.63882 0.67726 0.0
C276 C 0.01607 0.62176 0.64591 0.0
H277 H 0.98237 0.587 0.62579 0.0
C278 C 0.00414 0.63783 0.64083 0.0
C279 C 0.00834 0.60333 0.63597 0.0
C280 C 0.02075 0.5857 0.63793 0.0
C281 C 0.98425 0.63578 0.63366 0.0
C282 C 0.97627 0.61718 0.63044 0.0
C283 C 0.98849 0.60125 0.62851 0.0
C284 C 0.95569 0.61389 0.64358 0.0
C285 C 0.97177 0.6534 0.6363 0.0
C286 C 0.95058 0.60537 0.70272 0.0
C287 C 0.93147 0.60436 0.72154 0.0
C288 C 0.91698 0.61181 0.68152 0.0
C289 C 0.92197 0.61932 0.62038 0.0
C290 C 0.94125 0.62041 0.60159 0.0
H291 H 0.98021 0.66668 0.64398 0.0
H292 H 0.96377 0.65484 0.59002 0.0
H293 H 0.96115 0.65209 0.6762 0.0
H294 H 0.96148 0.60022 0.73582 0.0
H295 H 0.92811 0.59824 0.76852 0.0
H296 H 0.64885 0.94932 0.17623 0.0
H297 H 0.64238 0.97835 0.23735 0.0
H298 H 0.62366 0.94473 0.40112 0.0
H299 H 0.63038 0.91516 0.33956 0.0
H300 H 0.5976 0.97493 0.35803 0.0
H301 H 0.67098 0.00218 0.39447 0.0
H302 H 0.66749 0.99372 0.31301 0.0
H303 H 0.66586 0.97718 0.37984 0.0
C304 C 0.64355 0.94801 0.22549 0.0
C305 C 0.64012 0.92997 0.25317 0.0
C306 C 0.64 0.96464 0.26057 0.0
C307 C 0.63286 0.96368 0.32409 0.0
C308 C 0.62942 0.94572 0.35238 0.0
H309 H 0.62185 0.08496 0.42063 0.0
H310 H 0.62549 0.05124 0.45202 0.0
C311 C 0.63325 0.9289 0.31731 0.0
C312 C 0.62767 0.98177 0.35708 0.0
H313 H 0.64607 0.02637 0.38075 0.0
C314 C 0.60821 0.98606 0.36534 0.0
C315 C 0.6415 0.99618 0.36798 0.0
C316 C 0.66265 0.99203 0.36404 0.0
C317 C 0.60215 0.00494 0.3766 0.0
C318 C 0.61591 0.01979 0.37854 0.0
C319 C 0.63545 0.01507 0.37826 0.0
C320 C 0.61059 0.04011 0.36794 0.0
C321 C 0.58101 0.00892 0.38241 0.0
C322 C 0.60078 0.04505 0.31088 0.0
C323 C 0.5988 0.06415 0.29279 0.0
C324 C 0.60666 0.07881 0.33115 0.0
C325 C 0.61556 0.07398 0.39021 0.0
C326 C 0.61767 0.05474 0.40817 0.0
H327 H 0.57355 0.9968 0.4064 0.0
H328 H 0.57821 0.02221 0.4104 0.0
H329 H 0.5748 0.01053 0.33309 0.0
H330 H 0.59564 0.03408 0.27807 0.0
H331 H 0.59179 0.06738 0.24715 0.0
H332 H 0.08764 0.37252 0.5776 0.0
H333 H 0.05394 0.36921 0.54521 0.0
H334 H 0.03668 0.3998 0.7176 0.0
H335 H 0.06995 0.4033 0.74948 0.0
H336 H 0.02873 0.34913 0.61648 0.0
H337 H -0.00024 0.42173 0.5879 0.0
H338 H 0.02516 0.41687 0.58445 0.0
H339 H 0.0134 0.42067 0.66145 0.0
C340 C 0.07665 0.37902 0.60743 0.0
C341 C 0.08142 0.38801 0.6664 0.0
C342 C 0.05742 0.37712 0.5889 0.0
C343 C 0.04276 0.3845 0.62843 0.0
C344 C 0.04768 0.39442 0.6853 0.0
H345 H 0.95228 0.34799 0.82326 0.0
H346 H 0.98117 0.35406 0.76079 0.0
C347 C 0.06675 0.39619 0.70398 0.0
C348 C 0.0224 0.37933 0.61759 0.0
H349 H 0.97768 0.39806 0.63787 0.0
C350 C 0.01752 0.35984 0.61861 0.0
C351 C 0.00765 0.39321 0.61907 0.0
C352 C 0.01181 0.41428 0.61239 0.0
C353 C 0.99857 0.35399 0.62936 0.0
C354 C 0.98429 0.36797 0.63998 0.0
C355 C 0.98873 0.38735 0.6308 0.0
C356 C 0.96626 0.36305 0.67388 0.0
C357 C 0.99425 0.33291 0.63433 0.0
C358 C 0.94821 0.36631 0.6459 0.0
C359 C 0.93148 0.3627 0.68175 0.0
C360 C 0.93272 0.35624 0.74632 0.0
C361 C 0.95084 0.35298 0.77368 0.0
C362 C 0.96739 0.3563 0.73785 0.0
H363 H 0.00432 0.32438 0.60422 0.0
H364 H 0.99595 0.32828 0.68558 0.0
H365 H 0.97935 0.32975 0.61883 0.0
H366 H 0.9471 0.37175 0.5968 0.0
H367 H 0.91767 0.36544 0.65973 0.0
H368 H 0.3527 0.45101 0.06746 0.0
H369 H 0.35765 0.47949 0.00214 0.0
H370 H 0.37307 0.44456 0.83752 0.0
H371 H 0.36791 0.4155 0.90347 0.0
H372 H 0.39959 0.47597 0.87183 0.0
H373 H 0.32493 0.50096 0.84959 0.0
H374 H 0.33013 0.49293 0.93049 0.0
H375 H 0.33104 0.47617 0.86409 0.0
C376 C 0.35699 0.44927 0.01723 0.0
C377 C 0.3599 0.43101 0.99052 0.0
C378 C 0.35967 0.46559 0.97979 0.0
C379 C 0.36538 0.46411 0.91475 0.0
C380 C 0.3684 0.44593 0.88748 0.0
H381 H 0.37134 0.58545 0.81876 0.0
H382 H 0.36823 0.55185 0.78517 0.0
C383 C 0.36547 0.42941 0.92506 0.0
C384 C 0.36941 0.48197 0.87873 0.0
H385 H 0.34933 0.52595 0.85815 0.0
C386 C 0.38855 0.48677 0.86631 0.0
C387 C 0.35499 0.49592 0.87009 0.0
C388 C 0.33409 0.49117 0.87861 0.0
C389 C 0.39385 0.50579 0.85369 0.0
C390 C 0.37965 0.52024 0.85467 0.0
C391 C 0.3603 0.51496 0.85846 0.0
C392 C 0.38456 0.54062 0.86596 0.0
C393 C 0.41472 0.51041 0.84381 0.0
C394 C 0.39493 0.54546 0.92197 0.0
C395 C 0.39656 0.56447 0.94143 0.0
C396 C 0.3878 0.57913 0.90545 0.0
C397 C 0.37829 0.57445 0.84735 0.0
C398 C 0.37651 0.55529 0.82809 0.0
H399 H 0.4221 0.49855 0.81802 0.0
H400 H 0.41665 0.52383 0.81569 0.0
H401 H 0.42173 0.5121 0.89185 0.0
H402 H 0.40082 0.53443 0.95303 0.0
H403 H 0.40407 0.56761 0.98622 0.0
H404 H 0.41669 0.6307 0.09279 0.0
H405 H 0.44637 0.62415 0.15377 0.0
H406 H 0.47899 0.62937 0.97686 0.0
H407 H 0.4498 0.63566 0.9161 0.0
H408 H 0.47678 0.59269 0.11524 0.0
H409 H 0.50287 0.66758 0.12035 0.0
H410 H 0.47775 0.66148 0.11506 0.0
H411 H 0.49265 0.6604 0.04398 0.0
C412 C 0.43023 0.63044 0.06714 0.0
C413 C 0.43095 0.63375 -0.00026 0.0
C414 C 0.4471 0.62671 0.10193 0.0
C415 C 0.4648 0.62651 0.06971 0.0
C416 C 0.46545 0.62967 0.00257 0.0
H417 H 0.57082 0.5875 0.01359 0.0
H418 H 0.53703 0.59055 0.04009 0.0
C419 C 0.44873 0.63321 0.96793 0.0
C420 C 0.48294 0.6227 0.1042 0.0
H421 H 0.52692 0.64289 0.12391 0.0
C422 C 0.48763 0.60372 0.11939 0.0
C423 C 0.49695 0.63715 0.11045 0.0
C424 C 0.4923 0.65785 0.09719 0.0
C425 C 0.50657 0.59856 0.13415 0.0
C426 C 0.52105 0.61272 0.13267 0.0
C427 C 0.51588 0.63198 0.12454 0.0
C428 C 0.54159 0.6077 0.12635 0.0
C429 C 0.51109 0.57784 0.14746 0.0
C430 C 0.55551 0.61616 0.16639 0.0
C431 C 0.575 0.61443 0.15116 0.0
C432 C 0.58075 0.60456 0.09491 0.0
C433 C 0.56682 0.59527 0.0571 0.0
C434 C 0.54748 0.59682 0.07265 0.0
H435 H 0.49883 0.57064 0.17166 0.0
H436 H 0.51371 0.57037 0.10072 0.0
H437 H 0.52401 0.57632 0.17845 0.0
H438 H 0.55125 0.62481 0.2076 0.0
H439 H 0.58542 0.62183 0.18095 0.0
H440 H 0.59366 0.42636 0.99368 0.0
H441 H 0.59632 0.45989 0.96365 0.0
H442 H 0.6286 0.44434 0.79291 0.0
H443 H 0.62598 0.4104 0.82315 0.0
H444 H 0.64748 0.46966 0.87116 0.0
H445 H 0.57443 0.49668 0.83133 0.0
H446 H 0.57505 0.48232 0.90339 0.0
H447 H 0.58028 0.47153 0.8258 0.0
C448 C 0.60094 0.43 0.94887 0.0
C449 C 0.60976 0.41579 0.91105 0.0
C450 C 0.60225 0.4492 0.93127 0.0
C451 C 0.61241 0.45465 0.87546 0.0
C452 C 0.62047 0.44042 0.83571 0.0
H453 H 0.63396 0.57972 0.90991 0.0
H454 H 0.6277 0.55045 0.8461 0.0
C455 C 0.61897 0.42107 0.85301 0.0
C456 C 0.61715 0.47515 0.86633 0.0
H457 H 0.5968 0.5192 0.885 0.0
C458 C 0.63644 0.48057 0.87146 0.0
C459 C 0.60282 0.48946 0.86594 0.0
C460 C 0.582 0.48467 0.85557 0.0
C461 C 0.64154 0.4996 0.88431 0.0
C462 C 0.627 0.51343 0.89234 0.0
C463 C 0.60792 0.50849 0.87948 0.0
C464 C 0.63087 0.53135 0.92803 0.0
C465 C 0.66232 0.50449 0.89502 0.0
C466 C 0.63443 0.53016 0.99482 0.0
C467 C 0.63781 0.54662 0.03099 0.0
C468 C 0.63777 0.56469 0.00115 0.0
C469 C 0.63415 0.56595 0.93403 0.0
C470 C 0.63058 0.54932 0.89765 0.0
H471 H 0.67192 0.49412 0.87028 0.0
H472 H 0.66555 0.51914 0.87715 0.0
H473 H 0.66547 0.50404 0.94785 0.0
H474 H 0.63448 0.51641 0.01917 0.0
H475 H 0.6405 0.54512 0.08256 0.0
H476 H 0.42999 0.40465 0.99789 0.0
H477 H 0.46355 0.40255 0.02828 0.0
H478 H 0.44776 0.37892 0.21426 0.0
H479 H 0.41379 0.38074 0.1836 0.0
H480 H 0.48598 0.41645 0.13348 0.0
H481 H 0.48085 0.33673 0.12978 0.0
H482 H 0.46194 0.3515 0.09747 0.0
H483 H 0.46545 0.34994 0.18364 0.0
C484 C 0.43356 0.39924 0.04568 0.0
C485 C 0.41922 0.39258 0.08792 0.0
C486 C 0.45278 0.39814 0.06314 0.0
C487 C 0.45817 0.39032 0.12312 0.0
C488 C 0.4439 0.38477 0.16736 0.0
H489 H 0.57821 0.35104 0.1013 0.0
H490 H 0.54947 0.36057 0.16325 0.0
C491 C 0.42452 0.38593 0.14993 0.0
C492 C 0.47876 0.38649 0.13474 0.0
H493 H 0.51124 0.35026 0.11957 0.0
C494 C 0.49156 0.40196 0.13262 0.0
C495 C 0.48605 0.36758 0.13417 0.0
C496 C 0.47296 0.35041 0.13617 0.0
C497 C 0.51125 0.39904 0.12361 0.0
C498 C 0.51823 0.3802 0.11594 0.0
C499 C 0.50578 0.36469 0.12529 0.0
C500 C 0.53683 0.37645 0.08389 0.0
C501 C 0.52425 0.41616 0.11765 0.0
C502 C 0.53914 0.38222 0.01915 0.0
C503 C 0.55514 0.37654 0.98382 0.0
C504 C 0.56929 0.36508 0.01254 0.0
C505 C 0.56748 0.35993 0.07825 0.0
C506 C 0.55115 0.36536 0.11355 0.0
H507 H 0.51865 0.42847 0.14605 0.0
H508 H 0.53896 0.41277 0.13454 0.0
H509 H 0.52502 0.42058 0.06594 0.0
H510 H 0.5281 0.39045 0.99492 0.0
H511 H 0.55624 0.38082 0.93337 0.0
H512 H 0.87549 0.41144 0.91888 0.0
H513 H 0.87136 0.44588 0.93894 0.0
H514 H 0.90648 0.4585 0.77218 0.0
H515 H 0.91046 0.42434 0.75133 0.0
H516 H 0.9007 0.48194 0.93955 0.0
H517 H 0.84757 0.476 0.73928 0.0
H518 H 0.85509 0.4556 0.78673 0.0
H519 H 0.87041 0.46499 0.72436 0.0
C520 C 0.88282 0.42158 0.88779 0.0
C521 C 0.89307 0.41526 0.833 0.0
C522 C 0.88045 0.44121 0.89935 0.0
C523 C 0.88851 0.45462 0.85669 0.0
C524 C 0.90012 0.44831 0.80547 0.0
H525 H 0.88835 0.56394 0.70981 0.0
H526 H 0.89581 0.5329 0.75799 0.0
C527 C 0.90231 0.4288 0.79349 0.0
C528 C 0.88257 0.4749 0.85841 0.0
H529 H 0.85741 0.50731 0.76894 0.0
C530 C 0.89094 0.48752 0.90325 0.0
C531 C 0.86972 0.48201 0.81121 0.0
C532 C 0.86002 0.46897 0.76287 0.0
C533 C 0.88761 0.50736 0.89923 0.0
C534 C 0.8757 0.51447 0.84942 0.0
C535 C 0.86652 0.50172 0.80718 0.0
C536 C 0.87443 0.53503 0.8336 0.0
C537 C 0.89746 0.52075 0.94577 0.0
C538 C 0.86039 0.54676 0.86192 0.0
C539 C 0.85626 0.56471 0.83478 0.0
C540 C 0.86586 0.57074 0.77846 0.0
C541 C 0.88072 0.5595 0.75313 0.0
C542 C 0.88505 0.54184 0.78072 0.0
H543 H 0.90526 0.51294 0.98461 0.0
H544 H 0.90778 0.52983 0.91869 0.0
H545 H 0.88677 0.53042 0.96849 0.0
H546 H 0.85189 0.54156 0.90222 0.0
H547 H 0.84462 0.57314 0.85459 0.0
H548 H 0.57741 0.13976 0.14242 0.0
H549 H 0.54776 0.13328 0.08094 0.0
H550 H 0.5186 0.11982 0.25974 0.0
H551 H 0.54769 0.12627 0.32088 0.0
H552 H 0.51728 0.09279 0.12298 0.0
H553 H 0.49388 0.16893 0.1246 0.0
H554 H 0.51862 0.16207 0.1133 0.0
H555 H 0.50793 0.16052 0.19231 0.0
C556 C 0.56468 0.13528 0.16831 0.0
C557 C 0.56481 0.13364 0.23645 0.0
C558 C 0.54783 0.1316 0.13324 0.0
C559 C 0.5311 0.12612 0.1661 0.0
C560 C 0.53141 0.12404 0.2337 0.0
H561 H 0.42476 0.09176 0.23613 0.0
H562 H 0.45834 0.09425 0.2063 0.0
C563 C 0.54805 0.1278 0.26853 0.0
C564 C 0.51273 0.12312 0.1322 0.0
H565 H 0.46954 0.14529 0.11657 0.0
C566 C 0.50695 0.10431 0.11908 0.0
C567 C 0.49939 0.1382 0.12673 0.0
C568 C 0.50517 0.15864 0.13958 0.0
C569 C 0.48766 0.10001 0.10668 0.0
C570 C 0.4739 0.11484 0.10903 0.0
C571 C 0.48007 0.13388 0.11513 0.0
C572 C 0.45328 0.11074 0.11893 0.0
C573 C 0.48203 0.07946 0.0953 0.0
C574 C 0.43915 0.11916 0.07967 0.0
C575 C 0.41976 0.11773 0.09678 0.0
C576 C 0.41434 0.10825 0.15418 0.0
C577 C 0.42848 0.09922 0.19176 0.0
C578 C 0.44771 0.10046 0.17433 0.0
H579 H 0.49367 0.07155 0.07015 0.0
H580 H 0.47955 0.07237 0.1428 0.0
H581 H 0.46874 0.07839 0.06595 0.0
H582 H 0.44317 0.12737 0.0372 0.0
H583 H 0.40917 0.12493 0.06716 0.0
H584 H 0.0947 0.56998 0.75459 0.0
H585 H 0.09671 0.53664 0.78713 0.0
H586 H 0.12981 0.55256 0.95555 0.0
H587 H 0.12792 0.58635 0.92269 0.0
H588 H 0.14726 0.52506 0.88057 0.0
H589 H 0.07278 0.50311 0.92517 0.0
H590 H 0.07414 0.51645 0.85101 0.0
H591 H 0.08015 0.5279 0.92685 0.0
C592 C 0.10212 0.56649 0.79926 0.0
C593 C 0.11127 0.58078 0.83583 0.0
C594 C 0.10305 0.5474 0.81829 0.0
C595 C 0.11312 0.5421 0.87442 0.0
C596 C 0.12174 0.55638 0.91253 0.0
H597 H 0.14435 0.41872 0.85718 0.0
H598 H 0.13761 0.44844 0.91787 0.0
C599 C 0.12065 0.57565 0.89374 0.0
C600 C 0.11668 0.52149 0.88653 0.0
H601 H 0.0936 0.47863 0.87456 0.0
C602 C 0.1356 0.51483 0.88211 0.0
C603 C 0.10149 0.50813 0.88912 0.0
C604 C 0.08102 0.51431 0.89904 0.0
C605 C 0.1395 0.49534 0.87216 0.0
C606 C 0.1241 0.48234 0.8667 0.0
C607 C 0.10537 0.48869 0.87834 0.0
C608 C 0.12676 0.46369 0.83419 0.0
C609 C 0.15986 0.48901 0.86076 0.0
C610 C 0.12263 0.4625 0.76777 0.0
C611 C 0.12661 0.44584 0.73331 0.0
C612 C 0.13466 0.42993 0.76468 0.0
C613 C 0.13814 0.43081 0.83193 0.0
C614 C 0.13432 0.4477 0.86652 0.0
H615 H 0.17033 0.50059 0.87105 0.0
H616 H 0.16324 0.47652 0.89201 0.0
H617 H 0.16158 0.48444 0.80941 0.0
H618 H 0.11682 0.47472 0.74207 0.0
H619 H 0.12361 0.44556 0.68169 0.0
H620 H 0.4197 0.85464 0.1536 0.0
H621 H 0.45002 0.86119 0.09627 0.0
H622 H 0.47471 0.88209 0.27454 0.0
H623 H 0.44489 0.87552 0.33179 0.0
H624 H 0.4784 0.90458 0.13152 0.0
H625 H 0.50332 0.82936 0.16232 0.0
H626 H 0.47874 0.83496 0.14261 0.0
H627 H 0.48764 0.83958 0.22272 0.0
C628 C 0.43156 0.86082 0.18019 0.0
C629 C 0.43001 0.86443 0.24723 0.0
C630 C 0.44879 0.86455 0.14747 0.0
C631 C 0.46449 0.87209 0.18143 0.0
C632 C 0.4627 0.87628 0.24765 0.0
H633 H 0.5726 0.90881 0.23844 0.0
H634 H 0.53867 0.90602 0.21299 0.0
C635 C 0.44567 0.87245 0.28028 0.0
C636 C 0.48336 0.87471 0.15041 0.0
H637 H 0.52691 0.85285 0.14248 0.0
C638 C 0.48893 0.89318 0.1318 0.0
C639 C 0.49697 0.85977 0.15063 0.0
C640 C 0.4915 0.83973 0.17038 0.0
C641 C 0.50817 0.89739 0.11807 0.0
C642 C 0.52211 0.88284 0.12455 0.0
C643 C 0.51622 0.86401 0.13753 0.0
C644 C 0.54278 0.88732 0.13029 0.0
C645 C 0.51354 0.91759 0.09998 0.0
C646 C 0.55647 0.8779 0.09179 0.0
C647 C 0.57601 0.87956 0.10621 0.0
C648 C 0.58204 0.89029 0.16026 0.0
C649 C 0.56836 0.90041 0.19659 0.0
C650 C 0.54896 0.89896 0.1817 0.0
H651 H 0.5016 0.92483 0.07415 0.0
H652 H 0.51656 0.92585 0.14486 0.0
H653 H 0.5265 0.9179 0.06871 0.0
H654 H 0.55197 0.86866 0.0524 0.0
H655 H 0.58625 0.87147 0.07776 0.0
H656 H 0.84921 0.95096 0.54895 0.0
H657 H 0.85506 0.97957 0.48515 0.0
H658 H 0.87913 0.94532 0.3311 0.0
H659 H 0.87306 0.91614 0.39552 0.0
H660 H 0.90246 0.977 0.37418 0.0
H661 H 0.82898 0.00086 0.32073 0.0
H662 H 0.83093 0.99324 0.40365 0.0
H663 H 0.83474 0.97621 0.33916 0.0
C664 C 0.85554 0.9494 0.50119 0.0
C665 C 0.8607 0.93133 0.47718 0.0
C666 C 0.85871 0.96578 0.46447 0.0
C667 C 0.86719 0.96454 0.40291 0.0
C668 C 0.8723 0.94651 0.37817 0.0
H669 H 0.87379 0.08651 0.32196 0.0
H670 H 0.87255 0.0533 0.28306 0.0
C671 C 0.86885 0.92992 0.41487 0.0
C672 C 0.87216 0.98256 0.36917 0.0
H673 H 0.8523 0.02638 0.34318 0.0
C674 C 0.89153 0.98768 0.36483 0.0
C675 C 0.85796 0.99638 0.35525 0.0
C676 C 0.83699 0.99131 0.35423 0.0
C677 C 0.89696 0.00683 0.35566 0.0
C678 C 0.88262 0.02111 0.35205 0.0
C679 C 0.86336 0.01555 0.34727 0.0
C680 C 0.88677 0.04144 0.36735 0.0
C681 C 0.91797 0.01173 0.35443 0.0
C682 C 0.89539 0.04584 0.42708 0.0
C683 C 0.89601 0.06463 0.44939 0.0
C684 C 0.88789 0.07953 0.41276 0.0
C685 C 0.88019 0.07534 0.35123 0.0
C686 C 0.87949 0.05639 0.32893 0.0
H687 H 0.92625 0.00027 0.32973 0.0
H688 H 0.92066 0.02553 0.32932 0.0
H689 H 0.92337 0.01276 0.40501 0.0
H690 H 0.90061 0.03459 0.45859 0.0
H691 H 0.90216 0.06737 0.4968 0.0
H692 H 0.94081 0.1193 0.43767 0.0
H693 H 0.97041 0.11269 0.49554 0.0
H694 H 0.94679 0.13769 0.66961 0.0
H695 H 0.91665 0.14421 0.61128 0.0
H696 H 0.98212 0.15364 0.62818 0.0
H697 H 0.98755 0.07501 0.63682 0.0
H698 H 0.97963 0.08281 0.55832 0.0
H699 H 0.9649 0.08732 0.62856 0.0
C700 C 0.94174 0.12308 0.48862 0.0
C701 C 0.92653 0.13238 0.51996 0.0
C702 C 0.95861 0.11909 0.52189 0.0
C703 C 0.96071 0.1244 0.58718 0.0
C704 C 0.94533 0.13323 0.61947 0.0
H705 H 0.08427 0.1067 0.65813 0.0
H706 H 0.05081 0.10841 0.69595 0.0
C707 C 0.92819 0.13696 0.58621 0.0
C708 C 0.97996 0.12306 0.61683 0.0
H709 H 0.0179 0.09237 0.62025 0.0
C710 C 0.98983 0.14017 0.62916 0.0
C711 C 0.99 0.1055 0.61911 0.0
C712 C 0.97988 0.08661 0.61066 0.0
C713 C 0.00983 0.14033 0.63518 0.0
C714 C 0.02007 0.12302 0.62839 0.0
C715 C 0.01002 0.10568 0.6246 0.0
C716 C 0.04054 0.12306 0.61022 0.0
C717 C 0.02 0.15921 0.64316 0.0
C718 C 0.04567 0.13053 0.54951 0.0
C719 C 0.06446 0.12929 0.52755 0.0
C720 C 0.07865 0.12065 0.566 0.0
C721 C 0.07363 0.11349 0.62761 0.0
C722 C 0.0546 0.11447 0.64926 0.0
H723 H 0.01073 0.16985 0.66809 0.0
H724 H 0.03347 0.15748 0.67119 0.0
H725 H 0.02366 0.16498 0.59449 0.0
H726 H 0.03496 0.13692 0.51821 0.0
H727 H 0.06785 0.13507 0.48009 0.0
H728 H 0.12639 0.91196 0.32389 0.0
H729 H 0.12848 0.94577 0.29104 0.0
H730 H 0.09861 0.96225 0.46571 0.0
H731 H 0.0963 0.9289 0.49817 0.0
H732 H 0.08704 0.9828 0.35269 0.0
H733 H 0.16631 0.98178 0.38683 0.0
H734 H 0.15565 0.96504 0.33109 0.0
H735 H 0.15141 0.96261 0.41663 0.0
C736 C 0.11997 0.92281 0.35454 0.0
C737 C 0.11141 0.9178 0.41405 0.0
C738 C 0.12128 0.94209 0.33592 0.0
C739 C 0.11392 0.95652 0.37641 0.0
C740 C 0.10442 0.95137 0.43377 0.0
H741 H 0.1134 0.05842 0.55019 0.0
H742 H 0.10706 0.02856 0.49309 0.0
C743 C 0.10321 0.93227 0.45246 0.0
C744 C 0.11718 0.97713 0.36357 0.0
H745 H 0.15116 0.01157 0.38678 0.0
C746 C 0.10114 0.98912 0.35801 0.0
C747 C 0.13559 0.98537 0.37018 0.0
C748 C 0.15329 0.97314 0.37675 0.0
C749 C 0.10283 0.00902 0.36482 0.0
C750 C 0.12098 0.01706 0.37796 0.0
C751 C 0.13726 0.00531 0.37678 0.0
C752 C 0.12283 0.0364 0.4066 0.0
C753 C 0.08503 0.02119 0.36237 0.0
C754 C 0.13376 0.0508 0.37672 0.0
C755 C 0.13725 0.06811 0.40927 0.0
C756 C 0.13028 0.07089 0.47265 0.0
C757 C 0.11898 0.05663 0.50145 0.0
C758 C 0.11523 0.03961 0.46868 0.0
H759 H 0.07379 0.01441 0.33191 0.0
H760 H 0.07922 0.02281 0.41226 0.0
H761 H 0.08822 0.03566 0.34293 0.0
H762 H 0.13994 0.04846 0.32911 0.0
H763 H 0.14612 0.07886 0.38629 0.0
H764 H 0.91373 0.87974 0.67495 0.0
H765 H 0.94752 0.87773 0.70715 0.0
H766 H 0.96366 0.90779 0.53252 0.0
H767 H 0.93024 0.90996 0.50068 0.0
H768 H 0.97258 0.85766 0.63459 0.0
H769 H 0.00086 0.9307 0.66004 0.0
H770 H 0.97553 0.92553 0.66487 0.0
H771 H 0.98693 0.92914 0.58718 0.0
C772 C 0.92446 0.88648 0.64467 0.0
C773 C 0.91937 0.89485 0.58499 0.0
C774 C 0.94375 0.88531 0.66308 0.0
C775 C 0.95815 0.89281 0.6227 0.0
C776 C 0.95286 0.9023 0.56538 0.0
H777 H 0.04939 0.85842 0.42691 0.0
H778 H 0.02038 0.86596 0.48682 0.0
C779 C 0.93371 0.90333 0.54678 0.0
C780 C 0.9786 0.88792 0.63291 0.0
H781 H 0.02314 0.90703 0.61156 0.0
C782 C 0.98369 0.86848 0.6322 0.0
C783 C 0.9932 0.90195 0.63063 0.0
C784 C 0.98881 0.92299 0.63647 0.0
C785 C 0.00267 0.8628 0.62135 0.0
C786 C 0.01682 0.87688 0.61069 0.0
C787 C 0.01219 0.89625 0.619 0.0
C788 C 0.0349 0.87197 0.57729 0.0
C789 C 0.0072 0.84177 0.61583 0.0
C790 C 0.05276 0.87306 0.60837 0.0
C791 C 0.06956 0.86857 0.57404 0.0
C792 C 0.0686 0.8633 0.50814 0.0
C793 C 0.05065 0.86243 0.47756 0.0
C794 C 0.03402 0.86666 0.51178 0.0
H795 H 0.99666 0.83293 0.64291 0.0
H796 H 0.00665 0.83748 0.56394 0.0
H797 H 0.0218 0.83866 0.63444 0.0
H798 H 0.05367 0.87729 0.65889 0.0
H799 H 0.08323 0.86945 0.59865 0.0
H800 H 0.36075 0.33112 0.15726 0.0
H801 H 0.3573 0.29737 0.18293 0.0
H802 H 0.34743 0.28483 0.98045 0.0
H803 H 0.35167 0.3188 0.95377 0.0
H804 H 0.32809 0.27376 0.17054 0.0
H805 H 0.38869 0.24697 0.02135 0.0
H806 H 0.38482 0.27212 0.03577 0.0
H807 H 0.37095 0.25966 0.97544 0.0
C808 C 0.35788 0.32123 0.11794 0.0
C809 C 0.35656 0.32765 0.05331 0.0
C810 C 0.35588 0.3019 0.13282 0.0
C811 C 0.35236 0.28849 0.08363 0.0
C812 C 0.35064 0.29484 0.01905 0.0
H813 H 0.33603 0.16585 0.10199 0.0
H814 H 0.33431 0.19964 0.07393 0.0
C815 C 0.35296 0.31426 0.00387 0.0
C816 C 0.35045 0.26797 0.101 0.0
H817 H 0.36951 0.22371 0.07358 0.0
C818 C 0.33716 0.26283 0.14931 0.0
C819 C 0.36236 0.25371 0.07354 0.0
C820 C 0.37763 0.25837 0.02413 0.0
C821 C 0.3355 0.24385 0.17091 0.0
C822 C 0.34737 0.22969 0.14336 0.0
C823 C 0.36043 0.2347 0.09446 0.0
C824 C 0.34655 0.2095 0.1643 0.0
C825 C 0.32104 0.23899 0.22274 0.0
C826 C 0.35372 0.20391 0.2251 0.0
C827 C 0.35485 0.1845 0.24147 0.0
C828 C 0.34886 0.17041 0.19707 0.0
C829 C 0.34093 0.17624 0.13732 0.0
C830 C 0.3399 0.19557 0.12103 0.0
H831 H 0.31087 0.25093 0.23168 0.0
H832 H 0.3128 0.22603 0.20884 0.0
H833 H 0.32863 0.2358 0.26883 0.0
H834 H 0.35908 0.21453 0.25886 0.0
H835 H 0.36105 0.18053 0.28776 0.0
H836 H 0.1676 0.67136 0.84905 0.0
H837 H 0.20119 0.67501 0.87963 0.0
H838 H 0.21582 0.62621 0.76101 0.0
H839 H 0.18235 0.62316 0.72772 0.0
H840 H 0.22149 0.65165 0.94719 0.0
H841 H 0.2582 0.66089 0.71157 0.0
H842 H 0.23252 0.66231 0.71916 0.0
H843 H 0.24422 0.63941 0.7122 0.0
C844 C 0.17808 0.66172 0.82824 0.0
C845 C 0.17241 0.64704 0.78571 0.0
C846 C 0.19726 0.66376 0.84596 0.0
C847 C 0.21114 0.651 0.82229 0.0
C848 C 0.20554 0.63658 0.77857 0.0
H849 H 0.31696 0.6215 0.01818 0.0
H850 H 0.28343 0.62519 0.98605 0.0
C851 C 0.18638 0.63479 0.75969 0.0
C852 C 0.23106 0.65185 0.84758 0.0
H853 H 0.27796 0.65156 0.80145 0.0
C854 C 0.23383 0.65188 0.91523 0.0
C855 C 0.24722 0.65242 0.80616 0.0
C856 C 0.24539 0.65397 0.7333 0.0
C857 C 0.25225 0.65205 0.94253 0.0
C858 C 0.26839 0.65143 0.90108 0.0
C859 C 0.26562 0.65182 0.83343 0.0
C860 C 0.28831 0.65024 0.92622 0.0
C861 C 0.25411 0.65322 0.01546 0.0
C862 C 0.30229 0.66296 0.90313 0.0
C863 C 0.32147 0.66057 0.9202 0.0
C864 C 0.32706 0.64557 0.96148 0.0
C865 C 0.313 0.63337 0.98714 0.0
C866 C 0.29381 0.63552 0.96892 0.0
H867 H 0.24138 0.66015 0.03766 0.0
H868 H 0.25515 0.63854 0.03566 0.0
H869 H 0.26707 0.66136 0.03001 0.0
H870 H 0.29844 0.67444 0.87029 0.0
H871 H 0.33203 0.6702 0.89971 0.0
H872 H 0.63178 0.81629 0.29055 0.0
H873 H 0.63417 0.78214 0.26404 0.0
H874 H 0.66138 0.79617 0.08216 0.0
H875 H 0.6594 0.83004 0.10828 0.0
H876 H 0.61751 0.76431 0.15699 0.0
H877 H 0.69623 0.75449 0.15368 0.0
H878 H 0.68491 0.77501 0.19069 0.0
H879 H 0.68827 0.77406 0.10412 0.0
C880 C 0.63857 0.81209 0.24545 0.0
C881 C 0.64536 0.82595 0.20161 0.0
C882 C 0.63986 0.79258 0.23028 0.0
C883 C 0.64814 0.78663 0.17144 0.0
C884 C 0.65528 0.80041 0.12836 0.0
H885 H 0.62888 0.67853 0.9697 0.0
H886 H 0.63109 0.71252 0.99861 0.0
C887 C 0.65398 0.81982 0.14332 0.0
C888 C 0.64825 0.76616 0.1527 0.0
H889 H 0.67759 0.72965 0.10527 0.0
C890 C 0.63064 0.75668 0.14609 0.0
C891 C 0.66542 0.75623 0.13872 0.0
C892 C 0.68479 0.7654 0.14773 0.0
C893 C 0.62972 0.73762 0.12485 0.0
C894 C 0.64684 0.7279 0.10881 0.0
C895 C 0.66447 0.73726 0.11654 0.0
C896 C 0.64679 0.70763 0.08772 0.0
C897 C 0.61044 0.72793 0.12079 0.0
C898 C 0.65555 0.69378 0.12682 0.0
C899 C 0.6544 0.67446 0.11038 0.0
C900 C 0.64453 0.66856 0.05418 0.0
C901 C 0.63653 0.68256 0.01335 0.0
C902 C 0.63765 0.70197 0.03006 0.0
H903 H 0.59929 0.73589 0.14819 0.0
H904 H 0.60592 0.72716 0.0692 0.0
H905 H 0.61122 0.71311 0.14001 0.0
H906 H 0.6628 0.69787 0.17124 0.0
H907 H 0.66092 0.6641 0.14269 0.0
H908 H 0.66553 0.33827 0.84972 0.0
H909 H 0.69905 0.33537 0.81848 0.0
H910 H 0.71635 0.35576 0.0071 0.0
H911 H 0.68268 0.35889 0.03924 0.0
H912 H 0.72535 0.36855 0.82237 0.0
H913 H 0.74963 0.3063 0.96907 0.0
H914 H 0.72476 0.31025 0.94896 0.0
H915 H 0.73602 0.32437 0.01089 0.0
C916 C 0.67639 0.34195 0.88516 0.0
C917 C 0.67134 0.34895 0.94706 0.0
C918 C 0.69556 0.34027 0.867 0.0
C919 C 0.71011 0.3453 0.91049 0.0
C920 C 0.70526 0.35163 0.97309 0.0
H921 H 0.83199 0.35454 0.90617 0.0
H922 H 0.79808 0.35164 0.93005 0.0
C923 C 0.68602 0.35344 0.99132 0.0
C924 C 0.73027 0.34524 0.88849 0.0
H925 H 0.77342 0.32352 0.91194 0.0
C926 C 0.7359 0.35866 0.84154 0.0
C927 C 0.74387 0.3323 0.91373 0.0
C928 C 0.73835 0.31736 0.96316 0.0
C929 C 0.75499 0.35996 0.82071 0.0
C930 C 0.76871 0.34707 0.84621 0.0
C931 C 0.76291 0.33336 0.89223 0.0
C932 C 0.78938 0.34843 0.82978 0.0
C933 C 0.76038 0.37565 0.77376 0.0
C934 C 0.79592 0.34744 0.76521 0.0
C935 C 0.81547 0.34942 0.75107 0.0
C936 C 0.82881 0.35199 0.80146 0.0
C937 C 0.82218 0.35249 0.86603 0.0
C938 C 0.80274 0.35082 0.87991 0.0
H939 H 0.74941 0.38714 0.77223 0.0
H940 H 0.77435 0.38215 0.78694 0.0
H941 H 0.76162 0.36954 0.72418 0.0
H942 H 0.78594 0.34512 0.72577 0.0
H943 H 0.82013 0.34878 0.70094 0.0
H944 H 0.86897 0.68434 0.79808 0.0
H945 H 0.86753 0.71771 0.7618 0.0
H946 H 0.83269 0.70096 0.59858 0.0
H947 H 0.83382 0.66776 0.63453 0.0
H948 H 0.88128 0.7303 0.63945 0.0
H949 H 0.80432 0.74771 0.67205 0.0
H950 H 0.81562 0.72765 0.71181 0.0
H951 H 0.80887 0.72603 0.62777 0.0
C952 C 0.86063 0.68782 0.75533 0.0
C953 C 0.85155 0.67335 0.71918 0.0
C954 C 0.85993 0.70686 0.73445 0.0
C955 C 0.84994 0.71178 0.67767 0.0
C956 C 0.84026 0.69751 0.64297 0.0
H957 H 0.86962 0.81717 0.45355 0.0
H958 H 0.86639 0.78333 0.4837 0.0
C959 C 0.84101 0.67851 0.66355 0.0
C960 C 0.85072 0.73157 0.65207 0.0
H961 H 0.823 0.77007 0.61291 0.0
C962 C 0.86857 0.73905 0.63376 0.0
C963 C 0.83408 0.74286 0.64463 0.0
C964 C 0.81464 0.73577 0.66557 0.0
C965 C 0.87026 0.75762 0.60841 0.0
C966 C 0.85359 0.76886 0.60029 0.0
C967 C 0.83573 0.76133 0.61842 0.0
C968 C 0.85456 0.7891 0.57894 0.0
C969 C 0.88992 0.76523 0.59234 0.0
C970 C 0.84836 0.80346 0.62146 0.0
C971 C 0.85001 0.82265 0.60427 0.0
C972 C 0.85791 0.82802 0.54402 0.0
C973 C 0.86359 0.81357 0.50042 0.0
C974 C 0.86187 0.79424 0.51778 0.0
H975 H 0.90144 0.75632 0.61395 0.0
H976 H 0.89187 0.76524 0.53885 0.0
H977 H 0.89159 0.78015 0.60994 0.0
H978 H 0.84262 0.79982 0.66877 0.0
H979 H 0.84533 0.8333 0.6391 0.0
H980 H 0.81373 0.11678 0.52095 0.0
H981 H 0.78042 0.11881 0.4843 0.0
H982 H 0.79392 0.16977 0.37521 0.0
H983 H 0.82735 0.16724 0.40904 0.0
H984 H 0.75234 0.14339 0.49389 0.0
H985 H 0.77196 0.13762 0.2341 0.0
H986 H 0.78914 0.13421 0.29832 0.0
H987 H 0.78283 0.15798 0.27207 0.0
C988 C 0.80951 0.12853 0.4898 0.0
C989 C 0.82314 0.14172 0.46723 0.0
C990 C 0.7905 0.12964 0.46864 0.0
C991 C 0.78478 0.14409 0.42524 0.0
C992 C 0.79813 0.15807 0.40657 0.0
H993 H 0.66445 0.16755 0.34753 0.0
H994 H 0.69795 0.16969 0.38084 0.0
C995 C 0.81718 0.15673 0.42653 0.0
C996 C 0.76501 0.14431 0.39862 0.0
H997 H 0.73953 0.14554 0.25698 0.0
C998 C 0.74954 0.14379 0.44208 0.0
C999 C 0.76133 0.14444 0.33088 0.0
C1000 C 0.77719 0.14338 0.28117 0.0
C1001 C 0.73054 0.1436 0.4199 0.0
C1002 C 0.72686 0.1447 0.35227 0.0
C1003 C 0.74233 0.14501 0.30877 0.0
C1004 C 0.70708 0.14493 0.32573 0.0
C1005 C 0.71468 0.1416 0.46929 0.0
C1006 C 0.70133 0.13121 0.27973 0.0
C1007 C 0.68227 0.13034 0.25895 0.0
C1008 C 0.66863 0.14304 0.28448 0.0
C1009 C 0.67463 0.15742 0.32769 0.0
C1010 C 0.69373 0.15852 0.34733 0.0
H1011 H 0.71993 0.13503 0.51509 0.0
H1012 H 0.70899 0.15599 0.48138 0.0
H1013 H 0.70277 0.13271 0.45025 0.0
H1014 H 0.71142 0.12069 0.26179 0.0
H1015 H 0.67802 0.11907 0.22581 0.0
H1016 H 0.12355 0.31606 0.77038 0.0
H1017 H 0.12709 0.28288 0.73433 0.0
H1018 H 0.1762 0.29889 0.61918 0.0
H1019 H 0.17209 0.33217 0.65251 0.0
H1020 H 0.15337 0.279 0.54871 0.0
H1021 H 0.162 0.24037 0.78088 0.0
H1022 H 0.14038 0.25415 0.78064 0.0
H1023 H 0.16321 0.26609 0.77593 0.0
C1024 C 0.13535 0.31238 0.73859 0.0
C1025 C 0.14755 0.32666 0.7143 0.0
C1026 C 0.13742 0.29339 0.71813 0.0
C1027 C 0.15207 0.28826 0.67452 0.0
C1028 C 0.16477 0.30244 0.65269 0.0
H1029 H 0.17174 0.16788 0.58576 0.0
H1030 H 0.17598 0.20114 0.6197 0.0
C1031 C 0.16246 0.32144 0.67199 0.0
C1032 C 0.15322 0.26857 0.64731 0.0
H1033 H 0.15321 0.22131 0.68857 0.0
C1034 C 0.15359 0.26639 0.57941 0.0
C1035 C 0.1538 0.25207 0.68706 0.0
C1036 C 0.15504 0.25329 0.76013 0.0
C1037 C 0.1541 0.24824 0.55024 0.0
C1038 C 0.15344 0.23173 0.58995 0.0
C1039 C 0.15351 0.23392 0.65787 0.0
C1040 C 0.15234 0.21204 0.56261 0.0
C1041 C 0.15567 0.24707 0.47722 0.0
C1042 C 0.13794 0.20708 0.51791 0.0
C1043 C 0.13587 0.18815 0.49699 0.0
C1044 C 0.14777 0.17373 0.52199 0.0
C1045 C 0.1624 0.17874 0.56561 0.0
C1046 C 0.16476 0.19772 0.58527 0.0
H1047 H 0.16284 0.25996 0.45699 0.0
H1048 H 0.1638 0.23422 0.46164 0.0
H1049 H 0.1411 0.24639 0.45594 0.0
H1050 H 0.12778 0.21768 0.50115 0.0
H1051 H 0.12423 0.18462 0.46433 0.0
H1052 H 0.16699 0.82611 0.40436 0.0
H1053 H 0.20038 0.82149 0.37286 0.0
H1054 H 0.21631 0.87146 0.48364 0.0
H1055 H 0.183 0.87549 0.51803 0.0
H1056 H 0.22077 0.84341 0.30098 0.0
H1057 H 0.25839 0.83683 0.53589 0.0
H1058 H 0.23266 0.83577 0.52989 0.0
H1059 H 0.24479 0.85853 0.53252 0.0
C1060 C 0.17772 0.83582 0.4233 0.0
C1061 C 0.17247 0.8511 0.46395 0.0
C1062 C 0.19679 0.83322 0.40504 0.0
C1063 C 0.21098 0.84601 0.42618 0.0
C1064 C 0.20579 0.86106 0.46807 0.0
H1065 H 0.31614 0.87152 0.22095 0.0
H1066 H 0.28271 0.86828 0.25452 0.0
C1067 C 0.18673 0.86341 0.48758 0.0
C1068 C 0.23078 0.84447 0.40003 0.0
H1069 H 0.27789 0.84455 0.44358 0.0
C1070 C 0.23325 0.84342 0.33231 0.0
C1071 C 0.24712 0.84418 0.44063 0.0
C1072 C 0.2456 0.84367 0.51374 0.0
C1073 C 0.25153 0.8425 0.30411 0.0
C1074 C 0.26788 0.84343 0.34455 0.0
C1075 C 0.26541 0.84404 0.41232 0.0
C1076 C 0.2877 0.84409 0.31817 0.0
C1077 C 0.25304 0.84024 0.23138 0.0
C1078 C 0.30173 0.83166 0.34271 0.0
C1079 C 0.32088 0.8338 0.32473 0.0
C1080 C 0.32639 0.84825 0.28108 0.0
C1081 C 0.31225 0.86005 0.25381 0.0
C1082 C 0.29311 0.85816 0.2729 0.0
H1083 H 0.24014 0.83308 0.21116 0.0
H1084 H 0.25407 0.85459 0.20862 0.0
H1085 H 0.26586 0.83179 0.21747 0.0
H1086 H 0.29796 0.82066 0.37753 0.0
H1087 H 0.3315 0.8245 0.34655 0.0
H1088 H 0.20347 0.11099 0.61662 0.0
H1089 H 0.2305 0.11201 0.69171 0.0
H1090 H 0.19166 0.1192 0.85266 0.0
H1091 H 0.16436 0.11825 0.77761 0.0
H1092 H 0.23947 0.1429 0.78713 0.0
H1093 H 0.22632 0.07108 0.89553 0.0
H1094 H 0.21658 0.07802 0.81774 0.0
H1095 H 0.20627 0.08722 0.8912 0.0
C1096 C 0.20063 0.11276 0.66799 0.0
C1097 C 0.18177 0.11442 0.69133 0.0
C1098 C 0.2161 0.11341 0.71071 0.0
C1099 C 0.21301 0.11555 0.77751 0.0
C1100 C 0.19425 0.11737 0.80115 0.0
H1101 H 0.28921 0.11145 0.10707 0.0
H1102 H 0.26186 0.11358 0.03398 0.0
C1103 C 0.17871 0.11685 0.7583 0.0
C1104 C 0.22952 0.11565 0.82224 0.0
H1105 H 0.25208 0.08892 0.93758 0.0
C1106 C 0.24227 0.13114 0.82018 0.0
C1107 C 0.23303 0.10026 0.86498 0.0
C1108 C 0.21995 0.08309 0.86758 0.0
C1109 C 0.25843 0.13176 0.86065 0.0
C1110 C 0.26209 0.11623 0.90294 0.0
C1111 C 0.24925 0.10077 0.90498 0.0
C1112 C 0.27892 0.1158 0.94659 0.0
C1113 C 0.27117 0.14918 0.85878 0.0
C1114 C 0.29763 0.11629 0.92162 0.0
C1115 C 0.31339 0.11518 0.96346 0.0
C1116 C 0.31061 0.11333 0.03076 0.0
C1117 C 0.29184 0.11282 0.05542 0.0
C1118 C 0.27617 0.11404 0.01375 0.0
H1119 H 0.26372 0.16171 0.8373 0.0
H1120 H 0.27618 0.15306 0.90825 0.0
H1121 H 0.28392 0.14605 0.82841 0.0
H1122 H 0.30006 0.11723 0.86976 0.0
H1123 H 0.32768 0.11552 0.94311 0.0
H1124 H 0.10506 0.79306 0.3668 0.0
H1125 H 0.10651 0.76551 0.29414 0.0
H1126 H 0.12674 0.80173 0.13916 0.0
H1127 H 0.1253 0.82959 0.21181 0.0
H1128 H 0.08634 0.76271 0.16916 0.0
H1129 H 0.16552 0.75516 0.15108 0.0
H1130 H 0.15404 0.76776 0.21714 0.0
H1131 H 0.15572 0.7787 0.13856 0.0
C1132 C 0.10989 0.79522 0.31733 0.0
C1133 C 0.11506 0.81351 0.29494 0.0
C1134 C 0.1107 0.77944 0.27596 0.0
C1135 C 0.11688 0.78161 0.21168 0.0
C1136 C 0.12214 0.7998 0.18898 0.0
H1137 H 0.10445 0.70517 0.88642 0.0
H1138 H 0.10558 0.73237 0.9608 0.0
C1139 C 0.12121 0.81568 0.23034 0.0
C1140 C 0.11708 0.76483 0.16806 0.0
H1141 H 0.14676 0.73431 0.08658 0.0
C1142 C 0.09953 0.75649 0.15103 0.0
C1143 C 0.13435 0.75671 0.1453 0.0
C1144 C 0.15354 0.76489 0.1641 0.0
C1145 C 0.09878 0.74032 0.11084 0.0
C1146 C 0.11601 0.73237 0.0872 0.0
C1147 C 0.1336 0.74053 0.10489 0.0
C1148 C 0.1159 0.71589 0.04243 0.0
C1149 C 0.07959 0.73174 0.09399 0.0
C1150 C 0.12151 0.69769 0.06389 0.0
C1151 C 0.12077 0.68203 0.02157 0.0
C1152 C 0.11458 0.68446 0.95714 0.0
C1153 C 0.10924 0.70281 0.9358 0.0
C1154 C 0.10987 0.71837 0.97814 0.0
H1155 H 0.0679 0.73755 0.12484 0.0
H1156 H 0.07619 0.73495 0.04248 0.0
H1157 H 0.07999 0.71594 0.09952 0.0
H1158 H 0.12623 0.69558 0.1135 0.0
H1159 H 0.12505 0.66807 0.03924 0.0
H1160 H 0.70697 0.88417 0.10668 0.0
H1161 H 0.73383 0.88246 0.03116 0.0
H1162 H 0.69454 0.87709 0.87064 0.0
H1163 H 0.6674 0.87894 0.94617 0.0
H1164 H 0.74346 0.85327 0.93932 0.0
H1165 H 0.72865 0.92367 0.82353 0.0
H1166 H 0.71799 0.91664 0.89979 0.0
H1167 H 0.70906 0.90698 0.82486 0.0
C1168 C 0.70399 0.88261 0.05532 0.0
C1169 C 0.68506 0.88185 0.03225 0.0
C1170 C 0.71937 0.88157 0.01232 0.0
C1171 C 0.71614 0.87987 0.94544 0.0
C1172 C 0.69728 0.87868 0.92214 0.0
H1173 H 0.79419 0.88334 0.6192 0.0
H1174 H 0.76635 0.88034 0.68989 0.0
C1175 C 0.68182 0.87968 0.96528 0.0
C1176 C 0.73262 0.87973 0.90043 0.0
H1177 H 0.75467 0.90597 0.78252 0.0
C1178 C 0.74593 0.86474 0.90484 0.0
C1179 C 0.73575 0.89476 0.85582 0.0
C1180 C 0.72223 0.91154 0.85076 0.0
C1181 C 0.76229 0.86432 0.86528 0.0
C1182 C 0.76555 0.8795 0.82123 0.0
C1183 C 0.75213 0.89438 0.81647 0.0
C1184 C 0.7827 0.88026 0.77909 0.0
C1185 C 0.77577 0.84752 0.87025 0.0
C1186 C 0.80117 0.88124 0.80591 0.0
C1187 C 0.8172 0.8829 0.76549 0.0
C1188 C 0.81494 0.8838 0.69775 0.0
C1189 C 0.79642 0.88274 0.67122 0.0
C1190 C 0.78047 0.88101 0.71151 0.0
H1191 H 0.76876 0.83493 0.89307 0.0
H1192 H 0.78121 0.84329 0.82162 0.0
H1193 H 0.78821 0.85158 0.9008 0.0
H1194 H 0.80316 0.88108 0.85807 0.0
H1195 H 0.83128 0.88375 0.78727 0.0
H1196 H 0.87926 0.20502 0.38963 0.0
H1197 H 0.87727 0.23323 0.32013 0.0
H1198 H 0.87881 0.19713 0.15018 0.0
H1199 H 0.88033 0.16871 0.21965 0.0
H1200 H 0.90331 0.24538 0.23248 0.0
H1201 H 0.83401 0.23186 0.10958 0.0
H1202 H 0.84149 0.21874 0.18071 0.0
H1203 H 0.85058 0.21238 0.10181 0.0
C1204 C 0.87903 0.20305 0.33745 0.0
C1205 C 0.87994 0.18465 0.31001 0.0
C1206 C 0.87787 0.21919 0.29784 0.0
C1207 C 0.87762 0.21727 0.23006 0.0
C1208 C 0.87852 0.19891 0.20243 0.0
H1209 H 0.88764 0.29111 0.90136 0.0
H1210 H 0.88461 0.26496 0.97901 0.0
C1211 C 0.87953 0.18271 0.24211 0.0
C1212 C 0.8775 0.23457 0.18853 0.0
H1213 H 0.85363 0.25652 0.06458 0.0
C1214 C 0.89234 0.24793 0.19622 0.0
C1215 C 0.86313 0.23786 0.14146 0.0
C1216 C 0.8463 0.22455 0.13322 0.0
C1217 C 0.89356 0.2642 0.1566 0.0
C1218 C 0.87944 0.26726 0.10859 0.0
C1219 C 0.86442 0.25409 0.10158 0.0
C1220 C 0.8807 0.28338 0.06237 0.0
C1221 C 0.9103 0.27764 0.16486 0.0
C1222 C 0.87931 0.30243 0.08362 0.0
C1223 C 0.88109 0.31749 0.03923 0.0
C1224 C 0.88422 0.31367 0.97305 0.0
C1225 C 0.88531 0.29455 0.95205 0.0
C1226 C 0.88352 0.27957 0.99628 0.0
H1227 H 0.92178 0.27132 0.19543 0.0
H1228 H 0.91647 0.28153 0.11692 0.0
H1229 H 0.90531 0.29099 0.18863 0.0
H1230 H 0.87686 0.30562 0.13443 0.0
H1231 H 0.88007 0.33207 0.0567 0.0
H1232 H 0.16912 0.37994 0.4623 0.0
H1233 H 0.19703 0.37798 0.3901 0.0
H1234 H 0.23454 0.38653 0.55388 0.0
H1235 H 0.20691 0.38841 0.6261 0.0
H1236 H 0.22571 0.40695 0.37389 0.0
H1237 H 0.25661 0.33862 0.46307 0.0
H1238 H 0.23212 0.34553 0.47867 0.0
H1239 H 0.25125 0.3558 0.52541 0.0
C1240 C 0.18332 0.38131 0.48287 0.0
C1241 C 0.18583 0.38431 0.54982 0.0
C1242 C 0.19922 0.38017 0.44167 0.0
C1243 C 0.2178 0.38182 0.46696 0.0
C1244 C 0.22032 0.38484 0.53368 0.0
H1245 H 0.33262 0.38611 0.30317 0.0
H1246 H 0.30482 0.38498 0.37631 0.0
C1247 C 0.20449 0.38605 0.57476 0.0
C1248 C 0.23462 0.38135 0.42343 0.0
H1249 H 0.27603 0.3571 0.39197 0.0
C1250 C 0.23666 0.39599 0.37742 0.0
C1251 C 0.24892 0.36711 0.42881 0.0
C1252 C 0.24711 0.35076 0.47626 0.0
C1253 C 0.25282 0.39698 0.33722 0.0
C1254 C 0.26711 0.3827 0.34234 0.0
C1255 C 0.26507 0.36804 0.38837 0.0
C1256 C 0.28399 0.38251 0.29894 0.0
C1257 C 0.25465 0.41356 0.29065 0.0
C1258 C 0.28145 0.38099 0.23164 0.0
C1259 C 0.29717 0.38176 0.19008 0.0
C1260 C 0.31579 0.38382 0.21504 0.0
C1261 C 0.31842 0.38461 0.28264 0.0
C1262 C 0.30259 0.38396 0.32435 0.0
H1263 H 0.24553 0.42583 0.30548 0.0
H1264 H 0.26972 0.41853 0.2872 0.0
H1265 H 0.24997 0.40893 0.24162 0.0
H1266 H 0.26726 0.37936 0.21118 0.0
H1267 H 0.29468 0.38084 0.13825 0.0
H1268 H 0.35948 0.82584 0.51533 0.0
H1269 H 0.35672 0.79784 0.58655 0.0
H1270 H 0.40563 0.77227 0.49192 0.0
H1271 H 0.4075 0.79953 0.41819 0.0
H1272 H 0.37992 0.74682 0.50531 0.0
H1273 H 0.38652 0.78399 0.7421 0.0
H1274 H 0.36647 0.79226 0.6957 0.0
H1275 H 0.39044 0.7961 0.66603 0.0
C1276 C 0.3697 0.81427 0.51045 0.0
C1277 C 0.38376 0.81478 0.46177 0.0
C1278 C 0.3682 0.79833 0.55131 0.0
C1279 C 0.38118 0.78304 0.54552 0.0
C1280 C 0.39541 0.78383 0.49739 0.0
H1281 H 0.40667 0.69842 0.83434 0.0
H1282 H 0.40466 0.72601 0.762 0.0
C1283 C 0.39654 0.79943 0.45546 0.0
C1284 C 0.37978 0.76585 0.5877 0.0
H1285 H 0.37877 0.75104 0.74553 0.0
C1286 C 0.37977 0.74776 0.55791 0.0
C1287 C 0.37966 0.76703 0.65634 0.0
C1288 C 0.38096 0.78588 0.69194 0.0
C1289 C 0.38025 0.73085 0.59454 0.0
C1290 C 0.37971 0.73202 0.66317 0.0
C1291 C 0.37912 0.75011 0.69295 0.0
C1292 C 0.381 0.71483 0.70539 0.0
C1293 C 0.38225 0.71205 0.55903 0.0
C1294 C 0.36845 0.69925 0.6977 0.0
C1295 C 0.37008 0.68315 0.7377 0.0
C1296 C 0.38377 0.68274 0.78751 0.0
C1297 C 0.39601 0.69844 0.79613 0.0
C1298 C 0.39479 0.71422 0.755 0.0
H1299 H 0.38827 0.71406 0.50953 0.0
H1300 H 0.39164 0.70198 0.58592 0.0
H1301 H 0.36791 0.70541 0.55357 0.0
H1302 H 0.35727 0.6996 0.66135 0.0
H1303 H 0.36027 0.6713 0.73105 0.0
H1304 H 0.66627 0.61359 0.30896 0.0
H1305 H 0.6935 0.61563 0.38411 0.0
H1306 H 0.7326 0.61319 0.22221 0.0
H1307 H 0.70567 0.61118 0.14714 0.0
H1308 H 0.72433 0.58772 0.39338 0.0
H1309 H 0.75044 0.66039 0.32924 0.0
H1310 H 0.72648 0.65232 0.31083 0.0
H1311 H 0.74627 0.64475 0.26139 0.0
C1312 C 0.68067 0.61362 0.28947 0.0
C1313 C 0.68384 0.61223 0.22222 0.0
C1314 C 0.69617 0.61478 0.33235 0.0
C1315 C 0.71499 0.61481 0.30846 0.0
C1316 C 0.71816 0.61351 0.24142 0.0
H1317 H 0.82939 0.61561 0.47303 0.0
H1318 H 0.80144 0.61588 0.40074 0.0
C1319 C 0.70274 0.61225 0.19868 0.0
C1320 C 0.73146 0.61526 0.35343 0.0
H1321 H 0.77087 0.64138 0.39511 0.0
C1322 C 0.73444 0.5995 0.39429 0.0
C1323 C 0.74466 0.63058 0.35374 0.0
C1324 C 0.74179 0.64806 0.31188 0.0
C1325 C 0.75057 0.59846 0.43469 0.0
C1326 C 0.76379 0.61381 0.43516 0.0
C1327 C 0.76074 0.62962 0.39446 0.0
C1328 C 0.78068 0.61387 0.47854 0.0
C1329 C 0.75355 0.5807 0.47515 0.0
C1330 C 0.77821 0.61299 0.54602 0.0
C1331 C 0.79406 0.61271 0.58712 0.0
C1332 C 0.81271 0.61353 0.56159 0.0
C1333 C 0.81519 0.61487 0.49402 0.0
C1334 C 0.79927 0.61504 0.45277 0.0
H1335 H 0.74539 0.56832 0.4556 0.0
H1336 H 0.76894 0.57677 0.47749 0.0
H1337 H 0.74844 0.58342 0.52535 0.0
H1338 H 0.76399 0.61257 0.56697 0.0
H1339 H 0.79165 0.61189 0.63903 0.0
H1340 H 0.61003 0.2041 0.37771 0.0
H1341 H 0.61151 0.23123 0.4522 0.0
H1342 H 0.61515 0.19255 0.61486 0.0
H1343 H 0.61368 0.16514 0.54035 0.0
H1344 H 0.58632 0.22281 0.62329 0.0
H1345 H 0.65855 0.25024 0.55895 0.0
H1346 H 0.64299 0.24545 0.49132 0.0
H1347 H 0.65103 0.22604 0.54153 0.0
C1348 C 0.61125 0.20132 0.4293 0.0
C1349 C 0.61174 0.18248 0.45325 0.0
C1350 C 0.61221 0.21685 0.4717 0.0
C1351 C 0.61368 0.21385 0.53878 0.0
C1352 C 0.61416 0.19509 0.56306 0.0
H1353 H 0.60932 0.29054 0.86907 0.0
H1354 H 0.61027 0.26289 0.79697 0.0
C1355 C 0.61332 0.17949 0.52054 0.0
C1356 C 0.61377 0.23039 0.58346 0.0
H1357 H 0.63921 0.27022 0.6252 0.0
C1358 C 0.59793 0.23312 0.62421 0.0
C1359 C 0.62887 0.24385 0.58379 0.0
C1360 C 0.64642 0.24125 0.54198 0.0
C1361 C 0.59658 0.24923 0.66456 0.0
C1362 C 0.61172 0.2627 0.66513 0.0
C1363 C 0.62761 0.25991 0.62449 0.0
C1364 C 0.61148 0.27958 0.70855 0.0
C1365 C 0.57873 0.25193 0.7049 0.0
C1366 C 0.61248 0.29816 0.68283 0.0
C1367 C 0.61215 0.31408 0.72409 0.0
C1368 C 0.61083 0.3116 0.79167 0.0
C1369 C 0.61012 0.29295 0.81717 0.0
C1370 C 0.61057 0.27711 0.77603 0.0
H1371 H 0.56649 0.2436 0.68517 0.0
H1372 H 0.58148 0.24683 0.75507 0.0
H1373 H 0.57457 0.26724 0.70733 0.0
H1374 H 0.61334 0.30035 0.63081 0.0
H1375 H 0.6128 0.32827 0.70312 0.0
loop_
_geom_bond_atom_site_label_1
_geom_bond_atom_site_label_2
_geom_bond_distance
_geom_bond_site_symmetry_2
_ccdc_geom_bond_type
Co0 O1 2.216 . S
Co0 O2 2.091 . S
Co0 O4 2.004 . S
Co0 O10 2.021 . S
Co0 O12 2.137 . S
Co0 O13 2.244 . S
O1 Co0 2.216 . S
O1 C8 1.247 . S
O2 Co0 2.091 . S
O2 C8 1.261 . S
C3 O12 1.247 . S
C3 O13 1.272 . S
O4 Co0 2.004 . S
O4 C9 1.259 . S
Co5 O6 2.061 . S
Co5 O11 2.052 . S
Co5 O13 2.135 . S
O6 Co5 2.061 . S
O6 C9 1.235 . S
C7 O10 1.238 . S
C7 O11 1.241 . S
C8 O1 1.247 . S
C8 O2 1.261 . S
C9 O4 1.259 . S
C9 O6 1.235 . S
O10 Co0 2.021 . S
O10 C7 1.238 . S
O11 Co5 2.052 . S
O11 C7 1.241 . S
O12 Co0 2.137 . S
O12 C3 1.247 . S
O13 Co0 2.244 . S
O13 C3 1.272 . S
O13 Co5 2.135 . S
Co14 O15 2.216 . S
Co14 O16 2.091 . S
Co14 O18 2.004 . S
Co14 O24 2.021 . S
Co14 O26 2.137 . S
Co14 O27 2.244 . S
O15 Co14 2.216 . S
O15 C22 1.247 . S
O16 Co14 2.091 . S
O16 C22 1.261 . S
C17 O26 1.247 . S
C17 O27 1.272 . S
O18 Co14 2.004 . S
O18 C23 1.259 . S
Co19 O20 2.061 . S
Co19 O25 2.052 . S
Co19 O27 2.135 . S
O20 Co19 2.061 . S
O20 C23 1.235 . S
C21 O24 1.238 . S
C21 O25 1.241 . S
C22 O15 1.247 . S
C22 O16 1.261 . S
C23 O18 1.259 . S
C23 O20 1.235 . S
O24 Co14 2.021 . S
O24 C21 1.238 . S
O25 Co19 2.052 . S
O25 C21 1.241 . S
O26 Co14 2.137 . S
O26 C17 1.247 . S
O27 Co14 2.244 . S
O27 C17 1.272 . S
O27 Co19 2.135 . S
Co28 O29 2.216 . S
Co28 O30 2.091 . S
Co28 O32 2.004 . S
Co28 O38 2.021 . S
Co28 O40 2.137 . S
Co28 O41 2.244 . S
O29 Co28 2.216 . S
O29 C36 1.247 . S
O30 Co28 2.091 . S
O30 C36 1.261 . S
C31 O40 1.247 . S
C31 O41 1.272 . S
O32 Co28 2.004 . S
O32 C37 1.259 . S
Co33 O34 2.061 . S
Co33 O39 2.052 . S
Co33 O41 2.135 . S
O34 Co33 2.061 . S
O34 C37 1.235 . S
C35 O38 1.238 . S
C35 O39 1.241 . S
C36 O29 1.247 . S
C36 O30 1.261 . S
C37 O32 1.259 . S
C37 O34 1.235 . S
O38 Co28 2.021 . S
O38 C35 1.238 . S
O39 Co33 2.052 . S
O39 C35 1.241 . S
O40 Co28 2.137 . S
O40 C31 1.247 . S
O41 Co28 2.244 . S
O41 C31 1.272 . S
O41 Co33 2.135 . S
Co42 O43 2.216 . S
Co42 O44 2.091 . S
Co42 O46 2.004 . S
Co42 O52 2.021 . S
Co42 O54 2.137 . S
Co42 O55 2.244 . S
O43 Co42 2.216 . S
O43 C50 1.247 . S
O44 Co42 2.091 . S
O44 C50 1.261 . S
C45 O54 1.247 . S
C45 O55 1.272 . S
O46 Co42 2.004 . S
O46 C51 1.259 . S
Co47 O48 2.061 . S
Co47 O53 2.052 . S
Co47 O55 2.135 . S
O48 Co47 2.061 . S
O48 C51 1.235 . S
C49 O52 1.238 . S
C49 O53 1.241 . S
C50 O43 1.247 . S
C50 O44 1.261 . S
C51 O46 1.259 . S
C51 O48 1.235 . S
O52 Co42 2.021 . S
O52 C49 1.238 . S
O53 Co47 2.052 . S
O53 C49 1.241 . S
O54 Co42 2.137 . S
O54 C45 1.247 . S
O55 Co42 2.244 . S
O55 C45 1.272 . S
O55 Co47 2.135 . S
Co56 O57 2.216 . S
Co56 O58 2.091 . S
Co56 O60 2.004 . S
Co56 O66 2.021 . S
Co56 O68 2.137 . S
Co56 O69 2.244 . S
O57 Co56 2.216 . S
O57 C64 1.247 . S
O58 Co56 2.091 . S
O58 C64 1.261 . S
C59 O68 1.247 . S
C59 O69 1.272 . S
O60 Co56 2.004 . S
O60 C65 1.259 . S
Co61 O62 2.061 1_556 S
Co61 O67 2.052 . S
Co61 O69 2.135 1_556 S
O62 Co61 2.061 1_554 S
O62 C65 1.235 . S
C63 O66 1.238 . S
C63 O67 1.241 1_554 S
C64 O57 1.247 . S
C64 O58 1.261 . S
C65 O60 1.259 . S
C65 O62 1.235 . S
O66 Co56 2.021 . S
O66 C63 1.238 . S
O67 Co61 2.052 . S
O67 C63 1.241 1_556 S
O68 Co56 2.137 . S
O68 C59 1.247 . S
O69 Co56 2.244 . S
O69 C59 1.272 . S
O69 Co61 2.135 1_554 S
Co70 O71 2.216 . S
Co70 O72 2.091 . S
Co70 O74 2.004 . S
Co70 O80 2.021 . S
Co70 O82 2.137 . S
Co70 O83 2.244 . S
O71 Co70 2.216 . S
O71 C78 1.247 . S
O72 Co70 2.091 . S
O72 C78 1.261 . S
C73 O82 1.247 . S
C73 O83 1.272 . S
O74 Co70 2.004 . S
O74 C79 1.259 . S
Co75 O76 2.061 1_554 S
Co75 O81 2.052 . S
Co75 O83 2.135 1_554 S
O76 Co75 2.061 1_556 S
O76 C79 1.235 . S
C77 O80 1.238 . S
C77 O81 1.241 1_556 S
C78 O71 1.247 . S
C78 O72 1.261 . S
C79 O74 1.259 . S
C79 O76 1.235 . S
O80 Co70 2.021 . S
O80 C77 1.238 . S
O81 Co75 2.052 . S
O81 C77 1.241 1_554 S
O82 Co70 2.137 . S
O82 C73 1.247 . S
O83 Co70 2.244 . S
O83 C73 1.272 . S
O83 Co75 2.135 1_556 S
Co84 O85 2.216 . S
Co84 O86 2.091 . S
Co84 O88 2.004 . S
Co84 O94 2.021 . S
Co84 O96 2.137 . S
Co84 O97 2.244 . S
O85 Co84 2.216 . S
O85 C92 1.247 . S
O86 Co84 2.091 . S
O86 C92 1.261 . S
C87 O96 1.247 . S
C87 O97 1.272 . S
O88 Co84 2.004 . S
O88 C93 1.259 . S
Co89 O90 2.061 1_556 S
Co89 O95 2.052 . S
Co89 O97 2.135 1_556 S
O90 Co89 2.061 1_554 S
O90 C93 1.235 . S
C91 O94 1.238 . S
C91 O95 1.241 1_554 S
C92 O85 1.247 . S
C92 O86 1.261 . S
C93 O88 1.259 . S
C93 O90 1.235 . S
O94 Co84 2.021 . S
O94 C91 1.238 . S
O95 Co89 2.052 . S
O95 C91 1.241 1_556 S
O96 Co84 2.137 . S
O96 C87 1.247 . S
O97 Co84 2.244 . S
O97 C87 1.272 . S
O97 Co89 2.135 1_554 S
Co98 O99 2.216 . S
Co98 O100 2.091 . S
Co98 O102 2.004 . S
Co98 O108 2.021 . S
Co98 O110 2.137 . S
Co98 O111 2.244 . S
O99 Co98 2.216 . S
O99 C106 1.247 . S
O100 Co98 2.091 . S
O100 C106 1.261 . S
C101 O110 1.247 . S
C101 O111 1.272 . S
O102 Co98 2.004 . S
O102 C107 1.259 . S
Co103 O104 2.061 1_554 S
Co103 O109 2.052 . S
Co103 O111 2.135 1_554 S
O104 Co103 2.061 1_556 S
O104 C107 1.235 . S
C105 O108 1.238 . S
C105 O109 1.241 1_556 S
C106 O99 1.247 . S
C106 O100 1.261 . S
C107 O102 1.259 . S
C107 O104 1.235 . S
O108 Co98 2.021 . S
O108 C105 1.238 . S
O109 Co103 2.052 . S
O109 C105 1.241 1_554 S
O110 Co98 2.137 . S
O110 C101 1.247 . S
O111 Co98 2.244 . S
O111 C101 1.272 . S
O111 Co103 2.135 1_556 S
Co112 O113 2.216 . S
Co112 O114 2.091 . S
Co112 O116 2.004 . S
Co112 O122 2.021 . S
Co112 O124 2.137 . S
Co112 O125 2.244 . S
O113 Co112 2.216 . S
O113 C120 1.247 . S
O114 Co112 2.091 . S
O114 C120 1.261 . S
C115 O124 1.247 . S
C115 O125 1.272 . S
O116 Co112 2.004 . S
O116 C121 1.259 . S
Co117 O118 2.061 . S
Co117 O123 2.052 . S
Co117 O125 2.135 . S
O118 Co117 2.061 . S
O118 C121 1.235 . S
C119 O122 1.238 . S
C119 O123 1.241 . S
C120 O113 1.247 . S
C120 O114 1.261 . S
C121 O116 1.259 . S
C121 O118 1.235 . S
O122 Co112 2.021 . S
O122 C119 1.238 . S
O123 Co117 2.052 . S
O123 C119 1.241 . S
O124 Co112 2.137 . S
O124 C115 1.247 . S
O125 Co112 2.244 . S
O125 C115 1.272 . S
O125 Co117 2.135 . S
Co126 O127 2.216 . S
Co126 O128 2.091 . S
Co126 O130 2.004 . S
Co126 O136 2.021 . S
Co126 O138 2.137 . S
Co126 O139 2.244 . S
O127 Co126 2.216 . S
O127 C134 1.247 . S
O128 Co126 2.091 . S
O128 C134 1.261 . S
C129 O138 1.247 . S
C129 O139 1.272 . S
O130 Co126 2.004 . S
O130 C135 1.259 . S
Co131 O132 2.061 . S
Co131 O137 2.052 . S
Co131 O139 2.135 . S
O132 Co131 2.061 . S
O132 C135 1.235 . S
C133 O136 1.238 . S
C133 O137 1.241 . S
C134 O127 1.247 . S
C134 O128 1.261 . S
C135 O130 1.259 . S
C135 O132 1.235 . S
O136 Co126 2.021 . S
O136 C133 1.238 . S
O137 Co131 2.052 . S
O137 C133 1.241 . S
O138 Co126 2.137 . S
O138 C129 1.247 . S
O139 Co126 2.244 . S
O139 C129 1.272 . S
O139 Co131 2.135 . S
Co140 O141 2.216 . S
Co140 O142 2.091 . S
Co140 O144 2.004 . S
Co140 O150 2.021 . S
Co140 O152 2.137 . S
Co140 O153 2.244 . S
O141 Co140 2.216 . S
O141 C148 1.247 . S
O142 Co140 2.091 . S
O142 C148 1.261 . S
C143 O152 1.247 . S
C143 O153 1.272 . S
O144 Co140 2.004 . S
O144 C149 1.259 . S
Co145 O146 2.061 . S
Co145 O151 2.052 . S
Co145 O153 2.135 . S
O146 Co145 2.061 . S
O146 C149 1.235 . S
C147 O150 1.238 . S
C147 O151 1.241 . S
C148 O141 1.247 . S
C148 O142 1.261 . S
C149 O144 1.259 . S
C149 O146 1.235 . S
O150 Co140 2.021 . S
O150 C147 1.238 . S
O151 Co145 2.052 . S
O151 C147 1.241 . S
O152 Co140 2.137 . S
O152 C143 1.247 . S
O153 Co140 2.244 . S
O153 C143 1.272 . S
O153 Co145 2.135 . S
Co154 O155 2.216 . S
Co154 O156 2.091 . S
Co154 O158 2.004 . S
Co154 O164 2.021 . S
Co154 O166 2.137 . S
Co154 O167 2.244 . S
O155 Co154 2.216 . S
O155 C162 1.247 . S
O156 Co154 2.091 . S
O156 C162 1.261 . S
C157 O166 1.247 . S
C157 O167 1.272 . S
O158 Co154 2.004 . S
O158 C163 1.259 . S
Co159 O160 2.061 . S
Co159 O165 2.052 . S
Co159 O167 2.135 . S
O160 Co159 2.061 . S
O160 C163 1.235 . S
C161 O164 1.238 . S
C161 O165 1.241 . S
C162 O155 1.247 . S
C162 O156 1.261 . S
C163 O158 1.259 . S
C163 O160 1.235 . S
O164 Co154 2.021 . S
O164 C161 1.238 . S
O165 Co159 2.052 . S
O165 C161 1.241 . S
O166 Co154 2.137 . S
O166 C157 1.247 . S
O167 Co154 2.244 . S
O167 C157 1.272 . S
O167 Co159 2.135 . S
Co168 O169 2.216 . S
Co168 O170 2.091 . S
Co168 O172 2.004 . S
Co168 O178 2.021 . S
Co168 O180 2.137 . S
Co168 O181 2.244 . S
O169 Co168 2.216 . S
O169 C176 1.247 . S
O170 Co168 2.091 . S
O170 C176 1.261 . S
C171 O180 1.247 . S
C171 O181 1.272 . S
O172 Co168 2.004 . S
O172 C177 1.259 . S
Co173 O174 2.061 . S
Co173 O179 2.052 . S
Co173 O181 2.135 . S
O174 Co173 2.061 . S
O174 C177 1.235 . S
C175 O178 1.238 . S
C175 O179 1.241 . S
C176 O169 1.247 . S
C176 O170 1.261 . S
C177 O172 1.259 . S
C177 O174 1.235 . S
O178 Co168 2.021 . S
O178 C175 1.238 . S
O179 Co173 2.052 . S
O179 C175 1.241 . S
O180 Co168 2.137 . S
O180 C171 1.247 . S
O181 Co168 2.244 . S
O181 C171 1.272 . S
O181 Co173 2.135 . S
Co182 O183 2.216 . S
Co182 O184 2.091 . S
Co182 O186 2.004 . S
Co182 O192 2.021 . S
Co182 O194 2.137 . S
Co182 O195 2.244 . S
O183 Co182 2.216 . S
O183 C190 1.247 . S
O184 Co182 2.091 . S
O184 C190 1.261 . S
C185 O194 1.247 . S
C185 O195 1.272 . S
O186 Co182 2.004 . S
O186 C191 1.259 . S
Co187 O188 2.061 . S
Co187 O193 2.052 . S
Co187 O195 2.135 . S
O188 Co187 2.061 . S
O188 C191 1.235 . S
C189 O192 1.238 . S
C189 O193 1.241 . S
C190 O183 1.247 . S
C190 O184 1.261 . S
C191 O186 1.259 . S
C191 O188 1.235 . S
O192 Co182 2.021 . S
O192 C189 1.238 . S
O193 Co187 2.052 . S
O193 C189 1.241 . S
O194 Co182 2.137 . S
O194 C185 1.247 . S
O195 Co182 2.244 . S
O195 C185 1.272 . S
O195 Co187 2.135 . S
Co196 O197 2.216 . S
Co196 O198 2.091 . S
Co196 O200 2.004 . S
Co196 O206 2.021 . S
Co196 O208 2.137 . S
Co196 O209 2.244 . S
O197 Co196 2.216 . S
O197 C204 1.247 . S
O198 Co196 2.091 . S
O198 C204 1.261 . S
C199 O208 1.247 . S
C199 O209 1.272 . S
O200 Co196 2.004 . S
O200 C205 1.259 . S
Co201 O202 2.061 . S
Co201 O207 2.052 . S
Co201 O209 2.135 . S
O202 Co201 2.061 . S
O202 C205 1.235 . S
C203 O206 1.238 . S
C203 O207 1.241 . S
C204 O197 1.247 . S
C204 O198 1.261 . S
C205 O200 1.259 . S
C205 O202 1.235 . S
O206 Co196 2.021 . S
O206 C203 1.238 . S
O207 Co201 2.052 . S
O207 C203 1.241 . S
O208 Co196 2.137 . S
O208 C199 1.247 . S
O209 Co196 2.244 . S
O209 C199 1.272 . S
O209 Co201 2.135 . S
Co210 O211 2.216 . S
Co210 O212 2.091 . S
Co210 O214 2.004 . S
Co210 O220 2.021 . S
Co210 O222 2.137 . S
Co210 O223 2.244 . S
O211 Co210 2.216 . S
O211 C218 1.247 . S
O212 Co210 2.091 . S
O212 C218 1.261 . S
C213 O222 1.247 . S
C213 O223 1.272 . S
O214 Co210 2.004 . S
O214 C219 1.259 . S
Co215 O216 2.061 . S
Co215 O221 2.052 . S
Co215 O223 2.135 . S
O216 Co215 2.061 . S
O216 C219 1.235 . S
C217 O220 1.238 . S
C217 O221 1.241 . S
C218 O211 1.247 . S
C218 O212 1.261 . S
C219 O214 1.259 . S
C219 O216 1.235 . S
O220 Co210 2.021 . S
O220 C217 1.238 . S
O221 Co215 2.052 . S
O221 C217 1.241 . S
O222 Co210 2.137 . S
O222 C213 1.247 . S
O223 Co210 2.244 . S
O223 C213 1.272 . S
O223 Co215 2.135 . S
H224 C232 0.929 . S
H225 C234 0.930 . S
H226 C236 0.930 . S
H227 C239 0.929 . S
H228 C242 0.930 . S
H229 C244 0.960 1_545 S
H230 C244 0.960 . S
H231 C244 0.960 . S
C232 H224 0.929 . S
C232 C233 1.377 . S
C232 C234 1.384 . S
C233 C232 1.377 . S
C233 C239 1.390 . S
C234 H225 0.930 . S
C234 C232 1.384 . S
C234 C235 1.372 . S
C235 C234 1.372 . S
C235 C236 1.400 . S
C235 C240 1.490 . S
C236 H226 0.930 . S
C236 C235 1.400 . S
C236 C239 1.386 . S
H237 C253 0.930 . S
H238 C254 0.931 . S
C239 H227 0.929 . S
C239 C233 1.390 . S
C239 C236 1.386 . S
C240 C235 1.490 . S
C240 C242 1.395 . S
C240 C243 1.403 . S
H241 C247 0.930 . S
C242 H228 0.930 . S
C242 C240 1.395 . S
C242 C245 1.403 1_565 S
C243 C240 1.403 . S
C243 C244 1.524 . S
C243 C247 1.400 1_565 S
C244 H229 0.960 1_565 S
C244 H230 0.960 . S
C244 H231 0.960 . S
C244 C243 1.524 . S
C245 C242 1.403 1_545 S
C245 C246 1.392 . S
C245 C249 1.495 . S
C246 C245 1.392 . S
C246 C247 1.385 . S
C246 C248 1.478 . S
C247 H241 0.930 . S
C247 C243 1.400 1_545 S
C247 C246 1.385 . S
C248 C246 1.478 . S
C248 C250 1.381 . S
C248 C254 1.383 . S
C249 C245 1.495 . S
C249 H255 0.959 1_545 S
C249 H256 0.961 . S
C249 H257 0.960 . S
C250 C248 1.381 . S
C250 C251 1.394 . S
C250 H258 0.930 . S
C251 C250 1.394 . S
C251 C252 1.383 . S
C251 H259 0.929 . S
C252 C251 1.383 . S
C252 C253 1.377 . S
C253 H237 0.930 . S
C253 C252 1.377 . S
C253 C254 1.379 . S
C254 H238 0.931 . S
C254 C248 1.383 . S
C254 C253 1.379 . S
H255 C249 0.959 1_565 S
H256 C249 0.961 . S
H257 C249 0.960 . S
H258 C250 0.930 . S
H259 C251 0.929 . S
H260 C268 0.929 . S
H261 C270 0.930 . S
H262 C272 0.930 . S
H263 C275 0.929 . S
H264 C278 0.930 . S
H265 C280 0.960 . S
H266 C280 0.960 . S
H267 C280 0.960 . S
C268 H260 0.929 . S
C268 C269 1.377 . S
C268 C270 1.384 . S
C269 C268 1.377 . S
C269 C275 1.390 . S
C270 H261 0.930 . S
C270 C268 1.384 . S
C270 C271 1.372 . S
C271 C270 1.372 . S
C271 C272 1.400 . S
C271 C276 1.490 . S
C272 H262 0.930 . S
C272 C271 1.400 . S
C272 C275 1.386 . S
H273 C289 0.930 . S
H274 C290 0.931 . S
C275 H263 0.929 . S
C275 C269 1.390 . S
C275 C272 1.386 . S
C276 C271 1.490 . S
C276 C278 1.395 . S
C276 C279 1.403 . S
H277 C283 0.930 . S
C278 H264 0.930 . S
C278 C276 1.395 . S
C278 C281 1.403 1_455 S
C279 C276 1.403 . S
C279 C280 1.524 . S
C279 C283 1.400 1_455 S
C280 H265 0.960 . S
C280 H266 0.960 . S
C280 H267 0.960 . S
C280 C279 1.524 . S
C281 C278 1.403 1_655 S
C281 C282 1.392 . S
C281 C285 1.495 . S
C282 C281 1.392 . S
C282 C283 1.385 . S
C282 C284 1.478 . S
C283 H277 0.930 . S
C283 C279 1.400 1_655 S
C283 C282 1.385 . S
C284 C282 1.478 . S
C284 C286 1.381 . S
C284 C290 1.383 . S
C285 C281 1.495 . S
C285 H291 0.959 . S
C285 H292 0.961 . S
C285 H293 0.960 . S
C286 C284 1.381 . S
C286 C287 1.394 . S
C286 H294 0.930 . S
C287 C286 1.394 . S
C287 C288 1.383 . S
C287 H295 0.929 . S
C288 C287 1.383 . S
C288 C289 1.377 . S
C289 H273 0.930 . S
C289 C288 1.377 . S
C289 C290 1.379 . S
C290 H274 0.931 . S
C290 C284 1.383 . S
C290 C289 1.379 . S
H291 C285 0.959 . S
H292 C285 0.961 . S
H293 C285 0.960 . S
H294 C286 0.930 . S
H295 C287 0.929 . S
H296 C304 0.929 . S
H297 C306 0.930 . S
H298 C308 0.930 . S
H299 C311 0.929 . S
H300 C314 0.930 . S
H301 C316 0.960 . S
H302 C316 0.960 . S
H303 C316 0.960 . S
C304 H296 0.929 . S
C304 C305 1.377 . S
C304 C306 1.384 . S
C305 C304 1.377 . S
C305 C311 1.390 . S
C306 H297 0.930 . S
C306 C304 1.384 . S
C306 C307 1.372 . S
C307 C306 1.372 . S
C307 C308 1.400 . S
C307 C312 1.490 . S
C308 H298 0.930 . S
C308 C307 1.400 . S
C308 C311 1.386 . S
H309 C325 0.930 . S
H310 C326 0.931 . S
C311 H299 0.929 . S
C311 C305 1.390 . S
C311 C308 1.386 . S
C312 C307 1.490 . S
C312 C314 1.395 . S
C312 C315 1.403 . S
H313 C319 0.930 . S
C314 H300 0.930 . S
C314 C312 1.395 . S
C314 C317 1.403 1_565 S
C315 C312 1.403 . S
C315 C316 1.524 . S
C315 C319 1.400 1_565 S
C316 H301 0.960 . S
C316 H302 0.960 . S
C316 H303 0.960 . S
C316 C315 1.524 . S
C317 C314 1.403 1_545 S
C317 C318 1.392 . S
C317 C321 1.495 . S
C318 C317 1.392 . S
C318 C319 1.385 . S
C318 C320 1.478 . S
C319 H313 0.930 . S
C319 C315 1.400 1_545 S
C319 C318 1.385 . S
C320 C318 1.478 . S
C320 C322 1.381 . S
C320 C326 1.383 . S
C321 C317 1.495 . S
C321 H327 0.959 . S
C321 H328 0.961 . S
C321 H329 0.960 . S
C322 C320 1.381 . S
C322 C323 1.394 . S
C322 H330 0.930 . S
C323 C322 1.394 . S
C323 C324 1.383 . S
C323 H331 0.929 . S
C324 C323 1.383 . S
C324 C325 1.377 . S
C325 H309 0.930 . S
C325 C324 1.377 . S
C325 C326 1.379 . S
C326 H310 0.931 . S
C326 C320 1.383 . S
C326 C325 1.379 . S
H327 C321 0.959 . S
H328 C321 0.961 . S
H329 C321 0.960 . S
H330 C322 0.930 . S
H331 C323 0.929 . S
H332 C340 0.929 . S
H333 C342 0.930 . S
H334 C344 0.930 . S
H335 C347 0.929 . S
H336 C350 0.930 . S
H337 C352 0.960 . S
H338 C352 0.960 . S
H339 C352 0.960 . S
C340 H332 0.929 . S
C340 C341 1.377 . S
C340 C342 1.384 . S
C341 C340 1.377 . S
C341 C347 1.390 . S
C342 H333 0.930 . S
C342 C340 1.384 . S
C342 C343 1.372 . S
C343 C342 1.372 . S
C343 C344 1.400 . S
C343 C348 1.490 . S
C344 H334 0.930 . S
C344 C343 1.400 . S
C344 C347 1.386 . S
H345 C361 0.930 . S
H346 C362 0.931 . S
C347 H335 0.929 . S
C347 C341 1.390 . S
C347 C344 1.386 . S
C348 C343 1.490 . S
C348 C350 1.395 . S
C348 C351 1.403 . S
H349 C355 0.930 . S
C350 H336 0.930 . S
C350 C348 1.395 . S
C350 C353 1.403 1_455 S
C351 C348 1.403 . S
C351 C352 1.524 . S
C351 C355 1.400 1_455 S
C352 H337 0.960 . S
C352 H338 0.960 . S
C352 H339 0.960 . S
C352 C351 1.524 . S
C353 C350 1.403 1_655 S
C353 C354 1.392 . S
C353 C357 1.495 . S
C354 C353 1.392 . S
C354 C355 1.385 . S
C354 C356 1.478 . S
C355 H349 0.930 . S
C355 C351 1.400 1_655 S
C355 C354 1.385 . S
C356 C354 1.478 . S
C356 C358 1.381 . S
C356 C362 1.383 . S
C357 C353 1.495 . S
C357 H363 0.959 . S
C357 H364 0.961 . S
C357 H365 0.960 . S
C358 C356 1.381 . S
C358 C359 1.394 . S
C358 H366 0.930 . S
C359 C358 1.394 . S
C359 C360 1.383 . S
C359 H367 0.929 . S
C360 C359 1.383 . S
C360 C361 1.377 . S
C361 H345 0.930 . S
C361 C360 1.377 . S
C361 C362 1.379 . S
C362 H346 0.931 . S
C362 C356 1.383 . S
C362 C361 1.379 . S
H363 C357 0.959 . S
H364 C357 0.961 . S
H365 C357 0.960 . S
H366 C358 0.930 . S
H367 C359 0.929 . S
H368 C376 0.929 . S
H369 C378 0.930 . S
H370 C380 0.930 . S
H371 C383 0.929 . S
H372 C386 0.930 . S
H373 C388 0.960 . S
H374 C388 0.960 . S
H375 C388 0.960 . S
C376 H368 0.929 . S
C376 C377 1.377 . S
C376 C378 1.384 . S
C377 C376 1.377 . S
C377 C383 1.390 1_554 S
C378 H369 0.930 . S
C378 C376 1.384 . S
C378 C379 1.372 1_554 S
C379 C378 1.372 1_556 S
C379 C380 1.400 . S
C379 C384 1.490 . S
C380 H370 0.930 . S
C380 C379 1.400 . S
C380 C383 1.386 . S
H381 C397 0.930 . S
H382 C398 0.931 . S
C383 H371 0.929 . S
C383 C377 1.390 1_556 S
C383 C380 1.386 . S
C384 C379 1.490 . S
C384 C386 1.395 . S
C384 C387 1.403 1_556 S
H385 C391 0.930 1_554 S
C386 H372 0.930 . S
C386 C384 1.395 . S
C386 C389 1.403 . S
C387 C384 1.403 1_554 S
C387 C388 1.524 . S
C387 C391 1.400 1_554 S
C388 H373 0.960 . S
C388 H374 0.960 . S
C388 H375 0.960 . S
C388 C387 1.524 . S
C389 C386 1.403 . S
C389 C390 1.392 . S
C389 C393 1.495 . S
C390 C389 1.392 . S
C390 C391 1.385 . S
C390 C392 1.478 . S
C391 H385 0.930 1_556 S
C391 C387 1.400 1_556 S
C391 C390 1.385 . S
C392 C390 1.478 . S
C392 C394 1.381 . S
C392 C398 1.383 . S
C393 C389 1.495 . S
C393 H399 0.959 . S
C393 H400 0.961 . S
C393 H401 0.960 . S
C394 C392 1.381 . S
C394 C395 1.394 . S
C394 H402 0.930 . S
C395 C394 1.394 . S
C395 C396 1.383 . S
C395 H403 0.929 . S
C396 C395 1.383 . S
C396 C397 1.377 . S
C397 H381 0.930 . S
C397 C396 1.377 . S
C397 C398 1.379 . S
C398 H382 0.931 . S
C398 C392 1.383 . S
C398 C397 1.379 . S
H399 C393 0.959 . S
H400 C393 0.961 . S
H401 C393 0.960 . S
H402 C394 0.930 . S
H403 C395 0.929 . S
H404 C412 0.929 . S
H405 C414 0.930 . S
H406 C416 0.930 . S
H407 C419 0.929 . S
H408 C422 0.930 . S
H409 C424 0.960 . S
H410 C424 0.960 . S
H411 C424 0.960 . S
C412 H404 0.929 . S
C412 C413 1.377 1_554 S
C412 C414 1.384 . S
C413 C412 1.377 1_556 S
C413 C419 1.390 . S
C414 H405 0.930 . S
C414 C412 1.384 . S
C414 C415 1.372 . S
C415 C414 1.372 . S
C415 C416 1.400 1_554 S
C415 C420 1.490 . S
C416 H406 0.930 . S
C416 C415 1.400 1_556 S
C416 C419 1.386 . S
H417 C433 0.930 . S
H418 C434 0.931 1_556 S
C419 H407 0.929 . S
C419 C413 1.390 . S
C419 C416 1.386 . S
C420 C415 1.490 . S
C420 C422 1.395 . S
C420 C423 1.402 . S
H421 C427 0.930 1_556 S
C422 H408 0.930 . S
C422 C420 1.395 . S
C422 C425 1.403 . S
C423 C420 1.402 . S
C423 C424 1.525 1_554 S
C423 C427 1.399 . S
C424 H409 0.960 . S
C424 H410 0.960 . S
C424 H411 0.960 . S
C424 C423 1.525 1_556 S
C425 C422 1.403 . S
C425 C426 1.392 . S
C425 C429 1.495 . S
C426 C425 1.392 . S
C426 C427 1.385 . S
C426 C428 1.478 . S
C427 H421 0.930 1_554 S
C427 C423 1.399 . S
C427 C426 1.385 . S
C428 C426 1.478 . S
C428 C430 1.381 . S
C428 C434 1.383 . S
C429 C425 1.495 . S
C429 H435 0.959 . S
C429 H436 0.961 . S
C429 H437 0.960 . S
C430 C428 1.381 . S
C430 C431 1.394 . S
C430 H438 0.930 . S
C431 C430 1.394 . S
C431 C432 1.383 . S
C431 H439 0.929 . S
C432 C431 1.383 . S
C432 C433 1.377 . S
C433 H417 0.930 . S
C433 C432 1.377 . S
C433 C434 1.379 . S
C434 H418 0.931 1_554 S
C434 C428 1.383 . S
C434 C433 1.379 . S
H435 C429 0.959 . S
H436 C429 0.961 . S
H437 C429 0.960 . S
H438 C430 0.930 . S
H439 C431 0.929 . S
H440 C448 0.929 . S
H441 C450 0.930 1_554 S
H442 C452 0.930 . S
H443 C455 0.929 . S
H444 C458 0.930 . S
H445 C460 0.960 . S
H446 C460 0.960 . S
H447 C460 0.960 . S
C448 H440 0.929 . S
C448 C449 1.377 . S
C448 C450 1.384 . S
C449 C448 1.377 . S
C449 C455 1.390 . S
C450 H441 0.930 1_556 S
C450 C448 1.384 . S
C450 C451 1.372 . S
C451 C450 1.372 . S
C451 C452 1.400 . S
C451 C456 1.490 . S
C452 H442 0.930 . S
C452 C451 1.400 . S
C452 C455 1.386 . S
H453 C469 0.930 . S
H454 C470 0.931 . S
C455 H443 0.929 . S
C455 C449 1.390 . S
C455 C452 1.386 . S
C456 C451 1.490 . S
C456 C458 1.395 1_556 S
C456 C459 1.403 . S
H457 C463 0.930 . S
C458 H444 0.930 . S
C458 C456 1.395 1_554 S
C458 C461 1.403 . S
C459 C456 1.403 . S
C459 C460 1.524 . S
C459 C463 1.400 . S
C460 H445 0.960 . S
C460 H446 0.960 . S
C460 H447 0.960 . S
C460 C459 1.524 . S
C461 C458 1.403 . S
C461 C462 1.392 1_554 S
C461 C465 1.495 . S
C462 C461 1.392 1_556 S
C462 C463 1.385 . S
C462 C464 1.478 . S
C463 H457 0.930 . S
C463 C459 1.400 . S
C463 C462 1.385 . S
C464 C462 1.478 . S
C464 C466 1.381 1_556 S
C464 C470 1.383 . S
C465 C461 1.495 . S
C465 H471 0.959 . S
C465 H472 0.961 . S
C465 H473 0.960 . S
C466 C464 1.381 1_554 S
C466 C467 1.394 . S
C466 H474 0.930 . S
C467 C466 1.394 . S
C467 C468 1.383 . S
C467 H475 0.929 . S
C468 C467 1.383 . S
C468 C469 1.377 1_554 S
C469 H453 0.930 . S
C469 C468 1.377 1_556 S
C469 C470 1.379 . S
C470 H454 0.931 . S
C470 C464 1.383 . S
C470 C469 1.379 . S
H471 C465 0.959 . S
H472 C465 0.961 . S
H473 C465 0.960 . S
H474 C466 0.930 . S
H475 C467 0.929 . S
H476 C484 0.929 . S
H477 C486 0.930 . S
H478 C488 0.930 . S
H479 C491 0.929 . S
H480 C494 0.930 . S
H481 C496 0.960 . S
H482 C496 0.960 . S
H483 C496 0.960 1_554 S
C484 H476 0.929 . S
C484 C485 1.377 . S
C484 C486 1.384 . S
C485 C484 1.377 . S
C485 C491 1.390 . S
C486 H477 0.930 . S
C486 C484 1.384 . S
C486 C487 1.372 . S
C487 C486 1.372 . S
C487 C488 1.400 . S
C487 C492 1.490 . S
C488 H478 0.930 . S
C488 C487 1.400 . S
C488 C491 1.386 . S
H489 C505 0.930 . S
H490 C506 0.931 . S
C491 H479 0.929 . S
C491 C485 1.390 . S
C491 C488 1.386 . S
C492 C487 1.490 . S
C492 C494 1.395 . S
C492 C495 1.403 . S
H493 C499 0.930 1_556 S
C494 H480 0.930 . S
C494 C492 1.395 . S
C494 C497 1.403 . S
C495 C492 1.403 . S
C495 C496 1.524 1_554 S
C495 C499 1.400 . S
C496 H481 0.960 . S
C496 H482 0.960 . S
C496 H483 0.960 1_556 S
C496 C495 1.524 1_556 S
C497 C494 1.403 . S
C497 C498 1.392 . S
C497 C501 1.495 . S
C498 C497 1.392 . S
C498 C499 1.385 . S
C498 C500 1.478 . S
C499 H493 0.930 1_554 S
C499 C495 1.400 . S
C499 C498 1.385 . S
C500 C498 1.478 . S
C500 C502 1.381 1_554 S
C500 C506 1.383 . S
C501 C497 1.495 . S
C501 H507 0.959 . S
C501 H508 0.961 . S
C501 H509 0.960 . S
C502 C500 1.381 1_556 S
C502 C503 1.394 . S
C502 H510 0.930 . S
C503 C502 1.394 . S
C503 C504 1.383 . S
C503 H511 0.929 . S
C504 C503 1.383 . S
C504 C505 1.377 1_556 S
C505 H489 0.930 . S
C505 C504 1.377 1_554 S
C505 C506 1.379 . S
C506 H490 0.931 . S
C506 C500 1.383 . S
C506 C505 1.379 . S
H507 C501 0.959 . S
H508 C501 0.961 . S
H509 C501 0.960 . S
H510 C502 0.930 . S
H511 C503 0.929 . S
H512 C520 0.929 . S
H513 C522 0.930 . S
H514 C524 0.930 . S
H515 C527 0.929 . S
H516 C530 0.930 . S
H517 C532 0.960 . S
H518 C532 0.960 . S
H519 C532 0.960 . S
C520 H512 0.929 . S
C520 C521 1.377 . S
C520 C522 1.384 . S
C521 C520 1.377 . S
C521 C527 1.390 . S
C522 H513 0.930 . S
C522 C520 1.384 . S
C522 C523 1.372 . S
C523 C522 1.372 . S
C523 C524 1.400 . S
C523 C528 1.490 . S
C524 H514 0.930 . S
C524 C523 1.400 . S
C524 C527 1.386 . S
H525 C541 0.930 . S
H526 C542 0.931 . S
C527 H515 0.929 . S
C527 C521 1.390 . S
C527 C524 1.386 . S
C528 C523 1.490 . S
C528 C530 1.395 . S
C528 C531 1.403 . S
H529 C535 0.930 . S
C530 H516 0.930 . S
C530 C528 1.395 . S
C530 C533 1.403 . S
C531 C528 1.403 . S
C531 C532 1.524 . S
C531 C535 1.400 . S
C532 H517 0.960 . S
C532 H518 0.960 . S
C532 H519 0.960 . S
C532 C531 1.524 . S
C533 C530 1.403 . S
C533 C534 1.392 . S
C533 C537 1.495 . S
C534 C533 1.392 . S
C534 C535 1.385 . S
C534 C536 1.478 . S
C535 H529 0.930 . S
C535 C531 1.400 . S
C535 C534 1.385 . S
C536 C534 1.478 . S
C536 C538 1.381 . S
C536 C542 1.383 . S
C537 C533 1.495 . S
C537 H543 0.959 . S
C537 H544 0.961 . S
C537 H545 0.960 . S
C538 C536 1.381 . S
C538 C539 1.394 . S
C538 H546 0.930 . S
C539 C538 1.394 . S
C539 C540 1.383 . S
C539 H547 0.929 . S
C540 C539 1.383 . S
C540 C541 1.377 . S
C541 H525 0.930 . S
C541 C540 1.377 . S
C541 C542 1.379 . S
C542 H526 0.931 . S
C542 C536 1.383 . S
C542 C541 1.379 . S
H543 C537 0.959 . S
H544 C537 0.961 . S
H545 C537 0.960 . S
H546 C538 0.930 . S
H547 C539 0.929 . S
H548 C556 0.929 . S
H549 C558 0.930 . S
H550 C560 0.930 . S
H551 C563 0.929 . S
H552 C566 0.930 . S
H553 C568 0.960 . S
H554 C568 0.960 . S
H555 C568 0.960 . S
C556 H548 0.929 . S
C556 C557 1.377 . S
C556 C558 1.384 . S
C557 C556 1.377 . S
C557 C563 1.390 . S
C558 H549 0.930 . S
C558 C556 1.384 . S
C558 C559 1.372 . S
C559 C558 1.372 . S
C559 C560 1.400 . S
C559 C564 1.490 . S
C560 H550 0.930 . S
C560 C559 1.400 . S
C560 C563 1.386 . S
H561 C577 0.930 . S
H562 C578 0.931 . S
C563 H551 0.929 . S
C563 C557 1.390 . S
C563 C560 1.386 . S
C564 C559 1.490 . S
C564 C566 1.395 . S
C564 C567 1.403 . S
H565 C571 0.930 . S
C566 H552 0.930 . S
C566 C564 1.395 . S
C566 C569 1.403 . S
C567 C564 1.403 . S
C567 C568 1.524 . S
C567 C571 1.400 . S
C568 H553 0.960 . S
C568 H554 0.960 . S
C568 H555 0.960 . S
C568 C567 1.524 . S
C569 C566 1.403 . S
C569 C570 1.392 . S
C569 C573 1.495 . S
C570 C569 1.392 . S
C570 C571 1.385 . S
C570 C572 1.478 . S
C571 H565 0.930 . S
C571 C567 1.400 . S
C571 C570 1.385 . S
C572 C570 1.478 . S
C572 C574 1.381 . S
C572 C578 1.383 . S
C573 C569 1.495 . S
C573 H579 0.959 . S
C573 H580 0.961 . S
C573 H581 0.960 . S
C574 C572 1.381 . S
C574 C575 1.394 . S
C574 H582 0.930 . S
C575 C574 1.394 . S
C575 C576 1.383 . S
C575 H583 0.929 . S
C576 C575 1.383 . S
C576 C577 1.377 . S
C577 H561 0.930 . S
C577 C576 1.377 . S
C577 C578 1.379 . S
C578 H562 0.931 . S
C578 C572 1.383 . S
C578 C577 1.379 . S
H579 C573 0.959 . S
H580 C573 0.961 . S
H581 C573 0.960 . S
H582 C574 0.930 . S
H583 C575 0.929 . S
H584 C592 0.929 . S
H585 C594 0.930 . S
H586 C596 0.930 . S
H587 C599 0.929 . S
H588 C602 0.930 . S
H589 C604 0.960 . S
H590 C604 0.960 . S
H591 C604 0.960 . S
C592 H584 0.929 . S
C592 C593 1.377 . S
C592 C594 1.384 . S
C593 C592 1.377 . S
C593 C599 1.390 . S
C594 H585 0.930 . S
C594 C592 1.384 . S
C594 C595 1.372 . S
C595 C594 1.372 . S
C595 C596 1.400 . S
C595 C600 1.490 . S
C596 H586 0.930 . S
C596 C595 1.400 . S
C596 C599 1.386 . S
H597 C613 0.930 . S
H598 C614 0.931 . S
C599 H587 0.929 . S
C599 C593 1.390 . S
C599 C596 1.386 . S
C600 C595 1.490 . S
C600 C602 1.395 . S
C600 C603 1.403 . S
H601 C607 0.930 . S
C602 H588 0.930 . S
C602 C600 1.395 . S
C602 C605 1.403 . S
C603 C600 1.403 . S
C603 C604 1.524 . S
C603 C607 1.400 . S
C604 H589 0.960 . S
C604 H590 0.960 . S
C604 H591 0.960 . S
C604 C603 1.524 . S
C605 C602 1.403 . S
C605 C606 1.392 . S
C605 C609 1.495 . S
C606 C605 1.392 . S
C606 C607 1.385 . S
C606 C608 1.478 . S
C607 H601 0.930 . S
C607 C603 1.400 . S
C607 C606 1.385 . S
C608 C606 1.478 . S
C608 C610 1.381 . S
C608 C614 1.383 . S
C609 C605 1.495 . S
C609 H615 0.959 . S
C609 H616 0.961 . S
C609 H617 0.960 . S
C610 C608 1.381 . S
C610 C611 1.394 . S
C610 H618 0.930 . S
C611 C610 1.394 . S
C611 C612 1.383 . S
C611 H619 0.929 . S
C612 C611 1.383 . S
C612 C613 1.377 . S
C613 H597 0.930 . S
C613 C612 1.377 . S
C613 C614 1.379 . S
C614 H598 0.931 . S
C614 C608 1.383 . S
C614 C613 1.379 . S
H615 C609 0.959 . S
H616 C609 0.961 . S
H617 C609 0.960 . S
H618 C610 0.930 . S
H619 C611 0.929 . S
H620 C628 0.929 . S
H621 C630 0.930 . S
H622 C632 0.930 . S
H623 C635 0.929 . S
H624 C638 0.930 . S
H625 C640 0.960 . S
H626 C640 0.960 . S
H627 C640 0.960 . S
C628 H620 0.929 . S
C628 C629 1.377 . S
C628 C630 1.384 . S
C629 C628 1.377 . S
C629 C635 1.390 . S
C630 H621 0.930 . S
C630 C628 1.384 . S
C630 C631 1.372 . S
C631 C630 1.372 . S
C631 C632 1.400 . S
C631 C636 1.490 . S
C632 H622 0.930 . S
C632 C631 1.400 . S
C632 C635 1.386 . S
H633 C649 0.930 . S
H634 C650 0.931 . S
C635 H623 0.929 . S
C635 C629 1.390 . S
C635 C632 1.386 . S
C636 C631 1.490 . S
C636 C638 1.395 . S
C636 C639 1.403 . S
H637 C643 0.930 . S
C638 H624 0.930 . S
C638 C636 1.395 . S
C638 C641 1.403 . S
C639 C636 1.403 . S
C639 C640 1.524 . S
C639 C643 1.400 . S
C640 H625 0.960 . S
C640 H626 0.960 . S
C640 H627 0.960 . S
C640 C639 1.524 . S
C641 C638 1.403 . S
C641 C642 1.392 . S
C641 C645 1.495 . S
C642 C641 1.392 . S
C642 C643 1.385 . S
C642 C644 1.478 . S
C643 H637 0.930 . S
C643 C639 1.400 . S
C643 C642 1.385 . S
C644 C642 1.478 . S
C644 C646 1.381 . S
C644 C650 1.383 . S
C645 C641 1.495 . S
C645 H651 0.959 . S
C645 H652 0.961 . S
C645 H653 0.960 . S
C646 C644 1.381 . S
C646 C647 1.394 . S
C646 H654 0.930 . S
C647 C646 1.394 . S
C647 C648 1.383 . S
C647 H655 0.929 . S
C648 C647 1.383 . S
C648 C649 1.377 . S
C649 H633 0.930 . S
C649 C648 1.377 . S
C649 C650 1.379 . S
C650 H634 0.931 . S
C650 C644 1.383 . S
C650 C649 1.379 . S
H651 C645 0.959 . S
H652 C645 0.961 . S
H653 C645 0.960 . S
H654 C646 0.930 . S
H655 C647 0.929 . S
H656 C664 0.929 . S
H657 C666 0.930 . S
H658 C668 0.930 . S
H659 C671 0.929 . S
H660 C674 0.930 . S
H661 C676 0.960 . S
H662 C676 0.960 . S
H663 C676 0.960 . S
C664 H656 0.929 . S
C664 C665 1.377 . S
C664 C666 1.384 . S
C665 C664 1.377 . S
C665 C671 1.390 . S
C666 H657 0.930 . S
C666 C664 1.384 . S
C666 C667 1.372 . S
C667 C666 1.372 . S
C667 C668 1.400 . S
C667 C672 1.490 . S
C668 H658 0.930 . S
C668 C667 1.400 . S
C668 C671 1.386 . S
H669 C685 0.930 . S
H670 C686 0.931 . S
C671 H659 0.929 . S
C671 C665 1.390 . S
C671 C668 1.386 . S
C672 C667 1.490 . S
C672 C674 1.395 . S
C672 C675 1.403 . S
H673 C679 0.930 . S
C674 H660 0.930 . S
C674 C672 1.395 . S
C674 C677 1.403 1_565 S
C675 C672 1.403 . S
C675 C676 1.524 . S
C675 C679 1.400 1_565 S
C676 H661 0.960 . S
C676 H662 0.960 . S
C676 H663 0.960 . S
C676 C675 1.524 . S
C677 C674 1.403 1_545 S
C677 C678 1.392 . S
C677 C681 1.495 . S
C678 C677 1.392 . S
C678 C679 1.385 . S
C678 C680 1.478 . S
C679 H673 0.930 . S
C679 C675 1.400 1_545 S
C679 C678 1.385 . S
C680 C678 1.478 . S
C680 C682 1.381 . S
C680 C686 1.383 . S
C681 C677 1.495 . S
C681 H687 0.959 . S
C681 H688 0.961 . S
C681 H689 0.960 . S
C682 C680 1.381 . S
C682 C683 1.394 . S
C682 H690 0.930 . S
C683 C682 1.394 . S
C683 C684 1.383 . S
C683 H691 0.929 . S
C684 C683 1.383 . S
C684 C685 1.377 . S
C685 H669 0.930 . S
C685 C684 1.377 . S
C685 C686 1.379 . S
C686 H670 0.931 . S
C686 C680 1.383 . S
C686 C685 1.379 . S
H687 C681 0.959 . S
H688 C681 0.961 . S
H689 C681 0.960 . S
H690 C682 0.930 . S
H691 C683 0.929 . S
H692 C700 0.929 . S
H693 C702 0.930 . S
H694 C704 0.930 . S
H695 C707 0.929 . S
H696 C710 0.930 . S
H697 C712 0.960 . S
H698 C712 0.960 . S
H699 C712 0.960 . S
C700 H692 0.929 . S
C700 C701 1.377 . S
C700 C702 1.384 . S
C701 C700 1.377 . S
C701 C707 1.390 . S
C702 H693 0.930 . S
C702 C700 1.384 . S
C702 C703 1.372 . S
C703 C702 1.372 . S
C703 C704 1.400 . S
C703 C708 1.490 . S
C704 H694 0.930 . S
C704 C703 1.400 . S
C704 C707 1.386 . S
H705 C721 0.930 . S
H706 C722 0.931 . S
C707 H695 0.929 . S
C707 C701 1.390 . S
C707 C704 1.386 . S
C708 C703 1.490 . S
C708 C710 1.395 . S
C708 C711 1.403 . S
H709 C715 0.930 . S
C710 H696 0.930 . S
C710 C708 1.395 . S
C710 C713 1.403 1_655 S
C711 C708 1.403 . S
C711 C712 1.524 . S
C711 C715 1.400 1_655 S
C712 H697 0.960 . S
C712 H698 0.960 . S
C712 H699 0.960 . S
C712 C711 1.524 . S
C713 C710 1.403 1_455 S
C713 C714 1.392 . S
C713 C717 1.495 . S
C714 C713 1.392 . S
C714 C715 1.385 . S
C714 C716 1.478 . S
C715 H709 0.930 . S
C715 C711 1.400 1_455 S
C715 C714 1.385 . S
C716 C714 1.478 . S
C716 C718 1.381 . S
C716 C722 1.383 . S
C717 C713 1.495 . S
C717 H723 0.959 . S
C717 H724 0.961 . S
C717 H725 0.960 . S
C718 C716 1.381 . S
C718 C719 1.394 . S
C718 H726 0.930 . S
C719 C718 1.394 . S
C719 C720 1.383 . S
C719 H727 0.929 . S
C720 C719 1.383 . S
C720 C721 1.377 . S
C721 H705 0.930 . S
C721 C720 1.377 . S
C721 C722 1.379 . S
C722 H706 0.931 . S
C722 C716 1.383 . S
C722 C721 1.379 . S
H723 C717 0.959 . S
H724 C717 0.961 . S
H725 C717 0.960 . S
H726 C718 0.930 . S
H727 C719 0.929 . S
H728 C736 0.929 . S
H729 C738 0.930 . S
H730 C740 0.930 . S
H731 C743 0.929 . S
H732 C746 0.930 . S
H733 C748 0.960 . S
H734 C748 0.960 . S
H735 C748 0.960 . S
C736 H728 0.929 . S
C736 C737 1.377 . S
C736 C738 1.384 . S
C737 C736 1.377 . S
C737 C743 1.390 . S
C738 H729 0.930 . S
C738 C736 1.384 . S
C738 C739 1.372 . S
C739 C738 1.372 . S
C739 C740 1.400 . S
C739 C744 1.490 . S
C740 H730 0.930 . S
C740 C739 1.400 . S
C740 C743 1.386 . S
H741 C757 0.930 . S
H742 C758 0.931 . S
C743 H731 0.929 . S
C743 C737 1.390 . S
C743 C740 1.386 . S
C744 C739 1.490 . S
C744 C746 1.395 . S
C744 C747 1.403 . S
H745 C751 0.930 . S
C746 H732 0.930 . S
C746 C744 1.395 . S
C746 C749 1.403 1_565 S
C747 C744 1.403 . S
C747 C748 1.524 . S
C747 C751 1.400 1_565 S
C748 H733 0.960 . S
C748 H734 0.960 . S
C748 H735 0.960 . S
C748 C747 1.524 . S
C749 C746 1.403 1_545 S
C749 C750 1.392 . S
C749 C753 1.495 . S
C750 C749 1.392 . S
C750 C751 1.385 . S
C750 C752 1.478 . S
C751 H745 0.930 . S
C751 C747 1.400 1_545 S
C751 C750 1.385 . S
C752 C750 1.478 . S
C752 C754 1.381 . S
C752 C758 1.383 . S
C753 C749 1.495 . S
C753 H759 0.959 . S
C753 H760 0.961 . S
C753 H761 0.960 . S
C754 C752 1.381 . S
C754 C755 1.394 . S
C754 H762 0.930 . S
C755 C754 1.394 . S
C755 C756 1.383 . S
C755 H763 0.929 . S
C756 C755 1.383 . S
C756 C757 1.377 . S
C757 H741 0.930 . S
C757 C756 1.377 . S
C757 C758 1.379 . S
C758 H742 0.931 . S
C758 C752 1.383 . S
C758 C757 1.379 . S
H759 C753 0.959 . S
H760 C753 0.961 . S
H761 C753 0.960 . S
H762 C754 0.930 . S
H763 C755 0.929 . S
H764 C772 0.929 . S
H765 C774 0.930 . S
H766 C776 0.930 . S
H767 C779 0.929 . S
H768 C782 0.930 . S
H769 C784 0.960 . S
H770 C784 0.960 . S
H771 C784 0.960 . S
C772 H764 0.929 . S
C772 C773 1.377 . S
C772 C774 1.384 . S
C773 C772 1.377 . S
C773 C779 1.390 . S
C774 H765 0.930 . S
C774 C772 1.384 . S
C774 C775 1.372 . S
C775 C774 1.372 . S
C775 C776 1.400 . S
C775 C780 1.490 . S
C776 H766 0.930 . S
C776 C775 1.400 . S
C776 C779 1.386 . S
H777 C793 0.930 . S
H778 C794 0.931 . S
C779 H767 0.929 . S
C779 C773 1.390 . S
C779 C776 1.386 . S
C780 C775 1.490 . S
C780 C782 1.395 . S
C780 C783 1.403 . S
H781 C787 0.930 . S
C782 H768 0.930 . S
C782 C780 1.395 . S
C782 C785 1.403 1_655 S
C783 C780 1.403 . S
C783 C784 1.524 . S
C783 C787 1.400 1_655 S
C784 H769 0.960 . S
C784 H770 0.960 . S
C784 H771 0.960 . S
C784 C783 1.524 . S
C785 C782 1.403 1_455 S
C785 C786 1.392 . S
C785 C789 1.495 . S
C786 C785 1.392 . S
C786 C787 1.385 . S
C786 C788 1.478 . S
C787 H781 0.930 . S
C787 C783 1.400 1_455 S
C787 C786 1.385 . S
C788 C786 1.478 . S
C788 C790 1.381 . S
C788 C794 1.383 . S
C789 C785 1.495 . S
C789 H795 0.959 . S
C789 H796 0.961 . S
C789 H797 0.960 . S
C790 C788 1.381 . S
C790 C791 1.394 . S
C790 H798 0.930 . S
C791 C790 1.394 . S
C791 C792 1.383 . S
C791 H799 0.929 . S
C792 C791 1.383 . S
C792 C793 1.377 . S
C793 H777 0.930 . S
C793 C792 1.377 . S
C793 C794 1.379 . S
C794 H778 0.931 . S
C794 C788 1.383 . S
C794 C793 1.379 . S
H795 C789 0.959 . S
H796 C789 0.961 . S
H797 C789 0.960 . S
H798 C790 0.930 . S
H799 C791 0.929 . S
H800 C808 0.929 . S
H801 C810 0.930 . S
H802 C812 0.930 . S
H803 C815 0.929 1_556 S
H804 C818 0.930 . S
H805 C820 0.960 1_556 S
H806 C820 0.960 . S
H807 C820 0.960 1_556 S
C808 H800 0.929 . S
C808 C809 1.377 . S
C808 C810 1.384 . S
C809 C808 1.377 . S
C809 C815 1.390 . S
C810 H801 0.930 . S
C810 C808 1.384 . S
C810 C811 1.372 . S
C811 C810 1.372 . S
C811 C812 1.400 . S
C811 C816 1.490 . S
C812 H802 0.930 . S
C812 C811 1.400 . S
C812 C815 1.386 . S
H813 C829 0.930 . S
H814 C830 0.931 . S
C815 H803 0.929 1_554 S
C815 C809 1.390 . S
C815 C812 1.386 . S
C816 C811 1.490 . S
C816 C818 1.395 . S
C816 C819 1.403 . S
H817 C823 0.930 . S
C818 H804 0.930 . S
C818 C816 1.395 . S
C818 C821 1.403 . S
C819 C816 1.403 . S
C819 C820 1.524 . S
C819 C823 1.400 . S
C820 H805 0.960 1_554 S
C820 H806 0.960 . S
C820 H807 0.960 1_554 S
C820 C819 1.524 . S
C821 C818 1.403 . S
C821 C822 1.392 . S
C821 C825 1.495 . S
C822 C821 1.392 . S
C822 C823 1.385 . S
C822 C824 1.478 . S
C823 H817 0.930 . S
C823 C819 1.400 . S
C823 C822 1.385 . S
C824 C822 1.478 . S
C824 C826 1.381 . S
C824 C830 1.383 . S
C825 C821 1.495 . S
C825 H831 0.959 . S
C825 H832 0.961 . S
C825 H833 0.960 . S
C826 C824 1.381 . S
C826 C827 1.394 . S
C826 H834 0.930 . S
C827 C826 1.394 . S
C827 C828 1.383 . S
C827 H835 0.929 . S
C828 C827 1.383 . S
C828 C829 1.377 . S
C829 H813 0.930 . S
C829 C828 1.377 . S
C829 C830 1.379 . S
C830 H814 0.931 . S
C830 C824 1.383 . S
C830 C829 1.379 . S
H831 C825 0.959 . S
H832 C825 0.961 . S
H833 C825 0.960 . S
H834 C826 0.930 . S
H835 C827 0.929 . S
H836 C844 0.929 . S
H837 C846 0.930 . S
H838 C848 0.930 . S
H839 C851 0.929 . S
H840 C854 0.930 . S
H841 C856 0.960 . S
H842 C856 0.960 . S
H843 C856 0.960 . S
C844 H836 0.929 . S
C844 C845 1.377 . S
C844 C846 1.384 . S
C845 C844 1.377 . S
C845 C851 1.390 . S
C846 H837 0.930 . S
C846 C844 1.384 . S
C846 C847 1.372 . S
C847 C846 1.372 . S
C847 C848 1.400 . S
C847 C852 1.490 . S
C848 H838 0.930 . S
C848 C847 1.400 . S
C848 C851 1.386 . S
H849 C865 0.930 . S
H850 C866 0.931 . S
C851 H839 0.929 . S
C851 C845 1.390 . S
C851 C848 1.386 . S
C852 C847 1.490 . S
C852 C854 1.395 . S
C852 C855 1.403 . S
H853 C859 0.930 . S
C854 H840 0.930 . S
C854 C852 1.395 . S
C854 C857 1.403 . S
C855 C852 1.403 . S
C855 C856 1.524 . S
C855 C859 1.400 . S
C856 H841 0.960 . S
C856 H842 0.960 . S
C856 H843 0.960 . S
C856 C855 1.524 . S
C857 C854 1.403 . S
C857 C858 1.392 . S
C857 C861 1.501 . S
C858 C857 1.392 . S
C858 C859 1.385 . S
C858 C860 1.478 . S
C859 H853 0.930 . S
C859 C855 1.400 . S
C859 C858 1.385 . S
C860 C858 1.478 . S
C860 C862 1.381 . S
C860 C866 1.383 . S
C861 C857 1.501 . S
C861 H867 0.957 1_556 S
C861 H868 0.957 1_556 S
C861 H869 0.961 . S
C862 C860 1.381 . S
C862 C863 1.394 . S
C862 H870 0.930 . S
C863 C862 1.394 . S
C863 C864 1.383 . S
C863 H871 0.929 . S
C864 C863 1.383 . S
C864 C865 1.377 . S
C865 H849 0.930 . S
C865 C864 1.377 . S
C865 C866 1.379 . S
C866 H850 0.931 . S
C866 C860 1.383 . S
C866 C865 1.379 . S
H867 C861 0.957 1_554 S
H868 C861 0.957 1_554 S
H869 C861 0.961 . S
H870 C862 0.930 . S
H871 C863 0.929 . S
H872 C880 0.929 . S
H873 C882 0.930 . S
H874 C884 0.930 . S
H875 C887 0.929 . S
H876 C890 0.930 . S
H877 C892 0.960 . S
H878 C892 0.960 . S
H879 C892 0.960 . S
C880 H872 0.929 . S
C880 C881 1.377 . S
C880 C882 1.384 . S
C881 C880 1.377 . S
C881 C887 1.390 . S
C882 H873 0.930 . S
C882 C880 1.384 . S
C882 C883 1.372 . S
C883 C882 1.372 . S
C883 C884 1.400 . S
C883 C888 1.490 . S
C884 H874 0.930 . S
C884 C883 1.400 . S
C884 C887 1.386 . S
H885 C901 0.930 1_556 S
H886 C902 0.931 . S
C887 H875 0.929 . S
C887 C881 1.390 . S
C887 C884 1.386 . S
C888 C883 1.490 . S
C888 C890 1.395 . S
C888 C891 1.403 . S
H889 C895 0.930 . S
C890 H876 0.930 . S
C890 C888 1.395 . S
C890 C893 1.403 . S
C891 C888 1.403 . S
C891 C892 1.524 . S
C891 C895 1.400 . S
C892 H877 0.960 . S
C892 H878 0.960 . S
C892 H879 0.960 . S
C892 C891 1.524 . S
C893 C890 1.403 . S
C893 C894 1.392 . S
C893 C897 1.495 . S
C894 C893 1.392 . S
C894 C895 1.385 . S
C894 C896 1.478 . S
C895 H889 0.930 . S
C895 C891 1.400 . S
C895 C894 1.385 . S
C896 C894 1.478 . S
C896 C898 1.381 . S
C896 C902 1.383 . S
C897 C893 1.495 . S
C897 H903 0.959 . S
C897 H904 0.961 . S
C897 H905 0.960 . S
C898 C896 1.381 . S
C898 C899 1.394 . S
C898 H906 0.930 . S
C899 C898 1.394 . S
C899 C900 1.383 . S
C899 H907 0.929 . S
C900 C899 1.383 . S
C900 C901 1.377 . S
C901 H885 0.930 1_554 S
C901 C900 1.377 . S
C901 C902 1.379 . S
C902 H886 0.931 . S
C902 C896 1.383 . S
C902 C901 1.379 . S
H903 C897 0.959 . S
H904 C897 0.961 . S
H905 C897 0.960 . S
H906 C898 0.930 . S
H907 C899 0.929 . S
H908 C916 0.929 . S
H909 C918 0.930 . S
H910 C920 0.930 . S
H911 C923 0.917 1_554 S
H912 C926 0.930 . S
H913 C928 0.960 . S
H914 C928 0.960 . S
H915 C928 0.960 . S
C916 H908 0.929 . S
C916 C917 1.377 . S
C916 C918 1.384 . S
C917 C916 1.377 . S
C917 C923 1.390 . S
C918 H909 0.930 . S
C918 C916 1.384 . S
C918 C919 1.372 . S
C919 C918 1.372 . S
C919 C920 1.400 . S
C919 C924 1.490 . S
C920 H910 0.930 . S
C920 C919 1.400 . S
C920 C923 1.386 . S
H921 C937 0.930 . S
H922 C938 0.931 . S
C923 H911 0.917 1_556 S
C923 C917 1.390 . S
C923 C920 1.386 . S
C924 C919 1.490 . S
C924 C926 1.395 . S
C924 C927 1.403 . S
H925 C931 0.930 . S
C926 H912 0.930 . S
C926 C924 1.395 . S
C926 C929 1.403 . S
C927 C924 1.403 . S
C927 C928 1.524 1_556 S
C927 C931 1.400 . S
C928 H913 0.960 . S
C928 H914 0.960 . S
C928 H915 0.960 . S
C928 C927 1.524 1_554 S
C929 C926 1.403 . S
C929 C930 1.392 . S
C929 C933 1.495 . S
C930 C929 1.392 . S
C930 C931 1.385 . S
C930 C932 1.478 . S
C931 H925 0.930 . S
C931 C927 1.400 . S
C931 C930 1.385 . S
C932 C930 1.478 . S
C932 C934 1.381 . S
C932 C938 1.383 . S
C933 C929 1.495 . S
C933 H939 0.959 . S
C933 H940 0.961 . S
C933 H941 0.960 . S
C934 C932 1.381 . S
C934 C935 1.394 . S
C934 H942 0.930 . S
C935 C934 1.394 . S
C935 C936 1.383 . S
C935 H943 0.929 . S
C936 C935 1.383 . S
C936 C937 1.377 . S
C937 H921 0.930 . S
C937 C936 1.377 . S
C937 C938 1.379 . S
C938 H922 0.931 . S
C938 C932 1.383 . S
C938 C937 1.379 . S
H939 C933 0.959 . S
H940 C933 0.961 . S
H941 C933 0.960 . S
H942 C934 0.930 . S
H943 C935 0.929 . S
H944 C952 0.929 . S
H945 C954 0.930 . S
H946 C956 0.930 . S
H947 C959 0.929 . S
H948 C962 0.930 . S
H949 C964 0.960 . S
H950 C964 0.960 . S
H951 C964 0.960 . S
C952 H944 0.929 . S
C952 C953 1.377 . S
C952 C954 1.384 . S
C953 C952 1.377 . S
C953 C959 1.390 . S
C954 H945 0.930 . S
C954 C952 1.384 . S
C954 C955 1.372 . S
C955 C954 1.372 . S
C955 C956 1.400 . S
C955 C960 1.490 . S
C956 H946 0.930 . S
C956 C955 1.400 . S
C956 C959 1.386 . S
H957 C973 0.930 . S
H958 C974 0.931 . S
C959 H947 0.929 . S
C959 C953 1.390 . S
C959 C956 1.386 . S
C960 C955 1.490 . S
C960 C962 1.395 . S
C960 C963 1.403 . S
H961 C967 0.930 . S
C962 H948 0.930 . S
C962 C960 1.395 . S
C962 C965 1.403 . S
C963 C960 1.403 . S
C963 C964 1.524 . S
C963 C967 1.400 . S
C964 H949 0.960 . S
C964 H950 0.960 . S
C964 H951 0.960 . S
C964 C963 1.524 . S
C965 C962 1.403 . S
C965 C966 1.392 . S
C965 C969 1.495 . S
C966 C965 1.392 . S
C966 C967 1.385 . S
C966 C968 1.478 . S
C967 H961 0.930 . S
C967 C963 1.400 . S
C967 C966 1.385 . S
C968 C966 1.478 . S
C968 C970 1.381 . S
C968 C974 1.383 . S
C969 C965 1.495 . S
C969 H975 0.959 . S
C969 H976 0.961 . S
C969 H977 0.960 . S
C970 C968 1.381 . S
C970 C971 1.394 . S
C970 H978 0.930 . S
C971 C970 1.394 . S
C971 C972 1.383 . S
C971 H979 0.929 . S
C972 C971 1.383 . S
C972 C973 1.377 . S
C973 H957 0.930 . S
C973 C972 1.377 . S
C973 C974 1.379 . S
C974 H958 0.931 . S
C974 C968 1.383 . S
C974 C973 1.379 . S
H975 C969 0.959 . S
H976 C969 0.961 . S
H977 C969 0.960 . S
H978 C970 0.930 . S
H979 C971 0.929 . S
H980 C988 0.929 . S
H981 C990 0.930 . S
H982 C992 0.930 . S
H983 C995 0.929 . S
H984 C998 0.930 . S
H985 C1000 0.960 . S
H986 C1000 0.960 . S
H987 C1000 0.960 . S
C988 H980 0.929 . S
C988 C989 1.377 . S
C988 C990 1.384 . S
C989 C988 1.377 . S
C989 C995 1.390 . S
C990 H981 0.930 . S
C990 C988 1.384 . S
C990 C991 1.372 . S
C991 C990 1.372 . S
C991 C992 1.400 . S
C991 C996 1.490 . S
C992 H982 0.930 . S
C992 C991 1.400 . S
C992 C995 1.386 . S
H993 C1009 0.930 . S
H994 C1010 0.931 . S
C995 H983 0.929 . S
C995 C989 1.390 . S
C995 C992 1.386 . S
C996 C991 1.490 . S
C996 C998 1.395 . S
C996 C999 1.403 . S
H997 C1003 0.930 . S
C998 H984 0.930 . S
C998 C996 1.395 . S
C998 C1001 1.403 . S
C999 C996 1.403 . S
C999 C1000 1.524 . S
C999 C1003 1.400 . S
C1000 H985 0.960 . S
C1000 H986 0.960 . S
C1000 H987 0.960 . S
C1000 C999 1.524 . S
C1001 C998 1.403 . S
C1001 C1002 1.392 . S
C1001 C1005 1.495 . S
C1002 C1001 1.392 . S
C1002 C1003 1.385 . S
C1002 C1004 1.478 . S
C1003 H997 0.930 . S
C1003 C999 1.400 . S
C1003 C1002 1.385 . S
C1004 C1002 1.478 . S
C1004 C1006 1.381 . S
C1004 C1010 1.383 . S
C1005 C1001 1.495 . S
C1005 H1011 0.959 . S
C1005 H1012 0.961 . S
C1005 H1013 0.960 . S
C1006 C1004 1.381 . S
C1006 C1007 1.394 . S
C1006 H1014 0.930 . S
C1007 C1006 1.394 . S
C1007 C1008 1.383 . S
C1007 H1015 0.929 . S
C1008 C1007 1.383 . S
C1008 C1009 1.377 . S
C1009 H993 0.930 . S
C1009 C1008 1.377 . S
C1009 C1010 1.379 . S
C1010 H994 0.931 . S
C1010 C1004 1.383 . S
C1010 C1009 1.379 . S
H1011 C1005 0.959 . S
H1012 C1005 0.961 . S
H1013 C1005 0.960 . S
H1014 C1006 0.930 . S
H1015 C1007 0.929 . S
H1016 C1024 0.929 . S
H1017 C1026 0.930 . S
H1018 C1028 0.930 . S
H1019 C1031 0.929 . S
H1020 C1034 0.930 . S
H1021 C1036 0.960 . S
H1022 C1036 0.960 . S
H1023 C1036 0.960 . S
C1024 H1016 0.929 . S
C1024 C1025 1.377 . S
C1024 C1026 1.384 . S
C1025 C1024 1.377 . S
C1025 C1031 1.390 . S
C1026 H1017 0.930 . S
C1026 C1024 1.384 . S
C1026 C1027 1.372 . S
C1027 C1026 1.372 . S
C1027 C1028 1.400 . S
C1027 C1032 1.490 . S
C1028 H1018 0.930 . S
C1028 C1027 1.400 . S
C1028 C1031 1.386 . S
H1029 C1045 0.930 . S
H1030 C1046 0.931 . S
C1031 H1019 0.929 . S
C1031 C1025 1.390 . S
C1031 C1028 1.386 . S
C1032 C1027 1.490 . S
C1032 C1034 1.395 . S
C1032 C1035 1.403 . S
H1033 C1039 0.930 . S
C1034 H1020 0.930 . S
C1034 C1032 1.395 . S
C1034 C1037 1.403 . S
C1035 C1032 1.403 . S
C1035 C1036 1.524 . S
C1035 C1039 1.400 . S
C1036 H1021 0.960 . S
C1036 H1022 0.960 . S
C1036 H1023 0.960 . S
C1036 C1035 1.524 . S
C1037 C1034 1.403 . S
C1037 C1038 1.392 . S
C1037 C1041 1.495 . S
C1038 C1037 1.392 . S
C1038 C1039 1.385 . S
C1038 C1040 1.478 . S
C1039 H1033 0.930 . S
C1039 C1035 1.400 . S
C1039 C1038 1.385 . S
C1040 C1038 1.478 . S
C1040 C1042 1.381 . S
C1040 C1046 1.383 . S
C1041 C1037 1.495 . S
C1041 H1047 0.959 . S
C1041 H1048 0.961 . S
C1041 H1049 0.960 . S
C1042 C1040 1.381 . S
C1042 C1043 1.394 . S
C1042 H1050 0.930 . S
C1043 C1042 1.394 . S
C1043 C1044 1.383 . S
C1043 H1051 0.929 . S
C1044 C1043 1.383 . S
C1044 C1045 1.377 . S
C1045 H1029 0.930 . S
C1045 C1044 1.377 . S
C1045 C1046 1.379 . S
C1046 H1030 0.931 . S
C1046 C1040 1.383 . S
C1046 C1045 1.379 . S
H1047 C1041 0.959 . S
H1048 C1041 0.961 . S
H1049 C1041 0.960 . S
H1050 C1042 0.930 . S
H1051 C1043 0.929 . S
H1052 C1060 0.929 . S
H1053 C1062 0.930 . S
H1054 C1064 0.930 . S
H1055 C1067 0.929 . S
H1056 C1070 0.930 . S
H1057 C1072 0.960 . S
H1058 C1072 0.960 . S
H1059 C1072 0.960 . S
C1060 H1052 0.929 . S
C1060 C1061 1.377 . S
C1060 C1062 1.384 . S
C1061 C1060 1.377 . S
C1061 C1067 1.390 . S
C1062 H1053 0.930 . S
C1062 C1060 1.384 . S
C1062 C1063 1.372 . S
C1063 C1062 1.372 . S
C1063 C1064 1.400 . S
C1063 C1068 1.490 . S
C1064 H1054 0.930 . S
C1064 C1063 1.400 . S
C1064 C1067 1.386 . S
H1065 C1081 0.930 . S
H1066 C1082 0.931 . S
C1067 H1055 0.929 . S
C1067 C1061 1.390 . S
C1067 C1064 1.386 . S
C1068 C1063 1.490 . S
C1068 C1070 1.395 . S
C1068 C1071 1.403 . S
H1069 C1075 0.930 . S
C1070 H1056 0.930 . S
C1070 C1068 1.395 . S
C1070 C1073 1.403 . S
C1071 C1068 1.403 . S
C1071 C1072 1.524 . S
C1071 C1075 1.400 . S
C1072 H1057 0.960 . S
C1072 H1058 0.960 . S
C1072 H1059 0.960 . S
C1072 C1071 1.524 . S
C1073 C1070 1.403 . S
C1073 C1074 1.392 . S
C1073 C1077 1.495 . S
C1074 C1073 1.392 . S
C1074 C1075 1.385 . S
C1074 C1076 1.478 . S
C1075 H1069 0.930 . S
C1075 C1071 1.400 . S
C1075 C1074 1.385 . S
C1076 C1074 1.478 . S
C1076 C1078 1.381 . S
C1076 C1082 1.383 . S
C1077 C1073 1.495 . S
C1077 H1083 0.959 . S
C1077 H1084 0.961 . S
C1077 H1085 0.960 . S
C1078 C1076 1.381 . S
C1078 C1079 1.394 . S
C1078 H1086 0.930 . S
C1079 C1078 1.394 . S
C1079 C1080 1.383 . S
C1079 H1087 0.929 . S
C1080 C1079 1.383 . S
C1080 C1081 1.377 . S
C1081 H1065 0.930 . S
C1081 C1080 1.377 . S
C1081 C1082 1.379 . S
C1082 H1066 0.931 . S
C1082 C1076 1.383 . S
C1082 C1081 1.379 . S
H1083 C1077 0.959 . S
H1084 C1077 0.961 . S
H1085 C1077 0.960 . S
H1086 C1078 0.930 . S
H1087 C1079 0.929 . S
H1088 C1096 0.929 . S
H1089 C1098 0.930 . S
H1090 C1100 0.930 . S
H1091 C1103 0.929 . S
H1092 C1106 0.930 . S
H1093 C1108 0.960 . S
H1094 C1108 0.960 . S
H1095 C1108 0.960 . S
C1096 H1088 0.929 . S
C1096 C1097 1.377 . S
C1096 C1098 1.384 . S
C1097 C1096 1.377 . S
C1097 C1103 1.390 . S
C1098 H1089 0.930 . S
C1098 C1096 1.384 . S
C1098 C1099 1.372 . S
C1099 C1098 1.372 . S
C1099 C1100 1.400 . S
C1099 C1104 1.490 . S
C1100 H1090 0.930 . S
C1100 C1099 1.400 . S
C1100 C1103 1.386 . S
H1101 C1117 0.930 . S
H1102 C1118 0.931 . S
C1103 H1091 0.929 . S
C1103 C1097 1.390 . S
C1103 C1100 1.386 . S
C1104 C1099 1.490 . S
C1104 C1106 1.395 . S
C1104 C1107 1.403 . S
H1105 C1111 0.930 . S
C1106 H1092 0.930 . S
C1106 C1104 1.395 . S
C1106 C1109 1.403 . S
C1107 C1104 1.403 . S
C1107 C1108 1.524 . S
C1107 C1111 1.400 . S
C1108 H1093 0.960 . S
C1108 H1094 0.960 . S
C1108 H1095 0.960 . S
C1108 C1107 1.524 . S
C1109 C1106 1.403 . S
C1109 C1110 1.392 . S
C1109 C1113 1.495 . S
C1110 C1109 1.392 . S
C1110 C1111 1.385 . S
C1110 C1112 1.478 . S
C1111 H1105 0.930 . S
C1111 C1107 1.400 . S
C1111 C1110 1.385 . S
C1112 C1110 1.478 . S
C1112 C1114 1.381 . S
C1112 C1118 1.383 1_556 S
C1113 C1109 1.495 . S
C1113 H1119 0.959 . S
C1113 H1120 0.961 . S
C1113 H1121 0.960 . S
C1114 C1112 1.381 . S
C1114 C1115 1.394 . S
C1114 H1122 0.930 . S
C1115 C1114 1.394 . S
C1115 C1116 1.383 1_556 S
C1115 H1123 0.929 . S
C1116 C1115 1.383 1_554 S
C1116 C1117 1.377 . S
C1117 H1101 0.930 . S
C1117 C1116 1.377 . S
C1117 C1118 1.379 . S
C1118 H1102 0.931 . S
C1118 C1112 1.383 1_554 S
C1118 C1117 1.379 . S
H1119 C1113 0.959 . S
H1120 C1113 0.961 . S
H1121 C1113 0.960 . S
H1122 C1114 0.930 . S
H1123 C1115 0.929 . S
H1124 C1132 0.929 . S
H1125 C1134 0.930 . S
H1126 C1136 0.930 . S
H1127 C1139 0.929 . S
H1128 C1142 0.930 . S
H1129 C1144 0.960 . S
H1130 C1144 0.960 . S
H1131 C1144 0.960 . S
C1132 H1124 0.929 . S
C1132 C1133 1.377 . S
C1132 C1134 1.384 . S
C1133 C1132 1.377 . S
C1133 C1139 1.390 . S
C1134 H1125 0.930 . S
C1134 C1132 1.384 . S
C1134 C1135 1.372 . S
C1135 C1134 1.372 . S
C1135 C1136 1.400 . S
C1135 C1140 1.490 . S
C1136 H1126 0.930 . S
C1136 C1135 1.400 . S
C1136 C1139 1.386 . S
H1137 C1153 0.930 . S
H1138 C1154 0.937 . S
C1139 H1127 0.929 . S
C1139 C1133 1.390 . S
C1139 C1136 1.386 . S
C1140 C1135 1.490 . S
C1140 C1142 1.395 . S
C1140 C1143 1.403 . S
H1141 C1147 0.930 . S
C1142 H1128 0.930 . S
C1142 C1140 1.395 . S
C1142 C1145 1.403 . S
C1143 C1140 1.403 . S
C1143 C1144 1.524 . S
C1143 C1147 1.400 . S
C1144 H1129 0.960 . S
C1144 H1130 0.960 . S
C1144 H1131 0.960 . S
C1144 C1143 1.524 . S
C1145 C1142 1.403 . S
C1145 C1146 1.392 . S
C1145 C1149 1.495 . S
C1146 C1145 1.392 . S
C1146 C1147 1.385 . S
C1146 C1148 1.478 . S
C1147 H1141 0.930 . S
C1147 C1143 1.400 . S
C1147 C1146 1.385 . S
C1148 C1146 1.478 . S
C1148 C1150 1.381 . S
C1148 C1154 1.369 1_554 S
C1149 C1145 1.495 . S
C1149 H1155 0.959 . S
C1149 H1156 0.961 . S
C1149 H1157 0.960 . S
C1150 C1148 1.381 . S
C1150 C1151 1.394 . S
C1150 H1158 0.930 . S
C1151 C1150 1.394 . S
C1151 C1152 1.383 1_554 S
C1151 H1159 0.929 . S
C1152 C1151 1.383 1_556 S
C1152 C1153 1.377 . S
C1153 H1137 0.930 . S
C1153 C1152 1.377 . S
C1153 C1154 1.388 . S
C1154 H1138 0.937 . S
C1154 C1148 1.369 1_556 S
C1154 C1153 1.388 . S
H1155 C1149 0.959 . S
H1156 C1149 0.961 . S
H1157 C1149 0.960 . S
H1158 C1150 0.930 . S
H1159 C1151 0.929 . S
H1160 C1168 0.929 . S
H1161 C1170 0.930 . S
H1162 C1172 0.930 . S
H1163 C1175 0.929 . S
H1164 C1178 0.930 . S
H1165 C1180 0.960 . S
H1166 C1180 0.960 . S
H1167 C1180 0.960 . S
C1168 H1160 0.929 . S
C1168 C1169 1.377 . S
C1168 C1170 1.384 . S
C1169 C1168 1.377 . S
C1169 C1175 1.390 1_554 S
C1170 H1161 0.930 . S
C1170 C1168 1.384 . S
C1170 C1171 1.372 1_554 S
C1171 C1170 1.372 1_556 S
C1171 C1172 1.400 . S
C1171 C1176 1.490 . S
C1172 H1162 0.930 . S
C1172 C1171 1.400 . S
C1172 C1175 1.386 . S
H1173 C1189 0.930 . S
H1174 C1190 0.931 . S
C1175 H1163 0.929 . S
C1175 C1169 1.390 1_556 S
C1175 C1172 1.386 . S
C1176 C1171 1.490 . S
C1176 C1178 1.395 . S
C1176 C1179 1.403 . S
H1177 C1183 0.930 . S
C1178 H1164 0.930 . S
C1178 C1176 1.395 . S
C1178 C1181 1.403 . S
C1179 C1176 1.403 . S
C1179 C1180 1.524 . S
C1179 C1183 1.400 . S
C1180 H1165 0.960 . S
C1180 H1166 0.960 . S
C1180 H1167 0.960 . S
C1180 C1179 1.524 . S
C1181 C1178 1.403 . S
C1181 C1182 1.392 . S
C1181 C1185 1.495 . S
C1182 C1181 1.392 . S
C1182 C1183 1.385 . S
C1182 C1184 1.478 . S
C1183 H1177 0.930 . S
C1183 C1179 1.400 . S
C1183 C1182 1.385 . S
C1184 C1182 1.478 . S
C1184 C1186 1.381 . S
C1184 C1190 1.383 . S
C1185 C1181 1.495 . S
C1185 H1191 0.959 . S
C1185 H1192 0.961 . S
C1185 H1193 0.960 . S
C1186 C1184 1.381 . S
C1186 C1187 1.394 . S
C1186 H1194 0.930 . S
C1187 C1186 1.394 . S
C1187 C1188 1.383 . S
C1187 H1195 0.929 . S
C1188 C1187 1.383 . S
C1188 C1189 1.377 . S
C1189 H1173 0.930 . S
C1189 C1188 1.377 . S
C1189 C1190 1.379 . S
C1190 H1174 0.931 . S
C1190 C1184 1.383 . S
C1190 C1189 1.379 . S
H1191 C1185 0.959 . S
H1192 C1185 0.961 . S
H1193 C1185 0.960 . S
H1194 C1186 0.930 . S
H1195 C1187 0.929 . S
H1196 C1204 0.929 . S
H1197 C1206 0.930 . S
H1198 C1208 0.930 . S
H1199 C1211 0.929 . S
H1200 C1214 0.930 . S
H1201 C1216 0.960 . S
H1202 C1216 0.960 . S
H1203 C1216 0.960 . S
C1204 H1196 0.929 . S
C1204 C1205 1.377 . S
C1204 C1206 1.384 . S
C1205 C1204 1.377 . S
C1205 C1211 1.390 . S
C1206 H1197 0.930 . S
C1206 C1204 1.384 . S
C1206 C1207 1.372 . S
C1207 C1206 1.372 . S
C1207 C1208 1.400 . S
C1207 C1212 1.490 . S
C1208 H1198 0.930 . S
C1208 C1207 1.400 . S
C1208 C1211 1.386 . S
H1209 C1225 0.930 1_556 S
H1210 C1226 0.931 . S
C1211 H1199 0.929 . S
C1211 C1205 1.390 . S
C1211 C1208 1.386 . S
C1212 C1207 1.490 . S
C1212 C1214 1.395 . S
C1212 C1215 1.403 . S
H1213 C1219 0.930 . S
C1214 H1200 0.930 . S
C1214 C1212 1.395 . S
C1214 C1217 1.403 . S
C1215 C1212 1.403 . S
C1215 C1216 1.524 . S
C1215 C1219 1.400 . S
C1216 H1201 0.960 . S
C1216 H1202 0.960 . S
C1216 H1203 0.960 . S
C1216 C1215 1.524 . S
C1217 C1214 1.403 . S
C1217 C1218 1.392 . S
C1217 C1221 1.495 . S
C1218 C1217 1.392 . S
C1218 C1219 1.385 . S
C1218 C1220 1.478 . S
C1219 H1213 0.930 . S
C1219 C1215 1.400 . S
C1219 C1218 1.385 . S
C1220 C1218 1.478 . S
C1220 C1222 1.381 . S
C1220 C1226 1.383 . S
C1221 C1217 1.495 . S
C1221 H1227 0.959 . S
C1221 H1228 0.961 . S
C1221 H1229 0.960 . S
C1222 C1220 1.381 . S
C1222 C1223 1.394 . S
C1222 H1230 0.930 . S
C1223 C1222 1.394 . S
C1223 C1224 1.383 1_554 S
C1223 H1231 0.929 . S
C1224 C1223 1.383 1_556 S
C1224 C1225 1.377 1_556 S
C1225 H1209 0.930 1_554 S
C1225 C1224 1.377 1_554 S
C1225 C1226 1.379 . S
C1226 H1210 0.931 . S
C1226 C1220 1.383 . S
C1226 C1225 1.379 . S
H1227 C1221 0.959 . S
H1228 C1221 0.961 . S
H1229 C1221 0.960 . S
H1230 C1222 0.930 . S
H1231 C1223 0.929 . S
H1232 C1240 0.929 . S
H1233 C1242 0.930 . S
H1234 C1244 0.930 . S
H1235 C1247 0.929 . S
H1236 C1250 0.930 . S
H1237 C1252 0.960 . S
H1238 C1252 0.960 . S
H1239 C1252 0.960 . S
C1240 H1232 0.929 . S
C1240 C1241 1.377 . S
C1240 C1242 1.384 . S
C1241 C1240 1.377 . S
C1241 C1247 1.390 . S
C1242 H1233 0.930 . S
C1242 C1240 1.384 . S
C1242 C1243 1.372 . S
C1243 C1242 1.372 . S
C1243 C1244 1.400 . S
C1243 C1248 1.490 . S
C1244 H1234 0.930 . S
C1244 C1243 1.400 . S
C1244 C1247 1.386 . S
H1245 C1261 0.930 . S
H1246 C1262 0.931 . S
C1247 H1235 0.929 . S
C1247 C1241 1.390 . S
C1247 C1244 1.386 . S
C1248 C1243 1.490 . S
C1248 C1250 1.395 . S
C1248 C1251 1.403 . S
H1249 C1255 0.930 . S
C1250 H1236 0.930 . S
C1250 C1248 1.395 . S
C1250 C1253 1.403 . S
C1251 C1248 1.403 . S
C1251 C1252 1.524 . S
C1251 C1255 1.400 . S
C1252 H1237 0.960 . S
C1252 H1238 0.960 . S
C1252 H1239 0.960 . S
C1252 C1251 1.524 . S
C1253 C1250 1.403 . S
C1253 C1254 1.392 . S
C1253 C1257 1.495 . S
C1254 C1253 1.392 . S
C1254 C1255 1.385 . S
C1254 C1256 1.478 . S
C1255 H1249 0.930 . S
C1255 C1251 1.400 . S
C1255 C1254 1.385 . S
C1256 C1254 1.478 . S
C1256 C1258 1.381 . S
C1256 C1262 1.383 . S
C1257 C1253 1.495 . S
C1257 H1263 0.959 . S
C1257 H1264 0.961 . S
C1257 H1265 0.960 . S
C1258 C1256 1.381 . S
C1258 C1259 1.394 . S
C1258 H1266 0.930 . S
C1259 C1258 1.394 . S
C1259 C1260 1.383 . S
C1259 H1267 0.929 . S
C1260 C1259 1.383 . S
C1260 C1261 1.377 . S
C1261 H1245 0.930 . S
C1261 C1260 1.377 . S
C1261 C1262 1.379 . S
C1262 H1246 0.931 . S
C1262 C1256 1.383 . S
C1262 C1261 1.379 . S
H1263 C1257 0.959 . S
H1264 C1257 0.961 . S
H1265 C1257 0.960 . S
H1266 C1258 0.930 . S
H1267 C1259 0.929 . S
H1268 C1276 0.929 . S
H1269 C1278 0.930 . S
H1270 C1280 0.930 . S
H1271 C1283 0.929 . S
H1272 C1286 0.930 . S
H1273 C1288 0.960 . S
H1274 C1288 0.960 . S
H1275 C1288 0.960 . S
C1276 H1268 0.929 . S
C1276 C1277 1.377 . S
C1276 C1278 1.384 . S
C1277 C1276 1.377 . S
C1277 C1283 1.390 . S
C1278 H1269 0.930 . S
C1278 C1276 1.384 . S
C1278 C1279 1.372 . S
C1279 C1278 1.372 . S
C1279 C1280 1.400 . S
C1279 C1284 1.490 . S
C1280 H1270 0.930 . S
C1280 C1279 1.400 . S
C1280 C1283 1.386 . S
H1281 C1297 0.930 . S
H1282 C1298 0.931 . S
C1283 H1271 0.929 . S
C1283 C1277 1.390 . S
C1283 C1280 1.386 . S
C1284 C1279 1.490 . S
C1284 C1286 1.395 . S
C1284 C1287 1.403 . S
H1285 C1291 0.930 . S
C1286 H1272 0.930 . S
C1286 C1284 1.395 . S
C1286 C1289 1.403 . S
C1287 C1284 1.403 . S
C1287 C1288 1.524 . S
C1287 C1291 1.400 . S
C1288 H1273 0.960 . S
C1288 H1274 0.960 . S
C1288 H1275 0.960 . S
C1288 C1287 1.524 . S
C1289 C1286 1.403 . S
C1289 C1290 1.392 . S
C1289 C1293 1.495 . S
C1290 C1289 1.392 . S
C1290 C1291 1.385 . S
C1290 C1292 1.478 . S
C1291 H1285 0.930 . S
C1291 C1287 1.400 . S
C1291 C1290 1.385 . S
C1292 C1290 1.478 . S
C1292 C1294 1.381 . S
C1292 C1298 1.383 . S
C1293 C1289 1.495 . S
C1293 H1299 0.959 . S
C1293 H1300 0.961 . S
C1293 H1301 0.960 . S
C1294 C1292 1.381 . S
C1294 C1295 1.394 . S
C1294 H1302 0.930 . S
C1295 C1294 1.394 . S
C1295 C1296 1.383 . S
C1295 H1303 0.929 . S
C1296 C1295 1.383 . S
C1296 C1297 1.377 . S
C1297 H1281 0.930 . S
C1297 C1296 1.377 . S
C1297 C1298 1.379 . S
C1298 H1282 0.931 . S
C1298 C1292 1.383 . S
C1298 C1297 1.379 . S
H1299 C1293 0.959 . S
H1300 C1293 0.961 . S
H1301 C1293 0.960 . S
H1302 C1294 0.930 . S
H1303 C1295 0.929 . S
H1304 C1312 0.929 . S
H1305 C1314 0.930 . S
H1306 C1316 0.930 . S
H1307 C1319 0.929 . S
H1308 C1322 0.930 . S
H1309 C1324 0.960 . S
H1310 C1324 0.960 . S
H1311 C1324 0.960 . S
C1312 H1304 0.929 . S
C1312 C1313 1.377 . S
C1312 C1314 1.384 . S
C1313 C1312 1.377 . S
C1313 C1319 1.390 . S
C1314 H1305 0.930 . S
C1314 C1312 1.384 . S
C1314 C1315 1.372 . S
C1315 C1314 1.372 . S
C1315 C1316 1.400 . S
C1315 C1320 1.490 . S
C1316 H1306 0.930 . S
C1316 C1315 1.400 . S
C1316 C1319 1.386 . S
H1317 C1333 0.930 . S
H1318 C1334 0.931 . S
C1319 H1307 0.929 . S
C1319 C1313 1.390 . S
C1319 C1316 1.386 . S
C1320 C1315 1.490 . S
C1320 C1322 1.395 . S
C1320 C1323 1.403 . S
H1321 C1327 0.930 . S
C1322 H1308 0.930 . S
C1322 C1320 1.395 . S
C1322 C1325 1.403 . S
C1323 C1320 1.403 . S
C1323 C1324 1.524 . S
C1323 C1327 1.400 . S
C1324 H1309 0.960 . S
C1324 H1310 0.960 . S
C1324 H1311 0.960 . S
C1324 C1323 1.524 . S
C1325 C1322 1.403 . S
C1325 C1326 1.392 . S
C1325 C1329 1.495 . S
C1326 C1325 1.392 . S
C1326 C1327 1.385 . S
C1326 C1328 1.478 . S
C1327 H1321 0.930 . S
C1327 C1323 1.400 . S
C1327 C1326 1.385 . S
C1328 C1326 1.478 . S
C1328 C1330 1.381 . S
C1328 C1334 1.383 . S
C1329 C1325 1.495 . S
C1329 H1335 0.959 . S
C1329 H1336 0.961 . S
C1329 H1337 0.960 . S
C1330 C1328 1.381 . S
C1330 C1331 1.394 . S
C1330 H1338 0.930 . S
C1331 C1330 1.394 . S
C1331 C1332 1.383 . S
C1331 H1339 0.929 . S
C1332 C1331 1.383 . S
C1332 C1333 1.377 . S
C1333 H1317 0.930 . S
C1333 C1332 1.377 . S
C1333 C1334 1.379 . S
C1334 H1318 0.931 . S
C1334 C1328 1.383 . S
C1334 C1333 1.379 . S
H1335 C1329 0.959 . S
H1336 C1329 0.961 . S
H1337 C1329 0.960 . S
H1338 C1330 0.930 . S
H1339 C1331 0.929 . S
H1340 C1348 0.929 . S
H1341 C1350 0.930 . S
H1342 C1352 0.930 . S
H1343 C1355 0.929 . S
H1344 C1358 0.930 . S
H1345 C1360 0.960 . S
H1346 C1360 0.960 . S
H1347 C1360 0.960 . S
C1348 H1340 0.929 . S
C1348 C1349 1.377 . S
C1348 C1350 1.384 . S
C1349 C1348 1.377 . S
C1349 C1355 1.390 . S
C1350 H1341 0.930 . S
C1350 C1348 1.384 . S
C1350 C1351 1.372 . S
C1351 C1350 1.372 . S
C1351 C1352 1.400 . S
C1351 C1356 1.490 . S
C1352 H1342 0.930 . S
C1352 C1351 1.400 . S
C1352 C1355 1.386 . S
H1353 C1369 0.930 . S
H1354 C1370 0.931 . S
C1355 H1343 0.929 . S
C1355 C1349 1.390 . S
C1355 C1352 1.386 . S
C1356 C1351 1.490 . S
C1356 C1358 1.395 . S
C1356 C1359 1.403 . S
H1357 C1363 0.930 . S
C1358 H1344 0.930 . S
C1358 C1356 1.395 . S
C1358 C1361 1.403 . S
C1359 C1356 1.403 . S
C1359 C1360 1.524 . S
C1359 C1363 1.400 . S
C1360 H1345 0.960 . S
C1360 H1346 0.960 . S
C1360 H1347 0.960 . S
C1360 C1359 1.524 . S
C1361 C1358 1.403 . S
C1361 C1362 1.392 . S
C1361 C1365 1.495 . S
C1362 C1361 1.392 . S
C1362 C1363 1.385 . S
C1362 C1364 1.478 . S
C1363 H1357 0.930 . S
C1363 C1359 1.400 . S
C1363 C1362 1.385 . S
C1364 C1362 1.478 . S
C1364 C1366 1.381 . S
C1364 C1370 1.383 . S
C1365 C1361 1.495 . S
C1365 H1371 0.959 . S
C1365 H1372 0.961 . S
C1365 H1373 0.960 . S
C1366 C1364 1.381 . S
C1366 C1367 1.394 . S
C1366 H1374 0.930 . S
C1367 C1366 1.394 . S
C1367 C1368 1.383 . S
C1367 H1375 0.929 . S
C1368 C1367 1.383 . S
C1368 C1369 1.377 . S
C1369 H1353 0.930 . S
C1369 C1368 1.377 . S
C1369 C1370 1.379 . S
C1370 H1354 0.931 . S
C1370 C1364 1.383 . S
C1370 C1369 1.379 . S
H1371 C1365 0.959 . S
H1372 C1365 0.961 . S
H1373 C1365 0.960 . S
H1374 C1366 0.930 . S
H1375 C1367 0.929 . S
C233 C163 1.166 . S
C252 C3 1.152 . S
C269 C17 1.161 . S
C288 C121 1.134 . S
C305 C31 1.163 . S
C324 C135 1.156 . S
C341 C149 1.171 . S
C360 C45 1.189 . S
C377 C59 1.157 . S
C396 C79 1.192 . S
C413 C73 1.169 . S
C432 C93 1.188 . S
C449 C107 1.166 . S
C468 C87 1.153 . S
C485 C65 1.161 . S
C504 C101 1.170 . S
C521 C51 1.161 . S
C540 C115 1.193 . S
C557 C129 1.166 . S
C576 C9 1.195 . S
C593 C23 1.163 . S
C612 C143 1.169 . S
C629 C157 1.163 . S
C648 C37 1.193 . S
C665 C171 1.164 . S
C684 C191 1.152 . S
C701 C185 1.159 . S
C720 C205 1.182 . S
C737 C219 1.165 . S
C756 C199 1.178 . S
C773 C177 1.173 . S
C792 C213 1.176 . S
C809 C63 1.017 . S
C828 C7 1.045 . S
C845 C21 1.028 . S
C864 C77 1.045 . S
C881 C35 1.028 . S
C900 C91 0.991 . S
C917 C105 1.028 . S
C936 C49 1.026 . S
C953 C119 1.024 . S
C972 C175 1.008 . S
C989 C189 1.017 . S
C1008 C133 0.998 . S
C1025 C147 1.023 . S
C1044 C203 1.013 . S
C1061 C217 1.027 . S
C1080 C161 1.047 . S
C1097 C204 1.318 . S
C1116 C8 1.318 . S
C1133 C218 1.317 . S
C1152 C22 1.313 . S
C1169 C36 1.318 . S
C1188 C176 1.318 . S
C1205 C190 1.322 . S
C1224 C50 1.332 . S
C1241 C148 1.320 . S
C1260 C64 1.304 . S
C1277 C162 1.323 . S
C1296 C78 1.331 . S
C1313 C92 1.322 . S
C1332 C120 1.311 . S
C1349 C134 1.318 . S
C1368 C106 1.308 . S
