# Generated by pormake.
# Topology wge, (5)-cn, num edge types: 1
# Building blocks:
#     Node 0, Type 0, BuildingBlock: XOMCOT_clean_sbu_1, # of connection points: 5
#     Node 1, Type 0, BuildingBlock: XOMCOT_clean_sbu_1, # of connection points: 5
#     Node 2, Type 0, BuildingBlock: XOMCOT_clean_sbu_1, # of connection points: 5
#     Node 3, Type 0, BuildingBlock: XOMCOT_clean_sbu_1, # of connection points: 5
#     Node 4, Type 0, BuildingBlock: XOMCOT_clean_sbu_1, # of connection points: 5
#     Node 5, Type 0, BuildingBlock: XOMCOT_clean_sbu_1, # of connection points: 5
#     Node 6, Type 0, BuildingBlock: XOMCOT_clean_sbu_1, # of connection points: 5
#     Node 7, Type 0, BuildingBlock: XOMCOT_clean_sbu_1, # of connection points: 5
#     Node 8, Type 0, BuildingBlock: XOMCOT_clean_sbu_1, # of connection points: 5
#     Node 9, Type 0, BuildingBlock: XOMCOT_clean_sbu_1, # of connection points: 5
#     Node 10, Type 0, BuildingBlock: XOMCOT_clean_sbu_1, # of connection points: 5
#     Node 11, Type 0, BuildingBlock: XOMCOT_clean_sbu_1, # of connection points: 5
#     Node 12, Type 0, BuildingBlock: XOMCOT_clean_sbu_1, # of connection points: 5
#     Node 13, Type 0, BuildingBlock: XOMCOT_clean_sbu_1, # of connection points: 5
#     Node 14, Type 0, BuildingBlock: XOMCOT_clean_sbu_1, # of connection points: 5
#     Node 15, Type 0, BuildingBlock: XOMCOT_clean_sbu_1, # of connection points: 5
#     Node 16, Type 0, BuildingBlock: XOMCOT_clean_sbu_1, # of connection points: 5
#     Node 17, Type 0, BuildingBlock: XOMCOT_clean_sbu_1, # of connection points: 5
#     Node 18, Type 0, BuildingBlock: XOMCOT_clean_sbu_1, # of connection points: 5
#     Node 19, Type 0, BuildingBlock: XOMCOT_clean_sbu_1, # of connection points: 5
#     Node 20, Type 0, BuildingBlock: XOMCOT_clean_sbu_1, # of connection points: 5
#     Node 21, Type 0, BuildingBlock: XOMCOT_clean_sbu_1, # of connection points: 5
#     Node 22, Type 0, BuildingBlock: XOMCOT_clean_sbu_1, # of connection points: 5
#     Node 23, Type 0, BuildingBlock: XOMCOT_clean_sbu_1, # of connection points: 5
#     Node 24, Type 0, BuildingBlock: XOMCOT_clean_sbu_1, # of connection points: 5
#     Node 25, Type 0, BuildingBlock: XOMCOT_clean_sbu_1, # of connection points: 5
#     Node 26, Type 0, BuildingBlock: XOMCOT_clean_sbu_1, # of connection points: 5
#     Node 27, Type 0, BuildingBlock: XOMCOT_clean_sbu_1, # of connection points: 5
#     Node 28, Type 0, BuildingBlock: XOMCOT_clean_sbu_1, # of connection points: 5
#     Node 29, Type 0, BuildingBlock: XOMCOT_clean_sbu_1, # of connection points: 5
#     Node 30, Type 0, BuildingBlock: XOMCOT_clean_sbu_1, # of connection points: 5
#     Node 31, Type 0, BuildingBlock: XOMCOT_clean_sbu_1, # of connection points: 5
#     Edge 32, Type (0, 0), BuildingBlock: CIFDUS_clean_linker_0, # of connection points: 2
#     Edge 33, Type (0, 0), BuildingBlock: CIFDUS_clean_linker_0, # of connection points: 2
#     Edge 34, Type (0, 0), BuildingBlock: CIFDUS_clean_linker_0, # of connection points: 2
#     Edge 35, Type (0, 0), BuildingBlock: CIFDUS_clean_linker_0, # of connection points: 2
#     Edge 36, Type (0, 0), BuildingBlock: CIFDUS_clean_linker_0, # of connection points: 2
#     Edge 37, Type (0, 0), BuildingBlock: CIFDUS_clean_linker_0, # of connection points: 2
#     Edge 38, Type (0, 0), BuildingBlock: CIFDUS_clean_linker_0, # of connection points: 2
#     Edge 39, Type (0, 0), BuildingBlock: CIFDUS_clean_linker_0, # of connection points: 2
#     Edge 40, Type (0, 0), BuildingBlock: CIFDUS_clean_linker_0, # of connection points: 2
#     Edge 41, Type (0, 0), BuildingBlock: CIFDUS_clean_linker_0, # of connection points: 2
#     Edge 42, Type (0, 0), BuildingBlock: CIFDUS_clean_linker_0, # of connection points: 2
#     Edge 43, Type (0, 0), BuildingBlock: CIFDUS_clean_linker_0, # of connection points: 2
#     Edge 44, Type (0, 0), BuildingBlock: CIFDUS_clean_linker_0, # of connection points: 2
#     Edge 45, Type (0, 0), BuildingBlock: CIFDUS_clean_linker_0, # of connection points: 2
#     Edge 46, Type (0, 0), BuildingBlock: CIFDUS_clean_linker_0, # of connection points: 2
#     Edge 47, Type (0, 0), BuildingBlock: CIFDUS_clean_linker_0, # of connection points: 2
#     Edge 48, Type (0, 0), BuildingBlock: CIFDUS_clean_linker_0, # of connection points: 2
#     Edge 49, Type (0, 0), BuildingBlock: CIFDUS_clean_linker_0, # of connection points: 2
#     Edge 50, Type (0, 0), BuildingBlock: CIFDUS_clean_linker_0, # of connection points: 2
#     Edge 51, Type (0, 0), BuildingBlock: CIFDUS_clean_linker_0, # of connection points: 2
#     Edge 52, Type (0, 0), BuildingBlock: CIFDUS_clean_linker_0, # of connection points: 2
#     Edge 53, Type (0, 0), BuildingBlock: CIFDUS_clean_linker_0, # of connection points: 2
#     Edge 54, Type (0, 0), BuildingBlock: CIFDUS_clean_linker_0, # of connection points: 2
#     Edge 55, Type (0, 0), BuildingBlock: CIFDUS_clean_linker_0, # of connection points: 2
#     Edge 56, Type (0, 0), BuildingBlock: CIFDUS_clean_linker_0, # of connection points: 2
#     Edge 57, Type (0, 0), BuildingBlock: CIFDUS_clean_linker_0, # of connection points: 2
#     Edge 58, Type (0, 0), BuildingBlock: CIFDUS_clean_linker_0, # of connection points: 2
#     Edge 59, Type (0, 0), BuildingBlock: CIFDUS_clean_linker_0, # of connection points: 2
#     Edge 60, Type (0, 0), BuildingBlock: CIFDUS_clean_linker_0, # of connection points: 2
#     Edge 61, Type (0, 0), BuildingBlock: CIFDUS_clean_linker_0, # of connection points: 2
#     Edge 62, Type (0, 0), BuildingBlock: CIFDUS_clean_linker_0, # of connection points: 2
#     Edge 63, Type (0, 0), BuildingBlock: CIFDUS_clean_linker_0, # of connection points: 2
#     Edge 64, Type (0, 0), BuildingBlock: CIFDUS_clean_linker_0, # of connection points: 2
#     Edge 65, Type (0, 0), BuildingBlock: CIFDUS_clean_linker_0, # of connection points: 2
#     Edge 66, Type (0, 0), BuildingBlock: CIFDUS_clean_linker_0, # of connection points: 2
#     Edge 67, Type (0, 0), BuildingBlock: CIFDUS_clean_linker_0, # of connection points: 2
#     Edge 68, Type (0, 0), BuildingBlock: CIFDUS_clean_linker_0, # of connection points: 2
#     Edge 69, Type (0, 0), BuildingBlock: CIFDUS_clean_linker_0, # of connection points: 2
#     Edge 70, Type (0, 0), BuildingBlock: CIFDUS_clean_linker_0, # of connection points: 2
#     Edge 71, Type (0, 0), BuildingBlock: CIFDUS_clean_linker_0, # of connection points: 2
#     Edge 72, Type (0, 0), BuildingBlock: CIFDUS_clean_linker_0, # of connection points: 2
#     Edge 73, Type (0, 0), BuildingBlock: CIFDUS_clean_linker_0, # of connection points: 2
#     Edge 74, Type (0, 0), BuildingBlock: CIFDUS_clean_linker_0, # of connection points: 2
#     Edge 75, Type (0, 0), BuildingBlock: CIFDUS_clean_linker_0, # of connection points: 2
#     Edge 76, Type (0, 0), BuildingBlock: CIFDUS_clean_linker_0, # of connection points: 2
#     Edge 77, Type (0, 0), BuildingBlock: CIFDUS_clean_linker_0, # of connection points: 2
#     Edge 78, Type (0, 0), BuildingBlock: CIFDUS_clean_linker_0, # of connection points: 2
#     Edge 79, Type (0, 0), BuildingBlock: CIFDUS_clean_linker_0, # of connection points: 2
#     Edge 80, Type (0, 0), BuildingBlock: CIFDUS_clean_linker_0, # of connection points: 2
#     Edge 81, Type (0, 0), BuildingBlock: CIFDUS_clean_linker_0, # of connection points: 2
#     Edge 82, Type (0, 0), BuildingBlock: CIFDUS_clean_linker_0, # of connection points: 2
#     Edge 83, Type (0, 0), BuildingBlock: CIFDUS_clean_linker_0, # of connection points: 2
#     Edge 84, Type (0, 0), BuildingBlock: CIFDUS_clean_linker_0, # of connection points: 2
#     Edge 85, Type (0, 0), BuildingBlock: CIFDUS_clean_linker_0, # of connection points: 2
#     Edge 86, Type (0, 0), BuildingBlock: CIFDUS_clean_linker_0, # of connection points: 2
#     Edge 87, Type (0, 0), BuildingBlock: CIFDUS_clean_linker_0, # of connection points: 2
#     Edge 88, Type (0, 0), BuildingBlock: CIFDUS_clean_linker_0, # of connection points: 2
#     Edge 89, Type (0, 0), BuildingBlock: CIFDUS_clean_linker_0, # of connection points: 2
#     Edge 90, Type (0, 0), BuildingBlock: CIFDUS_clean_linker_0, # of connection points: 2
#     Edge 91, Type (0, 0), BuildingBlock: CIFDUS_clean_linker_0, # of connection points: 2
#     Edge 92, Type (0, 0), BuildingBlock: CIFDUS_clean_linker_0, # of connection points: 2
#     Edge 93, Type (0, 0), BuildingBlock: CIFDUS_clean_linker_0, # of connection points: 2
#     Edge 94, Type (0, 0), BuildingBlock: CIFDUS_clean_linker_0, # of connection points: 2
#     Edge 95, Type (0, 0), BuildingBlock: CIFDUS_clean_linker_0, # of connection points: 2
#     Edge 96, Type (0, 0), BuildingBlock: CIFDUS_clean_linker_0, # of connection points: 2
#     Edge 97, Type (0, 0), BuildingBlock: CIFDUS_clean_linker_0, # of connection points: 2
#     Edge 98, Type (0, 0), BuildingBlock: CIFDUS_clean_linker_0, # of connection points: 2
#     Edge 99, Type (0, 0), BuildingBlock: CIFDUS_clean_linker_0, # of connection points: 2
#     Edge 100, Type (0, 0), BuildingBlock: CIFDUS_clean_linker_0, # of connection points: 2
#     Edge 101, Type (0, 0), BuildingBlock: CIFDUS_clean_linker_0, # of connection points: 2
#     Edge 102, Type (0, 0), BuildingBlock: CIFDUS_clean_linker_0, # of connection points: 2
#     Edge 103, Type (0, 0), BuildingBlock: CIFDUS_clean_linker_0, # of connection points: 2
#     Edge 104, Type (0, 0), BuildingBlock: CIFDUS_clean_linker_0, # of connection points: 2
#     Edge 105, Type (0, 0), BuildingBlock: CIFDUS_clean_linker_0, # of connection points: 2
#     Edge 106, Type (0, 0), BuildingBlock: CIFDUS_clean_linker_0, # of connection points: 2
#     Edge 107, Type (0, 0), BuildingBlock: CIFDUS_clean_linker_0, # of connection points: 2
#     Edge 108, Type (0, 0), BuildingBlock: CIFDUS_clean_linker_0, # of connection points: 2
#     Edge 109, Type (0, 0), BuildingBlock: CIFDUS_clean_linker_0, # of connection points: 2
#     Edge 110, Type (0, 0), BuildingBlock: CIFDUS_clean_linker_0, # of connection points: 2
#     Edge 111, Type (0, 0), BuildingBlock: CIFDUS_clean_linker_0, # of connection points: 2
# Relax obj value: 0.143
# Max RMSD: 0.146
# Mean RMSD: 0.146
data_MOF--net-wge--node1-XOMCOT_clean_sbu_1--edge1-CIFDUS_clean_linker_0
_symmetry_space_group_name_H-M    P1
_symmetry_Int_Tables_number       1
_symmetry_cell_setting            triclinic
loop_
_symmetry_equiv_pos_as_xyz
'x, y, z'
_cell_length_a     60.93632
_cell_length_b     60.812144
_cell_length_c     36.558046
_cell_angle_alpha  90.069105
_cell_angle_beta   90.061664
_cell_angle_gamma 89.939594
loop_
_atom_site_label
_atom_site_type_symbol
_atom_site_fract_x
_atom_site_fract_y
_atom_site_fract_z
_atom_type_partial_charge
C0 C 0.20627 0.14128 0.02465 0.0
C1 C 0.19219 0.13793 0.99566 0.0
N2 N 0.19796 0.11902 0.97892 0.0
N3 N 0.22095 0.12469 0.02576 0.0
C4 C 0.21535 0.11133 0.99786 0.0
H5 H 0.20588 0.1549 0.0437 0.0
Co6 Co 0.24333 0.12046 0.05959 0.0
C7 C 0.27895 0.1095 0.00597 0.0
O8 O 0.29053 0.12631 0.01766 0.0
N9 N 0.26487 0.11544 0.09497 0.0
C10 C 0.2906 0.10095 0.13093 0.0
C11 C 0.28447 0.105 0.09524 0.0
C12 C 0.25942 0.11721 0.13058 0.0
N13 N 0.27458 0.10842 0.15301 0.0
O14 O 0.22952 0.09335 0.07562 0.0
H15 H 0.29308 0.09891 0.07157 0.0
H16 H 0.24401 0.12413 0.13972 0.0
O17 O 0.2607 0.10472 0.02144 0.0
C18 C 0.21307 0.09774 0.09605 0.0
O19 O 0.20723 0.1184 0.10012 0.0
N20 N 0.25537 0.14863 0.04695 0.0
C21 C 0.26499 0.19314 0.03389 0.0
C22 C 0.2603 0.17881 0.00481 0.0
C23 C 0.25559 0.15661 0.01188 0.0
C24 C 0.25982 0.16254 0.07538 0.0
C25 C 0.26508 0.1846 0.06943 0.0
H26 H 0.25135 0.14602 0.98919 0.0
H27 H 0.25824 0.15706 0.10324 0.0
H28 H 0.22402 0.0963 0.99137 0.0
H29 H 0.17863 0.14843 0.98788 0.0
H30 H 0.30494 0.09185 0.13974 0.0
H31 H 0.25987 0.18479 0.97693 0.0
H32 H 0.26798 0.1952 0.09278 0.0
C33 C 0.12874 0.95994 0.29223 0.0
C34 C 0.12863 0.94513 0.26376 0.0
N35 N 0.14546 0.95005 0.24138 0.0
N36 N 0.14555 0.97406 0.28767 0.0
C37 C 0.15554 0.96754 0.25665 0.0
H38 H 0.11724 0.96054 0.31473 0.0
Co39 Co 0.15277 0.99685 0.31899 0.0
C40 C 0.16413 0.03096 0.26281 0.0
O41 O 0.14871 0.04396 0.27559 0.0
N42 N 0.16041 0.01882 0.35224 0.0
C43 C 0.17669 0.04448 0.38631 0.0
C44 C 0.17213 0.03769 0.35104 0.0
C45 C 0.15854 0.01438 0.38815 0.0
N46 N 0.16829 0.02954 0.40949 0.0
O47 O 0.17974 0.98178 0.33231 0.0
H48 H 0.1785 0.04533 0.32668 0.0
H49 H 0.15057 0.99975 0.39836 0.0
O50 O 0.16787 1.01243 0.27829 0.0
C51 C 0.17616 0.96606 0.35467 0.0
O52 O 0.15579 0.96141 0.3634 0.0
N53 N 0.12492 1.01023 0.30875 0.0
C54 C 0.08036 0.02123 0.29942 0.0
C55 C 0.0938 0.01671 0.26912 0.0
C56 C 0.11595 1.0111 0.27437 0.0
C57 C 0.11194 0.01448 0.33835 0.0
C58 C 0.08989 0.02028 0.33431 0.0
H59 H 0.1257 1.00665 0.25079 0.0
H60 H 0.11812 1.01218 0.36565 0.0
H61 H 0.17009 0.97528 0.24569 0.0
H62 H 0.11686 0.93205 0.2595 0.0
H63 H 0.18652 0.05853 0.39415 0.0
H64 H 0.08719 0.01707 0.24163 0.0
H65 H 0.0801 0.02282 0.35866 0.0
C66 C 0.32791 0.8815 0.52941 0.0
C67 C 0.34187 0.88308 0.49996 0.0
N68 N 0.3343 0.89905 0.47774 0.0
N69 N 0.31164 0.89634 0.52557 0.0
C70 C 0.31608 0.90694 0.49412 0.0
H71 H 0.32933 0.87012 0.55201 0.0
Co72 Co 0.2888 0.90062 0.55795 0.0
C73 C 0.25353 0.90865 0.50075 0.0
O74 O 0.2434 0.89028 0.50907 0.0
N75 N 0.26655 0.90538 0.59224 0.0
C76 C 0.23718 0.91268 0.62655 0.0
C77 C 0.2446 0.90885 0.59141 0.0
C78 C 0.27192 0.90731 0.62783 0.0
N79 N 0.2546 0.91195 0.64904 0.0
O80 O 0.3007 0.92923 0.57081 0.0
H81 H 0.23449 0.90913 0.56726 0.0
H82 H 0.28831 0.90496 0.63839 0.0
O83 O 0.27077 0.91436 0.51853 0.0
C84 C 0.31609 0.92856 0.59459 0.0
O85 O 0.32381 0.90928 0.60449 0.0
N86 N 0.27854 0.87142 0.54805 0.0
C87 C 0.26912 0.82637 0.54014 0.0
C88 C 0.27384 0.83945 0.5095 0.0
C89 C 0.27871 0.86187 0.51406 0.0
C90 C 0.27474 0.85865 0.57807 0.0
C91 C 0.26967 0.83636 0.57472 0.0
H92 H 0.28279 0.87154 0.49022 0.0
H93 H 0.27641 0.8654 0.60521 0.0
H94 H 0.30628 0.92037 0.48363 0.0
H95 H 0.35618 0.87297 0.49497 0.0
H96 H 0.2205 0.91628 0.6348 0.0
H97 H 0.27386 0.83244 0.48227 0.0
H98 H 0.26703 0.82682 0.59933 0.0
C99 C 0.39393 0.0782 0.76204 0.0
C100 C 0.38786 0.09224 0.73444 0.0
N101 N 0.36721 0.08726 0.72416 0.0
N102 N 0.37733 0.06413 0.76886 0.0
C103 C 0.36101 0.07064 0.7463 0.0
H104 H 0.4096 0.07824 0.77584 0.0
Co105 Co 0.37665 0.04146 0.80341 0.0
C106 C 0.36471 0.01892 0.73175 0.0
O107 O 0.37628 0.03296 0.7125 0.0
N108 N 0.37595 0.01986 0.83858 0.0
C109 C 0.37697 0.98928 0.87162 0.0
C110 C 0.37801 0.9978 0.83666 0.0
C111 C 0.37382 0.02438 0.87441 0.0
N112 N 0.37417 1.00614 0.89517 0.0
O113 O 0.34747 0.05059 0.8186 0.0
H114 H 0.38043 0.98859 0.81166 0.0
H115 H 0.37269 0.04091 0.88519 0.0
O116 O 0.3643 0.02038 0.76683 0.0
C117 C 0.34879 0.06814 0.83777 0.0
O118 O 0.36802 0.07768 0.84116 0.0
N119 N 0.4061 0.03406 0.79322 0.0
C120 C 0.45199 0.03238 0.78879 0.0
C121 C 0.43884 0.021 0.76337 0.0
C122 C 0.41581 0.02186 0.76626 0.0
C123 C 0.41866 0.04389 0.81934 0.0
C124 C 0.44146 0.04324 0.81775 0.0
H125 H 0.40614 1.01292 0.74666 0.0
H126 H 0.41078 0.05304 0.84107 0.0
H127 H 0.34534 0.06233 0.74465 0.0
H128 H 0.39805 0.10491 0.72255 0.0
H129 H 0.37816 0.97211 0.8791 0.0
H130 H 0.44622 1.01205 0.7409 0.0
H131 H 0.45075 0.05158 0.83888 0.0
C132 C 0.19166 0.88517 0.00345 0.0
C133 C 0.17937 0.89002 0.03397 0.0
N134 N 0.18733 0.90864 0.04897 0.0
N135 N 0.20739 0.90056 0.99959 0.0
C136 C 0.20422 0.91471 0.02745 0.0
H137 H 0.18935 0.87135 0.9852 0.0
Co138 Co 0.22808 0.90218 0.96267 0.0
C139 C 0.26709 0.91185 0.01059 0.0
O140 O 0.27706 0.89401 0.99892 0.0
N141 N 0.24787 0.90432 0.92416 0.0
C142 C 0.27339 0.91233 0.88287 0.0
C143 C 0.26867 0.91149 0.91974 0.0
C144 C 0.2403 0.90143 0.88988 0.0
N145 N 0.25541 0.90597 0.86418 0.0
O146 O 0.21591 0.93014 0.94677 0.0
H147 H 0.27947 0.91697 0.94124 0.0
H148 H 0.22354 0.89679 0.88404 0.0
O149 O 0.24846 0.91729 0.99702 0.0
C150 C 0.19791 0.92745 0.92938 0.0
O151 O 0.18949 0.90759 0.92783 0.0
N152 N 0.23848 0.87342 0.9756 0.0
C153 C 0.24694 0.8288 0.98996 0.0
C154 C 0.24509 0.84403 0.01869 0.0
C155 C 0.2408 0.86626 0.01095 0.0
C156 C 0.23972 0.85854 0.94764 0.0
C157 C 0.24437 0.83642 0.95411 0.0
H158 H 0.23878 0.87763 0.03346 0.0
H159 H 0.23607 0.86336 0.92 0.0
H160 H 0.21429 0.92909 0.03206 0.0
H161 H 0.1655 0.88071 0.04402 0.0
H162 H 0.28871 0.91768 0.8709 0.0
H163 H 0.24663 0.83878 0.04687 0.0
H164 H 0.24481 0.82514 0.93116 0.0
C165 C 0.38728 0.953 0.23662 0.0
C166 C 0.38391 0.93941 0.26614 0.0
N167 N 0.36564 0.94621 0.28358 0.0
N168 N 0.37134 0.9684 0.23583 0.0
C169 C 0.35829 0.96369 0.26449 0.0
H170 H 0.4006 0.95194 0.21716 0.0
Co171 Co 0.36851 0.9909 0.20199 0.0
C172 C 0.35831 0.02692 0.25647 0.0
O173 O 0.37614 0.03771 0.24738 0.0
N174 N 0.36525 1.01277 0.16654 0.0
C175 C 0.35667 0.04105 0.13069 0.0
C176 C 0.35841 0.03391 0.16636 0.0
C177 C 0.36712 1.00746 0.13088 0.0
N178 N 0.36216 0.02428 0.10836 0.0
O179 O 0.3408 0.97852 0.18537 0.0
H180 H 0.35393 0.04347 0.19001 0.0
H181 H 0.37142 0.99111 0.12176 0.0
O182 O 0.35324 1.00915 0.23957 0.0
C183 C 0.34444 0.96166 0.16532 0.0
O184 O 0.36482 0.95502 0.16126 0.0
N185 N 0.39714 1.00119 0.21523 0.0
C186 C 0.44239 1.00562 0.22835 0.0
C187 C 0.42747 1.00469 0.25753 0.0
C188 C 0.40494 1.00206 0.2504 0.0
C189 C 0.41156 1.00249 0.18675 0.0
C190 C 0.43404 1.00496 0.19266 0.0
H191 H 0.39391 0.99964 0.27319 0.0
H192 H 0.406 1.00015 0.15905 0.0
H193 H 0.34391 0.97319 0.27168 0.0
H194 H 0.39405 0.92559 0.27405 0.0
H195 H 0.3514 0.05723 0.12206 0.0
H196 H 0.43325 1.0047 0.28555 0.0
H197 H 0.44493 1.00552 0.16927 0.0
C198 C 0.31445 0.14334 0.48017 0.0
C199 C 0.32925 0.14329 0.50853 0.0
N200 N 0.32361 0.12711 0.53181 0.0
N201 N 0.29961 0.12724 0.48556 0.0
C202 C 0.30563 0.11757 0.5172 0.0
H203 H 0.31434 0.15448 0.45714 0.0
Co204 Co 0.27665 0.12126 0.45392 0.0
C205 C 0.2417 0.11052 0.50857 0.0
O206 O 0.22931 0.12616 0.49481 0.0
N207 N 0.25448 0.11494 0.42019 0.0
C208 C 0.22984 0.09781 0.38523 0.0
C209 C 0.23622 0.1023 0.42072 0.0
C210 C 0.25893 0.11749 0.38437 0.0
N211 N 0.24445 0.10716 0.36253 0.0
O212 O 0.29062 0.09392 0.43934 0.0
H213 H 0.22911 0.09485 0.44468 0.0
H214 H 0.27348 0.12574 0.37454 0.0
O215 O 0.26041 0.10631 0.49414 0.0
C216 C 0.3059 0.09759 0.41619 0.0
O217 O 0.31089 0.11805 0.40838 0.0
N218 N 0.26457 0.14952 0.46518 0.0
C219 C 0.25919 0.1949 0.47629 0.0
C220 C 0.2604 0.18047 0.50612 0.0
C221 C 0.26348 0.15787 0.5 0.0
C222 C 0.2626 0.16341 0.43606 0.0
C223 C 0.25973 0.18598 0.44097 0.0
H224 H 0.26639 0.14732 0.52329 0.0
H225 H 0.26495 0.15745 0.40863 0.0
H226 H 0.29721 0.10365 0.52908 0.0
H227 H 0.34288 0.15449 0.51205 0.0
H228 H 0.21661 0.08703 0.37691 0.0
H229 H 0.26049 0.18675 0.53386 0.0
H230 H 0.25899 0.19655 0.41716 0.0
C231 C 0.126 0.07584 0.74078 0.0
C232 C 0.12786 0.09019 0.7698 0.0
N233 N 0.145 0.08373 0.79047 0.0
N234 N 0.14189 0.06047 0.74331 0.0
C235 C 0.1533 0.06582 0.77363 0.0
H236 H 0.11377 0.07643 0.71933 0.0
Co237 Co 0.14686 0.03746 0.711 0.0
C238 C 0.15543 1.00195 0.76599 0.0
O239 O 0.13919 0.99044 0.75212 0.0
N240 N 0.15249 0.01514 0.67708 0.0
C241 C 0.16839 0.98893 0.6437 0.0
C242 C 0.16351 0.99584 0.67866 0.0
C243 C 0.1513 0.01969 0.64105 0.0
N244 N 0.16092 1.00419 0.62018 0.0
O245 O 0.17471 0.05037 0.69684 0.0
H246 H 0.16967 0.98811 0.7031 0.0
H247 H 0.14445 0.03481 0.63046 0.0
O248 O 0.16088 0.02027 0.75124 0.0
C249 C 0.17136 0.0662 0.67451 0.0
O250 O 0.15104 0.07223 0.66788 0.0
N251 N 0.11814 0.02638 0.72154 0.0
C252 C 0.07293 0.01918 0.73093 0.0
C253 C 0.08683 0.02173 0.76129 0.0
C254 C 0.10932 0.02568 0.756 0.0
C255 C 0.10477 0.02364 0.69191 0.0
C256 C 0.08233 0.01976 0.69598 0.0
H257 H 0.11947 0.02906 0.77961 0.0
H258 H 0.11108 0.02567 0.66464 0.0
H259 H 0.16764 0.05691 0.78293 0.0
H260 H 0.11721 0.10401 0.77557 0.0
H261 H 0.17817 0.97472 0.63639 0.0
H262 H 0.08023 0.02182 0.78878 0.0
H263 H 0.07229 0.01792 0.67171 0.0
C264 C 0.82395 0.87881 0.99849 0.0
C265 C 0.83682 0.88536 0.02741 0.0
N266 N 0.83192 0.90642 0.0353 0.0
N267 N 0.81073 0.89559 0.98845 0.0
C268 C 0.81656 0.9124 0.01062 0.0
H269 H 0.82399 0.86262 0.98638 0.0
Co270 Co 0.78921 0.8961 0.95175 0.0
C271 C 0.76519 0.9087 0.02129 0.0
O272 O 0.77814 0.89611 0.04096 0.0
N273 N 0.76879 0.89665 0.91458 0.0
C274 C 0.73932 0.89613 0.87889 0.0
C275 C 0.74669 0.89565 0.91463 0.0
C276 C 0.77448 0.89763 0.87907 0.0
N277 N 0.75693 0.89752 0.85669 0.0
O278 O 0.79923 0.92493 0.93613 0.0
H279 H 0.73664 0.8944 0.9389 0.0
H280 H 0.79132 0.89782 0.86975 0.0
O281 O 0.76739 0.90939 0.9863 0.0
C282 C 0.81723 0.92298 0.91846 0.0
O283 O 0.82661 0.90353 0.91708 0.0
N284 N 0.78097 0.86687 0.96232 0.0
C285 C 0.777 0.82099 0.9666 0.0
C286 C 0.76445 0.83481 0.9894 0.0
C287 C 0.76646 0.85782 0.98652 0.0
C288 C 0.79214 0.85371 0.93862 0.0
C289 C 0.79043 0.83092 0.94023 0.0
H290 H 0.75635 0.86803 0.00367 0.0
H291 H 0.80297 0.8611 0.91869 0.0
H292 H 0.80885 0.92843 0.00977 0.0
H293 H 0.84805 0.87503 0.04264 0.0
H294 H 0.72239 0.89558 0.86998 0.0
H295 H 0.7535 0.82796 0.0097 0.0
H296 H 0.79977 0.82117 0.92092 0.0
C297 C 0.885 0.06999 0.73213 0.0
C298 C 0.88256 0.08287 0.76284 0.0
N299 N 0.86585 0.07471 0.78284 0.0
N300 N 0.86999 0.05374 0.73288 0.0
C301 C 0.85848 0.05715 0.76385 0.0
H302 H 0.89699 0.07222 0.71065 0.0
Co303 Co 0.86618 0.03179 0.69804 0.0
C304 C 0.85908 0.99488 0.75162 0.0
O305 O 0.87686 0.98478 0.74019 0.0
N306 N 0.86164 1.01052 0.66187 0.0
C307 C 0.85074 0.98319 0.6256 0.0
C308 C 0.8543 0.98956 0.66137 0.0
C309 C 0.862 0.01651 0.62641 0.0
N310 N 0.85548 1.00033 0.60371 0.0
O311 O 0.83777 0.04397 0.68506 0.0
H312 H 0.85058 0.97971 0.68505 0.0
H313 H 0.86702 0.03269 0.61752 0.0
O314 O 0.85279 1.01268 0.73607 0.0
C315 C 0.84043 0.06095 0.66495 0.0
O316 O 0.86047 0.06813 0.65936 0.0
N317 N 0.89553 0.02171 0.70737 0.0
C318 C 0.9415 0.01982 0.71381 0.0
C319 C 0.92816 0.02033 0.74511 0.0
C320 C 0.90518 0.02145 0.7413 0.0
C321 C 0.90844 0.02023 0.67697 0.0
C322 C 0.9312 0.01885 0.67959 0.0
H323 H 0.89528 0.02356 0.76558 0.0
H324 H 0.90151 0.02186 0.65007 0.0
H325 H 0.8451 0.04674 0.77253 0.0
H326 H 0.8922 0.09724 0.76959 0.0
H327 H 0.84436 0.96748 0.61662 0.0
H328 H 0.9354 0.02136 0.77211 0.0
H329 H 0.94076 0.01832 0.65463 0.0
C330 C 0.6982 0.14236 0.47573 0.0
C331 C 0.68411 0.14082 0.50503 0.0
N332 N 0.69023 0.12338 0.52531 0.0
N333 N 0.71309 0.12599 0.47777 0.0
C334 C 0.70761 0.11453 0.50786 0.0
H335 H 0.69808 0.15497 0.45489 0.0
Co336 Co 0.73657 0.12159 0.44653 0.0
C337 C 0.77091 0.10923 0.50154 0.0
O338 O 0.78337 0.12537 0.48979 0.0
N339 N 0.75938 0.11676 0.4134 0.0
C340 C 0.78512 0.10095 0.37907 0.0
C341 C 0.77727 0.10359 0.41411 0.0
C342 C 0.75651 0.1214 0.37767 0.0
N343 N 0.77183 0.11202 0.3561 0.0
O344 O 0.7231 0.09469 0.42869 0.0
H345 H 0.78315 0.09457 0.43753 0.0
H346 H 0.74252 0.1305 0.36761 0.0
O347 O 0.7525 0.10533 0.48583 0.0
C348 C 0.70794 0.09931 0.40577 0.0
O349 O 0.70351 0.12012 0.39948 0.0
N350 N 0.7482 0.14947 0.46153 0.0
C351 C 0.7552 0.19401 0.47928 0.0
C352 C 0.75233 0.17816 0.50679 0.0
C353 C 0.7486 0.15611 0.49738 0.0
C354 C 0.75121 0.16469 0.43459 0.0
C355 C 0.75496 0.18683 0.44279 0.0
H356 H 0.74498 0.14456 0.51899 0.0
H357 H 0.74925 0.1602 0.40632 0.0
H358 H 0.71635 0.10007 0.51707 0.0
H359 H 0.67097 0.15214 0.51164 0.0
H360 H 0.79847 0.09026 0.37096 0.0
H361 H 0.75228 0.18282 0.53538 0.0
H362 H 0.7563 0.19842 0.42044 0.0
C363 C 0.63134 0.94547 0.22596 0.0
C364 C 0.63389 0.93134 0.25505 0.0
N365 N 0.65022 0.93903 0.27644 0.0
N366 N 0.6459 0.96201 0.22922 0.0
C367 C 0.65734 0.9575 0.25987 0.0
H368 H 0.61938 0.94408 0.20419 0.0
Co369 Co 0.64887 0.98574 0.1981 0.0
C370 C 0.65537 0.02114 0.25456 0.0
O371 O 0.63799 0.03161 0.24228 0.0
N372 N 0.6525 1.00908 0.16523 0.0
C373 C 0.66506 0.0373 0.13245 0.0
C374 C 0.66212 0.0291 0.16728 0.0
C375 C 0.65022 1.00547 0.12908 0.0
N376 N 0.65775 0.02216 0.10856 0.0
O377 O 0.67777 0.97531 0.18379 0.0
H378 H 0.66848 0.03666 0.19177 0.0
H379 H 0.64392 0.99029 0.11788 0.0
O380 O 0.66162 1.0034 0.23873 0.0
C381 C 0.67671 0.96156 0.15729 0.0
O382 O 0.65726 0.95488 0.14649 0.0
N383 N 0.61926 0.99427 0.20897 0.0
C384 C 0.57342 0.99635 0.2172 0.0
C385 C 0.58721 0.99561 0.24798 0.0
C386 C 0.61013 0.99424 0.24326 0.0
C387 C 0.60586 0.99541 0.1791 0.0
C388 C 0.58317 0.99688 0.18258 0.0
H389 H 0.62042 0.99198 0.26708 0.0
H390 H 0.61238 0.99359 0.15202 0.0
H391 H 0.67076 0.96752 0.26971 0.0
H392 H 0.62411 0.91686 0.26046 0.0
H393 H 0.67341 0.05238 0.12525 0.0
H394 H 0.58033 0.99473 0.27524 0.0
H395 H 0.57321 0.99727 0.15802 0.0
C396 C 0.82396 0.15463 0.01067 0.0
C397 C 0.8388 0.15094 0.98297 0.0
N398 N 0.83712 0.12976 0.97267 0.0
N399 N 0.8128 0.1359 0.01741 0.0
C400 C 0.82176 0.1209 0.99465 0.0
H401 H 0.82122 0.17016 0.02429 0.0
Co402 Co 0.79044 0.13114 0.05143 0.0
C403 C 0.77043 0.11596 0.97894 0.0
O404 O 0.78244 0.12956 0.95958 0.0
N405 N 0.76903 0.12642 0.08603 0.0
C406 C 0.73877 0.11962 0.11765 0.0
C407 C 0.74724 0.12312 0.08317 0.0
C408 C 0.77341 0.1252 0.12202 0.0
N409 N 0.75538 0.12082 0.14203 0.0
O410 O 0.80398 0.1035 0.0659 0.0
H411 H 0.7381 0.12324 0.05781 0.0
H412 H 0.78961 0.12781 0.13325 0.0
O413 O 0.77194 0.1159 0.01403 0.0
C414 C 0.82081 0.10716 0.08589 0.0
O415 O 0.82729 0.1276 0.09022 0.0
N416 N 0.77842 0.15921 0.0421 0.0
C417 C 0.76608 0.20356 0.04238 0.0
C418 C 0.75894 0.18941 0.0144 0.0
C419 C 0.765 0.16705 0.01508 0.0
C420 C 0.78532 0.17284 0.06939 0.0
C421 C 0.77929 0.19493 0.0702 0.0
H422 H 0.75869 0.15637 0.99414 0.0
H423 H 0.79585 0.16643 0.09071 0.0
H424 H 0.81632 0.10398 0.993 0.0
H425 H 0.84914 0.16314 0.97008 0.0
H426 H 0.72179 0.11619 0.12409 0.0
H427 H 0.74845 0.19547 0.99269 0.0
H428 H 0.7852 0.2053 0.09222 0.0
C429 C 0.64112 0.07257 0.77058 0.0
C430 C 0.64429 0.08575 0.74047 0.0
N431 N 0.66101 0.07729 0.72086 0.0
N432 N 0.65559 0.05581 0.76949 0.0
C433 C 0.66761 0.05923 0.73916 0.0
H434 H 0.62904 0.07498 0.79186 0.0
Co435 Co 0.65822 0.03358 0.8032 0.0
C436 C 0.66387 0.99344 0.75801 0.0
O437 O 0.64955 0.98415 0.77998 0.0
N438 N 0.66155 1.01167 0.83893 0.0
C439 C 0.67897 0.98811 0.87564 0.0
C440 C 0.67728 0.99594 0.8405 0.0
C441 C 0.65457 0.01352 0.87382 0.0
N442 N 0.66486 0.9995 0.89658 0.0
O443 O 0.6874 0.04376 0.81585 0.0
H444 H 0.6886 0.99207 0.8187 0.0
H445 H 0.64401 0.02653 0.88341 0.0
O446 O 0.66972 0.01337 0.7642 0.0
C447 C 0.68608 0.05627 0.84394 0.0
O448 O 0.66649 0.06109 0.85663 0.0
N449 N 0.62845 0.0256 0.79341 0.0
C450 C 0.58299 0.02127 0.78331 0.0
C451 C 0.59759 0.0165 0.75476 0.0
C452 C 0.62023 0.0195 0.75999 0.0
C453 C 0.61426 0.03111 0.82075 0.0
C454 C 0.59162 0.02879 0.81652 0.0
H455 H 0.63093 0.01775 0.73666 0.0
H456 H 0.62028 0.0388 0.84527 0.0
H457 H 0.68078 0.04851 0.7304 0.0
H458 H 0.63521 0.10052 0.73378 0.0
H459 H 0.69123 0.97672 0.8857 0.0
H460 H 0.5915 1.01158 0.72814 0.0
H461 H 0.58088 0.0334 0.83887 0.0
C462 C 0.70619 0.88677 0.51701 0.0
C463 C 0.69257 0.89047 0.48764 0.0
N464 N 0.7001 0.90816 0.4694 0.0
N465 N 0.72232 0.90192 0.51701 0.0
C466 C 0.71804 0.91489 0.48795 0.0
H467 H 0.70471 0.87365 0.53681 0.0
Co468 Co 0.74528 0.90311 0.55033 0.0
C469 C 0.78099 0.91331 0.4956 0.0
O470 O 0.79109 0.89473 0.5029 0.0
N471 N 0.7675 0.90466 0.58552 0.0
C472 C 0.79601 0.9116 0.62179 0.0
C473 C 0.78883 0.91065 0.586 0.0
C474 C 0.76217 0.90236 0.62108 0.0
N475 N 0.77909 0.9064 0.64388 0.0
O476 O 0.73434 0.931 0.56907 0.0
H477 H 0.79847 0.91514 0.56249 0.0
H478 H 0.74571 0.89853 0.62996 0.0
O479 O 0.76366 0.91863 0.51342 0.0
C480 C 0.71789 0.92816 0.59022 0.0
O481 O 0.70969 0.90824 0.59276 0.0
N482 N 0.7545 0.87436 0.53479 0.0
C483 C 0.75945 0.82945 0.51781 0.0
C484 C 0.75666 0.84515 0.49003 0.0
C485 C 0.75412 0.86747 0.49907 0.0
C486 C 0.75704 0.85917 0.56196 0.0
C487 C 0.7599 0.83686 0.55411 0.0
H488 H 0.75109 0.87914 0.47734 0.0
H489 H 0.75563 0.86393 0.59024 0.0
H490 H 0.72821 0.92863 0.47995 0.0
H491 H 0.67826 0.8809 0.4803 0.0
H492 H 0.81229 0.91625 0.63068 0.0
H493 H 0.756 0.84019 0.46159 0.0
H494 H 0.76122 0.82535 0.57659 0.0
C495 C 0.89686 0.95891 0.27375 0.0
C496 C 0.89678 0.94517 0.24387 0.0
N497 N 0.88123 0.95222 0.22032 0.0
N498 N 0.88147 0.97457 0.26913 0.0
C499 C 0.87211 0.97 0.23654 0.0
H500 H 0.9076 0.95776 0.29725 0.0
Co501 Co 0.87589 0.9973 0.30176 0.0
C502 C 0.86608 0.03314 0.24802 0.0
O503 O 0.88191 0.045 0.2624 0.0
N504 N 0.86974 0.01922 0.33617 0.0
C505 C 0.85194 0.04369 0.37054 0.0
C506 C 0.85695 0.03742 0.33529 0.0
C507 C 0.87189 0.0147 0.37209 0.0
N508 N 0.86112 0.02911 0.3936 0.0
O509 O 0.8484 0.98353 0.31561 0.0
H510 H 0.84962 0.04449 0.31117 0.0
H511 H 0.88011 1.00014 0.38212 0.0
O512 O 0.86132 0.01441 0.26199 0.0
C513 C 0.85182 0.96814 0.33874 0.0
O514 O 0.87215 0.96295 0.34697 0.0
N515 N 0.90431 1.00921 0.29113 0.0
C516 C 0.94946 0.01628 0.28009 0.0
C517 C 0.93513 0.01359 0.25031 0.0
C518 C 0.91269 1.00995 0.25638 0.0
C519 C 0.91805 1.01215 0.32026 0.0
C520 C 0.94047 0.016 0.31538 0.0
H521 H 0.90226 1.00669 0.23309 0.0
H522 H 0.91211 1.0101 0.34775 0.0
H523 H 0.85919 0.97985 0.22461 0.0
H524 H 0.90731 0.93103 0.24005 0.0
H525 H 0.84082 0.05677 0.37837 0.0
H526 H 0.94128 0.01361 0.22253 0.0
H527 H 0.95089 0.01734 0.33929 0.0
C528 C 0.70598 0.64245 0.51602 0.0
C529 C 0.69216 0.63796 0.48711 0.0
N530 N 0.69899 0.6192 0.47103 0.0
N531 N 0.72154 0.62672 0.51772 0.0
C532 C 0.71672 0.61271 0.49029 0.0
H533 H 0.70486 0.6563 0.53451 0.0
Co534 Co 0.74435 0.62426 0.55109 0.0
C535 C 0.78051 0.61617 0.49728 0.0
O536 O 0.79116 0.63332 0.51004 0.0
N537 N 0.76665 0.62096 0.5858 0.0
C538 C 0.79305 0.60724 0.62133 0.0
C539 C 0.78648 0.61092 0.58574 0.0
C540 C 0.76156 0.62289 0.62149 0.0
N541 N 0.77708 0.61452 0.6436 0.0
O542 O 0.73291 0.59602 0.56783 0.0
H543 H 0.7948 0.60449 0.56202 0.0
H544 H 0.74597 0.62918 0.63102 0.0
O545 O 0.76254 0.61013 0.5124 0.0
C546 C 0.71738 0.59988 0.59053 0.0
O547 O 0.71035 0.62027 0.59317 0.0
N548 N 0.7539 0.65338 0.53862 0.0
C549 C 0.76296 0.69828 0.52799 0.0
C550 C 0.75953 0.68423 0.49797 0.0
C551 C 0.75488 0.66182 0.50388 0.0
C552 C 0.7561 0.66724 0.56779 0.0
C553 C 0.76103 0.68942 0.56315 0.0
H554 H 0.75177 0.65132 0.48055 0.0
H555 H 0.75322 0.66147 0.59515 0.0
H556 H 0.72626 0.59814 0.48426 0.0
H557 H 0.67808 0.64763 0.47886 0.0
H558 H 0.80746 0.5982 0.62998 0.0
H559 H 0.76043 0.69047 0.47029 0.0
H560 H 0.76257 0.69977 0.58717 0.0
C561 C 0.64009 0.45931 0.77167 0.0
C562 C 0.64344 0.44629 0.74142 0.0
N563 N 0.66087 0.45421 0.72302 0.0
N564 N 0.65523 0.47545 0.77214 0.0
C565 C 0.66778 0.47183 0.74238 0.0
H566 H 0.62738 0.45726 0.79201 0.0
Co567 Co 0.65731 0.49724 0.80744 0.0
C568 C 0.66394 0.5372 0.76273 0.0
O569 O 0.64822 0.54585 0.78276 0.0
N570 N 0.66009 0.51834 0.84493 0.0
C571 C 0.67604 0.54158 0.88403 0.0
C572 C 0.67384 0.53573 0.84783 0.0
C573 C 0.65498 0.51352 0.87998 0.0
N574 N 0.66434 0.52735 0.90426 0.0
O575 O 0.68573 0.48603 0.82313 0.0
H576 H 0.68377 0.54229 0.826 0.0
H577 H 0.64618 0.49885 0.88777 0.0
O578 O 0.67051 0.51764 0.77015 0.0
C579 C 0.68139 0.47113 0.84676 0.0
O580 O 0.6609 0.46456 0.84924 0.0
N581 N 0.62794 0.50639 0.79533 0.0
C582 C 0.58281 0.51156 0.78084 0.0
C583 C 0.59827 0.51191 0.75233 0.0
C584 C 0.62071 0.50917 0.7601 0.0
C585 C 0.61297 0.50567 0.82305 0.0
C586 C 0.59058 0.50859 0.81657 0.0
H587 H 0.63217 0.50839 0.73759 0.0
H588 H 0.61796 0.50149 0.85031 0.0
H589 H 0.68153 0.4821 0.7348 0.0
H590 H 0.63395 0.43195 0.73387 0.0
H591 H 0.68707 0.55396 0.89475 0.0
H592 H 0.59304 0.51383 0.7242 0.0
H593 H 0.57931 0.50729 0.83935 0.0
C594 C 0.81787 0.38726 0.02567 0.0
C595 C 0.8295 0.38853 0.99352 0.0
N596 N 0.8215 0.40553 0.97401 0.0
N597 N 0.80267 0.40338 0.02621 0.0
C598 C 0.80539 0.41435 0.99458 0.0
H599 H 0.82006 0.37519 0.04707 0.0
Co600 Co 0.78258 0.40821 0.06303 0.0
C601 C 0.74209 0.41892 0.02159 0.0
O602 O 0.73222 0.40432 0.04235 0.0
N603 N 0.76331 0.41361 0.10184 0.0
C604 C 0.74406 0.43335 0.142 0.0
C605 C 0.74791 0.42953 0.10551 0.0
C606 C 0.76892 0.40861 0.13659 0.0
N607 N 0.7575 0.42029 0.16146 0.0
O608 O 0.79693 0.43566 0.07576 0.0
H609 H 0.7418 0.43985 0.08379 0.0
H610 H 0.78318 0.39884 0.14348 0.0
O611 O 0.76247 0.42301 0.02716 0.0
C612 C 0.81353 0.43147 0.09601 0.0
O613 O 0.81886 0.41079 0.10151 0.0
N614 N 0.7703 0.37983 0.05303 0.0
C615 C 0.76281 0.3349 0.03877 0.0
C616 C 0.76114 0.35067 0.01081 0.0
C617 C 0.76527 0.37291 0.01834 0.0
C618 C 0.77169 0.36473 0.08053 0.0
C619 C 0.76783 0.34239 0.07414 0.0
H620 H 0.76557 0.38435 0.99577 0.0
H621 H 0.77738 0.36955 0.1072 0.0
H622 H 0.79585 0.42862 0.98685 0.0
H623 H 0.84245 0.37752 0.98484 0.0
H624 H 0.73357 0.44605 0.15321 0.0
H625 H 0.7574 0.34583 0.98299 0.0
H626 H 0.77015 0.33096 0.09649 0.0
C627 C 0.89866 0.57932 0.26219 0.0
C628 C 0.89514 0.59232 0.23198 0.0
N629 N 0.87667 0.58536 0.21531 0.0
N630 N 0.88253 0.56422 0.26432 0.0
C631 C 0.86932 0.5684 0.23561 0.0
H632 H 0.91204 0.58078 0.28151 0.0
Co633 Co 0.87881 0.54352 0.30087 0.0
C634 C 0.86907 0.50543 0.24995 0.0
O635 O 0.88695 0.49496 0.25996 0.0
N636 N 0.87462 0.52368 0.33885 0.0
C637 C 0.86682 0.49756 0.3793 0.0
C638 C 0.86924 0.50226 0.34255 0.0
C639 C 0.87502 0.53155 0.37326 0.0
N640 N 0.87058 0.51613 0.39849 0.0
O641 O 0.85082 0.5566 0.31409 0.0
H642 H 0.86668 0.49081 0.32042 0.0
H643 H 0.87835 0.5486 0.3795 0.0
O644 O 0.8641 0.52377 0.26511 0.0
C645 C 0.85324 0.57479 0.33118 0.0
O646 O 0.87304 0.58319 0.33363 0.0
N647 N 0.9077 0.53237 0.29118 0.0
C648 C 0.95344 0.52813 0.28386 0.0
C649 C 0.93977 0.52786 0.25289 0.0
C650 C 0.9169 0.53024 0.25712 0.0
C651 C 0.92094 0.53187 0.32133 0.0
C652 C 0.94355 0.52933 0.31833 0.0
H653 H 0.90676 0.53176 0.23294 0.0
H654 H 0.91442 0.53513 0.34811 0.0
H655 H 0.85426 0.55954 0.2303 0.0
H656 H 0.90545 0.60571 0.22289 0.0
H657 H 0.86265 0.48174 0.39087 0.0
H658 H 0.94675 0.52729 0.22568 0.0
H659 H 0.95339 0.5296 0.34303 0.0
C660 C 0.70089 0.3808 0.48436 0.0
C661 C 0.68643 0.38373 0.51295 0.0
N662 N 0.6933 0.40102 0.53302 0.0
N663 N 0.71679 0.39612 0.48666 0.0
C664 C 0.71155 0.40834 0.51615 0.0
H665 H 0.7001 0.36811 0.46364 0.0
Co666 Co 0.74091 0.39962 0.45674 0.0
C667 C 0.77689 0.40872 0.51027 0.0
O668 O 0.7893 0.39423 0.49339 0.0
N669 N 0.76516 0.40386 0.42559 0.0
C670 C 0.78916 0.42337 0.39306 0.0
C671 C 0.77881 0.4214 0.4263 0.0
C672 C 0.76761 0.39556 0.39154 0.0
N673 N 0.78198 0.40708 0.37128 0.0
O674 O 0.72999 0.42827 0.44197 0.0
H675 H 0.77921 0.43366 0.4477 0.0
H676 H 0.75668 0.38364 0.37952 0.0
O677 O 0.7575 0.41261 0.49836 0.0
C678 C 0.72112 0.42725 0.41028 0.0
O679 O 0.72015 0.40812 0.39368 0.0
N680 N 0.74973 0.37035 0.46806 0.0
C681 C 0.75819 0.32522 0.47499 0.0
C682 C 0.75963 0.3392 0.50553 0.0
C683 C 0.755 0.36177 0.50159 0.0
C684 C 0.74618 0.35645 0.4394 0.0
C685 C 0.75096 0.33411 0.44185 0.0
H686 H 0.75518 0.37212 0.5256 0.0
H687 H 0.73855 0.3625 0.41483 0.0
H688 H 0.72092 0.42249 0.52496 0.0
H689 H 0.67232 0.37356 0.51897 0.0
H690 H 0.79925 0.43703 0.38431 0.0
H691 H 0.76425 0.33276 0.53205 0.0
H692 H 0.74832 0.32369 0.41819 0.0
C693 C 0.89639 0.44964 0.73957 0.0
C694 C 0.89538 0.4362 0.76974 0.0
N695 N 0.87758 0.44195 0.78944 0.0
N696 N 0.8794 0.46385 0.74047 0.0
C697 C 0.86817 0.45868 0.77094 0.0
H698 H 0.90878 0.44925 0.71841 0.0
Co699 Co 0.87342 0.48546 0.7062 0.0
C700 C 0.86044 0.52022 0.76229 0.0
O701 O 0.87828 0.5318 0.75672 0.0
N702 N 0.86713 0.50638 0.67053 0.0
C703 C 0.86095 0.53521 0.6345 0.0
C704 C 0.86528 0.52853 0.66987 0.0
C705 C 0.86379 0.50009 0.63563 0.0
N706 N 0.85981 0.51714 0.61331 0.0
O707 O 0.84663 0.47012 0.69204 0.0
H708 H 0.86736 0.5393 0.69301 0.0
H709 H 0.86523 0.48329 0.62627 0.0
O710 O 0.85687 0.5027 0.74366 0.0
C711 C 0.8506 0.45266 0.67367 0.0
O712 O 0.87115 0.4466 0.66949 0.0
N713 N 0.90113 0.49885 0.71694 0.0
C714 C 0.94608 0.50805 0.72544 0.0
C715 C 0.93258 0.50477 0.75605 0.0
C716 C 0.91024 0.49987 0.75121 0.0
C717 C 0.91407 0.50242 0.68706 0.0
C718 C 0.93632 0.50736 0.6907 0.0
H719 H 0.90049 0.49589 0.775 0.0
H720 H 0.90757 0.50016 0.65984 0.0
H721 H 0.85358 0.46733 0.77974 0.0
H722 H 0.90677 0.42316 0.77646 0.0
H723 H 0.859 0.55196 0.62504 0.0
H724 H 0.93944 0.50475 0.78339 0.0
H725 H 0.94602 0.5098 0.66622 0.0
C726 C 0.80902 0.63513 0.98216 0.0
C727 C 0.8224 0.63265 0.01213 0.0
N728 N 0.8149 0.61557 0.032 0.0
N729 N 0.7931 0.61982 0.98332 0.0
C730 C 0.79713 0.60805 0.0138 0.0
H731 H 0.81095 0.64708 0.96052 0.0
Co732 Co 0.7721 0.61565 0.94769 0.0
C733 C 0.73132 0.60917 0.98984 0.0
O734 O 0.72249 0.62355 0.96734 0.0
N735 N 0.75184 0.61075 0.90993 0.0
C736 C 0.73015 0.59248 0.87118 0.0
C737 C 0.73554 0.59569 0.90735 0.0
C738 C 0.75661 0.61558 0.87484 0.0
N739 N 0.74371 0.60482 0.85084 0.0
O740 O 0.78414 0.58691 0.93678 0.0
H741 H 0.72956 0.58566 0.92954 0.0
H742 H 0.7708 0.625 0.86681 0.0
O743 O 0.75143 0.60356 0.98515 0.0
C744 C 0.8 0.58938 0.91427 0.0
O745 O 0.80599 0.60942 0.90547 0.0
N746 N 0.76227 0.6452 0.95585 0.0
C747 C 0.75762 0.6907 0.96626 0.0
C748 C 0.75387 0.67607 0.99514 0.0
C749 C 0.75686 0.6534 0.98963 0.0
C750 C 0.76603 0.65945 0.92772 0.0
C751 C 0.76366 0.68213 0.93223 0.0
H752 H 0.75595 0.64264 0.01306 0.0
H753 H 0.77252 0.65357 0.90223 0.0
H754 H 0.78729 0.59417 0.02228 0.0
H755 H 0.8369 0.64226 0.01816 0.0
H756 H 0.71874 0.58039 0.8606 0.0
H757 H 0.74994 0.68218 0.0222 0.0
H758 H 0.76735 0.69297 0.90957 0.0
C759 C 0.62636 0.57065 0.2366 0.0
C760 C 0.62888 0.58541 0.26477 0.0
N761 N 0.64653 0.57934 0.28456 0.0
N762 N 0.64232 0.55534 0.23866 0.0
C763 C 0.65444 0.56111 0.26803 0.0
H764 H 0.61359 0.57088 0.21601 0.0
Co765 Co 0.64568 0.53214 0.20615 0.0
C766 C 0.65844 0.49839 0.26339 0.0
O767 O 0.64016 0.48729 0.25922 0.0
N768 N 0.6494 0.50965 0.17187 0.0
C769 C 0.66059 0.48171 0.13711 0.0
C770 C 0.65721 0.48884 0.1726 0.0
C771 C 0.64811 0.51461 0.13604 0.0
N772 N 0.65511 0.4982 0.1143 0.0
O773 O 0.67274 0.54496 0.18778 0.0
H774 H 0.66151 0.47977 0.1969 0.0
H775 H 0.64255 0.53039 0.12609 0.0
O776 O 0.66237 0.51527 0.2435 0.0
C777 C 0.66849 0.56029 0.16494 0.0
O778 O 0.64802 0.56692 0.16225 0.0
N779 N 0.61766 0.52104 0.22078 0.0
C780 C 0.57258 0.51555 0.23405 0.0
C781 C 0.58735 0.51836 0.26318 0.0
C782 C 0.60981 0.52143 0.25592 0.0
C783 C 0.60338 0.5178 0.19247 0.0
C784 C 0.58104 0.5147 0.19849 0.0
H785 H 0.6207 0.52523 0.27843 0.0
H786 H 0.60885 0.51909 0.16457 0.0
H787 H 0.66892 0.55228 0.27686 0.0
H788 H 0.6183 0.59928 0.27063 0.0
H789 H 0.66772 0.46616 0.12891 0.0
H790 H 0.58146 0.51949 0.29105 0.0
H791 H 0.57027 0.51262 0.17514 0.0
C792 C 0.32214 0.3834 0.49344 0.0
C793 C 0.33338 0.38667 0.52558 0.0
N794 N 0.32456 0.40419 0.54279 0.0
N795 N 0.30619 0.39867 0.49055 0.0
C796 C 0.30814 0.4112 0.52083 0.0
H797 H 0.32528 0.37067 0.47342 0.0
Co798 Co 0.28696 0.40154 0.45152 0.0
C799 C 0.24543 0.40697 0.49447 0.0
O800 O 0.23775 0.38897 0.47923 0.0
N801 N 0.26854 0.40502 0.41087 0.0
C802 C 0.24326 0.41196 0.36833 0.0
C803 C 0.24718 0.41017 0.40531 0.0
C804 C 0.2773 0.40473 0.37697 0.0
N805 N 0.26233 0.40865 0.35078 0.0
O806 O 0.2984 0.43055 0.44079 0.0
H807 H 0.23513 0.4134 0.42613 0.0
H808 H 0.29441 0.40128 0.37153 0.0
O809 O 0.26444 0.41405 0.48535 0.0
C810 C 0.31695 0.4291 0.42469 0.0
O811 O 0.32637 0.4097 0.42247 0.0
N812 N 0.27764 0.37174 0.45882 0.0
C813 C 0.27388 0.32575 0.46437 0.0
C814 C 0.272 0.33916 0.49555 0.0
C815 C 0.27421 0.36213 0.49226 0.0
C816 C 0.27917 0.35876 0.42844 0.0
C817 C 0.27687 0.33603 0.43048 0.0
H818 H 0.27408 0.3721 0.51677 0.0
H819 H 0.28353 0.36569 0.4024 0.0
H820 H 0.29801 0.42546 0.52623 0.0
H821 H 0.34685 0.37675 0.53561 0.0
H822 H 0.22778 0.41596 0.35537 0.0
H823 H 0.27004 0.33194 0.5224 0.0
H824 H 0.27836 0.32647 0.40558 0.0
C825 C 0.38602 0.57269 0.23298 0.0
C826 C 0.38277 0.58654 0.26233 0.0
N827 N 0.36461 0.57988 0.2801 0.0
N828 N 0.37015 0.55723 0.23287 0.0
C829 C 0.35724 0.56223 0.26155 0.0
H830 H 0.39921 0.57359 0.21327 0.0
Co831 Co 0.36649 0.53425 0.20013 0.0
C832 C 0.35901 0.499 0.25658 0.0
O833 O 0.37672 0.48846 0.24595 0.0
N834 N 0.36212 0.51191 0.16598 0.0
C835 C 0.35222 0.48338 0.1315 0.0
C836 C 0.35533 0.49075 0.16686 0.0
C837 C 0.36255 0.51701 0.13017 0.0
N838 N 0.35663 0.50011 0.10859 0.0
O839 O 0.33816 0.54618 0.18575 0.0
H840 H 0.35178 0.48139 0.19114 0.0
H841 H 0.3673 0.53303 0.12016 0.0
O842 O 0.35286 0.5164 0.23969 0.0
C843 C 0.34086 0.56273 0.16467 0.0
O844 O 0.36092 0.56973 0.1586 0.0
N845 N 0.3957 0.52433 0.21084 0.0
C846 C 0.44152 0.5216 0.21856 0.0
C847 C 0.42795 0.52316 0.24947 0.0
C848 C 0.40505 0.52475 0.245 0.0
C849 C 0.40883 0.52198 0.18086 0.0
C850 C 0.43152 0.52018 0.18414 0.0
H851 H 0.39498 0.52766 0.26886 0.0
H852 H 0.40212 0.52312 0.15371 0.0
H853 H 0.3429 0.5528 0.26914 0.0
H854 H 0.39292 0.60042 0.26993 0.0
H855 H 0.34641 0.46728 0.12341 0.0
H856 H 0.435 0.52462 0.27656 0.0
H857 H 0.44131 0.51894 0.15949 0.0
C858 C 0.19982 0.64751 0.9762 0.0
C859 C 0.18568 0.64615 0.00548 0.0
N860 N 0.1918 0.62883 0.02604 0.0
N861 N 0.21468 0.63112 0.9785 0.0
C862 C 0.20921 0.61988 0.00884 0.0
H863 H 0.19959 0.65987 0.95495 0.0
Co864 Co 0.23776 0.62584 0.94668 0.0
C865 C 0.27165 0.61433 0.00373 0.0
O866 O 0.2838 0.63115 0.99394 0.0
N867 N 0.26015 0.62006 0.91322 0.0
C868 C 0.28727 0.60587 0.87994 0.0
C869 C 0.27989 0.60995 0.91494 0.0
C870 C 0.25587 0.62163 0.87715 0.0
N871 N 0.27193 0.61306 0.85628 0.0
O872 O 0.22387 0.59878 0.93057 0.0
H873 H 0.2879 0.60431 0.93947 0.0
H874 H 0.24079 0.62848 0.8665 0.0
O875 O 0.25389 0.61003 0.9863 0.0
C876 C 0.20813 0.60299 0.90852 0.0
O877 O 0.20286 0.62364 0.90264 0.0
N878 N 0.24987 0.65388 0.95931 0.0
C879 C 0.25908 0.69866 0.97113 0.0
C880 C 0.25472 0.68455 1.00063 0.0
C881 C 0.24998 0.66228 0.99413 0.0
C882 C 0.25389 0.66753 0.93049 0.0
C883 C 0.25879 0.68971 0.93577 0.0
H884 H 0.24567 0.65195 0.01707 0.0
H885 H 0.25207 0.66172 0.90282 0.0
H886 H 0.2178 0.60537 0.0182 0.0
H887 H 0.17239 0.65735 0.01171 0.0
H888 H 0.3021 0.59711 0.87262 0.0
H889 H 0.25455 0.69072 0.02842 0.0
H890 H 0.26119 0.70001 0.91196 0.0
C891 C 0.13063 0.45838 0.71495 0.0
C892 C 0.13146 0.44355 0.74325 0.0
N893 N 0.14804 0.44938 0.76566 0.0
N894 N 0.14659 0.47347 0.71962 0.0
C895 C 0.15702 0.46749 0.75058 0.0
H896 H 0.11901 0.45839 0.69256 0.0
Co897 Co 0.15206 0.49691 0.68872 0.0
C898 C 0.16088 0.53128 0.74532 0.0
O899 O 0.14456 0.54305 0.7323 0.0
N900 N 0.15816 0.51971 0.65595 0.0
C901 C 0.17524 0.54523 0.62278 0.0
C902 C 0.17015 0.53839 0.65779 0.0
C903 C 0.15648 0.51555 0.61988 0.0
N904 N 0.16685 0.5305 0.59912 0.0
O905 O 0.17986 0.48369 0.67419 0.0
H906 H 0.17677 0.54556 0.68244 0.0
H907 H 0.14872 0.50094 0.60907 0.0
O908 O 0.16613 0.51316 0.7297 0.0
C909 C 0.17582 0.46936 0.64942 0.0
O910 O 0.15515 0.46456 0.64297 0.0
N911 N 0.12329 0.50819 0.69934 0.0
C912 C 0.07743 0.51069 0.70664 0.0
C913 C 0.09092 0.50874 0.73763 0.0
C914 C 0.11385 0.50739 0.73338 0.0
C915 C 0.11026 0.51143 0.66942 0.0
C916 C 0.08755 0.51311 0.67253 0.0
H917 H 0.12383 0.50399 0.75719 0.0
H918 H 0.11698 0.51088 0.64231 0.0
H919 H 0.17109 0.47607 0.76164 0.0
H920 H 0.12048 0.42979 0.74734 0.0
H921 H 0.18578 0.55886 0.6155 0.0
H922 H 0.0838 0.50661 0.76453 0.0
H923 H 0.07784 0.51481 0.64784 0.0
C924 C 0.32588 0.64037 0.52809 0.0
C925 C 0.34034 0.63908 0.49927 0.0
N926 N 0.33359 0.62281 0.47692 0.0
N927 N 0.31017 0.62498 0.5238 0.0
C928 C 0.31544 0.61438 0.49266 0.0
H929 H 0.32638 0.65217 0.55024 0.0
Co930 Co 0.28616 0.62112 0.55417 0.0
C931 C 0.25227 0.61097 0.49682 0.0
O932 O 0.24059 0.62798 0.50751 0.0
N933 N 0.26288 0.61685 0.58647 0.0
C934 C 0.23584 0.60261 0.61981 0.0
C935 C 0.24364 0.60583 0.5848 0.0
C936 C 0.26647 0.61974 0.6225 0.0
N937 N 0.25048 0.61117 0.64344 0.0
O938 O 0.29818 0.59336 0.57134 0.0
H939 H 0.23653 0.5987 0.56053 0.0
H940 H 0.28128 0.62715 0.63315 0.0
O941 O 0.27001 0.60603 0.51384 0.0
C942 C 0.31326 0.59669 0.59504 0.0
O943 O 0.31936 0.61708 0.60124 0.0
N944 N 0.27585 0.64973 0.54038 0.0
C945 C 0.27076 0.69494 0.52614 0.0
C946 C 0.27394 0.67986 0.49748 0.0
C947 C 0.27658 0.65739 0.50516 0.0
C948 C 0.27256 0.66425 0.56839 0.0
C949 C 0.26968 0.6867 0.56188 0.0
H950 H 0.28024 0.64631 0.48285 0.0
H951 H 0.2736 0.65889 0.59636 0.0
H952 H 0.30604 0.60088 0.48146 0.0
H953 H 0.35421 0.64979 0.49443 0.0
H954 H 0.22144 0.59323 0.6273 0.0
H955 H 0.27501 0.68541 0.46941 0.0
H956 H 0.26801 0.69768 0.58506 0.0
C957 C 0.13837 0.57022 0.2638 0.0
C958 C 0.1415 0.58441 0.23499 0.0
N959 N 0.15983 0.57821 0.21714 0.0
N960 N 0.15452 0.55505 0.26369 0.0
C961 C 0.16742 0.56045 0.23524 0.0
H962 H 0.12517 0.57083 0.28355 0.0
Co963 Co 0.15837 0.53238 0.29675 0.0
C964 C 0.16737 0.49583 0.24369 0.0
O965 O 0.15104 0.4846 0.25784 0.0
N966 N 0.16283 0.51045 0.33163 0.0
C967 C 0.17788 0.48504 0.36764 0.0
C968 C 0.17412 0.49129 0.33193 0.0
C969 C 0.1604 0.5156 0.36725 0.0
N970 N 0.16946 0.50061 0.38971 0.0
O971 O 0.18623 0.54493 0.31206 0.0
H972 H 0.18121 0.48331 0.3084 0.0
H973 H 0.15315 0.53087 0.37644 0.0
O974 O 0.17271 0.51443 0.25763 0.0
C975 C 0.18277 0.56117 0.33356 0.0
O976 O 0.16244 0.56757 0.33904 0.0
N977 N 0.12963 0.52182 0.28487 0.0
C978 C 0.08436 0.51692 0.2727 0.0
C979 C 0.09908 0.51759 0.24323 0.0
C980 C 0.12162 0.52045 0.24987 0.0
C981 C 0.11543 0.52068 0.31365 0.0
C982 C 0.09292 0.51802 0.30822 0.0
H983 H 0.13246 0.52274 0.2268 0.0
H984 H 0.12116 0.5233 0.34115 0.0
H985 H 0.18199 0.55133 0.22767 0.0
H986 H 0.13123 0.59832 0.22799 0.0
H987 H 0.18756 0.47109 0.37654 0.0
H988 H 0.09311 0.51725 0.21532 0.0
H989 H 0.08216 0.5177 0.33179 0.0
C990 C 0.19785 0.38111 0.9972 0.0
C991 C 0.18469 0.38731 0.96863 0.0
N992 N 0.19144 0.4071 0.95673 0.0
N993 N 0.21323 0.39669 0.00316 0.0
C994 C 0.20827 0.41273 0.97891 0.0
H995 H 0.19577 0.36625 0.0128 0.0
Co996 Co 0.23483 0.39676 0.03998 0.0
C997 C 0.25961 0.41019 0.97205 0.0
O998 O 0.24825 0.39618 0.95227 0.0
N999 N 0.25493 0.39675 0.07734 0.0
C1000 C 0.28288 0.39945 0.11599 0.0
C1001 C 0.27673 0.4002 0.07959 0.0
C1002 C 0.24827 0.39369 0.11194 0.0
N1003 N 0.26482 0.39532 0.1362 0.0
O1004 O 0.22409 0.42504 0.05755 0.0
H1005 H 0.28738 0.40335 0.05657 0.0
H1006 H 0.23128 0.39107 0.11917 0.0
O1007 O 0.25631 0.41145 0.00674 0.0
C1008 C 0.20625 0.42262 0.07547 0.0
O1009 O 0.19715 0.40304 0.07599 0.0
N1010 N 0.24409 0.36801 0.02717 0.0
C1011 C 0.25127 0.32295 0.01746 0.0
C1012 C 0.26571 0.33838 1.00219 0.0
C1013 C 0.26196 0.361 0.00771 0.0
C1014 C 0.23127 0.35304 0.04479 0.0
C1015 C 0.23415 0.33053 0.03952 0.0
H1016 H 0.27365 0.37256 0.99691 0.0
H1017 H 0.21833 0.35874 0.0627 0.0
H1018 H 0.21737 0.42794 0.97678 0.0
H1019 H 0.17111 0.37794 0.95763 0.0
H1020 H 0.29927 0.40186 0.12665 0.0
H1021 H 0.2796 0.33303 0.98598 0.0
H1022 H 0.2231 0.31909 0.05278 0.0
C1023 C 0.39733 0.45397 0.77682 0.0
C1024 C 0.39612 0.44005 0.74718 0.0
N1025 N 0.37997 0.44726 0.72496 0.0
N1026 N 0.38218 0.46995 0.77299 0.0
C1027 C 0.37175 0.46535 0.74139 0.0
H1028 H 0.40848 0.45258 0.79974 0.0
Co1029 Co 0.37683 0.49243 0.80568 0.0
C1030 C 0.37186 0.53104 0.75725 0.0
O1031 O 0.38579 0.54098 0.77921 0.0
N1032 N 0.37052 0.51442 0.84038 0.0
C1033 C 0.35046 0.53774 0.87367 0.0
C1034 C 0.35545 0.53078 0.83884 0.0
C1035 C 0.37373 0.51138 0.87657 0.0
N1036 N 0.36177 0.52522 0.89738 0.0
O1037 O 0.34785 0.48053 0.81531 0.0
H1038 H 0.34649 0.53567 0.81471 0.0
H1039 H 0.38293 0.49774 0.8876 0.0
O1040 O 0.36573 0.51139 0.76481 0.0
C1041 C 0.34868 0.46733 0.84253 0.0
O1042 O 0.36803 0.46242 0.85618 0.0
N1043 N 0.40649 0.50245 0.79894 0.0
C1044 C 0.4516 0.51191 0.79324 0.0
C1045 C 0.43839 0.51033 0.76184 0.0
C1046 C 0.41594 0.50535 0.76525 0.0
C1047 C 0.41948 0.50287 0.82935 0.0
C1048 C 0.44177 0.50793 0.82723 0.0
H1049 H 0.40624 0.50342 0.74067 0.0
H1050 H 0.41299 0.4983 0.85551 0.0
H1051 H 0.35848 0.47521 0.73051 0.0
H1052 H 0.40611 0.42558 0.74267 0.0
H1053 H 0.33778 0.54942 0.88098 0.0
H1054 H 0.4453 0.51283 0.7349 0.0
H1055 H 0.45143 0.50789 0.85213 0.0
H1056 H 0.14821 0.05285 0.20473 0.0
H1057 H 0.208 0.02513 0.24746 0.0
H1058 H 0.22873 0.04108 0.19623 0.0
H1059 H 0.23003 0.06632 0.14222 0.0
H1060 H 0.16946 0.09338 0.101 0.0
H1061 H 0.14881 0.07387 0.14787 0.0
C1062 C 0.16576 0.05008 0.2026 0.0
C1063 C 0.17661 0.03808 0.23002 0.0
C1064 C 0.1774 0.05907 0.17303 0.0
C1065 C 0.19929 0.03434 0.22667 0.0
C1066 C 0.21113 0.04352 0.19741 0.0
C1067 C 0.21225 0.06723 0.1428 0.0
C1068 C 0.20121 0.08107 0.11788 0.0
C1069 C 0.20041 0.05629 0.17069 0.0
C1070 C 0.17825 0.08266 0.11961 0.0
C1071 C 0.16645 0.07167 0.14664 0.0
H1072 H 0.21057 0.98048 0.39685 0.0
H1073 H 0.17984 0.92217 0.35362 0.0
H1074 H 0.20237 0.89914 0.39335 0.0
H1075 H 0.22755 0.89566 0.44492 0.0
H1076 H 0.25839 0.95331 0.49033 0.0
H1077 H 0.23928 0.97648 0.44538 0.0
C1078 C 0.20944 0.9627 0.39536 0.0
C1079 C 0.19381 0.95296 0.37194 0.0
C1080 C 0.22211 0.94948 0.41927 0.0
C1081 C 0.19195 0.92996 0.37106 0.0
C1082 C 0.20469 0.9168 0.39402 0.0
C1083 C 0.23027 0.91329 0.44487 0.0
C1084 C 0.24414 0.92275 0.47134 0.0
C1085 C 0.21928 0.9264 0.41903 0.0
C1086 C 0.24774 0.94559 0.47038 0.0
C1087 C 0.23676 0.95885 0.44469 0.0
H1088 H 0.32631 0.93065 0.66637 0.0
H1089 H 0.32109 0.97086 0.56974 0.0
H1090 H 0.3352 1.00261 0.60412 0.0
H1091 H 0.3507 0.01827 0.66105 0.0
H1092 H 0.35351 0.9784 0.75849 0.0
H1093 H 0.33836 0.94718 0.72452 0.0
C1094 C 0.32825 0.94639 0.65282 0.0
C1095 C 0.32305 0.94835 0.61537 0.0
C1096 C 0.33589 0.96457 0.67296 0.0
C1097 C 0.3251 0.96894 0.59844 0.0
C1098 C 0.3332 0.98704 0.6181 0.0
C1099 C 0.34792 1.00276 0.67491 0.0
C1100 C 0.35354 1.00059 0.71222 0.0
C1101 C 0.33893 0.98496 0.65526 0.0
C1102 C 0.34942 0.98052 0.72987 0.0
C1103 C 0.34084 0.96263 0.71038 0.0
H1104 H 0.32235 0.04708 0.88745 0.0
H1105 H 0.33559 0.11014 0.83855 0.0
H1106 H 0.31356 0.12839 0.88524 0.0
H1107 H 0.29481 0.12708 0.94425 0.0
H1108 H 0.28101 0.06474 0.99484 0.0
H1109 H 0.29895 0.0455 0.94364 0.0
C1110 C 0.31966 0.0647 0.88636 0.0
C1111 C 0.33036 0.07727 0.85932 0.0
C1112 C 0.30736 0.07524 0.91418 0.0
C1113 C 0.3273 0.10015 0.85881 0.0
C1114 C 0.3149 0.11061 0.88574 0.0
C1115 C 0.29547 0.10925 0.94378 0.0
C1116 C 0.28686 0.09733 0.97336 0.0
C1117 C 0.30557 0.09844 0.91426 0.0
C1118 C 0.28753 0.07425 0.9723 0.0
C1119 C 0.29784 0.06328 0.94307 0.0
H1120 H 0.21705 0.95989 0.88734 0.0
H1121 H 0.15459 0.93334 0.92074 0.0
H1122 H 0.13589 0.9553 0.87462 0.0
H1123 H 0.13744 0.97852 0.82043 0.0
H1124 H 0.19904 1.00597 0.78542 0.0
H1125 H 0.2179 0.9874 0.83635 0.0
C1126 C 0.19931 0.9595 0.88517 0.0
C1127 C 0.1872 0.94499 0.9075 0.0
C1128 C 0.18855 0.97199 0.85778 0.0
C1129 C 0.16426 0.94434 0.90392 0.0
C1130 C 0.15354 0.9568 0.87737 0.0
C1131 C 0.15498 0.98062 0.82411 0.0
C1132 C 0.16688 0.99328 0.79887 0.0
C1133 C 0.16556 0.97006 0.85339 0.0
C1134 C 0.18953 0.99621 0.80442 0.0
C1135 C 0.2003 0.98553 0.83349 0.0
H1136 H 0.29428 0.89644 0.06276 0.0
H1137 H 0.2623 0.95591 0.02716 0.0
H1138 H 0.28145 0.97678 0.07523 0.0
H1139 H 0.3101 0.97834 0.12446 0.0
H1140 H 0.34109 0.91796 0.15862 0.0
H1141 H 0.31925 0.89724 0.11476 0.0
C1142 C 0.29141 0.91398 0.06551 0.0
C1143 C 0.27721 0.92467 0.04094 0.0
C1144 C 0.30223 0.9257 0.09331 0.0
C1145 C 0.27331 0.9473 0.04552 0.0
C1146 C 0.28426 0.95923 0.07303 0.0
C1147 C 0.3115 0.96059 0.12297 0.0
C1148 C 0.32713 0.94966 0.14494 0.0
C1149 C 0.29908 0.94866 0.09683 0.0
C1150 C 0.32914 0.92671 0.14214 0.0
C1151 C 0.31677 0.91485 0.11685 0.0
H1152 H 0.28934 0.06723 0.36815 0.0
H1153 H 0.34929 0.09058 0.41716 0.0
H1154 H 0.37086 0.06967 0.37292 0.0
H1155 H 0.37279 0.04832 0.31634 0.0
H1156 H 0.3135 0.02449 0.26582 0.0
H1157 H 0.29153 0.04196 0.31424 0.0
C1158 C 0.30711 0.06699 0.36987 0.0
C1159 C 0.31778 0.08005 0.39636 0.0
C1160 C 0.31949 0.05531 0.34346 0.0
C1161 C 0.34079 0.0803 0.39749 0.0
C1162 C 0.35312 0.06856 0.37192 0.0
C1163 C 0.35505 0.04678 0.31607 0.0
C1164 C 0.34477 0.0354 0.28725 0.0
C1165 C 0.34267 0.05661 0.3441 0.0
C1166 C 0.32181 0.03322 0.28764 0.0
C1167 C 0.30926 0.04324 0.31532 0.0
H1168 H 0.20227 0.04731 0.62972 0.0
H1169 H 0.17812 0.10957 0.66928 0.0
H1170 H 0.19905 0.12891 0.6225 0.0
H1171 H 0.22042 0.12802 0.566 0.0
H1172 H 0.24518 0.06645 0.52486 0.0
H1173 H 0.22787 0.0469 0.57619 0.0
C1174 C 0.20234 0.06514 0.62885 0.0
C1175 C 0.18894 0.07707 0.65331 0.0
C1176 C 0.21406 0.07621 0.60097 0.0
C1177 C 0.18855 0.10011 0.65112 0.0
C1178 C 0.20033 0.11116 0.62412 0.0
C1179 C 0.22226 0.11033 0.56853 0.0
C1180 C 0.23383 0.09865 0.54152 0.0
C1181 C 0.2125 0.09937 0.59817 0.0
C1182 C 0.23634 0.0758 0.54535 0.0
C1183 C 0.22639 0.06464 0.57466 0.0
H1184 H 0.87691 0.9754 0.81058 0.0
H1185 H 0.81455 0.99407 0.76456 0.0
H1186 H 0.79543 0.97564 0.81524 0.0
H1187 H 0.7968 0.95106 0.87011 0.0
H1188 H 0.85988 0.93338 0.91485 0.0
H1189 H 0.87833 0.955 0.86802 0.0
C1190 C 0.85912 0.97559 0.81179 0.0
C1191 C 0.84715 0.98578 0.78362 0.0
C1192 C 0.84837 0.96529 0.84112 0.0
C1193 C 0.82412 0.98625 0.78588 0.0
C1194 C 0.81321 0.9757 0.81485 0.0
C1195 C 0.81453 0.95263 0.87025 0.0
C1196 C 0.82699 0.9408 0.89617 0.0
C1197 C 0.82517 0.96482 0.84243 0.0
C1198 C 0.84997 0.94247 0.89542 0.0
C1199 C 0.86054 0.95467 0.86842 0.0
H1200 H 0.79018 0.12517 0.56208 0.0
H1201 H 0.76844 0.06458 0.51307 0.0
H1202 H 0.78556 0.04362 0.56312 0.0
H1203 H 0.81063 0.04277 0.61739 0.0
H1204 H 0.83168 0.10409 0.665 0.0
H1205 H 0.81049 0.12454 0.61976 0.0
C1206 C 0.78894 0.10737 0.56264 0.0
C1207 C 0.77835 0.0964 0.53376 0.0
C1208 C 0.79859 0.09559 0.59153 0.0
C1209 C 0.77656 0.07338 0.53502 0.0
C1210 C 0.7864 0.06142 0.56359 0.0
C1211 C 0.80979 0.06057 0.61863 0.0
C1212 C 0.82244 0.07196 0.64484 0.0
C1213 C 0.79792 0.07233 0.59167 0.0
C1214 C 0.82183 0.09503 0.64543 0.0
C1215 C 0.80991 0.10673 0.6193 0.0
H1216 H 0.72238 0.06226 0.36929 0.0
H1217 H 0.66441 0.09974 0.39576 0.0
H1218 H 0.64281 0.07793 0.353 0.0
H1219 H 0.64093 0.05095 0.30383 0.0
H1220 H 0.69824 1.01311 0.27514 0.0
H1221 H 0.71945 0.03209 0.32282 0.0
C1222 C 0.7049 0.06515 0.36636 0.0
C1223 C 0.69495 0.08253 0.38584 0.0
C1224 C 0.69253 0.05275 0.34077 0.0
C1225 C 0.6724 0.08643 0.38118 0.0
C1226 C 0.66005 0.07405 0.35655 0.0
C1227 C 0.65804 0.04671 0.30807 0.0
C1228 C 0.66803 0.03085 0.2855 0.0
C1229 C 0.67005 0.05764 0.33542 0.0
C1230 C 0.69014 0.02534 0.29194 0.0
C1231 C 0.70229 0.03623 0.31921 0.0
H1232 H 0.76548 0.92462 0.09084 0.0
H1233 H 0.72472 0.91993 0.9946 0.0
H1234 H 0.69402 0.93618 0.02832 0.0
H1235 H 0.6782 0.94981 0.08596 0.0
H1236 H 0.71928 0.95686 0.18136 0.0
H1237 H 0.75053 0.94173 0.14711 0.0
C1238 C 0.7499 0.92733 0.07716 0.0
C1239 C 0.74731 0.92083 0.04029 0.0
C1240 C 0.73242 0.93704 0.09662 0.0
C1241 C 0.72717 0.92477 0.02284 0.0
C1242 C 0.70958 0.934 0.04219 0.0
C1243 C 0.69403 0.94818 0.09928 0.0
C1244 C 0.69634 0.95421 0.13639 0.0
C1245 C 0.71193 0.93988 0.07921 0.0
C1246 C 0.71705 0.9523 0.15295 0.0
C1247 C 0.73488 0.94359 0.13336 0.0
H1248 H 0.80301 0.07367 0.1271 0.0
H1249 H 0.86429 0.1032 0.09478 0.0
H1250 H 0.88382 0.08182 0.14078 0.0
H1251 H 0.88316 0.05807 0.19446 0.0
H1252 H 0.82269 0.02773 0.22835 0.0
H1253 H 0.80318 0.04593 0.17775 0.0
C1254 C 0.82071 0.0748 0.12942 0.0
C1255 C 0.83224 0.0899 0.10733 0.0
C1256 C 0.83191 0.06269 0.15679 0.0
C1257 C 0.8551 0.09163 0.11127 0.0
C1258 C 0.86627 0.07953 0.13779 0.0
C1259 C 0.86572 0.05527 0.19061 0.0
C1260 C 0.85433 0.04184 0.21542 0.0
C1261 C 0.85478 0.06559 0.16144 0.0
C1262 C 0.83183 0.03806 0.20967 0.0
C1263 C 0.82068 0.04852 0.18077 0.0
H1264 H 0.68913 0.06356 0.91645 0.0
H1265 H 0.72661 0.06789 0.81681 0.0
H1266 H 0.75654 0.08611 0.85031 0.0
H1267 H 0.77069 0.10314 0.90734 0.0
H1268 H 0.73343 0.09694 0.00713 0.0
H1269 H 0.70478 0.07697 0.97419 0.0
C1270 C 0.70393 0.06833 0.90206 0.0
C1271 C 0.70555 0.06464 0.86407 0.0
C1272 C 0.721 0.07859 0.92154 0.0
C1273 C 0.72497 0.07056 0.84598 0.0
C1274 C 0.74199 0.08109 0.86513 0.0
C1275 C 0.75634 0.09734 0.92193 0.0
C1276 C 0.75406 0.10193 0.95966 0.0
C1277 C 0.73999 0.08558 0.9028 0.0
C1278 C 0.73557 0.09385 0.97819 0.0
C1279 C 0.71914 0.08245 0.95931 0.0
H1280 H 0.69916 1.00122 0.71135 0.0
H1281 H 0.64428 0.9576 0.72947 0.0
H1282 H 0.65509 0.93541 0.67761 0.0
H1283 H 0.68062 0.92673 0.62925 0.0
H1284 H 0.73693 0.96794 0.6101 0.0
H1285 H 0.72489 0.99279 0.65939 0.0
C1286 C 0.68957 0.98692 0.70376 0.0
C1287 C 0.67102 0.98105 0.72484 0.0
C1288 C 0.69607 0.97375 0.67356 0.0
C1289 C 0.65877 0.96247 0.7144 0.0
C1290 C 0.66487 0.94971 0.68449 0.0
C1291 C 0.69028 0.94123 0.6355 0.0
C1292 C 0.70971 0.94536 0.61596 0.0
C1293 C 0.68359 0.95498 0.66424 0.0
C1294 C 0.72182 0.96438 0.62449 0.0
C1295 C 0.71501 0.9785 0.65292 0.0
H1296 H 0.80129 0.89987 0.43399 0.0
H1297 H 0.78023 0.95848 0.49022 0.0
H1298 H 0.798 0.98131 0.44335 0.0
H1299 H 0.82267 0.98425 0.38898 0.0
H1300 H 0.84329 0.92501 0.33413 0.0
H1301 H 0.82211 0.9028 0.37704 0.0
C1302 C 0.80041 0.91766 0.43585 0.0
C1303 C 0.78972 0.92746 0.46582 0.0
C1304 C 0.8104 0.93056 0.40866 0.0
C1305 C 0.78842 0.95053 0.46749 0.0
C1306 C 0.7986 0.96357 0.44068 0.0
C1307 C 0.82177 0.96654 0.38573 0.0
C1308 C 0.8341 0.95624 0.35792 0.0
C1309 C 0.80996 0.95376 0.41136 0.0
C1310 C 0.83353 0.93326 0.35479 0.0
C1311 C 0.82165 0.92055 0.37962 0.0
H1312 H 0.69613 0.52652 0.71087 0.0
H1313 H 0.65129 0.5781 0.74357 0.0
H1314 H 0.66287 0.60046 0.69276 0.0
H1315 H 0.68518 0.60623 0.63951 0.0
H1316 H 0.732 0.55723 0.60516 0.0
H1317 H 0.71999 0.53309 0.65546 0.0
C1318 C 0.68899 0.54268 0.70688 0.0
C1319 C 0.67272 0.5504 0.73143 0.0
C1320 C 0.69591 0.55595 0.67701 0.0
C1321 C 0.66374 0.57146 0.72556 0.0
C1322 C 0.67032 0.5844 0.69625 0.0
C1323 C 0.69283 0.59023 0.64261 0.0
C1324 C 0.70942 0.5836 0.61817 0.0
C1325 C 0.68627 0.57685 0.67183 0.0
C1326 C 0.71901 0.56275 0.62317 0.0
C1327 C 0.71223 0.549 0.65217 0.0
H1328 H 0.67078 0.4523 0.91053 0.0
H1329 H 0.72716 0.47403 0.84936 0.0
H1330 H 0.75142 0.46078 0.8988 0.0
H1331 H 0.75622 0.44148 0.95942 0.0
H1332 H 0.69805 0.42136 0.01806 0.0
H1333 H 0.67505 0.43555 0.96959 0.0
C1334 C 0.6884 0.45414 0.90758 0.0
C1335 C 0.69708 0.46384 0.87578 0.0
C1336 C 0.70199 0.4468 0.93598 0.0
C1337 C 0.71997 0.46645 0.8733 0.0
C1338 C 0.73383 0.45889 0.90165 0.0
C1339 C 0.73852 0.44048 0.96169 0.0
C1340 C 0.72899 0.43008 0.99248 0.0
C1341 C 0.72501 0.44885 0.93318 0.0
C1342 C 0.70598 0.42895 0.99478 0.0
C1343 C 0.6927 0.43714 0.96701 0.0
H1344 H 0.88256 0.47913 0.19479 0.0
H1345 H 0.82476 0.5109 0.23744 0.0
H1346 H 0.80223 0.49293 0.19028 0.0
H1347 H 0.79876 0.46532 0.13971 0.0
H1348 H 0.85736 0.4343 0.09837 0.0
H1349 H 0.87976 0.45514 0.14142 0.0
C1350 C 0.86504 0.48223 0.19372 0.0
C1351 C 0.85532 0.49605 0.22002 0.0
C1352 C 0.85233 0.47209 0.16636 0.0
C1353 C 0.83265 0.50023 0.21769 0.0
C1354 C 0.81977 0.48994 0.19069 0.0
C1355 C 0.81649 0.46377 0.13939 0.0
C1356 C 0.82645 0.44848 0.11551 0.0
C1357 C 0.82937 0.47554 0.1651 0.0
C1358 C 0.84938 0.44612 0.11616 0.0
C1359 C 0.86219 0.45789 0.14103 0.0
H1360 H 0.80246 0.63455 0.44141 0.0
H1361 H 0.77819 0.57215 0.47945 0.0
H1362 H 0.79633 0.55349 0.42791 0.0
H1363 H 0.82245 0.55491 0.37517 0.0
H1364 H 0.84586 0.61806 0.33857 0.0
H1365 H 0.82434 0.63645 0.38569 0.0
C1366 C 0.801 0.61686 0.4383 0.0
C1367 C 0.78934 0.6047 0.46454 0.0
C1368 C 0.81122 0.6064 0.40857 0.0
C1369 C 0.78719 0.58186 0.45971 0.0
C1370 C 0.79759 0.57121 0.43026 0.0
C1371 C 0.82218 0.57272 0.37682 0.0
C1372 C 0.83564 0.58515 0.35323 0.0
C1373 C 0.81004 0.58328 0.40481 0.0
C1374 C 0.83557 0.60817 0.35625 0.0
C1375 C 0.82341 0.6187 0.3834 0.0
H1376 H 0.65651 0.49463 0.33729 0.0
H1377 H 0.69781 0.48111 0.24439 0.0
H1378 H 0.72257 0.45949 0.28312 0.0
H1379 H 0.72988 0.44086 0.34183 0.0
H1380 H 0.68988 0.45564 0.43574 0.0
H1381 H 0.66748 0.48082 0.39869 0.0
C1382 C 0.67126 0.48737 0.32588 0.0
C1383 C 0.6754 0.48935 0.28812 0.0
C1384 C 0.68559 0.47522 0.34851 0.0
C1385 C 0.69445 0.4799 0.27343 0.0
C1386 C 0.70853 0.46747 0.29554 0.0
C1387 C 0.71664 0.45013 0.35437 0.0
C1388 C 0.71149 0.44649 0.39141 0.0
C1389 C 0.70394 0.46453 0.33288 0.0
C1390 C 0.69428 0.45843 0.40742 0.0
C1391 C 0.68135 0.47261 0.3861 0.0
H1392 H 0.81517 0.46966 0.63604 0.0
H1393 H 0.84926 0.40926 0.66062 0.0
H1394 H 0.8285 0.39007 0.61347 0.0
H1395 H 0.80397 0.3912 0.56068 0.0
H1396 H 0.7689 0.45074 0.53496 0.0
H1397 H 0.78661 0.46951 0.5868 0.0
C1398 C 0.81748 0.45216 0.63178 0.0
C1399 C 0.83375 0.44088 0.65188 0.0
C1400 C 0.80567 0.44119 0.60381 0.0
C1401 C 0.83685 0.41829 0.64557 0.0
C1402 C 0.8251 0.40732 0.6184 0.0
C1403 C 0.80005 0.40825 0.56661 0.0
C1404 C 0.78544 0.41967 0.54371 0.0
C1405 C 0.81005 0.41875 0.59654 0.0
C1406 C 0.78019 0.44162 0.55213 0.0
C1407 C 0.79035 0.45235 0.58174 0.0
H1408 H 0.87103 0.53727 0.828 0.0
H1409 H 0.8153 0.52002 0.76139 0.0
H1410 H 0.79056 0.53735 0.8061 0.0
H1411 H 0.78555 0.5615 0.86084 0.0
H1412 H 0.84189 0.57808 0.92649 0.0
H1413 H 0.86557 0.55651 0.8862 0.0
C1414 C 0.85342 0.53703 0.82353 0.0
C1415 C 0.84501 0.52766 0.79123 0.0
C1416 C 0.83941 0.54679 0.84945 0.0
C1417 C 0.82216 0.52717 0.78603 0.0
C1418 C 0.80804 0.53714 0.81156 0.0
C1419 C 0.80285 0.55954 0.86706 0.0
C1420 C 0.81195 0.57093 0.89707 0.0
C1421 C 0.81652 0.54747 0.84303 0.0
C1422 C 0.83451 0.56904 0.90408 0.0
C1423 C 0.84808 0.55694 0.88075 0.0
H1424 H 0.66017 0.5877 0.109 0.0
H1425 H 0.71256 0.54935 0.1562 0.0
H1426 H 0.73701 0.56067 0.10601 0.0
H1427 H 0.74307 0.58163 0.04758 0.0
H1428 H 0.68852 0.61798 1.00191 0.0
H1429 H 0.66549 0.60702 0.05237 0.0
C1430 C 0.67697 0.58181 0.10876 0.0
C1431 C 0.6845 0.56783 0.13674 0.0
C1432 C 0.6906 0.58794 0.07968 0.0
C1433 C 0.70633 0.56031 0.1353 0.0
C1434 C 0.72027 0.5667 0.10644 0.0
C1435 C 0.72613 0.58703 0.04867 0.0
C1436 C 0.71773 0.60079 0.02075 0.0
C1437 C 0.71255 0.58049 0.07823 0.0
C1438 C 0.69567 0.60756 0.02277 0.0
C1439 C 0.68235 0.60132 0.05179 0.0
H1440 H 0.37672 0.48118 0.31705 0.0
H1441 H 0.31445 0.49843 0.26919 0.0
H1442 H 0.29523 0.48079 0.32052 0.0
H1443 H 0.29654 0.45685 0.37607 0.0
H1444 H 0.35949 0.44029 0.42247 0.0
H1445 H 0.37801 0.46176 0.37547 0.0
C1446 C 0.35892 0.48127 0.31804 0.0
C1447 C 0.34701 0.49077 0.28914 0.0
C1448 C 0.34812 0.47138 0.34769 0.0
C1449 C 0.32398 0.49114 0.29108 0.0
C1450 C 0.31301 0.48102 0.32042 0.0
C1451 C 0.31424 0.45869 0.37659 0.0
C1452 C 0.32666 0.44718 0.40297 0.0
C1453 C 0.32492 0.47069 0.34862 0.0
C1454 C 0.34961 0.44916 0.4027 0.0
C1455 C 0.36023 0.46125 0.37558 0.0
H1456 H 0.31192 0.54537 0.11494 0.0
H1457 H 0.33111 0.60561 0.16822 0.0
H1458 H 0.30975 0.62693 0.12429 0.0
H1459 H 0.28988 0.62886 0.06621 0.0
H1460 H 0.27014 0.56933 0.01152 0.0
H1461 H 0.28732 0.54729 0.06018 0.0
C1462 C 0.31063 0.56308 0.11767 0.0
C1463 C 0.32277 0.57393 0.14516 0.0
C1464 C 0.29869 0.57538 0.09146 0.0
C1465 C 0.32162 0.59693 0.14767 0.0
C1466 C 0.30961 0.60915 0.1223 0.0
C1467 C 0.28907 0.61105 0.06522 0.0
C1468 C 0.27903 0.60072 0.03514 0.0
C1469 C 0.29878 0.59862 0.09333 0.0
C1470 C 0.27781 0.57765 0.03441 0.0
C1471 C 0.2877 0.56507 0.06219 0.0
H1472 H 0.22529 0.56986 0.86597 0.0
H1473 H 0.16455 0.59947 0.90114 0.0
H1474 H 0.14439 0.57873 0.85499 0.0
H1475 H 0.14438 0.55562 0.80038 0.0
H1476 H 0.20441 0.52547 0.7635 0.0
H1477 H 0.22449 0.54283 0.81428 0.0
C1478 C 0.20756 0.5711 0.86425 0.0
C1479 C 0.19634 0.58597 0.88724 0.0
C1480 C 0.19602 0.55943 0.83675 0.0
C1481 C 0.17346 0.58796 0.88403 0.0
C1482 C 0.16195 0.57625 0.8574 0.0
C1483 C 0.16184 0.55268 0.80361 0.0
C1484 C 0.17295 0.53954 0.77792 0.0
C1485 C 0.17312 0.56253 0.83288 0.0
C1486 C 0.19549 0.53558 0.78286 0.0
C1487 C 0.20697 0.54555 0.81187 0.0
H1488 H 0.16843 0.44564 0.58865 0.0
H1489 H 0.22144 0.47257 0.65277 0.0
H1490 H 0.24813 0.45676 0.60939 0.0
H1491 H 0.25609 0.434 0.55327 0.0
H1492 H 0.2014 0.40793 0.49178 0.0
H1493 H 0.17578 0.42498 0.53386 0.0
C1494 C 0.18582 0.44809 0.59356 0.0
C1495 C 0.19285 0.46008 0.6244 0.0
C1496 C 0.20083 0.43916 0.56863 0.0
C1497 C 0.21551 0.46325 0.62952 0.0
C1498 C 0.23076 0.45425 0.60461 0.0
C1499 C 0.23856 0.4323 0.54902 0.0
C1500 C 0.23072 0.41951 0.51941 0.0
C1501 C 0.22361 0.44203 0.57401 0.0
C1502 C 0.20795 0.41739 0.51442 0.0
C1503 C 0.19322 0.42715 0.53852 0.0
H1504 H 0.33562 0.52304 0.71265 0.0
H1505 H 0.39134 0.56617 0.72652 0.0
H1506 H 0.37917 0.58848 0.67561 0.0
H1507 H 0.3519 0.59771 0.62999 0.0
H1508 H 0.29507 0.55663 0.61476 0.0
H1509 H 0.3086 0.53147 0.66251 0.0
C1510 C 0.34513 0.53721 0.70425 0.0
C1511 C 0.36426 0.543 0.72397 0.0
C1512 C 0.33787 0.5504 0.6746 0.0
C1513 C 0.3764 0.56141 0.7125 0.0
C1514 C 0.36951 0.57423 0.68316 0.0
C1515 C 0.34252 0.58311 0.63673 0.0
C1516 C 0.32249 0.57912 0.61885 0.0
C1517 C 0.35013 0.56914 0.66449 0.0
C1518 C 0.31067 0.56002 0.62784 0.0
C1519 C 0.31832 0.54575 0.65543 0.0
H1520 H 0.2317 0.62647 0.43697 0.0
H1521 H 0.25526 0.56631 0.4851 0.0
H1522 H 0.23816 0.54504 0.43538 0.0
H1523 H 0.21297 0.54367 0.38127 0.0
H1524 H 0.19004 0.60457 0.33461 0.0
H1525 H 0.21081 0.62543 0.37991 0.0
C1526 C 0.23331 0.60871 0.43637 0.0
C1527 C 0.24447 0.59796 0.46491 0.0
C1528 C 0.22365 0.59673 0.40764 0.0
C1529 C 0.24671 0.57496 0.46347 0.0
C1530 C 0.23688 0.56282 0.43506 0.0
C1531 C 0.21327 0.5615 0.38029 0.0
C1532 C 0.20027 0.57262 0.35424 0.0
C1533 C 0.22492 0.5735 0.40728 0.0
C1534 C 0.20017 0.5957 0.35403 0.0
C1535 C 0.21186 0.60764 0.38018 0.0
H1536 H 0.14834 0.47335 0.18892 0.0
H1537 H 0.21096 0.49866 0.22363 0.0
H1538 H 0.22886 0.48028 0.17151 0.0
H1539 H 0.22677 0.45369 0.11904 0.0
H1540 H 0.16324 0.42962 0.08569 0.0
H1541 H 0.14565 0.45112 0.13357 0.0
C1542 C 0.16591 0.475 0.18495 0.0
C1543 C 0.17836 0.48703 0.21042 0.0
C1544 C 0.17592 0.46464 0.1549 0.0
C1545 C 0.20102 0.48939 0.20448 0.0
C1546 C 0.21124 0.47883 0.1747 0.0
C1547 C 0.20905 0.45375 0.12163 0.0
C1548 C 0.19632 0.44004 0.09872 0.0
C1549 C 0.1989 0.46601 0.15001 0.0
C1550 C 0.1734 0.43999 0.1029 0.0
C1551 C 0.16331 0.45218 0.13047 0.0
H1552 H 0.26129 0.4231 0.90073 0.0
H1553 H 0.29705 0.42706 1.00244 0.0
H1554 H 0.32731 0.44559 0.97121 0.0
H1555 H 0.34455 0.45843 0.91444 0.0
H1556 H 0.30826 0.45715 0.81321 0.0
H1557 H 0.27716 0.43977 0.84475 0.0
C1558 C 0.27567 0.42812 0.91609 0.0
C1559 C 0.27702 0.42338 0.95387 0.0
C1560 C 0.2929 0.43911 0.89797 0.0
C1561 C 0.29559 0.43038 0.97345 0.0
C1562 C 0.31294 0.44092 0.95554 0.0
C1563 C 0.32976 0.45456 0.89928 0.0
C1564 C 0.3288 0.45887 0.86139 0.0
C1565 C 0.31191 0.44502 0.91774 0.0
C1566 C 0.30942 0.45398 0.8423 0.0
C1567 C 0.2917 0.44397 0.86035 0.0
H1568 H 0.2818 0.10488 0.32354 0.0
H1569 H 0.2113 0.10263 0.31384 0.0
H1570 H 0.2145 0.1011 0.24704 0.0
H1571 H 0.23734 0.10329 0.19183 0.0
H1572 H 0.30778 0.10699 0.20197 0.0
H1573 H 0.30464 0.10497 0.26857 0.0
C1574 C 0.26711 0.10429 0.30685 0.0
C1575 C 0.24629 0.10446 0.32353 0.0
C1576 C 0.2691 0.10376 0.26871 0.0
C1577 C 0.22746 0.1027 0.30156 0.0
C1578 C 0.2293 0.10194 0.26345 0.0
C1579 C 0.252 0.10387 0.20859 0.0
C1580 C 0.27277 0.10578 0.19202 0.0
C1581 C 0.25002 0.103 0.24677 0.0
C1582 C 0.29164 0.10562 0.21409 0.0
C1583 C 0.28984 0.10458 0.25212 0.0
H1584 H 0.17026 0.99313 0.45096 0.0
H1585 H 0.17131 0.06398 0.45628 0.0
H1586 H 0.17078 0.06234 0.52324 0.0
H1587 H 0.16682 0.04071 0.57962 0.0
H1588 H 0.16402 0.96991 0.5736 0.0
H1589 H 0.16829 0.97155 0.50716 0.0
C1590 C 0.17014 1.00824 0.4667 0.0
C1591 C 0.17023 0.02867 0.4487 0.0
C1592 C 0.16934 1.00714 0.50491 0.0
C1593 C 0.17109 0.04807 0.46954 0.0
C1594 C 0.17063 0.04713 0.50775 0.0
C1595 C 0.16695 0.02565 0.56375 0.0
C1596 C 0.16465 1.0052 0.58138 0.0
C1597 C 0.16916 0.02675 0.52563 0.0
C1598 C 0.16568 0.9858 0.56059 0.0
C1599 C 0.16803 0.98675 0.52267 0.0
H1600 H 0.22915 0.89292 0.69932 0.0
H1601 H 0.28263 0.93818 0.68485 0.0
H1602 H 0.28755 0.94087 0.75119 0.0
H1603 H 0.27748 0.92903 0.813 0.0
H1604 H 0.22565 0.88145 0.82709 0.0
H1605 H 0.21904 0.88109 0.76148 0.0
C1606 C 0.24155 0.90362 0.71098 0.0
C1607 C 0.25544 0.91543 0.68774 0.0
C1608 C 0.24467 0.90451 0.74899 0.0
C1609 C 0.27182 0.92898 0.70264 0.0
C1610 C 0.27465 0.93045 0.74041 0.0
C1611 C 0.26488 0.91844 0.80177 0.0
C1612 C 0.25207 0.90538 0.82515 0.0
C1613 C 0.26141 0.91797 0.76384 0.0
C1614 C 0.23557 0.89198 0.80996 0.0
C1615 C 0.23181 0.89165 0.77233 0.0
H1616 H 0.35129 0.03363 0.93826 0.0
H1617 H 0.39415 0.97718 0.94033 0.0
H1618 H 0.39419 0.97788 0.00723 0.0
H1619 H 0.38358 0.99566 0.06446 0.0
H1620 H 0.33984 0.05161 0.06259 0.0
H1621 H 0.33925 0.05045 0.99594 0.0
C1622 C 0.36068 0.02153 0.95338 0.0
C1623 C 0.37286 1.00547 0.93443 0.0
C1624 C 0.36073 0.02214 0.99171 0.0
C1625 C 0.38456 0.98959 0.95433 0.0
C1626 C 0.38471 0.9901 0.99252 0.0
C1627 C 0.37363 1.00745 0.04973 0.0
C1628 C 0.3618 0.02372 0.06886 0.0
C1629 C 0.37304 1.00645 0.01144 0.0
C1630 C 0.3494 0.0391 0.04884 0.0
C1631 C 0.34889 0.03834 0.01064 0.0
H1632 H 0.7494 0.88609 0.68712 0.0
H1633 H 0.807 0.9274 0.69049 0.0
H1634 H 0.80497 0.92853 0.75709 0.0
H1635 H 0.7866 0.91807 0.81435 0.0
H1636 H 0.72835 0.87792 0.81049 0.0
H1637 H 0.73037 0.87682 0.74372 0.0
C1638 C 0.7614 0.89561 0.70214 0.0
C1639 C 0.77832 0.90666 0.68342 0.0
C1640 C 0.75988 0.89658 0.74038 0.0
C1641 C 0.79396 0.91846 0.70389 0.0
C1642 C 0.79271 0.91928 0.74207 0.0
C1643 C 0.77442 0.90899 0.79887 0.0
C1644 C 0.75742 0.89795 0.81733 0.0
C1645 C 0.77574 0.90839 0.76056 0.0
C1646 C 0.74147 0.88666 0.79691 0.0
C1647 C 0.74274 0.8859 0.75878 0.0
H1648 H 0.86003 0.99172 0.43327 0.0
H1649 H 0.85345 0.06222 0.44131 0.0
H1650 H 0.8489 0.05924 0.50759 0.0
H1651 H 0.84916 0.03686 0.56318 0.0
H1652 H 0.85805 0.96658 0.55538 0.0
H1653 H 0.85896 0.96919 0.48872 0.0
C1654 C 0.8579 1.00649 0.44949 0.0
C1655 C 0.85757 0.02724 0.43242 0.0
C1656 C 0.85563 1.00467 0.48752 0.0
C1657 C 0.85386 0.04609 0.45379 0.0
C1658 C 0.85135 0.0444 0.49167 0.0
C1659 C 0.85154 0.0221 0.54702 0.0
C1660 C 0.85402 1.00158 0.5644 0.0
C1661 C 0.85263 0.02381 0.50884 0.0
C1662 C 0.85615 0.98256 0.54281 0.0
C1663 C 0.85684 0.98407 0.50469 0.0
H1664 H 0.73739 0.11833 0.31052 0.0
H1665 H 0.80689 0.10437 0.3123 0.0
H1666 H 0.80754 0.10425 0.24553 0.0
H1667 H 0.78868 0.10947 0.18708 0.0
H1668 H 0.71979 0.12622 0.18571 0.0
H1669 H 0.71862 0.12376 0.25223 0.0
C1670 C 0.75281 0.11562 0.29653 0.0
C1671 C 0.77215 0.11168 0.31664 0.0
C1672 C 0.75315 0.11601 0.25822 0.0
C1673 C 0.79175 0.10739 0.29765 0.0
C1674 C 0.79216 0.10743 0.25944 0.0
C1675 C 0.77344 0.11288 0.2012 0.0
C1676 C 0.7544 0.11832 0.18122 0.0
C1677 C 0.773 0.11197 0.2395 0.0
C1678 C 0.73466 0.12191 0.20019 0.0
C1679 C 0.73402 0.12065 0.23831 0.0
H1680 H 0.66085 0.03551 0.93887 0.0
H1681 H 0.66897 0.96511 0.94228 0.0
H1682 H 0.66833 0.96609 0.00925 0.0
H1683 H 0.6649 0.98688 0.06606 0.0
H1684 H 0.65622 0.05722 0.06316 0.0
H1685 H 0.65814 0.05651 0.99616 0.0
C1686 C 0.66223 0.02037 0.95427 0.0
C1687 C 0.66457 1.00018 0.93583 0.0
C1688 C 0.66197 0.02112 0.99256 0.0
C1689 C 0.66708 0.98076 0.95607 0.0
C1690 C 0.66672 0.98134 0.9942 0.0
C1691 C 0.66314 1.00203 0.05082 0.0
C1692 C 0.66 0.02205 0.06943 0.0
C1693 C 0.66403 1.00141 0.01264 0.0
C1694 C 0.6586 0.04165 0.04934 0.0
C1695 C 0.65957 0.04121 0.01114 0.0
H1696 H 0.73997 0.60521 0.67999 0.0
H1697 H 0.80954 0.61518 0.69383 0.0
H1698 H 0.80549 0.61154 0.76025 0.0
H1699 H 0.7818 0.60772 0.81397 0.0
H1700 H 0.71204 0.59906 0.80012 0.0
H1701 H 0.7165 0.59975 0.73356 0.0
C1702 C 0.75422 0.60681 0.69756 0.0
C1703 C 0.77498 0.61098 0.68227 0.0
C1704 C 0.75168 0.60494 0.73546 0.0
C1705 C 0.79342 0.61211 0.70517 0.0
C1706 C 0.79108 0.61012 0.74302 0.0
C1707 C 0.76753 0.60628 0.79642 0.0
C1708 C 0.74652 0.60392 0.81184 0.0
C1709 C 0.77023 0.60697 0.75843 0.0
C1710 C 0.72832 0.60106 0.78877 0.0
C1711 C 0.73087 0.60154 0.75083 0.0
H1712 H 0.66469 0.53437 0.0752 0.0
H1713 H 0.65258 0.46474 0.06553 0.0
H1714 H 0.65518 0.4675 0.99881 0.0
H1715 H 0.65951 0.48998 0.94365 0.0
H1716 H 0.6701 0.55992 0.9537 0.0
H1717 H 0.66961 0.5567 0.02027 0.0
C1718 C 0.66239 0.51981 0.05854 0.0
C1719 C 0.65801 0.49942 0.07526 0.0
C1720 C 0.66368 0.52158 0.02041 0.0
C1721 C 0.65592 0.48059 0.05329 0.0
C1722 C 0.65733 0.48219 0.0152 0.0
C1723 C 0.66142 0.5046 0.96025 0.0
C1724 C 0.66449 0.52526 0.94356 0.0
C1725 C 0.66089 0.50266 0.99848 0.0
C1726 C 0.66772 0.54385 0.96577 0.0
C1727 C 0.66735 0.54204 0.00383 0.0
H1728 H 0.77474 0.44126 0.32689 0.0
H1729 H 0.78825 0.3718 0.32851 0.0
H1730 H 0.78236 0.36972 0.2622 0.0
H1731 H 0.77074 0.38739 0.20486 0.0
H1732 H 0.75572 0.45669 0.20414 0.0
H1733 H 0.76464 0.45923 0.26912 0.0
C1734 C 0.77698 0.42585 0.31243 0.0
C1735 C 0.78228 0.40675 0.33209 0.0
C1736 C 0.77279 0.42472 0.27477 0.0
C1737 C 0.78444 0.38667 0.31352 0.0
C1738 C 0.7809 0.38549 0.27583 0.0
C1739 C 0.76954 0.40303 0.21899 0.0
C1740 C 0.76235 0.42173 0.19989 0.0
C1741 C 0.77461 0.40433 0.25634 0.0
C1742 C 0.76074 0.44194 0.21843 0.0
C1743 C 0.76604 0.44345 0.25549 0.0
H1744 H 0.87849 0.54329 0.56359 0.0
H1745 H 0.83604 0.48729 0.57615 0.0
H1746 H 0.83508 0.48203 0.50973 0.0
H1747 H 0.84776 0.4926 0.44827 0.0
H1748 H 0.89239 0.54727 0.43697 0.0
H1749 H 0.89092 0.55395 0.50239 0.0
C1750 C 0.86875 0.53023 0.55158 0.0
C1751 C 0.85728 0.51577 0.57438 0.0
C1752 C 0.86882 0.52697 0.51361 0.0
C1753 C 0.84501 0.49857 0.55884 0.0
C1754 C 0.84453 0.49554 0.52098 0.0
C1755 C 0.85727 0.50585 0.46015 0.0
C1756 C 0.87002 0.51946 0.43752 0.0
C1757 C 0.85669 0.50942 0.49811 0.0
C1758 C 0.88207 0.53675 0.45344 0.0
C1759 C 0.88137 0.54056 0.491 0.0
H1760 H 0.29099 0.4148 0.18655 0.0
H1761 H 0.23365 0.37377 0.17452 0.0
H1762 H 0.22721 0.37535 0.24003 0.0
H1763 H 0.2374 0.38876 0.30092 0.0
H1764 H 0.29586 0.42753 0.31456 0.0
H1765 H 0.3025 0.42645 0.24837 0.0
C1766 C 0.2773 0.40595 0.1983 0.0
C1767 C 0.26265 0.39449 0.17542 0.0
C1768 C 0.27381 0.40665 0.23628 0.0
C1769 C 0.24489 0.38318 0.19123 0.0
C1770 C 0.24122 0.38397 0.22879 0.0
C1771 C 0.25147 0.39705 0.28917 0.0
C1772 C 0.266 0.40838 0.31209 0.0
C1773 C 0.25539 0.39586 0.25148 0.0
C1774 C 0.28449 0.41874 0.29708 0.0
C1775 C 0.28827 0.41809 0.25938 0.0
H1776 H 0.36486 0.4889 0.9394 0.0
H1777 H 0.35066 0.55838 0.94301 0.0
H1778 H 0.34573 0.55627 0.00934 0.0
H1779 H 0.34744 0.53502 0.06617 0.0
H1780 H 0.36303 0.46584 0.06255 0.0
H1781 H 0.36499 0.46735 0.99578 0.0
C1782 C 0.36089 0.50365 0.95459 0.0
C1783 C 0.35849 0.52387 0.93631 0.0
C1784 C 0.35822 0.5023 0.99255 0.0
C1785 C 0.35265 0.54266 0.95647 0.0
C1786 C 0.34989 0.54146 0.99434 0.0
C1787 C 0.35142 0.5203 0.05081 0.0
C1788 C 0.35552 0.50042 0.0693 0.0
C1789 C 0.35296 0.52142 0.01266 0.0
C1790 C 0.35984 0.48131 0.04894 0.0
C1791 C 0.36113 0.48222 0.01084 0.0
H1792 H 0.28612 0.60895 0.68699 0.0
H1793 H 0.21531 0.60866 0.68841 0.0
H1794 H 0.21574 0.60763 0.75534 0.0
H1795 H 0.23628 0.60896 0.81303 0.0
H1796 H 0.30705 0.61133 0.81124 0.0
H1797 H 0.30661 0.60935 0.74446 0.0
C1798 C 0.27074 0.60899 0.70184 0.0
C1799 C 0.25067 0.60938 0.68272 0.0
C1800 C 0.27114 0.6088 0.74013 0.0
C1801 C 0.23095 0.60845 0.70249 0.0
C1802 C 0.2312 0.60798 0.74071 0.0
C1803 C 0.25161 0.60931 0.79808 0.0
C1804 C 0.27169 0.61071 0.81709 0.0
C1805 C 0.2512 0.60855 0.75977 0.0
C1806 C 0.29141 0.61029 0.79727 0.0
C1807 C 0.29116 0.60928 0.75912 0.0
H1808 H 0.17332 0.53801 0.42886 0.0
H1809 H 0.1714 0.46733 0.43841 0.0
H1810 H 0.17253 0.47045 0.50511 0.0
H1811 H 0.17126 0.49328 0.56012 0.0
H1812 H 0.1713 0.56397 0.55101 0.0
H1813 H 0.17401 0.5609 0.48426 0.0
C1814 C 0.17293 0.52329 0.44551 0.0
C1815 C 0.17175 0.50244 0.42877 0.0
C1816 C 0.17324 0.52525 0.48371 0.0
C1817 C 0.17219 0.48351 0.4507 0.0
C1818 C 0.17273 0.48531 0.48876 0.0
C1819 C 0.17163 0.50804 0.54356 0.0
C1820 C 0.17048 0.52886 0.56034 0.0
C1821 C 0.17275 0.5061 0.50547 0.0
C1822 C 0.17199 0.54781 0.53862 0.0
C1823 C 0.17342 0.54603 0.50055 0.0
H1824 H 0.17639 0.13991 0.92462 0.0
H1825 H 0.19732 0.0758 0.96133 0.0
H1826 H 0.18259 0.05917 0.90586 0.0
H1827 H 0.16421 0.06283 0.84667 0.0
H1828 H 0.14294 0.12668 0.80966 0.0
H1829 H 0.15686 0.1434 0.86598 0.0
C1830 C 0.17748 0.12228 0.92071 0.0
C1831 C 0.18812 0.10918 0.94702 0.0
C1832 C 0.16888 0.11278 0.88875 0.0
C1833 C 0.1896 0.08635 0.94127 0.0
C1834 C 0.18107 0.07679 0.90964 0.0
C1835 C 0.16278 0.08042 0.85079 0.0
C1836 C 0.15273 0.09352 0.82393 0.0
C1837 C 0.17087 0.08987 0.88307 0.0
C1838 C 0.15051 0.11623 0.83005 0.0
C1839 C 0.15855 0.1258 0.86214 0.0
H1840 H 0.16386 0.96877 0.18252 0.0
H1841 H 0.13987 0.90711 0.22452 0.0
H1842 H 0.15017 0.88871 0.16755 0.0
H1843 H 0.16712 0.89007 0.10669 0.0
H1844 H 0.19077 0.95198 0.0648 0.0
H1845 H 0.17988 0.97033 0.12123 0.0
C1846 C 0.16107 0.95127 0.17931 0.0
C1847 C 0.15127 0.93927 0.20773 0.0
C1848 C 0.16707 0.94086 0.14663 0.0
C1849 C 0.14726 0.91671 0.20291 0.0
C1850 C 0.15324 0.90618 0.17043 0.0
C1851 C 0.16963 0.90761 0.1097 0.0
C1852 C 0.17988 0.91958 0.08161 0.0
C1853 C 0.16323 0.9181 0.14217 0.0
C1854 C 0.18328 0.94228 0.0862 0.0
C1855 C 0.17694 0.95283 0.11838 0.0
H1856 H 0.38756 0.92656 0.3385 0.0
H1857 H 0.32292 0.94637 0.30328 0.0
H1858 H 0.30737 0.93325 0.36074 0.0
H1859 H 0.31222 0.91647 0.42099 0.0
H1860 H 0.37687 0.89706 0.45681 0.0
H1861 H 0.39232 0.90921 0.39863 0.0
C1862 C 0.37005 0.92774 0.34322 0.0
C1863 C 0.35643 0.93748 0.31672 0.0
C1864 C 0.36124 0.92021 0.37634 0.0
C1865 C 0.33379 0.93921 0.32346 0.0
C1866 C 0.32488 0.93163 0.35622 0.0
C1867 C 0.32972 0.9151 0.41626 0.0
C1868 C 0.34338 0.90599 0.44332 0.0
C1869 C 0.33848 0.92227 0.38294 0.0
C1870 C 0.36596 0.90385 0.43635 0.0
C1871 C 0.37482 0.91089 0.40316 0.0
H1872 H 0.38508 0.10499 0.66366 0.0
H1873 H 0.32318 0.08728 0.71268 0.0
H1874 H 0.30399 0.09788 0.65669 0.0
H1875 H 0.30499 0.11161 0.59328 0.0
H1876 H 0.367 0.12976 0.54538 0.0
H1877 H 0.38598 0.11994 0.60188 0.0
C1878 C 0.36737 0.10381 0.66253 0.0
C1879 C 0.35564 0.09531 0.69245 0.0
C1880 C 0.35647 0.10997 0.63038 0.0
C1881 C 0.33267 0.09352 0.68996 0.0
C1882 C 0.32167 0.09963 0.65798 0.0
C1883 C 0.32266 0.11326 0.59524 0.0
C1884 C 0.33461 0.12131 0.56523 0.0
C1885 C 0.33345 0.10765 0.62788 0.0
C1886 C 0.35745 0.12377 0.56824 0.0
C1887 C 0.36831 0.11809 0.60046 0.0
H1888 H 0.87074 0.90333 0.06984 0.0
H1889 H 0.80802 0.93618 0.07336 0.0
H1890 H 0.81803 0.95378 0.13097 0.0
H1891 H 0.84361 0.958 0.18204 0.0
H1892 H 0.90671 0.92561 0.17822 0.0
H1893 H 0.89724 0.90919 0.11959 0.0
C1894 C 0.85933 0.9144 0.08322 0.0
C1895 C 0.8387 0.91842 0.06733 0.0
C1896 C 0.86509 0.92428 0.11656 0.0
C1897 C 0.82414 0.93302 0.08469 0.0
C1898 C 0.82976 0.94294 0.11785 0.0
C1899 C 0.85549 0.94763 0.16832 0.0
C1900 C 0.87581 0.943 0.18501 0.0
C1901 C 0.85009 0.93845 0.13426 0.0
C1902 C 0.89077 0.9292 0.16666 0.0
C1903 C 0.88545 0.9199 0.13287 0.0
H1904 H 0.81672 0.10242 0.92635 0.0
H1905 H 0.87787 0.13596 0.94581 0.0
H1906 H 0.89263 0.12139 0.88827 0.0
H1907 H 0.88765 0.09965 0.8322 0.0
H1908 H 0.82537 0.06807 0.81168 0.0
H1909 H 0.81163 0.08107 0.87025 0.0
C1910 C 0.8334 0.10624 0.91825 0.0
C1911 C 0.84633 0.12003 0.94032 0.0
C1912 C 0.8415 0.09821 0.88497 0.0
C1913 C 0.8677 0.12534 0.92913 0.0
C1914 C 0.87608 0.11704 0.89632 0.0
C1915 C 0.87102 0.09576 0.84029 0.0
C1916 C 0.85767 0.08278 0.81738 0.0
C1917 C 0.86303 0.10362 0.87385 0.0
C1918 C 0.83622 0.07767 0.8288 0.0
C1919 C 0.82826 0.08522 0.86229 0.0
H1920 H 0.71234 0.10374 0.57978 0.0
H1921 H 0.64847 0.12828 0.54924 0.0
H1922 H 0.63372 0.11679 0.60843 0.0
H1923 H 0.63892 0.09874 0.66807 0.0
H1924 H 0.70286 0.07392 0.69756 0.0
H1925 H 0.71763 0.08616 0.63904 0.0
C1926 C 0.69513 0.10633 0.58581 0.0
C1927 C 0.68146 0.11665 0.56002 0.0
C1928 C 0.6868 0.09957 0.61961 0.0
C1929 C 0.65933 0.12045 0.56873 0.0
C1930 C 0.65089 0.11381 0.60247 0.0
C1931 C 0.65612 0.09626 0.6618 0.0
C1932 C 0.66977 0.08538 0.687 0.0
C1933 C 0.66448 0.1033 0.62806 0.0
C1934 C 0.69197 0.08197 0.67837 0.0
C1935 C 0.70044 0.08905 0.64502 0.0
H1936 H 0.66967 0.96114 0.3316 0.0
H1937 H 0.64805 0.89654 0.29846 0.0
H1938 H 0.66106 0.8813 0.3563 0.0
H1939 H 0.67942 0.88619 0.41557 0.0
H1940 H 0.70172 0.95063 0.44794 0.0
H1941 H 0.68806 0.96602 0.39055 0.0
C1942 C 0.66803 0.94368 0.33673 0.0
C1943 C 0.65796 0.93001 0.31055 0.0
C1944 C 0.67575 0.93499 0.36983 0.0
C1945 C 0.65553 0.90749 0.3182 0.0
C1946 C 0.66307 0.89873 0.3512 0.0
C1947 C 0.68106 0.90364 0.41024 0.0
C1948 C 0.69153 0.91726 0.43598 0.0
C1949 C 0.67323 0.91233 0.37717 0.0
C1950 C 0.69392 0.93977 0.42839 0.0
C1951 C 0.68603 0.94859 0.39568 0.0
H1952 H 0.66758 0.55993 0.34064 0.0
H1953 H 0.64406 0.62256 0.30153 0.0
H1954 H 0.65775 0.64051 0.35679 0.0
H1955 H 0.67709 0.6385 0.41563 0.0
H1956 H 0.70044 0.57579 0.45477 0.0
H1957 H 0.68649 0.55784 0.39979 0.0
C1958 C 0.66565 0.57753 0.34405 0.0
C1959 C 0.65487 0.58989 0.31697 0.0
C1960 C 0.67358 0.58774 0.37585 0.0
C1961 C 0.65211 0.61264 0.32213 0.0
C1962 C 0.66001 0.62293 0.35364 0.0
C1963 C 0.67889 0.62088 0.41234 0.0
C1964 C 0.68987 0.60855 0.43925 0.0
C1965 C 0.67077 0.61064 0.38068 0.0
C1966 C 0.69236 0.58574 0.43427 0.0
C1967 C 0.68429 0.57543 0.4029 0.0
H1968 H 0.71459 0.42261 0.58679 0.0
H1969 H 0.65089 0.39823 0.5549 0.0
H1970 H 0.63513 0.41243 0.61165 0.0
H1971 H 0.63942 0.43233 0.66977 0.0
H1972 H 0.70314 0.45696 0.70093 0.0
H1973 H 0.71883 0.44263 0.64434 0.0
C1974 C 0.6972 0.42063 0.5919 0.0
C1975 C 0.68394 0.40944 0.56642 0.0
C1976 C 0.68824 0.42899 0.62436 0.0
C1977 C 0.66152 0.40658 0.57412 0.0
C1978 C 0.65248 0.41481 0.60648 0.0
C1979 C 0.65677 0.43439 0.66434 0.0
C1980 C 0.67007 0.4457 0.6896 0.0
C1981 C 0.6657 0.42604 0.63178 0.0
C1982 C 0.69247 0.44856 0.68181 0.0
C1983 C 0.70149 0.44025 0.64954 0.0
H1984 H 0.862 0.40243 0.94552 0.0
H1985 H 0.79613 0.42439 0.92216 0.0
H1986 H 0.8077 0.43711 0.86194 0.0
H1987 H 0.83648 0.44214 0.81632 0.0
H1988 H 0.90269 0.42123 0.84011 0.0
H1989 H 0.89086 0.40723 0.89938 0.0
C1990 C 0.85017 0.4098 0.92707 0.0
C1991 C 0.8283 0.41257 0.9383 0.0
C1992 C 0.85694 0.41709 0.89254 0.0
C1993 C 0.81315 0.4224 0.91435 0.0
C1994 C 0.81971 0.42954 0.87984 0.0
C1995 C 0.8484 0.43472 0.83453 0.0
C1996 C 0.87047 0.43288 0.82377 0.0
C1997 C 0.84159 0.42709 0.86878 0.0
C1998 C 0.88556 0.42269 0.84746 0.0
C1999 C 0.87884 0.41481 0.8815 0.0
H2000 H 0.8517 0.56353 0.16665 0.0
H2001 H 0.87912 0.62728 0.19091 0.0
H2002 H 0.86215 0.64239 0.13589 0.0
H2003 H 0.83924 0.63754 0.08143 0.0
H2004 H 0.81207 0.57369 0.05689 0.0
H2005 H 0.82868 0.5587 0.11224 0.0
C2006 C 0.85377 0.58078 0.16013 0.0
C2007 C 0.86664 0.59425 0.18288 0.0
C2008 C 0.84389 0.58936 0.12859 0.0
C2009 C 0.86952 0.61649 0.17364 0.0
C2010 C 0.85971 0.62517 0.14231 0.0
C2011 C 0.8371 0.62031 0.08796 0.0
C2012 C 0.82443 0.60679 0.06496 0.0
C2013 C 0.84689 0.61174 0.11959 0.0
C2014 C 0.82149 0.58456 0.07429 0.0
C2015 C 0.83112 0.57593 0.10582 0.0
H2016 H 0.36483 0.40194 0.57302 0.0
H2017 H 0.29959 0.42758 0.59031 0.0
H2018 H 0.31113 0.44344 0.64856 0.0
H2019 H 0.33961 0.44948 0.69498 0.0
H2020 H 0.40475 0.42363 0.67774 0.0
H2021 H 0.39319 0.4078 0.61948 0.0
C2022 C 0.35305 0.41078 0.58965 0.0
C2023 C 0.33137 0.41354 0.57721 0.0
C2024 C 0.35974 0.41968 0.62325 0.0
C2025 C 0.31645 0.42544 0.59891 0.0
C2026 C 0.323 0.43439 0.63237 0.0
C2027 C 0.35134 0.44057 0.67835 0.0
C2028 C 0.37303 0.43778 0.69074 0.0
C2029 C 0.34461 0.43162 0.64478 0.0
C2030 C 0.3879 0.4258 0.6691 0.0
C2031 C 0.38134 0.41686 0.63566 0.0
H2032 H 0.31145 0.60739 0.41889 0.0
H2033 H 0.37616 0.62515 0.45638 0.0
H2034 H 0.39161 0.61454 0.39715 0.0
H2035 H 0.38673 0.59865 0.33567 0.0
H2036 H 0.32188 0.58062 0.29909 0.0
H2037 H 0.30642 0.59264 0.35732 0.0
C2038 C 0.32896 0.60872 0.41426 0.0
C2039 C 0.34269 0.6168 0.44206 0.0
C2040 C 0.33766 0.60252 0.38037 0.0
C2041 C 0.36527 0.61903 0.43531 0.0
C2042 C 0.3741 0.6129 0.40154 0.0
C2043 C 0.3692 0.59768 0.34031 0.0
C2044 C 0.35547 0.58866 0.31327 0.0
C2045 C 0.36044 0.6045 0.37395 0.0
C2046 C 0.3328 0.58721 0.31974 0.0
C2047 C 0.32395 0.59413 0.35294 0.0
H2048 H 0.21358 0.61037 0.08181 0.0
H2049 H 0.1494 0.63192 0.04735 0.0
H2050 H 0.13369 0.61889 0.10501 0.0
H2051 H 0.13815 0.59979 0.16386 0.0
H2052 H 0.20259 0.5784 0.19769 0.0
H2053 H 0.21826 0.5926 0.14117 0.0
C2054 C 0.19612 0.61204 0.08678 0.0
C2055 C 0.1826 0.62184 0.06027 0.0
C2056 C 0.18728 0.60445 0.11972 0.0
C2057 C 0.16012 0.62448 0.06746 0.0
C2058 C 0.15114 0.61695 0.1003 0.0
C2059 C 0.15565 0.59851 0.15908 0.0
C2060 C 0.16914 0.58788 0.18482 0.0
C2061 C 0.16456 0.60675 0.1265 0.0
C2062 C 0.19178 0.58614 0.17803 0.0
C2063 C 0.20077 0.59435 0.14581 0.0
H2064 H 0.16616 0.46833 0.82508 0.0
H2065 H 0.14472 0.40613 0.78092 0.0
H2066 H 0.15583 0.3876 0.83711 0.0
H2067 H 0.17244 0.38892 0.89764 0.0
H2068 H 0.19376 0.45091 0.94283 0.0
H2069 H 0.18232 0.4697 0.88685 0.0
C2070 C 0.1641 0.4507 0.82769 0.0
C2071 C 0.15467 0.4386 0.79886 0.0
C2072 C 0.17056 0.44016 0.86008 0.0
C2073 C 0.15172 0.41582 0.80285 0.0
C2074 C 0.15817 0.40522 0.83488 0.0
C2075 C 0.17427 0.40659 0.89566 0.0
C2076 C 0.18386 0.41848 0.92456 0.0
C2077 C 0.1676 0.41722 0.8636 0.0
C2078 C 0.18659 0.44132 0.92093 0.0
C2079 C 0.17998 0.45208 0.88898 0.0
H2080 H 0.23892 0.22094 0.99493 0.0
H2081 H 0.29745 0.21942 0.06115 0.0
H2082 H 0.29988 0.25958 0.05858 0.0
H2083 H 0.28337 0.29548 0.04212 0.0
H2084 H 0.22344 0.2968 0.97967 0.0
H2085 H 0.22362 0.2566 0.97565 0.0
C2086 C 0.25245 0.2294 0.00813 0.0
C2087 C 0.26801 0.21721 0.02814 0.0
C2088 C 0.2534 0.25255 0.00736 0.0
C2089 C 0.28523 0.22844 0.04568 0.0
C2090 C 0.28661 0.25141 0.04425 0.0
C2091 C 0.27067 0.28689 0.02703 0.0
C2092 C 0.25353 0.29898 0.01089 0.0
C2093 C 0.27052 0.26369 0.02585 0.0
C2094 C 0.23686 0.28775 0.99202 0.0
C2095 C 0.23692 0.26479 0.98988 0.0
H2096 H 0.97911 0.04229 0.31604 0.0
H2097 H 0.97472 0.99199 0.23305 0.0
H2098 H 0.0147 0.99036 0.22935 0.0
H2099 H 0.05103 1.00084 0.25362 0.0
H2100 H 0.05528 0.05102 0.33689 0.0
H2101 H 0.01542 0.05485 0.33675 0.0
C2102 C 0.98689 0.03104 0.29701 0.0
C2103 C 0.9738 0.01723 0.27499 0.0
C2104 C 1.00996 0.02998 0.29531 0.0
C2105 C 0.98426 1.003 0.25009 0.0
C2106 C 1.00719 1.00192 0.24816 0.0
C2107 C 0.0433 1.01293 0.27121 0.0
C2108 C 0.05626 0.02544 0.29552 0.0
C2109 C 0.02024 0.01503 0.27112 0.0
C2110 C 0.04579 0.04087 0.31835 0.0
C2111 C 0.02295 0.04313 0.31823 0.0
H2112 H 0.24476 0.72593 0.55864 0.0
H2113 H 0.29679 0.71876 0.47958 0.0
H2114 H 0.29969 0.75871 0.4745 0.0
H2115 H 0.28975 0.79582 0.49676 0.0
H2116 H 0.23809 0.80264 0.57662 0.0
H2117 H 0.233 0.76288 0.57741 0.0
C2118 C 0.25669 0.73308 0.54017 0.0
C2119 C 0.2706 0.71923 0.51971 0.0
C2120 C 0.25853 0.75612 0.53781 0.0
C2121 C 0.28569 0.7289 0.49544 0.0
C2122 C 0.28751 0.75181 0.49275 0.0
C2123 C 0.27712 0.78865 0.51384 0.0
C2124 C 0.26451 0.8023 0.53693 0.0
C2125 C 0.27432 0.76561 0.51434 0.0
C2126 C 0.24832 0.79259 0.55907 0.0
C2127 C 0.24533 0.76981 0.55947 0.0
H2128 H 0.48149 1.00031 0.76733 0.0
H2129 H 0.47761 0.06824 0.80143 0.0
H2130 H 0.51738 0.07075 0.80203 0.0
H2131 H 0.55344 0.0535 0.79584 0.0
H2132 H 0.55843 0.98639 0.75906 0.0
H2133 H 0.51823 0.98384 0.7558 0.0
C2134 C 0.48933 0.01573 0.77442 0.0
C2135 C 0.4764 0.03387 0.78524 0.0
C2136 C 0.51248 0.01723 0.77428 0.0
C2137 C 0.487 0.05375 0.79415 0.0
C2138 C 0.50982 0.0553 0.79426 0.0
C2139 C 0.5457 0.03834 0.787 0.0
C2140 C 0.55881 0.02008 0.77814 0.0
C2141 C 0.52272 0.03708 0.78503 0.0
C2142 C 0.54863 1.00066 0.76607 0.0
C2143 C 0.52566 0.99919 0.76435 0.0
H2144 H 0.27514 0.80079 0.95596 0.0
H2145 H 0.22471 0.8028 0.03847 0.0
H2146 H 0.22534 0.7626 0.04259 0.0
H2147 H 0.23746 0.72673 0.01776 0.0
H2148 H 0.28824 0.72518 0.93555 0.0
H2149 H 0.29012 0.76521 0.93621 0.0
C2150 C 0.26446 0.79242 0.97514 0.0
C2151 C 0.24978 0.80478 0.99665 0.0
C2152 C 0.26478 0.76932 0.9771 0.0
C2153 C 0.23626 0.79371 0.02174 0.0
C2154 C 0.23649 0.7707 0.02389 0.0
C2155 C 0.24929 0.7351 1.00058 0.0
C2156 C 0.26243 0.72284 0.97618 0.0
C2157 C 0.25031 0.75828 1.00105 0.0
C2158 C 0.27757 0.73412 0.95401 0.0
C2159 C 0.27872 0.75705 0.95443 0.0
H2160 H 0.54416 0.01961 0.2602 0.0
H2161 H 0.54798 0.9676 0.18004 0.0
H2162 H 0.50816 0.96542 0.17765 0.0
H2163 H 0.47221 0.97938 0.19532 0.0
H2164 H 0.46698 0.03119 0.27531 0.0
H2165 H 0.50716 0.03216 0.28124 0.0
C2166 C 0.53621 1.00766 0.2426 0.0
C2167 C 0.54909 0.99405 0.21984 0.0
C2168 C 0.51302 1.00653 0.24116 0.0
C2169 C 0.53851 0.97858 0.19726 0.0
C2170 C 0.5157 0.97726 0.19592 0.0
C2171 C 0.47985 0.99095 0.21402 0.0
C2172 C 0.46663 1.00544 0.23438 0.0
C2173 C 0.50281 0.99142 0.21714 0.0
C2174 C 0.47678 0.0199 0.25921 0.0
C2175 C 0.49976 0.0205 0.26249 0.0
H2176 H 0.28682 0.22346 0.44397 0.0
H2177 H 0.23314 0.22082 0.52035 0.0
H2178 H 0.23334 0.26117 0.52517 0.0
H2179 H 0.24784 0.29751 0.50464 0.0
H2180 H 0.30244 0.29868 0.42946 0.0
H2181 H 0.30272 0.25878 0.42712 0.0
C2182 C 0.27511 0.23172 0.46161 0.0
C2183 C 0.25975 0.21922 0.48129 0.0
C2184 C 0.27542 0.25474 0.46431 0.0
C2185 C 0.24506 0.23011 0.50477 0.0
C2186 C 0.24515 0.25317 0.50743 0.0
C2187 C 0.25992 0.28899 0.48808 0.0
C2188 C 0.27475 0.30122 0.46657 0.0
C2189 C 0.26013 0.26573 0.48696 0.0
C2190 C 0.29039 0.28983 0.44546 0.0
C2191 C 0.29068 0.26694 0.44423 0.0
H2192 H 0.04202 0.04121 0.69234 0.0
H2193 H 0.0491 0.99386 0.77916 0.0
H2194 H 1.00902 0.99037 0.78314 0.0
H2195 H 0.9717 0.99971 0.75943 0.0
H2196 H 0.966 0.04746 0.67264 0.0
H2197 H 1.00562 0.05163 0.67099 0.0
C2198 C 0.03484 0.02998 0.712 0.0
C2199 C 0.04859 0.01756 0.73501 0.0
C2200 C 1.01192 0.02804 0.71401 0.0
C2201 C 0.03892 1.00359 0.76106 0.0
C2202 C 0.01598 1.00154 0.76323 0.0
C2203 C 0.97917 1.01111 0.7404 0.0
C2204 C 0.96581 0.02289 0.71566 0.0
C2205 C 1.00226 0.01353 0.73954 0.0
C2206 C 0.97581 0.03773 0.69132 0.0
C2207 C 0.99853 0.04025 0.69046 0.0
H2208 H 0.74206 0.79338 0.98151 0.0
H2209 H 0.81178 0.79305 0.96012 0.0
H2210 H 0.81182 0.75314 0.9586 0.0
H2211 H 0.79204 0.71812 0.96013 0.0
H2212 H 0.72305 0.71725 0.98512 0.0
H2213 H 0.72277 0.75764 0.98908 0.0
C2214 C 0.75731 0.7846 0.97705 0.0
C2215 C 0.77678 0.79644 0.96996 0.0
C2216 C 0.75736 0.76134 0.97677 0.0
C2217 C 0.79637 0.78457 0.96441 0.0
C2218 C 0.79649 0.76165 0.96379 0.0
C2219 C 0.77699 0.72683 0.96669 0.0
C2220 C 0.75756 0.71487 0.972 0.0
C2221 C 0.77706 0.74988 0.96925 0.0
C2222 C 0.73819 0.7262 0.98091 0.0
C2223 C 0.73804 0.74926 0.98304 0.0
H2224 H 0.78005 0.22549 0.44564 0.0
H2225 H 0.73274 0.21696 0.53222 0.0
H2226 H 0.73147 0.25667 0.54172 0.0
H2227 H 0.74091 0.29434 0.52113 0.0
H2228 H 0.78638 0.30248 0.43197 0.0
H2229 H 0.79112 0.26266 0.42768 0.0
C2230 C 0.76946 0.23226 0.46666 0.0
C2231 C 0.75642 0.21807 0.48795 0.0
C2232 C 0.76835 0.25521 0.47138 0.0
C2233 C 0.74318 0.22729 0.51557 0.0
C2234 C 0.74227 0.25011 0.52085 0.0
C2235 C 0.75218 0.28734 0.50133 0.0
C2236 C 0.76328 0.30131 0.47689 0.0
C2237 C 0.75442 0.26429 0.49839 0.0
C2238 C 0.77762 0.29204 0.451 0.0
C2239 C 0.78029 0.26928 0.44847 0.0
H2240 H 0.77409 0.23507 0.99098 0.0
H2241 H 0.74519 0.22515 0.09718 0.0
H2242 H 0.73967 0.26478 0.10401 0.0
H2243 H 0.74567 0.30238 0.08203 0.0
H2244 H 0.77724 0.31264 0.97778 0.0
H2245 H 0.77854 0.27304 0.96761 0.0
C2246 C 0.7662 0.24163 0.01523 0.0
C2247 C 0.76 0.22724 0.04351 0.0
C2248 C 0.76364 0.26458 0.01943 0.0
C2249 C 0.75009 0.23594 0.07508 0.0
C2250 C 0.747 0.25859 0.07903 0.0
C2251 C 0.75287 0.29603 0.05705 0.0
C2252 C 0.76142 0.31073 0.03089 0.0
C2253 C 0.75419 0.27312 0.05179 0.0
C2254 C 0.77023 0.30196 0.99834 0.0
C2255 C 0.77119 0.2792 0.99259 0.0
H2256 H 0.78633 0.79859 0.54816 0.0
H2257 H 0.73385 0.80593 0.46992 0.0
H2258 H 0.7317 0.76595 0.46299 0.0
H2259 H 0.74228 0.72859 0.48409 0.0
H2260 H 0.79436 0.72188 0.5633 0.0
H2261 H 0.79905 0.76169 0.56492 0.0
C2262 C 0.77451 0.79146 0.5294 0.0
C2263 C 0.76016 0.80532 0.50985 0.0
C2264 C 0.77316 0.76844 0.52593 0.0
C2265 C 0.74521 0.79574 0.48517 0.0
C2266 C 0.74385 0.77282 0.4814 0.0
C2267 C 0.75494 0.73585 0.50109 0.0
C2268 C 0.76778 0.72223 0.52385 0.0
C2269 C 0.75741 0.75895 0.50226 0.0
C2270 C 0.78404 0.73196 0.54591 0.0
C2271 C 0.78675 0.75475 0.54687 0.0
H2272 H 0.55175 0.53411 0.81929 0.0
H2273 H 0.55936 0.49061 0.72692 0.0
H2274 H 0.51945 0.48824 0.72045 0.0
H2275 H 0.48223 0.49582 0.74478 0.0
H2276 H 0.47519 0.53909 0.83769 0.0
H2277 H 0.51484 0.54402 0.84034 0.0
C2278 C 0.5447 0.52419 0.79759 0.0
C2279 C 0.55863 0.51244 0.77383 0.0
C2280 C 0.52173 0.52264 0.79436 0.0
C2281 C 0.54912 0.49998 0.74548 0.0
C2282 C 0.52625 0.49846 0.74195 0.0
C2283 C 0.48933 0.50663 0.76518 0.0
C2284 C 0.47564 0.51682 0.79131 0.0
C2285 C 0.51235 0.50936 0.76671 0.0
C2286 C 0.48527 0.53069 0.81766 0.0
C2287 C 0.50799 0.53359 0.81915 0.0
H2288 H 0.05494 0.54404 0.30455 0.0
H2289 H 0.05939 0.49049 0.22769 0.0
H2290 H 0.01917 0.48978 0.2222 0.0
H2291 H 0.98236 0.50327 0.2426 0.0
H2292 H 0.9794 0.55729 0.31913 0.0
H2293 H 0.01922 0.55888 0.32142 0.0
C2294 C 0.04712 0.53215 0.28665 0.0
C2295 C 0.06011 0.5171 0.26704 0.0
C2296 C 0.02415 0.53188 0.28369 0.0
C2297 C 0.04974 0.5022 0.24321 0.0
C2298 C 0.02674 0.50176 0.24017 0.0
C2299 C 0.99049 0.5155 0.25941 0.0
C2300 C 0.97783 0.52984 0.28126 0.0
C2301 C 0.0137 0.51636 0.2607 0.0
C2302 C 0.98866 0.5457 0.30274 0.0
C2303 C 1.01148 0.5467 0.304 0.0
H2304 H 0.04711 0.52909 0.75402 0.0
H2305 H 0.05322 0.48405 0.66323 0.0
H2306 H 0.01368 0.47913 0.66166 0.0
H2307 H 0.97726 0.48799 0.6845 0.0
H2308 H 0.9697 0.53288 0.77494 0.0
H2309 H 1.00971 0.53715 0.77866 0.0
C2310 C 0.03974 0.51813 0.7341 0.0
C2311 C 0.05318 0.50731 0.70831 0.0
C2312 C 0.01668 0.51532 0.73322 0.0
C2313 C 0.04332 0.49303 0.6828 0.0
C2314 C 0.02066 0.49009 0.68197 0.0
C2315 C 0.98429 0.49891 0.70484 0.0
C2316 C 0.97041 0.51036 0.729 0.0
C2317 C 1.00717 0.50134 0.70666 0.0
C2318 C 0.97996 0.52388 0.75593 0.0
C2319 C 1.00286 0.52638 0.75797 0.0
H2320 H 0.47088 0.50082 0.26482 0.0
H2321 H 0.46685 0.54849 0.17766 0.0
H2322 H 0.5066 0.55137 0.17611 0.0
H2323 H 0.54257 0.53938 0.19697 0.0
H2324 H 0.54814 0.49188 0.28382 0.0
H2325 H 0.50792 0.49022 0.28859 0.0
C2326 C 0.47876 0.51195 0.24578 0.0
C2327 C 0.46584 0.52407 0.22086 0.0
C2328 C 0.50193 0.51355 0.24492 0.0
C2329 C 0.47633 0.53854 0.1965 0.0
C2330 C 0.49911 0.54031 0.19568 0.0
C2331 C 0.53501 0.52858 0.21691 0.0
C2332 C 0.54833 0.51549 0.23957 0.0
C2333 C 0.51206 0.52764 0.21925 0.0
C2334 C 0.53825 0.50207 0.26595 0.0
C2335 C 0.51525 0.50106 0.26855 0.0
loop_
_geom_bond_atom_site_label_1
_geom_bond_atom_site_label_2
_geom_bond_distance
_geom_bond_site_symmetry_2
_ccdc_geom_bond_type
C0 C1 1.351 1_554 S
C0 N3 1.368 . S
C0 H5 0.931 . S
C1 C0 1.351 1_556 S
C1 N2 1.373 . S
C1 H29 0.930 . S
N2 C1 1.373 . S
N2 C4 1.340 . S
N3 C0 1.368 . S
N3 C4 1.321 1_554 S
N3 Co6 2.135 . S
C4 N2 1.340 . S
C4 N3 1.321 1_556 S
C4 H28 0.930 . S
H5 C0 0.931 . S
Co6 N3 2.135 . S
Co6 N9 2.121 . S
Co6 O14 2.055 . S
Co6 O17 2.039 . S
Co6 N20 2.140 . S
C7 O8 1.227 . S
C7 O17 1.265 . S
O8 C7 1.227 . S
N9 Co6 2.121 . S
N9 C11 1.375 . S
N9 C12 1.313 . S
C10 C11 1.338 . S
C10 N13 1.377 . S
C10 H30 0.930 . S
C11 N9 1.375 . S
C11 C10 1.338 . S
C11 H15 0.931 . S
C12 N9 1.313 . S
C12 N13 1.344 . S
C12 H16 0.930 . S
N13 C10 1.377 . S
N13 C12 1.344 . S
O14 Co6 2.055 . S
O14 C18 1.253 . S
H15 C11 0.931 . S
H16 C12 0.930 . S
O17 Co6 2.039 . S
O17 C7 1.265 . S
C18 O14 1.253 . S
C18 O19 1.227 . S
O19 C18 1.227 . S
N20 Co6 2.140 . S
N20 C23 1.346 . S
N20 C24 1.345 . S
C21 C22 1.387 . S
C21 C25 1.391 . S
C22 C21 1.387 . S
C22 C23 1.369 . S
C22 H31 0.929 . S
C23 N20 1.346 . S
C23 C22 1.369 . S
C23 H26 0.928 . S
C24 N20 1.345 . S
C24 C25 1.371 . S
C24 H27 0.931 . S
C25 C21 1.391 . S
C25 C24 1.371 . S
C25 H32 0.930 . S
H26 C23 0.928 . S
H27 C24 0.931 . S
H28 C4 0.930 . S
H29 C1 0.930 . S
H30 C10 0.930 . S
H31 C22 0.929 . S
H32 C25 0.930 . S
C33 C34 1.351 . S
C33 N36 1.368 . S
C33 H38 0.931 . S
C34 C33 1.351 . S
C34 N35 1.373 . S
C34 H62 0.930 . S
N35 C34 1.373 . S
N35 C37 1.340 . S
N36 C33 1.368 . S
N36 C37 1.321 . S
N36 Co39 2.135 . S
C37 N35 1.340 . S
C37 N36 1.321 . S
C37 H61 0.930 . S
H38 C33 0.931 . S
Co39 N36 2.135 . S
Co39 N42 2.121 . S
Co39 O47 2.055 . S
Co39 O50 2.039 . S
Co39 N53 2.140 . S
C40 O41 1.227 . S
C40 O50 1.265 . S
O41 C40 1.227 . S
N42 Co39 2.121 . S
N42 C44 1.375 . S
N42 C45 1.313 . S
C43 C44 1.317 1_545 S
C43 N46 1.347 1_545 S
C43 H63 0.973 . S
C44 N42 1.375 . S
C44 C43 1.317 1_565 S
C44 H48 0.931 . S
C45 N42 1.313 . S
C45 N46 1.344 . S
C45 H49 0.930 . S
N46 C43 1.347 1_565 S
N46 C45 1.344 . S
O47 Co39 2.055 . S
O47 C51 1.253 . S
H48 C44 0.931 . S
H49 C45 0.930 . S
O50 Co39 2.039 . S
O50 C40 1.265 . S
C51 O47 1.253 . S
C51 O52 1.227 . S
O52 C51 1.227 . S
N53 Co39 2.140 . S
N53 C56 1.346 . S
N53 C57 1.345 . S
C54 C55 1.387 . S
C54 C58 1.391 . S
C55 C54 1.387 . S
C55 C56 1.369 . S
C55 H64 0.929 . S
C56 N53 1.346 . S
C56 C55 1.369 . S
C56 H59 0.928 . S
C57 N53 1.345 . S
C57 C58 1.371 . S
C57 H60 0.931 . S
C58 C54 1.391 . S
C58 C57 1.371 . S
C58 H65 0.930 . S
H59 C56 0.928 . S
H60 C57 0.931 . S
H61 C37 0.930 . S
H62 C34 0.930 . S
H63 C43 0.973 . S
H64 C55 0.929 . S
H65 C58 0.930 . S
C66 C67 1.351 . S
C66 N69 1.368 . S
C66 H71 0.931 . S
C67 C66 1.351 . S
C67 N68 1.373 . S
C67 H95 0.930 . S
N68 C67 1.373 . S
N68 C70 1.340 . S
N69 C66 1.368 . S
N69 C70 1.321 . S
N69 Co72 2.135 . S
C70 N68 1.340 . S
C70 N69 1.321 . S
C70 H94 0.930 . S
H71 C66 0.931 . S
Co72 N69 2.135 . S
Co72 N75 2.121 . S
Co72 O80 2.055 . S
Co72 O83 2.039 . S
Co72 N86 2.140 . S
C73 O74 1.227 . S
C73 O83 1.265 . S
O74 C73 1.227 . S
N75 Co72 2.121 . S
N75 C77 1.375 . S
N75 C78 1.313 . S
C76 C77 1.338 . S
C76 N79 1.377 . S
C76 H96 0.930 . S
C77 N75 1.375 . S
C77 C76 1.338 . S
C77 H81 0.931 . S
C78 N75 1.313 . S
C78 N79 1.344 . S
C78 H82 0.930 . S
N79 C76 1.377 . S
N79 C78 1.344 . S
O80 Co72 2.055 . S
O80 C84 1.253 . S
H81 C77 0.931 . S
H82 C78 0.930 . S
O83 Co72 2.039 . S
O83 C73 1.265 . S
C84 O80 1.253 . S
C84 O85 1.227 . S
O85 C84 1.227 . S
N86 Co72 2.140 . S
N86 C89 1.346 . S
N86 C90 1.345 . S
C87 C88 1.387 . S
C87 C91 1.391 . S
C88 C87 1.387 . S
C88 C89 1.369 . S
C88 H97 0.929 . S
C89 N86 1.346 . S
C89 C88 1.369 . S
C89 H92 0.928 . S
C90 N86 1.345 . S
C90 C91 1.371 . S
C90 H93 0.931 . S
C91 C87 1.391 . S
C91 C90 1.371 . S
C91 H98 0.930 . S
H92 C89 0.928 . S
H93 C90 0.931 . S
H94 C70 0.930 . S
H95 C67 0.930 . S
H96 C76 0.930 . S
H97 C88 0.929 . S
H98 C91 0.930 . S
C99 C100 1.351 . S
C99 N102 1.368 . S
C99 H104 0.931 . S
C100 C99 1.351 . S
C100 N101 1.373 . S
C100 H128 0.930 . S
N101 C100 1.373 . S
N101 C103 1.340 . S
N102 C99 1.368 . S
N102 C103 1.321 . S
N102 Co105 2.135 . S
C103 N101 1.340 . S
C103 N102 1.321 . S
C103 H127 0.930 . S
H104 C99 0.931 . S
Co105 N102 2.135 . S
Co105 N108 2.121 . S
Co105 O113 2.055 . S
Co105 O116 2.039 . S
Co105 N119 2.140 . S
C106 O107 1.227 . S
C106 O116 1.265 . S
O107 C106 1.227 . S
N108 Co105 2.121 . S
N108 C110 1.375 . S
N108 C111 1.313 . S
C109 C110 1.317 1_565 S
C109 N112 1.347 1_565 S
C109 H129 0.973 . S
C110 N108 1.375 . S
C110 C109 1.317 1_545 S
C110 H114 0.931 . S
C111 N108 1.313 . S
C111 N112 1.344 . S
C111 H115 0.930 . S
N112 C109 1.347 1_545 S
N112 C111 1.344 . S
O113 Co105 2.055 . S
O113 C117 1.253 . S
H114 C110 0.931 . S
H115 C111 0.930 . S
O116 Co105 2.039 . S
O116 C106 1.265 . S
C117 O113 1.253 . S
C117 O118 1.227 . S
O118 C117 1.227 . S
N119 Co105 2.140 . S
N119 C122 1.346 . S
N119 C123 1.345 . S
C120 C121 1.387 . S
C120 C124 1.391 . S
C121 C120 1.387 . S
C121 C122 1.369 . S
C121 H130 0.929 . S
C122 N119 1.346 . S
C122 C121 1.369 . S
C122 H125 0.928 . S
C123 N119 1.345 . S
C123 C124 1.371 . S
C123 H126 0.931 . S
C124 C120 1.391 . S
C124 C123 1.371 . S
C124 H131 0.930 . S
H125 C122 0.928 . S
H126 C123 0.931 . S
H127 C103 0.930 . S
H128 C100 0.930 . S
H129 C109 0.973 . S
H130 C121 0.929 . S
H131 C124 0.930 . S
C132 C133 1.351 1_556 S
C132 N135 1.368 . S
C132 H137 0.931 . S
C133 C132 1.351 1_554 S
C133 N134 1.373 . S
C133 H161 0.930 . S
N134 C133 1.373 . S
N134 C136 1.340 . S
N135 C132 1.368 . S
N135 C136 1.321 1_556 S
N135 Co138 2.135 . S
C136 N134 1.340 . S
C136 N135 1.321 1_554 S
C136 H160 0.930 . S
H137 C132 0.931 . S
Co138 N135 2.135 . S
Co138 N141 2.121 . S
Co138 O146 2.055 . S
Co138 O149 2.039 . S
Co138 N152 2.140 . S
C139 O140 1.227 . S
C139 O149 1.265 . S
O140 C139 1.227 . S
N141 Co138 2.121 . S
N141 C143 1.375 . S
N141 C144 1.313 . S
C142 C143 1.338 . S
C142 N145 1.377 . S
C142 H162 0.930 . S
C143 N141 1.375 . S
C143 C142 1.338 . S
C143 H147 0.931 . S
C144 N141 1.313 . S
C144 N145 1.344 . S
C144 H148 0.930 . S
N145 C142 1.377 . S
N145 C144 1.344 . S
O146 Co138 2.055 . S
O146 C150 1.253 . S
H147 C143 0.931 . S
H148 C144 0.930 . S
O149 Co138 2.039 . S
O149 C139 1.265 . S
C150 O146 1.253 . S
C150 O151 1.227 . S
O151 C150 1.227 . S
N152 Co138 2.140 . S
N152 C155 1.346 . S
N152 C156 1.345 . S
C153 C154 1.387 . S
C153 C157 1.391 . S
C154 C153 1.387 . S
C154 C155 1.369 . S
C154 H163 0.929 . S
C155 N152 1.346 . S
C155 C154 1.369 . S
C155 H158 0.928 . S
C156 N152 1.345 . S
C156 C157 1.371 . S
C156 H159 0.931 . S
C157 C153 1.391 . S
C157 C156 1.371 . S
C157 H164 0.930 . S
H158 C155 0.928 . S
H159 C156 0.931 . S
H160 C136 0.930 . S
H161 C133 0.930 . S
H162 C142 0.930 . S
H163 C154 0.929 . S
H164 C157 0.930 . S
C165 C166 1.351 . S
C165 N168 1.368 . S
C165 H170 0.931 . S
C166 C165 1.351 . S
C166 N167 1.373 . S
C166 H194 0.930 . S
N167 C166 1.373 . S
N167 C169 1.340 . S
N168 C165 1.368 . S
N168 C169 1.321 . S
N168 Co171 2.135 . S
C169 N167 1.340 . S
C169 N168 1.321 . S
C169 H193 0.930 . S
H170 C165 0.931 . S
Co171 N168 2.135 . S
Co171 N174 2.121 . S
Co171 O179 2.055 . S
Co171 O182 2.039 . S
Co171 N185 2.140 . S
C172 O173 1.227 . S
C172 O182 1.265 . S
O173 C172 1.227 . S
N174 Co171 2.121 . S
N174 C176 1.375 . S
N174 C177 1.313 . S
C175 C176 1.317 1_545 S
C175 N178 1.347 1_545 S
C175 H195 0.973 . S
C176 N174 1.375 . S
C176 C175 1.317 1_565 S
C176 H180 0.931 . S
C177 N174 1.313 . S
C177 N178 1.344 . S
C177 H181 0.930 . S
N178 C175 1.347 1_565 S
N178 C177 1.344 . S
O179 Co171 2.055 . S
O179 C183 1.253 . S
H180 C176 0.931 . S
H181 C177 0.930 . S
O182 Co171 2.039 . S
O182 C172 1.265 . S
C183 O179 1.253 . S
C183 O184 1.227 . S
O184 C183 1.227 . S
N185 Co171 2.140 . S
N185 C188 1.346 . S
N185 C189 1.345 . S
C186 C187 1.387 . S
C186 C190 1.391 . S
C187 C186 1.387 . S
C187 C188 1.369 . S
C187 H196 0.929 . S
C188 N185 1.346 . S
C188 C187 1.369 . S
C188 H191 0.928 . S
C189 N185 1.345 . S
C189 C190 1.371 . S
C189 H192 0.931 . S
C190 C186 1.391 . S
C190 C189 1.371 . S
C190 H197 0.930 . S
H191 C188 0.928 . S
H192 C189 0.931 . S
H193 C169 0.930 . S
H194 C166 0.930 . S
H195 C175 0.973 . S
H196 C187 0.929 . S
H197 C190 0.930 . S
C198 C199 1.351 . S
C198 N201 1.368 . S
C198 H203 0.931 . S
C199 C198 1.351 . S
C199 N200 1.373 . S
C199 H227 0.930 . S
N200 C199 1.373 . S
N200 C202 1.340 . S
N201 C198 1.368 . S
N201 C202 1.321 . S
N201 Co204 2.135 . S
C202 N200 1.340 . S
C202 N201 1.321 . S
C202 H226 0.930 . S
H203 C198 0.931 . S
Co204 N201 2.135 . S
Co204 N207 2.121 . S
Co204 O212 2.055 . S
Co204 O215 2.039 . S
Co204 N218 2.140 . S
C205 O206 1.227 . S
C205 O215 1.265 . S
O206 C205 1.227 . S
N207 Co204 2.121 . S
N207 C209 1.375 . S
N207 C210 1.313 . S
C208 C209 1.338 . S
C208 N211 1.377 . S
C208 H228 0.930 . S
C209 N207 1.375 . S
C209 C208 1.338 . S
C209 H213 0.931 . S
C210 N207 1.313 . S
C210 N211 1.344 . S
C210 H214 0.930 . S
N211 C208 1.377 . S
N211 C210 1.344 . S
O212 Co204 2.055 . S
O212 C216 1.253 . S
H213 C209 0.931 . S
H214 C210 0.930 . S
O215 Co204 2.039 . S
O215 C205 1.265 . S
C216 O212 1.253 . S
C216 O217 1.227 . S
O217 C216 1.227 . S
N218 Co204 2.140 . S
N218 C221 1.346 . S
N218 C222 1.345 . S
C219 C220 1.387 . S
C219 C223 1.391 . S
C220 C219 1.387 . S
C220 C221 1.369 . S
C220 H229 0.929 . S
C221 N218 1.346 . S
C221 C220 1.369 . S
C221 H224 0.928 . S
C222 N218 1.345 . S
C222 C223 1.371 . S
C222 H225 0.931 . S
C223 C219 1.391 . S
C223 C222 1.371 . S
C223 H230 0.930 . S
H224 C221 0.928 . S
H225 C222 0.931 . S
H226 C202 0.930 . S
H227 C199 0.930 . S
H228 C208 0.930 . S
H229 C220 0.929 . S
H230 C223 0.930 . S
C231 C232 1.351 . S
C231 N234 1.368 . S
C231 H236 0.931 . S
C232 C231 1.351 . S
C232 N233 1.373 . S
C232 H260 0.930 . S
N233 C232 1.373 . S
N233 C235 1.340 . S
N234 C231 1.368 . S
N234 C235 1.321 . S
N234 Co237 2.135 . S
C235 N233 1.340 . S
C235 N234 1.321 . S
C235 H259 0.930 . S
H236 C231 0.931 . S
Co237 N234 2.135 . S
Co237 N240 2.121 . S
Co237 O245 2.055 . S
Co237 O248 2.039 . S
Co237 N251 2.140 . S
C238 O239 1.227 . S
C238 O248 1.265 . S
O239 C238 1.227 . S
N240 Co237 2.121 . S
N240 C242 1.375 . S
N240 C243 1.313 . S
C241 C242 1.317 1_565 S
C241 N244 1.347 1_565 S
C241 H261 0.973 . S
C242 N240 1.375 . S
C242 C241 1.317 1_545 S
C242 H246 0.931 . S
C243 N240 1.313 . S
C243 N244 1.344 . S
C243 H247 0.930 . S
N244 C241 1.347 1_545 S
N244 C243 1.344 . S
O245 Co237 2.055 . S
O245 C249 1.253 . S
H246 C242 0.931 . S
H247 C243 0.930 . S
O248 Co237 2.039 . S
O248 C238 1.265 . S
C249 O245 1.253 . S
C249 O250 1.227 . S
O250 C249 1.227 . S
N251 Co237 2.140 . S
N251 C254 1.346 . S
N251 C255 1.345 . S
C252 C253 1.387 . S
C252 C256 1.391 . S
C253 C252 1.387 . S
C253 C254 1.369 . S
C253 H262 0.929 . S
C254 N251 1.346 . S
C254 C253 1.369 . S
C254 H257 0.928 . S
C255 N251 1.345 . S
C255 C256 1.371 . S
C255 H258 0.931 . S
C256 C252 1.391 . S
C256 C255 1.371 . S
C256 H263 0.930 . S
H257 C254 0.928 . S
H258 C255 0.931 . S
H259 C235 0.930 . S
H260 C232 0.930 . S
H261 C241 0.973 . S
H262 C253 0.929 . S
H263 C256 0.930 . S
C264 C265 1.351 1_556 S
C264 N267 1.368 . S
C264 H269 0.931 . S
C265 C264 1.351 1_554 S
C265 N266 1.373 . S
C265 H293 0.930 . S
N266 C265 1.373 . S
N266 C268 1.340 . S
N267 C264 1.368 . S
N267 C268 1.321 1_556 S
N267 Co270 2.135 . S
C268 N266 1.340 . S
C268 N267 1.321 1_554 S
C268 H292 0.930 . S
H269 C264 0.931 . S
Co270 N267 2.135 . S
Co270 N273 2.121 . S
Co270 O278 2.055 . S
Co270 O281 2.039 . S
Co270 N284 2.140 . S
C271 O272 1.227 . S
C271 O281 1.265 . S
O272 C271 1.227 . S
N273 Co270 2.121 . S
N273 C275 1.375 . S
N273 C276 1.313 . S
C274 C275 1.338 . S
C274 N277 1.377 . S
C274 H294 0.930 . S
C275 N273 1.375 . S
C275 C274 1.338 . S
C275 H279 0.931 . S
C276 N273 1.313 . S
C276 N277 1.344 . S
C276 H280 0.930 . S
N277 C274 1.377 . S
N277 C276 1.344 . S
O278 Co270 2.055 . S
O278 C282 1.253 . S
H279 C275 0.931 . S
H280 C276 0.930 . S
O281 Co270 2.039 . S
O281 C271 1.265 . S
C282 O278 1.253 . S
C282 O283 1.227 . S
O283 C282 1.227 . S
N284 Co270 2.140 . S
N284 C287 1.346 . S
N284 C288 1.345 . S
C285 C286 1.387 . S
C285 C289 1.391 . S
C286 C285 1.387 . S
C286 C287 1.369 . S
C286 H295 0.929 . S
C287 N284 1.346 . S
C287 C286 1.369 . S
C287 H290 0.928 . S
C288 N284 1.345 . S
C288 C289 1.371 . S
C288 H291 0.931 . S
C289 C285 1.391 . S
C289 C288 1.371 . S
C289 H296 0.930 . S
H290 C287 0.928 . S
H291 C288 0.931 . S
H292 C268 0.930 . S
H293 C265 0.930 . S
H294 C274 0.930 . S
H295 C286 0.929 . S
H296 C289 0.930 . S
C297 C298 1.351 . S
C297 N300 1.368 . S
C297 H302 0.931 . S
C298 C297 1.351 . S
C298 N299 1.373 . S
C298 H326 0.930 . S
N299 C298 1.373 . S
N299 C301 1.340 . S
N300 C297 1.368 . S
N300 C301 1.321 . S
N300 Co303 2.135 . S
C301 N299 1.340 . S
C301 N300 1.321 . S
C301 H325 0.930 . S
H302 C297 0.931 . S
Co303 N300 2.135 . S
Co303 N306 2.121 . S
Co303 O311 2.055 . S
Co303 O314 2.039 . S
Co303 N317 2.140 . S
C304 O305 1.227 . S
C304 O314 1.265 . S
O305 C304 1.227 . S
N306 Co303 2.121 . S
N306 C308 1.375 . S
N306 C309 1.313 . S
C307 C308 1.317 1_565 S
C307 N310 1.347 1_565 S
C307 H327 0.973 . S
C308 N306 1.375 . S
C308 C307 1.317 1_545 S
C308 H312 0.931 . S
C309 N306 1.313 . S
C309 N310 1.344 . S
C309 H313 0.930 . S
N310 C307 1.347 1_545 S
N310 C309 1.344 . S
O311 Co303 2.055 . S
O311 C315 1.253 . S
H312 C308 0.931 . S
H313 C309 0.930 . S
O314 Co303 2.039 . S
O314 C304 1.265 . S
C315 O311 1.253 . S
C315 O316 1.227 . S
O316 C315 1.227 . S
N317 Co303 2.140 . S
N317 C320 1.346 . S
N317 C321 1.345 . S
C318 C319 1.387 . S
C318 C322 1.391 . S
C319 C318 1.387 . S
C319 C320 1.369 . S
C319 H328 0.929 . S
C320 N317 1.346 . S
C320 C319 1.369 . S
C320 H323 0.928 . S
C321 N317 1.345 . S
C321 C322 1.371 . S
C321 H324 0.931 . S
C322 C318 1.391 . S
C322 C321 1.371 . S
C322 H329 0.930 . S
H323 C320 0.928 . S
H324 C321 0.931 . S
H325 C301 0.930 . S
H326 C298 0.930 . S
H327 C307 0.973 . S
H328 C319 0.929 . S
H329 C322 0.930 . S
C330 C331 1.351 . S
C330 N333 1.368 . S
C330 H335 0.931 . S
C331 C330 1.351 . S
C331 N332 1.373 . S
C331 H359 0.930 . S
N332 C331 1.373 . S
N332 C334 1.340 . S
N333 C330 1.368 . S
N333 C334 1.321 . S
N333 Co336 2.135 . S
C334 N332 1.340 . S
C334 N333 1.321 . S
C334 H358 0.930 . S
H335 C330 0.931 . S
Co336 N333 2.135 . S
Co336 N339 2.121 . S
Co336 O344 2.055 . S
Co336 O347 2.039 . S
Co336 N350 2.140 . S
C337 O338 1.227 . S
C337 O347 1.265 . S
O338 C337 1.227 . S
N339 Co336 2.121 . S
N339 C341 1.375 . S
N339 C342 1.313 . S
C340 C341 1.338 . S
C340 N343 1.377 . S
C340 H360 0.930 . S
C341 N339 1.375 . S
C341 C340 1.338 . S
C341 H345 0.931 . S
C342 N339 1.313 . S
C342 N343 1.344 . S
C342 H346 0.930 . S
N343 C340 1.377 . S
N343 C342 1.344 . S
O344 Co336 2.055 . S
O344 C348 1.253 . S
H345 C341 0.931 . S
H346 C342 0.930 . S
O347 Co336 2.039 . S
O347 C337 1.265 . S
C348 O344 1.253 . S
C348 O349 1.227 . S
O349 C348 1.227 . S
N350 Co336 2.140 . S
N350 C353 1.346 . S
N350 C354 1.345 . S
C351 C352 1.387 . S
C351 C355 1.391 . S
C352 C351 1.387 . S
C352 C353 1.369 . S
C352 H361 0.929 . S
C353 N350 1.346 . S
C353 C352 1.369 . S
C353 H356 0.928 . S
C354 N350 1.345 . S
C354 C355 1.371 . S
C354 H357 0.931 . S
C355 C351 1.391 . S
C355 C354 1.371 . S
C355 H362 0.930 . S
H356 C353 0.928 . S
H357 C354 0.931 . S
H358 C334 0.930 . S
H359 C331 0.930 . S
H360 C340 0.930 . S
H361 C352 0.929 . S
H362 C355 0.930 . S
C363 C364 1.351 . S
C363 N366 1.368 . S
C363 H368 0.931 . S
C364 C363 1.351 . S
C364 N365 1.373 . S
C364 H392 0.930 . S
N365 C364 1.373 . S
N365 C367 1.340 . S
N366 C363 1.368 . S
N366 C367 1.321 . S
N366 Co369 2.135 . S
C367 N365 1.340 . S
C367 N366 1.321 . S
C367 H391 0.930 . S
H368 C363 0.931 . S
Co369 N366 2.135 . S
Co369 N372 2.121 . S
Co369 O377 2.055 . S
Co369 O380 2.039 . S
Co369 N383 2.140 . S
C370 O371 1.227 . S
C370 O380 1.265 . S
O371 C370 1.227 . S
N372 Co369 2.121 . S
N372 C374 1.375 . S
N372 C375 1.313 . S
C373 C374 1.317 1_545 S
C373 N376 1.347 1_545 S
C373 H393 0.973 . S
C374 N372 1.375 . S
C374 C373 1.317 1_565 S
C374 H378 0.931 . S
C375 N372 1.313 . S
C375 N376 1.344 . S
C375 H379 0.930 . S
N376 C373 1.347 1_565 S
N376 C375 1.344 . S
O377 Co369 2.055 . S
O377 C381 1.253 . S
H378 C374 0.931 . S
H379 C375 0.930 . S
O380 Co369 2.039 . S
O380 C370 1.265 . S
C381 O377 1.253 . S
C381 O382 1.227 . S
O382 C381 1.227 . S
N383 Co369 2.140 . S
N383 C386 1.346 . S
N383 C387 1.345 . S
C384 C385 1.387 . S
C384 C388 1.391 . S
C385 C384 1.387 . S
C385 C386 1.369 . S
C385 H394 0.929 . S
C386 N383 1.346 . S
C386 C385 1.369 . S
C386 H389 0.928 . S
C387 N383 1.345 . S
C387 C388 1.371 . S
C387 H390 0.931 . S
C388 C384 1.391 . S
C388 C387 1.371 . S
C388 H395 0.930 . S
H389 C386 0.928 . S
H390 C387 0.931 . S
H391 C367 0.930 . S
H392 C364 0.930 . S
H393 C373 0.973 . S
H394 C385 0.929 . S
H395 C388 0.930 . S
C396 C397 1.351 1_554 S
C396 N399 1.368 . S
C396 H401 0.931 . S
C397 C396 1.351 1_556 S
C397 N398 1.373 . S
C397 H425 0.930 . S
N398 C397 1.373 . S
N398 C400 1.340 . S
N399 C396 1.368 . S
N399 C400 1.321 1_554 S
N399 Co402 2.135 . S
C400 N398 1.340 . S
C400 N399 1.321 1_556 S
C400 H424 0.930 . S
H401 C396 0.931 . S
Co402 N399 2.135 . S
Co402 N405 2.121 . S
Co402 O410 2.055 . S
Co402 O413 2.039 . S
Co402 N416 2.140 . S
C403 O404 1.227 . S
C403 O413 1.265 . S
O404 C403 1.227 . S
N405 Co402 2.121 . S
N405 C407 1.375 . S
N405 C408 1.313 . S
C406 C407 1.338 . S
C406 N409 1.377 . S
C406 H426 0.930 . S
C407 N405 1.375 . S
C407 C406 1.338 . S
C407 H411 0.931 . S
C408 N405 1.313 . S
C408 N409 1.344 . S
C408 H412 0.930 . S
N409 C406 1.377 . S
N409 C408 1.344 . S
O410 Co402 2.055 . S
O410 C414 1.253 . S
H411 C407 0.931 . S
H412 C408 0.930 . S
O413 Co402 2.039 . S
O413 C403 1.265 . S
C414 O410 1.253 . S
C414 O415 1.227 . S
O415 C414 1.227 . S
N416 Co402 2.140 . S
N416 C419 1.346 . S
N416 C420 1.345 . S
C417 C418 1.387 . S
C417 C421 1.391 . S
C418 C417 1.387 . S
C418 C419 1.369 . S
C418 H427 0.929 . S
C419 N416 1.346 . S
C419 C418 1.369 . S
C419 H422 0.928 . S
C420 N416 1.345 . S
C420 C421 1.371 . S
C420 H423 0.931 . S
C421 C417 1.391 . S
C421 C420 1.371 . S
C421 H428 0.930 . S
H422 C419 0.928 . S
H423 C420 0.931 . S
H424 C400 0.930 . S
H425 C397 0.930 . S
H426 C406 0.930 . S
H427 C418 0.929 . S
H428 C421 0.930 . S
C429 C430 1.351 . S
C429 N432 1.368 . S
C429 H434 0.931 . S
C430 C429 1.351 . S
C430 N431 1.373 . S
C430 H458 0.930 . S
N431 C430 1.373 . S
N431 C433 1.340 . S
N432 C429 1.368 . S
N432 C433 1.321 . S
N432 Co435 2.135 . S
C433 N431 1.340 . S
C433 N432 1.321 . S
C433 H457 0.930 . S
H434 C429 0.931 . S
Co435 N432 2.135 . S
Co435 N438 2.121 . S
Co435 O443 2.055 . S
Co435 O446 2.039 . S
Co435 N449 2.140 . S
C436 O437 1.227 . S
C436 O446 1.265 . S
O437 C436 1.227 . S
N438 Co435 2.121 . S
N438 C440 1.375 . S
N438 C441 1.313 . S
C439 C440 1.317 1_565 S
C439 N442 1.347 1_565 S
C439 H459 0.973 . S
C440 N438 1.375 . S
C440 C439 1.317 1_545 S
C440 H444 0.931 . S
C441 N438 1.313 . S
C441 N442 1.344 . S
C441 H445 0.930 . S
N442 C439 1.347 1_545 S
N442 C441 1.344 . S
O443 Co435 2.055 . S
O443 C447 1.253 . S
H444 C440 0.931 . S
H445 C441 0.930 . S
O446 Co435 2.039 . S
O446 C436 1.265 . S
C447 O443 1.253 . S
C447 O448 1.227 . S
O448 C447 1.227 . S
N449 Co435 2.140 . S
N449 C452 1.346 . S
N449 C453 1.345 . S
C450 C451 1.387 . S
C450 C454 1.391 . S
C451 C450 1.387 . S
C451 C452 1.369 . S
C451 H460 0.929 . S
C452 N449 1.346 . S
C452 C451 1.369 . S
C452 H455 0.928 . S
C453 N449 1.345 . S
C453 C454 1.371 . S
C453 H456 0.931 . S
C454 C450 1.391 . S
C454 C453 1.371 . S
C454 H461 0.930 . S
H455 C452 0.928 . S
H456 C453 0.931 . S
H457 C433 0.930 . S
H458 C430 0.930 . S
H459 C439 0.973 . S
H460 C451 0.929 . S
H461 C454 0.930 . S
C462 C463 1.351 . S
C462 N465 1.368 . S
C462 H467 0.931 . S
C463 C462 1.351 . S
C463 N464 1.373 . S
C463 H491 0.930 . S
N464 C463 1.373 . S
N464 C466 1.340 . S
N465 C462 1.368 . S
N465 C466 1.321 . S
N465 Co468 2.135 . S
C466 N464 1.340 . S
C466 N465 1.321 . S
C466 H490 0.930 . S
H467 C462 0.931 . S
Co468 N465 2.135 . S
Co468 N471 2.121 . S
Co468 O476 2.055 . S
Co468 O479 2.039 . S
Co468 N482 2.140 . S
C469 O470 1.227 . S
C469 O479 1.265 . S
O470 C469 1.227 . S
N471 Co468 2.121 . S
N471 C473 1.375 . S
N471 C474 1.313 . S
C472 C473 1.338 . S
C472 N475 1.377 . S
C472 H492 0.930 . S
C473 N471 1.375 . S
C473 C472 1.338 . S
C473 H477 0.931 . S
C474 N471 1.313 . S
C474 N475 1.344 . S
C474 H478 0.930 . S
N475 C472 1.377 . S
N475 C474 1.344 . S
O476 Co468 2.055 . S
O476 C480 1.253 . S
H477 C473 0.931 . S
H478 C474 0.930 . S
O479 Co468 2.039 . S
O479 C469 1.265 . S
C480 O476 1.253 . S
C480 O481 1.227 . S
O481 C480 1.227 . S
N482 Co468 2.140 . S
N482 C485 1.346 . S
N482 C486 1.345 . S
C483 C484 1.387 . S
C483 C487 1.391 . S
C484 C483 1.387 . S
C484 C485 1.369 . S
C484 H493 0.929 . S
C485 N482 1.346 . S
C485 C484 1.369 . S
C485 H488 0.928 . S
C486 N482 1.345 . S
C486 C487 1.371 . S
C486 H489 0.931 . S
C487 C483 1.391 . S
C487 C486 1.371 . S
C487 H494 0.930 . S
H488 C485 0.928 . S
H489 C486 0.931 . S
H490 C466 0.930 . S
H491 C463 0.930 . S
H492 C472 0.930 . S
H493 C484 0.929 . S
H494 C487 0.930 . S
C495 C496 1.351 . S
C495 N498 1.368 . S
C495 H500 0.931 . S
C496 C495 1.351 . S
C496 N497 1.373 . S
C496 H524 0.930 . S
N497 C496 1.373 . S
N497 C499 1.340 . S
N498 C495 1.368 . S
N498 C499 1.321 . S
N498 Co501 2.135 . S
C499 N497 1.340 . S
C499 N498 1.321 . S
C499 H523 0.930 . S
H500 C495 0.931 . S
Co501 N498 2.135 . S
Co501 N504 2.121 . S
Co501 O509 2.055 . S
Co501 O512 2.039 . S
Co501 N515 2.140 . S
C502 O503 1.227 . S
C502 O512 1.265 . S
O503 C502 1.227 . S
N504 Co501 2.121 . S
N504 C506 1.375 . S
N504 C507 1.313 . S
C505 C506 1.317 1_545 S
C505 N508 1.347 1_545 S
C505 H525 0.973 . S
C506 N504 1.375 . S
C506 C505 1.317 1_565 S
C506 H510 0.931 . S
C507 N504 1.313 . S
C507 N508 1.344 . S
C507 H511 0.930 . S
N508 C505 1.347 1_565 S
N508 C507 1.344 . S
O509 Co501 2.055 . S
O509 C513 1.253 . S
H510 C506 0.931 . S
H511 C507 0.930 . S
O512 Co501 2.039 . S
O512 C502 1.265 . S
C513 O509 1.253 . S
C513 O514 1.227 . S
O514 C513 1.227 . S
N515 Co501 2.140 . S
N515 C518 1.346 . S
N515 C519 1.345 . S
C516 C517 1.387 . S
C516 C520 1.391 . S
C517 C516 1.387 . S
C517 C518 1.369 . S
C517 H526 0.929 . S
C518 N515 1.346 . S
C518 C517 1.369 . S
C518 H521 0.928 . S
C519 N515 1.345 . S
C519 C520 1.371 . S
C519 H522 0.931 . S
C520 C516 1.391 . S
C520 C519 1.371 . S
C520 H527 0.930 . S
H521 C518 0.928 . S
H522 C519 0.931 . S
H523 C499 0.930 . S
H524 C496 0.930 . S
H525 C505 0.973 . S
H526 C517 0.929 . S
H527 C520 0.930 . S
C528 C529 1.351 . S
C528 N531 1.368 . S
C528 H533 0.931 . S
C529 C528 1.351 . S
C529 N530 1.373 . S
C529 H557 0.930 . S
N530 C529 1.373 . S
N530 C532 1.340 . S
N531 C528 1.368 . S
N531 C532 1.321 . S
N531 Co534 2.135 . S
C532 N530 1.340 . S
C532 N531 1.321 . S
C532 H556 0.930 . S
H533 C528 0.931 . S
Co534 N531 2.135 . S
Co534 N537 2.121 . S
Co534 O542 2.055 . S
Co534 O545 2.039 . S
Co534 N548 2.140 . S
C535 O536 1.227 . S
C535 O545 1.265 . S
O536 C535 1.227 . S
N537 Co534 2.121 . S
N537 C539 1.375 . S
N537 C540 1.313 . S
C538 C539 1.338 . S
C538 N541 1.377 . S
C538 H558 0.930 . S
C539 N537 1.375 . S
C539 C538 1.338 . S
C539 H543 0.931 . S
C540 N537 1.313 . S
C540 N541 1.344 . S
C540 H544 0.930 . S
N541 C538 1.377 . S
N541 C540 1.344 . S
O542 Co534 2.055 . S
O542 C546 1.253 . S
H543 C539 0.931 . S
H544 C540 0.930 . S
O545 Co534 2.039 . S
O545 C535 1.265 . S
C546 O542 1.253 . S
C546 O547 1.227 . S
O547 C546 1.227 . S
N548 Co534 2.140 . S
N548 C551 1.346 . S
N548 C552 1.345 . S
C549 C550 1.387 . S
C549 C553 1.391 . S
C550 C549 1.387 . S
C550 C551 1.369 . S
C550 H559 0.929 . S
C551 N548 1.346 . S
C551 C550 1.369 . S
C551 H554 0.928 . S
C552 N548 1.345 . S
C552 C553 1.371 . S
C552 H555 0.931 . S
C553 C549 1.391 . S
C553 C552 1.371 . S
C553 H560 0.930 . S
H554 C551 0.928 . S
H555 C552 0.931 . S
H556 C532 0.930 . S
H557 C529 0.930 . S
H558 C538 0.930 . S
H559 C550 0.929 . S
H560 C553 0.930 . S
C561 C562 1.351 . S
C561 N564 1.368 . S
C561 H566 0.931 . S
C562 C561 1.351 . S
C562 N563 1.373 . S
C562 H590 0.930 . S
N563 C562 1.373 . S
N563 C565 1.340 . S
N564 C561 1.368 . S
N564 C565 1.321 . S
N564 Co567 2.135 . S
C565 N563 1.340 . S
C565 N564 1.321 . S
C565 H589 0.930 . S
H566 C561 0.931 . S
Co567 N564 2.135 . S
Co567 N570 2.121 . S
Co567 O575 2.055 . S
Co567 O578 2.039 . S
Co567 N581 2.140 . S
C568 O569 1.227 . S
C568 O578 1.265 . S
O569 C568 1.227 . S
N570 Co567 2.121 . S
N570 C572 1.375 . S
N570 C573 1.313 . S
C571 C572 1.338 . S
C571 N574 1.377 . S
C571 H591 0.930 . S
C572 N570 1.375 . S
C572 C571 1.338 . S
C572 H576 0.931 . S
C573 N570 1.313 . S
C573 N574 1.344 . S
C573 H577 0.930 . S
N574 C571 1.377 . S
N574 C573 1.344 . S
O575 Co567 2.055 . S
O575 C579 1.253 . S
H576 C572 0.931 . S
H577 C573 0.930 . S
O578 Co567 2.039 . S
O578 C568 1.265 . S
C579 O575 1.253 . S
C579 O580 1.227 . S
O580 C579 1.227 . S
N581 Co567 2.140 . S
N581 C584 1.346 . S
N581 C585 1.345 . S
C582 C583 1.387 . S
C582 C586 1.391 . S
C583 C582 1.387 . S
C583 C584 1.369 . S
C583 H592 0.929 . S
C584 N581 1.346 . S
C584 C583 1.369 . S
C584 H587 0.928 . S
C585 N581 1.345 . S
C585 C586 1.371 . S
C585 H588 0.931 . S
C586 C582 1.391 . S
C586 C585 1.371 . S
C586 H593 0.930 . S
H587 C584 0.928 . S
H588 C585 0.931 . S
H589 C565 0.930 . S
H590 C562 0.930 . S
H591 C571 0.930 . S
H592 C583 0.929 . S
H593 C586 0.930 . S
C594 C595 1.351 1_554 S
C594 N597 1.368 . S
C594 H599 0.931 . S
C595 C594 1.351 1_556 S
C595 N596 1.373 . S
C595 H623 0.930 . S
N596 C595 1.373 . S
N596 C598 1.340 . S
N597 C594 1.368 . S
N597 C598 1.321 1_554 S
N597 Co600 2.135 . S
C598 N596 1.340 . S
C598 N597 1.321 1_556 S
C598 H622 0.930 . S
H599 C594 0.931 . S
Co600 N597 2.135 . S
Co600 N603 2.121 . S
Co600 O608 2.055 . S
Co600 O611 2.039 . S
Co600 N614 2.140 . S
C601 O602 1.227 . S
C601 O611 1.265 . S
O602 C601 1.227 . S
N603 Co600 2.121 . S
N603 C605 1.375 . S
N603 C606 1.313 . S
C604 C605 1.338 . S
C604 N607 1.377 . S
C604 H624 0.930 . S
C605 N603 1.375 . S
C605 C604 1.338 . S
C605 H609 0.931 . S
C606 N603 1.313 . S
C606 N607 1.344 . S
C606 H610 0.930 . S
N607 C604 1.377 . S
N607 C606 1.344 . S
O608 Co600 2.055 . S
O608 C612 1.253 . S
H609 C605 0.931 . S
H610 C606 0.930 . S
O611 Co600 2.039 . S
O611 C601 1.265 . S
C612 O608 1.253 . S
C612 O613 1.227 . S
O613 C612 1.227 . S
N614 Co600 2.140 . S
N614 C617 1.346 . S
N614 C618 1.345 . S
C615 C616 1.387 . S
C615 C619 1.391 . S
C616 C615 1.387 . S
C616 C617 1.369 . S
C616 H625 0.929 . S
C617 N614 1.346 . S
C617 C616 1.369 . S
C617 H620 0.928 . S
C618 N614 1.345 . S
C618 C619 1.371 . S
C618 H621 0.931 . S
C619 C615 1.391 . S
C619 C618 1.371 . S
C619 H626 0.930 . S
H620 C617 0.928 . S
H621 C618 0.931 . S
H622 C598 0.930 . S
H623 C595 0.930 . S
H624 C604 0.930 . S
H625 C616 0.929 . S
H626 C619 0.930 . S
C627 C628 1.351 . S
C627 N630 1.368 . S
C627 H632 0.931 . S
C628 C627 1.351 . S
C628 N629 1.373 . S
C628 H656 0.930 . S
N629 C628 1.373 . S
N629 C631 1.340 . S
N630 C627 1.368 . S
N630 C631 1.321 . S
N630 Co633 2.135 . S
C631 N629 1.340 . S
C631 N630 1.321 . S
C631 H655 0.930 . S
H632 C627 0.931 . S
Co633 N630 2.135 . S
Co633 N636 2.121 . S
Co633 O641 2.055 . S
Co633 O644 2.039 . S
Co633 N647 2.140 . S
C634 O635 1.227 . S
C634 O644 1.265 . S
O635 C634 1.227 . S
N636 Co633 2.121 . S
N636 C638 1.375 . S
N636 C639 1.313 . S
C637 C638 1.338 . S
C637 N640 1.377 . S
C637 H657 0.930 . S
C638 N636 1.375 . S
C638 C637 1.338 . S
C638 H642 0.931 . S
C639 N636 1.313 . S
C639 N640 1.344 . S
C639 H643 0.930 . S
N640 C637 1.377 . S
N640 C639 1.344 . S
O641 Co633 2.055 . S
O641 C645 1.253 . S
H642 C638 0.931 . S
H643 C639 0.930 . S
O644 Co633 2.039 . S
O644 C634 1.265 . S
C645 O641 1.253 . S
C645 O646 1.227 . S
O646 C645 1.227 . S
N647 Co633 2.140 . S
N647 C650 1.346 . S
N647 C651 1.345 . S
C648 C649 1.387 . S
C648 C652 1.391 . S
C649 C648 1.387 . S
C649 C650 1.369 . S
C649 H658 0.929 . S
C650 N647 1.346 . S
C650 C649 1.369 . S
C650 H653 0.928 . S
C651 N647 1.345 . S
C651 C652 1.371 . S
C651 H654 0.931 . S
C652 C648 1.391 . S
C652 C651 1.371 . S
C652 H659 0.930 . S
H653 C650 0.928 . S
H654 C651 0.931 . S
H655 C631 0.930 . S
H656 C628 0.930 . S
H657 C637 0.930 . S
H658 C649 0.929 . S
H659 C652 0.930 . S
C660 C661 1.351 . S
C660 N663 1.368 . S
C660 H665 0.931 . S
C661 C660 1.351 . S
C661 N662 1.373 . S
C661 H689 0.930 . S
N662 C661 1.373 . S
N662 C664 1.340 . S
N663 C660 1.368 . S
N663 C664 1.321 . S
N663 Co666 2.135 . S
C664 N662 1.340 . S
C664 N663 1.321 . S
C664 H688 0.930 . S
H665 C660 0.931 . S
Co666 N663 2.135 . S
Co666 N669 2.121 . S
Co666 O674 2.055 . S
Co666 O677 2.039 . S
Co666 N680 2.140 . S
C667 O668 1.227 . S
C667 O677 1.265 . S
O668 C667 1.227 . S
N669 Co666 2.121 . S
N669 C671 1.375 . S
N669 C672 1.313 . S
C670 C671 1.338 . S
C670 N673 1.377 . S
C670 H690 0.930 . S
C671 N669 1.375 . S
C671 C670 1.338 . S
C671 H675 0.931 . S
C672 N669 1.313 . S
C672 N673 1.344 . S
C672 H676 0.930 . S
N673 C670 1.377 . S
N673 C672 1.344 . S
O674 Co666 2.055 . S
O674 C678 1.253 . S
H675 C671 0.931 . S
H676 C672 0.930 . S
O677 Co666 2.039 . S
O677 C667 1.265 . S
C678 O674 1.253 . S
C678 O679 1.227 . S
O679 C678 1.227 . S
N680 Co666 2.140 . S
N680 C683 1.346 . S
N680 C684 1.345 . S
C681 C682 1.387 . S
C681 C685 1.391 . S
C682 C681 1.387 . S
C682 C683 1.369 . S
C682 H691 0.929 . S
C683 N680 1.346 . S
C683 C682 1.369 . S
C683 H686 0.928 . S
C684 N680 1.345 . S
C684 C685 1.371 . S
C684 H687 0.931 . S
C685 C681 1.391 . S
C685 C684 1.371 . S
C685 H692 0.930 . S
H686 C683 0.928 . S
H687 C684 0.931 . S
H688 C664 0.930 . S
H689 C661 0.930 . S
H690 C670 0.930 . S
H691 C682 0.929 . S
H692 C685 0.930 . S
C693 C694 1.351 . S
C693 N696 1.368 . S
C693 H698 0.931 . S
C694 C693 1.351 . S
C694 N695 1.373 . S
C694 H722 0.930 . S
N695 C694 1.373 . S
N695 C697 1.340 . S
N696 C693 1.368 . S
N696 C697 1.321 . S
N696 Co699 2.135 . S
C697 N695 1.340 . S
C697 N696 1.321 . S
C697 H721 0.930 . S
H698 C693 0.931 . S
Co699 N696 2.135 . S
Co699 N702 2.121 . S
Co699 O707 2.055 . S
Co699 O710 2.039 . S
Co699 N713 2.140 . S
C700 O701 1.227 . S
C700 O710 1.265 . S
O701 C700 1.227 . S
N702 Co699 2.121 . S
N702 C704 1.375 . S
N702 C705 1.313 . S
C703 C704 1.338 . S
C703 N706 1.377 . S
C703 H723 0.930 . S
C704 N702 1.375 . S
C704 C703 1.338 . S
C704 H708 0.931 . S
C705 N702 1.313 . S
C705 N706 1.344 . S
C705 H709 0.930 . S
N706 C703 1.377 . S
N706 C705 1.344 . S
O707 Co699 2.055 . S
O707 C711 1.253 . S
H708 C704 0.931 . S
H709 C705 0.930 . S
O710 Co699 2.039 . S
O710 C700 1.265 . S
C711 O707 1.253 . S
C711 O712 1.227 . S
O712 C711 1.227 . S
N713 Co699 2.140 . S
N713 C716 1.346 . S
N713 C717 1.345 . S
C714 C715 1.387 . S
C714 C718 1.391 . S
C715 C714 1.387 . S
C715 C716 1.369 . S
C715 H724 0.929 . S
C716 N713 1.346 . S
C716 C715 1.369 . S
C716 H719 0.928 . S
C717 N713 1.345 . S
C717 C718 1.371 . S
C717 H720 0.931 . S
C718 C714 1.391 . S
C718 C717 1.371 . S
C718 H725 0.930 . S
H719 C716 0.928 . S
H720 C717 0.931 . S
H721 C697 0.930 . S
H722 C694 0.930 . S
H723 C703 0.930 . S
H724 C715 0.929 . S
H725 C718 0.930 . S
C726 C727 1.351 1_556 S
C726 N729 1.368 . S
C726 H731 0.931 . S
C727 C726 1.351 1_554 S
C727 N728 1.373 . S
C727 H755 0.930 . S
N728 C727 1.373 . S
N728 C730 1.340 . S
N729 C726 1.368 . S
N729 C730 1.321 1_556 S
N729 Co732 2.135 . S
C730 N728 1.340 . S
C730 N729 1.321 1_554 S
C730 H754 0.930 . S
H731 C726 0.931 . S
Co732 N729 2.135 . S
Co732 N735 2.121 . S
Co732 O740 2.055 . S
Co732 O743 2.039 . S
Co732 N746 2.140 . S
C733 O734 1.227 . S
C733 O743 1.265 . S
O734 C733 1.227 . S
N735 Co732 2.121 . S
N735 C737 1.375 . S
N735 C738 1.313 . S
C736 C737 1.338 . S
C736 N739 1.377 . S
C736 H756 0.930 . S
C737 N735 1.375 . S
C737 C736 1.338 . S
C737 H741 0.931 . S
C738 N735 1.313 . S
C738 N739 1.344 . S
C738 H742 0.930 . S
N739 C736 1.377 . S
N739 C738 1.344 . S
O740 Co732 2.055 . S
O740 C744 1.253 . S
H741 C737 0.931 . S
H742 C738 0.930 . S
O743 Co732 2.039 . S
O743 C733 1.265 . S
C744 O740 1.253 . S
C744 O745 1.227 . S
O745 C744 1.227 . S
N746 Co732 2.140 . S
N746 C749 1.346 . S
N746 C750 1.345 . S
C747 C748 1.387 . S
C747 C751 1.391 . S
C748 C747 1.387 . S
C748 C749 1.369 . S
C748 H757 0.929 . S
C749 N746 1.346 . S
C749 C748 1.369 . S
C749 H752 0.928 . S
C750 N746 1.345 . S
C750 C751 1.371 . S
C750 H753 0.931 . S
C751 C747 1.391 . S
C751 C750 1.371 . S
C751 H758 0.930 . S
H752 C749 0.928 . S
H753 C750 0.931 . S
H754 C730 0.930 . S
H755 C727 0.930 . S
H756 C736 0.930 . S
H757 C748 0.929 . S
H758 C751 0.930 . S
C759 C760 1.351 . S
C759 N762 1.368 . S
C759 H764 0.931 . S
C760 C759 1.351 . S
C760 N761 1.373 . S
C760 H788 0.930 . S
N761 C760 1.373 . S
N761 C763 1.340 . S
N762 C759 1.368 . S
N762 C763 1.321 . S
N762 Co765 2.135 . S
C763 N761 1.340 . S
C763 N762 1.321 . S
C763 H787 0.930 . S
H764 C759 0.931 . S
Co765 N762 2.135 . S
Co765 N768 2.121 . S
Co765 O773 2.055 . S
Co765 O776 2.039 . S
Co765 N779 2.140 . S
C766 O767 1.227 . S
C766 O776 1.265 . S
O767 C766 1.227 . S
N768 Co765 2.121 . S
N768 C770 1.375 . S
N768 C771 1.313 . S
C769 C770 1.338 . S
C769 N772 1.377 . S
C769 H789 0.930 . S
C770 N768 1.375 . S
C770 C769 1.338 . S
C770 H774 0.931 . S
C771 N768 1.313 . S
C771 N772 1.344 . S
C771 H775 0.930 . S
N772 C769 1.377 . S
N772 C771 1.344 . S
O773 Co765 2.055 . S
O773 C777 1.253 . S
H774 C770 0.931 . S
H775 C771 0.930 . S
O776 Co765 2.039 . S
O776 C766 1.265 . S
C777 O773 1.253 . S
C777 O778 1.227 . S
O778 C777 1.227 . S
N779 Co765 2.140 . S
N779 C782 1.346 . S
N779 C783 1.345 . S
C780 C781 1.387 . S
C780 C784 1.391 . S
C781 C780 1.387 . S
C781 C782 1.369 . S
C781 H790 0.929 . S
C782 N779 1.346 . S
C782 C781 1.369 . S
C782 H785 0.928 . S
C783 N779 1.345 . S
C783 C784 1.371 . S
C783 H786 0.931 . S
C784 C780 1.391 . S
C784 C783 1.371 . S
C784 H791 0.930 . S
H785 C782 0.928 . S
H786 C783 0.931 . S
H787 C763 0.930 . S
H788 C760 0.930 . S
H789 C769 0.930 . S
H790 C781 0.929 . S
H791 C784 0.930 . S
C792 C793 1.351 . S
C792 N795 1.368 . S
C792 H797 0.931 . S
C793 C792 1.351 . S
C793 N794 1.373 . S
C793 H821 0.930 . S
N794 C793 1.373 . S
N794 C796 1.340 . S
N795 C792 1.368 . S
N795 C796 1.321 . S
N795 Co798 2.135 . S
C796 N794 1.340 . S
C796 N795 1.321 . S
C796 H820 0.930 . S
H797 C792 0.931 . S
Co798 N795 2.135 . S
Co798 N801 2.121 . S
Co798 O806 2.055 . S
Co798 O809 2.039 . S
Co798 N812 2.140 . S
C799 O800 1.227 . S
C799 O809 1.265 . S
O800 C799 1.227 . S
N801 Co798 2.121 . S
N801 C803 1.375 . S
N801 C804 1.313 . S
C802 C803 1.338 . S
C802 N805 1.377 . S
C802 H822 0.930 . S
C803 N801 1.375 . S
C803 C802 1.338 . S
C803 H807 0.931 . S
C804 N801 1.313 . S
C804 N805 1.344 . S
C804 H808 0.930 . S
N805 C802 1.377 . S
N805 C804 1.344 . S
O806 Co798 2.055 . S
O806 C810 1.253 . S
H807 C803 0.931 . S
H808 C804 0.930 . S
O809 Co798 2.039 . S
O809 C799 1.265 . S
C810 O806 1.253 . S
C810 O811 1.227 . S
O811 C810 1.227 . S
N812 Co798 2.140 . S
N812 C815 1.346 . S
N812 C816 1.345 . S
C813 C814 1.387 . S
C813 C817 1.391 . S
C814 C813 1.387 . S
C814 C815 1.369 . S
C814 H823 0.929 . S
C815 N812 1.346 . S
C815 C814 1.369 . S
C815 H818 0.928 . S
C816 N812 1.345 . S
C816 C817 1.371 . S
C816 H819 0.931 . S
C817 C813 1.391 . S
C817 C816 1.371 . S
C817 H824 0.930 . S
H818 C815 0.928 . S
H819 C816 0.931 . S
H820 C796 0.930 . S
H821 C793 0.930 . S
H822 C802 0.930 . S
H823 C814 0.929 . S
H824 C817 0.930 . S
C825 C826 1.351 . S
C825 N828 1.368 . S
C825 H830 0.931 . S
C826 C825 1.351 . S
C826 N827 1.373 . S
C826 H854 0.930 . S
N827 C826 1.373 . S
N827 C829 1.340 . S
N828 C825 1.368 . S
N828 C829 1.321 . S
N828 Co831 2.135 . S
C829 N827 1.340 . S
C829 N828 1.321 . S
C829 H853 0.930 . S
H830 C825 0.931 . S
Co831 N828 2.135 . S
Co831 N834 2.121 . S
Co831 O839 2.055 . S
Co831 O842 2.039 . S
Co831 N845 2.140 . S
C832 O833 1.227 . S
C832 O842 1.265 . S
O833 C832 1.227 . S
N834 Co831 2.121 . S
N834 C836 1.375 . S
N834 C837 1.313 . S
C835 C836 1.338 . S
C835 N838 1.377 . S
C835 H855 0.930 . S
C836 N834 1.375 . S
C836 C835 1.338 . S
C836 H840 0.931 . S
C837 N834 1.313 . S
C837 N838 1.344 . S
C837 H841 0.930 . S
N838 C835 1.377 . S
N838 C837 1.344 . S
O839 Co831 2.055 . S
O839 C843 1.253 . S
H840 C836 0.931 . S
H841 C837 0.930 . S
O842 Co831 2.039 . S
O842 C832 1.265 . S
C843 O839 1.253 . S
C843 O844 1.227 . S
O844 C843 1.227 . S
N845 Co831 2.140 . S
N845 C848 1.346 . S
N845 C849 1.345 . S
C846 C847 1.387 . S
C846 C850 1.391 . S
C847 C846 1.387 . S
C847 C848 1.369 . S
C847 H856 0.929 . S
C848 N845 1.346 . S
C848 C847 1.369 . S
C848 H851 0.928 . S
C849 N845 1.345 . S
C849 C850 1.371 . S
C849 H852 0.931 . S
C850 C846 1.391 . S
C850 C849 1.371 . S
C850 H857 0.930 . S
H851 C848 0.928 . S
H852 C849 0.931 . S
H853 C829 0.930 . S
H854 C826 0.930 . S
H855 C835 0.930 . S
H856 C847 0.929 . S
H857 C850 0.930 . S
C858 C859 1.351 1_556 S
C858 N861 1.368 . S
C858 H863 0.931 . S
C859 C858 1.351 1_554 S
C859 N860 1.373 . S
C859 H887 0.930 . S
N860 C859 1.373 . S
N860 C862 1.340 . S
N861 C858 1.368 . S
N861 C862 1.321 1_556 S
N861 Co864 2.135 . S
C862 N860 1.340 . S
C862 N861 1.321 1_554 S
C862 H886 0.930 . S
H863 C858 0.931 . S
Co864 N861 2.135 . S
Co864 N867 2.121 . S
Co864 O872 2.055 . S
Co864 O875 2.039 . S
Co864 N878 2.140 . S
C865 O866 1.227 . S
C865 O875 1.265 . S
O866 C865 1.227 . S
N867 Co864 2.121 . S
N867 C869 1.375 . S
N867 C870 1.313 . S
C868 C869 1.338 . S
C868 N871 1.377 . S
C868 H888 0.930 . S
C869 N867 1.375 . S
C869 C868 1.338 . S
C869 H873 0.931 . S
C870 N867 1.313 . S
C870 N871 1.344 . S
C870 H874 0.930 . S
N871 C868 1.377 . S
N871 C870 1.344 . S
O872 Co864 2.055 . S
O872 C876 1.253 . S
H873 C869 0.931 . S
H874 C870 0.930 . S
O875 Co864 2.039 . S
O875 C865 1.265 . S
C876 O872 1.253 . S
C876 O877 1.227 . S
O877 C876 1.227 . S
N878 Co864 2.140 . S
N878 C881 1.346 . S
N878 C882 1.345 . S
C879 C880 1.387 . S
C879 C883 1.391 . S
C880 C879 1.387 . S
C880 C881 1.369 . S
C880 H889 0.929 . S
C881 N878 1.346 . S
C881 C880 1.369 . S
C881 H884 0.928 . S
C882 N878 1.345 . S
C882 C883 1.371 . S
C882 H885 0.931 . S
C883 C879 1.391 . S
C883 C882 1.371 . S
C883 H890 0.930 . S
H884 C881 0.928 . S
H885 C882 0.931 . S
H886 C862 0.930 . S
H887 C859 0.930 . S
H888 C868 0.930 . S
H889 C880 0.929 . S
H890 C883 0.930 . S
C891 C892 1.351 . S
C891 N894 1.368 . S
C891 H896 0.931 . S
C892 C891 1.351 . S
C892 N893 1.373 . S
C892 H920 0.930 . S
N893 C892 1.373 . S
N893 C895 1.340 . S
N894 C891 1.368 . S
N894 C895 1.321 . S
N894 Co897 2.135 . S
C895 N893 1.340 . S
C895 N894 1.321 . S
C895 H919 0.930 . S
H896 C891 0.931 . S
Co897 N894 2.135 . S
Co897 N900 2.121 . S
Co897 O905 2.055 . S
Co897 O908 2.039 . S
Co897 N911 2.140 . S
C898 O899 1.227 . S
C898 O908 1.265 . S
O899 C898 1.227 . S
N900 Co897 2.121 . S
N900 C902 1.375 . S
N900 C903 1.313 . S
C901 C902 1.338 . S
C901 N904 1.377 . S
C901 H921 0.930 . S
C902 N900 1.375 . S
C902 C901 1.338 . S
C902 H906 0.931 . S
C903 N900 1.313 . S
C903 N904 1.344 . S
C903 H907 0.930 . S
N904 C901 1.377 . S
N904 C903 1.344 . S
O905 Co897 2.055 . S
O905 C909 1.253 . S
H906 C902 0.931 . S
H907 C903 0.930 . S
O908 Co897 2.039 . S
O908 C898 1.265 . S
C909 O905 1.253 . S
C909 O910 1.227 . S
O910 C909 1.227 . S
N911 Co897 2.140 . S
N911 C914 1.346 . S
N911 C915 1.345 . S
C912 C913 1.387 . S
C912 C916 1.391 . S
C913 C912 1.387 . S
C913 C914 1.369 . S
C913 H922 0.929 . S
C914 N911 1.346 . S
C914 C913 1.369 . S
C914 H917 0.928 . S
C915 N911 1.345 . S
C915 C916 1.371 . S
C915 H918 0.931 . S
C916 C912 1.391 . S
C916 C915 1.371 . S
C916 H923 0.930 . S
H917 C914 0.928 . S
H918 C915 0.931 . S
H919 C895 0.930 . S
H920 C892 0.930 . S
H921 C901 0.930 . S
H922 C913 0.929 . S
H923 C916 0.930 . S
C924 C925 1.351 . S
C924 N927 1.368 . S
C924 H929 0.931 . S
C925 C924 1.351 . S
C925 N926 1.373 . S
C925 H953 0.930 . S
N926 C925 1.373 . S
N926 C928 1.340 . S
N927 C924 1.368 . S
N927 C928 1.321 . S
N927 Co930 2.135 . S
C928 N926 1.340 . S
C928 N927 1.321 . S
C928 H952 0.930 . S
H929 C924 0.931 . S
Co930 N927 2.135 . S
Co930 N933 2.121 . S
Co930 O938 2.055 . S
Co930 O941 2.039 . S
Co930 N944 2.140 . S
C931 O932 1.227 . S
C931 O941 1.265 . S
O932 C931 1.227 . S
N933 Co930 2.121 . S
N933 C935 1.375 . S
N933 C936 1.313 . S
C934 C935 1.338 . S
C934 N937 1.377 . S
C934 H954 0.930 . S
C935 N933 1.375 . S
C935 C934 1.338 . S
C935 H939 0.931 . S
C936 N933 1.313 . S
C936 N937 1.344 . S
C936 H940 0.930 . S
N937 C934 1.377 . S
N937 C936 1.344 . S
O938 Co930 2.055 . S
O938 C942 1.253 . S
H939 C935 0.931 . S
H940 C936 0.930 . S
O941 Co930 2.039 . S
O941 C931 1.265 . S
C942 O938 1.253 . S
C942 O943 1.227 . S
O943 C942 1.227 . S
N944 Co930 2.140 . S
N944 C947 1.346 . S
N944 C948 1.345 . S
C945 C946 1.387 . S
C945 C949 1.391 . S
C946 C945 1.387 . S
C946 C947 1.369 . S
C946 H955 0.929 . S
C947 N944 1.346 . S
C947 C946 1.369 . S
C947 H950 0.928 . S
C948 N944 1.345 . S
C948 C949 1.371 . S
C948 H951 0.931 . S
C949 C945 1.391 . S
C949 C948 1.371 . S
C949 H956 0.930 . S
H950 C947 0.928 . S
H951 C948 0.931 . S
H952 C928 0.930 . S
H953 C925 0.930 . S
H954 C934 0.930 . S
H955 C946 0.929 . S
H956 C949 0.930 . S
C957 C958 1.351 . S
C957 N960 1.368 . S
C957 H962 0.931 . S
C958 C957 1.351 . S
C958 N959 1.373 . S
C958 H986 0.930 . S
N959 C958 1.373 . S
N959 C961 1.340 . S
N960 C957 1.368 . S
N960 C961 1.321 . S
N960 Co963 2.135 . S
C961 N959 1.340 . S
C961 N960 1.321 . S
C961 H985 0.930 . S
H962 C957 0.931 . S
Co963 N960 2.135 . S
Co963 N966 2.121 . S
Co963 O971 2.055 . S
Co963 O974 2.039 . S
Co963 N977 2.140 . S
C964 O965 1.227 . S
C964 O974 1.265 . S
O965 C964 1.227 . S
N966 Co963 2.121 . S
N966 C968 1.375 . S
N966 C969 1.313 . S
C967 C968 1.338 . S
C967 N970 1.377 . S
C967 H987 0.930 . S
C968 N966 1.375 . S
C968 C967 1.338 . S
C968 H972 0.931 . S
C969 N966 1.313 . S
C969 N970 1.344 . S
C969 H973 0.930 . S
N970 C967 1.377 . S
N970 C969 1.344 . S
O971 Co963 2.055 . S
O971 C975 1.253 . S
H972 C968 0.931 . S
H973 C969 0.930 . S
O974 Co963 2.039 . S
O974 C964 1.265 . S
C975 O971 1.253 . S
C975 O976 1.227 . S
O976 C975 1.227 . S
N977 Co963 2.140 . S
N977 C980 1.346 . S
N977 C981 1.345 . S
C978 C979 1.387 . S
C978 C982 1.391 . S
C979 C978 1.387 . S
C979 C980 1.369 . S
C979 H988 0.929 . S
C980 N977 1.346 . S
C980 C979 1.369 . S
C980 H983 0.928 . S
C981 N977 1.345 . S
C981 C982 1.371 . S
C981 H984 0.931 . S
C982 C978 1.391 . S
C982 C981 1.371 . S
C982 H989 0.930 . S
H983 C980 0.928 . S
H984 C981 0.931 . S
H985 C961 0.930 . S
H986 C958 0.930 . S
H987 C967 0.930 . S
H988 C979 0.929 . S
H989 C982 0.930 . S
C990 C991 1.351 1_554 S
C990 N993 1.368 . S
C990 H995 0.931 . S
C991 C990 1.351 1_556 S
C991 N992 1.373 . S
C991 H1019 0.930 . S
N992 C991 1.373 . S
N992 C994 1.340 . S
N993 C990 1.368 . S
N993 C994 1.321 1_554 S
N993 Co996 2.135 . S
C994 N992 1.340 . S
C994 N993 1.321 1_556 S
C994 H1018 0.930 . S
H995 C990 0.931 . S
Co996 N993 2.135 . S
Co996 N999 2.121 . S
Co996 O1004 2.055 . S
Co996 O1007 2.039 . S
Co996 N1010 2.140 . S
C997 O998 1.227 . S
C997 O1007 1.265 . S
O998 C997 1.227 . S
N999 Co996 2.121 . S
N999 C1001 1.375 . S
N999 C1002 1.313 . S
C1000 C1001 1.338 . S
C1000 N1003 1.377 . S
C1000 H1020 0.930 . S
C1001 N999 1.375 . S
C1001 C1000 1.338 . S
C1001 H1005 0.931 . S
C1002 N999 1.313 . S
C1002 N1003 1.344 . S
C1002 H1006 0.930 . S
N1003 C1000 1.377 . S
N1003 C1002 1.344 . S
O1004 Co996 2.055 . S
O1004 C1008 1.253 . S
H1005 C1001 0.931 . S
H1006 C1002 0.930 . S
O1007 Co996 2.039 . S
O1007 C997 1.265 . S
C1008 O1004 1.253 . S
C1008 O1009 1.227 . S
O1009 C1008 1.227 . S
N1010 Co996 2.140 . S
N1010 C1013 1.346 . S
N1010 C1014 1.345 . S
C1011 C1012 1.387 . S
C1011 C1015 1.391 . S
C1012 C1011 1.387 . S
C1012 C1013 1.369 . S
C1012 H1021 0.929 . S
C1013 N1010 1.346 . S
C1013 C1012 1.369 . S
C1013 H1016 0.928 . S
C1014 N1010 1.345 . S
C1014 C1015 1.371 . S
C1014 H1017 0.931 . S
C1015 C1011 1.391 . S
C1015 C1014 1.371 . S
C1015 H1022 0.930 . S
H1016 C1013 0.928 . S
H1017 C1014 0.931 . S
H1018 C994 0.930 . S
H1019 C991 0.930 . S
H1020 C1000 0.930 . S
H1021 C1012 0.929 . S
H1022 C1015 0.930 . S
C1023 C1024 1.351 . S
C1023 N1026 1.368 . S
C1023 H1028 0.931 . S
C1024 C1023 1.351 . S
C1024 N1025 1.373 . S
C1024 H1052 0.930 . S
N1025 C1024 1.373 . S
N1025 C1027 1.340 . S
N1026 C1023 1.368 . S
N1026 C1027 1.321 . S
N1026 Co1029 2.135 . S
C1027 N1025 1.340 . S
C1027 N1026 1.321 . S
C1027 H1051 0.930 . S
H1028 C1023 0.931 . S
Co1029 N1026 2.135 . S
Co1029 N1032 2.121 . S
Co1029 O1037 2.055 . S
Co1029 O1040 2.039 . S
Co1029 N1043 2.140 . S
C1030 O1031 1.227 . S
C1030 O1040 1.265 . S
O1031 C1030 1.227 . S
N1032 Co1029 2.121 . S
N1032 C1034 1.375 . S
N1032 C1035 1.313 . S
C1033 C1034 1.338 . S
C1033 N1036 1.377 . S
C1033 H1053 0.930 . S
C1034 N1032 1.375 . S
C1034 C1033 1.338 . S
C1034 H1038 0.931 . S
C1035 N1032 1.313 . S
C1035 N1036 1.344 . S
C1035 H1039 0.930 . S
N1036 C1033 1.377 . S
N1036 C1035 1.344 . S
O1037 Co1029 2.055 . S
O1037 C1041 1.253 . S
H1038 C1034 0.931 . S
H1039 C1035 0.930 . S
O1040 Co1029 2.039 . S
O1040 C1030 1.265 . S
C1041 O1037 1.253 . S
C1041 O1042 1.227 . S
O1042 C1041 1.227 . S
N1043 Co1029 2.140 . S
N1043 C1046 1.346 . S
N1043 C1047 1.345 . S
C1044 C1045 1.387 . S
C1044 C1048 1.391 . S
C1045 C1044 1.387 . S
C1045 C1046 1.369 . S
C1045 H1054 0.929 . S
C1046 N1043 1.346 . S
C1046 C1045 1.369 . S
C1046 H1049 0.928 . S
C1047 N1043 1.345 . S
C1047 C1048 1.371 . S
C1047 H1050 0.931 . S
C1048 C1044 1.391 . S
C1048 C1047 1.371 . S
C1048 H1055 0.930 . S
H1049 C1046 0.928 . S
H1050 C1047 0.931 . S
H1051 C1027 0.930 . S
H1052 C1024 0.930 . S
H1053 C1033 0.930 . S
H1054 C1045 0.929 . S
H1055 C1048 0.930 . S
H1056 C1062 0.930 . S
H1057 C1065 0.886 1_565 S
H1058 C1066 0.930 . S
H1059 C1067 0.930 . S
H1060 C1070 0.930 . S
H1061 C1071 0.930 . S
C1062 H1056 0.930 . S
C1062 C1063 1.355 . S
C1062 C1064 1.415 . S
C1063 C1062 1.355 . S
C1063 C1065 1.437 . S
C1064 C1062 1.415 . S
C1064 C1069 1.425 . S
C1064 C1071 1.409 . S
C1065 H1057 0.886 1_545 S
C1065 C1063 1.437 . S
C1065 C1066 1.389 . S
C1066 H1058 0.930 . S
C1066 C1065 1.389 . S
C1066 C1069 1.409 . S
C1067 H1059 0.930 . S
C1067 C1068 1.355 . S
C1067 C1069 1.415 . S
C1068 C1067 1.355 . S
C1068 C1070 1.419 . S
C1069 C1064 1.425 . S
C1069 C1066 1.409 . S
C1069 C1067 1.415 . S
C1070 H1060 0.930 . S
C1070 C1068 1.419 . S
C1070 C1071 1.362 . S
C1071 H1061 0.930 . S
C1071 C1064 1.409 . S
C1071 C1070 1.362 . S
H1072 C1078 0.930 . S
H1073 C1081 0.930 . S
H1074 C1082 0.930 . S
H1075 C1083 0.930 . S
H1076 C1086 0.930 . S
H1077 C1087 0.930 . S
C1078 H1072 0.930 . S
C1078 C1079 1.355 . S
C1078 C1080 1.415 . S
C1079 C1078 1.355 . S
C1079 C1081 1.419 . S
C1080 C1078 1.415 . S
C1080 C1085 1.425 . S
C1080 C1087 1.409 . S
C1081 H1073 0.930 . S
C1081 C1079 1.419 . S
C1081 C1082 1.362 . S
C1082 H1074 0.930 . S
C1082 C1081 1.362 . S
C1082 C1085 1.409 . S
C1083 H1075 0.930 . S
C1083 C1084 1.355 . S
C1083 C1085 1.415 . S
C1084 C1083 1.355 . S
C1084 C1086 1.419 . S
C1085 C1080 1.425 . S
C1085 C1082 1.409 . S
C1085 C1083 1.415 . S
C1086 H1076 0.930 . S
C1086 C1084 1.419 . S
C1086 C1087 1.362 . S
C1087 H1077 0.930 . S
C1087 C1080 1.409 . S
C1087 C1086 1.362 . S
H1088 C1094 0.930 . S
H1089 C1097 0.930 . S
H1090 C1098 0.930 . S
H1091 C1099 0.930 1_545 S
H1092 C1102 0.930 . S
H1093 C1103 0.930 . S
C1094 H1088 0.930 . S
C1094 C1095 1.355 . S
C1094 C1096 1.415 . S
C1095 C1094 1.355 . S
C1095 C1097 1.419 . S
C1096 C1094 1.415 . S
C1096 C1101 1.425 . S
C1096 C1103 1.409 . S
C1097 H1089 0.930 . S
C1097 C1095 1.419 . S
C1097 C1098 1.362 . S
C1098 H1090 0.930 . S
C1098 C1097 1.362 . S
C1098 C1101 1.409 . S
C1099 H1091 0.930 1_565 S
C1099 C1100 1.355 . S
C1099 C1101 1.415 . S
C1100 C1099 1.355 . S
C1100 C1102 1.419 . S
C1101 C1096 1.425 . S
C1101 C1098 1.409 . S
C1101 C1099 1.415 . S
C1102 H1092 0.930 . S
C1102 C1100 1.419 . S
C1102 C1103 1.362 . S
C1103 H1093 0.930 . S
C1103 C1096 1.409 . S
C1103 C1102 1.362 . S
H1104 C1110 0.930 . S
H1105 C1113 0.930 . S
H1106 C1114 0.930 . S
H1107 C1115 0.930 . S
H1108 C1118 0.930 . S
H1109 C1119 0.930 . S
C1110 H1104 0.930 . S
C1110 C1111 1.355 . S
C1110 C1112 1.415 . S
C1111 C1110 1.355 . S
C1111 C1113 1.419 . S
C1112 C1110 1.415 . S
C1112 C1117 1.425 . S
C1112 C1119 1.409 . S
C1113 H1105 0.930 . S
C1113 C1111 1.419 . S
C1113 C1114 1.362 . S
C1114 H1106 0.930 . S
C1114 C1113 1.362 . S
C1114 C1117 1.409 . S
C1115 H1107 0.930 . S
C1115 C1116 1.355 . S
C1115 C1117 1.415 . S
C1116 C1115 1.355 . S
C1116 C1118 1.419 . S
C1117 C1112 1.425 . S
C1117 C1114 1.409 . S
C1117 C1115 1.415 . S
C1118 H1108 0.930 . S
C1118 C1116 1.419 . S
C1118 C1119 1.362 . S
C1119 H1109 0.930 . S
C1119 C1112 1.409 . S
C1119 C1118 1.362 . S
H1120 C1126 0.930 . S
H1121 C1129 0.930 . S
H1122 C1130 0.930 . S
H1123 C1131 0.930 1_545 S
H1124 C1134 0.930 . S
H1125 C1135 0.930 . S
C1126 H1120 0.930 . S
C1126 C1127 1.355 . S
C1126 C1128 1.415 . S
C1127 C1126 1.355 . S
C1127 C1129 1.419 . S
C1128 C1126 1.415 . S
C1128 C1133 1.425 . S
C1128 C1135 1.409 . S
C1129 H1121 0.930 . S
C1129 C1127 1.419 . S
C1129 C1130 1.362 . S
C1130 H1122 0.930 . S
C1130 C1129 1.362 . S
C1130 C1133 1.409 . S
C1131 H1123 0.930 1_565 S
C1131 C1132 1.355 . S
C1131 C1133 1.415 . S
C1132 C1131 1.355 . S
C1132 C1134 1.419 . S
C1133 C1128 1.425 . S
C1133 C1130 1.409 . S
C1133 C1131 1.415 . S
C1134 H1124 0.930 . S
C1134 C1132 1.419 . S
C1134 C1135 1.362 . S
C1135 H1125 0.930 . S
C1135 C1128 1.409 . S
C1135 C1134 1.362 . S
H1136 C1142 0.930 . S
H1137 C1145 0.930 1_556 S
H1138 C1146 0.930 . S
H1139 C1147 0.930 . S
H1140 C1150 0.930 . S
H1141 C1151 0.930 . S
C1142 H1136 0.930 . S
C1142 C1143 1.355 . S
C1142 C1144 1.415 . S
C1143 C1142 1.355 . S
C1143 C1145 1.419 . S
C1144 C1142 1.415 . S
C1144 C1149 1.425 . S
C1144 C1151 1.409 . S
C1145 H1137 0.930 1_554 S
C1145 C1143 1.419 . S
C1145 C1146 1.362 . S
C1146 H1138 0.930 . S
C1146 C1145 1.362 . S
C1146 C1149 1.409 . S
C1147 H1139 0.930 . S
C1147 C1148 1.355 . S
C1147 C1149 1.415 . S
C1148 C1147 1.355 . S
C1148 C1150 1.419 . S
C1149 C1144 1.425 . S
C1149 C1146 1.409 . S
C1149 C1147 1.415 . S
C1150 H1140 0.930 . S
C1150 C1148 1.419 . S
C1150 C1151 1.362 . S
C1151 H1141 0.930 . S
C1151 C1144 1.409 . S
C1151 C1150 1.362 . S
H1152 C1158 0.930 . S
H1153 C1161 0.930 . S
H1154 C1162 0.930 . S
H1155 C1163 0.954 . S
H1156 C1166 0.930 . S
H1157 C1167 0.930 . S
C1158 H1152 0.930 . S
C1158 C1159 1.355 . S
C1158 C1160 1.415 . S
C1159 C1158 1.355 . S
C1159 C1161 1.419 . S
C1160 C1158 1.415 . S
C1160 C1165 1.425 . S
C1160 C1167 1.409 . S
C1161 H1153 0.930 . S
C1161 C1159 1.419 . S
C1161 C1162 1.362 . S
C1162 H1154 0.930 . S
C1162 C1161 1.362 . S
C1162 C1165 1.409 . S
C1163 H1155 0.954 . S
C1163 C1164 1.355 . S
C1163 C1165 1.415 . S
C1164 C1163 1.355 . S
C1164 C1166 1.419 . S
C1165 C1160 1.425 . S
C1165 C1162 1.409 . S
C1165 C1163 1.415 . S
C1166 H1156 0.930 . S
C1166 C1164 1.419 . S
C1166 C1167 1.362 . S
C1167 H1157 0.930 . S
C1167 C1160 1.409 . S
C1167 C1166 1.362 . S
H1168 C1174 0.930 . S
H1169 C1177 0.930 . S
H1170 C1178 0.930 . S
H1171 C1179 0.930 . S
H1172 C1182 0.930 . S
H1173 C1183 0.930 . S
C1174 H1168 0.930 . S
C1174 C1175 1.355 . S
C1174 C1176 1.415 . S
C1175 C1174 1.355 . S
C1175 C1177 1.419 . S
C1176 C1174 1.415 . S
C1176 C1181 1.425 . S
C1176 C1183 1.409 . S
C1177 H1169 0.930 . S
C1177 C1175 1.419 . S
C1177 C1178 1.362 . S
C1178 H1170 0.930 . S
C1178 C1177 1.362 . S
C1178 C1181 1.409 . S
C1179 H1171 0.930 . S
C1179 C1180 1.355 . S
C1179 C1181 1.415 . S
C1180 C1179 1.355 . S
C1180 C1182 1.419 . S
C1181 C1176 1.425 . S
C1181 C1178 1.409 . S
C1181 C1179 1.415 . S
C1182 H1172 0.930 . S
C1182 C1180 1.419 . S
C1182 C1183 1.362 . S
C1183 H1173 0.930 . S
C1183 C1176 1.409 . S
C1183 C1182 1.362 . S
H1184 C1190 0.930 . S
H1185 C1193 0.930 1_545 S
H1186 C1194 0.930 . S
H1187 C1195 0.930 . S
H1188 C1198 0.930 . S
H1189 C1199 0.930 . S
C1190 H1184 0.930 . S
C1190 C1191 1.355 . S
C1190 C1192 1.415 . S
C1191 C1190 1.355 . S
C1191 C1193 1.419 . S
C1192 C1190 1.415 . S
C1192 C1197 1.425 . S
C1192 C1199 1.409 . S
C1193 H1185 0.930 1_565 S
C1193 C1191 1.419 . S
C1193 C1194 1.362 . S
C1194 H1186 0.930 . S
C1194 C1193 1.362 . S
C1194 C1197 1.409 . S
C1195 H1187 0.930 . S
C1195 C1196 1.355 . S
C1195 C1197 1.415 . S
C1196 C1195 1.355 . S
C1196 C1198 1.419 . S
C1197 C1192 1.425 . S
C1197 C1194 1.409 . S
C1197 C1195 1.415 . S
C1198 H1188 0.930 . S
C1198 C1196 1.419 . S
C1198 C1199 1.362 . S
C1199 H1189 0.930 . S
C1199 C1192 1.409 . S
C1199 C1198 1.362 . S
H1200 C1206 0.930 . S
H1201 C1209 0.930 . S
H1202 C1210 0.930 . S
H1203 C1211 0.930 . S
H1204 C1214 0.930 . S
H1205 C1215 0.930 . S
C1206 H1200 0.930 . S
C1206 C1207 1.355 . S
C1206 C1208 1.415 . S
C1207 C1206 1.355 . S
C1207 C1209 1.419 . S
C1208 C1206 1.415 . S
C1208 C1213 1.425 . S
C1208 C1215 1.409 . S
C1209 H1201 0.930 . S
C1209 C1207 1.419 . S
C1209 C1210 1.362 . S
C1210 H1202 0.930 . S
C1210 C1209 1.362 . S
C1210 C1213 1.409 . S
C1211 H1203 0.930 . S
C1211 C1212 1.355 . S
C1211 C1213 1.415 . S
C1212 C1211 1.355 . S
C1212 C1214 1.419 . S
C1213 C1208 1.425 . S
C1213 C1210 1.409 . S
C1213 C1211 1.415 . S
C1214 H1204 0.930 . S
C1214 C1212 1.419 . S
C1214 C1215 1.362 . S
C1215 H1205 0.930 . S
C1215 C1208 1.409 . S
C1215 C1214 1.362 . S
H1216 C1222 0.930 . S
H1217 C1225 0.930 . S
H1218 C1226 0.930 . S
H1219 C1227 0.930 . S
H1220 C1230 0.930 . S
H1221 C1231 0.930 . S
C1222 H1216 0.930 . S
C1222 C1223 1.355 . S
C1222 C1224 1.415 . S
C1223 C1222 1.355 . S
C1223 C1225 1.419 . S
C1224 C1222 1.415 . S
C1224 C1229 1.425 . S
C1224 C1231 1.409 . S
C1225 H1217 0.930 . S
C1225 C1223 1.419 . S
C1225 C1226 1.362 . S
C1226 H1218 0.930 . S
C1226 C1225 1.362 . S
C1226 C1229 1.409 . S
C1227 H1219 0.930 . S
C1227 C1228 1.355 . S
C1227 C1229 1.415 . S
C1228 C1227 1.355 . S
C1228 C1230 1.419 . S
C1229 C1224 1.425 . S
C1229 C1226 1.409 . S
C1229 C1227 1.415 . S
C1230 H1220 0.930 . S
C1230 C1228 1.419 . S
C1230 C1231 1.362 . S
C1231 H1221 0.930 . S
C1231 C1224 1.409 . S
C1231 C1230 1.362 . S
H1232 C1238 0.930 . S
H1233 C1241 0.930 . S
H1234 C1242 0.930 . S
H1235 C1243 0.930 . S
H1236 C1246 0.930 . S
H1237 C1247 0.930 . S
C1238 H1232 0.930 . S
C1238 C1239 1.355 . S
C1238 C1240 1.415 . S
C1239 C1238 1.355 . S
C1239 C1241 1.419 1_554 S
C1240 C1238 1.415 . S
C1240 C1245 1.425 . S
C1240 C1247 1.409 . S
C1241 H1233 0.930 . S
C1241 C1239 1.419 1_556 S
C1241 C1242 1.362 1_556 S
C1242 H1234 0.930 . S
C1242 C1241 1.362 1_554 S
C1242 C1245 1.409 . S
C1243 H1235 0.930 . S
C1243 C1244 1.355 . S
C1243 C1245 1.415 . S
C1244 C1243 1.355 . S
C1244 C1246 1.419 . S
C1245 C1240 1.425 . S
C1245 C1242 1.409 . S
C1245 C1243 1.415 . S
C1246 H1236 0.930 . S
C1246 C1244 1.419 . S
C1246 C1247 1.362 . S
C1247 H1237 0.930 . S
C1247 C1240 1.409 . S
C1247 C1246 1.362 . S
H1248 C1254 0.930 . S
H1249 C1257 0.930 . S
H1250 C1258 0.930 . S
H1251 C1259 0.930 . S
H1252 C1262 0.930 . S
H1253 C1263 0.930 . S
C1254 H1248 0.930 . S
C1254 C1255 1.355 . S
C1254 C1256 1.415 . S
C1255 C1254 1.355 . S
C1255 C1257 1.419 . S
C1256 C1254 1.415 . S
C1256 C1261 1.425 . S
C1256 C1263 1.409 . S
C1257 H1249 0.930 . S
C1257 C1255 1.419 . S
C1257 C1258 1.362 . S
C1258 H1250 0.930 . S
C1258 C1257 1.362 . S
C1258 C1261 1.409 . S
C1259 H1251 0.930 . S
C1259 C1260 1.355 . S
C1259 C1261 1.415 . S
C1260 C1259 1.355 . S
C1260 C1262 1.419 . S
C1261 C1256 1.425 . S
C1261 C1258 1.409 . S
C1261 C1259 1.415 . S
C1262 H1252 0.930 . S
C1262 C1260 1.419 . S
C1262 C1263 1.362 . S
C1263 H1253 0.930 . S
C1263 C1256 1.409 . S
C1263 C1262 1.362 . S
H1264 C1270 0.930 . S
H1265 C1273 0.930 . S
H1266 C1274 0.930 . S
H1267 C1275 0.930 . S
H1268 C1278 0.930 1_554 S
H1269 C1279 0.930 . S
C1270 H1264 0.930 . S
C1270 C1271 1.355 . S
C1270 C1272 1.415 . S
C1271 C1270 1.355 . S
C1271 C1273 1.419 . S
C1272 C1270 1.415 . S
C1272 C1277 1.425 . S
C1272 C1279 1.409 . S
C1273 H1265 0.930 . S
C1273 C1271 1.419 . S
C1273 C1274 1.362 . S
C1274 H1266 0.930 . S
C1274 C1273 1.362 . S
C1274 C1277 1.409 . S
C1275 H1267 0.930 . S
C1275 C1276 1.355 . S
C1275 C1277 1.415 . S
C1276 C1275 1.355 . S
C1276 C1278 1.419 . S
C1277 C1272 1.425 . S
C1277 C1274 1.409 . S
C1277 C1275 1.415 . S
C1278 H1268 0.930 1_556 S
C1278 C1276 1.419 . S
C1278 C1279 1.362 . S
C1279 H1269 0.930 . S
C1279 C1272 1.409 . S
C1279 C1278 1.362 . S
H1280 C1286 0.930 . S
H1281 C1289 0.930 . S
H1282 C1290 0.930 . S
H1283 C1291 0.930 . S
H1284 C1294 0.930 . S
H1285 C1295 0.930 . S
C1286 H1280 0.930 . S
C1286 C1287 1.355 . S
C1286 C1288 1.415 . S
C1287 C1286 1.355 . S
C1287 C1289 1.419 . S
C1288 C1286 1.415 . S
C1288 C1293 1.425 . S
C1288 C1295 1.409 . S
C1289 H1281 0.930 . S
C1289 C1287 1.419 . S
C1289 C1290 1.362 . S
C1290 H1282 0.930 . S
C1290 C1289 1.362 . S
C1290 C1293 1.409 . S
C1291 H1283 0.930 . S
C1291 C1292 1.355 . S
C1291 C1293 1.415 . S
C1292 C1291 1.355 . S
C1292 C1294 1.419 . S
C1293 C1288 1.425 . S
C1293 C1290 1.409 . S
C1293 C1291 1.415 . S
C1294 H1284 0.930 . S
C1294 C1292 1.419 . S
C1294 C1295 1.362 . S
C1295 H1285 0.930 . S
C1295 C1288 1.409 . S
C1295 C1294 1.362 . S
H1296 C1302 0.930 . S
H1297 C1305 0.930 . S
H1298 C1306 0.930 . S
H1299 C1307 0.930 . S
H1300 C1310 0.930 . S
H1301 C1311 0.930 . S
C1302 H1296 0.930 . S
C1302 C1303 1.355 . S
C1302 C1304 1.415 . S
C1303 C1302 1.355 . S
C1303 C1305 1.419 . S
C1304 C1302 1.415 . S
C1304 C1309 1.425 . S
C1304 C1311 1.409 . S
C1305 H1297 0.930 . S
C1305 C1303 1.419 . S
C1305 C1306 1.362 . S
C1306 H1298 0.930 . S
C1306 C1305 1.362 . S
C1306 C1309 1.409 . S
C1307 H1299 0.930 . S
C1307 C1308 1.355 . S
C1307 C1309 1.415 . S
C1308 C1307 1.355 . S
C1308 C1310 1.419 . S
C1309 C1304 1.425 . S
C1309 C1306 1.409 . S
C1309 C1307 1.415 . S
C1310 H1300 0.930 . S
C1310 C1308 1.419 . S
C1310 C1311 1.362 . S
C1311 H1301 0.930 . S
C1311 C1304 1.409 . S
C1311 C1310 1.362 . S
H1312 C1318 0.930 . S
H1313 C1321 0.930 . S
H1314 C1322 0.930 . S
H1315 C1323 0.930 . S
H1316 C1326 0.930 . S
H1317 C1327 0.930 . S
C1318 H1312 0.930 . S
C1318 C1319 1.355 . S
C1318 C1320 1.415 . S
C1319 C1318 1.355 . S
C1319 C1321 1.419 . S
C1320 C1318 1.415 . S
C1320 C1325 1.425 . S
C1320 C1327 1.409 . S
C1321 H1313 0.930 . S
C1321 C1319 1.419 . S
C1321 C1322 1.362 . S
C1322 H1314 0.930 . S
C1322 C1321 1.362 . S
C1322 C1325 1.409 . S
C1323 H1315 0.930 . S
C1323 C1324 1.355 . S
C1323 C1325 1.415 . S
C1324 C1323 1.355 . S
C1324 C1326 1.419 . S
C1325 C1320 1.425 . S
C1325 C1322 1.409 . S
C1325 C1323 1.415 . S
C1326 H1316 0.930 . S
C1326 C1324 1.419 . S
C1326 C1327 1.362 . S
C1327 H1317 0.930 . S
C1327 C1320 1.409 . S
C1327 C1326 1.362 . S
H1328 C1334 0.930 . S
H1329 C1337 0.930 . S
H1330 C1338 0.930 . S
H1331 C1339 0.930 1_554 S
H1332 C1342 0.930 . S
H1333 C1343 0.930 . S
C1334 H1328 0.930 . S
C1334 C1335 1.355 . S
C1334 C1336 1.415 . S
C1335 C1334 1.355 . S
C1335 C1337 1.419 . S
C1336 C1334 1.415 . S
C1336 C1341 1.425 . S
C1336 C1343 1.409 . S
C1337 H1329 0.930 . S
C1337 C1335 1.419 . S
C1337 C1338 1.362 . S
C1338 H1330 0.930 . S
C1338 C1337 1.362 . S
C1338 C1341 1.409 . S
C1339 H1331 0.930 1_556 S
C1339 C1340 1.355 . S
C1339 C1341 1.415 . S
C1340 C1339 1.355 . S
C1340 C1342 1.419 . S
C1341 C1336 1.425 . S
C1341 C1338 1.409 . S
C1341 C1339 1.415 . S
C1342 H1332 0.930 . S
C1342 C1340 1.419 . S
C1342 C1343 1.362 . S
C1343 H1333 0.930 . S
C1343 C1336 1.409 . S
C1343 C1342 1.362 . S
H1344 C1350 0.930 . S
H1345 C1353 0.930 . S
H1346 C1354 0.930 . S
H1347 C1355 0.930 . S
H1348 C1358 0.930 . S
H1349 C1359 0.930 . S
C1350 H1344 0.930 . S
C1350 C1351 1.355 . S
C1350 C1352 1.415 . S
C1351 C1350 1.355 . S
C1351 C1353 1.419 . S
C1352 C1350 1.415 . S
C1352 C1357 1.425 . S
C1352 C1359 1.409 . S
C1353 H1345 0.930 . S
C1353 C1351 1.419 . S
C1353 C1354 1.362 . S
C1354 H1346 0.930 . S
C1354 C1353 1.362 . S
C1354 C1357 1.409 . S
C1355 H1347 0.930 . S
C1355 C1356 1.355 . S
C1355 C1357 1.415 . S
C1356 C1355 1.355 . S
C1356 C1358 1.419 . S
C1357 C1352 1.425 . S
C1357 C1354 1.409 . S
C1357 C1355 1.415 . S
C1358 H1348 0.930 . S
C1358 C1356 1.419 . S
C1358 C1359 1.362 . S
C1359 H1349 0.930 . S
C1359 C1352 1.409 . S
C1359 C1358 1.362 . S
H1360 C1366 0.930 . S
H1361 C1369 0.930 . S
H1362 C1370 0.930 . S
H1363 C1371 0.930 . S
H1364 C1374 0.930 . S
H1365 C1375 0.930 . S
C1366 H1360 0.930 . S
C1366 C1367 1.355 . S
C1366 C1368 1.415 . S
C1367 C1366 1.355 . S
C1367 C1369 1.419 . S
C1368 C1366 1.415 . S
C1368 C1373 1.425 . S
C1368 C1375 1.409 . S
C1369 H1361 0.930 . S
C1369 C1367 1.419 . S
C1369 C1370 1.362 . S
C1370 H1362 0.930 . S
C1370 C1369 1.362 . S
C1370 C1373 1.409 . S
C1371 H1363 0.930 . S
C1371 C1372 1.355 . S
C1371 C1373 1.415 . S
C1372 C1371 1.355 . S
C1372 C1374 1.419 . S
C1373 C1368 1.425 . S
C1373 C1370 1.409 . S
C1373 C1371 1.415 . S
C1374 H1364 0.930 . S
C1374 C1372 1.419 . S
C1374 C1375 1.362 . S
C1375 H1365 0.930 . S
C1375 C1368 1.409 . S
C1375 C1374 1.362 . S
H1376 C1382 0.930 . S
H1377 C1385 0.930 . S
H1378 C1386 0.930 . S
H1379 C1387 0.930 . S
H1380 C1390 0.930 . S
H1381 C1391 0.930 . S
C1382 H1376 0.930 . S
C1382 C1383 1.355 . S
C1382 C1384 1.415 . S
C1383 C1382 1.355 . S
C1383 C1385 1.419 . S
C1384 C1382 1.415 . S
C1384 C1389 1.425 . S
C1384 C1391 1.409 . S
C1385 H1377 0.930 . S
C1385 C1383 1.419 . S
C1385 C1386 1.362 . S
C1386 H1378 0.930 . S
C1386 C1385 1.362 . S
C1386 C1389 1.409 . S
C1387 H1379 0.930 . S
C1387 C1388 1.355 . S
C1387 C1389 1.415 . S
C1388 C1387 1.355 . S
C1388 C1390 1.419 . S
C1389 C1384 1.425 . S
C1389 C1386 1.409 . S
C1389 C1387 1.415 . S
C1390 H1380 0.930 . S
C1390 C1388 1.419 . S
C1390 C1391 1.362 . S
C1391 H1381 0.930 . S
C1391 C1384 1.409 . S
C1391 C1390 1.362 . S
H1392 C1398 0.930 . S
H1393 C1401 0.930 . S
H1394 C1402 0.930 . S
H1395 C1403 0.930 . S
H1396 C1406 0.930 . S
H1397 C1407 0.930 . S
C1398 H1392 0.930 . S
C1398 C1399 1.355 . S
C1398 C1400 1.415 . S
C1399 C1398 1.355 . S
C1399 C1401 1.419 . S
C1400 C1398 1.415 . S
C1400 C1405 1.425 . S
C1400 C1407 1.409 . S
C1401 H1393 0.930 . S
C1401 C1399 1.419 . S
C1401 C1402 1.362 . S
C1402 H1394 0.930 . S
C1402 C1401 1.362 . S
C1402 C1405 1.409 . S
C1403 H1395 0.930 . S
C1403 C1404 1.355 . S
C1403 C1405 1.415 . S
C1404 C1403 1.355 . S
C1404 C1406 1.419 . S
C1405 C1400 1.425 . S
C1405 C1402 1.409 . S
C1405 C1403 1.415 . S
C1406 H1396 0.930 . S
C1406 C1404 1.419 . S
C1406 C1407 1.362 . S
C1407 H1397 0.930 . S
C1407 C1400 1.409 . S
C1407 C1406 1.362 . S
H1408 C1414 0.930 . S
H1409 C1417 0.930 . S
H1410 C1418 0.930 . S
H1411 C1419 0.930 . S
H1412 C1422 0.930 . S
H1413 C1423 0.930 . S
C1414 H1408 0.930 . S
C1414 C1415 1.355 . S
C1414 C1416 1.415 . S
C1415 C1414 1.355 . S
C1415 C1417 1.419 . S
C1416 C1414 1.415 . S
C1416 C1421 1.425 . S
C1416 C1423 1.409 . S
C1417 H1409 0.930 . S
C1417 C1415 1.419 . S
C1417 C1418 1.362 . S
C1418 H1410 0.930 . S
C1418 C1417 1.362 . S
C1418 C1421 1.409 . S
C1419 H1411 0.930 . S
C1419 C1420 1.355 . S
C1419 C1421 1.415 . S
C1420 C1419 1.355 . S
C1420 C1422 1.419 . S
C1421 C1416 1.425 . S
C1421 C1418 1.409 . S
C1421 C1419 1.415 . S
C1422 H1412 0.930 . S
C1422 C1420 1.419 . S
C1422 C1423 1.362 . S
C1423 H1413 0.930 . S
C1423 C1416 1.409 . S
C1423 C1422 1.362 . S
H1424 C1430 0.930 . S
H1425 C1433 0.930 . S
H1426 C1434 0.930 . S
H1427 C1435 0.930 . S
H1428 C1438 0.930 1_556 S
H1429 C1439 0.930 . S
C1430 H1424 0.930 . S
C1430 C1431 1.355 . S
C1430 C1432 1.415 . S
C1431 C1430 1.355 . S
C1431 C1433 1.419 . S
C1432 C1430 1.415 . S
C1432 C1437 1.425 . S
C1432 C1439 1.409 . S
C1433 H1425 0.930 . S
C1433 C1431 1.419 . S
C1433 C1434 1.362 . S
C1434 H1426 0.930 . S
C1434 C1433 1.362 . S
C1434 C1437 1.409 . S
C1435 H1427 0.930 . S
C1435 C1436 1.355 . S
C1435 C1437 1.415 . S
C1436 C1435 1.355 . S
C1436 C1438 1.419 . S
C1437 C1432 1.425 . S
C1437 C1434 1.409 . S
C1437 C1435 1.415 . S
C1438 H1428 0.930 1_554 S
C1438 C1436 1.419 . S
C1438 C1439 1.362 . S
C1439 H1429 0.930 . S
C1439 C1432 1.409 . S
C1439 C1438 1.362 . S
H1440 C1446 0.930 . S
H1441 C1449 0.930 . S
H1442 C1450 0.930 . S
H1443 C1451 0.930 . S
H1444 C1454 0.930 . S
H1445 C1455 0.930 . S
C1446 H1440 0.930 . S
C1446 C1447 1.355 . S
C1446 C1448 1.415 . S
C1447 C1446 1.355 . S
C1447 C1449 1.419 . S
C1448 C1446 1.415 . S
C1448 C1453 1.425 . S
C1448 C1455 1.409 . S
C1449 H1441 0.930 . S
C1449 C1447 1.419 . S
C1449 C1450 1.362 . S
C1450 H1442 0.930 . S
C1450 C1449 1.362 . S
C1450 C1453 1.409 . S
C1451 H1443 0.930 . S
C1451 C1452 1.355 . S
C1451 C1453 1.415 . S
C1452 C1451 1.355 . S
C1452 C1454 1.419 . S
C1453 C1448 1.425 . S
C1453 C1450 1.409 . S
C1453 C1451 1.415 . S
C1454 H1444 0.930 . S
C1454 C1452 1.419 . S
C1454 C1455 1.362 . S
C1455 H1445 0.930 . S
C1455 C1448 1.409 . S
C1455 C1454 1.362 . S
H1456 C1462 0.930 . S
H1457 C1465 0.930 . S
H1458 C1466 0.930 . S
H1459 C1467 0.930 . S
H1460 C1470 0.930 1_556 S
H1461 C1471 0.930 . S
C1462 H1456 0.930 . S
C1462 C1463 1.355 . S
C1462 C1464 1.415 . S
C1463 C1462 1.355 . S
C1463 C1465 1.419 . S
C1464 C1462 1.415 . S
C1464 C1469 1.425 . S
C1464 C1471 1.409 . S
C1465 H1457 0.930 . S
C1465 C1463 1.419 . S
C1465 C1466 1.362 . S
C1466 H1458 0.930 . S
C1466 C1465 1.362 . S
C1466 C1469 1.409 . S
C1467 H1459 0.930 . S
C1467 C1468 1.355 . S
C1467 C1469 1.415 . S
C1468 C1467 1.355 . S
C1468 C1470 1.419 . S
C1469 C1464 1.425 . S
C1469 C1466 1.409 . S
C1469 C1467 1.415 . S
C1470 H1460 0.930 1_554 S
C1470 C1468 1.419 . S
C1470 C1471 1.362 . S
C1471 H1461 0.930 . S
C1471 C1464 1.409 . S
C1471 C1470 1.362 . S
H1472 C1478 0.930 . S
H1473 C1481 0.930 . S
H1474 C1482 0.930 . S
H1475 C1483 0.930 . S
H1476 C1486 0.930 . S
H1477 C1487 0.930 . S
C1478 H1472 0.930 . S
C1478 C1479 1.355 . S
C1478 C1480 1.415 . S
C1479 C1478 1.355 . S
C1479 C1481 1.419 . S
C1480 C1478 1.415 . S
C1480 C1485 1.425 . S
C1480 C1487 1.409 . S
C1481 H1473 0.930 . S
C1481 C1479 1.419 . S
C1481 C1482 1.362 . S
C1482 H1474 0.930 . S
C1482 C1481 1.362 . S
C1482 C1485 1.409 . S
C1483 H1475 0.930 . S
C1483 C1484 1.355 . S
C1483 C1485 1.415 . S
C1484 C1483 1.355 . S
C1484 C1486 1.419 . S
C1485 C1480 1.425 . S
C1485 C1482 1.409 . S
C1485 C1483 1.415 . S
C1486 H1476 0.930 . S
C1486 C1484 1.419 . S
C1486 C1487 1.362 . S
C1487 H1477 0.930 . S
C1487 C1480 1.409 . S
C1487 C1486 1.362 . S
H1488 C1494 0.930 . S
H1489 C1497 0.930 . S
H1490 C1498 0.930 . S
H1491 C1499 0.930 . S
H1492 C1502 0.930 . S
H1493 C1503 0.930 . S
C1494 H1488 0.930 . S
C1494 C1495 1.355 . S
C1494 C1496 1.415 . S
C1495 C1494 1.355 . S
C1495 C1497 1.419 . S
C1496 C1494 1.415 . S
C1496 C1501 1.425 . S
C1496 C1503 1.409 . S
C1497 H1489 0.930 . S
C1497 C1495 1.419 . S
C1497 C1498 1.362 . S
C1498 H1490 0.930 . S
C1498 C1497 1.362 . S
C1498 C1501 1.409 . S
C1499 H1491 0.930 . S
C1499 C1500 1.355 . S
C1499 C1501 1.415 . S
C1500 C1499 1.355 . S
C1500 C1502 1.419 . S
C1501 C1496 1.425 . S
C1501 C1498 1.409 . S
C1501 C1499 1.415 . S
C1502 H1492 0.930 . S
C1502 C1500 1.419 . S
C1502 C1503 1.362 . S
C1503 H1493 0.930 . S
C1503 C1496 1.409 . S
C1503 C1502 1.362 . S
H1504 C1510 0.930 . S
H1505 C1513 0.930 . S
H1506 C1514 0.930 . S
H1507 C1515 0.930 . S
H1508 C1518 0.930 . S
H1509 C1519 0.930 . S
C1510 H1504 0.930 . S
C1510 C1511 1.355 . S
C1510 C1512 1.415 . S
C1511 C1510 1.355 . S
C1511 C1513 1.419 . S
C1512 C1510 1.415 . S
C1512 C1517 1.425 . S
C1512 C1519 1.409 . S
C1513 H1505 0.930 . S
C1513 C1511 1.419 . S
C1513 C1514 1.362 . S
C1514 H1506 0.930 . S
C1514 C1513 1.362 . S
C1514 C1517 1.409 . S
C1515 H1507 0.930 . S
C1515 C1516 1.355 . S
C1515 C1517 1.415 . S
C1516 C1515 1.355 . S
C1516 C1518 1.419 . S
C1517 C1512 1.425 . S
C1517 C1514 1.409 . S
C1517 C1515 1.415 . S
C1518 H1508 0.930 . S
C1518 C1516 1.419 . S
C1518 C1519 1.362 . S
C1519 H1509 0.930 . S
C1519 C1512 1.409 . S
C1519 C1518 1.362 . S
H1520 C1526 0.930 . S
H1521 C1529 0.930 . S
H1522 C1530 0.930 . S
H1523 C1531 0.930 . S
H1524 C1534 0.930 . S
H1525 C1535 0.930 . S
C1526 H1520 0.930 . S
C1526 C1527 1.355 . S
C1526 C1528 1.415 . S
C1527 C1526 1.355 . S
C1527 C1529 1.419 . S
C1528 C1526 1.415 . S
C1528 C1533 1.425 . S
C1528 C1535 1.409 . S
C1529 H1521 0.930 . S
C1529 C1527 1.419 . S
C1529 C1530 1.362 . S
C1530 H1522 0.930 . S
C1530 C1529 1.362 . S
C1530 C1533 1.409 . S
C1531 H1523 0.930 . S
C1531 C1532 1.355 . S
C1531 C1533 1.415 . S
C1532 C1531 1.355 . S
C1532 C1534 1.419 . S
C1533 C1528 1.425 . S
C1533 C1530 1.409 . S
C1533 C1531 1.415 . S
C1534 H1524 0.930 . S
C1534 C1532 1.419 . S
C1534 C1535 1.362 . S
C1535 H1525 0.930 . S
C1535 C1528 1.409 . S
C1535 C1534 1.362 . S
H1536 C1542 0.930 . S
H1537 C1545 0.930 . S
H1538 C1546 0.930 . S
H1539 C1547 0.930 . S
H1540 C1550 0.930 . S
H1541 C1551 0.930 . S
C1542 H1536 0.930 . S
C1542 C1543 1.355 . S
C1542 C1544 1.415 . S
C1543 C1542 1.355 . S
C1543 C1545 1.419 . S
C1544 C1542 1.415 . S
C1544 C1549 1.425 . S
C1544 C1551 1.409 . S
C1545 H1537 0.930 . S
C1545 C1543 1.419 . S
C1545 C1546 1.362 . S
C1546 H1538 0.930 . S
C1546 C1545 1.362 . S
C1546 C1549 1.409 . S
C1547 H1539 0.930 . S
C1547 C1548 1.355 . S
C1547 C1549 1.415 . S
C1548 C1547 1.355 . S
C1548 C1550 1.419 . S
C1549 C1544 1.425 . S
C1549 C1546 1.409 . S
C1549 C1547 1.415 . S
C1550 H1540 0.930 . S
C1550 C1548 1.419 . S
C1550 C1551 1.362 . S
C1551 H1541 0.930 . S
C1551 C1544 1.409 . S
C1551 C1550 1.362 . S
H1552 C1558 0.930 . S
H1553 C1561 0.930 . S
H1554 C1562 0.930 . S
H1555 C1563 0.930 . S
H1556 C1566 0.930 . S
H1557 C1567 0.930 . S
C1558 H1552 0.930 . S
C1558 C1559 1.355 . S
C1558 C1560 1.415 . S
C1559 C1558 1.355 . S
C1559 C1561 1.419 1_556 S
C1560 C1558 1.415 . S
C1560 C1565 1.425 . S
C1560 C1567 1.409 . S
C1561 H1553 0.930 . S
C1561 C1559 1.419 1_554 S
C1561 C1562 1.362 1_554 S
C1562 H1554 0.930 . S
C1562 C1561 1.362 1_556 S
C1562 C1565 1.409 . S
C1563 H1555 0.930 . S
C1563 C1564 1.355 . S
C1563 C1565 1.415 . S
C1564 C1563 1.355 . S
C1564 C1566 1.419 . S
C1565 C1560 1.425 . S
C1565 C1562 1.409 . S
C1565 C1563 1.415 . S
C1566 H1556 0.930 . S
C1566 C1564 1.419 . S
C1566 C1567 1.362 . S
C1567 H1557 0.930 . S
C1567 C1560 1.409 . S
C1567 C1566 1.362 . S
H1568 C1574 0.930 . S
H1569 C1577 0.930 . S
H1570 C1578 0.930 . S
H1571 C1579 0.930 . S
H1572 C1582 0.930 . S
H1573 C1583 0.930 . S
C1574 H1568 0.930 . S
C1574 C1575 1.355 . S
C1574 C1576 1.415 . S
C1575 C1574 1.355 . S
C1575 C1577 1.419 . S
C1576 C1574 1.415 . S
C1576 C1581 1.425 . S
C1576 C1583 1.409 . S
C1577 H1569 0.930 . S
C1577 C1575 1.419 . S
C1577 C1578 1.362 . S
C1578 H1570 0.930 . S
C1578 C1577 1.362 . S
C1578 C1581 1.409 . S
C1579 H1571 0.930 . S
C1579 C1580 1.355 . S
C1579 C1581 1.415 . S
C1580 C1579 1.355 . S
C1580 C1582 1.419 . S
C1581 C1576 1.425 . S
C1581 C1578 1.409 . S
C1581 C1579 1.415 . S
C1582 H1572 0.930 . S
C1582 C1580 1.419 . S
C1582 C1583 1.362 . S
C1583 H1573 0.930 . S
C1583 C1576 1.409 . S
C1583 C1582 1.362 . S
H1584 C1590 0.930 . S
H1585 C1593 0.930 . S
H1586 C1594 0.930 . S
H1587 C1595 0.930 . S
H1588 C1598 0.930 . S
H1589 C1599 0.930 . S
C1590 H1584 0.930 . S
C1590 C1591 1.355 . S
C1590 C1592 1.415 . S
C1591 C1590 1.355 . S
C1591 C1593 1.419 1_565 S
C1592 C1590 1.415 . S
C1592 C1597 1.425 1_565 S
C1592 C1599 1.409 . S
C1593 H1585 0.930 . S
C1593 C1591 1.419 1_545 S
C1593 C1594 1.362 . S
C1594 H1586 0.930 . S
C1594 C1593 1.362 . S
C1594 C1597 1.409 . S
C1595 H1587 0.930 . S
C1595 C1596 1.355 . S
C1595 C1597 1.415 . S
C1596 C1595 1.355 . S
C1596 C1598 1.419 1_545 S
C1597 C1592 1.425 1_545 S
C1597 C1594 1.409 . S
C1597 C1595 1.415 . S
C1598 H1588 0.930 . S
C1598 C1596 1.419 1_565 S
C1598 C1599 1.362 . S
C1599 H1589 0.930 . S
C1599 C1592 1.409 . S
C1599 C1598 1.362 . S
H1600 C1606 0.930 . S
H1601 C1609 0.930 . S
H1602 C1610 0.930 . S
H1603 C1611 0.930 . S
H1604 C1614 0.930 . S
H1605 C1615 0.930 . S
C1606 H1600 0.930 . S
C1606 C1607 1.355 . S
C1606 C1608 1.415 . S
C1607 C1606 1.355 . S
C1607 C1609 1.419 . S
C1608 C1606 1.415 . S
C1608 C1613 1.425 . S
C1608 C1615 1.409 . S
C1609 H1601 0.930 . S
C1609 C1607 1.419 . S
C1609 C1610 1.362 . S
C1610 H1602 0.930 . S
C1610 C1609 1.362 . S
C1610 C1613 1.409 . S
C1611 H1603 0.930 . S
C1611 C1612 1.355 . S
C1611 C1613 1.415 . S
C1612 C1611 1.355 . S
C1612 C1614 1.419 . S
C1613 C1608 1.425 . S
C1613 C1610 1.409 . S
C1613 C1611 1.415 . S
C1614 H1604 0.930 . S
C1614 C1612 1.419 . S
C1614 C1615 1.362 . S
C1615 H1605 0.930 . S
C1615 C1608 1.409 . S
C1615 C1614 1.362 . S
H1616 C1622 0.930 . S
H1617 C1625 0.930 . S
H1618 C1626 0.930 . S
H1619 C1627 0.930 . S
H1620 C1630 0.930 . S
H1621 C1631 0.930 . S
C1622 H1616 0.930 . S
C1622 C1623 1.355 . S
C1622 C1624 1.415 . S
C1623 C1622 1.355 . S
C1623 C1625 1.419 1_545 S
C1624 C1622 1.415 . S
C1624 C1629 1.425 1_546 S
C1624 C1631 1.409 1_556 S
C1625 H1617 0.930 . S
C1625 C1623 1.419 1_565 S
C1625 C1626 1.362 . S
C1626 H1618 0.930 . S
C1626 C1625 1.362 . S
C1626 C1629 1.409 1_556 S
C1627 H1619 0.930 . S
C1627 C1628 1.355 . S
C1627 C1629 1.415 . S
C1628 C1627 1.355 . S
C1628 C1630 1.419 1_565 S
C1629 C1624 1.425 1_564 S
C1629 C1626 1.409 1_554 S
C1629 C1627 1.415 . S
C1630 H1620 0.930 . S
C1630 C1628 1.419 1_545 S
C1630 C1631 1.362 . S
C1631 H1621 0.930 . S
C1631 C1624 1.409 1_554 S
C1631 C1630 1.362 . S
H1632 C1638 0.930 . S
H1633 C1641 0.930 . S
H1634 C1642 0.930 . S
H1635 C1643 0.930 . S
H1636 C1646 0.930 . S
H1637 C1647 0.930 . S
C1638 H1632 0.930 . S
C1638 C1639 1.355 . S
C1638 C1640 1.415 . S
C1639 C1638 1.355 . S
C1639 C1641 1.419 . S
C1640 C1638 1.415 . S
C1640 C1645 1.425 . S
C1640 C1647 1.409 . S
C1641 H1633 0.930 . S
C1641 C1639 1.419 . S
C1641 C1642 1.362 . S
C1642 H1634 0.930 . S
C1642 C1641 1.362 . S
C1642 C1645 1.409 . S
C1643 H1635 0.930 . S
C1643 C1644 1.355 . S
C1643 C1645 1.415 . S
C1644 C1643 1.355 . S
C1644 C1646 1.419 . S
C1645 C1640 1.425 . S
C1645 C1642 1.409 . S
C1645 C1643 1.415 . S
C1646 H1636 0.930 . S
C1646 C1644 1.419 . S
C1646 C1647 1.362 . S
C1647 H1637 0.930 . S
C1647 C1640 1.409 . S
C1647 C1646 1.362 . S
H1648 C1654 0.930 . S
H1649 C1657 0.928 1_545 S
H1650 C1658 0.930 . S
H1651 C1659 0.930 . S
H1652 C1662 0.928 1_565 S
H1653 C1663 0.930 . S
C1654 H1648 0.930 . S
C1654 C1655 1.355 . S
C1654 C1656 1.415 . S
C1655 C1654 1.355 . S
C1655 C1657 1.428 . S
C1656 C1654 1.415 . S
C1656 C1661 1.425 1_565 S
C1656 C1663 1.409 . S
C1657 H1649 0.928 1_565 S
C1657 C1655 1.428 . S
C1657 C1658 1.356 1_565 S
C1658 H1650 0.930 . S
C1658 C1657 1.356 1_545 S
C1658 C1661 1.409 . S
C1659 H1651 0.930 . S
C1659 C1660 1.355 . S
C1659 C1661 1.415 . S
C1660 C1659 1.355 . S
C1660 C1662 1.428 . S
C1661 C1656 1.425 1_545 S
C1661 C1658 1.409 . S
C1661 C1659 1.415 . S
C1662 H1652 0.928 1_545 S
C1662 C1660 1.428 . S
C1662 C1663 1.356 1_545 S
C1663 H1653 0.930 . S
C1663 C1656 1.409 . S
C1663 C1662 1.356 1_565 S
H1664 C1670 0.930 . S
H1665 C1673 0.930 . S
H1666 C1674 0.930 . S
H1667 C1675 0.930 . S
H1668 C1678 0.930 . S
H1669 C1679 0.930 . S
C1670 H1664 0.930 . S
C1670 C1671 1.355 . S
C1670 C1672 1.415 . S
C1671 C1670 1.355 . S
C1671 C1673 1.419 . S
C1672 C1670 1.415 . S
C1672 C1677 1.425 . S
C1672 C1679 1.409 . S
C1673 H1665 0.930 . S
C1673 C1671 1.419 . S
C1673 C1674 1.362 . S
C1674 H1666 0.930 . S
C1674 C1673 1.362 . S
C1674 C1677 1.409 . S
C1675 H1667 0.930 . S
C1675 C1676 1.355 . S
C1675 C1677 1.415 . S
C1676 C1675 1.355 . S
C1676 C1678 1.419 . S
C1677 C1672 1.425 . S
C1677 C1674 1.409 . S
C1677 C1675 1.415 . S
C1678 H1668 0.930 . S
C1678 C1676 1.419 . S
C1678 C1679 1.362 . S
C1679 H1669 0.930 . S
C1679 C1672 1.409 . S
C1679 C1678 1.362 . S
H1680 C1686 0.930 . S
H1681 C1689 0.930 . S
H1682 C1690 0.930 . S
H1683 C1691 0.930 . S
H1684 C1694 0.930 . S
H1685 C1695 0.930 . S
C1686 H1680 0.930 . S
C1686 C1687 1.355 . S
C1686 C1688 1.415 . S
C1687 C1686 1.355 . S
C1687 C1689 1.419 1_545 S
C1688 C1686 1.415 . S
C1688 C1693 1.425 1_546 S
C1688 C1695 1.409 1_556 S
C1689 H1681 0.930 . S
C1689 C1687 1.419 1_565 S
C1689 C1690 1.362 . S
C1690 H1682 0.930 . S
C1690 C1689 1.362 . S
C1690 C1693 1.409 1_556 S
C1691 H1683 0.930 . S
C1691 C1692 1.355 . S
C1691 C1693 1.415 . S
C1692 C1691 1.355 . S
C1692 C1694 1.419 1_565 S
C1693 C1688 1.425 1_564 S
C1693 C1690 1.409 1_554 S
C1693 C1691 1.415 . S
C1694 H1684 0.930 . S
C1694 C1692 1.419 1_545 S
C1694 C1695 1.362 . S
C1695 H1685 0.930 . S
C1695 C1688 1.409 1_554 S
C1695 C1694 1.362 . S
H1696 C1702 0.930 . S
H1697 C1705 0.930 . S
H1698 C1706 0.930 . S
H1699 C1707 0.930 . S
H1700 C1710 0.930 . S
H1701 C1711 0.930 . S
C1702 H1696 0.930 . S
C1702 C1703 1.355 . S
C1702 C1704 1.415 . S
C1703 C1702 1.355 . S
C1703 C1705 1.419 . S
C1704 C1702 1.415 . S
C1704 C1709 1.425 . S
C1704 C1711 1.409 . S
C1705 H1697 0.930 . S
C1705 C1703 1.419 . S
C1705 C1706 1.362 . S
C1706 H1698 0.930 . S
C1706 C1705 1.362 . S
C1706 C1709 1.409 . S
C1707 H1699 0.930 . S
C1707 C1708 1.355 . S
C1707 C1709 1.415 . S
C1708 C1707 1.355 . S
C1708 C1710 1.419 . S
C1709 C1704 1.425 . S
C1709 C1706 1.409 . S
C1709 C1707 1.415 . S
C1710 H1700 0.930 . S
C1710 C1708 1.419 . S
C1710 C1711 1.362 . S
C1711 H1701 0.930 . S
C1711 C1704 1.409 . S
C1711 C1710 1.362 . S
H1712 C1718 0.930 . S
H1713 C1721 0.930 . S
H1714 C1722 0.930 . S
H1715 C1723 0.930 . S
H1716 C1726 0.930 . S
H1717 C1727 0.930 . S
C1718 H1712 0.930 . S
C1718 C1719 1.355 . S
C1718 C1720 1.415 . S
C1719 C1718 1.355 . S
C1719 C1721 1.419 . S
C1720 C1718 1.415 . S
C1720 C1725 1.425 1_554 S
C1720 C1727 1.409 1_554 S
C1721 H1713 0.930 . S
C1721 C1719 1.419 . S
C1721 C1722 1.362 . S
C1722 H1714 0.930 . S
C1722 C1721 1.362 . S
C1722 C1725 1.409 1_554 S
C1723 H1715 0.930 . S
C1723 C1724 1.355 . S
C1723 C1725 1.415 . S
C1724 C1723 1.355 . S
C1724 C1726 1.419 . S
C1725 C1720 1.425 1_556 S
C1725 C1722 1.409 1_556 S
C1725 C1723 1.415 . S
C1726 H1716 0.930 . S
C1726 C1724 1.419 . S
C1726 C1727 1.362 . S
C1727 H1717 0.930 . S
C1727 C1720 1.409 1_556 S
C1727 C1726 1.362 . S
H1728 C1734 0.930 . S
H1729 C1737 0.930 . S
H1730 C1738 0.930 . S
H1731 C1739 0.930 . S
H1732 C1742 0.930 . S
H1733 C1743 0.930 . S
C1734 H1728 0.930 . S
C1734 C1735 1.355 . S
C1734 C1736 1.415 . S
C1735 C1734 1.355 . S
C1735 C1737 1.419 . S
C1736 C1734 1.415 . S
C1736 C1741 1.425 . S
C1736 C1743 1.409 . S
C1737 H1729 0.930 . S
C1737 C1735 1.419 . S
C1737 C1738 1.362 . S
C1738 H1730 0.930 . S
C1738 C1737 1.362 . S
C1738 C1741 1.409 . S
C1739 H1731 0.930 . S
C1739 C1740 1.355 . S
C1739 C1741 1.415 . S
C1740 C1739 1.355 . S
C1740 C1742 1.419 . S
C1741 C1736 1.425 . S
C1741 C1738 1.409 . S
C1741 C1739 1.415 . S
C1742 H1732 0.930 . S
C1742 C1740 1.419 . S
C1742 C1743 1.362 . S
C1743 H1733 0.930 . S
C1743 C1736 1.409 . S
C1743 C1742 1.362 . S
H1744 C1750 0.930 . S
H1745 C1753 0.930 . S
H1746 C1754 0.930 . S
H1747 C1755 0.930 . S
H1748 C1758 0.930 . S
H1749 C1759 0.930 . S
C1750 H1744 0.930 . S
C1750 C1751 1.355 . S
C1750 C1752 1.415 . S
C1751 C1750 1.355 . S
C1751 C1753 1.419 . S
C1752 C1750 1.415 . S
C1752 C1757 1.425 . S
C1752 C1759 1.409 . S
C1753 H1745 0.930 . S
C1753 C1751 1.419 . S
C1753 C1754 1.362 . S
C1754 H1746 0.930 . S
C1754 C1753 1.362 . S
C1754 C1757 1.409 . S
C1755 H1747 0.930 . S
C1755 C1756 1.355 . S
C1755 C1757 1.415 . S
C1756 C1755 1.355 . S
C1756 C1758 1.419 . S
C1757 C1752 1.425 . S
C1757 C1754 1.409 . S
C1757 C1755 1.415 . S
C1758 H1748 0.930 . S
C1758 C1756 1.419 . S
C1758 C1759 1.362 . S
C1759 H1749 0.930 . S
C1759 C1752 1.409 . S
C1759 C1758 1.362 . S
H1760 C1766 0.930 . S
H1761 C1769 0.930 . S
H1762 C1770 0.930 . S
H1763 C1771 0.930 . S
H1764 C1774 0.930 . S
H1765 C1775 0.930 . S
C1766 H1760 0.930 . S
C1766 C1767 1.355 . S
C1766 C1768 1.415 . S
C1767 C1766 1.355 . S
C1767 C1769 1.419 . S
C1768 C1766 1.415 . S
C1768 C1773 1.425 . S
C1768 C1775 1.409 . S
C1769 H1761 0.930 . S
C1769 C1767 1.419 . S
C1769 C1770 1.362 . S
C1770 H1762 0.930 . S
C1770 C1769 1.362 . S
C1770 C1773 1.409 . S
C1771 H1763 0.930 . S
C1771 C1772 1.355 . S
C1771 C1773 1.415 . S
C1772 C1771 1.355 . S
C1772 C1774 1.419 . S
C1773 C1768 1.425 . S
C1773 C1770 1.409 . S
C1773 C1771 1.415 . S
C1774 H1764 0.930 . S
C1774 C1772 1.419 . S
C1774 C1775 1.362 . S
C1775 H1765 0.930 . S
C1775 C1768 1.409 . S
C1775 C1774 1.362 . S
H1776 C1782 0.930 . S
H1777 C1785 0.930 . S
H1778 C1786 0.930 . S
H1779 C1787 0.930 . S
H1780 C1790 0.930 . S
H1781 C1791 0.930 . S
C1782 H1776 0.930 . S
C1782 C1783 1.355 . S
C1782 C1784 1.415 . S
C1783 C1782 1.355 . S
C1783 C1785 1.419 . S
C1784 C1782 1.415 . S
C1784 C1789 1.425 1_556 S
C1784 C1791 1.409 1_556 S
C1785 H1777 0.930 . S
C1785 C1783 1.419 . S
C1785 C1786 1.362 . S
C1786 H1778 0.930 . S
C1786 C1785 1.362 . S
C1786 C1789 1.409 1_556 S
C1787 H1779 0.930 . S
C1787 C1788 1.355 . S
C1787 C1789 1.415 . S
C1788 C1787 1.355 . S
C1788 C1790 1.419 . S
C1789 C1784 1.425 1_554 S
C1789 C1786 1.409 1_554 S
C1789 C1787 1.415 . S
C1790 H1780 0.930 . S
C1790 C1788 1.419 . S
C1790 C1791 1.362 . S
C1791 H1781 0.930 . S
C1791 C1784 1.409 1_554 S
C1791 C1790 1.362 . S
H1792 C1798 0.930 . S
H1793 C1801 0.930 . S
H1794 C1802 0.930 . S
H1795 C1803 0.930 . S
H1796 C1806 0.930 . S
H1797 C1807 0.930 . S
C1798 H1792 0.930 . S
C1798 C1799 1.355 . S
C1798 C1800 1.415 . S
C1799 C1798 1.355 . S
C1799 C1801 1.419 . S
C1800 C1798 1.415 . S
C1800 C1805 1.425 . S
C1800 C1807 1.409 . S
C1801 H1793 0.930 . S
C1801 C1799 1.419 . S
C1801 C1802 1.362 . S
C1802 H1794 0.930 . S
C1802 C1801 1.362 . S
C1802 C1805 1.409 . S
C1803 H1795 0.930 . S
C1803 C1804 1.355 . S
C1803 C1805 1.415 . S
C1804 C1803 1.355 . S
C1804 C1806 1.419 . S
C1805 C1800 1.425 . S
C1805 C1802 1.409 . S
C1805 C1803 1.415 . S
C1806 H1796 0.930 . S
C1806 C1804 1.419 . S
C1806 C1807 1.362 . S
C1807 H1797 0.930 . S
C1807 C1800 1.409 . S
C1807 C1806 1.362 . S
H1808 C1814 0.930 . S
H1809 C1817 0.930 . S
H1810 C1818 0.930 . S
H1811 C1819 0.930 . S
H1812 C1822 0.930 . S
H1813 C1823 0.930 . S
C1814 H1808 0.930 . S
C1814 C1815 1.355 . S
C1814 C1816 1.415 . S
C1815 C1814 1.355 . S
C1815 C1817 1.419 . S
C1816 C1814 1.415 . S
C1816 C1821 1.425 . S
C1816 C1823 1.409 . S
C1817 H1809 0.930 . S
C1817 C1815 1.419 . S
C1817 C1818 1.362 . S
C1818 H1810 0.930 . S
C1818 C1817 1.362 . S
C1818 C1821 1.409 . S
C1819 H1811 0.930 . S
C1819 C1820 1.355 . S
C1819 C1821 1.415 . S
C1820 C1819 1.355 . S
C1820 C1822 1.419 . S
C1821 C1816 1.425 . S
C1821 C1818 1.409 . S
C1821 C1819 1.415 . S
C1822 H1812 0.930 . S
C1822 C1820 1.419 . S
C1822 C1823 1.362 . S
C1823 H1813 0.930 . S
C1823 C1816 1.409 . S
C1823 C1822 1.362 . S
H1824 C1830 0.930 . S
H1825 C1833 0.930 . S
H1826 C1834 0.930 . S
H1827 C1835 0.930 . S
H1828 C1838 0.930 . S
H1829 C1839 0.930 . S
C1830 H1824 0.930 . S
C1830 C1831 1.355 . S
C1830 C1832 1.415 . S
C1831 C1830 1.355 . S
C1831 C1833 1.419 . S
C1832 C1830 1.415 . S
C1832 C1837 1.425 . S
C1832 C1839 1.409 . S
C1833 H1825 0.930 . S
C1833 C1831 1.419 . S
C1833 C1834 1.362 . S
C1834 H1826 0.930 . S
C1834 C1833 1.362 . S
C1834 C1837 1.409 . S
C1835 H1827 0.930 . S
C1835 C1836 1.355 . S
C1835 C1837 1.415 . S
C1836 C1835 1.355 . S
C1836 C1838 1.419 . S
C1837 C1832 1.425 . S
C1837 C1834 1.409 . S
C1837 C1835 1.415 . S
C1838 H1828 0.930 . S
C1838 C1836 1.419 . S
C1838 C1839 1.362 . S
C1839 H1829 0.930 . S
C1839 C1832 1.409 . S
C1839 C1838 1.362 . S
H1840 C1846 0.930 . S
H1841 C1849 0.930 . S
H1842 C1850 0.930 . S
H1843 C1851 0.930 . S
H1844 C1854 0.930 . S
H1845 C1855 0.930 . S
C1846 H1840 0.930 . S
C1846 C1847 1.355 . S
C1846 C1848 1.415 . S
C1847 C1846 1.355 . S
C1847 C1849 1.419 . S
C1848 C1846 1.415 . S
C1848 C1853 1.425 . S
C1848 C1855 1.409 . S
C1849 H1841 0.930 . S
C1849 C1847 1.419 . S
C1849 C1850 1.362 . S
C1850 H1842 0.930 . S
C1850 C1849 1.362 . S
C1850 C1853 1.409 . S
C1851 H1843 0.930 . S
C1851 C1852 1.355 . S
C1851 C1853 1.415 . S
C1852 C1851 1.355 . S
C1852 C1854 1.419 . S
C1853 C1848 1.425 . S
C1853 C1850 1.409 . S
C1853 C1851 1.415 . S
C1854 H1844 0.930 . S
C1854 C1852 1.419 . S
C1854 C1855 1.362 . S
C1855 H1845 0.930 . S
C1855 C1848 1.409 . S
C1855 C1854 1.362 . S
H1856 C1862 0.930 . S
H1857 C1865 0.930 . S
H1858 C1866 0.930 . S
H1859 C1867 0.930 . S
H1860 C1870 0.930 . S
H1861 C1871 0.930 . S
C1862 H1856 0.930 . S
C1862 C1863 1.355 . S
C1862 C1864 1.415 . S
C1863 C1862 1.355 . S
C1863 C1865 1.419 . S
C1864 C1862 1.415 . S
C1864 C1869 1.425 . S
C1864 C1871 1.409 . S
C1865 H1857 0.930 . S
C1865 C1863 1.419 . S
C1865 C1866 1.362 . S
C1866 H1858 0.930 . S
C1866 C1865 1.362 . S
C1866 C1869 1.409 . S
C1867 H1859 0.930 . S
C1867 C1868 1.355 . S
C1867 C1869 1.415 . S
C1868 C1867 1.355 . S
C1868 C1870 1.419 . S
C1869 C1864 1.425 . S
C1869 C1866 1.409 . S
C1869 C1867 1.415 . S
C1870 H1860 0.930 . S
C1870 C1868 1.419 . S
C1870 C1871 1.362 . S
C1871 H1861 0.930 . S
C1871 C1864 1.409 . S
C1871 C1870 1.362 . S
H1872 C1878 0.930 . S
H1873 C1881 0.930 . S
H1874 C1882 0.930 . S
H1875 C1883 0.930 . S
H1876 C1886 0.930 . S
H1877 C1887 0.930 . S
C1878 H1872 0.930 . S
C1878 C1879 1.355 . S
C1878 C1880 1.415 . S
C1879 C1878 1.355 . S
C1879 C1881 1.419 . S
C1880 C1878 1.415 . S
C1880 C1885 1.425 . S
C1880 C1887 1.409 . S
C1881 H1873 0.930 . S
C1881 C1879 1.419 . S
C1881 C1882 1.362 . S
C1882 H1874 0.930 . S
C1882 C1881 1.362 . S
C1882 C1885 1.409 . S
C1883 H1875 0.930 . S
C1883 C1884 1.355 . S
C1883 C1885 1.415 . S
C1884 C1883 1.355 . S
C1884 C1886 1.419 . S
C1885 C1880 1.425 . S
C1885 C1882 1.409 . S
C1885 C1883 1.415 . S
C1886 H1876 0.930 . S
C1886 C1884 1.419 . S
C1886 C1887 1.362 . S
C1887 H1877 0.930 . S
C1887 C1880 1.409 . S
C1887 C1886 1.362 . S
H1888 C1894 0.930 . S
H1889 C1897 0.930 . S
H1890 C1898 0.930 . S
H1891 C1899 0.930 . S
H1892 C1902 0.930 . S
H1893 C1903 0.930 . S
C1894 H1888 0.930 . S
C1894 C1895 1.355 . S
C1894 C1896 1.415 . S
C1895 C1894 1.355 . S
C1895 C1897 1.419 . S
C1896 C1894 1.415 . S
C1896 C1901 1.425 . S
C1896 C1903 1.409 . S
C1897 H1889 0.930 . S
C1897 C1895 1.419 . S
C1897 C1898 1.362 . S
C1898 H1890 0.930 . S
C1898 C1897 1.362 . S
C1898 C1901 1.409 . S
C1899 H1891 0.930 . S
C1899 C1900 1.355 . S
C1899 C1901 1.415 . S
C1900 C1899 1.355 . S
C1900 C1902 1.419 . S
C1901 C1896 1.425 . S
C1901 C1898 1.409 . S
C1901 C1899 1.415 . S
C1902 H1892 0.930 . S
C1902 C1900 1.419 . S
C1902 C1903 1.362 . S
C1903 H1893 0.930 . S
C1903 C1896 1.409 . S
C1903 C1902 1.362 . S
H1904 C1910 0.930 . S
H1905 C1913 0.930 . S
H1906 C1914 0.930 . S
H1907 C1915 0.930 . S
H1908 C1918 0.930 . S
H1909 C1919 0.930 . S
C1910 H1904 0.930 . S
C1910 C1911 1.355 . S
C1910 C1912 1.415 . S
C1911 C1910 1.355 . S
C1911 C1913 1.419 . S
C1912 C1910 1.415 . S
C1912 C1917 1.425 . S
C1912 C1919 1.409 . S
C1913 H1905 0.930 . S
C1913 C1911 1.419 . S
C1913 C1914 1.362 . S
C1914 H1906 0.930 . S
C1914 C1913 1.362 . S
C1914 C1917 1.409 . S
C1915 H1907 0.930 . S
C1915 C1916 1.355 . S
C1915 C1917 1.415 . S
C1916 C1915 1.355 . S
C1916 C1918 1.419 . S
C1917 C1912 1.425 . S
C1917 C1914 1.409 . S
C1917 C1915 1.415 . S
C1918 H1908 0.930 . S
C1918 C1916 1.419 . S
C1918 C1919 1.362 . S
C1919 H1909 0.930 . S
C1919 C1912 1.409 . S
C1919 C1918 1.362 . S
H1920 C1926 0.930 . S
H1921 C1929 0.930 . S
H1922 C1930 0.930 . S
H1923 C1931 0.930 . S
H1924 C1934 0.930 . S
H1925 C1935 0.930 . S
C1926 H1920 0.930 . S
C1926 C1927 1.355 . S
C1926 C1928 1.415 . S
C1927 C1926 1.355 . S
C1927 C1929 1.419 . S
C1928 C1926 1.415 . S
C1928 C1933 1.425 . S
C1928 C1935 1.409 . S
C1929 H1921 0.930 . S
C1929 C1927 1.419 . S
C1929 C1930 1.362 . S
C1930 H1922 0.930 . S
C1930 C1929 1.362 . S
C1930 C1933 1.409 . S
C1931 H1923 0.930 . S
C1931 C1932 1.355 . S
C1931 C1933 1.415 . S
C1932 C1931 1.355 . S
C1932 C1934 1.419 . S
C1933 C1928 1.425 . S
C1933 C1930 1.409 . S
C1933 C1931 1.415 . S
C1934 H1924 0.930 . S
C1934 C1932 1.419 . S
C1934 C1935 1.362 . S
C1935 H1925 0.930 . S
C1935 C1928 1.409 . S
C1935 C1934 1.362 . S
H1936 C1942 0.930 . S
H1937 C1945 0.930 . S
H1938 C1946 0.930 . S
H1939 C1947 0.930 . S
H1940 C1950 0.930 . S
H1941 C1951 0.930 . S
C1942 H1936 0.930 . S
C1942 C1943 1.355 . S
C1942 C1944 1.415 . S
C1943 C1942 1.355 . S
C1943 C1945 1.419 . S
C1944 C1942 1.415 . S
C1944 C1949 1.425 . S
C1944 C1951 1.409 . S
C1945 H1937 0.930 . S
C1945 C1943 1.419 . S
C1945 C1946 1.362 . S
C1946 H1938 0.930 . S
C1946 C1945 1.362 . S
C1946 C1949 1.409 . S
C1947 H1939 0.930 . S
C1947 C1948 1.355 . S
C1947 C1949 1.415 . S
C1948 C1947 1.355 . S
C1948 C1950 1.419 . S
C1949 C1944 1.425 . S
C1949 C1946 1.409 . S
C1949 C1947 1.415 . S
C1950 H1940 0.930 . S
C1950 C1948 1.419 . S
C1950 C1951 1.362 . S
C1951 H1941 0.930 . S
C1951 C1944 1.409 . S
C1951 C1950 1.362 . S
H1952 C1958 0.930 . S
H1953 C1961 0.930 . S
H1954 C1962 0.930 . S
H1955 C1963 0.930 . S
H1956 C1966 0.930 . S
H1957 C1967 0.930 . S
C1958 H1952 0.930 . S
C1958 C1959 1.355 . S
C1958 C1960 1.415 . S
C1959 C1958 1.355 . S
C1959 C1961 1.419 . S
C1960 C1958 1.415 . S
C1960 C1965 1.425 . S
C1960 C1967 1.409 . S
C1961 H1953 0.930 . S
C1961 C1959 1.419 . S
C1961 C1962 1.362 . S
C1962 H1954 0.930 . S
C1962 C1961 1.362 . S
C1962 C1965 1.409 . S
C1963 H1955 0.930 . S
C1963 C1964 1.355 . S
C1963 C1965 1.415 . S
C1964 C1963 1.355 . S
C1964 C1966 1.419 . S
C1965 C1960 1.425 . S
C1965 C1962 1.409 . S
C1965 C1963 1.415 . S
C1966 H1956 0.930 . S
C1966 C1964 1.419 . S
C1966 C1967 1.362 . S
C1967 H1957 0.930 . S
C1967 C1960 1.409 . S
C1967 C1966 1.362 . S
H1968 C1974 0.930 . S
H1969 C1977 0.930 . S
H1970 C1978 0.930 . S
H1971 C1979 0.930 . S
H1972 C1982 0.930 . S
H1973 C1983 0.930 . S
C1974 H1968 0.930 . S
C1974 C1975 1.355 . S
C1974 C1976 1.415 . S
C1975 C1974 1.355 . S
C1975 C1977 1.419 . S
C1976 C1974 1.415 . S
C1976 C1981 1.425 . S
C1976 C1983 1.409 . S
C1977 H1969 0.930 . S
C1977 C1975 1.419 . S
C1977 C1978 1.362 . S
C1978 H1970 0.930 . S
C1978 C1977 1.362 . S
C1978 C1981 1.409 . S
C1979 H1971 0.930 . S
C1979 C1980 1.355 . S
C1979 C1981 1.415 . S
C1980 C1979 1.355 . S
C1980 C1982 1.419 . S
C1981 C1976 1.425 . S
C1981 C1978 1.409 . S
C1981 C1979 1.415 . S
C1982 H1972 0.930 . S
C1982 C1980 1.419 . S
C1982 C1983 1.362 . S
C1983 H1973 0.930 . S
C1983 C1976 1.409 . S
C1983 C1982 1.362 . S
H1984 C1990 0.930 . S
H1985 C1993 0.930 . S
H1986 C1994 0.930 . S
H1987 C1995 0.930 . S
H1988 C1998 0.930 . S
H1989 C1999 0.930 . S
C1990 H1984 0.930 . S
C1990 C1991 1.355 . S
C1990 C1992 1.415 . S
C1991 C1990 1.355 . S
C1991 C1993 1.419 . S
C1992 C1990 1.415 . S
C1992 C1997 1.425 . S
C1992 C1999 1.409 . S
C1993 H1985 0.930 . S
C1993 C1991 1.419 . S
C1993 C1994 1.362 . S
C1994 H1986 0.930 . S
C1994 C1993 1.362 . S
C1994 C1997 1.409 . S
C1995 H1987 0.930 . S
C1995 C1996 1.355 . S
C1995 C1997 1.415 . S
C1996 C1995 1.355 . S
C1996 C1998 1.419 . S
C1997 C1992 1.425 . S
C1997 C1994 1.409 . S
C1997 C1995 1.415 . S
C1998 H1988 0.930 . S
C1998 C1996 1.419 . S
C1998 C1999 1.362 . S
C1999 H1989 0.930 . S
C1999 C1992 1.409 . S
C1999 C1998 1.362 . S
H2000 C2006 0.930 . S
H2001 C2009 0.930 . S
H2002 C2010 0.930 . S
H2003 C2011 0.930 . S
H2004 C2014 0.930 . S
H2005 C2015 0.930 . S
C2006 H2000 0.930 . S
C2006 C2007 1.355 . S
C2006 C2008 1.415 . S
C2007 C2006 1.355 . S
C2007 C2009 1.419 . S
C2008 C2006 1.415 . S
C2008 C2013 1.425 . S
C2008 C2015 1.409 . S
C2009 H2001 0.930 . S
C2009 C2007 1.419 . S
C2009 C2010 1.362 . S
C2010 H2002 0.930 . S
C2010 C2009 1.362 . S
C2010 C2013 1.409 . S
C2011 H2003 0.930 . S
C2011 C2012 1.355 . S
C2011 C2013 1.415 . S
C2012 C2011 1.355 . S
C2012 C2014 1.419 . S
C2013 C2008 1.425 . S
C2013 C2010 1.409 . S
C2013 C2011 1.415 . S
C2014 H2004 0.930 . S
C2014 C2012 1.419 . S
C2014 C2015 1.362 . S
C2015 H2005 0.930 . S
C2015 C2008 1.409 . S
C2015 C2014 1.362 . S
H2016 C2022 0.930 . S
H2017 C2025 0.930 . S
H2018 C2026 0.930 . S
H2019 C2027 0.930 . S
H2020 C2030 0.930 . S
H2021 C2031 0.930 . S
C2022 H2016 0.930 . S
C2022 C2023 1.355 . S
C2022 C2024 1.415 . S
C2023 C2022 1.355 . S
C2023 C2025 1.419 . S
C2024 C2022 1.415 . S
C2024 C2029 1.425 . S
C2024 C2031 1.409 . S
C2025 H2017 0.930 . S
C2025 C2023 1.419 . S
C2025 C2026 1.362 . S
C2026 H2018 0.930 . S
C2026 C2025 1.362 . S
C2026 C2029 1.409 . S
C2027 H2019 0.930 . S
C2027 C2028 1.355 . S
C2027 C2029 1.415 . S
C2028 C2027 1.355 . S
C2028 C2030 1.419 . S
C2029 C2024 1.425 . S
C2029 C2026 1.409 . S
C2029 C2027 1.415 . S
C2030 H2020 0.930 . S
C2030 C2028 1.419 . S
C2030 C2031 1.362 . S
C2031 H2021 0.930 . S
C2031 C2024 1.409 . S
C2031 C2030 1.362 . S
H2032 C2038 0.930 . S
H2033 C2041 0.930 . S
H2034 C2042 0.930 . S
H2035 C2043 0.930 . S
H2036 C2046 0.930 . S
H2037 C2047 0.930 . S
C2038 H2032 0.930 . S
C2038 C2039 1.355 . S
C2038 C2040 1.415 . S
C2039 C2038 1.355 . S
C2039 C2041 1.419 . S
C2040 C2038 1.415 . S
C2040 C2045 1.425 . S
C2040 C2047 1.409 . S
C2041 H2033 0.930 . S
C2041 C2039 1.419 . S
C2041 C2042 1.362 . S
C2042 H2034 0.930 . S
C2042 C2041 1.362 . S
C2042 C2045 1.409 . S
C2043 H2035 0.930 . S
C2043 C2044 1.355 . S
C2043 C2045 1.415 . S
C2044 C2043 1.355 . S
C2044 C2046 1.419 . S
C2045 C2040 1.425 . S
C2045 C2042 1.409 . S
C2045 C2043 1.415 . S
C2046 H2036 0.930 . S
C2046 C2044 1.419 . S
C2046 C2047 1.362 . S
C2047 H2037 0.930 . S
C2047 C2040 1.409 . S
C2047 C2046 1.362 . S
H2048 C2054 0.930 . S
H2049 C2057 0.930 . S
H2050 C2058 0.930 . S
H2051 C2059 0.930 . S
H2052 C2062 0.930 . S
H2053 C2063 0.930 . S
C2054 H2048 0.930 . S
C2054 C2055 1.355 . S
C2054 C2056 1.415 . S
C2055 C2054 1.355 . S
C2055 C2057 1.419 . S
C2056 C2054 1.415 . S
C2056 C2061 1.425 . S
C2056 C2063 1.409 . S
C2057 H2049 0.930 . S
C2057 C2055 1.419 . S
C2057 C2058 1.362 . S
C2058 H2050 0.930 . S
C2058 C2057 1.362 . S
C2058 C2061 1.409 . S
C2059 H2051 0.930 . S
C2059 C2060 1.355 . S
C2059 C2061 1.415 . S
C2060 C2059 1.355 . S
C2060 C2062 1.419 . S
C2061 C2056 1.425 . S
C2061 C2058 1.409 . S
C2061 C2059 1.415 . S
C2062 H2052 0.930 . S
C2062 C2060 1.419 . S
C2062 C2063 1.362 . S
C2063 H2053 0.930 . S
C2063 C2056 1.409 . S
C2063 C2062 1.362 . S
H2064 C2070 0.930 . S
H2065 C2073 0.930 . S
H2066 C2074 0.930 . S
H2067 C2075 0.930 . S
H2068 C2078 0.930 . S
H2069 C2079 0.930 . S
C2070 H2064 0.930 . S
C2070 C2071 1.355 . S
C2070 C2072 1.415 . S
C2071 C2070 1.355 . S
C2071 C2073 1.419 . S
C2072 C2070 1.415 . S
C2072 C2077 1.425 . S
C2072 C2079 1.409 . S
C2073 H2065 0.930 . S
C2073 C2071 1.419 . S
C2073 C2074 1.362 . S
C2074 H2066 0.930 . S
C2074 C2073 1.362 . S
C2074 C2077 1.409 . S
C2075 H2067 0.930 . S
C2075 C2076 1.355 . S
C2075 C2077 1.415 . S
C2076 C2075 1.355 . S
C2076 C2078 1.419 . S
C2077 C2072 1.425 . S
C2077 C2074 1.409 . S
C2077 C2075 1.415 . S
C2078 H2068 0.930 . S
C2078 C2076 1.419 . S
C2078 C2079 1.362 . S
C2079 H2069 0.930 . S
C2079 C2072 1.409 . S
C2079 C2078 1.362 . S
H2080 C2086 0.930 . S
H2081 C2089 0.930 . S
H2082 C2090 0.930 1_556 S
H2083 C2091 0.930 . S
H2084 C2094 0.930 . S
H2085 C2095 0.930 . S
C2086 H2080 0.930 . S
C2086 C2087 1.355 . S
C2086 C2088 1.415 . S
C2087 C2086 1.355 . S
C2087 C2089 1.419 . S
C2088 C2086 1.415 . S
C2088 C2093 1.425 . S
C2088 C2095 1.409 . S
C2089 H2081 0.930 . S
C2089 C2087 1.419 . S
C2089 C2090 1.362 . S
C2090 H2082 0.930 1_554 S
C2090 C2089 1.362 . S
C2090 C2093 1.409 . S
C2091 H2083 0.930 . S
C2091 C2092 1.355 . S
C2091 C2093 1.415 . S
C2092 C2091 1.355 . S
C2092 C2094 1.419 . S
C2093 C2088 1.425 . S
C2093 C2090 1.409 . S
C2093 C2091 1.415 . S
C2094 H2084 0.930 . S
C2094 C2092 1.419 . S
C2094 C2095 1.362 . S
C2095 H2085 0.930 . S
C2095 C2088 1.409 . S
C2095 C2094 1.362 . S
H2096 C2102 0.930 . S
H2097 C2105 0.930 . S
H2098 C2106 0.930 . S
H2099 C2107 0.930 . S
H2100 C2110 0.930 . S
H2101 C2111 0.930 . S
C2102 H2096 0.930 . S
C2102 C2103 1.355 . S
C2102 C2104 1.415 . S
C2103 C2102 1.355 . S
C2103 C2105 1.419 . S
C2104 C2102 1.415 . S
C2104 C2109 1.425 1_655 S
C2104 C2111 1.409 1_655 S
C2105 H2097 0.930 . S
C2105 C2103 1.419 . S
C2105 C2106 1.362 . S
C2106 H2098 0.930 . S
C2106 C2105 1.362 . S
C2106 C2109 1.409 1_655 S
C2107 H2099 0.930 . S
C2107 C2108 1.355 . S
C2107 C2109 1.415 . S
C2108 C2107 1.355 . S
C2108 C2110 1.419 . S
C2109 C2104 1.425 1_455 S
C2109 C2106 1.409 1_455 S
C2109 C2107 1.415 . S
C2110 H2100 0.930 . S
C2110 C2108 1.419 . S
C2110 C2111 1.362 . S
C2111 H2101 0.930 . S
C2111 C2104 1.409 1_455 S
C2111 C2110 1.362 . S
H2112 C2118 0.930 . S
H2113 C2121 0.930 . S
H2114 C2122 0.930 . S
H2115 C2123 0.930 . S
H2116 C2126 0.930 . S
H2117 C2127 0.930 . S
C2118 H2112 0.930 . S
C2118 C2119 1.355 . S
C2118 C2120 1.415 . S
C2119 C2118 1.355 . S
C2119 C2121 1.419 . S
C2120 C2118 1.415 . S
C2120 C2125 1.425 . S
C2120 C2127 1.409 . S
C2121 H2113 0.930 . S
C2121 C2119 1.419 . S
C2121 C2122 1.362 . S
C2122 H2114 0.930 . S
C2122 C2121 1.362 . S
C2122 C2125 1.409 . S
C2123 H2115 0.930 . S
C2123 C2124 1.355 . S
C2123 C2125 1.415 . S
C2124 C2123 1.355 . S
C2124 C2126 1.419 . S
C2125 C2120 1.425 . S
C2125 C2122 1.409 . S
C2125 C2123 1.415 . S
C2126 H2116 0.930 . S
C2126 C2124 1.419 . S
C2126 C2127 1.362 . S
C2127 H2117 0.930 . S
C2127 C2120 1.409 . S
C2127 C2126 1.362 . S
H2128 C2134 0.930 . S
H2129 C2137 0.930 . S
H2130 C2138 0.930 . S
H2131 C2139 0.930 . S
H2132 C2142 0.930 . S
H2133 C2143 0.930 . S
C2134 H2128 0.930 . S
C2134 C2135 1.355 . S
C2134 C2136 1.415 . S
C2135 C2134 1.355 . S
C2135 C2137 1.419 . S
C2136 C2134 1.415 . S
C2136 C2141 1.425 . S
C2136 C2143 1.409 . S
C2137 H2129 0.930 . S
C2137 C2135 1.419 . S
C2137 C2138 1.362 . S
C2138 H2130 0.930 . S
C2138 C2137 1.362 . S
C2138 C2141 1.409 . S
C2139 H2131 0.930 . S
C2139 C2140 1.355 . S
C2139 C2141 1.415 . S
C2140 C2139 1.355 . S
C2140 C2142 1.419 . S
C2141 C2136 1.425 . S
C2141 C2138 1.409 . S
C2141 C2139 1.415 . S
C2142 H2132 0.930 . S
C2142 C2140 1.419 . S
C2142 C2143 1.362 . S
C2143 H2133 0.930 . S
C2143 C2136 1.409 . S
C2143 C2142 1.362 . S
H2144 C2150 0.930 . S
H2145 C2153 0.930 . S
H2146 C2154 0.930 . S
H2147 C2155 0.930 . S
H2148 C2158 0.930 . S
H2149 C2159 0.930 . S
C2150 H2144 0.930 . S
C2150 C2151 1.355 . S
C2150 C2152 1.415 . S
C2151 C2150 1.355 . S
C2151 C2153 1.419 . S
C2152 C2150 1.415 . S
C2152 C2157 1.425 . S
C2152 C2159 1.409 . S
C2153 H2145 0.930 . S
C2153 C2151 1.419 . S
C2153 C2154 1.362 . S
C2154 H2146 0.930 . S
C2154 C2153 1.362 . S
C2154 C2157 1.409 . S
C2155 H2147 0.930 . S
C2155 C2156 1.355 . S
C2155 C2157 1.415 . S
C2156 C2155 1.355 . S
C2156 C2158 1.419 . S
C2157 C2152 1.425 . S
C2157 C2154 1.409 . S
C2157 C2155 1.415 . S
C2158 H2148 0.930 . S
C2158 C2156 1.419 . S
C2158 C2159 1.362 . S
C2159 H2149 0.930 . S
C2159 C2152 1.409 . S
C2159 C2158 1.362 . S
H2160 C2166 0.930 . S
H2161 C2169 0.930 . S
H2162 C2170 0.930 . S
H2163 C2171 0.930 . S
H2164 C2174 0.930 . S
H2165 C2175 0.930 . S
C2166 H2160 0.930 . S
C2166 C2167 1.355 . S
C2166 C2168 1.415 . S
C2167 C2166 1.355 . S
C2167 C2169 1.419 . S
C2168 C2166 1.415 . S
C2168 C2173 1.425 . S
C2168 C2175 1.409 . S
C2169 H2161 0.930 . S
C2169 C2167 1.419 . S
C2169 C2170 1.362 . S
C2170 H2162 0.930 . S
C2170 C2169 1.362 . S
C2170 C2173 1.409 . S
C2171 H2163 0.930 . S
C2171 C2172 1.355 . S
C2171 C2173 1.415 . S
C2172 C2171 1.355 . S
C2172 C2174 1.419 . S
C2173 C2168 1.425 . S
C2173 C2170 1.409 . S
C2173 C2171 1.415 . S
C2174 H2164 0.930 . S
C2174 C2172 1.419 . S
C2174 C2175 1.362 . S
C2175 H2165 0.930 . S
C2175 C2168 1.409 . S
C2175 C2174 1.362 . S
H2176 C2182 0.930 . S
H2177 C2185 0.930 . S
H2178 C2186 0.930 . S
H2179 C2187 0.930 . S
H2180 C2190 0.930 . S
H2181 C2191 0.930 . S
C2182 H2176 0.930 . S
C2182 C2183 1.355 . S
C2182 C2184 1.415 . S
C2183 C2182 1.355 . S
C2183 C2185 1.419 . S
C2184 C2182 1.415 . S
C2184 C2189 1.425 . S
C2184 C2191 1.409 . S
C2185 H2177 0.930 . S
C2185 C2183 1.419 . S
C2185 C2186 1.362 . S
C2186 H2178 0.930 . S
C2186 C2185 1.362 . S
C2186 C2189 1.409 . S
C2187 H2179 0.930 . S
C2187 C2188 1.355 . S
C2187 C2189 1.415 . S
C2188 C2187 1.355 . S
C2188 C2190 1.419 . S
C2189 C2184 1.425 . S
C2189 C2186 1.409 . S
C2189 C2187 1.415 . S
C2190 H2180 0.930 . S
C2190 C2188 1.419 . S
C2190 C2191 1.362 . S
C2191 H2181 0.930 . S
C2191 C2184 1.409 . S
C2191 C2190 1.362 . S
H2192 C2198 0.930 . S
H2193 C2201 0.930 . S
H2194 C2202 0.930 . S
H2195 C2203 0.930 . S
H2196 C2206 0.930 . S
H2197 C2207 0.930 . S
C2198 H2192 0.930 . S
C2198 C2199 1.355 . S
C2198 C2200 1.415 . S
C2199 C2198 1.355 . S
C2199 C2201 1.419 . S
C2200 C2198 1.415 . S
C2200 C2205 1.425 1_455 S
C2200 C2207 1.409 1_455 S
C2201 H2193 0.930 . S
C2201 C2199 1.419 . S
C2201 C2202 1.362 . S
C2202 H2194 0.930 . S
C2202 C2201 1.362 . S
C2202 C2205 1.409 1_455 S
C2203 H2195 0.930 . S
C2203 C2204 1.355 . S
C2203 C2205 1.415 . S
C2204 C2203 1.355 . S
C2204 C2206 1.419 . S
C2205 C2200 1.425 1_655 S
C2205 C2202 1.409 1_655 S
C2205 C2203 1.415 . S
C2206 H2196 0.930 . S
C2206 C2204 1.419 . S
C2206 C2207 1.362 . S
C2207 H2197 0.930 . S
C2207 C2200 1.409 1_655 S
C2207 C2206 1.362 . S
H2208 C2214 0.930 . S
H2209 C2217 0.930 . S
H2210 C2218 0.930 . S
H2211 C2219 0.930 . S
H2212 C2222 0.930 . S
H2213 C2223 0.930 1_554 S
C2214 H2208 0.930 . S
C2214 C2215 1.355 . S
C2214 C2216 1.415 . S
C2215 C2214 1.355 . S
C2215 C2217 1.419 . S
C2216 C2214 1.415 . S
C2216 C2221 1.425 . S
C2216 C2223 1.409 . S
C2217 H2209 0.930 . S
C2217 C2215 1.419 . S
C2217 C2218 1.362 . S
C2218 H2210 0.930 . S
C2218 C2217 1.362 . S
C2218 C2221 1.409 . S
C2219 H2211 0.930 . S
C2219 C2220 1.355 . S
C2219 C2221 1.415 . S
C2220 C2219 1.355 . S
C2220 C2222 1.419 . S
C2221 C2216 1.425 . S
C2221 C2218 1.409 . S
C2221 C2219 1.415 . S
C2222 H2212 0.930 . S
C2222 C2220 1.419 . S
C2222 C2223 1.362 . S
C2223 H2213 0.930 1_556 S
C2223 C2216 1.409 . S
C2223 C2222 1.362 . S
H2224 C2230 0.930 . S
H2225 C2233 0.930 . S
H2226 C2234 0.930 . S
H2227 C2235 0.930 . S
H2228 C2238 0.930 . S
H2229 C2239 0.930 . S
C2230 H2224 0.930 . S
C2230 C2231 1.355 . S
C2230 C2232 1.415 . S
C2231 C2230 1.355 . S
C2231 C2233 1.419 . S
C2232 C2230 1.415 . S
C2232 C2237 1.425 . S
C2232 C2239 1.409 . S
C2233 H2225 0.930 . S
C2233 C2231 1.419 . S
C2233 C2234 1.362 . S
C2234 H2226 0.930 . S
C2234 C2233 1.362 . S
C2234 C2237 1.409 . S
C2235 H2227 0.930 . S
C2235 C2236 1.355 . S
C2235 C2237 1.415 . S
C2236 C2235 1.355 . S
C2236 C2238 1.419 . S
C2237 C2232 1.425 . S
C2237 C2234 1.409 . S
C2237 C2235 1.415 . S
C2238 H2228 0.930 . S
C2238 C2236 1.419 . S
C2238 C2239 1.362 . S
C2239 H2229 0.930 . S
C2239 C2232 1.409 . S
C2239 C2238 1.362 . S
H2240 C2246 0.930 . S
H2241 C2249 0.930 . S
H2242 C2250 0.930 . S
H2243 C2251 0.930 . S
H2244 C2254 0.930 . S
H2245 C2255 0.930 1_556 S
C2246 H2240 0.930 . S
C2246 C2247 1.355 . S
C2246 C2248 1.415 . S
C2247 C2246 1.355 . S
C2247 C2249 1.419 . S
C2248 C2246 1.415 . S
C2248 C2253 1.425 . S
C2248 C2255 1.409 . S
C2249 H2241 0.930 . S
C2249 C2247 1.419 . S
C2249 C2250 1.362 . S
C2250 H2242 0.930 . S
C2250 C2249 1.362 . S
C2250 C2253 1.409 . S
C2251 H2243 0.930 . S
C2251 C2252 1.355 . S
C2251 C2253 1.415 . S
C2252 C2251 1.355 . S
C2252 C2254 1.419 . S
C2253 C2248 1.425 . S
C2253 C2250 1.409 . S
C2253 C2251 1.415 . S
C2254 H2244 0.930 . S
C2254 C2252 1.419 . S
C2254 C2255 1.362 . S
C2255 H2245 0.930 1_554 S
C2255 C2248 1.409 . S
C2255 C2254 1.362 . S
H2256 C2262 0.930 . S
H2257 C2265 0.930 . S
H2258 C2266 0.930 . S
H2259 C2267 0.930 . S
H2260 C2270 0.930 . S
H2261 C2271 0.930 . S
C2262 H2256 0.930 . S
C2262 C2263 1.355 . S
C2262 C2264 1.415 . S
C2263 C2262 1.355 . S
C2263 C2265 1.419 . S
C2264 C2262 1.415 . S
C2264 C2269 1.425 . S
C2264 C2271 1.409 . S
C2265 H2257 0.930 . S
C2265 C2263 1.419 . S
C2265 C2266 1.362 . S
C2266 H2258 0.930 . S
C2266 C2265 1.362 . S
C2266 C2269 1.409 . S
C2267 H2259 0.930 . S
C2267 C2268 1.355 . S
C2267 C2269 1.415 . S
C2268 C2267 1.355 . S
C2268 C2270 1.419 . S
C2269 C2264 1.425 . S
C2269 C2266 1.409 . S
C2269 C2267 1.415 . S
C2270 H2260 0.930 . S
C2270 C2268 1.419 . S
C2270 C2271 1.362 . S
C2271 H2261 0.930 . S
C2271 C2264 1.409 . S
C2271 C2270 1.362 . S
H2272 C2278 0.930 . S
H2273 C2281 0.930 . S
H2274 C2282 0.930 . S
H2275 C2283 0.930 . S
H2276 C2286 0.930 . S
H2277 C2287 0.930 . S
C2278 H2272 0.930 . S
C2278 C2279 1.355 . S
C2278 C2280 1.415 . S
C2279 C2278 1.355 . S
C2279 C2281 1.419 . S
C2280 C2278 1.415 . S
C2280 C2285 1.425 . S
C2280 C2287 1.409 . S
C2281 H2273 0.930 . S
C2281 C2279 1.419 . S
C2281 C2282 1.362 . S
C2282 H2274 0.930 . S
C2282 C2281 1.362 . S
C2282 C2285 1.409 . S
C2283 H2275 0.930 . S
C2283 C2284 1.355 . S
C2283 C2285 1.415 . S
C2284 C2283 1.355 . S
C2284 C2286 1.419 . S
C2285 C2280 1.425 . S
C2285 C2282 1.409 . S
C2285 C2283 1.415 . S
C2286 H2276 0.930 . S
C2286 C2284 1.419 . S
C2286 C2287 1.362 . S
C2287 H2277 0.930 . S
C2287 C2280 1.409 . S
C2287 C2286 1.362 . S
H2288 C2294 0.930 . S
H2289 C2297 0.930 . S
H2290 C2298 0.930 . S
H2291 C2299 0.930 . S
H2292 C2302 0.930 . S
H2293 C2303 0.930 . S
C2294 H2288 0.930 . S
C2294 C2295 1.355 . S
C2294 C2296 1.415 . S
C2295 C2294 1.355 . S
C2295 C2297 1.419 . S
C2296 C2294 1.415 . S
C2296 C2301 1.425 1_455 S
C2296 C2303 1.409 1_455 S
C2297 H2289 0.930 . S
C2297 C2295 1.419 . S
C2297 C2298 1.362 . S
C2298 H2290 0.930 . S
C2298 C2297 1.362 . S
C2298 C2301 1.409 1_455 S
C2299 H2291 0.930 . S
C2299 C2300 1.355 . S
C2299 C2301 1.415 . S
C2300 C2299 1.355 . S
C2300 C2302 1.419 . S
C2301 C2296 1.425 1_655 S
C2301 C2298 1.409 1_655 S
C2301 C2299 1.415 . S
C2302 H2292 0.930 . S
C2302 C2300 1.419 . S
C2302 C2303 1.362 . S
C2303 H2293 0.930 . S
C2303 C2296 1.409 1_655 S
C2303 C2302 1.362 . S
H2304 C2310 0.930 . S
H2305 C2313 0.930 . S
H2306 C2314 0.930 . S
H2307 C2315 0.930 . S
H2308 C2318 0.930 . S
H2309 C2319 0.930 . S
C2310 H2304 0.930 . S
C2310 C2311 1.355 . S
C2310 C2312 1.415 . S
C2311 C2310 1.355 . S
C2311 C2313 1.419 . S
C2312 C2310 1.415 . S
C2312 C2317 1.425 1_455 S
C2312 C2319 1.409 1_455 S
C2313 H2305 0.930 . S
C2313 C2311 1.419 . S
C2313 C2314 1.362 . S
C2314 H2306 0.930 . S
C2314 C2313 1.362 . S
C2314 C2317 1.409 1_455 S
C2315 H2307 0.930 . S
C2315 C2316 1.355 . S
C2315 C2317 1.415 . S
C2316 C2315 1.355 . S
C2316 C2318 1.419 . S
C2317 C2312 1.425 1_655 S
C2317 C2314 1.409 1_655 S
C2317 C2315 1.415 . S
C2318 H2308 0.930 . S
C2318 C2316 1.419 . S
C2318 C2319 1.362 . S
C2319 H2309 0.930 . S
C2319 C2312 1.409 1_655 S
C2319 C2318 1.362 . S
H2320 C2326 0.930 . S
H2321 C2329 0.930 . S
H2322 C2330 0.930 . S
H2323 C2331 0.930 . S
H2324 C2334 0.930 . S
H2325 C2335 0.930 . S
C2326 H2320 0.930 . S
C2326 C2327 1.355 . S
C2326 C2328 1.415 . S
C2327 C2326 1.355 . S
C2327 C2329 1.419 . S
C2328 C2326 1.415 . S
C2328 C2333 1.425 . S
C2328 C2335 1.409 . S
C2329 H2321 0.930 . S
C2329 C2327 1.419 . S
C2329 C2330 1.362 . S
C2330 H2322 0.930 . S
C2330 C2329 1.362 . S
C2330 C2333 1.409 . S
C2331 H2323 0.930 . S
C2331 C2332 1.355 . S
C2331 C2333 1.415 . S
C2332 C2331 1.355 . S
C2332 C2334 1.419 . S
C2333 C2328 1.425 . S
C2333 C2330 1.409 . S
C2333 C2331 1.415 . S
C2334 H2324 0.930 . S
C2334 C2332 1.419 . S
C2334 C2335 1.362 . S
C2335 H2325 0.930 . S
C2335 C2328 1.409 . S
C2335 C2334 1.362 . S
C1063 C40 2.012 1_545 S
C1068 C18 2.008 . S
C1079 C51 2.035 . S
C1084 C73 2.036 . S
C1095 C84 2.009 . S
C1100 C106 2.035 1_565 S
C1111 C117 2.035 . S
C1116 C7 2.036 1_556 S
C1127 C150 2.003 . S
C1132 C238 2.030 1_565 S
C1143 C139 2.040 1_554 S
C1148 C183 2.034 . S
C1159 C216 2.016 . S
C1164 C172 2.040 1_545 S
C1175 C249 2.013 . S
C1180 C205 2.038 . S
C1191 C304 2.035 1_565 S
C1196 C282 2.035 . S
C1207 C337 2.015 . S
C1212 C315 2.018 . S
C1223 C348 2.035 . S
C1228 C370 2.037 1_545 S
C1239 C271 2.035 1_554 S
C1244 C381 2.008 . S
C1255 C414 2.032 . S
C1260 C502 2.042 1_545 S
C1271 C447 2.034 . S
C1276 C403 2.039 1_556 S
C1287 C436 2.014 1_565 S
C1292 C480 1.998 . S
C1303 C469 2.033 . S
C1308 C513 2.005 . S
C1319 C568 2.012 . S
C1324 C546 2.000 . S
C1335 C579 2.006 . S
C1340 C601 2.011 1_556 S
C1351 C634 2.040 . S
C1356 C612 2.034 . S
C1367 C535 2.036 . S
C1372 C645 2.010 . S
C1383 C766 2.027 . S
C1388 C678 2.001 . S
C1399 C711 2.035 . S
C1404 C667 2.038 . S
C1415 C700 2.014 . S
C1420 C744 2.015 . S
C1431 C777 1.998 . S
C1436 C733 2.023 1_554 S
C1447 C832 2.043 . S
C1452 C810 2.028 . S
C1463 C843 2.011 . S
C1468 C865 2.037 1_554 S
C1479 C876 2.026 . S
C1484 C898 2.021 . S
C1495 C909 2.017 . S
C1500 C799 2.040 . S
C1511 C1030 2.014 . S
C1516 C942 1.998 . S
C1527 C931 2.042 . S
C1532 C975 2.032 . S
C1543 C964 2.033 . S
C1548 C1008 2.034 . S
C1559 C997 2.041 1_556 S
C1564 C1041 2.020 . S
C1575 N211 0.904 . S
C1580 N13 0.906 . S
C1591 N46 0.905 . S
C1596 N244 0.912 . S
C1607 N79 0.934 . S
C1612 N145 0.926 . S
C1623 N112 0.912 . S
C1628 N178 0.921 . S
C1639 N475 0.929 . S
C1644 N277 0.919 . S
C1655 N508 0.925 . S
C1660 N310 0.916 . S
C1671 N343 0.916 . S
C1676 N409 0.925 . S
C1687 N442 0.911 . S
C1692 N376 0.905 . S
C1703 N541 0.904 . S
C1708 N739 0.907 . S
C1719 N772 0.929 . S
C1724 N574 0.936 . S
C1735 N673 0.936 . S
C1740 N607 0.930 . S
C1751 N706 0.938 . S
C1756 N640 0.937 . S
C1767 N1003 0.933 . S
C1772 N805 0.938 . S
C1783 N1036 0.907 . S
C1788 N838 0.904 . S
C1799 N937 0.910 . S
C1804 N871 0.905 . S
C1815 N970 0.919 . S
C1820 N904 0.910 . S
C1831 N2 0.880 . S
C1836 N233 0.887 . S
C1847 N35 0.905 . S
C1852 N134 0.885 . S
C1863 N167 0.882 . S
C1868 N68 0.883 . S
C1879 N101 0.900 . S
C1884 N200 0.883 . S
C1895 N266 0.939 . S
C1900 N497 0.941 . S
C1911 N398 0.887 . S
C1916 N299 0.880 . S
C1927 N332 0.912 . S
C1932 N431 0.889 . S
C1943 N365 0.891 . S
C1948 N464 0.880 . S
C1959 N761 0.939 . S
C1964 N530 0.921 . S
C1975 N662 0.891 . S
C1980 N563 0.880 . S
C1991 N596 0.910 . S
C1996 N695 0.932 . S
C2007 N629 0.935 . S
C2012 N728 0.914 . S
C2023 N794 0.938 . S
C2028 N1025 0.920 . S
C2039 N926 0.907 . S
C2044 N827 0.887 . S
C2055 N860 0.885 . S
C2060 N959 0.881 . S
C2071 N893 0.884 . S
C2076 N992 0.902 . S
C2087 C21 1.300 . S
C2092 C1011 1.300 . S
C2103 C516 1.311 . S
C2108 C54 1.288 . S
C2119 C945 1.316 . S
C2124 C87 1.283 . S
C2135 C120 1.311 . S
C2140 C450 1.289 . S
C2151 C153 1.317 . S
C2156 C879 1.282 . S
C2167 C384 1.310 . S
C2172 C186 1.289 . S
C2183 C219 1.287 . S
C2188 C813 1.313 . S
C2199 C252 1.285 . S
C2204 C318 1.314 . S
C2215 C285 1.311 . S
C2220 C747 1.289 . S
C2231 C351 1.316 . S
C2236 C681 1.283 . S
C2247 C417 1.292 . S
C2252 C615 1.308 . S
C2263 C483 1.299 . S
C2268 C549 1.301 . S
C2279 C582 1.317 . S
C2284 C1044 1.282 . S
C2295 C978 1.295 . S
C2300 C648 1.305 . S
C2311 C912 1.315 . S
C2316 C714 1.284 . S
C2327 C846 1.312 . S
C2332 C780 1.287 . S
