# Generated by pormake.
# Topology vby, (6)-cn, num edge types: 1
# Building blocks:
#     Node 0, Type 0, BuildingBlock: LEVNOQ01_clean_sbu_1, # of connection points: 6
#     Node 1, Type 0, BuildingBlock: LEVNOQ01_clean_sbu_1, # of connection points: 6
#     Node 2, Type 0, BuildingBlock: LEVNOQ01_clean_sbu_1, # of connection points: 6
#     Node 3, Type 0, BuildingBlock: LEVNOQ01_clean_sbu_1, # of connection points: 6
#     Node 4, Type 0, BuildingBlock: LEVNOQ01_clean_sbu_1, # of connection points: 6
#     Node 5, Type 0, BuildingBlock: LEVNOQ01_clean_sbu_1, # of connection points: 6
#     Node 6, Type 0, BuildingBlock: LEVNOQ01_clean_sbu_1, # of connection points: 6
#     Node 7, Type 0, BuildingBlock: LEVNOQ01_clean_sbu_1, # of connection points: 6
#     Edge 8, Type (0, 0), BuildingBlock: XUDNAN_clean_linker_2, # of connection points: 2
#     Edge 9, Type (0, 0), BuildingBlock: XUDNAN_clean_linker_2, # of connection points: 2
#     Edge 10, Type (0, 0), BuildingBlock: XUDNAN_clean_linker_2, # of connection points: 2
#     Edge 11, Type (0, 0), BuildingBlock: XUDNAN_clean_linker_2, # of connection points: 2
#     Edge 12, Type (0, 0), BuildingBlock: XUDNAN_clean_linker_2, # of connection points: 2
#     Edge 13, Type (0, 0), BuildingBlock: XUDNAN_clean_linker_2, # of connection points: 2
#     Edge 14, Type (0, 0), BuildingBlock: XUDNAN_clean_linker_2, # of connection points: 2
#     Edge 15, Type (0, 0), BuildingBlock: XUDNAN_clean_linker_2, # of connection points: 2
#     Edge 16, Type (0, 0), BuildingBlock: XUDNAN_clean_linker_2, # of connection points: 2
#     Edge 17, Type (0, 0), BuildingBlock: XUDNAN_clean_linker_2, # of connection points: 2
#     Edge 18, Type (0, 0), BuildingBlock: XUDNAN_clean_linker_2, # of connection points: 2
#     Edge 19, Type (0, 0), BuildingBlock: XUDNAN_clean_linker_2, # of connection points: 2
#     Edge 20, Type (0, 0), BuildingBlock: XUDNAN_clean_linker_2, # of connection points: 2
#     Edge 21, Type (0, 0), BuildingBlock: XUDNAN_clean_linker_2, # of connection points: 2
#     Edge 22, Type (0, 0), BuildingBlock: XUDNAN_clean_linker_2, # of connection points: 2
#     Edge 23, Type (0, 0), BuildingBlock: XUDNAN_clean_linker_2, # of connection points: 2
#     Edge 24, Type (0, 0), BuildingBlock: XUDNAN_clean_linker_2, # of connection points: 2
#     Edge 25, Type (0, 0), BuildingBlock: XUDNAN_clean_linker_2, # of connection points: 2
#     Edge 26, Type (0, 0), BuildingBlock: XUDNAN_clean_linker_2, # of connection points: 2
#     Edge 27, Type (0, 0), BuildingBlock: XUDNAN_clean_linker_2, # of connection points: 2
#     Edge 28, Type (0, 0), BuildingBlock: XUDNAN_clean_linker_2, # of connection points: 2
#     Edge 29, Type (0, 0), BuildingBlock: XUDNAN_clean_linker_2, # of connection points: 2
#     Edge 30, Type (0, 0), BuildingBlock: XUDNAN_clean_linker_2, # of connection points: 2
#     Edge 31, Type (0, 0), BuildingBlock: XUDNAN_clean_linker_2, # of connection points: 2
# Relax obj value: 0.085
# Max RMSD: 0.124
# Mean RMSD: 0.124
data_MOF--net-vby--node1-LEVNOQ01_clean_sbu_1--edge1-XUDNAN_clean_linker_2
_symmetry_space_group_name_H-M    P1
_symmetry_Int_Tables_number       1
_symmetry_cell_setting            triclinic
loop_
_symmetry_equiv_pos_as_xyz
'x, y, z'
_cell_length_a     15.800753
_cell_length_b     61.364696
_cell_length_c     30.93309
_cell_angle_alpha  89.939479
_cell_angle_beta   90.029037
_cell_angle_gamma 90.190503
loop_
_atom_site_label
_atom_site_type_symbol
_atom_site_fract_x
_atom_site_fract_y
_atom_site_fract_z
_atom_type_partial_charge
O0 O 0.89278 0.39228 0.98714 0.0
Mg1 Mg 0.00351 0.39157 0.94879 0.0
O2 O 0.93749 0.3617 0.0144 0.0
Mg3 Mg 0.07659 0.36979 0.00305 0.0
O4 O 0.06811 0.36534 0.92636 0.0
O5 O 0.96664 0.38268 0.8888 0.0
O6 O 0.21814 0.37538 0.99212 0.0
O7 O 0.09999 0.3325 -0.00356 0.0
Mg8 Mg 0.16511 0.3457 0.0792 0.0
O9 O 0.08778 0.37184 0.07664 0.0
O10 O 0.27066 0.35184 0.04006 0.0
O11 O 0.09727 0.31767 0.06109 0.0
O12 O 0.14642 0.36039 0.13803 0.0
C13 C 0.07082 0.42432 0.98704 0.0
C14 C 0.87838 0.37523 0.00864 0.0
C15 C 0.0261 0.36841 0.89069 0.0
C16 C 0.27918 0.36444 0.00784 0.0
C17 C 0.09842 0.31561 0.02039 0.0
C18 C 0.09393 0.37304 0.11828 0.0
O19 O 0.07477 0.41991 0.94737 0.0
O20 O 0.05917 0.40863 0.01358 0.0
O21 O 0.07985 0.60805 0.98422 0.0
Mg22 Mg 0.96512 0.60996 0.94944 0.0
O23 O 0.05177 0.63972 0.01299 0.0
Mg24 Mg 0.91029 0.63173 0.00485 0.0
O25 O 0.91053 0.63748 0.92691 0.0
O26 O -0.00064 0.61652 0.88826 0.0
O27 O 0.76836 0.62349 -0.00147 0.0
O28 O 0.88176 0.66907 -0.00036 0.0
Mg29 Mg 0.81476 0.65099 0.08559 0.0
O30 O 0.91001 0.62933 0.07908 0.0
O31 O 0.70721 0.63724 0.05737 0.0
O32 O 0.84994 0.68213 0.06409 0.0
O33 O 0.85725 0.63885 0.14315 0.0
C34 C 0.90927 0.57757 0.99124 0.0
C35 C 0.10284 0.62421 0.00642 0.0
C36 C 0.94888 0.6329 0.89072 0.0
C37 C 0.70359 0.62691 0.022 0.0
C38 C 0.86485 0.68514 0.02429 0.0
C39 C 0.91099 0.62774 0.12087 0.0
O40 O 0.88918 0.5821 0.95282 0.0
O41 O 0.93186 0.59317 0.01593 0.0
O42 O 0.07404 0.67989 0.45184 0.0
Mg43 Mg 0.14955 0.65173 0.44405 0.0
O44 O 0.10336 0.66371 0.51178 0.0
Mg45 Mg 0.07268 0.62684 0.48974 0.0
O46 O 0.10267 0.62503 0.41324 0.0
O47 O 0.19058 0.64954 0.38279 0.0
O48 O 0.05282 0.58913 0.46565 0.0
O49 O 0.93247 0.63593 0.47252 0.0
Mg50 Mg 0.01567 0.60402 0.53046 0.0
O51 O 0.03853 0.63037 0.56736 0.0
O52 O 0.09833 0.57718 0.52721 0.0
O53 O 0.90508 0.60239 0.49091 0.0
O54 O 0.95708 0.60237 0.58836 0.0
C55 C 0.27348 0.63025 0.50096 0.0
C56 C 0.09517 0.68151 0.49098 0.0
C57 C 0.14613 0.63196 0.38008 0.0
C58 C 0.07773 0.57315 0.48862 0.0
C59 C 0.88113 0.61992 0.47354 0.0
C60 C 0.98815 0.62139 0.59557 0.0
O61 O 0.26076 0.64821 0.4823 0.0
O62 O 0.21183 0.61705 0.50579 0.0
O63 O 0.07519 0.39304 0.48468 0.0
Mg64 Mg 0.96618 0.39074 0.52601 0.0
O65 O 0.04419 0.3594 0.4701 0.0
Mg66 Mg 0.90453 0.3674 0.48995 0.0
O67 O 0.95131 0.3654 0.56665 0.0
O68 O 0.03122 0.39472 0.58098 0.0
O69 O 0.76472 0.3746 0.52048 0.0
O70 O 0.8808 0.33031 0.50355 0.0
Mg71 Mg 0.77428 0.36267 0.44938 0.0
O72 O 0.87651 0.36569 0.41223 0.0
O73 O 0.7222 0.3933 0.46594 0.0
O74 O 0.74802 0.33312 0.48373 0.0
O75 O 0.74527 0.35784 0.38767 0.0
C76 C 0.89335 0.42137 0.48878 0.0
C77 C 0.09852 0.37475 0.4705 0.0
C78 C 0.00358 0.37584 0.59194 0.0
C79 C 0.70804 0.38669 0.5036 0.0
C80 C 0.80655 0.32212 0.5012 0.0
C81 C 0.82312 0.36298 0.3803 0.0
O82 O 0.88044 0.41704 0.52799 0.0
O83 O 0.91517 0.40556 0.46472 0.0
O84 O 0.41246 0.89815 0.98945 0.0
Mg85 Mg 0.5406 0.89648 0.96466 0.0
O86 O 0.44496 0.86557 0.01081 0.0
Mg87 Mg 0.585 0.87273 0.00347 0.0
O88 O 0.57428 0.87207 0.92455 0.0
O89 O 0.51462 0.90315 0.90308 0.0
O90 O 0.73002 0.87747 -0.00304 0.0
O91 O 0.60022 0.8367 0.97534 0.0
Mg92 Mg 0.61803 0.84548 0.04747 0.0
O93 O 0.59443 0.87274 0.08129 0.0
O94 O 0.74048 0.84369 0.01951 0.0
O95 O 0.52324 0.82326 0.02618 0.0
O96 O 0.63739 0.84135 0.11124 0.0
C97 C 0.60305 0.92538 0.01265 0.0
C98 C 0.38908 0.87992 0.00434 0.0
C99 C 0.54559 0.88442 0.89386 0.0
C100 C 0.77462 0.86046 0.00311 0.0
C101 C 0.56136 0.82034 0.99085 0.0
C102 C 0.61649 0.86153 0.11514 0.0
O103 O 0.63242 0.92104 0.97603 0.0
O104 O 0.56756 0.90969 0.03242 0.0
O105 O 0.58363 0.11843 0.92755 0.0
Mg106 Mg 0.46362 0.11082 0.90343 0.0
O107 O 0.52611 0.13254 0.98589 0.0
Mg108 Mg 0.38138 0.12777 0.99463 0.0
O109 O 0.34585 0.1228 0.92324 0.0
O110 O 0.43351 0.1446 0.8922 0.0
O111 O 0.23845 0.12486 0.0096 0.0
O112 O 0.3582 0.16447 0.97511 0.0
Mg113 Mg 0.36683 0.15731 0.05241 0.0
O114 O 0.42123 0.1287 0.06907 0.0
O115 O 0.23267 0.15581 0.0458 0.0
O116 O 0.44024 0.18113 0.02009 0.0
O117 O 0.40069 0.15688 0.11459 0.0
C118 C 0.42627 0.07633 0.97792 0.0
C119 C 0.59099 0.12833 0.96306 0.0
C120 C 0.35889 0.13682 0.8932 0.0
C121 C 0.19551 0.1396 0.0287 0.0
C122 C 0.39661 0.18179 0.98612 0.0
C123 C 0.42855 0.13752 0.10713 0.0
O124 O 0.44699 0.08095 0.93914 0.0
O125 O 0.40072 0.09095 0.00411 0.0
O126 O 0.54666 0.17809 0.4903 0.0
Mg127 Mg 0.62862 0.15433 0.46428 0.0
O128 O 0.60393 0.15816 0.53996 0.0
Mg129 Mg 0.57336 0.12308 0.50695 0.0
O130 O 0.57872 0.12891 0.43105 0.0
O131 O 0.63885 0.15815 0.39986 0.0
O132 O 0.54885 0.08853 0.46663 0.0
O133 O 0.43165 0.13086 0.50388 0.0
Mg134 Mg 0.54876 0.09623 0.53733 0.0
O135 O 0.56132 0.117 0.58677 0.0
O136 O 0.62941 0.07166 0.51157 0.0
O137 O 0.42038 0.09577 0.51347 0.0
O138 O 0.52885 0.0819 0.59483 0.0
C139 C 0.77236 0.12994 0.50235 0.0
C140 C 0.57857 0.17689 0.52748 0.0
C141 C 0.60164 0.13949 0.39654 0.0
C142 C 0.58739 0.0711 0.47694 0.0
C143 C 0.38619 0.11379 0.50416 0.0
C144 C 0.53799 0.10087 0.61146 0.0
O145 O 0.7526 0.14898 0.49008 0.0
O146 O 0.71502 0.11562 0.50832 0.0
O147 O 0.53784 0.89983 0.47691 0.0
Mg148 Mg 0.42561 0.89643 0.51481 0.0
O149 O 0.52504 0.8651 0.4645 0.0
Mg150 Mg 0.38273 0.86989 0.47929 0.0
O151 O 0.41142 0.87166 0.55664 0.0
O152 O 0.4742 0.90325 0.57299 0.0
O153 O 0.23916 0.8747 0.49294 0.0
O154 O 0.37441 0.83301 0.49896 0.0
Mg155 Mg 0.26345 0.83975 0.40879 0.0
O156 O 0.35528 0.86217 0.41187 0.0
O157 O 0.1666 0.85573 0.44316 0.0
O158 O 0.31556 0.81389 0.44508 0.0
O159 O 0.31572 0.85024 0.34863 0.0
C160 C 0.35574 0.92394 0.46871 0.0
C161 C 0.5694 0.88236 0.46295 0.0
C162 C 0.44931 0.88415 0.58437 0.0
C163 C 0.16967 0.86822 0.47593 0.0
C164 C 0.35196 0.81495 0.48169 0.0
C165 C 0.36534 0.86245 0.37106 0.0
O166 O 0.33276 0.92087 0.50724 0.0
O167 O 0.38521 0.90745 0.44863 0.0
H168 H 0.38864 0.39831 0.00645 0.0
H169 H 0.35622 0.33061 0.97064 0.0
H170 H 0.5109 0.32572 0.96957 0.0
H171 H 0.59709 0.40728 0.94478 0.0
H172 H 0.63433 0.42489 0.9874 0.0
H173 H 0.52314 0.42375 0.97464 0.0
H174 H 0.49371 0.41484 0.05513 0.0
H175 H 0.60484 0.41426 0.0677 0.0
H176 H 0.53956 0.39078 0.07892 0.0
H177 H 0.66242 0.32599 0.9892 0.0
H178 H 0.8124 0.33445 0.00399 0.0
H179 H 0.74705 0.40214 0.02642 0.0
C180 C 0.41475 0.38296 -0.00438 0.0
C181 C 0.3622 0.36489 0.98816 0.0
C182 C 0.3969 0.34465 0.9757 0.0
C183 C 0.48429 0.34165 0.97561 0.0
C184 C 0.53488 0.35922 0.98749 0.0
C185 C 0.50204 0.37974 0.99533 0.0
C186 C 0.56996 0.39538 0.01027 0.0
C187 C 0.58187 0.41391 0.9773 0.0
C188 C 0.55082 0.40433 0.05569 0.0
C189 C 0.64512 0.38025 0.01093 0.0
C190 C 0.6232 0.35941 -0.0017 0.0
C191 C 0.68113 0.34237 -0.00196 0.0
C192 C 0.76566 0.34722 0.00729 0.0
C193 C 0.79047 0.36896 0.01571 0.0
C194 C 0.7291 0.38542 0.01977 0.0
H195 H 0.22638 0.65317 0.98606 0.0
H196 H 0.17254 0.59433 0.05864 0.0
H197 H 0.32544 0.58651 0.06369 0.0
H198 H 0.3827 0.6318 0.92243 0.0
H199 H 0.45166 0.65526 0.9218 0.0
H200 H 0.33956 0.65873 0.92948 0.0
H201 H 0.36348 0.67907 0.002 0.0
H202 H 0.4757 0.67698 0.99298 0.0
H203 H 0.43034 0.66696 0.04265 0.0
H204 H 0.48017 0.5828 0.05326 0.0
H205 H 0.6342 0.5886 0.04486 0.0
H206 H 0.5871 0.64905 0.9769 0.0
C207 C 0.24751 0.63927 0.00473 0.0
C208 C 0.1892 0.62441 0.0224 0.0
C209 C 0.21758 0.60593 0.04545 0.0
C210 C 0.3038 0.60123 0.04794 0.0
C211 C 0.35981 0.61521 0.02703 0.0
C212 C 0.33345 0.63425 0.00719 0.0
C213 C 0.40666 0.64612 0.98626 0.0
C214 C 0.39436 0.64808 0.93708 0.0
C215 C 0.41984 0.66861 0.00724 0.0
C216 C 0.47792 0.63068 -0.00286 0.0
C217 C 0.44924 0.6128 0.02014 0.0
C218 C 0.50364 0.59669 0.03527 0.0
C219 C 0.59059 0.59986 0.02969 0.0
C220 C 0.62095 0.61893 0.00937 0.0
C221 C 0.56434 0.63399 0.99114 0.0
H222 H 0.76896 0.65244 0.49379 0.0
H223 H 0.79026 0.5897 0.4306 0.0
H224 H 0.63567 0.58472 0.43527 0.0
H225 H 0.62122 0.63779 0.56852 0.0
H226 H 0.55851 0.66227 0.56766 0.0
H227 H 0.66877 0.66339 0.55315 0.0
H228 H 0.63277 0.6803 0.4786 0.0
H229 H 0.52272 0.6803 0.4938 0.0
H230 H 0.55539 0.66716 0.44451 0.0
H231 H 0.48465 0.58334 0.45883 0.0
H232 H 0.33652 0.5906 0.47973 0.0
H233 H 0.40996 0.65475 0.52525 0.0
C234 C 0.74035 0.63824 0.47893 0.0
C235 C 0.79111 0.62148 0.46162 0.0
C236 C 0.75204 0.60276 0.44371 0.0
C237 C 0.66447 0.59967 0.44668 0.0
C238 C 0.61676 0.6156 0.46725 0.0
C239 C 0.65243 0.63494 0.48147 0.0
C240 C 0.58658 0.64903 0.50355 0.0
C241 C 0.61022 0.65337 0.55103 0.0
C242 C 0.57359 0.67046 0.47862 0.0
C243 C 0.50935 0.63436 0.50028 0.0
C244 C 0.52859 0.61501 0.47987 0.0
C245 C 0.46836 0.59858 0.47423 0.0
C246 C 0.38472 0.60266 0.487 0.0
C247 C 0.36213 0.62314 0.50432 0.0
C248 C 0.42591 0.63884 0.51251 0.0
H249 H 0.57727 0.4136 0.48283 0.0
H250 H 0.63398 0.35213 0.54558 0.0
H251 H 0.48459 0.34087 0.53745 0.0
H252 H 0.35981 0.42004 0.52762 0.0
H253 H 0.32244 0.43192 0.47786 0.0
H254 H 0.43106 0.43558 0.49397 0.0
H255 H 0.47754 0.41984 0.41995 0.0
H256 H 0.36911 0.41508 0.40458 0.0
H257 H 0.44344 0.39287 0.4046 0.0
H258 H 0.33205 0.33442 0.51291 0.0
H259 H 0.18105 0.33725 0.49258 0.0
H260 H 0.22415 0.40322 0.44724 0.0
C261 C 0.55746 0.39816 0.49659 0.0
C262 C 0.6175 0.38379 0.51495 0.0
C263 C 0.58927 0.36357 0.53191 0.0
C264 C 0.50462 0.35686 0.52671 0.0
C265 C 0.44869 0.37073 0.50521 0.0
C266 C 0.47332 0.39129 0.49187 0.0
C267 C 0.40158 0.40301 0.46913 0.0
C268 C 0.37728 0.42387 0.49362 0.0
C269 C 0.42432 0.40799 0.42177 0.0
C270 C 0.33241 0.38591 0.47194 0.0
C271 C 0.36124 0.36721 0.49198 0.0
C272 C 0.30868 0.34911 0.4977 0.0
C273 C 0.22316 0.35073 0.48538 0.0
C274 C 0.19074 0.37045 0.46829 0.0
C275 C 0.24718 0.3879 0.45999 0.0
H276 H 0.88553 0.89496 0.99096 0.0
H277 H 0.87145 0.82429 -0.00209 0.0
H278 H 0.02623 0.82225 -0.00094 0.0
H279 H 0.08053 0.89628 0.9215 0.0
H280 H 0.12112 0.92018 0.94838 0.0
H281 H 0.0085 0.91606 0.94364 0.0
H282 H -0.00559 0.91978 0.02667 0.0
H283 H 0.10711 0.92331 0.032 0.0
H284 H 0.05401 0.90189 0.0614 0.0
H285 H 0.1777 0.82749 0.01061 0.0
H286 H 0.32553 0.83932 0.01663 0.0
H287 H 0.24852 0.90662 -0.00229 0.0
C288 C 0.91526 0.87909 0.99153 0.0
C289 C 0.86647 0.85984 0.99497 0.0
C290 C 0.90748 0.83932 -0.00414 0.0
C291 C -0.00453 0.83794 -0.00345 0.0
C292 C 0.04176 0.85719 -0.00441 0.0
C293 C 0.0038 0.87736 0.99181 0.0
C294 C 0.06968 0.89542 0.99216 0.0
C295 C 0.06999 0.90771 0.94883 0.0
C296 C 0.05544 0.91102 0.03034 0.0
C297 C 0.14991 0.88218 -0.00193 0.0
C298 C 0.13158 0.86019 0.0003 0.0
C299 C 0.19344 0.84461 0.00797 0.0
C300 C 0.27723 0.85156 0.01175 0.0
C301 C 0.29879 0.87388 0.00721 0.0
C302 C 0.23397 0.88945 0.001 0.0
H303 H 0.09093 0.11517 0.97718 0.0
H304 H 0.08909 0.16267 0.08104 0.0
H305 H 0.93317 0.16416 0.07748 0.0
H306 H 0.93315 0.1396 0.9151 0.0
H307 H 0.88542 0.11448 0.89708 0.0
H308 H -0.00407 0.11521 0.91107 0.0
H309 H 0.97336 0.08405 0.96651 0.0
H310 H 0.86285 0.08297 0.95225 0.0
H311 H 0.89373 0.08688 0.00782 0.0
H312 H 0.77738 0.16185 0.05992 0.0
H313 H 0.63424 0.15566 0.02969 0.0
H314 H 0.74032 0.11104 0.93543 0.0
C315 C 0.05766 0.12555 -0.00025 0.0
C316 C 0.10207 0.13873 0.02943 0.0
C317 C 0.05629 0.15241 0.05797 0.0
C318 C 0.96772 0.15335 0.05627 0.0
C319 C 0.92595 0.14057 0.02579 0.0
C320 C 0.96939 0.12687 -0.00182 0.0
C321 C 0.91008 0.11576 0.96674 0.0
C322 C 0.93249 0.12163 0.91973 0.0
C323 C 0.90999 0.09095 0.97377 0.0
C324 C 0.82684 0.12576 0.98029 0.0
C325 C 0.83695 0.13979 0.01479 0.0
C326 C 0.76866 0.15086 0.03293 0.0
C327 C 0.68776 0.14731 0.01551 0.0
C328 C 0.67634 0.13303 0.98004 0.0
C329 C 0.74708 0.12226 0.96223 0.0
H330 H 0.27276 0.14688 0.51902 0.0
H331 H 0.29541 0.08132 0.46786 0.0
H332 H 0.14063 0.07904 0.46007 0.0
H333 H 0.09509 0.13649 0.58254 0.0
H334 H 0.0434 0.16224 0.57356 0.0
H335 H 0.15688 0.16042 0.57001 0.0
H336 H 0.15348 0.17618 0.49232 0.0
H337 H 0.04006 0.17852 0.49597 0.0
H338 H 0.087 0.16352 0.45208 0.0
H339 H 0.98586 0.08154 0.46697 0.0
H340 H 0.83584 0.09084 0.47854 0.0
H341 H 0.90989 0.15513 0.52342 0.0
C342 C 0.24493 0.13233 0.50512 0.0
C343 C 0.29541 0.11423 0.49414 0.0
C344 C 0.25733 0.09527 0.47675 0.0
C345 C 0.16964 0.09383 0.47213 0.0
C346 C 0.12106 0.11149 0.48509 0.0
C347 C 0.15694 0.13055 0.50054 0.0
C348 C 0.08926 0.14654 0.51451 0.0
C349 C 0.09664 0.15172 0.56303 0.0
C350 C 0.09266 0.16742 0.48706 0.0
C351 C 0.01028 0.13329 0.50501 0.0
C352 C 0.03039 0.11309 0.48835 0.0
C353 C 0.96897 0.09741 0.47942 0.0
C354 C 0.88417 0.10273 0.48662 0.0
C355 C 0.86184 0.12363 0.50195 0.0
C356 C 0.92568 0.13905 0.51154 0.0
H357 H 0.68189 0.8505 0.48446 0.0
H358 H 0.66182 0.91443 0.42554 0.0
H359 H 0.81586 0.91984 0.43403 0.0
H360 H 0.83068 0.86516 0.5637 0.0
H361 H 0.89054 0.84023 0.56168 0.0
H362 H 0.7797 0.84008 0.54794 0.0
H363 H 0.81128 0.82356 0.4724 0.0
H364 H 0.92122 0.82239 0.48728 0.0
H365 H 0.89001 0.8363 0.43848 0.0
H366 H 0.96811 0.91981 0.45501 0.0
H367 H 0.11779 0.90966 0.4661 0.0
H368 H 0.03937 0.84592 0.51113 0.0
C369 C 0.71058 0.86525 0.47189 0.0
C370 C 0.66062 0.88211 0.4545 0.0
C371 C 0.69966 0.90139 0.43904 0.0
C372 C 0.78664 0.90473 0.44431 0.0
C373 C 0.83319 0.8886 0.46505 0.0
C374 C 0.79738 0.86892 0.47717 0.0
C375 C 0.86209 0.85419 0.49816 0.0
C376 C 0.83937 0.84965 0.54569 0.0
C377 C 0.87174 0.83286 0.47253 0.0
C378 C 0.94024 0.86844 0.49476 0.0
C379 C 0.92151 0.88851 0.4769 0.0
C380 C 0.98376 0.90417 0.46903 0.0
C381 C 0.06838 0.89845 0.47611 0.0
C382 C 0.08896 0.87719 0.48989 0.0
C383 C 0.02432 0.86245 0.50159 0.0
H384 H 0.9358 0.54458 0.93529 0.0
H385 H 0.931 0.55932 0.07236 0.0
H386 H 0.97725 0.52143 0.08844 0.0
H387 H 0.86479 0.48956 0.94 0.0
H388 H 0.93514 0.48098 0.89749 0.0
H389 H 0.89702 0.50856 0.89864 0.0
H390 H 0.05202 0.52275 0.89748 0.0
H391 H 0.09057 0.49518 0.89697 0.0
H392 H 0.12502 0.51375 0.93856 0.0
H393 H 0.02066 0.48027 0.08745 0.0
H394 H 0.06005 0.4421 0.06942 0.0
H395 H 0.04954 0.45844 0.93299 0.0
C396 C 0.94277 0.53985 0.96885 0.0
C397 C 0.92794 0.55471 0.00265 0.0
C398 C 0.94067 0.54799 0.04601 0.0
C399 C 0.96733 0.52658 0.05536 0.0
C400 C 0.98267 0.51243 0.02089 0.0
C401 C 0.97137 0.51903 0.97853 0.0
C402 C -0.00476 0.50154 0.94677 0.0
C403 C 0.91848 0.49476 0.91913 0.0
C404 C 0.07016 0.50875 0.9183 0.0
C405 C 0.0208 0.48378 0.97764 0.0
C406 C 0.01276 0.49003 0.02033 0.0
C407 C 0.02828 0.47539 0.05408 0.0
C408 C 0.05098 0.4538 0.0436 0.0
C409 C 0.0591 0.44734 -0.00018 0.0
C410 C 0.04549 0.4628 0.96684 0.0
H411 H 0.90634 0.45588 0.54241 0.0
H412 H 0.91879 0.43855 0.40666 0.0
H413 H 0.96615 0.4763 0.38937 0.0
H414 H 0.84223 0.51215 0.53189 0.0
H415 H 0.90934 0.52049 0.57605 0.0
H416 H 0.86523 0.49341 0.57522 0.0
H417 H 0.0165 0.47738 0.58231 0.0
H418 H 0.06119 0.50437 0.58229 0.0
H419 H 0.09592 0.48467 0.543 0.0
H420 H 0.01525 0.51736 0.38926 0.0
H421 H 0.06562 0.55488 0.40674 0.0
H422 H 0.03676 0.54068 0.54326 0.0
C423 C 0.9166 0.46001 0.50876 0.0
C424 C 0.90722 0.44435 0.47579 0.0
C425 C 0.92413 0.45043 0.4324 0.0
C426 C 0.95147 0.47178 0.42237 0.0
C427 C 0.96295 0.4866 0.45623 0.0
C428 C 0.94625 0.48073 0.49855 0.0
C429 C 0.97031 0.49842 0.53 0.0
C430 C 0.89213 0.50661 0.55472 0.0
C431 C 0.04011 0.49074 0.56121 0.0
C432 C 0.0033 0.51536 0.49905 0.0
C433 C -0.00245 0.50867 0.45649 0.0
C434 C 0.02098 0.52253 0.42257 0.0
C435 C 0.04996 0.54372 0.43271 0.0
C436 C 0.05736 0.55045 0.47638 0.0
C437 C 0.03446 0.53587 0.50959 0.0
H438 H 0.6374 0.9603 0.96225 0.0
H439 H 0.52272 0.94247 0.08475 0.0
H440 H 0.46705 0.98015 0.09184 0.0
H441 H 0.68859 0.01683 0.98393 0.0
H442 H 0.65844 0.02501 0.9301 0.0
H443 H 0.69922 0.99806 0.93948 0.0
H444 H 0.5647 0.98163 0.90407 0.0
H445 H 0.52249 0.00846 0.89543 0.0
H446 H 0.46206 0.98856 0.9253 0.0
H447 H 0.41614 0.02016 0.08141 0.0
H448 H 0.37736 0.05709 0.05518 0.0
H449 H 0.51523 0.04492 0.93634 0.0
C450 C 0.60282 0.96432 0.99137 0.0
C451 C 0.58545 0.94846 0.02326 0.0
C452 C 0.53797 0.95446 0.06022 0.0
C453 C 0.50562 0.97577 0.06431 0.0
C454 C 0.52051 0.99065 0.03088 0.0
C455 C 0.56816 0.98502 0.99517 0.0
C456 C 0.56866 0.00273 0.96134 0.0
C457 C 0.65909 0.01117 0.95328 0.0
C458 C 0.52699 0.99487 0.91907 0.0
C459 C 0.51478 0.01952 0.98363 0.0
C460 C 0.48764 0.01252 0.0238 0.0
C461 C 0.43711 0.02571 0.04995 0.0
C462 C 0.41503 0.0466 0.03473 0.0
C463 C 0.44244 0.05387 0.9935 0.0
C464 C 0.4922 0.03991 0.9678 0.0
H465 H 0.4843 0.04523 0.52282 0.0
H466 H 0.61109 0.04957 0.3991 0.0
H467 H 0.55232 0.01318 0.37894 0.0
H468 H 0.5166 0.98964 0.54195 0.0
H469 H 0.41478 0.98518 0.56673 0.0
H470 H 0.46343 0.01168 0.56911 0.0
H471 H 0.32982 0.02869 0.53429 0.0
H472 H 0.28093 0.00216 0.53158 0.0
H473 H 0.29174 0.01839 0.48329 0.0
H474 H 0.48885 0.97414 0.37673 0.0
H475 H 0.42764 0.93768 0.39186 0.0
H476 H 0.33461 0.96135 0.51502 0.0
C477 C 0.49932 0.03852 0.49136 0.0
C478 C 0.55291 0.0499 0.46262 0.0
C479 C 0.57059 0.0409 0.42158 0.0
C480 C 0.5372 0.02034 0.40994 0.0
C481 C 0.48486 0.00937 0.43939 0.0
C482 C 0.46544 0.01839 0.4791 0.0
C483 C 0.40982 0.00341 0.50572 0.0
C484 C 0.45381 0.9971 0.54837 0.0
C485 C 0.32293 0.01379 0.51419 0.0
C486 C 0.4024 0.98416 0.47541 0.0
C487 C 0.4458 0.98778 0.43724 0.0
C488 C 0.45332 0.97138 0.40614 0.0
C489 C 0.4178 0.95072 0.41486 0.0
C490 C 0.37488 0.94661 0.45431 0.0
C491 C 0.36518 0.96392 0.4841 0.0
H492 H 0.23973 0.29661 0.04876 0.0
H493 H 0.04418 0.29087 0.95125 0.0
H494 H 0.11618 0.25806 0.92154 0.0
H495 H 0.41603 0.27962 0.97821 0.0
H496 H 0.469 0.26587 0.02201 0.0
H497 H 0.40496 0.28951 0.03274 0.0
H498 H 0.31539 0.26739 0.08803 0.0
H499 H 0.38054 0.24403 0.07812 0.0
H500 H 0.26747 0.24205 0.07133 0.0
H501 H 0.20131 0.22321 0.91007 0.0
H502 H 0.28601 0.18973 0.91929 0.0
H503 H 0.43307 0.22162 0.01951 0.0
C504 C 0.21184 0.28835 0.02124 0.0
C505 C 0.13542 0.29562 0.00291 0.0
C506 C 0.10196 0.28505 0.9661 0.0
C507 C 0.14293 0.26667 0.94886 0.0
C508 C 0.2186 0.25982 0.96796 0.0
C509 C 0.25299 0.27059 0.00307 0.0
C510 C 0.33255 0.25977 0.01922 0.0
C511 C 0.4102 0.27458 0.01263 0.0
C512 C 0.32335 0.25289 0.06695 0.0
C513 C 0.33531 0.24035 0.98942 0.0
C514 C 0.26996 0.24072 0.95959 0.0
C515 C 0.25376 0.223 0.93258 0.0
C516 C 0.30244 0.20407 0.93794 0.0
C517 C 0.36608 0.20307 0.97021 0.0
C518 C 0.38574 0.22193 0.99418 0.0
H519 H 0.63755 0.79665 0.05139 0.0
H520 H 0.58194 0.79755 0.91429 0.0
H521 H 0.66923 0.76408 0.9047 0.0
H522 H 0.85535 0.78146 0.03834 0.0
H523 H 0.85653 0.76567 0.0875 0.0
H524 H 0.78729 0.78881 0.08269 0.0
H525 H 0.65709 0.76452 0.1008 0.0
H526 H 0.72616 0.74153 0.10689 0.0
H527 H 0.63832 0.74013 0.06977 0.0
H528 H 0.75849 0.72875 0.9134 0.0
H529 H 0.8336 0.69577 0.93898 0.0
H530 H 0.84151 0.72269 0.06852 0.0
C531 C 0.64184 0.78951 0.01943 0.0
C532 C 0.60055 0.79899 0.98381 0.0
C533 C 0.61124 0.78996 0.94213 0.0
C534 C 0.6614 0.7712 0.93643 0.0
C535 C 0.70257 0.76244 0.97253 0.0
C536 C 0.69354 0.77157 0.01307 0.0
C537 C 0.74526 0.75994 0.04679 0.0
C538 C 0.81524 0.77486 0.06487 0.0
C539 C 0.68831 0.75099 0.08317 0.0
C540 C 0.78205 0.74198 0.0196 0.0
C541 C 0.75776 0.74362 0.97673 0.0
C542 C 0.77892 0.72756 0.94672 0.0
C543 C 0.82226 0.70895 0.96147 0.0
C544 C 0.84358 0.70667 0.0058 0.0
C545 C 0.82673 0.72397 0.03442 0.0
H546 H 0.08147 0.71767 0.54503 0.0
H547 H 0.24743 0.68523 0.4545 0.0
H548 H 0.35801 0.71214 0.46772 0.0
H549 H 0.11569 0.76719 0.50342 0.0
H550 H 0.11289 0.78273 0.55287 0.0
H551 H 0.05951 0.75697 0.55002 0.0
H552 H 0.14463 0.74385 0.61671 0.0
H553 H 0.19996 0.7696 0.61884 0.0
H554 H 0.25864 0.74453 0.61548 0.0
H555 H 0.4388 0.74465 0.47683 0.0
H556 H 0.46659 0.78369 0.46597 0.0
H557 H 0.24828 0.79948 0.54388 0.0
C558 C 0.1424 0.71602 0.52941 0.0
C559 C 0.15796 0.69863 0.50075 0.0
C560 C 0.23627 0.69754 0.47876 0.0
C561 C 0.29976 0.71287 0.48604 0.0
C562 C 0.28344 0.72992 0.51429 0.0
C563 C 0.20592 0.73199 0.53492 0.0
C564 C 0.19783 0.75449 0.55482 0.0
C565 C 0.11678 0.76602 0.53928 0.0
C566 C 0.20042 0.75302 0.60441 0.0
C567 C 0.27785 0.76532 0.5376 0.0
C568 C 0.32909 0.75029 0.51712 0.0
C569 C 0.40069 0.75653 0.49371 0.0
C570 C 0.41658 0.77875 0.48791 0.0
C571 C 0.36068 0.79435 0.50505 0.0
C572 C 0.29364 0.78767 0.53223 0.0
H573 H 0.65236 0.30214 0.50119 0.0
H574 H 0.9139 0.29173 0.53848 0.0
H575 H 0.87687 0.25424 0.56224 0.0
H576 H 0.55297 0.26926 0.58761 0.0
H577 H 0.47174 0.25936 0.55164 0.0
H578 H 0.51698 0.28606 0.54347 0.0
H579 H 0.5567 0.27577 0.46484 0.0
H580 H 0.51076 0.24926 0.47264 0.0
H581 H 0.6192 0.25173 0.45518 0.0
H582 H 0.81164 0.21641 0.57525 0.0
H583 H 0.73096 0.18195 0.5689 0.0
H584 H 0.51382 0.21783 0.52197 0.0
C585 C 0.70202 0.29218 0.51495 0.0
C586 C 0.78621 0.29996 0.51797 0.0
C587 C 0.84894 0.2862 0.53592 0.0
C588 C 0.82827 0.26491 0.54972 0.0
C589 C 0.74449 0.25773 0.54575 0.0
C590 C 0.68256 0.27106 0.5287 0.0
C591 C 0.59909 0.25913 0.52384 0.0
C592 C 0.53121 0.26905 0.55341 0.0
C593 C 0.56982 0.25895 0.47632 0.0
C594 C 0.62409 0.23663 0.53914 0.0
C595 C 0.70756 0.23618 0.55272 0.0
C596 C 0.74594 0.21672 0.56536 0.0
C597 C 0.69922 0.19719 0.56209 0.0
C598 C 0.61553 0.19722 0.54549 0.0
C599 C 0.57694 0.21735 0.5356 0.0
H600 H 0.12784 0.39491 0.19185 0.0
H601 H 0.92517 0.37686 0.10494 0.0
H602 H 0.82288 0.37985 0.16448 0.0
H603 H 0.09006 0.36501 0.26777 0.0
H604 H 0.10614 0.38171 0.31502 0.0
H605 H 0.15719 0.38884 0.26531 0.0
H606 H 0.08959 0.42706 0.26536 0.0
H607 H 0.04134 0.42067 0.31671 0.0
H608 H 0.97687 0.42979 0.27221 0.0
H609 H 0.75951 0.36984 0.23393 0.0
H610 H 0.72784 0.35721 0.30753 0.0
H611 H 0.97006 0.38226 0.35185 0.0
C612 C 0.06093 0.39325 0.18499 0.0
C613 C 0.03387 0.38557 0.14433 0.0
C614 C 0.94665 0.38302 0.13587 0.0
C615 C 0.88816 0.38454 0.16971 0.0
C616 C 0.91823 0.38938 0.21107 0.0
C617 C 0.00206 0.39494 0.21853 0.0
C618 C 0.02101 0.39601 0.26662 0.0
C619 C 0.09805 0.38203 0.27935 0.0
C620 C 0.03287 0.4198 0.28107 0.0
C621 C 0.93954 0.38675 0.28449 0.0
C622 C 0.88003 0.38384 0.25215 0.0
C623 C 0.80407 0.37296 0.25979 0.0
C624 C 0.78736 0.3655 0.30167 0.0
C625 C 0.84662 0.36877 0.33554 0.0
C626 C 0.92358 0.37955 0.32667 0.0
H627 H 0.87718 0.60103 0.18704 0.0
H628 H 0.08211 0.62664 0.10977 0.0
H629 H 0.18285 0.61804 0.1682 0.0
H630 H 0.91244 0.62526 0.27098 0.0
H631 H 0.8911 0.60513 0.31213 0.0
H632 H 0.84424 0.60227 0.25994 0.0
H633 H 0.90971 0.56404 0.25102 0.0
H634 H 0.95568 0.56645 0.30423 0.0
H635 H 0.02187 0.5603 0.25844 0.0
H636 H 0.24401 0.62172 0.24026 0.0
H637 H 0.26301 0.63367 0.31546 0.0
H638 H 0.02029 0.60561 0.34953 0.0
C639 C 0.94431 0.60335 0.18167 0.0
C640 C 0.9726 0.61435 0.14436 0.0
C641 C 0.05989 0.61782 0.13794 0.0
C642 C 0.11738 0.61303 0.1712 0.0
C643 C 0.08622 0.60444 0.21003 0.0
C644 C 0.00172 0.59878 0.21481 0.0
C645 C 0.97999 0.59433 0.26181 0.0
C646 C 0.90256 0.60757 0.27704 0.0
C647 C 0.96603 0.56982 0.26931 0.0
C648 C 0.06088 0.60186 0.28332 0.0
C649 C 0.12287 0.60652 0.25291 0.0
C650 C 0.19731 0.61732 0.26435 0.0
C651 C 0.20714 0.62429 0.30715 0.0
C652 C 0.14273 0.62054 0.33812 0.0
C653 C 0.07092 0.60824 0.32653 0.0
H654 H 0.06044 0.65109 0.83512 0.0
H655 H 0.79426 0.63775 0.85399 0.0
H656 H 0.76921 0.64284 0.77586 0.0
H657 H 0.02298 0.69082 0.73362 0.0
H658 H 0.12019 0.68112 0.71021 0.0
H659 H 0.11173 0.68451 0.76798 0.0
H660 H 0.15735 0.64447 0.77841 0.0
H661 H 0.16404 0.6407 0.72115 0.0
H662 H 0.09702 0.62302 0.75288 0.0
H663 H 0.78255 0.63624 0.69785 0.0
H664 H 0.82886 0.62353 0.62623 0.0
H665 H 0.0858 0.64355 0.6547 0.0
C666 C -0.00379 0.65073 0.82293 0.0
C667 C 0.92898 0.64436 0.85023 0.0
C668 C 0.84595 0.64318 0.8336 0.0
C669 C 0.8314 0.64597 0.78918 0.0
C670 C 0.90024 0.65064 0.7623 0.0
C671 C 0.98071 0.65398 0.77877 0.0
C672 C 0.04561 0.65583 0.74268 0.0
C673 C 0.07696 0.67947 0.73837 0.0
C674 C 0.12024 0.64004 0.7492 0.0
C675 C -0.00834 0.6496 0.70412 0.0
C676 C 0.90732 0.64755 0.71591 0.0
C677 C 0.84752 0.63868 0.68784 0.0
C678 C 0.8746 0.63131 0.64735 0.0
C679 C 0.96071 0.63285 0.63503 0.0
C680 C 0.01934 0.64283 0.66309 0.0
H681 H 0.91895 0.35001 0.65057 0.0
H682 H 0.15843 0.38236 0.6265 0.0
H683 H 0.20549 0.37378 0.70022 0.0
H684 H 0.88059 0.37055 0.74537 0.0
H685 H 0.83722 0.34689 0.77214 0.0
H686 H 0.83326 0.34878 0.71441 0.0
H687 H 0.91174 0.31193 0.70801 0.0
H688 H 0.91596 0.30995 0.7662 0.0
H689 H 0.01187 0.3083 0.73491 0.0
H690 H 0.21605 0.369 0.7787 0.0
H691 H 0.18178 0.37243 0.85618 0.0
H692 H 0.93253 0.34566 0.83229 0.0
C693 C 0.98256 0.35432 0.66044 0.0
C694 C 0.03514 0.36666 0.63296 0.0
C695 C 0.11716 0.37279 0.64713 0.0
C696 C 0.14496 0.36778 0.68886 0.0
C697 C 0.09035 0.35646 0.71615 0.0
C698 C 0.0109 0.34967 0.70252 0.0
C699 C 0.95927 0.34125 0.74029 0.0
C700 C 0.87259 0.35258 0.74322 0.0
C701 C 0.94909 0.31638 0.73717 0.0
C702 C 0.0172 0.34725 0.7776 0.0
C703 C 0.0949 0.35453 0.76277 0.0
C704 C 0.15646 0.36276 0.7908 0.0
C705 C 0.13671 0.36458 0.8348 0.0
C706 C 0.05521 0.35895 0.84985 0.0
C707 C -0.00405 0.34948 0.82133 0.0
H708 H 0.66084 0.8422 0.19062 0.0
H709 H 0.56389 0.9026 0.13782 0.0
H710 H 0.53267 0.91544 0.2115 0.0
H711 H 0.50439 0.83263 0.25257 0.0
H712 H 0.55964 0.82051 0.29756 0.0
H713 H 0.60634 0.82004 0.24508 0.0
H714 H 0.74011 0.83924 0.27527 0.0
H715 H 0.69285 0.83987 0.32832 0.0
H716 H 0.73039 0.86473 0.30374 0.0
H717 H 0.46799 0.91628 0.28271 0.0
H718 H 0.37293 0.90404 0.34124 0.0
H719 H 0.51129 0.84377 0.35135 0.0
C720 C 0.63621 0.85851 0.19474 0.0
C721 C 0.61385 0.87131 0.15866 0.0
C722 C 0.58122 0.89247 0.16509 0.0
C723 C 0.56415 0.89998 0.20696 0.0
C724 C 0.58098 0.88626 0.24196 0.0
C725 C 0.61771 0.86599 0.23623 0.0
C726 C 0.61134 0.85221 0.27668 0.0
C727 C 0.56775 0.8301 0.26738 0.0
C728 C 0.6989 0.84884 0.29722 0.0
C729 C 0.55694 0.86686 0.30435 0.0
C730 C 0.5433 0.88688 0.28465 0.0
C731 C 0.48077 0.90113 0.29936 0.0
C732 C 0.42697 0.89414 0.33262 0.0
C733 C 0.437 0.87323 0.35062 0.0
C734 C 0.50556 0.86013 0.33853 0.0
H735 H 0.56714 0.15201 0.14681 0.0
H736 H 0.38288 0.09983 0.14832 0.0
H737 H 0.43048 0.08922 0.22179 0.0
H738 H 0.73457 0.12518 0.2209 0.0
H739 H 0.75533 0.15131 0.24534 0.0
H740 H 0.72715 0.14969 0.18894 0.0
H741 H 0.60473 0.17679 0.20268 0.0
H742 H 0.63047 0.17806 0.25901 0.0
H743 H 0.52531 0.1702 0.24251 0.0
H744 H 0.47098 0.09102 0.30051 0.0
H745 H 0.506 0.10351 0.3745 0.0
H746 H 0.66211 0.15503 0.32045 0.0
C747 C 0.54057 0.13756 0.16182 0.0
C748 C 0.47287 0.12643 0.14227 0.0
C749 C 0.43647 0.10812 0.16279 0.0
C750 C 0.46302 0.10209 0.20449 0.0
C751 C 0.52652 0.11442 0.22445 0.0
C752 C 0.56624 0.13151 0.20319 0.0
C753 C 0.62113 0.14473 0.23343 0.0
C754 C 0.71513 0.14258 0.22144 0.0
C755 C 0.59368 0.16884 0.23446 0.0
C756 C 0.60186 0.13341 0.2756 0.0
C757 C 0.54881 0.11567 0.26993 0.0
C758 C 0.51445 0.10448 0.30517 0.0
C759 C 0.53412 0.11178 0.34706 0.0
C760 C 0.58648 0.1303 0.35314 0.0
C761 C 0.62216 0.14077 0.31689 0.0
H762 H 0.36667 0.16218 0.82075 0.0
H763 H 0.28735 0.09839 0.8661 0.0
H764 H 0.31949 0.08299 0.79502 0.0
H765 H 0.29692 0.15144 0.6991 0.0
H766 H 0.3853 0.16766 0.68091 0.0
H767 H 0.33053 0.1748 0.73002 0.0
H768 H 0.47406 0.17387 0.77012 0.0
H769 H 0.5289 0.16531 0.72221 0.0
H770 H 0.53475 0.14902 0.77066 0.0
H771 H 0.40864 0.07269 0.73351 0.0
H772 H 0.49484 0.06905 0.66825 0.0
H773 H 0.50733 0.13957 0.65599 0.0
C774 C 0.35035 0.1453 0.81467 0.0
C775 C 0.32733 0.13137 0.84938 0.0
C776 C 0.30632 0.10938 0.84042 0.0
C777 C 0.32542 0.10037 0.80009 0.0
C778 C 0.36071 0.11387 0.76861 0.0
C779 C 0.36789 0.13612 0.77417 0.0
C780 C 0.41384 0.14653 0.73607 0.0
C781 C 0.35303 0.16096 0.70997 0.0
C782 C 0.49253 0.15943 0.75069 0.0
C783 C 0.43841 0.12641 0.71062 0.0
C784 C 0.40704 0.10782 0.73027 0.0
C785 C 0.42957 0.08713 0.71643 0.0
C786 C 0.47988 0.08529 0.67955 0.0
C787 C 0.50619 0.10402 0.6561 0.0
C788 C 0.48731 0.12493 0.67272 0.0
H789 H 0.46429 0.91112 0.65137 0.0
H790 H 0.4659 0.84244 0.61894 0.0
H791 H 0.50011 0.83354 0.69578 0.0
H792 H 0.63627 0.91114 0.72362 0.0
H793 H 0.58823 0.93102 0.75865 0.0
H794 H 0.56362 0.93092 0.70186 0.0
H795 H 0.40304 0.92751 0.7195 0.0
H796 H 0.4271 0.92784 0.77632 0.0
H797 H 0.36693 0.9056 0.75375 0.0
H798 H 0.5345 0.8337 0.78 0.0
H799 H 0.55508 0.84279 0.85798 0.0
H800 H 0.53461 0.91145 0.82653 0.0
C801 C 0.47192 0.89414 0.66012 0.0
C802 C 0.46289 0.87749 0.62947 0.0
C803 C 0.47211 0.85545 0.64237 0.0
C804 C 0.49211 0.85031 0.68573 0.0
C805 C 0.50205 0.86744 0.71514 0.0
C806 C 0.49147 0.88887 0.70238 0.0
C807 C 0.50282 0.90467 0.7388 0.0
C808 C 0.57717 0.92035 0.7302 0.0
C809 C 0.42009 0.91712 0.74761 0.0
C810 C 0.52271 0.88902 0.77455 0.0
C811 C 0.52195 0.86753 0.76115 0.0
C812 C 0.53551 0.85051 0.7905 0.0
C813 C 0.5477 0.85578 0.83456 0.0
C814 C 0.54602 0.87782 0.84814 0.0
C815 C 0.53577 0.89442 0.81735 0.0
loop_
_geom_bond_atom_site_label_1
_geom_bond_atom_site_label_2
_geom_bond_distance
_geom_bond_site_symmetry_2
_ccdc_geom_bond_type
O0 Mg1 1.990 . S
O0 C14 1.253 . S
Mg1 O0 1.990 . S
Mg1 O4 2.180 1_655 S
Mg1 O5 2.117 . S
Mg1 O19 2.030 . S
O2 Mg3 2.072 1_655 S
O2 C14 1.260 1_554 S
Mg3 O2 2.072 1_455 S
Mg3 O4 2.098 1_554 S
Mg3 O6 2.079 1_554 S
Mg3 O7 2.072 1_554 S
Mg3 O9 2.099 . S
Mg3 O20 2.079 . S
O4 Mg1 2.180 1_455 S
O4 Mg3 2.098 1_556 S
O4 C15 1.279 . S
O5 Mg1 2.117 . S
O5 C15 1.250 1_655 S
O6 Mg3 2.079 1_556 S
O6 C16 1.264 1_556 S
O7 Mg3 2.072 1_556 S
O7 C17 1.260 1_556 S
Mg8 O9 2.180 . S
Mg8 O10 2.030 . S
Mg8 O11 1.990 . S
Mg8 O12 2.117 . S
O9 Mg3 2.099 . S
O9 Mg8 2.180 . S
O9 C18 1.279 . S
O10 Mg8 2.030 . S
O10 C16 1.248 . S
O11 Mg8 1.990 . S
O11 C17 1.253 . S
O12 Mg8 2.117 . S
O12 C18 1.250 . S
C13 O19 1.248 1_455 S
C13 O20 1.264 1_556 S
C14 O0 1.253 . S
C14 O2 1.260 1_556 S
C15 O4 1.279 . S
C15 O5 1.250 1_455 S
C16 O6 1.264 1_554 S
C16 O10 1.248 . S
C17 O7 1.260 1_554 S
C17 O11 1.253 . S
C18 O9 1.279 . S
C18 O12 1.250 . S
O19 Mg1 2.030 . S
O19 C13 1.248 1_655 S
O20 Mg3 2.079 . S
O20 C13 1.264 1_554 S
O21 Mg22 1.990 . S
O21 C35 1.253 . S
Mg22 O21 1.990 . S
Mg22 O25 2.180 1_455 S
Mg22 O26 2.117 . S
Mg22 O40 2.030 . S
O23 Mg24 2.072 1_455 S
O23 C35 1.260 1_554 S
Mg24 O23 2.072 1_655 S
Mg24 O25 2.098 1_554 S
Mg24 O27 2.079 1_554 S
Mg24 O28 2.072 1_554 S
Mg24 O30 2.099 . S
Mg24 O41 2.079 . S
O25 Mg22 2.180 1_655 S
O25 Mg24 2.098 1_556 S
O25 C36 1.279 . S
O26 Mg22 2.117 . S
O26 C36 1.250 1_455 S
O27 Mg24 2.079 1_556 S
O27 C37 1.264 1_556 S
O28 Mg24 2.072 1_556 S
O28 C38 1.260 1_556 S
Mg29 O30 2.180 . S
Mg29 O31 2.030 . S
Mg29 O32 1.990 . S
Mg29 O33 2.117 . S
O30 Mg24 2.099 . S
O30 Mg29 2.180 . S
O30 C39 1.279 . S
O31 Mg29 2.030 . S
O31 C37 1.248 . S
O32 Mg29 1.990 . S
O32 C38 1.253 . S
O33 Mg29 2.117 . S
O33 C39 1.250 . S
C34 O40 1.248 1_655 S
C34 O41 1.264 1_556 S
C35 O21 1.253 . S
C35 O23 1.260 1_556 S
C36 O25 1.279 . S
C36 O26 1.250 1_655 S
C37 O27 1.264 1_554 S
C37 O31 1.248 . S
C38 O28 1.260 1_554 S
C38 O32 1.253 . S
C39 O30 1.279 . S
C39 O33 1.250 . S
O40 Mg22 2.030 . S
O40 C34 1.248 1_455 S
O41 Mg24 2.079 . S
O41 C34 1.264 1_554 S
O42 Mg43 1.990 . S
O42 C56 1.253 . S
Mg43 O42 1.990 . S
Mg43 O46 2.180 . S
Mg43 O47 2.117 . S
Mg43 O61 2.030 . S
O44 Mg45 2.072 . S
O44 C56 1.260 . S
Mg45 O44 2.072 . S
Mg45 O46 2.099 . S
Mg45 O48 2.079 . S
Mg45 O49 2.072 1_455 S
Mg45 O51 2.099 . S
Mg45 O62 2.079 . S
O46 Mg43 2.180 . S
O46 Mg45 2.099 . S
O46 C57 1.279 . S
O47 Mg43 2.117 . S
O47 C57 1.250 . S
O48 Mg45 2.079 . S
O48 C58 1.264 . S
O49 Mg45 2.072 1_655 S
O49 C59 1.260 . S
Mg50 O51 2.180 1_655 S
Mg50 O52 2.030 . S
Mg50 O53 1.990 . S
Mg50 O54 2.117 . S
O51 Mg45 2.099 . S
O51 Mg50 2.180 1_455 S
O51 C60 1.279 . S
O52 Mg50 2.030 . S
O52 C58 1.248 1_655 S
O53 Mg50 1.990 . S
O53 C59 1.253 . S
O54 Mg50 2.117 . S
O54 C60 1.250 1_655 S
C55 O61 1.248 . S
C55 O62 1.264 . S
C56 O42 1.253 . S
C56 O44 1.260 . S
C57 O46 1.279 . S
C57 O47 1.250 . S
C58 O48 1.264 . S
C58 O52 1.248 1_455 S
C59 O49 1.260 . S
C59 O53 1.253 . S
C60 O51 1.279 . S
C60 O54 1.250 1_455 S
O61 Mg43 2.030 . S
O61 C55 1.248 . S
O62 Mg45 2.079 . S
O62 C55 1.264 . S
O63 Mg64 1.990 . S
O63 C77 1.253 . S
Mg64 O63 1.990 . S
Mg64 O67 2.180 1_455 S
Mg64 O68 2.117 . S
Mg64 O82 2.030 . S
O65 Mg66 2.072 1_455 S
O65 C77 1.260 . S
Mg66 O65 2.072 1_655 S
Mg66 O67 2.099 . S
Mg66 O69 2.079 . S
Mg66 O70 2.072 . S
Mg66 O72 2.099 . S
Mg66 O83 2.079 . S
O67 Mg64 2.180 1_655 S
O67 Mg66 2.099 . S
O67 C78 1.279 . S
O68 Mg64 2.117 . S
O68 C78 1.250 1_455 S
O69 Mg66 2.079 . S
O69 C79 1.264 . S
O70 Mg66 2.072 . S
O70 C80 1.260 . S
Mg71 O72 2.180 . S
Mg71 O73 2.030 . S
Mg71 O74 1.990 . S
Mg71 O75 2.117 . S
O72 Mg66 2.099 . S
O72 Mg71 2.180 . S
O72 C81 1.279 . S
O73 Mg71 2.030 . S
O73 C79 1.248 . S
O74 Mg71 1.990 . S
O74 C80 1.253 . S
O75 Mg71 2.117 . S
O75 C81 1.250 . S
C76 O82 1.248 1_655 S
C76 O83 1.264 . S
C77 O63 1.253 . S
C77 O65 1.260 . S
C78 O67 1.279 . S
C78 O68 1.250 1_655 S
C79 O69 1.264 . S
C79 O73 1.248 . S
C80 O70 1.260 . S
C80 O74 1.253 . S
C81 O72 1.279 . S
C81 O75 1.250 . S
O82 Mg64 2.030 . S
O82 C76 1.248 1_455 S
O83 Mg66 2.079 . S
O83 C76 1.264 . S
O84 Mg85 1.990 . S
O84 C98 1.253 . S
Mg85 O84 1.990 . S
Mg85 O88 2.180 . S
Mg85 O89 2.117 . S
Mg85 O103 2.030 . S
O86 Mg87 2.072 . S
O86 C98 1.260 1_554 S
Mg87 O86 2.072 . S
Mg87 O88 2.098 1_554 S
Mg87 O90 2.079 1_554 S
Mg87 O91 2.072 1_554 S
Mg87 O93 2.099 . S
Mg87 O104 2.079 . S
O88 Mg85 2.180 . S
O88 Mg87 2.098 1_556 S
O88 C99 1.279 . S
O89 Mg85 2.117 . S
O89 C99 1.250 . S
O90 Mg87 2.079 1_556 S
O90 C100 1.264 1_556 S
O91 Mg87 2.072 1_556 S
O91 C101 1.260 1_556 S
Mg92 O93 2.180 . S
Mg92 O94 2.030 . S
Mg92 O95 1.990 . S
Mg92 O96 2.117 . S
O93 Mg87 2.099 . S
O93 Mg92 2.180 . S
O93 C102 1.279 . S
O94 Mg92 2.030 . S
O94 C100 1.248 . S
O95 Mg92 1.990 . S
O95 C101 1.253 . S
O96 Mg92 2.117 . S
O96 C102 1.250 . S
C97 O103 1.248 . S
C97 O104 1.264 1_556 S
C98 O84 1.253 . S
C98 O86 1.260 1_556 S
C99 O88 1.279 . S
C99 O89 1.250 . S
C100 O90 1.264 1_554 S
C100 O94 1.248 . S
C101 O91 1.260 1_554 S
C101 O95 1.253 . S
C102 O93 1.279 . S
C102 O96 1.250 . S
O103 Mg85 2.030 . S
O103 C97 1.248 . S
O104 Mg87 2.079 . S
O104 C97 1.264 1_554 S
O105 Mg106 1.990 . S
O105 C119 1.253 . S
Mg106 O105 1.990 . S
Mg106 O109 2.180 . S
Mg106 O110 2.117 . S
Mg106 O124 2.030 . S
O107 Mg108 2.072 . S
O107 C119 1.260 1_554 S
Mg108 O107 2.072 . S
Mg108 O109 2.098 1_554 S
Mg108 O111 2.079 1_554 S
Mg108 O112 2.072 1_554 S
Mg108 O114 2.099 . S
Mg108 O125 2.079 . S
O109 Mg106 2.180 . S
O109 Mg108 2.098 1_556 S
O109 C120 1.279 . S
O110 Mg106 2.117 . S
O110 C120 1.250 . S
O111 Mg108 2.079 1_556 S
O111 C121 1.264 1_556 S
O112 Mg108 2.072 1_556 S
O112 C122 1.260 1_556 S
Mg113 O114 2.180 . S
Mg113 O115 2.030 . S
Mg113 O116 1.990 . S
Mg113 O117 2.117 . S
O114 Mg108 2.099 . S
O114 Mg113 2.180 . S
O114 C123 1.279 . S
O115 Mg113 2.030 . S
O115 C121 1.248 . S
O116 Mg113 1.990 . S
O116 C122 1.253 . S
O117 Mg113 2.117 . S
O117 C123 1.250 . S
C118 O124 1.248 . S
C118 O125 1.264 1_556 S
C119 O105 1.253 . S
C119 O107 1.260 1_556 S
C120 O109 1.279 . S
C120 O110 1.250 . S
C121 O111 1.264 1_554 S
C121 O115 1.248 . S
C122 O112 1.260 1_554 S
C122 O116 1.253 . S
C123 O114 1.279 . S
C123 O117 1.250 . S
O124 Mg106 2.030 . S
O124 C118 1.248 . S
O125 Mg108 2.079 . S
O125 C118 1.264 1_554 S
O126 Mg127 1.990 . S
O126 C140 1.253 . S
Mg127 O126 1.990 . S
Mg127 O130 2.180 . S
Mg127 O131 2.117 . S
Mg127 O145 2.030 . S
O128 Mg129 2.072 . S
O128 C140 1.260 . S
Mg129 O128 2.072 . S
Mg129 O130 2.099 . S
Mg129 O132 2.079 . S
Mg129 O133 2.072 . S
Mg129 O135 2.099 . S
Mg129 O146 2.079 . S
O130 Mg127 2.180 . S
O130 Mg129 2.099 . S
O130 C141 1.279 . S
O131 Mg127 2.117 . S
O131 C141 1.250 . S
O132 Mg129 2.079 . S
O132 C142 1.264 . S
O133 Mg129 2.072 . S
O133 C143 1.260 . S
Mg134 O135 2.180 . S
Mg134 O136 2.030 . S
Mg134 O137 1.990 . S
Mg134 O138 2.117 . S
O135 Mg129 2.099 . S
O135 Mg134 2.180 . S
O135 C144 1.279 . S
O136 Mg134 2.030 . S
O136 C142 1.248 . S
O137 Mg134 1.990 . S
O137 C143 1.253 . S
O138 Mg134 2.117 . S
O138 C144 1.250 . S
C139 O145 1.248 . S
C139 O146 1.264 . S
C140 O126 1.253 . S
C140 O128 1.260 . S
C141 O130 1.279 . S
C141 O131 1.250 . S
C142 O132 1.264 . S
C142 O136 1.248 . S
C143 O133 1.260 . S
C143 O137 1.253 . S
C144 O135 1.279 . S
C144 O138 1.250 . S
O145 Mg127 2.030 . S
O145 C139 1.248 . S
O146 Mg129 2.079 . S
O146 C139 1.264 . S
O147 Mg148 1.990 . S
O147 C161 1.253 . S
Mg148 O147 1.990 . S
Mg148 O151 2.180 . S
Mg148 O152 2.117 . S
Mg148 O166 2.030 . S
O149 Mg150 2.072 . S
O149 C161 1.260 . S
Mg150 O149 2.072 . S
Mg150 O151 2.099 . S
Mg150 O153 2.079 . S
Mg150 O154 2.072 . S
Mg150 O156 2.099 . S
Mg150 O167 2.079 . S
O151 Mg148 2.180 . S
O151 Mg150 2.099 . S
O151 C162 1.279 . S
O152 Mg148 2.117 . S
O152 C162 1.250 . S
O153 Mg150 2.079 . S
O153 C163 1.264 . S
O154 Mg150 2.072 . S
O154 C164 1.260 . S
Mg155 O156 2.180 . S
Mg155 O157 2.030 . S
Mg155 O158 1.990 . S
Mg155 O159 2.117 . S
O156 Mg150 2.099 . S
O156 Mg155 2.180 . S
O156 C165 1.279 . S
O157 Mg155 2.030 . S
O157 C163 1.248 . S
O158 Mg155 1.990 . S
O158 C164 1.253 . S
O159 Mg155 2.117 . S
O159 C165 1.250 . S
C160 O166 1.248 . S
C160 O167 1.264 . S
C161 O147 1.253 . S
C161 O149 1.260 . S
C162 O151 1.279 . S
C162 O152 1.250 . S
C163 O153 1.264 . S
C163 O157 1.248 . S
C164 O154 1.260 . S
C164 O158 1.253 . S
C165 O156 1.279 . S
C165 O159 1.250 . S
O166 Mg148 2.030 . S
O166 C160 1.248 . S
O167 Mg150 2.079 . S
O167 C160 1.264 . S
H168 C180 0.930 . S
H169 C182 0.930 . S
H170 C183 0.930 . S
H171 C187 0.959 . S
H172 C187 0.959 . S
H173 C187 0.961 . S
H174 C188 0.960 . S
H175 C188 0.961 . S
H176 C188 0.959 . S
H177 C191 0.929 . S
H178 C192 0.931 . S
H179 C194 0.930 1_556 S
C180 H168 0.930 . S
C180 C181 1.399 . S
C180 C185 1.399 . S
C181 C180 1.399 . S
C181 C182 1.376 1_556 S
C182 H169 0.930 . S
C182 C181 1.376 1_554 S
C182 C183 1.388 . S
C183 H170 0.930 . S
C183 C182 1.388 . S
C183 C184 1.390 . S
C184 C183 1.390 . S
C184 C185 1.394 1_554 S
C184 C190 1.465 . S
C185 C180 1.399 . S
C185 C184 1.394 1_556 S
C185 C186 1.516 . S
C186 C185 1.516 . S
C186 C187 1.502 . S
C186 C188 1.561 1_556 S
C186 C189 1.526 1_556 S
C187 H171 0.959 . S
C187 H172 0.959 . S
C187 H173 0.961 . S
C187 C186 1.502 . S
C188 H174 0.960 . S
C188 H175 0.961 . S
C188 H176 0.959 . S
C188 C186 1.561 1_554 S
C189 C186 1.526 1_554 S
C189 C190 1.396 . S
C189 C194 1.390 . S
C190 C184 1.465 . S
C190 C189 1.396 . S
C190 C191 1.399 . S
C191 H177 0.929 . S
C191 C190 1.399 . S
C191 C192 1.385 . S
C192 H178 0.931 . S
C192 C191 1.385 . S
C192 C193 1.389 . S
C193 C192 1.389 . S
C193 C194 1.387 . S
C194 H179 0.930 1_554 S
C194 C189 1.390 . S
C194 C193 1.387 . S
H195 C207 0.930 . S
H196 C209 0.930 . S
H197 C210 0.930 . S
H198 C214 0.959 . S
H199 C214 0.959 . S
H200 C214 0.961 . S
H201 C215 0.960 . S
H202 C215 0.961 . S
H203 C215 0.959 1_554 S
H204 C218 0.929 . S
H205 C219 0.931 . S
H206 C221 0.930 . S
C207 H195 0.930 . S
C207 C208 1.399 1_556 S
C207 C212 1.399 . S
C208 C207 1.399 1_554 S
C208 C209 1.376 . S
C209 H196 0.930 . S
C209 C208 1.376 . S
C209 C210 1.388 . S
C210 H197 0.930 . S
C210 C209 1.388 . S
C210 C211 1.390 . S
C211 C210 1.390 . S
C211 C212 1.394 1_554 S
C211 C217 1.465 . S
C212 C207 1.399 . S
C212 C211 1.394 1_556 S
C212 C213 1.516 . S
C213 C212 1.516 . S
C213 C214 1.502 . S
C213 C215 1.561 . S
C213 C216 1.526 . S
C214 H198 0.959 . S
C214 H199 0.959 . S
C214 H200 0.961 . S
C214 C213 1.502 . S
C215 H201 0.960 . S
C215 H202 0.961 . S
C215 H203 0.959 1_556 S
C215 C213 1.561 . S
C216 C213 1.526 . S
C216 C217 1.396 1_556 S
C216 C221 1.390 . S
C217 C211 1.465 . S
C217 C216 1.396 1_554 S
C217 C218 1.399 . S
C218 H204 0.929 . S
C218 C217 1.399 . S
C218 C219 1.385 . S
C219 H205 0.931 . S
C219 C218 1.385 . S
C219 C220 1.389 1_554 S
C220 C219 1.389 1_556 S
C220 C221 1.387 . S
C221 H206 0.930 . S
C221 C216 1.390 . S
C221 C220 1.387 . S
H222 C234 0.930 . S
H223 C236 0.930 . S
H224 C237 0.930 . S
H225 C241 0.959 . S
H226 C241 0.959 . S
H227 C241 0.961 . S
H228 C242 0.960 . S
H229 C242 0.961 . S
H230 C242 0.959 . S
H231 C245 0.929 . S
H232 C246 0.931 . S
H233 C248 0.930 . S
C234 H222 0.930 . S
C234 C235 1.399 . S
C234 C239 1.399 . S
C235 C234 1.399 . S
C235 C236 1.376 . S
C236 H223 0.930 . S
C236 C235 1.376 . S
C236 C237 1.388 . S
C237 H224 0.930 . S
C237 C236 1.388 . S
C237 C238 1.390 . S
C238 C237 1.390 . S
C238 C239 1.394 . S
C238 C244 1.465 . S
C239 C234 1.399 . S
C239 C238 1.394 . S
C239 C240 1.516 . S
C240 C239 1.516 . S
C240 C241 1.502 . S
C240 C242 1.561 . S
C240 C243 1.526 . S
C241 H225 0.959 . S
C241 H226 0.959 . S
C241 H227 0.961 . S
C241 C240 1.502 . S
C242 H228 0.960 . S
C242 H229 0.961 . S
C242 H230 0.959 . S
C242 C240 1.561 . S
C243 C240 1.526 . S
C243 C244 1.396 . S
C243 C248 1.390 . S
C244 C238 1.465 . S
C244 C243 1.396 . S
C244 C245 1.399 . S
C245 H231 0.929 . S
C245 C244 1.399 . S
C245 C246 1.385 . S
C246 H232 0.931 . S
C246 C245 1.385 . S
C246 C247 1.389 . S
C247 C246 1.389 . S
C247 C248 1.387 . S
C248 H233 0.930 . S
C248 C243 1.390 . S
C248 C247 1.387 . S
H249 C261 0.930 . S
H250 C263 0.930 . S
H251 C264 0.930 . S
H252 C268 0.959 . S
H253 C268 0.959 . S
H254 C268 0.961 . S
H255 C269 0.960 . S
H256 C269 0.961 . S
H257 C269 0.959 . S
H258 C272 0.929 . S
H259 C273 0.931 . S
H260 C275 0.930 . S
C261 H249 0.930 . S
C261 C262 1.399 . S
C261 C266 1.399 . S
C262 C261 1.399 . S
C262 C263 1.376 . S
C263 H250 0.930 . S
C263 C262 1.376 . S
C263 C264 1.388 . S
C264 H251 0.930 . S
C264 C263 1.388 . S
C264 C265 1.390 . S
C265 C264 1.390 . S
C265 C266 1.394 . S
C265 C271 1.465 . S
C266 C261 1.399 . S
C266 C265 1.394 . S
C266 C267 1.516 . S
C267 C266 1.516 . S
C267 C268 1.502 . S
C267 C269 1.561 . S
C267 C270 1.526 . S
C268 H252 0.959 . S
C268 H253 0.959 . S
C268 H254 0.961 . S
C268 C267 1.502 . S
C269 H255 0.960 . S
C269 H256 0.961 . S
C269 H257 0.959 . S
C269 C267 1.561 . S
C270 C267 1.526 . S
C270 C271 1.396 . S
C270 C275 1.390 . S
C271 C265 1.465 . S
C271 C270 1.396 . S
C271 C272 1.399 . S
C272 H258 0.929 . S
C272 C271 1.399 . S
C272 C273 1.385 . S
C273 H259 0.931 . S
C273 C272 1.385 . S
C273 C274 1.389 . S
C274 C273 1.389 . S
C274 C275 1.387 . S
C275 H260 0.930 . S
C275 C270 1.390 . S
C275 C274 1.387 . S
H276 C288 0.930 . S
H277 C290 0.930 . S
H278 C291 0.930 . S
H279 C295 0.959 . S
H280 C295 0.959 . S
H281 C295 0.961 . S
H282 C296 0.960 . S
H283 C296 0.961 . S
H284 C296 0.959 . S
H285 C299 0.929 . S
H286 C300 0.931 . S
H287 C302 0.928 1_556 S
C288 H276 0.930 . S
C288 C289 1.399 . S
C288 C293 1.399 1_655 S
C289 C288 1.399 . S
C289 C290 1.376 1_556 S
C290 H277 0.930 . S
C290 C289 1.376 1_554 S
C290 C291 1.388 . S
C291 H278 0.930 . S
C291 C290 1.388 . S
C291 C292 1.390 1_655 S
C292 C291 1.390 1_455 S
C292 C293 1.394 1_554 S
C292 C298 1.465 . S
C293 C288 1.399 1_455 S
C293 C292 1.394 1_556 S
C293 C294 1.516 . S
C294 C293 1.516 . S
C294 C295 1.502 . S
C294 C296 1.561 1_556 S
C294 C297 1.526 1_556 S
C295 H279 0.959 . S
C295 H280 0.959 . S
C295 H281 0.961 . S
C295 C294 1.502 . S
C296 H282 0.960 . S
C296 H283 0.961 . S
C296 H284 0.959 . S
C296 C294 1.561 1_554 S
C297 C294 1.526 1_554 S
C297 C298 1.396 . S
C297 C302 1.390 . S
C298 C292 1.465 . S
C298 C297 1.396 . S
C298 C299 1.399 . S
C299 H285 0.929 . S
C299 C298 1.399 . S
C299 C300 1.385 . S
C300 H286 0.931 . S
C300 C299 1.385 . S
C300 C301 1.389 . S
C301 C300 1.389 . S
C301 C302 1.389 . S
C302 H287 0.928 1_554 S
C302 C297 1.390 . S
C302 C301 1.389 . S
H303 C315 0.930 . S
H304 C317 0.930 . S
H305 C318 0.930 . S
H306 C322 0.959 . S
H307 C322 0.959 . S
H308 C322 0.961 . S
H309 C323 0.960 . S
H310 C323 0.961 . S
H311 C323 0.959 . S
H312 C326 0.929 . S
H313 C327 0.931 . S
H314 C329 0.930 . S
C315 H303 0.930 . S
C315 C316 1.399 . S
C315 C320 1.399 1_455 S
C316 C315 1.399 . S
C316 C317 1.376 1_556 S
C317 H304 0.930 . S
C317 C316 1.376 1_554 S
C317 C318 1.388 . S
C318 H305 0.930 . S
C318 C317 1.388 . S
C318 C319 1.390 1_455 S
C319 C318 1.390 1_655 S
C319 C320 1.394 1_554 S
C319 C325 1.465 . S
C320 C315 1.399 1_655 S
C320 C319 1.394 1_556 S
C320 C321 1.516 . S
C321 C320 1.516 . S
C321 C322 1.502 . S
C321 C323 1.561 . S
C321 C324 1.526 . S
C322 H306 0.959 . S
C322 H307 0.959 . S
C322 H308 0.961 . S
C322 C321 1.502 . S
C323 H309 0.960 . S
C323 H310 0.961 . S
C323 H311 0.959 . S
C323 C321 1.561 . S
C324 C321 1.526 . S
C324 C325 1.396 1_556 S
C324 C329 1.390 . S
C325 C319 1.465 . S
C325 C324 1.396 1_554 S
C325 C326 1.399 . S
C326 H312 0.929 . S
C326 C325 1.399 . S
C326 C327 1.385 . S
C327 H313 0.931 . S
C327 C326 1.385 . S
C327 C328 1.389 . S
C328 C327 1.389 . S
C328 C329 1.387 1_554 S
C329 H314 0.930 . S
C329 C324 1.390 . S
C329 C328 1.387 1_556 S
H330 C342 0.930 . S
H331 C344 0.930 . S
H332 C345 0.930 . S
H333 C349 0.959 . S
H334 C349 0.959 . S
H335 C349 0.961 . S
H336 C350 0.960 . S
H337 C350 0.961 . S
H338 C350 0.959 . S
H339 C353 0.929 . S
H340 C354 0.931 . S
H341 C356 0.930 . S
C342 H330 0.930 . S
C342 C343 1.399 . S
C342 C347 1.399 . S
C343 C342 1.399 . S
C343 C344 1.376 . S
C344 H331 0.930 . S
C344 C343 1.376 . S
C344 C345 1.388 . S
C345 H332 0.930 . S
C345 C344 1.388 . S
C345 C346 1.390 . S
C346 C345 1.390 . S
C346 C347 1.394 . S
C346 C352 1.465 . S
C347 C342 1.399 . S
C347 C346 1.394 . S
C347 C348 1.516 . S
C348 C347 1.516 . S
C348 C349 1.502 . S
C348 C350 1.561 . S
C348 C351 1.526 . S
C349 H333 0.959 . S
C349 H334 0.959 . S
C349 H335 0.961 . S
C349 C348 1.502 . S
C350 H336 0.960 . S
C350 H337 0.961 . S
C350 H338 0.959 . S
C350 C348 1.561 . S
C351 C348 1.526 . S
C351 C352 1.396 . S
C351 C356 1.390 1_455 S
C352 C346 1.465 . S
C352 C351 1.396 . S
C352 C353 1.399 1_455 S
C353 H339 0.929 . S
C353 C352 1.399 1_655 S
C353 C354 1.385 . S
C354 H340 0.931 . S
C354 C353 1.385 . S
C354 C355 1.389 . S
C355 C354 1.389 . S
C355 C356 1.387 . S
C356 H341 0.930 . S
C356 C351 1.390 1_655 S
C356 C355 1.387 . S
H357 C369 0.930 . S
H358 C371 0.930 . S
H359 C372 0.930 . S
H360 C376 0.959 . S
H361 C376 0.959 . S
H362 C376 0.961 . S
H363 C377 0.960 . S
H364 C377 0.961 . S
H365 C377 0.959 . S
H366 C380 0.929 . S
H367 C381 0.931 . S
H368 C383 0.930 . S
C369 H357 0.930 . S
C369 C370 1.399 . S
C369 C374 1.399 . S
C370 C369 1.399 . S
C370 C371 1.376 . S
C371 H358 0.930 . S
C371 C370 1.376 . S
C371 C372 1.388 . S
C372 H359 0.930 . S
C372 C371 1.388 . S
C372 C373 1.390 . S
C373 C372 1.390 . S
C373 C374 1.394 . S
C373 C379 1.465 . S
C374 C369 1.399 . S
C374 C373 1.394 . S
C374 C375 1.516 . S
C375 C374 1.516 . S
C375 C376 1.502 . S
C375 C377 1.561 . S
C375 C378 1.526 . S
C376 H360 0.959 . S
C376 H361 0.959 . S
C376 H362 0.961 . S
C376 C375 1.502 . S
C377 H363 0.960 . S
C377 H364 0.961 . S
C377 H365 0.959 . S
C377 C375 1.561 . S
C378 C375 1.526 . S
C378 C379 1.396 . S
C378 C383 1.390 1_655 S
C379 C373 1.465 . S
C379 C378 1.396 . S
C379 C380 1.399 1_655 S
C380 H366 0.929 . S
C380 C379 1.399 1_455 S
C380 C381 1.385 . S
C381 H367 0.931 . S
C381 C380 1.385 . S
C381 C382 1.389 . S
C382 C381 1.389 . S
C382 C383 1.387 . S
C383 H368 0.930 . S
C383 C378 1.390 1_455 S
C383 C382 1.387 . S
H384 C396 0.930 . S
H385 C398 0.930 . S
H386 C399 0.930 . S
H387 C403 0.959 . S
H388 C403 0.959 . S
H389 C403 0.961 . S
H390 C404 0.960 . S
H391 C404 0.961 . S
H392 C404 0.959 . S
H393 C407 0.929 . S
H394 C408 0.931 . S
H395 C410 0.930 . S
C396 H384 0.930 . S
C396 C397 1.399 1_556 S
C396 C401 1.401 . S
C397 C396 1.399 1_554 S
C397 C398 1.376 1_655 S
C398 H385 0.930 . S
C398 C397 1.376 1_455 S
C398 C399 1.388 . S
C399 H386 0.930 . S
C399 C398 1.388 . S
C399 C400 1.390 . S
C400 C399 1.390 . S
C400 C401 1.392 1_454 S
C400 C406 1.465 . S
C401 C396 1.401 . S
C401 C400 1.392 1_656 S
C401 C402 1.516 1_655 S
C402 C401 1.516 1_455 S
C402 C403 1.502 1_455 S
C402 C404 1.561 . S
C402 C405 1.526 . S
C403 H387 0.959 . S
C403 H388 0.959 . S
C403 H389 0.961 . S
C403 C402 1.502 1_655 S
C404 H390 0.960 . S
C404 H391 0.961 . S
C404 H392 0.959 . S
C404 C402 1.561 . S
C405 C402 1.526 . S
C405 C406 1.396 1_556 S
C405 C410 1.390 . S
C406 C400 1.465 . S
C406 C405 1.396 1_554 S
C406 C407 1.399 . S
C407 H393 0.929 . S
C407 C406 1.399 . S
C407 C408 1.385 . S
C408 H394 0.931 . S
C408 C407 1.385 . S
C408 C409 1.389 . S
C409 C408 1.389 . S
C409 C410 1.387 1_554 S
C410 H395 0.930 . S
C410 C405 1.390 . S
C410 C409 1.387 1_556 S
H411 C423 0.930 . S
H412 C425 0.930 . S
H413 C426 0.930 . S
H414 C430 0.959 . S
H415 C430 0.959 . S
H416 C430 0.961 . S
H417 C431 0.960 . S
H418 C431 0.961 . S
H419 C431 0.959 . S
H420 C434 0.929 . S
H421 C435 0.931 . S
H422 C437 0.930 . S
C423 H411 0.930 . S
C423 C424 1.399 . S
C423 C428 1.399 . S
C424 C423 1.399 . S
C424 C425 1.376 1_655 S
C425 H412 0.930 . S
C425 C424 1.376 1_455 S
C425 C426 1.388 . S
C426 H413 0.930 . S
C426 C425 1.388 . S
C426 C427 1.390 . S
C427 C426 1.390 . S
C427 C428 1.394 1_455 S
C427 C433 1.465 . S
C428 C423 1.399 . S
C428 C427 1.394 1_655 S
C428 C429 1.516 . S
C429 C428 1.516 . S
C429 C430 1.502 . S
C429 C431 1.561 1_655 S
C429 C432 1.526 . S
C430 H414 0.959 . S
C430 H415 0.959 . S
C430 H416 0.961 . S
C430 C429 1.502 . S
C431 H417 0.960 . S
C431 H418 0.961 . S
C431 H419 0.959 . S
C431 C429 1.561 1_455 S
C432 C429 1.526 . S
C432 C433 1.396 1_655 S
C432 C437 1.390 . S
C433 C427 1.465 . S
C433 C432 1.396 1_455 S
C433 C434 1.399 . S
C434 H420 0.929 . S
C434 C433 1.399 . S
C434 C435 1.385 . S
C435 H421 0.931 . S
C435 C434 1.385 . S
C435 C436 1.389 . S
C436 C435 1.389 . S
C436 C437 1.387 1_455 S
C437 H422 0.930 . S
C437 C432 1.390 . S
C437 C436 1.387 1_655 S
H438 C450 0.930 . S
H439 C452 0.930 . S
H440 C453 0.930 . S
H441 C457 0.959 . S
H442 C457 0.959 . S
H443 C457 0.961 1_565 S
H444 C458 0.992 . S
H445 C458 0.932 1_545 S
H446 C458 0.958 . S
H447 C461 0.929 . S
H448 C462 0.931 . S
H449 C464 0.930 . S
C450 H438 0.930 . S
C450 C451 1.399 1_556 S
C450 C455 1.399 . S
C451 C450 1.399 1_554 S
C451 C452 1.376 . S
C452 H439 0.930 . S
C452 C451 1.376 . S
C452 C453 1.388 . S
C453 H440 0.930 . S
C453 C452 1.388 . S
C453 C454 1.390 . S
C454 C453 1.390 . S
C454 C455 1.394 1_554 S
C454 C460 1.465 1_565 S
C455 C450 1.399 . S
C455 C454 1.394 1_556 S
C455 C456 1.507 1_565 S
C456 C455 1.507 1_545 S
C456 C457 1.503 . S
C456 C458 1.560 1_545 S
C456 C459 1.535 . S
C457 H441 0.959 . S
C457 H442 0.959 . S
C457 H443 0.961 1_545 S
C457 C456 1.503 . S
C458 H444 0.992 . S
C458 H445 0.932 1_565 S
C458 H446 0.958 . S
C458 C456 1.560 1_565 S
C459 C456 1.535 . S
C459 C460 1.396 1_556 S
C459 C464 1.390 . S
C460 C454 1.465 1_545 S
C460 C459 1.396 1_554 S
C460 C461 1.399 . S
C461 H447 0.929 . S
C461 C460 1.399 . S
C461 C462 1.385 . S
C462 H448 0.931 . S
C462 C461 1.385 . S
C462 C463 1.389 . S
C463 C462 1.389 . S
C463 C464 1.387 1_554 S
C464 H449 0.930 . S
C464 C459 1.390 . S
C464 C463 1.387 1_556 S
H465 C477 0.930 . S
H466 C479 0.930 . S
H467 C480 0.930 . S
H468 C484 0.957 1_565 S
H469 C484 0.943 1_565 S
H470 C484 0.979 . S
H471 C485 0.960 . S
H472 C485 0.961 1_565 S
H473 C485 0.959 . S
H474 C488 0.929 . S
H475 C489 0.931 . S
H476 C491 0.930 . S
C477 H465 0.930 . S
C477 C478 1.399 . S
C477 C482 1.399 . S
C478 C477 1.399 . S
C478 C479 1.376 . S
C479 H466 0.930 . S
C479 C478 1.376 . S
C479 C480 1.388 . S
C480 H467 0.930 . S
C480 C479 1.388 . S
C480 C481 1.390 . S
C481 C480 1.390 . S
C481 C482 1.394 . S
C481 C487 1.465 1_545 S
C482 C477 1.399 . S
C482 C481 1.394 . S
C482 C483 1.516 . S
C483 C482 1.516 . S
C483 C484 1.502 . S
C483 C485 1.561 . S
C483 C486 1.526 1_545 S
C484 H468 0.957 1_545 S
C484 H469 0.943 1_545 S
C484 H470 0.979 . S
C484 C483 1.502 . S
C485 H471 0.960 . S
C485 H472 0.961 1_545 S
C485 H473 0.959 . S
C485 C483 1.561 . S
C486 C483 1.526 1_565 S
C486 C487 1.396 . S
C486 C491 1.390 . S
C487 C481 1.465 1_565 S
C487 C486 1.396 . S
C487 C488 1.399 . S
C488 H474 0.929 . S
C488 C487 1.399 . S
C488 C489 1.385 . S
C489 H475 0.931 . S
C489 C488 1.385 . S
C489 C490 1.389 . S
C490 C489 1.389 . S
C490 C491 1.387 . S
C491 H476 0.930 . S
C491 C486 1.390 . S
C491 C490 1.387 . S
H492 C504 0.930 . S
H493 C506 0.930 . S
H494 C507 0.930 . S
H495 C511 0.959 . S
H496 C511 0.959 . S
H497 C511 0.961 . S
H498 C512 0.960 . S
H499 C512 0.961 . S
H500 C512 0.959 . S
H501 C515 0.929 . S
H502 C516 0.931 . S
H503 C518 0.930 . S
C504 H492 0.930 . S
C504 C505 1.399 1_554 S
C504 C509 1.399 . S
C505 C504 1.399 1_556 S
C505 C506 1.376 . S
C506 H493 0.930 . S
C506 C505 1.376 . S
C506 C507 1.388 . S
C507 H494 0.930 . S
C507 C506 1.388 . S
C507 C508 1.390 . S
C508 C507 1.390 . S
C508 C509 1.394 1_556 S
C508 C514 1.465 . S
C509 C504 1.399 . S
C509 C508 1.394 1_554 S
C509 C510 1.516 . S
C510 C509 1.516 . S
C510 C511 1.502 . S
C510 C512 1.561 . S
C510 C513 1.526 . S
C511 H495 0.959 . S
C511 H496 0.959 . S
C511 H497 0.961 . S
C511 C510 1.502 . S
C512 H498 0.960 . S
C512 H499 0.961 . S
C512 H500 0.959 . S
C512 C510 1.561 . S
C513 C510 1.526 . S
C513 C514 1.396 1_554 S
C513 C518 1.390 . S
C514 C508 1.465 . S
C514 C513 1.396 1_556 S
C514 C515 1.399 . S
C515 H501 0.929 . S
C515 C514 1.399 . S
C515 C516 1.385 . S
C516 H502 0.931 . S
C516 C515 1.385 . S
C516 C517 1.389 . S
C517 C516 1.389 . S
C517 C518 1.387 1_556 S
C518 H503 0.930 . S
C518 C513 1.390 . S
C518 C517 1.387 1_554 S
H519 C531 0.930 . S
H520 C533 0.930 . S
H521 C534 0.930 . S
H522 C538 0.959 . S
H523 C538 0.959 . S
H524 C538 0.961 . S
H525 C539 0.960 . S
H526 C539 0.961 . S
H527 C539 0.959 . S
H528 C542 0.929 . S
H529 C543 0.931 . S
H530 C545 0.930 . S
C531 H519 0.930 . S
C531 C532 1.399 1_554 S
C531 C536 1.399 . S
C532 C531 1.399 1_556 S
C532 C533 1.376 . S
C533 H520 0.930 . S
C533 C532 1.376 . S
C533 C534 1.388 . S
C534 H521 0.930 . S
C534 C533 1.388 . S
C534 C535 1.390 . S
C535 C534 1.390 . S
C535 C536 1.394 1_556 S
C535 C541 1.465 . S
C536 C531 1.399 . S
C536 C535 1.394 1_554 S
C536 C537 1.516 . S
C537 C536 1.516 . S
C537 C538 1.502 . S
C537 C539 1.561 . S
C537 C540 1.526 . S
C538 H522 0.959 . S
C538 H523 0.959 . S
C538 H524 0.961 . S
C538 C537 1.502 . S
C539 H525 0.960 . S
C539 H526 0.961 . S
C539 H527 0.959 . S
C539 C537 1.561 . S
C540 C537 1.526 . S
C540 C541 1.396 1_554 S
C540 C545 1.390 . S
C541 C535 1.465 . S
C541 C540 1.396 1_556 S
C541 C542 1.399 . S
C542 H528 0.929 . S
C542 C541 1.399 . S
C542 C543 1.385 . S
C543 H529 0.931 . S
C543 C542 1.385 . S
C543 C544 1.389 . S
C544 C543 1.389 . S
C544 C545 1.387 1_556 S
C545 H530 0.930 . S
C545 C540 1.390 . S
C545 C544 1.387 1_554 S
H546 C558 0.930 . S
H547 C560 0.930 . S
H548 C561 0.930 . S
H549 C565 0.959 . S
H550 C565 0.959 . S
H551 C565 0.961 . S
H552 C566 0.960 . S
H553 C566 0.961 . S
H554 C566 0.959 . S
H555 C569 0.929 . S
H556 C570 0.931 . S
H557 C572 0.930 . S
C558 H546 0.930 . S
C558 C559 1.399 . S
C558 C563 1.399 . S
C559 C558 1.399 . S
C559 C560 1.376 . S
C560 H547 0.930 . S
C560 C559 1.376 . S
C560 C561 1.388 . S
C561 H548 0.930 . S
C561 C560 1.388 . S
C561 C562 1.390 . S
C562 C561 1.390 . S
C562 C563 1.394 . S
C562 C568 1.465 . S
C563 C558 1.399 . S
C563 C562 1.394 . S
C563 C564 1.516 . S
C564 C563 1.516 . S
C564 C565 1.502 . S
C564 C566 1.561 . S
C564 C567 1.526 . S
C565 H549 0.959 . S
C565 H550 0.959 . S
C565 H551 0.961 . S
C565 C564 1.502 . S
C566 H552 0.960 . S
C566 H553 0.961 . S
C566 H554 0.959 . S
C566 C564 1.561 . S
C567 C564 1.526 . S
C567 C568 1.396 . S
C567 C572 1.390 . S
C568 C562 1.465 . S
C568 C567 1.396 . S
C568 C569 1.399 . S
C569 H555 0.929 . S
C569 C568 1.399 . S
C569 C570 1.385 . S
C570 H556 0.931 . S
C570 C569 1.385 . S
C570 C571 1.389 . S
C571 C570 1.389 . S
C571 C572 1.387 . S
C572 H557 0.930 . S
C572 C567 1.390 . S
C572 C571 1.387 . S
H573 C585 0.930 . S
H574 C587 0.930 . S
H575 C588 0.930 . S
H576 C592 0.959 . S
H577 C592 0.959 . S
H578 C592 0.961 . S
H579 C593 0.960 . S
H580 C593 0.961 . S
H581 C593 0.959 . S
H582 C596 0.929 . S
H583 C597 0.931 . S
H584 C599 0.930 . S
C585 H573 0.930 . S
C585 C586 1.399 . S
C585 C590 1.399 . S
C586 C585 1.399 . S
C586 C587 1.376 . S
C587 H574 0.930 . S
C587 C586 1.376 . S
C587 C588 1.388 . S
C588 H575 0.930 . S
C588 C587 1.388 . S
C588 C589 1.390 . S
C589 C588 1.390 . S
C589 C590 1.394 . S
C589 C595 1.465 . S
C590 C585 1.399 . S
C590 C589 1.394 . S
C590 C591 1.516 . S
C591 C590 1.516 . S
C591 C592 1.502 . S
C591 C593 1.561 . S
C591 C594 1.526 . S
C592 H576 0.959 . S
C592 H577 0.959 . S
C592 H578 0.961 . S
C592 C591 1.502 . S
C593 H579 0.960 . S
C593 H580 0.961 . S
C593 H581 0.959 . S
C593 C591 1.561 . S
C594 C591 1.526 . S
C594 C595 1.396 . S
C594 C599 1.390 . S
C595 C589 1.465 . S
C595 C594 1.396 . S
C595 C596 1.399 . S
C596 H582 0.929 . S
C596 C595 1.399 . S
C596 C597 1.385 . S
C597 H583 0.931 . S
C597 C596 1.385 . S
C597 C598 1.389 . S
C598 C597 1.389 . S
C598 C599 1.387 . S
C599 H584 0.930 . S
C599 C594 1.390 . S
C599 C598 1.387 . S
H600 C612 0.930 . S
H601 C614 0.930 . S
H602 C615 0.930 . S
H603 C619 0.959 . S
H604 C619 0.959 . S
H605 C619 0.961 . S
H606 C620 0.960 . S
H607 C620 0.961 . S
H608 C620 0.959 . S
H609 C623 0.929 . S
H610 C624 0.931 . S
H611 C626 0.930 1_455 S
C612 H600 0.930 . S
C612 C613 1.399 . S
C612 C617 1.399 . S
C613 C612 1.399 . S
C613 C614 1.376 1_455 S
C614 H601 0.930 . S
C614 C613 1.376 1_655 S
C614 C615 1.388 . S
C615 H602 0.930 . S
C615 C614 1.388 . S
C615 C616 1.390 . S
C616 C615 1.390 . S
C616 C617 1.394 1_655 S
C616 C622 1.465 . S
C617 C612 1.399 . S
C617 C616 1.394 1_455 S
C617 C618 1.516 . S
C618 C617 1.516 . S
C618 C619 1.502 . S
C618 C620 1.561 1_455 S
C618 C621 1.526 1_455 S
C619 H603 0.959 . S
C619 H604 0.959 . S
C619 H605 0.961 . S
C619 C618 1.502 . S
C620 H606 0.960 . S
C620 H607 0.961 . S
C620 H608 0.959 . S
C620 C618 1.561 1_655 S
C621 C618 1.526 1_655 S
C621 C622 1.396 . S
C621 C626 1.390 . S
C622 C616 1.465 . S
C622 C621 1.396 . S
C622 C623 1.399 . S
C623 H609 0.929 . S
C623 C622 1.399 . S
C623 C624 1.385 . S
C624 H610 0.931 . S
C624 C623 1.385 . S
C624 C625 1.389 . S
C625 C624 1.389 . S
C625 C626 1.387 . S
C626 H611 0.930 1_655 S
C626 C621 1.390 . S
C626 C625 1.387 . S
H627 C639 0.930 . S
H628 C641 0.930 . S
H629 C642 0.930 . S
H630 C646 0.959 . S
H631 C646 0.959 . S
H632 C646 0.961 . S
H633 C647 0.960 . S
H634 C647 0.961 . S
H635 C647 0.959 . S
H636 C650 0.929 . S
H637 C651 0.931 . S
H638 C653 0.930 1_655 S
C639 H627 0.930 . S
C639 C640 1.399 . S
C639 C644 1.399 . S
C640 C639 1.399 . S
C640 C641 1.376 1_655 S
C641 H628 0.930 . S
C641 C640 1.376 1_455 S
C641 C642 1.388 . S
C642 H629 0.930 . S
C642 C641 1.388 . S
C642 C643 1.390 . S
C643 C642 1.390 . S
C643 C644 1.394 1_455 S
C643 C649 1.465 . S
C644 C639 1.399 . S
C644 C643 1.394 1_655 S
C644 C645 1.516 . S
C645 C644 1.516 . S
C645 C646 1.502 . S
C645 C647 1.561 1_655 S
C645 C648 1.526 1_655 S
C646 H630 0.959 . S
C646 H631 0.959 . S
C646 H632 0.961 . S
C646 C645 1.502 . S
C647 H633 0.960 . S
C647 H634 0.961 . S
C647 H635 0.959 . S
C647 C645 1.561 1_455 S
C648 C645 1.526 1_455 S
C648 C649 1.396 . S
C648 C653 1.390 . S
C649 C643 1.465 . S
C649 C648 1.396 . S
C649 C650 1.399 . S
C650 H636 0.929 . S
C650 C649 1.399 . S
C650 C651 1.385 . S
C651 H637 0.931 . S
C651 C650 1.385 . S
C651 C652 1.389 . S
C652 C651 1.389 . S
C652 C653 1.387 . S
C653 H638 0.930 1_455 S
C653 C648 1.390 . S
C653 C652 1.387 . S
H654 C666 0.930 1_455 S
H655 C668 0.930 . S
H656 C669 0.930 . S
H657 C673 0.959 1_655 S
H658 C673 0.959 . S
H659 C673 0.961 . S
H660 C674 0.960 . S
H661 C674 0.961 . S
H662 C674 0.959 . S
H663 C677 0.929 . S
H664 C678 0.931 1_655 S
H665 C680 0.930 . S
C666 H654 0.930 1_655 S
C666 C667 1.399 . S
C666 C671 1.399 1_655 S
C667 C666 1.399 . S
C667 C668 1.376 . S
C668 H655 0.930 . S
C668 C667 1.376 . S
C668 C669 1.388 . S
C669 H656 0.930 . S
C669 C668 1.388 . S
C669 C670 1.390 . S
C670 C669 1.390 . S
C670 C671 1.394 1_655 S
C670 C676 1.465 . S
C671 C666 1.399 1_455 S
C671 C670 1.394 1_455 S
C671 C672 1.516 . S
C672 C671 1.516 . S
C672 C673 1.502 . S
C672 C674 1.561 . S
C672 C675 1.526 . S
C673 H657 0.959 1_455 S
C673 H658 0.959 . S
C673 H659 0.961 . S
C673 C672 1.502 . S
C674 H660 0.960 . S
C674 H661 0.961 . S
C674 H662 0.959 . S
C674 C672 1.561 . S
C675 C672 1.526 . S
C675 C676 1.396 1_455 S
C675 C680 1.390 . S
C676 C670 1.465 . S
C676 C675 1.396 1_655 S
C676 C677 1.399 . S
C677 H663 0.929 . S
C677 C676 1.399 . S
C677 C678 1.385 1_655 S
C678 H664 0.931 1_455 S
C678 C677 1.385 1_455 S
C678 C679 1.389 . S
C679 C678 1.389 . S
C679 C680 1.387 . S
C680 H665 0.930 . S
C680 C675 1.390 . S
C680 C679 1.387 . S
H681 C693 0.930 . S
H682 C695 0.930 1_455 S
H683 C696 0.930 . S
H684 C700 0.959 . S
H685 C700 0.959 . S
H686 C700 0.961 . S
H687 C701 0.960 . S
H688 C701 0.961 . S
H689 C701 0.959 . S
H690 C704 0.929 . S
H691 C705 0.931 . S
H692 C707 0.930 . S
C693 H681 0.930 . S
C693 C694 1.399 . S
C693 C698 1.399 . S
C694 C693 1.399 . S
C694 C695 1.376 . S
C695 H682 0.930 1_655 S
C695 C694 1.376 . S
C695 C696 1.388 1_655 S
C696 H683 0.930 . S
C696 C695 1.388 1_455 S
C696 C697 1.390 . S
C697 C696 1.390 . S
C697 C698 1.394 1_455 S
C697 C703 1.465 . S
C698 C693 1.399 . S
C698 C697 1.394 1_655 S
C698 C699 1.516 . S
C699 C698 1.516 . S
C699 C700 1.502 . S
C699 C701 1.561 1_655 S
C699 C702 1.526 1_655 S
C700 H684 0.959 . S
C700 H685 0.959 . S
C700 H686 0.961 . S
C700 C699 1.502 . S
C701 H687 0.960 . S
C701 H688 0.961 . S
C701 H689 0.959 . S
C701 C699 1.561 1_455 S
C702 C699 1.526 1_455 S
C702 C703 1.396 . S
C702 C707 1.390 . S
C703 C697 1.465 . S
C703 C702 1.396 . S
C703 C704 1.399 . S
C704 H690 0.929 . S
C704 C703 1.399 . S
C704 C705 1.385 . S
C705 H691 0.931 . S
C705 C704 1.385 . S
C705 C706 1.389 . S
C706 C705 1.389 . S
C706 C707 1.387 . S
C707 H692 0.930 . S
C707 C702 1.390 . S
C707 C706 1.387 . S
H708 C720 0.930 . S
H709 C722 0.930 . S
H710 C723 0.930 . S
H711 C727 0.959 . S
H712 C727 0.959 . S
H713 C727 0.961 . S
H714 C728 0.960 . S
H715 C728 0.961 . S
H716 C728 0.959 . S
H717 C731 0.929 . S
H718 C732 0.931 . S
H719 C734 0.930 . S
C720 H708 0.930 . S
C720 C721 1.399 . S
C720 C725 1.399 . S
C721 C720 1.399 . S
C721 C722 1.376 . S
C722 H709 0.930 . S
C722 C721 1.376 . S
C722 C723 1.388 . S
C723 H710 0.930 . S
C723 C722 1.388 . S
C723 C724 1.390 . S
C724 C723 1.390 . S
C724 C725 1.394 . S
C724 C730 1.465 . S
C725 C720 1.399 . S
C725 C724 1.394 . S
C725 C726 1.516 . S
C726 C725 1.516 . S
C726 C727 1.502 . S
C726 C728 1.561 . S
C726 C729 1.526 . S
C727 H711 0.959 . S
C727 H712 0.959 . S
C727 H713 0.961 . S
C727 C726 1.502 . S
C728 H714 0.960 . S
C728 H715 0.961 . S
C728 H716 0.959 . S
C728 C726 1.561 . S
C729 C726 1.526 . S
C729 C730 1.396 . S
C729 C734 1.390 . S
C730 C724 1.465 . S
C730 C729 1.396 . S
C730 C731 1.399 . S
C731 H717 0.929 . S
C731 C730 1.399 . S
C731 C732 1.385 . S
C732 H718 0.931 . S
C732 C731 1.385 . S
C732 C733 1.389 . S
C733 C732 1.389 . S
C733 C734 1.387 . S
C734 H719 0.930 . S
C734 C729 1.390 . S
C734 C733 1.387 . S
H735 C747 0.930 . S
H736 C749 0.930 . S
H737 C750 0.930 . S
H738 C754 0.959 . S
H739 C754 0.959 . S
H740 C754 0.961 . S
H741 C755 0.960 . S
H742 C755 0.961 . S
H743 C755 0.959 . S
H744 C758 0.929 . S
H745 C759 0.931 . S
H746 C761 0.930 . S
C747 H735 0.930 . S
C747 C748 1.399 . S
C747 C752 1.399 . S
C748 C747 1.399 . S
C748 C749 1.376 . S
C749 H736 0.930 . S
C749 C748 1.376 . S
C749 C750 1.388 . S
C750 H737 0.930 . S
C750 C749 1.388 . S
C750 C751 1.390 . S
C751 C750 1.390 . S
C751 C752 1.394 . S
C751 C757 1.465 . S
C752 C747 1.399 . S
C752 C751 1.394 . S
C752 C753 1.516 . S
C753 C752 1.516 . S
C753 C754 1.502 . S
C753 C755 1.561 . S
C753 C756 1.526 . S
C754 H738 0.959 . S
C754 H739 0.959 . S
C754 H740 0.961 . S
C754 C753 1.502 . S
C755 H741 0.960 . S
C755 H742 0.961 . S
C755 H743 0.959 . S
C755 C753 1.561 . S
C756 C753 1.526 . S
C756 C757 1.396 . S
C756 C761 1.390 . S
C757 C751 1.465 . S
C757 C756 1.396 . S
C757 C758 1.399 . S
C758 H744 0.929 . S
C758 C757 1.399 . S
C758 C759 1.385 . S
C759 H745 0.931 . S
C759 C758 1.385 . S
C759 C760 1.389 . S
C760 C759 1.389 . S
C760 C761 1.387 . S
C761 H746 0.930 . S
C761 C756 1.390 . S
C761 C760 1.387 . S
H762 C774 0.930 . S
H763 C776 0.930 . S
H764 C777 0.930 . S
H765 C781 0.959 . S
H766 C781 0.959 . S
H767 C781 0.961 . S
H768 C782 0.960 . S
H769 C782 0.961 . S
H770 C782 0.959 . S
H771 C785 0.929 . S
H772 C786 0.931 . S
H773 C788 0.930 . S
C774 H762 0.930 . S
C774 C775 1.399 . S
C774 C779 1.399 . S
C775 C774 1.399 . S
C775 C776 1.376 . S
C776 H763 0.930 . S
C776 C775 1.376 . S
C776 C777 1.388 . S
C777 H764 0.930 . S
C777 C776 1.388 . S
C777 C778 1.390 . S
C778 C777 1.390 . S
C778 C779 1.394 . S
C778 C784 1.465 . S
C779 C774 1.399 . S
C779 C778 1.394 . S
C779 C780 1.516 . S
C780 C779 1.516 . S
C780 C781 1.502 . S
C780 C782 1.561 . S
C780 C783 1.526 . S
C781 H765 0.959 . S
C781 H766 0.959 . S
C781 H767 0.961 . S
C781 C780 1.502 . S
C782 H768 0.960 . S
C782 H769 0.961 . S
C782 H770 0.959 . S
C782 C780 1.561 . S
C783 C780 1.526 . S
C783 C784 1.396 . S
C783 C788 1.390 . S
C784 C778 1.465 . S
C784 C783 1.396 . S
C784 C785 1.399 . S
C785 H771 0.929 . S
C785 C784 1.399 . S
C785 C786 1.385 . S
C786 H772 0.931 . S
C786 C785 1.385 . S
C786 C787 1.389 . S
C787 C786 1.389 . S
C787 C788 1.387 . S
C788 H773 0.930 . S
C788 C783 1.390 . S
C788 C787 1.387 . S
H789 C801 0.930 . S
H790 C803 0.930 . S
H791 C804 0.930 . S
H792 C808 0.959 . S
H793 C808 0.959 . S
H794 C808 0.961 . S
H795 C809 0.960 . S
H796 C809 0.961 . S
H797 C809 0.959 . S
H798 C812 0.929 . S
H799 C813 0.931 . S
H800 C815 0.930 . S
C801 H789 0.930 . S
C801 C802 1.399 . S
C801 C806 1.399 . S
C802 C801 1.399 . S
C802 C803 1.376 . S
C803 H790 0.930 . S
C803 C802 1.376 . S
C803 C804 1.388 . S
C804 H791 0.930 . S
C804 C803 1.388 . S
C804 C805 1.390 . S
C805 C804 1.390 . S
C805 C806 1.394 . S
C805 C811 1.465 . S
C806 C801 1.399 . S
C806 C805 1.394 . S
C806 C807 1.516 . S
C807 C806 1.516 . S
C807 C808 1.502 . S
C807 C809 1.561 . S
C807 C810 1.526 . S
C808 H792 0.959 . S
C808 H793 0.959 . S
C808 H794 0.961 . S
C808 C807 1.502 . S
C809 H795 0.960 . S
C809 H796 0.961 . S
C809 H797 0.959 . S
C809 C807 1.561 . S
C810 C807 1.526 . S
C810 C811 1.396 . S
C810 C815 1.390 . S
C811 C805 1.465 . S
C811 C810 1.396 . S
C811 C812 1.399 . S
C812 H798 0.929 . S
C812 C811 1.399 . S
C812 C813 1.385 . S
C813 H799 0.931 . S
C813 C812 1.385 . S
C813 C814 1.389 . S
C814 C813 1.389 . S
C814 C815 1.387 . S
C815 H800 0.930 . S
C815 C810 1.390 . S
C815 C814 1.387 . S
C181 C16 1.220 1_556 S
C193 C14 1.292 1_554 S
C208 C35 1.303 1_554 S
C220 C37 1.258 1_556 S
C235 C59 1.300 . S
C247 C55 1.262 . S
C262 C79 1.222 . S
C274 C77 1.288 . S
C289 C100 1.219 1_556 S
C301 C98 1.295 1_554 S
C316 C121 1.223 1_556 S
C328 C119 1.314 1_554 S
C343 C143 1.304 . S
C355 C139 1.258 . S
C370 C161 1.308 . S
C382 C163 1.251 . S
C397 C34 1.530 1_554 S
C409 C13 1.542 1_554 S
C424 C76 1.524 . S
C436 C58 1.542 . S
C451 C97 1.526 1_554 S
C463 C118 1.542 1_554 S
C478 C142 1.542 . S
C490 C160 1.529 . S
C505 C17 1.549 1_556 S
C517 C122 1.522 1_556 S
C532 C101 1.553 1_556 S
C544 C38 1.534 1_556 S
C559 C56 1.460 . S
C571 C164 1.479 . S
C586 C80 1.492 . S
C598 C140 1.466 . S
C613 C18 1.325 . S
C625 C81 1.252 . S
C640 C39 1.328 . S
C652 C57 1.251 . S
C667 C36 1.248 . S
C679 C60 1.216 . S
C694 C78 1.201 . S
C706 C15 1.287 . S
C721 C102 1.317 . S
C733 C165 1.382 . S
C748 C123 1.312 . S
C760 C141 1.383 . S
C775 C120 1.200 . S
C787 C144 1.293 . S
C802 C162 1.368 . S
C814 C99 1.291 . S
