# Generated by pormake.
# Topology snk, (6)-cn, num edge types: 1
# Building blocks:
#     Node 0, Type 0, BuildingBlock: BETDAH_clean_sbu_0, # of connection points: 6
#     Node 1, Type 0, BuildingBlock: BETDAH_clean_sbu_0, # of connection points: 6
#     Node 2, Type 0, BuildingBlock: BETDAH_clean_sbu_0, # of connection points: 6
#     Node 3, Type 0, BuildingBlock: BETDAH_clean_sbu_0, # of connection points: 6
#     Node 4, Type 0, BuildingBlock: BETDAH_clean_sbu_0, # of connection points: 6
#     Node 5, Type 0, BuildingBlock: BETDAH_clean_sbu_0, # of connection points: 6
#     Node 6, Type 0, BuildingBlock: BETDAH_clean_sbu_0, # of connection points: 6
#     Node 7, Type 0, BuildingBlock: BETDAH_clean_sbu_0, # of connection points: 6
#     Edge 8, Type (0, 0), BuildingBlock: XIVTED_clean_linker_0, # of connection points: 2
#     Edge 9, Type (0, 0), BuildingBlock: XIVTED_clean_linker_0, # of connection points: 2
#     Edge 10, Type (0, 0), BuildingBlock: XIVTED_clean_linker_0, # of connection points: 2
#     Edge 11, Type (0, 0), BuildingBlock: XIVTED_clean_linker_0, # of connection points: 2
#     Edge 12, Type (0, 0), BuildingBlock: XIVTED_clean_linker_0, # of connection points: 2
#     Edge 13, Type (0, 0), BuildingBlock: XIVTED_clean_linker_0, # of connection points: 2
#     Edge 14, Type (0, 0), BuildingBlock: XIVTED_clean_linker_0, # of connection points: 2
#     Edge 15, Type (0, 0), BuildingBlock: XIVTED_clean_linker_0, # of connection points: 2
#     Edge 16, Type (0, 0), BuildingBlock: XIVTED_clean_linker_0, # of connection points: 2
#     Edge 17, Type (0, 0), BuildingBlock: XIVTED_clean_linker_0, # of connection points: 2
#     Edge 18, Type (0, 0), BuildingBlock: XIVTED_clean_linker_0, # of connection points: 2
#     Edge 19, Type (0, 0), BuildingBlock: XIVTED_clean_linker_0, # of connection points: 2
#     Edge 20, Type (0, 0), BuildingBlock: XIVTED_clean_linker_0, # of connection points: 2
#     Edge 21, Type (0, 0), BuildingBlock: XIVTED_clean_linker_0, # of connection points: 2
#     Edge 22, Type (0, 0), BuildingBlock: XIVTED_clean_linker_0, # of connection points: 2
#     Edge 23, Type (0, 0), BuildingBlock: XIVTED_clean_linker_0, # of connection points: 2
#     Edge 24, Type (0, 0), BuildingBlock: XIVTED_clean_linker_0, # of connection points: 2
#     Edge 25, Type (0, 0), BuildingBlock: XIVTED_clean_linker_0, # of connection points: 2
#     Edge 26, Type (0, 0), BuildingBlock: XIVTED_clean_linker_0, # of connection points: 2
#     Edge 27, Type (0, 0), BuildingBlock: XIVTED_clean_linker_0, # of connection points: 2
#     Edge 28, Type (0, 0), BuildingBlock: XIVTED_clean_linker_0, # of connection points: 2
#     Edge 29, Type (0, 0), BuildingBlock: XIVTED_clean_linker_0, # of connection points: 2
#     Edge 30, Type (0, 0), BuildingBlock: XIVTED_clean_linker_0, # of connection points: 2
#     Edge 31, Type (0, 0), BuildingBlock: XIVTED_clean_linker_0, # of connection points: 2
# Relax obj value: 0.086
# Max RMSD: 0.150
# Mean RMSD: 0.124
data_MOF--net-snk--node1-BETDAH_clean_sbu_0--edge1-XIVTED_clean_linker_0
_symmetry_space_group_name_H-M    P1
_symmetry_Int_Tables_number       1
_symmetry_cell_setting            triclinic
loop_
_symmetry_equiv_pos_as_xyz
'x, y, z'
_cell_length_a     37.907078
_cell_length_b     37.932991
_cell_length_c     25.460798
_cell_angle_alpha  83.501512
_cell_angle_beta   96.304232
_cell_angle_gamma 89.178754
loop_
_atom_site_label
_atom_site_type_symbol
_atom_site_fract_x
_atom_site_fract_y
_atom_site_fract_z
_atom_type_partial_charge
Ho0 Ho 0.98342 0.98448 0.45076 0.0
Ho1 Ho 0.02104 0.00627 0.55682 0.0
C2 C 0.05022 0.03798 0.45002 0.0
C3 C 0.95153 0.98303 0.35563 0.0
C4 C 0.96042 0.98836 0.30047 0.0
C5 C 0.93299 0.99305 0.25852 0.0
C6 C 0.94067 0.99603 0.20572 0.0
C7 C 0.97601 0.9943 0.19381 0.0
C8 C 0.00352 0.99038 0.2362 0.0
C9 C 0.99579 0.98747 0.28906 0.0
C10 C 0.03615 0.94048 0.50059 0.0
C11 C 0.95285 0.95387 0.55736 0.0
C12 C 0.05364 0.0069 0.65158 0.0
C13 C 0.04442 0.00361 0.70657 0.0
C14 C 0.07159 0.99949 0.74892 0.0
C15 C 0.06356 0.99768 0.80147 0.0
C16 C 0.02811 1.00002 0.81273 0.0
C17 C 1.00087 0.0036 0.76996 0.0
C18 C 0.00896 0.00536 0.71734 0.0
C19 C 0.96899 0.05075 0.50679 0.0
O20 O 0.02076 0.02719 0.4243 0.0
O21 O 0.05953 0.02775 0.5012 0.0
O22 O 0.9662 0.9551 0.38518 0.0
O23 O 0.95171 0.01112 0.38107 0.0
O24 O 0.00829 0.92977 0.4733 0.0
O25 O 0.03578 0.97377 0.49674 0.0
O26 O 0.981 0.9664 0.58423 0.0
O27 O 0.94528 0.9613 0.50527 0.0
O28 O 0.04149 0.03553 0.62103 0.0
O29 O 0.05064 0.9783 0.62726 0.0
O30 O 0.99682 0.06116 0.53463 0.0
O31 O 0.9689 0.01742 0.51061 0.0
H32 H 0.90554 0.99398 0.26659 0.0
H33 H 0.91885 0.99972 0.17422 0.0
H34 H 0.03101 0.98862 0.22863 0.0
H35 H 0.01735 0.98388 0.32101 0.0
H36 H 0.09911 0.9979 0.74134 0.0
H37 H 0.08518 0.99425 0.8333 0.0
H38 H 0.97331 0.00581 0.77702 0.0
H39 H 0.9876 0.00853 0.68506 0.0
Ho40 Ho 0.24663 0.7327 0.8127 0.0
Ho41 Ho 0.26878 0.7697 0.70624 0.0
C42 C 0.29988 0.80022 0.81234 0.0
C43 C 0.2456 0.70021 0.9076 0.0
C44 C 0.24892 0.70937 0.96252 0.0
C45 C 0.25224 0.68214 1.0049 0.0
C46 C 0.25424 0.69014 0.0574 0.0
C47 C 0.2529 0.72562 0.06854 0.0
C48 C 0.24996 0.75291 0.02575 0.0
C49 C 0.24805 0.74484 0.97318 0.0
C50 C 0.20242 0.78487 0.7623 0.0
C51 C 0.21477 0.7033 0.70638 0.0
C52 C 0.27084 0.80121 0.61088 0.0
C53 C 0.26531 0.79209 0.55597 0.0
C54 C 0.26188 0.81932 0.51358 0.0
C55 C 0.25874 0.81129 0.46102 0.0
C56 C 0.25907 0.77578 0.44987 0.0
C57 C 0.26181 0.74852 0.49266 0.0
C58 C 0.26482 0.75661 0.54527 0.0
C59 C 0.31235 0.71681 0.75698 0.0
O60 O 0.28701 0.77233 0.83959 0.0
O61 O 0.29241 0.80773 0.76025 0.0
O62 O 0.2171 0.71262 0.87706 0.0
O63 O 0.27427 0.703 0.88327 0.0
O64 O 0.19193 0.75723 0.7906 0.0
O65 O 0.23579 0.78482 0.76579 0.0
O66 O 0.22577 0.7326 0.68029 0.0
O67 O 0.22495 0.69412 0.7576 0.0
O68 O 0.29851 0.7861 0.6405 0.0
O69 O 0.24273 0.80168 0.63637 0.0
O70 O 0.32337 0.74451 0.7295 0.0
O71 O 0.27905 0.71752 0.75278 0.0
H72 H 0.2529 0.6546 0.99735 0.0
H73 H 0.25605 0.66846 0.08922 0.0
H74 H 0.24933 0.7805 0.03289 0.0
H75 H 0.24566 0.76624 0.94086 0.0
H76 H 0.26227 0.84686 0.52114 0.0
H77 H 0.25707 0.83294 0.42916 0.0
H78 H 0.26164 0.72091 0.4855 0.0
H79 H 0.26726 0.73521 0.57758 0.0
Ho80 Ho 0.51758 0.98125 0.07706 0.0
Ho81 Ho 0.48603 0.01553 0.96639 0.0
C82 C 0.45017 0.03739 0.0649 0.0
C83 C 0.54407 0.96647 0.17554 0.0
C84 C 0.53548 0.97172 0.22926 0.0
C85 C 0.51763 0.00254 0.23927 0.0
C86 C 0.5105 0.00696 0.29102 0.0
C87 C 0.52106 0.98062 0.33367 0.0
C88 C 0.53876 0.94975 0.32317 0.0
C89 C 0.54586 0.94539 0.27153 0.0
C90 C 0.46957 0.94318 0.02328 0.0
C91 C 0.55471 0.96066 0.97904 0.0
C92 C 0.45797 0.0278 0.8684 0.0
C93 C 0.46649 0.02258 0.81461 0.0
C94 C 0.48502 0.99212 0.8047 0.0
C95 C 0.49207 0.98774 0.7529 0.0
C96 C 0.48081 0.01376 0.71013 0.0
C97 C 0.46246 0.04427 0.72053 0.0
C98 C 0.45539 0.04858 0.77219 0.0
C99 C 0.53374 0.0546 0.01894 0.0
O100 O 0.4779 0.02192 0.09556 0.0
O101 O 0.4447 0.03448 1.01341 0.0
O102 O 0.52385 0.94501 0.14982 0.0
O103 O 0.55196 0.99468 0.14498 0.0
O104 O 0.49778 0.92925 0.05192 0.0
O105 O 0.46768 0.97603 0.02591 0.0
O106 O 0.52693 0.97587 0.9481 0.0
O107 O 0.55967 0.96327 0.03064 0.0
O108 O 0.47694 0.0508 0.89286 0.0
O109 O 0.45197 0.99937 0.90004 0.0
O110 O 0.50644 0.06801 0.98745 0.0
O111 O 0.53576 0.02147 0.01802 0.0
H112 H 0.50934 0.02322 0.2072 0.0
H113 H 0.49647 0.03087 0.29753 0.0
H114 H 0.54775 0.92916 0.35504 0.0
H115 H 0.55978 0.92147 0.26466 0.0
H116 H 0.49393 0.97171 0.83688 0.0
H117 H 0.50661 0.96411 0.74644 0.0
H118 H 0.45295 0.0646 0.68855 0.0
H119 H 0.44096 0.07221 0.77899 0.0
Ho120 Ho 0.23466 0.26767 0.20915 0.0
Ho121 Ho 0.26774 0.23589 0.32089 0.0
C122 C 0.29128 0.20053 0.22262 0.0
C123 C 0.22299 0.29594 0.11116 0.0
C124 C 0.22737 0.28677 0.05749 0.0
C125 C 0.25726 0.26741 0.04739 0.0
C126 C 0.26117 0.26004 0.99567 0.0
C127 C 0.23524 0.27186 0.95314 0.0
C128 C 0.20521 0.29094 0.96371 0.0
C129 C 0.20137 0.29831 0.01536 0.0
C130 C 0.19664 0.21754 0.25923 0.0
C131 C 0.21104 0.30296 0.3074 0.0
C132 C 0.27965 0.20759 0.41884 0.0
C133 C 0.27515 0.21654 0.47257 0.0
C134 C 0.24519 0.23576 0.48273 0.0
C135 C 0.24122 0.24299 0.53451 0.0
C136 C 0.26715 0.23116 0.57701 0.0
C137 C 0.29723 0.21218 0.5664 0.0
C138 C 0.30114 0.20496 0.5147 0.0
C139 C 0.30592 0.28568 0.27035 0.0
O140 O 0.27573 0.22807 0.19153 0.0
O141 O 0.28792 0.19505 0.27404 0.0
O142 O 0.19915 0.27849 0.13615 0.0
O143 O 0.25201 0.30039 0.14229 0.0
O144 O 0.18252 0.24455 0.22781 0.0
O145 O 0.22988 0.2172 0.25965 0.0
O146 O 0.22658 0.27541 0.33848 0.0
O147 O 0.21444 0.30847 0.256 0.0
O148 O 0.30328 0.22542 0.39389 0.0
O149 O 0.25071 0.20285 0.3877 0.0
O150 O 0.31993 0.25861 0.30175 0.0
O151 O 0.27269 0.28625 0.27029 0.0
H152 H 0.27768 0.25821 0.07933 0.0
H153 H 0.28439 0.24491 0.98904 0.0
H154 H 0.18499 0.30086 0.93187 0.0
H155 H 0.17818 0.3134 0.02233 0.0
H156 H 0.22478 0.24499 0.45079 0.0
H157 H 0.21794 0.25803 0.54117 0.0
H158 H 0.31746 0.20226 0.59822 0.0
H159 H 0.32438 0.18997 0.50769 0.0
Ho160 Ho 0.74354 0.2317 0.31696 0.0
Ho161 Ho 0.76231 0.27104 0.21017 0.0
C162 C 0.7965 0.29899 0.31615 0.0
C163 C 0.74415 0.199 0.41222 0.0
C164 C 0.74754 0.20809 0.46732 0.0
C165 C 0.75389 0.18097 0.50965 0.0
C166 C 0.75552 0.1887 0.56231 0.0
C167 C 0.75077 0.2238 0.57381 0.0
C168 C 0.74505 0.25105 0.53106 0.0
C169 C 0.74347 0.24327 0.47831 0.0
C170 C 0.69856 0.28506 0.27139 0.0
C171 C 0.70997 0.20306 0.21139 0.0
C172 C 0.76137 0.30394 0.11498 0.0
C173 C 0.75804 0.29492 0.05985 0.0
C174 C 0.75162 0.32207 0.01757 0.0
C175 C 0.75002 0.3144 0.96488 0.0
C176 C 0.75488 0.27932 0.95331 0.0
C177 C 0.76068 0.25205 0.99602 0.0
C178 C 0.76223 0.25978 0.04879 0.0
C179 C 0.80745 0.21787 0.25563 0.0
O180 O 0.78692 0.2688 0.34156 0.0
O181 O 0.78464 0.30913 0.26572 0.0
O182 O 0.71519 0.21057 0.38214 0.0
O183 O 0.77246 0.20259 0.38718 0.0
O184 O 0.68853 0.2567 0.29842 0.0
O185 O 0.73177 0.2847 0.27322 0.0
O186 O 0.71925 0.23331 0.18566 0.0
O187 O 0.72188 0.19327 0.26185 0.0
O188 O 0.79043 0.29256 0.14496 0.0
O189 O 0.73312 0.30006 0.14011 0.0
O190 O 0.81734 0.24611 0.22813 0.0
O191 O 0.77425 0.21813 0.25394 0.0
H192 H 0.75728 0.15368 0.50195 0.0
H193 H 0.76065 0.16711 0.59405 0.0
H194 H 0.74095 0.27832 0.53825 0.0
H195 H 0.73856 0.26461 0.44611 0.0
H196 H 0.74814 0.34934 0.02532 0.0
H197 H 0.74484 0.336 0.93318 0.0
H198 H 0.76487 0.2248 0.98878 0.0
H199 H 0.7672 0.23842 0.08095 0.0
Ho200 Ho 0.73721 0.76786 0.71538 0.0
Ho201 Ho 0.77264 0.73706 0.82601 0.0
C202 C 0.79284 0.69989 0.7277 0.0
C203 C 0.72393 0.79528 0.61712 0.0
C204 C 0.72942 0.78683 0.56341 0.0
C205 C 0.7604 0.76918 0.55345 0.0
C206 C 0.76503 0.7622 0.50172 0.0
C207 C 0.73873 0.77268 0.45904 0.0
C208 C 0.70769 0.79015 0.46949 0.0
C209 C 0.70314 0.79713 0.5211 0.0
C210 C 0.69919 0.71991 0.76982 0.0
C211 C 0.7159 0.80412 0.81368 0.0
C212 C 0.78847 0.71113 0.9246 0.0
C213 C 0.78288 0.71942 0.97833 0.0
C214 C 0.75173 0.73674 0.98831 0.0
C215 C 0.74702 0.74364 0.04005 0.0
C216 C 0.77342 0.73341 0.08271 0.0
C217 C 0.80461 0.71623 0.07222 0.0
C218 C 0.80924 0.70934 0.0206 0.0
C219 C 0.81004 0.78457 0.76991 0.0
O220 O 0.77711 0.72741 0.69678 0.0
O221 O 0.79077 0.69504 0.77953 0.0
O222 O 0.70162 0.77558 0.64217 0.0
O223 O 0.75213 0.80232 0.64831 0.0
O224 O 0.68518 0.74693 0.73827 0.0
O225 O 0.73227 0.71831 0.76819 0.0
O226 O 0.73175 0.77663 0.84456 0.0
O227 O 0.71836 0.8093 0.76202 0.0
O228 O 0.80904 0.7323 0.89843 0.0
O229 O 0.76064 0.70208 0.89447 0.0
O230 O 0.82426 0.75662 0.79896 0.0
O231 O 0.77728 0.78654 0.77357 0.0
H232 H 0.78104 0.76091 0.58555 0.0
H233 H 0.78906 0.74834 0.49523 0.0
H234 H 0.68713 0.79906 0.43759 0.0
H235 H 0.6791 0.81088 0.52792 0.0
H236 H 0.73103 0.74481 0.95622 0.0
H237 H 0.72286 0.75728 0.04656 0.0
H238 H 0.82525 0.7075 0.10409 0.0
H239 H 0.83341 0.69583 1.01373 0.0
Ho240 Ho 0.48313 0.4924 0.96677 0.0
Ho241 Ho 0.5227 0.51197 0.07282 0.0
C242 C 0.55114 0.54465 0.96634 0.0
C243 C 0.45065 0.49257 0.87157 0.0
C244 C 0.45987 0.49628 0.81644 0.0
C245 C 0.43274 0.50182 0.7741 0.0
C246 C 0.44067 0.504 0.72143 0.0
C247 C 0.47599 0.50062 0.70996 0.0
C248 C 0.5032 0.49549 0.75272 0.0
C249 C 0.49522 0.49341 0.80547 0.0
C250 C 0.53564 0.44695 1.01365 0.0
C251 C 0.45459 0.45991 0.07332 0.0
C252 C 0.55517 0.51181 0.16801 0.0
C253 C 0.54594 0.50783 0.22313 0.0
C254 C 0.57307 0.50233 0.26549 0.0
C255 C 0.56512 0.49998 0.31816 0.0
C256 C 0.52978 0.50316 0.32961 0.0
C257 C 0.50256 0.50821 0.28684 0.0
C258 C 0.51057 0.51044 0.2341 0.0
C259 C 0.47015 0.55736 0.0257 0.0
O260 O 0.52095 0.53497 0.94117 0.0
O261 O 0.56109 0.53333 0.017 0.0
O262 O 0.46268 0.46379 0.90174 0.0
O263 O 0.45364 0.52087 0.89652 0.0
O264 O 0.50716 0.43718 0.98676 0.0
O265 O 0.53596 0.4802 1.0109 0.0
O266 O 0.48482 0.46949 0.09845 0.0
O267 O 0.44467 0.4712 0.02262 0.0
O268 O 0.54287 0.54056 0.13801 0.0
O269 O 0.55249 0.48357 0.14288 0.0
O270 O 0.49863 0.5672 0.05251 0.0
O271 O 0.46997 0.52411 0.02873 0.0
H272 H 0.40528 0.50402 0.78178 0.0
H273 H 0.41899 0.50754 0.6897 0.0
H274 H 0.53072 0.49326 0.74545 0.0
H275 H 0.51658 0.4893 0.83767 0.0
H276 H 0.60054 0.50032 0.25781 0.0
H277 H 0.5868 0.49651 0.34989 0.0
H278 H 0.47503 0.51028 0.29411 0.0
H279 H 0.48921 0.51451 0.20189 0.0
Ho280 Ho 0.0169 0.48455 0.57151 0.0
Ho281 Ho 0.987 0.52012 0.46058 0.0
C282 C 0.95025 0.54162 0.55877 0.0
C283 C 0.04353 0.46983 0.66988 0.0
C284 C 0.03519 0.47548 0.72352 0.0
C285 C 0.0178 0.50664 0.73322 0.0
C286 C 0.01113 0.51159 0.78495 0.0
C287 C 0.02177 0.48549 0.82789 0.0
C288 C 0.0388 0.45418 0.81766 0.0
C289 C 0.04543 0.44928 0.76602 0.0
C290 C 0.96871 0.44713 0.5169 0.0
C291 C 0.0534 0.46278 0.47337 0.0
C292 C 0.96061 0.53518 0.36214 0.0
C293 C 0.9688 0.52924 0.30854 0.0
C294 C 0.98591 0.49789 0.29901 0.0
C295 C 0.99249 0.49272 0.24732 0.0
C296 C 0.98201 0.51878 0.20426 0.0
C297 C 0.96524 0.55027 0.21432 0.0
C298 C 0.95871 0.5554 0.26591 0.0
C299 C 0.03558 0.55721 0.5153 0.0
O300 O 0.97736 0.52535 0.58986 0.0
O301 O 0.9455 0.53961 0.50697 0.0
O302 O 0.02298 0.44849 0.64447 0.0
O303 O 0.05163 0.49784 0.63909 0.0
O304 O 0.99566 0.43288 0.54827 0.0
O305 O 0.96739 0.48021 0.51853 0.0
O306 O 0.02619 0.47892 0.4423 0.0
O307 O 0.05836 0.46515 0.52505 0.0
O308 O 0.98164 0.55612 0.38756 0.0
O309 O 0.95196 0.50742 0.39293 0.0
O310 O 0.00857 0.57167 0.48426 0.0
O311 O 0.03659 0.52419 0.5133 0.0
H312 H 0.00972 0.52727 0.70098 0.0
H313 H 0.99826 0.53615 0.79143 0.0
H314 H 0.04681 0.43327 0.84952 0.0
H315 H 0.05876 0.425 0.75929 0.0
H316 H 0.99385 0.4773 0.33136 0.0
H317 H 0.00516 0.46802 0.24097 0.0
H318 H 0.95737 0.57115 0.18235 0.0
H319 H 0.9456 0.57983 0.27252 0.0
H320 H 0.03133 0.07926 0.35613 0.0
H321 H 0.22218 0.15787 0.3239 0.0
H322 H 0.1202 0.05328 0.47632 0.0
H323 H 0.12487 0.21376 0.25656 0.0
H324 H 0.18731 0.11299 0.37096 0.0
H325 H 0.06764 0.12208 0.30899 0.0
C326 C 0.05859 0.08235 0.37244 0.0
C327 C 0.07276 0.0627 0.42033 0.0
C328 C 0.1737 0.13518 0.346 0.0
C329 C 0.11444 0.11161 0.3663 0.0
C330 C 0.19352 0.1608 0.31932 0.0
C331 C 0.17634 0.18979 0.287 0.0
C332 C 0.13649 0.13823 0.33916 0.0
C333 C 0.13914 0.19191 0.28136 0.0
C334 C 0.07919 0.10695 0.34563 0.0
C335 C 0.10819 0.06801 0.43967 0.0
N336 N 0.12044 0.16638 0.307 0.0
N337 N 0.12793 0.0919 0.41243 0.0
H338 H 0.02969 0.87038 0.53339 0.0
H339 H 0.21794 0.84883 0.71037 0.0
H340 H 0.09999 0.9578 0.55025 0.0
H341 H 0.13323 0.77523 0.7282 0.0
H342 H 0.17805 0.88717 0.64467 0.0
H343 H 0.07076 0.83255 0.59727 0.0
C344 C 0.05393 0.8815 0.55037 0.0
C345 C 0.06154 0.91717 0.53688 0.0
C346 C 0.16821 0.86269 0.66316 0.0
C347 C 0.10852 0.87423 0.60976 0.0
C348 C 0.19091 0.84088 0.70049 0.0
C349 C 0.17871 0.80898 0.72453 0.0
C350 C 0.13331 0.85221 0.64961 0.0
C351 C 0.14355 0.79974 0.71063 0.0
C352 C 0.07723 0.86 0.58699 0.0
C353 C 0.0932 0.93038 0.55996 0.0
N354 N 0.12211 0.82117 0.67383 0.0
N355 N 0.11564 0.90887 0.59535 0.0
H356 H 0.3596 0.83076 0.78048 0.0
H357 H 0.39854 0.95701 0.99986 0.0
H358 H 0.2947 0.8219 0.91006 0.0
H359 H 0.48236 0.88528 0.97339 0.0
H360 H 0.35567 0.92282 0.94747 0.0
H361 H 0.40138 0.8666 0.83161 0.0
C362 C 0.35396 0.8368 0.81936 0.0
C363 C 0.32379 0.82351 0.84127 0.0
C364 C 0.38349 0.91479 0.95321 0.0
C365 C 0.37067 0.86473 0.89875 0.0
C366 C 0.40784 0.9342 0.98274 0.0
C367 C 0.44379 0.92359 0.99107 0.0
C368 C 0.39557 0.88556 0.93046 0.0
C369 C 0.45472 0.89395 0.96815 0.0
C370 C 0.3778 0.85695 0.84841 0.0
C371 C 0.31778 0.83166 0.89199 0.0
N372 N 0.43071 0.87611 0.93823 0.0
N373 N 0.34088 0.85216 0.91896 0.0
H374 H 0.44665 0.04271 0.17069 0.0
H375 H 0.29604 0.19612 0.11693 0.0
H376 H 0.39603 0.08149 1.01413 0.0
H377 H 0.33527 0.14643 0.2739 0.0
H378 H 0.33302 0.15486 0.07857 0.0
H379 H 0.40657 0.08088 0.20929 0.0
C380 C 0.42708 0.05917 0.14439 0.0
C381 C 0.42486 0.05898 0.08901 0.0
C382 C 0.33345 0.15289 0.1214 0.0
C383 C 0.37886 0.10285 0.13304 0.0
C384 C 0.31241 0.17655 0.14339 0.0
C385 C 0.31265 0.17489 0.19879 0.0
C386 C 0.35512 0.12748 0.15501 0.0
C387 C 0.33421 0.14871 0.23099 0.0
C388 C 0.40412 0.08091 0.16651 0.0
C389 C 0.39874 0.08072 0.05701 0.0
N390 N 0.35471 0.12616 0.20864 0.0
N391 N 0.37692 0.10192 0.07947 0.0
H392 H 0.93175 0.9604 0.65499 0.0
H393 H 0.86567 0.76986 0.71648 0.0
H394 H 0.92086 0.89456 0.527 0.0
H395 H 0.79795 0.85591 0.7466 0.0
H396 H 0.89837 0.81242 0.66104 0.0
H397 H 0.89397 0.91966 0.70486 0.0
C398 C 0.9213 0.93744 0.63745 0.0
C399 C 0.92909 0.93077 0.58685 0.0
C400 C 0.87629 0.8218 0.67983 0.0
C401 C 0.88724 0.88407 0.64386 0.0
C402 C 0.85785 0.79774 0.71147 0.0
C403 C 0.82929 0.80964 0.73594 0.0
C404 C 0.86679 0.85798 0.67438 0.0
C405 C 0.81986 0.84588 0.72813 0.0
C406 C 0.89979 0.91444 0.6657 0.0
C407 C 0.91508 0.90068 0.56574 0.0
N408 N 0.83901 0.86903 0.69863 0.0
N409 N 0.89524 0.87801 0.59477 0.0
H410 H 0.90452 0.035 0.4572 0.0
H411 H 0.87811 0.22436 0.2837 0.0
H412 H 0.9776 0.12025 0.47313 0.0
H413 H 0.79146 0.15378 0.30629 0.0
H414 H 0.91751 0.18303 0.34483 0.0
H415 H 0.86471 0.07512 0.39401 0.0
C416 C 0.91206 0.06219 0.44741 0.0
C417 C 0.94421 0.07451 0.47023 0.0
C418 C 0.88988 0.17656 0.33639 0.0
C419 C 0.89931 0.12015 0.39816 0.0
C420 C 0.86749 0.20001 0.30134 0.0
C421 C 0.83161 0.19236 0.29024 0.0
C422 C 0.87631 0.1451 0.35995 0.0
C423 C 0.81904 0.16057 0.31413 0.0
C424 C 0.88941 0.08501 0.41153 0.0
C425 C 0.95291 0.10986 0.45648 0.0
N426 N 0.84142 0.13798 0.34792 0.0
N427 N 0.93066 0.13143 0.42107 0.0
H428 H 0.69835 0.13228 0.23772 0.0
H429 H 0.534 0.12634 0.0166 0.0
H430 H 0.66605 0.22093 0.1196 0.0
H431 H 0.59426 0.03151 0.08393 0.0
H432 H 0.578 0.16195 0.06263 0.0
H433 H 0.65625 0.09511 0.19018 0.0
C434 C 0.68247 0.14391 0.20181 0.0
C435 C 0.68571 0.17976 0.18256 0.0
C436 C 0.5816 0.13335 0.06736 0.0
C437 C 0.63738 0.1376 0.12863 0.0
C438 C 0.55648 0.11301 0.04124 0.0
C439 C 0.5604 0.07593 0.04686 0.0
C440 C 0.61065 0.11648 0.09995 0.0
C441 C 0.59004 0.06002 0.07918 0.0
C442 C 0.6586 0.12266 0.17466 0.0
C443 C 0.66456 0.19341 0.13575 0.0
N444 N 0.61399 0.08039 0.1049 0.0
N445 N 0.64109 0.1724 0.11066 0.0
H446 H 0.67199 0.85826 0.76247 0.0
H447 H 0.61003 0.91829 0.03028 0.0
H448 H 0.71038 0.80798 0.91946 0.0
H449 H 0.55879 0.9552 0.87334 0.0
H450 H 0.6511 0.88197 0.99028 0.0
H451 H 0.6345 0.8982 0.8025 0.0
C452 C 0.67272 0.85569 0.80538 0.0
C453 C 0.6943 0.82955 0.83762 0.0
C454 C 0.63091 0.89808 0.96461 0.0
C455 C 0.65134 0.87528 0.8837 0.0
C456 C 0.60749 0.91894 0.98739 0.0
C457 C 0.58076 0.93977 0.95516 0.0
C458 C 0.62777 0.89815 0.90913 0.0
C459 C 0.57879 0.93943 0.89982 0.0
C460 C 0.65119 0.87847 0.82819 0.0
C461 C 0.69403 0.82753 0.89299 0.0
N462 N 0.60195 0.91893 0.87858 0.0
N463 N 0.67287 0.85006 0.91425 0.0
H464 H 0.53162 0.58784 0.87449 0.0
H465 H 0.72402 0.6599 0.83448 0.0
H466 H 0.62197 0.55768 0.99032 0.0
H467 H 0.62758 0.71872 0.77102 0.0
H468 H 0.68871 0.61644 0.88358 0.0
H469 H 0.56828 0.62988 0.82666 0.0
C470 C 0.55926 0.58987 0.88972 0.0
C471 C 0.57377 0.56922 0.93654 0.0
C472 C 0.6754 0.63898 0.85906 0.0
C473 C 0.61588 0.61728 0.8817 0.0
C474 C 0.69548 0.6638 0.83123 0.0
C475 C 0.67868 0.69315 0.79928 0.0
C476 C 0.63828 0.64322 0.85379 0.0
C477 C 0.64158 0.69654 0.79542 0.0
C478 C 0.58009 0.61404 0.86252 0.0
C479 C 0.6097 0.57321 0.95451 0.0
N480 N 0.62261 0.67178 0.82213 0.0
N481 N 0.62965 0.59669 0.92687 0.0
H482 H 0.71493 0.34901 0.22115 0.0
H483 H 0.52629 0.37737 0.04691 0.0
H484 H 0.62831 0.27782 0.23974 0.0
H485 H 0.6002 0.46186 0.0635 0.0
H486 H 0.56595 0.33817 0.11104 0.0
H487 H 0.67551 0.38895 0.15744 0.0
C488 C 0.68753 0.34195 0.21195 0.0
C489 C 0.67471 0.31022 0.23555 0.0
C490 C 0.57351 0.36528 0.10066 0.0
C491 C 0.62977 0.35535 0.16268 0.0
C492 C 0.55102 0.38755 0.06387 0.0
C493 C 0.56012 0.42278 0.05013 0.0
C494 C 0.60547 0.37829 0.12332 0.0
C495 C 0.59231 0.4348 0.0733 0.0
C496 C 0.6651 0.36469 0.1757 0.0
C497 C 0.63911 0.30216 0.22245 0.0
N498 N 0.61394 0.41254 0.10877 0.0
N499 N 0.61788 0.32451 0.18657 0.0
H500 H 0.90854 0.47193 0.45228 0.0
H501 H 0.84036 0.27919 0.40701 0.0
H502 H 0.96874 0.37587 0.51333 0.0
H503 H 0.80875 0.37016 0.29284 0.0
H504 H 0.88165 0.31598 0.45544 0.0
H505 H 0.86609 0.43669 0.40144 0.0
C506 C 0.91296 0.44352 0.45463 0.0
C507 C 0.9424 0.4268 0.48643 0.0
C508 C 0.8657 0.32791 0.41978 0.0
C509 C 0.89365 0.38645 0.42997 0.0
C510 C 0.84196 0.30699 0.39222 0.0
C511 C 0.82108 0.32163 0.34573 0.0
C512 C 0.86828 0.36395 0.40135 0.0
C513 C 0.8245 0.35778 0.32836 0.0
C514 C 0.88872 0.42347 0.42581 0.0
C515 C 0.94646 0.38982 0.48913 0.0
N516 N 0.84755 0.37783 0.35639 0.0
N517 N 0.92228 0.37088 0.46151 0.0
H518 H 0.83594 0.64474 0.77804 0.0
H519 H 0.89625 0.58608 0.50814 0.0
H520 H 0.79761 0.69626 0.62176 0.0
H521 H 0.94582 0.54571 0.66467 0.0
H522 H 0.85596 0.62276 0.54905 0.0
H523 H 0.8724 0.60435 0.73702 0.0
C524 C 0.83501 0.64748 0.7351 0.0
C525 C 0.81376 0.6741 0.70336 0.0
C526 C 0.87561 0.60581 0.57442 0.0
C527 C 0.85553 0.6279 0.65613 0.0
C528 C 0.8986 0.58477 0.5511 0.0
C529 C 0.92464 0.56287 0.58296 0.0
C530 C 0.87854 0.60486 0.63005 0.0
C531 C 0.92637 0.56234 0.63844 0.0
C532 C 0.85594 0.62445 0.71171 0.0
C533 C 0.81372 0.67634 0.6479 0.0
N534 N 0.90369 0.58305 0.66019 0.0
N535 N 0.83431 0.65359 0.62609 0.0
H536 H 0.28104 0.34565 0.20546 0.0
H537 H 0.4737 0.41747 0.16597 0.0
H538 H 0.37753 0.28745 0.27051 0.0
H539 H 0.38374 0.44691 0.04908 0.0
H540 H 0.43678 0.37604 0.21434 0.0
H541 H 0.31644 0.38909 0.15638 0.0
C542 C 0.30961 0.34192 0.20912 0.0
C543 C 0.32641 0.3127 0.24141 0.0
C544 C 0.42511 0.39159 0.17813 0.0
C545 C 0.36688 0.36257 0.18694 0.0
C546 C 0.44609 0.4154 0.1506 0.0
C547 C 0.43178 0.43566 0.10332 0.0
C548 C 0.38935 0.3883 0.1588 0.0
C549 C 0.39586 0.43166 0.08523 0.0
C550 C 0.32973 0.36671 0.18129 0.0
C551 C 0.36353 0.30951 0.24582 0.0
N552 N 0.37576 0.40851 0.11317 0.0
N553 N 0.38253 0.33421 0.21908 0.0
H554 H 0.48026 0.62651 0.99087 0.0
H555 H 0.29464 0.65339 0.80764 0.0
H556 H 0.4058 0.54241 0.97516 0.0
H557 H 0.38178 0.72437 0.79282 0.0
H558 H 0.33256 0.61414 0.87458 0.0
H559 H 0.44165 0.66516 0.92453 0.0
C560 C 0.45561 0.61632 0.97366 0.0
C561 C 0.44609 0.58133 0.98823 0.0
C562 C 0.34341 0.63822 0.85647 0.0
C563 C 0.40194 0.62518 0.91244 0.0
C564 C 0.32183 0.66055 0.81839 0.0
C565 C 0.33523 0.69204 0.79495 0.0
C566 C 0.37846 0.64771 0.87135 0.0
C567 C 0.37054 0.70023 0.80998 0.0
C568 C 0.43372 0.63827 0.93561 0.0
C569 C 0.41401 0.56928 0.96471 0.0
N570 N 0.39092 0.67828 0.84752 0.0
N571 N 0.39299 0.59122 0.92791 0.0
H572 H 0.1728 0.72239 0.61333 0.0
H573 H 0.09572 0.53151 0.57893 0.0
H574 H 0.19987 0.63316 0.73273 0.0
H575 H 0.03823 0.62875 0.51564 0.0
H576 H 0.14034 0.56625 0.62656 0.0
H577 H 0.12988 0.68609 0.56673 0.0
C578 C 0.16993 0.69506 0.62957 0.0
C579 C 0.18993 0.68078 0.67707 0.0
C580 C 0.11783 0.57985 0.60239 0.0
C581 C 0.14091 0.63908 0.62364 0.0
C582 C 0.09236 0.5601 0.57542 0.0
C583 C 0.06302 0.5773 0.54398 0.0
C584 C 0.11429 0.61702 0.59667 0.0
C585 C 0.06035 0.61444 0.53969 0.0
C586 C 0.14527 0.67445 0.60308 0.0
C587 C 0.18487 0.64524 0.69637 0.0
N588 N 0.08576 0.63308 0.56549 0.0
N589 N 0.16094 0.62549 0.6694 0.0
H590 H 0.16747 0.35739 0.25607 0.0
H591 H 0.1074 0.4186 0.52447 0.0
H592 H 0.20557 0.30692 0.41305 0.0
H593 H 0.05735 0.45755 0.36762 0.0
H594 H 0.14739 0.38127 0.48418 0.0
H595 H 0.13071 0.39801 0.29624 0.0
C596 C 0.16824 0.3549 0.29899 0.0
C597 C 0.18954 0.32853 0.3312 0.0
C598 C 0.12769 0.39804 0.45859 0.0
C599 C 0.14748 0.37501 0.37743 0.0
C600 C 0.10489 0.41947 0.48155 0.0
C601 C 0.07881 0.44117 0.44942 0.0
C602 C 0.12456 0.39839 0.40305 0.0
C603 C 0.07685 0.44109 0.39402 0.0
C604 C 0.14716 0.37807 0.32188 0.0
C605 C 0.18938 0.3266 0.38659 0.0
N606 N 0.09938 0.42002 0.37262 0.0
N607 N 0.16868 0.3495 0.40791 0.0
H608 H 0.97306 0.96715 0.85903 0.0
H609 H 0.03057 0.02798 0.14724 0.0
H610 H 0.06403 0.03104 0.89458 0.0
H611 H 0.93977 0.96387 0.11167 0.0
H612 H 0.04331 0.02935 0.05497 0.0
H613 H 0.96004 0.96626 0.95109 0.0
C614 C 0.99022 0.98116 0.88604 0.0
C615 C 0.01976 0.99915 0.86879 0.0
C616 C 0.02055 0.01503 0.06732 0.0
C617 C 0.00517 0.99792 0.97477 0.0
C618 C 0.01337 0.01406 0.12017 0.0
C619 C 0.98399 0.99582 0.13749 0.0
C620 C 0.99827 0.99758 0.0313 0.0
C621 C 0.9624 0.97873 0.10014 0.0
C622 C 0.98288 0.98046 0.93877 0.0
C623 C 0.04129 0.01636 0.90607 0.0
N624 N 0.96998 0.98001 0.04898 0.0
N625 N 0.03357 0.01532 0.95714 0.0
H626 H 0.29696 0.72437 0.41066 0.0
H627 H 0.21407 0.77645 0.10771 0.0
H628 H 0.21812 0.80822 0.36122 0.0
H629 H 0.29399 0.69363 0.15728 0.0
H630 H 0.21525 0.78862 0.20014 0.0
H631 H 0.29551 0.71216 0.31828 0.0
C632 C 0.27909 0.74003 0.38048 0.0
C633 C 0.2576 0.76737 0.3939 0.0
C634 C 0.23256 0.7678 0.19081 0.0
C635 C 0.25616 0.75379 0.2876 0.0
C636 C 0.23208 0.76099 0.13792 0.0
C637 C 0.25396 0.73394 0.12452 0.0
C638 C 0.25511 0.74748 0.23081 0.0
C639 C 0.27631 0.71442 0.16569 0.0
C640 C 0.27847 0.7332 0.3276 0.0
C641 C 0.23547 0.78717 0.35276 0.0
N642 N 0.2763 0.72157 0.21684 0.0
N643 N 0.23532 0.77999 0.30158 0.0
H644 H 0.50087 0.0639 0.6333 0.0
H645 H 0.50011 0.93073 0.41015 0.0
H646 H 0.47631 0.95303 0.66043 0.0
H647 H 0.52637 0.0412 0.38374 0.0
H648 H 0.49104 0.93846 0.50169 0.0
H649 H 0.50994 0.05619 0.54173 0.0
C650 C 0.49725 0.03793 0.62 0.0
C651 C 0.48768 0.00909 0.65477 0.0
C652 C 0.49876 0.96103 0.4759 0.0
C653 C 0.49833 1.00001 0.5497 0.0
C654 C 0.50411 0.95661 0.4236 0.0
C655 C 0.51416 0.98533 0.38903 0.0
C656 C 0.50348 0.99444 0.49407 0.0
C657 C 0.51827 0.01838 0.40863 0.0
C658 C 0.5026 0.03352 0.56769 0.0
C659 C 0.48402 0.97595 0.63536 0.0
N660 N 0.513 0.02199 0.45978 0.0
N661 N 0.48925 0.97235 0.58419 0.0
H662 H 0.18454 0.25286 0.87666 0.0
H663 H 0.31782 0.25016 0.65353 0.0
H664 H 0.29598 0.27524 0.90329 0.0
H665 H 0.20641 0.22763 0.6269 0.0
H666 H 0.31035 0.25936 0.74512 0.0
H667 H 0.192 0.24359 0.78508 0.0
C668 C 0.21058 0.25594 0.86323 0.0
C669 C 0.23966 0.26493 0.89782 0.0
C670 C 0.28751 0.25244 0.71926 0.0
C671 C 0.24846 0.25408 0.79288 0.0
C672 C 0.29179 0.24702 0.66697 0.0
C673 C 0.26271 0.23801 0.63237 0.0
C674 C 0.25391 0.2488 0.73733 0.0
C675 C 0.2295 0.23493 0.65187 0.0
C676 C 0.21485 0.25049 0.81095 0.0
C677 C 0.27288 0.26795 0.87833 0.0
N678 N 0.22603 0.24023 0.70301 0.0
N679 N 0.27634 0.26263 0.8272 0.0
H680 H 0.78245 0.31847 0.87045 0.0
H681 H 0.72307 0.18477 0.65665 0.0
H682 H 0.72648 0.2221 0.9074 0.0
H683 H 0.77926 0.28101 0.6197 0.0
H684 H 0.72435 0.19786 0.74853 0.0
H685 H 0.78117 0.30541 0.77854 0.0
C686 C 0.76966 0.29466 0.85928 0.0
C687 C 0.75443 0.27144 0.89703 0.0
C688 C 0.73641 0.21613 0.72036 0.0
C689 C 0.75332 0.25605 0.7914 0.0
C690 C 0.73591 0.20856 0.66782 0.0
C691 C 0.75121 0.23172 0.63007 0.0
C692 C 0.75231 0.24716 0.73568 0.0
C693 C 0.76678 0.26252 0.64703 0.0
C694 C 0.76916 0.2871 0.80672 0.0
C695 C 0.73891 0.24063 0.88007 0.0
N696 N 0.76697 0.26928 0.69846 0.0
N697 N 0.73872 0.23388 0.82863 0.0
H698 H 0.68924 0.75133 0.3827 0.0
H699 H 0.82277 0.75509 0.15893 0.0
H700 H 0.79939 0.77872 0.40889 0.0
H701 H 0.71281 0.72701 0.13298 0.0
H702 H 0.81469 0.76392 0.25044 0.0
H703 H 0.6973 0.74248 0.29117 0.0
C704 C 0.71512 0.75562 0.3692 0.0
C705 C 0.74365 0.76592 0.4037 0.0
C706 C 0.7923 0.75585 0.22476 0.0
C707 C 0.75315 0.75552 0.29868 0.0
C708 C 0.79693 0.75064 0.17248 0.0
C709 C 0.76846 0.74015 0.13804 0.0
C710 C 0.75893 0.75054 0.24306 0.0
C711 C 0.73543 0.73545 0.15776 0.0
C712 C 0.71974 0.7504 0.31692 0.0
C713 C 0.77672 0.77042 0.38405 0.0
N714 N 0.73162 0.74059 0.2089 0.0
N715 N 0.78051 0.7653 0.33291 0.0
H716 H 0.44597 0.54415 0.62212 0.0
H717 H 0.55989 0.45967 0.41744 0.0
H718 H 0.52459 0.45981 0.66907 0.0
H719 H 0.48103 0.54379 0.37048 0.0
H720 H 0.54742 0.4594 0.50966 0.0
H721 H 0.45841 0.54436 0.52991 0.0
C722 C 0.46577 0.52556 0.6131 0.0
C723 C 0.48418 0.50186 0.65369 0.0
C724 C 0.53281 0.47791 0.47921 0.0
C725 C 0.49879 0.50216 0.54773 0.0
C726 C 0.54003 0.4782 0.42646 0.0
C727 C 0.52156 0.50185 0.38587 0.0
C728 C 0.50694 0.5015 0.49183 0.0
C729 C 0.49567 0.52478 0.40014 0.0
C730 C 0.47298 0.52581 0.56035 0.0
C731 C 0.50999 0.47885 0.63942 0.0
N732 N 0.48922 0.52409 0.45181 0.0
N733 N 0.51644 0.47952 0.58774 0.0
H734 H 0.96298 0.5152 0.86199 0.0
H735 H 0.04062 0.48863 0.17028 0.0
H736 H 0.06625 0.46811 0.92014 0.0
H737 H 0.93755 0.53615 0.11201 0.0
H738 H 0.05024 0.4803 0.07905 0.0
H739 H 0.9533 0.52337 0.95324 0.0
C740 C 0.98372 0.50675 0.89386 0.0
C741 C 0.01547 0.49087 0.88321 0.0
C742 C 0.02552 0.49257 0.08622 0.0
C743 C 0.00438 0.49982 0.98809 0.0
C744 C 0.01991 0.49714 0.13839 0.0
C745 C 0.98824 0.5132 0.14899 0.0
C746 C 0.99926 0.50406 0.04415 0.0
C747 C 0.9626 0.52414 0.1058 0.0
C748 C 0.97808 0.51123 0.94605 0.0
C749 C 0.04114 0.47999 0.92639 0.0
N750 N 0.96867 0.51937 0.0554 0.0
N751 N 0.03504 0.48467 0.9768 0.0
loop_
_geom_bond_atom_site_label_1
_geom_bond_atom_site_label_2
_geom_bond_distance
_geom_bond_site_symmetry_2
_ccdc_geom_bond_type
Ho0 C3 2.811 1_655 S
Ho0 O20 2.322 1_665 S
Ho0 O22 2.378 1_655 S
Ho0 O23 2.524 1_565 S
Ho0 O24 2.381 1_655 S
Ho0 O25 2.669 1_655 S
Ho0 O27 2.346 . S
Ho0 O31 2.305 1_565 S
Ho1 C12 2.811 1_455 S
Ho1 O21 2.346 . S
Ho1 O25 2.305 1_545 S
Ho1 O26 2.322 1_445 S
Ho1 O28 2.378 1_455 S
Ho1 O29 2.524 1_545 S
Ho1 O30 2.381 1_455 S
Ho1 O31 2.669 1_455 S
C2 O20 1.259 . S
C2 O21 1.268 . S
C3 Ho0 2.811 1_455 S
C3 C4 1.488 . S
C3 O22 1.215 . S
C3 O23 1.289 1_465 S
C4 C3 1.488 . S
C4 C5 1.348 1_565 S
C4 C9 1.413 . S
C5 C4 1.348 1_545 S
C5 C6 1.442 . S
C5 H32 0.930 1_455 S
C6 C5 1.442 . S
C6 C7 1.397 . S
C6 H33 0.931 . S
C7 C6 1.397 . S
C7 C8 1.306 1_545 S
C8 C7 1.306 1_565 S
C8 C9 1.403 . S
C8 H34 0.934 . S
C9 C4 1.413 . S
C9 C8 1.403 . S
C9 H35 0.930 . S
C10 O24 1.275 . S
C10 O25 1.256 . S
C11 O26 1.259 . S
C11 O27 1.268 . S
C12 Ho1 2.811 1_655 S
C12 C13 1.488 . S
C12 O28 1.215 . S
C12 O29 1.289 1_645 S
C13 C12 1.488 . S
C13 C14 1.348 1_545 S
C13 C18 1.413 . S
C14 C13 1.348 1_565 S
C14 C15 1.442 . S
C14 H36 0.930 1_655 S
C15 C14 1.442 . S
C15 C16 1.391 . S
C15 H37 0.931 . S
C16 C15 1.391 . S
C16 C17 1.312 1_565 S
C17 C16 1.312 1_545 S
C17 C18 1.403 . S
C17 H38 0.934 . S
C18 C13 1.413 . S
C18 C17 1.403 . S
C18 H39 0.930 . S
C19 O30 1.275 . S
C19 O31 1.256 . S
O20 Ho0 2.322 1_445 S
O20 C2 1.259 . S
O21 Ho1 2.346 . S
O21 C2 1.268 . S
O22 Ho0 2.378 1_455 S
O22 C3 1.215 . S
O23 Ho0 2.524 1_545 S
O23 C3 1.289 1_645 S
O24 Ho0 2.381 1_455 S
O24 C10 1.275 . S
O25 Ho0 2.669 1_455 S
O25 Ho1 2.305 1_565 S
O25 C10 1.256 . S
O26 Ho1 2.322 1_665 S
O26 C11 1.259 . S
O27 Ho0 2.346 . S
O27 C11 1.268 . S
O28 Ho1 2.378 1_655 S
O28 C12 1.215 . S
O29 Ho1 2.524 1_565 S
O29 C12 1.289 1_465 S
O30 Ho1 2.381 1_655 S
O30 C19 1.275 . S
O31 Ho0 2.305 1_545 S
O31 Ho1 2.669 1_655 S
O31 C19 1.256 . S
H32 C5 0.930 1_655 S
H33 C6 0.931 . S
H34 C8 0.934 . S
H35 C9 0.930 . S
H36 C14 0.930 1_455 S
H37 C15 0.931 . S
H38 C17 0.934 . S
H39 C18 0.930 . S
Ho40 C43 2.811 . S
Ho40 O60 2.322 . S
Ho40 O62 2.378 . S
Ho40 O63 2.524 . S
Ho40 O64 2.381 . S
Ho40 O65 2.669 . S
Ho40 O67 2.346 . S
Ho40 O71 2.305 . S
Ho41 C52 2.811 . S
Ho41 O61 2.346 . S
Ho41 O65 2.305 . S
Ho41 O66 2.322 . S
Ho41 O68 2.378 . S
Ho41 O69 2.524 . S
Ho41 O70 2.381 . S
Ho41 O71 2.669 . S
C42 O60 1.259 . S
C42 O61 1.268 . S
C43 Ho40 2.811 . S
C43 C44 1.488 . S
C43 O62 1.215 . S
C43 O63 1.289 . S
C44 C43 1.488 . S
C44 C45 1.348 . S
C44 C49 1.413 . S
C45 C44 1.348 . S
C45 C46 1.442 1_556 S
C45 H72 0.930 . S
C46 C45 1.442 1_554 S
C46 C47 1.381 . S
C46 H73 0.931 . S
C47 C46 1.381 . S
C47 C48 1.321 . S
C48 C47 1.321 . S
C48 C49 1.403 1_554 S
C48 H74 0.934 . S
C49 C44 1.413 . S
C49 C48 1.403 1_556 S
C49 H75 0.930 . S
C50 O64 1.275 . S
C50 O65 1.256 . S
C51 O66 1.259 . S
C51 O67 1.268 . S
C52 Ho41 2.811 . S
C52 C53 1.488 . S
C52 O68 1.215 . S
C52 O69 1.289 . S
C53 C52 1.488 . S
C53 C54 1.348 . S
C53 C58 1.413 . S
C54 C53 1.348 . S
C54 C55 1.442 . S
C54 H76 0.930 . S
C55 C54 1.442 . S
C55 C56 1.381 . S
C55 H77 0.931 . S
C56 C55 1.381 . S
C56 C57 1.321 . S
C57 C56 1.321 . S
C57 C58 1.403 . S
C57 H78 0.934 . S
C58 C53 1.413 . S
C58 C57 1.403 . S
C58 H79 0.930 . S
C59 O70 1.275 . S
C59 O71 1.256 . S
O60 Ho40 2.322 . S
O60 C42 1.259 . S
O61 Ho41 2.346 . S
O61 C42 1.268 . S
O62 Ho40 2.378 . S
O62 C43 1.215 . S
O63 Ho40 2.524 . S
O63 C43 1.289 . S
O64 Ho40 2.381 . S
O64 C50 1.275 . S
O65 Ho40 2.669 . S
O65 Ho41 2.305 . S
O65 C50 1.256 . S
O66 Ho41 2.322 . S
O66 C51 1.259 . S
O67 Ho40 2.346 . S
O67 C51 1.268 . S
O68 Ho41 2.378 . S
O68 C52 1.215 . S
O69 Ho41 2.524 . S
O69 C52 1.289 . S
O70 Ho41 2.381 . S
O70 C59 1.275 . S
O71 Ho40 2.305 . S
O71 Ho41 2.669 . S
O71 C59 1.256 . S
H72 C45 0.930 . S
H73 C46 0.931 . S
H74 C48 0.934 . S
H75 C49 0.930 . S
H76 C54 0.930 . S
H77 C55 0.931 . S
H78 C57 0.934 . S
H79 C58 0.930 . S
Ho80 C83 2.811 . S
Ho80 O100 2.322 1_565 S
Ho80 O102 2.378 . S
Ho80 O103 2.524 . S
Ho80 O104 2.381 . S
Ho80 O105 2.669 1_554 S
Ho80 O107 2.346 . S
Ho80 O111 2.305 1_565 S
Ho81 C92 2.811 . S
Ho81 O101 2.346 . S
Ho81 O105 2.305 1_545 S
Ho81 O106 2.322 1_545 S
Ho81 O108 2.378 . S
Ho81 O109 2.524 . S
Ho81 O110 2.381 . S
Ho81 O111 2.669 1_556 S
C82 O100 1.259 . S
C82 O101 1.268 1_554 S
C83 Ho80 2.811 . S
C83 C84 1.488 . S
C83 O102 1.215 . S
C83 O103 1.289 . S
C84 C83 1.488 . S
C84 C85 1.348 1_565 S
C84 C89 1.413 . S
C85 C84 1.348 1_545 S
C85 C86 1.442 . S
C85 H112 0.930 . S
C86 C85 1.442 . S
C86 C87 1.381 1_545 S
C86 H113 0.931 . S
C87 C86 1.381 1_565 S
C87 C88 1.321 . S
C88 C87 1.321 . S
C88 C89 1.403 . S
C88 H114 0.934 . S
C89 C84 1.413 . S
C89 C88 1.403 . S
C89 H115 0.930 . S
C90 O104 1.275 1_556 S
C90 O105 1.256 . S
C91 O106 1.259 . S
C91 O107 1.268 1_556 S
C92 Ho81 2.811 . S
C92 C93 1.488 . S
C92 O108 1.215 . S
C92 O109 1.289 . S
C93 C92 1.488 . S
C93 C94 1.348 1_545 S
C93 C98 1.413 . S
C94 C93 1.348 1_565 S
C94 C95 1.442 . S
C94 H116 0.930 . S
C95 C94 1.442 . S
C95 C96 1.381 1_565 S
C95 H117 0.931 . S
C96 C95 1.381 1_545 S
C96 C97 1.321 . S
C97 C96 1.321 . S
C97 C98 1.403 . S
C97 H118 0.934 . S
C98 C93 1.413 . S
C98 C97 1.403 . S
C98 H119 0.930 . S
C99 O110 1.275 1_554 S
C99 O111 1.256 . S
O100 Ho80 2.322 1_545 S
O100 C82 1.259 . S
O101 Ho81 2.346 . S
O101 C82 1.268 1_556 S
O102 Ho80 2.378 . S
O102 C83 1.215 . S
O103 Ho80 2.524 . S
O103 C83 1.289 . S
O104 Ho80 2.381 . S
O104 C90 1.275 1_554 S
O105 Ho80 2.669 1_556 S
O105 Ho81 2.305 1_565 S
O105 C90 1.256 . S
O106 Ho81 2.322 1_565 S
O106 C91 1.259 . S
O107 Ho80 2.346 . S
O107 C91 1.268 1_554 S
O108 Ho81 2.378 . S
O108 C92 1.215 . S
O109 Ho81 2.524 . S
O109 C92 1.289 . S
O110 Ho81 2.381 . S
O110 C99 1.275 1_556 S
O111 Ho80 2.305 1_545 S
O111 Ho81 2.669 1_554 S
O111 C99 1.256 . S
H112 C85 0.930 . S
H113 C86 0.931 . S
H114 C88 0.934 . S
H115 C89 0.930 . S
H116 C94 0.930 . S
H117 C95 0.931 . S
H118 C97 0.934 . S
H119 C98 0.930 . S
Ho120 C123 2.811 . S
Ho120 O140 2.322 . S
Ho120 O142 2.378 . S
Ho120 O143 2.524 . S
Ho120 O144 2.381 . S
Ho120 O145 2.669 . S
Ho120 O147 2.346 . S
Ho120 O151 2.305 . S
Ho121 C132 2.811 . S
Ho121 O141 2.346 . S
Ho121 O145 2.305 . S
Ho121 O146 2.322 . S
Ho121 O148 2.378 . S
Ho121 O149 2.524 . S
Ho121 O150 2.381 . S
Ho121 O151 2.669 . S
C122 O140 1.259 . S
C122 O141 1.268 . S
C123 Ho120 2.811 . S
C123 C124 1.488 . S
C123 O142 1.215 . S
C123 O143 1.289 . S
C124 C123 1.488 . S
C124 C125 1.348 . S
C124 C129 1.413 . S
C125 C124 1.348 . S
C125 C126 1.442 1_554 S
C125 H152 0.930 . S
C126 C125 1.442 1_556 S
C126 C127 1.381 . S
C126 H153 0.931 . S
C127 C126 1.381 . S
C127 C128 1.321 . S
C128 C127 1.321 . S
C128 C129 1.403 1_556 S
C128 H154 0.934 . S
C129 C124 1.413 . S
C129 C128 1.403 1_554 S
C129 H155 0.930 . S
C130 O144 1.275 . S
C130 O145 1.256 . S
C131 O146 1.259 . S
C131 O147 1.268 . S
C132 Ho121 2.811 . S
C132 C133 1.488 . S
C132 O148 1.215 . S
C132 O149 1.289 . S
C133 C132 1.488 . S
C133 C134 1.348 . S
C133 C138 1.413 . S
C134 C133 1.348 . S
C134 C135 1.442 . S
C134 H156 0.930 . S
C135 C134 1.442 . S
C135 C136 1.381 . S
C135 H157 0.931 . S
C136 C135 1.381 . S
C136 C137 1.321 . S
C137 C136 1.321 . S
C137 C138 1.403 . S
C137 H158 0.934 . S
C138 C133 1.413 . S
C138 C137 1.403 . S
C138 H159 0.930 . S
C139 O150 1.275 . S
C139 O151 1.256 . S
O140 Ho120 2.322 . S
O140 C122 1.259 . S
O141 Ho121 2.346 . S
O141 C122 1.268 . S
O142 Ho120 2.378 . S
O142 C123 1.215 . S
O143 Ho120 2.524 . S
O143 C123 1.289 . S
O144 Ho120 2.381 . S
O144 C130 1.275 . S
O145 Ho120 2.669 . S
O145 Ho121 2.305 . S
O145 C130 1.256 . S
O146 Ho121 2.322 . S
O146 C131 1.259 . S
O147 Ho120 2.346 . S
O147 C131 1.268 . S
O148 Ho121 2.378 . S
O148 C132 1.215 . S
O149 Ho121 2.524 . S
O149 C132 1.289 . S
O150 Ho121 2.381 . S
O150 C139 1.275 . S
O151 Ho120 2.305 . S
O151 Ho121 2.669 . S
O151 C139 1.256 . S
H152 C125 0.930 . S
H153 C126 0.931 . S
H154 C128 0.934 . S
H155 C129 0.930 . S
H156 C134 0.930 . S
H157 C135 0.931 . S
H158 C137 0.934 . S
H159 C138 0.930 . S
Ho160 C163 2.811 . S
Ho160 O180 2.322 . S
Ho160 O182 2.378 . S
Ho160 O183 2.524 . S
Ho160 O184 2.381 . S
Ho160 O185 2.669 . S
Ho160 O187 2.346 . S
Ho160 O191 2.305 . S
Ho161 C172 2.811 . S
Ho161 O181 2.346 . S
Ho161 O185 2.305 . S
Ho161 O186 2.322 . S
Ho161 O188 2.378 . S
Ho161 O189 2.524 . S
Ho161 O190 2.381 . S
Ho161 O191 2.669 . S
C162 O180 1.259 . S
C162 O181 1.268 . S
C163 Ho160 2.811 . S
C163 C164 1.488 . S
C163 O182 1.215 . S
C163 O183 1.289 . S
C164 C163 1.488 . S
C164 C165 1.348 . S
C164 C169 1.413 . S
C165 C164 1.348 . S
C165 C166 1.442 . S
C165 H192 0.930 . S
C166 C165 1.442 . S
C166 C167 1.381 . S
C166 H193 0.931 . S
C167 C166 1.381 . S
C167 C168 1.321 . S
C168 C167 1.321 . S
C168 C169 1.403 . S
C168 H194 0.934 . S
C169 C164 1.413 . S
C169 C168 1.403 . S
C169 H195 0.930 . S
C170 O184 1.275 . S
C170 O185 1.256 . S
C171 O186 1.259 . S
C171 O187 1.268 . S
C172 Ho161 2.811 . S
C172 C173 1.488 . S
C172 O188 1.215 . S
C172 O189 1.289 . S
C173 C172 1.488 . S
C173 C174 1.348 . S
C173 C178 1.413 . S
C174 C173 1.348 . S
C174 C175 1.442 1_554 S
C174 H196 0.930 . S
C175 C174 1.442 1_556 S
C175 C176 1.381 . S
C175 H197 0.931 . S
C176 C175 1.381 . S
C176 C177 1.321 . S
C177 C176 1.321 . S
C177 C178 1.403 1_556 S
C177 H198 0.934 . S
C178 C173 1.413 . S
C178 C177 1.403 1_554 S
C178 H199 0.930 . S
C179 O190 1.275 . S
C179 O191 1.256 . S
O180 Ho160 2.322 . S
O180 C162 1.259 . S
O181 Ho161 2.346 . S
O181 C162 1.268 . S
O182 Ho160 2.378 . S
O182 C163 1.215 . S
O183 Ho160 2.524 . S
O183 C163 1.289 . S
O184 Ho160 2.381 . S
O184 C170 1.275 . S
O185 Ho160 2.669 . S
O185 Ho161 2.305 . S
O185 C170 1.256 . S
O186 Ho161 2.322 . S
O186 C171 1.259 . S
O187 Ho160 2.346 . S
O187 C171 1.268 . S
O188 Ho161 2.378 . S
O188 C172 1.215 . S
O189 Ho161 2.524 . S
O189 C172 1.289 . S
O190 Ho161 2.381 . S
O190 C179 1.275 . S
O191 Ho160 2.305 . S
O191 Ho161 2.669 . S
O191 C179 1.256 . S
H192 C165 0.930 . S
H193 C166 0.931 . S
H194 C168 0.934 . S
H195 C169 0.930 . S
H196 C174 0.930 . S
H197 C175 0.931 . S
H198 C177 0.934 . S
H199 C178 0.930 . S
Ho200 C203 2.811 . S
Ho200 O220 2.322 . S
Ho200 O222 2.378 . S
Ho200 O223 2.524 . S
Ho200 O224 2.381 . S
Ho200 O225 2.669 . S
Ho200 O227 2.346 . S
Ho200 O231 2.305 . S
Ho201 C212 2.811 . S
Ho201 O221 2.346 . S
Ho201 O225 2.305 . S
Ho201 O226 2.322 . S
Ho201 O228 2.378 . S
Ho201 O229 2.524 . S
Ho201 O230 2.381 . S
Ho201 O231 2.669 . S
C202 O220 1.259 . S
C202 O221 1.268 . S
C203 Ho200 2.811 . S
C203 C204 1.488 . S
C203 O222 1.215 . S
C203 O223 1.289 . S
C204 C203 1.488 . S
C204 C205 1.348 . S
C204 C209 1.413 . S
C205 C204 1.348 . S
C205 C206 1.442 . S
C205 H232 0.930 . S
C206 C205 1.442 . S
C206 C207 1.381 . S
C206 H233 0.931 . S
C207 C206 1.381 . S
C207 C208 1.321 . S
C208 C207 1.321 . S
C208 C209 1.403 . S
C208 H234 0.934 . S
C209 C204 1.413 . S
C209 C208 1.403 . S
C209 H235 0.930 . S
C210 O224 1.275 . S
C210 O225 1.256 . S
C211 O226 1.259 . S
C211 O227 1.268 . S
C212 Ho201 2.811 . S
C212 C213 1.488 . S
C212 O228 1.215 . S
C212 O229 1.289 . S
C213 C212 1.488 . S
C213 C214 1.348 . S
C213 C218 1.413 . S
C214 C213 1.348 . S
C214 C215 1.442 1_556 S
C214 H236 0.930 . S
C215 C214 1.442 1_554 S
C215 C216 1.381 . S
C215 H237 0.931 . S
C216 C215 1.381 . S
C216 C217 1.321 . S
C217 C216 1.321 . S
C217 C218 1.403 1_554 S
C217 H238 0.934 . S
C218 C213 1.413 . S
C218 C217 1.403 1_556 S
C218 H239 0.930 . S
C219 O230 1.275 . S
C219 O231 1.256 . S
O220 Ho200 2.322 . S
O220 C202 1.259 . S
O221 Ho201 2.346 . S
O221 C202 1.268 . S
O222 Ho200 2.378 . S
O222 C203 1.215 . S
O223 Ho200 2.524 . S
O223 C203 1.289 . S
O224 Ho200 2.381 . S
O224 C210 1.275 . S
O225 Ho200 2.669 . S
O225 Ho201 2.305 . S
O225 C210 1.256 . S
O226 Ho201 2.322 . S
O226 C211 1.259 . S
O227 Ho200 2.346 . S
O227 C211 1.268 . S
O228 Ho201 2.378 . S
O228 C212 1.215 . S
O229 Ho201 2.524 . S
O229 C212 1.289 . S
O230 Ho201 2.381 . S
O230 C219 1.275 . S
O231 Ho200 2.305 . S
O231 Ho201 2.669 . S
O231 C219 1.256 . S
H232 C205 0.930 . S
H233 C206 0.931 . S
H234 C208 0.934 . S
H235 C209 0.930 . S
H236 C214 0.930 . S
H237 C215 0.931 . S
H238 C217 0.934 . S
H239 C218 0.930 . S
Ho240 C243 2.811 . S
Ho240 O260 2.322 . S
Ho240 O262 2.378 . S
Ho240 O263 2.524 . S
Ho240 O264 2.381 . S
Ho240 O265 2.669 1_556 S
Ho240 O267 2.346 1_556 S
Ho240 O271 2.305 . S
Ho241 C252 2.811 . S
Ho241 O261 2.346 1_554 S
Ho241 O265 2.305 . S
Ho241 O266 2.322 . S
Ho241 O268 2.378 . S
Ho241 O269 2.524 . S
Ho241 O270 2.381 . S
Ho241 O271 2.669 1_554 S
C242 O260 1.259 . S
C242 O261 1.268 . S
C243 Ho240 2.811 . S
C243 C244 1.488 . S
C243 O262 1.215 . S
C243 O263 1.289 . S
C244 C243 1.488 . S
C244 C245 1.348 . S
C244 C249 1.413 . S
C245 C244 1.348 . S
C245 C246 1.442 . S
C245 H272 0.930 . S
C246 C245 1.442 . S
C246 C247 1.381 . S
C246 H273 0.931 . S
C247 C246 1.381 . S
C247 C248 1.321 . S
C248 C247 1.321 . S
C248 C249 1.403 . S
C248 H274 0.934 . S
C249 C244 1.413 . S
C249 C248 1.403 . S
C249 H275 0.930 . S
C250 O264 1.275 1_554 S
C250 O265 1.256 . S
C251 O266 1.259 . S
C251 O267 1.268 . S
C252 Ho241 2.811 . S
C252 C253 1.488 . S
C252 O268 1.215 . S
C252 O269 1.289 . S
C253 C252 1.488 . S
C253 C254 1.348 . S
C253 C258 1.413 . S
C254 C253 1.348 . S
C254 C255 1.442 . S
C254 H276 0.930 . S
C255 C254 1.442 . S
C255 C256 1.381 . S
C255 H277 0.931 . S
C256 C255 1.381 . S
C256 C257 1.321 . S
C257 C256 1.321 . S
C257 C258 1.403 . S
C257 H278 0.934 . S
C258 C253 1.413 . S
C258 C257 1.403 . S
C258 H279 0.930 . S
C259 O270 1.275 1_556 S
C259 O271 1.256 . S
O260 Ho240 2.322 . S
O260 C242 1.259 . S
O261 Ho241 2.346 1_556 S
O261 C242 1.268 . S
O262 Ho240 2.378 . S
O262 C243 1.215 . S
O263 Ho240 2.524 . S
O263 C243 1.289 . S
O264 Ho240 2.381 . S
O264 C250 1.275 1_556 S
O265 Ho240 2.669 1_554 S
O265 Ho241 2.305 . S
O265 C250 1.256 . S
O266 Ho241 2.322 . S
O266 C251 1.259 . S
O267 Ho240 2.346 1_554 S
O267 C251 1.268 . S
O268 Ho241 2.378 . S
O268 C252 1.215 . S
O269 Ho241 2.524 . S
O269 C252 1.289 . S
O270 Ho241 2.381 . S
O270 C259 1.275 1_554 S
O271 Ho240 2.305 . S
O271 Ho241 2.669 1_556 S
O271 C259 1.256 . S
H272 C245 0.930 . S
H273 C246 0.931 . S
H274 C248 0.934 . S
H275 C249 0.930 . S
H276 C254 0.930 . S
H277 C255 0.931 . S
H278 C257 0.934 . S
H279 C258 0.930 . S
Ho280 C283 2.811 1_455 S
Ho280 O300 2.322 1_455 S
Ho280 O302 2.378 1_455 S
Ho280 O303 2.524 . S
Ho280 O304 2.381 1_455 S
Ho280 O305 2.669 1_455 S
Ho280 O307 2.346 . S
Ho280 O311 2.305 . S
Ho281 C292 2.811 1_655 S
Ho281 O301 2.346 . S
Ho281 O305 2.305 . S
Ho281 O306 2.322 1_655 S
Ho281 O308 2.378 1_655 S
Ho281 O309 2.524 . S
Ho281 O310 2.381 1_655 S
Ho281 O311 2.669 1_655 S
C282 O300 1.259 . S
C282 O301 1.268 . S
C283 Ho280 2.811 1_655 S
C283 C284 1.488 . S
C283 O302 1.215 . S
C283 O303 1.289 1_655 S
C284 C283 1.488 . S
C284 C285 1.348 . S
C284 C289 1.413 . S
C285 C284 1.348 . S
C285 C286 1.442 . S
C285 H312 0.930 1_655 S
C286 C285 1.442 . S
C286 C287 1.381 . S
C286 H313 0.931 . S
C287 C286 1.381 . S
C287 C288 1.321 . S
C288 C287 1.321 . S
C288 C289 1.403 . S
C288 H314 0.934 . S
C289 C284 1.413 . S
C289 C288 1.403 . S
C289 H315 0.930 . S
C290 O304 1.275 . S
C290 O305 1.256 . S
C291 O306 1.259 . S
C291 O307 1.268 . S
C292 Ho281 2.811 1_455 S
C292 C293 1.488 . S
C292 O308 1.215 . S
C292 O309 1.289 1_455 S
C293 C292 1.488 . S
C293 C294 1.348 . S
C293 C298 1.413 . S
C294 C293 1.348 . S
C294 C295 1.442 . S
C294 H316 0.930 1_455 S
C295 C294 1.442 . S
C295 C296 1.381 . S
C295 H317 0.931 . S
C296 C295 1.381 . S
C296 C297 1.321 . S
C297 C296 1.321 . S
C297 C298 1.403 . S
C297 H318 0.934 . S
C298 C293 1.413 . S
C298 C297 1.403 . S
C298 H319 0.930 . S
C299 O310 1.275 . S
C299 O311 1.256 . S
O300 Ho280 2.322 1_655 S
O300 C282 1.259 . S
O301 Ho281 2.346 . S
O301 C282 1.268 . S
O302 Ho280 2.378 1_655 S
O302 C283 1.215 . S
O303 Ho280 2.524 . S
O303 C283 1.289 1_455 S
O304 Ho280 2.381 1_655 S
O304 C290 1.275 . S
O305 Ho280 2.669 1_655 S
O305 Ho281 2.305 . S
O305 C290 1.256 . S
O306 Ho281 2.322 1_455 S
O306 C291 1.259 . S
O307 Ho280 2.346 . S
O307 C291 1.268 . S
O308 Ho281 2.378 1_455 S
O308 C292 1.215 . S
O309 Ho281 2.524 . S
O309 C292 1.289 1_655 S
O310 Ho281 2.381 1_455 S
O310 C299 1.275 . S
O311 Ho280 2.305 . S
O311 Ho281 2.669 1_455 S
O311 C299 1.256 . S
H312 C285 0.930 1_455 S
H313 C286 0.931 . S
H314 C288 0.934 . S
H315 C289 0.930 . S
H316 C294 0.930 1_655 S
H317 C295 0.931 . S
H318 C297 0.934 . S
H319 C298 0.930 . S
H320 C326 0.930 . S
H321 C330 0.930 . S
H322 C335 0.929 . S
H323 C333 0.929 . S
H324 C328 0.929 . S
H325 C334 0.929 . S
C326 H320 0.930 . S
C326 C327 1.367 . S
C326 C334 1.378 . S
C327 C326 1.367 . S
C327 C335 1.433 . S
C328 H324 0.929 . S
C328 C330 1.378 . S
C328 C332 1.350 . S
C329 C332 1.463 . S
C329 C334 1.350 . S
C329 N337 1.427 . S
C330 H321 0.930 . S
C330 C328 1.378 . S
C330 C331 1.367 . S
C331 C330 1.367 . S
C331 C333 1.433 . S
C332 C328 1.350 . S
C332 C329 1.463 . S
C332 N336 1.427 . S
C333 H323 0.929 . S
C333 C331 1.433 . S
C333 N336 1.384 . S
C334 H325 0.929 . S
C334 C326 1.378 . S
C334 C329 1.350 . S
C335 H322 0.929 . S
C335 C327 1.433 . S
C335 N337 1.384 . S
N336 C332 1.427 . S
N336 C333 1.384 . S
N337 C329 1.427 . S
N337 C335 1.384 . S
H338 C344 0.930 . S
H339 C348 0.930 . S
H340 C353 0.929 . S
H341 C351 0.929 . S
H342 C346 0.929 . S
H343 C352 0.929 . S
C344 H338 0.930 . S
C344 C345 1.367 . S
C344 C352 1.378 . S
C345 C344 1.367 . S
C345 C353 1.433 . S
C346 H342 0.929 . S
C346 C348 1.378 . S
C346 C350 1.350 . S
C347 C350 1.463 . S
C347 C352 1.350 . S
C347 N355 1.427 . S
C348 H339 0.930 . S
C348 C346 1.378 . S
C348 C349 1.367 . S
C349 C348 1.367 . S
C349 C351 1.433 . S
C350 C346 1.350 . S
C350 C347 1.463 . S
C350 N354 1.427 . S
C351 H341 0.929 . S
C351 C349 1.433 . S
C351 N354 1.384 . S
C352 H343 0.929 . S
C352 C344 1.378 . S
C352 C347 1.350 . S
C353 H340 0.929 . S
C353 C345 1.433 . S
C353 N355 1.384 . S
N354 C350 1.427 . S
N354 C351 1.384 . S
N355 C347 1.427 . S
N355 C353 1.384 . S
H356 C362 0.930 . S
H357 C366 0.930 . S
H358 C371 0.929 . S
H359 C369 0.929 . S
H360 C364 0.929 . S
H361 C370 0.929 . S
C362 H356 0.930 . S
C362 C363 1.367 . S
C362 C370 1.378 . S
C363 C362 1.367 . S
C363 C371 1.433 . S
C364 H360 0.929 . S
C364 C366 1.378 . S
C364 C368 1.350 . S
C365 C368 1.463 . S
C365 C370 1.350 . S
C365 N373 1.427 . S
C366 H357 0.930 . S
C366 C364 1.378 . S
C366 C367 1.367 . S
C367 C366 1.367 . S
C367 C369 1.433 . S
C368 C364 1.350 . S
C368 C365 1.463 . S
C368 N372 1.427 . S
C369 H359 0.929 . S
C369 C367 1.433 . S
C369 N372 1.384 . S
C370 H361 0.929 . S
C370 C362 1.378 . S
C370 C365 1.350 . S
C371 H358 0.929 . S
C371 C363 1.433 . S
C371 N373 1.384 . S
N372 C368 1.427 . S
N372 C369 1.384 . S
N373 C365 1.427 . S
N373 C371 1.384 . S
H374 C380 0.930 . S
H375 C384 0.930 . S
H376 C389 0.929 . S
H377 C387 0.929 . S
H378 C382 0.929 . S
H379 C388 0.929 . S
C380 H374 0.930 . S
C380 C381 1.367 . S
C380 C388 1.378 . S
C381 C380 1.367 . S
C381 C389 1.433 . S
C382 H378 0.929 . S
C382 C384 1.378 . S
C382 C386 1.350 . S
C383 C386 1.463 . S
C383 C388 1.350 . S
C383 N391 1.427 . S
C384 H375 0.930 . S
C384 C382 1.378 . S
C384 C385 1.367 . S
C385 C384 1.367 . S
C385 C387 1.433 . S
C386 C382 1.350 . S
C386 C383 1.463 . S
C386 N390 1.427 . S
C387 H377 0.929 . S
C387 C385 1.433 . S
C387 N390 1.384 . S
C388 H379 0.929 . S
C388 C380 1.378 . S
C388 C383 1.350 . S
C389 H376 0.929 . S
C389 C381 1.433 . S
C389 N391 1.384 . S
N390 C386 1.427 . S
N390 C387 1.384 . S
N391 C383 1.427 . S
N391 C389 1.384 . S
H392 C398 0.930 . S
H393 C402 0.930 . S
H394 C407 0.929 . S
H395 C405 0.929 . S
H396 C400 0.929 . S
H397 C406 0.929 . S
C398 H392 0.930 . S
C398 C399 1.367 . S
C398 C406 1.378 . S
C399 C398 1.367 . S
C399 C407 1.433 . S
C400 H396 0.929 . S
C400 C402 1.378 . S
C400 C404 1.350 . S
C401 C404 1.463 . S
C401 C406 1.350 . S
C401 N409 1.427 . S
C402 H393 0.930 . S
C402 C400 1.378 . S
C402 C403 1.367 . S
C403 C402 1.367 . S
C403 C405 1.433 . S
C404 C400 1.350 . S
C404 C401 1.463 . S
C404 N408 1.427 . S
C405 H395 0.929 . S
C405 C403 1.433 . S
C405 N408 1.384 . S
C406 H397 0.929 . S
C406 C398 1.378 . S
C406 C401 1.350 . S
C407 H394 0.929 . S
C407 C399 1.433 . S
C407 N409 1.384 . S
N408 C404 1.427 . S
N408 C405 1.384 . S
N409 C401 1.427 . S
N409 C407 1.384 . S
H410 C416 0.930 . S
H411 C420 0.930 . S
H412 C425 0.929 . S
H413 C423 0.929 . S
H414 C418 0.929 . S
H415 C424 0.929 . S
C416 H410 0.930 . S
C416 C417 1.367 . S
C416 C424 1.378 . S
C417 C416 1.367 . S
C417 C425 1.433 . S
C418 H414 0.929 . S
C418 C420 1.378 . S
C418 C422 1.350 . S
C419 C422 1.463 . S
C419 C424 1.350 . S
C419 N427 1.427 . S
C420 H411 0.930 . S
C420 C418 1.378 . S
C420 C421 1.367 . S
C421 C420 1.367 . S
C421 C423 1.433 . S
C422 C418 1.350 . S
C422 C419 1.463 . S
C422 N426 1.427 . S
C423 H413 0.929 . S
C423 C421 1.433 . S
C423 N426 1.384 . S
C424 H415 0.929 . S
C424 C416 1.378 . S
C424 C419 1.350 . S
C425 H412 0.929 . S
C425 C417 1.433 . S
C425 N427 1.384 . S
N426 C422 1.427 . S
N426 C423 1.384 . S
N427 C419 1.427 . S
N427 C425 1.384 . S
H428 C434 0.930 . S
H429 C438 0.930 1_556 S
H430 C443 0.929 . S
H431 C441 0.929 . S
H432 C436 0.929 . S
H433 C442 0.929 . S
C434 H428 0.930 . S
C434 C435 1.367 . S
C434 C442 1.378 . S
C435 C434 1.367 . S
C435 C443 1.433 . S
C436 H432 0.929 . S
C436 C438 1.378 . S
C436 C440 1.350 . S
C437 C440 1.463 . S
C437 C442 1.350 . S
C437 N445 1.427 . S
C438 H429 0.930 1_554 S
C438 C436 1.378 . S
C438 C439 1.367 . S
C439 C438 1.367 . S
C439 C441 1.433 . S
C440 C436 1.350 . S
C440 C437 1.463 . S
C440 N444 1.427 . S
C441 H431 0.929 . S
C441 C439 1.433 . S
C441 N444 1.384 . S
C442 H433 0.929 . S
C442 C434 1.378 . S
C442 C437 1.350 . S
C443 H430 0.929 . S
C443 C435 1.433 . S
C443 N445 1.384 . S
N444 C440 1.427 . S
N444 C441 1.384 . S
N445 C437 1.427 . S
N445 C443 1.384 . S
H446 C452 0.930 . S
H447 C456 0.930 . S
H448 C461 0.929 . S
H449 C459 0.929 . S
H450 C454 0.929 . S
H451 C460 0.929 . S
C452 H446 0.930 . S
C452 C453 1.367 . S
C452 C460 1.378 . S
C453 C452 1.367 . S
C453 C461 1.433 . S
C454 H450 0.929 . S
C454 C456 1.378 . S
C454 C458 1.350 . S
C455 C458 1.463 . S
C455 C460 1.350 . S
C455 N463 1.427 . S
C456 H447 0.930 . S
C456 C454 1.378 . S
C456 C457 1.367 . S
C457 C456 1.367 . S
C457 C459 1.433 . S
C458 C454 1.350 . S
C458 C455 1.463 . S
C458 N462 1.427 . S
C459 H449 0.929 . S
C459 C457 1.433 . S
C459 N462 1.384 . S
C460 H451 0.929 . S
C460 C452 1.378 . S
C460 C455 1.350 . S
C461 H448 0.929 . S
C461 C453 1.433 . S
C461 N463 1.384 . S
N462 C458 1.427 . S
N462 C459 1.384 . S
N463 C455 1.427 . S
N463 C461 1.384 . S
H464 C470 0.930 . S
H465 C474 0.930 . S
H466 C479 0.929 . S
H467 C477 0.929 . S
H468 C472 0.929 . S
H469 C478 0.929 . S
C470 H464 0.930 . S
C470 C471 1.367 . S
C470 C478 1.378 . S
C471 C470 1.367 . S
C471 C479 1.433 . S
C472 H468 0.929 . S
C472 C474 1.378 . S
C472 C476 1.350 . S
C473 C476 1.463 . S
C473 C478 1.350 . S
C473 N481 1.427 . S
C474 H465 0.930 . S
C474 C472 1.378 . S
C474 C475 1.367 . S
C475 C474 1.367 . S
C475 C477 1.433 . S
C476 C472 1.350 . S
C476 C473 1.463 . S
C476 N480 1.427 . S
C477 H467 0.929 . S
C477 C475 1.433 . S
C477 N480 1.384 . S
C478 H469 0.929 . S
C478 C470 1.378 . S
C478 C473 1.350 . S
C479 H466 0.929 . S
C479 C471 1.433 . S
C479 N481 1.384 . S
N480 C476 1.427 . S
N480 C477 1.384 . S
N481 C473 1.427 . S
N481 C479 1.384 . S
H482 C488 0.930 . S
H483 C492 0.930 . S
H484 C497 0.929 . S
H485 C495 0.929 . S
H486 C490 0.929 . S
H487 C496 0.929 . S
C488 H482 0.930 . S
C488 C489 1.367 . S
C488 C496 1.378 . S
C489 C488 1.367 . S
C489 C497 1.433 . S
C490 H486 0.929 . S
C490 C492 1.378 . S
C490 C494 1.350 . S
C491 C494 1.463 . S
C491 C496 1.350 . S
C491 N499 1.427 . S
C492 H483 0.930 . S
C492 C490 1.378 . S
C492 C493 1.367 . S
C493 C492 1.367 . S
C493 C495 1.433 . S
C494 C490 1.350 . S
C494 C491 1.463 . S
C494 N498 1.427 . S
C495 H485 0.929 . S
C495 C493 1.433 . S
C495 N498 1.384 . S
C496 H487 0.929 . S
C496 C488 1.378 . S
C496 C491 1.350 . S
C497 H484 0.929 . S
C497 C489 1.433 . S
C497 N499 1.384 . S
N498 C494 1.427 . S
N498 C495 1.384 . S
N499 C491 1.427 . S
N499 C497 1.384 . S
H500 C506 0.930 . S
H501 C510 0.930 . S
H502 C515 0.929 . S
H503 C513 0.929 . S
H504 C508 0.929 . S
H505 C514 0.929 . S
C506 H500 0.930 . S
C506 C507 1.367 . S
C506 C514 1.378 . S
C507 C506 1.367 . S
C507 C515 1.433 . S
C508 H504 0.929 . S
C508 C510 1.378 . S
C508 C512 1.350 . S
C509 C512 1.463 . S
C509 C514 1.350 . S
C509 N517 1.427 . S
C510 H501 0.930 . S
C510 C508 1.378 . S
C510 C511 1.367 . S
C511 C510 1.367 . S
C511 C513 1.433 . S
C512 C508 1.350 . S
C512 C509 1.463 . S
C512 N516 1.427 . S
C513 H503 0.929 . S
C513 C511 1.433 . S
C513 N516 1.384 . S
C514 H505 0.929 . S
C514 C506 1.378 . S
C514 C509 1.350 . S
C515 H502 0.929 . S
C515 C507 1.433 . S
C515 N517 1.384 . S
N516 C512 1.427 . S
N516 C513 1.384 . S
N517 C509 1.427 . S
N517 C515 1.384 . S
H518 C524 0.930 . S
H519 C528 0.930 . S
H520 C533 0.929 . S
H521 C531 0.929 . S
H522 C526 0.929 . S
H523 C532 0.929 . S
C524 H518 0.930 . S
C524 C525 1.367 . S
C524 C532 1.378 . S
C525 C524 1.367 . S
C525 C533 1.433 . S
C526 H522 0.929 . S
C526 C528 1.378 . S
C526 C530 1.350 . S
C527 C530 1.463 . S
C527 C532 1.350 . S
C527 N535 1.427 . S
C528 H519 0.930 . S
C528 C526 1.378 . S
C528 C529 1.367 . S
C529 C528 1.367 . S
C529 C531 1.433 . S
C530 C526 1.350 . S
C530 C527 1.463 . S
C530 N534 1.427 . S
C531 H521 0.929 . S
C531 C529 1.433 . S
C531 N534 1.384 . S
C532 H523 0.929 . S
C532 C524 1.378 . S
C532 C527 1.350 . S
C533 H520 0.929 . S
C533 C525 1.433 . S
C533 N535 1.384 . S
N534 C530 1.427 . S
N534 C531 1.384 . S
N535 C527 1.427 . S
N535 C533 1.384 . S
H536 C542 0.930 . S
H537 C546 0.930 . S
H538 C551 0.929 . S
H539 C549 0.929 . S
H540 C544 0.929 . S
H541 C550 0.929 . S
C542 H536 0.930 . S
C542 C543 1.367 . S
C542 C550 1.378 . S
C543 C542 1.367 . S
C543 C551 1.433 . S
C544 H540 0.929 . S
C544 C546 1.378 . S
C544 C548 1.350 . S
C545 C548 1.463 . S
C545 C550 1.350 . S
C545 N553 1.427 . S
C546 H537 0.930 . S
C546 C544 1.378 . S
C546 C547 1.367 . S
C547 C546 1.367 . S
C547 C549 1.433 . S
C548 C544 1.350 . S
C548 C545 1.463 . S
C548 N552 1.427 . S
C549 H539 0.929 . S
C549 C547 1.433 . S
C549 N552 1.384 . S
C550 H541 0.929 . S
C550 C542 1.378 . S
C550 C545 1.350 . S
C551 H538 0.929 . S
C551 C543 1.433 . S
C551 N553 1.384 . S
N552 C548 1.427 . S
N552 C549 1.384 . S
N553 C545 1.427 . S
N553 C551 1.384 . S
H554 C560 0.930 . S
H555 C564 0.930 . S
H556 C569 0.929 . S
H557 C567 0.929 . S
H558 C562 0.929 . S
H559 C568 0.929 . S
C560 H554 0.930 . S
C560 C561 1.367 . S
C560 C568 1.378 . S
C561 C560 1.367 . S
C561 C569 1.433 . S
C562 H558 0.929 . S
C562 C564 1.378 . S
C562 C566 1.350 . S
C563 C566 1.463 . S
C563 C568 1.350 . S
C563 N571 1.427 . S
C564 H555 0.930 . S
C564 C562 1.378 . S
C564 C565 1.367 . S
C565 C564 1.367 . S
C565 C567 1.433 . S
C566 C562 1.350 . S
C566 C563 1.463 . S
C566 N570 1.427 . S
C567 H557 0.929 . S
C567 C565 1.433 . S
C567 N570 1.384 . S
C568 H559 0.929 . S
C568 C560 1.378 . S
C568 C563 1.350 . S
C569 H556 0.929 . S
C569 C561 1.433 . S
C569 N571 1.384 . S
N570 C566 1.427 . S
N570 C567 1.384 . S
N571 C563 1.427 . S
N571 C569 1.384 . S
H572 C578 0.930 . S
H573 C582 0.930 . S
H574 C587 0.929 . S
H575 C585 0.929 . S
H576 C580 0.929 . S
H577 C586 0.929 . S
C578 H572 0.930 . S
C578 C579 1.367 . S
C578 C586 1.378 . S
C579 C578 1.367 . S
C579 C587 1.433 . S
C580 H576 0.929 . S
C580 C582 1.378 . S
C580 C584 1.350 . S
C581 C584 1.463 . S
C581 C586 1.350 . S
C581 N589 1.427 . S
C582 H573 0.930 . S
C582 C580 1.378 . S
C582 C583 1.367 . S
C583 C582 1.367 . S
C583 C585 1.433 . S
C584 C580 1.350 . S
C584 C581 1.463 . S
C584 N588 1.427 . S
C585 H575 0.929 . S
C585 C583 1.433 . S
C585 N588 1.384 . S
C586 H577 0.929 . S
C586 C578 1.378 . S
C586 C581 1.350 . S
C587 H574 0.929 . S
C587 C579 1.433 . S
C587 N589 1.384 . S
N588 C584 1.427 . S
N588 C585 1.384 . S
N589 C581 1.427 . S
N589 C587 1.384 . S
H590 C596 0.930 . S
H591 C600 0.930 . S
H592 C605 0.929 . S
H593 C603 0.929 . S
H594 C598 0.929 . S
H595 C604 0.929 . S
C596 H590 0.930 . S
C596 C597 1.367 . S
C596 C604 1.378 . S
C597 C596 1.367 . S
C597 C605 1.433 . S
C598 H594 0.929 . S
C598 C600 1.378 . S
C598 C602 1.350 . S
C599 C602 1.463 . S
C599 C604 1.350 . S
C599 N607 1.427 . S
C600 H591 0.930 . S
C600 C598 1.378 . S
C600 C601 1.367 . S
C601 C600 1.367 . S
C601 C603 1.433 . S
C602 C598 1.350 . S
C602 C599 1.463 . S
C602 N606 1.427 . S
C603 H593 0.929 . S
C603 C601 1.433 . S
C603 N606 1.384 . S
C604 H595 0.929 . S
C604 C596 1.378 . S
C604 C599 1.350 . S
C605 H592 0.929 . S
C605 C597 1.433 . S
C605 N607 1.384 . S
N606 C602 1.427 . S
N606 C603 1.384 . S
N607 C599 1.427 . S
N607 C605 1.384 . S
H608 C614 0.930 . S
H609 C618 0.930 . S
H610 C623 0.928 . S
H611 C621 0.930 . S
H612 C616 0.929 . S
H613 C622 0.929 . S
C614 H608 0.930 . S
C614 C615 1.345 1_545 S
C614 C622 1.378 . S
C615 C614 1.345 1_565 S
C615 C623 1.451 . S
C616 H612 0.929 . S
C616 C618 1.378 . S
C616 C620 1.363 . S
C617 C620 1.469 1_646 S
C617 C622 1.368 . S
C617 N625 1.405 1_645 S
C618 H609 0.930 . S
C618 C616 1.378 . S
C618 C619 1.338 1_565 S
C619 C618 1.338 1_545 S
C619 C621 1.457 . S
C620 C616 1.363 . S
C620 C617 1.469 1_464 S
C620 N624 1.411 1_465 S
C621 H611 0.930 . S
C621 C619 1.457 . S
C621 N624 1.384 1_455 S
C622 H613 0.929 . S
C622 C614 1.378 . S
C622 C617 1.368 . S
C623 H610 0.928 . S
C623 C615 1.451 . S
C623 N625 1.384 1_655 S
N624 C620 1.411 1_645 S
N624 C621 1.384 1_655 S
N625 C617 1.405 1_465 S
N625 C623 1.384 1_455 S
H626 C632 0.930 . S
H627 C636 0.930 . S
H628 C641 0.929 . S
H629 C639 0.929 . S
H630 C634 0.929 . S
H631 C640 0.929 . S
C632 H626 0.930 . S
C632 C633 1.367 . S
C632 C640 1.378 . S
C633 C632 1.367 . S
C633 C641 1.433 . S
C634 H630 0.929 . S
C634 C636 1.378 . S
C634 C638 1.350 . S
C635 C638 1.463 . S
C635 C640 1.350 . S
C635 N643 1.427 . S
C636 H627 0.930 . S
C636 C634 1.378 . S
C636 C637 1.367 . S
C637 C636 1.367 . S
C637 C639 1.433 . S
C638 C634 1.350 . S
C638 C635 1.463 . S
C638 N642 1.427 . S
C639 H629 0.929 . S
C639 C637 1.433 . S
C639 N642 1.384 . S
C640 H631 0.929 . S
C640 C632 1.378 . S
C640 C635 1.350 . S
C641 H628 0.929 . S
C641 C633 1.433 . S
C641 N643 1.384 . S
N642 C638 1.427 . S
N642 C639 1.384 . S
N643 C635 1.427 . S
N643 C641 1.384 . S
H644 C650 0.930 . S
H645 C654 0.930 . S
H646 C659 0.929 . S
H647 C657 0.929 . S
H648 C652 0.929 . S
H649 C658 0.929 . S
C650 H644 0.930 . S
C650 C651 1.367 . S
C650 C658 1.378 . S
C651 C650 1.367 . S
C651 C659 1.433 1_545 S
C652 H648 0.929 . S
C652 C654 1.378 . S
C652 C656 1.350 . S
C653 C656 1.463 1_545 S
C653 C658 1.350 . S
C653 N661 1.427 1_545 S
C654 H645 0.930 . S
C654 C652 1.378 . S
C654 C655 1.367 . S
C655 C654 1.367 . S
C655 C657 1.433 1_565 S
C656 C652 1.350 . S
C656 C653 1.463 1_565 S
C656 N660 1.427 1_565 S
C657 H647 0.929 . S
C657 C655 1.433 1_545 S
C657 N660 1.384 . S
C658 H649 0.929 . S
C658 C650 1.378 . S
C658 C653 1.350 . S
C659 H646 0.929 . S
C659 C651 1.433 1_565 S
C659 N661 1.384 . S
N660 C656 1.427 1_545 S
N660 C657 1.384 . S
N661 C653 1.427 1_565 S
N661 C659 1.384 . S
H662 C668 0.930 . S
H663 C672 0.930 . S
H664 C677 0.929 . S
H665 C675 0.929 . S
H666 C670 0.929 . S
H667 C676 0.929 . S
C668 H662 0.930 . S
C668 C669 1.367 . S
C668 C676 1.378 . S
C669 C668 1.367 . S
C669 C677 1.433 . S
C670 H666 0.929 . S
C670 C672 1.378 . S
C670 C674 1.350 . S
C671 C674 1.463 . S
C671 C676 1.350 . S
C671 N679 1.427 . S
C672 H663 0.930 . S
C672 C670 1.378 . S
C672 C673 1.367 . S
C673 C672 1.367 . S
C673 C675 1.433 . S
C674 C670 1.350 . S
C674 C671 1.463 . S
C674 N678 1.427 . S
C675 H665 0.929 . S
C675 C673 1.433 . S
C675 N678 1.384 . S
C676 H667 0.929 . S
C676 C668 1.378 . S
C676 C671 1.350 . S
C677 H664 0.929 . S
C677 C669 1.433 . S
C677 N679 1.384 . S
N678 C674 1.427 . S
N678 C675 1.384 . S
N679 C671 1.427 . S
N679 C677 1.384 . S
H680 C686 0.930 . S
H681 C690 0.930 . S
H682 C695 0.929 . S
H683 C693 0.929 . S
H684 C688 0.929 . S
H685 C694 0.929 . S
C686 H680 0.930 . S
C686 C687 1.367 . S
C686 C694 1.378 . S
C687 C686 1.367 . S
C687 C695 1.433 . S
C688 H684 0.929 . S
C688 C690 1.378 . S
C688 C692 1.350 . S
C689 C692 1.463 . S
C689 C694 1.350 . S
C689 N697 1.427 . S
C690 H681 0.930 . S
C690 C688 1.378 . S
C690 C691 1.367 . S
C691 C690 1.367 . S
C691 C693 1.433 . S
C692 C688 1.350 . S
C692 C689 1.463 . S
C692 N696 1.427 . S
C693 H683 0.929 . S
C693 C691 1.433 . S
C693 N696 1.384 . S
C694 H685 0.929 . S
C694 C686 1.378 . S
C694 C689 1.350 . S
C695 H682 0.929 . S
C695 C687 1.433 . S
C695 N697 1.384 . S
N696 C692 1.427 . S
N696 C693 1.384 . S
N697 C689 1.427 . S
N697 C695 1.384 . S
H698 C704 0.930 . S
H699 C708 0.930 . S
H700 C713 0.929 . S
H701 C711 0.929 . S
H702 C706 0.929 . S
H703 C712 0.929 . S
C704 H698 0.930 . S
C704 C705 1.367 . S
C704 C712 1.378 . S
C705 C704 1.367 . S
C705 C713 1.433 . S
C706 H702 0.929 . S
C706 C708 1.378 . S
C706 C710 1.350 . S
C707 C710 1.463 . S
C707 C712 1.350 . S
C707 N715 1.427 . S
C708 H699 0.930 . S
C708 C706 1.378 . S
C708 C709 1.367 . S
C709 C708 1.367 . S
C709 C711 1.433 . S
C710 C706 1.350 . S
C710 C707 1.463 . S
C710 N714 1.427 . S
C711 H701 0.929 . S
C711 C709 1.433 . S
C711 N714 1.384 . S
C712 H703 0.929 . S
C712 C704 1.378 . S
C712 C707 1.350 . S
C713 H700 0.929 . S
C713 C705 1.433 . S
C713 N715 1.384 . S
N714 C710 1.427 . S
N714 C711 1.384 . S
N715 C707 1.427 . S
N715 C713 1.384 . S
H716 C722 0.930 . S
H717 C726 0.930 . S
H718 C731 0.929 . S
H719 C729 0.929 . S
H720 C724 0.929 . S
H721 C730 0.929 . S
C722 H716 0.930 . S
C722 C723 1.367 . S
C722 C730 1.378 . S
C723 C722 1.367 . S
C723 C731 1.433 . S
C724 H720 0.929 . S
C724 C726 1.378 . S
C724 C728 1.350 . S
C725 C728 1.463 . S
C725 C730 1.350 . S
C725 N733 1.427 . S
C726 H717 0.930 . S
C726 C724 1.378 . S
C726 C727 1.367 . S
C727 C726 1.367 . S
C727 C729 1.433 . S
C728 C724 1.350 . S
C728 C725 1.463 . S
C728 N732 1.427 . S
C729 H719 0.929 . S
C729 C727 1.433 . S
C729 N732 1.384 . S
C730 H721 0.929 . S
C730 C722 1.378 . S
C730 C725 1.350 . S
C731 H718 0.929 . S
C731 C723 1.433 . S
C731 N733 1.384 . S
N732 C728 1.427 . S
N732 C729 1.384 . S
N733 C725 1.427 . S
N733 C731 1.384 . S
H734 C740 0.930 . S
H735 C744 0.930 . S
H736 C749 0.929 . S
H737 C747 0.929 . S
H738 C742 0.928 1_655 S
H739 C748 0.928 . S
C740 H734 0.930 . S
C740 C741 1.367 . S
C740 C748 1.378 1_655 S
C741 C740 1.367 . S
C741 C749 1.433 . S
C742 H738 0.928 1_455 S
C742 C744 1.378 . S
C742 C746 1.350 . S
C743 C746 1.463 1_656 S
C743 C748 1.350 1_655 S
C743 N751 1.427 . S
C744 H735 0.930 . S
C744 C742 1.378 . S
C744 C745 1.367 . S
C745 C744 1.367 . S
C745 C747 1.433 . S
C746 C742 1.350 . S
C746 C743 1.463 1_454 S
C746 N750 1.427 . S
C747 H737 0.929 . S
C747 C745 1.433 . S
C747 N750 1.384 . S
C748 H739 0.928 . S
C748 C740 1.378 1_455 S
C748 C743 1.350 1_455 S
C749 H736 0.929 . S
C749 C741 1.433 . S
C749 N751 1.384 . S
N750 C746 1.427 . S
N750 C747 1.384 . S
N751 C743 1.427 . S
N751 C749 1.384 . S
C327 C2 1.532 . S
C331 C130 1.519 . S
C345 C10 0.881 . S
C349 C50 0.886 . S
C363 C42 1.528 . S
C367 C90 1.522 . S
C381 C82 2.059 . S
C385 C122 2.057 . S
C399 C11 1.528 . S
C403 C219 1.521 . S
C417 C19 0.895 . S
C421 C179 0.884 . S
C435 C171 1.527 . S
C439 C99 1.515 . S
C453 C211 2.058 . S
C457 C91 2.060 . S
C471 C242 1.530 . S
C475 C210 1.522 . S
C489 C170 0.891 . S
C493 C250 0.881 . S
C507 C290 1.519 . S
C511 C162 1.531 . S
C525 C202 2.057 . S
C529 C282 2.060 . S
C543 C139 1.524 . S
C547 C251 1.531 . S
C561 C259 0.882 . S
C565 C59 0.892 . S
C579 C51 1.530 . S
C583 C299 1.521 . S
C597 C131 2.057 . S
C601 C291 2.056 . S
C615 C16 1.449 . S
C619 C7 1.449 . S
C633 C56 1.441 . S
C637 C47 1.441 . S
C651 C96 1.619 . S
C655 C87 1.619 . S
C669 C127 1.620 . S
C673 C136 1.620 . S
C687 C176 1.442 . S
C691 C167 1.442 . S
C705 C207 1.620 . S
C709 C216 1.620 . S
C723 C247 1.451 . S
C727 C256 1.451 . S
C741 C287 1.608 . S
C745 C296 1.608 . S
