# Generated by pormake.
# Topology gie, (4)-cn, num edge types: 1
# Building blocks:
#     Node 0, Type 0, BuildingBlock: CEKHIL_clean_sbu_0, # of connection points: 4
#     Node 1, Type 0, BuildingBlock: CEKHIL_clean_sbu_0, # of connection points: 4
#     Node 2, Type 0, BuildingBlock: CEKHIL_clean_sbu_0, # of connection points: 4
#     Node 3, Type 0, BuildingBlock: CEKHIL_clean_sbu_0, # of connection points: 4
#     Node 4, Type 0, BuildingBlock: CEKHIL_clean_sbu_0, # of connection points: 4
#     Node 5, Type 0, BuildingBlock: CEKHIL_clean_sbu_0, # of connection points: 4
#     Node 6, Type 0, BuildingBlock: CEKHIL_clean_sbu_0, # of connection points: 4
#     Node 7, Type 0, BuildingBlock: CEKHIL_clean_sbu_0, # of connection points: 4
#     Node 8, Type 0, BuildingBlock: CEKHIL_clean_sbu_0, # of connection points: 4
#     Node 9, Type 0, BuildingBlock: CEKHIL_clean_sbu_0, # of connection points: 4
#     Node 10, Type 0, BuildingBlock: CEKHIL_clean_sbu_0, # of connection points: 4
#     Node 11, Type 0, BuildingBlock: CEKHIL_clean_sbu_0, # of connection points: 4
#     Node 12, Type 0, BuildingBlock: CEKHIL_clean_sbu_0, # of connection points: 4
#     Node 13, Type 0, BuildingBlock: CEKHIL_clean_sbu_0, # of connection points: 4
#     Node 14, Type 0, BuildingBlock: CEKHIL_clean_sbu_0, # of connection points: 4
#     Node 15, Type 0, BuildingBlock: CEKHIL_clean_sbu_0, # of connection points: 4
#     Node 16, Type 0, BuildingBlock: CEKHIL_clean_sbu_0, # of connection points: 4
#     Node 17, Type 0, BuildingBlock: CEKHIL_clean_sbu_0, # of connection points: 4
#     Node 18, Type 0, BuildingBlock: CEKHIL_clean_sbu_0, # of connection points: 4
#     Node 19, Type 0, BuildingBlock: CEKHIL_clean_sbu_0, # of connection points: 4
#     Node 20, Type 0, BuildingBlock: CEKHIL_clean_sbu_0, # of connection points: 4
#     Node 21, Type 0, BuildingBlock: CEKHIL_clean_sbu_0, # of connection points: 4
#     Node 22, Type 0, BuildingBlock: CEKHIL_clean_sbu_0, # of connection points: 4
#     Node 23, Type 0, BuildingBlock: CEKHIL_clean_sbu_0, # of connection points: 4
#     Node 24, Type 0, BuildingBlock: CEKHIL_clean_sbu_0, # of connection points: 4
#     Node 25, Type 0, BuildingBlock: CEKHIL_clean_sbu_0, # of connection points: 4
#     Node 26, Type 0, BuildingBlock: CEKHIL_clean_sbu_0, # of connection points: 4
#     Node 27, Type 0, BuildingBlock: CEKHIL_clean_sbu_0, # of connection points: 4
#     Node 28, Type 0, BuildingBlock: CEKHIL_clean_sbu_0, # of connection points: 4
#     Node 29, Type 0, BuildingBlock: CEKHIL_clean_sbu_0, # of connection points: 4
#     Node 30, Type 0, BuildingBlock: CEKHIL_clean_sbu_0, # of connection points: 4
#     Node 31, Type 0, BuildingBlock: CEKHIL_clean_sbu_0, # of connection points: 4
#     Node 32, Type 0, BuildingBlock: CEKHIL_clean_sbu_0, # of connection points: 4
#     Node 33, Type 0, BuildingBlock: CEKHIL_clean_sbu_0, # of connection points: 4
#     Node 34, Type 0, BuildingBlock: CEKHIL_clean_sbu_0, # of connection points: 4
#     Node 35, Type 0, BuildingBlock: CEKHIL_clean_sbu_0, # of connection points: 4
#     Node 36, Type 0, BuildingBlock: CEKHIL_clean_sbu_0, # of connection points: 4
#     Node 37, Type 0, BuildingBlock: CEKHIL_clean_sbu_0, # of connection points: 4
#     Node 38, Type 0, BuildingBlock: CEKHIL_clean_sbu_0, # of connection points: 4
#     Node 39, Type 0, BuildingBlock: CEKHIL_clean_sbu_0, # of connection points: 4
#     Node 40, Type 0, BuildingBlock: CEKHIL_clean_sbu_0, # of connection points: 4
#     Node 41, Type 0, BuildingBlock: CEKHIL_clean_sbu_0, # of connection points: 4
#     Node 42, Type 0, BuildingBlock: CEKHIL_clean_sbu_0, # of connection points: 4
#     Node 43, Type 0, BuildingBlock: CEKHIL_clean_sbu_0, # of connection points: 4
#     Node 44, Type 0, BuildingBlock: CEKHIL_clean_sbu_0, # of connection points: 4
#     Node 45, Type 0, BuildingBlock: CEKHIL_clean_sbu_0, # of connection points: 4
#     Node 46, Type 0, BuildingBlock: CEKHIL_clean_sbu_0, # of connection points: 4
#     Node 47, Type 0, BuildingBlock: CEKHIL_clean_sbu_0, # of connection points: 4
#     Node 48, Type 0, BuildingBlock: CEKHIL_clean_sbu_0, # of connection points: 4
#     Node 49, Type 0, BuildingBlock: CEKHIL_clean_sbu_0, # of connection points: 4
#     Node 50, Type 0, BuildingBlock: CEKHIL_clean_sbu_0, # of connection points: 4
#     Node 51, Type 0, BuildingBlock: CEKHIL_clean_sbu_0, # of connection points: 4
#     Node 52, Type 0, BuildingBlock: CEKHIL_clean_sbu_0, # of connection points: 4
#     Node 53, Type 0, BuildingBlock: CEKHIL_clean_sbu_0, # of connection points: 4
#     Node 54, Type 0, BuildingBlock: CEKHIL_clean_sbu_0, # of connection points: 4
#     Node 55, Type 0, BuildingBlock: CEKHIL_clean_sbu_0, # of connection points: 4
#     Node 56, Type 0, BuildingBlock: CEKHIL_clean_sbu_0, # of connection points: 4
#     Node 57, Type 0, BuildingBlock: CEKHIL_clean_sbu_0, # of connection points: 4
#     Node 58, Type 0, BuildingBlock: CEKHIL_clean_sbu_0, # of connection points: 4
#     Node 59, Type 0, BuildingBlock: CEKHIL_clean_sbu_0, # of connection points: 4
#     Node 60, Type 0, BuildingBlock: CEKHIL_clean_sbu_0, # of connection points: 4
#     Node 61, Type 0, BuildingBlock: CEKHIL_clean_sbu_0, # of connection points: 4
#     Node 62, Type 0, BuildingBlock: CEKHIL_clean_sbu_0, # of connection points: 4
#     Node 63, Type 0, BuildingBlock: CEKHIL_clean_sbu_0, # of connection points: 4
#     Node 64, Type 0, BuildingBlock: CEKHIL_clean_sbu_0, # of connection points: 4
#     Node 65, Type 0, BuildingBlock: CEKHIL_clean_sbu_0, # of connection points: 4
#     Node 66, Type 0, BuildingBlock: CEKHIL_clean_sbu_0, # of connection points: 4
#     Node 67, Type 0, BuildingBlock: CEKHIL_clean_sbu_0, # of connection points: 4
#     Node 68, Type 0, BuildingBlock: CEKHIL_clean_sbu_0, # of connection points: 4
#     Node 69, Type 0, BuildingBlock: CEKHIL_clean_sbu_0, # of connection points: 4
#     Node 70, Type 0, BuildingBlock: CEKHIL_clean_sbu_0, # of connection points: 4
#     Node 71, Type 0, BuildingBlock: CEKHIL_clean_sbu_0, # of connection points: 4
#     Node 72, Type 0, BuildingBlock: CEKHIL_clean_sbu_0, # of connection points: 4
#     Node 73, Type 0, BuildingBlock: CEKHIL_clean_sbu_0, # of connection points: 4
#     Node 74, Type 0, BuildingBlock: CEKHIL_clean_sbu_0, # of connection points: 4
#     Node 75, Type 0, BuildingBlock: CEKHIL_clean_sbu_0, # of connection points: 4
#     Node 76, Type 0, BuildingBlock: CEKHIL_clean_sbu_0, # of connection points: 4
#     Node 77, Type 0, BuildingBlock: CEKHIL_clean_sbu_0, # of connection points: 4
#     Node 78, Type 0, BuildingBlock: CEKHIL_clean_sbu_0, # of connection points: 4
#     Node 79, Type 0, BuildingBlock: CEKHIL_clean_sbu_0, # of connection points: 4
#     Node 80, Type 0, BuildingBlock: CEKHIL_clean_sbu_0, # of connection points: 4
#     Node 81, Type 0, BuildingBlock: CEKHIL_clean_sbu_0, # of connection points: 4
#     Node 82, Type 0, BuildingBlock: CEKHIL_clean_sbu_0, # of connection points: 4
#     Node 83, Type 0, BuildingBlock: CEKHIL_clean_sbu_0, # of connection points: 4
#     Node 84, Type 0, BuildingBlock: CEKHIL_clean_sbu_0, # of connection points: 4
#     Node 85, Type 0, BuildingBlock: CEKHIL_clean_sbu_0, # of connection points: 4
#     Node 86, Type 0, BuildingBlock: CEKHIL_clean_sbu_0, # of connection points: 4
#     Node 87, Type 0, BuildingBlock: CEKHIL_clean_sbu_0, # of connection points: 4
#     Node 88, Type 0, BuildingBlock: CEKHIL_clean_sbu_0, # of connection points: 4
#     Node 89, Type 0, BuildingBlock: CEKHIL_clean_sbu_0, # of connection points: 4
#     Node 90, Type 0, BuildingBlock: CEKHIL_clean_sbu_0, # of connection points: 4
#     Node 91, Type 0, BuildingBlock: CEKHIL_clean_sbu_0, # of connection points: 4
#     Node 92, Type 0, BuildingBlock: CEKHIL_clean_sbu_0, # of connection points: 4
#     Node 93, Type 0, BuildingBlock: CEKHIL_clean_sbu_0, # of connection points: 4
#     Node 94, Type 0, BuildingBlock: CEKHIL_clean_sbu_0, # of connection points: 4
#     Node 95, Type 0, BuildingBlock: CEKHIL_clean_sbu_0, # of connection points: 4
#     Edge 96, Type (0, 0), BuildingBlock: KIFKEQ_clean_linker_1, # of connection points: 2
#     Edge 97, Type (0, 0), BuildingBlock: KIFKEQ_clean_linker_1, # of connection points: 2
#     Edge 98, Type (0, 0), BuildingBlock: KIFKEQ_clean_linker_1, # of connection points: 2
#     Edge 99, Type (0, 0), BuildingBlock: KIFKEQ_clean_linker_1, # of connection points: 2
#     Edge 100, Type (0, 0), BuildingBlock: KIFKEQ_clean_linker_1, # of connection points: 2
#     Edge 101, Type (0, 0), BuildingBlock: KIFKEQ_clean_linker_1, # of connection points: 2
#     Edge 102, Type (0, 0), BuildingBlock: KIFKEQ_clean_linker_1, # of connection points: 2
#     Edge 103, Type (0, 0), BuildingBlock: KIFKEQ_clean_linker_1, # of connection points: 2
#     Edge 104, Type (0, 0), BuildingBlock: KIFKEQ_clean_linker_1, # of connection points: 2
#     Edge 105, Type (0, 0), BuildingBlock: KIFKEQ_clean_linker_1, # of connection points: 2
#     Edge 106, Type (0, 0), BuildingBlock: KIFKEQ_clean_linker_1, # of connection points: 2
#     Edge 107, Type (0, 0), BuildingBlock: KIFKEQ_clean_linker_1, # of connection points: 2
#     Edge 108, Type (0, 0), BuildingBlock: KIFKEQ_clean_linker_1, # of connection points: 2
#     Edge 109, Type (0, 0), BuildingBlock: KIFKEQ_clean_linker_1, # of connection points: 2
#     Edge 110, Type (0, 0), BuildingBlock: KIFKEQ_clean_linker_1, # of connection points: 2
#     Edge 111, Type (0, 0), BuildingBlock: KIFKEQ_clean_linker_1, # of connection points: 2
#     Edge 112, Type (0, 0), BuildingBlock: KIFKEQ_clean_linker_1, # of connection points: 2
#     Edge 113, Type (0, 0), BuildingBlock: KIFKEQ_clean_linker_1, # of connection points: 2
#     Edge 114, Type (0, 0), BuildingBlock: KIFKEQ_clean_linker_1, # of connection points: 2
#     Edge 115, Type (0, 0), BuildingBlock: KIFKEQ_clean_linker_1, # of connection points: 2
#     Edge 116, Type (0, 0), BuildingBlock: KIFKEQ_clean_linker_1, # of connection points: 2
#     Edge 117, Type (0, 0), BuildingBlock: KIFKEQ_clean_linker_1, # of connection points: 2
#     Edge 118, Type (0, 0), BuildingBlock: KIFKEQ_clean_linker_1, # of connection points: 2
#     Edge 119, Type (0, 0), BuildingBlock: KIFKEQ_clean_linker_1, # of connection points: 2
#     Edge 120, Type (0, 0), BuildingBlock: KIFKEQ_clean_linker_1, # of connection points: 2
#     Edge 121, Type (0, 0), BuildingBlock: KIFKEQ_clean_linker_1, # of connection points: 2
#     Edge 122, Type (0, 0), BuildingBlock: KIFKEQ_clean_linker_1, # of connection points: 2
#     Edge 123, Type (0, 0), BuildingBlock: KIFKEQ_clean_linker_1, # of connection points: 2
#     Edge 124, Type (0, 0), BuildingBlock: KIFKEQ_clean_linker_1, # of connection points: 2
#     Edge 125, Type (0, 0), BuildingBlock: KIFKEQ_clean_linker_1, # of connection points: 2
#     Edge 126, Type (0, 0), BuildingBlock: KIFKEQ_clean_linker_1, # of connection points: 2
#     Edge 127, Type (0, 0), BuildingBlock: KIFKEQ_clean_linker_1, # of connection points: 2
#     Edge 128, Type (0, 0), BuildingBlock: KIFKEQ_clean_linker_1, # of connection points: 2
#     Edge 129, Type (0, 0), BuildingBlock: KIFKEQ_clean_linker_1, # of connection points: 2
#     Edge 130, Type (0, 0), BuildingBlock: KIFKEQ_clean_linker_1, # of connection points: 2
#     Edge 131, Type (0, 0), BuildingBlock: KIFKEQ_clean_linker_1, # of connection points: 2
#     Edge 132, Type (0, 0), BuildingBlock: KIFKEQ_clean_linker_1, # of connection points: 2
#     Edge 133, Type (0, 0), BuildingBlock: KIFKEQ_clean_linker_1, # of connection points: 2
#     Edge 134, Type (0, 0), BuildingBlock: KIFKEQ_clean_linker_1, # of connection points: 2
#     Edge 135, Type (0, 0), BuildingBlock: KIFKEQ_clean_linker_1, # of connection points: 2
#     Edge 136, Type (0, 0), BuildingBlock: KIFKEQ_clean_linker_1, # of connection points: 2
#     Edge 137, Type (0, 0), BuildingBlock: KIFKEQ_clean_linker_1, # of connection points: 2
#     Edge 138, Type (0, 0), BuildingBlock: KIFKEQ_clean_linker_1, # of connection points: 2
#     Edge 139, Type (0, 0), BuildingBlock: KIFKEQ_clean_linker_1, # of connection points: 2
#     Edge 140, Type (0, 0), BuildingBlock: KIFKEQ_clean_linker_1, # of connection points: 2
#     Edge 141, Type (0, 0), BuildingBlock: KIFKEQ_clean_linker_1, # of connection points: 2
#     Edge 142, Type (0, 0), BuildingBlock: KIFKEQ_clean_linker_1, # of connection points: 2
#     Edge 143, Type (0, 0), BuildingBlock: KIFKEQ_clean_linker_1, # of connection points: 2
#     Edge 144, Type (0, 0), BuildingBlock: KIFKEQ_clean_linker_1, # of connection points: 2
#     Edge 145, Type (0, 0), BuildingBlock: KIFKEQ_clean_linker_1, # of connection points: 2
#     Edge 146, Type (0, 0), BuildingBlock: KIFKEQ_clean_linker_1, # of connection points: 2
#     Edge 147, Type (0, 0), BuildingBlock: KIFKEQ_clean_linker_1, # of connection points: 2
#     Edge 148, Type (0, 0), BuildingBlock: KIFKEQ_clean_linker_1, # of connection points: 2
#     Edge 149, Type (0, 0), BuildingBlock: KIFKEQ_clean_linker_1, # of connection points: 2
#     Edge 150, Type (0, 0), BuildingBlock: KIFKEQ_clean_linker_1, # of connection points: 2
#     Edge 151, Type (0, 0), BuildingBlock: KIFKEQ_clean_linker_1, # of connection points: 2
#     Edge 152, Type (0, 0), BuildingBlock: KIFKEQ_clean_linker_1, # of connection points: 2
#     Edge 153, Type (0, 0), BuildingBlock: KIFKEQ_clean_linker_1, # of connection points: 2
#     Edge 154, Type (0, 0), BuildingBlock: KIFKEQ_clean_linker_1, # of connection points: 2
#     Edge 155, Type (0, 0), BuildingBlock: KIFKEQ_clean_linker_1, # of connection points: 2
#     Edge 156, Type (0, 0), BuildingBlock: KIFKEQ_clean_linker_1, # of connection points: 2
#     Edge 157, Type (0, 0), BuildingBlock: KIFKEQ_clean_linker_1, # of connection points: 2
#     Edge 158, Type (0, 0), BuildingBlock: KIFKEQ_clean_linker_1, # of connection points: 2
#     Edge 159, Type (0, 0), BuildingBlock: KIFKEQ_clean_linker_1, # of connection points: 2
#     Edge 160, Type (0, 0), BuildingBlock: KIFKEQ_clean_linker_1, # of connection points: 2
#     Edge 161, Type (0, 0), BuildingBlock: KIFKEQ_clean_linker_1, # of connection points: 2
#     Edge 162, Type (0, 0), BuildingBlock: KIFKEQ_clean_linker_1, # of connection points: 2
#     Edge 163, Type (0, 0), BuildingBlock: KIFKEQ_clean_linker_1, # of connection points: 2
#     Edge 164, Type (0, 0), BuildingBlock: KIFKEQ_clean_linker_1, # of connection points: 2
#     Edge 165, Type (0, 0), BuildingBlock: KIFKEQ_clean_linker_1, # of connection points: 2
#     Edge 166, Type (0, 0), BuildingBlock: KIFKEQ_clean_linker_1, # of connection points: 2
#     Edge 167, Type (0, 0), BuildingBlock: KIFKEQ_clean_linker_1, # of connection points: 2
#     Edge 168, Type (0, 0), BuildingBlock: KIFKEQ_clean_linker_1, # of connection points: 2
#     Edge 169, Type (0, 0), BuildingBlock: KIFKEQ_clean_linker_1, # of connection points: 2
#     Edge 170, Type (0, 0), BuildingBlock: KIFKEQ_clean_linker_1, # of connection points: 2
#     Edge 171, Type (0, 0), BuildingBlock: KIFKEQ_clean_linker_1, # of connection points: 2
#     Edge 172, Type (0, 0), BuildingBlock: KIFKEQ_clean_linker_1, # of connection points: 2
#     Edge 173, Type (0, 0), BuildingBlock: KIFKEQ_clean_linker_1, # of connection points: 2
#     Edge 174, Type (0, 0), BuildingBlock: KIFKEQ_clean_linker_1, # of connection points: 2
#     Edge 175, Type (0, 0), BuildingBlock: KIFKEQ_clean_linker_1, # of connection points: 2
#     Edge 176, Type (0, 0), BuildingBlock: KIFKEQ_clean_linker_1, # of connection points: 2
#     Edge 177, Type (0, 0), BuildingBlock: KIFKEQ_clean_linker_1, # of connection points: 2
#     Edge 178, Type (0, 0), BuildingBlock: KIFKEQ_clean_linker_1, # of connection points: 2
#     Edge 179, Type (0, 0), BuildingBlock: KIFKEQ_clean_linker_1, # of connection points: 2
#     Edge 180, Type (0, 0), BuildingBlock: KIFKEQ_clean_linker_1, # of connection points: 2
#     Edge 181, Type (0, 0), BuildingBlock: KIFKEQ_clean_linker_1, # of connection points: 2
#     Edge 182, Type (0, 0), BuildingBlock: KIFKEQ_clean_linker_1, # of connection points: 2
#     Edge 183, Type (0, 0), BuildingBlock: KIFKEQ_clean_linker_1, # of connection points: 2
#     Edge 184, Type (0, 0), BuildingBlock: KIFKEQ_clean_linker_1, # of connection points: 2
#     Edge 185, Type (0, 0), BuildingBlock: KIFKEQ_clean_linker_1, # of connection points: 2
#     Edge 186, Type (0, 0), BuildingBlock: KIFKEQ_clean_linker_1, # of connection points: 2
#     Edge 187, Type (0, 0), BuildingBlock: KIFKEQ_clean_linker_1, # of connection points: 2
#     Edge 188, Type (0, 0), BuildingBlock: KIFKEQ_clean_linker_1, # of connection points: 2
#     Edge 189, Type (0, 0), BuildingBlock: KIFKEQ_clean_linker_1, # of connection points: 2
#     Edge 190, Type (0, 0), BuildingBlock: KIFKEQ_clean_linker_1, # of connection points: 2
#     Edge 191, Type (0, 0), BuildingBlock: KIFKEQ_clean_linker_1, # of connection points: 2
#     Edge 192, Type (0, 0), BuildingBlock: KIFKEQ_clean_linker_1, # of connection points: 2
#     Edge 193, Type (0, 0), BuildingBlock: KIFKEQ_clean_linker_1, # of connection points: 2
#     Edge 194, Type (0, 0), BuildingBlock: KIFKEQ_clean_linker_1, # of connection points: 2
#     Edge 195, Type (0, 0), BuildingBlock: KIFKEQ_clean_linker_1, # of connection points: 2
#     Edge 196, Type (0, 0), BuildingBlock: KIFKEQ_clean_linker_1, # of connection points: 2
#     Edge 197, Type (0, 0), BuildingBlock: KIFKEQ_clean_linker_1, # of connection points: 2
#     Edge 198, Type (0, 0), BuildingBlock: KIFKEQ_clean_linker_1, # of connection points: 2
#     Edge 199, Type (0, 0), BuildingBlock: KIFKEQ_clean_linker_1, # of connection points: 2
#     Edge 200, Type (0, 0), BuildingBlock: KIFKEQ_clean_linker_1, # of connection points: 2
#     Edge 201, Type (0, 0), BuildingBlock: KIFKEQ_clean_linker_1, # of connection points: 2
#     Edge 202, Type (0, 0), BuildingBlock: KIFKEQ_clean_linker_1, # of connection points: 2
#     Edge 203, Type (0, 0), BuildingBlock: KIFKEQ_clean_linker_1, # of connection points: 2
#     Edge 204, Type (0, 0), BuildingBlock: KIFKEQ_clean_linker_1, # of connection points: 2
#     Edge 205, Type (0, 0), BuildingBlock: KIFKEQ_clean_linker_1, # of connection points: 2
#     Edge 206, Type (0, 0), BuildingBlock: KIFKEQ_clean_linker_1, # of connection points: 2
#     Edge 207, Type (0, 0), BuildingBlock: KIFKEQ_clean_linker_1, # of connection points: 2
#     Edge 208, Type (0, 0), BuildingBlock: KIFKEQ_clean_linker_1, # of connection points: 2
#     Edge 209, Type (0, 0), BuildingBlock: KIFKEQ_clean_linker_1, # of connection points: 2
#     Edge 210, Type (0, 0), BuildingBlock: KIFKEQ_clean_linker_1, # of connection points: 2
#     Edge 211, Type (0, 0), BuildingBlock: KIFKEQ_clean_linker_1, # of connection points: 2
#     Edge 212, Type (0, 0), BuildingBlock: KIFKEQ_clean_linker_1, # of connection points: 2
#     Edge 213, Type (0, 0), BuildingBlock: KIFKEQ_clean_linker_1, # of connection points: 2
#     Edge 214, Type (0, 0), BuildingBlock: KIFKEQ_clean_linker_1, # of connection points: 2
#     Edge 215, Type (0, 0), BuildingBlock: KIFKEQ_clean_linker_1, # of connection points: 2
#     Edge 216, Type (0, 0), BuildingBlock: KIFKEQ_clean_linker_1, # of connection points: 2
#     Edge 217, Type (0, 0), BuildingBlock: KIFKEQ_clean_linker_1, # of connection points: 2
#     Edge 218, Type (0, 0), BuildingBlock: KIFKEQ_clean_linker_1, # of connection points: 2
#     Edge 219, Type (0, 0), BuildingBlock: KIFKEQ_clean_linker_1, # of connection points: 2
#     Edge 220, Type (0, 0), BuildingBlock: KIFKEQ_clean_linker_1, # of connection points: 2
#     Edge 221, Type (0, 0), BuildingBlock: KIFKEQ_clean_linker_1, # of connection points: 2
#     Edge 222, Type (0, 0), BuildingBlock: KIFKEQ_clean_linker_1, # of connection points: 2
#     Edge 223, Type (0, 0), BuildingBlock: KIFKEQ_clean_linker_1, # of connection points: 2
#     Edge 224, Type (0, 0), BuildingBlock: KIFKEQ_clean_linker_1, # of connection points: 2
#     Edge 225, Type (0, 0), BuildingBlock: KIFKEQ_clean_linker_1, # of connection points: 2
#     Edge 226, Type (0, 0), BuildingBlock: KIFKEQ_clean_linker_1, # of connection points: 2
#     Edge 227, Type (0, 0), BuildingBlock: KIFKEQ_clean_linker_1, # of connection points: 2
#     Edge 228, Type (0, 0), BuildingBlock: KIFKEQ_clean_linker_1, # of connection points: 2
#     Edge 229, Type (0, 0), BuildingBlock: KIFKEQ_clean_linker_1, # of connection points: 2
#     Edge 230, Type (0, 0), BuildingBlock: KIFKEQ_clean_linker_1, # of connection points: 2
#     Edge 231, Type (0, 0), BuildingBlock: KIFKEQ_clean_linker_1, # of connection points: 2
#     Edge 232, Type (0, 0), BuildingBlock: KIFKEQ_clean_linker_1, # of connection points: 2
#     Edge 233, Type (0, 0), BuildingBlock: KIFKEQ_clean_linker_1, # of connection points: 2
#     Edge 234, Type (0, 0), BuildingBlock: KIFKEQ_clean_linker_1, # of connection points: 2
#     Edge 235, Type (0, 0), BuildingBlock: KIFKEQ_clean_linker_1, # of connection points: 2
#     Edge 236, Type (0, 0), BuildingBlock: KIFKEQ_clean_linker_1, # of connection points: 2
#     Edge 237, Type (0, 0), BuildingBlock: KIFKEQ_clean_linker_1, # of connection points: 2
#     Edge 238, Type (0, 0), BuildingBlock: KIFKEQ_clean_linker_1, # of connection points: 2
#     Edge 239, Type (0, 0), BuildingBlock: KIFKEQ_clean_linker_1, # of connection points: 2
#     Edge 240, Type (0, 0), BuildingBlock: KIFKEQ_clean_linker_1, # of connection points: 2
#     Edge 241, Type (0, 0), BuildingBlock: KIFKEQ_clean_linker_1, # of connection points: 2
#     Edge 242, Type (0, 0), BuildingBlock: KIFKEQ_clean_linker_1, # of connection points: 2
#     Edge 243, Type (0, 0), BuildingBlock: KIFKEQ_clean_linker_1, # of connection points: 2
#     Edge 244, Type (0, 0), BuildingBlock: KIFKEQ_clean_linker_1, # of connection points: 2
#     Edge 245, Type (0, 0), BuildingBlock: KIFKEQ_clean_linker_1, # of connection points: 2
#     Edge 246, Type (0, 0), BuildingBlock: KIFKEQ_clean_linker_1, # of connection points: 2
#     Edge 247, Type (0, 0), BuildingBlock: KIFKEQ_clean_linker_1, # of connection points: 2
#     Edge 248, Type (0, 0), BuildingBlock: KIFKEQ_clean_linker_1, # of connection points: 2
#     Edge 249, Type (0, 0), BuildingBlock: KIFKEQ_clean_linker_1, # of connection points: 2
#     Edge 250, Type (0, 0), BuildingBlock: KIFKEQ_clean_linker_1, # of connection points: 2
#     Edge 251, Type (0, 0), BuildingBlock: KIFKEQ_clean_linker_1, # of connection points: 2
#     Edge 252, Type (0, 0), BuildingBlock: KIFKEQ_clean_linker_1, # of connection points: 2
#     Edge 253, Type (0, 0), BuildingBlock: KIFKEQ_clean_linker_1, # of connection points: 2
#     Edge 254, Type (0, 0), BuildingBlock: KIFKEQ_clean_linker_1, # of connection points: 2
#     Edge 255, Type (0, 0), BuildingBlock: KIFKEQ_clean_linker_1, # of connection points: 2
#     Edge 256, Type (0, 0), BuildingBlock: KIFKEQ_clean_linker_1, # of connection points: 2
#     Edge 257, Type (0, 0), BuildingBlock: KIFKEQ_clean_linker_1, # of connection points: 2
#     Edge 258, Type (0, 0), BuildingBlock: KIFKEQ_clean_linker_1, # of connection points: 2
#     Edge 259, Type (0, 0), BuildingBlock: KIFKEQ_clean_linker_1, # of connection points: 2
#     Edge 260, Type (0, 0), BuildingBlock: KIFKEQ_clean_linker_1, # of connection points: 2
#     Edge 261, Type (0, 0), BuildingBlock: KIFKEQ_clean_linker_1, # of connection points: 2
#     Edge 262, Type (0, 0), BuildingBlock: KIFKEQ_clean_linker_1, # of connection points: 2
#     Edge 263, Type (0, 0), BuildingBlock: KIFKEQ_clean_linker_1, # of connection points: 2
#     Edge 264, Type (0, 0), BuildingBlock: KIFKEQ_clean_linker_1, # of connection points: 2
#     Edge 265, Type (0, 0), BuildingBlock: KIFKEQ_clean_linker_1, # of connection points: 2
#     Edge 266, Type (0, 0), BuildingBlock: KIFKEQ_clean_linker_1, # of connection points: 2
#     Edge 267, Type (0, 0), BuildingBlock: KIFKEQ_clean_linker_1, # of connection points: 2
#     Edge 268, Type (0, 0), BuildingBlock: KIFKEQ_clean_linker_1, # of connection points: 2
#     Edge 269, Type (0, 0), BuildingBlock: KIFKEQ_clean_linker_1, # of connection points: 2
#     Edge 270, Type (0, 0), BuildingBlock: KIFKEQ_clean_linker_1, # of connection points: 2
#     Edge 271, Type (0, 0), BuildingBlock: KIFKEQ_clean_linker_1, # of connection points: 2
#     Edge 272, Type (0, 0), BuildingBlock: KIFKEQ_clean_linker_1, # of connection points: 2
#     Edge 273, Type (0, 0), BuildingBlock: KIFKEQ_clean_linker_1, # of connection points: 2
#     Edge 274, Type (0, 0), BuildingBlock: KIFKEQ_clean_linker_1, # of connection points: 2
#     Edge 275, Type (0, 0), BuildingBlock: KIFKEQ_clean_linker_1, # of connection points: 2
#     Edge 276, Type (0, 0), BuildingBlock: KIFKEQ_clean_linker_1, # of connection points: 2
#     Edge 277, Type (0, 0), BuildingBlock: KIFKEQ_clean_linker_1, # of connection points: 2
#     Edge 278, Type (0, 0), BuildingBlock: KIFKEQ_clean_linker_1, # of connection points: 2
#     Edge 279, Type (0, 0), BuildingBlock: KIFKEQ_clean_linker_1, # of connection points: 2
#     Edge 280, Type (0, 0), BuildingBlock: KIFKEQ_clean_linker_1, # of connection points: 2
#     Edge 281, Type (0, 0), BuildingBlock: KIFKEQ_clean_linker_1, # of connection points: 2
#     Edge 282, Type (0, 0), BuildingBlock: KIFKEQ_clean_linker_1, # of connection points: 2
#     Edge 283, Type (0, 0), BuildingBlock: KIFKEQ_clean_linker_1, # of connection points: 2
#     Edge 284, Type (0, 0), BuildingBlock: KIFKEQ_clean_linker_1, # of connection points: 2
#     Edge 285, Type (0, 0), BuildingBlock: KIFKEQ_clean_linker_1, # of connection points: 2
#     Edge 286, Type (0, 0), BuildingBlock: KIFKEQ_clean_linker_1, # of connection points: 2
#     Edge 287, Type (0, 0), BuildingBlock: KIFKEQ_clean_linker_1, # of connection points: 2
# Relax obj value: 0.129
# Max RMSD: 0.217
# Mean RMSD: 0.209
data_MOF--net-gie--node1-CEKHIL_clean_sbu_0--edge1-KIFKEQ_clean_linker_1
_symmetry_space_group_name_H-M    P1
_symmetry_Int_Tables_number       1
_symmetry_cell_setting            triclinic
loop_
_symmetry_equiv_pos_as_xyz
'x, y, z'
_cell_length_a     86.79717
_cell_length_b     86.177813
_cell_length_c     86.11627
_cell_angle_alpha  89.98992
_cell_angle_beta   89.991334
_cell_angle_gamma 90.005429
loop_
_atom_site_label
_atom_site_type_symbol
_atom_site_fract_x
_atom_site_fract_y
_atom_site_fract_z
_atom_type_partial_charge
Co0 Co 0.00163 0.13638 0.40046 0.0
O1 O 0.98869 0.11992 0.40747 0.0
O2 O 0.99521 0.12395 0.38289 0.0
C3 C 0.02002 0.13357 0.41832 0.0
O4 O 0.01532 0.152 0.38938 0.0
Co5 Co 0.00624 0.1647 0.42218 0.0
O6 O 0.02354 0.16877 0.40763 0.0
C7 C 0.97761 0.16203 0.40444 0.0
C8 C 0.9878 0.11562 0.39308 0.0
C9 C 0.02419 0.16304 0.39398 0.0
O10 O 0.98328 0.1501 0.39761 0.0
O11 O 0.98441 0.16906 0.4156 0.0
O12 O 0.0198 0.12477 0.40608 0.0
O13 O 0.00809 0.14236 0.42033 0.0
Co14 Co 0.11598 0.75043 0.65534 0.0
O15 O 0.13302 0.73772 0.66142 0.0
O16 O 0.12607 0.74217 0.63706 0.0
C17 C 0.12106 0.77053 0.67098 0.0
O18 O 0.09938 0.76349 0.64489 0.0
Co19 Co 0.09061 0.75786 0.67952 0.0
O20 O 0.08503 0.7739 0.66398 0.0
C21 C 0.09058 0.72739 0.66438 0.0
C22 C 0.13546 0.73544 0.64674 0.0
C23 C 0.0891 0.7731 0.64977 0.0
O24 O 0.10198 0.7319 0.65601 0.0
O25 O 0.08465 0.73573 0.67513 0.0
O26 O 0.12824 0.769 0.65784 0.0
O27 O 0.11252 0.75892 0.67512 0.0
Co28 Co 0.49719 0.8622 0.90307 0.0
O29 O 0.50934 0.87982 0.90863 0.0
O30 O 0.50372 0.87282 0.88443 0.0
C31 C 0.47774 0.86616 0.91952 0.0
O32 O 0.48445 0.84502 0.89321 0.0
Co33 Co 0.49235 0.83618 0.92736 0.0
O34 O 0.4758 0.83002 0.91273 0.0
C35 C 0.52184 0.838 0.91092 0.0
C36 C 0.51047 0.88247 0.89385 0.0
C37 C 0.47557 0.83431 0.89855 0.0
O38 O 0.51623 0.84903 0.90266 0.0
O39 O 0.51449 0.83164 0.92213 0.0
O40 O 0.47841 0.87363 0.90645 0.0
O41 O 0.48987 0.8582 0.92322 0.0
Co42 Co 0.38071 0.24612 0.14875 0.0
O43 O 0.36607 0.26137 0.15551 0.0
O44 O 0.37092 0.25549 0.13089 0.0
C45 C 0.37336 0.2271 0.16494 0.0
O46 O 0.39463 0.23072 0.1375 0.0
Co47 Co 0.4057 0.23382 0.17143 0.0
O48 O 0.40691 0.21685 0.15587 0.0
C49 C 0.4099 0.26435 0.15645 0.0
C50 C 0.36306 0.26354 0.14091 0.0
C51 C 0.40275 0.219 0.14184 0.0
O52 O 0.39746 0.26225 0.14863 0.0
O53 O 0.41481 0.25475 0.16669 0.0
O54 O 0.36588 0.22962 0.15214 0.0
O55 O 0.38386 0.23718 0.16839 0.0
Co56 Co -0.00099 0.86084 0.09367 0.0
O57 O 0.98422 0.87569 0.08655 0.0
O58 O 0.98919 0.87057 0.11129 0.0
C59 C 0.01825 0.8682 0.07802 0.0
O60 O 0.01402 0.84681 0.10526 0.0
Co61 Co 0.01158 0.83557 0.07138 0.0
O62 O 0.02836 0.83491 0.08705 0.0
C63 C 0.981 0.83145 0.08567 0.0
C64 C 0.98161 0.87868 0.10108 0.0
C65 C 0.02597 0.83906 0.10104 0.0
O66 O 0.98295 0.84408 0.09335 0.0
O67 O 0.99077 0.82628 0.07579 0.0
O68 O 0.01548 0.87572 0.09078 0.0
O69 O 0.00831 0.85763 0.07428 0.0
Co70 Co 0.37707 0.75262 0.34306 0.0
O71 O 0.36211 0.73758 0.33648 0.0
O72 O 0.36557 0.74528 0.36083 0.0
C73 C 0.37211 0.7706 0.32487 0.0
O74 O 0.3911 0.76806 0.35402 0.0
Co75 Co 0.40448 0.76066 0.32132 0.0
O76 O 0.40692 0.77831 0.33598 0.0
C77 C 0.40498 0.73139 0.33883 0.0
C78 C 0.35809 0.73669 0.35097 0.0
C79 C 0.40118 0.77808 0.3496 0.0
O80 O 0.39271 0.73574 0.34595 0.0
O81 O 0.411 0.73909 0.32763 0.0
O82 O 0.3635 0.76945 0.33714 0.0
O83 O 0.38224 0.75971 0.32307 0.0
Co84 Co 0.50008 0.1308 0.59418 0.0
O85 O 0.50912 0.11094 0.59041 0.0
O86 O 0.5062 0.12161 0.61372 0.0
C87 C 0.47959 0.12783 0.57884 0.0
O88 O 0.49033 0.15065 0.60228 0.0
Co89 Co 0.49805 0.15428 0.5671 0.0
O90 O 0.48329 0.16457 0.58136 0.0
C91 C 0.52733 0.15091 0.58355 0.0
C92 C 0.5107 0.10988 0.60534 0.0
C93 C 0.48297 0.16196 0.59594 0.0
O94 O 0.52069 0.14116 0.59261 0.0
O95 O 0.52057 0.157 0.57183 0.0
O96 O 0.47975 0.12193 0.59271 0.0
O97 O 0.49254 0.1335 0.57392 0.0
Co98 Co 0.11425 0.24584 0.8442 0.0
O99 O 0.13096 0.25926 0.83868 0.0
O100 O 0.12406 0.25359 0.86286 0.0
C101 C 0.11986 0.22626 0.82806 0.0
O102 O 0.09787 0.232 0.85405 0.0
Co103 Co 0.0893 0.23871 0.81947 0.0
O104 O 0.08388 0.22208 0.83442 0.0
C105 C 0.08856 0.26871 0.83548 0.0
C106 C 0.13325 0.26095 0.85345 0.0
C107 C 0.08781 0.22239 0.84868 0.0
O108 O 0.09981 0.26408 0.844 0.0
O109 O 0.083 0.26064 0.82434 0.0
O110 O 0.12697 0.22767 0.84125 0.0
O111 O 0.11116 0.23783 0.82412 0.0
Co112 Co 0.40109 0.00456 0.12982 0.0
O113 O 0.41196 0.02262 0.12302 0.0
O114 O 0.41725 0.00941 0.14455 0.0
C115 C 0.40075 0.99251 0.10678 0.0
O116 O 0.39248 0.98518 0.14022 0.0
Co117 Co 0.36882 0.99705 0.11617 0.0
O118 O 0.37232 0.97663 0.12624 0.0
C119 C 0.37199 0.02173 0.13963 0.0
C120 C 0.4203 0.02103 0.1354 0.0
C121 C 0.38219 0.97489 0.13708 0.0
O122 O 0.38621 0.01803 0.14149 0.0
O123 O 0.36328 0.01545 0.1294 0.0
O124 O 0.41281 0.99145 0.11567 0.0
O125 O 0.39008 0.00185 0.1114 0.0
Co126 Co 0.24453 0.14685 0.38161 0.0
O127 O 0.25866 0.1533 0.36584 0.0
O128 O 0.25184 0.12886 0.37049 0.0
C129 C 0.22604 0.16416 0.37661 0.0
O130 O 0.22993 0.13608 0.39655 0.0
Co131 Co 0.2368 0.16927 0.40863 0.0
O132 O 0.21914 0.15477 0.41123 0.0
C133 C 0.26648 0.15293 0.40861 0.0
C134 C 0.25974 0.13872 0.36228 0.0
C135 C 0.21963 0.14089 0.40612 0.0
O136 O 0.2619 0.14513 0.39679 0.0
O137 O 0.25867 0.16405 0.41458 0.0
O138 O 0.22718 0.15158 0.3684 0.0
O139 O 0.2372 0.16681 0.38624 0.0
Co140 Co 0.09846 0.99029 0.63028 0.0
O141 O 0.09001 0.97303 0.61932 0.0
O142 O 0.08078 0.98224 0.64153 0.0
C143 C 0.10103 0.00546 0.60925 0.0
O144 O 0.104 0.00855 0.64429 0.0
Co145 Co 0.13166 0.00147 0.62259 0.0
O146 O 0.12414 0.02056 0.63305 0.0
C147 C 0.12722 0.97372 0.64212 0.0
C148 C 0.07972 0.97231 0.63019 0.0
C149 C 0.11313 0.02024 0.64285 0.0
O150 O 0.1126 0.97617 0.6422 0.0
O151 O 0.13672 0.98189 0.63418 0.0
O152 O 0.08781 0.00451 0.61629 0.0
O153 O 0.11165 0.99628 0.61429 0.0
Co154 Co 0.24716 0.84412 0.88727 0.0
O155 O 0.23542 0.83946 0.86908 0.0
O156 O 0.24003 0.86325 0.87794 0.0
C157 C 0.26718 0.82857 0.88242 0.0
O158 O 0.25928 0.85308 0.90544 0.0
Co159 Co 0.2521 0.81806 0.91146 0.0
O160 O 0.26752 0.83287 0.91973 0.0
C161 C 0.22219 0.83358 0.91016 0.0
C162 C 0.23361 0.85432 0.86761 0.0
C163 C 0.26761 0.84729 0.91638 0.0
O164 O 0.22786 0.84288 0.90002 0.0
O165 O 0.2297 0.82215 0.91588 0.0
O166 O 0.26626 0.84216 0.87597 0.0
O167 O 0.25504 0.82397 0.88988 0.0
Co168 Co 0.39648 0.99527 0.36533 0.0
O169 O 0.4064 0.97802 0.37505 0.0
O170 O 0.41381 0.98862 0.35274 0.0
C171 C 0.39444 0.00931 0.38714 0.0
O172 O 0.38944 0.01373 0.35232 0.0
Co173 Co 0.36351 0.00511 0.37486 0.0
O174 O 0.36977 0.02494 0.36499 0.0
C175 C 0.36775 0.97858 0.35364 0.0
C176 C 0.41599 0.97827 0.36353 0.0
C177 C 0.3802 0.02519 0.35458 0.0
O178 O 0.38239 0.98088 0.35368 0.0
O179 O 0.35825 0.98659 0.36171 0.0
O180 O 0.40717 0.0095 0.37921 0.0
O181 O 0.38389 -0.0001 0.38234 0.0
Co182 Co 0.25187 0.15437 0.61489 0.0
O183 O 0.23677 0.16088 0.62965 0.0
O184 O 0.24446 0.13656 0.62629 0.0
C185 C 0.26936 0.17262 0.62011 0.0
O186 O 0.26759 0.14367 0.60102 0.0
Co187 Co 0.25942 0.1764 0.58735 0.0
O188 O 0.27683 0.16169 0.58453 0.0
C189 C 0.2311 0.15802 0.58647 0.0
C190 C 0.23582 0.14642 0.63373 0.0
C191 C 0.27715 0.14816 0.59052 0.0
O192 O 0.2355 0.15118 0.59892 0.0
O193 O 0.23833 0.16947 0.58041 0.0
O194 O 0.26822 0.1604 0.62885 0.0
O195 O 0.25867 0.17435 0.60976 0.0
Co196 Co 0.10197 0.00786 0.86798 0.0
O197 O 0.09503 0.02668 0.87732 0.0
O198 O 0.0849 0.01625 0.8561 0.0
C199 C 0.10352 0.99422 0.89003 0.0
O200 O 0.10609 0.98836 0.85535 0.0
Co201 Co 0.13425 0.99488 0.87622 0.0
O202 O 0.1263 0.9759 0.86587 0.0
C203 C 0.13167 0.02171 0.8552 0.0
C204 C 0.08497 0.02748 0.86623 0.0
C205 C 0.11496 0.97644 0.85648 0.0
O206 O 0.11697 0.01997 0.8551 0.0
O207 O 0.14068 0.01352 0.86367 0.0
O208 O 0.09039 0.99552 0.8829 0.0
O209 O 0.1148 0.00222 0.88442 0.0
Co210 Co 0.24723 0.84199 0.11354 0.0
O211 O 0.25742 0.83543 0.13205 0.0
O212 O 0.25147 0.85985 0.12658 0.0
C213 C 0.22881 0.8239 0.11368 0.0
O214 O 0.23598 0.8526 0.09574 0.0
Co215 Co 0.24721 0.81973 0.08525 0.0
O216 O 0.23053 0.83392 0.07832 0.0
C217 C 0.27505 0.83765 0.09214 0.0
C218 C 0.25751 0.84988 0.1362 0.0
C219 C 0.2288 0.84763 0.08364 0.0
O220 O 0.26757 0.84483 0.10281 0.0
O221 O 0.26943 0.82626 0.08447 0.0
O222 O 0.2274 0.8363 0.12213 0.0
O223 O 0.24203 0.82192 0.10703 0.0
Co224 Co 0.12807 0.39926 0.00159 0.0
O225 O 0.11381 0.40531 0.98571 0.0
O226 O 0.11667 0.3813 0.99461 0.0
C227 C 0.12263 0.41827 0.01847 0.0
O228 O 0.14141 0.38893 0.01809 0.0
Co229 Co 0.15538 0.42117 0.0096 0.0
O230 O 0.15702 0.40733 0.02801 0.0
C231 C 0.15645 0.40271 0.98097 0.0
C232 C 0.10964 0.39086 0.98531 0.0
C233 C 0.15114 0.39377 0.02827 0.0
O234 O 0.14428 0.39552 0.98546 0.0
O235 O 0.16215 0.41433 0.98825 0.0
O236 O 0.11392 0.40605 0.01759 0.0
O237 O 0.13318 0.41946 0.00792 0.0
Co238 Co 0.62785 0.09194 0.99338 0.0
O239 O 0.61373 0.08456 0.00887 0.0
O240 O 0.61698 0.10926 0.00248 0.0
C241 C 0.62172 0.07467 0.9749 0.0
O242 O 0.64088 0.10385 0.97771 0.0
Co243 Co 0.65466 0.0711 0.98185 0.0
O244 O 0.65521 0.08645 0.96464 0.0
C245 C 0.65754 0.08719 0.0119 0.0
C246 C 0.60984 0.09897 0.01087 0.0
C247 C 0.64976 0.10007 0.96637 0.0
O248 O 0.64454 0.09386 0.00937 0.0
O249 O 0.66332 0.07702 0.00273 0.0
O250 O 0.61324 0.08689 0.97712 0.0
O251 O 0.63259 0.07242 0.98494 0.0
Co252 Co 0.15087 0.3817 0.24111 0.0
O253 O 0.16098 0.3746 0.22272 0.0
O254 O 0.1671 0.39609 0.23561 0.0
C255 C 0.15058 0.35883 0.25335 0.0
O256 O 0.14309 0.39242 0.26069 0.0
Co257 Co 0.11869 0.36875 0.25008 0.0
O258 O 0.12367 0.37821 0.27047 0.0
C259 C 0.12125 0.39213 0.22529 0.0
C260 C 0.16955 0.38685 0.22393 0.0
C261 C 0.13352 0.38912 0.27163 0.0
O262 O 0.13576 0.39338 0.22797 0.0
O263 O 0.11241 0.38259 0.23239 0.0
O264 O 0.1628 0.36752 0.25394 0.0
O265 O 0.13964 0.36353 0.24436 0.0
Co266 Co 0.86737 0.90545 0.49444 0.0
O267 O 0.88284 0.91163 0.50901 0.0
O268 O 0.87853 0.88738 0.50164 0.0
C269 C 0.87249 0.92357 0.47651 0.0
O270 O 0.85273 0.89494 0.47925 0.0
Co271 Co 0.84041 0.92802 0.48734 0.0
O272 O 0.83634 0.91308 0.47028 0.0
C273 C 0.83993 0.91008 0.51629 0.0
C274 C 0.88657 0.89708 0.50991 0.0
C275 C 0.84196 0.89941 0.47 0.0
O276 O 0.85201 0.90284 0.51165 0.0
O277 O 0.83403 0.92151 0.50888 0.0
O278 O 0.88074 0.91104 0.47734 0.0
O279 O 0.86261 0.9256 0.48759 0.0
Co280 Co 0.85007 0.1182 0.2371 0.0
O281 O 0.84262 0.12581 0.21755 0.0
O282 O 0.83283 0.10575 0.23041 0.0
C283 C 0.85204 0.14119 0.24911 0.0
O284 O 0.85442 0.10722 0.2575 0.0
Co285 Co 0.88265 0.12699 0.24898 0.0
O286 O 0.87514 0.11798 0.26882 0.0
C287 C 0.87944 0.1036 0.22424 0.0
C288 C 0.83248 0.11475 0.2183 0.0
C289 C 0.8636 0.10883 0.26911 0.0
O290 O 0.86474 0.10414 0.22592 0.0
O291 O 0.88871 0.11249 0.23166 0.0
O292 O 0.8388 0.13419 0.24824 0.0
O293 O 0.86317 0.13493 0.24134 0.0
Co294 Co 0.36511 0.59485 0.50098 0.0
O295 O 0.37913 0.58963 0.48463 0.0
O296 O 0.3759 0.6133 0.4943 0.0
C297 C 0.37144 0.57551 0.51714 0.0
O298 O 0.35187 0.60433 0.51805 0.0
Co299 Co 0.33852 0.57193 0.50849 0.0
O300 O 0.33551 0.58592 0.52656 0.0
C301 C 0.33652 0.59133 0.48062 0.0
C302 C 0.3829 0.60419 0.48455 0.0
C303 C 0.3415 0.5994 0.52754 0.0
O304 O 0.34849 0.5987 0.4853 0.0
O305 O 0.3313 0.57921 0.48745 0.0
O306 O 0.37978 0.58798 0.51644 0.0
O307 O 0.36067 0.5743 0.50681 0.0
Co308 Co 0.14207 0.61675 0.25503 0.0
O309 O 0.14768 0.62568 0.27447 0.0
O310 O 0.15929 0.60536 0.26382 0.0
C311 C 0.14027 0.63913 0.2419 0.0
O312 O 0.13922 0.60481 0.23479 0.0
Co313 Co 0.10975 0.62431 0.24159 0.0
O314 O 0.11927 0.61594 0.22235 0.0
C315 C 0.11245 0.60216 0.2674 0.0
C316 C 0.15824 0.6151 0.27535 0.0
C317 C 0.13082 0.6068 0.22261 0.0
O318 O 0.12716 0.60276 0.26598 0.0
O319 O 0.10327 0.61066 0.25944 0.0
O320 O 0.1536 0.63255 0.24387 0.0
O321 O 0.12889 0.63288 0.24929 0.0
Co322 Co 0.35105 0.37784 0.75319 0.0
O323 O 0.34353 0.3662 0.77045 0.0
O324 O 0.3332 0.38818 0.76197 0.0
C325 C 0.35389 0.35711 0.7378 0.0
O326 O 0.35538 0.39258 0.73521 0.0
Co327 Co 0.38375 0.37224 0.74013 0.0
O328 O 0.37531 0.38302 0.72164 0.0
C329 C 0.3798 0.39141 0.76824 0.0
C330 C 0.33285 0.37662 0.7717 0.0
C331 C 0.36399 0.39232 0.72304 0.0
O332 O 0.36509 0.38996 0.76717 0.0
O333 O 0.38931 0.38485 0.75896 0.0
O334 O 0.34055 0.36384 0.73896 0.0
O335 O 0.36473 0.36245 0.74658 0.0
Co336 Co 0.99492 0.86456 0.59575 0.0
O337 O 0.00939 0.88045 0.59041 0.0
O338 O 0.00254 0.87436 0.61447 0.0
C339 C 0.97659 0.87104 0.57861 0.0
O340 O 0.9799 0.84929 0.60557 0.0
Co341 Co 0.98679 0.83913 0.57173 0.0
O342 O 0.96942 0.83532 0.58622 0.0
C343 C 0.01613 0.83706 0.58851 0.0
C344 C 0.01068 0.88301 0.6052 0.0
C345 C 0.96975 0.83972 0.60035 0.0
O346 O 0.01207 0.84893 0.59655 0.0
O347 O 0.00801 0.83159 0.57737 0.0
O348 O 0.97783 0.87839 0.59171 0.0
O349 O 0.98755 0.86134 0.57547 0.0
Co350 Co 0.87503 0.24721 0.34166 0.0
O351 O 0.85777 0.26053 0.33792 0.0
O352 O 0.86615 0.25328 0.36121 0.0
C353 C 0.86872 0.22932 0.32385 0.0
O354 O 0.89164 0.23312 0.35019 0.0
Co355 Co 0.89963 0.24046 0.31658 0.0
O356 O 0.90437 0.22242 0.33019 0.0
C357 C 0.90138 0.26958 0.3346 0.0
C358 C 0.85611 0.26078 0.35291 0.0
C359 C 0.90091 0.223 0.34455 0.0
O360 O 0.88947 0.26538 0.34242 0.0
O361 O 0.90689 0.26161 0.32333 0.0
O362 O 0.86227 0.2292 0.33746 0.0
O363 O 0.87771 0.24095 0.32096 0.0
Co364 Co 0.50182 0.12706 0.09903 0.0
O365 O 0.48967 0.10889 0.09527 0.0
O366 O 0.49519 0.11826 0.11859 0.0
C367 C 0.52093 0.12118 0.08246 0.0
O368 O 0.51464 0.14498 0.10735 0.0
Co369 Co 0.50743 0.15096 0.0728 0.0
O370 O 0.52461 0.15736 0.08667 0.0
C371 C 0.47785 0.15138 0.0895 0.0
C372 C 0.48861 0.10756 0.11024 0.0
C373 C 0.52418 0.15459 0.1012 0.0
O374 O 0.48295 0.14055 0.09841 0.0
O375 O 0.48547 0.15663 0.0779 0.0
O376 O 0.52056 0.11513 0.09627 0.0
O377 O 0.50895 0.12923 0.07853 0.0
Co378 Co 0.61801 0.74932 0.84638 0.0
O379 O 0.63224 0.73283 0.84239 0.0
O380 O 0.62743 0.74298 0.86564 0.0
C381 C 0.62583 0.76503 0.82721 0.0
O382 O 0.60452 0.76656 0.85486 0.0
Co383 Co 0.59306 0.75764 0.82203 0.0
O384 O 0.58967 0.77594 0.83565 0.0
C385 C 0.58933 0.72956 0.84102 0.0
C386 C 0.63507 0.73313 0.85719 0.0
C387 C 0.59483 0.77649 0.8495 0.0
O388 O 0.60098 0.7338 0.84918 0.0
O389 O 0.58495 0.73679 0.8288 0.0
O390 O 0.63328 0.76455 0.84026 0.0
O391 O 0.61496 0.75487 0.82553 0.0
Co392 Co 0.99295 0.12884 0.89906 0.0
O393 O 0.00727 0.11284 0.9043 0.0
O394 O 0.00066 0.11923 0.88028 0.0
C395 C 0.9748 0.12211 0.91627 0.0
O396 O 0.97801 0.14431 0.88938 0.0
Co397 Co 0.9849 0.15405 0.92345 0.0
O398 O 0.96805 0.15879 0.90864 0.0
C399 C 0.01437 0.15604 0.90683 0.0
C400 C 0.00865 0.11038 0.8895 0.0
C401 C 0.96827 0.15435 0.89453 0.0
O402 O 0.01017 0.14444 0.89845 0.0
O403 O 0.00632 0.16127 0.91813 0.0
O404 O 0.97588 0.11489 0.90309 0.0
O405 O 0.98566 0.13194 0.91933 0.0
Co406 Co 0.61744 0.24455 0.65042 0.0
O407 O 0.6321 0.25993 0.65661 0.0
O408 O 0.62701 0.25327 0.63223 0.0
C409 C 0.62484 0.22644 0.6675 0.0
O410 O 0.60372 0.22892 0.63952 0.0
Co411 Co 0.59213 0.2328 0.67268 0.0
O412 O 0.59134 0.21515 0.6578 0.0
C413 C 0.58844 0.26324 0.65754 0.0
C414 C 0.63495 0.26165 0.64191 0.0
C415 C 0.5958 0.21711 0.64385 0.0
O416 O 0.60082 0.26069 0.64976 0.0
O417 O 0.58324 0.25387 0.66783 0.0
O418 O 0.63224 0.22821 0.65451 0.0
O419 O 0.61409 0.23647 0.67034 0.0
Co420 Co 0.50096 0.87034 0.39505 0.0
O421 O 0.48719 0.88669 0.40078 0.0
O422 O 0.49352 0.88075 0.37656 0.0
C423 C 0.51965 0.87586 0.4122 0.0
O424 O 0.51523 0.85458 0.38496 0.0
Co425 Co 0.50816 0.84432 0.41876 0.0
O426 O 0.52577 0.84072 0.40441 0.0
C427 C 0.47865 0.84369 0.40207 0.0
C428 C 0.48581 0.88957 0.38606 0.0
C429 C 0.52535 0.84505 0.39027 0.0
O430 O 0.48327 0.85536 0.39404 0.0
O431 O 0.48642 0.83801 0.41337 0.0
O432 O 0.51863 0.88344 0.39921 0.0
O433 O 0.50831 0.86656 0.41522 0.0
Co434 Co 0.87788 0.74932 0.15227 0.0
O435 O 0.86008 0.73769 0.15805 0.0
O436 O 0.86653 0.74352 0.13381 0.0
C437 C 0.87489 0.76828 0.16981 0.0
O438 O 0.89516 0.76161 0.14219 0.0
Co439 Co 0.90445 0.75224 0.17602 0.0
O440 O 0.91355 0.76611 0.16008 0.0
C441 C 0.901 0.72325 0.1587 0.0
C442 C 0.85695 0.73685 0.14335 0.0
C443 C 0.90802 0.76767 0.14645 0.0
O444 O 0.89029 0.72974 0.15072 0.0
O445 O 0.90739 0.72978 0.17039 0.0
O446 O 0.86735 0.76858 0.15679 0.0
O447 O 0.88263 0.75573 0.17256 0.0
Co448 Co 0.58748 0.99536 0.86323 0.0
O449 O 0.58412 0.0119 0.87766 0.0
O450 O 0.60688 0.00124 0.87263 0.0
C451 C 0.56812 0.98015 0.87123 0.0
O452 O 0.59498 0.9777 0.8493 0.0
Co453 Co 0.56221 0.98872 0.83848 0.0
O454 O 0.57461 0.9697 0.8352 0.0
C455 C 0.58193 0.0162 0.83523 0.0
C456 C 0.5988 0.01136 0.88035 0.0
C457 C 0.58842 0.96805 0.83997 0.0
O458 O 0.59047 0.011 0.84625 0.0
O459 O 0.56935 0.00965 0.83107 0.0
O460 O 0.58115 0.98025 0.87862 0.0
O461 O 0.5666 0.9905 0.86046 0.0
Co462 Co 0.74975 0.84922 0.61778 0.0
O463 O 0.7375 0.844 0.63553 0.0
O464 O 0.74395 0.86795 0.62875 0.0
C465 C 0.76821 0.83136 0.62159 0.0
O466 O 0.76279 0.85892 0.60074 0.0
Co467 Co 0.75434 0.82546 0.59119 0.0
O468 O 0.77202 0.83931 0.58623 0.0
C469 C 0.72522 0.84288 0.59305 0.0
C470 C 0.73697 0.85876 0.63847 0.0
C471 C 0.77213 0.85345 0.59055 0.0
O472 O 0.73077 0.85076 0.60444 0.0
O473 O 0.73236 0.8315 0.58675 0.0
O474 O 0.76854 0.84443 0.6291 0.0
O475 O 0.75599 0.82882 0.61338 0.0
Co476 Co 0.90397 0.00466 0.36474 0.0
O477 O 0.90873 0.99018 0.38088 0.0
O478 O 0.88506 0.99718 0.374 0.0
C479 C 0.92081 0.02316 0.37151 0.0
O480 O 0.89492 0.01962 0.34895 0.0
Co481 Co 0.92944 0.01213 0.34033 0.0
O482 O 0.91377 0.02691 0.33242 0.0
C483 C 0.91358 0.9822 0.33922 0.0
C484 C 0.89398 0.98898 0.38294 0.0
C485 C 0.89995 0.02762 0.33741 0.0
O486 O 0.90376 0.98726 0.34918 0.0
O487 O 0.9257 0.9897 0.33533 0.0
O488 O 0.90761 0.02207 0.37856 0.0
O489 O 0.92413 0.01193 0.36215 0.0
Co490 Co 0.7447 0.14621 0.1162 0.0
O491 O 0.7557 0.14932 0.13523 0.0
O492 O 0.75069 0.12634 0.12468 0.0
C493 C 0.72544 0.16282 0.12108 0.0
O494 O 0.73298 0.13855 0.09728 0.0
Co495 Co 0.74166 0.17308 0.09268 0.0
O496 O 0.72565 0.15941 0.08347 0.0
C497 C 0.77072 0.15588 0.09407 0.0
C498 C 0.75685 0.13432 0.1359 0.0
C499 C 0.72509 0.1449 0.08635 0.0
O500 O 0.76444 0.14685 0.1041 0.0
O501 O 0.76392 0.16786 0.08858 0.0
O502 O 0.72526 0.14889 0.12687 0.0
O503 O 0.73803 0.16685 0.11408 0.0
Co504 Co 0.5906 -0.00161 0.63216 0.0
O505 O 0.58661 0.98392 0.61582 0.0
O506 O 0.60986 0.99241 0.62247 0.0
C507 C 0.57248 0.01577 0.62597 0.0
O508 O 0.59874 0.01382 0.64812 0.0
Co509 Co 0.56521 0.00395 0.65703 0.0
O510 O 0.57803 0.02254 0.66124 0.0
C511 C 0.58341 0.97523 0.65802 0.0
C512 C 0.60137 0.98375 0.61352 0.0
C513 C 0.59219 0.02355 0.65737 0.0
O514 O 0.59221 0.98068 0.64731 0.0
O515 O 0.5713 0.98225 0.6628 0.0
O516 O 0.58562 0.01579 0.61876 0.0
O517 O 0.57001 0.00411 0.63508 0.0
Co518 Co 0.74694 0.84085 0.38222 0.0
O519 O 0.76097 0.83545 0.36596 0.0
O520 O 0.7538 0.85946 0.37169 0.0
C521 C 0.72908 0.8229 0.37677 0.0
O522 O 0.73225 0.85072 0.39783 0.0
Co523 Co 0.74061 0.81743 0.40871 0.0
O524 O 0.72349 0.83186 0.41357 0.0
C525 C 0.7695 0.83509 0.40898 0.0
C526 C 0.76193 0.85019 0.36302 0.0
C527 C 0.72312 0.84576 0.40852 0.0
O528 O 0.76459 0.84268 0.39714 0.0
O529 O 0.76204 0.82382 0.41508 0.0
O530 O 0.7296 0.83582 0.36903 0.0
O531 O 0.74033 0.82047 0.38636 0.0
Co532 Co 0.90274 0.99246 0.13247 0.0
O533 O 0.90749 0.00739 0.11673 0.0
O534 O 0.88382 0.00097 0.12418 0.0
C535 C 0.91859 0.97366 0.12426 0.0
O536 O 0.8937 0.97706 0.148 0.0
Co537 Co 0.92839 0.98291 0.15571 0.0
O538 O 0.91398 0.96541 0.15939 0.0
C539 C 0.91333 0.01318 0.15927 0.0
C540 C 0.89273 0.00916 0.11521 0.0
C541 C 0.89964 0.96615 0.15629 0.0
O542 O 0.90374 0.0093 0.14858 0.0
O543 O 0.92472 0.00466 0.16333 0.0
O544 O 0.90519 0.97557 0.11783 0.0
O545 O 0.92271 0.98434 0.13398 0.0
Co546 Co 0.75065 0.14875 0.87966 0.0
O547 O 0.7387 0.15359 0.86164 0.0
O548 O 0.74425 0.12975 0.86948 0.0
C549 C 0.76986 0.16561 0.87516 0.0
O550 O 0.76326 0.13956 0.89734 0.0
Co551 Co 0.75478 0.17384 0.90493 0.0
O552 O 0.77116 0.15949 0.9122 0.0
C553 C 0.72566 0.15673 0.90359 0.0
C554 C 0.73759 0.13876 0.85936 0.0
C555 C 0.77162 0.14522 0.90831 0.0
O556 O 0.73151 0.14837 0.89274 0.0
O557 O 0.73267 0.16839 0.90951 0.0
O558 O 0.76955 0.1522 0.86829 0.0
O559 O 0.75764 0.16918 0.88304 0.0
Co560 Co 0.86831 0.59647 0.99593 0.0
O561 O 0.88214 0.59214 0.01263 0.0
O562 O 0.87838 0.61542 0.00211 0.0
C563 C 0.87542 0.57682 0.98055 0.0
O564 O 0.85526 0.60518 0.97848 0.0
Co565 Co 0.84246 0.57284 0.988 0.0
O566 O 0.83941 0.58651 0.96967 0.0
C567 C 0.83916 0.59283 0.01538 0.0
C568 C 0.8855 0.60681 0.01222 0.0
C569 C 0.84516 0.6001 0.96883 0.0
O570 O 0.85126 0.60027 0.01112 0.0
O571 O 0.83434 0.58057 0.00852 0.0
O572 O 0.88347 0.5895 0.98094 0.0
O573 O 0.86445 0.57574 0.99068 0.0
Co574 Co 0.37042 0.90126 0.00233 0.0
O575 O 0.38391 0.90583 0.98534 0.0
O576 O 0.3796 0.8823 0.99493 0.0
C577 C 0.3788 0.92012 0.01807 0.0
O578 O 0.35783 0.89208 0.01992 0.0
Co579 Co 0.34567 0.92474 0.01316 0.0
O580 O 0.34496 0.91127 0.0319 0.0
C581 C 0.34014 0.90619 0.98495 0.0
C582 C 0.38684 0.89105 0.98502 0.0
C583 C 0.34969 0.8973 0.03124 0.0
O584 O 0.35269 0.89873 0.98762 0.0
O585 O 0.33562 0.91765 0.99327 0.0
O586 O 0.38634 0.90716 0.01698 0.0
O587 O 0.36736 0.92186 0.00858 0.0
Co588 Co 0.84163 0.6149 0.74843 0.0
O589 O 0.83502 0.63112 0.73482 0.0
O590 O 0.85942 0.6251 0.73948 0.0
C591 C 0.826 0.6207 0.76825 0.0
O592 O 0.85253 0.59918 0.76231 0.0
Co593 Co 0.81795 0.58919 0.757 0.0
O594 O 0.83489 0.58173 0.77048 0.0
C595 C 0.832 0.58909 0.72611 0.0
C596 C 0.84949 0.63384 0.73227 0.0
C597 C 0.84852 0.58723 0.77035 0.0
O598 O 0.8412 0.59985 0.73063 0.0
O599 O 0.82091 0.58399 0.73447 0.0
O600 O 0.8388 0.62826 0.7663 0.0
O601 O 0.82221 0.61127 0.75721 0.0
Co602 Co 0.12526 0.09684 0.50253 0.0
O603 O 0.10749 0.09259 0.49024 0.0
O604 O 0.1161 0.11618 0.49599 0.0
C605 C 0.11969 0.07997 0.52149 0.0
O606 O 0.14276 0.10556 0.51538 0.0
Co607 Co 0.1496 0.0712 0.50824 0.0
O608 O 0.15597 0.08541 0.52527 0.0
C609 C 0.14954 0.08793 0.47843 0.0
C610 C 0.10581 0.10752 0.48923 0.0
C611 C 0.15272 0.09982 0.52477 0.0
O612 O 0.13868 0.09665 0.48358 0.0
O613 O 0.15495 0.07638 0.48606 0.0
O614 O 0.11342 0.09366 0.52134 0.0
O615 O 0.1279 0.07641 0.50946 0.0
Co616 Co 0.15643 0.88153 0.75214 0.0
O617 O 0.16201 0.86512 0.73829 0.0
O618 O 0.13802 0.87153 0.74442 0.0
C619 C 0.1731 0.8757 0.77111 0.0
O620 O 0.14645 0.89739 0.7665 0.0
Co621 Co 0.18065 0.90712 0.75943 0.0
O622 O 0.16449 0.91479 0.77374 0.0
C623 C 0.16502 0.90724 0.72927 0.0
C624 C 0.14736 0.86256 0.73673 0.0
C625 C 0.15086 0.90932 0.77429 0.0
O626 O 0.156 0.8965 0.73424 0.0
O627 O 0.17653 0.91226 0.73708 0.0
O628 O 0.16015 0.86824 0.76991 0.0
O629 O 0.17635 0.88505 0.75982 0.0
Co630 Co 0.62871 0.4026 0.49723 0.0
O631 O 0.61533 0.40832 0.51396 0.0
O632 O 0.61842 0.38437 0.50498 0.0
C633 C 0.62165 0.42158 0.48097 0.0
O634 O 0.64095 0.39232 0.47996 0.0
Co635 Co 0.65488 0.42444 0.48615 0.0
O636 O 0.65469 0.41068 0.46764 0.0
C637 C 0.65906 0.4062 0.51479 0.0
C638 C 0.6116 0.39373 0.51462 0.0
C639 C 0.64926 0.39698 0.46853 0.0
O640 O 0.64613 0.3994 0.5122 0.0
O641 O 0.66431 0.41716 0.50625 0.0
O642 O 0.61331 0.40913 0.48224 0.0
O643 O 0.63304 0.42281 0.49057 0.0
Co644 Co 0.84171 0.38162 0.74489 0.0
O645 O 0.8389 0.36528 0.75964 0.0
O646 O 0.86163 0.3735 0.75105 0.0
C647 C 0.82413 0.37384 0.72756 0.0
O648 O 0.84861 0.39793 0.72925 0.0
Co649 Co 0.81438 0.40429 0.73924 0.0
O650 O 0.82703 0.40976 0.72081 0.0
C651 C 0.83247 0.40692 0.76786 0.0
C652 C 0.85378 0.36411 0.75986 0.0
C653 C 0.84141 0.40688 0.71971 0.0
O654 O 0.84223 0.39718 0.76229 0.0
O655 O 0.81978 0.41034 0.7611 0.0
O656 O 0.83776 0.36762 0.72766 0.0
O657 O 0.82098 0.38286 0.73912 0.0
Co658 Co 0.65521 0.61384 0.24696 0.0
O659 O 0.65978 0.63231 0.25842 0.0
O660 O 0.6364 0.62224 0.2556 0.0
C661 C 0.66918 0.61962 0.22592 0.0
O662 O 0.64613 0.59565 0.235 0.0
Co663 Co 0.68158 0.59071 0.23935 0.0
O664 O 0.66571 0.581 0.22598 0.0
C665 C 0.66856 0.59103 0.27073 0.0
C666 C 0.6451 0.63328 0.26104 0.0
C667 C 0.65145 0.58444 0.22672 0.0
O668 O 0.6583 0.60076 0.26609 0.0
O669 O 0.67965 0.58637 0.26213 0.0
O670 O 0.65551 0.62547 0.22774 0.0
O671 O 0.67467 0.61206 0.23767 0.0
Co672 Co 0.4954 0.63173 0.90313 0.0
O673 O 0.48181 0.61604 0.91084 0.0
O674 O 0.48673 0.6203 0.88592 0.0
C675 C 0.51482 0.62682 0.91945 0.0
O676 O 0.50935 0.64649 0.89108 0.0
Co677 Co 0.50463 0.65917 0.92443 0.0
O678 O 0.52136 0.66133 0.90886 0.0
C679 C 0.47415 0.65932 0.90958 0.0
C680 C 0.47965 0.61214 0.89646 0.0
C681 C 0.51998 0.65608 0.89511 0.0
O682 O 0.47791 0.64689 0.90229 0.0
O683 O 0.4829 0.66585 0.91962 0.0
O684 O 0.51292 0.61847 0.90706 0.0
O685 O 0.50402 0.63674 0.92249 0.0
Co686 Co 0.61963 0.25207 0.15279 0.0
O687 O 0.63378 0.23632 0.15944 0.0
O688 O 0.631 0.24433 0.13513 0.0
C689 C 0.62494 0.26956 0.17133 0.0
O690 O 0.60663 0.2683 0.14175 0.0
Co691 Co 0.59213 0.26129 0.17398 0.0
O692 O 0.59121 0.27936 0.15963 0.0
C693 C 0.59051 0.23237 0.156 0.0
C694 C 0.63797 0.23531 0.145 0.0
C695 C 0.59717 0.27893 0.14611 0.0
O696 O 0.60322 0.23605 0.1493 0.0
O697 O 0.58462 0.24023 0.16714 0.0
O698 O 0.63385 0.26818 0.15929 0.0
O699 O 0.61431 0.25912 0.1727 0.0
Co700 Co 0.99423 0.36101 0.40431 0.0
O701 O 0.00631 0.37818 0.41125 0.0
O702 O -0.00014 0.37382 0.38673 0.0
C703 C 0.97584 0.36278 0.42229 0.0
O704 O 0.98122 0.34482 0.39321 0.0
Co705 Co 0.99093 0.33236 0.4257 0.0
O706 O 0.97361 0.32767 0.41134 0.0
C707 C 0.01962 0.33669 0.40834 0.0
C708 C 0.00685 0.38256 0.39686 0.0
C709 C 0.97264 0.33352 0.39776 0.0
O710 O 0.01336 0.34826 0.40138 0.0
O711 O 0.01306 0.32931 0.41942 0.0
O712 O 0.97542 0.37155 0.41004 0.0
O713 O 0.98823 0.35466 0.42426 0.0
Co714 Co 0.87708 0.74606 0.649 0.0
O715 O 0.85978 0.75845 0.65517 0.0
O716 O 0.86725 0.7548 0.63081 0.0
C717 C 0.87177 0.72569 0.66432 0.0
O718 O 0.89381 0.73332 0.63831 0.0
Co719 Co 0.90235 0.73733 0.6729 0.0
O720 O 0.90679 0.72098 0.65727 0.0
C721 C 0.9028 0.76838 0.65865 0.0
C722 C 0.85753 0.761 0.64051 0.0
C723 C 0.90318 0.72276 0.64304 0.0
O724 O 0.89113 0.76454 0.6503 0.0
O725 O 0.90869 0.75944 0.66895 0.0
O726 O 0.86478 0.72735 0.65108 0.0
O727 O 0.88043 0.73714 0.66857 0.0
Co728 Co 0.49986 0.36478 0.59589 0.0
O729 O 0.48742 0.38224 0.59044 0.0
O730 O 0.49216 0.37442 0.6146 0.0
C731 C 0.51978 0.36991 0.58032 0.0
O732 O 0.51259 0.3475 0.60566 0.0
Co733 Co 0.50638 0.33984 0.57085 0.0
O734 O 0.52241 0.33346 0.58599 0.0
C735 C 0.47608 0.3406 0.58575 0.0
C736 C 0.4854 0.38413 0.60524 0.0
C737 C 0.52189 0.33716 0.60032 0.0
O738 O 0.48117 0.3512 0.59487 0.0
O739 O 0.48404 0.33484 0.57465 0.0
O740 O 0.5185 0.37682 0.59365 0.0
O741 O 0.50803 0.36173 0.57596 0.0
Co742 Co 0.87843 0.25013 0.8401 0.0
O743 O 0.86159 0.23709 0.83401 0.0
O744 O 0.86774 0.24264 0.85836 0.0
C745 C 0.87386 0.26957 0.82339 0.0
O746 O 0.89466 0.26355 0.85067 0.0
Co747 Co 0.90466 0.25657 0.81638 0.0
O748 O 0.9124 0.27056 0.83287 0.0
C749 C 0.90412 0.22676 0.83284 0.0
C750 C 0.85868 0.23546 0.8487 0.0
C751 C 0.90687 0.27098 0.84658 0.0
O752 O 0.89255 0.23164 0.84078 0.0
O753 O 0.91016 0.23455 0.82175 0.0
O754 O 0.86616 0.26852 0.83628 0.0
O755 O 0.88267 0.2579 0.82014 0.0
Co756 Co 0.99544 0.63015 0.0955 0.0
O757 O 0.01194 0.6167 0.08942 0.0
O758 O 0.00219 0.61838 0.11324 0.0
C759 C 0.97957 0.62463 0.07583 0.0
O760 O 0.97827 0.64235 0.10587 0.0
Co761 Co 0.98643 0.65806 0.0745 0.0
O762 O 0.96782 0.65826 0.088 0.0
C763 C 0.01439 0.65977 0.09366 0.0
C764 C 0.01189 0.61193 0.10372 0.0
C765 C 0.96772 0.65177 0.1013 0.0
O766 O 0.0105 0.64702 0.1003 0.0
O767 O 0.00712 0.66558 0.0821 0.0
O768 O 0.98048 0.61545 0.08775 0.0
O769 O 0.98951 0.63581 0.07534 0.0
Co770 Co 0.61646 0.74383 0.34358 0.0
O771 O 0.63325 0.75721 0.33829 0.0
O772 O 0.62712 0.75014 0.36231 0.0
C773 C 0.62094 0.72536 0.32589 0.0
O774 O 0.60014 0.72987 0.35316 0.0
Co775 Co 0.59046 0.73878 0.31938 0.0
O776 O 0.58473 0.72171 0.33379 0.0
C777 C 0.59128 0.76785 0.33705 0.0
C778 C 0.63608 0.75797 0.35306 0.0
C779 C 0.58936 0.7211 0.34784 0.0
O780 O 0.60239 0.76227 0.34519 0.0
O781 O 0.58557 0.76082 0.32528 0.0
O782 O 0.62856 0.72551 0.33886 0.0
O783 O 0.61242 0.73737 0.32318 0.0
Co784 Co 0.89654 0.506 0.62667 0.0
O785 O 0.90651 0.52324 0.61702 0.0
O786 O 0.91385 0.51258 0.63932 0.0
C787 C 0.8944 0.49176 0.60497 0.0
O788 O 0.88929 0.48754 0.63955 0.0
Co789 Co 0.8633 0.49685 0.6167 0.0
O790 O 0.86893 0.47714 0.6272 0.0
C791 C 0.86794 0.52343 0.63772 0.0
C792 C 0.91609 0.52294 0.62855 0.0
C793 C 0.87948 0.47652 0.63749 0.0
O794 O 0.88243 0.52034 0.63837 0.0
O795 O 0.8585 0.51605 0.629 0.0
O796 O 0.90725 0.4918 0.61272 0.0
O797 O 0.88399 0.50132 0.60976 0.0
Co798 Co 0.74887 0.6549 0.88181 0.0
O799 O 0.76309 0.6598 0.86556 0.0
O800 O 0.75537 0.63598 0.87176 0.0
C801 C 0.73107 0.67269 0.87607 0.0
O802 O 0.73404 0.64559 0.8976 0.0
Co803 Co 0.74286 0.67913 0.90774 0.0
O804 O 0.72567 0.66491 0.91301 0.0
C805 C 0.77183 0.66169 0.90781 0.0
C806 C 0.76371 0.64497 0.86301 0.0
C807 C 0.72502 0.65093 0.90819 0.0
O808 O 0.76648 0.65336 0.89671 0.0
O809 O 0.76461 0.67333 0.9135 0.0
O810 O 0.73162 0.65968 0.8685 0.0
O811 O 0.7424 0.67534 0.88551 0.0
Co812 Co 0.59923 0.49151 0.12677 0.0
O813 O 0.58941 0.47441 0.11653 0.0
O814 O 0.58194 0.48454 0.13906 0.0
C815 C 0.60146 0.50625 0.10539 0.0
O816 O 0.60586 0.50937 0.14061 0.0
Co817 Co 0.63208 0.50259 0.11831 0.0
O818 O 0.62647 0.52134 0.13045 0.0
C819 C 0.62801 0.47517 0.13856 0.0
C820 C 0.57986 0.47438 0.12812 0.0
C821 C 0.61554 0.52064 0.1403 0.0
O822 O 0.61332 0.47696 0.13817 0.0
O823 O 0.63746 0.48376 0.13101 0.0
O824 O 0.58862 0.50608 0.11317 0.0
O825 O 0.61208 0.49688 0.11011 0.0
Co826 Co 0.74818 0.34292 0.3815 0.0
O827 O 0.73652 0.33634 0.36392 0.0
O828 O 0.74274 0.36078 0.36893 0.0
C829 C 0.76664 0.32503 0.3797 0.0
O830 O 0.76082 0.35356 0.39831 0.0
Co831 Co 0.75074 0.32058 0.40959 0.0
O832 O 0.76798 0.33477 0.41497 0.0
C833 C 0.72221 0.33812 0.40506 0.0
C834 C 0.73601 0.35079 0.35982 0.0
C835 C 0.76915 0.34853 0.40962 0.0
O836 O 0.72876 0.34549 0.3939 0.0
O837 O 0.72855 0.32676 0.41219 0.0
O838 O 0.76724 0.33748 0.37123 0.0
O839 O 0.75405 0.32287 0.38745 0.0
Co840 Co 0.89488 0.49101 0.86838 0.0
O841 O 0.90221 0.47352 0.87983 0.0
O842 O 0.91257 0.48209 0.85788 0.0
C843 C 0.89225 0.50623 0.8893 0.0
O844 O 0.89079 0.50924 0.85384 0.0
Co845 Co 0.86233 0.50438 0.8742 0.0
O846 O 0.87087 0.52282 0.86342 0.0
C847 C 0.86591 0.47627 0.85497 0.0
C848 C 0.9128 0.47221 0.86931 0.0
C849 C 0.88224 0.52145 0.85417 0.0
O850 O 0.88063 0.47732 0.85615 0.0
O851 O 0.85653 0.48552 0.86176 0.0
O852 O 0.90558 0.50494 0.88254 0.0
O853 O 0.88131 0.49765 0.88388 0.0
Co854 Co 0.74536 0.65594 0.11213 0.0
O855 O 0.73221 0.66174 0.12897 0.0
O856 O 0.73768 0.6375 0.12219 0.0
C857 C 0.76463 0.67227 0.11751 0.0
O858 O 0.75891 0.64565 0.09586 0.0
Co859 Co 0.75294 0.67956 0.0862 0.0
O860 O 0.77027 0.66495 0.08251 0.0
C861 C 0.72291 0.66388 0.08594 0.0
C862 C 0.7305 0.64699 0.13146 0.0
C863 C 0.76931 0.65076 0.08655 0.0
O864 O 0.72729 0.6559 0.09771 0.0
O865 O 0.73118 0.67453 0.07976 0.0
O866 O 0.76338 0.65916 0.12484 0.0
O867 O 0.75325 0.67592 0.10848 0.0
Co868 Co 0.60399 0.50824 0.36925 0.0
O869 O 0.59693 0.5269 0.37877 0.0
O870 O 0.58685 0.51666 0.35744 0.0
C871 C 0.60545 0.49443 0.39121 0.0
O872 O 0.60838 0.48876 0.35656 0.0
Co873 Co 0.63641 0.49582 0.37779 0.0
O874 O 0.62825 0.4766 0.36807 0.0
C875 C 0.63363 0.52273 0.35696 0.0
C876 C 0.58684 0.52775 0.36772 0.0
C877 C 0.61713 0.47684 0.3584 0.0
O878 O 0.61898 0.52062 0.35657 0.0
O879 O 0.64267 0.5147 0.36554 0.0
O880 O 0.59238 0.49569 0.38397 0.0
O881 O 0.6167 0.50261 0.38579 0.0
Co882 Co 0.74821 0.34082 0.61363 0.0
O883 O 0.75913 0.3359 0.63226 0.0
O884 O 0.75587 0.35972 0.62298 0.0
C885 C 0.72768 0.32591 0.61828 0.0
O886 O 0.73672 0.35013 0.59524 0.0
Co887 Co 0.74241 0.315 0.58935 0.0
O888 O 0.72698 0.33012 0.58166 0.0
C889 C 0.77255 0.33034 0.59004 0.0
C890 C 0.76122 0.35071 0.63384 0.0
C891 C 0.7277 0.34457 0.58474 0.0
O892 O 0.76758 0.33904 0.60106 0.0
O893 O 0.76454 0.3194 0.58405 0.0
O894 O 0.72888 0.33952 0.62462 0.0
O895 O 0.73975 0.32095 0.61093 0.0
Co896 Co 0.62831 0.90426 0.4994 0.0
O897 O 0.61396 0.91132 0.48402 0.0
O898 O 0.61702 0.88678 0.49105 0.0
C899 C 0.62268 0.92215 0.51745 0.0
O900 O 0.64158 0.89282 0.51527 0.0
Co901 Co 0.65555 0.9253 0.50932 0.0
O902 O 0.65614 0.91081 0.52724 0.0
C903 C 0.65748 0.90823 0.47979 0.0
C904 C 0.60982 0.89693 0.48252 0.0
C905 C 0.65059 0.89716 0.52633 0.0
O906 O 0.64459 0.90166 0.48304 0.0
O907 O 0.6636 0.91868 0.48838 0.0
O908 O 0.61409 0.90993 0.51577 0.0
O909 O 0.63335 0.92403 0.5071 0.0
Co910 Co 0.12966 0.58947 0.49466 0.0
O911 O 0.11418 0.58307 0.50919 0.0
O912 O 0.11921 0.6075 0.50297 0.0
C913 C 0.12368 0.57249 0.4759 0.0
O914 O 0.14439 0.60031 0.4797 0.0
Co915 Co 0.15581 0.56662 0.48579 0.0
O916 O 0.15951 0.58197 0.46906 0.0
C917 C 0.15751 0.58305 0.5156 0.0
C918 C 0.11098 0.59768 0.5109 0.0
C919 C 0.15449 0.59586 0.46968 0.0
O920 O 0.14529 0.59057 0.5118 0.0
O921 O 0.16328 0.57227 0.50719 0.0
O922 O 0.11587 0.58523 0.47753 0.0
O923 O 0.13367 0.56955 0.48668 0.0
Co924 Co 0.64931 0.87738 0.74301 0.0
O925 O 0.66101 0.8694 0.72596 0.0
O926 O 0.66617 0.8914 0.7384 0.0
C927 C 0.64756 0.85483 0.7559 0.0
O928 O 0.6401 0.88883 0.76151 0.0
Co929 Co 0.61627 0.86521 0.74936 0.0
O930 O 0.61944 0.87546 0.76977 0.0
C931 C 0.62147 0.88754 0.72396 0.0
C932 C 0.66967 0.88155 0.72751 0.0
C933 C 0.62948 0.8861 0.77159 0.0
O934 O 0.63558 0.88897 0.72825 0.0
O935 O 0.61209 0.87793 0.73023 0.0
O936 O 0.65981 0.86339 0.7573 0.0
O937 O 0.63753 0.85944 0.74584 0.0
Co938 Co 0.36701 0.4022 0.99537 0.0
O939 O 0.38266 0.40871 0.00969 0.0
O940 O 0.37808 0.38431 0.00292 0.0
C941 C 0.37195 0.41971 0.97673 0.0
O942 O 0.35231 0.39113 0.98068 0.0
Co943 Co 0.33997 0.42424 0.98682 0.0
O944 O 0.33732 0.40927 0.96948 0.0
C945 C 0.33931 0.40749 0.01665 0.0
C946 C 0.38626 0.39413 0.01088 0.0
C947 C 0.34253 0.39548 0.97035 0.0
O948 O 0.35174 0.40037 0.01277 0.0
O949 O 0.33316 0.41814 0.00832 0.0
O950 O 0.38026 0.40724 0.97794 0.0
O951 O 0.36216 0.42206 0.98782 0.0
Co952 Co 0.34889 0.61852 0.7403 0.0
O953 O 0.34174 0.62755 0.72143 0.0
O954 O 0.33187 0.60634 0.73214 0.0
C955 C 0.35024 0.64075 0.75364 0.0
O956 O 0.35344 0.60628 0.76002 0.0
Co957 Co 0.38129 0.62763 0.75245 0.0
O958 O 0.37337 0.61806 0.77187 0.0
C959 C 0.37857 0.60627 0.72596 0.0
C960 C 0.33183 0.61633 0.72077 0.0
C961 C 0.36231 0.60832 0.77184 0.0
O962 O 0.36395 0.60573 0.72817 0.0
O963 O 0.38756 0.61514 0.73374 0.0
O964 O 0.3372 0.63341 0.75258 0.0
O965 O 0.36148 0.63524 0.74553 0.0
Co966 Co 0.86626 0.09126 0.00257 0.0
O967 O 0.88036 0.08424 0.98686 0.0
O968 O 0.87727 0.10876 0.9942 0.0
C969 C 0.87214 0.0735 0.02065 0.0
O970 O 0.85334 0.10291 0.01846 0.0
Co971 Co 0.83915 0.07055 0.01354 0.0
O972 O 0.83852 0.08558 0.03104 0.0
C973 C 0.83691 0.08676 0.98351 0.0
C974 C 0.88432 0.09871 0.98548 0.0
C975 C 0.84431 0.09909 0.02964 0.0
O976 O 0.8497 0.09364 0.98649 0.0
O977 O 0.83102 0.07643 0.99242 0.0
O978 O 0.88075 0.08567 0.01874 0.0
O979 O 0.86128 0.07158 0.01052 0.0
Co980 Co 0.65104 0.11604 0.75349 0.0
O981 O 0.66116 0.12465 0.77124 0.0
O982 O 0.66835 0.10303 0.75917 0.0
C983 C 0.64877 0.13844 0.74037 0.0
O984 O 0.64363 0.10412 0.73447 0.0
Co985 Co 0.61774 0.1265 0.74502 0.0
O986 O 0.62289 0.1165 0.72491 0.0
C987 C 0.62256 0.10417 0.77052 0.0
C988 C 0.67063 0.11307 0.77021 0.0
C989 C 0.63351 0.10635 0.72377 0.0
O990 O 0.63702 0.10359 0.76727 0.0
O991 O 0.61313 0.11335 0.76371 0.0
O992 O 0.66165 0.13075 0.73994 0.0
O993 O 0.63846 0.13317 0.74978 0.0
Co994 Co 0.85413 0.87655 0.2596 0.0
O995 O 0.84872 0.86694 0.27884 0.0
O996 O 0.83629 0.88685 0.26839 0.0
C997 C 0.85728 0.85445 0.24625 0.0
O998 O 0.85634 0.88914 0.23964 0.0
Co999 Co 0.88653 0.87116 0.2453 0.0
O1000 O 0.8761 0.87882 0.22629 0.0
C1001 C 0.88297 0.89272 0.27159 0.0
C1002 C 0.83758 0.87693 0.27972 0.0
C1003 C 0.8643 0.88758 0.22711 0.0
O1004 O 0.86829 0.89098 0.27098 0.0
O1005 O 0.89242 0.88543 0.26281 0.0
O1006 O 0.8436 0.8603 0.24807 0.0
O1007 O 0.86827 0.86133 0.25365 0.0
Co1008 Co 0.49724 0.36629 0.09347 0.0
O1009 O 0.50961 0.38388 0.08822 0.0
O1010 O 0.50262 0.37755 0.11216 0.0
C1011 C 0.47926 0.36977 0.07521 0.0
O1012 O 0.48402 0.3493 0.10306 0.0
Co1013 Co 0.49459 0.33947 0.0697 0.0
O1014 O 0.47994 0.33076 0.08507 0.0
C1015 C 0.52284 0.34244 0.08794 0.0
C1016 C 0.50991 0.38702 0.10295 0.0
C1017 C 0.47787 0.33648 0.09856 0.0
O1018 O 0.51623 0.35318 0.09584 0.0
O1019 O 0.51671 0.33623 0.07594 0.0
O1020 O 0.47873 0.37759 0.08808 0.0
O1021 O 0.49153 0.36155 0.07293 0.0
Co1022 Co 0.37578 0.74718 0.84449 0.0
O1023 O 0.36092 0.76287 0.83965 0.0
O1024 O 0.36631 0.75448 0.8634 0.0
C1025 C 0.36843 0.73023 0.82625 0.0
O1026 O 0.38996 0.73092 0.8539 0.0
Co1027 Co 0.40085 0.73804 0.82043 0.0
O1028 O 0.40446 0.72052 0.83494 0.0
C1029 C 0.40435 0.76694 0.83827 0.0
C1030 C 0.35823 0.76352 0.85446 0.0
C1031 C 0.39967 0.72079 0.84893 0.0
O1032 O 0.39232 0.76336 0.84622 0.0
O1033 O 0.4092 0.75886 0.82679 0.0
O1034 O 0.36098 0.73108 0.83931 0.0
O1035 O 0.37896 0.74061 0.82403 0.0
Co1036 Co 0.00296 0.62963 0.59775 0.0
O1037 O 0.98872 0.61372 0.59191 0.0
O1038 O 0.99512 0.61941 0.61617 0.0
C1039 C 0.02161 0.62356 0.58072 0.0
O1040 O 0.01767 0.64485 0.608 0.0
Co1041 Co 0.01098 0.65546 0.57413 0.0
O1042 O 0.02786 0.65968 0.58912 0.0
C1043 C 0.98149 0.657 0.59069 0.0
C1044 C 0.9872 0.61084 0.60662 0.0
C1045 C 0.02749 0.65493 0.60315 0.0
O1046 O 0.98574 0.64518 0.59872 0.0
O1047 O 0.98944 0.66241 0.57939 0.0
O1048 O 0.02024 0.61599 0.59368 0.0
O1049 O 0.01058 0.63321 0.57761 0.0
Co1050 Co 0.12104 0.25222 0.34292 0.0
O1051 O 0.13591 0.237 0.33695 0.0
O1052 O 0.13044 0.24354 0.36127 0.0
C1053 C 0.12849 0.27034 0.32592 0.0
O1054 O 0.1068 0.26771 0.35345 0.0
Co1055 Co 0.09598 0.26322 0.3198 0.0
O1056 O 0.09379 0.28053 0.33488 0.0
C1057 C 0.09258 0.23291 0.33522 0.0
C1058 C 0.13852 0.23518 0.35168 0.0
C1059 C 0.0981 0.2789 0.34893 0.0
O1060 O 0.10461 0.2359 0.34337 0.0
O1061 O 0.08752 0.24196 0.32457 0.0
O1062 O 0.13581 0.26866 0.33897 0.0
O1063 O 0.1179 0.26019 0.32297 0.0
Co1064 Co 0.49402 0.62909 0.40036 0.0
O1065 O 0.50818 0.61314 0.40634 0.0
O1066 O 0.50184 0.61879 0.38205 0.0
C1067 C 0.47553 0.62329 0.41759 0.0
O1068 O 0.47947 0.64435 0.38982 0.0
Co1069 Co 0.4855 0.65541 0.4234 0.0
O1070 O 0.46826 0.6586 0.40858 0.0
C1071 C 0.51528 0.65659 0.40712 0.0
C1072 C 0.50976 0.61027 0.39162 0.0
C1073 C 0.46915 0.65394 0.39457 0.0
O1074 O 0.51132 0.64449 0.39938 0.0
O1075 O 0.50695 0.66247 0.41791 0.0
O1076 O 0.47673 0.6155 0.40473 0.0
O1077 O 0.48646 0.63312 0.42036 0.0
Co1078 Co 0.12109 0.74606 0.14973 0.0
O1079 O 0.13924 0.75834 0.15245 0.0
O1080 O 0.12941 0.75141 0.12964 0.0
C1081 C 0.12716 0.72801 0.16744 0.0
O1082 O 0.10317 0.73286 0.14245 0.0
Co1083 Co 0.09766 0.74173 0.17654 0.0
O1084 O 0.09086 0.7239 0.16359 0.0
C1085 C 0.09688 0.77048 0.15799 0.0
C1086 C 0.14023 0.75838 0.13741 0.0
C1087 C 0.0935 0.7237 0.14904 0.0
O1088 O 0.10772 0.76507 0.14938 0.0
O1089 O 0.09177 0.76338 0.17001 0.0
O1090 O 0.13295 0.72736 0.15355 0.0
O1091 O 0.11916 0.74027 0.17062 0.0
Co1092 Co -0.00178 0.36407 0.90192 0.0
O1093 O 0.98276 0.3789 0.9076 0.0
O1094 O 0.99029 0.37404 0.88346 0.0
C1095 C 0.01589 0.37105 0.91964 0.0
O1096 O 0.01416 0.35002 0.89171 0.0
Co1097 Co 0.00799 0.33838 0.92528 0.0
O1098 O 0.02516 0.3355 0.91035 0.0
C1099 C 0.97869 0.33523 0.90838 0.0
C1100 C 0.98157 0.38191 0.89288 0.0
C1101 C 0.02457 0.34048 0.89643 0.0
O1102 O 0.98201 0.34742 0.90044 0.0
O1103 O 0.98711 0.33015 0.91948 0.0
O1104 O 0.01441 0.37885 0.90683 0.0
O1105 O 0.00558 0.36049 0.92209 0.0
Co1106 Co 0.3813 0.25066 0.64851 0.0
O1107 O 0.36806 0.2334 0.6527 0.0
O1108 O 0.37204 0.2438 0.62939 0.0
C1109 C 0.37298 0.26594 0.66776 0.0
O1110 O 0.39367 0.26859 0.63975 0.0
Co1111 Co 0.4061 0.26078 0.67243 0.0
O1112 O 0.40801 0.27919 0.6587 0.0
C1113 C 0.41145 0.23308 0.6532 0.0
C1114 C 0.36503 0.23356 0.63793 0.0
C1115 C 0.40272 0.27921 0.64489 0.0
O1116 O 0.39913 0.23619 0.64552 0.0
O1117 O 0.41578 0.24087 0.66509 0.0
O1118 O 0.36528 0.26502 0.65487 0.0
O1119 O 0.38442 0.25642 0.66923 0.0
Co1120 Co 0.08679 0.49494 0.3638 0.0
O1121 O 0.08325 0.51035 0.37941 0.0
O1122 O 0.10634 0.50234 0.37168 0.0
C1123 C 0.06992 0.47732 0.37259 0.0
O1124 O 0.09471 0.47882 0.34842 0.0
Co1125 Co 0.06034 0.4862 0.34111 0.0
O1126 O 0.07393 0.46816 0.337 0.0
C1127 C 0.07689 0.51564 0.33679 0.0
C1128 C 0.09812 0.51113 0.38074 0.0
C1129 C 0.08832 0.46825 0.34004 0.0
O1130 O 0.0865 0.51154 0.34739 0.0
O1131 O 0.065 0.50761 0.33317 0.0
O1132 O 0.08352 0.47845 0.37876 0.0
O1133 O 0.06635 0.48802 0.36269 0.0
Co1134 Co 0.25139 0.34794 0.11985 0.0
O1135 O 0.23885 0.34494 0.13795 0.0
O1136 O 0.24629 0.36782 0.12877 0.0
C1137 C 0.26915 0.32988 0.1254 0.0
O1138 O 0.26494 0.35557 0.1022 0.0
Co1139 Co 0.25465 0.32184 0.09535 0.0
O1140 O 0.27148 0.33521 0.08729 0.0
C1141 C 0.22642 0.34056 0.09576 0.0
C1142 C 0.23896 0.35995 0.13932 0.0
C1143 C 0.27283 0.34943 0.09117 0.0
O1144 O 0.23258 0.34914 0.10627 0.0
O1145 O 0.23283 0.32822 0.09055 0.0
O1146 O 0.26971 0.34346 0.13191 0.0
O1147 O 0.25698 0.32701 0.11718 0.0
Co1148 Co 0.39879 0.50005 0.8652 0.0
O1149 O 0.4022 0.48415 0.88029 0.0
O1150 O 0.37915 0.49251 0.87279 0.0
C1151 C 0.4157 0.51732 0.87456 0.0
O1152 O 0.39127 0.51669 0.85019 0.0
Co1153 Co 0.4259 0.50859 0.84312 0.0
O1154 O 0.41251 0.52684 0.83907 0.0
C1155 C 0.40906 0.47949 0.83835 0.0
C1156 C 0.38735 0.48336 0.88152 0.0
C1157 C 0.39809 0.52714 0.84199 0.0
O1158 O 0.39897 0.48399 0.84829 0.0
O1159 O 0.42152 0.48696 0.83557 0.0
O1160 O 0.40208 0.51607 0.88068 0.0
O1161 O 0.41926 0.50678 0.86449 0.0
Co1162 Co 0.24404 0.64942 0.61596 0.0
O1163 O 0.25646 0.65466 0.63353 0.0
O1164 O 0.25128 0.63065 0.62592 0.0
C1165 C 0.22462 0.66584 0.62098 0.0
O1166 O 0.23111 0.63968 0.59882 0.0
Co1167 Co 0.23797 0.67399 0.59052 0.0
O1168 O 0.22172 0.65908 0.58417 0.0
C1169 C 0.26785 0.65808 0.59111 0.0
C1170 C 0.25812 0.63986 0.63572 0.0
C1171 C 0.22201 0.64486 0.58822 0.0
O1172 O 0.26281 0.64961 0.60229 0.0
O1173 O 0.26002 0.66916 0.58512 0.0
O1174 O 0.22543 0.6525 0.62795 0.0
O1175 O 0.23644 0.66958 0.61259 0.0
Co1176 Co 0.09338 0.49982 0.12951 0.0
O1177 O 0.08934 0.48341 0.11514 0.0
O1178 O 0.11256 0.49291 0.12038 0.0
C1179 C 0.07491 0.51604 0.12131 0.0
O1180 O 0.10163 0.51706 0.14341 0.0
Co1181 Co 0.06806 0.50807 0.15384 0.0
O1182 O 0.08148 0.52648 0.15697 0.0
C1183 C 0.08599 0.47948 0.15732 0.0
C1184 C 0.10406 0.48322 0.11258 0.0
C1185 C 0.09547 0.52719 0.15247 0.0
O1186 O 0.09531 0.48425 0.14674 0.0
O1187 O 0.07348 0.48651 0.16085 0.0
O1188 O 0.08795 0.51524 0.11397 0.0
O1189 O 0.07284 0.50576 0.13204 0.0
Co1190 Co 0.24556 0.34283 0.8781 0.0
O1191 O 0.26075 0.33733 0.86295 0.0
O1192 O 0.25249 0.3613 0.86743 0.0
C1193 C 0.22833 0.32432 0.87225 0.0
O1194 O 0.22989 0.35272 0.89256 0.0
Co1195 Co 0.23825 0.31978 0.90483 0.0
O1196 O 0.22039 0.33389 0.90796 0.0
C1197 C 0.26667 0.33818 0.90616 0.0
C1198 C 0.26143 0.35201 0.85965 0.0
C1199 C 0.22018 0.34768 0.90264 0.0
O1200 O 0.26211 0.34557 0.89406 0.0
O1201 O 0.25943 0.32652 0.9118 0.0
O1202 O 0.22912 0.33695 0.86405 0.0
O1203 O 0.23912 0.32247 0.88248 0.0
Co1204 Co 0.40649 0.49871 0.63121 0.0
O1205 O 0.41176 0.51266 0.6147 0.0
O1206 O 0.38789 0.50634 0.62151 0.0
C1207 C 0.42302 0.47977 0.62496 0.0
O1208 O 0.39674 0.48434 0.6472 0.0
Co1209 Co 0.43117 0.4908 0.65628 0.0
O1210 O 0.41496 0.47673 0.66426 0.0
C1211 C 0.41601 0.52123 0.65681 0.0
C1212 C 0.39706 0.51399 0.61233 0.0
C1213 C 0.40122 0.47642 0.65904 0.0
O1214 O 0.40654 0.51653 0.64632 0.0
O1215 O 0.42754 0.5132 0.66141 0.0
O1216 O 0.40995 0.48099 0.61774 0.0
O1217 O 0.42643 0.49097 0.63432 0.0
Co1218 Co 0.24723 0.65232 0.3782 0.0
O1219 O 0.23277 0.65739 0.36217 0.0
O1220 O 0.24004 0.63351 0.36839 0.0
C1221 C 0.26511 0.67002 0.37182 0.0
O1222 O 0.26217 0.64262 0.3936 0.0
Co1223 Co 0.25507 0.6761 0.40397 0.0
O1224 O 0.27274 0.66192 0.40758 0.0
C1225 C 0.22592 0.65878 0.40581 0.0
C1226 C 0.23174 0.64256 0.35967 0.0
C1227 C 0.27229 0.64782 0.40317 0.0
O1228 O 0.23001 0.65107 0.39372 0.0
O1229 O 0.23397 0.66986 0.41152 0.0
O1230 O 0.26427 0.65693 0.36438 0.0
O1231 O 0.25418 0.67269 0.3817 0.0
Co1232 Co 0.36975 0.09563 0.49779 0.0
O1233 O 0.38528 0.09015 0.51254 0.0
O1234 O 0.37935 0.11424 0.50554 0.0
C1235 C 0.37649 0.07832 0.47965 0.0
O1236 O 0.35483 0.1057 0.48265 0.0
Co1237 Co 0.34436 0.07212 0.4886 0.0
O1238 O 0.34148 0.08666 0.47094 0.0
C1239 C 0.34215 0.08836 0.51858 0.0
C1240 C 0.38782 0.10495 0.51383 0.0
C1241 C 0.34579 0.10075 0.47194 0.0
O1242 O 0.35403 0.09642 0.51483 0.0
O1243 O 0.33672 0.07747 0.51005 0.0
O1244 O 0.38383 0.0914 0.48082 0.0
O1245 O 0.3664 0.07548 0.49035 0.0
Co1246 Co 0.86626 0.39884 0.50054 0.0
O1247 O 0.88292 0.40346 0.48671 0.0
O1248 O 0.87546 0.37975 0.4935 0.0
C1249 C 0.87283 0.41618 0.51873 0.0
O1250 O 0.85045 0.38945 0.5151 0.0
Co1251 Co 0.84139 0.42315 0.50868 0.0
O1252 O 0.83653 0.40856 0.52587 0.0
C1253 C 0.83957 0.40667 0.47877 0.0
C1254 C 0.88503 0.38857 0.48595 0.0
C1255 C 0.84074 0.39441 0.52521 0.0
O1256 O 0.85125 0.39841 0.48277 0.0
O1257 O 0.83428 0.41777 0.48711 0.0
O1258 O 0.87955 0.40273 0.51821 0.0
O1259 O 0.86339 0.41925 0.50752 0.0
Co1260 Co 0.33685 0.11628 0.24633 0.0
O1261 O 0.33152 0.13121 0.23082 0.0
O1262 O 0.35532 0.12642 0.23884 0.0
C1263 C 0.31879 0.12308 0.26362 0.0
O1264 O 0.34634 0.10205 0.26273 0.0
Co1265 Co 0.31299 0.09055 0.25444 0.0
O1266 O 0.32677 0.08798 0.27262 0.0
C1267 C 0.33055 0.08837 0.22541 0.0
C1268 C 0.3461 0.13438 0.22995 0.0
C1269 C 0.34063 0.09284 0.27304 0.0
O1270 O 0.33885 0.09988 0.22989 0.0
O1271 O 0.31885 0.08346 0.23303 0.0
O1272 O 0.33153 0.13091 0.26259 0.0
O1273 O 0.31664 0.11267 0.25302 0.0
Co1274 Co 0.62724 0.59622 0.99797 0.0
O1275 O 0.61275 0.59126 0.98195 0.0
O1276 O 0.61743 0.61499 0.99094 0.0
C1277 C 0.62015 0.57766 0.01474 0.0
O1278 O 0.64094 0.60579 0.0145 0.0
Co1279 Co 0.65287 0.5729 0.00707 0.0
O1280 O 0.65608 0.5873 0.02476 0.0
C1281 C 0.65603 0.59095 0.97825 0.0
C1282 C 0.60979 0.60602 0.98157 0.0
C1283 C 0.65078 0.60109 0.02461 0.0
O1284 O 0.64387 0.5986 0.98196 0.0
O1285 O 0.66115 0.57952 0.98624 0.0
O1286 O 0.61241 0.59051 0.01383 0.0
O1287 O 0.63085 0.57573 0.00443 0.0
Co1288 Co 0.65208 0.38259 0.25023 0.0
O1289 O 0.65569 0.36724 0.23464 0.0
O1290 O 0.63258 0.3739 0.24349 0.0
C1291 C 0.66996 0.37445 0.26716 0.0
O1292 O 0.64441 0.39775 0.26669 0.0
Co1293 Co 0.67846 0.40605 0.25721 0.0
O1294 O 0.66548 0.41007 0.27578 0.0
C1295 C 0.66067 0.409 0.22842 0.0
C1296 C 0.6409 0.36532 0.2343 0.0
C1297 C 0.65122 0.40655 0.27665 0.0
O1298 O 0.65101 0.399 0.23368 0.0
O1299 O 0.67327 0.41243 0.23536 0.0
O1300 O 0.65657 0.36776 0.26656 0.0
O1301 O 0.67271 0.38439 0.25626 0.0
Co1302 Co 0.1283 0.90316 0.99659 0.0
O1303 O 0.11447 0.90925 0.0128 0.0
O1304 O 0.118 0.88507 0.00467 0.0
C1305 C 0.12141 0.92155 0.9796 0.0
O1306 O 0.14103 0.89256 0.97988 0.0
Co1307 Co 0.15449 0.9252 0.98596 0.0
O1308 O 0.15611 0.91038 0.9684 0.0
C1309 C 0.158 0.90773 0.01509 0.0
C1310 C 0.11086 0.89467 0.01385 0.0
C1311 C 0.15043 0.89676 0.96912 0.0
O1312 O 0.14537 0.90055 0.01209 0.0
O1313 O 0.16326 0.91874 0.00661 0.0
O1314 O 0.11318 0.90905 0.98105 0.0
O1315 O 0.13251 0.92324 0.98947 0.0
Co1316 Co 0.34088 0.8821 0.24543 0.0
O1317 O 0.33813 0.86697 0.26145 0.0
O1318 O 0.36075 0.87375 0.25148 0.0
C1319 C 0.32241 0.87346 0.22939 0.0
O1320 O 0.34769 0.89703 0.2284 0.0
Co1321 Co 0.31398 0.90515 0.23909 0.0
O1322 O 0.32636 0.90948 0.22018 0.0
C1323 C 0.33292 0.90888 0.26703 0.0
C1324 C 0.35295 0.86522 0.26117 0.0
C1325 C 0.34056 0.90594 0.21875 0.0
O1326 O 0.34246 0.89884 0.26161 0.0
O1327 O 0.32001 0.91202 0.26057 0.0
O1328 O 0.33587 0.8669 0.22958 0.0
O1329 O 0.31999 0.88358 0.24021 0.0
Co1330 Co 0.15597 0.11569 0.74697 0.0
O1331 O 0.1608 0.13222 0.76091 0.0
O1332 O 0.13711 0.12421 0.75556 0.0
C1333 C 0.17146 0.1232 0.7276 0.0
O1334 O 0.14692 0.09929 0.73248 0.0
Co1335 Co 0.18194 0.09247 0.73805 0.0
O1336 O 0.16727 0.08778 0.72103 0.0
C1337 C 0.16724 0.08996 0.76864 0.0
C1338 C 0.14609 0.13375 0.76302 0.0
C1339 C 0.15287 0.09063 0.72185 0.0
O1340 O 0.15748 0.10041 0.76455 0.0
O1341 O 0.17857 0.08574 0.76011 0.0
O1342 O 0.15797 0.1295 0.72929 0.0
O1343 O 0.1758 0.11406 0.73868 0.0
H1344 H 0.0507 0.17791 0.4013 0.0
H1345 H 0.02299 0.16368 0.36212 0.0
H1346 H 0.06805 0.19156 0.38397 0.0
H1347 H 0.04059 0.1775 0.34458 0.0
H1348 H 0.06224 0.22657 0.32885 0.0
H1349 H 0.04652 0.20623 0.34069 0.0
H1350 H 0.08701 0.18733 0.36283 0.0
H1351 H 0.10268 0.20767 0.35125 0.0
C1352 C 0.04841 0.17757 0.38893 0.0
C1353 C 0.03541 0.16986 0.38307 0.0
C1354 C 0.05845 0.18526 0.37898 0.0
C1355 C 0.0557 0.18554 0.36291 0.0
C1356 C 0.04294 0.17747 0.35693 0.0
C1357 C 0.03294 0.16954 0.36694 0.0
C1358 C 0.06784 0.21784 0.33592 0.0
C1359 C 0.08363 0.21894 0.33943 0.0
C1360 C 0.05885 0.20615 0.34264 0.0
C1361 C 0.06553 0.1954 0.3529 0.0
C1362 C 0.08153 0.19567 0.35521 0.0
C1363 C 0.09048 0.20734 0.34858 0.0
H1364 H 0.0242 0.80682 0.58265 0.0
H1365 H 0.03993 0.84851 0.60561 0.0
H1366 H 0.04469 0.79207 0.59534 0.0
H1367 H 0.0605 0.83386 0.61797 0.0
H1368 H 0.07252 0.79895 0.6565 0.0
H1369 H 0.05774 0.81503 0.63895 0.0
H1370 H 0.07284 0.7872 0.6001 0.0
H1371 H 0.08771 0.77075 0.6179 0.0
C1372 C 0.03227 0.81292 0.59005 0.0
C1373 C 0.03024 0.82875 0.5934 0.0
C1374 C 0.04405 0.80447 0.59727 0.0
C1375 C 0.054 0.81176 0.60788 0.0
C1376 C 0.05278 0.82786 0.61012 0.0
C1377 C 0.04099 0.83625 0.60302 0.0
C1378 C 0.07283 0.79625 0.64421 0.0
C1379 C 0.08121 0.78347 0.63862 0.0
C1380 C 0.06446 0.8056 0.63411 0.0
C1381 C 0.06419 0.80245 0.61811 0.0
C1382 C 0.07281 0.78987 0.61239 0.0
C1383 C 0.08136 0.78051 0.62256 0.0
H1384 H 0.43411 0.77427 0.83041 0.0
H1385 H 0.39577 0.78965 0.85855 0.0
H1386 H 0.4508 0.79306 0.84334 0.0
H1387 H 0.4124 0.80849 0.87124 0.0
H1388 H 0.45117 0.81633 0.90675 0.0
H1389 H 0.43332 0.80283 0.88989 0.0
H1390 H 0.4567 0.82119 0.8496 0.0
H1391 H 0.47489 0.83479 0.86662 0.0
C1392 C 0.42914 0.78191 0.83905 0.0
C1393 C 0.41369 0.78023 0.84369 0.0
C1394 C 0.4387 0.79271 0.84641 0.0
C1395 C 0.43294 0.80202 0.85848 0.0
C1396 C 0.41721 0.80122 0.86219 0.0
C1397 C 0.40769 0.79043 0.8549 0.0
C1398 C 0.45255 0.81757 0.89431 0.0
C1399 C 0.46453 0.82657 0.88803 0.0
C1400 C 0.44219 0.80996 0.88464 0.0
C1401 C 0.44353 0.81108 0.86843 0.0
C1402 C 0.45542 0.82014 0.86207 0.0
C1403 C 0.46578 0.82793 0.8718 0.0
H1404 H 0.46139 0.1735 0.07339 0.0
H1405 H 0.4612 0.14687 0.11593 0.0
H1406 H 0.43939 0.18845 0.08276 0.0
H1407 H 0.44005 0.16215 0.12556 0.0
H1408 H 0.40035 0.18772 0.1418 0.0
H1409 H 0.41471 0.16956 0.12564 0.0
H1410 H 0.43475 0.20821 0.10065 0.0
H1411 H 0.41934 0.22614 0.1161 0.0
C1412 C 0.45659 0.17073 0.08466 0.0
C1413 C 0.4632 0.15907 0.09395 0.0
C1414 C 0.44402 0.17938 0.0901 0.0
C1415 C 0.43791 0.17669 0.10501 0.0
C1416 C 0.44412 0.16449 0.11391 0.0
C1417 C 0.45646 0.15574 0.10841 0.0
C1418 C 0.40749 0.19221 0.13249 0.0
C1419 C 0.40887 0.20823 0.13017 0.0
C1420 C 0.41587 0.18186 0.12334 0.0
C1421 C 0.4263 0.18736 0.11207 0.0
C1422 C 0.42681 0.20344 0.10909 0.0
C1423 C 0.41804 0.21377 0.11798 0.0
H1424 H 0.05686 0.84267 0.10046 0.0
H1425 H 0.0199 0.82328 0.12768 0.0
H1426 H 0.07571 0.83028 0.11736 0.0
H1427 H 0.03859 0.8098 0.14398 0.0
H1428 H 0.07445 0.78733 0.17307 0.0
H1429 H 0.05849 0.80791 0.16212 0.0
H1430 H 0.08448 0.80526 0.11932 0.0
H1431 H 0.10075 0.78556 0.13046 0.0
C1432 C 0.05283 0.83583 0.11021 0.0
C1433 C 0.03703 0.83377 0.11278 0.0
C1434 C 0.06359 0.82859 0.11982 0.0
C1435 C 0.05875 0.81866 0.13185 0.0
C1436 C 0.04284 0.81742 0.13496 0.0
C1437 C 0.03208 0.82507 0.12559 0.0
C1438 C 0.07695 0.79144 0.16145 0.0
C1439 C 0.08879 0.78465 0.15261 0.0
C1440 C 0.06771 0.80316 0.15511 0.0
C1441 C 0.07 0.80821 0.13973 0.0
C1442 C 0.08242 0.80197 0.13127 0.0
C1443 C 0.09175 0.79048 0.13766 0.0
H1444 H 0.40118 0.80944 0.34825 0.0
H1445 H 0.41648 0.7708 0.37599 0.0
H1446 H 0.41655 0.82709 0.36404 0.0
H1447 H 0.43292 0.78807 0.39108 0.0
H1448 H 0.46117 0.8222 0.41796 0.0
H1449 H 0.43879 0.80797 0.40828 0.0
H1450 H 0.44224 0.83268 0.36466 0.0
H1451 H 0.4637 0.84731 0.37459 0.0
C1452 C 0.40771 0.80482 0.35793 0.0
C1453 C 0.40774 0.78887 0.36098 0.0
C1454 C 0.4167 0.81485 0.36687 0.0
C1455 C 0.42641 0.80903 0.37863 0.0
C1456 C 0.42558 0.7931 0.38226 0.0
C1457 C 0.4162 0.78314 0.37359 0.0
C1458 C 0.45693 0.82472 0.4064 0.0
C1459 C 0.46429 0.83585 0.39704 0.0
C1460 C 0.44414 0.8165 0.40079 0.0
C1461 C 0.4386 0.81906 0.38562 0.0
C1462 C 0.44578 0.83054 0.37652 0.0
C1463 C 0.4583 0.8389 0.38219 0.0
H1464 H 0.40514 0.21274 0.62983 0.0
H1465 H 0.44061 0.22515 0.66289 0.0
H1466 H 0.42275 0.1947 0.61743 0.0
H1467 H 0.45828 0.20697 0.65027 0.0
H1468 H 0.47991 0.16188 0.62776 0.0
H1469 H 0.4624 0.17786 0.64337 0.0
H1470 H 0.44659 0.20077 0.60174 0.0
H1471 H 0.46383 0.18502 0.58621 0.0
C1472 C 0.41664 0.21153 0.63457 0.0
C1473 C 0.42154 0.22061 0.6472 0.0
C1474 C 0.42672 0.20121 0.62742 0.0
C1475 C 0.44192 0.19967 0.63275 0.0
C1476 C 0.4466 0.20797 0.64596 0.0
C1477 C 0.43649 0.21839 0.65313 0.0
C1478 C 0.47274 0.17038 0.62197 0.0
C1479 C 0.47322 0.1721 0.60572 0.0
C1480 C 0.46277 0.17952 0.63091 0.0
C1481 C 0.45303 0.19035 0.6237 0.0
C1482 C 0.45378 0.19228 0.60755 0.0
C1483 C 0.46376 0.18331 0.59867 0.0
H1484 H 0.07133 0.19684 0.8407 0.0
H1485 H 0.08646 0.2231 0.88066 0.0
H1486 H 0.05649 0.17995 0.85738 0.0
H1487 H 0.07157 0.20579 0.8976 0.0
H1488 H 0.02299 0.18578 0.91421 0.0
H1489 H 0.04365 0.20085 0.90225 0.0
H1490 H 0.05863 0.16012 0.87723 0.0
H1491 H 0.03783 0.14518 0.88883 0.0
C1492 C 0.07163 0.19892 0.8531 0.0
C1493 C 0.07999 0.21143 0.85932 0.0
C1494 C 0.06322 0.1891 0.86271 0.0
C1495 C 0.0629 0.19146 0.87884 0.0
C1496 C 0.07155 0.20372 0.8852 0.0
C1497 C 0.08012 0.21358 0.87552 0.0
C1498 C 0.0309 0.17997 0.90642 0.0
C1499 C 0.02855 0.16438 0.90219 0.0
C1500 C 0.04278 0.18859 0.89962 0.0
C1501 C 0.05258 0.18174 0.88856 0.0
C1502 C 0.05104 0.16582 0.88542 0.0
C1503 C 0.03913 0.15725 0.8921 0.0
H1504 H 0.38723 0.03994 0.16051 0.0
H1505 H 0.34158 0.02967 0.14316 0.0
H1506 H 0.37618 0.05721 0.1798 0.0
H1507 H 0.33055 0.04726 0.1624 0.0
H1508 H 0.31831 0.06166 0.21325 0.0
H1509 H 0.32763 0.04701 0.19095 0.0
H1510 H 0.36249 0.08183 0.18273 0.0
H1511 H 0.35341 0.09638 0.20511 0.0
C1512 C 0.37484 0.04148 0.16069 0.0
C1513 C 0.36528 0.0333 0.15036 0.0
C1514 C 0.36852 0.05149 0.17168 0.0
C1515 C 0.3525 0.05356 0.17262 0.0
C1516 C 0.34294 0.04575 0.16203 0.0
C1517 C 0.34927 0.03575 0.15097 0.0
C1518 C 0.32787 0.06628 0.20661 0.0
C1519 C 0.33523 0.0801 0.21111 0.0
C1520 C 0.33315 0.05792 0.19377 0.0
C1521 C 0.34586 0.06323 0.18517 0.0
C1522 C 0.35283 0.07734 0.1893 0.0
C1523 C 0.34758 0.08568 0.20212 0.0
H1524 H 0.14568 0.115 0.46265 0.0
H1525 H 0.17097 0.07181 0.46121 0.0
H1526 H 0.1614 0.12519 0.44205 0.0
H1527 H 0.18631 0.08175 0.43965 0.0
H1528 H 0.22525 0.11451 0.42223 0.0
H1529 H 0.2065 0.09908 0.43658 0.0
H1530 H 0.16964 0.12671 0.41695 0.0
H1531 H 0.18867 0.14282 0.40375 0.0
C1532 C 0.15433 0.10746 0.45762 0.0
C1533 C 0.15722 0.09266 0.46381 0.0
C1534 C 0.16334 0.1133 0.44559 0.0
C1535 C 0.17533 0.1044 0.43915 0.0
C1536 C 0.17746 0.08911 0.44455 0.0
C1537 C 0.16858 0.08335 0.45684 0.0
C1538 C 0.21309 0.11704 0.42087 0.0
C1539 C 0.20829 0.12987 0.41217 0.0
C1540 C 0.20229 0.10814 0.42898 0.0
C1541 C 0.18647 0.11176 0.42822 0.0
C1542 C 0.18171 0.12386 0.4183 0.0
C1543 C 0.19255 0.13302 0.41061 0.0
H1544 H 0.1574 0.96518 0.64619 0.0
H1545 H 0.11114 0.95464 0.66166 0.0
H1546 H 0.16768 0.94704 0.66526 0.0
H1547 H 0.12147 0.93685 0.68087 0.0
H1548 H 0.143 0.89858 0.70825 0.0
H1549 H 0.13485 0.91254 0.6851 0.0
H1550 H 0.16995 0.94711 0.69341 0.0
H1551 H 0.17835 0.93302 0.71637 0.0
C1552 C 0.1494 0.95892 0.65354 0.0
C1553 C 0.13343 0.96151 0.65248 0.0
C1554 C 0.15532 0.94858 0.66452 0.0
C1555 C 0.14541 0.94059 0.67465 0.0
C1556 C 0.12942 0.94268 0.67313 0.0
C1557 C 0.1235 0.95299 0.66216 0.0
C1558 C 0.14912 0.90906 0.70506 0.0
C1559 C 0.16122 0.91477 0.7143 0.0
C1560 C 0.14439 0.91709 0.69181 0.0
C1561 C 0.15165 0.93101 0.6875 0.0
C1562 C 0.16421 0.93634 0.69632 0.0
C1563 C 0.16897 0.92829 0.70956 0.0
H1564 H 0.28831 0.83854 0.93842 0.0
H1565 H 0.2704 0.87917 0.91505 0.0
H1566 H 0.30584 0.85473 0.95307 0.0
H1567 H 0.28824 0.8955 0.92998 0.0
H1568 H 0.31067 0.91545 0.97749 0.0
H1569 H 0.29299 0.90272 0.95935 0.0
H1570 H 0.32911 0.87106 0.94589 0.0
H1571 H 0.34672 0.88358 0.96384 0.0
C1572 C 0.28808 0.85094 0.93637 0.0
C1573 C 0.27795 0.85752 0.92547 0.0
C1574 C 0.29823 0.86021 0.94474 0.0
C1575 C 0.29852 0.87632 0.9425 0.0
C1576 C 0.28823 0.88307 0.93188 0.0
C1577 C 0.27808 0.87372 0.92333 0.0
C1578 C 0.31491 0.90596 0.97046 0.0
C1579 C 0.33004 0.90035 0.97236 0.0
C1580 C 0.3048 0.89872 0.96005 0.0
C1581 C 0.30965 0.88577 0.95145 0.0
C1582 C 0.32502 0.88086 0.9526 0.0
C1583 C 0.3351 0.88807 0.9629 0.0
H1584 H 0.38159 0.95174 0.34448 0.0
H1585 H 0.34011 0.97875 0.33875 0.0
H1586 H 0.37236 0.93319 0.3253 0.0
H1587 H 0.33126 0.9609 0.31882 0.0
H1588 H 0.31411 0.92202 0.28883 0.0
H1589 H 0.32175 0.93694 0.31161 0.0
H1590 H 0.36964 0.93118 0.29882 0.0
H1591 H 0.36196 0.9155 0.27677 0.0
C1592 C 0.37049 0.95369 0.33907 0.0
C1593 C 0.36158 0.96668 0.34303 0.0
C1594 C 0.36522 0.94314 0.32797 0.0
C1595 C 0.35112 0.94559 0.32025 0.0
C1596 C 0.34205 0.95842 0.3246 0.0
C1597 C 0.34715 0.96875 0.33599 0.0
C1598 C 0.32626 0.92389 0.29102 0.0
C1599 C 0.33744 0.91764 0.28104 0.0
C1600 C 0.33067 0.93251 0.30403 0.0
C1601 C 0.34635 0.93539 0.30713 0.0
C1602 C 0.35748 0.92898 0.29712 0.0
C1603 C 0.35308 0.92007 0.28435 0.0
H1604 H 0.30434 0.15493 0.57659 0.0
H1605 H 0.27534 0.11638 0.58982 0.0
H1606 H 0.32109 0.13741 0.56244 0.0
H1607 H 0.29236 0.09863 0.57562 0.0
H1608 H 0.31196 0.08284 0.52621 0.0
H1609 H 0.29745 0.09492 0.54729 0.0
H1610 H 0.33928 0.11594 0.56448 0.0
H1611 H 0.3537 0.1042 0.5433 0.0
C1612 C 0.3017 0.14264 0.57669 0.0
C1613 C 0.28845 0.13704 0.58417 0.0
C1614 C 0.31139 0.13256 0.56869 0.0
C1615 C 0.30803 0.11662 0.56789 0.0
C1616 C 0.29516 0.11087 0.57597 0.0
C1617 C 0.2855 0.121 0.58416 0.0
C1618 C 0.31811 0.08974 0.53471 0.0
C1619 C 0.3339 0.09285 0.53291 0.0
C1620 C 0.30981 0.0966 0.54684 0.0
C1621 C 0.3172 0.10659 0.55738 0.0
C1622 C 0.33322 0.10856 0.55634 0.0
C1623 C 0.34147 0.10182 0.5442 0.0
H1624 H 0.11617 0.0427 0.83745 0.0
H1625 H 0.16223 0.02726 0.84883 0.0
H1626 H 0.12662 0.06053 0.81847 0.0
H1627 H 0.17276 0.04556 0.8299 0.0
H1628 H 0.18019 0.06275 0.77867 0.0
H1629 H 0.17306 0.04774 0.80154 0.0
H1630 H 0.1415 0.08397 0.81538 0.0
H1631 H 0.14831 0.09881 0.79235 0.0
C1632 C 0.12856 0.04322 0.83604 0.0
C1633 C 0.13835 0.03342 0.84459 0.0
C1634 C 0.13457 0.05359 0.82523 0.0
C1635 C 0.15053 0.05449 0.8227 0.0
C1636 C 0.1604 0.04502 0.83152 0.0
C1637 C 0.15436 0.0346 0.8424 0.0
C1638 C 0.1719 0.06762 0.78671 0.0
C1639 C 0.16461 0.08184 0.78354 0.0
C1640 C 0.16788 0.05905 0.79987 0.0
C1641 C 0.15657 0.06458 0.81015 0.0
C1642 C 0.15002 0.07925 0.80748 0.0
C1643 C 0.15395 0.08776 0.7943 0.0
H1644 H 0.22708 0.87948 0.08482 0.0
H1645 H 0.2058 0.83914 0.06407 0.0
H1646 H 0.20912 0.89626 0.07055 0.0
H1647 H 0.1881 0.85576 0.05 0.0
H1648 H 0.14961 0.88668 0.03721 0.0
H1649 H 0.16621 0.87388 0.05598 0.0
H1650 H 0.20437 0.90261 0.04159 0.0
H1651 H 0.18775 0.9156 0.02273 0.0
C1652 C 0.21855 0.87421 0.07732 0.0
C1653 C 0.21791 0.858 0.0755 0.0
C1654 C 0.20834 0.8838 0.06914 0.0
C1655 C 0.19717 0.87728 0.05929 0.0
C1656 C 0.19643 0.86109 0.0577 0.0
C1657 C 0.2067 0.85158 0.06565 0.0
C1658 C 0.16148 0.89048 0.03816 0.0
C1659 C 0.16742 0.90198 0.02822 0.0
C1660 C 0.17097 0.88313 0.04892 0.0
C1661 C 0.18661 0.8871 0.05004 0.0
C1662 C 0.19234 0.89936 0.04097 0.0
C1663 C 0.18282 0.90674 0.03013 0.0
H1664 H 0.20624 0.32445 0.07705 0.0
H1665 H 0.21407 0.36949 0.09763 0.0
H1666 H 0.18416 0.33488 0.0629 0.0
H1667 H 0.1929 0.38006 0.08299 0.0
H1668 H 0.15279 0.39831 0.05933 0.0
H1669 H 0.16728 0.38291 0.07803 0.0
H1670 H 0.17907 0.35041 0.04158 0.0
H1671 H 0.16345 0.36526 0.02335 0.0
C1672 C 0.2032 0.33654 0.07863 0.0
C1673 C 0.21199 0.34613 0.08842 0.0
C1674 C 0.1906 0.34257 0.07043 0.0
C1675 C 0.18667 0.35839 0.07163 0.0
C1676 C 0.1952 0.36777 0.0819 0.0
C1677 C 0.20754 0.3617 0.09027 0.0
C1678 C 0.15812 0.38759 0.05553 0.0
C1679 C 0.15712 0.38294 0.03998 0.0
C1680 C 0.16661 0.37884 0.06616 0.0
C1681 C 0.17482 0.36559 0.06131 0.0
C1682 C 0.1729 0.36043 0.04588 0.0
C1683 C 0.16398 0.36896 0.03537 0.0
H1684 H 0.64933 0.09987 0.93493 0.0
H1685 H 0.66375 0.12701 0.97436 0.0
H1686 H 0.66368 0.117 0.91766 0.0
H1687 H 0.67923 0.14343 0.95743 0.0
H1688 H 0.70706 0.17188 0.9247 0.0
H1689 H 0.68455 0.16136 0.93809 0.0
H1690 H 0.68922 0.11875 0.91192 0.0
H1691 H 0.71078 0.1295 0.89812 0.0
C1692 C 0.65544 0.1097 0.93982 0.0
C1693 C 0.65556 0.11216 0.95589 0.0
C1694 C 0.66384 0.11941 0.92999 0.0
C1695 C 0.67308 0.13139 0.93611 0.0
C1696 C 0.67225 0.13446 0.95217 0.0
C1697 C 0.66342 0.12502 0.96194 0.0
C1698 C 0.70302 0.16039 0.92162 0.0
C1699 C 0.71084 0.15151 0.91042 0.0
C1700 C 0.69017 0.15429 0.92937 0.0
C1701 C 0.68501 0.1391 0.92626 0.0
C1702 C 0.69249 0.13058 0.91453 0.0
C1703 C 0.70508 0.13674 0.90665 0.0
H1704 H 0.13381 0.40091 0.19791 0.0
H1705 H 0.09377 0.40722 0.22693 0.0
H1706 H 0.12412 0.42033 0.1799 0.0
H1707 H 0.0845 0.42754 0.2096 0.0
H1708 H 0.06688 0.45847 0.17124 0.0
H1709 H 0.07427 0.43546 0.18598 0.0
H1710 H 0.12233 0.44691 0.17886 0.0
H1711 H 0.11486 0.46914 0.1634 0.0
C1712 C 0.1229 0.40652 0.20039 0.0
C1713 C 0.11454 0.4027 0.21377 0.0
C1714 C 0.1174 0.41776 0.19017 0.0
C1715 C 0.10366 0.42581 0.19341 0.0
C1716 C 0.09503 0.42153 0.20659 0.0
C1717 C 0.10035 0.40994 0.21658 0.0
C1718 C 0.07901 0.45593 0.17279 0.0
C1719 C 0.0903 0.46553 0.16618 0.0
C1720 C 0.08327 0.4428 0.18129 0.0
C1721 C 0.09892 0.43922 0.18363 0.0
C1722 C 0.11016 0.44896 0.177 0.0
C1723 C 0.1059 0.46183 0.16823 0.0
H1724 H 0.79165 0.85343 0.39614 0.0
H1725 H 0.77969 0.82969 0.43869 0.0
H1726 H 0.81244 0.86681 0.40951 0.0
H1727 H 0.80042 0.84336 0.45215 0.0
H1728 H 0.84304 0.86756 0.47128 0.0
H1729 H 0.82851 0.84926 0.45515 0.0
H1730 H 0.81017 0.8876 0.42864 0.0
H1731 H 0.82466 0.90571 0.44446 0.0
C1732 C 0.79359 0.85089 0.40831 0.0
C1733 C 0.78381 0.84072 0.41644 0.0
C1734 C 0.8055 0.85858 0.41596 0.0
C1735 C 0.80787 0.85637 0.43193 0.0
C1736 C 0.79891 0.84528 0.43981 0.0
C1737 C 0.78698 0.83749 0.43212 0.0
C1738 C 0.83612 0.87202 0.46181 0.0
C1739 C 0.83491 0.88809 0.45921 0.0
C1740 C 0.82774 0.86156 0.45266 0.0
C1741 C 0.8182 0.86699 0.44064 0.0
C1742 C 0.81757 0.883 0.43766 0.0
C1743 C 0.8258 0.89342 0.44683 0.0
H1744 H 0.86339 0.08492 0.20452 0.0
H1745 H 0.90975 0.09534 0.21972 0.0
H1746 H 0.87319 0.06437 0.1881 0.0
H1747 H 0.91963 0.07478 0.20286 0.0
H1748 H 0.92576 0.02293 0.18692 0.0
H1749 H 0.9189 0.04614 0.20164 0.0
H1750 H 0.88816 0.06024 0.1648 0.0
H1751 H 0.8947 0.03698 0.15027 0.0
C1752 C 0.87571 0.08294 0.20427 0.0
C1753 C 0.88577 0.09177 0.21352 0.0
C1754 C 0.88135 0.07121 0.19472 0.0
C1755 C 0.8972 0.06799 0.19412 0.0
C1756 C 0.90734 0.07693 0.20317 0.0
C1757 C 0.90168 0.08876 0.21275 0.0
C1758 C 0.91767 0.03107 0.1819 0.0
C1759 C 0.91057 0.02796 0.16755 0.0
C1760 C 0.9138 0.04441 0.1903 0.0
C1761 C 0.90284 0.05491 0.18447 0.0
C1762 C 0.89639 0.05219 0.16975 0.0
C1763 C 0.90017 0.03886 0.16142 0.0
H1764 H 0.27879 0.66557 0.56219 0.0
H1765 H 0.29057 0.64035 0.60391 0.0
H1766 H 0.30041 0.65352 0.54874 0.0
H1767 H 0.31237 0.62861 0.59057 0.0
H1768 H 0.32592 0.5916 0.55378 0.0
H1769 H 0.31161 0.60865 0.57087 0.0
H1770 H 0.32818 0.64852 0.54541 0.0
H1771 H 0.34246 0.63126 0.52798 0.0
C1772 C 0.28626 0.65783 0.56863 0.0
C1773 C 0.28275 0.65365 0.58401 0.0
C1774 C 0.29871 0.65096 0.56093 0.0
C1775 C 0.30794 0.63988 0.56851 0.0
C1776 C 0.30526 0.63683 0.58431 0.0
C1777 C 0.29278 0.64359 0.59196 0.0
C1778 C 0.32675 0.60401 0.55194 0.0
C1779 C 0.33517 0.61006 0.5394 0.0
C1780 C 0.31864 0.61383 0.56186 0.0
C1781 C 0.3187 0.62997 0.55948 0.0
C1782 C 0.32781 0.63612 0.54744 0.0
C1783 C 0.33605 0.62625 0.53754 0.0
H1784 H 0.12846 0.58312 0.28683 0.0
H1785 H 0.082 0.59546 0.27345 0.0
H1786 H 0.11846 0.56368 0.3044 0.0
H1787 H 0.07194 0.57605 0.29152 0.0
H1788 H 0.06365 0.52543 0.30958 0.0
H1789 H 0.07109 0.5477 0.29381 0.0
H1790 H 0.10463 0.56084 0.32847 0.0
H1791 H 0.09752 0.53842 0.34404 0.0
C1792 C 0.11608 0.5818 0.28772 0.0
C1793 C 0.10604 0.59084 0.27863 0.0
C1794 C 0.11034 0.57071 0.29794 0.0
C1795 C 0.0944 0.56837 0.29943 0.0
C1796 C 0.08429 0.57751 0.29053 0.0
C1797 C 0.09006 0.58867 0.28024 0.0
C1798 C 0.0725 0.53316 0.31392 0.0
C1799 C 0.08017 0.53 0.32795 0.0
C1800 C 0.0767 0.54598 0.30491 0.0
C1801 C 0.08857 0.55593 0.3098 0.0
C1802 C 0.09566 0.5532 0.32422 0.0
C1803 C 0.09155 0.54036 0.33316 0.0
H1804 H 0.42958 0.46033 0.82365 0.0
H1805 H 0.38103 0.46664 0.83268 0.0
H1806 H 0.42382 0.43713 0.80849 0.0
H1807 H 0.37517 0.44413 0.81692 0.0
H1808 H 0.36737 0.39776 0.79654 0.0
H1809 H 0.37574 0.41735 0.81505 0.0
H1810 H 0.4136 0.42945 0.78466 0.0
H1811 H 0.40571 0.40916 0.7667 0.0
C1812 C 0.41768 0.4568 0.82231 0.0
C1813 C 0.40576 0.46529 0.82934 0.0
C1814 C 0.41435 0.44354 0.81357 0.0
C1815 C 0.39901 0.43867 0.81144 0.0
C1816 C 0.38714 0.44722 0.81857 0.0
C1817 C 0.39049 0.46026 0.82752 0.0
C1818 C 0.37763 0.40447 0.79398 0.0
C1819 C 0.38585 0.40202 0.78018 0.0
C1820 C 0.38237 0.4158 0.80451 0.0
C1821 C 0.39522 0.42524 0.80127 0.0
C1822 C 0.40377 0.42233 0.78769 0.0
C1823 C 0.39922 0.41074 0.77733 0.0
H1824 H 0.93218 0.77712 0.66636 0.0
H1825 H 0.89161 0.79274 0.64179 0.0
H1826 H 0.94711 0.79791 0.65449 0.0
H1827 H 0.90649 0.81371 0.63022 0.0
H1828 H 0.94329 0.82463 0.5928 0.0
H1829 H 0.92582 0.811 0.60995 0.0
H1830 H 0.95255 0.82571 0.64964 0.0
H1831 H 0.97036 0.83933 0.63228 0.0
C1832 C 0.92632 0.78527 0.65882 0.0
C1833 C 0.9108 0.78304 0.65472 0.0
C1834 C 0.93489 0.79724 0.65206 0.0
C1835 C 0.92804 0.80724 0.64116 0.0
C1836 C 0.91216 0.80595 0.6383 0.0
C1837 C 0.90363 0.79395 0.64497 0.0
C1838 C 0.94541 0.82512 0.60518 0.0
C1839 C 0.95834 0.83291 0.61115 0.0
C1840 C 0.93526 0.81744 0.61506 0.0
C1841 C 0.93777 0.8173 0.63118 0.0
C1842 C 0.95038 0.82555 0.63725 0.0
C1843 C 0.96053 0.83338 0.62732 0.0
H1844 H 0.95688 0.18196 0.4181 0.0
H1845 H 0.96651 0.15739 0.37545 0.0
H1846 H 0.93504 0.19474 0.40559 0.0
H1847 H 0.94575 0.17074 0.36275 0.0
H1848 H 0.90541 0.19201 0.34139 0.0
H1849 H 0.92039 0.17512 0.35833 0.0
H1850 H 0.93043 0.21436 0.3881 0.0
H1851 H 0.91428 0.2307 0.37184 0.0
C1852 C 0.95429 0.17926 0.4061 0.0
C1853 C 0.96344 0.16873 0.39776 0.0
C1854 C 0.94185 0.18666 0.39886 0.0
C1855 C 0.93859 0.18393 0.38305 0.0
C1856 C 0.94752 0.17297 0.37498 0.0
C1857 C 0.95963 0.16536 0.38228 0.0
C1858 C 0.91066 0.19685 0.35172 0.0
C1859 C 0.90892 0.21259 0.3553 0.0
C1860 C 0.91935 0.18725 0.3614 0.0
C1861 C 0.92699 0.19337 0.37449 0.0
C1862 C 0.92464 0.20908 0.37831 0.0
C1863 C 0.91551 0.21853 0.36891 0.0
H1864 H 0.55468 0.1591 0.09687 0.0
H1865 H 0.51726 0.16977 0.12801 0.0
H1866 H 0.57185 0.17549 0.11199 0.0
H1867 H 0.534 0.1873 0.14255 0.0
H1868 H 0.56934 0.21365 0.17063 0.0
H1869 H 0.55441 0.19254 0.15909 0.0
H1870 H 0.57639 0.20135 0.11483 0.0
H1871 H 0.5918 0.22146 0.12657 0.0
C1872 C 0.55017 0.16505 0.10699 0.0
C1873 C 0.5347 0.16334 0.11127 0.0
C1874 C 0.55994 0.17458 0.1156 0.0
C1875 C 0.5543 0.18311 0.12835 0.0
C1876 C 0.53887 0.18087 0.13294 0.0
C1877 C 0.52922 0.17091 0.12457 0.0
C1878 C 0.57105 0.21086 0.15849 0.0
C1879 C 0.58179 0.21914 0.14953 0.0
C1880 C 0.56243 0.19883 0.15182 0.0
C1881 C 0.56415 0.19508 0.13598 0.0
C1882 C 0.57497 0.20344 0.12714 0.0
C1883 C 0.58379 0.21515 0.13386 0.0
H1884 H 0.57742 0.80176 0.84198 0.0
H1885 H 0.5973 0.77769 0.88122 0.0
H1886 H 0.56341 0.81863 0.85955 0.0
H1887 H 0.58332 0.79483 0.89888 0.0
H1888 H 0.5341 0.80959 0.91817 0.0
H1889 H 0.55554 0.79682 0.90511 0.0
H1890 H 0.56492 0.83883 0.87942 0.0
H1891 H 0.54336 0.85154 0.89225 0.0
C1892 C 0.57903 0.80024 0.85436 0.0
C1893 C 0.58831 0.78823 0.86018 0.0
C1894 C 0.57109 0.81003 0.86446 0.0
C1895 C 0.57221 0.80801 0.88062 0.0
C1896 C 0.58214 0.79655 0.88648 0.0
C1897 C 0.59018 0.78679 0.87635 0.0
C1898 C 0.54099 0.81624 0.91005 0.0
C1899 C 0.53681 0.83145 0.90597 0.0
C1900 C 0.55332 0.80893 0.9026 0.0
C1901 C 0.56172 0.81675 0.89102 0.0
C1902 C 0.55843 0.83242 0.88805 0.0
C1903 C 0.54609 0.83969 0.89543 0.0
H1904 H 0.9685 0.15385 0.86258 0.0
H1905 H 0.94315 0.17171 0.90192 0.0
H1906 H 0.95146 0.16821 0.84504 0.0
H1907 H 0.92649 0.18609 0.88458 0.0
H1908 H 0.89245 0.20446 0.85206 0.0
H1909 H 0.90663 0.18377 0.86492 0.0
H1910 H 0.94745 0.19594 0.83892 0.0
H1911 H 0.93318 0.21646 0.82577 0.0
C1912 C 0.95922 0.16067 0.86747 0.0
C1913 C 0.95727 0.16173 0.88366 0.0
C1914 C 0.94951 0.16893 0.85744 0.0
C1915 C 0.93761 0.17826 0.8634 0.0
C1916 C 0.93537 0.17883 0.87955 0.0
C1917 C 0.94506 0.17068 0.88953 0.0
C1918 C 0.90436 0.20253 0.84883 0.0
C1919 C 0.91176 0.2123 0.83809 0.0
C1920 C 0.9125 0.1907 0.85625 0.0
C1921 C 0.92824 0.18843 0.85317 0.0
C1922 C 0.93532 0.19736 0.84152 0.0
C1923 C 0.92714 0.20917 0.83401 0.0
H1924 H 0.5457 0.17262 0.56902 0.0
H1925 H 0.5433 0.14322 0.60964 0.0
H1926 H 0.56704 0.1868 0.5807 0.0
H1927 H 0.5635 0.1579 0.62168 0.0
H1928 H 0.59843 0.18577 0.64438 0.0
H1929 H 0.58729 0.16733 0.62609 0.0
H1930 H 0.56885 0.20565 0.59932 0.0
H1931 H 0.58131 0.22381 0.61687 0.0
C1932 C 0.54986 0.16902 0.58032 0.0
C1933 C 0.5425 0.15703 0.58853 0.0
C1934 C 0.56199 0.17728 0.58713 0.0
C1935 C 0.5668 0.17391 0.6024 0.0
C1936 C 0.56034 0.16095 0.60992 0.0
C1937 C 0.54851 0.15253 0.60301 0.0
C1938 C 0.59224 0.19011 0.63436 0.0
C1939 C 0.5905 0.20609 0.63204 0.0
C1940 C 0.58574 0.1796 0.62391 0.0
C1941 C 0.57677 0.18487 0.61131 0.0
C1942 C 0.57578 0.20099 0.60867 0.0
C1943 C 0.58277 0.21148 0.61883 0.0
H1944 H 0.51921 0.83056 0.36297 0.0
H1945 H 0.55623 0.84333 0.39377 0.0
H1946 H 0.53682 0.81429 0.34808 0.0
H1947 H 0.57425 0.82817 0.37828 0.0
H1948 H 0.59404 0.78103 0.36557 0.0
H1949 H 0.57943 0.80228 0.3762 0.0
H1950 H 0.55746 0.80939 0.33164 0.0
H1951 H 0.57161 0.78724 0.3212 0.0
C1952 C 0.53128 0.83026 0.36618 0.0
C1953 C 0.53642 0.83794 0.37955 0.0
C1954 C 0.54144 0.82101 0.35762 0.0
C1955 C 0.55699 0.8196 0.36211 0.0
C1956 C 0.56228 0.82848 0.37476 0.0
C1957 C 0.55203 0.83731 0.38357 0.0
C1958 C 0.58626 0.78723 0.35792 0.0
C1959 C 0.58389 0.78231 0.34256 0.0
C1960 C 0.57791 0.7996 0.36402 0.0
C1961 C 0.56715 0.80767 0.35484 0.0
C1962 C 0.56539 0.80329 0.33918 0.0
C1963 C 0.57358 0.79065 0.33314 0.0
H1964 H 0.89774 0.78507 0.1219 0.0
H1965 H 0.93912 0.7696 0.14509 0.0
H1966 H 0.91354 0.80008 0.10352 0.0
H1967 H 0.95473 0.78413 0.12659 0.0
H1968 H 0.97835 0.80003 0.08294 0.0
H1969 H 0.9588 0.78359 0.09506 0.0
H1970 H 0.93396 0.8243 0.10999 0.0
H1971 H 0.95363 0.84083 0.09815 0.0
C1972 C 0.91017 0.78475 0.12294 0.0
C1973 C 0.91723 0.7763 0.13496 0.0
C1974 C 0.91915 0.79328 0.11247 0.0
C1975 C 0.93528 0.79306 0.11362 0.0
C1976 C 0.9423 0.78429 0.12538 0.0
C1977 C 0.93337 0.77612 0.13603 0.0
C1978 C 0.9685 0.80549 0.08841 0.0
C1979 C 0.96761 0.82171 0.08978 0.0
C1980 C 0.95737 0.79608 0.09536 0.0
C1981 C 0.94501 0.80275 0.10348 0.0
C1982 C 0.94338 0.81893 0.10371 0.0
C1983 C 0.95467 0.82836 0.09702 0.0
H1984 H 0.57649 0.94072 0.83035 0.0
H1985 H 0.61972 0.96498 0.83568 0.0
H1986 H 0.58949 0.91988 0.81685 0.0
H1987 H 0.63298 0.94372 0.82217 0.0
H1988 H 0.64046 0.91574 0.77495 0.0
H1989 H 0.63315 0.93446 0.79491 0.0
H1990 H 0.60755 0.89875 0.81888 0.0
H1991 H 0.61447 0.8802 0.79875 0.0
C1992 C 0.58887 0.94147 0.82884 0.0
C1993 C 0.59706 0.95458 0.83391 0.0
C1994 C 0.59637 0.92941 0.82122 0.0
C1995 C 0.6123 0.93011 0.81841 0.0
C1996 C 0.62068 0.94291 0.82408 0.0
C1997 C 0.61312 0.95501 0.83188 0.0
C1998 C 0.63355 0.91181 0.78466 0.0
C1999 C 0.62774 0.89659 0.78509 0.0
C2000 C 0.62943 0.92253 0.79616 0.0
C2001 C 0.61953 0.91816 0.80833 0.0
C2002 C 0.6149 0.90257 0.80945 0.0
C2003 C 0.61887 0.89193 0.79792 0.0
H2004 H 0.84227 0.88098 0.52799 0.0
H2005 H 0.81882 0.92459 0.53522 0.0
H2006 H 0.82687 0.86907 0.54794 0.0
H2007 H 0.80387 0.91287 0.55621 0.0
H2008 H 0.76588 0.88074 0.5761 0.0
H2009 H 0.78348 0.89608 0.56021 0.0
H2010 H 0.82094 0.86559 0.57338 0.0
H2011 H 0.80291 0.84966 0.58806 0.0
C2012 C 0.83408 0.88817 0.53417 0.0
C2013 C 0.83172 0.90373 0.52994 0.0
C2014 C 0.82525 0.88134 0.5458 0.0
C2015 C 0.81403 0.88994 0.55385 0.0
C2016 C 0.81216 0.90575 0.5501 0.0
C2017 C 0.8208 0.91253 0.53815 0.0
C2018 C 0.77793 0.8775 0.57562 0.0
C2019 C 0.78309 0.86398 0.583 0.0
C2020 C 0.78809 0.88634 0.56663 0.0
C2021 C 0.80369 0.88199 0.5652 0.0
C2022 C 0.80895 0.86903 0.57366 0.0
C2023 C 0.7987 0.85995 0.58221 0.0
H2024 H 0.88057 0.04918 0.35 0.0
H2025 H 0.89599 0.02982 0.30648 0.0
H2026 H 0.86621 0.06933 0.33577 0.0
H2027 H 0.88137 0.04943 0.29236 0.0
H2028 H 0.84882 0.08089 0.26967 0.0
H2029 H 0.8527 0.06018 0.2886 0.0
H2030 H 0.87942 0.09121 0.31722 0.0
H2031 H 0.87579 0.11194 0.29823 0.0
C2032 C 0.88049 0.049 0.33742 0.0
C2033 C 0.88937 0.0381 0.32925 0.0
C2034 C 0.87233 0.06047 0.32933 0.0
C2035 C 0.87262 0.0608 0.31302 0.0
C2036 C 0.88077 0.04928 0.30493 0.0
C2037 C 0.88922 0.03815 0.31298 0.0
C2038 C 0.85508 0.08348 0.28024 0.0
C2039 C 0.86229 0.09795 0.28231 0.0
C2040 C 0.85728 0.07161 0.29105 0.0
C2041 C 0.86646 0.07412 0.30423 0.0
C2042 C 0.87224 0.08904 0.30716 0.0
C2043 C 0.87026 0.10085 0.29623 0.0
H2044 H 0.64843 0.10703 0.03483 0.0
H2045 H 0.68753 0.08 0.01934 0.0
H2046 H 0.66451 0.11949 0.05425 0.0
H2047 H 0.70363 0.09264 0.03889 0.0
H2048 H 0.72459 0.1131 0.08427 0.0
H2049 H 0.70773 0.09713 0.068 0.0
H2050 H 0.68595 0.13858 0.05034 0.0
H2051 H 0.7026 0.15448 0.06647 0.0
C2052 C 0.6604 0.10357 0.03567 0.0
C2053 C 0.66674 0.09268 0.02531 0.0
C2054 C 0.66961 0.11077 0.04679 0.0
C2055 C 0.68535 0.10722 0.04788 0.0
C2056 C 0.69151 0.09558 0.03829 0.0
C2057 C 0.68228 0.08838 0.02707 0.0
C2058 C 0.71616 0.11879 0.07695 0.0
C2059 C 0.71495 0.13507 0.07666 0.0
C2060 C 0.70657 0.10964 0.06762 0.0
C2061 C 0.69547 0.11662 0.05803 0.0
C2062 C 0.69424 0.13287 0.05781 0.0
C2063 C 0.70388 0.14198 0.06697 0.0
H2064 H 0.58102 0.0512 0.66697 0.0
H2065 H 0.62346 0.02539 0.66246 0.0
H2066 H 0.59469 0.07201 0.67985 0.0
H2067 H 0.63737 0.04657 0.67545 0.0
H2068 H 0.64435 0.07655 0.72211 0.0
H2069 H 0.63728 0.0571 0.70276 0.0
H2070 H 0.61396 0.09236 0.67597 0.0
H2071 H 0.62068 0.11169 0.69545 0.0
C2072 C 0.59334 0.05004 0.66863 0.0
C2073 C 0.60114 0.03658 0.66389 0.0
C2074 C 0.60123 0.06208 0.67585 0.0
C2075 C 0.61714 0.06098 0.6786 0.0
C2076 C 0.6251 0.0477 0.67349 0.0
C2077 C 0.61716 0.03564 0.66604 0.0
C2078 C 0.6381 0.08022 0.71187 0.0
C2079 C 0.63274 0.09555 0.71047 0.0
C2080 C 0.63409 0.06908 0.70075 0.0
C2081 C 0.62478 0.07316 0.68803 0.0
C2082 C 0.62084 0.08882 0.68585 0.0
C2083 C 0.62471 0.09989 0.69699 0.0
H2084 H 0.69779 0.83839 0.42555 0.0
H2085 H 0.72383 0.87765 0.4086 0.0
H2086 H 0.68124 0.85573 0.44016 0.0
H2087 H 0.707 0.89517 0.42329 0.0
H2088 H 0.68766 0.91373 0.47176 0.0
H2089 H 0.70261 0.90034 0.45181 0.0
H2090 H 0.66165 0.87613 0.43688 0.0
H2091 H 0.64675 0.88929 0.45681 0.0
C2092 C 0.69988 0.85076 0.42479 0.0
C2093 C 0.7122 0.85663 0.41599 0.0
C2094 C 0.69029 0.86072 0.43308 0.0
C2095 C 0.69279 0.87683 0.43285 0.0
C2096 C 0.70486 0.8828 0.42373 0.0
C2097 C 0.71442 0.87278 0.41527 0.0
C2098 C 0.68178 0.90579 0.46402 0.0
C2099 C 0.66606 0.90237 0.4661 0.0
C2100 C 0.69034 0.89817 0.45255 0.0
C2101 C 0.68334 0.88701 0.44295 0.0
C2102 C 0.66742 0.88445 0.44431 0.0
C2103 C 0.65889 0.89202 0.45574 0.0
H2104 H 0.90752 0.93631 0.16115 0.0
H2105 H 0.86956 0.96829 0.16621 0.0
H2106 H 0.89326 0.91668 0.17518 0.0
H2107 H 0.85499 0.94834 0.18045 0.0
H2108 H 0.85504 0.91785 0.22768 0.0
H2109 H 0.85892 0.93667 0.20682 0.0
H2110 H 0.87111 0.89944 0.17557 0.0
H2111 H 0.86778 0.88076 0.19656 0.0
C2112 C 0.89596 0.93903 0.16508 0.0
C2113 C 0.88972 0.95387 0.16279 0.0
C2114 C 0.88768 0.9277 0.17297 0.0
C2115 C 0.87294 0.93092 0.17891 0.0
C2116 C 0.86634 0.94556 0.17602 0.0
C2117 C 0.87463 0.95692 0.16786 0.0
C2118 C 0.85797 0.91367 0.2162 0.0
C2119 C 0.86148 0.89794 0.21378 0.0
C2120 C 0.86016 0.92444 0.20422 0.0
C2121 C 0.86573 0.91956 0.18967 0.0
C2122 C 0.8672 0.90358 0.18678 0.0
C2123 C 0.86525 0.89288 0.19877 0.0
H2124 H 0.84734 0.10487 0.95976 0.0
H2125 H 0.80675 0.08061 0.9759 0.0
H2126 H 0.83222 0.11698 0.93934 0.0
H2127 H 0.79159 0.09295 0.95541 0.0
H2128 H 0.79583 0.15373 0.92639 0.0
H2129 H 0.81213 0.13728 0.94225 0.0
H2130 H 0.78749 0.09676 0.92631 0.0
H2131 H 0.77092 0.11337 0.91029 0.0
C2132 C 0.83523 0.10196 0.95886 0.0
C2133 C 0.82819 0.092 0.96968 0.0
C2134 C 0.82658 0.10892 0.94715 0.0
C2135 C 0.81069 0.10611 0.94596 0.0
C2136 C 0.80383 0.0953 0.95604 0.0
C2137 C 0.81251 0.08829 0.96781 0.0
C2138 C 0.79389 0.14132 0.92615 0.0
C2139 C 0.78202 0.13487 0.91713 0.0
C2140 C 0.80334 0.13187 0.93515 0.0
C2141 C 0.80114 0.11573 0.93545 0.0
C2142 C 0.7894 0.10918 0.92631 0.0
C2143 C 0.77999 0.11867 0.91711 0.0
H2144 H 0.79403 0.64402 0.89433 0.0
H2145 H 0.78279 0.66779 0.93705 0.0
H2146 H 0.8156 0.63131 0.90711 0.0
H2147 H 0.80432 0.65483 0.94992 0.0
H2148 H 0.82839 0.59288 0.94308 0.0
H2149 H 0.814 0.61059 0.92666 0.0
H2150 H 0.83262 0.64964 0.95191 0.0
H2151 H 0.84702 0.63182 0.96856 0.0
C2152 C 0.79631 0.64671 0.90641 0.0
C2153 C 0.78652 0.65663 0.91481 0.0
C2154 C 0.80867 0.63943 0.9137 0.0
C2155 C 0.81146 0.64186 0.92956 0.0
C2156 C 0.80247 0.65278 0.93765 0.0
C2157 C 0.7901 0.66016 0.93031 0.0
C2158 C 0.82966 0.60524 0.94498 0.0
C2159 C 0.8387 0.61093 0.95724 0.0
C2160 C 0.8215 0.61542 0.93548 0.0
C2161 C 0.82214 0.63151 0.93806 0.0
C2162 C 0.83183 0.63728 0.94977 0.0
C2163 C 0.84013 0.62707 0.95922 0.0
H2164 H 0.29838 0.82332 0.07605 0.0
H2165 H 0.28538 0.86699 0.09689 0.0
H2166 H 0.32091 0.83568 0.06451 0.0
H2167 H 0.30695 0.87954 0.08461 0.0
H2168 H 0.34568 0.90211 0.06223 0.0
H2169 H 0.33209 0.88532 0.08043 0.0
H2170 H 0.32549 0.85156 0.04377 0.0
H2171 H 0.34019 0.8678 0.0262 0.0
C2172 C 0.30041 0.83553 0.07826 0.0
C2173 C 0.29 0.84421 0.08721 0.0
C2174 C 0.31326 0.84268 0.07154 0.0
C2175 C 0.31572 0.85875 0.07329 0.0
C2176 C 0.30575 0.86714 0.08307 0.0
C2177 C 0.29318 0.85993 0.09008 0.0
C2178 C 0.34163 0.89089 0.05828 0.0
C2179 C 0.3438 0.88627 0.04284 0.0
C2180 C 0.33371 0.8813 0.06864 0.0
C2181 C 0.32725 0.86717 0.06357 0.0
C2182 C 0.33035 0.8622 0.04829 0.0
C2183 C 0.33871 0.87158 0.03811 0.0
H2184 H 0.89628 0.51864 0.82583 0.0
H2185 H 0.87233 0.55146 0.85509 0.0
H2186 H 0.89397 0.53654 0.80393 0.0
H2187 H 0.87006 0.56926 0.83326 0.0
H2188 H 0.86812 0.59997 0.79166 0.0
H2189 H 0.88239 0.58576 0.81183 0.0
H2190 H 0.86829 0.54238 0.7911 0.0
H2191 H 0.85396 0.5565 0.77135 0.0
C2192 C 0.89096 0.52985 0.82772 0.0
C2193 C 0.88419 0.53351 0.84209 0.0
C2194 C 0.88962 0.54008 0.81518 0.0
C2195 C 0.8817 0.55421 0.81686 0.0
C2196 C 0.87631 0.5585 0.83162 0.0
C2197 C 0.87748 0.54822 0.8441 0.0
C2198 C 0.86855 0.58741 0.79121 0.0
C2199 C 0.85994 0.57926 0.78009 0.0
C2200 C 0.87663 0.5793 0.80273 0.0
C2201 C 0.87644 0.56297 0.80303 0.0
C2202 C 0.86884 0.55494 0.79109 0.0
C2203 C 0.86055 0.563 0.77983 0.0
H2204 H 0.15867 0.09636 0.55538 0.0
H2205 H 0.16637 0.12691 0.51648 0.0
H2206 H 0.1751 0.11257 0.57155 0.0
H2207 H 0.1839 0.14255 0.53217 0.0
H2208 H 0.21095 0.17206 0.56612 0.0
H2209 H 0.18946 0.15974 0.5524 0.0
H2210 H 0.20111 0.11589 0.57394 0.0
H2211 H 0.22158 0.12828 0.5881 0.0
C2212 C 0.16396 0.10658 0.55034 0.0
C2213 C 0.16147 0.11038 0.53475 0.0
C2214 C 0.17348 0.11582 0.55951 0.0
C2215 C 0.18119 0.1287 0.5531 0.0
C2216 C 0.17811 0.13283 0.53759 0.0
C2217 C 0.16816 0.12384 0.52855 0.0
C2218 C 0.2087 0.15984 0.56798 0.0
C2219 C 0.21784 0.15117 0.57826 0.0
C2220 C 0.19646 0.15274 0.56009 0.0
C2221 C 0.19339 0.13681 0.56213 0.0
C2222 C 0.20268 0.12826 0.57239 0.0
C2223 C 0.21459 0.13537 0.58046 0.0
H2224 H 0.14593 0.94013 0.77577 0.0
H2225 H 0.1315 0.89661 0.79584 0.0
H2226 H 0.13126 0.95421 0.79534 0.0
H2227 H 0.11699 0.91081 0.81589 0.0
H2228 H 0.1261 0.94689 0.85871 0.0
H2229 H 0.12932 0.92844 0.8375 0.0
H2230 H 0.10408 0.95893 0.80695 0.0
H2231 H 0.10073 0.97742 0.82818 0.0
C2232 C 0.1393 0.93361 0.78421 0.0
C2233 C 0.13983 0.91736 0.78441 0.0
C2234 C 0.13082 0.94164 0.79533 0.0
C2235 C 0.12297 0.93358 0.80708 0.0
C2236 C 0.1229 0.91726 0.80688 0.0
C2237 C 0.13113 0.90917 0.79545 0.0
C2238 C 0.12084 0.94946 0.8476 0.0
C2239 C 0.11345 0.96375 0.84502 0.0
C2240 C 0.12256 0.93882 0.8355 0.0
C2241 C 0.11708 0.94237 0.82058 0.0
C2242 C 0.10847 0.95599 0.81836 0.0
C2243 C 0.10656 0.96655 0.83052 0.0
H2244 H 0.651 0.40065 0.43725 0.0
H2245 H 0.65971 0.36792 0.47408 0.0
H2246 H 0.66407 0.38365 0.41887 0.0
H2247 H 0.67398 0.35152 0.45624 0.0
H2248 H 0.70059 0.32339 0.42313 0.0
H2249 H 0.67828 0.33515 0.43573 0.0
H2250 H 0.68927 0.37897 0.41374 0.0
H2251 H 0.71058 0.36699 0.40052 0.0
C2252 C 0.65563 0.3897 0.44132 0.0
C2253 C 0.65455 0.38559 0.45702 0.0
C2254 C 0.66327 0.38001 0.43087 0.0
C2255 C 0.67057 0.36634 0.43606 0.0
C2256 C 0.66848 0.3618 0.45165 0.0
C2257 C 0.66037 0.37126 0.46197 0.0
C2258 C 0.69795 0.33544 0.42078 0.0
C2259 C 0.70745 0.34429 0.41098 0.0
C2260 C 0.68523 0.34225 0.42808 0.0
C2261 C 0.68198 0.35815 0.42603 0.0
C2262 C 0.69106 0.36668 0.41552 0.0
C2263 C 0.7035 0.3598 0.40798 0.0
H2264 H 0.88997 0.47546 0.6675 0.0
H2265 H 0.86794 0.44772 0.63211 0.0
H2266 H 0.88373 0.45569 0.68688 0.0
H2267 H 0.86203 0.4279 0.65135 0.0
H2268 H 0.82958 0.41661 0.69233 0.0
H2269 H 0.84247 0.43073 0.67178 0.0
H2270 H 0.88542 0.42809 0.69702 0.0
H2271 H 0.87232 0.41383 0.71792 0.0
C2272 C 0.88424 0.46493 0.66377 0.0
C2273 C 0.8791 0.46329 0.64838 0.0
C2274 C 0.88072 0.45359 0.67486 0.0
C2275 C 0.87211 0.44042 0.67067 0.0
C2276 C 0.86837 0.43811 0.65497 0.0
C2277 C 0.87176 0.44945 0.64396 0.0
C2278 C 0.8418 0.41892 0.69351 0.0
C2279 C 0.8499 0.41427 0.70682 0.0
C2280 C 0.84924 0.42687 0.68162 0.0
C2281 C 0.86499 0.43045 0.68274 0.0
C2282 C 0.87326 0.42549 0.69588 0.0
C2283 C 0.86579 0.41731 0.70778 0.0
H2284 H 0.65038 0.55331 0.22285 0.0
H2285 H 0.6295 0.59606 0.20743 0.0
H2286 H 0.63668 0.53914 0.20251 0.0
H2287 H 0.61614 0.5819 0.18662 0.0
H2288 H 0.62759 0.54995 0.14043 0.0
H2289 H 0.63148 0.56664 0.16306 0.0
H2290 H 0.6076 0.53348 0.19185 0.0
H2291 H 0.60336 0.5169 0.16924 0.0
C2292 C 0.64254 0.55957 0.21532 0.0
C2293 C 0.6409 0.5757 0.21666 0.0
C2294 C 0.63469 0.55149 0.20375 0.0
C2295 C 0.62539 0.55948 0.19307 0.0
C2296 C 0.6232 0.57553 0.19481 0.0
C2297 C 0.63076 0.58357 0.2067 0.0
C2298 C 0.62281 0.54643 0.1515 0.0
C2299 C 0.61533 0.53205 0.1531 0.0
C2300 C 0.62494 0.55602 0.1644 0.0
C2301 C 0.61986 0.55126 0.17912 0.0
C2302 C 0.61158 0.53736 0.18058 0.0
C2303 C 0.60916 0.52792 0.16763 0.0
H2304 H 0.56681 0.71317 0.82557 0.0
H2305 H 0.59108 0.71567 0.86932 0.0
H2306 H 0.55103 0.69199 0.83577 0.0
H2307 H 0.57507 0.69526 0.87965 0.0
H2308 H 0.55097 0.65432 0.89562 0.0
H2309 H 0.56895 0.6691 0.87968 0.0
H2310 H 0.53066 0.68788 0.85355 0.0
H2311 H 0.51288 0.67213 0.86892 0.0
C2312 C 0.5688 0.7092 0.83733 0.0
C2313 C 0.58019 0.71615 0.84663 0.0
C2314 C 0.55973 0.69709 0.8432 0.0
C2315 C 0.56177 0.6918 0.85854 0.0
C2316 C 0.57336 0.69865 0.86766 0.0
C2317 C 0.5825 0.71054 0.86176 0.0
C2318 C 0.54653 0.66125 0.88611 0.0
C2319 C 0.53065 0.6622 0.88343 0.0
C2320 C 0.55677 0.66987 0.87709 0.0
C2321 C 0.55126 0.68007 0.86558 0.0
C2322 C 0.53537 0.68014 0.86223 0.0
C2323 C 0.52515 0.67116 0.87103 0.0
H2324 H 0.54407 0.32393 0.07306 0.0
H2325 H 0.53444 0.34613 0.11699 0.0
H2326 H 0.56628 0.31096 0.08466 0.0
H2327 H 0.55569 0.33261 0.12874 0.0
H2328 H 0.59506 0.31011 0.14951 0.0
H2329 H 0.58119 0.32811 0.13276 0.0
H2330 H 0.5711 0.29039 0.10112 0.0
H2331 H 0.58615 0.2729 0.1173 0.0
C2332 C 0.54674 0.32611 0.08515 0.0
C2333 C 0.5374 0.33596 0.09412 0.0
C2334 C 0.55942 0.3186 0.09185 0.0
C2335 C 0.56283 0.32054 0.10774 0.0
C2336 C 0.5538 0.33096 0.11644 0.0
C2337 C 0.5414 0.33867 0.10969 0.0
C2338 C 0.59024 0.30588 0.1387 0.0
C2339 C 0.59151 0.29019 0.13467 0.0
C2340 C 0.58212 0.31611 0.12916 0.0
C2341 C 0.57454 0.31069 0.11574 0.0
C2342 C 0.57679 0.29513 0.11124 0.0
C2343 C 0.58536 0.28502 0.12055 0.0
H2344 H 0.97104 0.33681 0.36604 0.0
H2345 H 0.94814 0.31527 0.40508 0.0
H2346 H 0.95242 0.32472 0.34839 0.0
H2347 H 0.92979 0.30326 0.38758 0.0
H2348 H 0.89222 0.2911 0.35601 0.0
H2349 H 0.9085 0.30962 0.36961 0.0
H2350 H 0.94681 0.29726 0.34012 0.0
H2351 H 0.9305 0.27882 0.32631 0.0
C2352 C 0.962 0.32961 0.37086 0.0
C2353 C 0.96115 0.32689 0.38694 0.0
C2354 C 0.95138 0.32269 0.36076 0.0
C2355 C 0.9396 0.31313 0.36662 0.0
C2356 C 0.93857 0.31077 0.38272 0.0
C2357 C 0.94922 0.31752 0.39275 0.0
C2358 C 0.90401 0.29255 0.35216 0.0
C2359 C 0.91013 0.28322 0.34026 0.0
C2360 C 0.91335 0.30314 0.36 0.0
C2361 C 0.929 0.30463 0.35614 0.0
C2362 C 0.93478 0.29636 0.34335 0.0
C2363 C 0.92542 0.28575 0.33546 0.0
H2364 H 0.96554 0.68006 0.57538 0.0
H2365 H 0.96561 0.65295 0.61761 0.0
H2366 H 0.94363 0.69499 0.58513 0.0
H2367 H 0.94455 0.66817 0.62758 0.0
H2368 H 0.90281 0.69149 0.64263 0.0
H2369 H 0.91882 0.67437 0.62694 0.0
H2370 H 0.938 0.71436 0.60345 0.0
H2371 H 0.92099 0.73127 0.61847 0.0
C2372 C 0.96085 0.67724 0.58669 0.0
C2373 C 0.96738 0.66532 0.59571 0.0
C2374 C 0.94835 0.68586 0.59233 0.0
C2375 C 0.94222 0.68286 0.60718 0.0
C2376 C 0.94859 0.67067 0.61596 0.0
C2377 C 0.96086 0.66196 0.61026 0.0
C2378 C 0.91018 0.6965 0.63379 0.0
C2379 C 0.9108 0.7126 0.63172 0.0
C2380 C 0.9195 0.68675 0.62491 0.0
C2381 C 0.93009 0.69295 0.61417 0.0
C2382 C 0.92998 0.70909 0.6115 0.0
C2383 C 0.92029 0.71882 0.62012 0.0
H2384 H 0.54824 0.32203 0.59284 0.0
H2385 H 0.51925 0.33365 0.63197 0.0
H2386 H 0.56475 0.30685 0.60967 0.0
H2387 H 0.53606 0.31831 0.64902 0.0
H2388 H 0.5578 0.26892 0.66307 0.0
H2389 H 0.54217 0.28957 0.65161 0.0
H2390 H 0.58306 0.30974 0.63139 0.0
H2391 H 0.59861 0.28909 0.64255 0.0
C2392 C 0.54545 0.32144 0.60509 0.0
C2393 C 0.53237 0.32894 0.61105 0.0
C2394 C 0.55502 0.31285 0.61478 0.0
C2395 C 0.55175 0.31146 0.63069 0.0
C2396 C 0.53882 0.31918 0.63679 0.0
C2397 C 0.52927 0.32798 0.62706 0.0
C2398 C 0.56349 0.27797 0.65648 0.0
C2399 C 0.57938 0.27718 0.6534 0.0
C2400 C 0.55454 0.28982 0.64997 0.0
C2401 C 0.56138 0.30107 0.64037 0.0
C2402 C 0.57744 0.30102 0.63846 0.0
C2403 C 0.58634 0.28918 0.64486 0.0
H2404 H 0.97378 0.30432 0.91314 0.0
H2405 H 0.9534 0.34502 0.89218 0.0
H2406 H 0.95418 0.28811 0.90082 0.0
H2407 H 0.93361 0.32871 0.88017 0.0
H2408 H 0.8957 0.28869 0.87058 0.0
H2409 H 0.91097 0.30441 0.88893 0.0
H2410 H 0.95283 0.28806 0.86743 0.0
H2411 H 0.93778 0.27292 0.84894 0.0
C2412 C 0.96487 0.30986 0.90631 0.0
C2413 C 0.96524 0.32592 0.90346 0.0
C2414 C 0.95367 0.30058 0.8993 0.0
C2415 C 0.94247 0.30724 0.88964 0.0
C2416 C 0.94209 0.32339 0.88772 0.0
C2417 C 0.95346 0.33266 0.89449 0.0
C2418 C 0.90816 0.28843 0.86991 0.0
C2419 C 0.91561 0.27973 0.85833 0.0
C2420 C 0.91683 0.29737 0.88034 0.0
C2421 C 0.93299 0.29726 0.87956 0.0
C2422 C 0.94037 0.28818 0.8683 0.0
C2423 C 0.93177 0.27964 0.85768 0.0
H2424 H 0.9368 0.65271 0.09685 0.0
H2425 H 0.9723 0.6625 0.13043 0.0
H2426 H 0.91779 0.6653 0.11343 0.0
H2427 H 0.95382 0.6764 0.14643 0.0
H2428 H 0.91945 0.70215 0.17387 0.0
H2429 H 0.93306 0.68021 0.16236 0.0
H2430 H 0.91159 0.69031 0.11811 0.0
H2431 H 0.89739 0.71118 0.12982 0.0
C2432 C 0.94044 0.65747 0.1079 0.0
C2433 C 0.95592 0.6568 0.1124 0.0
C2434 C 0.92962 0.66487 0.11735 0.0
C2435 C 0.93424 0.67236 0.13115 0.0
C2436 C 0.94966 0.67073 0.13604 0.0
C2437 C 0.96034 0.66283 0.12683 0.0
C2438 C 0.91741 0.69937 0.16178 0.0
C2439 C 0.90746 0.70852 0.15274 0.0
C2440 C 0.92532 0.68687 0.15511 0.0
C2441 C 0.92371 0.68349 0.13917 0.0
C2442 C 0.91306 0.69219 0.13044 0.0
C2443 C 0.90493 0.70438 0.13717 0.0
H2444 H 0.52413 0.68647 0.41366 0.0
H2445 H 0.53864 0.64505 0.3894 0.0
H2446 H 0.54492 0.70101 0.40126 0.0
H2447 H 0.55945 0.65952 0.37726 0.0
H2448 H 0.57217 0.69597 0.33991 0.0
H2449 H 0.55709 0.67939 0.35686 0.0
H2450 H 0.57336 0.70484 0.39684 0.0
H2451 H 0.58853 0.72169 0.37972 0.0
C2452 C 0.53198 0.68037 0.40602 0.0
C2453 C 0.52952 0.66469 0.40226 0.0
C2454 C 0.54393 0.68869 0.39896 0.0
C2455 C 0.55363 0.68145 0.38808 0.0
C2456 C 0.55194 0.66548 0.38535 0.0
C2457 C 0.54001 0.65719 0.39233 0.0
C2458 C 0.57268 0.69798 0.35232 0.0
C2459 C 0.58145 0.71022 0.35846 0.0
C2460 C 0.56414 0.68837 0.36206 0.0
C2461 C 0.56408 0.69079 0.37819 0.0
C2462 C 0.57316 0.70277 0.38443 0.0
C2463 C 0.58188 0.71234 0.37465 0.0
H2464 H 0.81866 0.56292 0.71397 0.0
H2465 H 0.85259 0.59831 0.70395 0.0
H2466 H 0.82639 0.54893 0.69066 0.0
H2467 H 0.86009 0.58442 0.68056 0.0
H2468 H 0.83773 0.53134 0.64266 0.0
H2469 H 0.8276 0.54917 0.66212 0.0
H2470 H 0.87401 0.56015 0.67653 0.0
H2471 H 0.88417 0.54262 0.65698 0.0
C2472 C 0.82757 0.56787 0.70667 0.0
C2473 C 0.83516 0.58162 0.71097 0.0
C2474 C 0.83194 0.55988 0.69326 0.0
C2475 C 0.84396 0.5655 0.68387 0.0
C2476 C 0.85098 0.57967 0.68773 0.0
C2477 C 0.84664 0.58764 0.70112 0.0
C2478 C 0.84579 0.53772 0.64982 0.0
C2479 C 0.86177 0.53544 0.64833 0.0
C2480 C 0.83997 0.54787 0.66102 0.0
C2481 C 0.85 0.55599 0.6709 0.0
C2482 C 0.86598 0.55419 0.66898 0.0
C2483 C 0.8718 0.54403 0.65783 0.0
H2484 H 0.69986 0.65925 0.92502 0.0
H2485 H 0.7246 0.61904 0.90831 0.0
H2486 H 0.68242 0.64253 0.93928 0.0
H2487 H 0.70684 0.60215 0.92262 0.0
H2488 H 0.68596 0.58407 0.97053 0.0
H2489 H 0.70174 0.5969 0.95086 0.0
H2490 H 0.6621 0.62309 0.93565 0.0
H2491 H 0.64639 0.61053 0.95537 0.0
C2492 C 0.70149 0.64681 0.92426 0.0
C2493 C 0.7137 0.64048 0.91562 0.0
C2494 C 0.69138 0.6372 0.93233 0.0
C2495 C 0.69323 0.62101 0.93203 0.0
C2496 C 0.7052 0.6146 0.9231 0.0
C2497 C 0.71529 0.62425 0.91487 0.0
C2498 C 0.68054 0.59234 0.96278 0.0
C2499 C 0.665 0.59651 0.96473 0.0
C2500 C 0.68957 0.59963 0.95147 0.0
C2501 C 0.68319 0.61118 0.9419 0.0
C2502 C 0.66739 0.61447 0.94309 0.0
C2503 C 0.6584 0.60725 0.95439 0.0
H2504 H 0.6803 0.42192 0.20721 0.0
H2505 H 0.63204 0.41463 0.217 0.0
H2506 H 0.67351 0.43574 0.18347 0.0
H2507 H 0.62517 0.42919 0.19395 0.0
H2508 H 0.61488 0.4478 0.14726 0.0
H2509 H 0.62387 0.42996 0.16724 0.0
H2510 H 0.66371 0.45919 0.17492 0.0
H2511 H 0.65517 0.47633 0.15425 0.0
C2512 C 0.66824 0.42338 0.20432 0.0
C2513 C 0.6567 0.41724 0.21395 0.0
C2514 C 0.66432 0.43136 0.19075 0.0
C2515 C 0.64876 0.43366 0.1867 0.0
C2516 C 0.63727 0.42739 0.19638 0.0
C2517 C 0.6412 0.41914 0.20973 0.0
C2518 C 0.6257 0.4502 0.15307 0.0
C2519 C 0.63431 0.46344 0.14927 0.0
C2520 C 0.6308 0.44008 0.16463 0.0
C2521 C 0.64441 0.44322 0.17297 0.0
C2522 C 0.65329 0.45621 0.16869 0.0
C2523 C 0.64837 0.46611 0.15686 0.0
H2524 H 0.77061 0.38043 0.40855 0.0
H2525 H 0.79379 0.34005 0.42704 0.0
H2526 H 0.78914 0.39721 0.42203 0.0
H2527 H 0.81198 0.35664 0.4404 0.0
H2528 H 0.84905 0.38702 0.4558 0.0
H2529 H 0.83312 0.37509 0.43585 0.0
H2530 H 0.79452 0.4033 0.4501 0.0
H2531 H 0.8105 0.41549 0.46994 0.0
C2532 C 0.77971 0.37515 0.41535 0.0
C2533 C 0.78064 0.35892 0.41687 0.0
C2534 C 0.79026 0.38474 0.42307 0.0
C2535 C 0.80205 0.37824 0.43219 0.0
C2536 C 0.8032 0.36202 0.43327 0.0
C2537 C 0.79263 0.3525 0.42574 0.0
C2538 C 0.83726 0.39094 0.45449 0.0
C2539 C 0.83095 0.40197 0.4647 0.0
C2540 C 0.82814 0.38408 0.44307 0.0
C2541 C 0.8125 0.38803 0.44164 0.0
C2542 C 0.80654 0.40003 0.45091 0.0
C2543 C 0.8157 0.40696 0.46233 0.0
H2544 H 0.86117 0.4119 0.77949 0.0
H2545 H 0.81305 0.42071 0.78873 0.0
H2546 H 0.86828 0.42734 0.80188 0.0
H2547 H 0.82007 0.43549 0.8118 0.0
H2548 H 0.83918 0.47746 0.83846 0.0
H2549 H 0.83046 0.45937 0.81867 0.0
H2550 H 0.86939 0.42961 0.82861 0.0
H2551 H 0.87855 0.44827 0.84771 0.0
C2552 C 0.85208 0.41689 0.78652 0.0
C2553 C 0.83655 0.41519 0.78229 0.0
C2554 C 0.85615 0.42567 0.79948 0.0
C2555 C 0.84477 0.43273 0.80874 0.0
C2556 C 0.82918 0.43052 0.8048 0.0
C2557 C 0.82513 0.42197 0.79162 0.0
C2558 C 0.84575 0.46695 0.83651 0.0
C2559 C 0.8596 0.46432 0.84449 0.0
C2560 C 0.84072 0.4565 0.82521 0.0
C2561 C 0.84927 0.44303 0.82187 0.0
C2562 C 0.86271 0.44004 0.83053 0.0
C2563 C 0.86791 0.45066 0.84157 0.0
H2564 H 0.80016 0.65405 0.08484 0.0
H2565 H 0.76305 0.62309 0.07268 0.0
H2566 H 0.81825 0.63786 0.07058 0.0
H2567 H 0.78084 0.60739 0.05729 0.0
H2568 H 0.81765 0.57846 0.03396 0.0
H2569 H 0.80182 0.59048 0.05416 0.0
H2570 H 0.8235 0.6347 0.04463 0.0
H2571 H 0.83965 0.62262 0.02537 0.0
C2572 C 0.79594 0.6437 0.0791 0.0
C2573 C 0.78029 0.63983 0.07964 0.0
C2574 C 0.80624 0.63447 0.0708 0.0
C2575 C 0.80098 0.62151 0.06238 0.0
C2576 C 0.78537 0.61721 0.06367 0.0
C2577 C 0.77513 0.62622 0.07239 0.0
C2578 C 0.8191 0.59071 0.03639 0.0
C2579 C 0.82993 0.59957 0.02811 0.0
C2580 C 0.80999 0.59762 0.0479 0.0
C2581 C 0.81139 0.61358 0.05116 0.0
C2582 C 0.82233 0.62231 0.04287 0.0
C2583 C 0.83156 0.61538 0.03165 0.0
H2584 H 0.68322 0.56542 0.28239 0.0
H2585 H 0.64901 0.60003 0.29396 0.0
H2586 H 0.67622 0.55073 0.30545 0.0
H2587 H 0.64233 0.5855 0.31725 0.0
H2588 H 0.66415 0.52972 0.35195 0.0
H2589 H 0.67467 0.54859 0.33361 0.0
H2590 H 0.62846 0.56145 0.32009 0.0
H2591 H 0.61799 0.54304 0.33851 0.0
C2592 C 0.67448 0.57011 0.29005 0.0
C2593 C 0.66646 0.58375 0.28616 0.0
C2594 C 0.67052 0.56171 0.30333 0.0
C2595 C 0.65854 0.56682 0.31304 0.0
C2596 C 0.65137 0.58108 0.30979 0.0
C2597 C 0.65524 0.58943 0.29647 0.0
C2598 C 0.65625 0.53671 0.34518 0.0
C2599 C 0.64022 0.53475 0.34663 0.0
C2600 C 0.66228 0.54748 0.33465 0.0
C2601 C 0.65241 0.55654 0.32541 0.0
C2602 C 0.63641 0.55487 0.32721 0.0
C2603 C 0.6304 0.54415 0.33769 0.0
H2604 H 0.68957 0.41225 0.52084 0.0
H2605 H 0.65033 0.38635 0.53782 0.0
H2606 H 0.70611 0.39887 0.53952 0.0
H2607 H 0.66682 0.37321 0.55645 0.0
H2608 H 0.70374 0.33658 0.56606 0.0
H2609 H 0.68707 0.3535 0.55118 0.0
H2610 H 0.71173 0.39356 0.56822 0.0
H2611 H 0.72872 0.37648 0.58325 0.0
C2612 C 0.68441 0.40396 0.52874 0.0
C2613 C 0.66868 0.40015 0.52763 0.0
C2614 C 0.69388 0.39635 0.53947 0.0
C2615 C 0.68777 0.38483 0.54923 0.0
C2616 C 0.67188 0.38182 0.54883 0.0
C2617 C 0.66244 0.38938 0.53816 0.0
C2618 C 0.70568 0.34898 0.56671 0.0
C2619 C 0.71761 0.35517 0.57585 0.0
C2620 C 0.69601 0.3587 0.55826 0.0
C2621 C 0.69801 0.37485 0.55867 0.0
C2622 C 0.70996 0.38113 0.56771 0.0
C2623 C 0.71962 0.37136 0.57633 0.0
H2624 H 0.70595 0.82706 0.57326 0.0
H2625 H 0.7116 0.87111 0.5965 0.0
H2626 H 0.68386 0.83741 0.55913 0.0
H2627 H 0.69036 0.8817 0.5819 0.0
H2628 H 0.65056 0.89986 0.55762 0.0
H2629 H 0.66478 0.88392 0.57608 0.0
H2630 H 0.67916 0.85391 0.53844 0.0
H2631 H 0.66386 0.86927 0.52038 0.0
C2632 C 0.70242 0.83891 0.57543 0.0
C2633 C 0.71062 0.84828 0.58593 0.0
C2634 C 0.6898 0.84491 0.56725 0.0
C2635 C 0.68528 0.86049 0.56917 0.0
C2636 C 0.69315 0.86958 0.58021 0.0
C2637 C 0.70552 0.86352 0.58857 0.0
C2638 C 0.65638 0.88953 0.55348 0.0
C2639 C 0.65622 0.88575 0.53766 0.0
C2640 C 0.66472 0.88049 0.56399 0.0
C2641 C 0.67357 0.86781 0.55877 0.0
C2642 C 0.67247 0.86347 0.54302 0.0
C2643 C 0.66373 0.87228 0.53259 0.0
H2644 H 0.21788 0.6638 0.43623 0.0
H2645 H 0.20223 0.64174 0.39403 0.0
H2646 H 0.19745 0.65072 0.45071 0.0
H2647 H 0.18167 0.62901 0.4084 0.0
H2648 H 0.16955 0.58977 0.44274 0.0
H2649 H 0.18387 0.60768 0.42658 0.0
H2650 H 0.16964 0.64585 0.45578 0.0
H2651 H 0.15532 0.62768 0.47229 0.0
C2652 C 0.20983 0.65651 0.42997 0.0
C2653 C 0.21187 0.65355 0.41405 0.0
C2654 C 0.19808 0.64906 0.43826 0.0
C2655 C 0.18812 0.6386 0.43074 0.0
C2656 C 0.18939 0.63672 0.41458 0.0
C2657 C 0.20116 0.64404 0.40635 0.0
C2658 C 0.16929 0.602 0.44566 0.0
C2659 C 0.1614 0.60728 0.45889 0.0
C2660 C 0.1774 0.61232 0.43628 0.0
C2661 C 0.17789 0.62821 0.43987 0.0
C2662 C 0.16955 0.63364 0.45278 0.0
C2663 C 0.16128 0.62327 0.46217 0.0
H2664 H 0.59183 0.89054 0.71331 0.0
H2665 H 0.63784 0.90886 0.7072 0.0
H2666 H 0.58192 0.90998 0.69533 0.0
H2667 H 0.62786 0.92841 0.68956 0.0
H2668 H 0.56952 0.96094 0.68274 0.0
H2669 H 0.57829 0.93804 0.69666 0.0
H2670 H 0.61605 0.93299 0.66436 0.0
H2671 H 0.60748 0.95609 0.65054 0.0
C2672 C 0.59986 0.89859 0.70805 0.0
C2673 C 0.61562 0.89822 0.71184 0.0
C2674 C 0.59416 0.90978 0.69781 0.0
C2675 C 0.60409 0.9208 0.69112 0.0
C2676 C 0.61992 0.92 0.6944 0.0
C2677 C 0.62563 0.90884 0.70462 0.0
C2678 C 0.57961 0.95489 0.67849 0.0
C2679 C 0.5879 0.9605 0.66563 0.0
C2680 C 0.58458 0.94168 0.68642 0.0
C2681 C 0.59791 0.93376 0.68165 0.0
C2682 C 0.60586 0.93899 0.66844 0.0
C2683 C 0.60091 0.95222 0.66051 0.0
H2684 H 0.34075 0.39703 0.93906 0.0
H2685 H 0.32885 0.36831 0.97825 0.0
H2686 H 0.32554 0.38043 0.92205 0.0
H2687 H 0.31253 0.35233 0.96162 0.0
H2688 H 0.28537 0.32353 0.92751 0.0
H2689 H 0.30714 0.3348 0.94161 0.0
H2690 H 0.29956 0.37844 0.91794 0.0
H2691 H 0.27874 0.36704 0.90348 0.0
C2692 C 0.33496 0.38701 0.94394 0.0
C2693 C 0.33582 0.38391 0.95987 0.0
C2694 C 0.32609 0.37758 0.93429 0.0
C2695 C 0.31737 0.36526 0.94049 0.0
C2696 C 0.31909 0.36162 0.95635 0.0
C2697 C 0.32839 0.37079 0.96593 0.0
C2698 C 0.28856 0.33546 0.92523 0.0
C2699 C 0.28034 0.34436 0.91436 0.0
C2700 C 0.301 0.34196 0.93335 0.0
C2701 C 0.30527 0.35756 0.93091 0.0
C2702 C 0.29705 0.36629 0.91988 0.0
C2703 C 0.28491 0.35976 0.91164 0.0
H2704 H 0.39475 0.54324 0.64876 0.0
H2705 H 0.42981 0.53285 0.68291 0.0
H2706 H 0.38712 0.56595 0.66371 0.0
H2707 H 0.42189 0.55532 0.698 0.0
H2708 H 0.36302 0.58698 0.70638 0.0
H2709 H 0.37361 0.56852 0.68808 0.0
H2710 H 0.41969 0.58346 0.6998 0.0
H2711 H 0.40907 0.60184 0.71856 0.0
C2712 C 0.40091 0.54585 0.65938 0.0
C2713 C 0.41273 0.53608 0.66476 0.0
C2714 C 0.39651 0.55885 0.66796 0.0
C2715 C 0.40376 0.5623 0.68214 0.0
C2716 C 0.41615 0.55305 0.68707 0.0
C2717 C 0.42062 0.54009 0.67845 0.0
C2718 C 0.37542 0.58645 0.70505 0.0
C2719 C 0.3852 0.59582 0.71407 0.0
C2720 C 0.38149 0.57594 0.6944 0.0
C2721 C 0.39749 0.57455 0.69245 0.0
C2722 C 0.4073 0.58418 0.70116 0.0
C2723 C 0.40122 0.59474 0.71186 0.0
H2724 H 0.7864 0.12923 0.10021 0.0
H2725 H 0.78907 0.17122 0.07285 0.0
H2726 H 0.8077 0.11848 0.08607 0.0
H2727 H 0.81138 0.16074 0.05916 0.0
H2728 H 0.83012 0.12604 0.02227 0.0
H2729 H 0.81571 0.14273 0.03982 0.0
H2730 H 0.83274 0.1162 0.07895 0.0
H2731 H 0.84595 0.09877 0.06105 0.0
C2732 C 0.79182 0.1364 0.09144 0.0
C2733 C 0.78575 0.15099 0.08747 0.0
C2734 C 0.80429 0.13024 0.08336 0.0
C2735 C 0.81133 0.1386 0.07124 0.0
C2736 C 0.80605 0.15376 0.06812 0.0
C2737 C 0.79331 0.15984 0.07607 0.0
C2738 C 0.83097 0.12405 0.03467 0.0
C2739 C 0.83889 0.1111 0.04039 0.0
C2740 C 0.82279 0.13367 0.0448 0.0
C2741 C 0.82269 0.13069 0.0609 0.0
C2742 C 0.83201 0.11857 0.06663 0.0
C2743 C 0.83974 0.10866 0.05644 0.0
H2744 H 0.56945 0.02941 0.80913 0.0
H2745 H 0.6062 0.03499 0.8426 0.0
H2746 H 0.57894 0.05192 0.79491 0.0
H2747 H 0.61544 0.0576 0.82854 0.0
H2748 H 0.63857 0.08256 0.78728 0.0
H2749 H 0.62814 0.06231 0.80385 0.0
H2750 H 0.58218 0.0801 0.79649 0.0
H2751 H 0.59253 0.10023 0.77958 0.0
C2752 C 0.57946 0.0355 0.81354 0.0
C2753 C 0.58715 0.03028 0.82691 0.0
C2754 C 0.58483 0.04846 0.80545 0.0
C2755 C 0.59798 0.05649 0.81058 0.0
C2756 C 0.60543 0.05151 0.82416 0.0
C2757 C 0.60009 0.03855 0.83223 0.0
C2758 C 0.62625 0.08228 0.78928 0.0
C2759 C 0.61638 0.09296 0.78196 0.0
C2760 C 0.62028 0.0707 0.79886 0.0
C2761 C 0.60433 0.06955 0.80139 0.0
C2762 C 0.59451 0.08055 0.79455 0.0
C2763 C 0.60047 0.09215 0.78495 0.0
H2764 H 0.93374 0.96273 0.32448 0.0
H2765 H 0.88552 0.96874 0.33537 0.0
H2766 H 0.92759 0.9394 0.3097 0.0
H2767 H 0.87924 0.94609 0.31998 0.0
H2768 H 0.87128 0.89951 0.29997 0.0
H2769 H 0.87999 0.91935 0.31801 0.0
H2770 H 0.91649 0.93187 0.28613 0.0
H2771 H 0.90826 0.91128 0.26859 0.0
C2772 C 0.92183 0.95906 0.3237 0.0
C2773 C 0.91011 0.96755 0.33107 0.0
C2774 C 0.91827 0.94575 0.31514 0.0
C2775 C 0.90289 0.94083 0.31356 0.0
C2776 C 0.89125 0.94926 0.32118 0.0
C2777 C 0.89483 0.96235 0.32995 0.0
C2778 C 0.88127 0.90641 0.29695 0.0
C2779 C 0.88905 0.90398 0.28288 0.0
C2780 C 0.88622 0.91787 0.30722 0.0
C2781 C 0.89882 0.92743 0.30347 0.0
C2782 C 0.90687 0.92464 0.28955 0.0
C2783 C 0.90213 0.9129 0.27943 0.0
H2784 H 0.45874 0.34741 0.12145 0.0
H2785 H 0.4758 0.30523 0.10049 0.0
H2786 H 0.44221 0.33188 0.13877 0.0
H2787 H 0.45977 0.28991 0.11796 0.0
H2788 H 0.44082 0.26749 0.16131 0.0
H2789 H 0.45787 0.28688 0.1498 0.0
H2790 H 0.41862 0.31071 0.13047 0.0
H2791 H 0.40144 0.29117 0.14171 0.0
C2792 C 0.45908 0.33486 0.12069 0.0
C2793 C 0.46844 0.32749 0.1096 0.0
C2794 C 0.44967 0.32604 0.13054 0.0
C2795 C 0.44989 0.30977 0.1297 0.0
C2796 C 0.45955 0.30245 0.11891 0.0
C2797 C 0.46861 0.31121 0.10885 0.0
C2798 C 0.43575 0.27706 0.15495 0.0
C2799 C 0.41979 0.27769 0.15224 0.0
C2800 C 0.44553 0.28812 0.14837 0.0
C2801 C 0.43949 0.30017 0.13925 0.0
C2802 C 0.42348 0.30154 0.13755 0.0
C2803 C 0.4137 0.29032 0.14389 0.0
H2804 H 0.40068 0.72299 0.88068 0.0
H2805 H 0.41481 0.69394 0.84232 0.0
H2806 H 0.41563 0.70677 0.89849 0.0
H2807 H 0.42973 0.67796 0.85998 0.0
H2808 H 0.45001 0.64638 0.89406 0.0
H2809 H 0.42854 0.65984 0.8819 0.0
H2810 H 0.44396 0.70304 0.90202 0.0
H2811 H 0.46539 0.68953 0.91444 0.0
C2812 C 0.40672 0.71299 0.87609 0.0
C2813 C 0.40669 0.70983 0.86007 0.0
C2814 C 0.41534 0.70378 0.88628 0.0
C2815 C 0.42388 0.69113 0.88064 0.0
C2816 C 0.42313 0.68751 0.86474 0.0
C2817 C 0.41467 0.69676 0.85458 0.0
C2818 C 0.44868 0.65871 0.89616 0.0
C2819 C 0.45959 0.66696 0.90496 0.0
C2820 C 0.43637 0.6664 0.88916 0.0
C2821 C 0.43473 0.68253 0.89077 0.0
C2822 C 0.4449 0.69059 0.90061 0.0
C2823 C 0.45721 0.68286 0.90768 0.0
H2824 H 0.05349 0.67124 0.59647 0.0
H2825 H 0.02615 0.65466 0.63502 0.0
H2826 H 0.06999 0.68524 0.61431 0.0
H2827 H 0.04295 0.66868 0.65305 0.0
H2828 H 0.06119 0.71781 0.67106 0.0
H2829 H 0.04719 0.69678 0.65841 0.0
H2830 H 0.08893 0.68253 0.63513 0.0
H2831 H 0.10287 0.70368 0.64751 0.0
C2832 C 0.05111 0.67041 0.60879 0.0
C2833 C 0.0384 0.66197 0.6143 0.0
C2834 C 0.06069 0.67832 0.61906 0.0
C2835 C 0.0578 0.67804 0.63511 0.0
C2836 C 0.04541 0.66916 0.64073 0.0
C2837 C 0.03584 0.6611 0.63041 0.0
C2838 C 0.06748 0.70993 0.66359 0.0
C2839 C 0.08305 0.71262 0.66 0.0
C2840 C 0.05946 0.69784 0.65637 0.0
C2841 C 0.0669 0.68822 0.64553 0.0
C2842 C 0.08282 0.68999 0.64316 0.0
C2843 C 0.0908 0.70209 0.65029 0.0
H2844 H 0.09458 0.31014 0.34716 0.0
H2845 H 0.08579 0.27071 0.37668 0.0
H2846 H 0.07932 0.32653 0.36432 0.0
H2847 H 0.06943 0.28659 0.39319 0.0
H2848 H 0.04076 0.31759 0.42252 0.0
H2849 H 0.06356 0.30589 0.41074 0.0
H2850 H 0.05359 0.33006 0.36782 0.0
H2851 H 0.03173 0.34234 0.37984 0.0
C2852 C 0.08944 0.30506 0.35744 0.0
C2853 C 0.09119 0.28921 0.36059 0.0
C2854 C 0.08055 0.31437 0.36721 0.0
C2855 C 0.0727 0.30787 0.37999 0.0
C2856 C 0.07532 0.29215 0.38361 0.0
C2857 C 0.08464 0.28296 0.37409 0.0
C2858 C 0.04369 0.32058 0.41066 0.0
C2859 C 0.03438 0.3308 0.4021 0.0
C2860 C 0.0567 0.3138 0.40385 0.0
C2861 C 0.06047 0.31685 0.38822 0.0
C2862 C 0.05142 0.32758 0.37994 0.0
C2863 C 0.03868 0.33457 0.38683 0.0
H2864 H 0.42634 0.71299 0.324 0.0
H2865 H 0.40189 0.71845 0.36736 0.0
H2866 H 0.44042 0.69098 0.33494 0.0
H2867 H 0.41639 0.69739 0.37851 0.0
H2868 H 0.43812 0.65574 0.3964 0.0
H2869 H 0.42109 0.67139 0.38027 0.0
H2870 H 0.46016 0.68537 0.35229 0.0
H2871 H 0.4768 0.6686 0.36776 0.0
C2872 C 0.42397 0.70948 0.33584 0.0
C2873 C 0.413 0.71746 0.3448 0.0
C2874 C 0.43209 0.69692 0.34216 0.0
C2875 C 0.42959 0.69227 0.35765 0.0
C2876 C 0.41842 0.7002 0.36643 0.0
C2877 C 0.41014 0.71248 0.36005 0.0
C2878 C 0.44289 0.66186 0.3865 0.0
C2879 C 0.45868 0.6611 0.38328 0.0
C2880 C 0.43321 0.67099 0.37736 0.0
C2881 C 0.43925 0.68008 0.36518 0.0
C2882 C 0.45499 0.67852 0.36145 0.0
C2883 C 0.46458 0.66896 0.37034 0.0
H2884 H 0.03509 0.67893 0.07909 0.0
H2885 H 0.02262 0.66021 0.12386 0.0
H2886 H 0.05646 0.69303 0.09108 0.0
H2887 H 0.04302 0.6749 0.13599 0.0
H2888 H 0.08594 0.6938 0.15507 0.0
H2889 H 0.06893 0.67711 0.14007 0.0
H2890 H 0.06232 0.71413 0.10671 0.0
H2891 H 0.08037 0.73023 0.12119 0.0
C2892 C 0.03688 0.67794 0.0915 0.0
C2893 C 0.0273 0.66845 0.10055 0.0
C2894 C 0.04906 0.68606 0.09841 0.0
C2895 C 0.05162 0.68508 0.11455 0.0
C2896 C 0.04184 0.67563 0.1235 0.0
C2897 C 0.02998 0.66728 0.11656 0.0
C2898 C 0.08098 0.69821 0.1444 0.0
C2899 C 0.08428 0.71327 0.1393 0.0
C2900 C 0.07112 0.68873 0.13584 0.0
C2901 C 0.06389 0.69434 0.1223 0.0
C2902 C 0.06772 0.70929 0.11695 0.0
C2903 C 0.07798 0.71859 0.12528 0.0
H2904 H 0.10069 0.29256 0.85228 0.0
H2905 H 0.05904 0.27793 0.82903 0.0
H2906 H 0.0867 0.31385 0.86437 0.0
H2907 H 0.04494 0.299 0.84147 0.0
H2908 H 0.02296 0.34041 0.86453 0.0
H2909 H 0.04004 0.32666 0.84655 0.0
H2910 H 0.06826 0.31207 0.88522 0.0
H2911 H 0.05155 0.32588 0.90297 0.0
C2912 C 0.08859 0.29404 0.84955 0.0
C2913 C 0.08089 0.28337 0.83996 0.0
C2914 C 0.08057 0.30622 0.8565 0.0
C2915 C 0.06464 0.3079 0.85417 0.0
C2916 C 0.05721 0.29806 0.8435 0.0
C2917 C 0.06529 0.28593 0.8364 0.0
C2918 C 0.033 0.33451 0.86912 0.0
C2919 C 0.0358 0.33408 0.8852 0.0
C2920 C 0.04272 0.32658 0.85883 0.0
C2921 C 0.05549 0.31824 0.86444 0.0
C2922 C 0.05867 0.31854 0.88044 0.0
C2923 C 0.04897 0.32635 0.89067 0.0
H2924 H 0.45269 0.35453 0.60146 0.0
H2925 H 0.46517 0.31163 0.57873 0.0
H2926 H 0.43042 0.34186 0.61308 0.0
H2927 H 0.44304 0.29887 0.59063 0.0
H2928 H 0.40125 0.27891 0.61311 0.0
H2929 H 0.41501 0.29602 0.59523 0.0
H2930 H 0.4315 0.32295 0.63415 0.0
H2931 H 0.4177 0.30611 0.65191 0.0
C2932 C 0.45049 0.34246 0.59869 0.0
C2933 C 0.46086 0.33395 0.58948 0.0
C2934 C 0.43775 0.33522 0.60536 0.0
C2935 C 0.43518 0.31931 0.60304 0.0
C2936 C 0.44469 0.31117 0.5926 0.0
C2937 C 0.45741 0.31846 0.58583 0.0
C2938 C 0.40752 0.28872 0.61781 0.0
C2939 C 0.40859 0.29102 0.63395 0.0
C2940 C 0.41544 0.29845 0.60756 0.0
C2941 C 0.42442 0.31075 0.61328 0.0
C2942 C 0.42456 0.31368 0.62934 0.0
C2943 C 0.41675 0.30392 0.63956 0.0
H2944 H 0.11957 0.46812 0.33456 0.0
H2945 H 0.07851 0.44009 0.33012 0.0
H2946 H 0.13443 0.44796 0.3211 0.0
H2947 H 0.09315 0.42028 0.31674 0.0
H2948 H 0.14277 0.41941 0.27396 0.0
H2949 H 0.13473 0.438 0.29375 0.0
H2950 H 0.11347 0.40093 0.31984 0.0
H2951 H 0.12116 0.38243 0.29992 0.0
C2952 C 0.11378 0.45761 0.33091 0.0
C2953 C 0.09784 0.45576 0.33325 0.0
C2954 C 0.12226 0.44611 0.32318 0.0
C2955 C 0.11498 0.43251 0.31792 0.0
C2956 C 0.09919 0.43049 0.32085 0.0
C2957 C 0.09074 0.44196 0.32838 0.0
C2958 C 0.13676 0.41517 0.28413 0.0
C2959 C 0.13226 0.39953 0.28521 0.0
C2960 C 0.1322 0.42582 0.29551 0.0
C2961 C 0.12317 0.42096 0.30816 0.0
C2962 C 0.1201 0.40506 0.31001 0.0
C2963 C 0.12453 0.39447 0.29862 0.0
H2964 H 0.3104 0.41564 0.02671 0.0
H2965 H 0.34942 0.38661 0.03824 0.0
H2966 H 0.29528 0.40289 0.0469 0.0
H2967 H 0.33431 0.37404 0.05842 0.0
H2968 H 0.29524 0.33988 0.07116 0.0
H2969 H 0.31233 0.35587 0.05558 0.0
H2970 H 0.29233 0.39724 0.07545 0.0
H2971 H 0.27501 0.38119 0.09109 0.0
C2972 C 0.31587 0.4068 0.03375 0.0
C2973 C 0.33104 0.40196 0.03064 0.0
C2974 C 0.30721 0.39954 0.04535 0.0
C2975 C 0.31356 0.38731 0.05404 0.0
C2976 C 0.32904 0.38324 0.05168 0.0
C2977 C 0.3377 0.39049 0.04013 0.0
C2978 C 0.29449 0.35238 0.0723 0.0
C2979 C 0.28369 0.35925 0.08231 0.0
C2980 C 0.3044 0.36154 0.06347 0.0
C2981 C 0.30371 0.3778 0.06437 0.0
C2982 C 0.29306 0.38473 0.0745 0.0
C2983 C 0.2832 0.37553 0.08348 0.0
H2984 H 0.40854 0.55587 0.83515 0.0
H2985 H 0.3675 0.52757 0.8336 0.0
H2986 H 0.39534 0.57631 0.82121 0.0
H2987 H 0.35403 0.54835 0.81953 0.0
H2988 H 0.35209 0.57827 0.77226 0.0
H2989 H 0.35702 0.5592 0.79266 0.0
H2990 H 0.37478 0.59551 0.82224 0.0
H2991 H 0.37028 0.61444 0.80173 0.0
C2992 C 0.39658 0.55412 0.832 0.0
C2993 C 0.38911 0.54006 0.83529 0.0
C2994 C 0.38893 0.56592 0.82415 0.0
C2995 C 0.3736 0.56398 0.81929 0.0
C2996 C 0.36586 0.55014 0.8231 0.0
C2997 C 0.37353 0.5383 0.83119 0.0
C2998 C 0.35659 0.58223 0.7833 0.0
C2999 C 0.36117 0.59775 0.78529 0.0
C3000 C 0.35937 0.57131 0.79501 0.0
C3001 C 0.36663 0.57581 0.80891 0.0
C3002 C 0.36953 0.59164 0.8115 0.0
C3003 C 0.36693 0.60248 0.79977 0.0
H3004 H 0.1973 0.65212 0.57023 0.0
H3005 H 0.2233 0.61298 0.58755 0.0
H3006 H 0.18107 0.63469 0.55539 0.0
H3007 H 0.20679 0.59538 0.57261 0.0
H3008 H 0.18746 0.57692 0.52391 0.0
H3009 H 0.20239 0.59008 0.54403 0.0
H3010 H 0.16146 0.61425 0.55907 0.0
H3011 H 0.14658 0.60134 0.53895 0.0
C3012 C 0.1995 0.63976 0.57097 0.0
C3013 C 0.21167 0.63395 0.58001 0.0
C3014 C 0.19007 0.62975 0.56256 0.0
C3015 C 0.19259 0.61365 0.56292 0.0
C3016 C 0.20462 0.60775 0.57211 0.0
C3017 C 0.21402 0.61781 0.58069 0.0
C3018 C 0.18157 0.58476 0.53174 0.0
C3019 C 0.1659 0.58832 0.52961 0.0
C3020 C 0.19013 0.59226 0.5433 0.0
C3021 C 0.18313 0.6034 0.55291 0.0
C3022 C 0.16721 0.60597 0.5516 0.0
C3023 C 0.15869 0.59853 0.54008 0.0
H3024 H 0.12465 0.61382 0.19252 0.0
H3025 H 0.14131 0.57688 0.22195 0.0
H3026 H 0.12067 0.59533 0.1715 0.0
H3027 H 0.13695 0.55827 0.201 0.0
H3028 H 0.08565 0.55619 0.15886 0.0
H3029 H 0.09943 0.5765 0.17249 0.0
H3030 H 0.14025 0.54782 0.17374 0.0
H3031 H 0.12624 0.52725 0.15988 0.0
C3032 C 0.12788 0.6018 0.19433 0.0
C3033 C 0.13295 0.5967 0.20895 0.0
C3034 C 0.12558 0.59122 0.18231 0.0
C3035 C 0.12811 0.57531 0.18474 0.0
C3036 C 0.13488 0.57046 0.19878 0.0
C3037 C 0.13735 0.58112 0.2108 0.0
C3038 C 0.09765 0.55431 0.16178 0.0
C3039 C 0.10484 0.54012 0.15848 0.0
C3040 C 0.10562 0.56602 0.16946 0.0
C3041 C 0.12097 0.56378 0.17417 0.0
C3042 C 0.12844 0.54983 0.17025 0.0
C3043 C 0.12046 0.53812 0.16229 0.0
H3044 H 0.17569 0.418 0.96072 0.0
H3045 H 0.15567 0.37316 0.97044 0.0
H3046 H 0.18932 0.40694 0.93844 0.0
H3047 H 0.16979 0.36196 0.9491 0.0
H3048 H 0.18954 0.34358 0.90676 0.0
H3049 H 0.17245 0.3592 0.92284 0.0
H3050 H 0.20998 0.39097 0.93212 0.0
H3051 H 0.22656 0.37591 0.91494 0.0
C3052 C 0.17426 0.40579 0.95811 0.0
C3053 C 0.16459 0.39646 0.96728 0.0
C3054 C 0.18209 0.39942 0.94539 0.0
C3055 C 0.18063 0.38352 0.9418 0.0
C3056 C 0.1709 0.37431 0.95106 0.0
C3057 C 0.16288 0.38072 0.96348 0.0
C3058 C 0.19391 0.35417 0.91191 0.0
C3059 C 0.20928 0.35858 0.90975 0.0
C3060 C 0.18422 0.36304 0.9213 0.0
C3061 C 0.18991 0.37615 0.92924 0.0
C3062 C 0.2051 0.38105 0.9262 0.0
C3063 C 0.21465 0.37241 0.91639 0.0
H3064 H 0.39821 0.47301 0.69003 0.0
H3065 H 0.37967 0.45704 0.64636 0.0
H3066 H 0.38309 0.45359 0.70379 0.0
H3067 H 0.36467 0.43715 0.66022 0.0
H3068 H 0.37301 0.39143 0.69274 0.0
H3069 H 0.37651 0.4136 0.67551 0.0
H3070 H 0.35549 0.44353 0.70966 0.0
H3071 H 0.35181 0.4213 0.7269 0.0
C3072 C 0.39063 0.4655 0.68343 0.0
C3073 C 0.39014 0.46638 0.66718 0.0
C3074 C 0.38187 0.45449 0.6913 0.0
C3075 C 0.37269 0.44391 0.68306 0.0
C3076 C 0.37162 0.44524 0.66682 0.0
C3077 C 0.38015 0.45657 0.65893 0.0
C3078 C 0.36869 0.40265 0.69637 0.0
C3079 C 0.36241 0.4047 0.71128 0.0
C3080 C 0.37058 0.41532 0.68645 0.0
C3081 C 0.36641 0.43027 0.69135 0.0
C3082 C 0.35886 0.4321 0.70567 0.0
C3083 C 0.35674 0.41937 0.71551 0.0
H3084 H 0.31702 0.57649 0.46024 0.0
H3085 H 0.33677 0.62122 0.47102 0.0
H3086 H 0.30299 0.58811 0.43849 0.0
H3087 H 0.32231 0.63291 0.45019 0.0
H3088 H 0.30285 0.65185 0.4078 0.0
H3089 H 0.31979 0.63607 0.42387 0.0
H3090 H 0.28214 0.60432 0.43272 0.0
H3091 H 0.26566 0.6196 0.4156 0.0
C3092 C 0.31831 0.58879 0.45799 0.0
C3093 C 0.32804 0.59792 0.46728 0.0
C3094 C 0.31025 0.59548 0.44557 0.0
C3095 C 0.31157 0.61147 0.4424 0.0
C3096 C 0.32131 0.62049 0.45183 0.0
C3097 C 0.32954 0.61379 0.46395 0.0
C3098 C 0.29839 0.64127 0.41291 0.0
C3099 C 0.283 0.63694 0.41063 0.0
C3100 C 0.308 0.63229 0.42227 0.0
C3101 C 0.30226 0.61912 0.43003 0.0
C3102 C 0.28705 0.61431 0.42693 0.0
C3103 C 0.27755 0.62308 0.41716 0.0
H3104 H 0.33077 0.12721 0.47958 0.0
H3105 H 0.34454 0.09908 0.44059 0.0
H3106 H 0.31392 0.14233 0.46276 0.0
H3107 H 0.3288 0.11494 0.42335 0.0
H3108 H 0.28094 0.12529 0.40501 0.0
H3109 H 0.30287 0.11546 0.41893 0.0
H3110 H 0.30752 0.15939 0.44285 0.0
H3111 H 0.28465 0.16899 0.42934 0.0
C3112 C 0.33059 0.1247 0.46725 0.0
C3113 C 0.33868 0.11193 0.46132 0.0
C3114 C 0.321 0.1334 0.45755 0.0
C3115 C 0.31965 0.12967 0.44168 0.0
C3116 C 0.32905 0.11781 0.43559 0.0
C3117 C 0.33821 0.10881 0.44538 0.0
C3118 C 0.2867 0.13298 0.4131 0.0
C3119 C 0.28094 0.14789 0.41616 0.0
C3120 C 0.29949 0.12737 0.42103 0.0
C3121 C 0.30715 0.1366 0.43205 0.0
C3122 C 0.3018 0.15183 0.43464 0.0
C3123 C 0.28873 0.15737 0.42686 0.0
H3124 H 0.8427 0.36266 0.52454 0.0
H3125 H 0.82307 0.40068 0.55066 0.0
H3126 H 0.82998 0.34418 0.54184 0.0
H3127 H 0.81034 0.38228 0.56773 0.0
H3128 H 0.7828 0.32293 0.56089 0.0
H3129 H 0.80259 0.33672 0.5463 0.0
H3130 H 0.81511 0.36221 0.58759 0.0
H3131 H 0.79522 0.34861 0.60215 0.0
C3132 C 0.83579 0.36709 0.53403 0.0
C3133 C 0.8338 0.38316 0.53615 0.0
C3134 C 0.82851 0.35649 0.5439 0.0
C3135 C 0.81924 0.36177 0.55618 0.0
C3136 C 0.81763 0.37783 0.55854 0.0
C3137 C 0.82479 0.3884 0.54864 0.0
C3138 C 0.79011 0.33109 0.56699 0.0
C3139 C 0.7872 0.33494 0.58258 0.0
C3140 C 0.80146 0.339 0.55862 0.0
C3141 C 0.81011 0.35082 0.56574 0.0
C3142 C 0.80833 0.35343 0.58173 0.0
C3143 C 0.79698 0.34558 0.59007 0.0
H3144 H 0.38927 0.02553 0.32412 0.0
H3145 H 0.37103 0.05476 0.36047 0.0
H3146 H 0.38343 0.04563 0.305 0.0
H3147 H 0.36568 0.07501 0.34149 0.0
H3148 H 0.33118 0.08722 0.30226 0.0
H3149 H 0.34504 0.07398 0.32272 0.0
H3150 H 0.38571 0.07221 0.29379 0.0
H3151 H 0.37152 0.08557 0.27298 0.0
C3152 C 0.3845 0.03645 0.32809 0.0
C3153 C 0.38024 0.03845 0.3437 0.0
C3154 C 0.38123 0.04801 0.31714 0.0
C3155 C 0.37379 0.06178 0.32169 0.0
C3156 C 0.37107 0.06437 0.33757 0.0
C3157 C 0.37414 0.05278 0.34844 0.0
C3158 C 0.34317 0.08426 0.30034 0.0
C3159 C 0.35024 0.08724 0.286 0.0
C3160 C 0.35119 0.0768 0.31214 0.0
C3161 C 0.36651 0.07202 0.30991 0.0
C3162 C 0.37389 0.07569 0.29581 0.0
C3163 C 0.36583 0.0834 0.28396 0.0
H3164 H 0.65001 0.63283 0.02284 0.0
H3165 H 0.66659 0.59498 0.05124 0.0
H3166 H 0.66405 0.65124 0.03917 0.0
H3167 H 0.6806 0.61328 0.06737 0.0
H3168 H 0.69927 0.64788 0.09914 0.0
H3169 H 0.67812 0.63505 0.08578 0.0
H3170 H 0.69237 0.65609 0.04258 0.0
H3171 H 0.7135 0.66914 0.05599 0.0
C3172 C 0.65639 0.62846 0.03272 0.0
C3173 C 0.65732 0.61243 0.03567 0.0
C3174 C 0.66448 0.639 0.042 0.0
C3175 C 0.67343 0.6337 0.05451 0.0
C3176 C 0.67365 0.61776 0.05793 0.0
C3177 C 0.66572 0.60724 0.0486 0.0
C3178 C 0.6977 0.65006 0.08685 0.0
C3179 C 0.70825 0.65926 0.07854 0.0
C3180 C 0.68559 0.64269 0.07921 0.0
C3181 C 0.68379 0.64433 0.0631 0.0
C3182 C 0.69346 0.65464 0.05503 0.0
C3183 C 0.70559 0.66209 0.0627 0.0
H3184 H 0.60671 0.4767 0.32839 0.0
H3185 H 0.62471 0.44684 0.36434 0.0
H3186 H 0.61114 0.45627 0.3092 0.0
H3187 H 0.62874 0.42634 0.3453 0.0
H3188 H 0.66208 0.41331 0.3052 0.0
H3189 H 0.64923 0.42736 0.32582 0.0
H3190 H 0.60755 0.42923 0.29844 0.0
H3191 H 0.62065 0.41497 0.2775 0.0
C3192 C 0.61107 0.46558 0.33228 0.0
C3193 C 0.61574 0.46347 0.34776 0.0
C3194 C 0.61356 0.45385 0.3213 0.0
C3195 C 0.62062 0.43983 0.3257 0.0
C3196 C 0.62362 0.43716 0.34151 0.0
C3197 C 0.6213 0.44889 0.35241 0.0
C3198 C 0.65011 0.41651 0.30363 0.0
C3199 C 0.64241 0.41321 0.2897 0.0
C3200 C 0.64267 0.42443 0.31554 0.0
C3201 C 0.62734 0.42938 0.3138 0.0
C3202 C 0.61938 0.42557 0.30008 0.0
C3203 C 0.62683 0.41738 0.28816 0.0
H3204 H 0.14836 0.86503 0.97112 0.0
H3205 H 0.16545 0.902 0.94187 0.0
H3206 H 0.16147 0.846 0.95471 0.0
H3207 H 0.17863 0.88317 0.92578 0.0
H3208 H 0.19916 0.84924 0.89559 0.0
H3209 H 0.17709 0.86167 0.90784 0.0
H3210 H 0.18898 0.84003 0.95149 0.0
H3211 H 0.21083 0.82725 0.93911 0.0
C3212 C 0.15464 0.86908 0.96103 0.0
C3213 C 0.15607 0.88505 0.95793 0.0
C3214 C 0.1622 0.85818 0.95169 0.0
C3215 C 0.17116 0.86306 0.939 0.0
C3216 C 0.17168 0.87895 0.93534 0.0
C3217 C 0.16425 0.88981 0.94469 0.0
C3218 C 0.1968 0.84679 0.90771 0.0
C3219 C 0.2069 0.83756 0.91651 0.0
C3220 C 0.18418 0.85394 0.91472 0.0
C3221 C 0.18153 0.85216 0.93071 0.0
C3222 C 0.1907 0.84164 0.93914 0.0
C3223 C 0.20326 0.83434 0.93206 0.0
H3224 H 0.37185 0.91011 0.21541 0.0
H3225 H 0.32833 0.91742 0.19215 0.0
H3226 H 0.38508 0.92384 0.19429 0.0
H3227 H 0.34137 0.93112 0.17143 0.0
H3228 H 0.36662 0.94803 0.1312 0.0
H3229 H 0.35923 0.92817 0.14987 0.0
H3230 H 0.38583 0.95137 0.18534 0.0
H3231 H 0.39353 0.9711 0.16655 0.0
C3232 C 0.36515 0.91445 0.20572 0.0
C3233 C 0.34903 0.91282 0.20552 0.0
C3234 C 0.37271 0.92236 0.1937 0.0
C3235 C 0.36428 0.92853 0.18118 0.0
C3236 C 0.34826 0.92631 0.18075 0.0
C3237 C 0.34074 0.91859 0.19276 0.0
C3238 C 0.37116 0.94874 0.14289 0.0
C3239 C 0.3804 0.96132 0.14747 0.0
C3240 C 0.3669 0.93737 0.1536 0.0
C3241 C 0.37168 0.93839 0.16916 0.0
C3242 C 0.38198 0.95024 0.17343 0.0
C3243 C 0.38634 0.96159 0.16266 0.0
H3244 H 0.16079 0.08451 0.69225 0.0
H3245 H 0.12279 0.08068 0.7244 0.0
H3246 H 0.1464 0.07012 0.67299 0.0
H3247 H 0.10808 0.06608 0.7048 0.0
H3248 H 0.11889 0.05055 0.63693 0.0
H3249 H 0.12399 0.07081 0.65596 0.0
H3250 H 0.11133 0.0394 0.69292 0.0
H3251 H 0.10571 0.01923 0.67372 0.0
C3252 C 0.14922 0.08073 0.69511 0.0
C3253 C 0.14297 0.08356 0.70986 0.0
C3254 C 0.14087 0.07262 0.68399 0.0
C3255 C 0.12604 0.06701 0.68733 0.0
C3256 C 0.11949 0.07026 0.70193 0.0
C3257 C 0.12786 0.07865 0.71308 0.0
C3258 C 0.11675 0.04813 0.64909 0.0
C3259 C 0.11222 0.03327 0.65392 0.0
C3260 C 0.11969 0.05971 0.65999 0.0
C3261 C 0.11845 0.05657 0.67595 0.0
C3262 C 0.11239 0.04218 0.6807 0.0
C3263 C 0.10922 0.03061 0.66972 0.0
H3264 H 0.02306 0.14836 0.44642 0.0
H3265 H 0.04689 0.11838 0.41408 0.0
H3266 H 0.04426 0.145 0.46513 0.0
H3267 H 0.06772 0.11514 0.43263 0.0
H3268 H 0.08085 0.0919 0.479 0.0
H3269 H 0.06016 0.10156 0.46266 0.0
H3270 H 0.08 0.14744 0.46369 0.0
H3271 H 0.10106 0.13777 0.48027 0.0
C3272 C 0.03289 0.14131 0.44323 0.0
C3273 C 0.03324 0.13339 0.42896 0.0
C3274 C 0.04498 0.1395 0.45385 0.0
C3275 C 0.05743 0.12979 0.45019 0.0
C3276 C 0.05816 0.12266 0.43561 0.0
C3277 C 0.04619 0.12445 0.42508 0.0
C3278 C 0.0808 0.10409 0.4759 0.0
C3279 C 0.09268 0.11405 0.48067 0.0
C3280 C 0.06892 0.10959 0.46665 0.0
C3281 C 0.06867 0.12515 0.46199 0.0
C3282 C 0.08004 0.1354 0.46731 0.0
C3283 C 0.09205 0.12986 0.47666 0.0
H3284 H 0.11812 0.85053 0.7346 0.0
H3285 H 0.16426 0.84589 0.71628 0.0
H3286 H 0.10969 0.82879 0.71822 0.0
H3287 H 0.15592 0.82438 0.70019 0.0
H3288 H 0.13457 0.79738 0.66201 0.0
H3289 H 0.13888 0.82056 0.67745 0.0
H3290 H 0.11499 0.79955 0.7161 0.0
H3291 H 0.11039 0.77622 0.70044 0.0
C3292 C 0.12641 0.84493 0.72704 0.0
C3293 C 0.14183 0.84989 0.72668 0.0
C3294 C 0.12161 0.83248 0.71776 0.0
C3295 C 0.13213 0.825 0.70788 0.0
C3296 C 0.1475 0.83008 0.70751 0.0
C3297 C 0.15229 0.84235 0.71681 0.0
C3298 C 0.13012 0.7977 0.67376 0.0
C3299 C 0.12238 0.7849 0.68014 0.0
C3300 C 0.1326 0.81099 0.68259 0.0
C3301 C 0.12747 0.81175 0.69803 0.0
C3302 C 0.11903 0.79926 0.7042 0.0
C3303 C 0.11649 0.7859 0.6953 0.0
H3304 H 0.40086 0.86259 0.98606 0.0
H3305 H 0.39946 0.90557 0.96023 0.0
H3306 H 0.42214 0.85353 0.96964 0.0
H3307 H 0.42056 0.89664 0.94407 0.0
H3308 H 0.47378 0.85832 0.95016 0.0
H3309 H 0.4502 0.86172 0.96555 0.0
H3310 H 0.42595 0.87656 0.92434 0.0
H3311 H 0.44934 0.87354 0.90919 0.0
C3312 C 0.40496 0.86999 0.97677 0.0
C3313 C 0.39856 0.88479 0.9744 0.0
C3314 C 0.41717 0.86485 0.96748 0.0
C3315 C 0.42294 0.87436 0.95559 0.0
C3316 C 0.4162 0.88896 0.95301 0.0
C3317 C 0.40417 0.89412 0.96233 0.0
C3318 C 0.46333 0.8621 0.94443 0.0
C3319 C 0.46343 0.86606 0.92863 0.0
C3320 C 0.44984 0.86395 0.95318 0.0
C3321 C 0.43636 0.86966 0.94614 0.0
C3322 C 0.43628 0.87248 0.93011 0.0
C3323 C 0.44968 0.87077 0.92146 0.0
H3324 H 0.35679 0.20186 0.15634 0.0
H3325 H 0.38496 0.21978 0.1936 0.0
H3326 H 0.35206 0.17837 0.17119 0.0
H3327 H 0.37981 0.19631 0.20878 0.0
H3328 H 0.32893 0.15114 0.20979 0.0
H3329 H 0.33691 0.17283 0.19387 0.0
H3330 H 0.38361 0.16786 0.21055 0.0
H3331 H 0.37545 0.14608 0.22696 0.0
C3332 C 0.36193 0.20079 0.16775 0.0
C3333 C 0.37105 0.21274 0.17393 0.0
C3334 C 0.3592 0.18734 0.17627 0.0
C3335 C 0.36539 0.18557 0.19125 0.0
C3336 C 0.37496 0.1973 0.19724 0.0
C3337 C 0.3778 0.21077 0.18862 0.0
C3338 C 0.34094 0.15456 0.21004 0.0
C3339 C 0.35157 0.1469 0.21964 0.0
C3340 C 0.34554 0.16696 0.20081 0.0
C3341 C 0.36092 0.17202 0.20086 0.0
C3342 C 0.37165 0.16428 0.21035 0.0
C3343 C 0.36702 0.15177 0.21965 0.0
H3344 H 0.0431 0.88494 0.08715 0.0
H3345 H 0.026 0.85656 0.04955 0.0
H3346 H 0.06672 0.88968 0.07275 0.0
H3347 H 0.04956 0.86171 0.03484 0.0
H3348 H 0.09466 0.91245 0.03406 0.0
H3349 H 0.073 0.90476 0.05008 0.0
H3350 H 0.07757 0.85751 0.03389 0.0
H3351 H 0.0992 0.86535 0.01743 0.0
C3352 C 0.04438 0.87976 0.07576 0.0
C3353 C 0.03265 0.87057 0.06935 0.0
C3354 C 0.0579 0.88249 0.06751 0.0
C3355 C 0.05992 0.8762 0.0526 0.0
C3356 C 0.04838 0.8666 0.04636 0.0
C3357 C 0.03485 0.86377 0.0547 0.0
C3358 C 0.09115 0.90039 0.03398 0.0
C3359 C 0.09859 0.8895 0.02447 0.0
C3360 C 0.07878 0.89595 0.04325 0.0
C3361 C 0.0736 0.88051 0.04327 0.0
C3362 C 0.08123 0.86952 0.03398 0.0
C3363 C 0.09366 0.87398 0.02466 0.0
H3364 H 0.34766 0.78959 0.32188 0.0
H3365 H 0.39388 0.78241 0.30482 0.0
H3366 H 0.34561 0.81314 0.30673 0.0
H3367 H 0.39215 0.80668 0.29001 0.0
H3368 H 0.37356 0.84271 0.25301 0.0
H3369 H 0.37992 0.81958 0.26833 0.0
H3370 H 0.35483 0.83868 0.30729 0.0
H3371 H 0.3478 0.86109 0.29166 0.0
C3372 C 0.35745 0.79314 0.31494 0.0
C3373 C 0.37096 0.78425 0.31463 0.0
C3374 C 0.35636 0.80677 0.30636 0.0
C3375 C 0.36887 0.81209 0.29745 0.0
C3376 C 0.38231 0.80295 0.29677 0.0
C3377 C 0.38331 0.78908 0.30524 0.0
C3378 C 0.36978 0.84202 0.26498 0.0
C3379 C 0.36012 0.8535 0.2712 0.0
C3380 C 0.37338 0.8288 0.27375 0.0
C3381 C 0.36752 0.82705 0.28891 0.0
C3382 C 0.35906 0.83934 0.29547 0.0
C3383 C 0.35519 0.85228 0.28663 0.0
H3384 H 0.40185 0.13341 0.51333 0.0
H3385 H 0.40151 0.08932 0.53727 0.0
H3386 H 0.42358 0.14191 0.52952 0.0
H3387 H 0.42293 0.09779 0.55331 0.0
H3388 H 0.45096 0.12107 0.58913 0.0
H3389 H 0.4276 0.11834 0.57386 0.0
H3390 H 0.45228 0.13249 0.53268 0.0
H3391 H 0.4759 0.13541 0.54811 0.0
C3392 C 0.40631 0.12564 0.52214 0.0
C3393 C 0.40007 0.11071 0.52407 0.0
C3394 C 0.41873 0.13047 0.5313 0.0
C3395 C 0.42482 0.12051 0.54265 0.0
C3396 C 0.41832 0.10575 0.54475 0.0
C3397 C 0.40612 0.10088 0.53552 0.0
C3398 C 0.45142 0.12377 0.57685 0.0
C3399 C 0.4653 0.12812 0.5697 0.0
C3400 C 0.43803 0.12224 0.56814 0.0
C3401 C 0.43825 0.125 0.55211 0.0
C3402 C 0.45187 0.13034 0.54507 0.0
C3403 C 0.46535 0.1319 0.55384 0.0
H3404 H 0.16255 0.15027 0.78384 0.0
H3405 H 0.11659 0.14536 0.76517 0.0
H3406 H 0.15407 0.17185 0.79968 0.0
H3407 H 0.10798 0.16724 0.78136 0.0
H3408 H 0.10921 0.22039 0.79856 0.0
H3409 H 0.11347 0.19673 0.78321 0.0
H3410 H 0.13689 0.17589 0.82223 0.0
H3411 H 0.13295 0.19933 0.8373 0.0
C3412 C 0.15057 0.15374 0.78321 0.0
C3413 C 0.14023 0.14612 0.77327 0.0
C3414 C 0.14569 0.16607 0.79237 0.0
C3415 C 0.13034 0.17116 0.79182 0.0
C3416 C 0.11989 0.16354 0.78195 0.0
C3417 C 0.12478 0.151 0.77281 0.0
C3418 C 0.11515 0.21067 0.80383 0.0
C3419 C 0.12104 0.2118 0.81898 0.0
C3420 C 0.11748 0.19713 0.79511 0.0
C3421 C 0.12568 0.18458 0.80149 0.0
C3422 C 0.13078 0.18549 0.81692 0.0
C3423 C 0.12853 0.19894 0.82554 0.0
H3424 H 0.48148 0.08046 0.0961 0.0
H3425 H 0.47783 0.10436 0.14006 0.0
H3426 H 0.46751 0.05849 0.1068 0.0
H3427 H 0.4635 0.08219 0.15078 0.0
H3428 H 0.41721 0.05038 0.14572 0.0
H3429 H 0.4364 0.07106 0.1432 0.0
H3430 H 0.46999 0.03743 0.12784 0.0
H3431 H 0.45076 0.01676 0.13057 0.0
C3432 C 0.47776 0.08097 0.1081 0.0
C3433 C 0.48064 0.09416 0.11723 0.0
C3434 C 0.46992 0.0683 0.11428 0.0
C3435 C 0.46459 0.06859 0.12966 0.0
C3436 C 0.46759 0.08168 0.13891 0.0
C3437 C 0.47573 0.09433 0.13278 0.0
C3438 C 0.42891 0.04739 0.14248 0.0
C3439 C 0.43268 0.0321 0.13847 0.0
C3440 C 0.43987 0.05918 0.14104 0.0
C3441 C 0.45461 0.05582 0.13521 0.0
C3442 C 0.45867 0.04029 0.13232 0.0
C3443 C 0.44776 0.02848 0.13398 0.0
H3444 H 0.19918 0.15699 0.36248 0.0
H3445 H 0.22168 0.19333 0.38857 0.0
H3446 H 0.17694 0.17361 0.35859 0.0
H3447 H 0.19932 0.21024 0.38435 0.0
H3448 H 0.15412 0.21442 0.33414 0.0
H3449 H 0.17452 0.19701 0.34223 0.0
H3450 H 0.17044 0.21364 0.38938 0.0
H3451 H 0.14987 0.2314 0.38119 0.0
C3452 C 0.19936 0.16855 0.36741 0.0
C3453 C 0.21226 0.17402 0.37555 0.0
C3454 C 0.18661 0.17805 0.36519 0.0
C3455 C 0.18654 0.19327 0.37095 0.0
C3456 C 0.1991 0.19852 0.37982 0.0
C3457 C 0.2119 0.18892 0.38213 0.0
C3458 C 0.15748 0.21435 0.34626 0.0
C3459 C 0.1504 0.22424 0.35704 0.0
C3460 C 0.16911 0.20431 0.35091 0.0
C3461 C 0.17396 0.20391 0.36645 0.0
C3462 C 0.16691 0.21378 0.37731 0.0
C3463 C 0.15513 0.22384 0.37265 0.0
H3464 H 0.00965 0.89815 0.63328 0.0
H3465 H 0.03452 0.89606 0.58989 0.0
H3466 H 0.02494 0.92086 0.64101 0.0
H3467 H 0.05001 0.91809 0.59772 0.0
H3468 H 0.06321 0.96647 0.60465 0.0
H3469 H 0.04543 0.94518 0.60022 0.0
H3470 H 0.05089 0.93056 0.64794 0.0
H3471 H 0.0683 0.95265 0.65251 0.0
C3472 C 0.01852 0.90241 0.62552 0.0
C3473 C 0.02077 0.89553 0.6109 0.0
C3474 C 0.02726 0.91537 0.62994 0.0
C3475 C 0.03843 0.92151 0.61982 0.0
C3476 C 0.04115 0.91401 0.60558 0.0
C3477 C 0.03234 0.90129 0.60112 0.0
C3478 C 0.06037 0.95887 0.61426 0.0
C3479 C 0.06715 0.96102 0.62885 0.0
C3480 C 0.05031 0.94659 0.61171 0.0
C3481 C 0.04713 0.93587 0.62359 0.0
C3482 C 0.05317 0.93858 0.63853 0.0
C3483 C 0.06309 0.95118 0.64117 0.0
H3484 H 0.34364 0.78665 0.83911 0.0
H3485 H 0.34526 0.76331 0.8835 0.0
H3486 H 0.3224 0.80254 0.84819 0.0
H3487 H 0.32381 0.77945 0.8927 0.0
H3488 H 0.27184 0.79811 0.89057 0.0
H3489 H 0.29515 0.78267 0.88589 0.0
H3490 H 0.31796 0.82331 0.86762 0.0
H3491 H 0.29484 0.83854 0.87201 0.0
C3492 C 0.33952 0.78501 0.85087 0.0
C3493 C 0.34609 0.77375 0.8606 0.0
C3494 C 0.32741 0.79417 0.85611 0.0
C3495 C 0.32151 0.79226 0.87117 0.0
C3496 C 0.32813 0.78109 0.88101 0.0
C3497 C 0.34042 0.77196 0.87579 0.0
C3498 C 0.28192 0.80371 0.88572 0.0
C3499 C 0.28146 0.81941 0.88135 0.0
C3500 C 0.29525 0.79493 0.88314 0.0
C3501 C 0.30825 0.80178 0.87619 0.0
C3502 C 0.308 0.81768 0.87271 0.0
C3503 C 0.29475 0.82638 0.87523 0.0
H3504 H 0.46545 0.90587 0.40327 0.0
H3505 H 0.48409 0.90254 0.35686 0.0
H3506 H 0.45035 0.92817 0.39563 0.0
H3507 H 0.469 0.92544 0.34919 0.0
H3508 H 0.42364 0.95649 0.34173 0.0
H3509 H 0.44183 0.93491 0.34551 0.0
H3510 H 0.45578 0.95489 0.38935 0.0
H3511 H 0.43726 0.97579 0.38582 0.0
C3512 C 0.46637 0.90996 0.39141 0.0
C3513 C 0.47608 0.90255 0.38071 0.0
C3514 C 0.45778 0.92285 0.38705 0.0
C3515 C 0.45876 0.92881 0.3719 0.0
C3516 C 0.46808 0.92113 0.36097 0.0
C3517 C 0.4767 0.90807 0.36535 0.0
C3518 C 0.43095 0.95637 0.35192 0.0
C3519 C 0.42912 0.96761 0.36355 0.0
C3520 C 0.44131 0.94406 0.35411 0.0
C3521 C 0.44996 0.94303 0.36791 0.0
C3522 C 0.44897 0.95512 0.37882 0.0
C3523 C 0.4385 0.96716 0.37676 0.0
H3524 H 0.28676 0.17708 0.64549 0.0
H3525 H 0.28248 0.19073 0.59745 0.0
H3526 H 0.31069 0.19135 0.64753 0.0
H3527 H 0.30715 0.20443 0.59914 0.0
H3528 H 0.3438 0.24074 0.6159 0.0
H3529 H 0.32038 0.22613 0.61004 0.0
H3530 H 0.33632 0.18884 0.63961 0.0
H3531 H 0.35908 0.20395 0.64619 0.0
C3532 C 0.29104 0.18312 0.63532 0.0
C3533 C 0.28291 0.18271 0.62129 0.0
C3534 C 0.30487 0.19113 0.63641 0.0
C3535 C 0.31112 0.19865 0.62336 0.0
C3536 C 0.30269 0.19871 0.60939 0.0
C3537 C 0.28859 0.19089 0.6084 0.0
C3538 C 0.34235 0.22928 0.62085 0.0
C3539 C 0.353 0.22348 0.63164 0.0
C3540 C 0.32897 0.2209 0.6175 0.0
C3541 C 0.32627 0.2065 0.6247 0.0
C3542 C 0.33775 0.20016 0.63434 0.0
C3543 C 0.35086 0.20869 0.63799 0.0
H3544 H 0.05709 0.0295 0.85103 0.0
H3545 H 0.08859 0.05523 0.88014 0.0
H3546 H 0.03781 0.05027 0.85413 0.0
H3547 H 0.0696 0.07569 0.88307 0.0
H3548 H 0.0153 0.10243 0.85921 0.0
H3549 H 0.03376 0.08255 0.85043 0.0
H3550 H 0.04342 0.07087 0.89818 0.0
H3551 H 0.02528 0.09037 0.9069 0.0
C3552 C 0.06 0.0397 0.85777 0.0
C3553 C 0.07416 0.04064 0.86564 0.0
C3554 C 0.04903 0.05155 0.85948 0.0
C3555 C 0.05223 0.06438 0.86902 0.0
C3556 C 0.06682 0.06578 0.87585 0.0
C3557 C 0.07765 0.05403 0.8742 0.0
C3558 C 0.02133 0.09552 0.86777 0.0
C3559 C 0.019 0.09809 0.88374 0.0
C3560 C 0.03179 0.08416 0.86275 0.0
C3561 C 0.04007 0.07539 0.87367 0.0
C3562 C 0.03732 0.07766 0.88955 0.0
C3563 C 0.02692 0.08885 0.89453 0.0
H3564 H 0.23015 0.7927 0.1088 0.0
H3565 H 0.19848 0.83097 0.11411 0.0
H3566 H 0.20847 0.77442 0.11014 0.0
H3567 H 0.17689 0.8128 0.11497 0.0
H3568 H 0.14082 0.77412 0.10985 0.0
H3569 H 0.16278 0.78867 0.09909 0.0
H3570 H 0.19131 0.77276 0.13693 0.0
H3571 H 0.16943 0.7588 0.1479 0.0
C3572 C 0.21853 0.79718 0.10978 0.0
C3573 C 0.2159 0.81313 0.11164 0.0
C3574 C 0.20619 0.78678 0.11049 0.0
C3575 C 0.19111 0.7923 0.11261 0.0
C3576 C 0.18842 0.80833 0.11316 0.0
C3577 C 0.20075 0.81867 0.11285 0.0
C3578 C 0.15188 0.77358 0.11565 0.0
C3579 C 0.1535 0.76557 0.12975 0.0
C3580 C 0.16437 0.78182 0.10951 0.0
C3581 C 0.17867 0.78164 0.11715 0.0
C3582 C 0.18044 0.77286 0.13073 0.0
C3583 C 0.16791 0.76504 0.13708 0.0
H3584 H 0.09723 0.42329 0.03569 0.0
H3585 H 0.14473 0.43737 0.03099 0.0
H3586 H 0.0948 0.4389 0.05893 0.0
H3587 H 0.14263 0.45246 0.05501 0.0
H3588 H 0.1258 0.48998 0.09073 0.0
H3589 H 0.13159 0.47463 0.0675 0.0
H3590 H 0.10244 0.43778 0.08486 0.0
H3591 H 0.09599 0.45354 0.10734 0.0
C3592 C 0.1072 0.4297 0.03972 0.0
C3593 C 0.12121 0.42901 0.03167 0.0
C3594 C 0.10588 0.43852 0.05317 0.0
C3595 C 0.11865 0.4466 0.05915 0.0
C3596 C 0.13258 0.44635 0.05077 0.0
C3597 C 0.1338 0.43771 0.03704 0.0
C3598 C 0.12093 0.47846 0.08961 0.0
C3599 C 0.11035 0.47292 0.10062 0.0
C3600 C 0.12422 0.46967 0.07634 0.0
C3601 C 0.11714 0.45513 0.07408 0.0
C3602 C 0.10762 0.44916 0.08589 0.0
C3603 C 0.10407 0.45807 0.09887 0.0
H3604 H 0.59194 0.04137 0.88557 0.0
H3605 H 0.62035 0.00382 0.90215 0.0
H3606 H 0.59941 0.05708 0.90776 0.0
H3607 H 0.62713 0.01911 0.92511 0.0
H3608 H 0.64262 0.055 0.96135 0.0
H3609 H 0.63939 0.04048 0.93716 0.0
H3610 H 0.59253 0.05728 0.93376 0.0
H3611 H 0.59614 0.07233 0.95723 0.0
C3612 C 0.59991 0.03656 0.89398 0.0
C3613 C 0.60553 0.02144 0.89229 0.0
C3614 C 0.60405 0.04546 0.90681 0.0
C3615 C 0.61352 0.03922 0.91852 0.0
C3616 C 0.61985 0.02433 0.91634 0.0
C3617 C 0.61599 0.01555 0.90322 0.0
C3618 C 0.63167 0.05555 0.95536 0.0
C3619 C 0.61967 0.0649 0.96103 0.0
C3620 C 0.62979 0.0472 0.94153 0.0
C3621 C 0.61579 0.04789 0.9333 0.0
C3622 C 0.60367 0.05686 0.93941 0.0
C3623 C 0.60565 0.06538 0.95299 0.0
H3624 H 0.20045 0.38718 0.2285 0.0
H3625 H 0.16535 0.39174 0.19337 0.0
H3626 H 0.22009 0.38434 0.20815 0.0
H3627 H 0.18493 0.38941 0.17306 0.0
H3628 H 0.22702 0.38929 0.14048 0.0
H3629 H 0.21214 0.40083 0.16186 0.0
H3630 H 0.21905 0.35934 0.18906 0.0
H3631 H 0.23342 0.34769 0.16769 0.0
C3632 C 0.1971 0.38828 0.21644 0.0
C3633 C 0.18154 0.38972 0.21236 0.0
C3634 C 0.20826 0.3866 0.20484 0.0
C3635 C 0.20394 0.38667 0.18911 0.0
C3636 C 0.18853 0.38951 0.18511 0.0
C3637 C 0.17736 0.39081 0.19668 0.0
C3638 C 0.22549 0.38277 0.15112 0.0
C3639 C 0.23119 0.36757 0.15244 0.0
C3640 C 0.21706 0.38937 0.1633 0.0
C3641 C 0.21466 0.381 0.17709 0.0
C3642 C 0.22098 0.3661 0.17862 0.0
C3643 C 0.22904 0.35938 0.16635 0.0
H3644 H 0.89875 0.92947 0.46112 0.0
H3645 H 0.85063 0.94195 0.46259 0.0
H3646 H 0.90233 0.94547 0.4383 0.0
H3647 H 0.85389 0.95735 0.43886 0.0
H3648 H 0.87091 0.995 0.40368 0.0
H3649 H 0.8646 0.97972 0.42684 0.0
H3650 H 0.89693 0.94445 0.41207 0.0
H3651 H 0.90387 0.96024 0.38979 0.0
C3652 C 0.88889 0.9356 0.45643 0.0
C3653 C 0.87441 0.9344 0.46347 0.0
C3654 C 0.89088 0.94465 0.44322 0.0
C3655 C 0.8783 0.95238 0.43639 0.0
C3656 C 0.86383 0.95157 0.44377 0.0
C3657 C 0.86194 0.94274 0.45732 0.0
C3658 C 0.87645 0.98387 0.4054 0.0
C3659 C 0.88798 0.9788 0.39518 0.0
C3660 C 0.87285 0.9751 0.41863 0.0
C3661 C 0.88055 0.96101 0.42159 0.0
C3662 C 0.89121 0.95551 0.41056 0.0
C3663 C 0.89507 0.96444 0.39767 0.0
H3664 H 0.8029 0.10455 0.22136 0.0
H3665 H 0.83594 0.12109 0.18771 0.0
H3666 H 0.78266 0.10529 0.20141 0.0
H3667 H 0.81589 0.12125 0.16775 0.0
H3668 H 0.77576 0.10913 0.13426 0.0
H3669 H 0.79361 0.10013 0.15455 0.0
H3670 H 0.77498 0.13407 0.18622 0.0
H3671 H 0.75766 0.14344 0.16589 0.0
C3672 C 0.80589 0.10792 0.20962 0.0
C3673 C 0.82087 0.11291 0.20602 0.0
C3674 C 0.79437 0.1083 0.19827 0.0
C3675 C 0.79785 0.1132 0.18313 0.0
C3676 C 0.81304 0.11725 0.17933 0.0
C3677 C 0.82443 0.11728 0.19074 0.0
C3678 C 0.77527 0.11436 0.14569 0.0
C3679 C 0.76546 0.12698 0.14859 0.0
C3680 C 0.78543 0.10924 0.15722 0.0
C3681 C 0.78549 0.11638 0.17187 0.0
C3682 C 0.77496 0.1283 0.17504 0.0
C3683 C 0.76515 0.13369 0.16343 0.0
H3684 H 0.39887 0.56643 0.52824 0.0
H3685 H 0.35003 0.55916 0.53395 0.0
H3686 H 0.40395 0.55072 0.55103 0.0
H3687 H 0.35494 0.54428 0.55768 0.0
H3688 H 0.37169 0.50856 0.59434 0.0
H3689 H 0.3647 0.52197 0.57028 0.0
H3690 H 0.40229 0.55417 0.57754 0.0
H3691 H 0.40971 0.54014 0.60079 0.0
C3692 C 0.38921 0.56141 0.53445 0.0
C3693 C 0.37408 0.56409 0.52951 0.0
C3694 C 0.39208 0.55258 0.54765 0.0
C3695 C 0.37985 0.54665 0.55658 0.0
C3696 C 0.36466 0.54868 0.55115 0.0
C3697 C 0.36181 0.55722 0.53759 0.0
C3698 C 0.3783 0.5186 0.59076 0.0
C3699 C 0.39132 0.52327 0.59924 0.0
C3700 C 0.37432 0.5263 0.57701 0.0
C3701 C 0.38314 0.53895 0.5717 0.0
C3702 C 0.39557 0.54411 0.58085 0.0
C3703 C 0.39975 0.53621 0.59431 0.0
H3704 H 0.21071 0.65879 0.3431 0.0
H3705 H 0.22935 0.61264 0.34887 0.0
H3706 H 0.19307 0.64916 0.32349 0.0
H3707 H 0.21147 0.60294 0.32896 0.0
H3708 H 0.18764 0.60328 0.27737 0.0
H3709 H 0.20596 0.60773 0.29874 0.0
H3710 H 0.17017 0.63063 0.32495 0.0
H3711 H 0.15213 0.62641 0.30382 0.0
C3712 C 0.21105 0.64657 0.34017 0.0
C3713 C 0.22135 0.63645 0.34759 0.0
C3714 C 0.20089 0.64105 0.32898 0.0
C3715 C 0.20082 0.62529 0.32487 0.0
C3716 C 0.21132 0.61514 0.33198 0.0
C3717 C 0.22147 0.62068 0.34337 0.0
C3718 C 0.18368 0.60893 0.28787 0.0
C3719 C 0.16861 0.6148 0.28887 0.0
C3720 C 0.19411 0.61145 0.30006 0.0
C3721 C 0.18949 0.61979 0.3133 0.0
C3722 C 0.17409 0.62446 0.31472 0.0
C3723 C 0.16378 0.62204 0.30262 0.0
H3724 H 0.25895 0.3783 0.84184 0.0
H3725 H 0.28777 0.33835 0.85027 0.0
H3726 H 0.27538 0.38563 0.81981 0.0
H3727 H 0.30446 0.34594 0.82903 0.0
H3728 H 0.32027 0.34971 0.7807 0.0
H3729 H 0.30233 0.34522 0.80178 0.0
H3730 H 0.30064 0.39454 0.81095 0.0
H3731 H 0.31822 0.39905 0.78899 0.0
C3732 C 0.26893 0.37126 0.83912 0.0
C3733 C 0.27198 0.35762 0.84752 0.0
C3734 C 0.27835 0.37546 0.82657 0.0
C3735 C 0.29102 0.36616 0.82242 0.0
C3736 C 0.29448 0.35306 0.83152 0.0
C3737 C 0.28498 0.34875 0.84378 0.0
C3738 C 0.31594 0.35961 0.78713 0.0
C3739 C 0.32072 0.37469 0.78342 0.0
C3740 C 0.30577 0.35705 0.7993 0.0
C3741 C 0.3004 0.36948 0.80838 0.0
C3742 C 0.3046 0.38471 0.8042 0.0
C3743 C 0.31464 0.38731 0.79169 0.0
H3744 H 0.898 0.86761 0.51423 0.0
H3745 H 0.90471 0.91545 0.5277 0.0
H3746 H 0.91971 0.85998 0.53083 0.0
H3747 H 0.92628 0.90792 0.54389 0.0
H3748 H 0.97089 0.8583 0.54992 0.0
H3749 H 0.94869 0.86345 0.53303 0.0
H3750 H 0.92944 0.89351 0.56817 0.0
H3751 H 0.95151 0.88867 0.58474 0.0
C3752 C 0.90409 0.87647 0.5207 0.0
C3753 C 0.89958 0.89211 0.51977 0.0
C3754 C 0.91655 0.87212 0.53011 0.0
C3755 C 0.92458 0.88334 0.53876 0.0
C3756 C 0.92013 0.89896 0.53761 0.0
C3757 C 0.90779 0.90328 0.52826 0.0
C3758 C 0.96187 0.86597 0.55399 0.0
C3759 C 0.96303 0.87327 0.56853 0.0
C3760 C 0.94914 0.86882 0.54439 0.0
C3761 C 0.93744 0.87903 0.54922 0.0
C3762 C 0.93842 0.88585 0.564 0.0
C3763 C 0.95107 0.88303 0.57351 0.0
H3764 H 0.88095 0.22655 0.29478 0.0
H3765 H 0.85149 0.20324 0.32784 0.0
H3766 H 0.87686 0.20551 0.27625 0.0
H3767 H 0.84766 0.1821 0.30948 0.0
H3768 H 0.83068 0.15589 0.26699 0.0
H3769 H 0.83482 0.17749 0.28476 0.0
H3770 H 0.88316 0.17802 0.27271 0.0
H3771 H 0.87894 0.15659 0.25468 0.0
C3772 C 0.87365 0.21691 0.2981 0.0
C3773 C 0.86649 0.21655 0.31271 0.0
C3774 C 0.87138 0.20483 0.28753 0.0
C3775 C 0.8619 0.19218 0.29139 0.0
C3776 C 0.85483 0.19181 0.30607 0.0
C3777 C 0.8571 0.20387 0.31662 0.0
C3778 C 0.84218 0.16066 0.26809 0.0
C3779 C 0.8545 0.15456 0.25948 0.0
C3780 C 0.84457 0.17296 0.27833 0.0
C3781 C 0.85933 0.1794 0.28019 0.0
C3782 C 0.87162 0.17341 0.27142 0.0
C3783 C 0.86922 0.1611 0.26115 0.0
H3784 H 0.52515 0.13247 0.053 0.0
H3785 H 0.54739 0.10574 0.08905 0.0
H3786 H 0.54732 0.12809 0.03596 0.0
H3787 H 0.56949 0.10159 0.07221 0.0
H3788 H 0.59506 0.07997 0.03117 0.0
H3789 H 0.57396 0.08641 0.04856 0.0
H3790 H 0.57546 0.13403 0.03296 0.0
H3791 H 0.59663 0.12752 0.01531 0.0
C3792 C 0.5348 0.12576 0.05731 0.0
C3793 C 0.53448 0.1193 0.07228 0.0
C3794 C 0.54752 0.12335 0.04761 0.0
C3795 C 0.56008 0.1144 0.05272 0.0
C3796 C 0.55988 0.10832 0.06785 0.0
C3797 C 0.54722 0.11074 0.07751 0.0
C3798 C 0.59096 0.09184 0.03147 0.0
C3799 C 0.59751 0.10324 0.02188 0.0
C3800 C 0.57891 0.09554 0.04151 0.0
C3801 C 0.57308 0.11074 0.04216 0.0
C3802 C 0.57965 0.1222 0.03261 0.0
C3803 C 0.59182 0.11849 0.02259 0.0
H3804 H 0.65304 0.77956 0.82269 0.0
H3805 H 0.60634 0.77748 0.80565 0.0
H3806 H 0.65878 0.80038 0.80457 0.0
H3807 H 0.61164 0.79911 0.78819 0.0
H3808 H 0.62872 0.83045 0.74975 0.0
H3809 H 0.62399 0.80777 0.76594 0.0
H3810 H 0.65455 0.82655 0.80095 0.0
H3811 H 0.65997 0.84862 0.78421 0.0
C3812 C 0.64397 0.78368 0.81508 0.0
C3813 C 0.62925 0.77701 0.81556 0.0
C3814 C 0.6472 0.79572 0.80479 0.0
C3815 C 0.63564 0.80167 0.79501 0.0
C3816 C 0.62092 0.79475 0.79536 0.0
C3817 C 0.61782 0.7824 0.80542 0.0
C3818 C 0.63447 0.82961 0.76089 0.0
C3819 C 0.64476 0.84119 0.76574 0.0
C3820 C 0.63168 0.81668 0.77024 0.0
C3821 C 0.63886 0.81524 0.78481 0.0
C3822 C 0.64907 0.827 0.78966 0.0
C3823 C 0.65212 0.83974 0.78014 0.0
H3824 H 0.89069 0.08671 0.95713 0.0
H3825 H 0.90591 0.121 0.9902 0.0
H3826 H 0.91199 0.09339 0.94007 0.0
H3827 H 0.9281 0.12686 0.97391 0.0
H3828 H 0.96103 0.14252 0.93617 0.0
H3829 H 0.93829 0.13793 0.95213 0.0
H3830 H 0.93767 0.09001 0.93692 0.0
H3831 H 0.95943 0.09517 0.92005 0.0
C3832 C 0.89874 0.09562 0.96075 0.0
C3833 C 0.89675 0.10336 0.9749 0.0
C3834 C 0.91109 0.09935 0.95108 0.0
C3835 C 0.92207 0.11052 0.95563 0.0
C3836 C 0.91986 0.11839 0.9698 0.0
C3837 C 0.90719 0.11499 0.97923 0.0
C3838 C 0.95592 0.13106 0.93627 0.0
C3839 C 0.96182 0.11922 0.92683 0.0
C3840 C 0.94293 0.12835 0.9455 0.0
C3841 C 0.93591 0.11359 0.94582 0.0
C3842 C 0.9423 0.10167 0.93667 0.0
C3843 C 0.95493 0.10454 0.92711 0.0
H3844 H 0.62145 0.15334 0.73645 0.0
H3845 H 0.66863 0.15287 0.72046 0.0
H3846 H 0.61562 0.17436 0.71862 0.0
H3847 H 0.66295 0.17441 0.70296 0.0
H3848 H 0.64324 0.20148 0.662 0.0
H3849 H 0.64904 0.18014 0.6796 0.0
H3850 H 0.62039 0.20132 0.71479 0.0
H3851 H 0.61416 0.22235 0.69695 0.0
C3852 C 0.63061 0.15782 0.7292 0.0
C3853 C 0.64549 0.15146 0.72981 0.0
C3854 C 0.62729 0.16996 0.71904 0.0
C3855 C 0.63882 0.17611 0.70939 0.0
C3856 C 0.65375 0.16979 0.71008 0.0
C3857 C 0.65704 0.15753 0.72017 0.0
C3858 C 0.63817 0.20154 0.67349 0.0
C3859 C 0.62826 0.21354 0.67813 0.0
C3860 C 0.64158 0.18938 0.68361 0.0
C3861 C 0.63522 0.18904 0.69862 0.0
C3862 C 0.6253 0.2011 0.70324 0.0
C3863 C 0.62179 0.21319 0.69305 0.0
H3864 H 0.54602 0.89139 0.40569 0.0
H3865 H 0.5244 0.86338 0.44115 0.0
H3866 H 0.56839 0.89494 0.42222 0.0
H3867 H 0.54685 0.86727 0.45799 0.0
H3868 H 0.5965 0.86829 0.47832 0.0
H3869 H 0.57501 0.86181 0.46101 0.0
H3870 H 0.57306 0.90956 0.44582 0.0
H3871 H 0.59447 0.91592 0.46275 0.0
C3872 C 0.54603 0.886 0.41706 0.0
C3873 C 0.53337 0.87728 0.42222 0.0
C3874 C 0.55886 0.88808 0.42655 0.0
C3875 C 0.55931 0.88157 0.44149 0.0
C3876 C 0.54686 0.87238 0.4465 0.0
C3877 C 0.53398 0.87024 0.43692 0.0
C3878 C 0.59151 0.87734 0.47119 0.0
C3879 C 0.59721 0.8926 0.47185 0.0
C3880 C 0.57916 0.87366 0.46137 0.0
C3881 C 0.5724 0.88516 0.45199 0.0
C3882 C 0.57817 0.90037 0.45269 0.0
C3883 C 0.59041 0.90404 0.46248 0.0
H3884 H 0.8366 0.83959 0.22774 0.0
H3885 H 0.8847 0.84004 0.24069 0.0
H3886 H 0.84164 0.81853 0.20954 0.0
H3887 H 0.88977 0.81904 0.22232 0.0
H3888 H 0.85944 0.79531 0.16593 0.0
H3889 H 0.85573 0.81597 0.18476 0.0
H3890 H 0.88353 0.79094 0.21799 0.0
H3891 H 0.88744 0.77018 0.19895 0.0
C3892 C 0.84824 0.83518 0.2267 0.0
C3893 C 0.86027 0.84147 0.23556 0.0
C3894 C 0.85114 0.82318 0.21624 0.0
C3895 C 0.86612 0.81724 0.21446 0.0
C3896 C 0.8781 0.82335 0.22354 0.0
C3897 C 0.87521 0.8354 0.23397 0.0
C3898 C 0.86484 0.79422 0.17722 0.0
C3899 C 0.87365 0.78109 0.18103 0.0
C3900 C 0.86262 0.80601 0.18803 0.0
C3901 C 0.86918 0.80496 0.20288 0.0
C3902 C 0.87838 0.79205 0.20659 0.0
C3903 C 0.88059 0.78018 0.19573 0.0
H3904 H 0.56223 0.96636 0.89859 0.0
H3905 H 0.54875 0.96605 0.85037 0.0
H3906 H 0.54707 0.94318 0.90317 0.0
H3907 H 0.53462 0.94189 0.85452 0.0
H3908 H 0.502 0.90276 0.87108 0.0
H3909 H 0.51411 0.92779 0.86532 0.0
H3910 H 0.55031 0.91717 0.89824 0.0
H3911 H 0.53755 0.89296 0.90465 0.0
C3912 C 0.55599 0.96126 0.88896 0.0
C3913 C 0.55688 0.96775 0.87408 0.0
C3914 C 0.54747 0.94783 0.8915 0.0
C3915 C 0.54009 0.94025 0.87909 0.0
C3916 C 0.54021 0.94732 0.86434 0.0
C3917 C 0.54838 0.96112 0.86192 0.0
C3918 C 0.51264 0.90584 0.87689 0.0
C3919 C 0.51886 0.89614 0.88836 0.0
C3920 C 0.51958 0.92014 0.87363 0.0
C3921 C 0.53301 0.92473 0.88159 0.0
C3922 C 0.53965 0.91439 0.89233 0.0
C3923 C 0.5325 0.9004 0.89587 0.0
H3924 H 0.85528 0.77963 0.61483 0.0
H3925 H 0.82988 0.76326 0.65473 0.0
H3926 H 0.83345 0.7965 0.6078 0.0
H3927 H 0.80804 0.77959 0.64739 0.0
H3928 H 0.76786 0.80013 0.61667 0.0
H3929 H 0.78966 0.7821 0.61899 0.0
H3930 H 0.82008 0.82053 0.62843 0.0
H3931 H 0.79828 0.83851 0.62665 0.0
C3932 C 0.84496 0.77946 0.6219 0.0
C3933 C 0.84423 0.77026 0.63535 0.0
C3934 C 0.83255 0.78907 0.61791 0.0
C3935 C 0.81915 0.78918 0.62705 0.0
C3936 C 0.81825 0.77956 0.64014 0.0
C3937 C 0.83075 0.77032 0.64435 0.0
C3938 C 0.77923 0.8047 0.6191 0.0
C3939 C 0.78141 0.82064 0.62168 0.0
C3940 C 0.79164 0.79443 0.62037 0.0
C3941 C 0.80645 0.80003 0.62378 0.0
C3942 C 0.80875 0.81602 0.62566 0.0
C3943 C 0.79629 0.82624 0.62478 0.0
H3944 H 0.94871 0.02895 0.35783 0.0
H3945 H 0.91514 0.0484 0.38937 0.0
H3946 H 0.96534 0.05158 0.36193 0.0
H3947 H 0.93153 0.07093 0.39324 0.0
H3948 H 0.97231 0.09674 0.41271 0.0
H3949 H 0.95652 0.07446 0.4064 0.0
H3950 H 0.9664 0.08089 0.35766 0.0
H3951 H 0.98259 0.10339 0.36403 0.0
C3952 C 0.94487 0.03808 0.36555 0.0
C3953 C 0.93074 0.03686 0.37343 0.0
C3954 C 0.95431 0.05104 0.3678 0.0
C3955 C 0.94976 0.06291 0.378 0.0
C3956 C 0.93544 0.06182 0.38552 0.0
C3957 C 0.92604 0.04893 0.38327 0.0
C3958 C 0.97117 0.09346 0.40062 0.0
C3959 C 0.97859 0.10189 0.38884 0.0
C3960 C 0.96205 0.08072 0.39701 0.0
C3961 C 0.96009 0.07608 0.38153 0.0
C3962 C 0.96777 0.08424 0.3697 0.0
C3963 C 0.97694 0.09712 0.37333 0.0
H3964 H 0.65203 0.23289 0.11657 0.0
H3965 H 0.65178 0.21335 0.16279 0.0
H3966 H 0.67287 0.21513 0.10925 0.0
H3967 H 0.6725 0.19584 0.15555 0.0
H3968 H 0.6978 0.15596 0.13405 0.0
H3969 H 0.6761 0.17326 0.13833 0.0
H3970 H 0.70093 0.21055 0.11603 0.0
H3971 H 0.72275 0.19306 0.11153 0.0
C3972 C 0.65638 0.22479 0.12512 0.0
C3973 C 0.65026 0.22448 0.14024 0.0
C3974 C 0.66834 0.21471 0.12096 0.0
C3975 C 0.67424 0.20406 0.13181 0.0
C3976 C 0.66804 0.20376 0.14687 0.0
C3977 C 0.65622 0.21386 0.15104 0.0
C3978 C 0.69863 0.16782 0.12997 0.0
C3979 C 0.71204 0.17323 0.12263 0.0
C3980 C 0.68621 0.17773 0.13246 0.0
C3981 C 0.6869 0.19329 0.12768 0.0
C3982 C 0.70007 0.19859 0.11979 0.0
C3983 C 0.71257 0.18862 0.11729 0.0
H3984 H 0.58087 0.04555 0.62053 0.0
H3985 H 0.54156 0.01681 0.63145 0.0
H3986 H 0.5642 0.06837 0.61951 0.0
H3987 H 0.52476 0.03972 0.62997 0.0
H3988 H 0.50654 0.08057 0.59535 0.0
H3989 H 0.52022 0.05734 0.60388 0.0
H3990 H 0.5442 0.0843 0.63852 0.0
H3991 H 0.53005 0.10763 0.63026 0.0
C3992 C 0.56865 0.04415 0.62272 0.0
C3993 C 0.5624 0.02945 0.62583 0.0
C3994 C 0.55919 0.0572 0.62234 0.0
C3995 C 0.54329 0.05572 0.62477 0.0
C3996 C 0.53704 0.04108 0.62817 0.0
C3997 C 0.54659 0.02804 0.62893 0.0
C3998 C 0.51447 0.08145 0.60503 0.0
C3999 C 0.51736 0.0958 0.61214 0.0
C4000 C 0.52219 0.06817 0.60995 0.0
C4001 C 0.53319 0.06912 0.62182 0.0
C4002 C 0.53569 0.08336 0.62937 0.0
C4003 C 0.52762 0.09663 0.62469 0.0
H4004 H 0.6445 0.78588 0.34208 0.0
H4005 H 0.65637 0.75165 0.37659 0.0
H4006 H 0.66688 0.80114 0.34915 0.0
H4007 H 0.67967 0.76639 0.38308 0.0
H4008 H 0.71466 0.8043 0.39817 0.0
H4009 H 0.69149 0.7886 0.39392 0.0
H4010 H 0.69299 0.80024 0.34504 0.0
H4011 H 0.71518 0.81665 0.34964 0.0
C4012 C 0.65202 0.78162 0.35118 0.0
C4013 C 0.64886 0.7676 0.35872 0.0
C4014 C 0.66498 0.79026 0.35514 0.0
C4015 C 0.67543 0.78481 0.36638 0.0
C4016 C 0.67191 0.77098 0.37438 0.0
C4017 C 0.65861 0.76251 0.37067 0.0
C4018 C 0.70996 0.80338 0.38656 0.0
C4019 C 0.71647 0.81182 0.37426 0.0
C4020 C 0.69673 0.79436 0.38408 0.0
C4021 C 0.69007 0.79341 0.36919 0.0
C4022 C 0.69732 0.80116 0.35679 0.0
C4023 C 0.71018 0.81045 0.35936 0.0
H4024 H 0.97661 0.89076 0.13012 0.0
H4025 H 0.96345 0.89573 0.08197 0.0
H4026 H 0.96086 0.9134 0.13674 0.0
H4027 H 0.94808 0.91831 0.08849 0.0
H4028 H 0.9104 0.94892 0.10665 0.0
H4029 H 0.92471 0.92509 0.1024 0.0
H4030 H 0.96124 0.94195 0.13201 0.0
H4031 H 0.94666 0.96585 0.13657 0.0
C4032 C 0.97027 0.89659 0.121 0.0
C4033 C 0.97124 0.89147 0.10554 0.0
C4034 C 0.96138 0.90961 0.12476 0.0
C4035 C 0.95325 0.91762 0.11313 0.0
C4036 C 0.95403 0.91227 0.09775 0.0
C4037 C 0.96291 0.89935 0.094 0.0
C4038 C 0.92148 0.94758 0.11228 0.0
C4039 C 0.92749 0.95931 0.12182 0.0
C4040 C 0.92968 0.93392 0.10982 0.0
C4041 C 0.94414 0.93169 0.11678 0.0
C4042 C 0.95006 0.9433 0.12659 0.0
C4043 C 0.9418 0.95701 0.12909 0.0
H4044 H 0.84694 0.23229 0.87822 0.0
H4045 H 0.84098 0.21663 0.83092 0.0
H4046 H 0.82544 0.2156 0.88638 0.0
H4047 H 0.81976 0.20017 0.83903 0.0
H4048 H 0.79667 0.15902 0.86058 0.0
H4049 H 0.81832 0.17618 0.8558 0.0
H4050 H 0.79561 0.21271 0.88134 0.0
H4051 H 0.77367 0.19533 0.88628 0.0
C4052 C 0.84106 0.22532 0.8696 0.0
C4053 C 0.84569 0.22569 0.85395 0.0
C4054 C 0.82874 0.21586 0.87425 0.0
C4055 C 0.82105 0.20652 0.86335 0.0
C4056 C 0.82562 0.20709 0.84772 0.0
C4057 C 0.83775 0.21658 0.84307 0.0
C4058 C 0.79626 0.17067 0.86528 0.0
C4059 C 0.78336 0.17592 0.87361 0.0
C4060 C 0.80868 0.1805 0.86251 0.0
C4061 C 0.80853 0.19582 0.86801 0.0
C4062 C 0.79598 0.20093 0.87699 0.0
C4063 C 0.78343 0.19104 0.87974 0.0
H4064 H 0.85431 0.55752 0.96727 0.0
H4065 H 0.90241 0.57014 0.96644 0.0
H4066 H 0.85826 0.54056 0.94505 0.0
H4067 H 0.90679 0.55227 0.94506 0.0
H4068 H 0.90733 0.53296 0.89642 0.0
H4069 H 0.90305 0.54964 0.91884 0.0
H4070 H 0.86819 0.51781 0.9356 0.0
H4071 H 0.87174 0.50194 0.91256 0.0
C4072 C 0.8658 0.55638 0.96251 0.0
C4073 C 0.87803 0.56518 0.96841 0.0
C4074 C 0.86813 0.54658 0.94981 0.0
C4075 C 0.88286 0.54507 0.94307 0.0
C4076 C 0.8952 0.55344 0.94955 0.0
C4077 C 0.89276 0.56356 0.96193 0.0
C4078 C 0.89872 0.52966 0.90492 0.0
C4079 C 0.88981 0.51629 0.90281 0.0
C4080 C 0.89634 0.53911 0.91786 0.0
C4081 C 0.8853 0.53509 0.92919 0.0
C4082 C 0.87654 0.52152 0.92704 0.0
C4083 C 0.87863 0.51234 0.91388 0.0
H4084 H 0.40616 0.92389 0.03275 0.0
H4085 H 0.35991 0.94214 0.03044 0.0
H4086 H 0.41242 0.94231 0.05319 0.0
H4087 H 0.36571 0.95986 0.05163 0.0
H4088 H 0.383 -0.0014 0.08165 0.0
H4089 H 0.3786 0.98204 0.05919 0.0
H4090 H 0.40843 0.94713 0.07929 0.0
H4091 H 0.41357 0.96427 0.10116 0.0
C4092 C 0.39731 0.9318 0.03674 0.0
C4093 C 0.38256 0.93161 0.03009 0.0
C4094 C 0.40083 0.94228 0.04855 0.0
C4095 C 0.38956 0.95256 0.05422 0.0
C4096 C 0.3748 0.95237 0.04741 0.0
C4097 C 0.3714 0.94212 0.03534 0.0
C4098 C 0.3887 0.98743 0.08112 0.0
C4099 C 0.39863 0.98267 0.09304 0.0
C4100 C 0.38609 0.97786 0.06833 0.0
C4101 C 0.39305 0.96314 0.0674 0.0
C4102 C 0.40308 0.95848 0.07939 0.0
C4103 C 0.40598 0.96823 0.09199 0.0
H4104 H 0.79282 0.65355 0.8566 0.0
H4105 H 0.75647 0.62293 0.84158 0.0
H4106 H 0.80841 0.64587 0.83447 0.0
H4107 H 0.77149 0.61603 0.81856 0.0
H4108 H 0.80683 0.59994 0.78257 0.0
H4109 H 0.79251 0.6039 0.80673 0.0
H4110 H 0.80897 0.6513 0.80844 0.0
H4111 H 0.82394 0.64688 0.78515 0.0
C4112 C 0.78821 0.64515 0.84846 0.0
C4113 C 0.7735 0.63887 0.85061 0.0
C4114 C 0.79703 0.64086 0.83567 0.0
C4115 C 0.79108 0.63063 0.82442 0.0
C4116 C 0.77653 0.62386 0.82698 0.0
C4117 C 0.76788 0.62782 0.84011 0.0
C4118 C 0.80733 0.61115 0.78823 0.0
C4119 C 0.81653 0.62308 0.78216 0.0
C4120 C 0.79911 0.61347 0.80202 0.0
C4121 C 0.79972 0.62786 0.80975 0.0
C4122 C 0.8086 0.63988 0.80323 0.0
C4123 C 0.81708 0.63743 0.78975 0.0
H4124 H 0.13033 0.05032 0.52425 0.0
H4125 H 0.10433 0.08562 0.54841 0.0
H4126 H 0.12591 0.03238 0.54574 0.0
H4127 H 0.1002 0.06784 0.57 0.0
H4128 H 0.12797 0.01018 0.59382 0.0
H4129 H 0.13295 0.02855 0.57292 0.0
H4130 H 0.08569 0.04416 0.57525 0.0
H4131 H 0.08079 0.02599 0.59642 0.0
C4132 C 0.12377 0.05426 0.5342 0.0
C4133 C 0.1176 0.06931 0.53465 0.0
C4134 C 0.1213 0.04404 0.54652 0.0
C4135 C 0.11265 0.0487 0.55952 0.0
C4136 C 0.10669 0.06384 0.56003 0.0
C4137 C 0.10914 0.07404 0.54771 0.0
C4138 C 0.11866 0.01757 0.58989 0.0
C4139 C 0.10399 0.01668 0.59672 0.0
C4140 C 0.12149 0.02802 0.57787 0.0
C4141 C 0.10971 0.03776 0.57243 0.0
C4142 C 0.09505 0.03692 0.57933 0.0
C4143 C 0.09222 0.02647 0.59138 0.0
H4144 H 0.20489 0.84554 0.86038 0.0
H4145 H 0.24144 0.87629 0.84618 0.0
H4146 H 0.1902 0.85237 0.83736 0.0
H4147 H 0.22729 0.88242 0.82232 0.0
H4148 H 0.19191 0.89712 0.78499 0.0
H4149 H 0.20615 0.8939 0.80935 0.0
H4150 H 0.19136 0.84598 0.81141 0.0
H4151 H 0.17649 0.84961 0.78789 0.0
C4152 C 0.2097 0.85385 0.85226 0.0
C4153 C 0.22421 0.86039 0.85489 0.0
C4154 C 0.20141 0.85762 0.83896 0.0
C4155 C 0.20773 0.86761 0.82769 0.0
C4156 C 0.22203 0.87473 0.83073 0.0
C4157 C 0.23016 0.87124 0.84435 0.0
C4158 C 0.19182 0.88593 0.79073 0.0
C4159 C 0.18302 0.87365 0.78476 0.0
C4160 C 0.19998 0.88406 0.80464 0.0
C4161 C 0.19967 0.86977 0.81259 0.0
C4162 C 0.19142 0.85733 0.80602 0.0
C4163 C 0.18301 0.85933 0.79242 0.0
H4164 H 0.59044 0.46739 0.39701 0.0
H4165 H 0.62505 0.49828 0.41533 0.0
H4166 H 0.59444 0.44981 0.41877 0.0
H4167 H 0.62829 0.48149 0.43778 0.0
H4168 H 0.64252 0.44125 0.46797 0.0
H4169 H 0.63859 0.45856 0.44611 0.0
H4170 H 0.59042 0.4455 0.44475 0.0
H4171 H 0.59484 0.42723 0.46581 0.0
C4172 C 0.59874 0.47049 0.40588 0.0
C4173 C 0.60748 0.48408 0.40456 0.0
C4174 C 0.60097 0.4605 0.41844 0.0
C4175 C 0.6117 0.46416 0.43016 0.0
C4176 C 0.62021 0.47801 0.42886 0.0
C4177 C 0.61829 0.48774 0.41607 0.0
C4178 C 0.63112 0.44208 0.46295 0.0
C4179 C 0.61901 0.43285 0.46846 0.0
C4180 C 0.62879 0.45213 0.45047 0.0
C4181 C 0.61415 0.45352 0.44355 0.0
C4182 C 0.60194 0.44452 0.44945 0.0
C4183 C 0.60441 0.43414 0.46163 0.0
H4184 H 0.76017 0.33841 0.66259 0.0
H4185 H 0.77956 0.37643 0.63639 0.0
H4186 H 0.77429 0.34683 0.68561 0.0
H4187 H 0.79419 0.38458 0.6595 0.0
H4188 H 0.83289 0.36865 0.6978 0.0
H4189 H 0.81632 0.36616 0.67498 0.0
H4190 H 0.77624 0.37386 0.7036 0.0
H4191 H 0.79289 0.37686 0.72649 0.0
C4192 C 0.76739 0.34864 0.66182 0.0
C4193 C 0.7689 0.35676 0.64777 0.0
C4194 C 0.77534 0.3535 0.67499 0.0
C4195 C 0.78521 0.36633 0.67423 0.0
C4196 C 0.78654 0.37468 0.66028 0.0
C4197 C 0.77822 0.37005 0.64714 0.0
C4198 C 0.82055 0.3699 0.6992 0.0
C4199 C 0.81409 0.37272 0.71388 0.0
C4200 C 0.81113 0.36867 0.68614 0.0
C4201 C 0.7951 0.36992 0.68763 0.0
C4202 C 0.78862 0.37296 0.70225 0.0
C4203 C 0.79809 0.37459 0.71528 0.0
H4204 H 0.72842 0.61749 0.14323 0.0
H4205 H 0.71109 0.66416 0.14906 0.0
H4206 H 0.71301 0.60901 0.16557 0.0
H4207 H 0.69591 0.65574 0.17119 0.0
H4208 H 0.659 0.63367 0.19972 0.0
H4209 H 0.67329 0.63848 0.17591 0.0
H4210 H 0.71269 0.61448 0.19493 0.0
H4211 H 0.69826 0.60947 0.21888 0.0
C4212 C 0.72127 0.62588 0.14921 0.0
C4213 C 0.72092 0.64147 0.14443 0.0
C4214 C 0.71255 0.62105 0.162 0.0
C4215 C 0.70324 0.63172 0.17001 0.0
C4216 C 0.70282 0.64723 0.16508 0.0
C4217 C 0.71159 0.65206 0.15247 0.0
C4218 C 0.67067 0.62931 0.19881 0.0
C4219 C 0.67762 0.6214 0.21122 0.0
C4220 C 0.67884 0.63208 0.18519 0.0
C4221 C 0.69412 0.62699 0.18368 0.0
C4222 C 0.70088 0.61846 0.1958 0.0
C4223 C 0.69268 0.6157 0.20951 0.0
H4224 H 0.52851 0.64846 0.93831 0.0
H4225 H 0.53253 0.60133 0.92184 0.0
H4226 H 0.55295 0.64571 0.95219 0.0
H4227 H 0.55614 0.59812 0.93639 0.0
H4228 H 0.60394 0.59747 0.95202 0.0
H4229 H 0.58181 0.60465 0.93627 0.0
H4230 H 0.56535 0.63418 0.97341 0.0
H4231 H 0.58828 0.62783 0.98857 0.0
C4232 C 0.53454 0.63747 0.93784 0.0
C4233 C 0.52879 0.62515 0.92892 0.0
C4234 C 0.54851 0.63585 0.94581 0.0
C4235 C 0.55673 0.62177 0.94523 0.0
C4236 C 0.55053 0.60934 0.93669 0.0
C4237 C 0.53686 0.61109 0.92848 0.0
C4238 C 0.5957 0.60573 0.95662 0.0
C4239 C 0.59762 0.61203 0.97146 0.0
C4240 C 0.58292 0.60974 0.94771 0.0
C4241 C 0.57149 0.61966 0.95372 0.0
C4242 C 0.5739 0.62657 0.96834 0.0
C4243 C 0.58698 0.62291 0.97706 0.0
H4244 H 0.60289 0.28122 0.19103 0.0
H4245 H 0.64916 0.289 0.17433 0.0
H4246 H 0.60399 0.30566 0.20546 0.0
H4247 H 0.65062 0.31277 0.18924 0.0
H4248 H 0.64716 0.36093 0.20407 0.0
H4249 H 0.64119 0.33814 0.18855 0.0
H4250 H 0.61532 0.31897 0.22699 0.0
H4251 H 0.6206 0.34246 0.24212 0.0
C4252 C 0.61335 0.28806 0.19061 0.0
C4253 C 0.62588 0.28334 0.18142 0.0
C4254 C 0.61399 0.30204 0.19889 0.0
C4255 C 0.62727 0.3114 0.19827 0.0
C4256 C 0.63999 0.30621 0.18957 0.0
C4257 C 0.63924 0.29246 0.18114 0.0
C4258 C 0.63982 0.35201 0.20898 0.0
C4259 C 0.63433 0.35333 0.22421 0.0
C4260 C 0.63657 0.33885 0.20021 0.0
C4261 C 0.62818 0.32645 0.20668 0.0
C4262 C 0.62181 0.32826 0.22163 0.0
C4263 C 0.62479 0.3417 0.2303 0.0
H4264 H 0.97611 0.3617 0.45385 0.0
H4265 H 0.94589 0.36209 0.41405 0.0
H4266 H 0.95372 0.36507 0.47104 0.0
H4267 H 0.92357 0.36486 0.43121 0.0
H4268 H 0.88807 0.35964 0.47325 0.0
H4269 H 0.9105 0.34951 0.45898 0.0
H4270 H 0.93447 0.39269 0.46661 0.0
H4271 H 0.91208 0.403 0.4803 0.0
C4272 C 0.96465 0.362 0.44888 0.0
C4273 C 0.96259 0.36184 0.43274 0.0
C4274 C 0.95193 0.3639 0.45864 0.0
C4275 C 0.93707 0.36513 0.45232 0.0
C4276 C 0.93495 0.36378 0.43626 0.0
C4277 C 0.94767 0.36232 0.4265 0.0
C4278 C 0.89818 0.36689 0.47189 0.0
C4279 C 0.89836 0.38212 0.47769 0.0
C4280 C 0.91094 0.36109 0.46384 0.0
C4281 C 0.92413 0.37031 0.46199 0.0
C4282 C 0.92444 0.38535 0.46815 0.0
C4283 C 0.91161 0.39127 0.4758 0.0
H4284 H 0.87849 0.64562 0.72719 0.0
H4285 H 0.83087 0.65052 0.71337 0.0
H4286 H 0.88548 0.66717 0.70992 0.0
H4287 H 0.83777 0.67189 0.69642 0.0
H4288 H 0.8559 0.69963 0.65662 0.0
H4289 H 0.8522 0.6764 0.67227 0.0
H4290 H 0.88062 0.69602 0.70846 0.0
H4291 H 0.88455 0.71928 0.69264 0.0
C4292 C 0.86956 0.65123 0.72043 0.0
C4293 C 0.85414 0.64641 0.72163 0.0
C4294 C 0.87354 0.66358 0.71063 0.0
C4295 C 0.86217 0.67113 0.70178 0.0
C4296 C 0.84682 0.66614 0.70291 0.0
C4297 C 0.84286 0.65396 0.71272 0.0
C4298 C 0.86144 0.69897 0.66788 0.0
C4299 C 0.87034 0.71134 0.67351 0.0
C4300 C 0.8593 0.68567 0.67684 0.0
C4301 C 0.866 0.68447 0.69164 0.0
C4302 C 0.8754 0.6966 0.69705 0.0
C4303 C 0.87755 0.70994 0.68806 0.0
H4304 H 0.5471 0.38138 0.59017 0.0
H4305 H 0.52503 0.36029 0.55045 0.0
H4306 H 0.57056 0.38486 0.5752 0.0
H4307 H 0.54858 0.36415 0.53523 0.0
H4308 H 0.59796 0.3651 0.5158 0.0
H4309 H 0.57649 0.35714 0.53247 0.0
H4310 H 0.57649 0.4025 0.55386 0.0
H4311 H 0.59788 0.41032 0.53751 0.0
C4312 C 0.54728 0.37747 0.57822 0.0
C4313 C 0.53418 0.37083 0.57136 0.0
C4314 C 0.56071 0.37947 0.56965 0.0
C4315 C 0.56131 0.37499 0.554 0.0
C4316 C 0.54845 0.36766 0.54731 0.0
C4317 C 0.53496 0.36555 0.55596 0.0
C4318 C 0.59346 0.37327 0.52421 0.0
C4319 C 0.59955 0.38833 0.52536 0.0
C4320 C 0.58113 0.36875 0.53365 0.0
C4321 C 0.57485 0.37919 0.54446 0.0
C4322 C 0.58123 0.39411 0.5458 0.0
C4323 C 0.59344 0.39863 0.53636 0.0
H4324 H 0.87375 0.3412 0.75136 0.0
H4325 H 0.84935 0.36041 0.79047 0.0
H4326 H 0.88028 0.31821 0.76678 0.0
H4327 H 0.85663 0.33818 0.80624 0.0
H4328 H 0.84987 0.28932 0.82207 0.0
H4329 H 0.84749 0.31285 0.80694 0.0
H4330 H 0.89299 0.30538 0.78782 0.0
H4331 H 0.89494 0.2811 0.80258 0.0
C4332 C 0.87031 0.34071 0.76344 0.0
C4333 C 0.86101 0.35239 0.7698 0.0
C4334 C 0.87402 0.32757 0.77229 0.0
C4335 C 0.86864 0.32612 0.78766 0.0
C4336 C 0.8605 0.3386 0.79429 0.0
C4337 C 0.85649 0.35145 0.78537 0.0
C4338 C 0.85936 0.29268 0.81462 0.0
C4339 C 0.87261 0.28347 0.81354 0.0
C4340 C 0.85809 0.3063 0.80604 0.0
C4341 C 0.87021 0.31129 0.7964 0.0
C4342 C 0.88342 0.3019 0.7951 0.0
C4343 C 0.88457 0.28802 0.80354 0.0
H4344 H 0.90725 0.6284 0.00495 0.0
H4345 H 0.89117 0.59864 0.04184 0.0
H4346 H 0.93061 0.6341 0.01987 0.0
H4347 H 0.91386 0.60496 0.05714 0.0
H4348 H 0.96293 0.59894 0.07005 0.0
H4349 H 0.93967 0.59675 0.05468 0.0
H4350 H 0.94306 0.64529 0.04233 0.0
H4351 H 0.96704 0.64721 0.0572 0.0
C4352 C 0.90854 0.6235 0.01646 0.0
C4353 C 0.89766 0.61294 0.02225 0.0
C4354 C 0.92186 0.62675 0.025 0.0
C4355 C 0.92428 0.61963 0.0395 0.0
C4356 C 0.91263 0.61016 0.04576 0.0
C4357 C 0.89956 0.60666 0.03711 0.0
C4358 C 0.95879 0.60911 0.06393 0.0
C4359 C 0.96662 0.62328 0.06496 0.0
C4360 C 0.94535 0.60792 0.05527 0.0
C4361 C 0.93923 0.62098 0.04768 0.0
C4362 C 0.94745 0.63504 0.04811 0.0
C4363 C 0.96114 0.63615 0.05663 0.0
H4364 H 0.65661 0.66236 0.26103 0.0
H4365 H 0.61941 0.63462 0.27947 0.0
H4366 H 0.64734 0.68479 0.2756 0.0
H4367 H 0.61041 0.65713 0.29458 0.0
H4368 H 0.62562 0.69548 0.3344 0.0
H4369 H 0.62813 0.67288 0.31742 0.0
H4370 H 0.61968 0.70184 0.27745 0.0
H4371 H 0.61663 0.72449 0.29452 0.0
C4372 C 0.6464 0.66111 0.26816 0.0
C4373 C 0.63875 0.64679 0.26925 0.0
C4374 C 0.64104 0.67395 0.27636 0.0
C4375 C 0.62816 0.67261 0.28606 0.0
C4376 C 0.62033 0.65838 0.28704 0.0
C4377 C 0.62547 0.64557 0.27847 0.0
C4378 C 0.62407 0.69697 0.32201 0.0
C4379 C 0.62112 0.71169 0.31569 0.0
C4380 C 0.62536 0.68404 0.31235 0.0
C4381 C 0.62404 0.68571 0.29622 0.0
C4382 C 0.62064 0.70034 0.2899 0.0
C4383 C 0.61895 0.71324 0.29962 0.0
H4384 H 0.92427 0.54426 0.65064 0.0
H4385 H 0.93706 0.52564 0.606 0.0
H4386 H 0.94268 0.56569 0.647 0.0
H4387 H 0.95579 0.54637 0.6026 0.0
H4388 H 0.9662 0.59536 0.58942 0.0
H4389 H 0.95069 0.57327 0.59689 0.0
H4390 H 0.96995 0.57484 0.64313 0.0
H4391 H 0.98543 0.59752 0.63564 0.0
C4392 C 0.93143 0.5445 0.64034 0.0
C4393 C 0.9293 0.5335 0.62852 0.0
C4394 C 0.94191 0.55672 0.63823 0.0
C4395 C 0.95039 0.55791 0.62434 0.0
C4396 C 0.9491 0.54604 0.61322 0.0
C4397 C 0.93851 0.5341 0.6152 0.0
C4398 C 0.96716 0.59107 0.6012 0.0
C4399 C 0.97716 0.59808 0.6119 0.0
C4400 C 0.95833 0.5783 0.60547 0.0
C4401 C 0.95937 0.57205 0.6205 0.0
C4402 C 0.96897 0.57936 0.63144 0.0
C4403 C 0.97782 0.59231 0.62716 0.0
H4404 H 0.65693 0.74154 0.87818 0.0
H4405 H 0.64099 0.70324 0.85025 0.0
H4406 H 0.68058 0.72729 0.88413 0.0
H4407 H 0.66392 0.6885 0.857 0.0
H4408 H 0.71306 0.67569 0.85092 0.0
H4409 H 0.68929 0.69015 0.8485 0.0
H4410 H 0.6942 0.70636 0.89581 0.0
H4411 H 0.71877 0.69248 0.89778 0.0
C4412 C 0.65831 0.72984 0.87378 0.0
C4413 C 0.64737 0.72347 0.86364 0.0
C4414 C 0.67182 0.72167 0.87718 0.0
C4415 C 0.67437 0.70691 0.87069 0.0
C4416 C 0.66264 0.70008 0.86169 0.0
C4417 C 0.64941 0.7084 0.85797 0.0
C4418 C 0.70912 0.68246 0.86075 0.0
C4419 C 0.71762 0.68288 0.87457 0.0
C4420 C 0.69538 0.6906 0.85947 0.0
C4421 C 0.68953 0.69906 0.87213 0.0
C4422 C 0.69834 0.69993 0.88584 0.0
C4423 C 0.71238 0.692 0.887 0.0
H4424 H 0.55428 0.47639 0.11075 0.0
H4425 H 0.57676 0.44806 0.14521 0.0
H4426 H 0.53478 0.45632 0.10698 0.0
H4427 H 0.55757 0.42754 0.1411 0.0
H4428 H 0.51557 0.39575 0.13316 0.0
H4429 H 0.53027 0.41847 0.14193 0.0
H4430 H 0.53789 0.43162 0.09411 0.0
H4431 H 0.52322 0.40939 0.08548 0.0
C4432 C 0.5548 0.46593 0.11772 0.0
C4433 C 0.56685 0.46362 0.12823 0.0
C4434 C 0.54375 0.45441 0.11552 0.0
C4435 C 0.5448 0.44024 0.12355 0.0
C4436 C 0.55639 0.43837 0.13482 0.0
C4437 C 0.56737 0.45003 0.13715 0.0
C4438 C 0.5203 0.40362 0.12459 0.0
C4439 C 0.51827 0.40079 0.10865 0.0
C4440 C 0.52873 0.41656 0.12959 0.0
C4441 C 0.5351 0.42692 0.11871 0.0
C4442 C 0.53286 0.42409 0.10281 0.0
C4443 C 0.52456 0.41122 0.09785 0.0
H4444 H 0.76617 0.29363 0.38303 0.0
H4445 H 0.7967 0.33293 0.37852 0.0
H4446 H 0.78824 0.27601 0.38003 0.0
H4447 H 0.81871 0.31538 0.37609 0.0
H4448 H 0.85467 0.27476 0.38133 0.0
H4449 H 0.83263 0.28911 0.39219 0.0
H4450 H 0.80581 0.27795 0.35151 0.0
H4451 H 0.82782 0.2642 0.34044 0.0
C4452 C 0.77764 0.29844 0.38187 0.0
C4453 C 0.77984 0.31452 0.38073 0.0
C4454 C 0.79019 0.28842 0.38022 0.0
C4455 C 0.80504 0.29446 0.37791 0.0
C4456 C 0.80734 0.31055 0.37802 0.0
C4457 C 0.79479 0.32052 0.37925 0.0
C4458 C 0.84399 0.27531 0.37483 0.0
C4459 C 0.84289 0.2686 0.36002 0.0
C4460 C 0.83146 0.2834 0.38105 0.0
C4461 C 0.81761 0.28436 0.3727 0.0
C4462 C 0.81636 0.27711 0.3582 0.0
C4463 C 0.82896 0.26944 0.35182 0.0
H4464 H 0.92555 0.45374 0.8467 0.0
H4465 H 0.92657 0.46364 0.89579 0.0
H4466 H 0.94231 0.43113 0.85098 0.0
H4467 H 0.94378 0.44188 0.90001 0.0
H4468 H 0.95641 0.39293 0.90769 0.0
H4469 H 0.9404 0.41479 0.9004 0.0
H4470 H 0.96745 0.42118 0.85871 0.0
H4471 H 0.98315 0.3986 0.8658 0.0
C4472 C 0.92967 0.45126 0.85831 0.0
C4473 C 0.92467 0.46019 0.87097 0.0
C4474 C 0.93924 0.43836 0.86078 0.0
C4475 C 0.94406 0.43445 0.87591 0.0
C4476 C 0.93982 0.44416 0.8883 0.0
C4477 C 0.93009 0.45673 0.88589 0.0
C4478 C 0.95887 0.3989 0.8969 0.0
C4479 C 0.97111 0.39421 0.8874 0.0
C4480 C 0.94977 0.41153 0.89276 0.0
C4481 C 0.95289 0.42003 0.87917 0.0
C4482 C 0.96475 0.41491 0.86927 0.0
C4483 C 0.97375 0.40202 0.87332 0.0
H4484 H 0.79026 0.66517 0.13386 0.0
H4485 H 0.7706 0.70082 0.10462 0.0
H4486 H 0.81275 0.68128 0.13829 0.0
H4487 H 0.79338 0.71715 0.10924 0.0
H4488 H 0.84636 0.73281 0.11348 0.0
H4489 H 0.82389 0.7174 0.10536 0.0
H4490 H 0.81427 0.70663 0.15336 0.0
H4491 H 0.83638 0.72174 0.16143 0.0
C4492 C 0.79076 0.67645 0.12832 0.0
C4493 C 0.77857 0.68187 0.11911 0.0
C4494 C 0.80365 0.68565 0.13086 0.0
C4495 C 0.80466 0.7005 0.12426 0.0
C4496 C 0.79283 0.70571 0.11443 0.0
C4497 C 0.77981 0.69644 0.11189 0.0
C4498 C 0.83936 0.72718 0.12224 0.0
C4499 C 0.8432 0.72834 0.13806 0.0
C4500 C 0.82653 0.71846 0.11761 0.0
C4501 C 0.81754 0.71072 0.12875 0.0
C4502 C 0.82118 0.71228 0.14453 0.0
C4503 C 0.83384 0.72098 0.14914 0.0
H4504 H 0.52887 0.59291 0.40938 0.0
H4505 H 0.51467 0.59997 0.36179 0.0
H4506 H 0.54726 0.57346 0.40097 0.0
H4507 H 0.53335 0.58025 0.35332 0.0
H4508 H 0.55835 0.52942 0.35368 0.0
H4509 H 0.53902 0.54999 0.3575 0.0
H4510 H 0.57176 0.57592 0.3849 0.0
H4511 H 0.59078 0.55561 0.38128 0.0
C4512 C 0.52964 0.59028 0.39711 0.0
C4513 C 0.52041 0.59806 0.38623 0.0
C4514 C 0.54023 0.57917 0.39229 0.0
C4515 C 0.54183 0.57552 0.37649 0.0
C4516 C 0.53231 0.58291 0.36557 0.0
C4517 C 0.52171 0.5942 0.37041 0.0
C4518 C 0.56143 0.53968 0.36024 0.0
C4519 C 0.57591 0.54082 0.36745 0.0
C4520 C 0.55042 0.55142 0.3624 0.0
C4521 C 0.55386 0.56434 0.37175 0.0
C4522 C 0.56872 0.56591 0.37793 0.0
C4523 C 0.5796 0.55427 0.37584 0.0
H4524 H 0.65001 0.28312 0.65914 0.0
H4525 H 0.64775 0.26368 0.61293 0.0
H4526 H 0.6717 0.29913 0.65136 0.0
H4527 H 0.6696 0.27992 0.60507 0.0
H4528 H 0.7006 0.33597 0.63011 0.0
H4529 H 0.67701 0.32126 0.63369 0.0
H4530 H 0.6982 0.28133 0.61216 0.0
H4531 H 0.72197 0.29624 0.60832 0.0
C4532 C 0.65406 0.28239 0.64726 0.0
C4533 C 0.64722 0.27216 0.63664 0.0
C4534 C 0.66643 0.29161 0.64279 0.0
C4535 C 0.67228 0.29077 0.62761 0.0
C4536 C 0.66533 0.2807 0.61687 0.0
C4537 C 0.65281 0.27152 0.62133 0.0
C4538 C 0.70024 0.32409 0.62602 0.0
C4539 C 0.71319 0.31714 0.61917 0.0
C4540 C 0.68672 0.31568 0.62808 0.0
C4541 C 0.68588 0.30013 0.62338 0.0
C4542 C 0.69857 0.29335 0.61583 0.0
C4543 C 0.71216 0.30182 0.61374 0.0
H4544 H 0.59688 0.92601 0.53438 0.0
H4545 H 0.64415 0.94124 0.5311 0.0
H4546 H 0.59359 0.94101 0.55791 0.0
H4547 H 0.64119 0.95569 0.55542 0.0
H4548 H 0.62315 0.99174 0.59202 0.0
H4549 H 0.6295 0.97729 0.56833 0.0
H4550 H 0.60057 0.93948 0.58393 0.0
H4551 H 0.59358 0.95435 0.60682 0.0
C4552 C 0.60662 0.93252 0.5388 0.0
C4553 C 0.6208 0.93234 0.53104 0.0
C4554 C 0.60481 0.941 0.55242 0.0
C4555 C 0.61725 0.94924 0.55887 0.0
C4556 C 0.63137 0.94947 0.55081 0.0
C4557 C 0.63309 0.94118 0.53691 0.0
C4558 C 0.61842 0.98023 0.59038 0.0
C4559 C 0.60778 0.97415 0.60103 0.0
C4560 C 0.62203 0.97194 0.57685 0.0
C4561 C 0.61523 0.95737 0.57399 0.0
C4562 C 0.60557 0.9509 0.58541 0.0
C4563 C 0.60169 0.95931 0.59863 0.0
H4564 H 0.09714 0.56857 0.46035 0.0
H4565 H 0.14468 0.55397 0.46084 0.0
H4566 H 0.09274 0.55384 0.43684 0.0
H4567 H 0.14065 0.5399 0.43644 0.0
H4568 H 0.12168 0.50406 0.40046 0.0
H4569 H 0.12908 0.51856 0.42375 0.0
H4570 H 0.09768 0.55529 0.4106 0.0
H4571 H 0.08962 0.54025 0.38817 0.0
C4572 C 0.1067 0.56227 0.45528 0.0
C4573 C 0.12125 0.56248 0.46229 0.0
C4574 C 0.10426 0.55396 0.44166 0.0
C4575 C 0.11644 0.546 0.43439 0.0
C4576 C 0.13098 0.54587 0.44168 0.0
C4577 C 0.13333 0.55394 0.45562 0.0
C4578 C 0.11661 0.51537 0.40253 0.0
C4579 C 0.105 0.52104 0.39273 0.0
C4580 C 0.12083 0.52369 0.41584 0.0
C4581 C 0.11368 0.53794 0.41934 0.0
C4582 C 0.10299 0.54409 0.40869 0.0
C4583 C 0.0985 0.5356 0.3957 0.0
H4584 H 0.67153 0.89951 0.70172 0.0
H4585 H 0.6969 0.86693 0.72978 0.0
H4586 H 0.69035 0.89637 0.6807 0.0
H4587 H 0.71594 0.86402 0.70908 0.0
H4588 H 0.72465 0.84147 0.66161 0.0
H4589 H 0.71116 0.8503 0.68457 0.0
H4590 H 0.71764 0.89794 0.67039 0.0
H4591 H 0.73126 0.889 0.64703 0.0
C4592 C 0.68154 0.89224 0.70359 0.0
C4593 C 0.68296 0.88352 0.71727 0.0
C4594 C 0.69229 0.89041 0.6916 0.0
C4595 C 0.70447 0.87976 0.69317 0.0
C4596 C 0.70652 0.87212 0.70745 0.0
C4597 C 0.69576 0.87388 0.71935 0.0
C4598 C 0.72331 0.85385 0.66336 0.0
C4599 C 0.729 0.86454 0.65248 0.0
C4600 C 0.7157 0.85892 0.67664 0.0
C4601 C 0.71352 0.87483 0.67941 0.0
C4602 C 0.7192 0.88561 0.66856 0.0
C4603 C 0.72697 0.8805 0.65522 0.0
H4604 H 0.36761 0.49096 0.9048 0.0
H4605 H 0.39265 0.45277 0.88464 0.0
H4606 H 0.36232 0.47533 0.92791 0.0
H4607 H 0.38652 0.43669 0.90704 0.0
H4608 H 0.39519 0.42109 0.95592 0.0
H4609 H 0.39633 0.43589 0.93204 0.0
H4610 H 0.35087 0.45435 0.94124 0.0
H4611 H 0.35023 0.4401 0.96578 0.0
C4612 C 0.3714 0.47898 0.9051 0.0
C4613 C 0.38054 0.47298 0.8931 0.0
C4614 C 0.36841 0.47001 0.91832 0.0
C4615 C 0.37434 0.45483 0.91956 0.0
C4616 C 0.38226 0.44849 0.90678 0.0
C4617 C 0.38558 0.45758 0.89383 0.0
C4618 C 0.38546 0.42835 0.95287 0.0
C4619 C 0.37261 0.42939 0.96265 0.0
C4620 C 0.386 0.43672 0.93905 0.0
C4621 C 0.37353 0.4461 0.93445 0.0
C4622 C 0.3607 0.4473 0.94439 0.0
C4623 C 0.36031 0.43911 0.95844 0.0
H4624 H 0.30325 0.60241 0.71917 0.0
H4625 H 0.33653 0.62837 0.69237 0.0
H4626 H 0.28434 0.60557 0.69802 0.0
H4627 H 0.3179 0.63138 0.67156 0.0
H4628 H 0.27487 0.65713 0.65576 0.0
H4629 H 0.29221 0.6482 0.67595 0.0
H4630 H 0.28084 0.60064 0.66532 0.0
H4631 H 0.26326 0.6096 0.64472 0.0
C4632 C 0.30662 0.60842 0.70866 0.0
C4633 C 0.32119 0.61544 0.70749 0.0
C4634 C 0.29586 0.61019 0.69661 0.0
C4635 C 0.29969 0.61891 0.68336 0.0
C4636 C 0.31465 0.6248 0.68178 0.0
C4637 C 0.32527 0.62311 0.69371 0.0
C4638 C 0.27592 0.64476 0.65771 0.0
C4639 C 0.26781 0.63406 0.64854 0.0
C4640 C 0.28587 0.63967 0.66927 0.0
C4641 C 0.2879 0.62376 0.67203 0.0
C4642 C 0.2794 0.61296 0.66335 0.0
C4643 C 0.26945 0.61809 0.65157 0.0
H4644 H 0.85046 0.05514 0.03477 0.0
H4645 H 0.89805 0.06937 0.03743 0.0
H4646 H 0.85337 0.04065 0.05899 0.0
H4647 H 0.90138 0.05414 0.06083 0.0
H4648 H 0.9025 0.03817 0.10909 0.0
H4649 H 0.8958 0.05423 0.08688 0.0
H4650 H 0.86391 0.0189 0.07124 0.0
H4651 H 0.8699 0.00346 0.09429 0.0
C4652 C 0.86159 0.05498 0.04044 0.0
C4653 C 0.87399 0.0635 0.03437 0.0
C4654 C 0.8633 0.04663 0.05429 0.0
C4655 C 0.87755 0.0464 0.06211 0.0
C4656 C 0.89006 0.05447 0.05555 0.0
C4657 C 0.88824 0.06307 0.04199 0.0
C4658 C 0.8938 0.03407 0.10104 0.0
C4659 C 0.88671 0.01966 0.10327 0.0
C4660 C 0.89009 0.04314 0.08819 0.0
C4661 C 0.87963 0.03771 0.07693 0.0
C4662 C 0.87196 0.02354 0.07964 0.0
C4663 C 0.87537 0.01466 0.09282 0.0
H4664 H 0.72324 0.1557 0.83723 0.0
H4665 H 0.73308 0.10836 0.8505 0.0
H4666 H 0.70955 0.14659 0.81454 0.0
H4667 H 0.71931 0.09912 0.82733 0.0
H4668 H 0.67357 0.09486 0.79581 0.0
H4669 H 0.69198 0.09897 0.81707 0.0
H4670 H 0.71502 0.13405 0.78973 0.0
H4671 H 0.69638 0.13019 0.76885 0.0
C4672 C 0.72257 0.14331 0.83525 0.0
C4673 C 0.72928 0.13275 0.84566 0.0
C4674 C 0.71483 0.13808 0.82212 0.0
C4675 C 0.71358 0.12214 0.81899 0.0
C4676 C 0.72015 0.11148 0.82944 0.0
C4677 C 0.72801 0.11676 0.84267 0.0
C4678 C 0.68294 0.10303 0.79425 0.0
C4679 C 0.68374 0.11219 0.78082 0.0
C4680 C 0.69344 0.1054 0.80637 0.0
C4681 C 0.70477 0.11702 0.80515 0.0
C4682 C 0.70624 0.12521 0.7911 0.0
C4683 C 0.69571 0.12292 0.77911 0.0
H4684 H 0.80891 0.89038 0.28222 0.0
H4685 H 0.84191 0.86219 0.30704 0.0
H4686 H 0.78993 0.88579 0.30294 0.0
H4687 H 0.8232 0.8578 0.32752 0.0
H4688 H 0.78072 0.83292 0.34485 0.0
H4689 H 0.79872 0.84181 0.32526 0.0
H4690 H 0.78469 0.88921 0.33325 0.0
H4691 H 0.76638 0.88025 0.35313 0.0
C4692 C 0.81219 0.88348 0.2922 0.0
C4693 C 0.82676 0.87638 0.2929 0.0
C4694 C 0.80137 0.8809 0.30403 0.0
C4695 C 0.80506 0.87122 0.31663 0.0
C4696 C 0.81997 0.86505 0.31776 0.0
C4697 C 0.83068 0.86757 0.30602 0.0
C4698 C 0.78138 0.84525 0.34247 0.0
C4699 C 0.77222 0.8559 0.35064 0.0
C4700 C 0.79175 0.85034 0.33127 0.0
C4701 C 0.79323 0.8662 0.32792 0.0
C4702 C 0.78375 0.87691 0.33567 0.0
C4703 C 0.77336 0.87179 0.34705 0.0
H4704 H 0.45925 0.34804 0.0642 0.0
H4705 H 0.47213 0.3962 0.06052 0.0
H4706 H 0.43633 0.35302 0.04829 0.0
H4707 H 0.44994 0.40113 0.04394 0.0
H4708 H 0.40052 0.41062 0.03349 0.0
H4709 H 0.4234 0.40358 0.04804 0.0
H4710 H 0.42546 0.35974 0.02366 0.0
H4711 H 0.40196 0.36661 0.00956 0.0
C4712 C 0.45736 0.35957 0.05955 0.0
C4713 C 0.46728 0.37178 0.06346 0.0
C4714 C 0.44427 0.36245 0.05047 0.0
C4715 C 0.44111 0.37756 0.04507 0.0
C4716 C 0.45171 0.38948 0.0483 0.0
C4717 C 0.46453 0.38666 0.0576 0.0
C4718 C 0.4058 0.39944 0.03131 0.0
C4719 C 0.39953 0.3892 0.02034 0.0
C4720 C 0.41903 0.39544 0.03953 0.0
C4721 C 0.42651 0.38121 0.0368 0.0
C4722 C 0.41998 0.37077 0.0261 0.0
C4723 C 0.40656 0.3747 0.018 0.0
H4724 H 0.33589 0.64643 0.78108 0.0
H4725 H 0.36941 0.66507 0.74915 0.0
H4726 H 0.3404 0.66809 0.79866 0.0
H4727 H 0.37311 0.68742 0.76595 0.0
H4728 H 0.38867 0.7174 0.80585 0.0
H4729 H 0.38419 0.69563 0.78853 0.0
H4730 H 0.33656 0.69393 0.80345 0.0
H4731 H 0.34158 0.71486 0.82169 0.0
C4732 C 0.34402 0.65537 0.77775 0.0
C4733 C 0.35235 0.65416 0.76388 0.0
C4734 C 0.34656 0.66787 0.78774 0.0
C4735 C 0.35715 0.67963 0.78381 0.0
C4736 C 0.36517 0.67847 0.76964 0.0
C4737 C 0.36297 0.66574 0.75991 0.0
C4738 C 0.37728 0.71231 0.8054 0.0
C4739 C 0.36549 0.71769 0.81512 0.0
C4740 C 0.37462 0.6999 0.79536 0.0
C4741 C 0.35996 0.69292 0.79448 0.0
C4742 C 0.34809 0.69867 0.80402 0.0
C4743 C 0.3509 0.71077 0.81439 0.0
H4744 H 0.09365 0.57933 0.5296 0.0
H4745 H 0.09952 0.62708 0.51544 0.0
H4746 H 0.07238 0.58682 0.54625 0.0
H4747 H 0.07813 0.63467 0.53245 0.0
H4748 H 0.02719 0.63617 0.55194 0.0
H4749 H 0.04937 0.63103 0.53501 0.0
H4750 H 0.06894 0.60137 0.57031 0.0
H4751 H 0.04688 0.60622 0.58694 0.0
C4752 C 0.09045 0.59147 0.5301 0.0
C4753 C 0.09831 0.60262 0.52124 0.0
C4754 C 0.07829 0.59577 0.53972 0.0
C4755 C 0.07365 0.61135 0.54076 0.0
C4756 C 0.08141 0.62256 0.53182 0.0
C4757 C 0.0937 0.61823 0.52218 0.0
C4758 C 0.03629 0.62861 0.55605 0.0
C4759 C 0.03521 0.62142 0.57065 0.0
C4760 C 0.049 0.62575 0.54642 0.0
C4761 C 0.0608 0.61565 0.55127 0.0
C4762 C 0.0599 0.60895 0.56611 0.0
C4763 C 0.04726 0.61177 0.57566 0.0
H4764 H 0.15537 0.28621 0.32357 0.0
H4765 H 0.1096 0.28309 0.30422 0.0
H4766 H 0.16162 0.30692 0.30543 0.0
H4767 H 0.11534 0.30453 0.28681 0.0
H4768 H 0.13326 0.33341 0.2476 0.0
H4769 H 0.12869 0.31145 0.26474 0.0
H4770 H 0.15761 0.33281 0.29969 0.0
H4771 H 0.16299 0.35417 0.28196 0.0
C4772 C 0.14659 0.29014 0.31553 0.0
C4773 C 0.13203 0.28309 0.31522 0.0
C4774 C 0.15012 0.30208 0.3052 0.0
C4775 C 0.13901 0.30747 0.29459 0.0
C4776 C 0.12434 0.30048 0.29451 0.0
C4777 C 0.12096 0.28828 0.30458 0.0
C4778 C 0.13874 0.33325 0.25891 0.0
C4779 C 0.14849 0.34536 0.26351 0.0
C4780 C 0.13601 0.32077 0.26882 0.0
C4781 C 0.14263 0.32037 0.28373 0.0
C4782 C 0.15251 0.33253 0.28823 0.0
C4783 C 0.15556 0.34482 0.27812 0.0
H4784 H 0.45698 0.59823 0.41983 0.0
H4785 H 0.46371 0.64431 0.43823 0.0
H4786 H 0.43429 0.59505 0.4359 0.0
H4787 H 0.44022 0.64169 0.45361 0.0
H4788 H 0.40597 0.62462 0.49103 0.0
H4789 H 0.42853 0.63008 0.47496 0.0
H4790 H 0.40898 0.60215 0.4381 0.0
H4791 H 0.38723 0.59585 0.4547 0.0
C4792 C 0.45344 0.60777 0.42722 0.0
C4793 C 0.46202 0.62152 0.42775 0.0
C4794 C 0.4403 0.60605 0.43633 0.0
C4795 C 0.43513 0.61823 0.4459 0.0
C4796 C 0.44386 0.632 0.44651 0.0
C4797 C 0.45728 0.63355 0.43764 0.0
C4798 C 0.40652 0.61986 0.47941 0.0
C4799 C 0.39505 0.60973 0.47408 0.0
C4800 C 0.41941 0.62299 0.47015 0.0
C4801 C 0.42082 0.61631 0.45527 0.0
C4802 C 0.40866 0.60705 0.44967 0.0
C4803 C 0.39608 0.60357 0.45908 0.0
H4804 H 0.1148 0.72553 0.19649 0.0
H4805 H 0.14339 0.70135 0.16329 0.0
H4806 H 0.11788 0.70407 0.21479 0.0
H4807 H 0.14628 0.67988 0.18144 0.0
H4808 H 0.16222 0.65324 0.22432 0.0
H4809 H 0.1589 0.67497 0.20654 0.0
H4810 H 0.11034 0.67644 0.21749 0.0
H4811 H 0.1137 0.65479 0.2355 0.0
C4812 C 0.1217 0.71562 0.1931 0.0
C4813 C 0.12889 0.71511 0.17851 0.0
C4814 C 0.12339 0.70332 0.20353 0.0
C4815 C 0.13235 0.69034 0.19954 0.0
C4816 C 0.13948 0.68983 0.18491 0.0
C4817 C 0.13776 0.70209 0.17449 0.0
C4818 C 0.15084 0.65822 0.22296 0.0
C4819 C 0.13821 0.65234 0.23127 0.0
C4820 C 0.14893 0.6706 0.21271 0.0
C4821 C 0.13435 0.67736 0.21061 0.0
C4822 C 0.12173 0.67155 0.21901 0.0
C4823 C 0.12364 0.65912 0.22924 0.0
H4824 H 0.08726 0.36956 0.99142 0.0
H4825 H 0.10358 0.40129 0.95637 0.0
H4826 H 0.06429 0.36435 0.97592 0.0
H4827 H 0.08142 0.39528 0.94022 0.0
H4828 H 0.03306 0.39706 0.92265 0.0
H4829 H 0.05581 0.40087 0.93853 0.0
H4830 H 0.05255 0.35336 0.95456 0.0
H4831 H 0.029 0.35009 0.93952 0.0
C4832 C 0.08607 0.37509 0.98018 0.0
C4833 C 0.09703 0.3859 0.97508 0.0
C4834 C 0.07295 0.37209 0.97123 0.0
C4835 C 0.07076 0.37957 0.95684 0.0
C4836 C 0.08232 0.3897 0.95145 0.0
C4837 C 0.09515 0.39303 0.96059 0.0
C4838 C 0.03717 0.38749 0.92967 0.0
C4839 C 0.02932 0.37328 0.92983 0.0
C4840 C 0.05036 0.38958 0.93866 0.0
C4841 C 0.05632 0.37734 0.9477 0.0
C4842 C 0.0483 0.36313 0.94793 0.0
C4843 C 0.03482 0.36119 0.93923 0.0
H4844 H 0.3931 0.27926 0.68801 0.0
H4845 H 0.34574 0.28042 0.67279 0.0
H4846 H 0.38844 0.30144 0.70471 0.0
H4847 H 0.34059 0.30183 0.69046 0.0
H4848 H 0.33972 0.3504 0.71044 0.0
H4849 H 0.34434 0.32802 0.69377 0.0
H4850 H 0.37746 0.31046 0.72704 0.0
H4851 H 0.37364 0.33344 0.74288 0.0
C4852 C 0.3816 0.2841 0.6885 0.0
C4853 C 0.36981 0.27826 0.67906 0.0
C4854 C 0.37886 0.29677 0.69817 0.0
C4855 C 0.36412 0.30357 0.69896 0.0
C4856 C 0.35219 0.29724 0.68989 0.0
C4857 C 0.35507 0.28486 0.67988 0.0
C4858 C 0.34803 0.34173 0.71405 0.0
C4859 C 0.35642 0.3436 0.7278 0.0
C4860 C 0.35059 0.32882 0.70461 0.0
C4861 C 0.36129 0.31732 0.709 0.0
C4862 C 0.36944 0.31919 0.72301 0.0
C4863 C 0.36719 0.33231 0.73217 0.0
H4864 H 0.07597 0.45331 0.39196 0.0
H4865 H 0.04189 0.47042 0.35963 0.0
H4866 H 0.06024 0.43052 0.39682 0.0
H4867 H 0.02591 0.4475 0.36472 0.0
H4868 H 0.01131 0.39488 0.36774 0.0
H4869 H 0.02612 0.41824 0.36114 0.0
H4870 H 0.03551 0.42577 0.40982 0.0
H4871 H 0.02108 0.4026 0.41635 0.0
C4872 C 0.06506 0.45224 0.38594 0.0
C4873 C 0.06008 0.4637 0.37551 0.0
C4874 C 0.05603 0.43919 0.38876 0.0
C4875 C 0.0418 0.43731 0.38124 0.0
C4876 C 0.03688 0.44864 0.37061 0.0
C4877 C 0.04595 0.46178 0.36779 0.0
C4878 C 0.01653 0.40158 0.37698 0.0
C4879 C 0.01517 0.39684 0.39253 0.0
C4880 C 0.02492 0.41496 0.37323 0.0
C4881 C 0.03208 0.4237 0.38497 0.0
C4882 C 0.03036 0.4191 0.4005 0.0
C4883 C 0.02203 0.40584 0.40423 0.0
H4884 H 0.28645 0.32528 0.1509 0.0
H4885 H 0.28095 0.31006 0.10354 0.0
H4886 H 0.30908 0.30906 0.15363 0.0
H4887 H 0.30456 0.2948 0.10561 0.0
H4888 H 0.34088 0.25832 0.11921 0.0
H4889 H 0.31755 0.27358 0.11503 0.0
H4890 H 0.33439 0.30796 0.14756 0.0
H4891 H 0.35684 0.29192 0.15259 0.0
C4892 C 0.29024 0.31851 0.14101 0.0
C4893 C 0.28207 0.31896 0.12701 0.0
C4894 C 0.30338 0.30936 0.14246 0.0
C4895 C 0.30907 0.30085 0.12972 0.0
C4896 C 0.30059 0.30106 0.11574 0.0
C4897 C 0.28707 0.30986 0.11449 0.0
C4898 C 0.33955 0.26925 0.12528 0.0
C4899 C 0.35051 0.27397 0.13627 0.0
C4900 C 0.3262 0.27805 0.12289 0.0
C4901 C 0.32378 0.29195 0.13118 0.0
C4902 C 0.33541 0.29706 0.1414 0.0
C4903 C 0.34844 0.28802 0.14414 0.0
H4904 H 0.40924 0.54144 0.89368 0.0
H4905 H 0.44371 0.52443 0.86171 0.0
H4906 H 0.42443 0.5647 0.89802 0.0
H4907 H 0.45917 0.54775 0.86632 0.0
H4908 H 0.4741 0.59953 0.86773 0.0
H4909 H 0.45867 0.57643 0.86189 0.0
H4910 H 0.44865 0.57099 0.91073 0.0
H4911 H 0.46367 0.594 0.91651 0.0
C4912 C 0.42013 0.54263 0.88765 0.0
C4913 C 0.42535 0.53108 0.87743 0.0
C4914 C 0.42885 0.55595 0.89017 0.0
C4915 C 0.44302 0.55801 0.88257 0.0
C4916 C 0.44822 0.54652 0.87223 0.0
C4917 C 0.43945 0.53313 0.8697 0.0
C4918 C 0.4685 0.59342 0.87717 0.0
C4919 C 0.47002 0.5986 0.89256 0.0
C4920 C 0.45979 0.58016 0.87384 0.0
C4921 C 0.45243 0.57195 0.88586 0.0
C4922 C 0.45398 0.5772 0.9012 0.0
C4923 C 0.46265 0.59037 0.90451 0.0
H4924 H 0.19875 0.6595 0.63738 0.0
H4925 H 0.21958 0.69474 0.60848 0.0
H4926 H 0.1768 0.67636 0.64201 0.0
H4927 H 0.19742 0.7118 0.61328 0.0
H4928 H 0.14621 0.73065 0.61706 0.0
H4929 H 0.16767 0.71376 0.60919 0.0
H4930 H 0.17502 0.70117 0.65715 0.0
H4931 H 0.15385 0.71779 0.66496 0.0
C4932 C 0.19862 0.67084 0.63195 0.0
C4933 C 0.21098 0.67589 0.62273 0.0
C4934 C 0.18605 0.6805 0.63463 0.0
C4935 C 0.18552 0.69543 0.62815 0.0
C4936 C 0.19755 0.70031 0.61838 0.0
C4937 C 0.21024 0.6906 0.61571 0.0
C4938 C 0.15244 0.72424 0.62586 0.0
C4939 C 0.14831 0.72547 0.6416 0.0
C4940 C 0.16473 0.71467 0.62138 0.0
C4941 C 0.17288 0.70608 0.63256 0.0
C4942 C 0.16878 0.70747 0.64826 0.0
C4943 C 0.15669 0.71706 0.65273 0.0
H4944 H 0.05402 0.52803 0.14181 0.0
H4945 H 0.07229 0.53377 0.09555 0.0
H4946 H 0.03949 0.55199 0.13905 0.0
H4947 H 0.05679 0.55695 0.09214 0.0
H4948 H 0.04082 0.60571 0.09393 0.0
H4949 H 0.05593 0.58254 0.09915 0.0
H4950 H 0.019 0.56479 0.12794 0.0
H4951 H 0.00456 0.58865 0.12361 0.0
C4952 C 0.0547 0.53429 0.13095 0.0
C4953 C 0.06446 0.52924 0.11899 0.0
C4954 C 0.04629 0.54801 0.12929 0.0
C4955 C 0.04711 0.55666 0.11545 0.0
C4956 C 0.05627 0.551 0.10319 0.0
C4957 C 0.06501 0.53758 0.10504 0.0
C4958 C 0.03614 0.59693 0.1016 0.0
C4959 C 0.02162 0.59886 0.1084 0.0
C4960 C 0.04466 0.58353 0.10444 0.0
C4961 C 0.03859 0.57153 0.1137 0.0
C4962 C 0.02417 0.57377 0.12088 0.0
C4963 C 0.01585 0.58742 0.1184 0.0
H4964 H 0.21511 0.30542 0.89423 0.0
H4965 H 0.21205 0.3192 0.84616 0.0
H4966 H 0.19123 0.29056 0.89151 0.0
H4967 H 0.18905 0.30361 0.84303 0.0
H4968 H 0.14053 0.28942 0.84306 0.0
H4969 H 0.16332 0.30459 0.84911 0.0
H4970 H 0.17825 0.26893 0.88117 0.0
H4971 H 0.1546 0.25435 0.8758 0.0
C4972 C 0.20946 0.30504 0.88303 0.0
C4973 C 0.21523 0.31363 0.87046 0.0
C4974 C 0.1958 0.29649 0.88143 0.0
C4975 C 0.18791 0.29614 0.86713 0.0
C4976 C 0.19435 0.30407 0.8544 0.0
C4977 C 0.20768 0.31287 0.85611 0.0
C4978 C 0.14858 0.28502 0.85161 0.0
C4979 C 0.14594 0.27077 0.85894 0.0
C4980 C 0.16177 0.29358 0.85495 0.0
C4981 C 0.17296 0.28781 0.86529 0.0
C4982 C 0.16993 0.27379 0.87317 0.0
C4983 C 0.15642 0.26541 0.87012 0.0
H4984 H 0.44193 0.46625 0.64642 0.0
H4985 H 0.42589 0.46233 0.59917 0.0
H4986 H 0.45629 0.44204 0.64353 0.0
H4987 H 0.441 0.43893 0.59577 0.0
H4988 H 0.45666 0.39049 0.59571 0.0
H4989 H 0.44119 0.41312 0.60206 0.0
H4990 H 0.47743 0.42955 0.63246 0.0
H4991 H 0.49228 0.40607 0.6269 0.0
C4992 C 0.44172 0.46031 0.63535 0.0
C4993 C 0.43276 0.46599 0.62305 0.0
C4994 C 0.44997 0.44647 0.63365 0.0
C4995 C 0.44967 0.4383 0.61948 0.0
C4996 C 0.44111 0.44449 0.60704 0.0
C4997 C 0.43257 0.45802 0.60889 0.0
C4998 C 0.4611 0.39885 0.60398 0.0
C4999 C 0.47556 0.39671 0.61082 0.0
C5000 C 0.45237 0.41193 0.60749 0.0
C5001 C 0.4582 0.42346 0.61747 0.0
C5002 C 0.47249 0.42093 0.6248 0.0
C5003 C 0.48104 0.40753 0.62162 0.0
H5004 H 0.27832 0.68993 0.39272 0.0
H5005 H 0.28118 0.67404 0.34532 0.0
H5006 H 0.30151 0.7055 0.38896 0.0
H5007 H 0.30342 0.69049 0.34101 0.0
H5008 H 0.35117 0.70839 0.33947 0.0
H5009 H 0.32906 0.69226 0.3456 0.0
H5010 H 0.31319 0.72696 0.37828 0.0
H5011 H 0.33619 0.74239 0.37293 0.0
C5012 C 0.28379 0.69 0.38143 0.0
C5013 C 0.27814 0.68066 0.36936 0.0
C5014 C 0.29705 0.69899 0.3792 0.0
C5015 C 0.30463 0.69916 0.36472 0.0
C5016 C 0.29839 0.69029 0.3525 0.0
C5017 C 0.28548 0.68097 0.35489 0.0
C5018 C 0.34301 0.71241 0.3481 0.0
C5019 C 0.34528 0.72658 0.35571 0.0
C5020 C 0.33019 0.70328 0.35151 0.0
C5021 C 0.31899 0.70838 0.36221 0.0
C5022 C 0.32154 0.72249 0.3701 0.0
C5023 C 0.33468 0.7314 0.36701 0.0
H5024 H 0.40257 0.07564 0.46263 0.0
H5025 H 0.35649 0.0574 0.46713 0.0
H5026 H 0.40726 0.05854 0.4407 0.0
H5027 H 0.36059 0.04115 0.44441 0.0
H5028 H 0.37632 0.00333 0.412 0.0
H5029 H 0.37243 0.01945 0.43482 0.0
H5030 H 0.40221 0.05454 0.4149 0.0
H5031 H 0.40694 0.03771 0.39267 0.0
C5032 C 0.39338 0.06806 0.45876 0.0
C5033 C 0.37918 0.0678 0.46652 0.0
C5034 C 0.39599 0.05835 0.44609 0.0
C5035 C 0.38428 0.04846 0.4406 0.0
C5036 C 0.37002 0.04832 0.44842 0.0
C5037 C 0.36758 0.05773 0.46138 0.0
C5038 C 0.38205 0.01449 0.4126 0.0
C5039 C 0.39196 0.01932 0.40069 0.0
C5040 C 0.37974 0.02382 0.42562 0.0
C5041 C 0.38695 0.0384 0.4268 0.0
C5042 C 0.39672 0.04326 0.41466 0.0
C5043 C 0.39937 0.03371 0.40184 0.0
H5044 H 0.88976 0.41123 0.54485 0.0
H5045 H 0.86252 0.44594 0.52126 0.0
H5046 H 0.89491 0.42949 0.5658 0.0
H5047 H 0.86805 0.46439 0.54197 0.0
H5048 H 0.91444 0.47118 0.59188 0.0
H5049 H 0.90922 0.45298 0.57081 0.0
H5050 H 0.86208 0.46905 0.56884 0.0
H5051 H 0.86744 0.48751 0.58949 0.0
C5052 C 0.88493 0.42279 0.54412 0.0
C5053 C 0.87574 0.42719 0.53145 0.0
C5054 C 0.88797 0.43329 0.55606 0.0
C5055 C 0.88194 0.44841 0.55551 0.0
C5056 C 0.8727 0.45276 0.54283 0.0
C5057 C 0.86959 0.44223 0.53093 0.0
C5058 C 0.90299 0.47082 0.5869 0.0
C5059 C 0.89135 0.48075 0.59229 0.0
C5060 C 0.89996 0.46034 0.57491 0.0
C5061 C 0.88523 0.45957 0.56817 0.0
C5062 C 0.87361 0.46952 0.57362 0.0
C5063 C 0.87665 0.48003 0.58552 0.0
H5064 H 0.31545 0.14867 0.28131 0.0
H5065 H 0.29933 0.10155 0.27641 0.0
H5066 H 0.30087 0.15136 0.30516 0.0
H5067 H 0.28576 0.10364 0.3011 0.0
H5068 H 0.25204 0.11794 0.33984 0.0
H5069 H 0.26544 0.11379 0.31525 0.0
H5070 H 0.30205 0.14425 0.33071 0.0
H5071 H 0.28794 0.14925 0.35455 0.0
C5072 C 0.30885 0.13883 0.28546 0.0
C5073 C 0.30867 0.12486 0.27717 0.0
C5074 C 0.30065 0.14027 0.29926 0.0
C5075 C 0.29245 0.12757 0.3054 0.0
C5076 C 0.29188 0.1137 0.29678 0.0
C5077 C 0.29974 0.11244 0.28266 0.0
C5078 C 0.26306 0.12354 0.33794 0.0
C5079 C 0.26899 0.13396 0.3489 0.0
C5080 C 0.27077 0.12118 0.32388 0.0
C5081 C 0.28473 0.12893 0.32077 0.0
C5082 C 0.29107 0.13854 0.33235 0.0
C5083 C 0.28313 0.14125 0.34613 0.0
H5084 H 0.59336 0.57303 0.03014 0.0
H5085 H 0.64048 0.55729 0.02769 0.0
H5086 H 0.58846 0.55525 0.05147 0.0
H5087 H 0.63606 0.54029 0.04983 0.0
H5088 H 0.62081 0.5014 0.08122 0.0
H5089 H 0.62484 0.51788 0.05868 0.0
H5090 H 0.59254 0.55125 0.0775 0.0
H5091 H 0.58776 0.53406 0.09944 0.0
C5092 C 0.60271 0.56582 0.0343 0.0
C5093 C 0.61729 0.56649 0.02731 0.0
C5094 C 0.59997 0.55572 0.04665 0.0
C5095 C 0.61188 0.54635 0.05258 0.0
C5096 C 0.62649 0.54706 0.04547 0.0
C5097 C 0.6291 0.55688 0.03282 0.0
C5098 C 0.61455 0.51226 0.08045 0.0
C5099 C 0.60396 0.51649 0.09199 0.0
C5100 C 0.61694 0.5218 0.06758 0.0
C5101 C 0.60908 0.53601 0.06617 0.0
C5102 C 0.59857 0.54027 0.07792 0.0
C5103 C 0.59589 0.5305 0.09058 0.0
H5104 H 0.69741 0.38901 0.27343 0.0
H5105 H 0.66601 0.35414 0.29079 0.0
H5106 H 0.7145 0.38429 0.29566 0.0
H5107 H 0.68285 0.34961 0.31282 0.0
H5108 H 0.7238 0.33144 0.33841 0.0
H5109 H 0.70891 0.33804 0.31557 0.0
H5110 H 0.71462 0.3868 0.32562 0.0
H5111 H 0.72989 0.38015 0.34873 0.0
C5112 C 0.69418 0.38037 0.28197 0.0
C5113 C 0.68047 0.37183 0.28033 0.0
C5114 C 0.70388 0.37776 0.2947 0.0
C5115 C 0.70004 0.36651 0.30585 0.0
C5116 C 0.68622 0.35818 0.30426 0.0
C5117 C 0.67656 0.36081 0.29165 0.0
C5118 C 0.72198 0.3436 0.33579 0.0
C5119 C 0.72786 0.35529 0.34549 0.0
C5120 C 0.71341 0.34736 0.3227 0.0
C5121 C 0.71044 0.36291 0.31897 0.0
C5122 C 0.71679 0.37471 0.32827 0.0
C5123 C 0.72544 0.37091 0.34149 0.0
H5124 H 0.08838 0.96732 0.89624 0.0
H5125 H 0.12351 -0.00194 0.9138 0.0
H5126 H 0.09284 0.94969 0.91789 0.0
H5127 H 0.12724 0.98122 0.93612 0.0
H5128 H 0.14214 0.94087 0.96588 0.0
H5129 H 0.13773 0.95819 0.94406 0.0
H5130 H 0.08949 0.94533 0.94395 0.0
H5131 H 0.09435 0.92712 0.96496 0.0
C5132 C 0.09688 0.97038 0.90492 0.0
C5133 C 0.10566 0.98393 0.90341 0.0
C5134 C 0.09939 0.96036 0.91741 0.0
C5135 C 0.11043 0.96395 0.92886 0.0
C5136 C 0.11893 0.97779 0.9274 0.0
C5137 C 0.11672 0.98755 0.91468 0.0
C5138 C 0.13063 0.94178 0.96113 0.0
C5139 C 0.1186 0.93266 0.96699 0.0
C5140 C 0.12802 0.95181 0.94869 0.0
C5141 C 0.11321 0.95326 0.94215 0.0
C5142 C 0.10112 0.94431 0.94836 0.0
C5143 C 0.10385 0.93396 0.96051 0.0
H5144 H 0.32478 0.85155 0.20705 0.0
H5145 H 0.2956 0.88906 0.2227 0.0
H5146 H 0.30758 0.84694 0.18532 0.0
H5147 H 0.27818 0.88432 0.20072 0.0
H5148 H 0.26455 0.8792 0.14679 0.0
H5149 H 0.279 0.8857 0.17047 0.0
H5150 H 0.28061 0.83713 0.18269 0.0
H5151 H 0.26648 0.83066 0.15928 0.0
C5152 C 0.31463 0.85877 0.20589 0.0
C5153 C 0.31148 0.8706 0.21662 0.0
C5154 C 0.30475 0.8561 0.19346 0.0
C5155 C 0.2915 0.86521 0.19142 0.0
C5156 C 0.28835 0.87717 0.20204 0.0
C5157 C 0.29825 0.87979 0.21463 0.0
C5158 C 0.26785 0.86999 0.15467 0.0
C5159 C 0.26462 0.85442 0.15107 0.0
C5160 C 0.27604 0.8737 0.1682 0.0
C5161 C 0.28109 0.86187 0.17824 0.0
C5162 C 0.27711 0.84644 0.17499 0.0
C5163 C 0.269 0.84276 0.16158 0.0
H5164 H 0.20027 0.11214 0.72114 0.0
H5165 H 0.16271 0.13865 0.70161 0.0
H5166 H 0.21531 0.11646 0.6975 0.0
H5167 H 0.17752 0.14263 0.67797 0.0
H5168 H 0.21601 0.1648 0.64961 0.0
H5169 H 0.20018 0.15796 0.67175 0.0
H5170 H 0.21653 0.11066 0.66921 0.0
H5171 H 0.23277 0.11763 0.64699 0.0
C5172 C 0.19521 0.11878 0.71176 0.0
C5173 C 0.18044 0.12525 0.71326 0.0
C5174 C 0.20375 0.12114 0.6982 0.0
C5175 C 0.19761 0.12997 0.68595 0.0
C5176 C 0.18265 0.136 0.68733 0.0
C5177 C 0.17416 0.1337 0.70086 0.0
C5178 C 0.2162 0.1529 0.65368 0.0
C5179 C 0.22564 0.14174 0.64658 0.0
C5180 C 0.20704 0.14896 0.66633 0.0
C5181 C 0.20706 0.13376 0.67217 0.0
C5182 C 0.21638 0.1225 0.665 0.0
C5183 C 0.22558 0.12646 0.65225 0.0
loop_
_geom_bond_atom_site_label_1
_geom_bond_atom_site_label_2
_geom_bond_distance
_geom_bond_site_symmetry_2
_ccdc_geom_bond_type
Co0 O1 2.216 1_455 S
Co0 O2 2.091 1_455 S
Co0 O4 2.004 . S
Co0 O10 2.021 1_455 S
Co0 O12 2.137 . S
Co0 O13 2.244 . S
O1 Co0 2.216 1_655 S
O1 C8 1.247 . S
O2 Co0 2.091 1_655 S
O2 C8 1.261 . S
C3 O12 1.247 . S
C3 O13 1.272 . S
O4 Co0 2.004 . S
O4 C9 1.259 . S
Co5 O6 2.061 . S
Co5 O11 2.052 1_455 S
Co5 O13 2.135 . S
O6 Co5 2.061 . S
O6 C9 1.235 . S
C7 O10 1.238 . S
C7 O11 1.241 . S
C8 O1 1.247 . S
C8 O2 1.261 . S
C9 O4 1.259 . S
C9 O6 1.235 . S
O10 Co0 2.021 1_655 S
O10 C7 1.238 . S
O11 Co5 2.052 1_655 S
O11 C7 1.241 . S
O12 Co0 2.137 . S
O12 C3 1.247 . S
O13 Co0 2.244 . S
O13 C3 1.272 . S
O13 Co5 2.135 . S
Co14 O15 2.216 . S
Co14 O16 2.091 . S
Co14 O18 2.004 . S
Co14 O24 2.021 . S
Co14 O26 2.137 . S
Co14 O27 2.244 . S
O15 Co14 2.216 . S
O15 C22 1.247 . S
O16 Co14 2.091 . S
O16 C22 1.261 . S
C17 O26 1.247 . S
C17 O27 1.272 . S
O18 Co14 2.004 . S
O18 C23 1.259 . S
Co19 O20 2.061 . S
Co19 O25 2.052 . S
Co19 O27 2.135 . S
O20 Co19 2.061 . S
O20 C23 1.235 . S
C21 O24 1.238 . S
C21 O25 1.241 . S
C22 O15 1.247 . S
C22 O16 1.261 . S
C23 O18 1.259 . S
C23 O20 1.235 . S
O24 Co14 2.021 . S
O24 C21 1.238 . S
O25 Co19 2.052 . S
O25 C21 1.241 . S
O26 Co14 2.137 . S
O26 C17 1.247 . S
O27 Co14 2.244 . S
O27 C17 1.272 . S
O27 Co19 2.135 . S
Co28 O29 2.216 . S
Co28 O30 2.091 . S
Co28 O32 2.004 . S
Co28 O38 2.021 . S
Co28 O40 2.137 . S
Co28 O41 2.244 . S
O29 Co28 2.216 . S
O29 C36 1.247 . S
O30 Co28 2.091 . S
O30 C36 1.261 . S
C31 O40 1.247 . S
C31 O41 1.272 . S
O32 Co28 2.004 . S
O32 C37 1.259 . S
Co33 O34 2.061 . S
Co33 O39 2.052 . S
Co33 O41 2.135 . S
O34 Co33 2.061 . S
O34 C37 1.235 . S
C35 O38 1.238 . S
C35 O39 1.241 . S
C36 O29 1.247 . S
C36 O30 1.261 . S
C37 O32 1.259 . S
C37 O34 1.235 . S
O38 Co28 2.021 . S
O38 C35 1.238 . S
O39 Co33 2.052 . S
O39 C35 1.241 . S
O40 Co28 2.137 . S
O40 C31 1.247 . S
O41 Co28 2.244 . S
O41 C31 1.272 . S
O41 Co33 2.135 . S
Co42 O43 2.216 . S
Co42 O44 2.091 . S
Co42 O46 2.004 . S
Co42 O52 2.021 . S
Co42 O54 2.137 . S
Co42 O55 2.244 . S
O43 Co42 2.216 . S
O43 C50 1.247 . S
O44 Co42 2.091 . S
O44 C50 1.261 . S
C45 O54 1.247 . S
C45 O55 1.272 . S
O46 Co42 2.004 . S
O46 C51 1.259 . S
Co47 O48 2.061 . S
Co47 O53 2.052 . S
Co47 O55 2.135 . S
O48 Co47 2.061 . S
O48 C51 1.235 . S
C49 O52 1.238 . S
C49 O53 1.241 . S
C50 O43 1.247 . S
C50 O44 1.261 . S
C51 O46 1.259 . S
C51 O48 1.235 . S
O52 Co42 2.021 . S
O52 C49 1.238 . S
O53 Co47 2.052 . S
O53 C49 1.241 . S
O54 Co42 2.137 . S
O54 C45 1.247 . S
O55 Co42 2.244 . S
O55 C45 1.272 . S
O55 Co47 2.135 . S
Co56 O57 2.216 1_455 S
Co56 O58 2.091 1_455 S
Co56 O60 2.004 . S
Co56 O66 2.021 1_455 S
Co56 O68 2.137 . S
Co56 O69 2.244 . S
O57 Co56 2.216 1_655 S
O57 C64 1.247 . S
O58 Co56 2.091 1_655 S
O58 C64 1.261 . S
C59 O68 1.247 . S
C59 O69 1.272 . S
O60 Co56 2.004 . S
O60 C65 1.259 . S
Co61 O62 2.061 . S
Co61 O67 2.052 1_455 S
Co61 O69 2.135 . S
O62 Co61 2.061 . S
O62 C65 1.235 . S
C63 O66 1.238 . S
C63 O67 1.241 . S
C64 O57 1.247 . S
C64 O58 1.261 . S
C65 O60 1.259 . S
C65 O62 1.235 . S
O66 Co56 2.021 1_655 S
O66 C63 1.238 . S
O67 Co61 2.052 1_655 S
O67 C63 1.241 . S
O68 Co56 2.137 . S
O68 C59 1.247 . S
O69 Co56 2.244 . S
O69 C59 1.272 . S
O69 Co61 2.135 . S
Co70 O71 2.216 . S
Co70 O72 2.091 . S
Co70 O74 2.004 . S
Co70 O80 2.021 . S
Co70 O82 2.137 . S
Co70 O83 2.244 . S
O71 Co70 2.216 . S
O71 C78 1.247 . S
O72 Co70 2.091 . S
O72 C78 1.261 . S
C73 O82 1.247 . S
C73 O83 1.272 . S
O74 Co70 2.004 . S
O74 C79 1.259 . S
Co75 O76 2.061 . S
Co75 O81 2.052 . S
Co75 O83 2.135 . S
O76 Co75 2.061 . S
O76 C79 1.235 . S
C77 O80 1.238 . S
C77 O81 1.241 . S
C78 O71 1.247 . S
C78 O72 1.261 . S
C79 O74 1.259 . S
C79 O76 1.235 . S
O80 Co70 2.021 . S
O80 C77 1.238 . S
O81 Co75 2.052 . S
O81 C77 1.241 . S
O82 Co70 2.137 . S
O82 C73 1.247 . S
O83 Co70 2.244 . S
O83 C73 1.272 . S
O83 Co75 2.135 . S
Co84 O85 2.216 . S
Co84 O86 2.091 . S
Co84 O88 2.004 . S
Co84 O94 2.021 . S
Co84 O96 2.137 . S
Co84 O97 2.244 . S
O85 Co84 2.216 . S
O85 C92 1.247 . S
O86 Co84 2.091 . S
O86 C92 1.261 . S
C87 O96 1.247 . S
C87 O97 1.272 . S
O88 Co84 2.004 . S
O88 C93 1.259 . S
Co89 O90 2.061 . S
Co89 O95 2.052 . S
Co89 O97 2.135 . S
O90 Co89 2.061 . S
O90 C93 1.235 . S
C91 O94 1.238 . S
C91 O95 1.241 . S
C92 O85 1.247 . S
C92 O86 1.261 . S
C93 O88 1.259 . S
C93 O90 1.235 . S
O94 Co84 2.021 . S
O94 C91 1.238 . S
O95 Co89 2.052 . S
O95 C91 1.241 . S
O96 Co84 2.137 . S
O96 C87 1.247 . S
O97 Co84 2.244 . S
O97 C87 1.272 . S
O97 Co89 2.135 . S
Co98 O99 2.216 . S
Co98 O100 2.091 . S
Co98 O102 2.004 . S
Co98 O108 2.021 . S
Co98 O110 2.137 . S
Co98 O111 2.244 . S
O99 Co98 2.216 . S
O99 C106 1.247 . S
O100 Co98 2.091 . S
O100 C106 1.261 . S
C101 O110 1.247 . S
C101 O111 1.272 . S
O102 Co98 2.004 . S
O102 C107 1.259 . S
Co103 O104 2.061 . S
Co103 O109 2.052 . S
Co103 O111 2.135 . S
O104 Co103 2.061 . S
O104 C107 1.235 . S
C105 O108 1.238 . S
C105 O109 1.241 . S
C106 O99 1.247 . S
C106 O100 1.261 . S
C107 O102 1.259 . S
C107 O104 1.235 . S
O108 Co98 2.021 . S
O108 C105 1.238 . S
O109 Co103 2.052 . S
O109 C105 1.241 . S
O110 Co98 2.137 . S
O110 C101 1.247 . S
O111 Co98 2.244 . S
O111 C101 1.272 . S
O111 Co103 2.135 . S
Co112 O113 2.216 . S
Co112 O114 2.091 . S
Co112 O116 2.004 1_545 S
Co112 O122 2.021 . S
Co112 O124 2.137 1_545 S
Co112 O125 2.244 1_545 S
O113 Co112 2.216 . S
O113 C120 1.247 . S
O114 Co112 2.091 . S
O114 C120 1.261 . S
C115 O124 1.247 . S
C115 O125 1.272 . S
O116 Co112 2.004 1_565 S
O116 C121 1.259 . S
Co117 O118 2.061 . S
Co117 O123 2.052 1_565 S
Co117 O125 2.135 . S
O118 Co117 2.061 . S
O118 C121 1.235 . S
C119 O122 1.238 . S
C119 O123 1.241 . S
C120 O113 1.247 . S
C120 O114 1.261 . S
C121 O116 1.259 . S
C121 O118 1.235 . S
O122 Co112 2.021 . S
O122 C119 1.238 . S
O123 Co117 2.052 1_545 S
O123 C119 1.241 . S
O124 Co112 2.137 1_565 S
O124 C115 1.247 . S
O125 Co112 2.244 1_565 S
O125 C115 1.272 . S
O125 Co117 2.135 . S
Co126 O127 2.216 . S
Co126 O128 2.091 . S
Co126 O130 2.004 . S
Co126 O136 2.021 . S
Co126 O138 2.137 . S
Co126 O139 2.244 . S
O127 Co126 2.216 . S
O127 C134 1.247 . S
O128 Co126 2.091 . S
O128 C134 1.261 . S
C129 O138 1.247 . S
C129 O139 1.272 . S
O130 Co126 2.004 . S
O130 C135 1.259 . S
Co131 O132 2.061 . S
Co131 O137 2.052 . S
Co131 O139 2.135 . S
O132 Co131 2.061 . S
O132 C135 1.235 . S
C133 O136 1.238 . S
C133 O137 1.241 . S
C134 O127 1.247 . S
C134 O128 1.261 . S
C135 O130 1.259 . S
C135 O132 1.235 . S
O136 Co126 2.021 . S
O136 C133 1.238 . S
O137 Co131 2.052 . S
O137 C133 1.241 . S
O138 Co126 2.137 . S
O138 C129 1.247 . S
O139 Co126 2.244 . S
O139 C129 1.272 . S
O139 Co131 2.135 . S
Co140 O141 2.216 . S
Co140 O142 2.091 . S
Co140 O144 2.004 1_565 S
Co140 O150 2.021 . S
Co140 O152 2.137 1_565 S
Co140 O153 2.244 1_565 S
O141 Co140 2.216 . S
O141 C148 1.247 . S
O142 Co140 2.091 . S
O142 C148 1.261 . S
C143 O152 1.247 . S
C143 O153 1.272 . S
O144 Co140 2.004 1_545 S
O144 C149 1.259 . S
Co145 O146 2.061 . S
Co145 O151 2.052 1_545 S
Co145 O153 2.135 . S
O146 Co145 2.061 . S
O146 C149 1.235 . S
C147 O150 1.238 . S
C147 O151 1.241 . S
C148 O141 1.247 . S
C148 O142 1.261 . S
C149 O144 1.259 . S
C149 O146 1.235 . S
O150 Co140 2.021 . S
O150 C147 1.238 . S
O151 Co145 2.052 1_565 S
O151 C147 1.241 . S
O152 Co140 2.137 1_545 S
O152 C143 1.247 . S
O153 Co140 2.244 1_545 S
O153 C143 1.272 . S
O153 Co145 2.135 . S
Co154 O155 2.216 . S
Co154 O156 2.091 . S
Co154 O158 2.004 . S
Co154 O164 2.021 . S
Co154 O166 2.137 . S
Co154 O167 2.244 . S
O155 Co154 2.216 . S
O155 C162 1.247 . S
O156 Co154 2.091 . S
O156 C162 1.261 . S
C157 O166 1.247 . S
C157 O167 1.272 . S
O158 Co154 2.004 . S
O158 C163 1.259 . S
Co159 O160 2.061 . S
Co159 O165 2.052 . S
Co159 O167 2.135 . S
O160 Co159 2.061 . S
O160 C163 1.235 . S
C161 O164 1.238 . S
C161 O165 1.241 . S
C162 O155 1.247 . S
C162 O156 1.261 . S
C163 O158 1.259 . S
C163 O160 1.235 . S
O164 Co154 2.021 . S
O164 C161 1.238 . S
O165 Co159 2.052 . S
O165 C161 1.241 . S
O166 Co154 2.137 . S
O166 C157 1.247 . S
O167 Co154 2.244 . S
O167 C157 1.272 . S
O167 Co159 2.135 . S
Co168 O169 2.216 . S
Co168 O170 2.091 . S
Co168 O172 2.004 1_565 S
Co168 O178 2.021 . S
Co168 O180 2.137 1_565 S
Co168 O181 2.244 1_565 S
O169 Co168 2.216 . S
O169 C176 1.247 . S
O170 Co168 2.091 . S
O170 C176 1.261 . S
C171 O180 1.247 . S
C171 O181 1.272 . S
O172 Co168 2.004 1_545 S
O172 C177 1.259 . S
Co173 O174 2.061 . S
Co173 O179 2.052 1_545 S
Co173 O181 2.135 . S
O174 Co173 2.061 . S
O174 C177 1.235 . S
C175 O178 1.238 . S
C175 O179 1.241 . S
C176 O169 1.247 . S
C176 O170 1.261 . S
C177 O172 1.259 . S
C177 O174 1.235 . S
O178 Co168 2.021 . S
O178 C175 1.238 . S
O179 Co173 2.052 1_565 S
O179 C175 1.241 . S
O180 Co168 2.137 1_545 S
O180 C171 1.247 . S
O181 Co168 2.244 1_545 S
O181 C171 1.272 . S
O181 Co173 2.135 . S
Co182 O183 2.216 . S
Co182 O184 2.091 . S
Co182 O186 2.004 . S
Co182 O192 2.021 . S
Co182 O194 2.137 . S
Co182 O195 2.244 . S
O183 Co182 2.216 . S
O183 C190 1.247 . S
O184 Co182 2.091 . S
O184 C190 1.261 . S
C185 O194 1.247 . S
C185 O195 1.272 . S
O186 Co182 2.004 . S
O186 C191 1.259 . S
Co187 O188 2.061 . S
Co187 O193 2.052 . S
Co187 O195 2.135 . S
O188 Co187 2.061 . S
O188 C191 1.235 . S
C189 O192 1.238 . S
C189 O193 1.241 . S
C190 O183 1.247 . S
C190 O184 1.261 . S
C191 O186 1.259 . S
C191 O188 1.235 . S
O192 Co182 2.021 . S
O192 C189 1.238 . S
O193 Co187 2.052 . S
O193 C189 1.241 . S
O194 Co182 2.137 . S
O194 C185 1.247 . S
O195 Co182 2.244 . S
O195 C185 1.272 . S
O195 Co187 2.135 . S
Co196 O197 2.216 . S
Co196 O198 2.091 . S
Co196 O200 2.004 1_545 S
Co196 O206 2.021 . S
Co196 O208 2.137 1_545 S
Co196 O209 2.244 1_545 S
O197 Co196 2.216 . S
O197 C204 1.247 . S
O198 Co196 2.091 . S
O198 C204 1.261 . S
C199 O208 1.247 . S
C199 O209 1.272 . S
O200 Co196 2.004 1_565 S
O200 C205 1.259 . S
Co201 O202 2.061 . S
Co201 O207 2.052 1_565 S
Co201 O209 2.135 . S
O202 Co201 2.061 . S
O202 C205 1.235 . S
C203 O206 1.238 . S
C203 O207 1.241 . S
C204 O197 1.247 . S
C204 O198 1.261 . S
C205 O200 1.259 . S
C205 O202 1.235 . S
O206 Co196 2.021 . S
O206 C203 1.238 . S
O207 Co201 2.052 1_545 S
O207 C203 1.241 . S
O208 Co196 2.137 1_565 S
O208 C199 1.247 . S
O209 Co196 2.244 1_565 S
O209 C199 1.272 . S
O209 Co201 2.135 . S
Co210 O211 2.216 . S
Co210 O212 2.091 . S
Co210 O214 2.004 . S
Co210 O220 2.021 . S
Co210 O222 2.137 . S
Co210 O223 2.244 . S
O211 Co210 2.216 . S
O211 C218 1.247 . S
O212 Co210 2.091 . S
O212 C218 1.261 . S
C213 O222 1.247 . S
C213 O223 1.272 . S
O214 Co210 2.004 . S
O214 C219 1.259 . S
Co215 O216 2.061 . S
Co215 O221 2.052 . S
Co215 O223 2.135 . S
O216 Co215 2.061 . S
O216 C219 1.235 . S
C217 O220 1.238 . S
C217 O221 1.241 . S
C218 O211 1.247 . S
C218 O212 1.261 . S
C219 O214 1.259 . S
C219 O216 1.235 . S
O220 Co210 2.021 . S
O220 C217 1.238 . S
O221 Co215 2.052 . S
O221 C217 1.241 . S
O222 Co210 2.137 . S
O222 C213 1.247 . S
O223 Co210 2.244 . S
O223 C213 1.272 . S
O223 Co215 2.135 . S
Co224 O225 2.216 1_554 S
Co224 O226 2.091 1_554 S
Co224 O228 2.004 . S
Co224 O234 2.021 1_554 S
Co224 O236 2.137 . S
Co224 O237 2.244 . S
O225 Co224 2.216 1_556 S
O225 C232 1.247 . S
O226 Co224 2.091 1_556 S
O226 C232 1.261 . S
C227 O236 1.247 . S
C227 O237 1.272 . S
O228 Co224 2.004 . S
O228 C233 1.259 . S
Co229 O230 2.061 . S
Co229 O235 2.052 1_554 S
Co229 O237 2.135 . S
O230 Co229 2.061 . S
O230 C233 1.235 . S
C231 O234 1.238 . S
C231 O235 1.241 . S
C232 O225 1.247 . S
C232 O226 1.261 . S
C233 O228 1.259 . S
C233 O230 1.235 . S
O234 Co224 2.021 1_556 S
O234 C231 1.238 . S
O235 Co229 2.052 1_556 S
O235 C231 1.241 . S
O236 Co224 2.137 . S
O236 C227 1.247 . S
O237 Co224 2.244 . S
O237 C227 1.272 . S
O237 Co229 2.135 . S
Co238 O239 2.216 1_556 S
Co238 O240 2.091 1_556 S
Co238 O242 2.004 . S
Co238 O248 2.021 1_556 S
Co238 O250 2.137 . S
Co238 O251 2.244 . S
O239 Co238 2.216 1_554 S
O239 C246 1.247 . S
O240 Co238 2.091 1_554 S
O240 C246 1.261 . S
C241 O250 1.247 . S
C241 O251 1.272 . S
O242 Co238 2.004 . S
O242 C247 1.259 . S
Co243 O244 2.061 . S
Co243 O249 2.052 1_556 S
Co243 O251 2.135 . S
O244 Co243 2.061 . S
O244 C247 1.235 . S
C245 O248 1.238 . S
C245 O249 1.241 . S
C246 O239 1.247 . S
C246 O240 1.261 . S
C247 O242 1.259 . S
C247 O244 1.235 . S
O248 Co238 2.021 1_554 S
O248 C245 1.238 . S
O249 Co243 2.052 1_554 S
O249 C245 1.241 . S
O250 Co238 2.137 . S
O250 C241 1.247 . S
O251 Co238 2.244 . S
O251 C241 1.272 . S
O251 Co243 2.135 . S
Co252 O253 2.216 . S
Co252 O254 2.091 . S
Co252 O256 2.004 . S
Co252 O262 2.021 . S
Co252 O264 2.137 . S
Co252 O265 2.244 . S
O253 Co252 2.216 . S
O253 C260 1.247 . S
O254 Co252 2.091 . S
O254 C260 1.261 . S
C255 O264 1.247 . S
C255 O265 1.272 . S
O256 Co252 2.004 . S
O256 C261 1.259 . S
Co257 O258 2.061 . S
Co257 O263 2.052 . S
Co257 O265 2.135 . S
O258 Co257 2.061 . S
O258 C261 1.235 . S
C259 O262 1.238 . S
C259 O263 1.241 . S
C260 O253 1.247 . S
C260 O254 1.261 . S
C261 O256 1.259 . S
C261 O258 1.235 . S
O262 Co252 2.021 . S
O262 C259 1.238 . S
O263 Co257 2.052 . S
O263 C259 1.241 . S
O264 Co252 2.137 . S
O264 C255 1.247 . S
O265 Co252 2.244 . S
O265 C255 1.272 . S
O265 Co257 2.135 . S
Co266 O267 2.216 . S
Co266 O268 2.091 . S
Co266 O270 2.004 . S
Co266 O276 2.021 . S
Co266 O278 2.137 . S
Co266 O279 2.244 . S
O267 Co266 2.216 . S
O267 C274 1.247 . S
O268 Co266 2.091 . S
O268 C274 1.261 . S
C269 O278 1.247 . S
C269 O279 1.272 . S
O270 Co266 2.004 . S
O270 C275 1.259 . S
Co271 O272 2.061 . S
Co271 O277 2.052 . S
Co271 O279 2.135 . S
O272 Co271 2.061 . S
O272 C275 1.235 . S
C273 O276 1.238 . S
C273 O277 1.241 . S
C274 O267 1.247 . S
C274 O268 1.261 . S
C275 O270 1.259 . S
C275 O272 1.235 . S
O276 Co266 2.021 . S
O276 C273 1.238 . S
O277 Co271 2.052 . S
O277 C273 1.241 . S
O278 Co266 2.137 . S
O278 C269 1.247 . S
O279 Co266 2.244 . S
O279 C269 1.272 . S
O279 Co271 2.135 . S
Co280 O281 2.216 . S
Co280 O282 2.091 . S
Co280 O284 2.004 . S
Co280 O290 2.021 . S
Co280 O292 2.137 . S
Co280 O293 2.244 . S
O281 Co280 2.216 . S
O281 C288 1.247 . S
O282 Co280 2.091 . S
O282 C288 1.261 . S
C283 O292 1.247 . S
C283 O293 1.272 . S
O284 Co280 2.004 . S
O284 C289 1.259 . S
Co285 O286 2.061 . S
Co285 O291 2.052 . S
Co285 O293 2.135 . S
O286 Co285 2.061 . S
O286 C289 1.235 . S
C287 O290 1.238 . S
C287 O291 1.241 . S
C288 O281 1.247 . S
C288 O282 1.261 . S
C289 O284 1.259 . S
C289 O286 1.235 . S
O290 Co280 2.021 . S
O290 C287 1.238 . S
O291 Co285 2.052 . S
O291 C287 1.241 . S
O292 Co280 2.137 . S
O292 C283 1.247 . S
O293 Co280 2.244 . S
O293 C283 1.272 . S
O293 Co285 2.135 . S
Co294 O295 2.216 . S
Co294 O296 2.091 . S
Co294 O298 2.004 . S
Co294 O304 2.021 . S
Co294 O306 2.137 . S
Co294 O307 2.244 . S
O295 Co294 2.216 . S
O295 C302 1.247 . S
O296 Co294 2.091 . S
O296 C302 1.261 . S
C297 O306 1.247 . S
C297 O307 1.272 . S
O298 Co294 2.004 . S
O298 C303 1.259 . S
Co299 O300 2.061 . S
Co299 O305 2.052 . S
Co299 O307 2.135 . S
O300 Co299 2.061 . S
O300 C303 1.235 . S
C301 O304 1.238 . S
C301 O305 1.241 . S
C302 O295 1.247 . S
C302 O296 1.261 . S
C303 O298 1.259 . S
C303 O300 1.235 . S
O304 Co294 2.021 . S
O304 C301 1.238 . S
O305 Co299 2.052 . S
O305 C301 1.241 . S
O306 Co294 2.137 . S
O306 C297 1.247 . S
O307 Co294 2.244 . S
O307 C297 1.272 . S
O307 Co299 2.135 . S
Co308 O309 2.216 . S
Co308 O310 2.091 . S
Co308 O312 2.004 . S
Co308 O318 2.021 . S
Co308 O320 2.137 . S
Co308 O321 2.244 . S
O309 Co308 2.216 . S
O309 C316 1.247 . S
O310 Co308 2.091 . S
O310 C316 1.261 . S
C311 O320 1.247 . S
C311 O321 1.272 . S
O312 Co308 2.004 . S
O312 C317 1.259 . S
Co313 O314 2.061 . S
Co313 O319 2.052 . S
Co313 O321 2.135 . S
O314 Co313 2.061 . S
O314 C317 1.235 . S
C315 O318 1.238 . S
C315 O319 1.241 . S
C316 O309 1.247 . S
C316 O310 1.261 . S
C317 O312 1.259 . S
C317 O314 1.235 . S
O318 Co308 2.021 . S
O318 C315 1.238 . S
O319 Co313 2.052 . S
O319 C315 1.241 . S
O320 Co308 2.137 . S
O320 C311 1.247 . S
O321 Co308 2.244 . S
O321 C311 1.272 . S
O321 Co313 2.135 . S
Co322 O323 2.216 . S
Co322 O324 2.091 . S
Co322 O326 2.004 . S
Co322 O332 2.021 . S
Co322 O334 2.137 . S
Co322 O335 2.244 . S
O323 Co322 2.216 . S
O323 C330 1.247 . S
O324 Co322 2.091 . S
O324 C330 1.261 . S
C325 O334 1.247 . S
C325 O335 1.272 . S
O326 Co322 2.004 . S
O326 C331 1.259 . S
Co327 O328 2.061 . S
Co327 O333 2.052 . S
Co327 O335 2.135 . S
O328 Co327 2.061 . S
O328 C331 1.235 . S
C329 O332 1.238 . S
C329 O333 1.241 . S
C330 O323 1.247 . S
C330 O324 1.261 . S
C331 O326 1.259 . S
C331 O328 1.235 . S
O332 Co322 2.021 . S
O332 C329 1.238 . S
O333 Co327 2.052 . S
O333 C329 1.241 . S
O334 Co322 2.137 . S
O334 C325 1.247 . S
O335 Co322 2.244 . S
O335 C325 1.272 . S
O335 Co327 2.135 . S
Co336 O337 2.216 1_655 S
Co336 O338 2.091 1_655 S
Co336 O340 2.004 . S
Co336 O346 2.021 1_655 S
Co336 O348 2.137 . S
Co336 O349 2.244 . S
O337 Co336 2.216 1_455 S
O337 C344 1.247 . S
O338 Co336 2.091 1_455 S
O338 C344 1.261 . S
C339 O348 1.247 . S
C339 O349 1.272 . S
O340 Co336 2.004 . S
O340 C345 1.259 . S
Co341 O342 2.061 . S
Co341 O347 2.052 1_655 S
Co341 O349 2.135 . S
O342 Co341 2.061 . S
O342 C345 1.235 . S
C343 O346 1.238 . S
C343 O347 1.241 . S
C344 O337 1.247 . S
C344 O338 1.261 . S
C345 O340 1.259 . S
C345 O342 1.235 . S
O346 Co336 2.021 1_455 S
O346 C343 1.238 . S
O347 Co341 2.052 1_455 S
O347 C343 1.241 . S
O348 Co336 2.137 . S
O348 C339 1.247 . S
O349 Co336 2.244 . S
O349 C339 1.272 . S
O349 Co341 2.135 . S
Co350 O351 2.216 . S
Co350 O352 2.091 . S
Co350 O354 2.004 . S
Co350 O360 2.021 . S
Co350 O362 2.137 . S
Co350 O363 2.244 . S
O351 Co350 2.216 . S
O351 C358 1.247 . S
O352 Co350 2.091 . S
O352 C358 1.261 . S
C353 O362 1.247 . S
C353 O363 1.272 . S
O354 Co350 2.004 . S
O354 C359 1.259 . S
Co355 O356 2.061 . S
Co355 O361 2.052 . S
Co355 O363 2.135 . S
O356 Co355 2.061 . S
O356 C359 1.235 . S
C357 O360 1.238 . S
C357 O361 1.241 . S
C358 O351 1.247 . S
C358 O352 1.261 . S
C359 O354 1.259 . S
C359 O356 1.235 . S
O360 Co350 2.021 . S
O360 C357 1.238 . S
O361 Co355 2.052 . S
O361 C357 1.241 . S
O362 Co350 2.137 . S
O362 C353 1.247 . S
O363 Co350 2.244 . S
O363 C353 1.272 . S
O363 Co355 2.135 . S
Co364 O365 2.216 . S
Co364 O366 2.091 . S
Co364 O368 2.004 . S
Co364 O374 2.021 . S
Co364 O376 2.137 . S
Co364 O377 2.244 . S
O365 Co364 2.216 . S
O365 C372 1.247 . S
O366 Co364 2.091 . S
O366 C372 1.261 . S
C367 O376 1.247 . S
C367 O377 1.272 . S
O368 Co364 2.004 . S
O368 C373 1.259 . S
Co369 O370 2.061 . S
Co369 O375 2.052 . S
Co369 O377 2.135 . S
O370 Co369 2.061 . S
O370 C373 1.235 . S
C371 O374 1.238 . S
C371 O375 1.241 . S
C372 O365 1.247 . S
C372 O366 1.261 . S
C373 O368 1.259 . S
C373 O370 1.235 . S
O374 Co364 2.021 . S
O374 C371 1.238 . S
O375 Co369 2.052 . S
O375 C371 1.241 . S
O376 Co364 2.137 . S
O376 C367 1.247 . S
O377 Co364 2.244 . S
O377 C367 1.272 . S
O377 Co369 2.135 . S
Co378 O379 2.216 . S
Co378 O380 2.091 . S
Co378 O382 2.004 . S
Co378 O388 2.021 . S
Co378 O390 2.137 . S
Co378 O391 2.244 . S
O379 Co378 2.216 . S
O379 C386 1.247 . S
O380 Co378 2.091 . S
O380 C386 1.261 . S
C381 O390 1.247 . S
C381 O391 1.272 . S
O382 Co378 2.004 . S
O382 C387 1.259 . S
Co383 O384 2.061 . S
Co383 O389 2.052 . S
Co383 O391 2.135 . S
O384 Co383 2.061 . S
O384 C387 1.235 . S
C385 O388 1.238 . S
C385 O389 1.241 . S
C386 O379 1.247 . S
C386 O380 1.261 . S
C387 O382 1.259 . S
C387 O384 1.235 . S
O388 Co378 2.021 . S
O388 C385 1.238 . S
O389 Co383 2.052 . S
O389 C385 1.241 . S
O390 Co378 2.137 . S
O390 C381 1.247 . S
O391 Co378 2.244 . S
O391 C381 1.272 . S
O391 Co383 2.135 . S
Co392 O393 2.216 1_655 S
Co392 O394 2.091 1_655 S
Co392 O396 2.004 . S
Co392 O402 2.021 1_655 S
Co392 O404 2.137 . S
Co392 O405 2.244 . S
O393 Co392 2.216 1_455 S
O393 C400 1.247 . S
O394 Co392 2.091 1_455 S
O394 C400 1.261 . S
C395 O404 1.247 . S
C395 O405 1.272 . S
O396 Co392 2.004 . S
O396 C401 1.259 . S
Co397 O398 2.061 . S
Co397 O403 2.052 1_655 S
Co397 O405 2.135 . S
O398 Co397 2.061 . S
O398 C401 1.235 . S
C399 O402 1.238 . S
C399 O403 1.241 . S
C400 O393 1.247 . S
C400 O394 1.261 . S
C401 O396 1.259 . S
C401 O398 1.235 . S
O402 Co392 2.021 1_455 S
O402 C399 1.238 . S
O403 Co397 2.052 1_455 S
O403 C399 1.241 . S
O404 Co392 2.137 . S
O404 C395 1.247 . S
O405 Co392 2.244 . S
O405 C395 1.272 . S
O405 Co397 2.135 . S
Co406 O407 2.216 . S
Co406 O408 2.091 . S
Co406 O410 2.004 . S
Co406 O416 2.021 . S
Co406 O418 2.137 . S
Co406 O419 2.244 . S
O407 Co406 2.216 . S
O407 C414 1.247 . S
O408 Co406 2.091 . S
O408 C414 1.261 . S
C409 O418 1.247 . S
C409 O419 1.272 . S
O410 Co406 2.004 . S
O410 C415 1.259 . S
Co411 O412 2.061 . S
Co411 O417 2.052 . S
Co411 O419 2.135 . S
O412 Co411 2.061 . S
O412 C415 1.235 . S
C413 O416 1.238 . S
C413 O417 1.241 . S
C414 O407 1.247 . S
C414 O408 1.261 . S
C415 O410 1.259 . S
C415 O412 1.235 . S
O416 Co406 2.021 . S
O416 C413 1.238 . S
O417 Co411 2.052 . S
O417 C413 1.241 . S
O418 Co406 2.137 . S
O418 C409 1.247 . S
O419 Co406 2.244 . S
O419 C409 1.272 . S
O419 Co411 2.135 . S
Co420 O421 2.216 . S
Co420 O422 2.091 . S
Co420 O424 2.004 . S
Co420 O430 2.021 . S
Co420 O432 2.137 . S
Co420 O433 2.244 . S
O421 Co420 2.216 . S
O421 C428 1.247 . S
O422 Co420 2.091 . S
O422 C428 1.261 . S
C423 O432 1.247 . S
C423 O433 1.272 . S
O424 Co420 2.004 . S
O424 C429 1.259 . S
Co425 O426 2.061 . S
Co425 O431 2.052 . S
Co425 O433 2.135 . S
O426 Co425 2.061 . S
O426 C429 1.235 . S
C427 O430 1.238 . S
C427 O431 1.241 . S
C428 O421 1.247 . S
C428 O422 1.261 . S
C429 O424 1.259 . S
C429 O426 1.235 . S
O430 Co420 2.021 . S
O430 C427 1.238 . S
O431 Co425 2.052 . S
O431 C427 1.241 . S
O432 Co420 2.137 . S
O432 C423 1.247 . S
O433 Co420 2.244 . S
O433 C423 1.272 . S
O433 Co425 2.135 . S
Co434 O435 2.216 . S
Co434 O436 2.091 . S
Co434 O438 2.004 . S
Co434 O444 2.021 . S
Co434 O446 2.137 . S
Co434 O447 2.244 . S
O435 Co434 2.216 . S
O435 C442 1.247 . S
O436 Co434 2.091 . S
O436 C442 1.261 . S
C437 O446 1.247 . S
C437 O447 1.272 . S
O438 Co434 2.004 . S
O438 C443 1.259 . S
Co439 O440 2.061 . S
Co439 O445 2.052 . S
Co439 O447 2.135 . S
O440 Co439 2.061 . S
O440 C443 1.235 . S
C441 O444 1.238 . S
C441 O445 1.241 . S
C442 O435 1.247 . S
C442 O436 1.261 . S
C443 O438 1.259 . S
C443 O440 1.235 . S
O444 Co434 2.021 . S
O444 C441 1.238 . S
O445 Co439 2.052 . S
O445 C441 1.241 . S
O446 Co434 2.137 . S
O446 C437 1.247 . S
O447 Co434 2.244 . S
O447 C437 1.272 . S
O447 Co439 2.135 . S
Co448 O449 2.216 1_565 S
Co448 O450 2.091 1_565 S
Co448 O452 2.004 . S
Co448 O458 2.021 1_565 S
Co448 O460 2.137 . S
Co448 O461 2.244 . S
O449 Co448 2.216 1_545 S
O449 C456 1.247 . S
O450 Co448 2.091 1_545 S
O450 C456 1.261 . S
C451 O460 1.247 . S
C451 O461 1.272 . S
O452 Co448 2.004 . S
O452 C457 1.259 . S
Co453 O454 2.061 . S
Co453 O459 2.052 1_565 S
Co453 O461 2.135 . S
O454 Co453 2.061 . S
O454 C457 1.235 . S
C455 O458 1.238 . S
C455 O459 1.241 . S
C456 O449 1.247 . S
C456 O450 1.261 . S
C457 O452 1.259 . S
C457 O454 1.235 . S
O458 Co448 2.021 1_545 S
O458 C455 1.238 . S
O459 Co453 2.052 1_545 S
O459 C455 1.241 . S
O460 Co448 2.137 . S
O460 C451 1.247 . S
O461 Co448 2.244 . S
O461 C451 1.272 . S
O461 Co453 2.135 . S
Co462 O463 2.216 . S
Co462 O464 2.091 . S
Co462 O466 2.004 . S
Co462 O472 2.021 . S
Co462 O474 2.137 . S
Co462 O475 2.244 . S
O463 Co462 2.216 . S
O463 C470 1.247 . S
O464 Co462 2.091 . S
O464 C470 1.261 . S
C465 O474 1.247 . S
C465 O475 1.272 . S
O466 Co462 2.004 . S
O466 C471 1.259 . S
Co467 O468 2.061 . S
Co467 O473 2.052 . S
Co467 O475 2.135 . S
O468 Co467 2.061 . S
O468 C471 1.235 . S
C469 O472 1.238 . S
C469 O473 1.241 . S
C470 O463 1.247 . S
C470 O464 1.261 . S
C471 O466 1.259 . S
C471 O468 1.235 . S
O472 Co462 2.021 . S
O472 C469 1.238 . S
O473 Co467 2.052 . S
O473 C469 1.241 . S
O474 Co462 2.137 . S
O474 C465 1.247 . S
O475 Co462 2.244 . S
O475 C465 1.272 . S
O475 Co467 2.135 . S
Co476 O477 2.216 1_545 S
Co476 O478 2.091 1_545 S
Co476 O480 2.004 . S
Co476 O486 2.021 1_545 S
Co476 O488 2.137 . S
Co476 O489 2.244 . S
O477 Co476 2.216 1_565 S
O477 C484 1.247 . S
O478 Co476 2.091 1_565 S
O478 C484 1.261 . S
C479 O488 1.247 . S
C479 O489 1.272 . S
O480 Co476 2.004 . S
O480 C485 1.259 . S
Co481 O482 2.061 . S
Co481 O487 2.052 1_545 S
Co481 O489 2.135 . S
O482 Co481 2.061 . S
O482 C485 1.235 . S
C483 O486 1.238 . S
C483 O487 1.241 . S
C484 O477 1.247 . S
C484 O478 1.261 . S
C485 O480 1.259 . S
C485 O482 1.235 . S
O486 Co476 2.021 1_565 S
O486 C483 1.238 . S
O487 Co481 2.052 1_565 S
O487 C483 1.241 . S
O488 Co476 2.137 . S
O488 C479 1.247 . S
O489 Co476 2.244 . S
O489 C479 1.272 . S
O489 Co481 2.135 . S
Co490 O491 2.216 . S
Co490 O492 2.091 . S
Co490 O494 2.004 . S
Co490 O500 2.021 . S
Co490 O502 2.137 . S
Co490 O503 2.244 . S
O491 Co490 2.216 . S
O491 C498 1.247 . S
O492 Co490 2.091 . S
O492 C498 1.261 . S
C493 O502 1.247 . S
C493 O503 1.272 . S
O494 Co490 2.004 . S
O494 C499 1.259 . S
Co495 O496 2.061 . S
Co495 O501 2.052 . S
Co495 O503 2.135 . S
O496 Co495 2.061 . S
O496 C499 1.235 . S
C497 O500 1.238 . S
C497 O501 1.241 . S
C498 O491 1.247 . S
C498 O492 1.261 . S
C499 O494 1.259 . S
C499 O496 1.235 . S
O500 Co490 2.021 . S
O500 C497 1.238 . S
O501 Co495 2.052 . S
O501 C497 1.241 . S
O502 Co490 2.137 . S
O502 C493 1.247 . S
O503 Co490 2.244 . S
O503 C493 1.272 . S
O503 Co495 2.135 . S
Co504 O505 2.216 1_545 S
Co504 O506 2.091 1_545 S
Co504 O508 2.004 . S
Co504 O514 2.021 1_545 S
Co504 O516 2.137 . S
Co504 O517 2.244 . S
O505 Co504 2.216 1_565 S
O505 C512 1.247 . S
O506 Co504 2.091 1_565 S
O506 C512 1.261 . S
C507 O516 1.247 . S
C507 O517 1.272 . S
O508 Co504 2.004 . S
O508 C513 1.259 . S
Co509 O510 2.061 . S
Co509 O515 2.052 1_545 S
Co509 O517 2.135 . S
O510 Co509 2.061 . S
O510 C513 1.235 . S
C511 O514 1.238 . S
C511 O515 1.241 . S
C512 O505 1.247 . S
C512 O506 1.261 . S
C513 O508 1.259 . S
C513 O510 1.235 . S
O514 Co504 2.021 1_565 S
O514 C511 1.238 . S
O515 Co509 2.052 1_565 S
O515 C511 1.241 . S
O516 Co504 2.137 . S
O516 C507 1.247 . S
O517 Co504 2.244 . S
O517 C507 1.272 . S
O517 Co509 2.135 . S
Co518 O519 2.216 . S
Co518 O520 2.091 . S
Co518 O522 2.004 . S
Co518 O528 2.021 . S
Co518 O530 2.137 . S
Co518 O531 2.244 . S
O519 Co518 2.216 . S
O519 C526 1.247 . S
O520 Co518 2.091 . S
O520 C526 1.261 . S
C521 O530 1.247 . S
C521 O531 1.272 . S
O522 Co518 2.004 . S
O522 C527 1.259 . S
Co523 O524 2.061 . S
Co523 O529 2.052 . S
Co523 O531 2.135 . S
O524 Co523 2.061 . S
O524 C527 1.235 . S
C525 O528 1.238 . S
C525 O529 1.241 . S
C526 O519 1.247 . S
C526 O520 1.261 . S
C527 O522 1.259 . S
C527 O524 1.235 . S
O528 Co518 2.021 . S
O528 C525 1.238 . S
O529 Co523 2.052 . S
O529 C525 1.241 . S
O530 Co518 2.137 . S
O530 C521 1.247 . S
O531 Co518 2.244 . S
O531 C521 1.272 . S
O531 Co523 2.135 . S
Co532 O533 2.216 1_565 S
Co532 O534 2.091 1_565 S
Co532 O536 2.004 . S
Co532 O542 2.021 1_565 S
Co532 O544 2.137 . S
Co532 O545 2.244 . S
O533 Co532 2.216 1_545 S
O533 C540 1.247 . S
O534 Co532 2.091 1_545 S
O534 C540 1.261 . S
C535 O544 1.247 . S
C535 O545 1.272 . S
O536 Co532 2.004 . S
O536 C541 1.259 . S
Co537 O538 2.061 . S
Co537 O543 2.052 1_565 S
Co537 O545 2.135 . S
O538 Co537 2.061 . S
O538 C541 1.235 . S
C539 O542 1.238 . S
C539 O543 1.241 . S
C540 O533 1.247 . S
C540 O534 1.261 . S
C541 O536 1.259 . S
C541 O538 1.235 . S
O542 Co532 2.021 1_545 S
O542 C539 1.238 . S
O543 Co537 2.052 1_545 S
O543 C539 1.241 . S
O544 Co532 2.137 . S
O544 C535 1.247 . S
O545 Co532 2.244 . S
O545 C535 1.272 . S
O545 Co537 2.135 . S
Co546 O547 2.216 . S
Co546 O548 2.091 . S
Co546 O550 2.004 . S
Co546 O556 2.021 . S
Co546 O558 2.137 . S
Co546 O559 2.244 . S
O547 Co546 2.216 . S
O547 C554 1.247 . S
O548 Co546 2.091 . S
O548 C554 1.261 . S
C549 O558 1.247 . S
C549 O559 1.272 . S
O550 Co546 2.004 . S
O550 C555 1.259 . S
Co551 O552 2.061 . S
Co551 O557 2.052 . S
Co551 O559 2.135 . S
O552 Co551 2.061 . S
O552 C555 1.235 . S
C553 O556 1.238 . S
C553 O557 1.241 . S
C554 O547 1.247 . S
C554 O548 1.261 . S
C555 O550 1.259 . S
C555 O552 1.235 . S
O556 Co546 2.021 . S
O556 C553 1.238 . S
O557 Co551 2.052 . S
O557 C553 1.241 . S
O558 Co546 2.137 . S
O558 C549 1.247 . S
O559 Co546 2.244 . S
O559 C549 1.272 . S
O559 Co551 2.135 . S
Co560 O561 2.216 1_556 S
Co560 O562 2.089 1_556 S
Co560 O564 2.004 . S
Co560 O570 2.021 1_556 S
Co560 O572 2.137 . S
Co560 O573 2.244 . S
O561 Co560 2.216 1_554 S
O561 C568 1.247 . S
O562 Co560 2.089 1_554 S
O562 C568 1.266 . S
C563 O572 1.247 . S
C563 O573 1.272 . S
O564 Co560 2.004 . S
O564 C569 1.259 . S
Co565 O566 2.061 . S
Co565 O571 2.052 1_556 S
Co565 O573 2.135 . S
O566 Co565 2.061 . S
O566 C569 1.235 . S
C567 O570 1.238 . S
C567 O571 1.241 . S
C568 O561 1.247 . S
C568 O562 1.266 . S
C569 O564 1.259 . S
C569 O566 1.235 . S
O570 Co560 2.021 1_554 S
O570 C567 1.238 . S
O571 Co565 2.052 1_554 S
O571 C567 1.241 . S
O572 Co560 2.137 . S
O572 C563 1.247 . S
O573 Co560 2.244 . S
O573 C563 1.272 . S
O573 Co565 2.135 . S
Co574 O575 2.216 1_554 S
Co574 O576 2.086 1_554 S
Co574 O578 2.004 . S
Co574 O584 2.021 1_554 S
Co574 O586 2.137 . S
Co574 O587 2.244 . S
O575 Co574 2.216 1_556 S
O575 C582 1.247 . S
O576 Co574 2.086 1_556 S
O576 C582 1.275 . S
C577 O586 1.247 . S
C577 O587 1.272 . S
O578 Co574 2.004 . S
O578 C583 1.259 . S
Co579 O580 2.061 . S
Co579 O585 2.052 1_554 S
Co579 O587 2.135 . S
O580 Co579 2.061 . S
O580 C583 1.235 . S
C581 O584 1.238 . S
C581 O585 1.241 . S
C582 O575 1.247 . S
C582 O576 1.275 . S
C583 O578 1.259 . S
C583 O580 1.235 . S
O584 Co574 2.021 1_556 S
O584 C581 1.238 . S
O585 Co579 2.052 1_556 S
O585 C581 1.241 . S
O586 Co574 2.137 . S
O586 C577 1.247 . S
O587 Co574 2.244 . S
O587 C577 1.272 . S
O587 Co579 2.135 . S
Co588 O589 2.216 . S
Co588 O590 2.091 . S
Co588 O592 2.004 . S
Co588 O598 2.021 . S
Co588 O600 2.137 . S
Co588 O601 2.244 . S
O589 Co588 2.216 . S
O589 C596 1.247 . S
O590 Co588 2.091 . S
O590 C596 1.261 . S
C591 O600 1.247 . S
C591 O601 1.272 . S
O592 Co588 2.004 . S
O592 C597 1.259 . S
Co593 O594 2.061 . S
Co593 O599 2.052 . S
Co593 O601 2.135 . S
O594 Co593 2.061 . S
O594 C597 1.235 . S
C595 O598 1.238 . S
C595 O599 1.241 . S
C596 O589 1.247 . S
C596 O590 1.261 . S
C597 O592 1.259 . S
C597 O594 1.235 . S
O598 Co588 2.021 . S
O598 C595 1.238 . S
O599 Co593 2.052 . S
O599 C595 1.241 . S
O600 Co588 2.137 . S
O600 C591 1.247 . S
O601 Co588 2.244 . S
O601 C591 1.272 . S
O601 Co593 2.135 . S
Co602 O603 2.216 . S
Co602 O604 2.091 . S
Co602 O606 2.004 . S
Co602 O612 2.021 . S
Co602 O614 2.137 . S
Co602 O615 2.244 . S
O603 Co602 2.216 . S
O603 C610 1.247 . S
O604 Co602 2.091 . S
O604 C610 1.261 . S
C605 O614 1.247 . S
C605 O615 1.272 . S
O606 Co602 2.004 . S
O606 C611 1.259 . S
Co607 O608 2.061 . S
Co607 O613 2.052 . S
Co607 O615 2.135 . S
O608 Co607 2.061 . S
O608 C611 1.235 . S
C609 O612 1.238 . S
C609 O613 1.241 . S
C610 O603 1.247 . S
C610 O604 1.261 . S
C611 O606 1.259 . S
C611 O608 1.235 . S
O612 Co602 2.021 . S
O612 C609 1.238 . S
O613 Co607 2.052 . S
O613 C609 1.241 . S
O614 Co602 2.137 . S
O614 C605 1.247 . S
O615 Co602 2.244 . S
O615 C605 1.272 . S
O615 Co607 2.135 . S
Co616 O617 2.216 . S
Co616 O618 2.091 . S
Co616 O620 2.004 . S
Co616 O626 2.021 . S
Co616 O628 2.137 . S
Co616 O629 2.244 . S
O617 Co616 2.216 . S
O617 C624 1.247 . S
O618 Co616 2.091 . S
O618 C624 1.261 . S
C619 O628 1.247 . S
C619 O629 1.272 . S
O620 Co616 2.004 . S
O620 C625 1.259 . S
Co621 O622 2.061 . S
Co621 O627 2.052 . S
Co621 O629 2.135 . S
O622 Co621 2.061 . S
O622 C625 1.235 . S
C623 O626 1.238 . S
C623 O627 1.241 . S
C624 O617 1.247 . S
C624 O618 1.261 . S
C625 O620 1.259 . S
C625 O622 1.235 . S
O626 Co616 2.021 . S
O626 C623 1.238 . S
O627 Co621 2.052 . S
O627 C623 1.241 . S
O628 Co616 2.137 . S
O628 C619 1.247 . S
O629 Co616 2.244 . S
O629 C619 1.272 . S
O629 Co621 2.135 . S
Co630 O631 2.216 . S
Co630 O632 2.091 . S
Co630 O634 2.004 . S
Co630 O640 2.021 . S
Co630 O642 2.137 . S
Co630 O643 2.244 . S
O631 Co630 2.216 . S
O631 C638 1.247 . S
O632 Co630 2.091 . S
O632 C638 1.261 . S
C633 O642 1.247 . S
C633 O643 1.272 . S
O634 Co630 2.004 . S
O634 C639 1.259 . S
Co635 O636 2.061 . S
Co635 O641 2.052 . S
Co635 O643 2.135 . S
O636 Co635 2.061 . S
O636 C639 1.235 . S
C637 O640 1.238 . S
C637 O641 1.241 . S
C638 O631 1.247 . S
C638 O632 1.261 . S
C639 O634 1.259 . S
C639 O636 1.235 . S
O640 Co630 2.021 . S
O640 C637 1.238 . S
O641 Co635 2.052 . S
O641 C637 1.241 . S
O642 Co630 2.137 . S
O642 C633 1.247 . S
O643 Co630 2.244 . S
O643 C633 1.272 . S
O643 Co635 2.135 . S
Co644 O645 2.216 . S
Co644 O646 2.091 . S
Co644 O648 2.004 . S
Co644 O654 2.021 . S
Co644 O656 2.137 . S
Co644 O657 2.244 . S
O645 Co644 2.216 . S
O645 C652 1.247 . S
O646 Co644 2.091 . S
O646 C652 1.261 . S
C647 O656 1.247 . S
C647 O657 1.272 . S
O648 Co644 2.004 . S
O648 C653 1.259 . S
Co649 O650 2.061 . S
Co649 O655 2.052 . S
Co649 O657 2.135 . S
O650 Co649 2.061 . S
O650 C653 1.235 . S
C651 O654 1.238 . S
C651 O655 1.241 . S
C652 O645 1.247 . S
C652 O646 1.261 . S
C653 O648 1.259 . S
C653 O650 1.235 . S
O654 Co644 2.021 . S
O654 C651 1.238 . S
O655 Co649 2.052 . S
O655 C651 1.241 . S
O656 Co644 2.137 . S
O656 C647 1.247 . S
O657 Co644 2.244 . S
O657 C647 1.272 . S
O657 Co649 2.135 . S
Co658 O659 2.216 . S
Co658 O660 2.091 . S
Co658 O662 2.004 . S
Co658 O668 2.021 . S
Co658 O670 2.137 . S
Co658 O671 2.244 . S
O659 Co658 2.216 . S
O659 C666 1.247 . S
O660 Co658 2.091 . S
O660 C666 1.261 . S
C661 O670 1.247 . S
C661 O671 1.272 . S
O662 Co658 2.004 . S
O662 C667 1.259 . S
Co663 O664 2.061 . S
Co663 O669 2.052 . S
Co663 O671 2.135 . S
O664 Co663 2.061 . S
O664 C667 1.235 . S
C665 O668 1.238 . S
C665 O669 1.241 . S
C666 O659 1.247 . S
C666 O660 1.261 . S
C667 O662 1.259 . S
C667 O664 1.235 . S
O668 Co658 2.021 . S
O668 C665 1.238 . S
O669 Co663 2.052 . S
O669 C665 1.241 . S
O670 Co658 2.137 . S
O670 C661 1.247 . S
O671 Co658 2.244 . S
O671 C661 1.272 . S
O671 Co663 2.135 . S
Co672 O673 2.216 . S
Co672 O674 2.091 . S
Co672 O676 2.004 . S
Co672 O682 2.021 . S
Co672 O684 2.137 . S
Co672 O685 2.244 . S
O673 Co672 2.216 . S
O673 C680 1.247 . S
O674 Co672 2.091 . S
O674 C680 1.261 . S
C675 O684 1.247 . S
C675 O685 1.272 . S
O676 Co672 2.004 . S
O676 C681 1.259 . S
Co677 O678 2.061 . S
Co677 O683 2.052 . S
Co677 O685 2.135 . S
O678 Co677 2.061 . S
O678 C681 1.235 . S
C679 O682 1.238 . S
C679 O683 1.241 . S
C680 O673 1.247 . S
C680 O674 1.261 . S
C681 O676 1.259 . S
C681 O678 1.235 . S
O682 Co672 2.021 . S
O682 C679 1.238 . S
O683 Co677 2.052 . S
O683 C679 1.241 . S
O684 Co672 2.137 . S
O684 C675 1.247 . S
O685 Co672 2.244 . S
O685 C675 1.272 . S
O685 Co677 2.135 . S
Co686 O687 2.216 . S
Co686 O688 2.091 . S
Co686 O690 2.004 . S
Co686 O696 2.021 . S
Co686 O698 2.137 . S
Co686 O699 2.244 . S
O687 Co686 2.216 . S
O687 C694 1.247 . S
O688 Co686 2.091 . S
O688 C694 1.261 . S
C689 O698 1.247 . S
C689 O699 1.272 . S
O690 Co686 2.004 . S
O690 C695 1.259 . S
Co691 O692 2.061 . S
Co691 O697 2.052 . S
Co691 O699 2.135 . S
O692 Co691 2.061 . S
O692 C695 1.235 . S
C693 O696 1.238 . S
C693 O697 1.241 . S
C694 O687 1.247 . S
C694 O688 1.261 . S
C695 O690 1.259 . S
C695 O692 1.235 . S
O696 Co686 2.021 . S
O696 C693 1.238 . S
O697 Co691 2.052 . S
O697 C693 1.241 . S
O698 Co686 2.137 . S
O698 C689 1.247 . S
O699 Co686 2.244 . S
O699 C689 1.272 . S
O699 Co691 2.135 . S
Co700 O701 2.216 1_655 S
Co700 O702 2.091 1_655 S
Co700 O704 2.004 . S
Co700 O710 2.021 1_655 S
Co700 O712 2.137 . S
Co700 O713 2.244 . S
O701 Co700 2.216 1_455 S
O701 C708 1.247 . S
O702 Co700 2.091 1_455 S
O702 C708 1.261 . S
C703 O712 1.247 . S
C703 O713 1.272 . S
O704 Co700 2.004 . S
O704 C709 1.259 . S
Co705 O706 2.061 . S
Co705 O711 2.052 1_655 S
Co705 O713 2.135 . S
O706 Co705 2.061 . S
O706 C709 1.235 . S
C707 O710 1.238 . S
C707 O711 1.241 . S
C708 O701 1.247 . S
C708 O702 1.261 . S
C709 O704 1.259 . S
C709 O706 1.235 . S
O710 Co700 2.021 1_455 S
O710 C707 1.238 . S
O711 Co705 2.052 1_455 S
O711 C707 1.241 . S
O712 Co700 2.137 . S
O712 C703 1.247 . S
O713 Co700 2.244 . S
O713 C703 1.272 . S
O713 Co705 2.135 . S
Co714 O715 2.216 . S
Co714 O716 2.091 . S
Co714 O718 2.004 . S
Co714 O724 2.021 . S
Co714 O726 2.137 . S
Co714 O727 2.244 . S
O715 Co714 2.216 . S
O715 C722 1.247 . S
O716 Co714 2.091 . S
O716 C722 1.261 . S
C717 O726 1.247 . S
C717 O727 1.272 . S
O718 Co714 2.004 . S
O718 C723 1.259 . S
Co719 O720 2.061 . S
Co719 O725 2.052 . S
Co719 O727 2.135 . S
O720 Co719 2.061 . S
O720 C723 1.235 . S
C721 O724 1.238 . S
C721 O725 1.241 . S
C722 O715 1.247 . S
C722 O716 1.261 . S
C723 O718 1.259 . S
C723 O720 1.235 . S
O724 Co714 2.021 . S
O724 C721 1.238 . S
O725 Co719 2.052 . S
O725 C721 1.241 . S
O726 Co714 2.137 . S
O726 C717 1.247 . S
O727 Co714 2.244 . S
O727 C717 1.272 . S
O727 Co719 2.135 . S
Co728 O729 2.216 . S
Co728 O730 2.091 . S
Co728 O732 2.004 . S
Co728 O738 2.021 . S
Co728 O740 2.137 . S
Co728 O741 2.244 . S
O729 Co728 2.216 . S
O729 C736 1.247 . S
O730 Co728 2.091 . S
O730 C736 1.261 . S
C731 O740 1.247 . S
C731 O741 1.272 . S
O732 Co728 2.004 . S
O732 C737 1.259 . S
Co733 O734 2.061 . S
Co733 O739 2.052 . S
Co733 O741 2.135 . S
O734 Co733 2.061 . S
O734 C737 1.235 . S
C735 O738 1.238 . S
C735 O739 1.241 . S
C736 O729 1.247 . S
C736 O730 1.261 . S
C737 O732 1.259 . S
C737 O734 1.235 . S
O738 Co728 2.021 . S
O738 C735 1.238 . S
O739 Co733 2.052 . S
O739 C735 1.241 . S
O740 Co728 2.137 . S
O740 C731 1.247 . S
O741 Co728 2.244 . S
O741 C731 1.272 . S
O741 Co733 2.135 . S
Co742 O743 2.216 . S
Co742 O744 2.091 . S
Co742 O746 2.004 . S
Co742 O752 2.021 . S
Co742 O754 2.137 . S
Co742 O755 2.244 . S
O743 Co742 2.216 . S
O743 C750 1.247 . S
O744 Co742 2.091 . S
O744 C750 1.261 . S
C745 O754 1.247 . S
C745 O755 1.272 . S
O746 Co742 2.004 . S
O746 C751 1.259 . S
Co747 O748 2.061 . S
Co747 O753 2.052 . S
Co747 O755 2.135 . S
O748 Co747 2.061 . S
O748 C751 1.235 . S
C749 O752 1.238 . S
C749 O753 1.241 . S
C750 O743 1.247 . S
C750 O744 1.261 . S
C751 O746 1.259 . S
C751 O748 1.235 . S
O752 Co742 2.021 . S
O752 C749 1.238 . S
O753 Co747 2.052 . S
O753 C749 1.241 . S
O754 Co742 2.137 . S
O754 C745 1.247 . S
O755 Co742 2.244 . S
O755 C745 1.272 . S
O755 Co747 2.135 . S
Co756 O757 2.216 1_655 S
Co756 O758 2.091 1_655 S
Co756 O760 2.004 . S
Co756 O766 2.021 1_655 S
Co756 O768 2.137 . S
Co756 O769 2.244 . S
O757 Co756 2.216 1_455 S
O757 C764 1.247 . S
O758 Co756 2.091 1_455 S
O758 C764 1.261 . S
C759 O768 1.247 . S
C759 O769 1.272 . S
O760 Co756 2.004 . S
O760 C765 1.259 . S
Co761 O762 2.061 . S
Co761 O767 2.052 1_655 S
Co761 O769 2.135 . S
O762 Co761 2.061 . S
O762 C765 1.235 . S
C763 O766 1.238 . S
C763 O767 1.241 . S
C764 O757 1.247 . S
C764 O758 1.261 . S
C765 O760 1.259 . S
C765 O762 1.235 . S
O766 Co756 2.021 1_455 S
O766 C763 1.238 . S
O767 Co761 2.052 1_455 S
O767 C763 1.241 . S
O768 Co756 2.137 . S
O768 C759 1.247 . S
O769 Co756 2.244 . S
O769 C759 1.272 . S
O769 Co761 2.135 . S
Co770 O771 2.216 . S
Co770 O772 2.091 . S
Co770 O774 2.004 . S
Co770 O780 2.021 . S
Co770 O782 2.137 . S
Co770 O783 2.244 . S
O771 Co770 2.216 . S
O771 C778 1.247 . S
O772 Co770 2.091 . S
O772 C778 1.261 . S
C773 O782 1.247 . S
C773 O783 1.272 . S
O774 Co770 2.004 . S
O774 C779 1.259 . S
Co775 O776 2.061 . S
Co775 O781 2.052 . S
Co775 O783 2.135 . S
O776 Co775 2.061 . S
O776 C779 1.235 . S
C777 O780 1.238 . S
C777 O781 1.241 . S
C778 O771 1.247 . S
C778 O772 1.261 . S
C779 O774 1.259 . S
C779 O776 1.235 . S
O780 Co770 2.021 . S
O780 C777 1.238 . S
O781 Co775 2.052 . S
O781 C777 1.241 . S
O782 Co770 2.137 . S
O782 C773 1.247 . S
O783 Co770 2.244 . S
O783 C773 1.272 . S
O783 Co775 2.135 . S
Co784 O785 2.216 . S
Co784 O786 2.091 . S
Co784 O788 2.004 . S
Co784 O794 2.021 . S
Co784 O796 2.137 . S
Co784 O797 2.244 . S
O785 Co784 2.216 . S
O785 C792 1.247 . S
O786 Co784 2.091 . S
O786 C792 1.261 . S
C787 O796 1.247 . S
C787 O797 1.272 . S
O788 Co784 2.004 . S
O788 C793 1.259 . S
Co789 O790 2.061 . S
Co789 O795 2.052 . S
Co789 O797 2.135 . S
O790 Co789 2.061 . S
O790 C793 1.235 . S
C791 O794 1.238 . S
C791 O795 1.241 . S
C792 O785 1.247 . S
C792 O786 1.261 . S
C793 O788 1.259 . S
C793 O790 1.235 . S
O794 Co784 2.021 . S
O794 C791 1.238 . S
O795 Co789 2.052 . S
O795 C791 1.241 . S
O796 Co784 2.137 . S
O796 C787 1.247 . S
O797 Co784 2.244 . S
O797 C787 1.272 . S
O797 Co789 2.135 . S
Co798 O799 2.216 . S
Co798 O800 2.091 . S
Co798 O802 2.004 . S
Co798 O808 2.021 . S
Co798 O810 2.137 . S
Co798 O811 2.244 . S
O799 Co798 2.216 . S
O799 C806 1.247 . S
O800 Co798 2.091 . S
O800 C806 1.261 . S
C801 O810 1.247 . S
C801 O811 1.272 . S
O802 Co798 2.004 . S
O802 C807 1.259 . S
Co803 O804 2.061 . S
Co803 O809 2.052 . S
Co803 O811 2.135 . S
O804 Co803 2.061 . S
O804 C807 1.235 . S
C805 O808 1.238 . S
C805 O809 1.241 . S
C806 O799 1.247 . S
C806 O800 1.261 . S
C807 O802 1.259 . S
C807 O804 1.235 . S
O808 Co798 2.021 . S
O808 C805 1.238 . S
O809 Co803 2.052 . S
O809 C805 1.241 . S
O810 Co798 2.137 . S
O810 C801 1.247 . S
O811 Co798 2.244 . S
O811 C801 1.272 . S
O811 Co803 2.135 . S
Co812 O813 2.216 . S
Co812 O814 2.091 . S
Co812 O816 2.004 . S
Co812 O822 2.021 . S
Co812 O824 2.137 . S
Co812 O825 2.244 . S
O813 Co812 2.216 . S
O813 C820 1.247 . S
O814 Co812 2.091 . S
O814 C820 1.261 . S
C815 O824 1.247 . S
C815 O825 1.272 . S
O816 Co812 2.004 . S
O816 C821 1.259 . S
Co817 O818 2.061 . S
Co817 O823 2.052 . S
Co817 O825 2.135 . S
O818 Co817 2.061 . S
O818 C821 1.235 . S
C819 O822 1.238 . S
C819 O823 1.241 . S
C820 O813 1.247 . S
C820 O814 1.261 . S
C821 O816 1.259 . S
C821 O818 1.235 . S
O822 Co812 2.021 . S
O822 C819 1.238 . S
O823 Co817 2.052 . S
O823 C819 1.241 . S
O824 Co812 2.137 . S
O824 C815 1.247 . S
O825 Co812 2.244 . S
O825 C815 1.272 . S
O825 Co817 2.135 . S
Co826 O827 2.216 . S
Co826 O828 2.091 . S
Co826 O830 2.004 . S
Co826 O836 2.021 . S
Co826 O838 2.137 . S
Co826 O839 2.244 . S
O827 Co826 2.216 . S
O827 C834 1.247 . S
O828 Co826 2.091 . S
O828 C834 1.261 . S
C829 O838 1.247 . S
C829 O839 1.272 . S
O830 Co826 2.004 . S
O830 C835 1.259 . S
Co831 O832 2.061 . S
Co831 O837 2.052 . S
Co831 O839 2.135 . S
O832 Co831 2.061 . S
O832 C835 1.235 . S
C833 O836 1.238 . S
C833 O837 1.241 . S
C834 O827 1.247 . S
C834 O828 1.261 . S
C835 O830 1.259 . S
C835 O832 1.235 . S
O836 Co826 2.021 . S
O836 C833 1.238 . S
O837 Co831 2.052 . S
O837 C833 1.241 . S
O838 Co826 2.137 . S
O838 C829 1.247 . S
O839 Co826 2.244 . S
O839 C829 1.272 . S
O839 Co831 2.135 . S
Co840 O841 2.216 . S
Co840 O842 2.091 . S
Co840 O844 2.004 . S
Co840 O850 2.021 . S
Co840 O852 2.137 . S
Co840 O853 2.244 . S
O841 Co840 2.216 . S
O841 C848 1.247 . S
O842 Co840 2.091 . S
O842 C848 1.261 . S
C843 O852 1.247 . S
C843 O853 1.272 . S
O844 Co840 2.004 . S
O844 C849 1.259 . S
Co845 O846 2.061 . S
Co845 O851 2.052 . S
Co845 O853 2.135 . S
O846 Co845 2.061 . S
O846 C849 1.235 . S
C847 O850 1.238 . S
C847 O851 1.241 . S
C848 O841 1.247 . S
C848 O842 1.261 . S
C849 O844 1.259 . S
C849 O846 1.235 . S
O850 Co840 2.021 . S
O850 C847 1.238 . S
O851 Co845 2.052 . S
O851 C847 1.241 . S
O852 Co840 2.137 . S
O852 C843 1.247 . S
O853 Co840 2.244 . S
O853 C843 1.272 . S
O853 Co845 2.135 . S
Co854 O855 2.216 . S
Co854 O856 2.091 . S
Co854 O858 2.004 . S
Co854 O864 2.021 . S
Co854 O866 2.137 . S
Co854 O867 2.244 . S
O855 Co854 2.216 . S
O855 C862 1.247 . S
O856 Co854 2.091 . S
O856 C862 1.261 . S
C857 O866 1.247 . S
C857 O867 1.272 . S
O858 Co854 2.004 . S
O858 C863 1.259 . S
Co859 O860 2.061 . S
Co859 O865 2.052 . S
Co859 O867 2.135 . S
O860 Co859 2.061 . S
O860 C863 1.235 . S
C861 O864 1.238 . S
C861 O865 1.241 . S
C862 O855 1.247 . S
C862 O856 1.261 . S
C863 O858 1.259 . S
C863 O860 1.235 . S
O864 Co854 2.021 . S
O864 C861 1.238 . S
O865 Co859 2.052 . S
O865 C861 1.241 . S
O866 Co854 2.137 . S
O866 C857 1.247 . S
O867 Co854 2.244 . S
O867 C857 1.272 . S
O867 Co859 2.135 . S
Co868 O869 2.216 . S
Co868 O870 2.091 . S
Co868 O872 2.004 . S
Co868 O878 2.021 . S
Co868 O880 2.137 . S
Co868 O881 2.244 . S
O869 Co868 2.216 . S
O869 C876 1.247 . S
O870 Co868 2.091 . S
O870 C876 1.261 . S
C871 O880 1.247 . S
C871 O881 1.272 . S
O872 Co868 2.004 . S
O872 C877 1.259 . S
Co873 O874 2.061 . S
Co873 O879 2.052 . S
Co873 O881 2.135 . S
O874 Co873 2.061 . S
O874 C877 1.235 . S
C875 O878 1.238 . S
C875 O879 1.241 . S
C876 O869 1.247 . S
C876 O870 1.261 . S
C877 O872 1.259 . S
C877 O874 1.235 . S
O878 Co868 2.021 . S
O878 C875 1.238 . S
O879 Co873 2.052 . S
O879 C875 1.241 . S
O880 Co868 2.137 . S
O880 C871 1.247 . S
O881 Co868 2.244 . S
O881 C871 1.272 . S
O881 Co873 2.135 . S
Co882 O883 2.216 . S
Co882 O884 2.091 . S
Co882 O886 2.004 . S
Co882 O892 2.021 . S
Co882 O894 2.137 . S
Co882 O895 2.244 . S
O883 Co882 2.216 . S
O883 C890 1.247 . S
O884 Co882 2.091 . S
O884 C890 1.261 . S
C885 O894 1.247 . S
C885 O895 1.272 . S
O886 Co882 2.004 . S
O886 C891 1.259 . S
Co887 O888 2.061 . S
Co887 O893 2.052 . S
Co887 O895 2.135 . S
O888 Co887 2.061 . S
O888 C891 1.235 . S
C889 O892 1.238 . S
C889 O893 1.241 . S
C890 O883 1.247 . S
C890 O884 1.261 . S
C891 O886 1.259 . S
C891 O888 1.235 . S
O892 Co882 2.021 . S
O892 C889 1.238 . S
O893 Co887 2.052 . S
O893 C889 1.241 . S
O894 Co882 2.137 . S
O894 C885 1.247 . S
O895 Co882 2.244 . S
O895 C885 1.272 . S
O895 Co887 2.135 . S
Co896 O897 2.216 . S
Co896 O898 2.091 . S
Co896 O900 2.004 . S
Co896 O906 2.021 . S
Co896 O908 2.137 . S
Co896 O909 2.244 . S
O897 Co896 2.216 . S
O897 C904 1.247 . S
O898 Co896 2.091 . S
O898 C904 1.261 . S
C899 O908 1.247 . S
C899 O909 1.272 . S
O900 Co896 2.004 . S
O900 C905 1.259 . S
Co901 O902 2.061 . S
Co901 O907 2.052 . S
Co901 O909 2.135 . S
O902 Co901 2.061 . S
O902 C905 1.235 . S
C903 O906 1.238 . S
C903 O907 1.241 . S
C904 O897 1.247 . S
C904 O898 1.261 . S
C905 O900 1.259 . S
C905 O902 1.235 . S
O906 Co896 2.021 . S
O906 C903 1.238 . S
O907 Co901 2.052 . S
O907 C903 1.241 . S
O908 Co896 2.137 . S
O908 C899 1.247 . S
O909 Co896 2.244 . S
O909 C899 1.272 . S
O909 Co901 2.135 . S
Co910 O911 2.216 . S
Co910 O912 2.091 . S
Co910 O914 2.004 . S
Co910 O920 2.021 . S
Co910 O922 2.137 . S
Co910 O923 2.244 . S
O911 Co910 2.216 . S
O911 C918 1.247 . S
O912 Co910 2.091 . S
O912 C918 1.261 . S
C913 O922 1.247 . S
C913 O923 1.272 . S
O914 Co910 2.004 . S
O914 C919 1.259 . S
Co915 O916 2.061 . S
Co915 O921 2.052 . S
Co915 O923 2.135 . S
O916 Co915 2.061 . S
O916 C919 1.235 . S
C917 O920 1.238 . S
C917 O921 1.241 . S
C918 O911 1.247 . S
C918 O912 1.261 . S
C919 O914 1.259 . S
C919 O916 1.235 . S
O920 Co910 2.021 . S
O920 C917 1.238 . S
O921 Co915 2.052 . S
O921 C917 1.241 . S
O922 Co910 2.137 . S
O922 C913 1.247 . S
O923 Co910 2.244 . S
O923 C913 1.272 . S
O923 Co915 2.135 . S
Co924 O925 2.216 . S
Co924 O926 2.091 . S
Co924 O928 2.004 . S
Co924 O934 2.021 . S
Co924 O936 2.137 . S
Co924 O937 2.244 . S
O925 Co924 2.216 . S
O925 C932 1.247 . S
O926 Co924 2.091 . S
O926 C932 1.261 . S
C927 O936 1.247 . S
C927 O937 1.272 . S
O928 Co924 2.004 . S
O928 C933 1.259 . S
Co929 O930 2.061 . S
Co929 O935 2.052 . S
Co929 O937 2.135 . S
O930 Co929 2.061 . S
O930 C933 1.235 . S
C931 O934 1.238 . S
C931 O935 1.241 . S
C932 O925 1.247 . S
C932 O926 1.261 . S
C933 O928 1.259 . S
C933 O930 1.235 . S
O934 Co924 2.021 . S
O934 C931 1.238 . S
O935 Co929 2.052 . S
O935 C931 1.241 . S
O936 Co924 2.137 . S
O936 C927 1.247 . S
O937 Co924 2.244 . S
O937 C927 1.272 . S
O937 Co929 2.135 . S
Co938 O939 2.216 1_556 S
Co938 O940 2.091 1_556 S
Co938 O942 2.004 . S
Co938 O948 2.021 1_556 S
Co938 O950 2.137 . S
Co938 O951 2.244 . S
O939 Co938 2.216 1_554 S
O939 C946 1.247 . S
O940 Co938 2.091 1_554 S
O940 C946 1.261 . S
C941 O950 1.247 . S
C941 O951 1.272 . S
O942 Co938 2.004 . S
O942 C947 1.259 . S
Co943 O944 2.061 . S
Co943 O949 2.052 1_556 S
Co943 O951 2.135 . S
O944 Co943 2.061 . S
O944 C947 1.235 . S
C945 O948 1.238 . S
C945 O949 1.241 . S
C946 O939 1.247 . S
C946 O940 1.261 . S
C947 O942 1.259 . S
C947 O944 1.235 . S
O948 Co938 2.021 1_554 S
O948 C945 1.238 . S
O949 Co943 2.052 1_554 S
O949 C945 1.241 . S
O950 Co938 2.137 . S
O950 C941 1.247 . S
O951 Co938 2.244 . S
O951 C941 1.272 . S
O951 Co943 2.135 . S
Co952 O953 2.216 . S
Co952 O954 2.091 . S
Co952 O956 2.004 . S
Co952 O962 2.021 . S
Co952 O964 2.137 . S
Co952 O965 2.244 . S
O953 Co952 2.216 . S
O953 C960 1.247 . S
O954 Co952 2.091 . S
O954 C960 1.261 . S
C955 O964 1.247 . S
C955 O965 1.272 . S
O956 Co952 2.004 . S
O956 C961 1.259 . S
Co957 O958 2.061 . S
Co957 O963 2.052 . S
Co957 O965 2.135 . S
O958 Co957 2.061 . S
O958 C961 1.235 . S
C959 O962 1.238 . S
C959 O963 1.241 . S
C960 O953 1.247 . S
C960 O954 1.261 . S
C961 O956 1.259 . S
C961 O958 1.235 . S
O962 Co952 2.021 . S
O962 C959 1.238 . S
O963 Co957 2.052 . S
O963 C959 1.241 . S
O964 Co952 2.137 . S
O964 C955 1.247 . S
O965 Co952 2.244 . S
O965 C955 1.272 . S
O965 Co957 2.135 . S
Co966 O967 2.216 1_554 S
Co966 O968 2.091 1_554 S
Co966 O970 2.004 . S
Co966 O976 2.021 1_554 S
Co966 O978 2.137 . S
Co966 O979 2.244 . S
O967 Co966 2.216 1_556 S
O967 C974 1.247 . S
O968 Co966 2.091 1_556 S
O968 C974 1.261 . S
C969 O978 1.247 . S
C969 O979 1.272 . S
O970 Co966 2.004 . S
O970 C975 1.259 . S
Co971 O972 2.061 . S
Co971 O977 2.052 1_554 S
Co971 O979 2.135 . S
O972 Co971 2.061 . S
O972 C975 1.235 . S
C973 O976 1.238 . S
C973 O977 1.241 . S
C974 O967 1.247 . S
C974 O968 1.261 . S
C975 O970 1.259 . S
C975 O972 1.235 . S
O976 Co966 2.021 1_556 S
O976 C973 1.238 . S
O977 Co971 2.052 1_556 S
O977 C973 1.241 . S
O978 Co966 2.137 . S
O978 C969 1.247 . S
O979 Co966 2.244 . S
O979 C969 1.272 . S
O979 Co971 2.135 . S
Co980 O981 2.216 . S
Co980 O982 2.091 . S
Co980 O984 2.004 . S
Co980 O990 2.021 . S
Co980 O992 2.137 . S
Co980 O993 2.244 . S
O981 Co980 2.216 . S
O981 C988 1.247 . S
O982 Co980 2.091 . S
O982 C988 1.261 . S
C983 O992 1.247 . S
C983 O993 1.272 . S
O984 Co980 2.004 . S
O984 C989 1.259 . S
Co985 O986 2.061 . S
Co985 O991 2.052 . S
Co985 O993 2.135 . S
O986 Co985 2.061 . S
O986 C989 1.235 . S
C987 O990 1.238 . S
C987 O991 1.241 . S
C988 O981 1.247 . S
C988 O982 1.261 . S
C989 O984 1.259 . S
C989 O986 1.235 . S
O990 Co980 2.021 . S
O990 C987 1.238 . S
O991 Co985 2.052 . S
O991 C987 1.241 . S
O992 Co980 2.137 . S
O992 C983 1.247 . S
O993 Co980 2.244 . S
O993 C983 1.272 . S
O993 Co985 2.135 . S
Co994 O995 2.216 . S
Co994 O996 2.091 . S
Co994 O998 2.004 . S
Co994 O1004 2.021 . S
Co994 O1006 2.137 . S
Co994 O1007 2.244 . S
O995 Co994 2.216 . S
O995 C1002 1.247 . S
O996 Co994 2.091 . S
O996 C1002 1.261 . S
C997 O1006 1.247 . S
C997 O1007 1.272 . S
O998 Co994 2.004 . S
O998 C1003 1.259 . S
Co999 O1000 2.061 . S
Co999 O1005 2.052 . S
Co999 O1007 2.135 . S
O1000 Co999 2.061 . S
O1000 C1003 1.235 . S
C1001 O1004 1.238 . S
C1001 O1005 1.241 . S
C1002 O995 1.247 . S
C1002 O996 1.261 . S
C1003 O998 1.259 . S
C1003 O1000 1.235 . S
O1004 Co994 2.021 . S
O1004 C1001 1.238 . S
O1005 Co999 2.052 . S
O1005 C1001 1.241 . S
O1006 Co994 2.137 . S
O1006 C997 1.247 . S
O1007 Co994 2.244 . S
O1007 C997 1.272 . S
O1007 Co999 2.135 . S
Co1008 O1009 2.216 . S
Co1008 O1010 2.091 . S
Co1008 O1012 2.004 . S
Co1008 O1018 2.021 . S
Co1008 O1020 2.137 . S
Co1008 O1021 2.244 . S
O1009 Co1008 2.216 . S
O1009 C1016 1.247 . S
O1010 Co1008 2.091 . S
O1010 C1016 1.261 . S
C1011 O1020 1.247 . S
C1011 O1021 1.272 . S
O1012 Co1008 2.004 . S
O1012 C1017 1.259 . S
Co1013 O1014 2.061 . S
Co1013 O1019 2.052 . S
Co1013 O1021 2.135 . S
O1014 Co1013 2.061 . S
O1014 C1017 1.235 . S
C1015 O1018 1.238 . S
C1015 O1019 1.241 . S
C1016 O1009 1.247 . S
C1016 O1010 1.261 . S
C1017 O1012 1.259 . S
C1017 O1014 1.235 . S
O1018 Co1008 2.021 . S
O1018 C1015 1.238 . S
O1019 Co1013 2.052 . S
O1019 C1015 1.241 . S
O1020 Co1008 2.137 . S
O1020 C1011 1.247 . S
O1021 Co1008 2.244 . S
O1021 C1011 1.272 . S
O1021 Co1013 2.135 . S
Co1022 O1023 2.216 . S
Co1022 O1024 2.091 . S
Co1022 O1026 2.004 . S
Co1022 O1032 2.021 . S
Co1022 O1034 2.137 . S
Co1022 O1035 2.244 . S
O1023 Co1022 2.216 . S
O1023 C1030 1.247 . S
O1024 Co1022 2.091 . S
O1024 C1030 1.261 . S
C1025 O1034 1.247 . S
C1025 O1035 1.272 . S
O1026 Co1022 2.004 . S
O1026 C1031 1.259 . S
Co1027 O1028 2.061 . S
Co1027 O1033 2.052 . S
Co1027 O1035 2.135 . S
O1028 Co1027 2.061 . S
O1028 C1031 1.235 . S
C1029 O1032 1.238 . S
C1029 O1033 1.241 . S
C1030 O1023 1.247 . S
C1030 O1024 1.261 . S
C1031 O1026 1.259 . S
C1031 O1028 1.235 . S
O1032 Co1022 2.021 . S
O1032 C1029 1.238 . S
O1033 Co1027 2.052 . S
O1033 C1029 1.241 . S
O1034 Co1022 2.137 . S
O1034 C1025 1.247 . S
O1035 Co1022 2.244 . S
O1035 C1025 1.272 . S
O1035 Co1027 2.135 . S
Co1036 O1037 2.216 1_455 S
Co1036 O1038 2.091 1_455 S
Co1036 O1040 2.004 . S
Co1036 O1046 2.021 1_455 S
Co1036 O1048 2.137 . S
Co1036 O1049 2.244 . S
O1037 Co1036 2.216 1_655 S
O1037 C1044 1.247 . S
O1038 Co1036 2.091 1_655 S
O1038 C1044 1.261 . S
C1039 O1048 1.247 . S
C1039 O1049 1.272 . S
O1040 Co1036 2.004 . S
O1040 C1045 1.259 . S
Co1041 O1042 2.061 . S
Co1041 O1047 2.052 1_455 S
Co1041 O1049 2.135 . S
O1042 Co1041 2.061 . S
O1042 C1045 1.235 . S
C1043 O1046 1.238 . S
C1043 O1047 1.241 . S
C1044 O1037 1.247 . S
C1044 O1038 1.261 . S
C1045 O1040 1.259 . S
C1045 O1042 1.235 . S
O1046 Co1036 2.021 1_655 S
O1046 C1043 1.238 . S
O1047 Co1041 2.052 1_655 S
O1047 C1043 1.241 . S
O1048 Co1036 2.137 . S
O1048 C1039 1.247 . S
O1049 Co1036 2.244 . S
O1049 C1039 1.272 . S
O1049 Co1041 2.135 . S
Co1050 O1051 2.216 . S
Co1050 O1052 2.091 . S
Co1050 O1054 2.004 . S
Co1050 O1060 2.021 . S
Co1050 O1062 2.137 . S
Co1050 O1063 2.244 . S
O1051 Co1050 2.216 . S
O1051 C1058 1.247 . S
O1052 Co1050 2.091 . S
O1052 C1058 1.261 . S
C1053 O1062 1.247 . S
C1053 O1063 1.272 . S
O1054 Co1050 2.004 . S
O1054 C1059 1.259 . S
Co1055 O1056 2.061 . S
Co1055 O1061 2.052 . S
Co1055 O1063 2.135 . S
O1056 Co1055 2.061 . S
O1056 C1059 1.235 . S
C1057 O1060 1.238 . S
C1057 O1061 1.241 . S
C1058 O1051 1.247 . S
C1058 O1052 1.261 . S
C1059 O1054 1.259 . S
C1059 O1056 1.235 . S
O1060 Co1050 2.021 . S
O1060 C1057 1.238 . S
O1061 Co1055 2.052 . S
O1061 C1057 1.241 . S
O1062 Co1050 2.137 . S
O1062 C1053 1.247 . S
O1063 Co1050 2.244 . S
O1063 C1053 1.272 . S
O1063 Co1055 2.135 . S
Co1064 O1065 2.216 . S
Co1064 O1066 2.091 . S
Co1064 O1068 2.004 . S
Co1064 O1074 2.021 . S
Co1064 O1076 2.137 . S
Co1064 O1077 2.244 . S
O1065 Co1064 2.216 . S
O1065 C1072 1.247 . S
O1066 Co1064 2.091 . S
O1066 C1072 1.261 . S
C1067 O1076 1.247 . S
C1067 O1077 1.272 . S
O1068 Co1064 2.004 . S
O1068 C1073 1.259 . S
Co1069 O1070 2.061 . S
Co1069 O1075 2.052 . S
Co1069 O1077 2.135 . S
O1070 Co1069 2.061 . S
O1070 C1073 1.235 . S
C1071 O1074 1.238 . S
C1071 O1075 1.241 . S
C1072 O1065 1.247 . S
C1072 O1066 1.261 . S
C1073 O1068 1.259 . S
C1073 O1070 1.235 . S
O1074 Co1064 2.021 . S
O1074 C1071 1.238 . S
O1075 Co1069 2.052 . S
O1075 C1071 1.241 . S
O1076 Co1064 2.137 . S
O1076 C1067 1.247 . S
O1077 Co1064 2.244 . S
O1077 C1067 1.272 . S
O1077 Co1069 2.135 . S
Co1078 O1079 2.216 . S
Co1078 O1080 2.091 . S
Co1078 O1082 2.004 . S
Co1078 O1088 2.021 . S
Co1078 O1090 2.137 . S
Co1078 O1091 2.244 . S
O1079 Co1078 2.216 . S
O1079 C1086 1.247 . S
O1080 Co1078 2.091 . S
O1080 C1086 1.261 . S
C1081 O1090 1.247 . S
C1081 O1091 1.272 . S
O1082 Co1078 2.004 . S
O1082 C1087 1.259 . S
Co1083 O1084 2.061 . S
Co1083 O1089 2.052 . S
Co1083 O1091 2.135 . S
O1084 Co1083 2.061 . S
O1084 C1087 1.235 . S
C1085 O1088 1.238 . S
C1085 O1089 1.241 . S
C1086 O1079 1.247 . S
C1086 O1080 1.261 . S
C1087 O1082 1.259 . S
C1087 O1084 1.235 . S
O1088 Co1078 2.021 . S
O1088 C1085 1.238 . S
O1089 Co1083 2.052 . S
O1089 C1085 1.241 . S
O1090 Co1078 2.137 . S
O1090 C1081 1.247 . S
O1091 Co1078 2.244 . S
O1091 C1081 1.272 . S
O1091 Co1083 2.135 . S
Co1092 O1093 2.216 1_455 S
Co1092 O1094 2.091 1_455 S
Co1092 O1096 2.004 . S
Co1092 O1102 2.021 1_455 S
Co1092 O1104 2.137 . S
Co1092 O1105 2.244 . S
O1093 Co1092 2.216 1_655 S
O1093 C1100 1.247 . S
O1094 Co1092 2.091 1_655 S
O1094 C1100 1.261 . S
C1095 O1104 1.247 . S
C1095 O1105 1.272 . S
O1096 Co1092 2.004 . S
O1096 C1101 1.259 . S
Co1097 O1098 2.061 . S
Co1097 O1103 2.052 1_455 S
Co1097 O1105 2.135 . S
O1098 Co1097 2.061 . S
O1098 C1101 1.235 . S
C1099 O1102 1.238 . S
C1099 O1103 1.241 . S
C1100 O1093 1.247 . S
C1100 O1094 1.261 . S
C1101 O1096 1.259 . S
C1101 O1098 1.235 . S
O1102 Co1092 2.021 1_655 S
O1102 C1099 1.238 . S
O1103 Co1097 2.052 1_655 S
O1103 C1099 1.241 . S
O1104 Co1092 2.137 . S
O1104 C1095 1.247 . S
O1105 Co1092 2.244 . S
O1105 C1095 1.272 . S
O1105 Co1097 2.135 . S
Co1106 O1107 2.216 . S
Co1106 O1108 2.091 . S
Co1106 O1110 2.004 . S
Co1106 O1116 2.021 . S
Co1106 O1118 2.137 . S
Co1106 O1119 2.244 . S
O1107 Co1106 2.216 . S
O1107 C1114 1.247 . S
O1108 Co1106 2.091 . S
O1108 C1114 1.261 . S
C1109 O1118 1.247 . S
C1109 O1119 1.272 . S
O1110 Co1106 2.004 . S
O1110 C1115 1.259 . S
Co1111 O1112 2.061 . S
Co1111 O1117 2.052 . S
Co1111 O1119 2.135 . S
O1112 Co1111 2.061 . S
O1112 C1115 1.235 . S
C1113 O1116 1.238 . S
C1113 O1117 1.241 . S
C1114 O1107 1.247 . S
C1114 O1108 1.261 . S
C1115 O1110 1.259 . S
C1115 O1112 1.235 . S
O1116 Co1106 2.021 . S
O1116 C1113 1.238 . S
O1117 Co1111 2.052 . S
O1117 C1113 1.241 . S
O1118 Co1106 2.137 . S
O1118 C1109 1.247 . S
O1119 Co1106 2.244 . S
O1119 C1109 1.272 . S
O1119 Co1111 2.135 . S
Co1120 O1121 2.216 . S
Co1120 O1122 2.091 . S
Co1120 O1124 2.004 . S
Co1120 O1130 2.021 . S
Co1120 O1132 2.137 . S
Co1120 O1133 2.244 . S
O1121 Co1120 2.216 . S
O1121 C1128 1.247 . S
O1122 Co1120 2.091 . S
O1122 C1128 1.261 . S
C1123 O1132 1.247 . S
C1123 O1133 1.272 . S
O1124 Co1120 2.004 . S
O1124 C1129 1.259 . S
Co1125 O1126 2.061 . S
Co1125 O1131 2.052 . S
Co1125 O1133 2.135 . S
O1126 Co1125 2.061 . S
O1126 C1129 1.235 . S
C1127 O1130 1.238 . S
C1127 O1131 1.241 . S
C1128 O1121 1.247 . S
C1128 O1122 1.261 . S
C1129 O1124 1.259 . S
C1129 O1126 1.235 . S
O1130 Co1120 2.021 . S
O1130 C1127 1.238 . S
O1131 Co1125 2.052 . S
O1131 C1127 1.241 . S
O1132 Co1120 2.137 . S
O1132 C1123 1.247 . S
O1133 Co1120 2.244 . S
O1133 C1123 1.272 . S
O1133 Co1125 2.135 . S
Co1134 O1135 2.216 . S
Co1134 O1136 2.091 . S
Co1134 O1138 2.004 . S
Co1134 O1144 2.021 . S
Co1134 O1146 2.137 . S
Co1134 O1147 2.244 . S
O1135 Co1134 2.216 . S
O1135 C1142 1.247 . S
O1136 Co1134 2.091 . S
O1136 C1142 1.261 . S
C1137 O1146 1.247 . S
C1137 O1147 1.272 . S
O1138 Co1134 2.004 . S
O1138 C1143 1.259 . S
Co1139 O1140 2.061 . S
Co1139 O1145 2.052 . S
Co1139 O1147 2.135 . S
O1140 Co1139 2.061 . S
O1140 C1143 1.235 . S
C1141 O1144 1.238 . S
C1141 O1145 1.241 . S
C1142 O1135 1.247 . S
C1142 O1136 1.261 . S
C1143 O1138 1.259 . S
C1143 O1140 1.235 . S
O1144 Co1134 2.021 . S
O1144 C1141 1.238 . S
O1145 Co1139 2.052 . S
O1145 C1141 1.241 . S
O1146 Co1134 2.137 . S
O1146 C1137 1.247 . S
O1147 Co1134 2.244 . S
O1147 C1137 1.272 . S
O1147 Co1139 2.135 . S
Co1148 O1149 2.216 . S
Co1148 O1150 2.091 . S
Co1148 O1152 2.004 . S
Co1148 O1158 2.021 . S
Co1148 O1160 2.137 . S
Co1148 O1161 2.244 . S
O1149 Co1148 2.216 . S
O1149 C1156 1.247 . S
O1150 Co1148 2.091 . S
O1150 C1156 1.261 . S
C1151 O1160 1.247 . S
C1151 O1161 1.272 . S
O1152 Co1148 2.004 . S
O1152 C1157 1.259 . S
Co1153 O1154 2.061 . S
Co1153 O1159 2.052 . S
Co1153 O1161 2.135 . S
O1154 Co1153 2.061 . S
O1154 C1157 1.235 . S
C1155 O1158 1.238 . S
C1155 O1159 1.241 . S
C1156 O1149 1.247 . S
C1156 O1150 1.261 . S
C1157 O1152 1.259 . S
C1157 O1154 1.235 . S
O1158 Co1148 2.021 . S
O1158 C1155 1.238 . S
O1159 Co1153 2.052 . S
O1159 C1155 1.241 . S
O1160 Co1148 2.137 . S
O1160 C1151 1.247 . S
O1161 Co1148 2.244 . S
O1161 C1151 1.272 . S
O1161 Co1153 2.135 . S
Co1162 O1163 2.216 . S
Co1162 O1164 2.091 . S
Co1162 O1166 2.004 . S
Co1162 O1172 2.021 . S
Co1162 O1174 2.137 . S
Co1162 O1175 2.244 . S
O1163 Co1162 2.216 . S
O1163 C1170 1.247 . S
O1164 Co1162 2.091 . S
O1164 C1170 1.261 . S
C1165 O1174 1.247 . S
C1165 O1175 1.272 . S
O1166 Co1162 2.004 . S
O1166 C1171 1.259 . S
Co1167 O1168 2.061 . S
Co1167 O1173 2.052 . S
Co1167 O1175 2.135 . S
O1168 Co1167 2.061 . S
O1168 C1171 1.235 . S
C1169 O1172 1.238 . S
C1169 O1173 1.241 . S
C1170 O1163 1.247 . S
C1170 O1164 1.261 . S
C1171 O1166 1.259 . S
C1171 O1168 1.235 . S
O1172 Co1162 2.021 . S
O1172 C1169 1.238 . S
O1173 Co1167 2.052 . S
O1173 C1169 1.241 . S
O1174 Co1162 2.137 . S
O1174 C1165 1.247 . S
O1175 Co1162 2.244 . S
O1175 C1165 1.272 . S
O1175 Co1167 2.135 . S
Co1176 O1177 2.216 . S
Co1176 O1178 2.091 . S
Co1176 O1180 2.004 . S
Co1176 O1186 2.021 . S
Co1176 O1188 2.137 . S
Co1176 O1189 2.244 . S
O1177 Co1176 2.216 . S
O1177 C1184 1.247 . S
O1178 Co1176 2.091 . S
O1178 C1184 1.261 . S
C1179 O1188 1.247 . S
C1179 O1189 1.272 . S
O1180 Co1176 2.004 . S
O1180 C1185 1.259 . S
Co1181 O1182 2.061 . S
Co1181 O1187 2.052 . S
Co1181 O1189 2.135 . S
O1182 Co1181 2.061 . S
O1182 C1185 1.235 . S
C1183 O1186 1.238 . S
C1183 O1187 1.241 . S
C1184 O1177 1.247 . S
C1184 O1178 1.261 . S
C1185 O1180 1.259 . S
C1185 O1182 1.235 . S
O1186 Co1176 2.021 . S
O1186 C1183 1.238 . S
O1187 Co1181 2.052 . S
O1187 C1183 1.241 . S
O1188 Co1176 2.137 . S
O1188 C1179 1.247 . S
O1189 Co1176 2.244 . S
O1189 C1179 1.272 . S
O1189 Co1181 2.135 . S
Co1190 O1191 2.216 . S
Co1190 O1192 2.091 . S
Co1190 O1194 2.004 . S
Co1190 O1200 2.021 . S
Co1190 O1202 2.137 . S
Co1190 O1203 2.244 . S
O1191 Co1190 2.216 . S
O1191 C1198 1.247 . S
O1192 Co1190 2.091 . S
O1192 C1198 1.261 . S
C1193 O1202 1.247 . S
C1193 O1203 1.272 . S
O1194 Co1190 2.004 . S
O1194 C1199 1.259 . S
Co1195 O1196 2.061 . S
Co1195 O1201 2.052 . S
Co1195 O1203 2.135 . S
O1196 Co1195 2.061 . S
O1196 C1199 1.235 . S
C1197 O1200 1.238 . S
C1197 O1201 1.241 . S
C1198 O1191 1.247 . S
C1198 O1192 1.261 . S
C1199 O1194 1.259 . S
C1199 O1196 1.235 . S
O1200 Co1190 2.021 . S
O1200 C1197 1.238 . S
O1201 Co1195 2.052 . S
O1201 C1197 1.241 . S
O1202 Co1190 2.137 . S
O1202 C1193 1.247 . S
O1203 Co1190 2.244 . S
O1203 C1193 1.272 . S
O1203 Co1195 2.135 . S
Co1204 O1205 2.216 . S
Co1204 O1206 2.091 . S
Co1204 O1208 2.004 . S
Co1204 O1214 2.021 . S
Co1204 O1216 2.137 . S
Co1204 O1217 2.244 . S
O1205 Co1204 2.216 . S
O1205 C1212 1.247 . S
O1206 Co1204 2.091 . S
O1206 C1212 1.261 . S
C1207 O1216 1.247 . S
C1207 O1217 1.272 . S
O1208 Co1204 2.004 . S
O1208 C1213 1.259 . S
Co1209 O1210 2.061 . S
Co1209 O1215 2.052 . S
Co1209 O1217 2.135 . S
O1210 Co1209 2.061 . S
O1210 C1213 1.235 . S
C1211 O1214 1.238 . S
C1211 O1215 1.241 . S
C1212 O1205 1.247 . S
C1212 O1206 1.261 . S
C1213 O1208 1.259 . S
C1213 O1210 1.235 . S
O1214 Co1204 2.021 . S
O1214 C1211 1.238 . S
O1215 Co1209 2.052 . S
O1215 C1211 1.241 . S
O1216 Co1204 2.137 . S
O1216 C1207 1.247 . S
O1217 Co1204 2.244 . S
O1217 C1207 1.272 . S
O1217 Co1209 2.135 . S
Co1218 O1219 2.216 . S
Co1218 O1220 2.091 . S
Co1218 O1222 2.004 . S
Co1218 O1228 2.021 . S
Co1218 O1230 2.137 . S
Co1218 O1231 2.244 . S
O1219 Co1218 2.216 . S
O1219 C1226 1.247 . S
O1220 Co1218 2.091 . S
O1220 C1226 1.261 . S
C1221 O1230 1.247 . S
C1221 O1231 1.272 . S
O1222 Co1218 2.004 . S
O1222 C1227 1.259 . S
Co1223 O1224 2.061 . S
Co1223 O1229 2.052 . S
Co1223 O1231 2.135 . S
O1224 Co1223 2.061 . S
O1224 C1227 1.235 . S
C1225 O1228 1.238 . S
C1225 O1229 1.241 . S
C1226 O1219 1.247 . S
C1226 O1220 1.261 . S
C1227 O1222 1.259 . S
C1227 O1224 1.235 . S
O1228 Co1218 2.021 . S
O1228 C1225 1.238 . S
O1229 Co1223 2.052 . S
O1229 C1225 1.241 . S
O1230 Co1218 2.137 . S
O1230 C1221 1.247 . S
O1231 Co1218 2.244 . S
O1231 C1221 1.272 . S
O1231 Co1223 2.135 . S
Co1232 O1233 2.216 . S
Co1232 O1234 2.091 . S
Co1232 O1236 2.004 . S
Co1232 O1242 2.021 . S
Co1232 O1244 2.137 . S
Co1232 O1245 2.244 . S
O1233 Co1232 2.216 . S
O1233 C1240 1.247 . S
O1234 Co1232 2.091 . S
O1234 C1240 1.261 . S
C1235 O1244 1.247 . S
C1235 O1245 1.272 . S
O1236 Co1232 2.004 . S
O1236 C1241 1.259 . S
Co1237 O1238 2.061 . S
Co1237 O1243 2.052 . S
Co1237 O1245 2.135 . S
O1238 Co1237 2.061 . S
O1238 C1241 1.235 . S
C1239 O1242 1.238 . S
C1239 O1243 1.241 . S
C1240 O1233 1.247 . S
C1240 O1234 1.261 . S
C1241 O1236 1.259 . S
C1241 O1238 1.235 . S
O1242 Co1232 2.021 . S
O1242 C1239 1.238 . S
O1243 Co1237 2.052 . S
O1243 C1239 1.241 . S
O1244 Co1232 2.137 . S
O1244 C1235 1.247 . S
O1245 Co1232 2.244 . S
O1245 C1235 1.272 . S
O1245 Co1237 2.135 . S
Co1246 O1247 2.216 . S
Co1246 O1248 2.091 . S
Co1246 O1250 2.004 . S
Co1246 O1256 2.021 . S
Co1246 O1258 2.137 . S
Co1246 O1259 2.244 . S
O1247 Co1246 2.216 . S
O1247 C1254 1.247 . S
O1248 Co1246 2.091 . S
O1248 C1254 1.261 . S
C1249 O1258 1.247 . S
C1249 O1259 1.272 . S
O1250 Co1246 2.004 . S
O1250 C1255 1.259 . S
Co1251 O1252 2.061 . S
Co1251 O1257 2.052 . S
Co1251 O1259 2.135 . S
O1252 Co1251 2.061 . S
O1252 C1255 1.235 . S
C1253 O1256 1.238 . S
C1253 O1257 1.241 . S
C1254 O1247 1.247 . S
C1254 O1248 1.261 . S
C1255 O1250 1.259 . S
C1255 O1252 1.235 . S
O1256 Co1246 2.021 . S
O1256 C1253 1.238 . S
O1257 Co1251 2.052 . S
O1257 C1253 1.241 . S
O1258 Co1246 2.137 . S
O1258 C1249 1.247 . S
O1259 Co1246 2.244 . S
O1259 C1249 1.272 . S
O1259 Co1251 2.135 . S
Co1260 O1261 2.216 . S
Co1260 O1262 2.091 . S
Co1260 O1264 2.004 . S
Co1260 O1270 2.021 . S
Co1260 O1272 2.137 . S
Co1260 O1273 2.244 . S
O1261 Co1260 2.216 . S
O1261 C1268 1.247 . S
O1262 Co1260 2.091 . S
O1262 C1268 1.261 . S
C1263 O1272 1.247 . S
C1263 O1273 1.272 . S
O1264 Co1260 2.004 . S
O1264 C1269 1.259 . S
Co1265 O1266 2.061 . S
Co1265 O1271 2.052 . S
Co1265 O1273 2.135 . S
O1266 Co1265 2.061 . S
O1266 C1269 1.235 . S
C1267 O1270 1.238 . S
C1267 O1271 1.241 . S
C1268 O1261 1.247 . S
C1268 O1262 1.261 . S
C1269 O1264 1.259 . S
C1269 O1266 1.235 . S
O1270 Co1260 2.021 . S
O1270 C1267 1.238 . S
O1271 Co1265 2.052 . S
O1271 C1267 1.241 . S
O1272 Co1260 2.137 . S
O1272 C1263 1.247 . S
O1273 Co1260 2.244 . S
O1273 C1263 1.272 . S
O1273 Co1265 2.135 . S
Co1274 O1275 2.216 1_554 S
Co1274 O1276 2.086 1_554 S
Co1274 O1278 2.004 . S
Co1274 O1284 2.021 1_554 S
Co1274 O1286 2.137 . S
Co1274 O1287 2.244 . S
O1275 Co1274 2.216 1_556 S
O1275 C1282 1.247 . S
O1276 Co1274 2.086 1_556 S
O1276 C1282 1.275 . S
C1277 O1286 1.247 . S
C1277 O1287 1.272 . S
O1278 Co1274 2.004 . S
O1278 C1283 1.259 . S
Co1279 O1280 2.061 . S
Co1279 O1285 2.052 1_554 S
Co1279 O1287 2.135 . S
O1280 Co1279 2.061 . S
O1280 C1283 1.235 . S
C1281 O1284 1.238 . S
C1281 O1285 1.241 . S
C1282 O1275 1.247 . S
C1282 O1276 1.275 . S
C1283 O1278 1.259 . S
C1283 O1280 1.235 . S
O1284 Co1274 2.021 1_556 S
O1284 C1281 1.238 . S
O1285 Co1279 2.052 1_556 S
O1285 C1281 1.241 . S
O1286 Co1274 2.137 . S
O1286 C1277 1.247 . S
O1287 Co1274 2.244 . S
O1287 C1277 1.272 . S
O1287 Co1279 2.135 . S
Co1288 O1289 2.216 . S
Co1288 O1290 2.091 . S
Co1288 O1292 2.004 . S
Co1288 O1298 2.021 . S
Co1288 O1300 2.137 . S
Co1288 O1301 2.244 . S
O1289 Co1288 2.216 . S
O1289 C1296 1.247 . S
O1290 Co1288 2.091 . S
O1290 C1296 1.261 . S
C1291 O1300 1.247 . S
C1291 O1301 1.272 . S
O1292 Co1288 2.004 . S
O1292 C1297 1.259 . S
Co1293 O1294 2.061 . S
Co1293 O1299 2.052 . S
Co1293 O1301 2.135 . S
O1294 Co1293 2.061 . S
O1294 C1297 1.235 . S
C1295 O1298 1.238 . S
C1295 O1299 1.241 . S
C1296 O1289 1.247 . S
C1296 O1290 1.261 . S
C1297 O1292 1.259 . S
C1297 O1294 1.235 . S
O1298 Co1288 2.021 . S
O1298 C1295 1.238 . S
O1299 Co1293 2.052 . S
O1299 C1295 1.241 . S
O1300 Co1288 2.137 . S
O1300 C1291 1.247 . S
O1301 Co1288 2.244 . S
O1301 C1291 1.272 . S
O1301 Co1293 2.135 . S
Co1302 O1303 2.216 1_556 S
Co1302 O1304 2.090 1_556 S
Co1302 O1306 2.004 . S
Co1302 O1312 2.021 1_556 S
Co1302 O1314 2.137 . S
Co1302 O1315 2.244 . S
O1303 Co1302 2.216 1_554 S
O1303 C1310 1.247 . S
O1304 Co1302 2.090 1_554 S
O1304 C1310 1.265 . S
C1305 O1314 1.247 . S
C1305 O1315 1.272 . S
O1306 Co1302 2.004 . S
O1306 C1311 1.259 . S
Co1307 O1308 2.061 . S
Co1307 O1313 2.052 1_556 S
Co1307 O1315 2.135 . S
O1308 Co1307 2.061 . S
O1308 C1311 1.235 . S
C1309 O1312 1.238 . S
C1309 O1313 1.241 . S
C1310 O1303 1.247 . S
C1310 O1304 1.265 . S
C1311 O1306 1.259 . S
C1311 O1308 1.235 . S
O1312 Co1302 2.021 1_554 S
O1312 C1309 1.238 . S
O1313 Co1307 2.052 1_554 S
O1313 C1309 1.241 . S
O1314 Co1302 2.137 . S
O1314 C1305 1.247 . S
O1315 Co1302 2.244 . S
O1315 C1305 1.272 . S
O1315 Co1307 2.135 . S
Co1316 O1317 2.216 . S
Co1316 O1318 2.091 . S
Co1316 O1320 2.004 . S
Co1316 O1326 2.021 . S
Co1316 O1328 2.137 . S
Co1316 O1329 2.244 . S
O1317 Co1316 2.216 . S
O1317 C1324 1.247 . S
O1318 Co1316 2.091 . S
O1318 C1324 1.261 . S
C1319 O1328 1.247 . S
C1319 O1329 1.272 . S
O1320 Co1316 2.004 . S
O1320 C1325 1.259 . S
Co1321 O1322 2.061 . S
Co1321 O1327 2.052 . S
Co1321 O1329 2.135 . S
O1322 Co1321 2.061 . S
O1322 C1325 1.235 . S
C1323 O1326 1.238 . S
C1323 O1327 1.241 . S
C1324 O1317 1.247 . S
C1324 O1318 1.261 . S
C1325 O1320 1.259 . S
C1325 O1322 1.235 . S
O1326 Co1316 2.021 . S
O1326 C1323 1.238 . S
O1327 Co1321 2.052 . S
O1327 C1323 1.241 . S
O1328 Co1316 2.137 . S
O1328 C1319 1.247 . S
O1329 Co1316 2.244 . S
O1329 C1319 1.272 . S
O1329 Co1321 2.135 . S
Co1330 O1331 2.216 . S
Co1330 O1332 2.091 . S
Co1330 O1334 2.004 . S
Co1330 O1340 2.021 . S
Co1330 O1342 2.137 . S
Co1330 O1343 2.244 . S
O1331 Co1330 2.216 . S
O1331 C1338 1.247 . S
O1332 Co1330 2.091 . S
O1332 C1338 1.261 . S
C1333 O1342 1.247 . S
C1333 O1343 1.272 . S
O1334 Co1330 2.004 . S
O1334 C1339 1.259 . S
Co1335 O1336 2.061 . S
Co1335 O1341 2.052 . S
Co1335 O1343 2.135 . S
O1336 Co1335 2.061 . S
O1336 C1339 1.235 . S
C1337 O1340 1.238 . S
C1337 O1341 1.241 . S
C1338 O1331 1.247 . S
C1338 O1332 1.261 . S
C1339 O1334 1.259 . S
C1339 O1336 1.235 . S
O1340 Co1330 2.021 . S
O1340 C1337 1.238 . S
O1341 Co1335 2.052 . S
O1341 C1337 1.241 . S
O1342 Co1330 2.137 . S
O1342 C1333 1.247 . S
O1343 Co1330 2.244 . S
O1343 C1333 1.272 . S
O1343 Co1335 2.135 . S
H1344 C1352 0.950 . S
H1345 C1357 0.950 . S
H1346 C1354 0.950 . S
H1347 C1356 0.950 . S
H1348 C1358 0.950 . S
H1349 C1360 0.950 . S
H1350 C1362 0.950 . S
H1351 C1363 0.950 . S
C1352 H1344 0.950 . S
C1352 C1353 1.386 . S
C1352 C1354 1.391 . S
C1353 C1352 1.386 . S
C1353 C1357 1.393 . S
C1354 H1346 0.950 . S
C1354 C1352 1.391 . S
C1354 C1355 1.400 . S
C1355 C1354 1.400 . S
C1355 C1356 1.398 . S
C1355 C1361 1.491 . S
C1356 H1347 0.950 . S
C1356 C1355 1.398 . S
C1356 C1357 1.391 . S
C1357 H1345 0.950 . S
C1357 C1353 1.393 . S
C1357 C1356 1.391 . S
C1358 H1348 0.950 . S
C1358 C1359 1.386 . S
C1358 C1360 1.391 . S
C1359 C1358 1.386 . S
C1359 C1363 1.393 . S
C1360 H1349 0.950 . S
C1360 C1358 1.391 . S
C1360 C1361 1.400 . S
C1361 C1355 1.491 . S
C1361 C1360 1.400 . S
C1361 C1362 1.398 . S
C1362 H1350 0.950 . S
C1362 C1361 1.398 . S
C1362 C1363 1.391 . S
C1363 H1351 0.950 . S
C1363 C1359 1.393 . S
C1363 C1362 1.391 . S
H1364 C1372 0.950 . S
H1365 C1377 0.950 . S
H1366 C1374 0.950 . S
H1367 C1376 0.950 . S
H1368 C1378 0.950 . S
H1369 C1380 0.950 . S
H1370 C1382 0.950 . S
H1371 C1383 0.950 . S
C1372 H1364 0.950 . S
C1372 C1373 1.386 . S
C1372 C1374 1.391 . S
C1373 C1372 1.386 . S
C1373 C1377 1.393 . S
C1374 H1366 0.950 . S
C1374 C1372 1.391 . S
C1374 C1375 1.400 . S
C1375 C1374 1.400 . S
C1375 C1376 1.398 . S
C1375 C1381 1.491 . S
C1376 H1367 0.950 . S
C1376 C1375 1.398 . S
C1376 C1377 1.391 . S
C1377 H1365 0.950 . S
C1377 C1373 1.393 . S
C1377 C1376 1.391 . S
C1378 H1368 0.950 . S
C1378 C1379 1.386 . S
C1378 C1380 1.391 . S
C1379 C1378 1.386 . S
C1379 C1383 1.393 . S
C1380 H1369 0.950 . S
C1380 C1378 1.391 . S
C1380 C1381 1.400 . S
C1381 C1375 1.491 . S
C1381 C1380 1.400 . S
C1381 C1382 1.398 . S
C1382 H1370 0.950 . S
C1382 C1381 1.398 . S
C1382 C1383 1.391 . S
C1383 H1371 0.950 . S
C1383 C1379 1.393 . S
C1383 C1382 1.391 . S
H1384 C1392 0.950 . S
H1385 C1397 0.950 . S
H1386 C1394 0.950 . S
H1387 C1396 0.950 . S
H1388 C1398 0.950 . S
H1389 C1400 0.950 . S
H1390 C1402 0.950 . S
H1391 C1403 0.950 . S
C1392 H1384 0.950 . S
C1392 C1393 1.386 . S
C1392 C1394 1.391 . S
C1393 C1392 1.386 . S
C1393 C1397 1.393 . S
C1394 H1386 0.950 . S
C1394 C1392 1.391 . S
C1394 C1395 1.400 . S
C1395 C1394 1.400 . S
C1395 C1396 1.398 . S
C1395 C1401 1.491 . S
C1396 H1387 0.950 . S
C1396 C1395 1.398 . S
C1396 C1397 1.391 . S
C1397 H1385 0.950 . S
C1397 C1393 1.393 . S
C1397 C1396 1.391 . S
C1398 H1388 0.950 . S
C1398 C1399 1.386 . S
C1398 C1400 1.391 . S
C1399 C1398 1.386 . S
C1399 C1403 1.393 . S
C1400 H1389 0.950 . S
C1400 C1398 1.391 . S
C1400 C1401 1.400 . S
C1401 C1395 1.491 . S
C1401 C1400 1.400 . S
C1401 C1402 1.398 . S
C1402 H1390 0.950 . S
C1402 C1401 1.398 . S
C1402 C1403 1.391 . S
C1403 H1391 0.950 . S
C1403 C1399 1.393 . S
C1403 C1402 1.391 . S
H1404 C1412 0.950 . S
H1405 C1417 0.950 . S
H1406 C1414 0.950 . S
H1407 C1416 0.950 . S
H1408 C1418 0.950 . S
H1409 C1420 0.950 . S
H1410 C1422 0.950 . S
H1411 C1423 0.950 . S
C1412 H1404 0.950 . S
C1412 C1413 1.386 . S
C1412 C1414 1.391 . S
C1413 C1412 1.386 . S
C1413 C1417 1.393 . S
C1414 H1406 0.950 . S
C1414 C1412 1.391 . S
C1414 C1415 1.400 . S
C1415 C1414 1.400 . S
C1415 C1416 1.398 . S
C1415 C1421 1.491 . S
C1416 H1407 0.950 . S
C1416 C1415 1.398 . S
C1416 C1417 1.391 . S
C1417 H1405 0.950 . S
C1417 C1413 1.393 . S
C1417 C1416 1.391 . S
C1418 H1408 0.950 . S
C1418 C1419 1.386 . S
C1418 C1420 1.391 . S
C1419 C1418 1.386 . S
C1419 C1423 1.393 . S
C1420 H1409 0.950 . S
C1420 C1418 1.391 . S
C1420 C1421 1.400 . S
C1421 C1415 1.491 . S
C1421 C1420 1.400 . S
C1421 C1422 1.398 . S
C1422 H1410 0.950 . S
C1422 C1421 1.398 . S
C1422 C1423 1.391 . S
C1423 H1411 0.950 . S
C1423 C1419 1.393 . S
C1423 C1422 1.391 . S
H1424 C1432 0.950 . S
H1425 C1437 0.950 . S
H1426 C1434 0.950 . S
H1427 C1436 0.950 . S
H1428 C1438 0.950 . S
H1429 C1440 0.950 . S
H1430 C1442 0.950 . S
H1431 C1443 0.950 . S
C1432 H1424 0.950 . S
C1432 C1433 1.386 . S
C1432 C1434 1.391 . S
C1433 C1432 1.386 . S
C1433 C1437 1.393 . S
C1434 H1426 0.950 . S
C1434 C1432 1.391 . S
C1434 C1435 1.400 . S
C1435 C1434 1.400 . S
C1435 C1436 1.398 . S
C1435 C1441 1.491 . S
C1436 H1427 0.950 . S
C1436 C1435 1.398 . S
C1436 C1437 1.391 . S
C1437 H1425 0.950 . S
C1437 C1433 1.393 . S
C1437 C1436 1.391 . S
C1438 H1428 0.950 . S
C1438 C1439 1.386 . S
C1438 C1440 1.391 . S
C1439 C1438 1.386 . S
C1439 C1443 1.393 . S
C1440 H1429 0.950 . S
C1440 C1438 1.391 . S
C1440 C1441 1.400 . S
C1441 C1435 1.491 . S
C1441 C1440 1.400 . S
C1441 C1442 1.398 . S
C1442 H1430 0.950 . S
C1442 C1441 1.398 . S
C1442 C1443 1.391 . S
C1443 H1431 0.950 . S
C1443 C1439 1.393 . S
C1443 C1442 1.391 . S
H1444 C1452 0.950 . S
H1445 C1457 0.950 . S
H1446 C1454 0.950 . S
H1447 C1456 0.950 . S
H1448 C1458 0.950 . S
H1449 C1460 0.950 . S
H1450 C1462 0.950 . S
H1451 C1463 0.950 . S
C1452 H1444 0.950 . S
C1452 C1453 1.386 . S
C1452 C1454 1.391 . S
C1453 C1452 1.386 . S
C1453 C1457 1.393 . S
C1454 H1446 0.950 . S
C1454 C1452 1.391 . S
C1454 C1455 1.400 . S
C1455 C1454 1.400 . S
C1455 C1456 1.398 . S
C1455 C1461 1.491 . S
C1456 H1447 0.950 . S
C1456 C1455 1.398 . S
C1456 C1457 1.391 . S
C1457 H1445 0.950 . S
C1457 C1453 1.393 . S
C1457 C1456 1.391 . S
C1458 H1448 0.950 . S
C1458 C1459 1.386 . S
C1458 C1460 1.391 . S
C1459 C1458 1.386 . S
C1459 C1463 1.393 . S
C1460 H1449 0.950 . S
C1460 C1458 1.391 . S
C1460 C1461 1.400 . S
C1461 C1455 1.491 . S
C1461 C1460 1.400 . S
C1461 C1462 1.398 . S
C1462 H1450 0.950 . S
C1462 C1461 1.398 . S
C1462 C1463 1.391 . S
C1463 H1451 0.950 . S
C1463 C1459 1.393 . S
C1463 C1462 1.391 . S
H1464 C1472 0.950 . S
H1465 C1477 0.950 . S
H1466 C1474 0.950 . S
H1467 C1476 0.950 . S
H1468 C1478 0.950 . S
H1469 C1480 0.950 . S
H1470 C1482 0.950 . S
H1471 C1483 0.950 . S
C1472 H1464 0.950 . S
C1472 C1473 1.386 . S
C1472 C1474 1.391 . S
C1473 C1472 1.386 . S
C1473 C1477 1.393 . S
C1474 H1466 0.950 . S
C1474 C1472 1.391 . S
C1474 C1475 1.400 . S
C1475 C1474 1.400 . S
C1475 C1476 1.398 . S
C1475 C1481 1.491 . S
C1476 H1467 0.950 . S
C1476 C1475 1.398 . S
C1476 C1477 1.391 . S
C1477 H1465 0.950 . S
C1477 C1473 1.393 . S
C1477 C1476 1.391 . S
C1478 H1468 0.950 . S
C1478 C1479 1.386 . S
C1478 C1480 1.391 . S
C1479 C1478 1.386 . S
C1479 C1483 1.393 . S
C1480 H1469 0.950 . S
C1480 C1478 1.391 . S
C1480 C1481 1.400 . S
C1481 C1475 1.491 . S
C1481 C1480 1.400 . S
C1481 C1482 1.398 . S
C1482 H1470 0.950 . S
C1482 C1481 1.398 . S
C1482 C1483 1.391 . S
C1483 H1471 0.950 . S
C1483 C1479 1.393 . S
C1483 C1482 1.391 . S
H1484 C1492 0.950 . S
H1485 C1497 0.950 . S
H1486 C1494 0.950 . S
H1487 C1496 0.950 . S
H1488 C1498 0.950 . S
H1489 C1500 0.950 . S
H1490 C1502 0.950 . S
H1491 C1503 0.950 . S
C1492 H1484 0.950 . S
C1492 C1493 1.386 . S
C1492 C1494 1.391 . S
C1493 C1492 1.386 . S
C1493 C1497 1.393 . S
C1494 H1486 0.950 . S
C1494 C1492 1.391 . S
C1494 C1495 1.400 . S
C1495 C1494 1.400 . S
C1495 C1496 1.398 . S
C1495 C1501 1.491 . S
C1496 H1487 0.950 . S
C1496 C1495 1.398 . S
C1496 C1497 1.391 . S
C1497 H1485 0.950 . S
C1497 C1493 1.393 . S
C1497 C1496 1.391 . S
C1498 H1488 0.950 . S
C1498 C1499 1.386 . S
C1498 C1500 1.391 . S
C1499 C1498 1.386 . S
C1499 C1503 1.393 . S
C1500 H1489 0.950 . S
C1500 C1498 1.391 . S
C1500 C1501 1.400 . S
C1501 C1495 1.491 . S
C1501 C1500 1.400 . S
C1501 C1502 1.398 . S
C1502 H1490 0.950 . S
C1502 C1501 1.398 . S
C1502 C1503 1.391 . S
C1503 H1491 0.950 . S
C1503 C1499 1.393 . S
C1503 C1502 1.391 . S
H1504 C1512 0.950 . S
H1505 C1517 0.950 . S
H1506 C1514 0.950 . S
H1507 C1516 0.950 . S
H1508 C1518 0.950 . S
H1509 C1520 0.950 . S
H1510 C1522 0.950 . S
H1511 C1523 0.950 . S
C1512 H1504 0.950 . S
C1512 C1513 1.386 . S
C1512 C1514 1.391 . S
C1513 C1512 1.386 . S
C1513 C1517 1.393 . S
C1514 H1506 0.950 . S
C1514 C1512 1.391 . S
C1514 C1515 1.400 . S
C1515 C1514 1.400 . S
C1515 C1516 1.398 . S
C1515 C1521 1.491 . S
C1516 H1507 0.950 . S
C1516 C1515 1.398 . S
C1516 C1517 1.391 . S
C1517 H1505 0.950 . S
C1517 C1513 1.393 . S
C1517 C1516 1.391 . S
C1518 H1508 0.950 . S
C1518 C1519 1.386 . S
C1518 C1520 1.391 . S
C1519 C1518 1.386 . S
C1519 C1523 1.393 . S
C1520 H1509 0.950 . S
C1520 C1518 1.391 . S
C1520 C1521 1.400 . S
C1521 C1515 1.491 . S
C1521 C1520 1.400 . S
C1521 C1522 1.398 . S
C1522 H1510 0.950 . S
C1522 C1521 1.398 . S
C1522 C1523 1.391 . S
C1523 H1511 0.950 . S
C1523 C1519 1.393 . S
C1523 C1522 1.391 . S
H1524 C1532 0.950 . S
H1525 C1537 0.950 . S
H1526 C1534 0.950 . S
H1527 C1536 0.950 . S
H1528 C1538 0.950 . S
H1529 C1540 0.950 . S
H1530 C1542 0.950 . S
H1531 C1543 0.950 . S
C1532 H1524 0.950 . S
C1532 C1533 1.386 . S
C1532 C1534 1.391 . S
C1533 C1532 1.386 . S
C1533 C1537 1.393 . S
C1534 H1526 0.950 . S
C1534 C1532 1.391 . S
C1534 C1535 1.400 . S
C1535 C1534 1.400 . S
C1535 C1536 1.398 . S
C1535 C1541 1.491 . S
C1536 H1527 0.950 . S
C1536 C1535 1.398 . S
C1536 C1537 1.391 . S
C1537 H1525 0.950 . S
C1537 C1533 1.393 . S
C1537 C1536 1.391 . S
C1538 H1528 0.950 . S
C1538 C1539 1.386 . S
C1538 C1540 1.391 . S
C1539 C1538 1.386 . S
C1539 C1543 1.393 . S
C1540 H1529 0.950 . S
C1540 C1538 1.391 . S
C1540 C1541 1.400 . S
C1541 C1535 1.491 . S
C1541 C1540 1.400 . S
C1541 C1542 1.398 . S
C1542 H1530 0.950 . S
C1542 C1541 1.398 . S
C1542 C1543 1.391 . S
C1543 H1531 0.950 . S
C1543 C1539 1.393 . S
C1543 C1542 1.391 . S
H1544 C1552 0.950 . S
H1545 C1557 0.950 . S
H1546 C1554 0.950 . S
H1547 C1556 0.950 . S
H1548 C1558 0.950 . S
H1549 C1560 0.950 . S
H1550 C1562 0.950 . S
H1551 C1563 0.950 . S
C1552 H1544 0.950 . S
C1552 C1553 1.386 . S
C1552 C1554 1.391 . S
C1553 C1552 1.386 . S
C1553 C1557 1.393 . S
C1554 H1546 0.950 . S
C1554 C1552 1.391 . S
C1554 C1555 1.400 . S
C1555 C1554 1.400 . S
C1555 C1556 1.398 . S
C1555 C1561 1.491 . S
C1556 H1547 0.950 . S
C1556 C1555 1.398 . S
C1556 C1557 1.391 . S
C1557 H1545 0.950 . S
C1557 C1553 1.393 . S
C1557 C1556 1.391 . S
C1558 H1548 0.950 . S
C1558 C1559 1.386 . S
C1558 C1560 1.391 . S
C1559 C1558 1.386 . S
C1559 C1563 1.393 . S
C1560 H1549 0.950 . S
C1560 C1558 1.391 . S
C1560 C1561 1.400 . S
C1561 C1555 1.491 . S
C1561 C1560 1.400 . S
C1561 C1562 1.398 . S
C1562 H1550 0.950 . S
C1562 C1561 1.398 . S
C1562 C1563 1.391 . S
C1563 H1551 0.950 . S
C1563 C1559 1.393 . S
C1563 C1562 1.391 . S
H1564 C1572 0.950 . S
H1565 C1577 0.950 . S
H1566 C1574 0.950 . S
H1567 C1576 0.950 . S
H1568 C1578 0.950 . S
H1569 C1580 0.950 . S
H1570 C1582 0.950 . S
H1571 C1583 0.950 . S
C1572 H1564 0.950 . S
C1572 C1573 1.386 . S
C1572 C1574 1.391 . S
C1573 C1572 1.386 . S
C1573 C1577 1.393 . S
C1574 H1566 0.950 . S
C1574 C1572 1.391 . S
C1574 C1575 1.400 . S
C1575 C1574 1.400 . S
C1575 C1576 1.398 . S
C1575 C1581 1.491 . S
C1576 H1567 0.950 . S
C1576 C1575 1.398 . S
C1576 C1577 1.391 . S
C1577 H1565 0.950 . S
C1577 C1573 1.393 . S
C1577 C1576 1.391 . S
C1578 H1568 0.950 . S
C1578 C1579 1.386 . S
C1578 C1580 1.391 . S
C1579 C1578 1.386 . S
C1579 C1583 1.393 . S
C1580 H1569 0.950 . S
C1580 C1578 1.391 . S
C1580 C1581 1.400 . S
C1581 C1575 1.491 . S
C1581 C1580 1.400 . S
C1581 C1582 1.398 . S
C1582 H1570 0.950 . S
C1582 C1581 1.398 . S
C1582 C1583 1.391 . S
C1583 H1571 0.950 . S
C1583 C1579 1.393 . S
C1583 C1582 1.391 . S
H1584 C1592 0.950 . S
H1585 C1597 0.950 . S
H1586 C1594 0.950 . S
H1587 C1596 0.950 . S
H1588 C1598 0.950 . S
H1589 C1600 0.950 . S
H1590 C1602 0.950 . S
H1591 C1603 0.950 . S
C1592 H1584 0.950 . S
C1592 C1593 1.386 . S
C1592 C1594 1.391 . S
C1593 C1592 1.386 . S
C1593 C1597 1.393 . S
C1594 H1586 0.950 . S
C1594 C1592 1.391 . S
C1594 C1595 1.400 . S
C1595 C1594 1.400 . S
C1595 C1596 1.398 . S
C1595 C1601 1.491 . S
C1596 H1587 0.950 . S
C1596 C1595 1.398 . S
C1596 C1597 1.391 . S
C1597 H1585 0.950 . S
C1597 C1593 1.393 . S
C1597 C1596 1.391 . S
C1598 H1588 0.950 . S
C1598 C1599 1.386 . S
C1598 C1600 1.391 . S
C1599 C1598 1.386 . S
C1599 C1603 1.393 . S
C1600 H1589 0.950 . S
C1600 C1598 1.391 . S
C1600 C1601 1.400 . S
C1601 C1595 1.491 . S
C1601 C1600 1.400 . S
C1601 C1602 1.398 . S
C1602 H1590 0.950 . S
C1602 C1601 1.398 . S
C1602 C1603 1.391 . S
C1603 H1591 0.950 . S
C1603 C1599 1.393 . S
C1603 C1602 1.391 . S
H1604 C1612 0.950 . S
H1605 C1617 0.950 . S
H1606 C1614 0.950 . S
H1607 C1616 0.950 . S
H1608 C1618 0.950 . S
H1609 C1620 0.950 . S
H1610 C1622 0.950 . S
H1611 C1623 0.950 . S
C1612 H1604 0.950 . S
C1612 C1613 1.386 . S
C1612 C1614 1.391 . S
C1613 C1612 1.386 . S
C1613 C1617 1.393 . S
C1614 H1606 0.950 . S
C1614 C1612 1.391 . S
C1614 C1615 1.400 . S
C1615 C1614 1.400 . S
C1615 C1616 1.398 . S
C1615 C1621 1.491 . S
C1616 H1607 0.950 . S
C1616 C1615 1.398 . S
C1616 C1617 1.391 . S
C1617 H1605 0.950 . S
C1617 C1613 1.393 . S
C1617 C1616 1.391 . S
C1618 H1608 0.950 . S
C1618 C1619 1.386 . S
C1618 C1620 1.391 . S
C1619 C1618 1.386 . S
C1619 C1623 1.393 . S
C1620 H1609 0.950 . S
C1620 C1618 1.391 . S
C1620 C1621 1.400 . S
C1621 C1615 1.491 . S
C1621 C1620 1.400 . S
C1621 C1622 1.398 . S
C1622 H1610 0.950 . S
C1622 C1621 1.398 . S
C1622 C1623 1.391 . S
C1623 H1611 0.950 . S
C1623 C1619 1.393 . S
C1623 C1622 1.391 . S
H1624 C1632 0.950 . S
H1625 C1637 0.950 . S
H1626 C1634 0.950 . S
H1627 C1636 0.950 . S
H1628 C1638 0.950 . S
H1629 C1640 0.950 . S
H1630 C1642 0.950 . S
H1631 C1643 0.950 . S
C1632 H1624 0.950 . S
C1632 C1633 1.386 . S
C1632 C1634 1.391 . S
C1633 C1632 1.386 . S
C1633 C1637 1.393 . S
C1634 H1626 0.950 . S
C1634 C1632 1.391 . S
C1634 C1635 1.400 . S
C1635 C1634 1.400 . S
C1635 C1636 1.398 . S
C1635 C1641 1.491 . S
C1636 H1627 0.950 . S
C1636 C1635 1.398 . S
C1636 C1637 1.391 . S
C1637 H1625 0.950 . S
C1637 C1633 1.393 . S
C1637 C1636 1.391 . S
C1638 H1628 0.950 . S
C1638 C1639 1.386 . S
C1638 C1640 1.391 . S
C1639 C1638 1.386 . S
C1639 C1643 1.393 . S
C1640 H1629 0.950 . S
C1640 C1638 1.391 . S
C1640 C1641 1.400 . S
C1641 C1635 1.491 . S
C1641 C1640 1.400 . S
C1641 C1642 1.398 . S
C1642 H1630 0.950 . S
C1642 C1641 1.398 . S
C1642 C1643 1.391 . S
C1643 H1631 0.950 . S
C1643 C1639 1.393 . S
C1643 C1642 1.391 . S
H1644 C1652 0.950 . S
H1645 C1657 0.950 . S
H1646 C1654 0.950 . S
H1647 C1656 0.950 . S
H1648 C1658 0.950 . S
H1649 C1660 0.950 . S
H1650 C1662 0.950 . S
H1651 C1663 0.950 . S
C1652 H1644 0.950 . S
C1652 C1653 1.386 . S
C1652 C1654 1.391 . S
C1653 C1652 1.386 . S
C1653 C1657 1.393 . S
C1654 H1646 0.950 . S
C1654 C1652 1.391 . S
C1654 C1655 1.400 . S
C1655 C1654 1.400 . S
C1655 C1656 1.398 . S
C1655 C1661 1.491 . S
C1656 H1647 0.950 . S
C1656 C1655 1.398 . S
C1656 C1657 1.391 . S
C1657 H1645 0.950 . S
C1657 C1653 1.393 . S
C1657 C1656 1.391 . S
C1658 H1648 0.950 . S
C1658 C1659 1.386 . S
C1658 C1660 1.391 . S
C1659 C1658 1.386 . S
C1659 C1663 1.393 . S
C1660 H1649 0.950 . S
C1660 C1658 1.391 . S
C1660 C1661 1.400 . S
C1661 C1655 1.491 . S
C1661 C1660 1.400 . S
C1661 C1662 1.398 . S
C1662 H1650 0.950 . S
C1662 C1661 1.398 . S
C1662 C1663 1.391 . S
C1663 H1651 0.950 . S
C1663 C1659 1.393 . S
C1663 C1662 1.391 . S
H1664 C1672 0.950 . S
H1665 C1677 0.950 . S
H1666 C1674 0.950 . S
H1667 C1676 0.950 . S
H1668 C1678 0.950 . S
H1669 C1680 0.950 . S
H1670 C1682 0.950 . S
H1671 C1683 0.950 . S
C1672 H1664 0.950 . S
C1672 C1673 1.386 . S
C1672 C1674 1.391 . S
C1673 C1672 1.386 . S
C1673 C1677 1.393 . S
C1674 H1666 0.950 . S
C1674 C1672 1.391 . S
C1674 C1675 1.400 . S
C1675 C1674 1.400 . S
C1675 C1676 1.398 . S
C1675 C1681 1.491 . S
C1676 H1667 0.950 . S
C1676 C1675 1.398 . S
C1676 C1677 1.391 . S
C1677 H1665 0.950 . S
C1677 C1673 1.393 . S
C1677 C1676 1.391 . S
C1678 H1668 0.950 . S
C1678 C1679 1.386 . S
C1678 C1680 1.391 . S
C1679 C1678 1.386 . S
C1679 C1683 1.393 . S
C1680 H1669 0.950 . S
C1680 C1678 1.391 . S
C1680 C1681 1.400 . S
C1681 C1675 1.491 . S
C1681 C1680 1.400 . S
C1681 C1682 1.398 . S
C1682 H1670 0.950 . S
C1682 C1681 1.398 . S
C1682 C1683 1.391 . S
C1683 H1671 0.950 . S
C1683 C1679 1.393 . S
C1683 C1682 1.391 . S
H1684 C1692 0.950 . S
H1685 C1697 0.950 . S
H1686 C1694 0.950 . S
H1687 C1696 0.950 . S
H1688 C1698 0.950 . S
H1689 C1700 0.950 . S
H1690 C1702 0.950 . S
H1691 C1703 0.950 . S
C1692 H1684 0.950 . S
C1692 C1693 1.386 . S
C1692 C1694 1.391 . S
C1693 C1692 1.386 . S
C1693 C1697 1.393 . S
C1694 H1686 0.950 . S
C1694 C1692 1.391 . S
C1694 C1695 1.400 . S
C1695 C1694 1.400 . S
C1695 C1696 1.398 . S
C1695 C1701 1.491 . S
C1696 H1687 0.950 . S
C1696 C1695 1.398 . S
C1696 C1697 1.391 . S
C1697 H1685 0.950 . S
C1697 C1693 1.393 . S
C1697 C1696 1.391 . S
C1698 H1688 0.950 . S
C1698 C1699 1.386 . S
C1698 C1700 1.391 . S
C1699 C1698 1.386 . S
C1699 C1703 1.393 . S
C1700 H1689 0.950 . S
C1700 C1698 1.391 . S
C1700 C1701 1.400 . S
C1701 C1695 1.491 . S
C1701 C1700 1.400 . S
C1701 C1702 1.398 . S
C1702 H1690 0.950 . S
C1702 C1701 1.398 . S
C1702 C1703 1.391 . S
C1703 H1691 0.950 . S
C1703 C1699 1.393 . S
C1703 C1702 1.391 . S
H1704 C1712 0.950 . S
H1705 C1717 0.950 . S
H1706 C1714 0.950 . S
H1707 C1716 0.950 . S
H1708 C1718 0.950 . S
H1709 C1720 0.950 . S
H1710 C1722 0.950 . S
H1711 C1723 0.950 . S
C1712 H1704 0.950 . S
C1712 C1713 1.386 . S
C1712 C1714 1.391 . S
C1713 C1712 1.386 . S
C1713 C1717 1.393 . S
C1714 H1706 0.950 . S
C1714 C1712 1.391 . S
C1714 C1715 1.400 . S
C1715 C1714 1.400 . S
C1715 C1716 1.398 . S
C1715 C1721 1.491 . S
C1716 H1707 0.950 . S
C1716 C1715 1.398 . S
C1716 C1717 1.391 . S
C1717 H1705 0.950 . S
C1717 C1713 1.393 . S
C1717 C1716 1.391 . S
C1718 H1708 0.950 . S
C1718 C1719 1.386 . S
C1718 C1720 1.391 . S
C1719 C1718 1.386 . S
C1719 C1723 1.393 . S
C1720 H1709 0.950 . S
C1720 C1718 1.391 . S
C1720 C1721 1.400 . S
C1721 C1715 1.491 . S
C1721 C1720 1.400 . S
C1721 C1722 1.398 . S
C1722 H1710 0.950 . S
C1722 C1721 1.398 . S
C1722 C1723 1.391 . S
C1723 H1711 0.950 . S
C1723 C1719 1.393 . S
C1723 C1722 1.391 . S
H1724 C1732 0.950 . S
H1725 C1737 0.950 . S
H1726 C1734 0.950 . S
H1727 C1736 0.950 . S
H1728 C1738 0.950 . S
H1729 C1740 0.950 . S
H1730 C1742 0.950 . S
H1731 C1743 0.950 . S
C1732 H1724 0.950 . S
C1732 C1733 1.386 . S
C1732 C1734 1.391 . S
C1733 C1732 1.386 . S
C1733 C1737 1.393 . S
C1734 H1726 0.950 . S
C1734 C1732 1.391 . S
C1734 C1735 1.400 . S
C1735 C1734 1.400 . S
C1735 C1736 1.398 . S
C1735 C1741 1.491 . S
C1736 H1727 0.950 . S
C1736 C1735 1.398 . S
C1736 C1737 1.391 . S
C1737 H1725 0.950 . S
C1737 C1733 1.393 . S
C1737 C1736 1.391 . S
C1738 H1728 0.950 . S
C1738 C1739 1.386 . S
C1738 C1740 1.391 . S
C1739 C1738 1.386 . S
C1739 C1743 1.393 . S
C1740 H1729 0.950 . S
C1740 C1738 1.391 . S
C1740 C1741 1.400 . S
C1741 C1735 1.491 . S
C1741 C1740 1.400 . S
C1741 C1742 1.398 . S
C1742 H1730 0.950 . S
C1742 C1741 1.398 . S
C1742 C1743 1.391 . S
C1743 H1731 0.950 . S
C1743 C1739 1.393 . S
C1743 C1742 1.391 . S
H1744 C1752 0.950 . S
H1745 C1757 0.950 . S
H1746 C1754 0.950 . S
H1747 C1756 0.950 . S
H1748 C1758 0.950 . S
H1749 C1760 0.950 . S
H1750 C1762 0.950 . S
H1751 C1763 0.950 . S
C1752 H1744 0.950 . S
C1752 C1753 1.386 . S
C1752 C1754 1.391 . S
C1753 C1752 1.386 . S
C1753 C1757 1.393 . S
C1754 H1746 0.950 . S
C1754 C1752 1.391 . S
C1754 C1755 1.400 . S
C1755 C1754 1.400 . S
C1755 C1756 1.398 . S
C1755 C1761 1.491 . S
C1756 H1747 0.950 . S
C1756 C1755 1.398 . S
C1756 C1757 1.391 . S
C1757 H1745 0.950 . S
C1757 C1753 1.393 . S
C1757 C1756 1.391 . S
C1758 H1748 0.950 . S
C1758 C1759 1.386 . S
C1758 C1760 1.391 . S
C1759 C1758 1.386 . S
C1759 C1763 1.393 . S
C1760 H1749 0.950 . S
C1760 C1758 1.391 . S
C1760 C1761 1.400 . S
C1761 C1755 1.491 . S
C1761 C1760 1.400 . S
C1761 C1762 1.398 . S
C1762 H1750 0.950 . S
C1762 C1761 1.398 . S
C1762 C1763 1.391 . S
C1763 H1751 0.950 . S
C1763 C1759 1.393 . S
C1763 C1762 1.391 . S
H1764 C1772 0.950 . S
H1765 C1777 0.950 . S
H1766 C1774 0.950 . S
H1767 C1776 0.950 . S
H1768 C1778 0.950 . S
H1769 C1780 0.950 . S
H1770 C1782 0.950 . S
H1771 C1783 0.950 . S
C1772 H1764 0.950 . S
C1772 C1773 1.386 . S
C1772 C1774 1.391 . S
C1773 C1772 1.386 . S
C1773 C1777 1.393 . S
C1774 H1766 0.950 . S
C1774 C1772 1.391 . S
C1774 C1775 1.400 . S
C1775 C1774 1.400 . S
C1775 C1776 1.398 . S
C1775 C1781 1.491 . S
C1776 H1767 0.950 . S
C1776 C1775 1.398 . S
C1776 C1777 1.391 . S
C1777 H1765 0.950 . S
C1777 C1773 1.393 . S
C1777 C1776 1.391 . S
C1778 H1768 0.950 . S
C1778 C1779 1.386 . S
C1778 C1780 1.391 . S
C1779 C1778 1.386 . S
C1779 C1783 1.393 . S
C1780 H1769 0.950 . S
C1780 C1778 1.391 . S
C1780 C1781 1.400 . S
C1781 C1775 1.491 . S
C1781 C1780 1.400 . S
C1781 C1782 1.398 . S
C1782 H1770 0.950 . S
C1782 C1781 1.398 . S
C1782 C1783 1.391 . S
C1783 H1771 0.950 . S
C1783 C1779 1.393 . S
C1783 C1782 1.391 . S
H1784 C1792 0.950 . S
H1785 C1797 0.950 . S
H1786 C1794 0.950 . S
H1787 C1796 0.950 . S
H1788 C1798 0.950 . S
H1789 C1800 0.950 . S
H1790 C1802 0.950 . S
H1791 C1803 0.950 . S
C1792 H1784 0.950 . S
C1792 C1793 1.386 . S
C1792 C1794 1.391 . S
C1793 C1792 1.386 . S
C1793 C1797 1.393 . S
C1794 H1786 0.950 . S
C1794 C1792 1.391 . S
C1794 C1795 1.400 . S
C1795 C1794 1.400 . S
C1795 C1796 1.398 . S
C1795 C1801 1.491 . S
C1796 H1787 0.950 . S
C1796 C1795 1.398 . S
C1796 C1797 1.391 . S
C1797 H1785 0.950 . S
C1797 C1793 1.393 . S
C1797 C1796 1.391 . S
C1798 H1788 0.950 . S
C1798 C1799 1.386 . S
C1798 C1800 1.391 . S
C1799 C1798 1.386 . S
C1799 C1803 1.393 . S
C1800 H1789 0.950 . S
C1800 C1798 1.391 . S
C1800 C1801 1.400 . S
C1801 C1795 1.491 . S
C1801 C1800 1.400 . S
C1801 C1802 1.398 . S
C1802 H1790 0.950 . S
C1802 C1801 1.398 . S
C1802 C1803 1.391 . S
C1803 H1791 0.950 . S
C1803 C1799 1.393 . S
C1803 C1802 1.391 . S
H1804 C1812 0.950 . S
H1805 C1817 0.950 . S
H1806 C1814 0.950 . S
H1807 C1816 0.950 . S
H1808 C1818 0.950 . S
H1809 C1820 0.950 . S
H1810 C1822 0.950 . S
H1811 C1823 0.950 . S
C1812 H1804 0.950 . S
C1812 C1813 1.386 . S
C1812 C1814 1.391 . S
C1813 C1812 1.386 . S
C1813 C1817 1.393 . S
C1814 H1806 0.950 . S
C1814 C1812 1.391 . S
C1814 C1815 1.400 . S
C1815 C1814 1.400 . S
C1815 C1816 1.398 . S
C1815 C1821 1.491 . S
C1816 H1807 0.950 . S
C1816 C1815 1.398 . S
C1816 C1817 1.391 . S
C1817 H1805 0.950 . S
C1817 C1813 1.393 . S
C1817 C1816 1.391 . S
C1818 H1808 0.950 . S
C1818 C1819 1.386 . S
C1818 C1820 1.391 . S
C1819 C1818 1.386 . S
C1819 C1823 1.393 . S
C1820 H1809 0.950 . S
C1820 C1818 1.391 . S
C1820 C1821 1.400 . S
C1821 C1815 1.491 . S
C1821 C1820 1.400 . S
C1821 C1822 1.398 . S
C1822 H1810 0.950 . S
C1822 C1821 1.398 . S
C1822 C1823 1.391 . S
C1823 H1811 0.950 . S
C1823 C1819 1.393 . S
C1823 C1822 1.391 . S
H1824 C1832 0.950 . S
H1825 C1837 0.950 . S
H1826 C1834 0.950 . S
H1827 C1836 0.950 . S
H1828 C1838 0.950 . S
H1829 C1840 0.950 . S
H1830 C1842 0.950 . S
H1831 C1843 0.950 . S
C1832 H1824 0.950 . S
C1832 C1833 1.386 . S
C1832 C1834 1.391 . S
C1833 C1832 1.386 . S
C1833 C1837 1.393 . S
C1834 H1826 0.950 . S
C1834 C1832 1.391 . S
C1834 C1835 1.400 . S
C1835 C1834 1.400 . S
C1835 C1836 1.398 . S
C1835 C1841 1.491 . S
C1836 H1827 0.950 . S
C1836 C1835 1.398 . S
C1836 C1837 1.391 . S
C1837 H1825 0.950 . S
C1837 C1833 1.393 . S
C1837 C1836 1.391 . S
C1838 H1828 0.950 . S
C1838 C1839 1.386 . S
C1838 C1840 1.391 . S
C1839 C1838 1.386 . S
C1839 C1843 1.393 . S
C1840 H1829 0.950 . S
C1840 C1838 1.391 . S
C1840 C1841 1.400 . S
C1841 C1835 1.491 . S
C1841 C1840 1.400 . S
C1841 C1842 1.398 . S
C1842 H1830 0.950 . S
C1842 C1841 1.398 . S
C1842 C1843 1.391 . S
C1843 H1831 0.950 . S
C1843 C1839 1.393 . S
C1843 C1842 1.391 . S
H1844 C1852 0.950 . S
H1845 C1857 0.950 . S
H1846 C1854 0.950 . S
H1847 C1856 0.950 . S
H1848 C1858 0.950 . S
H1849 C1860 0.950 . S
H1850 C1862 0.950 . S
H1851 C1863 0.950 . S
C1852 H1844 0.950 . S
C1852 C1853 1.386 . S
C1852 C1854 1.391 . S
C1853 C1852 1.386 . S
C1853 C1857 1.393 . S
C1854 H1846 0.950 . S
C1854 C1852 1.391 . S
C1854 C1855 1.400 . S
C1855 C1854 1.400 . S
C1855 C1856 1.398 . S
C1855 C1861 1.491 . S
C1856 H1847 0.950 . S
C1856 C1855 1.398 . S
C1856 C1857 1.391 . S
C1857 H1845 0.950 . S
C1857 C1853 1.393 . S
C1857 C1856 1.391 . S
C1858 H1848 0.950 . S
C1858 C1859 1.386 . S
C1858 C1860 1.391 . S
C1859 C1858 1.386 . S
C1859 C1863 1.393 . S
C1860 H1849 0.950 . S
C1860 C1858 1.391 . S
C1860 C1861 1.400 . S
C1861 C1855 1.491 . S
C1861 C1860 1.400 . S
C1861 C1862 1.398 . S
C1862 H1850 0.950 . S
C1862 C1861 1.398 . S
C1862 C1863 1.391 . S
C1863 H1851 0.950 . S
C1863 C1859 1.393 . S
C1863 C1862 1.391 . S
H1864 C1872 0.950 . S
H1865 C1877 0.950 . S
H1866 C1874 0.950 . S
H1867 C1876 0.950 . S
H1868 C1878 0.950 . S
H1869 C1880 0.950 . S
H1870 C1882 0.950 . S
H1871 C1883 0.950 . S
C1872 H1864 0.950 . S
C1872 C1873 1.386 . S
C1872 C1874 1.391 . S
C1873 C1872 1.386 . S
C1873 C1877 1.393 . S
C1874 H1866 0.950 . S
C1874 C1872 1.391 . S
C1874 C1875 1.400 . S
C1875 C1874 1.400 . S
C1875 C1876 1.398 . S
C1875 C1881 1.491 . S
C1876 H1867 0.950 . S
C1876 C1875 1.398 . S
C1876 C1877 1.391 . S
C1877 H1865 0.950 . S
C1877 C1873 1.393 . S
C1877 C1876 1.391 . S
C1878 H1868 0.950 . S
C1878 C1879 1.386 . S
C1878 C1880 1.391 . S
C1879 C1878 1.386 . S
C1879 C1883 1.393 . S
C1880 H1869 0.950 . S
C1880 C1878 1.391 . S
C1880 C1881 1.400 . S
C1881 C1875 1.491 . S
C1881 C1880 1.400 . S
C1881 C1882 1.398 . S
C1882 H1870 0.950 . S
C1882 C1881 1.398 . S
C1882 C1883 1.391 . S
C1883 H1871 0.950 . S
C1883 C1879 1.393 . S
C1883 C1882 1.391 . S
H1884 C1892 0.950 . S
H1885 C1897 0.950 . S
H1886 C1894 0.950 . S
H1887 C1896 0.950 . S
H1888 C1898 0.950 . S
H1889 C1900 0.950 . S
H1890 C1902 0.950 . S
H1891 C1903 0.950 . S
C1892 H1884 0.950 . S
C1892 C1893 1.386 . S
C1892 C1894 1.391 . S
C1893 C1892 1.386 . S
C1893 C1897 1.393 . S
C1894 H1886 0.950 . S
C1894 C1892 1.391 . S
C1894 C1895 1.400 . S
C1895 C1894 1.400 . S
C1895 C1896 1.398 . S
C1895 C1901 1.491 . S
C1896 H1887 0.950 . S
C1896 C1895 1.398 . S
C1896 C1897 1.391 . S
C1897 H1885 0.950 . S
C1897 C1893 1.393 . S
C1897 C1896 1.391 . S
C1898 H1888 0.950 . S
C1898 C1899 1.386 . S
C1898 C1900 1.391 . S
C1899 C1898 1.386 . S
C1899 C1903 1.393 . S
C1900 H1889 0.950 . S
C1900 C1898 1.391 . S
C1900 C1901 1.400 . S
C1901 C1895 1.491 . S
C1901 C1900 1.400 . S
C1901 C1902 1.398 . S
C1902 H1890 0.950 . S
C1902 C1901 1.398 . S
C1902 C1903 1.391 . S
C1903 H1891 0.950 . S
C1903 C1899 1.393 . S
C1903 C1902 1.391 . S
H1904 C1912 0.950 . S
H1905 C1917 0.950 . S
H1906 C1914 0.950 . S
H1907 C1916 0.950 . S
H1908 C1918 0.950 . S
H1909 C1920 0.950 . S
H1910 C1922 0.950 . S
H1911 C1923 0.950 . S
C1912 H1904 0.950 . S
C1912 C1913 1.386 . S
C1912 C1914 1.391 . S
C1913 C1912 1.386 . S
C1913 C1917 1.393 . S
C1914 H1906 0.950 . S
C1914 C1912 1.391 . S
C1914 C1915 1.400 . S
C1915 C1914 1.400 . S
C1915 C1916 1.398 . S
C1915 C1921 1.491 . S
C1916 H1907 0.950 . S
C1916 C1915 1.398 . S
C1916 C1917 1.391 . S
C1917 H1905 0.950 . S
C1917 C1913 1.393 . S
C1917 C1916 1.391 . S
C1918 H1908 0.950 . S
C1918 C1919 1.386 . S
C1918 C1920 1.391 . S
C1919 C1918 1.386 . S
C1919 C1923 1.393 . S
C1920 H1909 0.950 . S
C1920 C1918 1.391 . S
C1920 C1921 1.400 . S
C1921 C1915 1.491 . S
C1921 C1920 1.400 . S
C1921 C1922 1.398 . S
C1922 H1910 0.950 . S
C1922 C1921 1.398 . S
C1922 C1923 1.391 . S
C1923 H1911 0.950 . S
C1923 C1919 1.393 . S
C1923 C1922 1.391 . S
H1924 C1932 0.950 . S
H1925 C1937 0.950 . S
H1926 C1934 0.950 . S
H1927 C1936 0.950 . S
H1928 C1938 0.950 . S
H1929 C1940 0.950 . S
H1930 C1942 0.950 . S
H1931 C1943 0.950 . S
C1932 H1924 0.950 . S
C1932 C1933 1.386 . S
C1932 C1934 1.391 . S
C1933 C1932 1.386 . S
C1933 C1937 1.393 . S
C1934 H1926 0.950 . S
C1934 C1932 1.391 . S
C1934 C1935 1.400 . S
C1935 C1934 1.400 . S
C1935 C1936 1.398 . S
C1935 C1941 1.491 . S
C1936 H1927 0.950 . S
C1936 C1935 1.398 . S
C1936 C1937 1.391 . S
C1937 H1925 0.950 . S
C1937 C1933 1.393 . S
C1937 C1936 1.391 . S
C1938 H1928 0.950 . S
C1938 C1939 1.386 . S
C1938 C1940 1.391 . S
C1939 C1938 1.386 . S
C1939 C1943 1.393 . S
C1940 H1929 0.950 . S
C1940 C1938 1.391 . S
C1940 C1941 1.400 . S
C1941 C1935 1.491 . S
C1941 C1940 1.400 . S
C1941 C1942 1.398 . S
C1942 H1930 0.950 . S
C1942 C1941 1.398 . S
C1942 C1943 1.391 . S
C1943 H1931 0.950 . S
C1943 C1939 1.393 . S
C1943 C1942 1.391 . S
H1944 C1952 0.950 . S
H1945 C1957 0.950 . S
H1946 C1954 0.950 . S
H1947 C1956 0.950 . S
H1948 C1958 0.950 . S
H1949 C1960 0.950 . S
H1950 C1962 0.950 . S
H1951 C1963 0.950 . S
C1952 H1944 0.950 . S
C1952 C1953 1.386 . S
C1952 C1954 1.391 . S
C1953 C1952 1.386 . S
C1953 C1957 1.393 . S
C1954 H1946 0.950 . S
C1954 C1952 1.391 . S
C1954 C1955 1.400 . S
C1955 C1954 1.400 . S
C1955 C1956 1.398 . S
C1955 C1961 1.491 . S
C1956 H1947 0.950 . S
C1956 C1955 1.398 . S
C1956 C1957 1.391 . S
C1957 H1945 0.950 . S
C1957 C1953 1.393 . S
C1957 C1956 1.391 . S
C1958 H1948 0.950 . S
C1958 C1959 1.386 . S
C1958 C1960 1.391 . S
C1959 C1958 1.386 . S
C1959 C1963 1.393 . S
C1960 H1949 0.950 . S
C1960 C1958 1.391 . S
C1960 C1961 1.400 . S
C1961 C1955 1.491 . S
C1961 C1960 1.400 . S
C1961 C1962 1.398 . S
C1962 H1950 0.950 . S
C1962 C1961 1.398 . S
C1962 C1963 1.391 . S
C1963 H1951 0.950 . S
C1963 C1959 1.393 . S
C1963 C1962 1.391 . S
H1964 C1972 0.950 . S
H1965 C1977 0.950 . S
H1966 C1974 0.950 . S
H1967 C1976 0.950 . S
H1968 C1978 0.950 . S
H1969 C1980 0.950 . S
H1970 C1982 0.950 . S
H1971 C1983 0.950 . S
C1972 H1964 0.950 . S
C1972 C1973 1.386 . S
C1972 C1974 1.391 . S
C1973 C1972 1.386 . S
C1973 C1977 1.393 . S
C1974 H1966 0.950 . S
C1974 C1972 1.391 . S
C1974 C1975 1.400 . S
C1975 C1974 1.400 . S
C1975 C1976 1.398 . S
C1975 C1981 1.491 . S
C1976 H1967 0.950 . S
C1976 C1975 1.398 . S
C1976 C1977 1.391 . S
C1977 H1965 0.950 . S
C1977 C1973 1.393 . S
C1977 C1976 1.391 . S
C1978 H1968 0.950 . S
C1978 C1979 1.386 . S
C1978 C1980 1.391 . S
C1979 C1978 1.386 . S
C1979 C1983 1.393 . S
C1980 H1969 0.950 . S
C1980 C1978 1.391 . S
C1980 C1981 1.400 . S
C1981 C1975 1.491 . S
C1981 C1980 1.400 . S
C1981 C1982 1.398 . S
C1982 H1970 0.950 . S
C1982 C1981 1.398 . S
C1982 C1983 1.391 . S
C1983 H1971 0.950 . S
C1983 C1979 1.393 . S
C1983 C1982 1.391 . S
H1984 C1992 0.950 . S
H1985 C1997 0.950 . S
H1986 C1994 0.950 . S
H1987 C1996 0.950 . S
H1988 C1998 0.950 . S
H1989 C2000 0.950 . S
H1990 C2002 0.950 . S
H1991 C2003 0.950 . S
C1992 H1984 0.950 . S
C1992 C1993 1.386 . S
C1992 C1994 1.391 . S
C1993 C1992 1.386 . S
C1993 C1997 1.393 . S
C1994 H1986 0.950 . S
C1994 C1992 1.391 . S
C1994 C1995 1.400 . S
C1995 C1994 1.400 . S
C1995 C1996 1.398 . S
C1995 C2001 1.491 . S
C1996 H1987 0.950 . S
C1996 C1995 1.398 . S
C1996 C1997 1.391 . S
C1997 H1985 0.950 . S
C1997 C1993 1.393 . S
C1997 C1996 1.391 . S
C1998 H1988 0.950 . S
C1998 C1999 1.386 . S
C1998 C2000 1.391 . S
C1999 C1998 1.386 . S
C1999 C2003 1.393 . S
C2000 H1989 0.950 . S
C2000 C1998 1.391 . S
C2000 C2001 1.400 . S
C2001 C1995 1.491 . S
C2001 C2000 1.400 . S
C2001 C2002 1.398 . S
C2002 H1990 0.950 . S
C2002 C2001 1.398 . S
C2002 C2003 1.391 . S
C2003 H1991 0.950 . S
C2003 C1999 1.393 . S
C2003 C2002 1.391 . S
H2004 C2012 0.950 . S
H2005 C2017 0.950 . S
H2006 C2014 0.950 . S
H2007 C2016 0.950 . S
H2008 C2018 0.950 . S
H2009 C2020 0.950 . S
H2010 C2022 0.950 . S
H2011 C2023 0.950 . S
C2012 H2004 0.950 . S
C2012 C2013 1.386 . S
C2012 C2014 1.391 . S
C2013 C2012 1.386 . S
C2013 C2017 1.393 . S
C2014 H2006 0.950 . S
C2014 C2012 1.391 . S
C2014 C2015 1.400 . S
C2015 C2014 1.400 . S
C2015 C2016 1.398 . S
C2015 C2021 1.491 . S
C2016 H2007 0.950 . S
C2016 C2015 1.398 . S
C2016 C2017 1.391 . S
C2017 H2005 0.950 . S
C2017 C2013 1.393 . S
C2017 C2016 1.391 . S
C2018 H2008 0.950 . S
C2018 C2019 1.386 . S
C2018 C2020 1.391 . S
C2019 C2018 1.386 . S
C2019 C2023 1.393 . S
C2020 H2009 0.950 . S
C2020 C2018 1.391 . S
C2020 C2021 1.400 . S
C2021 C2015 1.491 . S
C2021 C2020 1.400 . S
C2021 C2022 1.398 . S
C2022 H2010 0.950 . S
C2022 C2021 1.398 . S
C2022 C2023 1.391 . S
C2023 H2011 0.950 . S
C2023 C2019 1.393 . S
C2023 C2022 1.391 . S
H2024 C2032 0.950 . S
H2025 C2037 0.950 . S
H2026 C2034 0.950 . S
H2027 C2036 0.950 . S
H2028 C2038 0.950 . S
H2029 C2040 0.950 . S
H2030 C2042 0.950 . S
H2031 C2043 0.950 . S
C2032 H2024 0.950 . S
C2032 C2033 1.386 . S
C2032 C2034 1.391 . S
C2033 C2032 1.386 . S
C2033 C2037 1.393 . S
C2034 H2026 0.950 . S
C2034 C2032 1.391 . S
C2034 C2035 1.400 . S
C2035 C2034 1.400 . S
C2035 C2036 1.398 . S
C2035 C2041 1.491 . S
C2036 H2027 0.950 . S
C2036 C2035 1.398 . S
C2036 C2037 1.391 . S
C2037 H2025 0.950 . S
C2037 C2033 1.393 . S
C2037 C2036 1.391 . S
C2038 H2028 0.950 . S
C2038 C2039 1.386 . S
C2038 C2040 1.391 . S
C2039 C2038 1.386 . S
C2039 C2043 1.393 . S
C2040 H2029 0.950 . S
C2040 C2038 1.391 . S
C2040 C2041 1.400 . S
C2041 C2035 1.491 . S
C2041 C2040 1.400 . S
C2041 C2042 1.398 . S
C2042 H2030 0.950 . S
C2042 C2041 1.398 . S
C2042 C2043 1.391 . S
C2043 H2031 0.950 . S
C2043 C2039 1.393 . S
C2043 C2042 1.391 . S
H2044 C2052 0.950 . S
H2045 C2057 0.950 . S
H2046 C2054 0.950 . S
H2047 C2056 0.950 . S
H2048 C2058 0.950 . S
H2049 C2060 0.950 . S
H2050 C2062 0.950 . S
H2051 C2063 0.950 . S
C2052 H2044 0.950 . S
C2052 C2053 1.386 . S
C2052 C2054 1.391 . S
C2053 C2052 1.386 . S
C2053 C2057 1.393 . S
C2054 H2046 0.950 . S
C2054 C2052 1.391 . S
C2054 C2055 1.400 . S
C2055 C2054 1.400 . S
C2055 C2056 1.398 . S
C2055 C2061 1.491 . S
C2056 H2047 0.950 . S
C2056 C2055 1.398 . S
C2056 C2057 1.391 . S
C2057 H2045 0.950 . S
C2057 C2053 1.393 . S
C2057 C2056 1.391 . S
C2058 H2048 0.950 . S
C2058 C2059 1.386 . S
C2058 C2060 1.391 . S
C2059 C2058 1.386 . S
C2059 C2063 1.393 . S
C2060 H2049 0.950 . S
C2060 C2058 1.391 . S
C2060 C2061 1.400 . S
C2061 C2055 1.491 . S
C2061 C2060 1.400 . S
C2061 C2062 1.398 . S
C2062 H2050 0.950 . S
C2062 C2061 1.398 . S
C2062 C2063 1.391 . S
C2063 H2051 0.950 . S
C2063 C2059 1.393 . S
C2063 C2062 1.391 . S
H2064 C2072 0.950 . S
H2065 C2077 0.950 . S
H2066 C2074 0.950 . S
H2067 C2076 0.950 . S
H2068 C2078 0.950 . S
H2069 C2080 0.950 . S
H2070 C2082 0.950 . S
H2071 C2083 0.950 . S
C2072 H2064 0.950 . S
C2072 C2073 1.386 . S
C2072 C2074 1.391 . S
C2073 C2072 1.386 . S
C2073 C2077 1.393 . S
C2074 H2066 0.950 . S
C2074 C2072 1.391 . S
C2074 C2075 1.400 . S
C2075 C2074 1.400 . S
C2075 C2076 1.398 . S
C2075 C2081 1.491 . S
C2076 H2067 0.950 . S
C2076 C2075 1.398 . S
C2076 C2077 1.391 . S
C2077 H2065 0.950 . S
C2077 C2073 1.393 . S
C2077 C2076 1.391 . S
C2078 H2068 0.950 . S
C2078 C2079 1.386 . S
C2078 C2080 1.391 . S
C2079 C2078 1.386 . S
C2079 C2083 1.393 . S
C2080 H2069 0.950 . S
C2080 C2078 1.391 . S
C2080 C2081 1.400 . S
C2081 C2075 1.491 . S
C2081 C2080 1.400 . S
C2081 C2082 1.398 . S
C2082 H2070 0.950 . S
C2082 C2081 1.398 . S
C2082 C2083 1.391 . S
C2083 H2071 0.950 . S
C2083 C2079 1.393 . S
C2083 C2082 1.391 . S
H2084 C2092 0.950 . S
H2085 C2097 0.950 . S
H2086 C2094 0.950 . S
H2087 C2096 0.950 . S
H2088 C2098 0.950 . S
H2089 C2100 0.950 . S
H2090 C2102 0.950 . S
H2091 C2103 0.950 . S
C2092 H2084 0.950 . S
C2092 C2093 1.386 . S
C2092 C2094 1.391 . S
C2093 C2092 1.386 . S
C2093 C2097 1.393 . S
C2094 H2086 0.950 . S
C2094 C2092 1.391 . S
C2094 C2095 1.400 . S
C2095 C2094 1.400 . S
C2095 C2096 1.398 . S
C2095 C2101 1.491 . S
C2096 H2087 0.950 . S
C2096 C2095 1.398 . S
C2096 C2097 1.391 . S
C2097 H2085 0.950 . S
C2097 C2093 1.393 . S
C2097 C2096 1.391 . S
C2098 H2088 0.950 . S
C2098 C2099 1.386 . S
C2098 C2100 1.391 . S
C2099 C2098 1.386 . S
C2099 C2103 1.393 . S
C2100 H2089 0.950 . S
C2100 C2098 1.391 . S
C2100 C2101 1.400 . S
C2101 C2095 1.491 . S
C2101 C2100 1.400 . S
C2101 C2102 1.398 . S
C2102 H2090 0.950 . S
C2102 C2101 1.398 . S
C2102 C2103 1.391 . S
C2103 H2091 0.950 . S
C2103 C2099 1.393 . S
C2103 C2102 1.391 . S
H2104 C2112 0.950 . S
H2105 C2117 0.950 . S
H2106 C2114 0.950 . S
H2107 C2116 0.950 . S
H2108 C2118 0.950 . S
H2109 C2120 0.950 . S
H2110 C2122 0.950 . S
H2111 C2123 0.950 . S
C2112 H2104 0.950 . S
C2112 C2113 1.386 . S
C2112 C2114 1.391 . S
C2113 C2112 1.386 . S
C2113 C2117 1.393 . S
C2114 H2106 0.950 . S
C2114 C2112 1.391 . S
C2114 C2115 1.400 . S
C2115 C2114 1.400 . S
C2115 C2116 1.398 . S
C2115 C2121 1.491 . S
C2116 H2107 0.950 . S
C2116 C2115 1.398 . S
C2116 C2117 1.391 . S
C2117 H2105 0.950 . S
C2117 C2113 1.393 . S
C2117 C2116 1.391 . S
C2118 H2108 0.950 . S
C2118 C2119 1.386 . S
C2118 C2120 1.391 . S
C2119 C2118 1.386 . S
C2119 C2123 1.393 . S
C2120 H2109 0.950 . S
C2120 C2118 1.391 . S
C2120 C2121 1.400 . S
C2121 C2115 1.491 . S
C2121 C2120 1.400 . S
C2121 C2122 1.398 . S
C2122 H2110 0.950 . S
C2122 C2121 1.398 . S
C2122 C2123 1.391 . S
C2123 H2111 0.950 . S
C2123 C2119 1.393 . S
C2123 C2122 1.391 . S
H2124 C2132 0.950 . S
H2125 C2137 0.950 . S
H2126 C2134 0.950 . S
H2127 C2136 0.950 . S
H2128 C2138 0.950 . S
H2129 C2140 0.950 . S
H2130 C2142 0.950 . S
H2131 C2143 0.950 . S
C2132 H2124 0.950 . S
C2132 C2133 1.386 . S
C2132 C2134 1.391 . S
C2133 C2132 1.386 . S
C2133 C2137 1.393 . S
C2134 H2126 0.950 . S
C2134 C2132 1.391 . S
C2134 C2135 1.400 . S
C2135 C2134 1.400 . S
C2135 C2136 1.398 . S
C2135 C2141 1.491 . S
C2136 H2127 0.950 . S
C2136 C2135 1.398 . S
C2136 C2137 1.391 . S
C2137 H2125 0.950 . S
C2137 C2133 1.393 . S
C2137 C2136 1.391 . S
C2138 H2128 0.950 . S
C2138 C2139 1.386 . S
C2138 C2140 1.391 . S
C2139 C2138 1.386 . S
C2139 C2143 1.393 . S
C2140 H2129 0.950 . S
C2140 C2138 1.391 . S
C2140 C2141 1.400 . S
C2141 C2135 1.491 . S
C2141 C2140 1.400 . S
C2141 C2142 1.398 . S
C2142 H2130 0.950 . S
C2142 C2141 1.398 . S
C2142 C2143 1.391 . S
C2143 H2131 0.950 . S
C2143 C2139 1.393 . S
C2143 C2142 1.391 . S
H2144 C2152 0.950 . S
H2145 C2157 0.950 . S
H2146 C2154 0.950 . S
H2147 C2156 0.950 . S
H2148 C2158 0.950 . S
H2149 C2160 0.950 . S
H2150 C2162 0.950 . S
H2151 C2163 0.950 . S
C2152 H2144 0.950 . S
C2152 C2153 1.386 . S
C2152 C2154 1.391 . S
C2153 C2152 1.386 . S
C2153 C2157 1.393 . S
C2154 H2146 0.950 . S
C2154 C2152 1.391 . S
C2154 C2155 1.400 . S
C2155 C2154 1.400 . S
C2155 C2156 1.398 . S
C2155 C2161 1.491 . S
C2156 H2147 0.950 . S
C2156 C2155 1.398 . S
C2156 C2157 1.391 . S
C2157 H2145 0.950 . S
C2157 C2153 1.393 . S
C2157 C2156 1.391 . S
C2158 H2148 0.950 . S
C2158 C2159 1.386 . S
C2158 C2160 1.391 . S
C2159 C2158 1.386 . S
C2159 C2163 1.393 . S
C2160 H2149 0.950 . S
C2160 C2158 1.391 . S
C2160 C2161 1.400 . S
C2161 C2155 1.491 . S
C2161 C2160 1.400 . S
C2161 C2162 1.398 . S
C2162 H2150 0.950 . S
C2162 C2161 1.398 . S
C2162 C2163 1.391 . S
C2163 H2151 0.950 . S
C2163 C2159 1.393 . S
C2163 C2162 1.391 . S
H2164 C2172 0.950 . S
H2165 C2177 0.950 . S
H2166 C2174 0.950 . S
H2167 C2176 0.950 . S
H2168 C2178 0.950 . S
H2169 C2180 0.950 . S
H2170 C2182 0.950 . S
H2171 C2183 0.950 . S
C2172 H2164 0.950 . S
C2172 C2173 1.386 . S
C2172 C2174 1.391 . S
C2173 C2172 1.386 . S
C2173 C2177 1.393 . S
C2174 H2166 0.950 . S
C2174 C2172 1.391 . S
C2174 C2175 1.400 . S
C2175 C2174 1.400 . S
C2175 C2176 1.398 . S
C2175 C2181 1.491 . S
C2176 H2167 0.950 . S
C2176 C2175 1.398 . S
C2176 C2177 1.391 . S
C2177 H2165 0.950 . S
C2177 C2173 1.393 . S
C2177 C2176 1.391 . S
C2178 H2168 0.950 . S
C2178 C2179 1.386 . S
C2178 C2180 1.391 . S
C2179 C2178 1.386 . S
C2179 C2183 1.393 . S
C2180 H2169 0.950 . S
C2180 C2178 1.391 . S
C2180 C2181 1.400 . S
C2181 C2175 1.491 . S
C2181 C2180 1.400 . S
C2181 C2182 1.398 . S
C2182 H2170 0.950 . S
C2182 C2181 1.398 . S
C2182 C2183 1.391 . S
C2183 H2171 0.950 . S
C2183 C2179 1.393 . S
C2183 C2182 1.391 . S
H2184 C2192 0.950 . S
H2185 C2197 0.950 . S
H2186 C2194 0.950 . S
H2187 C2196 0.950 . S
H2188 C2198 0.950 . S
H2189 C2200 0.950 . S
H2190 C2202 0.950 . S
H2191 C2203 0.950 . S
C2192 H2184 0.950 . S
C2192 C2193 1.386 . S
C2192 C2194 1.391 . S
C2193 C2192 1.386 . S
C2193 C2197 1.393 . S
C2194 H2186 0.950 . S
C2194 C2192 1.391 . S
C2194 C2195 1.400 . S
C2195 C2194 1.400 . S
C2195 C2196 1.398 . S
C2195 C2201 1.491 . S
C2196 H2187 0.950 . S
C2196 C2195 1.398 . S
C2196 C2197 1.391 . S
C2197 H2185 0.950 . S
C2197 C2193 1.393 . S
C2197 C2196 1.391 . S
C2198 H2188 0.950 . S
C2198 C2199 1.386 . S
C2198 C2200 1.391 . S
C2199 C2198 1.386 . S
C2199 C2203 1.393 . S
C2200 H2189 0.950 . S
C2200 C2198 1.391 . S
C2200 C2201 1.400 . S
C2201 C2195 1.491 . S
C2201 C2200 1.400 . S
C2201 C2202 1.398 . S
C2202 H2190 0.950 . S
C2202 C2201 1.398 . S
C2202 C2203 1.391 . S
C2203 H2191 0.950 . S
C2203 C2199 1.393 . S
C2203 C2202 1.391 . S
H2204 C2212 0.950 . S
H2205 C2217 0.950 . S
H2206 C2214 0.950 . S
H2207 C2216 0.950 . S
H2208 C2218 0.950 . S
H2209 C2220 0.950 . S
H2210 C2222 0.950 . S
H2211 C2223 0.950 . S
C2212 H2204 0.950 . S
C2212 C2213 1.386 . S
C2212 C2214 1.391 . S
C2213 C2212 1.386 . S
C2213 C2217 1.393 . S
C2214 H2206 0.950 . S
C2214 C2212 1.391 . S
C2214 C2215 1.400 . S
C2215 C2214 1.400 . S
C2215 C2216 1.398 . S
C2215 C2221 1.491 . S
C2216 H2207 0.950 . S
C2216 C2215 1.398 . S
C2216 C2217 1.391 . S
C2217 H2205 0.950 . S
C2217 C2213 1.393 . S
C2217 C2216 1.391 . S
C2218 H2208 0.950 . S
C2218 C2219 1.386 . S
C2218 C2220 1.391 . S
C2219 C2218 1.386 . S
C2219 C2223 1.393 . S
C2220 H2209 0.950 . S
C2220 C2218 1.391 . S
C2220 C2221 1.400 . S
C2221 C2215 1.491 . S
C2221 C2220 1.400 . S
C2221 C2222 1.398 . S
C2222 H2210 0.950 . S
C2222 C2221 1.398 . S
C2222 C2223 1.391 . S
C2223 H2211 0.950 . S
C2223 C2219 1.393 . S
C2223 C2222 1.391 . S
H2224 C2232 0.950 . S
H2225 C2237 0.950 . S
H2226 C2234 0.950 . S
H2227 C2236 0.950 . S
H2228 C2238 0.950 . S
H2229 C2240 0.950 . S
H2230 C2242 0.950 . S
H2231 C2243 0.950 . S
C2232 H2224 0.950 . S
C2232 C2233 1.386 . S
C2232 C2234 1.391 . S
C2233 C2232 1.386 . S
C2233 C2237 1.393 . S
C2234 H2226 0.950 . S
C2234 C2232 1.391 . S
C2234 C2235 1.400 . S
C2235 C2234 1.400 . S
C2235 C2236 1.398 . S
C2235 C2241 1.491 . S
C2236 H2227 0.950 . S
C2236 C2235 1.398 . S
C2236 C2237 1.391 . S
C2237 H2225 0.950 . S
C2237 C2233 1.393 . S
C2237 C2236 1.391 . S
C2238 H2228 0.950 . S
C2238 C2239 1.386 . S
C2238 C2240 1.391 . S
C2239 C2238 1.386 . S
C2239 C2243 1.393 . S
C2240 H2229 0.950 . S
C2240 C2238 1.391 . S
C2240 C2241 1.400 . S
C2241 C2235 1.491 . S
C2241 C2240 1.400 . S
C2241 C2242 1.398 . S
C2242 H2230 0.950 . S
C2242 C2241 1.398 . S
C2242 C2243 1.391 . S
C2243 H2231 0.950 . S
C2243 C2239 1.393 . S
C2243 C2242 1.391 . S
H2244 C2252 0.950 . S
H2245 C2257 0.950 . S
H2246 C2254 0.950 . S
H2247 C2256 0.950 . S
H2248 C2258 0.950 . S
H2249 C2260 0.950 . S
H2250 C2262 0.950 . S
H2251 C2263 0.950 . S
C2252 H2244 0.950 . S
C2252 C2253 1.386 . S
C2252 C2254 1.391 . S
C2253 C2252 1.386 . S
C2253 C2257 1.393 . S
C2254 H2246 0.950 . S
C2254 C2252 1.391 . S
C2254 C2255 1.400 . S
C2255 C2254 1.400 . S
C2255 C2256 1.398 . S
C2255 C2261 1.491 . S
C2256 H2247 0.950 . S
C2256 C2255 1.398 . S
C2256 C2257 1.391 . S
C2257 H2245 0.950 . S
C2257 C2253 1.393 . S
C2257 C2256 1.391 . S
C2258 H2248 0.950 . S
C2258 C2259 1.386 . S
C2258 C2260 1.391 . S
C2259 C2258 1.386 . S
C2259 C2263 1.393 . S
C2260 H2249 0.950 . S
C2260 C2258 1.391 . S
C2260 C2261 1.400 . S
C2261 C2255 1.491 . S
C2261 C2260 1.400 . S
C2261 C2262 1.398 . S
C2262 H2250 0.950 . S
C2262 C2261 1.398 . S
C2262 C2263 1.391 . S
C2263 H2251 0.950 . S
C2263 C2259 1.393 . S
C2263 C2262 1.391 . S
H2264 C2272 0.950 . S
H2265 C2277 0.950 . S
H2266 C2274 0.950 . S
H2267 C2276 0.950 . S
H2268 C2278 0.950 . S
H2269 C2280 0.950 . S
H2270 C2282 0.950 . S
H2271 C2283 0.950 . S
C2272 H2264 0.950 . S
C2272 C2273 1.386 . S
C2272 C2274 1.391 . S
C2273 C2272 1.386 . S
C2273 C2277 1.393 . S
C2274 H2266 0.950 . S
C2274 C2272 1.391 . S
C2274 C2275 1.400 . S
C2275 C2274 1.400 . S
C2275 C2276 1.398 . S
C2275 C2281 1.491 . S
C2276 H2267 0.950 . S
C2276 C2275 1.398 . S
C2276 C2277 1.391 . S
C2277 H2265 0.950 . S
C2277 C2273 1.393 . S
C2277 C2276 1.391 . S
C2278 H2268 0.950 . S
C2278 C2279 1.386 . S
C2278 C2280 1.391 . S
C2279 C2278 1.386 . S
C2279 C2283 1.393 . S
C2280 H2269 0.950 . S
C2280 C2278 1.391 . S
C2280 C2281 1.400 . S
C2281 C2275 1.491 . S
C2281 C2280 1.400 . S
C2281 C2282 1.398 . S
C2282 H2270 0.950 . S
C2282 C2281 1.398 . S
C2282 C2283 1.391 . S
C2283 H2271 0.950 . S
C2283 C2279 1.393 . S
C2283 C2282 1.391 . S
H2284 C2292 0.950 . S
H2285 C2297 0.950 . S
H2286 C2294 0.950 . S
H2287 C2296 0.950 . S
H2288 C2298 0.950 . S
H2289 C2300 0.950 . S
H2290 C2302 0.950 . S
H2291 C2303 0.950 . S
C2292 H2284 0.950 . S
C2292 C2293 1.386 . S
C2292 C2294 1.391 . S
C2293 C2292 1.386 . S
C2293 C2297 1.393 . S
C2294 H2286 0.950 . S
C2294 C2292 1.391 . S
C2294 C2295 1.400 . S
C2295 C2294 1.400 . S
C2295 C2296 1.398 . S
C2295 C2301 1.491 . S
C2296 H2287 0.950 . S
C2296 C2295 1.398 . S
C2296 C2297 1.391 . S
C2297 H2285 0.950 . S
C2297 C2293 1.393 . S
C2297 C2296 1.391 . S
C2298 H2288 0.950 . S
C2298 C2299 1.386 . S
C2298 C2300 1.391 . S
C2299 C2298 1.386 . S
C2299 C2303 1.393 . S
C2300 H2289 0.950 . S
C2300 C2298 1.391 . S
C2300 C2301 1.400 . S
C2301 C2295 1.491 . S
C2301 C2300 1.400 . S
C2301 C2302 1.398 . S
C2302 H2290 0.950 . S
C2302 C2301 1.398 . S
C2302 C2303 1.391 . S
C2303 H2291 0.950 . S
C2303 C2299 1.393 . S
C2303 C2302 1.391 . S
H2304 C2312 0.950 . S
H2305 C2317 0.950 . S
H2306 C2314 0.950 . S
H2307 C2316 0.950 . S
H2308 C2318 0.950 . S
H2309 C2320 0.950 . S
H2310 C2322 0.950 . S
H2311 C2323 0.950 . S
C2312 H2304 0.950 . S
C2312 C2313 1.386 . S
C2312 C2314 1.391 . S
C2313 C2312 1.386 . S
C2313 C2317 1.393 . S
C2314 H2306 0.950 . S
C2314 C2312 1.391 . S
C2314 C2315 1.400 . S
C2315 C2314 1.400 . S
C2315 C2316 1.398 . S
C2315 C2321 1.491 . S
C2316 H2307 0.950 . S
C2316 C2315 1.398 . S
C2316 C2317 1.391 . S
C2317 H2305 0.950 . S
C2317 C2313 1.393 . S
C2317 C2316 1.391 . S
C2318 H2308 0.950 . S
C2318 C2319 1.386 . S
C2318 C2320 1.391 . S
C2319 C2318 1.386 . S
C2319 C2323 1.393 . S
C2320 H2309 0.950 . S
C2320 C2318 1.391 . S
C2320 C2321 1.400 . S
C2321 C2315 1.491 . S
C2321 C2320 1.400 . S
C2321 C2322 1.398 . S
C2322 H2310 0.950 . S
C2322 C2321 1.398 . S
C2322 C2323 1.391 . S
C2323 H2311 0.950 . S
C2323 C2319 1.393 . S
C2323 C2322 1.391 . S
H2324 C2332 0.950 . S
H2325 C2337 0.950 . S
H2326 C2334 0.950 . S
H2327 C2336 0.950 . S
H2328 C2338 0.950 . S
H2329 C2340 0.950 . S
H2330 C2342 0.950 . S
H2331 C2343 0.950 . S
C2332 H2324 0.950 . S
C2332 C2333 1.386 . S
C2332 C2334 1.391 . S
C2333 C2332 1.386 . S
C2333 C2337 1.393 . S
C2334 H2326 0.950 . S
C2334 C2332 1.391 . S
C2334 C2335 1.400 . S
C2335 C2334 1.400 . S
C2335 C2336 1.398 . S
C2335 C2341 1.491 . S
C2336 H2327 0.950 . S
C2336 C2335 1.398 . S
C2336 C2337 1.391 . S
C2337 H2325 0.950 . S
C2337 C2333 1.393 . S
C2337 C2336 1.391 . S
C2338 H2328 0.950 . S
C2338 C2339 1.386 . S
C2338 C2340 1.391 . S
C2339 C2338 1.386 . S
C2339 C2343 1.393 . S
C2340 H2329 0.950 . S
C2340 C2338 1.391 . S
C2340 C2341 1.400 . S
C2341 C2335 1.491 . S
C2341 C2340 1.400 . S
C2341 C2342 1.398 . S
C2342 H2330 0.950 . S
C2342 C2341 1.398 . S
C2342 C2343 1.391 . S
C2343 H2331 0.950 . S
C2343 C2339 1.393 . S
C2343 C2342 1.391 . S
H2344 C2352 0.950 . S
H2345 C2357 0.950 . S
H2346 C2354 0.950 . S
H2347 C2356 0.950 . S
H2348 C2358 0.950 . S
H2349 C2360 0.950 . S
H2350 C2362 0.950 . S
H2351 C2363 0.950 . S
C2352 H2344 0.950 . S
C2352 C2353 1.386 . S
C2352 C2354 1.391 . S
C2353 C2352 1.386 . S
C2353 C2357 1.393 . S
C2354 H2346 0.950 . S
C2354 C2352 1.391 . S
C2354 C2355 1.400 . S
C2355 C2354 1.400 . S
C2355 C2356 1.398 . S
C2355 C2361 1.491 . S
C2356 H2347 0.950 . S
C2356 C2355 1.398 . S
C2356 C2357 1.391 . S
C2357 H2345 0.950 . S
C2357 C2353 1.393 . S
C2357 C2356 1.391 . S
C2358 H2348 0.950 . S
C2358 C2359 1.386 . S
C2358 C2360 1.391 . S
C2359 C2358 1.386 . S
C2359 C2363 1.393 . S
C2360 H2349 0.950 . S
C2360 C2358 1.391 . S
C2360 C2361 1.400 . S
C2361 C2355 1.491 . S
C2361 C2360 1.400 . S
C2361 C2362 1.398 . S
C2362 H2350 0.950 . S
C2362 C2361 1.398 . S
C2362 C2363 1.391 . S
C2363 H2351 0.950 . S
C2363 C2359 1.393 . S
C2363 C2362 1.391 . S
H2364 C2372 0.950 . S
H2365 C2377 0.950 . S
H2366 C2374 0.950 . S
H2367 C2376 0.950 . S
H2368 C2378 0.950 . S
H2369 C2380 0.950 . S
H2370 C2382 0.950 . S
H2371 C2383 0.950 . S
C2372 H2364 0.950 . S
C2372 C2373 1.386 . S
C2372 C2374 1.391 . S
C2373 C2372 1.386 . S
C2373 C2377 1.393 . S
C2374 H2366 0.950 . S
C2374 C2372 1.391 . S
C2374 C2375 1.400 . S
C2375 C2374 1.400 . S
C2375 C2376 1.398 . S
C2375 C2381 1.491 . S
C2376 H2367 0.950 . S
C2376 C2375 1.398 . S
C2376 C2377 1.391 . S
C2377 H2365 0.950 . S
C2377 C2373 1.393 . S
C2377 C2376 1.391 . S
C2378 H2368 0.950 . S
C2378 C2379 1.386 . S
C2378 C2380 1.391 . S
C2379 C2378 1.386 . S
C2379 C2383 1.393 . S
C2380 H2369 0.950 . S
C2380 C2378 1.391 . S
C2380 C2381 1.400 . S
C2381 C2375 1.491 . S
C2381 C2380 1.400 . S
C2381 C2382 1.398 . S
C2382 H2370 0.950 . S
C2382 C2381 1.398 . S
C2382 C2383 1.391 . S
C2383 H2371 0.950 . S
C2383 C2379 1.393 . S
C2383 C2382 1.391 . S
H2384 C2392 0.950 . S
H2385 C2397 0.950 . S
H2386 C2394 0.950 . S
H2387 C2396 0.950 . S
H2388 C2398 0.950 . S
H2389 C2400 0.950 . S
H2390 C2402 0.950 . S
H2391 C2403 0.950 . S
C2392 H2384 0.950 . S
C2392 C2393 1.386 . S
C2392 C2394 1.391 . S
C2393 C2392 1.386 . S
C2393 C2397 1.393 . S
C2394 H2386 0.950 . S
C2394 C2392 1.391 . S
C2394 C2395 1.400 . S
C2395 C2394 1.400 . S
C2395 C2396 1.398 . S
C2395 C2401 1.491 . S
C2396 H2387 0.950 . S
C2396 C2395 1.398 . S
C2396 C2397 1.391 . S
C2397 H2385 0.950 . S
C2397 C2393 1.393 . S
C2397 C2396 1.391 . S
C2398 H2388 0.950 . S
C2398 C2399 1.386 . S
C2398 C2400 1.391 . S
C2399 C2398 1.386 . S
C2399 C2403 1.393 . S
C2400 H2389 0.950 . S
C2400 C2398 1.391 . S
C2400 C2401 1.400 . S
C2401 C2395 1.491 . S
C2401 C2400 1.400 . S
C2401 C2402 1.398 . S
C2402 H2390 0.950 . S
C2402 C2401 1.398 . S
C2402 C2403 1.391 . S
C2403 H2391 0.950 . S
C2403 C2399 1.393 . S
C2403 C2402 1.391 . S
H2404 C2412 0.950 . S
H2405 C2417 0.950 . S
H2406 C2414 0.950 . S
H2407 C2416 0.950 . S
H2408 C2418 0.950 . S
H2409 C2420 0.950 . S
H2410 C2422 0.950 . S
H2411 C2423 0.950 . S
C2412 H2404 0.950 . S
C2412 C2413 1.386 . S
C2412 C2414 1.391 . S
C2413 C2412 1.386 . S
C2413 C2417 1.393 . S
C2414 H2406 0.950 . S
C2414 C2412 1.391 . S
C2414 C2415 1.400 . S
C2415 C2414 1.400 . S
C2415 C2416 1.398 . S
C2415 C2421 1.491 . S
C2416 H2407 0.950 . S
C2416 C2415 1.398 . S
C2416 C2417 1.391 . S
C2417 H2405 0.950 . S
C2417 C2413 1.393 . S
C2417 C2416 1.391 . S
C2418 H2408 0.950 . S
C2418 C2419 1.386 . S
C2418 C2420 1.391 . S
C2419 C2418 1.386 . S
C2419 C2423 1.393 . S
C2420 H2409 0.950 . S
C2420 C2418 1.391 . S
C2420 C2421 1.400 . S
C2421 C2415 1.491 . S
C2421 C2420 1.400 . S
C2421 C2422 1.398 . S
C2422 H2410 0.950 . S
C2422 C2421 1.398 . S
C2422 C2423 1.391 . S
C2423 H2411 0.950 . S
C2423 C2419 1.393 . S
C2423 C2422 1.391 . S
H2424 C2432 0.950 . S
H2425 C2437 0.950 . S
H2426 C2434 0.950 . S
H2427 C2436 0.950 . S
H2428 C2438 0.950 . S
H2429 C2440 0.950 . S
H2430 C2442 0.950 . S
H2431 C2443 0.950 . S
C2432 H2424 0.950 . S
C2432 C2433 1.386 . S
C2432 C2434 1.391 . S
C2433 C2432 1.386 . S
C2433 C2437 1.393 . S
C2434 H2426 0.950 . S
C2434 C2432 1.391 . S
C2434 C2435 1.400 . S
C2435 C2434 1.400 . S
C2435 C2436 1.398 . S
C2435 C2441 1.491 . S
C2436 H2427 0.950 . S
C2436 C2435 1.398 . S
C2436 C2437 1.391 . S
C2437 H2425 0.950 . S
C2437 C2433 1.393 . S
C2437 C2436 1.391 . S
C2438 H2428 0.950 . S
C2438 C2439 1.386 . S
C2438 C2440 1.391 . S
C2439 C2438 1.386 . S
C2439 C2443 1.393 . S
C2440 H2429 0.950 . S
C2440 C2438 1.391 . S
C2440 C2441 1.400 . S
C2441 C2435 1.491 . S
C2441 C2440 1.400 . S
C2441 C2442 1.398 . S
C2442 H2430 0.950 . S
C2442 C2441 1.398 . S
C2442 C2443 1.391 . S
C2443 H2431 0.950 . S
C2443 C2439 1.393 . S
C2443 C2442 1.391 . S
H2444 C2452 0.950 . S
H2445 C2457 0.950 . S
H2446 C2454 0.950 . S
H2447 C2456 0.950 . S
H2448 C2458 0.950 . S
H2449 C2460 0.950 . S
H2450 C2462 0.950 . S
H2451 C2463 0.950 . S
C2452 H2444 0.950 . S
C2452 C2453 1.386 . S
C2452 C2454 1.391 . S
C2453 C2452 1.386 . S
C2453 C2457 1.393 . S
C2454 H2446 0.950 . S
C2454 C2452 1.391 . S
C2454 C2455 1.400 . S
C2455 C2454 1.400 . S
C2455 C2456 1.398 . S
C2455 C2461 1.491 . S
C2456 H2447 0.950 . S
C2456 C2455 1.398 . S
C2456 C2457 1.391 . S
C2457 H2445 0.950 . S
C2457 C2453 1.393 . S
C2457 C2456 1.391 . S
C2458 H2448 0.950 . S
C2458 C2459 1.386 . S
C2458 C2460 1.391 . S
C2459 C2458 1.386 . S
C2459 C2463 1.393 . S
C2460 H2449 0.950 . S
C2460 C2458 1.391 . S
C2460 C2461 1.400 . S
C2461 C2455 1.491 . S
C2461 C2460 1.400 . S
C2461 C2462 1.398 . S
C2462 H2450 0.950 . S
C2462 C2461 1.398 . S
C2462 C2463 1.391 . S
C2463 H2451 0.950 . S
C2463 C2459 1.393 . S
C2463 C2462 1.391 . S
H2464 C2472 0.950 . S
H2465 C2477 0.950 . S
H2466 C2474 0.950 . S
H2467 C2476 0.950 . S
H2468 C2478 0.950 . S
H2469 C2480 0.950 . S
H2470 C2482 0.950 . S
H2471 C2483 0.950 . S
C2472 H2464 0.950 . S
C2472 C2473 1.386 . S
C2472 C2474 1.391 . S
C2473 C2472 1.386 . S
C2473 C2477 1.393 . S
C2474 H2466 0.950 . S
C2474 C2472 1.391 . S
C2474 C2475 1.400 . S
C2475 C2474 1.400 . S
C2475 C2476 1.398 . S
C2475 C2481 1.491 . S
C2476 H2467 0.950 . S
C2476 C2475 1.398 . S
C2476 C2477 1.391 . S
C2477 H2465 0.950 . S
C2477 C2473 1.393 . S
C2477 C2476 1.391 . S
C2478 H2468 0.950 . S
C2478 C2479 1.386 . S
C2478 C2480 1.391 . S
C2479 C2478 1.386 . S
C2479 C2483 1.393 . S
C2480 H2469 0.950 . S
C2480 C2478 1.391 . S
C2480 C2481 1.400 . S
C2481 C2475 1.491 . S
C2481 C2480 1.400 . S
C2481 C2482 1.398 . S
C2482 H2470 0.950 . S
C2482 C2481 1.398 . S
C2482 C2483 1.391 . S
C2483 H2471 0.950 . S
C2483 C2479 1.393 . S
C2483 C2482 1.391 . S
H2484 C2492 0.950 . S
H2485 C2497 0.950 . S
H2486 C2494 0.950 . S
H2487 C2496 0.950 . S
H2488 C2498 0.950 . S
H2489 C2500 0.950 . S
H2490 C2502 0.950 . S
H2491 C2503 0.950 . S
C2492 H2484 0.950 . S
C2492 C2493 1.386 . S
C2492 C2494 1.391 . S
C2493 C2492 1.386 . S
C2493 C2497 1.393 . S
C2494 H2486 0.950 . S
C2494 C2492 1.391 . S
C2494 C2495 1.400 . S
C2495 C2494 1.400 . S
C2495 C2496 1.398 . S
C2495 C2501 1.491 . S
C2496 H2487 0.950 . S
C2496 C2495 1.398 . S
C2496 C2497 1.391 . S
C2497 H2485 0.950 . S
C2497 C2493 1.393 . S
C2497 C2496 1.391 . S
C2498 H2488 0.950 . S
C2498 C2499 1.386 . S
C2498 C2500 1.391 . S
C2499 C2498 1.386 . S
C2499 C2503 1.393 . S
C2500 H2489 0.950 . S
C2500 C2498 1.391 . S
C2500 C2501 1.400 . S
C2501 C2495 1.491 . S
C2501 C2500 1.400 . S
C2501 C2502 1.398 . S
C2502 H2490 0.950 . S
C2502 C2501 1.398 . S
C2502 C2503 1.391 . S
C2503 H2491 0.950 . S
C2503 C2499 1.393 . S
C2503 C2502 1.391 . S
H2504 C2512 0.950 . S
H2505 C2517 0.950 . S
H2506 C2514 0.950 . S
H2507 C2516 0.950 . S
H2508 C2518 0.950 . S
H2509 C2520 0.950 . S
H2510 C2522 0.950 . S
H2511 C2523 0.950 . S
C2512 H2504 0.950 . S
C2512 C2513 1.386 . S
C2512 C2514 1.391 . S
C2513 C2512 1.386 . S
C2513 C2517 1.393 . S
C2514 H2506 0.950 . S
C2514 C2512 1.391 . S
C2514 C2515 1.400 . S
C2515 C2514 1.400 . S
C2515 C2516 1.398 . S
C2515 C2521 1.491 . S
C2516 H2507 0.950 . S
C2516 C2515 1.398 . S
C2516 C2517 1.391 . S
C2517 H2505 0.950 . S
C2517 C2513 1.393 . S
C2517 C2516 1.391 . S
C2518 H2508 0.950 . S
C2518 C2519 1.386 . S
C2518 C2520 1.391 . S
C2519 C2518 1.386 . S
C2519 C2523 1.393 . S
C2520 H2509 0.950 . S
C2520 C2518 1.391 . S
C2520 C2521 1.400 . S
C2521 C2515 1.491 . S
C2521 C2520 1.400 . S
C2521 C2522 1.398 . S
C2522 H2510 0.950 . S
C2522 C2521 1.398 . S
C2522 C2523 1.391 . S
C2523 H2511 0.950 . S
C2523 C2519 1.393 . S
C2523 C2522 1.391 . S
H2524 C2532 0.950 . S
H2525 C2537 0.950 . S
H2526 C2534 0.950 . S
H2527 C2536 0.950 . S
H2528 C2538 0.950 . S
H2529 C2540 0.950 . S
H2530 C2542 0.950 . S
H2531 C2543 0.950 . S
C2532 H2524 0.950 . S
C2532 C2533 1.386 . S
C2532 C2534 1.391 . S
C2533 C2532 1.386 . S
C2533 C2537 1.393 . S
C2534 H2526 0.950 . S
C2534 C2532 1.391 . S
C2534 C2535 1.400 . S
C2535 C2534 1.400 . S
C2535 C2536 1.398 . S
C2535 C2541 1.491 . S
C2536 H2527 0.950 . S
C2536 C2535 1.398 . S
C2536 C2537 1.391 . S
C2537 H2525 0.950 . S
C2537 C2533 1.393 . S
C2537 C2536 1.391 . S
C2538 H2528 0.950 . S
C2538 C2539 1.386 . S
C2538 C2540 1.391 . S
C2539 C2538 1.386 . S
C2539 C2543 1.393 . S
C2540 H2529 0.950 . S
C2540 C2538 1.391 . S
C2540 C2541 1.400 . S
C2541 C2535 1.491 . S
C2541 C2540 1.400 . S
C2541 C2542 1.398 . S
C2542 H2530 0.950 . S
C2542 C2541 1.398 . S
C2542 C2543 1.391 . S
C2543 H2531 0.950 . S
C2543 C2539 1.393 . S
C2543 C2542 1.391 . S
H2544 C2552 0.950 . S
H2545 C2557 0.950 . S
H2546 C2554 0.950 . S
H2547 C2556 0.950 . S
H2548 C2558 0.950 . S
H2549 C2560 0.950 . S
H2550 C2562 0.950 . S
H2551 C2563 0.950 . S
C2552 H2544 0.950 . S
C2552 C2553 1.386 . S
C2552 C2554 1.391 . S
C2553 C2552 1.386 . S
C2553 C2557 1.393 . S
C2554 H2546 0.950 . S
C2554 C2552 1.391 . S
C2554 C2555 1.400 . S
C2555 C2554 1.400 . S
C2555 C2556 1.398 . S
C2555 C2561 1.491 . S
C2556 H2547 0.950 . S
C2556 C2555 1.398 . S
C2556 C2557 1.391 . S
C2557 H2545 0.950 . S
C2557 C2553 1.393 . S
C2557 C2556 1.391 . S
C2558 H2548 0.950 . S
C2558 C2559 1.386 . S
C2558 C2560 1.391 . S
C2559 C2558 1.386 . S
C2559 C2563 1.393 . S
C2560 H2549 0.950 . S
C2560 C2558 1.391 . S
C2560 C2561 1.400 . S
C2561 C2555 1.491 . S
C2561 C2560 1.400 . S
C2561 C2562 1.398 . S
C2562 H2550 0.950 . S
C2562 C2561 1.398 . S
C2562 C2563 1.391 . S
C2563 H2551 0.950 . S
C2563 C2559 1.393 . S
C2563 C2562 1.391 . S
H2564 C2572 0.950 . S
H2565 C2577 0.950 . S
H2566 C2574 0.950 . S
H2567 C2576 0.950 . S
H2568 C2578 0.950 . S
H2569 C2580 0.950 . S
H2570 C2582 0.950 . S
H2571 C2583 0.950 . S
C2572 H2564 0.950 . S
C2572 C2573 1.386 . S
C2572 C2574 1.391 . S
C2573 C2572 1.386 . S
C2573 C2577 1.393 . S
C2574 H2566 0.950 . S
C2574 C2572 1.391 . S
C2574 C2575 1.400 . S
C2575 C2574 1.400 . S
C2575 C2576 1.398 . S
C2575 C2581 1.491 . S
C2576 H2567 0.950 . S
C2576 C2575 1.398 . S
C2576 C2577 1.391 . S
C2577 H2565 0.950 . S
C2577 C2573 1.393 . S
C2577 C2576 1.391 . S
C2578 H2568 0.950 . S
C2578 C2579 1.386 . S
C2578 C2580 1.391 . S
C2579 C2578 1.386 . S
C2579 C2583 1.393 . S
C2580 H2569 0.950 . S
C2580 C2578 1.391 . S
C2580 C2581 1.400 . S
C2581 C2575 1.491 . S
C2581 C2580 1.400 . S
C2581 C2582 1.398 . S
C2582 H2570 0.950 . S
C2582 C2581 1.398 . S
C2582 C2583 1.391 . S
C2583 H2571 0.950 . S
C2583 C2579 1.393 . S
C2583 C2582 1.391 . S
H2584 C2592 0.950 . S
H2585 C2597 0.950 . S
H2586 C2594 0.950 . S
H2587 C2596 0.950 . S
H2588 C2598 0.950 . S
H2589 C2600 0.950 . S
H2590 C2602 0.950 . S
H2591 C2603 0.950 . S
C2592 H2584 0.950 . S
C2592 C2593 1.386 . S
C2592 C2594 1.391 . S
C2593 C2592 1.386 . S
C2593 C2597 1.393 . S
C2594 H2586 0.950 . S
C2594 C2592 1.391 . S
C2594 C2595 1.400 . S
C2595 C2594 1.400 . S
C2595 C2596 1.398 . S
C2595 C2601 1.491 . S
C2596 H2587 0.950 . S
C2596 C2595 1.398 . S
C2596 C2597 1.391 . S
C2597 H2585 0.950 . S
C2597 C2593 1.393 . S
C2597 C2596 1.391 . S
C2598 H2588 0.950 . S
C2598 C2599 1.386 . S
C2598 C2600 1.391 . S
C2599 C2598 1.386 . S
C2599 C2603 1.393 . S
C2600 H2589 0.950 . S
C2600 C2598 1.391 . S
C2600 C2601 1.400 . S
C2601 C2595 1.491 . S
C2601 C2600 1.400 . S
C2601 C2602 1.398 . S
C2602 H2590 0.950 . S
C2602 C2601 1.398 . S
C2602 C2603 1.391 . S
C2603 H2591 0.950 . S
C2603 C2599 1.393 . S
C2603 C2602 1.391 . S
H2604 C2612 0.950 . S
H2605 C2617 0.950 . S
H2606 C2614 0.950 . S
H2607 C2616 0.950 . S
H2608 C2618 0.950 . S
H2609 C2620 0.950 . S
H2610 C2622 0.950 . S
H2611 C2623 0.950 . S
C2612 H2604 0.950 . S
C2612 C2613 1.386 . S
C2612 C2614 1.391 . S
C2613 C2612 1.386 . S
C2613 C2617 1.393 . S
C2614 H2606 0.950 . S
C2614 C2612 1.391 . S
C2614 C2615 1.400 . S
C2615 C2614 1.400 . S
C2615 C2616 1.398 . S
C2615 C2621 1.491 . S
C2616 H2607 0.950 . S
C2616 C2615 1.398 . S
C2616 C2617 1.391 . S
C2617 H2605 0.950 . S
C2617 C2613 1.393 . S
C2617 C2616 1.391 . S
C2618 H2608 0.950 . S
C2618 C2619 1.386 . S
C2618 C2620 1.391 . S
C2619 C2618 1.386 . S
C2619 C2623 1.393 . S
C2620 H2609 0.950 . S
C2620 C2618 1.391 . S
C2620 C2621 1.400 . S
C2621 C2615 1.491 . S
C2621 C2620 1.400 . S
C2621 C2622 1.398 . S
C2622 H2610 0.950 . S
C2622 C2621 1.398 . S
C2622 C2623 1.391 . S
C2623 H2611 0.950 . S
C2623 C2619 1.393 . S
C2623 C2622 1.391 . S
H2624 C2632 0.950 . S
H2625 C2637 0.950 . S
H2626 C2634 0.950 . S
H2627 C2636 0.950 . S
H2628 C2638 0.950 . S
H2629 C2640 0.950 . S
H2630 C2642 0.950 . S
H2631 C2643 0.950 . S
C2632 H2624 0.950 . S
C2632 C2633 1.386 . S
C2632 C2634 1.391 . S
C2633 C2632 1.386 . S
C2633 C2637 1.393 . S
C2634 H2626 0.950 . S
C2634 C2632 1.391 . S
C2634 C2635 1.400 . S
C2635 C2634 1.400 . S
C2635 C2636 1.398 . S
C2635 C2641 1.491 . S
C2636 H2627 0.950 . S
C2636 C2635 1.398 . S
C2636 C2637 1.391 . S
C2637 H2625 0.950 . S
C2637 C2633 1.393 . S
C2637 C2636 1.391 . S
C2638 H2628 0.950 . S
C2638 C2639 1.386 . S
C2638 C2640 1.391 . S
C2639 C2638 1.386 . S
C2639 C2643 1.393 . S
C2640 H2629 0.950 . S
C2640 C2638 1.391 . S
C2640 C2641 1.400 . S
C2641 C2635 1.491 . S
C2641 C2640 1.400 . S
C2641 C2642 1.398 . S
C2642 H2630 0.950 . S
C2642 C2641 1.398 . S
C2642 C2643 1.391 . S
C2643 H2631 0.950 . S
C2643 C2639 1.393 . S
C2643 C2642 1.391 . S
H2644 C2652 0.950 . S
H2645 C2657 0.950 . S
H2646 C2654 0.950 . S
H2647 C2656 0.950 . S
H2648 C2658 0.950 . S
H2649 C2660 0.950 . S
H2650 C2662 0.950 . S
H2651 C2663 0.950 . S
C2652 H2644 0.950 . S
C2652 C2653 1.386 . S
C2652 C2654 1.391 . S
C2653 C2652 1.386 . S
C2653 C2657 1.393 . S
C2654 H2646 0.950 . S
C2654 C2652 1.391 . S
C2654 C2655 1.400 . S
C2655 C2654 1.400 . S
C2655 C2656 1.398 . S
C2655 C2661 1.491 . S
C2656 H2647 0.950 . S
C2656 C2655 1.398 . S
C2656 C2657 1.391 . S
C2657 H2645 0.950 . S
C2657 C2653 1.393 . S
C2657 C2656 1.391 . S
C2658 H2648 0.950 . S
C2658 C2659 1.386 . S
C2658 C2660 1.391 . S
C2659 C2658 1.386 . S
C2659 C2663 1.393 . S
C2660 H2649 0.950 . S
C2660 C2658 1.391 . S
C2660 C2661 1.400 . S
C2661 C2655 1.491 . S
C2661 C2660 1.400 . S
C2661 C2662 1.398 . S
C2662 H2650 0.950 . S
C2662 C2661 1.398 . S
C2662 C2663 1.391 . S
C2663 H2651 0.950 . S
C2663 C2659 1.393 . S
C2663 C2662 1.391 . S
H2664 C2672 0.950 . S
H2665 C2677 0.950 . S
H2666 C2674 0.950 . S
H2667 C2676 0.950 . S
H2668 C2678 0.950 . S
H2669 C2680 0.950 . S
H2670 C2682 0.950 . S
H2671 C2683 0.950 . S
C2672 H2664 0.950 . S
C2672 C2673 1.386 . S
C2672 C2674 1.391 . S
C2673 C2672 1.386 . S
C2673 C2677 1.393 . S
C2674 H2666 0.950 . S
C2674 C2672 1.391 . S
C2674 C2675 1.400 . S
C2675 C2674 1.400 . S
C2675 C2676 1.398 . S
C2675 C2681 1.491 . S
C2676 H2667 0.950 . S
C2676 C2675 1.398 . S
C2676 C2677 1.391 . S
C2677 H2665 0.950 . S
C2677 C2673 1.393 . S
C2677 C2676 1.391 . S
C2678 H2668 0.950 . S
C2678 C2679 1.386 . S
C2678 C2680 1.391 . S
C2679 C2678 1.386 . S
C2679 C2683 1.393 . S
C2680 H2669 0.950 . S
C2680 C2678 1.391 . S
C2680 C2681 1.400 . S
C2681 C2675 1.491 . S
C2681 C2680 1.400 . S
C2681 C2682 1.398 . S
C2682 H2670 0.950 . S
C2682 C2681 1.398 . S
C2682 C2683 1.391 . S
C2683 H2671 0.950 . S
C2683 C2679 1.393 . S
C2683 C2682 1.391 . S
H2684 C2692 0.950 . S
H2685 C2697 0.950 . S
H2686 C2694 0.950 . S
H2687 C2696 0.950 . S
H2688 C2698 0.950 . S
H2689 C2700 0.950 . S
H2690 C2702 0.950 . S
H2691 C2703 0.950 . S
C2692 H2684 0.950 . S
C2692 C2693 1.386 . S
C2692 C2694 1.391 . S
C2693 C2692 1.386 . S
C2693 C2697 1.393 . S
C2694 H2686 0.950 . S
C2694 C2692 1.391 . S
C2694 C2695 1.400 . S
C2695 C2694 1.400 . S
C2695 C2696 1.398 . S
C2695 C2701 1.491 . S
C2696 H2687 0.950 . S
C2696 C2695 1.398 . S
C2696 C2697 1.391 . S
C2697 H2685 0.950 . S
C2697 C2693 1.393 . S
C2697 C2696 1.391 . S
C2698 H2688 0.950 . S
C2698 C2699 1.386 . S
C2698 C2700 1.391 . S
C2699 C2698 1.386 . S
C2699 C2703 1.393 . S
C2700 H2689 0.950 . S
C2700 C2698 1.391 . S
C2700 C2701 1.400 . S
C2701 C2695 1.491 . S
C2701 C2700 1.400 . S
C2701 C2702 1.398 . S
C2702 H2690 0.950 . S
C2702 C2701 1.398 . S
C2702 C2703 1.391 . S
C2703 H2691 0.950 . S
C2703 C2699 1.393 . S
C2703 C2702 1.391 . S
H2704 C2712 0.950 . S
H2705 C2717 0.950 . S
H2706 C2714 0.950 . S
H2707 C2716 0.950 . S
H2708 C2718 0.950 . S
H2709 C2720 0.950 . S
H2710 C2722 0.950 . S
H2711 C2723 0.950 . S
C2712 H2704 0.950 . S
C2712 C2713 1.386 . S
C2712 C2714 1.391 . S
C2713 C2712 1.386 . S
C2713 C2717 1.393 . S
C2714 H2706 0.950 . S
C2714 C2712 1.391 . S
C2714 C2715 1.400 . S
C2715 C2714 1.400 . S
C2715 C2716 1.398 . S
C2715 C2721 1.491 . S
C2716 H2707 0.950 . S
C2716 C2715 1.398 . S
C2716 C2717 1.391 . S
C2717 H2705 0.950 . S
C2717 C2713 1.393 . S
C2717 C2716 1.391 . S
C2718 H2708 0.950 . S
C2718 C2719 1.386 . S
C2718 C2720 1.391 . S
C2719 C2718 1.386 . S
C2719 C2723 1.393 . S
C2720 H2709 0.950 . S
C2720 C2718 1.391 . S
C2720 C2721 1.400 . S
C2721 C2715 1.491 . S
C2721 C2720 1.400 . S
C2721 C2722 1.398 . S
C2722 H2710 0.950 . S
C2722 C2721 1.398 . S
C2722 C2723 1.391 . S
C2723 H2711 0.950 . S
C2723 C2719 1.393 . S
C2723 C2722 1.391 . S
H2724 C2732 0.950 . S
H2725 C2737 0.950 . S
H2726 C2734 0.950 . S
H2727 C2736 0.950 . S
H2728 C2738 0.950 . S
H2729 C2740 0.950 . S
H2730 C2742 0.950 . S
H2731 C2743 0.950 . S
C2732 H2724 0.950 . S
C2732 C2733 1.386 . S
C2732 C2734 1.391 . S
C2733 C2732 1.386 . S
C2733 C2737 1.393 . S
C2734 H2726 0.950 . S
C2734 C2732 1.391 . S
C2734 C2735 1.400 . S
C2735 C2734 1.400 . S
C2735 C2736 1.398 . S
C2735 C2741 1.491 . S
C2736 H2727 0.950 . S
C2736 C2735 1.398 . S
C2736 C2737 1.391 . S
C2737 H2725 0.950 . S
C2737 C2733 1.393 . S
C2737 C2736 1.391 . S
C2738 H2728 0.950 . S
C2738 C2739 1.386 . S
C2738 C2740 1.391 . S
C2739 C2738 1.386 . S
C2739 C2743 1.393 . S
C2740 H2729 0.950 . S
C2740 C2738 1.391 . S
C2740 C2741 1.400 . S
C2741 C2735 1.491 . S
C2741 C2740 1.400 . S
C2741 C2742 1.398 . S
C2742 H2730 0.950 . S
C2742 C2741 1.398 . S
C2742 C2743 1.391 . S
C2743 H2731 0.950 . S
C2743 C2739 1.393 . S
C2743 C2742 1.391 . S
H2744 C2752 0.950 . S
H2745 C2757 0.950 . S
H2746 C2754 0.950 . S
H2747 C2756 0.950 . S
H2748 C2758 0.950 . S
H2749 C2760 0.950 . S
H2750 C2762 0.950 . S
H2751 C2763 0.950 . S
C2752 H2744 0.950 . S
C2752 C2753 1.386 . S
C2752 C2754 1.391 . S
C2753 C2752 1.386 . S
C2753 C2757 1.393 . S
C2754 H2746 0.950 . S
C2754 C2752 1.391 . S
C2754 C2755 1.400 . S
C2755 C2754 1.400 . S
C2755 C2756 1.398 . S
C2755 C2761 1.491 . S
C2756 H2747 0.950 . S
C2756 C2755 1.398 . S
C2756 C2757 1.391 . S
C2757 H2745 0.950 . S
C2757 C2753 1.393 . S
C2757 C2756 1.391 . S
C2758 H2748 0.950 . S
C2758 C2759 1.386 . S
C2758 C2760 1.391 . S
C2759 C2758 1.386 . S
C2759 C2763 1.393 . S
C2760 H2749 0.950 . S
C2760 C2758 1.391 . S
C2760 C2761 1.400 . S
C2761 C2755 1.491 . S
C2761 C2760 1.400 . S
C2761 C2762 1.398 . S
C2762 H2750 0.950 . S
C2762 C2761 1.398 . S
C2762 C2763 1.391 . S
C2763 H2751 0.950 . S
C2763 C2759 1.393 . S
C2763 C2762 1.391 . S
H2764 C2772 0.950 . S
H2765 C2777 0.950 . S
H2766 C2774 0.950 . S
H2767 C2776 0.950 . S
H2768 C2778 0.950 . S
H2769 C2780 0.950 . S
H2770 C2782 0.950 . S
H2771 C2783 0.950 . S
C2772 H2764 0.950 . S
C2772 C2773 1.386 . S
C2772 C2774 1.391 . S
C2773 C2772 1.386 . S
C2773 C2777 1.393 . S
C2774 H2766 0.950 . S
C2774 C2772 1.391 . S
C2774 C2775 1.400 . S
C2775 C2774 1.400 . S
C2775 C2776 1.398 . S
C2775 C2781 1.491 . S
C2776 H2767 0.950 . S
C2776 C2775 1.398 . S
C2776 C2777 1.391 . S
C2777 H2765 0.950 . S
C2777 C2773 1.393 . S
C2777 C2776 1.391 . S
C2778 H2768 0.950 . S
C2778 C2779 1.386 . S
C2778 C2780 1.391 . S
C2779 C2778 1.386 . S
C2779 C2783 1.393 . S
C2780 H2769 0.950 . S
C2780 C2778 1.391 . S
C2780 C2781 1.400 . S
C2781 C2775 1.491 . S
C2781 C2780 1.400 . S
C2781 C2782 1.398 . S
C2782 H2770 0.950 . S
C2782 C2781 1.398 . S
C2782 C2783 1.391 . S
C2783 H2771 0.950 . S
C2783 C2779 1.393 . S
C2783 C2782 1.391 . S
H2784 C2792 0.950 . S
H2785 C2797 0.950 . S
H2786 C2794 0.950 . S
H2787 C2796 0.950 . S
H2788 C2798 0.950 . S
H2789 C2800 0.950 . S
H2790 C2802 0.950 . S
H2791 C2803 0.950 . S
C2792 H2784 0.950 . S
C2792 C2793 1.386 . S
C2792 C2794 1.391 . S
C2793 C2792 1.386 . S
C2793 C2797 1.393 . S
C2794 H2786 0.950 . S
C2794 C2792 1.391 . S
C2794 C2795 1.400 . S
C2795 C2794 1.400 . S
C2795 C2796 1.398 . S
C2795 C2801 1.491 . S
C2796 H2787 0.950 . S
C2796 C2795 1.398 . S
C2796 C2797 1.391 . S
C2797 H2785 0.950 . S
C2797 C2793 1.393 . S
C2797 C2796 1.391 . S
C2798 H2788 0.950 . S
C2798 C2799 1.386 . S
C2798 C2800 1.391 . S
C2799 C2798 1.386 . S
C2799 C2803 1.393 . S
C2800 H2789 0.950 . S
C2800 C2798 1.391 . S
C2800 C2801 1.400 . S
C2801 C2795 1.491 . S
C2801 C2800 1.400 . S
C2801 C2802 1.398 . S
C2802 H2790 0.950 . S
C2802 C2801 1.398 . S
C2802 C2803 1.391 . S
C2803 H2791 0.950 . S
C2803 C2799 1.393 . S
C2803 C2802 1.391 . S
H2804 C2812 0.950 . S
H2805 C2817 0.950 . S
H2806 C2814 0.950 . S
H2807 C2816 0.950 . S
H2808 C2818 0.950 . S
H2809 C2820 0.950 . S
H2810 C2822 0.950 . S
H2811 C2823 0.950 . S
C2812 H2804 0.950 . S
C2812 C2813 1.386 . S
C2812 C2814 1.391 . S
C2813 C2812 1.386 . S
C2813 C2817 1.393 . S
C2814 H2806 0.950 . S
C2814 C2812 1.391 . S
C2814 C2815 1.400 . S
C2815 C2814 1.400 . S
C2815 C2816 1.398 . S
C2815 C2821 1.491 . S
C2816 H2807 0.950 . S
C2816 C2815 1.398 . S
C2816 C2817 1.391 . S
C2817 H2805 0.950 . S
C2817 C2813 1.393 . S
C2817 C2816 1.391 . S
C2818 H2808 0.950 . S
C2818 C2819 1.386 . S
C2818 C2820 1.391 . S
C2819 C2818 1.386 . S
C2819 C2823 1.393 . S
C2820 H2809 0.950 . S
C2820 C2818 1.391 . S
C2820 C2821 1.400 . S
C2821 C2815 1.491 . S
C2821 C2820 1.400 . S
C2821 C2822 1.398 . S
C2822 H2810 0.950 . S
C2822 C2821 1.398 . S
C2822 C2823 1.391 . S
C2823 H2811 0.950 . S
C2823 C2819 1.393 . S
C2823 C2822 1.391 . S
H2824 C2832 0.950 . S
H2825 C2837 0.950 . S
H2826 C2834 0.950 . S
H2827 C2836 0.950 . S
H2828 C2838 0.950 . S
H2829 C2840 0.950 . S
H2830 C2842 0.950 . S
H2831 C2843 0.950 . S
C2832 H2824 0.950 . S
C2832 C2833 1.386 . S
C2832 C2834 1.391 . S
C2833 C2832 1.386 . S
C2833 C2837 1.393 . S
C2834 H2826 0.950 . S
C2834 C2832 1.391 . S
C2834 C2835 1.400 . S
C2835 C2834 1.400 . S
C2835 C2836 1.398 . S
C2835 C2841 1.491 . S
C2836 H2827 0.950 . S
C2836 C2835 1.398 . S
C2836 C2837 1.391 . S
C2837 H2825 0.950 . S
C2837 C2833 1.393 . S
C2837 C2836 1.391 . S
C2838 H2828 0.950 . S
C2838 C2839 1.386 . S
C2838 C2840 1.391 . S
C2839 C2838 1.386 . S
C2839 C2843 1.393 . S
C2840 H2829 0.950 . S
C2840 C2838 1.391 . S
C2840 C2841 1.400 . S
C2841 C2835 1.491 . S
C2841 C2840 1.400 . S
C2841 C2842 1.398 . S
C2842 H2830 0.950 . S
C2842 C2841 1.398 . S
C2842 C2843 1.391 . S
C2843 H2831 0.950 . S
C2843 C2839 1.393 . S
C2843 C2842 1.391 . S
H2844 C2852 0.950 . S
H2845 C2857 0.950 . S
H2846 C2854 0.950 . S
H2847 C2856 0.950 . S
H2848 C2858 0.950 . S
H2849 C2860 0.950 . S
H2850 C2862 0.950 . S
H2851 C2863 0.950 . S
C2852 H2844 0.950 . S
C2852 C2853 1.386 . S
C2852 C2854 1.391 . S
C2853 C2852 1.386 . S
C2853 C2857 1.393 . S
C2854 H2846 0.950 . S
C2854 C2852 1.391 . S
C2854 C2855 1.400 . S
C2855 C2854 1.400 . S
C2855 C2856 1.398 . S
C2855 C2861 1.491 . S
C2856 H2847 0.950 . S
C2856 C2855 1.398 . S
C2856 C2857 1.391 . S
C2857 H2845 0.950 . S
C2857 C2853 1.393 . S
C2857 C2856 1.391 . S
C2858 H2848 0.950 . S
C2858 C2859 1.386 . S
C2858 C2860 1.391 . S
C2859 C2858 1.386 . S
C2859 C2863 1.393 . S
C2860 H2849 0.950 . S
C2860 C2858 1.391 . S
C2860 C2861 1.400 . S
C2861 C2855 1.491 . S
C2861 C2860 1.400 . S
C2861 C2862 1.398 . S
C2862 H2850 0.950 . S
C2862 C2861 1.398 . S
C2862 C2863 1.391 . S
C2863 H2851 0.950 . S
C2863 C2859 1.393 . S
C2863 C2862 1.391 . S
H2864 C2872 0.950 . S
H2865 C2877 0.950 . S
H2866 C2874 0.950 . S
H2867 C2876 0.950 . S
H2868 C2878 0.950 . S
H2869 C2880 0.950 . S
H2870 C2882 0.950 . S
H2871 C2883 0.950 . S
C2872 H2864 0.950 . S
C2872 C2873 1.386 . S
C2872 C2874 1.391 . S
C2873 C2872 1.386 . S
C2873 C2877 1.393 . S
C2874 H2866 0.950 . S
C2874 C2872 1.391 . S
C2874 C2875 1.400 . S
C2875 C2874 1.400 . S
C2875 C2876 1.398 . S
C2875 C2881 1.491 . S
C2876 H2867 0.950 . S
C2876 C2875 1.398 . S
C2876 C2877 1.391 . S
C2877 H2865 0.950 . S
C2877 C2873 1.393 . S
C2877 C2876 1.391 . S
C2878 H2868 0.950 . S
C2878 C2879 1.386 . S
C2878 C2880 1.391 . S
C2879 C2878 1.386 . S
C2879 C2883 1.393 . S
C2880 H2869 0.950 . S
C2880 C2878 1.391 . S
C2880 C2881 1.400 . S
C2881 C2875 1.491 . S
C2881 C2880 1.400 . S
C2881 C2882 1.398 . S
C2882 H2870 0.950 . S
C2882 C2881 1.398 . S
C2882 C2883 1.391 . S
C2883 H2871 0.950 . S
C2883 C2879 1.393 . S
C2883 C2882 1.391 . S
H2884 C2892 0.950 . S
H2885 C2897 0.950 . S
H2886 C2894 0.950 . S
H2887 C2896 0.950 . S
H2888 C2898 0.950 . S
H2889 C2900 0.950 . S
H2890 C2902 0.950 . S
H2891 C2903 0.950 . S
C2892 H2884 0.950 . S
C2892 C2893 1.386 . S
C2892 C2894 1.391 . S
C2893 C2892 1.386 . S
C2893 C2897 1.393 . S
C2894 H2886 0.950 . S
C2894 C2892 1.391 . S
C2894 C2895 1.400 . S
C2895 C2894 1.400 . S
C2895 C2896 1.398 . S
C2895 C2901 1.491 . S
C2896 H2887 0.950 . S
C2896 C2895 1.398 . S
C2896 C2897 1.391 . S
C2897 H2885 0.950 . S
C2897 C2893 1.393 . S
C2897 C2896 1.391 . S
C2898 H2888 0.950 . S
C2898 C2899 1.386 . S
C2898 C2900 1.391 . S
C2899 C2898 1.386 . S
C2899 C2903 1.393 . S
C2900 H2889 0.950 . S
C2900 C2898 1.391 . S
C2900 C2901 1.400 . S
C2901 C2895 1.491 . S
C2901 C2900 1.400 . S
C2901 C2902 1.398 . S
C2902 H2890 0.950 . S
C2902 C2901 1.398 . S
C2902 C2903 1.391 . S
C2903 H2891 0.950 . S
C2903 C2899 1.393 . S
C2903 C2902 1.391 . S
H2904 C2912 0.950 . S
H2905 C2917 0.950 . S
H2906 C2914 0.950 . S
H2907 C2916 0.950 . S
H2908 C2918 0.950 . S
H2909 C2920 0.950 . S
H2910 C2922 0.950 . S
H2911 C2923 0.950 . S
C2912 H2904 0.950 . S
C2912 C2913 1.386 . S
C2912 C2914 1.391 . S
C2913 C2912 1.386 . S
C2913 C2917 1.393 . S
C2914 H2906 0.950 . S
C2914 C2912 1.391 . S
C2914 C2915 1.400 . S
C2915 C2914 1.400 . S
C2915 C2916 1.398 . S
C2915 C2921 1.491 . S
C2916 H2907 0.950 . S
C2916 C2915 1.398 . S
C2916 C2917 1.391 . S
C2917 H2905 0.950 . S
C2917 C2913 1.393 . S
C2917 C2916 1.391 . S
C2918 H2908 0.950 . S
C2918 C2919 1.386 . S
C2918 C2920 1.391 . S
C2919 C2918 1.386 . S
C2919 C2923 1.393 . S
C2920 H2909 0.950 . S
C2920 C2918 1.391 . S
C2920 C2921 1.400 . S
C2921 C2915 1.491 . S
C2921 C2920 1.400 . S
C2921 C2922 1.398 . S
C2922 H2910 0.950 . S
C2922 C2921 1.398 . S
C2922 C2923 1.391 . S
C2923 H2911 0.950 . S
C2923 C2919 1.393 . S
C2923 C2922 1.391 . S
H2924 C2932 0.950 . S
H2925 C2937 0.950 . S
H2926 C2934 0.950 . S
H2927 C2936 0.950 . S
H2928 C2938 0.950 . S
H2929 C2940 0.950 . S
H2930 C2942 0.950 . S
H2931 C2943 0.950 . S
C2932 H2924 0.950 . S
C2932 C2933 1.386 . S
C2932 C2934 1.391 . S
C2933 C2932 1.386 . S
C2933 C2937 1.393 . S
C2934 H2926 0.950 . S
C2934 C2932 1.391 . S
C2934 C2935 1.400 . S
C2935 C2934 1.400 . S
C2935 C2936 1.398 . S
C2935 C2941 1.491 . S
C2936 H2927 0.950 . S
C2936 C2935 1.398 . S
C2936 C2937 1.391 . S
C2937 H2925 0.950 . S
C2937 C2933 1.393 . S
C2937 C2936 1.391 . S
C2938 H2928 0.950 . S
C2938 C2939 1.386 . S
C2938 C2940 1.391 . S
C2939 C2938 1.386 . S
C2939 C2943 1.393 . S
C2940 H2929 0.950 . S
C2940 C2938 1.391 . S
C2940 C2941 1.400 . S
C2941 C2935 1.491 . S
C2941 C2940 1.400 . S
C2941 C2942 1.398 . S
C2942 H2930 0.950 . S
C2942 C2941 1.398 . S
C2942 C2943 1.391 . S
C2943 H2931 0.950 . S
C2943 C2939 1.393 . S
C2943 C2942 1.391 . S
H2944 C2952 0.950 . S
H2945 C2957 0.950 . S
H2946 C2954 0.950 . S
H2947 C2956 0.950 . S
H2948 C2958 0.950 . S
H2949 C2960 0.950 . S
H2950 C2962 0.950 . S
H2951 C2963 0.950 . S
C2952 H2944 0.950 . S
C2952 C2953 1.386 . S
C2952 C2954 1.391 . S
C2953 C2952 1.386 . S
C2953 C2957 1.393 . S
C2954 H2946 0.950 . S
C2954 C2952 1.391 . S
C2954 C2955 1.400 . S
C2955 C2954 1.400 . S
C2955 C2956 1.398 . S
C2955 C2961 1.491 . S
C2956 H2947 0.950 . S
C2956 C2955 1.398 . S
C2956 C2957 1.391 . S
C2957 H2945 0.950 . S
C2957 C2953 1.393 . S
C2957 C2956 1.391 . S
C2958 H2948 0.950 . S
C2958 C2959 1.386 . S
C2958 C2960 1.391 . S
C2959 C2958 1.386 . S
C2959 C2963 1.393 . S
C2960 H2949 0.950 . S
C2960 C2958 1.391 . S
C2960 C2961 1.400 . S
C2961 C2955 1.491 . S
C2961 C2960 1.400 . S
C2961 C2962 1.398 . S
C2962 H2950 0.950 . S
C2962 C2961 1.398 . S
C2962 C2963 1.391 . S
C2963 H2951 0.950 . S
C2963 C2959 1.393 . S
C2963 C2962 1.391 . S
H2964 C2972 0.950 . S
H2965 C2977 0.950 . S
H2966 C2974 0.950 . S
H2967 C2976 0.950 . S
H2968 C2978 0.950 . S
H2969 C2980 0.950 . S
H2970 C2982 0.950 . S
H2971 C2983 0.950 . S
C2972 H2964 0.950 . S
C2972 C2973 1.386 . S
C2972 C2974 1.391 . S
C2973 C2972 1.386 . S
C2973 C2977 1.393 . S
C2974 H2966 0.950 . S
C2974 C2972 1.391 . S
C2974 C2975 1.400 . S
C2975 C2974 1.400 . S
C2975 C2976 1.398 . S
C2975 C2981 1.491 . S
C2976 H2967 0.950 . S
C2976 C2975 1.398 . S
C2976 C2977 1.391 . S
C2977 H2965 0.950 . S
C2977 C2973 1.393 . S
C2977 C2976 1.391 . S
C2978 H2968 0.950 . S
C2978 C2979 1.386 . S
C2978 C2980 1.391 . S
C2979 C2978 1.386 . S
C2979 C2983 1.393 . S
C2980 H2969 0.950 . S
C2980 C2978 1.391 . S
C2980 C2981 1.400 . S
C2981 C2975 1.491 . S
C2981 C2980 1.400 . S
C2981 C2982 1.398 . S
C2982 H2970 0.950 . S
C2982 C2981 1.398 . S
C2982 C2983 1.391 . S
C2983 H2971 0.950 . S
C2983 C2979 1.393 . S
C2983 C2982 1.391 . S
H2984 C2992 0.950 . S
H2985 C2997 0.950 . S
H2986 C2994 0.950 . S
H2987 C2996 0.950 . S
H2988 C2998 0.950 . S
H2989 C3000 0.950 . S
H2990 C3002 0.950 . S
H2991 C3003 0.950 . S
C2992 H2984 0.950 . S
C2992 C2993 1.386 . S
C2992 C2994 1.391 . S
C2993 C2992 1.386 . S
C2993 C2997 1.393 . S
C2994 H2986 0.950 . S
C2994 C2992 1.391 . S
C2994 C2995 1.400 . S
C2995 C2994 1.400 . S
C2995 C2996 1.398 . S
C2995 C3001 1.491 . S
C2996 H2987 0.950 . S
C2996 C2995 1.398 . S
C2996 C2997 1.391 . S
C2997 H2985 0.950 . S
C2997 C2993 1.393 . S
C2997 C2996 1.391 . S
C2998 H2988 0.950 . S
C2998 C2999 1.386 . S
C2998 C3000 1.391 . S
C2999 C2998 1.386 . S
C2999 C3003 1.393 . S
C3000 H2989 0.950 . S
C3000 C2998 1.391 . S
C3000 C3001 1.400 . S
C3001 C2995 1.491 . S
C3001 C3000 1.400 . S
C3001 C3002 1.398 . S
C3002 H2990 0.950 . S
C3002 C3001 1.398 . S
C3002 C3003 1.391 . S
C3003 H2991 0.950 . S
C3003 C2999 1.393 . S
C3003 C3002 1.391 . S
H3004 C3012 0.950 . S
H3005 C3017 0.950 . S
H3006 C3014 0.950 . S
H3007 C3016 0.950 . S
H3008 C3018 0.950 . S
H3009 C3020 0.950 . S
H3010 C3022 0.950 . S
H3011 C3023 0.950 . S
C3012 H3004 0.950 . S
C3012 C3013 1.386 . S
C3012 C3014 1.391 . S
C3013 C3012 1.386 . S
C3013 C3017 1.393 . S
C3014 H3006 0.950 . S
C3014 C3012 1.391 . S
C3014 C3015 1.400 . S
C3015 C3014 1.400 . S
C3015 C3016 1.398 . S
C3015 C3021 1.491 . S
C3016 H3007 0.950 . S
C3016 C3015 1.398 . S
C3016 C3017 1.391 . S
C3017 H3005 0.950 . S
C3017 C3013 1.393 . S
C3017 C3016 1.391 . S
C3018 H3008 0.950 . S
C3018 C3019 1.386 . S
C3018 C3020 1.391 . S
C3019 C3018 1.386 . S
C3019 C3023 1.393 . S
C3020 H3009 0.950 . S
C3020 C3018 1.391 . S
C3020 C3021 1.400 . S
C3021 C3015 1.491 . S
C3021 C3020 1.400 . S
C3021 C3022 1.398 . S
C3022 H3010 0.950 . S
C3022 C3021 1.398 . S
C3022 C3023 1.391 . S
C3023 H3011 0.950 . S
C3023 C3019 1.393 . S
C3023 C3022 1.391 . S
H3024 C3032 0.950 . S
H3025 C3037 0.950 . S
H3026 C3034 0.950 . S
H3027 C3036 0.950 . S
H3028 C3038 0.950 . S
H3029 C3040 0.950 . S
H3030 C3042 0.950 . S
H3031 C3043 0.950 . S
C3032 H3024 0.950 . S
C3032 C3033 1.386 . S
C3032 C3034 1.391 . S
C3033 C3032 1.386 . S
C3033 C3037 1.393 . S
C3034 H3026 0.950 . S
C3034 C3032 1.391 . S
C3034 C3035 1.400 . S
C3035 C3034 1.400 . S
C3035 C3036 1.398 . S
C3035 C3041 1.491 . S
C3036 H3027 0.950 . S
C3036 C3035 1.398 . S
C3036 C3037 1.391 . S
C3037 H3025 0.950 . S
C3037 C3033 1.393 . S
C3037 C3036 1.391 . S
C3038 H3028 0.950 . S
C3038 C3039 1.386 . S
C3038 C3040 1.391 . S
C3039 C3038 1.386 . S
C3039 C3043 1.393 . S
C3040 H3029 0.950 . S
C3040 C3038 1.391 . S
C3040 C3041 1.400 . S
C3041 C3035 1.491 . S
C3041 C3040 1.400 . S
C3041 C3042 1.398 . S
C3042 H3030 0.950 . S
C3042 C3041 1.398 . S
C3042 C3043 1.391 . S
C3043 H3031 0.950 . S
C3043 C3039 1.393 . S
C3043 C3042 1.391 . S
H3044 C3052 0.950 . S
H3045 C3057 0.950 . S
H3046 C3054 0.950 . S
H3047 C3056 0.950 . S
H3048 C3058 0.950 . S
H3049 C3060 0.950 . S
H3050 C3062 0.950 . S
H3051 C3063 0.950 . S
C3052 H3044 0.950 . S
C3052 C3053 1.386 . S
C3052 C3054 1.391 . S
C3053 C3052 1.386 . S
C3053 C3057 1.393 . S
C3054 H3046 0.950 . S
C3054 C3052 1.391 . S
C3054 C3055 1.400 . S
C3055 C3054 1.400 . S
C3055 C3056 1.398 . S
C3055 C3061 1.491 . S
C3056 H3047 0.950 . S
C3056 C3055 1.398 . S
C3056 C3057 1.391 . S
C3057 H3045 0.950 . S
C3057 C3053 1.393 . S
C3057 C3056 1.391 . S
C3058 H3048 0.950 . S
C3058 C3059 1.386 . S
C3058 C3060 1.391 . S
C3059 C3058 1.386 . S
C3059 C3063 1.393 . S
C3060 H3049 0.950 . S
C3060 C3058 1.391 . S
C3060 C3061 1.400 . S
C3061 C3055 1.491 . S
C3061 C3060 1.400 . S
C3061 C3062 1.398 . S
C3062 H3050 0.950 . S
C3062 C3061 1.398 . S
C3062 C3063 1.391 . S
C3063 H3051 0.950 . S
C3063 C3059 1.393 . S
C3063 C3062 1.391 . S
H3064 C3072 0.950 . S
H3065 C3077 0.950 . S
H3066 C3074 0.950 . S
H3067 C3076 0.950 . S
H3068 C3078 0.950 . S
H3069 C3080 0.950 . S
H3070 C3082 0.950 . S
H3071 C3083 0.950 . S
C3072 H3064 0.950 . S
C3072 C3073 1.386 . S
C3072 C3074 1.391 . S
C3073 C3072 1.386 . S
C3073 C3077 1.393 . S
C3074 H3066 0.950 . S
C3074 C3072 1.391 . S
C3074 C3075 1.400 . S
C3075 C3074 1.400 . S
C3075 C3076 1.398 . S
C3075 C3081 1.491 . S
C3076 H3067 0.950 . S
C3076 C3075 1.398 . S
C3076 C3077 1.391 . S
C3077 H3065 0.950 . S
C3077 C3073 1.393 . S
C3077 C3076 1.391 . S
C3078 H3068 0.950 . S
C3078 C3079 1.386 . S
C3078 C3080 1.391 . S
C3079 C3078 1.386 . S
C3079 C3083 1.393 . S
C3080 H3069 0.950 . S
C3080 C3078 1.391 . S
C3080 C3081 1.400 . S
C3081 C3075 1.491 . S
C3081 C3080 1.400 . S
C3081 C3082 1.398 . S
C3082 H3070 0.950 . S
C3082 C3081 1.398 . S
C3082 C3083 1.391 . S
C3083 H3071 0.950 . S
C3083 C3079 1.393 . S
C3083 C3082 1.391 . S
H3084 C3092 0.950 . S
H3085 C3097 0.950 . S
H3086 C3094 0.950 . S
H3087 C3096 0.950 . S
H3088 C3098 0.950 . S
H3089 C3100 0.950 . S
H3090 C3102 0.950 . S
H3091 C3103 0.950 . S
C3092 H3084 0.950 . S
C3092 C3093 1.386 . S
C3092 C3094 1.391 . S
C3093 C3092 1.386 . S
C3093 C3097 1.393 . S
C3094 H3086 0.950 . S
C3094 C3092 1.391 . S
C3094 C3095 1.400 . S
C3095 C3094 1.400 . S
C3095 C3096 1.398 . S
C3095 C3101 1.491 . S
C3096 H3087 0.950 . S
C3096 C3095 1.398 . S
C3096 C3097 1.391 . S
C3097 H3085 0.950 . S
C3097 C3093 1.393 . S
C3097 C3096 1.391 . S
C3098 H3088 0.950 . S
C3098 C3099 1.386 . S
C3098 C3100 1.391 . S
C3099 C3098 1.386 . S
C3099 C3103 1.393 . S
C3100 H3089 0.950 . S
C3100 C3098 1.391 . S
C3100 C3101 1.400 . S
C3101 C3095 1.491 . S
C3101 C3100 1.400 . S
C3101 C3102 1.398 . S
C3102 H3090 0.950 . S
C3102 C3101 1.398 . S
C3102 C3103 1.391 . S
C3103 H3091 0.950 . S
C3103 C3099 1.393 . S
C3103 C3102 1.391 . S
H3104 C3112 0.950 . S
H3105 C3117 0.950 . S
H3106 C3114 0.950 . S
H3107 C3116 0.950 . S
H3108 C3118 0.950 . S
H3109 C3120 0.950 . S
H3110 C3122 0.950 . S
H3111 C3123 0.950 . S
C3112 H3104 0.950 . S
C3112 C3113 1.386 . S
C3112 C3114 1.391 . S
C3113 C3112 1.386 . S
C3113 C3117 1.393 . S
C3114 H3106 0.950 . S
C3114 C3112 1.391 . S
C3114 C3115 1.400 . S
C3115 C3114 1.400 . S
C3115 C3116 1.398 . S
C3115 C3121 1.491 . S
C3116 H3107 0.950 . S
C3116 C3115 1.398 . S
C3116 C3117 1.391 . S
C3117 H3105 0.950 . S
C3117 C3113 1.393 . S
C3117 C3116 1.391 . S
C3118 H3108 0.950 . S
C3118 C3119 1.386 . S
C3118 C3120 1.391 . S
C3119 C3118 1.386 . S
C3119 C3123 1.393 . S
C3120 H3109 0.950 . S
C3120 C3118 1.391 . S
C3120 C3121 1.400 . S
C3121 C3115 1.491 . S
C3121 C3120 1.400 . S
C3121 C3122 1.398 . S
C3122 H3110 0.950 . S
C3122 C3121 1.398 . S
C3122 C3123 1.391 . S
C3123 H3111 0.950 . S
C3123 C3119 1.393 . S
C3123 C3122 1.391 . S
H3124 C3132 0.950 . S
H3125 C3137 0.950 . S
H3126 C3134 0.950 . S
H3127 C3136 0.950 . S
H3128 C3138 0.950 . S
H3129 C3140 0.950 . S
H3130 C3142 0.950 . S
H3131 C3143 0.950 . S
C3132 H3124 0.950 . S
C3132 C3133 1.386 . S
C3132 C3134 1.391 . S
C3133 C3132 1.386 . S
C3133 C3137 1.393 . S
C3134 H3126 0.950 . S
C3134 C3132 1.391 . S
C3134 C3135 1.400 . S
C3135 C3134 1.400 . S
C3135 C3136 1.398 . S
C3135 C3141 1.491 . S
C3136 H3127 0.950 . S
C3136 C3135 1.398 . S
C3136 C3137 1.391 . S
C3137 H3125 0.950 . S
C3137 C3133 1.393 . S
C3137 C3136 1.391 . S
C3138 H3128 0.950 . S
C3138 C3139 1.386 . S
C3138 C3140 1.391 . S
C3139 C3138 1.386 . S
C3139 C3143 1.393 . S
C3140 H3129 0.950 . S
C3140 C3138 1.391 . S
C3140 C3141 1.400 . S
C3141 C3135 1.491 . S
C3141 C3140 1.400 . S
C3141 C3142 1.398 . S
C3142 H3130 0.950 . S
C3142 C3141 1.398 . S
C3142 C3143 1.391 . S
C3143 H3131 0.950 . S
C3143 C3139 1.393 . S
C3143 C3142 1.391 . S
H3144 C3152 0.950 . S
H3145 C3157 0.950 . S
H3146 C3154 0.950 . S
H3147 C3156 0.950 . S
H3148 C3158 0.950 . S
H3149 C3160 0.950 . S
H3150 C3162 0.950 . S
H3151 C3163 0.950 . S
C3152 H3144 0.950 . S
C3152 C3153 1.386 . S
C3152 C3154 1.391 . S
C3153 C3152 1.386 . S
C3153 C3157 1.393 . S
C3154 H3146 0.950 . S
C3154 C3152 1.391 . S
C3154 C3155 1.400 . S
C3155 C3154 1.400 . S
C3155 C3156 1.398 . S
C3155 C3161 1.491 . S
C3156 H3147 0.950 . S
C3156 C3155 1.398 . S
C3156 C3157 1.391 . S
C3157 H3145 0.950 . S
C3157 C3153 1.393 . S
C3157 C3156 1.391 . S
C3158 H3148 0.950 . S
C3158 C3159 1.386 . S
C3158 C3160 1.391 . S
C3159 C3158 1.386 . S
C3159 C3163 1.393 . S
C3160 H3149 0.950 . S
C3160 C3158 1.391 . S
C3160 C3161 1.400 . S
C3161 C3155 1.491 . S
C3161 C3160 1.400 . S
C3161 C3162 1.398 . S
C3162 H3150 0.950 . S
C3162 C3161 1.398 . S
C3162 C3163 1.391 . S
C3163 H3151 0.950 . S
C3163 C3159 1.393 . S
C3163 C3162 1.391 . S
H3164 C3172 0.950 . S
H3165 C3177 0.950 . S
H3166 C3174 0.950 . S
H3167 C3176 0.950 . S
H3168 C3178 0.950 . S
H3169 C3180 0.950 . S
H3170 C3182 0.950 . S
H3171 C3183 0.950 . S
C3172 H3164 0.950 . S
C3172 C3173 1.386 . S
C3172 C3174 1.391 . S
C3173 C3172 1.386 . S
C3173 C3177 1.393 . S
C3174 H3166 0.950 . S
C3174 C3172 1.391 . S
C3174 C3175 1.400 . S
C3175 C3174 1.400 . S
C3175 C3176 1.398 . S
C3175 C3181 1.491 . S
C3176 H3167 0.950 . S
C3176 C3175 1.398 . S
C3176 C3177 1.391 . S
C3177 H3165 0.950 . S
C3177 C3173 1.393 . S
C3177 C3176 1.391 . S
C3178 H3168 0.950 . S
C3178 C3179 1.386 . S
C3178 C3180 1.391 . S
C3179 C3178 1.386 . S
C3179 C3183 1.393 . S
C3180 H3169 0.950 . S
C3180 C3178 1.391 . S
C3180 C3181 1.400 . S
C3181 C3175 1.491 . S
C3181 C3180 1.400 . S
C3181 C3182 1.398 . S
C3182 H3170 0.950 . S
C3182 C3181 1.398 . S
C3182 C3183 1.391 . S
C3183 H3171 0.950 . S
C3183 C3179 1.393 . S
C3183 C3182 1.391 . S
H3184 C3192 0.950 . S
H3185 C3197 0.950 . S
H3186 C3194 0.950 . S
H3187 C3196 0.950 . S
H3188 C3198 0.950 . S
H3189 C3200 0.950 . S
H3190 C3202 0.950 . S
H3191 C3203 0.950 . S
C3192 H3184 0.950 . S
C3192 C3193 1.386 . S
C3192 C3194 1.391 . S
C3193 C3192 1.386 . S
C3193 C3197 1.393 . S
C3194 H3186 0.950 . S
C3194 C3192 1.391 . S
C3194 C3195 1.400 . S
C3195 C3194 1.400 . S
C3195 C3196 1.398 . S
C3195 C3201 1.491 . S
C3196 H3187 0.950 . S
C3196 C3195 1.398 . S
C3196 C3197 1.391 . S
C3197 H3185 0.950 . S
C3197 C3193 1.393 . S
C3197 C3196 1.391 . S
C3198 H3188 0.950 . S
C3198 C3199 1.386 . S
C3198 C3200 1.391 . S
C3199 C3198 1.386 . S
C3199 C3203 1.393 . S
C3200 H3189 0.950 . S
C3200 C3198 1.391 . S
C3200 C3201 1.400 . S
C3201 C3195 1.491 . S
C3201 C3200 1.400 . S
C3201 C3202 1.398 . S
C3202 H3190 0.950 . S
C3202 C3201 1.398 . S
C3202 C3203 1.391 . S
C3203 H3191 0.950 . S
C3203 C3199 1.393 . S
C3203 C3202 1.391 . S
H3204 C3212 0.950 . S
H3205 C3217 0.950 . S
H3206 C3214 0.950 . S
H3207 C3216 0.950 . S
H3208 C3218 0.950 . S
H3209 C3220 0.950 . S
H3210 C3222 0.950 . S
H3211 C3223 0.950 . S
C3212 H3204 0.950 . S
C3212 C3213 1.386 . S
C3212 C3214 1.391 . S
C3213 C3212 1.386 . S
C3213 C3217 1.393 . S
C3214 H3206 0.950 . S
C3214 C3212 1.391 . S
C3214 C3215 1.400 . S
C3215 C3214 1.400 . S
C3215 C3216 1.398 . S
C3215 C3221 1.491 . S
C3216 H3207 0.950 . S
C3216 C3215 1.398 . S
C3216 C3217 1.391 . S
C3217 H3205 0.950 . S
C3217 C3213 1.393 . S
C3217 C3216 1.391 . S
C3218 H3208 0.950 . S
C3218 C3219 1.386 . S
C3218 C3220 1.391 . S
C3219 C3218 1.386 . S
C3219 C3223 1.393 . S
C3220 H3209 0.950 . S
C3220 C3218 1.391 . S
C3220 C3221 1.400 . S
C3221 C3215 1.491 . S
C3221 C3220 1.400 . S
C3221 C3222 1.398 . S
C3222 H3210 0.950 . S
C3222 C3221 1.398 . S
C3222 C3223 1.391 . S
C3223 H3211 0.950 . S
C3223 C3219 1.393 . S
C3223 C3222 1.391 . S
H3224 C3232 0.950 . S
H3225 C3237 0.950 . S
H3226 C3234 0.950 . S
H3227 C3236 0.950 . S
H3228 C3238 0.950 . S
H3229 C3240 0.950 . S
H3230 C3242 0.950 . S
H3231 C3243 0.950 . S
C3232 H3224 0.950 . S
C3232 C3233 1.386 . S
C3232 C3234 1.391 . S
C3233 C3232 1.386 . S
C3233 C3237 1.393 . S
C3234 H3226 0.950 . S
C3234 C3232 1.391 . S
C3234 C3235 1.400 . S
C3235 C3234 1.400 . S
C3235 C3236 1.398 . S
C3235 C3241 1.491 . S
C3236 H3227 0.950 . S
C3236 C3235 1.398 . S
C3236 C3237 1.391 . S
C3237 H3225 0.950 . S
C3237 C3233 1.393 . S
C3237 C3236 1.391 . S
C3238 H3228 0.950 . S
C3238 C3239 1.386 . S
C3238 C3240 1.391 . S
C3239 C3238 1.386 . S
C3239 C3243 1.393 . S
C3240 H3229 0.950 . S
C3240 C3238 1.391 . S
C3240 C3241 1.400 . S
C3241 C3235 1.491 . S
C3241 C3240 1.400 . S
C3241 C3242 1.398 . S
C3242 H3230 0.950 . S
C3242 C3241 1.398 . S
C3242 C3243 1.391 . S
C3243 H3231 0.950 . S
C3243 C3239 1.393 . S
C3243 C3242 1.391 . S
H3244 C3252 0.950 . S
H3245 C3257 0.950 . S
H3246 C3254 0.950 . S
H3247 C3256 0.950 . S
H3248 C3258 0.950 . S
H3249 C3260 0.950 . S
H3250 C3262 0.950 . S
H3251 C3263 0.950 . S
C3252 H3244 0.950 . S
C3252 C3253 1.386 . S
C3252 C3254 1.391 . S
C3253 C3252 1.386 . S
C3253 C3257 1.393 . S
C3254 H3246 0.950 . S
C3254 C3252 1.391 . S
C3254 C3255 1.400 . S
C3255 C3254 1.400 . S
C3255 C3256 1.398 . S
C3255 C3261 1.491 . S
C3256 H3247 0.950 . S
C3256 C3255 1.398 . S
C3256 C3257 1.391 . S
C3257 H3245 0.950 . S
C3257 C3253 1.393 . S
C3257 C3256 1.391 . S
C3258 H3248 0.950 . S
C3258 C3259 1.386 . S
C3258 C3260 1.391 . S
C3259 C3258 1.386 . S
C3259 C3263 1.393 . S
C3260 H3249 0.950 . S
C3260 C3258 1.391 . S
C3260 C3261 1.400 . S
C3261 C3255 1.491 . S
C3261 C3260 1.400 . S
C3261 C3262 1.398 . S
C3262 H3250 0.950 . S
C3262 C3261 1.398 . S
C3262 C3263 1.391 . S
C3263 H3251 0.950 . S
C3263 C3259 1.393 . S
C3263 C3262 1.391 . S
H3264 C3272 0.950 . S
H3265 C3277 0.950 . S
H3266 C3274 0.950 . S
H3267 C3276 0.950 . S
H3268 C3278 0.950 . S
H3269 C3280 0.950 . S
H3270 C3282 0.950 . S
H3271 C3283 0.950 . S
C3272 H3264 0.950 . S
C3272 C3273 1.386 . S
C3272 C3274 1.391 . S
C3273 C3272 1.386 . S
C3273 C3277 1.393 . S
C3274 H3266 0.950 . S
C3274 C3272 1.391 . S
C3274 C3275 1.400 . S
C3275 C3274 1.400 . S
C3275 C3276 1.398 . S
C3275 C3281 1.491 . S
C3276 H3267 0.950 . S
C3276 C3275 1.398 . S
C3276 C3277 1.391 . S
C3277 H3265 0.950 . S
C3277 C3273 1.393 . S
C3277 C3276 1.391 . S
C3278 H3268 0.950 . S
C3278 C3279 1.386 . S
C3278 C3280 1.391 . S
C3279 C3278 1.386 . S
C3279 C3283 1.393 . S
C3280 H3269 0.950 . S
C3280 C3278 1.391 . S
C3280 C3281 1.400 . S
C3281 C3275 1.491 . S
C3281 C3280 1.400 . S
C3281 C3282 1.398 . S
C3282 H3270 0.950 . S
C3282 C3281 1.398 . S
C3282 C3283 1.391 . S
C3283 H3271 0.950 . S
C3283 C3279 1.393 . S
C3283 C3282 1.391 . S
H3284 C3292 0.950 . S
H3285 C3297 0.950 . S
H3286 C3294 0.950 . S
H3287 C3296 0.950 . S
H3288 C3298 0.950 . S
H3289 C3300 0.950 . S
H3290 C3302 0.950 . S
H3291 C3303 0.950 . S
C3292 H3284 0.950 . S
C3292 C3293 1.386 . S
C3292 C3294 1.391 . S
C3293 C3292 1.386 . S
C3293 C3297 1.393 . S
C3294 H3286 0.950 . S
C3294 C3292 1.391 . S
C3294 C3295 1.400 . S
C3295 C3294 1.400 . S
C3295 C3296 1.398 . S
C3295 C3301 1.491 . S
C3296 H3287 0.950 . S
C3296 C3295 1.398 . S
C3296 C3297 1.391 . S
C3297 H3285 0.950 . S
C3297 C3293 1.393 . S
C3297 C3296 1.391 . S
C3298 H3288 0.950 . S
C3298 C3299 1.386 . S
C3298 C3300 1.391 . S
C3299 C3298 1.386 . S
C3299 C3303 1.393 . S
C3300 H3289 0.950 . S
C3300 C3298 1.391 . S
C3300 C3301 1.400 . S
C3301 C3295 1.491 . S
C3301 C3300 1.400 . S
C3301 C3302 1.398 . S
C3302 H3290 0.950 . S
C3302 C3301 1.398 . S
C3302 C3303 1.391 . S
C3303 H3291 0.950 . S
C3303 C3299 1.393 . S
C3303 C3302 1.391 . S
H3304 C3312 0.950 . S
H3305 C3317 0.950 . S
H3306 C3314 0.950 . S
H3307 C3316 0.950 . S
H3308 C3318 0.950 . S
H3309 C3320 0.950 . S
H3310 C3322 0.950 . S
H3311 C3323 0.950 . S
C3312 H3304 0.950 . S
C3312 C3313 1.386 . S
C3312 C3314 1.391 . S
C3313 C3312 1.386 . S
C3313 C3317 1.393 . S
C3314 H3306 0.950 . S
C3314 C3312 1.391 . S
C3314 C3315 1.400 . S
C3315 C3314 1.400 . S
C3315 C3316 1.398 . S
C3315 C3321 1.491 . S
C3316 H3307 0.950 . S
C3316 C3315 1.398 . S
C3316 C3317 1.391 . S
C3317 H3305 0.950 . S
C3317 C3313 1.393 . S
C3317 C3316 1.391 . S
C3318 H3308 0.950 . S
C3318 C3319 1.386 . S
C3318 C3320 1.391 . S
C3319 C3318 1.386 . S
C3319 C3323 1.393 . S
C3320 H3309 0.950 . S
C3320 C3318 1.391 . S
C3320 C3321 1.400 . S
C3321 C3315 1.491 . S
C3321 C3320 1.400 . S
C3321 C3322 1.398 . S
C3322 H3310 0.950 . S
C3322 C3321 1.398 . S
C3322 C3323 1.391 . S
C3323 H3311 0.950 . S
C3323 C3319 1.393 . S
C3323 C3322 1.391 . S
H3324 C3332 0.950 . S
H3325 C3337 0.950 . S
H3326 C3334 0.950 . S
H3327 C3336 0.950 . S
H3328 C3338 0.950 . S
H3329 C3340 0.950 . S
H3330 C3342 0.950 . S
H3331 C3343 0.950 . S
C3332 H3324 0.950 . S
C3332 C3333 1.386 . S
C3332 C3334 1.391 . S
C3333 C3332 1.386 . S
C3333 C3337 1.393 . S
C3334 H3326 0.950 . S
C3334 C3332 1.391 . S
C3334 C3335 1.400 . S
C3335 C3334 1.400 . S
C3335 C3336 1.398 . S
C3335 C3341 1.491 . S
C3336 H3327 0.950 . S
C3336 C3335 1.398 . S
C3336 C3337 1.391 . S
C3337 H3325 0.950 . S
C3337 C3333 1.393 . S
C3337 C3336 1.391 . S
C3338 H3328 0.950 . S
C3338 C3339 1.386 . S
C3338 C3340 1.391 . S
C3339 C3338 1.386 . S
C3339 C3343 1.393 . S
C3340 H3329 0.950 . S
C3340 C3338 1.391 . S
C3340 C3341 1.400 . S
C3341 C3335 1.491 . S
C3341 C3340 1.400 . S
C3341 C3342 1.398 . S
C3342 H3330 0.950 . S
C3342 C3341 1.398 . S
C3342 C3343 1.391 . S
C3343 H3331 0.950 . S
C3343 C3339 1.393 . S
C3343 C3342 1.391 . S
H3344 C3352 0.950 . S
H3345 C3357 0.950 . S
H3346 C3354 0.950 . S
H3347 C3356 0.950 . S
H3348 C3358 0.950 . S
H3349 C3360 0.950 . S
H3350 C3362 0.950 . S
H3351 C3363 0.950 . S
C3352 H3344 0.950 . S
C3352 C3353 1.386 . S
C3352 C3354 1.391 . S
C3353 C3352 1.386 . S
C3353 C3357 1.393 . S
C3354 H3346 0.950 . S
C3354 C3352 1.391 . S
C3354 C3355 1.400 . S
C3355 C3354 1.400 . S
C3355 C3356 1.398 . S
C3355 C3361 1.491 . S
C3356 H3347 0.950 . S
C3356 C3355 1.398 . S
C3356 C3357 1.391 . S
C3357 H3345 0.950 . S
C3357 C3353 1.393 . S
C3357 C3356 1.391 . S
C3358 H3348 0.950 . S
C3358 C3359 1.386 . S
C3358 C3360 1.391 . S
C3359 C3358 1.386 . S
C3359 C3363 1.393 . S
C3360 H3349 0.950 . S
C3360 C3358 1.391 . S
C3360 C3361 1.400 . S
C3361 C3355 1.491 . S
C3361 C3360 1.400 . S
C3361 C3362 1.398 . S
C3362 H3350 0.950 . S
C3362 C3361 1.398 . S
C3362 C3363 1.391 . S
C3363 H3351 0.950 . S
C3363 C3359 1.393 . S
C3363 C3362 1.391 . S
H3364 C3372 0.950 . S
H3365 C3377 0.950 . S
H3366 C3374 0.950 . S
H3367 C3376 0.950 . S
H3368 C3378 0.950 . S
H3369 C3380 0.950 . S
H3370 C3382 0.950 . S
H3371 C3383 0.950 . S
C3372 H3364 0.950 . S
C3372 C3373 1.386 . S
C3372 C3374 1.391 . S
C3373 C3372 1.386 . S
C3373 C3377 1.393 . S
C3374 H3366 0.950 . S
C3374 C3372 1.391 . S
C3374 C3375 1.400 . S
C3375 C3374 1.400 . S
C3375 C3376 1.398 . S
C3375 C3381 1.491 . S
C3376 H3367 0.950 . S
C3376 C3375 1.398 . S
C3376 C3377 1.391 . S
C3377 H3365 0.950 . S
C3377 C3373 1.393 . S
C3377 C3376 1.391 . S
C3378 H3368 0.950 . S
C3378 C3379 1.386 . S
C3378 C3380 1.391 . S
C3379 C3378 1.386 . S
C3379 C3383 1.393 . S
C3380 H3369 0.950 . S
C3380 C3378 1.391 . S
C3380 C3381 1.400 . S
C3381 C3375 1.491 . S
C3381 C3380 1.400 . S
C3381 C3382 1.398 . S
C3382 H3370 0.950 . S
C3382 C3381 1.398 . S
C3382 C3383 1.391 . S
C3383 H3371 0.950 . S
C3383 C3379 1.393 . S
C3383 C3382 1.391 . S
H3384 C3392 0.950 . S
H3385 C3397 0.950 . S
H3386 C3394 0.950 . S
H3387 C3396 0.950 . S
H3388 C3398 0.950 . S
H3389 C3400 0.950 . S
H3390 C3402 0.950 . S
H3391 C3403 0.950 . S
C3392 H3384 0.950 . S
C3392 C3393 1.386 . S
C3392 C3394 1.391 . S
C3393 C3392 1.386 . S
C3393 C3397 1.393 . S
C3394 H3386 0.950 . S
C3394 C3392 1.391 . S
C3394 C3395 1.400 . S
C3395 C3394 1.400 . S
C3395 C3396 1.398 . S
C3395 C3401 1.491 . S
C3396 H3387 0.950 . S
C3396 C3395 1.398 . S
C3396 C3397 1.391 . S
C3397 H3385 0.950 . S
C3397 C3393 1.393 . S
C3397 C3396 1.391 . S
C3398 H3388 0.950 . S
C3398 C3399 1.386 . S
C3398 C3400 1.391 . S
C3399 C3398 1.386 . S
C3399 C3403 1.393 . S
C3400 H3389 0.950 . S
C3400 C3398 1.391 . S
C3400 C3401 1.400 . S
C3401 C3395 1.491 . S
C3401 C3400 1.400 . S
C3401 C3402 1.398 . S
C3402 H3390 0.950 . S
C3402 C3401 1.398 . S
C3402 C3403 1.391 . S
C3403 H3391 0.950 . S
C3403 C3399 1.393 . S
C3403 C3402 1.391 . S
H3404 C3412 0.950 . S
H3405 C3417 0.950 . S
H3406 C3414 0.950 . S
H3407 C3416 0.950 . S
H3408 C3418 0.950 . S
H3409 C3420 0.950 . S
H3410 C3422 0.950 . S
H3411 C3423 0.950 . S
C3412 H3404 0.950 . S
C3412 C3413 1.386 . S
C3412 C3414 1.391 . S
C3413 C3412 1.386 . S
C3413 C3417 1.393 . S
C3414 H3406 0.950 . S
C3414 C3412 1.391 . S
C3414 C3415 1.400 . S
C3415 C3414 1.400 . S
C3415 C3416 1.398 . S
C3415 C3421 1.491 . S
C3416 H3407 0.950 . S
C3416 C3415 1.398 . S
C3416 C3417 1.391 . S
C3417 H3405 0.950 . S
C3417 C3413 1.393 . S
C3417 C3416 1.391 . S
C3418 H3408 0.950 . S
C3418 C3419 1.386 . S
C3418 C3420 1.391 . S
C3419 C3418 1.386 . S
C3419 C3423 1.393 . S
C3420 H3409 0.950 . S
C3420 C3418 1.391 . S
C3420 C3421 1.400 . S
C3421 C3415 1.491 . S
C3421 C3420 1.400 . S
C3421 C3422 1.398 . S
C3422 H3410 0.950 . S
C3422 C3421 1.398 . S
C3422 C3423 1.391 . S
C3423 H3411 0.950 . S
C3423 C3419 1.393 . S
C3423 C3422 1.391 . S
H3424 C3432 0.950 . S
H3425 C3437 0.950 . S
H3426 C3434 0.950 . S
H3427 C3436 0.950 . S
H3428 C3438 0.950 . S
H3429 C3440 0.950 . S
H3430 C3442 0.950 . S
H3431 C3443 0.950 . S
C3432 H3424 0.950 . S
C3432 C3433 1.386 . S
C3432 C3434 1.391 . S
C3433 C3432 1.386 . S
C3433 C3437 1.393 . S
C3434 H3426 0.950 . S
C3434 C3432 1.391 . S
C3434 C3435 1.400 . S
C3435 C3434 1.400 . S
C3435 C3436 1.398 . S
C3435 C3441 1.491 . S
C3436 H3427 0.950 . S
C3436 C3435 1.398 . S
C3436 C3437 1.391 . S
C3437 H3425 0.950 . S
C3437 C3433 1.393 . S
C3437 C3436 1.391 . S
C3438 H3428 0.950 . S
C3438 C3439 1.386 . S
C3438 C3440 1.391 . S
C3439 C3438 1.386 . S
C3439 C3443 1.393 . S
C3440 H3429 0.950 . S
C3440 C3438 1.391 . S
C3440 C3441 1.400 . S
C3441 C3435 1.491 . S
C3441 C3440 1.400 . S
C3441 C3442 1.398 . S
C3442 H3430 0.950 . S
C3442 C3441 1.398 . S
C3442 C3443 1.391 . S
C3443 H3431 0.950 . S
C3443 C3439 1.393 . S
C3443 C3442 1.391 . S
H3444 C3452 0.950 . S
H3445 C3457 0.950 . S
H3446 C3454 0.950 . S
H3447 C3456 0.950 . S
H3448 C3458 0.950 . S
H3449 C3460 0.950 . S
H3450 C3462 0.950 . S
H3451 C3463 0.950 . S
C3452 H3444 0.950 . S
C3452 C3453 1.386 . S
C3452 C3454 1.391 . S
C3453 C3452 1.386 . S
C3453 C3457 1.393 . S
C3454 H3446 0.950 . S
C3454 C3452 1.391 . S
C3454 C3455 1.400 . S
C3455 C3454 1.400 . S
C3455 C3456 1.398 . S
C3455 C3461 1.491 . S
C3456 H3447 0.950 . S
C3456 C3455 1.398 . S
C3456 C3457 1.391 . S
C3457 H3445 0.950 . S
C3457 C3453 1.393 . S
C3457 C3456 1.391 . S
C3458 H3448 0.950 . S
C3458 C3459 1.386 . S
C3458 C3460 1.391 . S
C3459 C3458 1.386 . S
C3459 C3463 1.393 . S
C3460 H3449 0.950 . S
C3460 C3458 1.391 . S
C3460 C3461 1.400 . S
C3461 C3455 1.491 . S
C3461 C3460 1.400 . S
C3461 C3462 1.398 . S
C3462 H3450 0.950 . S
C3462 C3461 1.398 . S
C3462 C3463 1.391 . S
C3463 H3451 0.950 . S
C3463 C3459 1.393 . S
C3463 C3462 1.391 . S
H3464 C3472 0.950 . S
H3465 C3477 0.950 . S
H3466 C3474 0.950 . S
H3467 C3476 0.950 . S
H3468 C3478 0.950 . S
H3469 C3480 0.950 . S
H3470 C3482 0.950 . S
H3471 C3483 0.950 . S
C3472 H3464 0.950 . S
C3472 C3473 1.386 . S
C3472 C3474 1.391 . S
C3473 C3472 1.386 . S
C3473 C3477 1.393 . S
C3474 H3466 0.950 . S
C3474 C3472 1.391 . S
C3474 C3475 1.400 . S
C3475 C3474 1.400 . S
C3475 C3476 1.398 . S
C3475 C3481 1.491 . S
C3476 H3467 0.950 . S
C3476 C3475 1.398 . S
C3476 C3477 1.391 . S
C3477 H3465 0.950 . S
C3477 C3473 1.393 . S
C3477 C3476 1.391 . S
C3478 H3468 0.950 . S
C3478 C3479 1.386 . S
C3478 C3480 1.391 . S
C3479 C3478 1.386 . S
C3479 C3483 1.393 . S
C3480 H3469 0.950 . S
C3480 C3478 1.391 . S
C3480 C3481 1.400 . S
C3481 C3475 1.491 . S
C3481 C3480 1.400 . S
C3481 C3482 1.398 . S
C3482 H3470 0.950 . S
C3482 C3481 1.398 . S
C3482 C3483 1.391 . S
C3483 H3471 0.950 . S
C3483 C3479 1.393 . S
C3483 C3482 1.391 . S
H3484 C3492 0.950 . S
H3485 C3497 0.950 . S
H3486 C3494 0.950 . S
H3487 C3496 0.950 . S
H3488 C3498 0.950 . S
H3489 C3500 0.950 . S
H3490 C3502 0.950 . S
H3491 C3503 0.950 . S
C3492 H3484 0.950 . S
C3492 C3493 1.386 . S
C3492 C3494 1.391 . S
C3493 C3492 1.386 . S
C3493 C3497 1.393 . S
C3494 H3486 0.950 . S
C3494 C3492 1.391 . S
C3494 C3495 1.400 . S
C3495 C3494 1.400 . S
C3495 C3496 1.398 . S
C3495 C3501 1.491 . S
C3496 H3487 0.950 . S
C3496 C3495 1.398 . S
C3496 C3497 1.391 . S
C3497 H3485 0.950 . S
C3497 C3493 1.393 . S
C3497 C3496 1.391 . S
C3498 H3488 0.950 . S
C3498 C3499 1.386 . S
C3498 C3500 1.391 . S
C3499 C3498 1.386 . S
C3499 C3503 1.393 . S
C3500 H3489 0.950 . S
C3500 C3498 1.391 . S
C3500 C3501 1.400 . S
C3501 C3495 1.491 . S
C3501 C3500 1.400 . S
C3501 C3502 1.398 . S
C3502 H3490 0.950 . S
C3502 C3501 1.398 . S
C3502 C3503 1.391 . S
C3503 H3491 0.950 . S
C3503 C3499 1.393 . S
C3503 C3502 1.391 . S
H3504 C3512 0.950 . S
H3505 C3517 0.950 . S
H3506 C3514 0.950 . S
H3507 C3516 0.950 . S
H3508 C3518 0.950 . S
H3509 C3520 0.950 . S
H3510 C3522 0.950 . S
H3511 C3523 0.950 . S
C3512 H3504 0.950 . S
C3512 C3513 1.386 . S
C3512 C3514 1.391 . S
C3513 C3512 1.386 . S
C3513 C3517 1.393 . S
C3514 H3506 0.950 . S
C3514 C3512 1.391 . S
C3514 C3515 1.400 . S
C3515 C3514 1.400 . S
C3515 C3516 1.398 . S
C3515 C3521 1.491 . S
C3516 H3507 0.950 . S
C3516 C3515 1.398 . S
C3516 C3517 1.391 . S
C3517 H3505 0.950 . S
C3517 C3513 1.393 . S
C3517 C3516 1.391 . S
C3518 H3508 0.950 . S
C3518 C3519 1.386 . S
C3518 C3520 1.391 . S
C3519 C3518 1.386 . S
C3519 C3523 1.393 . S
C3520 H3509 0.950 . S
C3520 C3518 1.391 . S
C3520 C3521 1.400 . S
C3521 C3515 1.491 . S
C3521 C3520 1.400 . S
C3521 C3522 1.398 . S
C3522 H3510 0.950 . S
C3522 C3521 1.398 . S
C3522 C3523 1.391 . S
C3523 H3511 0.950 . S
C3523 C3519 1.393 . S
C3523 C3522 1.391 . S
H3524 C3532 0.950 . S
H3525 C3537 0.950 . S
H3526 C3534 0.950 . S
H3527 C3536 0.950 . S
H3528 C3538 0.950 . S
H3529 C3540 0.950 . S
H3530 C3542 0.950 . S
H3531 C3543 0.950 . S
C3532 H3524 0.950 . S
C3532 C3533 1.386 . S
C3532 C3534 1.391 . S
C3533 C3532 1.386 . S
C3533 C3537 1.393 . S
C3534 H3526 0.950 . S
C3534 C3532 1.391 . S
C3534 C3535 1.400 . S
C3535 C3534 1.400 . S
C3535 C3536 1.398 . S
C3535 C3541 1.491 . S
C3536 H3527 0.950 . S
C3536 C3535 1.398 . S
C3536 C3537 1.391 . S
C3537 H3525 0.950 . S
C3537 C3533 1.393 . S
C3537 C3536 1.391 . S
C3538 H3528 0.950 . S
C3538 C3539 1.386 . S
C3538 C3540 1.391 . S
C3539 C3538 1.386 . S
C3539 C3543 1.393 . S
C3540 H3529 0.950 . S
C3540 C3538 1.391 . S
C3540 C3541 1.400 . S
C3541 C3535 1.491 . S
C3541 C3540 1.400 . S
C3541 C3542 1.398 . S
C3542 H3530 0.950 . S
C3542 C3541 1.398 . S
C3542 C3543 1.391 . S
C3543 H3531 0.950 . S
C3543 C3539 1.393 . S
C3543 C3542 1.391 . S
H3544 C3552 0.950 . S
H3545 C3557 0.950 . S
H3546 C3554 0.950 . S
H3547 C3556 0.950 . S
H3548 C3558 0.950 . S
H3549 C3560 0.950 . S
H3550 C3562 0.950 . S
H3551 C3563 0.950 . S
C3552 H3544 0.950 . S
C3552 C3553 1.386 . S
C3552 C3554 1.391 . S
C3553 C3552 1.386 . S
C3553 C3557 1.393 . S
C3554 H3546 0.950 . S
C3554 C3552 1.391 . S
C3554 C3555 1.400 . S
C3555 C3554 1.400 . S
C3555 C3556 1.398 . S
C3555 C3561 1.491 . S
C3556 H3547 0.950 . S
C3556 C3555 1.398 . S
C3556 C3557 1.391 . S
C3557 H3545 0.950 . S
C3557 C3553 1.393 . S
C3557 C3556 1.391 . S
C3558 H3548 0.950 . S
C3558 C3559 1.386 . S
C3558 C3560 1.391 . S
C3559 C3558 1.386 . S
C3559 C3563 1.393 . S
C3560 H3549 0.950 . S
C3560 C3558 1.391 . S
C3560 C3561 1.400 . S
C3561 C3555 1.491 . S
C3561 C3560 1.400 . S
C3561 C3562 1.398 . S
C3562 H3550 0.950 . S
C3562 C3561 1.398 . S
C3562 C3563 1.391 . S
C3563 H3551 0.950 . S
C3563 C3559 1.393 . S
C3563 C3562 1.391 . S
H3564 C3572 0.950 . S
H3565 C3577 0.950 . S
H3566 C3574 0.950 . S
H3567 C3576 0.950 . S
H3568 C3578 0.950 . S
H3569 C3580 0.950 . S
H3570 C3582 0.950 . S
H3571 C3583 0.950 . S
C3572 H3564 0.950 . S
C3572 C3573 1.386 . S
C3572 C3574 1.391 . S
C3573 C3572 1.386 . S
C3573 C3577 1.393 . S
C3574 H3566 0.950 . S
C3574 C3572 1.391 . S
C3574 C3575 1.400 . S
C3575 C3574 1.400 . S
C3575 C3576 1.398 . S
C3575 C3581 1.491 . S
C3576 H3567 0.950 . S
C3576 C3575 1.398 . S
C3576 C3577 1.391 . S
C3577 H3565 0.950 . S
C3577 C3573 1.393 . S
C3577 C3576 1.391 . S
C3578 H3568 0.950 . S
C3578 C3579 1.386 . S
C3578 C3580 1.391 . S
C3579 C3578 1.386 . S
C3579 C3583 1.393 . S
C3580 H3569 0.950 . S
C3580 C3578 1.391 . S
C3580 C3581 1.400 . S
C3581 C3575 1.491 . S
C3581 C3580 1.400 . S
C3581 C3582 1.398 . S
C3582 H3570 0.950 . S
C3582 C3581 1.398 . S
C3582 C3583 1.391 . S
C3583 H3571 0.950 . S
C3583 C3579 1.393 . S
C3583 C3582 1.391 . S
H3584 C3592 0.950 . S
H3585 C3597 0.950 . S
H3586 C3594 0.950 . S
H3587 C3596 0.950 . S
H3588 C3598 0.950 . S
H3589 C3600 0.950 . S
H3590 C3602 0.950 . S
H3591 C3603 0.950 . S
C3592 H3584 0.950 . S
C3592 C3593 1.386 . S
C3592 C3594 1.391 . S
C3593 C3592 1.386 . S
C3593 C3597 1.393 . S
C3594 H3586 0.950 . S
C3594 C3592 1.391 . S
C3594 C3595 1.400 . S
C3595 C3594 1.400 . S
C3595 C3596 1.398 . S
C3595 C3601 1.491 . S
C3596 H3587 0.950 . S
C3596 C3595 1.398 . S
C3596 C3597 1.391 . S
C3597 H3585 0.950 . S
C3597 C3593 1.393 . S
C3597 C3596 1.391 . S
C3598 H3588 0.950 . S
C3598 C3599 1.386 . S
C3598 C3600 1.391 . S
C3599 C3598 1.386 . S
C3599 C3603 1.393 . S
C3600 H3589 0.950 . S
C3600 C3598 1.391 . S
C3600 C3601 1.400 . S
C3601 C3595 1.491 . S
C3601 C3600 1.400 . S
C3601 C3602 1.398 . S
C3602 H3590 0.950 . S
C3602 C3601 1.398 . S
C3602 C3603 1.391 . S
C3603 H3591 0.950 . S
C3603 C3599 1.393 . S
C3603 C3602 1.391 . S
H3604 C3612 0.950 . S
H3605 C3617 0.950 . S
H3606 C3614 0.950 . S
H3607 C3616 0.950 . S
H3608 C3618 0.950 . S
H3609 C3620 0.950 . S
H3610 C3622 0.950 . S
H3611 C3623 0.950 . S
C3612 H3604 0.950 . S
C3612 C3613 1.386 . S
C3612 C3614 1.391 . S
C3613 C3612 1.386 . S
C3613 C3617 1.393 . S
C3614 H3606 0.950 . S
C3614 C3612 1.391 . S
C3614 C3615 1.400 . S
C3615 C3614 1.400 . S
C3615 C3616 1.398 . S
C3615 C3621 1.491 . S
C3616 H3607 0.950 . S
C3616 C3615 1.398 . S
C3616 C3617 1.391 . S
C3617 H3605 0.950 . S
C3617 C3613 1.393 . S
C3617 C3616 1.391 . S
C3618 H3608 0.950 . S
C3618 C3619 1.386 . S
C3618 C3620 1.391 . S
C3619 C3618 1.386 . S
C3619 C3623 1.393 . S
C3620 H3609 0.950 . S
C3620 C3618 1.391 . S
C3620 C3621 1.400 . S
C3621 C3615 1.491 . S
C3621 C3620 1.400 . S
C3621 C3622 1.398 . S
C3622 H3610 0.950 . S
C3622 C3621 1.398 . S
C3622 C3623 1.391 . S
C3623 H3611 0.950 . S
C3623 C3619 1.393 . S
C3623 C3622 1.391 . S
H3624 C3632 0.950 . S
H3625 C3637 0.950 . S
H3626 C3634 0.950 . S
H3627 C3636 0.950 . S
H3628 C3638 0.950 . S
H3629 C3640 0.950 . S
H3630 C3642 0.950 . S
H3631 C3643 0.950 . S
C3632 H3624 0.950 . S
C3632 C3633 1.386 . S
C3632 C3634 1.391 . S
C3633 C3632 1.386 . S
C3633 C3637 1.393 . S
C3634 H3626 0.950 . S
C3634 C3632 1.391 . S
C3634 C3635 1.400 . S
C3635 C3634 1.400 . S
C3635 C3636 1.398 . S
C3635 C3641 1.491 . S
C3636 H3627 0.950 . S
C3636 C3635 1.398 . S
C3636 C3637 1.391 . S
C3637 H3625 0.950 . S
C3637 C3633 1.393 . S
C3637 C3636 1.391 . S
C3638 H3628 0.950 . S
C3638 C3639 1.386 . S
C3638 C3640 1.391 . S
C3639 C3638 1.386 . S
C3639 C3643 1.393 . S
C3640 H3629 0.950 . S
C3640 C3638 1.391 . S
C3640 C3641 1.400 . S
C3641 C3635 1.491 . S
C3641 C3640 1.400 . S
C3641 C3642 1.398 . S
C3642 H3630 0.950 . S
C3642 C3641 1.398 . S
C3642 C3643 1.391 . S
C3643 H3631 0.950 . S
C3643 C3639 1.393 . S
C3643 C3642 1.391 . S
H3644 C3652 0.950 . S
H3645 C3657 0.950 . S
H3646 C3654 0.950 . S
H3647 C3656 0.950 . S
H3648 C3658 0.950 . S
H3649 C3660 0.950 . S
H3650 C3662 0.950 . S
H3651 C3663 0.950 . S
C3652 H3644 0.950 . S
C3652 C3653 1.386 . S
C3652 C3654 1.391 . S
C3653 C3652 1.386 . S
C3653 C3657 1.393 . S
C3654 H3646 0.950 . S
C3654 C3652 1.391 . S
C3654 C3655 1.400 . S
C3655 C3654 1.400 . S
C3655 C3656 1.398 . S
C3655 C3661 1.491 . S
C3656 H3647 0.950 . S
C3656 C3655 1.398 . S
C3656 C3657 1.391 . S
C3657 H3645 0.950 . S
C3657 C3653 1.393 . S
C3657 C3656 1.391 . S
C3658 H3648 0.950 . S
C3658 C3659 1.386 . S
C3658 C3660 1.391 . S
C3659 C3658 1.386 . S
C3659 C3663 1.393 . S
C3660 H3649 0.950 . S
C3660 C3658 1.391 . S
C3660 C3661 1.400 . S
C3661 C3655 1.491 . S
C3661 C3660 1.400 . S
C3661 C3662 1.398 . S
C3662 H3650 0.950 . S
C3662 C3661 1.398 . S
C3662 C3663 1.391 . S
C3663 H3651 0.950 . S
C3663 C3659 1.393 . S
C3663 C3662 1.391 . S
H3664 C3672 0.950 . S
H3665 C3677 0.950 . S
H3666 C3674 0.950 . S
H3667 C3676 0.950 . S
H3668 C3678 0.950 . S
H3669 C3680 0.950 . S
H3670 C3682 0.950 . S
H3671 C3683 0.950 . S
C3672 H3664 0.950 . S
C3672 C3673 1.386 . S
C3672 C3674 1.391 . S
C3673 C3672 1.386 . S
C3673 C3677 1.393 . S
C3674 H3666 0.950 . S
C3674 C3672 1.391 . S
C3674 C3675 1.400 . S
C3675 C3674 1.400 . S
C3675 C3676 1.398 . S
C3675 C3681 1.491 . S
C3676 H3667 0.950 . S
C3676 C3675 1.398 . S
C3676 C3677 1.391 . S
C3677 H3665 0.950 . S
C3677 C3673 1.393 . S
C3677 C3676 1.391 . S
C3678 H3668 0.950 . S
C3678 C3679 1.386 . S
C3678 C3680 1.391 . S
C3679 C3678 1.386 . S
C3679 C3683 1.393 . S
C3680 H3669 0.950 . S
C3680 C3678 1.391 . S
C3680 C3681 1.400 . S
C3681 C3675 1.491 . S
C3681 C3680 1.400 . S
C3681 C3682 1.398 . S
C3682 H3670 0.950 . S
C3682 C3681 1.398 . S
C3682 C3683 1.391 . S
C3683 H3671 0.950 . S
C3683 C3679 1.393 . S
C3683 C3682 1.391 . S
H3684 C3692 0.950 . S
H3685 C3697 0.950 . S
H3686 C3694 0.950 . S
H3687 C3696 0.950 . S
H3688 C3698 0.950 . S
H3689 C3700 0.950 . S
H3690 C3702 0.950 . S
H3691 C3703 0.950 . S
C3692 H3684 0.950 . S
C3692 C3693 1.386 . S
C3692 C3694 1.391 . S
C3693 C3692 1.386 . S
C3693 C3697 1.393 . S
C3694 H3686 0.950 . S
C3694 C3692 1.391 . S
C3694 C3695 1.400 . S
C3695 C3694 1.400 . S
C3695 C3696 1.398 . S
C3695 C3701 1.491 . S
C3696 H3687 0.950 . S
C3696 C3695 1.398 . S
C3696 C3697 1.391 . S
C3697 H3685 0.950 . S
C3697 C3693 1.393 . S
C3697 C3696 1.391 . S
C3698 H3688 0.950 . S
C3698 C3699 1.386 . S
C3698 C3700 1.391 . S
C3699 C3698 1.386 . S
C3699 C3703 1.393 . S
C3700 H3689 0.950 . S
C3700 C3698 1.391 . S
C3700 C3701 1.400 . S
C3701 C3695 1.491 . S
C3701 C3700 1.400 . S
C3701 C3702 1.398 . S
C3702 H3690 0.950 . S
C3702 C3701 1.398 . S
C3702 C3703 1.391 . S
C3703 H3691 0.950 . S
C3703 C3699 1.393 . S
C3703 C3702 1.391 . S
H3704 C3712 0.950 . S
H3705 C3717 0.950 . S
H3706 C3714 0.950 . S
H3707 C3716 0.950 . S
H3708 C3718 0.950 . S
H3709 C3720 0.950 . S
H3710 C3722 0.950 . S
H3711 C3723 0.950 . S
C3712 H3704 0.950 . S
C3712 C3713 1.386 . S
C3712 C3714 1.391 . S
C3713 C3712 1.386 . S
C3713 C3717 1.393 . S
C3714 H3706 0.950 . S
C3714 C3712 1.391 . S
C3714 C3715 1.400 . S
C3715 C3714 1.400 . S
C3715 C3716 1.398 . S
C3715 C3721 1.491 . S
C3716 H3707 0.950 . S
C3716 C3715 1.398 . S
C3716 C3717 1.391 . S
C3717 H3705 0.950 . S
C3717 C3713 1.393 . S
C3717 C3716 1.391 . S
C3718 H3708 0.950 . S
C3718 C3719 1.386 . S
C3718 C3720 1.391 . S
C3719 C3718 1.386 . S
C3719 C3723 1.393 . S
C3720 H3709 0.950 . S
C3720 C3718 1.391 . S
C3720 C3721 1.400 . S
C3721 C3715 1.491 . S
C3721 C3720 1.400 . S
C3721 C3722 1.398 . S
C3722 H3710 0.950 . S
C3722 C3721 1.398 . S
C3722 C3723 1.391 . S
C3723 H3711 0.950 . S
C3723 C3719 1.393 . S
C3723 C3722 1.391 . S
H3724 C3732 0.950 . S
H3725 C3737 0.950 . S
H3726 C3734 0.950 . S
H3727 C3736 0.950 . S
H3728 C3738 0.950 . S
H3729 C3740 0.950 . S
H3730 C3742 0.950 . S
H3731 C3743 0.950 . S
C3732 H3724 0.950 . S
C3732 C3733 1.386 . S
C3732 C3734 1.391 . S
C3733 C3732 1.386 . S
C3733 C3737 1.393 . S
C3734 H3726 0.950 . S
C3734 C3732 1.391 . S
C3734 C3735 1.400 . S
C3735 C3734 1.400 . S
C3735 C3736 1.398 . S
C3735 C3741 1.491 . S
C3736 H3727 0.950 . S
C3736 C3735 1.398 . S
C3736 C3737 1.391 . S
C3737 H3725 0.950 . S
C3737 C3733 1.393 . S
C3737 C3736 1.391 . S
C3738 H3728 0.950 . S
C3738 C3739 1.386 . S
C3738 C3740 1.391 . S
C3739 C3738 1.386 . S
C3739 C3743 1.393 . S
C3740 H3729 0.950 . S
C3740 C3738 1.391 . S
C3740 C3741 1.400 . S
C3741 C3735 1.491 . S
C3741 C3740 1.400 . S
C3741 C3742 1.398 . S
C3742 H3730 0.950 . S
C3742 C3741 1.398 . S
C3742 C3743 1.391 . S
C3743 H3731 0.950 . S
C3743 C3739 1.393 . S
C3743 C3742 1.391 . S
H3744 C3752 0.950 . S
H3745 C3757 0.950 . S
H3746 C3754 0.950 . S
H3747 C3756 0.950 . S
H3748 C3758 0.950 . S
H3749 C3760 0.950 . S
H3750 C3762 0.950 . S
H3751 C3763 0.950 . S
C3752 H3744 0.950 . S
C3752 C3753 1.386 . S
C3752 C3754 1.391 . S
C3753 C3752 1.386 . S
C3753 C3757 1.393 . S
C3754 H3746 0.950 . S
C3754 C3752 1.391 . S
C3754 C3755 1.400 . S
C3755 C3754 1.400 . S
C3755 C3756 1.398 . S
C3755 C3761 1.491 . S
C3756 H3747 0.950 . S
C3756 C3755 1.398 . S
C3756 C3757 1.391 . S
C3757 H3745 0.950 . S
C3757 C3753 1.393 . S
C3757 C3756 1.391 . S
C3758 H3748 0.950 . S
C3758 C3759 1.386 . S
C3758 C3760 1.391 . S
C3759 C3758 1.386 . S
C3759 C3763 1.393 . S
C3760 H3749 0.950 . S
C3760 C3758 1.391 . S
C3760 C3761 1.400 . S
C3761 C3755 1.491 . S
C3761 C3760 1.400 . S
C3761 C3762 1.398 . S
C3762 H3750 0.950 . S
C3762 C3761 1.398 . S
C3762 C3763 1.391 . S
C3763 H3751 0.950 . S
C3763 C3759 1.393 . S
C3763 C3762 1.391 . S
H3764 C3772 0.950 . S
H3765 C3777 0.950 . S
H3766 C3774 0.950 . S
H3767 C3776 0.950 . S
H3768 C3778 0.950 . S
H3769 C3780 0.950 . S
H3770 C3782 0.950 . S
H3771 C3783 0.950 . S
C3772 H3764 0.950 . S
C3772 C3773 1.386 . S
C3772 C3774 1.391 . S
C3773 C3772 1.386 . S
C3773 C3777 1.393 . S
C3774 H3766 0.950 . S
C3774 C3772 1.391 . S
C3774 C3775 1.400 . S
C3775 C3774 1.400 . S
C3775 C3776 1.398 . S
C3775 C3781 1.491 . S
C3776 H3767 0.950 . S
C3776 C3775 1.398 . S
C3776 C3777 1.391 . S
C3777 H3765 0.950 . S
C3777 C3773 1.393 . S
C3777 C3776 1.391 . S
C3778 H3768 0.950 . S
C3778 C3779 1.386 . S
C3778 C3780 1.391 . S
C3779 C3778 1.386 . S
C3779 C3783 1.393 . S
C3780 H3769 0.950 . S
C3780 C3778 1.391 . S
C3780 C3781 1.400 . S
C3781 C3775 1.491 . S
C3781 C3780 1.400 . S
C3781 C3782 1.398 . S
C3782 H3770 0.950 . S
C3782 C3781 1.398 . S
C3782 C3783 1.391 . S
C3783 H3771 0.950 . S
C3783 C3779 1.393 . S
C3783 C3782 1.391 . S
H3784 C3792 0.950 . S
H3785 C3797 0.950 . S
H3786 C3794 0.950 . S
H3787 C3796 0.950 . S
H3788 C3798 0.950 . S
H3789 C3800 0.950 . S
H3790 C3802 0.950 . S
H3791 C3803 0.950 . S
C3792 H3784 0.950 . S
C3792 C3793 1.386 . S
C3792 C3794 1.391 . S
C3793 C3792 1.386 . S
C3793 C3797 1.393 . S
C3794 H3786 0.950 . S
C3794 C3792 1.391 . S
C3794 C3795 1.400 . S
C3795 C3794 1.400 . S
C3795 C3796 1.398 . S
C3795 C3801 1.491 . S
C3796 H3787 0.950 . S
C3796 C3795 1.398 . S
C3796 C3797 1.391 . S
C3797 H3785 0.950 . S
C3797 C3793 1.393 . S
C3797 C3796 1.391 . S
C3798 H3788 0.950 . S
C3798 C3799 1.386 . S
C3798 C3800 1.391 . S
C3799 C3798 1.386 . S
C3799 C3803 1.393 . S
C3800 H3789 0.950 . S
C3800 C3798 1.391 . S
C3800 C3801 1.400 . S
C3801 C3795 1.491 . S
C3801 C3800 1.400 . S
C3801 C3802 1.398 . S
C3802 H3790 0.950 . S
C3802 C3801 1.398 . S
C3802 C3803 1.391 . S
C3803 H3791 0.950 . S
C3803 C3799 1.393 . S
C3803 C3802 1.391 . S
H3804 C3812 0.950 . S
H3805 C3817 0.950 . S
H3806 C3814 0.950 . S
H3807 C3816 0.950 . S
H3808 C3818 0.950 . S
H3809 C3820 0.950 . S
H3810 C3822 0.950 . S
H3811 C3823 0.950 . S
C3812 H3804 0.950 . S
C3812 C3813 1.386 . S
C3812 C3814 1.391 . S
C3813 C3812 1.386 . S
C3813 C3817 1.393 . S
C3814 H3806 0.950 . S
C3814 C3812 1.391 . S
C3814 C3815 1.400 . S
C3815 C3814 1.400 . S
C3815 C3816 1.398 . S
C3815 C3821 1.491 . S
C3816 H3807 0.950 . S
C3816 C3815 1.398 . S
C3816 C3817 1.391 . S
C3817 H3805 0.950 . S
C3817 C3813 1.393 . S
C3817 C3816 1.391 . S
C3818 H3808 0.950 . S
C3818 C3819 1.386 . S
C3818 C3820 1.391 . S
C3819 C3818 1.386 . S
C3819 C3823 1.393 . S
C3820 H3809 0.950 . S
C3820 C3818 1.391 . S
C3820 C3821 1.400 . S
C3821 C3815 1.491 . S
C3821 C3820 1.400 . S
C3821 C3822 1.398 . S
C3822 H3810 0.950 . S
C3822 C3821 1.398 . S
C3822 C3823 1.391 . S
C3823 H3811 0.950 . S
C3823 C3819 1.393 . S
C3823 C3822 1.391 . S
H3824 C3832 0.950 . S
H3825 C3837 0.950 . S
H3826 C3834 0.950 . S
H3827 C3836 0.950 . S
H3828 C3838 0.950 . S
H3829 C3840 0.950 . S
H3830 C3842 0.950 . S
H3831 C3843 0.950 . S
C3832 H3824 0.950 . S
C3832 C3833 1.386 . S
C3832 C3834 1.391 . S
C3833 C3832 1.386 . S
C3833 C3837 1.393 . S
C3834 H3826 0.950 . S
C3834 C3832 1.391 . S
C3834 C3835 1.400 . S
C3835 C3834 1.400 . S
C3835 C3836 1.398 . S
C3835 C3841 1.491 . S
C3836 H3827 0.950 . S
C3836 C3835 1.398 . S
C3836 C3837 1.391 . S
C3837 H3825 0.950 . S
C3837 C3833 1.393 . S
C3837 C3836 1.391 . S
C3838 H3828 0.950 . S
C3838 C3839 1.386 . S
C3838 C3840 1.391 . S
C3839 C3838 1.386 . S
C3839 C3843 1.393 . S
C3840 H3829 0.950 . S
C3840 C3838 1.391 . S
C3840 C3841 1.400 . S
C3841 C3835 1.491 . S
C3841 C3840 1.400 . S
C3841 C3842 1.398 . S
C3842 H3830 0.950 . S
C3842 C3841 1.398 . S
C3842 C3843 1.391 . S
C3843 H3831 0.950 . S
C3843 C3839 1.393 . S
C3843 C3842 1.391 . S
H3844 C3852 0.950 . S
H3845 C3857 0.950 . S
H3846 C3854 0.950 . S
H3847 C3856 0.950 . S
H3848 C3858 0.950 . S
H3849 C3860 0.950 . S
H3850 C3862 0.950 . S
H3851 C3863 0.950 . S
C3852 H3844 0.950 . S
C3852 C3853 1.386 . S
C3852 C3854 1.391 . S
C3853 C3852 1.386 . S
C3853 C3857 1.393 . S
C3854 H3846 0.950 . S
C3854 C3852 1.391 . S
C3854 C3855 1.400 . S
C3855 C3854 1.400 . S
C3855 C3856 1.398 . S
C3855 C3861 1.491 . S
C3856 H3847 0.950 . S
C3856 C3855 1.398 . S
C3856 C3857 1.391 . S
C3857 H3845 0.950 . S
C3857 C3853 1.393 . S
C3857 C3856 1.391 . S
C3858 H3848 0.950 . S
C3858 C3859 1.386 . S
C3858 C3860 1.391 . S
C3859 C3858 1.386 . S
C3859 C3863 1.393 . S
C3860 H3849 0.950 . S
C3860 C3858 1.391 . S
C3860 C3861 1.400 . S
C3861 C3855 1.491 . S
C3861 C3860 1.400 . S
C3861 C3862 1.398 . S
C3862 H3850 0.950 . S
C3862 C3861 1.398 . S
C3862 C3863 1.391 . S
C3863 H3851 0.950 . S
C3863 C3859 1.393 . S
C3863 C3862 1.391 . S
H3864 C3872 0.950 . S
H3865 C3877 0.950 . S
H3866 C3874 0.950 . S
H3867 C3876 0.950 . S
H3868 C3878 0.950 . S
H3869 C3880 0.950 . S
H3870 C3882 0.950 . S
H3871 C3883 0.950 . S
C3872 H3864 0.950 . S
C3872 C3873 1.386 . S
C3872 C3874 1.391 . S
C3873 C3872 1.386 . S
C3873 C3877 1.393 . S
C3874 H3866 0.950 . S
C3874 C3872 1.391 . S
C3874 C3875 1.400 . S
C3875 C3874 1.400 . S
C3875 C3876 1.398 . S
C3875 C3881 1.491 . S
C3876 H3867 0.950 . S
C3876 C3875 1.398 . S
C3876 C3877 1.391 . S
C3877 H3865 0.950 . S
C3877 C3873 1.393 . S
C3877 C3876 1.391 . S
C3878 H3868 0.950 . S
C3878 C3879 1.386 . S
C3878 C3880 1.391 . S
C3879 C3878 1.386 . S
C3879 C3883 1.393 . S
C3880 H3869 0.950 . S
C3880 C3878 1.391 . S
C3880 C3881 1.400 . S
C3881 C3875 1.491 . S
C3881 C3880 1.400 . S
C3881 C3882 1.398 . S
C3882 H3870 0.950 . S
C3882 C3881 1.398 . S
C3882 C3883 1.391 . S
C3883 H3871 0.950 . S
C3883 C3879 1.393 . S
C3883 C3882 1.391 . S
H3884 C3892 0.950 . S
H3885 C3897 0.950 . S
H3886 C3894 0.950 . S
H3887 C3896 0.950 . S
H3888 C3898 0.950 . S
H3889 C3900 0.950 . S
H3890 C3902 0.950 . S
H3891 C3903 0.950 . S
C3892 H3884 0.950 . S
C3892 C3893 1.386 . S
C3892 C3894 1.391 . S
C3893 C3892 1.386 . S
C3893 C3897 1.393 . S
C3894 H3886 0.950 . S
C3894 C3892 1.391 . S
C3894 C3895 1.400 . S
C3895 C3894 1.400 . S
C3895 C3896 1.398 . S
C3895 C3901 1.491 . S
C3896 H3887 0.950 . S
C3896 C3895 1.398 . S
C3896 C3897 1.391 . S
C3897 H3885 0.950 . S
C3897 C3893 1.393 . S
C3897 C3896 1.391 . S
C3898 H3888 0.950 . S
C3898 C3899 1.386 . S
C3898 C3900 1.391 . S
C3899 C3898 1.386 . S
C3899 C3903 1.393 . S
C3900 H3889 0.950 . S
C3900 C3898 1.391 . S
C3900 C3901 1.400 . S
C3901 C3895 1.491 . S
C3901 C3900 1.400 . S
C3901 C3902 1.398 . S
C3902 H3890 0.950 . S
C3902 C3901 1.398 . S
C3902 C3903 1.391 . S
C3903 H3891 0.950 . S
C3903 C3899 1.393 . S
C3903 C3902 1.391 . S
H3904 C3912 0.950 . S
H3905 C3917 0.950 . S
H3906 C3914 0.950 . S
H3907 C3916 0.950 . S
H3908 C3918 0.950 . S
H3909 C3920 0.950 . S
H3910 C3922 0.950 . S
H3911 C3923 0.950 . S
C3912 H3904 0.950 . S
C3912 C3913 1.386 . S
C3912 C3914 1.391 . S
C3913 C3912 1.386 . S
C3913 C3917 1.393 . S
C3914 H3906 0.950 . S
C3914 C3912 1.391 . S
C3914 C3915 1.400 . S
C3915 C3914 1.400 . S
C3915 C3916 1.398 . S
C3915 C3921 1.491 . S
C3916 H3907 0.950 . S
C3916 C3915 1.398 . S
C3916 C3917 1.391 . S
C3917 H3905 0.950 . S
C3917 C3913 1.393 . S
C3917 C3916 1.391 . S
C3918 H3908 0.950 . S
C3918 C3919 1.386 . S
C3918 C3920 1.391 . S
C3919 C3918 1.386 . S
C3919 C3923 1.393 . S
C3920 H3909 0.950 . S
C3920 C3918 1.391 . S
C3920 C3921 1.400 . S
C3921 C3915 1.491 . S
C3921 C3920 1.400 . S
C3921 C3922 1.398 . S
C3922 H3910 0.950 . S
C3922 C3921 1.398 . S
C3922 C3923 1.391 . S
C3923 H3911 0.950 . S
C3923 C3919 1.393 . S
C3923 C3922 1.391 . S
H3924 C3932 0.950 . S
H3925 C3937 0.950 . S
H3926 C3934 0.950 . S
H3927 C3936 0.950 . S
H3928 C3938 0.950 . S
H3929 C3940 0.950 . S
H3930 C3942 0.950 . S
H3931 C3943 0.950 . S
C3932 H3924 0.950 . S
C3932 C3933 1.386 . S
C3932 C3934 1.391 . S
C3933 C3932 1.386 . S
C3933 C3937 1.393 . S
C3934 H3926 0.950 . S
C3934 C3932 1.391 . S
C3934 C3935 1.400 . S
C3935 C3934 1.400 . S
C3935 C3936 1.398 . S
C3935 C3941 1.491 . S
C3936 H3927 0.950 . S
C3936 C3935 1.398 . S
C3936 C3937 1.391 . S
C3937 H3925 0.950 . S
C3937 C3933 1.393 . S
C3937 C3936 1.391 . S
C3938 H3928 0.950 . S
C3938 C3939 1.386 . S
C3938 C3940 1.391 . S
C3939 C3938 1.386 . S
C3939 C3943 1.393 . S
C3940 H3929 0.950 . S
C3940 C3938 1.391 . S
C3940 C3941 1.400 . S
C3941 C3935 1.491 . S
C3941 C3940 1.400 . S
C3941 C3942 1.398 . S
C3942 H3930 0.950 . S
C3942 C3941 1.398 . S
C3942 C3943 1.391 . S
C3943 H3931 0.950 . S
C3943 C3939 1.393 . S
C3943 C3942 1.391 . S
H3944 C3952 0.950 . S
H3945 C3957 0.950 . S
H3946 C3954 0.950 . S
H3947 C3956 0.950 . S
H3948 C3958 0.950 . S
H3949 C3960 0.950 . S
H3950 C3962 0.950 . S
H3951 C3963 0.926 1_455 S
C3952 H3944 0.950 . S
C3952 C3953 1.386 . S
C3952 C3954 1.391 . S
C3953 C3952 1.386 . S
C3953 C3957 1.393 . S
C3954 H3946 0.950 . S
C3954 C3952 1.391 . S
C3954 C3955 1.400 . S
C3955 C3954 1.400 . S
C3955 C3956 1.398 . S
C3955 C3961 1.491 . S
C3956 H3947 0.950 . S
C3956 C3955 1.398 . S
C3956 C3957 1.391 . S
C3957 H3945 0.950 . S
C3957 C3953 1.393 . S
C3957 C3956 1.391 . S
C3958 H3948 0.950 . S
C3958 C3959 1.386 . S
C3958 C3960 1.391 . S
C3959 C3958 1.386 . S
C3959 C3963 1.393 . S
C3960 H3949 0.950 . S
C3960 C3958 1.391 . S
C3960 C3961 1.400 . S
C3961 C3955 1.491 . S
C3961 C3960 1.400 . S
C3961 C3962 1.398 . S
C3962 H3950 0.950 . S
C3962 C3961 1.398 . S
C3962 C3963 1.391 . S
C3963 H3951 0.926 1_655 S
C3963 C3959 1.393 . S
C3963 C3962 1.391 . S
H3964 C3972 0.950 . S
H3965 C3977 0.950 . S
H3966 C3974 0.950 . S
H3967 C3976 0.950 . S
H3968 C3978 0.950 . S
H3969 C3980 0.950 . S
H3970 C3982 0.950 . S
H3971 C3983 0.950 . S
C3972 H3964 0.950 . S
C3972 C3973 1.386 . S
C3972 C3974 1.391 . S
C3973 C3972 1.386 . S
C3973 C3977 1.393 . S
C3974 H3966 0.950 . S
C3974 C3972 1.391 . S
C3974 C3975 1.400 . S
C3975 C3974 1.400 . S
C3975 C3976 1.398 . S
C3975 C3981 1.491 . S
C3976 H3967 0.950 . S
C3976 C3975 1.398 . S
C3976 C3977 1.391 . S
C3977 H3965 0.950 . S
C3977 C3973 1.393 . S
C3977 C3976 1.391 . S
C3978 H3968 0.950 . S
C3978 C3979 1.386 . S
C3978 C3980 1.391 . S
C3979 C3978 1.386 . S
C3979 C3983 1.393 . S
C3980 H3969 0.950 . S
C3980 C3978 1.391 . S
C3980 C3981 1.400 . S
C3981 C3975 1.491 . S
C3981 C3980 1.400 . S
C3981 C3982 1.398 . S
C3982 H3970 0.950 . S
C3982 C3981 1.398 . S
C3982 C3983 1.391 . S
C3983 H3971 0.950 . S
C3983 C3979 1.393 . S
C3983 C3982 1.391 . S
H3984 C3992 0.950 . S
H3985 C3997 0.950 . S
H3986 C3994 0.950 . S
H3987 C3996 0.950 . S
H3988 C3998 0.950 . S
H3989 C4000 0.950 . S
H3990 C4002 0.950 . S
H3991 C4003 0.950 . S
C3992 H3984 0.950 . S
C3992 C3993 1.386 . S
C3992 C3994 1.391 . S
C3993 C3992 1.386 . S
C3993 C3997 1.393 . S
C3994 H3986 0.950 . S
C3994 C3992 1.391 . S
C3994 C3995 1.400 . S
C3995 C3994 1.400 . S
C3995 C3996 1.398 . S
C3995 C4001 1.491 . S
C3996 H3987 0.950 . S
C3996 C3995 1.398 . S
C3996 C3997 1.391 . S
C3997 H3985 0.950 . S
C3997 C3993 1.393 . S
C3997 C3996 1.391 . S
C3998 H3988 0.950 . S
C3998 C3999 1.386 . S
C3998 C4000 1.391 . S
C3999 C3998 1.386 . S
C3999 C4003 1.393 . S
C4000 H3989 0.950 . S
C4000 C3998 1.391 . S
C4000 C4001 1.400 . S
C4001 C3995 1.491 . S
C4001 C4000 1.400 . S
C4001 C4002 1.398 . S
C4002 H3990 0.950 . S
C4002 C4001 1.398 . S
C4002 C4003 1.391 . S
C4003 H3991 0.950 . S
C4003 C3999 1.393 . S
C4003 C4002 1.391 . S
H4004 C4012 0.950 . S
H4005 C4017 0.950 . S
H4006 C4014 0.950 . S
H4007 C4016 0.950 . S
H4008 C4018 0.950 . S
H4009 C4020 0.950 . S
H4010 C4022 0.950 . S
H4011 C4023 0.950 . S
C4012 H4004 0.950 . S
C4012 C4013 1.386 . S
C4012 C4014 1.391 . S
C4013 C4012 1.386 . S
C4013 C4017 1.393 . S
C4014 H4006 0.950 . S
C4014 C4012 1.391 . S
C4014 C4015 1.400 . S
C4015 C4014 1.400 . S
C4015 C4016 1.398 . S
C4015 C4021 1.491 . S
C4016 H4007 0.950 . S
C4016 C4015 1.398 . S
C4016 C4017 1.391 . S
C4017 H4005 0.950 . S
C4017 C4013 1.393 . S
C4017 C4016 1.391 . S
C4018 H4008 0.950 . S
C4018 C4019 1.386 . S
C4018 C4020 1.391 . S
C4019 C4018 1.386 . S
C4019 C4023 1.393 . S
C4020 H4009 0.950 . S
C4020 C4018 1.391 . S
C4020 C4021 1.400 . S
C4021 C4015 1.491 . S
C4021 C4020 1.400 . S
C4021 C4022 1.398 . S
C4022 H4010 0.950 . S
C4022 C4021 1.398 . S
C4022 C4023 1.391 . S
C4023 H4011 0.950 . S
C4023 C4019 1.393 . S
C4023 C4022 1.391 . S
H4024 C4032 0.950 . S
H4025 C4037 0.950 . S
H4026 C4034 0.950 . S
H4027 C4036 0.950 . S
H4028 C4038 0.950 . S
H4029 C4040 0.950 . S
H4030 C4042 0.950 . S
H4031 C4043 0.950 . S
C4032 H4024 0.950 . S
C4032 C4033 1.386 . S
C4032 C4034 1.391 . S
C4033 C4032 1.386 . S
C4033 C4037 1.393 . S
C4034 H4026 0.950 . S
C4034 C4032 1.391 . S
C4034 C4035 1.400 . S
C4035 C4034 1.400 . S
C4035 C4036 1.398 . S
C4035 C4041 1.491 . S
C4036 H4027 0.950 . S
C4036 C4035 1.398 . S
C4036 C4037 1.391 . S
C4037 H4025 0.950 . S
C4037 C4033 1.393 . S
C4037 C4036 1.391 . S
C4038 H4028 0.950 . S
C4038 C4039 1.386 . S
C4038 C4040 1.391 . S
C4039 C4038 1.386 . S
C4039 C4043 1.393 . S
C4040 H4029 0.950 . S
C4040 C4038 1.391 . S
C4040 C4041 1.400 . S
C4041 C4035 1.491 . S
C4041 C4040 1.400 . S
C4041 C4042 1.398 . S
C4042 H4030 0.950 . S
C4042 C4041 1.398 . S
C4042 C4043 1.391 . S
C4043 H4031 0.950 . S
C4043 C4039 1.393 . S
C4043 C4042 1.391 . S
H4044 C4052 0.950 . S
H4045 C4057 0.950 . S
H4046 C4054 0.950 . S
H4047 C4056 0.950 . S
H4048 C4058 0.950 . S
H4049 C4060 0.950 . S
H4050 C4062 0.950 . S
H4051 C4063 0.950 . S
C4052 H4044 0.950 . S
C4052 C4053 1.386 . S
C4052 C4054 1.391 . S
C4053 C4052 1.386 . S
C4053 C4057 1.393 . S
C4054 H4046 0.950 . S
C4054 C4052 1.391 . S
C4054 C4055 1.400 . S
C4055 C4054 1.400 . S
C4055 C4056 1.398 . S
C4055 C4061 1.491 . S
C4056 H4047 0.950 . S
C4056 C4055 1.398 . S
C4056 C4057 1.391 . S
C4057 H4045 0.950 . S
C4057 C4053 1.393 . S
C4057 C4056 1.391 . S
C4058 H4048 0.950 . S
C4058 C4059 1.386 . S
C4058 C4060 1.391 . S
C4059 C4058 1.386 . S
C4059 C4063 1.393 . S
C4060 H4049 0.950 . S
C4060 C4058 1.391 . S
C4060 C4061 1.400 . S
C4061 C4055 1.491 . S
C4061 C4060 1.400 . S
C4061 C4062 1.398 . S
C4062 H4050 0.950 . S
C4062 C4061 1.398 . S
C4062 C4063 1.391 . S
C4063 H4051 0.950 . S
C4063 C4059 1.393 . S
C4063 C4062 1.391 . S
H4064 C4072 0.950 . S
H4065 C4077 0.950 . S
H4066 C4074 0.950 . S
H4067 C4076 0.950 . S
H4068 C4078 0.950 . S
H4069 C4080 0.950 . S
H4070 C4082 0.950 . S
H4071 C4083 0.950 . S
C4072 H4064 0.950 . S
C4072 C4073 1.386 . S
C4072 C4074 1.391 . S
C4073 C4072 1.386 . S
C4073 C4077 1.393 . S
C4074 H4066 0.950 . S
C4074 C4072 1.391 . S
C4074 C4075 1.400 . S
C4075 C4074 1.400 . S
C4075 C4076 1.398 . S
C4075 C4081 1.491 . S
C4076 H4067 0.950 . S
C4076 C4075 1.398 . S
C4076 C4077 1.391 . S
C4077 H4065 0.950 . S
C4077 C4073 1.393 . S
C4077 C4076 1.391 . S
C4078 H4068 0.950 . S
C4078 C4079 1.386 . S
C4078 C4080 1.391 . S
C4079 C4078 1.386 . S
C4079 C4083 1.393 . S
C4080 H4069 0.950 . S
C4080 C4078 1.391 . S
C4080 C4081 1.400 . S
C4081 C4075 1.491 . S
C4081 C4080 1.400 . S
C4081 C4082 1.398 . S
C4082 H4070 0.950 . S
C4082 C4081 1.398 . S
C4082 C4083 1.391 . S
C4083 H4071 0.950 . S
C4083 C4079 1.393 . S
C4083 C4082 1.391 . S
H4084 C4092 0.950 . S
H4085 C4097 0.950 . S
H4086 C4094 0.950 . S
H4087 C4096 0.950 . S
H4088 C4098 0.950 . S
H4089 C4100 0.950 . S
H4090 C4102 0.950 . S
H4091 C4103 0.950 . S
C4092 H4084 0.950 . S
C4092 C4093 1.386 . S
C4092 C4094 1.391 . S
C4093 C4092 1.386 . S
C4093 C4097 1.393 . S
C4094 H4086 0.950 . S
C4094 C4092 1.391 . S
C4094 C4095 1.400 . S
C4095 C4094 1.400 . S
C4095 C4096 1.398 . S
C4095 C4101 1.491 . S
C4096 H4087 0.950 . S
C4096 C4095 1.398 . S
C4096 C4097 1.391 . S
C4097 H4085 0.950 . S
C4097 C4093 1.393 . S
C4097 C4096 1.391 . S
C4098 H4088 0.950 . S
C4098 C4099 1.386 . S
C4098 C4100 1.391 . S
C4099 C4098 1.386 . S
C4099 C4103 1.393 . S
C4100 H4089 0.950 . S
C4100 C4098 1.391 . S
C4100 C4101 1.400 . S
C4101 C4095 1.491 . S
C4101 C4100 1.400 . S
C4101 C4102 1.398 . S
C4102 H4090 0.950 . S
C4102 C4101 1.398 . S
C4102 C4103 1.391 . S
C4103 H4091 0.950 . S
C4103 C4099 1.393 . S
C4103 C4102 1.391 . S
H4104 C4112 0.950 . S
H4105 C4117 0.950 . S
H4106 C4114 0.950 . S
H4107 C4116 0.950 . S
H4108 C4118 0.950 . S
H4109 C4120 0.950 . S
H4110 C4122 0.950 . S
H4111 C4123 0.950 . S
C4112 H4104 0.950 . S
C4112 C4113 1.386 . S
C4112 C4114 1.391 . S
C4113 C4112 1.386 . S
C4113 C4117 1.393 . S
C4114 H4106 0.950 . S
C4114 C4112 1.391 . S
C4114 C4115 1.400 . S
C4115 C4114 1.400 . S
C4115 C4116 1.398 . S
C4115 C4121 1.491 . S
C4116 H4107 0.950 . S
C4116 C4115 1.398 . S
C4116 C4117 1.391 . S
C4117 H4105 0.950 . S
C4117 C4113 1.393 . S
C4117 C4116 1.391 . S
C4118 H4108 0.950 . S
C4118 C4119 1.386 . S
C4118 C4120 1.391 . S
C4119 C4118 1.386 . S
C4119 C4123 1.393 . S
C4120 H4109 0.950 . S
C4120 C4118 1.391 . S
C4120 C4121 1.400 . S
C4121 C4115 1.491 . S
C4121 C4120 1.400 . S
C4121 C4122 1.398 . S
C4122 H4110 0.950 . S
C4122 C4121 1.398 . S
C4122 C4123 1.391 . S
C4123 H4111 0.950 . S
C4123 C4119 1.393 . S
C4123 C4122 1.391 . S
H4124 C4132 0.950 . S
H4125 C4137 0.950 . S
H4126 C4134 0.950 . S
H4127 C4136 0.950 . S
H4128 C4138 0.950 . S
H4129 C4140 0.950 . S
H4130 C4142 0.950 . S
H4131 C4143 0.950 . S
C4132 H4124 0.950 . S
C4132 C4133 1.386 . S
C4132 C4134 1.391 . S
C4133 C4132 1.386 . S
C4133 C4137 1.393 . S
C4134 H4126 0.950 . S
C4134 C4132 1.391 . S
C4134 C4135 1.400 . S
C4135 C4134 1.400 . S
C4135 C4136 1.398 . S
C4135 C4141 1.491 . S
C4136 H4127 0.950 . S
C4136 C4135 1.398 . S
C4136 C4137 1.391 . S
C4137 H4125 0.950 . S
C4137 C4133 1.393 . S
C4137 C4136 1.391 . S
C4138 H4128 0.950 . S
C4138 C4139 1.386 . S
C4138 C4140 1.391 . S
C4139 C4138 1.386 . S
C4139 C4143 1.393 . S
C4140 H4129 0.950 . S
C4140 C4138 1.391 . S
C4140 C4141 1.400 . S
C4141 C4135 1.491 . S
C4141 C4140 1.400 . S
C4141 C4142 1.398 . S
C4142 H4130 0.950 . S
C4142 C4141 1.398 . S
C4142 C4143 1.391 . S
C4143 H4131 0.950 . S
C4143 C4139 1.393 . S
C4143 C4142 1.391 . S
H4144 C4152 0.950 . S
H4145 C4157 0.950 . S
H4146 C4154 0.950 . S
H4147 C4156 0.950 . S
H4148 C4158 0.950 . S
H4149 C4160 0.950 . S
H4150 C4162 0.950 . S
H4151 C4163 0.950 . S
C4152 H4144 0.950 . S
C4152 C4153 1.386 . S
C4152 C4154 1.391 . S
C4153 C4152 1.386 . S
C4153 C4157 1.393 . S
C4154 H4146 0.950 . S
C4154 C4152 1.391 . S
C4154 C4155 1.400 . S
C4155 C4154 1.400 . S
C4155 C4156 1.398 . S
C4155 C4161 1.491 . S
C4156 H4147 0.950 . S
C4156 C4155 1.398 . S
C4156 C4157 1.391 . S
C4157 H4145 0.950 . S
C4157 C4153 1.393 . S
C4157 C4156 1.391 . S
C4158 H4148 0.950 . S
C4158 C4159 1.386 . S
C4158 C4160 1.391 . S
C4159 C4158 1.386 . S
C4159 C4163 1.393 . S
C4160 H4149 0.950 . S
C4160 C4158 1.391 . S
C4160 C4161 1.400 . S
C4161 C4155 1.491 . S
C4161 C4160 1.400 . S
C4161 C4162 1.398 . S
C4162 H4150 0.950 . S
C4162 C4161 1.398 . S
C4162 C4163 1.391 . S
C4163 H4151 0.950 . S
C4163 C4159 1.393 . S
C4163 C4162 1.391 . S
H4164 C4172 0.950 . S
H4165 C4177 0.950 . S
H4166 C4174 0.950 . S
H4167 C4176 0.950 . S
H4168 C4178 0.950 . S
H4169 C4180 0.950 . S
H4170 C4182 0.950 . S
H4171 C4183 0.950 . S
C4172 H4164 0.950 . S
C4172 C4173 1.386 . S
C4172 C4174 1.391 . S
C4173 C4172 1.386 . S
C4173 C4177 1.393 . S
C4174 H4166 0.950 . S
C4174 C4172 1.391 . S
C4174 C4175 1.400 . S
C4175 C4174 1.400 . S
C4175 C4176 1.398 . S
C4175 C4181 1.491 . S
C4176 H4167 0.950 . S
C4176 C4175 1.398 . S
C4176 C4177 1.391 . S
C4177 H4165 0.950 . S
C4177 C4173 1.393 . S
C4177 C4176 1.391 . S
C4178 H4168 0.950 . S
C4178 C4179 1.386 . S
C4178 C4180 1.391 . S
C4179 C4178 1.386 . S
C4179 C4183 1.393 . S
C4180 H4169 0.950 . S
C4180 C4178 1.391 . S
C4180 C4181 1.400 . S
C4181 C4175 1.491 . S
C4181 C4180 1.400 . S
C4181 C4182 1.398 . S
C4182 H4170 0.950 . S
C4182 C4181 1.398 . S
C4182 C4183 1.391 . S
C4183 H4171 0.950 . S
C4183 C4179 1.393 . S
C4183 C4182 1.391 . S
H4184 C4192 0.950 . S
H4185 C4197 0.950 . S
H4186 C4194 0.950 . S
H4187 C4196 0.950 . S
H4188 C4198 0.950 . S
H4189 C4200 0.950 . S
H4190 C4202 0.950 . S
H4191 C4203 0.950 . S
C4192 H4184 0.950 . S
C4192 C4193 1.386 . S
C4192 C4194 1.391 . S
C4193 C4192 1.386 . S
C4193 C4197 1.393 . S
C4194 H4186 0.950 . S
C4194 C4192 1.391 . S
C4194 C4195 1.400 . S
C4195 C4194 1.400 . S
C4195 C4196 1.398 . S
C4195 C4201 1.491 . S
C4196 H4187 0.950 . S
C4196 C4195 1.398 . S
C4196 C4197 1.391 . S
C4197 H4185 0.950 . S
C4197 C4193 1.393 . S
C4197 C4196 1.391 . S
C4198 H4188 0.950 . S
C4198 C4199 1.386 . S
C4198 C4200 1.391 . S
C4199 C4198 1.386 . S
C4199 C4203 1.393 . S
C4200 H4189 0.950 . S
C4200 C4198 1.391 . S
C4200 C4201 1.400 . S
C4201 C4195 1.491 . S
C4201 C4200 1.400 . S
C4201 C4202 1.398 . S
C4202 H4190 0.950 . S
C4202 C4201 1.398 . S
C4202 C4203 1.391 . S
C4203 H4191 0.950 . S
C4203 C4199 1.393 . S
C4203 C4202 1.391 . S
H4204 C4212 0.950 . S
H4205 C4217 0.950 . S
H4206 C4214 0.950 . S
H4207 C4216 0.950 . S
H4208 C4218 0.950 . S
H4209 C4220 0.950 . S
H4210 C4222 0.950 . S
H4211 C4223 0.950 . S
C4212 H4204 0.950 . S
C4212 C4213 1.386 . S
C4212 C4214 1.391 . S
C4213 C4212 1.386 . S
C4213 C4217 1.393 . S
C4214 H4206 0.950 . S
C4214 C4212 1.391 . S
C4214 C4215 1.400 . S
C4215 C4214 1.400 . S
C4215 C4216 1.398 . S
C4215 C4221 1.491 . S
C4216 H4207 0.950 . S
C4216 C4215 1.398 . S
C4216 C4217 1.391 . S
C4217 H4205 0.950 . S
C4217 C4213 1.393 . S
C4217 C4216 1.391 . S
C4218 H4208 0.950 . S
C4218 C4219 1.386 . S
C4218 C4220 1.391 . S
C4219 C4218 1.386 . S
C4219 C4223 1.393 . S
C4220 H4209 0.950 . S
C4220 C4218 1.391 . S
C4220 C4221 1.400 . S
C4221 C4215 1.491 . S
C4221 C4220 1.400 . S
C4221 C4222 1.398 . S
C4222 H4210 0.950 . S
C4222 C4221 1.398 . S
C4222 C4223 1.391 . S
C4223 H4211 0.950 . S
C4223 C4219 1.393 . S
C4223 C4222 1.391 . S
H4224 C4232 0.950 . S
H4225 C4237 0.950 . S
H4226 C4234 0.950 . S
H4227 C4236 0.950 . S
H4228 C4238 0.950 . S
H4229 C4240 0.950 . S
H4230 C4242 0.950 . S
H4231 C4243 0.950 . S
C4232 H4224 0.950 . S
C4232 C4233 1.386 . S
C4232 C4234 1.391 . S
C4233 C4232 1.386 . S
C4233 C4237 1.393 . S
C4234 H4226 0.950 . S
C4234 C4232 1.391 . S
C4234 C4235 1.400 . S
C4235 C4234 1.400 . S
C4235 C4236 1.398 . S
C4235 C4241 1.491 . S
C4236 H4227 0.950 . S
C4236 C4235 1.398 . S
C4236 C4237 1.391 . S
C4237 H4225 0.950 . S
C4237 C4233 1.393 . S
C4237 C4236 1.391 . S
C4238 H4228 0.950 . S
C4238 C4239 1.386 . S
C4238 C4240 1.391 . S
C4239 C4238 1.386 . S
C4239 C4243 1.393 . S
C4240 H4229 0.950 . S
C4240 C4238 1.391 . S
C4240 C4241 1.400 . S
C4241 C4235 1.491 . S
C4241 C4240 1.400 . S
C4241 C4242 1.398 . S
C4242 H4230 0.950 . S
C4242 C4241 1.398 . S
C4242 C4243 1.391 . S
C4243 H4231 0.950 . S
C4243 C4239 1.393 . S
C4243 C4242 1.391 . S
H4244 C4252 0.950 . S
H4245 C4257 0.950 . S
H4246 C4254 0.950 . S
H4247 C4256 0.950 . S
H4248 C4258 0.950 . S
H4249 C4260 0.950 . S
H4250 C4262 0.950 . S
H4251 C4263 0.950 . S
C4252 H4244 0.950 . S
C4252 C4253 1.386 . S
C4252 C4254 1.391 . S
C4253 C4252 1.386 . S
C4253 C4257 1.393 . S
C4254 H4246 0.950 . S
C4254 C4252 1.391 . S
C4254 C4255 1.400 . S
C4255 C4254 1.400 . S
C4255 C4256 1.398 . S
C4255 C4261 1.491 . S
C4256 H4247 0.950 . S
C4256 C4255 1.398 . S
C4256 C4257 1.391 . S
C4257 H4245 0.950 . S
C4257 C4253 1.393 . S
C4257 C4256 1.391 . S
C4258 H4248 0.950 . S
C4258 C4259 1.386 . S
C4258 C4260 1.391 . S
C4259 C4258 1.386 . S
C4259 C4263 1.393 . S
C4260 H4249 0.950 . S
C4260 C4258 1.391 . S
C4260 C4261 1.400 . S
C4261 C4255 1.491 . S
C4261 C4260 1.400 . S
C4261 C4262 1.398 . S
C4262 H4250 0.950 . S
C4262 C4261 1.398 . S
C4262 C4263 1.391 . S
C4263 H4251 0.950 . S
C4263 C4259 1.393 . S
C4263 C4262 1.391 . S
H4264 C4272 0.950 . S
H4265 C4277 0.950 . S
H4266 C4274 0.950 . S
H4267 C4276 0.950 . S
H4268 C4278 0.950 . S
H4269 C4280 0.950 . S
H4270 C4282 0.950 . S
H4271 C4283 0.950 . S
C4272 H4264 0.950 . S
C4272 C4273 1.386 . S
C4272 C4274 1.391 . S
C4273 C4272 1.386 . S
C4273 C4277 1.393 . S
C4274 H4266 0.950 . S
C4274 C4272 1.391 . S
C4274 C4275 1.400 . S
C4275 C4274 1.400 . S
C4275 C4276 1.398 . S
C4275 C4281 1.491 . S
C4276 H4267 0.950 . S
C4276 C4275 1.398 . S
C4276 C4277 1.391 . S
C4277 H4265 0.950 . S
C4277 C4273 1.393 . S
C4277 C4276 1.391 . S
C4278 H4268 0.950 . S
C4278 C4279 1.386 . S
C4278 C4280 1.391 . S
C4279 C4278 1.386 . S
C4279 C4283 1.393 . S
C4280 H4269 0.950 . S
C4280 C4278 1.391 . S
C4280 C4281 1.400 . S
C4281 C4275 1.491 . S
C4281 C4280 1.400 . S
C4281 C4282 1.398 . S
C4282 H4270 0.950 . S
C4282 C4281 1.398 . S
C4282 C4283 1.391 . S
C4283 H4271 0.950 . S
C4283 C4279 1.393 . S
C4283 C4282 1.391 . S
H4284 C4292 0.950 . S
H4285 C4297 0.950 . S
H4286 C4294 0.950 . S
H4287 C4296 0.950 . S
H4288 C4298 0.950 . S
H4289 C4300 0.950 . S
H4290 C4302 0.950 . S
H4291 C4303 0.950 . S
C4292 H4284 0.950 . S
C4292 C4293 1.386 . S
C4292 C4294 1.391 . S
C4293 C4292 1.386 . S
C4293 C4297 1.393 . S
C4294 H4286 0.950 . S
C4294 C4292 1.391 . S
C4294 C4295 1.400 . S
C4295 C4294 1.400 . S
C4295 C4296 1.398 . S
C4295 C4301 1.491 . S
C4296 H4287 0.950 . S
C4296 C4295 1.398 . S
C4296 C4297 1.391 . S
C4297 H4285 0.950 . S
C4297 C4293 1.393 . S
C4297 C4296 1.391 . S
C4298 H4288 0.950 . S
C4298 C4299 1.386 . S
C4298 C4300 1.391 . S
C4299 C4298 1.386 . S
C4299 C4303 1.393 . S
C4300 H4289 0.950 . S
C4300 C4298 1.391 . S
C4300 C4301 1.400 . S
C4301 C4295 1.491 . S
C4301 C4300 1.400 . S
C4301 C4302 1.398 . S
C4302 H4290 0.950 . S
C4302 C4301 1.398 . S
C4302 C4303 1.391 . S
C4303 H4291 0.950 . S
C4303 C4299 1.393 . S
C4303 C4302 1.391 . S
H4304 C4312 0.950 . S
H4305 C4317 0.950 . S
H4306 C4314 0.950 . S
H4307 C4316 0.950 . S
H4308 C4318 0.950 . S
H4309 C4320 0.950 . S
H4310 C4322 0.950 . S
H4311 C4323 0.950 . S
C4312 H4304 0.950 . S
C4312 C4313 1.386 . S
C4312 C4314 1.391 . S
C4313 C4312 1.386 . S
C4313 C4317 1.393 . S
C4314 H4306 0.950 . S
C4314 C4312 1.391 . S
C4314 C4315 1.400 . S
C4315 C4314 1.400 . S
C4315 C4316 1.398 . S
C4315 C4321 1.491 . S
C4316 H4307 0.950 . S
C4316 C4315 1.398 . S
C4316 C4317 1.391 . S
C4317 H4305 0.950 . S
C4317 C4313 1.393 . S
C4317 C4316 1.391 . S
C4318 H4308 0.950 . S
C4318 C4319 1.386 . S
C4318 C4320 1.391 . S
C4319 C4318 1.386 . S
C4319 C4323 1.393 . S
C4320 H4309 0.950 . S
C4320 C4318 1.391 . S
C4320 C4321 1.400 . S
C4321 C4315 1.491 . S
C4321 C4320 1.400 . S
C4321 C4322 1.398 . S
C4322 H4310 0.950 . S
C4322 C4321 1.398 . S
C4322 C4323 1.391 . S
C4323 H4311 0.950 . S
C4323 C4319 1.393 . S
C4323 C4322 1.391 . S
H4324 C4332 0.950 . S
H4325 C4337 0.950 . S
H4326 C4334 0.950 . S
H4327 C4336 0.950 . S
H4328 C4338 0.950 . S
H4329 C4340 0.950 . S
H4330 C4342 0.950 . S
H4331 C4343 0.950 . S
C4332 H4324 0.950 . S
C4332 C4333 1.386 . S
C4332 C4334 1.391 . S
C4333 C4332 1.386 . S
C4333 C4337 1.393 . S
C4334 H4326 0.950 . S
C4334 C4332 1.391 . S
C4334 C4335 1.400 . S
C4335 C4334 1.400 . S
C4335 C4336 1.398 . S
C4335 C4341 1.491 . S
C4336 H4327 0.950 . S
C4336 C4335 1.398 . S
C4336 C4337 1.391 . S
C4337 H4325 0.950 . S
C4337 C4333 1.393 . S
C4337 C4336 1.391 . S
C4338 H4328 0.950 . S
C4338 C4339 1.386 . S
C4338 C4340 1.391 . S
C4339 C4338 1.386 . S
C4339 C4343 1.393 . S
C4340 H4329 0.950 . S
C4340 C4338 1.391 . S
C4340 C4341 1.400 . S
C4341 C4335 1.491 . S
C4341 C4340 1.400 . S
C4341 C4342 1.398 . S
C4342 H4330 0.950 . S
C4342 C4341 1.398 . S
C4342 C4343 1.391 . S
C4343 H4331 0.950 . S
C4343 C4339 1.393 . S
C4343 C4342 1.391 . S
H4344 C4352 1.008 . S
H4345 C4357 0.950 . S
H4346 C4354 0.950 . S
H4347 C4356 0.950 . S
H4348 C4358 0.950 . S
H4349 C4360 0.950 . S
H4350 C4362 0.950 . S
H4351 C4363 0.950 . S
C4352 H4344 1.008 . S
C4352 C4353 1.386 . S
C4352 C4354 1.391 . S
C4353 C4352 1.386 . S
C4353 C4357 1.393 . S
C4354 H4346 0.950 . S
C4354 C4352 1.391 . S
C4354 C4355 1.400 . S
C4355 C4354 1.400 . S
C4355 C4356 1.398 . S
C4355 C4361 1.491 . S
C4356 H4347 0.950 . S
C4356 C4355 1.398 . S
C4356 C4357 1.391 . S
C4357 H4345 0.950 . S
C4357 C4353 1.393 . S
C4357 C4356 1.391 . S
C4358 H4348 0.950 . S
C4358 C4359 1.386 . S
C4358 C4360 1.391 . S
C4359 C4358 1.386 . S
C4359 C4363 1.393 . S
C4360 H4349 0.950 . S
C4360 C4358 1.391 . S
C4360 C4361 1.400 . S
C4361 C4355 1.491 . S
C4361 C4360 1.400 . S
C4361 C4362 1.398 . S
C4362 H4350 0.950 . S
C4362 C4361 1.398 . S
C4362 C4363 1.391 . S
C4363 H4351 0.950 . S
C4363 C4359 1.393 . S
C4363 C4362 1.391 . S
H4364 C4372 0.950 . S
H4365 C4377 0.950 . S
H4366 C4374 0.950 . S
H4367 C4376 0.950 . S
H4368 C4378 0.950 . S
H4369 C4380 0.950 . S
H4370 C4382 0.950 . S
H4371 C4383 0.950 . S
C4372 H4364 0.950 . S
C4372 C4373 1.386 . S
C4372 C4374 1.391 . S
C4373 C4372 1.386 . S
C4373 C4377 1.393 . S
C4374 H4366 0.950 . S
C4374 C4372 1.391 . S
C4374 C4375 1.400 . S
C4375 C4374 1.400 . S
C4375 C4376 1.398 . S
C4375 C4381 1.491 . S
C4376 H4367 0.950 . S
C4376 C4375 1.398 . S
C4376 C4377 1.391 . S
C4377 H4365 0.950 . S
C4377 C4373 1.393 . S
C4377 C4376 1.391 . S
C4378 H4368 0.950 . S
C4378 C4379 1.386 . S
C4378 C4380 1.391 . S
C4379 C4378 1.386 . S
C4379 C4383 1.393 . S
C4380 H4369 0.950 . S
C4380 C4378 1.391 . S
C4380 C4381 1.400 . S
C4381 C4375 1.491 . S
C4381 C4380 1.400 . S
C4381 C4382 1.398 . S
C4382 H4370 0.950 . S
C4382 C4381 1.398 . S
C4382 C4383 1.391 . S
C4383 H4371 0.950 . S
C4383 C4379 1.393 . S
C4383 C4382 1.391 . S
H4384 C4392 0.950 . S
H4385 C4397 0.950 . S
H4386 C4394 0.950 . S
H4387 C4396 0.950 . S
H4388 C4398 0.950 . S
H4389 C4400 0.950 . S
H4390 C4402 0.950 . S
H4391 C4403 0.950 . S
C4392 H4384 0.950 . S
C4392 C4393 1.386 . S
C4392 C4394 1.391 . S
C4393 C4392 1.386 . S
C4393 C4397 1.393 . S
C4394 H4386 0.950 . S
C4394 C4392 1.391 . S
C4394 C4395 1.400 . S
C4395 C4394 1.400 . S
C4395 C4396 1.398 . S
C4395 C4401 1.491 . S
C4396 H4387 0.950 . S
C4396 C4395 1.398 . S
C4396 C4397 1.391 . S
C4397 H4385 0.950 . S
C4397 C4393 1.393 . S
C4397 C4396 1.391 . S
C4398 H4388 0.950 . S
C4398 C4399 1.386 . S
C4398 C4400 1.391 . S
C4399 C4398 1.386 . S
C4399 C4403 1.393 . S
C4400 H4389 0.950 . S
C4400 C4398 1.391 . S
C4400 C4401 1.400 . S
C4401 C4395 1.491 . S
C4401 C4400 1.400 . S
C4401 C4402 1.398 . S
C4402 H4390 0.950 . S
C4402 C4401 1.398 . S
C4402 C4403 1.391 . S
C4403 H4391 0.950 . S
C4403 C4399 1.393 . S
C4403 C4402 1.391 . S
H4404 C4412 0.950 . S
H4405 C4417 0.950 . S
H4406 C4414 0.950 . S
H4407 C4416 0.950 . S
H4408 C4418 0.950 . S
H4409 C4420 0.950 . S
H4410 C4422 0.950 . S
H4411 C4423 0.950 . S
C4412 H4404 0.950 . S
C4412 C4413 1.386 . S
C4412 C4414 1.391 . S
C4413 C4412 1.386 . S
C4413 C4417 1.393 . S
C4414 H4406 0.950 . S
C4414 C4412 1.391 . S
C4414 C4415 1.400 . S
C4415 C4414 1.400 . S
C4415 C4416 1.398 . S
C4415 C4421 1.491 . S
C4416 H4407 0.950 . S
C4416 C4415 1.398 . S
C4416 C4417 1.391 . S
C4417 H4405 0.950 . S
C4417 C4413 1.393 . S
C4417 C4416 1.391 . S
C4418 H4408 0.950 . S
C4418 C4419 1.386 . S
C4418 C4420 1.391 . S
C4419 C4418 1.386 . S
C4419 C4423 1.393 . S
C4420 H4409 0.950 . S
C4420 C4418 1.391 . S
C4420 C4421 1.400 . S
C4421 C4415 1.491 . S
C4421 C4420 1.400 . S
C4421 C4422 1.398 . S
C4422 H4410 0.950 . S
C4422 C4421 1.398 . S
C4422 C4423 1.391 . S
C4423 H4411 0.950 . S
C4423 C4419 1.393 . S
C4423 C4422 1.391 . S
H4424 C4432 0.950 . S
H4425 C4437 0.950 . S
H4426 C4434 0.950 . S
H4427 C4436 0.950 . S
H4428 C4438 0.950 . S
H4429 C4440 0.950 . S
H4430 C4442 0.950 . S
H4431 C4443 0.950 . S
C4432 H4424 0.950 . S
C4432 C4433 1.386 . S
C4432 C4434 1.391 . S
C4433 C4432 1.386 . S
C4433 C4437 1.393 . S
C4434 H4426 0.950 . S
C4434 C4432 1.391 . S
C4434 C4435 1.400 . S
C4435 C4434 1.400 . S
C4435 C4436 1.398 . S
C4435 C4441 1.491 . S
C4436 H4427 0.950 . S
C4436 C4435 1.398 . S
C4436 C4437 1.391 . S
C4437 H4425 0.950 . S
C4437 C4433 1.393 . S
C4437 C4436 1.391 . S
C4438 H4428 0.950 . S
C4438 C4439 1.386 . S
C4438 C4440 1.391 . S
C4439 C4438 1.386 . S
C4439 C4443 1.393 . S
C4440 H4429 0.950 . S
C4440 C4438 1.391 . S
C4440 C4441 1.400 . S
C4441 C4435 1.491 . S
C4441 C4440 1.400 . S
C4441 C4442 1.398 . S
C4442 H4430 0.950 . S
C4442 C4441 1.398 . S
C4442 C4443 1.391 . S
C4443 H4431 0.950 . S
C4443 C4439 1.393 . S
C4443 C4442 1.391 . S
H4444 C4452 0.950 . S
H4445 C4457 0.950 . S
H4446 C4454 0.950 . S
H4447 C4456 0.950 . S
H4448 C4458 0.950 . S
H4449 C4460 0.950 . S
H4450 C4462 0.950 . S
H4451 C4463 0.950 . S
C4452 H4444 0.950 . S
C4452 C4453 1.386 . S
C4452 C4454 1.391 . S
C4453 C4452 1.386 . S
C4453 C4457 1.393 . S
C4454 H4446 0.950 . S
C4454 C4452 1.391 . S
C4454 C4455 1.400 . S
C4455 C4454 1.400 . S
C4455 C4456 1.398 . S
C4455 C4461 1.491 . S
C4456 H4447 0.950 . S
C4456 C4455 1.398 . S
C4456 C4457 1.391 . S
C4457 H4445 0.950 . S
C4457 C4453 1.393 . S
C4457 C4456 1.391 . S
C4458 H4448 0.950 . S
C4458 C4459 1.386 . S
C4458 C4460 1.391 . S
C4459 C4458 1.386 . S
C4459 C4463 1.393 . S
C4460 H4449 0.950 . S
C4460 C4458 1.391 . S
C4460 C4461 1.400 . S
C4461 C4455 1.491 . S
C4461 C4460 1.400 . S
C4461 C4462 1.398 . S
C4462 H4450 0.950 . S
C4462 C4461 1.398 . S
C4462 C4463 1.391 . S
C4463 H4451 0.950 . S
C4463 C4459 1.393 . S
C4463 C4462 1.391 . S
H4464 C4472 0.950 . S
H4465 C4477 0.950 . S
H4466 C4474 0.950 . S
H4467 C4476 0.950 . S
H4468 C4478 0.950 . S
H4469 C4480 0.950 . S
H4470 C4482 0.950 . S
H4471 C4483 0.950 . S
C4472 H4464 0.950 . S
C4472 C4473 1.386 . S
C4472 C4474 1.391 . S
C4473 C4472 1.386 . S
C4473 C4477 1.393 . S
C4474 H4466 0.950 . S
C4474 C4472 1.391 . S
C4474 C4475 1.400 . S
C4475 C4474 1.400 . S
C4475 C4476 1.398 . S
C4475 C4481 1.491 . S
C4476 H4467 0.950 . S
C4476 C4475 1.398 . S
C4476 C4477 1.391 . S
C4477 H4465 0.950 . S
C4477 C4473 1.393 . S
C4477 C4476 1.391 . S
C4478 H4468 0.950 . S
C4478 C4479 1.386 . S
C4478 C4480 1.391 . S
C4479 C4478 1.386 . S
C4479 C4483 1.393 . S
C4480 H4469 0.950 . S
C4480 C4478 1.391 . S
C4480 C4481 1.400 . S
C4481 C4475 1.491 . S
C4481 C4480 1.400 . S
C4481 C4482 1.398 . S
C4482 H4470 0.950 . S
C4482 C4481 1.398 . S
C4482 C4483 1.391 . S
C4483 H4471 0.950 . S
C4483 C4479 1.393 . S
C4483 C4482 1.391 . S
H4484 C4492 0.950 . S
H4485 C4497 0.950 . S
H4486 C4494 0.950 . S
H4487 C4496 0.950 . S
H4488 C4498 0.950 . S
H4489 C4500 0.950 . S
H4490 C4502 0.950 . S
H4491 C4503 0.950 . S
C4492 H4484 0.950 . S
C4492 C4493 1.386 . S
C4492 C4494 1.391 . S
C4493 C4492 1.386 . S
C4493 C4497 1.393 . S
C4494 H4486 0.950 . S
C4494 C4492 1.391 . S
C4494 C4495 1.400 . S
C4495 C4494 1.400 . S
C4495 C4496 1.398 . S
C4495 C4501 1.491 . S
C4496 H4487 0.950 . S
C4496 C4495 1.398 . S
C4496 C4497 1.391 . S
C4497 H4485 0.950 . S
C4497 C4493 1.393 . S
C4497 C4496 1.391 . S
C4498 H4488 0.950 . S
C4498 C4499 1.386 . S
C4498 C4500 1.391 . S
C4499 C4498 1.386 . S
C4499 C4503 1.393 . S
C4500 H4489 0.950 . S
C4500 C4498 1.391 . S
C4500 C4501 1.400 . S
C4501 C4495 1.491 . S
C4501 C4500 1.400 . S
C4501 C4502 1.398 . S
C4502 H4490 0.950 . S
C4502 C4501 1.398 . S
C4502 C4503 1.391 . S
C4503 H4491 0.950 . S
C4503 C4499 1.393 . S
C4503 C4502 1.391 . S
H4504 C4512 0.950 . S
H4505 C4517 0.950 . S
H4506 C4514 0.950 . S
H4507 C4516 0.950 . S
H4508 C4518 0.950 . S
H4509 C4520 0.950 . S
H4510 C4522 0.950 . S
H4511 C4523 0.950 . S
C4512 H4504 0.950 . S
C4512 C4513 1.386 . S
C4512 C4514 1.391 . S
C4513 C4512 1.386 . S
C4513 C4517 1.393 . S
C4514 H4506 0.950 . S
C4514 C4512 1.391 . S
C4514 C4515 1.400 . S
C4515 C4514 1.400 . S
C4515 C4516 1.398 . S
C4515 C4521 1.491 . S
C4516 H4507 0.950 . S
C4516 C4515 1.398 . S
C4516 C4517 1.391 . S
C4517 H4505 0.950 . S
C4517 C4513 1.393 . S
C4517 C4516 1.391 . S
C4518 H4508 0.950 . S
C4518 C4519 1.386 . S
C4518 C4520 1.391 . S
C4519 C4518 1.386 . S
C4519 C4523 1.393 . S
C4520 H4509 0.950 . S
C4520 C4518 1.391 . S
C4520 C4521 1.400 . S
C4521 C4515 1.491 . S
C4521 C4520 1.400 . S
C4521 C4522 1.398 . S
C4522 H4510 0.950 . S
C4522 C4521 1.398 . S
C4522 C4523 1.391 . S
C4523 H4511 0.950 . S
C4523 C4519 1.393 . S
C4523 C4522 1.391 . S
H4524 C4532 0.950 . S
H4525 C4537 0.950 . S
H4526 C4534 0.950 . S
H4527 C4536 0.950 . S
H4528 C4538 0.950 . S
H4529 C4540 0.950 . S
H4530 C4542 0.950 . S
H4531 C4543 0.950 . S
C4532 H4524 0.950 . S
C4532 C4533 1.386 . S
C4532 C4534 1.391 . S
C4533 C4532 1.386 . S
C4533 C4537 1.393 . S
C4534 H4526 0.950 . S
C4534 C4532 1.391 . S
C4534 C4535 1.400 . S
C4535 C4534 1.400 . S
C4535 C4536 1.398 . S
C4535 C4541 1.491 . S
C4536 H4527 0.950 . S
C4536 C4535 1.398 . S
C4536 C4537 1.391 . S
C4537 H4525 0.950 . S
C4537 C4533 1.393 . S
C4537 C4536 1.391 . S
C4538 H4528 0.950 . S
C4538 C4539 1.386 . S
C4538 C4540 1.391 . S
C4539 C4538 1.386 . S
C4539 C4543 1.393 . S
C4540 H4529 0.950 . S
C4540 C4538 1.391 . S
C4540 C4541 1.400 . S
C4541 C4535 1.491 . S
C4541 C4540 1.400 . S
C4541 C4542 1.398 . S
C4542 H4530 0.950 . S
C4542 C4541 1.398 . S
C4542 C4543 1.391 . S
C4543 H4531 0.950 . S
C4543 C4539 1.393 . S
C4543 C4542 1.391 . S
H4544 C4552 0.950 . S
H4545 C4557 0.950 . S
H4546 C4554 0.950 . S
H4547 C4556 0.950 . S
H4548 C4558 0.950 . S
H4549 C4560 0.950 . S
H4550 C4562 0.950 . S
H4551 C4563 0.950 . S
C4552 H4544 0.950 . S
C4552 C4553 1.386 . S
C4552 C4554 1.391 . S
C4553 C4552 1.386 . S
C4553 C4557 1.393 . S
C4554 H4546 0.950 . S
C4554 C4552 1.391 . S
C4554 C4555 1.400 . S
C4555 C4554 1.400 . S
C4555 C4556 1.398 . S
C4555 C4561 1.491 . S
C4556 H4547 0.950 . S
C4556 C4555 1.398 . S
C4556 C4557 1.391 . S
C4557 H4545 0.950 . S
C4557 C4553 1.393 . S
C4557 C4556 1.391 . S
C4558 H4548 0.950 . S
C4558 C4559 1.386 . S
C4558 C4560 1.391 . S
C4559 C4558 1.386 . S
C4559 C4563 1.393 . S
C4560 H4549 0.950 . S
C4560 C4558 1.391 . S
C4560 C4561 1.400 . S
C4561 C4555 1.491 . S
C4561 C4560 1.400 . S
C4561 C4562 1.398 . S
C4562 H4550 0.950 . S
C4562 C4561 1.398 . S
C4562 C4563 1.391 . S
C4563 H4551 0.950 . S
C4563 C4559 1.393 . S
C4563 C4562 1.391 . S
H4564 C4572 0.950 . S
H4565 C4577 0.950 . S
H4566 C4574 0.950 . S
H4567 C4576 0.950 . S
H4568 C4578 0.950 . S
H4569 C4580 0.950 . S
H4570 C4582 0.950 . S
H4571 C4583 0.950 . S
C4572 H4564 0.950 . S
C4572 C4573 1.386 . S
C4572 C4574 1.391 . S
C4573 C4572 1.386 . S
C4573 C4577 1.393 . S
C4574 H4566 0.950 . S
C4574 C4572 1.391 . S
C4574 C4575 1.400 . S
C4575 C4574 1.400 . S
C4575 C4576 1.398 . S
C4575 C4581 1.491 . S
C4576 H4567 0.950 . S
C4576 C4575 1.398 . S
C4576 C4577 1.391 . S
C4577 H4565 0.950 . S
C4577 C4573 1.393 . S
C4577 C4576 1.391 . S
C4578 H4568 0.950 . S
C4578 C4579 1.386 . S
C4578 C4580 1.391 . S
C4579 C4578 1.386 . S
C4579 C4583 1.393 . S
C4580 H4569 0.950 . S
C4580 C4578 1.391 . S
C4580 C4581 1.400 . S
C4581 C4575 1.491 . S
C4581 C4580 1.400 . S
C4581 C4582 1.398 . S
C4582 H4570 0.950 . S
C4582 C4581 1.398 . S
C4582 C4583 1.391 . S
C4583 H4571 0.950 . S
C4583 C4579 1.393 . S
C4583 C4582 1.391 . S
H4584 C4592 0.950 . S
H4585 C4597 0.950 . S
H4586 C4594 0.950 . S
H4587 C4596 0.950 . S
H4588 C4598 0.950 . S
H4589 C4600 0.950 . S
H4590 C4602 0.950 . S
H4591 C4603 0.950 . S
C4592 H4584 0.950 . S
C4592 C4593 1.386 . S
C4592 C4594 1.391 . S
C4593 C4592 1.386 . S
C4593 C4597 1.393 . S
C4594 H4586 0.950 . S
C4594 C4592 1.391 . S
C4594 C4595 1.400 . S
C4595 C4594 1.400 . S
C4595 C4596 1.398 . S
C4595 C4601 1.491 . S
C4596 H4587 0.950 . S
C4596 C4595 1.398 . S
C4596 C4597 1.391 . S
C4597 H4585 0.950 . S
C4597 C4593 1.393 . S
C4597 C4596 1.391 . S
C4598 H4588 0.950 . S
C4598 C4599 1.386 . S
C4598 C4600 1.391 . S
C4599 C4598 1.386 . S
C4599 C4603 1.393 . S
C4600 H4589 0.950 . S
C4600 C4598 1.391 . S
C4600 C4601 1.400 . S
C4601 C4595 1.491 . S
C4601 C4600 1.400 . S
C4601 C4602 1.398 . S
C4602 H4590 0.950 . S
C4602 C4601 1.398 . S
C4602 C4603 1.391 . S
C4603 H4591 0.950 . S
C4603 C4599 1.393 . S
C4603 C4602 1.391 . S
H4604 C4612 0.950 . S
H4605 C4617 0.950 . S
H4606 C4614 0.950 . S
H4607 C4616 0.950 . S
H4608 C4618 0.950 . S
H4609 C4620 0.950 . S
H4610 C4622 0.950 . S
H4611 C4623 0.950 . S
C4612 H4604 0.950 . S
C4612 C4613 1.386 . S
C4612 C4614 1.391 . S
C4613 C4612 1.386 . S
C4613 C4617 1.393 . S
C4614 H4606 0.950 . S
C4614 C4612 1.391 . S
C4614 C4615 1.400 . S
C4615 C4614 1.400 . S
C4615 C4616 1.398 . S
C4615 C4621 1.491 . S
C4616 H4607 0.950 . S
C4616 C4615 1.398 . S
C4616 C4617 1.391 . S
C4617 H4605 0.950 . S
C4617 C4613 1.393 . S
C4617 C4616 1.391 . S
C4618 H4608 0.950 . S
C4618 C4619 1.386 . S
C4618 C4620 1.391 . S
C4619 C4618 1.386 . S
C4619 C4623 1.393 . S
C4620 H4609 0.950 . S
C4620 C4618 1.391 . S
C4620 C4621 1.400 . S
C4621 C4615 1.491 . S
C4621 C4620 1.400 . S
C4621 C4622 1.398 . S
C4622 H4610 0.950 . S
C4622 C4621 1.398 . S
C4622 C4623 1.391 . S
C4623 H4611 0.950 . S
C4623 C4619 1.393 . S
C4623 C4622 1.391 . S
H4624 C4632 0.950 . S
H4625 C4637 0.950 . S
H4626 C4634 0.950 . S
H4627 C4636 0.950 . S
H4628 C4638 0.950 . S
H4629 C4640 0.950 . S
H4630 C4642 0.950 . S
H4631 C4643 0.950 . S
C4632 H4624 0.950 . S
C4632 C4633 1.386 . S
C4632 C4634 1.391 . S
C4633 C4632 1.386 . S
C4633 C4637 1.393 . S
C4634 H4626 0.950 . S
C4634 C4632 1.391 . S
C4634 C4635 1.400 . S
C4635 C4634 1.400 . S
C4635 C4636 1.398 . S
C4635 C4641 1.491 . S
C4636 H4627 0.950 . S
C4636 C4635 1.398 . S
C4636 C4637 1.391 . S
C4637 H4625 0.950 . S
C4637 C4633 1.393 . S
C4637 C4636 1.391 . S
C4638 H4628 0.950 . S
C4638 C4639 1.386 . S
C4638 C4640 1.391 . S
C4639 C4638 1.386 . S
C4639 C4643 1.393 . S
C4640 H4629 0.950 . S
C4640 C4638 1.391 . S
C4640 C4641 1.400 . S
C4641 C4635 1.491 . S
C4641 C4640 1.400 . S
C4641 C4642 1.398 . S
C4642 H4630 0.950 . S
C4642 C4641 1.398 . S
C4642 C4643 1.391 . S
C4643 H4631 0.950 . S
C4643 C4639 1.393 . S
C4643 C4642 1.391 . S
H4644 C4652 0.950 . S
H4645 C4657 0.950 . S
H4646 C4654 0.950 . S
H4647 C4656 0.950 . S
H4648 C4658 0.950 . S
H4649 C4660 0.950 . S
H4650 C4662 0.950 . S
H4651 C4663 0.950 . S
C4652 H4644 0.950 . S
C4652 C4653 1.386 . S
C4652 C4654 1.391 . S
C4653 C4652 1.386 . S
C4653 C4657 1.393 . S
C4654 H4646 0.950 . S
C4654 C4652 1.391 . S
C4654 C4655 1.400 . S
C4655 C4654 1.400 . S
C4655 C4656 1.398 . S
C4655 C4661 1.491 . S
C4656 H4647 0.950 . S
C4656 C4655 1.398 . S
C4656 C4657 1.391 . S
C4657 H4645 0.950 . S
C4657 C4653 1.393 . S
C4657 C4656 1.391 . S
C4658 H4648 0.950 . S
C4658 C4659 1.386 . S
C4658 C4660 1.391 . S
C4659 C4658 1.386 . S
C4659 C4663 1.393 . S
C4660 H4649 0.950 . S
C4660 C4658 1.391 . S
C4660 C4661 1.400 . S
C4661 C4655 1.491 . S
C4661 C4660 1.400 . S
C4661 C4662 1.398 . S
C4662 H4650 0.950 . S
C4662 C4661 1.398 . S
C4662 C4663 1.391 . S
C4663 H4651 0.950 . S
C4663 C4659 1.393 . S
C4663 C4662 1.391 . S
H4664 C4672 0.950 . S
H4665 C4677 0.950 . S
H4666 C4674 0.950 . S
H4667 C4676 0.950 . S
H4668 C4678 0.950 . S
H4669 C4680 0.950 . S
H4670 C4682 0.950 . S
H4671 C4683 0.950 . S
C4672 H4664 0.950 . S
C4672 C4673 1.386 . S
C4672 C4674 1.391 . S
C4673 C4672 1.386 . S
C4673 C4677 1.393 . S
C4674 H4666 0.950 . S
C4674 C4672 1.391 . S
C4674 C4675 1.400 . S
C4675 C4674 1.400 . S
C4675 C4676 1.398 . S
C4675 C4681 1.491 . S
C4676 H4667 0.950 . S
C4676 C4675 1.398 . S
C4676 C4677 1.391 . S
C4677 H4665 0.950 . S
C4677 C4673 1.393 . S
C4677 C4676 1.391 . S
C4678 H4668 0.950 . S
C4678 C4679 1.386 . S
C4678 C4680 1.391 . S
C4679 C4678 1.386 . S
C4679 C4683 1.393 . S
C4680 H4669 0.950 . S
C4680 C4678 1.391 . S
C4680 C4681 1.400 . S
C4681 C4675 1.491 . S
C4681 C4680 1.400 . S
C4681 C4682 1.398 . S
C4682 H4670 0.950 . S
C4682 C4681 1.398 . S
C4682 C4683 1.391 . S
C4683 H4671 0.950 . S
C4683 C4679 1.393 . S
C4683 C4682 1.391 . S
H4684 C4692 0.950 . S
H4685 C4697 0.950 . S
H4686 C4694 0.950 . S
H4687 C4696 0.950 . S
H4688 C4698 0.950 . S
H4689 C4700 0.950 . S
H4690 C4702 0.950 . S
H4691 C4703 0.950 . S
C4692 H4684 0.950 . S
C4692 C4693 1.386 . S
C4692 C4694 1.391 . S
C4693 C4692 1.386 . S
C4693 C4697 1.393 . S
C4694 H4686 0.950 . S
C4694 C4692 1.391 . S
C4694 C4695 1.400 . S
C4695 C4694 1.400 . S
C4695 C4696 1.398 . S
C4695 C4701 1.491 . S
C4696 H4687 0.950 . S
C4696 C4695 1.398 . S
C4696 C4697 1.391 . S
C4697 H4685 0.950 . S
C4697 C4693 1.393 . S
C4697 C4696 1.391 . S
C4698 H4688 0.950 . S
C4698 C4699 1.386 . S
C4698 C4700 1.391 . S
C4699 C4698 1.386 . S
C4699 C4703 1.393 . S
C4700 H4689 0.950 . S
C4700 C4698 1.391 . S
C4700 C4701 1.400 . S
C4701 C4695 1.491 . S
C4701 C4700 1.400 . S
C4701 C4702 1.398 . S
C4702 H4690 0.950 . S
C4702 C4701 1.398 . S
C4702 C4703 1.391 . S
C4703 H4691 0.950 . S
C4703 C4699 1.393 . S
C4703 C4702 1.391 . S
H4704 C4712 0.950 . S
H4705 C4717 0.950 . S
H4706 C4714 0.950 . S
H4707 C4716 0.950 . S
H4708 C4718 0.950 . S
H4709 C4720 0.950 . S
H4710 C4722 0.950 . S
H4711 C4723 0.950 . S
C4712 H4704 0.950 . S
C4712 C4713 1.386 . S
C4712 C4714 1.391 . S
C4713 C4712 1.386 . S
C4713 C4717 1.393 . S
C4714 H4706 0.950 . S
C4714 C4712 1.391 . S
C4714 C4715 1.400 . S
C4715 C4714 1.400 . S
C4715 C4716 1.398 . S
C4715 C4721 1.491 . S
C4716 H4707 0.950 . S
C4716 C4715 1.398 . S
C4716 C4717 1.391 . S
C4717 H4705 0.950 . S
C4717 C4713 1.393 . S
C4717 C4716 1.391 . S
C4718 H4708 0.950 . S
C4718 C4719 1.386 . S
C4718 C4720 1.391 . S
C4719 C4718 1.386 . S
C4719 C4723 1.393 . S
C4720 H4709 0.950 . S
C4720 C4718 1.391 . S
C4720 C4721 1.400 . S
C4721 C4715 1.491 . S
C4721 C4720 1.400 . S
C4721 C4722 1.398 . S
C4722 H4710 0.950 . S
C4722 C4721 1.398 . S
C4722 C4723 1.391 . S
C4723 H4711 0.950 . S
C4723 C4719 1.393 . S
C4723 C4722 1.391 . S
H4724 C4732 0.950 . S
H4725 C4737 0.950 . S
H4726 C4734 0.950 . S
H4727 C4736 0.950 . S
H4728 C4738 0.950 . S
H4729 C4740 0.950 . S
H4730 C4742 0.950 . S
H4731 C4743 0.950 . S
C4732 H4724 0.950 . S
C4732 C4733 1.386 . S
C4732 C4734 1.391 . S
C4733 C4732 1.386 . S
C4733 C4737 1.393 . S
C4734 H4726 0.950 . S
C4734 C4732 1.391 . S
C4734 C4735 1.400 . S
C4735 C4734 1.400 . S
C4735 C4736 1.398 . S
C4735 C4741 1.491 . S
C4736 H4727 0.950 . S
C4736 C4735 1.398 . S
C4736 C4737 1.391 . S
C4737 H4725 0.950 . S
C4737 C4733 1.393 . S
C4737 C4736 1.391 . S
C4738 H4728 0.950 . S
C4738 C4739 1.386 . S
C4738 C4740 1.391 . S
C4739 C4738 1.386 . S
C4739 C4743 1.393 . S
C4740 H4729 0.950 . S
C4740 C4738 1.391 . S
C4740 C4741 1.400 . S
C4741 C4735 1.491 . S
C4741 C4740 1.400 . S
C4741 C4742 1.398 . S
C4742 H4730 0.950 . S
C4742 C4741 1.398 . S
C4742 C4743 1.391 . S
C4743 H4731 0.950 . S
C4743 C4739 1.393 . S
C4743 C4742 1.391 . S
H4744 C4752 0.950 . S
H4745 C4757 0.950 . S
H4746 C4754 0.950 . S
H4747 C4756 0.950 . S
H4748 C4758 0.950 . S
H4749 C4760 0.950 . S
H4750 C4762 0.950 . S
H4751 C4763 0.950 . S
C4752 H4744 0.950 . S
C4752 C4753 1.386 . S
C4752 C4754 1.391 . S
C4753 C4752 1.386 . S
C4753 C4757 1.393 . S
C4754 H4746 0.950 . S
C4754 C4752 1.391 . S
C4754 C4755 1.400 . S
C4755 C4754 1.400 . S
C4755 C4756 1.398 . S
C4755 C4761 1.491 . S
C4756 H4747 0.950 . S
C4756 C4755 1.398 . S
C4756 C4757 1.391 . S
C4757 H4745 0.950 . S
C4757 C4753 1.393 . S
C4757 C4756 1.391 . S
C4758 H4748 0.950 . S
C4758 C4759 1.386 . S
C4758 C4760 1.391 . S
C4759 C4758 1.386 . S
C4759 C4763 1.393 . S
C4760 H4749 0.950 . S
C4760 C4758 1.391 . S
C4760 C4761 1.400 . S
C4761 C4755 1.491 . S
C4761 C4760 1.400 . S
C4761 C4762 1.398 . S
C4762 H4750 0.950 . S
C4762 C4761 1.398 . S
C4762 C4763 1.391 . S
C4763 H4751 0.950 . S
C4763 C4759 1.393 . S
C4763 C4762 1.391 . S
H4764 C4772 0.950 . S
H4765 C4777 0.950 . S
H4766 C4774 0.950 . S
H4767 C4776 0.950 . S
H4768 C4778 0.950 . S
H4769 C4780 0.950 . S
H4770 C4782 0.950 . S
H4771 C4783 0.950 . S
C4772 H4764 0.950 . S
C4772 C4773 1.386 . S
C4772 C4774 1.391 . S
C4773 C4772 1.386 . S
C4773 C4777 1.393 . S
C4774 H4766 0.950 . S
C4774 C4772 1.391 . S
C4774 C4775 1.400 . S
C4775 C4774 1.400 . S
C4775 C4776 1.398 . S
C4775 C4781 1.491 . S
C4776 H4767 0.950 . S
C4776 C4775 1.398 . S
C4776 C4777 1.391 . S
C4777 H4765 0.950 . S
C4777 C4773 1.393 . S
C4777 C4776 1.391 . S
C4778 H4768 0.950 . S
C4778 C4779 1.386 . S
C4778 C4780 1.391 . S
C4779 C4778 1.386 . S
C4779 C4783 1.393 . S
C4780 H4769 0.950 . S
C4780 C4778 1.391 . S
C4780 C4781 1.400 . S
C4781 C4775 1.491 . S
C4781 C4780 1.400 . S
C4781 C4782 1.398 . S
C4782 H4770 0.950 . S
C4782 C4781 1.398 . S
C4782 C4783 1.391 . S
C4783 H4771 0.950 . S
C4783 C4779 1.393 . S
C4783 C4782 1.391 . S
H4784 C4792 0.950 . S
H4785 C4797 0.950 . S
H4786 C4794 0.950 . S
H4787 C4796 0.950 . S
H4788 C4798 0.950 . S
H4789 C4800 0.950 . S
H4790 C4802 0.950 . S
H4791 C4803 0.950 . S
C4792 H4784 0.950 . S
C4792 C4793 1.386 . S
C4792 C4794 1.391 . S
C4793 C4792 1.386 . S
C4793 C4797 1.393 . S
C4794 H4786 0.950 . S
C4794 C4792 1.391 . S
C4794 C4795 1.400 . S
C4795 C4794 1.400 . S
C4795 C4796 1.398 . S
C4795 C4801 1.491 . S
C4796 H4787 0.950 . S
C4796 C4795 1.398 . S
C4796 C4797 1.391 . S
C4797 H4785 0.950 . S
C4797 C4793 1.393 . S
C4797 C4796 1.391 . S
C4798 H4788 0.950 . S
C4798 C4799 1.386 . S
C4798 C4800 1.391 . S
C4799 C4798 1.386 . S
C4799 C4803 1.393 . S
C4800 H4789 0.950 . S
C4800 C4798 1.391 . S
C4800 C4801 1.400 . S
C4801 C4795 1.491 . S
C4801 C4800 1.400 . S
C4801 C4802 1.398 . S
C4802 H4790 0.950 . S
C4802 C4801 1.398 . S
C4802 C4803 1.391 . S
C4803 H4791 0.950 . S
C4803 C4799 1.393 . S
C4803 C4802 1.391 . S
H4804 C4812 0.950 . S
H4805 C4817 0.950 . S
H4806 C4814 0.950 . S
H4807 C4816 0.950 . S
H4808 C4818 0.950 . S
H4809 C4820 0.950 . S
H4810 C4822 0.950 . S
H4811 C4823 0.950 . S
C4812 H4804 0.950 . S
C4812 C4813 1.386 . S
C4812 C4814 1.391 . S
C4813 C4812 1.386 . S
C4813 C4817 1.393 . S
C4814 H4806 0.950 . S
C4814 C4812 1.391 . S
C4814 C4815 1.400 . S
C4815 C4814 1.400 . S
C4815 C4816 1.398 . S
C4815 C4821 1.491 . S
C4816 H4807 0.950 . S
C4816 C4815 1.398 . S
C4816 C4817 1.391 . S
C4817 H4805 0.950 . S
C4817 C4813 1.393 . S
C4817 C4816 1.391 . S
C4818 H4808 0.950 . S
C4818 C4819 1.386 . S
C4818 C4820 1.391 . S
C4819 C4818 1.386 . S
C4819 C4823 1.393 . S
C4820 H4809 0.950 . S
C4820 C4818 1.391 . S
C4820 C4821 1.400 . S
C4821 C4815 1.491 . S
C4821 C4820 1.400 . S
C4821 C4822 1.398 . S
C4822 H4810 0.950 . S
C4822 C4821 1.398 . S
C4822 C4823 1.391 . S
C4823 H4811 0.950 . S
C4823 C4819 1.393 . S
C4823 C4822 1.391 . S
H4824 C4832 0.950 . S
H4825 C4837 0.950 . S
H4826 C4834 0.950 . S
H4827 C4836 0.950 . S
H4828 C4838 0.950 . S
H4829 C4840 0.950 . S
H4830 C4842 0.950 . S
H4831 C4843 0.950 . S
C4832 H4824 0.950 . S
C4832 C4833 1.386 . S
C4832 C4834 1.391 . S
C4833 C4832 1.386 . S
C4833 C4837 1.393 . S
C4834 H4826 0.950 . S
C4834 C4832 1.391 . S
C4834 C4835 1.400 . S
C4835 C4834 1.400 . S
C4835 C4836 1.398 . S
C4835 C4841 1.491 . S
C4836 H4827 0.950 . S
C4836 C4835 1.398 . S
C4836 C4837 1.391 . S
C4837 H4825 0.950 . S
C4837 C4833 1.393 . S
C4837 C4836 1.391 . S
C4838 H4828 0.950 . S
C4838 C4839 1.386 . S
C4838 C4840 1.391 . S
C4839 C4838 1.386 . S
C4839 C4843 1.393 . S
C4840 H4829 0.950 . S
C4840 C4838 1.391 . S
C4840 C4841 1.400 . S
C4841 C4835 1.491 . S
C4841 C4840 1.400 . S
C4841 C4842 1.398 . S
C4842 H4830 0.950 . S
C4842 C4841 1.398 . S
C4842 C4843 1.391 . S
C4843 H4831 0.950 . S
C4843 C4839 1.393 . S
C4843 C4842 1.391 . S
H4844 C4852 0.950 . S
H4845 C4857 0.950 . S
H4846 C4854 0.950 . S
H4847 C4856 0.950 . S
H4848 C4858 0.950 . S
H4849 C4860 0.950 . S
H4850 C4862 0.950 . S
H4851 C4863 0.950 . S
C4852 H4844 0.950 . S
C4852 C4853 1.386 . S
C4852 C4854 1.391 . S
C4853 C4852 1.386 . S
C4853 C4857 1.393 . S
C4854 H4846 0.950 . S
C4854 C4852 1.391 . S
C4854 C4855 1.400 . S
C4855 C4854 1.400 . S
C4855 C4856 1.398 . S
C4855 C4861 1.491 . S
C4856 H4847 0.950 . S
C4856 C4855 1.398 . S
C4856 C4857 1.391 . S
C4857 H4845 0.950 . S
C4857 C4853 1.393 . S
C4857 C4856 1.391 . S
C4858 H4848 0.950 . S
C4858 C4859 1.386 . S
C4858 C4860 1.391 . S
C4859 C4858 1.386 . S
C4859 C4863 1.393 . S
C4860 H4849 0.950 . S
C4860 C4858 1.391 . S
C4860 C4861 1.400 . S
C4861 C4855 1.491 . S
C4861 C4860 1.400 . S
C4861 C4862 1.398 . S
C4862 H4850 0.950 . S
C4862 C4861 1.398 . S
C4862 C4863 1.391 . S
C4863 H4851 0.950 . S
C4863 C4859 1.393 . S
C4863 C4862 1.391 . S
H4864 C4872 0.950 . S
H4865 C4877 0.950 . S
H4866 C4874 0.950 . S
H4867 C4876 0.950 . S
H4868 C4878 0.950 1_655 S
H4869 C4880 0.950 . S
H4870 C4882 0.950 . S
H4871 C4883 0.950 . S
C4872 H4864 0.950 . S
C4872 C4873 1.386 . S
C4872 C4874 1.391 . S
C4873 C4872 1.386 . S
C4873 C4877 1.393 . S
C4874 H4866 0.950 . S
C4874 C4872 1.391 . S
C4874 C4875 1.400 . S
C4875 C4874 1.400 . S
C4875 C4876 1.398 . S
C4875 C4881 1.491 . S
C4876 H4867 0.950 . S
C4876 C4875 1.398 . S
C4876 C4877 1.391 . S
C4877 H4865 0.950 . S
C4877 C4873 1.393 . S
C4877 C4876 1.391 . S
C4878 H4868 0.950 1_455 S
C4878 C4879 1.386 . S
C4878 C4880 1.391 . S
C4879 C4878 1.386 . S
C4879 C4883 1.393 . S
C4880 H4869 0.950 . S
C4880 C4878 1.391 . S
C4880 C4881 1.400 . S
C4881 C4875 1.491 . S
C4881 C4880 1.400 . S
C4881 C4882 1.398 . S
C4882 H4870 0.950 . S
C4882 C4881 1.398 . S
C4882 C4883 1.391 . S
C4883 H4871 0.950 . S
C4883 C4879 1.393 . S
C4883 C4882 1.391 . S
H4884 C4892 0.950 . S
H4885 C4897 0.950 . S
H4886 C4894 0.950 . S
H4887 C4896 0.950 . S
H4888 C4898 0.950 . S
H4889 C4900 0.950 . S
H4890 C4902 0.950 . S
H4891 C4903 0.950 . S
C4892 H4884 0.950 . S
C4892 C4893 1.386 . S
C4892 C4894 1.391 . S
C4893 C4892 1.386 . S
C4893 C4897 1.393 . S
C4894 H4886 0.950 . S
C4894 C4892 1.391 . S
C4894 C4895 1.400 . S
C4895 C4894 1.400 . S
C4895 C4896 1.398 . S
C4895 C4901 1.491 . S
C4896 H4887 0.950 . S
C4896 C4895 1.398 . S
C4896 C4897 1.391 . S
C4897 H4885 0.950 . S
C4897 C4893 1.393 . S
C4897 C4896 1.391 . S
C4898 H4888 0.950 . S
C4898 C4899 1.386 . S
C4898 C4900 1.391 . S
C4899 C4898 1.386 . S
C4899 C4903 1.393 . S
C4900 H4889 0.950 . S
C4900 C4898 1.391 . S
C4900 C4901 1.400 . S
C4901 C4895 1.491 . S
C4901 C4900 1.400 . S
C4901 C4902 1.398 . S
C4902 H4890 0.950 . S
C4902 C4901 1.398 . S
C4902 C4903 1.391 . S
C4903 H4891 0.950 . S
C4903 C4899 1.393 . S
C4903 C4902 1.391 . S
H4904 C4912 0.950 . S
H4905 C4917 0.950 . S
H4906 C4914 0.950 . S
H4907 C4916 0.950 . S
H4908 C4918 0.950 . S
H4909 C4920 0.950 . S
H4910 C4922 0.950 . S
H4911 C4923 0.950 . S
C4912 H4904 0.950 . S
C4912 C4913 1.386 . S
C4912 C4914 1.391 . S
C4913 C4912 1.386 . S
C4913 C4917 1.393 . S
C4914 H4906 0.950 . S
C4914 C4912 1.391 . S
C4914 C4915 1.400 . S
C4915 C4914 1.400 . S
C4915 C4916 1.398 . S
C4915 C4921 1.491 . S
C4916 H4907 0.950 . S
C4916 C4915 1.398 . S
C4916 C4917 1.391 . S
C4917 H4905 0.950 . S
C4917 C4913 1.393 . S
C4917 C4916 1.391 . S
C4918 H4908 0.950 . S
C4918 C4919 1.386 . S
C4918 C4920 1.391 . S
C4919 C4918 1.386 . S
C4919 C4923 1.393 . S
C4920 H4909 0.950 . S
C4920 C4918 1.391 . S
C4920 C4921 1.400 . S
C4921 C4915 1.491 . S
C4921 C4920 1.400 . S
C4921 C4922 1.398 . S
C4922 H4910 0.950 . S
C4922 C4921 1.398 . S
C4922 C4923 1.391 . S
C4923 H4911 0.950 . S
C4923 C4919 1.393 . S
C4923 C4922 1.391 . S
H4924 C4932 0.950 . S
H4925 C4937 0.950 . S
H4926 C4934 0.950 . S
H4927 C4936 0.950 . S
H4928 C4938 0.950 . S
H4929 C4940 0.950 . S
H4930 C4942 0.950 . S
H4931 C4943 0.950 . S
C4932 H4924 0.950 . S
C4932 C4933 1.386 . S
C4932 C4934 1.391 . S
C4933 C4932 1.386 . S
C4933 C4937 1.393 . S
C4934 H4926 0.950 . S
C4934 C4932 1.391 . S
C4934 C4935 1.400 . S
C4935 C4934 1.400 . S
C4935 C4936 1.398 . S
C4935 C4941 1.491 . S
C4936 H4927 0.950 . S
C4936 C4935 1.398 . S
C4936 C4937 1.391 . S
C4937 H4925 0.950 . S
C4937 C4933 1.393 . S
C4937 C4936 1.391 . S
C4938 H4928 0.950 . S
C4938 C4939 1.386 . S
C4938 C4940 1.391 . S
C4939 C4938 1.386 . S
C4939 C4943 1.393 . S
C4940 H4929 0.950 . S
C4940 C4938 1.391 . S
C4940 C4941 1.400 . S
C4941 C4935 1.491 . S
C4941 C4940 1.400 . S
C4941 C4942 1.398 . S
C4942 H4930 0.950 . S
C4942 C4941 1.398 . S
C4942 C4943 1.391 . S
C4943 H4931 0.950 . S
C4943 C4939 1.393 . S
C4943 C4942 1.391 . S
H4944 C4952 0.950 . S
H4945 C4957 0.950 . S
H4946 C4954 0.950 . S
H4947 C4956 0.950 . S
H4948 C4958 0.950 . S
H4949 C4960 0.950 . S
H4950 C4962 0.950 . S
H4951 C4963 0.950 . S
C4952 H4944 0.950 . S
C4952 C4953 1.386 . S
C4952 C4954 1.391 . S
C4953 C4952 1.386 . S
C4953 C4957 1.393 . S
C4954 H4946 0.950 . S
C4954 C4952 1.391 . S
C4954 C4955 1.400 . S
C4955 C4954 1.400 . S
C4955 C4956 1.398 . S
C4955 C4961 1.491 . S
C4956 H4947 0.950 . S
C4956 C4955 1.398 . S
C4956 C4957 1.391 . S
C4957 H4945 0.950 . S
C4957 C4953 1.393 . S
C4957 C4956 1.391 . S
C4958 H4948 0.950 . S
C4958 C4959 1.386 . S
C4958 C4960 1.391 . S
C4959 C4958 1.386 . S
C4959 C4963 1.393 . S
C4960 H4949 0.950 . S
C4960 C4958 1.391 . S
C4960 C4961 1.400 . S
C4961 C4955 1.491 . S
C4961 C4960 1.400 . S
C4961 C4962 1.398 . S
C4962 H4950 0.950 . S
C4962 C4961 1.398 . S
C4962 C4963 1.391 . S
C4963 H4951 0.950 . S
C4963 C4959 1.393 . S
C4963 C4962 1.391 . S
H4964 C4972 0.950 . S
H4965 C4977 0.950 . S
H4966 C4974 0.950 . S
H4967 C4976 0.950 . S
H4968 C4978 0.950 . S
H4969 C4980 0.950 . S
H4970 C4982 0.950 . S
H4971 C4983 0.950 . S
C4972 H4964 0.950 . S
C4972 C4973 1.386 . S
C4972 C4974 1.391 . S
C4973 C4972 1.386 . S
C4973 C4977 1.393 . S
C4974 H4966 0.950 . S
C4974 C4972 1.391 . S
C4974 C4975 1.400 . S
C4975 C4974 1.400 . S
C4975 C4976 1.398 . S
C4975 C4981 1.491 . S
C4976 H4967 0.950 . S
C4976 C4975 1.398 . S
C4976 C4977 1.391 . S
C4977 H4965 0.950 . S
C4977 C4973 1.393 . S
C4977 C4976 1.391 . S
C4978 H4968 0.950 . S
C4978 C4979 1.386 . S
C4978 C4980 1.391 . S
C4979 C4978 1.386 . S
C4979 C4983 1.393 . S
C4980 H4969 0.950 . S
C4980 C4978 1.391 . S
C4980 C4981 1.400 . S
C4981 C4975 1.491 . S
C4981 C4980 1.400 . S
C4981 C4982 1.398 . S
C4982 H4970 0.950 . S
C4982 C4981 1.398 . S
C4982 C4983 1.391 . S
C4983 H4971 0.950 . S
C4983 C4979 1.393 . S
C4983 C4982 1.391 . S
H4984 C4992 0.950 . S
H4985 C4997 0.950 . S
H4986 C4994 0.950 . S
H4987 C4996 0.950 . S
H4988 C4998 0.950 . S
H4989 C5000 0.950 . S
H4990 C5002 0.950 . S
H4991 C5003 0.950 . S
C4992 H4984 0.950 . S
C4992 C4993 1.386 . S
C4992 C4994 1.391 . S
C4993 C4992 1.386 . S
C4993 C4997 1.393 . S
C4994 H4986 0.950 . S
C4994 C4992 1.391 . S
C4994 C4995 1.400 . S
C4995 C4994 1.400 . S
C4995 C4996 1.398 . S
C4995 C5001 1.491 . S
C4996 H4987 0.950 . S
C4996 C4995 1.398 . S
C4996 C4997 1.391 . S
C4997 H4985 0.950 . S
C4997 C4993 1.393 . S
C4997 C4996 1.391 . S
C4998 H4988 0.950 . S
C4998 C4999 1.386 . S
C4998 C5000 1.391 . S
C4999 C4998 1.386 . S
C4999 C5003 1.393 . S
C5000 H4989 0.950 . S
C5000 C4998 1.391 . S
C5000 C5001 1.400 . S
C5001 C4995 1.491 . S
C5001 C5000 1.400 . S
C5001 C5002 1.398 . S
C5002 H4990 0.950 . S
C5002 C5001 1.398 . S
C5002 C5003 1.391 . S
C5003 H4991 0.950 . S
C5003 C4999 1.393 . S
C5003 C5002 1.391 . S
H5004 C5012 0.950 . S
H5005 C5017 0.950 . S
H5006 C5014 0.950 . S
H5007 C5016 0.950 . S
H5008 C5018 0.950 . S
H5009 C5020 0.950 . S
H5010 C5022 0.950 . S
H5011 C5023 0.950 . S
C5012 H5004 0.950 . S
C5012 C5013 1.386 . S
C5012 C5014 1.391 . S
C5013 C5012 1.386 . S
C5013 C5017 1.393 . S
C5014 H5006 0.950 . S
C5014 C5012 1.391 . S
C5014 C5015 1.400 . S
C5015 C5014 1.400 . S
C5015 C5016 1.398 . S
C5015 C5021 1.491 . S
C5016 H5007 0.950 . S
C5016 C5015 1.398 . S
C5016 C5017 1.391 . S
C5017 H5005 0.950 . S
C5017 C5013 1.393 . S
C5017 C5016 1.391 . S
C5018 H5008 0.950 . S
C5018 C5019 1.386 . S
C5018 C5020 1.391 . S
C5019 C5018 1.386 . S
C5019 C5023 1.393 . S
C5020 H5009 0.950 . S
C5020 C5018 1.391 . S
C5020 C5021 1.400 . S
C5021 C5015 1.491 . S
C5021 C5020 1.400 . S
C5021 C5022 1.398 . S
C5022 H5010 0.950 . S
C5022 C5021 1.398 . S
C5022 C5023 1.391 . S
C5023 H5011 0.950 . S
C5023 C5019 1.393 . S
C5023 C5022 1.391 . S
H5024 C5032 0.950 . S
H5025 C5037 0.950 . S
H5026 C5034 0.950 . S
H5027 C5036 0.950 . S
H5028 C5038 0.950 . S
H5029 C5040 0.950 . S
H5030 C5042 0.950 . S
H5031 C5043 0.950 . S
C5032 H5024 0.950 . S
C5032 C5033 1.386 . S
C5032 C5034 1.391 . S
C5033 C5032 1.386 . S
C5033 C5037 1.393 . S
C5034 H5026 0.950 . S
C5034 C5032 1.391 . S
C5034 C5035 1.400 . S
C5035 C5034 1.400 . S
C5035 C5036 1.398 . S
C5035 C5041 1.491 . S
C5036 H5027 0.950 . S
C5036 C5035 1.398 . S
C5036 C5037 1.391 . S
C5037 H5025 0.950 . S
C5037 C5033 1.393 . S
C5037 C5036 1.391 . S
C5038 H5028 0.950 . S
C5038 C5039 1.386 . S
C5038 C5040 1.391 . S
C5039 C5038 1.386 . S
C5039 C5043 1.393 . S
C5040 H5029 0.950 . S
C5040 C5038 1.391 . S
C5040 C5041 1.400 . S
C5041 C5035 1.491 . S
C5041 C5040 1.400 . S
C5041 C5042 1.398 . S
C5042 H5030 0.950 . S
C5042 C5041 1.398 . S
C5042 C5043 1.391 . S
C5043 H5031 0.950 . S
C5043 C5039 1.393 . S
C5043 C5042 1.391 . S
H5044 C5052 0.950 . S
H5045 C5057 0.950 . S
H5046 C5054 0.950 . S
H5047 C5056 0.950 . S
H5048 C5058 0.950 . S
H5049 C5060 0.950 . S
H5050 C5062 0.950 . S
H5051 C5063 0.950 . S
C5052 H5044 0.950 . S
C5052 C5053 1.386 . S
C5052 C5054 1.391 . S
C5053 C5052 1.386 . S
C5053 C5057 1.393 . S
C5054 H5046 0.950 . S
C5054 C5052 1.391 . S
C5054 C5055 1.400 . S
C5055 C5054 1.400 . S
C5055 C5056 1.398 . S
C5055 C5061 1.491 . S
C5056 H5047 0.950 . S
C5056 C5055 1.398 . S
C5056 C5057 1.391 . S
C5057 H5045 0.950 . S
C5057 C5053 1.393 . S
C5057 C5056 1.391 . S
C5058 H5048 0.950 . S
C5058 C5059 1.386 . S
C5058 C5060 1.391 . S
C5059 C5058 1.386 . S
C5059 C5063 1.393 . S
C5060 H5049 0.950 . S
C5060 C5058 1.391 . S
C5060 C5061 1.400 . S
C5061 C5055 1.491 . S
C5061 C5060 1.400 . S
C5061 C5062 1.398 . S
C5062 H5050 0.950 . S
C5062 C5061 1.398 . S
C5062 C5063 1.391 . S
C5063 H5051 0.950 . S
C5063 C5059 1.393 . S
C5063 C5062 1.391 . S
H5064 C5072 0.950 . S
H5065 C5077 0.950 . S
H5066 C5074 0.950 . S
H5067 C5076 0.950 . S
H5068 C5078 0.950 . S
H5069 C5080 0.950 . S
H5070 C5082 0.950 . S
H5071 C5083 0.950 . S
C5072 H5064 0.950 . S
C5072 C5073 1.386 . S
C5072 C5074 1.391 . S
C5073 C5072 1.386 . S
C5073 C5077 1.393 . S
C5074 H5066 0.950 . S
C5074 C5072 1.391 . S
C5074 C5075 1.400 . S
C5075 C5074 1.400 . S
C5075 C5076 1.398 . S
C5075 C5081 1.491 . S
C5076 H5067 0.950 . S
C5076 C5075 1.398 . S
C5076 C5077 1.391 . S
C5077 H5065 0.950 . S
C5077 C5073 1.393 . S
C5077 C5076 1.391 . S
C5078 H5068 0.950 . S
C5078 C5079 1.386 . S
C5078 C5080 1.391 . S
C5079 C5078 1.386 . S
C5079 C5083 1.393 . S
C5080 H5069 0.950 . S
C5080 C5078 1.391 . S
C5080 C5081 1.400 . S
C5081 C5075 1.491 . S
C5081 C5080 1.400 . S
C5081 C5082 1.398 . S
C5082 H5070 0.950 . S
C5082 C5081 1.398 . S
C5082 C5083 1.391 . S
C5083 H5071 0.950 . S
C5083 C5079 1.393 . S
C5083 C5082 1.391 . S
H5084 C5092 0.950 . S
H5085 C5097 0.950 . S
H5086 C5094 0.950 . S
H5087 C5096 0.950 . S
H5088 C5098 0.950 . S
H5089 C5100 0.950 . S
H5090 C5102 0.950 . S
H5091 C5103 0.950 . S
C5092 H5084 0.950 . S
C5092 C5093 1.386 . S
C5092 C5094 1.391 . S
C5093 C5092 1.386 . S
C5093 C5097 1.393 . S
C5094 H5086 0.950 . S
C5094 C5092 1.391 . S
C5094 C5095 1.400 . S
C5095 C5094 1.400 . S
C5095 C5096 1.398 . S
C5095 C5101 1.491 . S
C5096 H5087 0.950 . S
C5096 C5095 1.398 . S
C5096 C5097 1.391 . S
C5097 H5085 0.950 . S
C5097 C5093 1.393 . S
C5097 C5096 1.391 . S
C5098 H5088 0.950 . S
C5098 C5099 1.386 . S
C5098 C5100 1.391 . S
C5099 C5098 1.386 . S
C5099 C5103 1.393 . S
C5100 H5089 0.950 . S
C5100 C5098 1.391 . S
C5100 C5101 1.400 . S
C5101 C5095 1.491 . S
C5101 C5100 1.400 . S
C5101 C5102 1.398 . S
C5102 H5090 0.950 . S
C5102 C5101 1.398 . S
C5102 C5103 1.391 . S
C5103 H5091 0.950 . S
C5103 C5099 1.393 . S
C5103 C5102 1.391 . S
H5104 C5112 0.950 . S
H5105 C5117 0.950 . S
H5106 C5114 0.950 . S
H5107 C5116 0.950 . S
H5108 C5118 0.950 . S
H5109 C5120 0.950 . S
H5110 C5122 0.950 . S
H5111 C5123 0.950 . S
C5112 H5104 0.950 . S
C5112 C5113 1.386 . S
C5112 C5114 1.391 . S
C5113 C5112 1.386 . S
C5113 C5117 1.393 . S
C5114 H5106 0.950 . S
C5114 C5112 1.391 . S
C5114 C5115 1.400 . S
C5115 C5114 1.400 . S
C5115 C5116 1.398 . S
C5115 C5121 1.491 . S
C5116 H5107 0.950 . S
C5116 C5115 1.398 . S
C5116 C5117 1.391 . S
C5117 H5105 0.950 . S
C5117 C5113 1.393 . S
C5117 C5116 1.391 . S
C5118 H5108 0.950 . S
C5118 C5119 1.386 . S
C5118 C5120 1.391 . S
C5119 C5118 1.386 . S
C5119 C5123 1.393 . S
C5120 H5109 0.950 . S
C5120 C5118 1.391 . S
C5120 C5121 1.400 . S
C5121 C5115 1.491 . S
C5121 C5120 1.400 . S
C5121 C5122 1.398 . S
C5122 H5110 0.950 . S
C5122 C5121 1.398 . S
C5122 C5123 1.391 . S
C5123 H5111 0.950 . S
C5123 C5119 1.393 . S
C5123 C5122 1.391 . S
H5124 C5132 0.950 . S
H5125 C5137 0.950 . S
H5126 C5134 0.950 . S
H5127 C5136 0.950 . S
H5128 C5138 0.950 . S
H5129 C5140 0.950 . S
H5130 C5142 0.950 . S
H5131 C5143 0.950 . S
C5132 H5124 0.950 . S
C5132 C5133 1.386 . S
C5132 C5134 1.391 . S
C5133 C5132 1.386 . S
C5133 C5137 1.393 . S
C5134 H5126 0.950 . S
C5134 C5132 1.391 . S
C5134 C5135 1.400 . S
C5135 C5134 1.400 . S
C5135 C5136 1.398 . S
C5135 C5141 1.491 . S
C5136 H5127 0.950 . S
C5136 C5135 1.398 . S
C5136 C5137 1.391 . S
C5137 H5125 0.950 . S
C5137 C5133 1.393 . S
C5137 C5136 1.391 . S
C5138 H5128 0.950 . S
C5138 C5139 1.386 . S
C5138 C5140 1.391 . S
C5139 C5138 1.386 . S
C5139 C5143 1.393 . S
C5140 H5129 0.950 . S
C5140 C5138 1.391 . S
C5140 C5141 1.400 . S
C5141 C5135 1.491 . S
C5141 C5140 1.400 . S
C5141 C5142 1.398 . S
C5142 H5130 0.950 . S
C5142 C5141 1.398 . S
C5142 C5143 1.391 . S
C5143 H5131 0.950 . S
C5143 C5139 1.393 . S
C5143 C5142 1.391 . S
H5144 C5152 0.950 . S
H5145 C5157 0.950 . S
H5146 C5154 0.950 . S
H5147 C5156 0.950 . S
H5148 C5158 0.950 . S
H5149 C5160 0.950 . S
H5150 C5162 0.950 . S
H5151 C5163 0.950 . S
C5152 H5144 0.950 . S
C5152 C5153 1.386 . S
C5152 C5154 1.391 . S
C5153 C5152 1.386 . S
C5153 C5157 1.393 . S
C5154 H5146 0.950 . S
C5154 C5152 1.391 . S
C5154 C5155 1.400 . S
C5155 C5154 1.400 . S
C5155 C5156 1.398 . S
C5155 C5161 1.491 . S
C5156 H5147 0.950 . S
C5156 C5155 1.398 . S
C5156 C5157 1.391 . S
C5157 H5145 0.950 . S
C5157 C5153 1.393 . S
C5157 C5156 1.391 . S
C5158 H5148 0.950 . S
C5158 C5159 1.386 . S
C5158 C5160 1.391 . S
C5159 C5158 1.386 . S
C5159 C5163 1.393 . S
C5160 H5149 0.950 . S
C5160 C5158 1.391 . S
C5160 C5161 1.400 . S
C5161 C5155 1.491 . S
C5161 C5160 1.400 . S
C5161 C5162 1.398 . S
C5162 H5150 0.950 . S
C5162 C5161 1.398 . S
C5162 C5163 1.391 . S
C5163 H5151 0.950 . S
C5163 C5159 1.393 . S
C5163 C5162 1.391 . S
H5164 C5172 0.950 . S
H5165 C5177 0.950 . S
H5166 C5174 0.950 . S
H5167 C5176 0.950 . S
H5168 C5178 0.950 . S
H5169 C5180 0.950 . S
H5170 C5182 0.950 . S
H5171 C5183 0.950 . S
C5172 H5164 0.950 . S
C5172 C5173 1.386 . S
C5172 C5174 1.391 . S
C5173 C5172 1.386 . S
C5173 C5177 1.393 . S
C5174 H5166 0.950 . S
C5174 C5172 1.391 . S
C5174 C5175 1.400 . S
C5175 C5174 1.400 . S
C5175 C5176 1.398 . S
C5175 C5181 1.491 . S
C5176 H5167 0.950 . S
C5176 C5175 1.398 . S
C5176 C5177 1.391 . S
C5177 H5165 0.950 . S
C5177 C5173 1.393 . S
C5177 C5176 1.391 . S
C5178 H5168 0.950 . S
C5178 C5179 1.386 . S
C5178 C5180 1.391 . S
C5179 C5178 1.386 . S
C5179 C5183 1.393 . S
C5180 H5169 0.950 . S
C5180 C5178 1.391 . S
C5180 C5181 1.400 . S
C5181 C5175 1.491 . S
C5181 C5180 1.400 . S
C5181 C5182 1.398 . S
C5182 H5170 0.950 . S
C5182 C5181 1.398 . S
C5182 C5183 1.391 . S
C5183 H5171 0.950 . S
C5183 C5179 1.393 . S
C5183 C5182 1.391 . S
C1353 C9 1.316 . S
C1359 C1057 1.298 . S
C1373 C343 1.268 . S
C1379 C23 1.291 . S
C1393 C1029 1.301 . S
C1399 C37 1.314 . S
C1413 C371 1.284 . S
C1419 C51 1.277 . S
C1433 C65 1.322 . S
C1439 C1085 1.286 . S
C1453 C79 1.295 . S
C1459 C427 1.259 . S
C1473 C1113 1.300 . S
C1479 C93 1.308 . S
C1493 C107 1.283 . S
C1499 C399 1.271 . S
C1513 C119 1.300 . S
C1519 C1267 1.269 . S
C1533 C609 1.291 . S
C1539 C135 1.328 . S
C1553 C147 1.280 . S
C1559 C623 1.284 . S
C1573 C163 1.317 . S
C1579 C581 1.303 . S
C1593 C175 1.292 . S
C1599 C1323 1.267 . S
C1613 C191 1.326 . S
C1619 C1239 1.300 . S
C1633 C203 1.301 . S
C1639 C1337 1.271 . S
C1653 C219 1.321 . S
C1659 C1309 1.308 . S
C1673 C1141 1.281 . S
C1679 C233 1.277 . S
C1693 C247 1.292 . S
C1699 C553 1.266 . S
C1713 C259 1.282 . S
C1719 C1183 1.265 . S
C1733 C525 1.274 . S
C1739 C275 1.286 . S
C1753 C287 1.326 . S
C1759 C539 1.307 . S
C1773 C1169 1.267 . S
C1779 C303 1.289 . S
C1793 C315 1.299 . S
C1799 C1127 1.271 . S
C1813 C1155 1.289 . S
C1819 C329 1.289 . S
C1833 C721 1.212 . S
C1839 C345 1.237 . S
C1853 C7 1.234 . S
C1859 C359 1.275 . S
C1873 C373 1.233 . S
C1879 C693 1.229 . S
C1893 C387 1.270 . S
C1899 C35 1.248 . S
C1913 C401 1.247 . S
C1919 C749 1.204 . S
C1933 C91 1.235 . S
C1939 C415 1.276 . S
C1953 C429 1.245 . S
C1959 C777 1.204 . S
C1973 C443 1.258 . S
C1979 C63 1.255 . S
C1993 C457 1.224 . S
C1999 C933 1.184 . S
C2013 C273 1.220 . S
C2019 C471 1.220 . S
C2033 C485 1.230 . S
C2039 C289 1.185 . S
C2053 C245 1.219 . S
C2059 C499 1.226 . S
C2073 C513 1.222 . S
C2079 C989 1.191 . S
C2093 C527 1.235 . S
C2099 C903 1.205 . S
C2113 C541 1.223 . S
C2119 C1003 1.187 . S
C2133 C973 1.199 . S
C2139 C555 1.232 . S
C2153 C805 1.251 . S
C2159 C569 1.258 . S
C2173 C217 1.231 . S
C2179 C583 1.271 . S
C2193 C849 1.218 . S
C2199 C597 1.272 . S
C2213 C611 1.255 . S
C2219 C189 1.256 . S
C2233 C625 1.270 . S
C2239 C205 1.210 . S
C2253 C639 1.257 . S
C2259 C833 1.261 . S
C2273 C793 1.210 . S
C2279 C653 1.283 . S
C2293 C667 1.282 . S
C2299 C821 1.202 . S
C2313 C385 1.315 . S
C2319 C681 1.313 . S
C2333 C1015 1.280 . S
C2339 C695 1.273 . S
C2353 C709 1.319 . S
C2359 C357 1.309 . S
C2373 C1043 1.278 . S
C2379 C723 1.277 . S
C2393 C737 1.324 . S
C2399 C413 1.303 . S
C2413 C1099 1.278 . S
C2419 C751 1.273 . S
C2433 C765 1.329 . S
C2439 C441 1.292 . S
C2453 C1071 1.276 . S
C2459 C779 1.279 . S
C2473 C595 1.288 . S
C2479 C791 1.298 . S
C2493 C807 1.323 . S
C2499 C1281 1.307 . S
C2513 C1295 1.291 . S
C2519 C819 1.282 . S
C2533 C835 1.321 . S
C2539 C1253 1.319 . S
C2553 C651 1.265 . S
C2559 C847 1.292 . S
C2573 C863 1.328 . S
C2579 C567 1.301 . S
C2593 C665 1.282 . S
C2599 C875 1.301 . S
C2613 C637 1.313 . S
C2619 C891 1.327 . S
C2633 C469 1.286 . S
C2639 C905 1.279 . S
C2653 C1225 1.275 . S
C2659 C919 1.283 . S
C2673 C931 1.313 . S
C2679 C511 1.314 . S
C2693 C947 1.287 . S
C2699 C1197 1.261 . S
C2713 C1211 1.270 . S
C2719 C959 1.278 . S
C2733 C497 1.262 . S
C2739 C975 1.296 . S
C2753 C455 1.315 . S
C2759 C987 1.315 . S
C2773 C483 1.325 . S
C2779 C1001 1.321 . S
C2793 C1017 1.229 . S
C2799 C49 1.229 . S
C2813 C1031 1.265 . S
C2819 C679 1.229 . S
C2833 C1045 1.231 . S
C2839 C21 1.231 . S
C2853 C1059 1.245 . S
C2859 C707 1.252 . S
C2873 C77 1.202 . S
C2879 C1073 1.246 . S
C2893 C763 1.226 . S
C2899 C1087 1.263 . S
C2913 C105 1.229 . S
C2919 C1101 1.229 . S
C2933 C735 1.245 . S
C2939 C1115 1.255 . S
C2953 C1129 1.274 . S
C2959 C261 1.216 . S
C2973 C945 1.204 . S
C2979 C1143 1.233 . S
C2993 C1157 1.262 . S
C2999 C961 1.232 . S
C3013 C1171 1.228 . S
C3019 C917 1.223 . S
C3033 C317 1.209 . S
C3039 C1185 1.276 . S
C3053 C231 1.202 . S
C3059 C1199 1.235 . S
C3073 C1213 1.275 . S
C3079 C331 1.198 . S
C3093 C301 1.202 . S
C3099 C1227 1.235 . S
C3113 C1241 1.270 . S
C3119 C133 1.231 . S
C3133 C1255 1.257 . S
C3139 C889 1.254 . S
C3153 C177 1.203 . S
C3159 C1269 1.280 . S
C3173 C1283 1.262 . S
C3179 C861 1.246 . S
C3193 C877 1.208 . S
C3199 C1297 1.283 . S
C3213 C1311 1.269 . S
C3219 C161 1.236 . S
C3233 C1325 1.278 . S
C3239 C121 1.207 . S
C3253 C1339 1.267 . S
C3259 C149 1.216 . S
C3273 C3 1.297 . S
C3279 C610 1.331 . S
C3293 C624 1.332 . S
C3299 C17 1.283 . S
C3313 C582 1.331 . S
C3319 C31 1.298 . S
C3333 C45 1.302 . S
C3339 C1268 1.338 . S
C3353 C59 1.301 . S
C3359 C1310 1.330 . S
C3373 C73 1.278 . S
C3379 C1324 1.334 . S
C3393 C1240 1.328 . S
C3399 C87 1.287 . S
C3413 C1338 1.334 . S
C3419 C101 1.279 . S
C3433 C372 1.283 . S
C3439 C120 1.263 . S
C3453 C129 1.294 . S
C3459 C1058 1.323 . S
C3473 C344 1.284 . S
C3479 C148 1.276 . S
C3493 C1030 1.323 . S
C3499 C157 1.286 . S
C3513 C428 1.283 . S
C3519 C176 1.260 . S
C3533 C185 1.273 . S
C3539 C1114 1.322 . S
C3553 C204 1.268 . S
C3559 C400 1.283 . S
C3573 C213 1.273 . S
C3579 C1086 1.321 . S
C3593 C227 1.270 . S
C3599 C1184 1.327 . S
C3613 C456 1.338 . S
C3619 C241 1.287 . S
C3633 C260 1.265 . S
C3639 C1142 1.283 . S
C3653 C269 1.281 . S
C3659 C484 1.342 . S
C3673 C288 1.249 . S
C3679 C498 1.264 . S
C3693 C297 1.270 . S
C3699 C1212 1.327 . S
C3713 C1226 1.285 . S
C3719 C316 1.266 . S
C3733 C1198 1.286 . S
C3739 C330 1.279 . S
C3753 C274 1.314 . S
C3759 C339 1.265 . S
C3773 C353 1.323 . S
C3779 C283 1.367 . S
C3793 C367 1.276 . S
C3799 C246 1.317 . S
C3813 C381 1.338 . S
C3819 C927 1.371 . S
C3833 C974 1.318 . S
C3839 C395 1.288 . S
C3853 C983 1.364 . S
C3859 C409 1.336 . S
C3873 C423 1.270 . S
C3879 C904 1.315 . S
C3893 C997 1.366 . S
C3899 C437 1.344 . S
C3913 C451 1.286 . S
C3919 C36 1.313 . S
C3933 C722 1.314 . S
C3939 C465 1.264 . S
C3953 C479 1.263 . S
C3959 C8 1.310 . S
C3973 C694 1.317 . S
C3979 C493 1.280 . S
C3993 C507 1.260 . S
C3999 C92 1.309 . S
C4013 C778 1.317 . S
C4019 C521 1.287 . S
C4033 C64 1.320 . S
C4039 C535 1.274 . S
C4053 C750 1.317 . S
C4059 C549 1.280 . S
C4073 C563 1.315 . S
C4079 C843 1.367 . S
C4093 C577 1.340 . S
C4099 C115 1.364 . S
C4113 C806 1.352 . S
C4119 C591 1.308 . S
C4133 C605 1.334 . S
C4139 C143 1.361 . S
C4153 C162 1.354 . S
C4159 C619 1.308 . S
C4173 C871 1.362 . S
C4179 C633 1.339 . S
C4193 C890 1.355 . S
C4199 C647 1.316 . S
C4213 C862 1.355 . S
C4219 C661 1.310 . S
C4233 C675 1.297 . S
C4239 C1282 1.328 . S
C4253 C689 1.300 . S
C4259 C1296 1.340 . S
C4273 C703 1.274 . S
C4279 C1254 1.327 . S
C4293 C596 1.340 . S
C4299 C717 1.300 . S
C4313 C731 1.287 . S
C4319 C638 1.328 . S
C4333 C652 1.343 . S
C4339 C745 1.309 . S
C4353 C568 1.328 . S
C4359 C759 1.296 . S
C4373 C666 1.337 . S
C4379 C773 1.284 . S
C4393 C792 1.284 . S
C4399 C1044 1.292 . S
C4413 C386 1.335 . S
C4419 C801 1.301 . S
C4433 C820 1.270 . S
C4439 C1016 1.290 . S
C4453 C829 1.285 . S
C4459 C358 1.334 . S
C4473 C848 1.283 . S
C4479 C1100 1.293 . S
C4493 C857 1.288 . S
C4499 C442 1.336 . S
C4513 C1072 1.291 . S
C4519 C876 1.269 . S
C4533 C414 1.334 . S
C4539 C885 1.288 . S
C4553 C899 1.285 . S
C4559 C512 1.344 . S
C4573 C913 1.269 . S
C4579 C1128 1.326 . S
C4593 C932 1.261 . S
C4599 C470 1.266 . S
C4613 C1156 1.330 . S
C4619 C941 1.294 . S
C4633 C960 1.271 . S
C4639 C1170 1.284 . S
C4653 C969 1.304 . S
C4659 C540 1.345 . S
C4673 C554 1.265 . S
C4679 C988 1.244 . S
C4693 C1002 1.252 . S
C4699 C526 1.265 . S
C4713 C1011 1.256 . S
C4719 C946 1.310 . S
C4733 C955 1.355 . S
C4739 C1025 1.328 . S
C4753 C918 1.311 . S
C4759 C1039 1.272 . S
C4773 C1053 1.325 . S
C4779 C255 1.357 . S
C4793 C1067 1.283 . S
C4799 C302 1.314 . S
C4813 C1081 1.304 . S
C4819 C311 1.358 . S
C4833 C232 1.311 . S
C4839 C1095 1.260 . S
C4853 C1109 1.304 . S
C4859 C325 1.356 . S
C4873 C1123 1.303 . S
C4879 C708 1.348 . S
C4893 C1137 1.284 . S
C4899 C50 1.315 . S
C4913 C1151 1.302 . S
C4919 C680 1.347 . S
C4933 C1165 1.269 . S
C4939 C22 1.312 . S
C4953 C1179 1.284 . S
C4959 C764 1.346 . S
C4973 C1193 1.259 . S
C4979 C106 1.312 . S
C4993 C1207 1.286 . S
C4999 C736 1.347 . S
C5013 C1221 1.258 . S
C5019 C78 1.311 . S
C5033 C1235 1.340 . S
C5039 C171 1.363 . S
C5053 C1249 1.319 . S
C5059 C787 1.368 . S
C5073 C1263 1.318 . S
C5079 C134 1.356 . S
C5093 C1277 1.338 . S
C5099 C815 1.361 . S
C5113 C1291 1.300 . S
C5119 C834 1.353 . S
C5133 C199 1.365 . S
C5139 C1305 1.339 . S
C5153 C1319 1.303 . S
C5159 C218 1.353 . S
C5173 C1333 1.294 . S
C5179 C190 1.353 . S
