# Generated by pormake.
# Topology lcy-a-x, (5)-cn, num edge types: 1
# Building blocks:
#     Node 0, Type 0, BuildingBlock: BEQFEK_clean_sbu_0, # of connection points: 5
#     Node 1, Type 0, BuildingBlock: BEQFEK_clean_sbu_0, # of connection points: 5
#     Node 2, Type 0, BuildingBlock: BEQFEK_clean_sbu_0, # of connection points: 5
#     Node 3, Type 0, BuildingBlock: BEQFEK_clean_sbu_0, # of connection points: 5
#     Node 4, Type 0, BuildingBlock: BEQFEK_clean_sbu_0, # of connection points: 5
#     Node 5, Type 0, BuildingBlock: BEQFEK_clean_sbu_0, # of connection points: 5
#     Node 6, Type 0, BuildingBlock: BEQFEK_clean_sbu_0, # of connection points: 5
#     Node 7, Type 0, BuildingBlock: BEQFEK_clean_sbu_0, # of connection points: 5
#     Node 8, Type 0, BuildingBlock: BEQFEK_clean_sbu_0, # of connection points: 5
#     Node 9, Type 0, BuildingBlock: BEQFEK_clean_sbu_0, # of connection points: 5
#     Node 10, Type 0, BuildingBlock: BEQFEK_clean_sbu_0, # of connection points: 5
#     Node 11, Type 0, BuildingBlock: BEQFEK_clean_sbu_0, # of connection points: 5
#     Node 12, Type 0, BuildingBlock: BEQFEK_clean_sbu_0, # of connection points: 5
#     Node 13, Type 0, BuildingBlock: BEQFEK_clean_sbu_0, # of connection points: 5
#     Node 14, Type 0, BuildingBlock: BEQFEK_clean_sbu_0, # of connection points: 5
#     Node 15, Type 0, BuildingBlock: BEQFEK_clean_sbu_0, # of connection points: 5
#     Node 16, Type 0, BuildingBlock: BEQFEK_clean_sbu_0, # of connection points: 5
#     Node 17, Type 0, BuildingBlock: BEQFEK_clean_sbu_0, # of connection points: 5
#     Node 18, Type 0, BuildingBlock: BEQFEK_clean_sbu_0, # of connection points: 5
#     Node 19, Type 0, BuildingBlock: BEQFEK_clean_sbu_0, # of connection points: 5
#     Node 20, Type 0, BuildingBlock: BEQFEK_clean_sbu_0, # of connection points: 5
#     Node 21, Type 0, BuildingBlock: BEQFEK_clean_sbu_0, # of connection points: 5
#     Node 22, Type 0, BuildingBlock: BEQFEK_clean_sbu_0, # of connection points: 5
#     Node 23, Type 0, BuildingBlock: BEQFEK_clean_sbu_0, # of connection points: 5
#     Edge 24, Type (0, 0), BuildingBlock: ZUJKAS_clean_linker_0, # of connection points: 2
#     Edge 25, Type (0, 0), BuildingBlock: ZUJKAS_clean_linker_0, # of connection points: 2
#     Edge 26, Type (0, 0), BuildingBlock: ZUJKAS_clean_linker_0, # of connection points: 2
#     Edge 27, Type (0, 0), BuildingBlock: ZUJKAS_clean_linker_0, # of connection points: 2
#     Edge 28, Type (0, 0), BuildingBlock: ZUJKAS_clean_linker_0, # of connection points: 2
#     Edge 29, Type (0, 0), BuildingBlock: ZUJKAS_clean_linker_0, # of connection points: 2
#     Edge 30, Type (0, 0), BuildingBlock: ZUJKAS_clean_linker_0, # of connection points: 2
#     Edge 31, Type (0, 0), BuildingBlock: ZUJKAS_clean_linker_0, # of connection points: 2
#     Edge 32, Type (0, 0), BuildingBlock: ZUJKAS_clean_linker_0, # of connection points: 2
#     Edge 33, Type (0, 0), BuildingBlock: ZUJKAS_clean_linker_0, # of connection points: 2
#     Edge 34, Type (0, 0), BuildingBlock: ZUJKAS_clean_linker_0, # of connection points: 2
#     Edge 35, Type (0, 0), BuildingBlock: ZUJKAS_clean_linker_0, # of connection points: 2
#     Edge 36, Type (0, 0), BuildingBlock: ZUJKAS_clean_linker_0, # of connection points: 2
#     Edge 37, Type (0, 0), BuildingBlock: ZUJKAS_clean_linker_0, # of connection points: 2
#     Edge 38, Type (0, 0), BuildingBlock: ZUJKAS_clean_linker_0, # of connection points: 2
#     Edge 39, Type (0, 0), BuildingBlock: ZUJKAS_clean_linker_0, # of connection points: 2
#     Edge 40, Type (0, 0), BuildingBlock: ZUJKAS_clean_linker_0, # of connection points: 2
#     Edge 41, Type (0, 0), BuildingBlock: ZUJKAS_clean_linker_0, # of connection points: 2
#     Edge 42, Type (0, 0), BuildingBlock: ZUJKAS_clean_linker_0, # of connection points: 2
#     Edge 43, Type (0, 0), BuildingBlock: ZUJKAS_clean_linker_0, # of connection points: 2
#     Edge 44, Type (0, 0), BuildingBlock: ZUJKAS_clean_linker_0, # of connection points: 2
#     Edge 45, Type (0, 0), BuildingBlock: ZUJKAS_clean_linker_0, # of connection points: 2
#     Edge 46, Type (0, 0), BuildingBlock: ZUJKAS_clean_linker_0, # of connection points: 2
#     Edge 47, Type (0, 0), BuildingBlock: ZUJKAS_clean_linker_0, # of connection points: 2
#     Edge 48, Type (0, 0), BuildingBlock: ZUJKAS_clean_linker_0, # of connection points: 2
#     Edge 49, Type (0, 0), BuildingBlock: ZUJKAS_clean_linker_0, # of connection points: 2
#     Edge 50, Type (0, 0), BuildingBlock: ZUJKAS_clean_linker_0, # of connection points: 2
#     Edge 51, Type (0, 0), BuildingBlock: ZUJKAS_clean_linker_0, # of connection points: 2
#     Edge 52, Type (0, 0), BuildingBlock: ZUJKAS_clean_linker_0, # of connection points: 2
#     Edge 53, Type (0, 0), BuildingBlock: ZUJKAS_clean_linker_0, # of connection points: 2
#     Edge 54, Type (0, 0), BuildingBlock: ZUJKAS_clean_linker_0, # of connection points: 2
#     Edge 55, Type (0, 0), BuildingBlock: ZUJKAS_clean_linker_0, # of connection points: 2
#     Edge 56, Type (0, 0), BuildingBlock: ZUJKAS_clean_linker_0, # of connection points: 2
#     Edge 57, Type (0, 0), BuildingBlock: ZUJKAS_clean_linker_0, # of connection points: 2
#     Edge 58, Type (0, 0), BuildingBlock: ZUJKAS_clean_linker_0, # of connection points: 2
#     Edge 59, Type (0, 0), BuildingBlock: ZUJKAS_clean_linker_0, # of connection points: 2
#     Edge 60, Type (0, 0), BuildingBlock: ZUJKAS_clean_linker_0, # of connection points: 2
#     Edge 61, Type (0, 0), BuildingBlock: ZUJKAS_clean_linker_0, # of connection points: 2
#     Edge 62, Type (0, 0), BuildingBlock: ZUJKAS_clean_linker_0, # of connection points: 2
#     Edge 63, Type (0, 0), BuildingBlock: ZUJKAS_clean_linker_0, # of connection points: 2
#     Edge 64, Type (0, 0), BuildingBlock: ZUJKAS_clean_linker_0, # of connection points: 2
#     Edge 65, Type (0, 0), BuildingBlock: ZUJKAS_clean_linker_0, # of connection points: 2
#     Edge 66, Type (0, 0), BuildingBlock: ZUJKAS_clean_linker_0, # of connection points: 2
#     Edge 67, Type (0, 0), BuildingBlock: ZUJKAS_clean_linker_0, # of connection points: 2
#     Edge 68, Type (0, 0), BuildingBlock: ZUJKAS_clean_linker_0, # of connection points: 2
#     Edge 69, Type (0, 0), BuildingBlock: ZUJKAS_clean_linker_0, # of connection points: 2
#     Edge 70, Type (0, 0), BuildingBlock: ZUJKAS_clean_linker_0, # of connection points: 2
#     Edge 71, Type (0, 0), BuildingBlock: ZUJKAS_clean_linker_0, # of connection points: 2
#     Edge 72, Type (0, 0), BuildingBlock: ZUJKAS_clean_linker_0, # of connection points: 2
#     Edge 73, Type (0, 0), BuildingBlock: ZUJKAS_clean_linker_0, # of connection points: 2
#     Edge 74, Type (0, 0), BuildingBlock: ZUJKAS_clean_linker_0, # of connection points: 2
#     Edge 75, Type (0, 0), BuildingBlock: ZUJKAS_clean_linker_0, # of connection points: 2
#     Edge 76, Type (0, 0), BuildingBlock: ZUJKAS_clean_linker_0, # of connection points: 2
#     Edge 77, Type (0, 0), BuildingBlock: ZUJKAS_clean_linker_0, # of connection points: 2
#     Edge 78, Type (0, 0), BuildingBlock: ZUJKAS_clean_linker_0, # of connection points: 2
#     Edge 79, Type (0, 0), BuildingBlock: ZUJKAS_clean_linker_0, # of connection points: 2
#     Edge 80, Type (0, 0), BuildingBlock: ZUJKAS_clean_linker_0, # of connection points: 2
#     Edge 81, Type (0, 0), BuildingBlock: ZUJKAS_clean_linker_0, # of connection points: 2
#     Edge 82, Type (0, 0), BuildingBlock: ZUJKAS_clean_linker_0, # of connection points: 2
#     Edge 83, Type (0, 0), BuildingBlock: ZUJKAS_clean_linker_0, # of connection points: 2
# Relax obj value: 1.242
# Max RMSD: 0.187
# Mean RMSD: 0.187
data_MOF--net-lcy-a-x--node1-BEQFEK_clean_sbu_0--edge1-ZUJKAS_clean_linker_0
_symmetry_space_group_name_H-M    P1
_symmetry_Int_Tables_number       1
_symmetry_cell_setting            triclinic
loop_
_symmetry_equiv_pos_as_xyz
'x, y, z'
_cell_length_a     66.679739
_cell_length_b     66.677784
_cell_length_c     66.688139
_cell_angle_alpha  90.008847
_cell_angle_beta   89.994681
_cell_angle_gamma 89.968759
loop_
_atom_site_label
_atom_site_type_symbol
_atom_site_fract_x
_atom_site_fract_y
_atom_site_fract_z
_atom_type_partial_charge
Co0 Co 0.03904 0.02514 0.75833 0.0
Co1 Co 0.06735 0.04585 0.72662 0.0
C2 C 0.02597 0.03364 0.71592 0.0
O3 O 0.02323 0.02671 0.73341 0.0
O4 O 0.04235 0.0421 0.71125 0.0
C5 C 0.00332 0.02957 0.77804 0.0
O6 O 0.00467 0.04567 0.76675 0.0
C7 C 0.0783 0.07761 0.69967 0.0
C8 C 0.10644 0.06672 0.68602 0.0
C9 C 0.09209 0.08172 0.6847 0.0
N10 N 0.0842 0.06105 0.70942 0.0
N11 N 0.10125 0.05477 0.70149 0.0
C12 C 0.05822 0.08726 0.70259 0.0
H13 H 0.05011 0.08034 0.71534 0.0
H14 H 0.06014 0.10348 0.70569 0.0
H15 H 0.04921 0.08574 0.68867 0.0
C16 C 0.05333 0.05952 0.78266 0.0
N17 N 0.05182 0.04966 0.76509 0.0
N18 N 0.06362 0.05828 0.75181 0.0
C19 C 0.07306 0.07386 0.76049 0.0
C20 C 0.06685 0.07518 0.7803 0.0
C21 C 0.04185 0.054 0.80116 0.0
H22 H 0.04203 0.03749 0.80318 0.0
H23 H 0.02605 0.05884 0.79934 0.0
H24 H 0.04784 0.06133 0.81478 0.0
O25 O 0.05993 0.00436 0.75381 0.0
O26 O 0.07917 0.01931 0.73084 0.0
H27 H 0.09963 0.07578 0.7425 0.0
H28 H 0.09795 0.09474 0.76172 0.0
C29 C 0.08924 0.0859 0.75064 0.0
H30 H 0.08238 0.09631 0.73964 0.0
H31 H 0.10855 0.04156 0.70566 0.0
O32 O 0.0181 0.01746 0.77838 0.0
C33 C 0.07499 0.00431 0.74191 0.0
Co34 Co 0.28928 0.7874 0.00274 0.0
Co35 Co 0.27252 0.81749 0.9703 0.0
C36 C 0.27343 0.77347 0.963 0.0
O37 O 0.28088 0.77039 0.98022 0.0
O38 O 0.26905 0.79108 0.95728 0.0
C39 C 0.28183 0.7541 0.02632 0.0
O40 O 0.2645 0.75698 0.01739 0.0
C41 C 0.24185 0.83281 0.94417 0.0
C42 C 0.25681 0.85797 0.92872 0.0
C43 C 0.23947 0.84651 0.92876 0.0
N44 N 0.25967 0.83603 0.95291 0.0
N45 N 0.26843 0.85136 0.9439 0.0
C46 C 0.229 0.81489 0.94842 0.0
H47 H 0.23398 0.80721 0.96231 0.0
H48 H 0.21313 0.8195 0.95024 0.0
H49 H 0.22983 0.80431 0.93559 0.0
C50 C 0.25929 0.80944 0.02783 0.0
N51 N 0.26904 0.80605 0.01043 0.0
N52 N 0.26228 0.81862 0.99676 0.0
C53 C 0.2482 0.83045 0.00506 0.0
C54 C 0.2456 0.82491 0.02492 0.0
C55 C 0.2619 0.79702 0.04633 0.0
H56 H 0.27764 0.79182 0.04757 0.0
H57 H 0.25191 0.78375 0.04544 0.0
H58 H 0.25792 0.80554 0.06002 0.0
O59 O 0.31361 0.80163 0.99312 0.0
O60 O 0.30134 0.82277 0.97032 0.0
H61 H 0.24813 0.85558 0.98499 0.0
H62 H 0.22988 0.85722 0.00493 0.0
C63 C 0.2374 0.8469 0.99425 0.0
H64 H 0.2259 0.84028 0.98424 0.0
H65 H 0.28291 0.85635 0.94714 0.0
O66 O 0.29569 0.76696 0.02367 0.0
C67 C 0.31607 0.81515 0.97975 0.0
Co68 Co 0.52147 0.03933 0.25976 0.0
Co69 Co 0.49611 0.01521 0.2277 0.0
C70 C 0.53733 0.0275 0.21852 0.0
O71 O 0.53816 0.03602 0.23553 0.0
O72 O 0.52188 0.01769 0.21323 0.0
C73 C 0.55599 0.03553 0.2815 0.0
O74 O 0.55422 0.01831 0.27207 0.0
C75 C 0.48203 0.98655 0.19753 0.0
C76 C 0.44907 0.98832 0.20088 0.0
C77 C 0.46414 0.97894 0.1901 0.0
N78 N 0.47773 -0.0004 0.21226 0.0
N79 N 0.45802 0.00064 0.21417 0.0
C80 C 0.50279 0.98329 0.18961 0.0
H81 H 0.5084 0.99762 0.18335 0.0
H82 H 0.51287 0.97885 0.20209 0.0
H83 H 0.50345 0.97195 0.17752 0.0
C84 C 0.5066 0.00628 0.28549 0.0
N85 N 0.50876 0.01518 0.26748 0.0
N86 N 0.49894 0.00473 0.25391 0.0
C87 C 0.49051 0.98869 0.26279 0.0
C88 C 0.49484 0.98933 0.28312 0.0
C89 C 0.5146 0.01453 0.30475 0.0
H90 H 0.5151 0.03115 0.30413 0.0
H91 H 0.53007 0.00885 0.30708 0.0
H92 H 0.50524 0.00965 0.31763 0.0
O93 O 0.50089 0.05963 0.25294 0.0
O94 O 0.48472 0.04225 0.22942 0.0
H95 H 0.46362 0.97777 0.24925 0.0
H96 H 0.47884 0.95848 0.26054 0.0
C97 C 0.47924 0.97265 0.25185 0.0
H98 H 0.4864 0.96971 0.23715 0.0
H99 H 0.45067 0.00986 0.22446 0.0
O100 O 0.54181 0.04823 0.27989 0.0
C101 C 0.48726 0.05824 0.23953 0.0
Co102 Co 0.28047 0.26926 0.50427 0.0
Co103 Co 0.29182 0.23792 0.47072 0.0
C104 C 0.27746 0.27879 0.4603 0.0
O105 O 0.27544 0.28326 0.47868 0.0
O106 O 0.28417 0.26178 0.45505 0.0
C107 C 0.2891 0.30638 0.52051 0.0
O108 O 0.30181 0.30501 0.5055 0.0
C109 C 0.31723 0.22366 0.4389 0.0
C110 C 0.30308 0.19521 0.42958 0.0
C111 C 0.31839 0.20843 0.42488 0.0
N112 N 0.30214 0.21959 0.45153 0.0
N113 N 0.29381 0.20245 0.44605 0.0
C114 C 0.32856 0.24305 0.43879 0.0
H115 H 0.32685 0.25046 0.42399 0.0
H116 H 0.32315 0.25318 0.45083 0.0
H117 H 0.34475 0.24007 0.44112 0.0
C118 C 0.31863 0.25447 0.52072 0.0
N119 N 0.30576 0.25636 0.5053 0.0
N120 N 0.3105 0.24323 0.4913 0.0
C121 C 0.32652 0.23255 0.49739 0.0
C122 C 0.33213 0.23929 0.5162 0.0
C123 C 0.31691 0.26593 0.53995 0.0
H124 H 0.3015 0.26433 0.54602 0.0
H125 H 0.31951 0.28206 0.53691 0.0
H126 H 0.32798 0.2609 0.55128 0.0
O127 O 0.25963 0.24836 0.50743 0.0
O128 O 0.26773 0.2267 0.48321 0.0
H129 H 0.32122 0.20452 0.48254 0.0
H130 H 0.34412 0.20515 0.4969 0.0
C131 C 0.33405 0.21405 0.48709 0.0
H132 H 0.34246 0.21842 0.47345 0.0
H133 H 0.28122 0.19621 0.45294 0.0
O134 O 0.27806 0.29131 0.52447 0.0
C135 C 0.25654 0.2321 0.49774 0.0
Co136 Co 0.54531 0.55455 0.30978 0.0
Co137 Co 0.5699 0.53508 0.34516 0.0
C138 C 0.53524 0.56089 0.35375 0.0
O139 O 0.53341 0.56438 0.33515 0.0
O140 O 0.54851 0.54887 0.36018 0.0
C141 C 0.50712 0.55328 0.29684 0.0
O142 O 0.50787 0.54232 0.3132 0.0
C143 C 0.57715 0.50997 0.37956 0.0
C144 C 0.61009 0.50643 0.3802 0.0
C145 C 0.59263 0.501 0.39009 0.0
N146 N 0.58502 0.52037 0.36428 0.0
N147 N 0.60475 0.5184 0.36479 0.0
C148 C 0.55508 0.50719 0.38264 0.0
H149 H 0.54688 0.50963 0.36837 0.0
H150 H 0.5518 0.49191 0.38838 0.0
H151 H 0.54969 0.51829 0.39379 0.0
C152 C 0.54887 0.51341 0.29468 0.0
N153 N 0.55027 0.52662 0.30985 0.0
N154 N 0.55989 0.51822 0.32489 0.0
C155 C 0.5647 0.49925 0.31988 0.0
C156 C 0.55796 0.49569 0.30056 0.0
C157 C 0.54058 0.5184 0.27442 0.0
H158 H 0.54664 0.53304 0.26934 0.0
H159 H 0.52405 0.51986 0.27555 0.0
H160 H 0.54404 0.50663 0.2632 0.0
O161 O 0.57138 0.56859 0.30619 0.0
O162 O 0.58742 0.55491 0.33223 0.0
H163 H 0.59305 0.49366 0.33374 0.0
H164 H 0.58088 0.47135 0.32461 0.0
C165 C 0.57837 0.48609 0.33189 0.0
H166 H 0.57181 0.48361 0.34695 0.0
H167 H 0.61451 0.52493 0.35444 0.0
O168 O 0.52342 0.56059 0.29001 0.0
C169 C 0.587 0.56675 0.31721 0.0
Co170 Co 0.76287 0.29102 0.55758 0.0
Co171 Co 0.78975 0.31567 0.58793 0.0
C172 C 0.77246 0.27654 0.59947 0.0
O173 O 0.76401 0.27533 0.58251 0.0
O174 O 0.78361 0.29132 0.60375 0.0
C175 C 0.76406 0.2552 0.53951 0.0
O176 O 0.78066 0.25692 0.55 0.0
C177 C 0.82503 0.32083 0.61191 0.0
C178 C 0.82537 0.35302 0.61977 0.0
C179 C 0.83572 0.33516 0.62251 0.0
N180 N 0.80936 0.3298 0.60307 0.0
N181 N 0.80962 0.34907 0.60771 0.0
C182 C 0.82801 0.29853 0.61173 0.0
H183 H 0.81943 0.29188 0.62434 0.0
H184 H 0.82224 0.29213 0.5975 0.0
H185 H 0.84386 0.29411 0.61354 0.0
C186 C 0.79587 0.30189 0.53053 0.0
N187 N 0.78803 0.30056 0.54909 0.0
N188 N 0.7994 0.31062 0.5617 0.0
C189 C 0.81486 0.3187 0.55151 0.0
C190 C 0.81298 0.31355 0.53146 0.0
C191 C 0.7859 0.2941 0.512 0.0
H192 H 0.7694 0.29591 0.51323 0.0
H193 H 0.78926 0.27787 0.51046 0.0
H194 H 0.79139 0.30197 0.4984 0.0
O195 O 0.74558 0.31449 0.56363 0.0
O196 O 0.76461 0.33108 0.58578 0.0
H197 H 0.8237 0.34528 0.56715 0.0
H198 H 0.84233 0.33613 0.54968 0.0
C199 C 0.83073 0.33165 0.5607 0.0
H200 H 0.83818 0.3233 0.57297 0.0
H201 H 0.79882 0.35943 0.60297 0.0
O202 O 0.75242 0.27033 0.53841 0.0
C203 C 0.74842 0.32916 0.57573 0.0
Co204 Co 0.01978 0.51511 0.80355 0.0
Co205 Co 0.99348 0.53771 0.8359 0.0
C206 C 0.03006 0.51558 0.84771 0.0
O207 O 0.03273 0.50987 0.82976 0.0
O208 O 0.01558 0.52703 0.85227 0.0
C209 C 0.05762 0.51491 0.78871 0.0
O210 O 0.05758 0.52827 0.8032 0.0
C211 C 0.98627 0.56974 0.86438 0.0
C212 C 0.95422 0.56632 0.87198 0.0
C213 C 0.97116 0.57755 0.87642 0.0
N214 N 0.97857 0.55481 0.85329 0.0
N215 N 0.95938 0.55288 0.85779 0.0
C216 C 0.00807 0.57525 0.86432 0.0
H217 H 0.01363 0.57707 0.8799 0.0
H218 H 0.01713 0.56386 0.85636 0.0
H219 H 0.01012 0.58966 0.85628 0.0
C220 C 0.01445 0.5536 0.78279 0.0
N221 N 0.01332 0.5424 0.79955 0.0
N222 N 0.00224 0.55182 0.81292 0.0
C223 C 0.99593 0.56932 0.80506 0.0
C224 C 0.00351 0.57101 0.78579 0.0
C225 C 0.02455 0.54696 0.76387 0.0
H226 H 0.04098 0.5465 0.76637 0.0
H227 H 0.02151 0.55726 0.7512 0.0
H228 H 0.01955 0.53158 0.75996 0.0
O229 O 0.99426 0.49971 0.80268 0.0
O230 O 0.97684 0.51502 0.82702 0.0
H231 H 0.96777 0.57296 0.82017 0.0
H232 H 0.97385 0.59325 0.80344 0.0
C233 C 0.98015 0.58238 0.81434 0.0
H234 H 0.98678 0.59084 0.82701 0.0
H235 H 0.94992 0.54204 0.85154 0.0
O236 O 0.04107 0.50652 0.78409 0.0
C237 C 0.97853 0.50154 0.81354 0.0
Co238 Co 0.80305 0.76691 0.05226 0.0
Co239 Co 0.77706 0.74118 0.0824 0.0
C240 C 0.7907 0.78165 0.09354 0.0
O241 O 0.7998 0.78304 0.0769 0.0
O242 O 0.7804 0.76625 0.09774 0.0
C243 C 0.79906 0.80191 0.03244 0.0
O244 O 0.78221 0.79908 0.04226 0.0
C245 C 0.74317 0.73168 0.10757 0.0
C246 C 0.74965 0.70088 0.11789 0.0
C247 C 0.73646 0.71677 0.12037 0.0
N248 N 0.75944 0.72492 0.09785 0.0
N249 N 0.76311 0.70638 0.10384 0.0
C250 C 0.73606 0.75298 0.10662 0.0
H251 H 0.74018 0.7608 0.12072 0.0
H252 H 0.74288 0.76089 0.09368 0.0
H253 H 0.71954 0.75361 0.10506 0.0
C254 C 0.77042 0.75413 0.02492 0.0
N255 N 0.77877 0.75515 0.04328 0.0
N256 N 0.76763 0.74494 0.05598 0.0
C257 C 0.75181 0.73719 0.04613 0.0
C258 C 0.75315 0.74268 0.02609 0.0
C259 C 0.77926 0.76313 0.00637 0.0
H260 H 0.79587 0.76308 0.0073 0.0
H261 H 0.77404 0.77886 0.00492 0.0
H262 H 0.77438 0.75476 0.99283 0.0
O263 O 0.82233 0.74519 0.05916 0.0
O264 O 0.80348 0.72827 0.08109 0.0
H265 H 0.74181 0.71179 0.06299 0.0
H266 H 0.72338 0.72112 0.04544 0.0
C267 C 0.7354 0.72547 0.05603 0.0
H268 H 0.72861 0.73469 0.06806 0.0
H269 H 0.77545 0.69791 0.09919 0.0
O270 O 0.81228 0.78808 0.033 0.0
C271 C 0.81993 0.73081 0.07168 0.0
Co272 Co 0.76142 0.03988 0.0175 0.0
Co273 Co 0.73031 0.06538 0.04255 0.0
C274 C 0.72064 0.02411 0.02961 0.0
O275 O 0.7375 0.02276 0.0209 0.0
O276 O 0.7159 0.03978 0.03929 0.0
C277 C 0.78353 0.006 0.02133 0.0
O278 O 0.77415 0.00823 0.03852 0.0
C279 C 0.70456 0.07453 0.07615 0.0
C280 C 0.69244 0.1044 0.06852 0.0
C281 C 0.69072 0.08882 0.08219 0.0
N282 N 0.71406 0.08134 0.05977 0.0
N283 N 0.70701 0.09935 0.05544 0.0
C284 C 0.70685 0.05362 0.08404 0.0
H285 H 0.69268 0.0452 0.08174 0.0
H286 H 0.7194 0.04576 0.07648 0.0
H287 H 0.71006 0.05393 0.10033 0.0
C288 C 0.78831 0.05526 0.04929 0.0
N289 N 0.76986 0.05252 0.04152 0.0
N290 N 0.75677 0.06271 0.05224 0.0
C291 C 0.76645 0.0722 0.06719 0.0
C292 C 0.78676 0.0679 0.06569 0.0
C293 C 0.80725 0.04744 0.04014 0.0
H294 H 0.80583 0.0469 0.02358 0.0
H295 H 0.81001 0.03201 0.04572 0.0
H296 H 0.82026 0.05693 0.04434 0.0
O297 O 0.7538 0.06096 0.99787 0.0
O298 O 0.73139 0.07803 0.01602 0.0
H299 H 0.74946 0.09827 0.07501 0.0
H300 H 0.76676 0.09028 0.09434 0.0
C301 C 0.7563 0.0851 0.08253 0.0
H302 H 0.74414 0.07643 0.08979 0.0
H303 H 0.71126 0.10766 0.04285 0.0
O304 O 0.78167 0.01975 0.00819 0.0
C305 C 0.74103 0.07519 -0.00024 0.0
Co306 Co 0.26992 0.50307 0.26921 0.0
Co307 Co 0.2411 0.47052 0.28811 0.0
C308 C 0.27912 0.4587 0.26845 0.0
O309 O 0.28294 0.47689 0.26441 0.0
O310 O 0.26335 0.45389 0.27792 0.0
C311 C 0.30794 0.51721 0.27255 0.0
O312 O 0.30658 0.50264 0.28575 0.0
C313 C 0.23086 0.43718 0.3134 0.0
C314 C 0.19775 0.43693 0.31406 0.0
C315 C 0.21457 0.42674 0.32073 0.0
N316 N 0.22417 0.45275 0.30262 0.0
N317 N 0.20433 0.45258 0.303 0.0
C318 C 0.25256 0.43295 0.3173 0.0
H319 H 0.26133 0.44709 0.31694 0.0
H320 H 0.2546 0.42549 0.33204 0.0
H321 H 0.25835 0.42279 0.30545 0.0
C322 C 0.26201 0.522 0.30839 0.0
N323 N 0.26114 0.50606 0.29603 0.0
N324 N 0.24961 0.49223 0.30412 0.0
C325 C 0.2429 0.49884 0.32197 0.0
C326 C 0.25044 0.51795 0.32519 0.0
C327 C 0.27303 0.54097 0.30361 0.0
H328 H 0.26943 0.54579 0.2881 0.0
H329 H 0.28938 0.53805 0.30439 0.0
H330 H 0.26947 0.55319 0.31429 0.0
O331 O 0.24622 0.50451 0.25108 0.0
O332 O 0.22662 0.48119 0.26495 0.0
H333 H 0.21358 0.48631 0.32493 0.0
H334 H 0.22321 0.49669 0.34789 0.0
C335 C 0.22727 0.48827 0.33415 0.0
H336 H 0.23286 0.4732 0.3384 0.0
H337 H 0.1953 0.46302 0.2956 0.0
O338 O 0.29218 0.52227 0.26298 0.0
C339 C 0.22993 0.49435 0.2515 0.0
Co340 Co 0.80953 0.02123 0.5078 0.0
Co341 Co 0.84252 0.99451 0.52894 0.0
C342 C 0.85372 0.03108 0.50634 0.0
O343 O 0.83554 0.03414 0.50167 0.0
O344 O 0.85864 0.01638 0.51735 0.0
C345 C 0.79493 0.05944 0.50698 0.0
O346 O 0.8108 0.06033 0.51862 0.0
C347 C 0.8747 0.98833 0.55669 0.0
C348 C 0.87776 0.95546 0.55923 0.0
C349 C 0.88589 0.97344 0.56575 0.0
N350 N 0.86074 0.97972 0.54511 0.0
N351 N 0.86262 0.96003 0.54657 0.0
C352 C 0.87634 0.0105 0.55991 0.0
H353 H 0.86159 0.01781 0.55743 0.0
H354 H 0.88171 0.01386 0.57531 0.0
H355 H 0.88725 0.01679 0.54905 0.0
C356 C 0.79066 0.01621 0.54743 0.0
N357 N 0.80669 0.01466 0.53525 0.0
N358 N 0.82046 0.00361 0.54407 0.0
C359 C 0.81364 0.99768 0.56211 0.0
C360 C 0.79451 0.00543 0.5648 0.0
C361 C 0.77171 0.02694 0.54192 0.0
H362 H 0.77502 0.0431 0.53987 0.0
H363 H 0.76002 0.02551 0.55364 0.0
H364 H 0.76598 0.02104 0.52745 0.0
O365 O 0.80865 0.996 0.4917 0.0
O366 O 0.83251 0.97799 0.50686 0.0
H367 H 0.81452 0.97742 0.58771 0.0
H368 H 0.83819 0.98845 0.58055 0.0
C369 C 0.82386 0.98224 0.57484 0.0
H370 H 0.8273 0.96888 0.56558 0.0
H371 H 0.8536 0.94974 0.53897 0.0
O372 O 0.7895 0.04242 0.50017 0.0
C373 C 0.81924 0.98003 0.49323 0.0
Co374 Co 0.28986 0.55407 0.75044 0.0
Co375 Co 0.31157 0.58746 0.7759 0.0
C376 C 0.27782 0.59795 0.74949 0.0
O377 O 0.27719 0.58002 0.74317 0.0
O378 O 0.28992 0.60309 0.76322 0.0
C379 C 0.25257 0.53938 0.74865 0.0
O380 O 0.2523 0.55429 0.76154 0.0
C381 C 0.31521 0.61909 0.80503 0.0
C382 C 0.34766 0.62071 0.81149 0.0
C383 C 0.32934 0.62935 0.81617 0.0
N384 N 0.32463 0.60516 0.79402 0.0
N385 N 0.34407 0.6062 0.79783 0.0
C386 C 0.29289 0.62122 0.8061 0.0
H387 H 0.2855 0.60684 0.80216 0.0
H388 H 0.28812 0.62592 0.82134 0.0
H389 H 0.28804 0.63287 0.79527 0.0
C390 C 0.29288 0.53327 0.78901 0.0
N391 N 0.29359 0.55038 0.77832 0.0
N392 N 0.30218 0.56445 0.78915 0.0
C393 C 0.30708 0.55679 0.80715 0.0
C394 C 0.30157 0.53676 0.80753 0.0
C395 C 0.2871 0.51337 0.78039 0.0
H396 H 0.29288 0.51204 0.76485 0.0
H397 H 0.2705 0.51235 0.77981 0.0
H398 H 0.2929 0.50077 0.7896 0.0
O399 O 0.31672 0.55377 0.73755 0.0
O400 O 0.33071 0.57858 0.75522 0.0
H401 H 0.33426 0.57014 0.81765 0.0
H402 H 0.31895 0.55943 0.83728 0.0
C403 C 0.31865 0.56781 0.82291 0.0
H404 H 0.3117 0.58266 0.82557 0.0
H405 H 0.35485 0.59694 0.79123 0.0
O406 O 0.26931 0.53426 0.74094 0.0
C407 C 0.33158 0.5653 0.74145 0.0
Co408 Co 0.26119 0.51736 0.04575 0.0
Co409 Co 0.22607 0.493 0.02554 0.0
C410 C 0.21927 0.53391 0.04151 0.0
O411 O 0.23743 0.5349 0.0471 0.0
O412 O 0.21264 0.51853 0.03243 0.0
C413 C 0.27994 0.5476 0.0678 0.0
O414 O 0.26508 0.54311 0.07995 0.0
C415 C 0.1934 0.4849 -0.00173 0.0
C416 C 0.18915 0.45212 0.00048 0.0
C417 C 0.18152 0.46927 0.9916 0.0
N418 N 0.20729 0.47747 0.01076 0.0
N419 N 0.20474 0.45785 0.01204 0.0
C420 C 0.19227 0.50647 0.99218 0.0
H421 H 0.20732 0.51352 0.99313 0.0
H422 H 0.18637 0.50793 0.97669 0.0
H423 H 0.18201 0.51452 0.0025 0.0
C424 C 0.28066 0.50723 0.00718 0.0
N425 N 0.26478 0.50697 0.01964 0.0
N426 N 0.25009 0.49683 0.01121 0.0
C427 C 0.25619 0.49013 0.99321 0.0
C428 C 0.27572 0.49651 0.99004 0.0
C429 C 0.29966 0.51836 0.01141 0.0
H430 H 0.30683 0.51199 0.02501 0.0
H431 H 0.29608 0.53429 0.01463 0.0
H432 H 0.31029 0.51765 -0.00136 0.0
O433 O 0.25706 0.49521 0.06533 0.0
O434 O 0.23187 0.47901 0.05055 0.0
H435 H 0.23821 0.46396 0.98872 0.0
H436 H 0.25275 0.47093 0.96711 0.0
C437 C 0.24392 0.47683 0.97991 0.0
H438 H 0.23087 0.48537 0.97412 0.0
H439 H 0.21347 0.44841 0.02098 0.0
O440 O 0.28315 0.53624 0.0528 0.0
C441 C 0.24415 0.48104 0.06501 0.0
Co442 Co 0.79429 0.01417 0.29517 0.0
Co443 Co 0.81623 0.97963 0.27137 0.0
C444 C 0.7774 0.97211 0.29013 0.0
O445 O 0.77788 0.98969 0.29734 0.0
O446 O 0.79091 0.966 0.27824 0.0
C447 C 0.7595 0.03435 0.29067 0.0
O448 O 0.7612 0.02271 0.27485 0.0
C449 C 0.82358 0.95072 0.23981 0.0
C450 C 0.85385 0.93931 0.24698 0.0
C451 C 0.83774 0.93661 0.23412 0.0
N452 N 0.83098 0.96134 0.25521 0.0
N453 N 0.84919 0.95465 0.2593 0.0
C454 C 0.80242 0.9525 0.23247 0.0
H455 H 0.79452 0.93799 0.23454 0.0
H456 H 0.79431 0.96459 0.24049 0.0
H457 H 0.80229 0.95611 0.21626 0.0
C458 C 0.80589 0.03645 0.25858 0.0
N459 N 0.80419 0.0192 0.26895 0.0
N460 N 0.81269 0.00462 0.25869 0.0
C461 C 0.81987 0.01209 0.24137 0.0
C462 C 0.81576 0.03244 0.24077 0.0
C463 C 0.79838 0.05636 0.26573 0.0
H464 H 0.79936 0.05723 0.28231 0.0
H465 H 0.78244 0.05805 0.26128 0.0
H466 H 0.80696 0.06887 0.25896 0.0
O467 O 0.81726 0.00951 0.31347 0.0
O468 O 0.83091 0.98399 0.29661 0.0
H469 H 0.84425 0.99231 0.23453 0.0
H470 H 0.83894 0.01032 0.21508 0.0
C471 C 0.83212 0.00044 0.22659 0.0
H472 H 0.82242 0.98927 0.21903 0.0
H473 H 0.85804 0.9599 0.27111 0.0
O474 O 0.77401 0.03489 0.3031 0.0
C475 C 0.83053 0.99573 0.31171 0.0
Co476 Co 0.30868 0.54581 0.54873 0.0
Co477 Co 0.33898 0.57185 0.52314 0.0
C478 C 0.34917 0.53058 0.53401 0.0
O479 O 0.3327 0.5295 0.54346 0.0
O480 O 0.35385 0.54626 0.52431 0.0
C481 C 0.28741 0.51131 0.54403 0.0
O482 O 0.29519 0.51491 0.52629 0.0
C483 C 0.36847 0.58563 0.4941 0.0
C484 C 0.36655 0.61862 0.49646 0.0
C485 C 0.37707 0.60323 0.4873 0.0
N486 N 0.35375 0.59026 0.50701 0.0
N487 N 0.35254 0.61002 0.50827 0.0
C488 C 0.37362 0.56469 0.48782 0.0
H489 H 0.35984 0.55538 0.48723 0.0
H490 H 0.38097 0.56455 0.47289 0.0
H491 H 0.38404 0.55806 0.49895 0.0
C492 C 0.28087 0.56111 0.51767 0.0
N493 N 0.29937 0.55919 0.52551 0.0
N494 N 0.3122 0.56912 0.51428 0.0
C495 C 0.30235 0.57735 0.49871 0.0
C496 C 0.28212 0.57273 0.50048 0.0
C497 C 0.26223 0.55278 0.52697 0.0
H498 H 0.26397 0.55181 0.54348 0.0
H499 H 0.25951 0.53749 0.52101 0.0
H500 H 0.24905 0.56225 0.52323 0.0
O501 O 0.31685 0.5658 0.56919 0.0
O502 O 0.33899 0.58258 0.55055 0.0
H503 H 0.3149 0.60417 0.48654 0.0
H504 H 0.30311 0.58824 0.46812 0.0
C505 C 0.31238 0.58838 0.48193 0.0
H506 H 0.32711 0.58145 0.47858 0.0
H507 H 0.34249 0.61763 0.51755 0.0
O508 O 0.28969 0.52441 0.55777 0.0
C509 C 0.33011 0.57952 0.56718 0.0
Co510 Co 0.76458 0.04939 0.7971 0.0
Co511 Co 0.73854 0.08188 0.77458 0.0
C512 C 0.77878 0.09189 0.79011 0.0
O513 O 0.78048 0.07428 0.79706 0.0
O514 O 0.76331 0.09705 0.78032 0.0
C515 C 0.79982 0.02972 0.79213 0.0
O516 O 0.79755 0.04065 0.77588 0.0
C517 C 0.72942 0.10997 0.74301 0.0
C518 C 0.69876 0.1202 0.75029 0.0
C519 C 0.71468 0.12344 0.73732 0.0
N520 N 0.72254 0.09913 0.75848 0.0
N521 N 0.7041 0.10511 0.76266 0.0
C522 C 0.75067 0.10917 0.73572 0.0
H523 H 0.75844 0.12332 0.73977 0.0
H524 H 0.75873 0.09624 0.74237 0.0
H525 H 0.75109 0.10766 0.71919 0.0
C526 C 0.7525 0.02575 0.7615 0.0
N527 N 0.75346 0.04315 0.7717 0.0
N528 N 0.74294 0.05684 0.76208 0.0
C529 C 0.735 0.04857 0.74546 0.0
C530 C 0.74074 0.02859 0.74465 0.0
C531 C 0.76146 0.00637 0.76842 0.0
H532 H 0.76142 0.00563 0.78503 0.0
H533 H 0.77719 0.00542 0.76308 0.0
H534 H 0.75307 0.99341 0.76221 0.0
O535 O 0.74228 0.0535 0.81642 0.0
O536 O 0.72481 0.07702 0.80014 0.0
H537 H 0.70916 0.06623 0.7383 0.0
H538 H 0.71729 0.05009 0.71809 0.0
C539 C 0.7224 0.05974 0.7306 0.0
H540 H 0.73129 0.07222 0.72421 0.0
H541 H 0.69557 0.09962 0.77458 0.0
O542 O 0.78563 0.02947 0.80494 0.0
C543 C 0.7274 0.0656 0.81526 0.0
Co544 Co 0.01285 0.75797 0.0497 0.0
Co545 Co 0.03844 0.72542 0.07257 0.0
C546 C 0.01775 0.71494 0.03529 0.0
O547 O 0.01 0.7323 0.0351 0.0
O548 O 0.03048 0.71002 0.04853 0.0
C549 C 0.01351 0.77412 0.01289 0.0
O550 O 0.02874 0.76164 0.01381 0.0
C551 C 0.06809 0.69466 0.08015 0.0
C552 C 0.07107 0.69441 0.11313 0.0
C553 C 0.07773 0.68508 0.09581 0.0
N554 N 0.05602 0.70883 0.08776 0.0
N555 N 0.05783 0.70865 0.10751 0.0
C556 C 0.07133 0.69141 0.05817 0.0
H557 H 0.0692 0.70568 0.04988 0.0
H558 H 0.08661 0.68552 0.05519 0.0
H559 H 0.06022 0.68033 0.05263 0.0
C560 C 0.04948 0.78144 0.05731 0.0
N561 N 0.03956 0.76388 0.05718 0.0
N562 N 0.05049 0.75019 0.06628 0.0
C563 C 0.06782 0.75857 0.07234 0.0
C564 C 0.06763 0.77869 0.06706 0.0
C565 C 0.04074 0.80086 0.05023 0.0
H566 H 0.02434 0.80109 0.05297 0.0
H567 H 0.0433 0.80227 0.03384 0.0
H568 H 0.04787 0.81383 0.05785 0.0
O569 O 0.99642 0.75514 0.07426 0.0
O570 O 0.01419 0.73069 0.08871 0.0
H571 H 0.07923 0.745 0.09902 0.0
H572 H 0.09831 0.75608 0.08329 0.0
C573 C 0.08402 0.74756 0.0833 0.0
H574 H 0.08661 0.7328 0.07614 0.0
H575 H 0.04997 0.71819 0.11713 0.0
O576 O 0.00337 0.77737 0.02877 0.0
C577 C -0.00086 0.74251 0.08847 0.0
Co578 Co 0.51438 0.80454 0.02486 0.0
Co579 Co 0.53319 0.839 -0.00146 0.0
C580 C 0.50638 0.84853 0.0324 0.0
O581 O 0.50334 0.83 0.03538 0.0
O582 O 0.51855 0.8545 0.01906 0.0
C583 C 0.51442 0.79194 0.06341 0.0
O584 O 0.52432 0.80898 0.06329 0.0
C585 C 0.55855 0.87315 0.99171 0.0
C586 C 0.56264 0.87405 0.95886 0.0
C587 C 0.56798 0.88366 0.97652 0.0
N588 N 0.54799 0.85815 0.98352 0.0
N589 N 0.55027 0.85884 0.96384 0.0
C590 C 0.56112 0.87587 0.01386 0.0
H591 H 0.55801 0.86163 0.02188 0.0
H592 H 0.57655 0.88099 0.01742 0.0
H593 H 0.55038 0.8874 0.01921 0.0
C594 C 0.55583 0.79023 0.02271 0.0
N595 N 0.54238 0.80512 0.02053 0.0
N596 N 0.55041 0.81957 0.00977 0.0
C597 C 0.56933 0.81442 0.0049 0.0
C598 C 0.57331 0.79563 0.01287 0.0
C599 C 0.55111 0.77032 0.03196 0.0
H600 H 0.54866 0.77237 0.04827 0.0
H601 H 0.56345 0.75936 0.02988 0.0
H602 H 0.53705 0.76431 0.0254 0.0
O603 O 0.5012 0.79959 -0.00124 0.0
O604 O 0.51386 0.82503 0.98099 0.0
H605 H 0.59617 0.81762 0.98664 0.0
H606 H 0.58507 0.84066 0.99536 0.0
C607 C 0.5818 0.82537 0.98976 0.0
H608 H 0.57329 0.82668 0.97554 0.0
H609 H 0.54376 0.84865 0.95386 0.0
O610 O 0.50821 0.78493 0.04675 0.0
C611 C 0.50253 0.80966 0.98248 0.0
Co612 Co 0.49895 0.26544 0.26561 0.0
Co613 Co 0.46802 0.28456 0.23515 0.0
C614 C 0.45431 0.26748 0.27363 0.0
O615 O 0.47215 0.2624 0.27778 0.0
O616 O 0.45027 0.27683 0.25756 0.0
C617 C 0.51178 0.26854 0.30444 0.0
O618 O 0.49722 0.28173 0.3029 0.0
C619 C 0.43993 0.31473 0.22229 0.0
C620 C 0.4317 0.30529 0.19163 0.0
C621 C 0.42739 0.31924 0.20641 0.0
N622 N 0.45136 0.29901 0.21713 0.0
N623 N 0.44657 0.29352 0.1987 0.0
C624 C 0.43924 0.32346 0.24296 0.0
H625 H 0.42417 0.32094 0.24956 0.0
H626 H 0.45085 0.31659 0.2527 0.0
H627 H 0.44175 0.33988 0.24227 0.0
C628 C 0.51972 0.30352 0.25719 0.0
N629 N 0.50348 0.29164 0.25578 0.0
N630 N 0.49065 0.29964 0.24306 0.0
C631 C 0.49841 0.31683 0.23587 0.0
C632 C 0.51701 0.31983 0.2446 0.0
C633 C 0.53744 0.29907 0.27025 0.0
H634 H 0.54234 0.28335 0.26786 0.0
H635 H 0.53294 0.30066 0.28618 0.0
H636 H 0.55013 0.30939 0.26738 0.0
O637 O 0.50025 0.24636 0.24266 0.0
O638 O 0.47758 0.26008 0.22216 0.0
H639 H 0.48359 0.31881 0.20738 0.0
H640 H 0.50053 0.33926 0.21245 0.0
C641 C 0.48939 0.32892 0.21922 0.0
H642 H 0.47676 0.33792 0.2252 0.0
H643 H 0.45274 0.28116 0.19132 0.0
O644 O 0.51729 0.25917 0.2887 0.0
C645 C 0.49027 0.24638 0.22625 0.0
Co646 Co 0.02651 0.25784 0.52556 0.0
Co647 Co 0.01601 0.22619 0.49192 0.0
C648 C 0.01919 0.21436 0.53488 0.0
O649 O 0.02304 0.23231 0.5399 0.0
O650 O 0.01576 0.20979 0.51671 0.0
C651 C 0.01766 0.27572 0.56238 0.0
O652 O 0.00314 0.26248 0.56086 0.0
C653 C 0.99018 0.19772 0.47207 0.0
C654 C 0.00818 0.18804 0.44601 0.0
C655 C 0.99052 0.18423 0.45628 0.0
N656 N 0.00674 0.20906 0.47113 0.0
N657 N 0.01732 0.20348 0.45532 0.0
C658 C 0.97589 0.19801 0.48939 0.0
H659 H 0.9801 0.20975 0.50039 0.0
H660 H 0.9605 0.20116 0.48393 0.0
H661 H 0.97574 0.1831 0.49679 0.0
C662 C 0.99353 0.27968 0.50511 0.0
N663 N 0.00504 0.26329 0.50774 0.0
N664 N 0.00098 0.25018 0.49353 0.0
C665 C 0.98707 0.25797 0.48116 0.0
C666 C 0.98181 0.27687 0.48808 0.0
C667 C 0.99353 0.29722 0.51912 0.0
H668 H 0.00864 0.3042 0.51919 0.0
H669 H 0.99037 0.2919 0.53453 0.0
H670 H 0.98211 0.30859 0.51508 0.0
O671 O 0.0519 0.25511 0.51025 0.0
O672 O 0.04392 0.23277 0.48673 0.0
H673 H 0.99344 0.24172 0.45414 0.0
H674 H 0.97299 0.25924 0.45189 0.0
C675 C 0.98037 0.2483 0.46202 0.0
H676 H 0.96963 0.23611 0.46552 0.0
H677 H 0.03134 0.20937 0.4516 0.0
O678 O 0.02949 0.278 0.54756 0.0
C679 C 0.0566 0.24423 0.4952 0.0
Co680 Co 0.05173 0.79127 0.77503 0.0
Co681 Co 0.08225 0.76906 0.74622 0.0
C682 C 0.09411 0.78061 0.78732 0.0
O683 O 0.07685 0.78806 0.79036 0.0
O684 O 0.0984 0.77221 0.77079 0.0
C685 C 0.03099 0.78642 0.81018 0.0
O686 O 0.04063 0.76936 0.80793 0.0
C687 C 0.1111 0.73951 0.7317 0.0
C688 C 0.1095 0.74315 0.69878 0.0
C689 C 0.11902 0.7324 0.7138 0.0
N690 N 0.09733 0.75357 0.72743 0.0
N691 N 0.09641 0.75569 0.70774 0.0
C692 C 0.11771 0.73476 0.75265 0.0
H693 H 0.12617 0.74776 0.75864 0.0
H694 H 0.10436 0.73246 0.76233 0.0
H695 H 0.12764 0.72151 0.75352 0.0
C696 C 0.02546 0.75887 0.76006 0.0
N697 N 0.04364 0.76743 0.76202 0.0
N698 N 0.05662 0.75772 0.75073 0.0
C699 C 0.04717 0.74246 0.74151 0.0
C700 C 0.02708 0.74291 0.74687 0.0
C701 C 0.00658 0.76702 0.76905 0.0
H702 H 0.00737 0.7836 0.77006 0.0
H703 H 0.00479 0.76087 0.78441 0.0
H704 H 0.99328 0.76261 0.76006 0.0
O705 O 0.05673 0.81201 0.75441 0.0
O706 O 0.07865 0.79597 0.73485 0.0
H707 H 0.05982 0.73463 0.71313 0.0
H708 H 0.04813 0.71389 0.72603 0.0
C709 C 0.05728 0.72764 0.72801 0.0
H710 H 0.07199 0.72332 0.73442 0.0
H711 H 0.08702 0.76586 0.70043 0.0
O712 O 0.03227 0.79946 0.7963 0.0
C713 C 0.06835 0.81148 0.73917 0.0
Co714 Co 0.54461 0.30661 0.54372 0.0
Co715 Co 0.52349 0.33832 0.57189 0.0
C716 C 0.5394 0.35024 0.53238 0.0
O717 O 0.54594 0.3326 0.5297 0.0
O718 O 0.5295 0.35468 0.54799 0.0
C719 C 0.53988 0.29159 0.50644 0.0
O720 O 0.52514 0.30439 0.50917 0.0
C721 C 0.49147 0.36515 0.58216 0.0
C722 C 0.50043 0.37739 0.61159 0.0
C723 C 0.48622 0.37921 0.5965 0.0
N724 N 0.50785 0.35536 0.58847 0.0
N725 N 0.51303 0.3625 0.60622 0.0
C726 C 0.48283 0.36288 0.56153 0.0
H727 H 0.48283 0.3776 0.55375 0.0
H728 H 0.49141 0.35175 0.55265 0.0
H729 H 0.46709 0.35765 0.56257 0.0
C730 C 0.5086 0.28353 0.55514 0.0
N731 N 0.51893 0.30087 0.55451 0.0
N732 N 0.51015 0.31407 0.56629 0.0
C733 C 0.49406 0.30551 0.57494 0.0
C734 C 0.49253 0.28594 0.56814 0.0
C735 C 0.51441 0.26507 0.54374 0.0
H736 H 0.53061 0.26199 0.54596 0.0
H737 H 0.51191 0.26772 0.52753 0.0
H738 H 0.5055 0.2518 0.54822 0.0
O739 O 0.56414 0.30852 0.56629 0.0
O740 O 0.54887 0.33174 0.58506 0.0
H741 H 0.49227 0.32236 0.60229 0.0
H742 H 0.473 0.30363 0.59968 0.0
C743 C 0.48209 0.3149 0.59149 0.0
H744 H 0.47188 0.32633 0.58506 0.0
H745 H 0.52581 0.35803 0.61411 0.0
O746 O 0.55133 0.28767 0.52126 0.0
C747 C 0.56351 0.31987 0.58179 0.0
Co748 Co 0.01176 0.29351 0.79704 0.0
Co749 Co 0.97699 0.26764 0.816 0.0
C750 C 0.97571 0.27801 0.77363 0.0
O751 O 0.99143 0.28828 0.77641 0.0
O752 O 0.96843 0.26735 0.78759 0.0
C753 C 0.03849 0.28994 0.76654 0.0
O754 O 0.03207 0.27154 0.76943 0.0
C755 C 0.94482 0.23903 0.82369 0.0
C756 C 0.94125 0.24029 0.85659 0.0
C757 C 0.93334 0.23185 0.83936 0.0
N758 N 0.95879 0.25147 0.83113 0.0
N759 N 0.95667 0.25208 0.85084 0.0
C760 C 0.94289 0.2336 0.80199 0.0
H761 H 0.958 0.23162 0.7953 0.0
H762 H 0.93423 0.21953 0.8 0.0
H763 H 0.93504 0.24589 0.79398 0.0
C764 C 0.03629 0.26289 0.81772 0.0
N765 N 0.01847 0.27052 0.81211 0.0
N766 N 0.00399 0.25935 0.81955 0.0
C767 C 0.01218 0.24399 0.82978 0.0
C768 C 0.03293 0.24587 0.82915 0.0
C769 C 0.05611 0.27221 0.81287 0.0
H770 H 0.05447 0.28868 0.81117 0.0
H771 H 0.06174 0.26595 0.79852 0.0
H772 H 0.06726 0.26881 0.82476 0.0
O773 O -0.00035 0.31376 0.8146 0.0
O774 O 0.97353 0.29571 0.8252 0.0
H775 H 0.99491 0.23176 0.8538 0.0
H776 H 0.0096 0.21342 0.84042 0.0
C777 C 0.00036 0.22716 0.83877 0.0
H778 H 0.98721 0.2237 0.82922 0.0
H779 H 0.96548 0.26087 0.86034 0.0
O780 O 0.03379 0.30326 0.77942 0.0
C781 C 0.98315 0.31221 0.82422 0.0
Co782 Co 0.56228 0.75988 0.29454 0.0
Co783 Co 0.59379 0.78646 0.31791 0.0
C784 C 0.6016 0.77408 0.27636 0.0
O785 O 0.58508 0.76466 0.27626 0.0
O786 O 0.60712 0.78402 0.29162 0.0
C787 C 0.53844 0.7625 0.26169 0.0
O788 O 0.54705 0.78016 0.26322 0.0
C789 C 0.62048 0.8195 0.32763 0.0
C790 C 0.62354 0.8173 0.36058 0.0
C791 C 0.62968 0.82831 0.34407 0.0
N792 N 0.60916 0.8042 0.33416 0.0
N793 N 0.61102 0.80293 0.35386 0.0
C794 C 0.62382 0.82388 0.30584 0.0
H795 H 0.6332 0.81177 0.29935 0.0
H796 H 0.60923 0.82392 0.29783 0.0
H797 H 0.63168 0.83822 0.30318 0.0
C798 C 0.53523 0.79211 0.30934 0.0
N799 N 0.5535 0.78367 0.30737 0.0
N800 N 0.56689 0.79528 0.31608 0.0
C801 C 0.55762 0.81167 0.32336 0.0
C802 C 0.5373 0.81005 0.31949 0.0
C803 C 0.51612 0.78348 0.30141 0.0
H804 H 0.51708 0.76689 0.30073 0.0
H805 H 0.51337 0.78942 0.28611 0.0
H806 H 0.50327 0.78797 0.311 0.0
O807 O 0.57196 0.7405 0.31491 0.0
O808 O 0.59473 0.7597 0.33017 0.0
H809 H 0.57491 0.82351 0.34757 0.0
H810 H 0.55753 0.84125 0.33686 0.0
C811 C 0.56804 0.82881 0.3334 0.0
H812 H 0.58019 0.83445 0.32354 0.0
H813 H 0.60391 0.79212 0.36268 0.0
O814 O 0.54174 0.74953 0.27533 0.0
C815 C 0.58578 0.74296 0.32799 0.0
H816 H 0.10319 0.99677 0.71307 0.0
H817 H 0.11472 0.96377 0.70211 0.0
H818 H 0.08358 0.93641 0.75172 0.0
H819 H 0.07182 0.96921 0.76278 0.0
H820 H 0.12387 0.91858 0.73852 0.0
H821 H 0.06588 0.92915 0.67907 0.0
H822 H 0.08533 0.94754 0.68282 0.0
H823 H 0.06576 0.94489 0.70108 0.0
C824 C 0.09925 0.9838 0.72202 0.0
C825 C 0.08615 0.98551 0.73855 0.0
C826 C 0.10591 0.965 0.71571 0.0
C827 C 0.09973 0.94781 0.72598 0.0
C828 C 0.08844 0.94965 0.74363 0.0
H829 H 0.04847 0.84716 0.74202 0.0
H830 H 0.06017 0.87946 0.72957 0.0
C831 C 0.08165 0.96837 0.74988 0.0
C832 C 0.10175 0.92781 0.71698 0.0
H833 H 0.07313 0.89616 0.68893 0.0
C834 C 0.1135 0.91362 0.72702 0.0
C835 C 0.0882 0.92162 0.70189 0.0
C836 C 0.07552 0.93651 0.69049 0.0
C837 C 0.11027 0.89309 0.72407 0.0
C838 C 0.09486 0.88692 0.71087 0.0
C839 C 0.08488 0.90109 0.69904 0.0
C840 C 0.08551 0.86716 0.71342 0.0
C841 C 0.12162 0.87822 0.73681 0.0
C842 C 0.09536 0.84962 0.7075 0.0
C843 C 0.08868 0.8311 0.71457 0.0
C844 C 0.07222 0.83003 0.72781 0.0
C845 C 0.06133 0.84752 0.7321 0.0
C846 C 0.06793 0.86595 0.72491 0.0
H847 H 0.13332 0.88554 0.74615 0.0
H848 H 0.11106 0.87018 0.74687 0.0
H849 H 0.12897 0.86689 0.72707 0.0
H850 H 0.10889 0.85037 0.69854 0.0
H851 H 0.09729 0.81785 0.7108 0.0
H852 H 0.50111 0.82726 0.94532 0.0
H853 H 0.47114 0.82978 0.92438 0.0
H854 H 0.44143 0.78634 0.962 0.0
H855 H 0.47126 0.78331 0.98254 0.0
H856 H 0.42572 0.78765 0.92305 0.0
H857 H 0.43235 0.86434 0.95637 0.0
H858 H 0.45076 0.85579 0.93864 0.0
H859 H 0.44991 0.84506 0.96336 0.0
C860 C 0.48844 0.81766 0.94866 0.0
C861 C 0.48815 0.80576 0.96613 0.0
C862 C 0.47135 0.81913 0.93664 0.0
C863 C 0.45387 0.8089 0.94218 0.0
C864 C 0.45472 0.79462 0.95763 0.0
H865 H 0.35095 0.79678 0.99066 0.0
H866 H 0.38309 0.79895 0.97342 0.0
C867 C 0.47179 0.79299 0.9695 0.0
C868 C 0.43386 0.81608 0.93604 0.0
H869 H 0.40044 0.85071 0.95343 0.0
C870 C 0.42019 0.80184 0.9288 0.0
C871 C 0.42666 0.83477 0.94329 0.0
C872 C 0.44059 0.85094 0.95087 0.0
C873 C 0.39955 0.80448 0.93159 0.0
C874 C 0.3927 0.82174 0.94175 0.0
C875 C 0.406 0.83736 0.94596 0.0
C876 C 0.37337 0.82161 0.95231 0.0
C877 C 0.3854 0.78791 0.92561 0.0
C878 C 0.3578 0.83454 0.9468 0.0
C879 C 0.33939 0.83344 0.95673 0.0
C880 C 0.33646 0.81951 0.97237 0.0
C881 C 0.35264 0.8076 0.97866 0.0
C882 C 0.37092 0.80863 0.96867 0.0
H883 H 0.39153 0.77904 0.91291 0.0
H884 H 0.38329 0.77762 0.93852 0.0
H885 H 0.3705 0.79403 0.92133 0.0
H886 H 0.3597 0.84495 0.93448 0.0
H887 H 0.32723 0.84292 0.95159 0.0
H888 H 0.51445 0.21334 0.22931 0.0
H889 H 0.5075 0.18063 0.21469 0.0
H890 H 0.45972 0.20614 0.17935 0.0
H891 H 0.46677 0.23904 0.19352 0.0
H892 H 0.44797 0.1794 0.21068 0.0
H893 H 0.5068 0.14565 0.16307 0.0
H894 H 0.51722 0.15991 0.18339 0.0
H895 H 0.5026 0.17245 0.16447 0.0
C896 C 0.50305 0.21221 0.21779 0.0
C897 C 0.49076 0.22862 0.21308 0.0
C898 C 0.49921 0.19352 0.20928 0.0
C899 C 0.48302 0.19105 0.19603 0.0
C900 C 0.47231 0.20784 0.18948 0.0
H901 H 0.46494 0.06282 0.20558 0.0
H902 H 0.45528 0.09454 0.19018 0.0
C903 C 0.47631 0.2266 0.19777 0.0
C904 C 0.47433 0.17091 0.19391 0.0
H905 H 0.49003 0.12298 0.18674 0.0
C906 C 0.45666 0.16701 0.20469 0.0
C907 C 0.48555 0.15489 0.18592 0.0
C908 C 0.504 0.15844 0.17338 0.0
C909 C 0.45157 0.14742 0.21016 0.0
C910 C 0.46436 0.13163 0.20445 0.0
C911 C 0.48037 0.13527 0.19127 0.0
C912 C 0.46451 0.11257 0.21544 0.0
C913 C 0.43373 0.1439 0.22358 0.0
C914 C 0.47218 0.11234 0.23503 0.0
C915 C 0.47815 0.09433 0.24378 0.0
C916 C 0.47636 0.07633 0.23303 0.0
C917 C 0.46668 0.07646 0.21423 0.0
C918 C 0.46106 0.09453 0.20536 0.0
H919 H 0.42244 0.15606 0.22198 0.0
H920 H 0.42654 0.12927 0.22017 0.0
H921 H 0.4388 0.14361 0.23943 0.0
H922 H 0.47512 0.12626 0.2429 0.0
H923 H 0.48538 0.09468 0.25832 0.0
H924 H 0.0892 0.26105 0.51345 0.0
H925 H 0.12372 0.24919 0.5108 0.0
H926 H 0.10665 0.20888 0.46321 0.0
H927 H 0.07216 0.22083 0.46538 0.0
H928 H 0.131 0.20583 0.5172 0.0
H929 H 0.1604 0.23492 0.44442 0.0
H930 H 0.1397 0.2469 0.45716 0.0
H931 H 0.13606 0.22324 0.44494 0.0
C932 C 0.09286 0.25015 0.50197 0.0
C933 C 0.07788 0.24164 0.48988 0.0
C934 C 0.11254 0.24329 0.5006 0.0
C935 C 0.11748 0.228 0.48704 0.0
C936 C 0.103 0.22069 0.47376 0.0
H937 H 0.24276 0.19947 0.47709 0.0
H938 H 0.20806 0.18807 0.47609 0.0
C939 C 0.08333 0.22759 0.47505 0.0
C940 C 0.13736 0.21864 0.4882 0.0
H941 H 0.18301 0.21859 0.46567 0.0
C942 C 0.14236 0.20825 0.5058 0.0
C943 C 0.15179 0.22137 0.47302 0.0
C944 C 0.14688 0.23225 0.45379 0.0
C945 C 0.16205 0.202 0.50938 0.0
C946 C 0.17694 0.20655 0.49509 0.0
C947 C 0.17149 0.21514 0.47663 0.0
C948 C 0.19832 0.20709 0.50047 0.0
C949 C 0.16695 0.1916 0.52884 0.0
C950 C 0.20448 0.22064 0.51536 0.0
C951 C 0.22422 0.22737 0.51586 0.0
C952 C 0.23797 0.22072 0.50139 0.0
C953 C 0.23239 0.20519 0.48822 0.0
C954 C 0.2126 0.19851 0.48768 0.0
H955 H 0.1541 0.18235 0.53401 0.0
H956 H 0.18039 0.18187 0.52735 0.0
H957 H 0.16995 0.20304 0.54055 0.0
H958 H 0.19363 0.22766 0.5252 0.0
H959 H 0.22815 0.23909 0.52641 0.0
H960 H 0.58909 0.60019 0.29352 0.0
H961 H 0.61051 0.62886 0.3001 0.0
H962 H 0.64454 0.59416 0.34281 0.0
H963 H 0.62328 0.56524 0.33614 0.0
H964 H 0.62083 0.62266 0.36015 0.0
H965 H 0.66389 0.65833 0.29964 0.0
H966 H 0.64113 0.64824 0.28954 0.0
H967 H 0.65944 0.63155 0.30043 0.0
C968 C 0.60174 0.5983 0.30354 0.0
C969 C 0.60396 0.58078 0.31494 0.0
C970 C 0.61419 0.61469 0.30716 0.0
C971 C 0.62897 0.61369 0.32217 0.0
C972 C 0.63319 0.59523 0.33122 0.0
H973 H 0.62239 0.74001 0.34597 0.0
H974 H 0.64024 0.70899 0.35357 0.0
C975 C 0.62084 0.57879 0.32751 0.0
C976 C 0.63448 0.63248 0.33245 0.0
H977 H 0.64153 0.68119 0.31941 0.0
C978 C 0.6263 0.63542 0.35167 0.0
C979 C 0.64197 0.64906 0.32169 0.0
C980 C 0.6523 0.64655 0.30176 0.0
C981 C 0.62207 0.65473 0.35867 0.0
C982 C 0.62642 0.67122 0.34622 0.0
C983 C 0.63785 0.6684 0.32876 0.0
C984 C 0.61477 0.68988 0.34773 0.0
C985 C 0.6109 0.65727 0.37814 0.0
C986 C 0.59433 0.6893 0.34267 0.0
C987 C 0.58415 0.70691 0.33787 0.0
C988 C 0.59428 0.72533 0.33825 0.0
C989 C 0.61416 0.72602 0.34544 0.0
C990 C 0.62443 0.70834 0.34986 0.0
H991 H 0.61445 0.64491 0.38873 0.0
H992 H 0.61456 0.67185 0.3853 0.0
H993 H 0.59453 0.65689 0.37513 0.0
H994 H 0.58672 0.67508 0.34071 0.0
H995 H 0.56884 0.70593 0.33252 0.0
H996 H 0.56743 0.34302 0.61543 0.0
H997 H 0.59897 0.35446 0.63004 0.0
H998 H 0.63143 0.31331 0.59213 0.0
H999 H 0.60009 0.30185 0.57727 0.0
H1000 H 0.64806 0.32168 0.6337 0.0
H1001 H 0.63069 0.38878 0.58676 0.0
H1002 H 0.61323 0.38011 0.60546 0.0
H1003 H 0.61699 0.36577 0.58301 0.0
C1004 C 0.58123 0.33593 0.6106 0.0
C1005 C 0.58135 0.32196 0.5947 0.0
C1006 C 0.5992 0.34248 0.61905 0.0
C1007 C 0.61739 0.33498 0.61184 0.0
C1008 C 0.61741 0.3193 0.59779 0.0
H1009 H 0.71268 0.33256 0.55612 0.0
H1010 H 0.68153 0.34453 0.57088 0.0
C1011 C 0.59949 0.3128 0.58926 0.0
C1012 C 0.63635 0.34558 0.61555 0.0
H1013 H 0.66459 0.3806 0.5914 0.0
C1014 C 0.6517 0.33514 0.62532 0.0
C1015 C 0.64082 0.36327 0.60472 0.0
C1016 C 0.62464 0.37525 0.59436 0.0
C1017 C 0.6718 0.34032 0.62219 0.0
C1018 C 0.67636 0.35623 0.60888 0.0
C1019 C 0.66092 0.36839 0.6015 0.0
C1020 C 0.69547 0.35602 0.59787 0.0
C1021 C 0.68797 0.3271 0.63092 0.0
C1022 C 0.71366 0.35994 0.60754 0.0
C1023 C 0.73156 0.3531 0.59909 0.0
C1024 C 0.73129 0.34211 0.58102 0.0
C1025 C 0.71331 0.34061 0.57022 0.0
C1026 C 0.69551 0.34757 0.57859 0.0
H1027 H 0.68181 0.31556 0.64124 0.0
H1028 H 0.69621 0.31937 0.61868 0.0
H1029 H 0.6989 0.33639 0.63936 0.0
H1030 H 0.71385 0.36664 0.62234 0.0
H1031 H 0.74525 0.35477 0.60767 0.0
H1032 H 0.9429 0.31863 0.82628 0.0
H1033 H 0.92659 0.35139 0.82415 0.0
H1034 H 0.9836 0.38032 0.83381 0.0
H1035 H 0.00017 0.34768 0.83517 0.0
H1036 H 0.92436 0.39049 0.84457 0.0
H1037 H 0.96726 0.39067 0.77389 0.0
H1038 H 0.96378 0.36831 0.78877 0.0
H1039 H 0.98349 0.38578 0.79478 0.0
C1040 C 0.95186 0.33195 0.82875 0.0
C1041 C 0.97289 0.33072 0.83039 0.0
C1042 C 0.94247 0.35063 0.82751 0.0
C1043 C 0.95404 0.36811 0.82827 0.0
C1044 C 0.97456 0.36685 0.83282 0.0
H1045 H 0.96172 0.48317 0.84511 0.0
H1046 H 0.94447 0.45139 0.84477 0.0
C1047 C 0.984 0.34825 0.83363 0.0
C1048 C 0.94597 0.38722 0.82077 0.0
H1049 H 0.95872 0.42319 0.78732 0.0
C1050 C 0.93147 0.39765 0.83182 0.0
C1051 C 0.95408 0.39592 0.80327 0.0
C1052 C 0.96781 0.38446 0.78935 0.0
C1053 C 0.92705 0.41776 0.82731 0.0
C1054 C 0.93823 0.42765 0.81215 0.0
C1055 C 0.95042 0.41613 0.79938 0.0
C1056 C 0.94171 0.44967 0.81233 0.0
C1057 C 0.91104 0.42827 0.83931 0.0
C1058 C 0.94568 0.45997 0.7943 0.0
C1059 C 0.9569 0.47767 0.79452 0.0
C1060 C 0.96326 0.48581 0.8128 0.0
C1061 C 0.95692 0.4771 0.83082 0.0
C1062 C 0.94661 0.45898 0.83061 0.0
H1063 H 0.89766 0.41845 0.84073 0.0
H1064 H 0.91661 0.43112 0.85474 0.0
H1065 H 0.90639 0.44267 0.83234 0.0
H1066 H 0.94185 0.45334 0.77998 0.0
H1067 H 0.96145 0.4844 0.78045 0.0
H1068 H 0.96424 0.76358 0.09322 0.0
H1069 H 0.93372 0.75055 0.10822 0.0
H1070 H 0.96631 0.69962 0.13124 0.0
H1071 H 0.99707 0.71268 0.11652 0.0
H1072 H 0.93943 0.69029 0.10118 0.0
H1073 H 0.90109 0.73613 0.15806 0.0
H1074 H 0.91266 0.75212 0.1398 0.0
H1075 H 0.9281 0.73609 0.15518 0.0
C1076 C 0.96515 0.7501 0.10223 0.0
C1077 C 0.98289 0.73882 0.10306 0.0
C1078 C 0.94769 0.74273 0.11104 0.0
C1079 C 0.94776 0.72402 0.12073 0.0
C1080 C 0.96599 0.71409 0.12386 0.0
H1081 H 0.82186 0.7046 0.10309 0.0
H1082 H 0.8523 0.6923 0.11916 0.0
C1083 C 0.98352 0.72156 0.11526 0.0
C1084 C 0.92872 0.71286 0.12181 0.0
H1085 H 0.87962 0.7235 0.13019 0.0
C1086 C 0.92635 0.69689 0.10825 0.0
C1087 C 0.91173 0.72109 0.13132 0.0
C1088 C 0.91358 0.73717 0.14708 0.0
C1089 C 0.90729 0.69142 0.1014 0.0
C1090 C 0.89049 0.70211 0.10845 0.0
C1091 C 0.89265 0.71558 0.1245 0.0
C1092 C 0.87215 0.70377 0.0963 0.0
C1093 C 0.90545 0.67584 0.08514 0.0
C1094 C 0.87329 0.71363 0.07772 0.0
C1095 C 0.856 0.72107 0.06863 0.0
C1096 C 0.83733 0.71867 0.078 0.0
C1097 C 0.83606 0.70691 0.09554 0.0
C1098 C 0.8534 0.69975 0.10477 0.0
H1099 H 0.91761 0.6645 0.08632 0.0
H1100 H 0.8907 0.66813 0.08583 0.0
H1101 H 0.90681 0.68324 0.07029 0.0
H1102 H 0.88772 0.71713 0.07111 0.0
H1103 H 0.85746 0.7299 0.05507 0.0
H1104 H 0.71029 0.10226 0.99695 0.0
H1105 H 0.69451 0.11398 0.96604 0.0
H1106 H 0.74151 0.08601 0.93153 0.0
H1107 H 0.75736 0.07408 0.9622 0.0
H1108 H 0.72423 0.12536 0.91628 0.0
H1109 H 0.66884 0.06521 0.93397 0.0
H1110 H 0.67412 0.08497 0.95165 0.0
H1111 H 0.69249 0.06584 0.94707 0.0
C1112 C 0.71763 0.09908 0.98282 0.0
C1113 C 0.73482 0.08676 0.98196 0.0
C1114 C 0.70856 0.10585 0.96522 0.0
C1115 C 0.71672 0.10056 0.94665 0.0
C1116 C 0.73502 0.09018 0.94583 0.0
H1117 H 0.72927 0.0466 0.8515 0.0
H1118 H 0.71524 0.05901 0.88282 0.0
C1119 C 0.74402 0.08329 0.96336 0.0
C1120 C 0.70503 0.10235 0.92806 0.0
H1121 H 0.67583 0.0713 0.89997 0.0
C1122 C 0.71286 0.11429 0.9127 0.0
C1123 C 0.69004 0.088 0.92368 0.0
C1124 C 0.68076 0.07523 0.93989 0.0
C1125 C 0.70833 0.11017 0.89263 0.0
C1126 C 0.69574 0.09368 0.88812 0.0
C1127 C 0.68557 0.08381 0.9036 0.0
C1128 C 0.69825 0.08299 0.86899 0.0
C1129 C 0.71916 0.12165 0.8764 0.0
C1130 C 0.69219 0.09158 0.85085 0.0
C1131 C 0.70025 0.08453 0.83287 0.0
C1132 C 0.71454 0.06891 0.83295 0.0
C1133 C 0.71859 0.05884 0.85096 0.0
C1134 C 0.71048 0.06585 0.86887 0.0
H1135 H 0.7282 0.13424 0.88254 0.0
H1136 H 0.72933 0.11143 0.86806 0.0
H1137 H 0.70815 0.12788 0.86559 0.0
H1138 H 0.68258 0.10468 0.85073 0.0
H1139 H 0.6965 0.09239 0.81916 0.0
H1140 H 0.26478 0.48206 0.10052 0.0
H1141 H 0.25095 0.47254 0.13299 0.0
H1142 H 0.20027 0.44505 0.1038 0.0
H1143 H 0.21419 0.45383 0.07123 0.0
H1144 H 0.19434 0.48322 0.1276 0.0
H1145 H 0.23315 0.42246 0.16907 0.0
H1146 H 0.2495 0.43834 0.15464 0.0
H1147 H 0.23133 0.42299 0.14198 0.0
C1148 C 0.2512 0.47315 0.10092 0.0
C1149 C 0.24028 0.46929 0.08335 0.0
C1150 C 0.24334 0.46765 0.11949 0.0
C1151 C 0.22452 0.45832 0.12064 0.0
C1152 C 0.21482 0.45223 0.1031 0.0
H1153 H 0.19675 0.47112 0.2453 0.0
H1154 H 0.18407 0.46149 0.21248 0.0
C1155 C 0.22283 0.45739 0.08451 0.0
C1156 C 0.21326 0.45981 0.13949 0.0
H1157 H 0.21889 0.44925 0.18895 0.0
C1158 C 0.19906 0.4753 0.14101 0.0
C1159 C 0.21935 0.44933 0.15676 0.0
C1160 C 0.23406 0.43221 0.15559 0.0
C1161 C 0.19272 0.48226 0.15977 0.0
C1162 C 0.2007 0.4733 0.17715 0.0
C1163 C 0.21284 0.45614 0.17551 0.0
C1164 C 0.20103 0.48393 0.19645 0.0
C1165 C 0.17902 0.50019 0.16095 0.0
C1166 C 0.21366 0.50067 0.19828 0.0
C1167 C 0.22137 0.50597 0.21698 0.0
C1168 C 0.21644 0.49456 0.23395 0.0
C1169 C 0.20125 0.47993 0.23242 0.0
C1170 C 0.19382 0.47444 0.21369 0.0
H1171 H 0.16952 0.50144 0.14732 0.0
H1172 H 0.16922 0.49934 0.17439 0.0
H1173 H 0.18822 0.51402 0.1621 0.0
H1174 H 0.21948 0.50809 0.18505 0.0
H1175 H 0.23275 0.51753 0.21771 0.0
H1176 H 0.79615 0.98011 0.45926 0.0
H1177 H 0.80628 0.96535 0.42752 0.0
H1178 H 0.85354 0.93273 0.45727 0.0
H1179 H 0.84327 0.94702 0.48923 0.0
H1180 H 0.86601 0.96528 0.43276 0.0
H1181 H 0.8144 0.91561 0.39127 0.0
H1182 H 0.80109 0.93473 0.40476 0.0
H1183 H 0.81541 0.91633 0.41839 0.0
C1184 C 0.80802 0.96901 0.45928 0.0
C1185 C 0.81943 0.96541 0.47659 0.0
C1186 C 0.81372 0.96041 0.4411 0.0
C1187 C 0.83085 0.94819 0.44008 0.0
C1188 C 0.84032 0.94217 0.4578 0.0
H1189 H 0.85639 0.96409 0.31483 0.0
H1190 H 0.86668 0.9483 0.3461 0.0
C1191 C 0.83445 0.95052 0.47605 0.0
C1192 C 0.8418 0.94732 0.42093 0.0
H1193 H 0.83163 0.94146 0.37138 0.0
C1194 C 0.85905 0.95933 0.41931 0.0
C1195 C 0.83288 0.93941 0.4035 0.0
C1196 C 0.81502 0.92562 0.40457 0.0
C1197 C 0.86575 0.96604 0.4006 0.0
C1198 C 0.85504 0.96035 0.38332 0.0
C1199 C 0.83969 0.94599 0.38477 0.0
C1200 C 0.85585 0.97237 0.36486 0.0
C1201 C 0.88293 0.98068 0.39955 0.0
C1202 C 0.84739 0.99167 0.36513 0.0
C1203 C 0.84105 0.00062 0.34733 0.0
C1204 C 0.84316 0.99034 0.32908 0.0
C1205 C 0.85418 0.97228 0.32869 0.0
C1206 C 0.86021 0.9632 0.34652 0.0
H1207 H 0.89331 0.97871 0.41244 0.0
H1208 H 0.89145 0.9789 0.38535 0.0
H1209 H 0.87692 0.9962 0.40012 0.0
H1210 H 0.84376 -0.00112 0.37923 0.0
H1211 H 0.83286 0.01463 0.34812 0.0
H1212 H 0.31357 0.58125 0.60468 0.0
H1213 H 0.3309 0.5909 0.63542 0.0
H1214 H 0.38229 0.60981 0.60104 0.0
H1215 H 0.36496 0.60073 0.57015 0.0
H1216 H 0.38798 0.57626 0.62888 0.0
H1217 H 0.35309 0.64191 0.66528 0.0
H1218 H 0.33474 0.62615 0.65344 0.0
H1219 H 0.35343 0.63847 0.63834 0.0
C1220 C 0.32824 0.58814 0.60359 0.0
C1221 C 0.33799 0.5899 0.58504 0.0
C1222 C 0.33809 0.59379 0.62113 0.0
C1223 C 0.35783 0.60109 0.62038 0.0
C1224 C 0.36701 0.60436 0.60183 0.0
H1225 H 0.36496 0.58895 0.74445 0.0
H1226 H 0.38627 0.59882 0.7165 0.0
C1227 C 0.35703 0.59908 0.58423 0.0
C1228 C 0.36972 0.60103 0.63894 0.0
H1229 H 0.36236 0.61401 0.6875 0.0
C1230 C 0.38317 0.58506 0.6417 0.0
C1231 C 0.36398 0.61287 0.65545 0.0
C1232 C 0.35067 0.63096 0.65295 0.0
C1233 C 0.38801 0.57842 0.66102 0.0
C1234 C 0.3791 0.58805 0.67761 0.0
C1235 C 0.36889 0.60629 0.67475 0.0
C1236 C 0.37416 0.57683 0.69602 0.0
C1237 C 0.40063 0.55984 0.66346 0.0
C1238 C 0.36139 0.56016 0.69418 0.0
C1239 C 0.34889 0.55467 0.71 0.0
C1240 C 0.34904 0.56583 0.72783 0.0
C1241 C 0.3641 0.58038 0.73068 0.0
C1242 C 0.3765 0.58595 0.71479 0.0
H1243 H 0.41275 0.55948 0.65203 0.0
H1244 H 0.40741 0.55902 0.67866 0.0
H1245 H 0.39112 0.54639 0.6611 0.0
H1246 H 0.35914 0.55299 0.67977 0.0
H1247 H 0.33773 0.54315 0.70745 0.0
H1248 H 0.02428 0.17413 0.52831 0.0
H1249 H 0.03701 0.14953 0.55235 0.0
H1250 H 0.03417 0.19386 0.59937 0.0
H1251 H 0.02177 0.21861 0.57546 0.0
H1252 H 0.07187 0.17655 0.59485 0.0
H1253 H 0.01252 0.11812 0.59897 0.0
H1254 H 0.02071 0.12451 0.57411 0.0
H1255 H 0.00785 0.14289 0.58905 0.0
C1256 C 0.0258 0.17849 0.54388 0.0
C1257 C 0.02215 0.19837 0.54995 0.0
C1258 C 0.03309 0.16439 0.55761 0.0
C1259 C 0.03655 0.1699 0.57762 0.0
C1260 C 0.03168 0.18935 0.58396 0.0
H1261 H 0.08379 0.12165 0.6862 0.0
H1262 H 0.07256 0.14285 0.6584 0.0
C1263 C 0.02451 0.20345 0.57028 0.0
C1264 C 0.04701 0.15616 0.59156 0.0
H1265 H 0.0429 0.11142 0.61603 0.0
C1266 C 0.06553 0.1623 0.59948 0.0
C1267 C 0.03884 0.13748 0.59733 0.0
C1268 C 0.01881 0.13036 0.58958 0.0
C1269 C 0.07597 0.1504 0.61331 0.0
C1270 C 0.06752 0.13201 0.61953 0.0
C1271 C 0.04931 0.12556 0.61117 0.0
C1272 C 0.07656 0.11993 0.63575 0.0
C1273 C 0.09593 0.15758 0.62117 0.0
C1274 C 0.08275 0.10014 0.63214 0.0
C1275 C 0.08912 0.08803 0.64802 0.0
C1276 C 0.08904 0.09549 0.66771 0.0
C1277 C 0.0837 0.11554 0.67116 0.0
C1278 C 0.07746 0.12767 0.65529 0.0
H1279 H 0.10284 0.16884 0.61102 0.0
H1280 H 0.09369 0.16475 0.63602 0.0
H1281 H 0.10652 0.14486 0.6231 0.0
H1282 H 0.08209 0.09392 0.61714 0.0
H1283 H 0.09305 0.07255 0.64505 0.0
H1284 H 0.24718 0.84224 0.88908 0.0
H1285 H 0.22313 0.83291 0.86284 0.0
H1286 H 0.17481 0.83717 0.90565 0.0
H1287 H 0.19878 0.84673 0.93182 0.0
H1288 H 0.19872 0.79748 0.8674 0.0
H1289 H 0.15313 0.86604 0.85486 0.0
H1290 H 0.17791 0.86673 0.86582 0.0
H1291 H 0.1567 0.8594 0.88073 0.0
C1292 C 0.23134 0.84176 0.89268 0.0
C1293 C 0.22474 0.84501 0.91241 0.0
C1294 C 0.21768 0.83632 0.87777 0.0
C1295 C 0.19724 0.8344 0.88235 0.0
C1296 C 0.19051 0.83878 0.9018 0.0
H1297 H 0.08946 0.79208 0.82631 0.0
H1298 H 0.11556 0.80363 0.84924 0.0
C1299 C 0.20418 0.84408 0.91673 0.0
C1300 C 0.18324 0.82582 0.8675 0.0
H1301 H 0.1401 0.83549 0.84185 0.0
C1302 C 0.18599 0.8058 0.86161 0.0
C1303 C 0.16667 0.83675 0.86014 0.0
C1304 C 0.16344 0.85848 0.86554 0.0
C1305 C 0.17216 0.79615 0.84903 0.0
C1306 C 0.15539 0.80699 0.84189 0.0
C1307 C 0.1529 0.82716 0.84747 0.0
C1308 C 0.14005 0.79776 0.82877 0.0
C1309 C 0.17527 0.77427 0.84411 0.0
C1310 C 0.14523 0.79017 0.80984 0.0
C1311 C 0.13035 0.78331 0.79676 0.0
C1312 C 0.11002 0.78427 0.80231 0.0
C1313 C 0.10498 0.79119 0.82157 0.0
C1314 C 0.11986 0.79786 0.83467 0.0
H1315 H 0.18553 0.76689 0.85498 0.0
H1316 H 0.1608 0.76604 0.84401 0.0
H1317 H 0.18209 0.77299 0.82899 0.0
H1318 H 0.16068 0.7903 0.80483 0.0
H1319 H 0.13472 0.77829 0.78194 0.0
H1320 H 0.46974 0.84448 0.04981 0.0
H1321 H 0.45337 0.86765 0.07303 0.0
H1322 H 0.50377 0.90799 0.06809 0.0
H1323 H 0.51955 0.88543 0.04396 0.0
H1324 H 0.46432 0.87677 0.10782 0.0
H1325 H 0.46046 0.94806 0.06663 0.0
H1326 H 0.46635 0.92474 0.05422 0.0
H1327 H 0.48583 0.9393 0.06612 0.0
C1328 C 0.4771 0.85851 0.05341 0.0
C1329 C 0.49589 0.86322 0.04513 0.0
C1330 C 0.46773 0.87174 0.06665 0.0
C1331 C 0.47714 0.88977 0.07214 0.0
C1332 C 0.49582 0.89457 0.06361 0.0
H1333 H 0.4836 0.9435 0.185 0.0
H1334 H 0.48215 0.9214 0.15595 0.0
C1335 C 0.50496 0.88157 0.04997 0.0
C1336 C 0.46866 0.90234 0.08845 0.0
H1337 H 0.46274 0.95095 0.1032 0.0
C1338 C 0.46354 0.89297 0.10661 0.0
C1339 C 0.46699 0.92345 0.08687 0.0
C1340 C 0.46997 0.93438 0.06729 0.0
C1341 C 0.45832 0.90418 0.12358 0.0
C1342 C 0.45909 0.92535 0.12264 0.0
C1343 C 0.46261 0.93471 0.1041 0.0
C1344 C 0.4585 0.93794 0.14095 0.0
C1345 C 0.4524 0.89314 0.14243 0.0
C1346 C 0.44596 0.95484 0.14212 0.0
C1347 C 0.44729 0.96789 0.1585 0.0
C1348 C 0.46133 0.9643 0.17377 0.0
C1349 C 0.47312 0.9469 0.17307 0.0
C1350 C 0.47198 0.93405 0.15665 0.0
H1351 H 0.44458 0.8789 0.13872 0.0
H1352 H 0.46609 0.88919 0.15101 0.0
H1353 H 0.44243 0.90233 0.1521 0.0
H1354 H 0.43547 0.95817 0.13016 0.0
H1355 H 0.4379 0.98114 0.15887 0.0
H1356 H 0.30597 0.20585 0.38616 0.0
H1357 H 0.3264 0.21181 0.35602 0.0
H1358 H 0.37918 0.21735 0.39299 0.0
H1359 H 0.35885 0.2115 0.42301 0.0
H1360 H 0.3502 0.24932 0.35273 0.0
H1361 H 0.3959 0.18019 0.34474 0.0
H1362 H 0.37202 0.18062 0.3576 0.0
H1363 H 0.39416 0.18983 0.36987 0.0
C1364 C 0.32202 0.20784 0.3877 0.0
C1365 C 0.33094 0.20838 0.40676 0.0
C1366 C 0.3336 0.21131 0.37057 0.0
C1367 C 0.35425 0.2149 0.37236 0.0
C1368 C 0.36329 0.21439 0.39134 0.0
H1369 H 0.45795 0.25497 0.31229 0.0
H1370 H 0.43164 0.24219 0.33421 0.0
C1371 C 0.3517 0.21118 0.40843 0.0
C1372 C 0.36616 0.22135 0.35487 0.0
H1373 H 0.4079 0.20944 0.32791 0.0
C1374 C 0.36261 0.24052 0.34696 0.0
C1375 C 0.3823 0.20978 0.34757 0.0
C1376 C 0.38629 0.18888 0.35523 0.0
C1377 C 0.3756 0.24896 0.33273 0.0
C1378 C 0.39226 0.23768 0.32598 0.0
C1379 C 0.39518 0.2181 0.3332 0.0
C1380 C 0.40774 0.24634 0.31265 0.0
C1381 C 0.37203 0.27026 0.32594 0.0
C1382 C 0.40297 0.25315 0.29331 0.0
C1383 C 0.41799 0.26075 0.28078 0.0
C1384 C 0.43803 0.26131 0.28732 0.0
C1385 C 0.44267 0.25467 0.30677 0.0
C1386 C 0.42766 0.2473 0.3193 0.0
H1387 H 0.36131 0.27827 0.33588 0.0
H1388 H 0.3863 0.27883 0.32553 0.0
H1389 H 0.36564 0.27012 0.31058 0.0
H1390 H 0.38774 0.25221 0.28775 0.0
H1391 H 0.414 0.26559 0.2658 0.0
H1392 H 0.52753 0.38964 0.53214 0.0
H1393 H 0.5378 0.4158 0.50849 0.0
H1394 H 0.57372 0.3727 0.47626 0.0
H1395 H 0.56324 0.34645 0.49937 0.0
H1396 H 0.57613 0.42941 0.50044 0.0
H1397 H 0.54129 0.39813 0.43169 0.0
H1398 H 0.53502 0.38927 0.45647 0.0
H1399 H 0.5575 0.3807 0.44424 0.0
C1400 C 0.53743 0.38569 0.51988 0.0
C1401 C 0.54449 0.36594 0.51759 0.0
C1402 C 0.54333 0.40066 0.50644 0.0
C1403 C 0.55631 0.3961 0.4905 0.0
C1404 C 0.56335 0.37643 0.48819 0.0
H1405 H 0.61163 0.46527 0.39503 0.0
H1406 H 0.60498 0.44006 0.42106 0.0
C1407 C 0.55739 0.36146 0.5015 0.0
C1408 C 0.56301 0.412 0.47659 0.0
H1409 H 0.56428 0.425 0.42713 0.0
C1410 C 0.57346 0.42852 0.48442 0.0
C1411 C 0.55954 0.41073 0.4557 0.0
C1412 C 0.54756 0.39386 0.44653 0.0
C1413 C 0.58075 0.44372 0.47184 0.0
C1414 C 0.57738 0.44234 0.45098 0.0
C1415 C 0.567 0.42583 0.44315 0.0
C1416 C 0.58346 0.45838 0.43702 0.0
C1417 C 0.59218 0.46103 0.48085 0.0
C1418 C 0.57378 0.47703 0.43768 0.0
C1419 C 0.57746 0.4913 0.42286 0.0
C1420 C 0.59081 0.48708 0.40712 0.0
C1421 C 0.60127 0.46881 0.40704 0.0
C1422 C 0.59746 0.45445 0.42181 0.0
H1423 H 0.59741 0.45764 0.4963 0.0
H1424 H 0.60536 0.46493 0.47144 0.0
H1425 H 0.58225 0.47438 0.48154 0.0
H1426 H 0.56278 0.48023 0.44921 0.0
H1427 H 0.5695 0.50545 0.42341 0.0
H1428 H 0.9466 0.25396 0.75707 0.0
H1429 H 0.92554 0.26175 0.72793 0.0
H1430 H 0.95712 0.31773 0.72021 0.0
H1431 H 0.9788 0.3095 0.74815 0.0
H1432 H 0.90002 0.28945 0.72418 0.0
H1433 H 0.95486 0.30205 0.6638 0.0
H1434 H 0.96204 0.29105 0.68741 0.0
H1435 H 0.96095 0.31796 0.68451 0.0
C1436 C 0.94933 0.26766 0.74878 0.0
C1437 C 0.96442 0.28103 0.75482 0.0
C1438 C 0.93728 0.27214 0.73218 0.0
C1439 C 0.93993 0.2902 0.72157 0.0
C1440 C 0.95519 0.30338 0.72754 0.0
H1441 H 0.84074 0.34889 0.66062 0.0
H1442 H 0.86719 0.3393 0.68428 0.0
C1443 C 0.96751 0.29869 0.74372 0.0
C1444 C 0.9256 0.29632 0.70566 0.0
H1445 H 0.92271 0.31852 0.65964 0.0
C1446 C 0.905 0.29548 0.70993 0.0
C1447 C 0.93199 0.30401 0.68691 0.0
C1448 C 0.95367 0.30359 0.68035 0.0
C1449 C 0.89066 0.30249 0.69624 0.0
C1450 C 0.89714 0.31161 0.67818 0.0
C1451 C 0.91772 0.312 0.67368 0.0
C1452 C 0.88276 0.31991 0.66332 0.0
C1453 C 0.86876 0.29956 0.70121 0.0
C1454 C 0.88379 0.31381 0.6432 0.0
C1455 C 0.86923 0.31999 0.62953 0.0
C1456 C 0.85301 0.3318 0.63588 0.0
C1457 C 0.85284 0.3393 0.65553 0.0
C1458 C 0.86775 0.33356 0.66911 0.0
H1459 H 0.86658 0.28693 0.71186 0.0
H1460 H 0.86287 0.31332 0.70848 0.0
H1461 H 0.85978 0.29648 0.68754 0.0
H1462 H 0.8955 0.30372 0.63817 0.0
H1463 H 0.87035 0.31505 0.6141 0.0
H1464 H 0.03877 0.6827 0.02096 0.0
H1465 H 0.02864 0.65972 0.99413 0.0
H1466 H 0.97206 0.69076 0.98891 0.0
H1467 H 0.98248 0.71425 0.01493 0.0
H1468 H -0.0008 0.63381 0.99029 0.0
H1469 H 0.98987 0.69228 0.93206 0.0
H1470 H 0.00108 0.69752 0.95608 0.0
H1471 H 0.9742 0.69671 0.95343 0.0
C1472 C 0.0242 0.6846 0.01404 0.0
C1473 C 0.01152 0.70039 0.01984 0.0
C1474 C 0.01842 0.67149 -0.00127 0.0
C1475 C -0.00022 0.67381 0.98916 0.0
C1476 C 0.98678 0.68908 0.99555 0.0
H1477 H 0.95123 0.57876 0.9121 0.0
H1478 H 0.95605 0.60253 0.93967 0.0
C1479 C 0.99271 0.70242 0.01053 0.0
C1480 C 0.99393 0.66025 0.97252 0.0
H1481 H 0.97794 0.65973 0.92391 0.0
C1482 C 0.99462 0.63946 0.97574 0.0
C1483 C 0.98816 0.66765 0.95347 0.0
C1484 C 0.98847 0.68974 0.94847 0.0
C1485 C 0.98983 0.62584 0.96043 0.0
C1486 C 0.98344 0.63326 0.94158 0.0
C1487 C 0.9826 0.65406 0.93843 0.0
C1488 C 0.97897 0.61978 0.92445 0.0
C1489 C 0.99241 0.6037 0.96443 0.0
C1490 C 0.98922 0.62236 0.90625 0.0
C1491 C 0.98604 0.6092 0.89033 0.0
C1492 C 0.9729 0.59288 0.8924 0.0
C1493 C 0.96178 0.59096 0.9102 0.0
C1494 C 0.96471 0.60437 0.92606 0.0
H1495 H 0.00254 0.60091 0.97737 0.0
H1496 H 0.97761 0.59704 0.96807 0.0
H1497 H -0.00141 0.59585 0.95112 0.0
H1498 H -2e-05 0.6344 0.90446 0.0
H1499 H 0.99396 0.61187 0.87646 0.0
H1500 H 0.74147 0.70944 0.16012 0.0
H1501 H 0.71827 0.7183 0.18738 0.0
H1502 H 0.67482 0.73842 0.14394 0.0
H1503 H 0.69771 0.72913 0.11667 0.0
H1504 H 0.69287 0.76686 0.18023 0.0
H1505 H 0.65613 0.69398 0.19841 0.0
H1506 H 0.6825 0.69478 0.19227 0.0
H1507 H 0.66425 0.69971 0.1732 0.0
C1508 C 0.72679 0.71535 0.15644 0.0
C1509 C 0.72145 0.71904 0.1364 0.0
C1510 C 0.71366 0.72047 0.17196 0.0
C1511 C 0.69503 0.72917 0.16755 0.0
C1512 C 0.68926 0.73188 0.14753 0.0
H1513 H 0.59254 0.76001 0.23909 0.0
H1514 H 0.61598 0.75059 0.21259 0.0
C1515 C 0.70235 0.72672 0.13204 0.0
C1516 C 0.68205 0.73667 0.18376 0.0
H1517 H 0.64583 0.72233 0.21679 0.0
C1518 C 0.68261 0.75719 0.18834 0.0
C1519 C 0.66875 0.72392 0.19408 0.0
C1520 C 0.66769 0.70183 0.18935 0.0
C1521 C 0.66991 0.7654 0.20298 0.0
C1522 C 0.65651 0.75265 0.21335 0.0
C1523 C 0.65612 0.73206 0.2088 0.0
C1524 C 0.64241 0.76031 0.22868 0.0
C1525 C 0.67059 0.78769 0.20683 0.0
C1526 C 0.6495 0.76932 0.24634 0.0
C1527 C 0.6361 0.77495 0.26146 0.0
C1528 C 0.61544 0.77135 0.25926 0.0
C1529 C 0.60837 0.76294 0.24126 0.0
C1530 C 0.62174 0.75747 0.22614 0.0
H1531 H 0.67786 0.79591 0.1943 0.0
H1532 H 0.65528 0.79384 0.20908 0.0
H1533 H 0.67941 0.79057 0.22065 0.0
H1534 H 0.66544 0.77133 0.24874 0.0
H1535 H 0.64203 0.78118 0.27523 0.0
H1536 H 0.69375 0.07601 0.12094 0.0
H1537 H 0.6662 0.06572 0.14294 0.0
H1538 H 0.62333 0.08583 0.09891 0.0
H1539 H 0.65091 0.09557 0.0765 0.0
H1540 H 0.6168 0.09623 0.14379 0.0
H1541 H 0.62869 0.01571 0.12524 0.0
H1542 H 0.65072 0.03013 0.13126 0.0
H1543 H 0.63678 0.03582 0.10897 0.0
C1544 C 0.67846 0.07809 0.1159 0.0
C1545 C 0.67439 0.08598 0.09683 0.0
C1546 C 0.66278 0.07238 0.12852 0.0
C1547 C 0.64284 0.0747 0.12231 0.0
C1548 C 0.63869 0.08381 0.10383 0.0
H1549 H 0.53817 0.01893 0.17822 0.0
H1550 H 0.56325 0.03006 0.15379 0.0
C1551 C 0.6544 0.08944 0.09113 0.0
C1552 C 0.62644 0.06677 0.13483 0.0
H1553 H 0.60605 0.02295 0.15167 0.0
C1554 C 0.61432 0.08024 0.14545 0.0
C1555 C 0.62315 0.04591 0.13664 0.0
C1556 C 0.63538 0.03096 0.12484 0.0
C1557 C 0.59935 0.0733 0.15851 0.0
C1558 C 0.59668 0.05239 0.16105 0.0
C1559 C 0.6083 0.03896 0.14981 0.0
C1560 C 0.58233 0.04427 0.17584 0.0
C1561 C 0.58654 0.08837 0.16952 0.0
C1562 C 0.58525 0.0479 0.19632 0.0
C1563 C 0.57108 0.04148 0.21029 0.0
C1564 C 0.55371 0.03126 0.20403 0.0
C1565 C 0.55136 0.02672 0.18356 0.0
C1566 C 0.56561 0.03316 0.16956 0.0
H1567 H 0.58697 0.10334 0.16222 0.0
H1568 H 0.57072 0.08325 0.17035 0.0
H1569 H 0.59224 0.09006 0.18506 0.0
H1570 H 0.59831 0.05607 0.20146 0.0
H1571 H 0.57348 0.04509 0.22595 0.0
H1572 H 0.23281 0.39201 0.31067 0.0
H1573 H 0.23977 0.36351 0.33269 0.0
H1574 H 0.20621 0.3921 0.38012 0.0
H1575 H 0.19871 0.42037 0.35777 0.0
H1576 H 0.26174 0.36781 0.36565 0.0
H1577 H 0.18848 0.33464 0.38646 0.0
H1578 H 0.19133 0.35159 0.36554 0.0
H1579 H 0.18944 0.36119 0.39069 0.0
C1580 C 0.22648 0.39187 0.32564 0.0
C1581 C 0.21532 0.40825 0.33268 0.0
C1582 C 0.23046 0.37565 0.33818 0.0
C1583 C 0.22346 0.37562 0.35803 0.0
C1584 C 0.2114 0.39157 0.36475 0.0
H1585 H 0.258 0.31441 0.46609 0.0
H1586 H 0.24477 0.33707 0.44051 0.0
C1587 C 0.20718 0.40773 0.35205 0.0
C1588 C 0.23099 0.36032 0.37224 0.0
H1589 H 0.2166 0.32566 0.40706 0.0
C1590 C 0.25185 0.35842 0.37451 0.0
C1591 C 0.21807 0.34816 0.38386 0.0
C1592 C 0.19559 0.34883 0.3814 0.0
C1593 C 0.26015 0.34501 0.38837 0.0
C1594 C 0.24725 0.33317 0.40023 0.0
C1595 C 0.2264 0.33487 0.39791 0.0
C1596 C 0.25522 0.31929 0.4155 0.0
C1597 C 0.28265 0.34394 0.39065 0.0
C1598 C 0.26552 0.30188 0.40977 0.0
C1599 C 0.27313 0.28886 0.42433 0.0
C1600 C 0.27056 0.29311 0.44483 0.0
C1601 C 0.26034 0.31072 0.45044 0.0
C1602 C 0.25266 0.32364 0.43588 0.0
H1603 H 0.29036 0.35639 0.3827 0.0
H1604 H 0.2869 0.34441 0.40674 0.0
H1605 H 0.28814 0.32954 0.38436 0.0
H1606 H 0.26754 0.29829 0.39406 0.0
H1607 H 0.28087 0.27541 0.4195 0.0
H1608 H 0.91851 0.9969 0.55994 0.0
H1609 H 0.94415 0.00579 0.58461 0.0
H1610 H 0.91653 0.96604 0.62758 0.0
H1611 H 0.89108 0.95678 0.60264 0.0
H1612 H 0.9362 0.02457 0.61927 0.0
H1613 H 0.97512 0.9528 0.63505 0.0
H1614 H 0.95894 0.95613 0.61361 0.0
H1615 H 0.94842 0.95116 0.63795 0.0
C1616 C 0.91815 0.98984 0.57457 0.0
C1617 C 0.90282 0.97634 0.57958 0.0
C1618 C 0.93278 0.9949 0.58861 0.0
C1619 C 0.9323 0.98654 0.60791 0.0
C1620 C 0.91743 0.97238 0.61266 0.0
H1621 H 0.99075 0.01315 0.71997 0.0
H1622 H 0.96788 0.00276 0.69335 0.0
C1623 C 0.90288 0.96714 0.59848 0.0
C1624 C 0.94619 0.9941 0.62348 0.0
H1625 H 0.98115 0.97968 0.65796 0.0
C1626 C 0.94616 0.01477 0.6276 0.0
C1627 C 0.95914 0.98129 0.63434 0.0
C1628 C 0.96059 0.95914 0.6299 0.0
C1629 C 0.95846 0.02293 0.64256 0.0
C1630 C 0.97113 0.01007 0.6536 0.0
C1631 C 0.97129 0.98944 0.64946 0.0
C1632 C 0.98424 0.01771 0.66971 0.0
C1633 C 0.95754 0.04514 0.64678 0.0
C1634 C 0.00081 0.02984 0.66517 0.0
C1635 C 0.01397 0.03583 0.68034 0.0
C1636 C 0.01075 0.02972 0.70028 0.0
C1637 C 0.9937 0.01814 0.7048 0.0
C1638 C 0.98064 0.0121 0.68962 0.0
H1639 H 0.94443 0.05237 0.63947 0.0
H1640 H 0.95678 0.04796 0.66317 0.0
H1641 H 0.97137 0.05239 0.64101 0.0
H1642 H 0.00388 0.03417 0.64981 0.0
H1643 H 0.02697 0.04471 0.67634 0.0
H1644 H 0.26199 0.7746 0.92353 0.0
H1645 H 0.26899 0.74918 0.89803 0.0
H1646 H 0.29275 0.70987 0.94358 0.0
H1647 H 0.28535 0.73479 0.96914 0.0
H1648 H 0.30674 0.73689 0.88956 0.0
H1649 H 0.26071 0.67105 0.9105 0.0
H1650 H 0.25609 0.69575 0.92058 0.0
H1651 H 0.27547 0.68011 0.93106 0.0
C1652 C 0.26813 0.7603 0.92821 0.0
C1653 C 0.27325 0.75681 0.94837 0.0
C1654 C 0.27221 0.74584 0.9136 0.0
C1655 C 0.28134 0.72762 0.91891 0.0
C1656 C 0.28535 0.72364 0.93916 0.0
H1657 H 0.34292 0.63255 0.85454 0.0
H1658 H 0.33255 0.65756 0.87964 0.0
C1659 C 0.28118 0.73801 0.95377 0.0
C1660 C 0.28874 0.71377 0.90322 0.0
H1661 H 0.28809 0.6649 0.88802 0.0
C1662 C 0.30248 0.7212 0.88908 0.0
C1663 C 0.28331 0.69327 0.90275 0.0
C1664 C 0.26794 0.68462 0.91692 0.0
C1665 C 0.31118 0.70859 0.87468 0.0
C1666 C 0.30595 0.68809 0.87444 0.0
C1667 C 0.29219 0.68064 0.88847 0.0
C1668 C 0.31383 0.67429 0.85908 0.0
C1669 C 0.32611 0.71712 0.85998 0.0
C1670 C 0.30694 0.67575 0.8393 0.0
C1671 C 0.31272 0.66153 0.82511 0.0
C1672 C 0.32546 0.64566 0.83052 0.0
C1673 C 0.33311 0.64472 0.85009 0.0
C1674 C 0.32714 0.65887 0.86438 0.0
H1675 H 0.33121 0.73236 0.86438 0.0
H1676 H 0.33938 0.70713 0.85871 0.0
H1677 H 0.31905 0.71811 0.84494 0.0
H1678 H 0.29659 0.68753 0.83501 0.0
H1679 H 0.30687 0.66269 0.80999 0.0
H1680 H 0.15034 0.49508 0.99543 0.0
H1681 H 0.12241 0.49991 0.97222 0.0
H1682 H 0.14482 0.45172 0.93523 0.0
H1683 H 0.17267 0.4466 0.9588 0.0
H1684 H 0.12681 0.51112 0.93373 0.0
H1685 H 0.08547 0.439 0.93724 0.0
H1686 H 0.10398 0.44606 0.95569 0.0
H1687 H 0.11168 0.43621 0.93179 0.0
C1688 C 0.1492 0.48545 0.9824 0.0
C1689 C 0.16374 0.47071 0.97861 0.0
C1690 C 0.13321 0.48813 0.96924 0.0
C1691 C 0.13148 0.47612 0.95205 0.0
C1692 C 0.14564 0.46089 0.9486 0.0
H1693 H 0.06092 0.4888 0.84398 0.0
H1694 H 0.08489 0.47858 0.86979 0.0
C1695 C 0.16158 0.45806 0.96195 0.0
C1696 C 0.11591 0.48087 0.93698 0.0
H1697 H 0.07622 0.46154 0.91103 0.0
C1698 C 0.11566 0.50031 0.92889 0.0
C1699 C 0.10145 0.46671 0.93063 0.0
C1700 C 0.10048 0.44588 0.93941 0.0
C1701 C 0.10146 0.50594 0.9145 0.0
C1702 C 0.08708 0.49179 0.90812 0.0
C1703 C 0.08732 0.47231 0.91606 0.0
C1704 C 0.07182 0.49705 0.89302 0.0
C1705 C 0.10207 0.5269 0.90597 0.0
C1706 C 0.05647 0.51062 0.89773 0.0
C1707 C 0.04273 0.5165 0.88307 0.0
C1708 C 0.04418 0.5089 0.86344 0.0
C1709 C 0.05942 0.495 0.85892 0.0
C1710 C 0.07308 0.48907 0.87363 0.0
H1711 H 0.11621 0.53482 0.90983 0.0
H1712 H 0.1005 0.52651 0.88939 0.0
H1713 H 0.08934 0.53571 0.91209 0.0
H1714 H 0.05527 0.51682 0.9127 0.0
H1715 H 0.03115 0.52719 0.88706 0.0
H1716 H 0.81152 0.81661 0.08928 0.0
H1717 H 0.81963 0.84104 0.11523 0.0
H1718 H 0.78537 0.80713 0.15831 0.0
H1719 H 0.77701 0.78248 0.13235 0.0
H1720 H 0.77874 0.84929 0.15937 0.0
H1721 H 0.8597 0.83032 0.16136 0.0
H1722 H 0.85046 0.83563 0.13663 0.0
H1723 H 0.84116 0.81416 0.15002 0.0
C1724 C 0.80558 0.81434 0.10423 0.0
C1725 C 0.79375 0.79748 0.10878 0.0
C1726 C 0.81037 0.82826 0.11906 0.0
C1727 C 0.80349 0.82559 0.13873 0.0
C1728 C 0.791 0.80928 0.14322 0.0
H1729 H 0.84639 0.89722 0.24023 0.0
H1730 H 0.83831 0.86893 0.21805 0.0
C1731 C 0.78619 0.79527 0.12836 0.0
C1732 C 0.80929 0.84005 0.15448 0.0
H1733 H 0.85003 0.86094 0.17738 0.0
C1734 C 0.79429 0.85172 0.16347 0.0
C1735 C 0.82957 0.8429 0.16002 0.0
C1736 C 0.84615 0.82996 0.15167 0.0
C1737 C 0.79915 0.86687 0.17722 0.0
C1738 C 0.81953 0.87053 0.18182 0.0
C1739 C 0.83445 0.85824 0.17356 0.0
C1740 C 0.82559 0.88751 0.19467 0.0
C1741 C 0.78246 0.87893 0.18663 0.0
C1742 C 0.82182 0.90724 0.18846 0.0
C1743 C 0.82651 0.92332 0.20098 0.0
C1744 C 0.83496 0.91989 0.21993 0.0
C1745 C 0.83974 0.9002 0.22571 0.0
C1746 C 0.83507 0.88408 0.21314 0.0
H1747 H 0.76784 0.87102 0.18564 0.0
H1748 H 0.78575 0.88217 0.20263 0.0
H1749 H 0.78101 0.89345 0.17862 0.0
H1750 H 0.81506 0.91017 0.17397 0.0
H1751 H 0.82348 0.9384 0.19583 0.0
H1752 H 0.52985 0.55253 0.39361 0.0
H1753 H 0.50421 0.56634 0.41593 0.0
H1754 H 0.48326 0.60486 0.36839 0.0
H1755 H 0.50845 0.59084 0.34582 0.0
H1756 H 0.49539 0.60527 0.42878 0.0
H1757 H 0.43319 0.57334 0.38326 0.0
H1758 H 0.45901 0.5662 0.37954 0.0
H1759 H 0.44988 0.58964 0.36984 0.0
C1760 C 0.51987 0.56402 0.38793 0.0
C1761 C 0.52102 0.57039 0.36787 0.0
C1762 C 0.50527 0.57193 0.40071 0.0
C1763 C 0.49164 0.58634 0.39367 0.0
C1764 C 0.49336 0.59342 0.37396 0.0
H1765 H 0.38217 0.62726 0.4546 0.0
H1766 H 0.41114 0.6276 0.43168 0.0
C1767 C 0.50782 0.58542 0.36112 0.0
C1768 C 0.47509 0.59324 0.40672 0.0
H1769 H 0.42418 0.59203 0.41176 0.0
C1770 C 0.47981 0.60254 0.42501 0.0
C1771 C 0.45478 0.58969 0.40169 0.0
C1772 C 0.44883 0.57903 0.38261 0.0
C1773 C 0.46472 0.60799 0.43862 0.0
C1774 C 0.4445 0.60386 0.43385 0.0
C1775 C 0.43973 0.5953 0.41525 0.0
C1776 C 0.42827 0.60595 0.44877 0.0
C1777 C 0.47054 0.61782 0.45814 0.0
C1778 C 0.42848 0.5938 0.46591 0.0
C1779 C 0.41203 0.59347 0.47877 0.0
C1780 C 0.39504 0.60519 0.47463 0.0
C1781 C 0.39513 0.61805 0.45798 0.0
C1782 C 0.41159 0.61826 0.44496 0.0
H1783 H 0.48534 0.62538 0.45698 0.0
H1784 H 0.45913 0.629 0.46288 0.0
H1785 H 0.47167 0.60619 0.46999 0.0
H1786 H 0.44106 0.58397 0.46894 0.0
H1787 H 0.41243 0.58373 0.49176 0.0
H1788 H 0.78323 0.27614 0.63924 0.0
H1789 H 0.77269 0.25191 0.66483 0.0
H1790 H 0.74056 0.21828 0.61992 0.0
H1791 H 0.75085 0.24226 0.59435 0.0
H1792 H 0.71806 0.2278 0.65575 0.0
H1793 H 0.79238 0.19282 0.67117 0.0
H1794 H 0.79099 0.21975 0.67227 0.0
H1795 H 0.78754 0.20719 0.64873 0.0
C1796 C 0.77412 0.26346 0.63478 0.0
C1797 C 0.76787 0.26115 0.61476 0.0
C1798 C 0.76811 0.24967 0.64941 0.0
C1799 C 0.75587 0.23337 0.64419 0.0
C1800 C 0.74993 0.23084 0.62421 0.0
H1801 H 0.72689 0.12156 0.69846 0.0
H1802 H 0.73581 0.14977 0.67672 0.0
C1803 C 0.75591 0.24454 0.60962 0.0
C1804 C 0.74889 0.21892 0.65944 0.0
H1805 H 0.76468 0.18044 0.6892 0.0
C1806 C 0.72822 0.21754 0.66324 0.0
C1807 C 0.76226 0.20557 0.66902 0.0
C1808 C 0.78453 0.20621 0.66508 0.0
C1809 C 0.7205 0.20282 0.67613 0.0
C1810 C 0.73385 0.18927 0.68544 0.0
C1811 C 0.75454 0.19092 0.68198 0.0
C1812 C 0.72667 0.17252 0.69799 0.0
C1813 C 0.69814 0.20137 0.6792 0.0
C1814 C 0.71818 0.17607 0.71691 0.0
C1815 C 0.71324 0.15996 0.72939 0.0
C1816 C 0.71694 0.14019 0.72313 0.0
C1817 C 0.72449 0.1367 0.70381 0.0
C1818 C 0.72944 0.15275 0.69138 0.0
H1819 H 0.6897 0.21103 0.66857 0.0
H1820 H 0.69305 0.18562 0.67736 0.0
H1821 H 0.69439 0.20614 0.6947 0.0
H1822 H 0.71606 0.19125 0.72228 0.0
H1823 H 0.70745 0.16296 0.74427 0.0
H1824 H 0.17933 0.53747 0.03245 0.0
H1825 H 0.15613 0.5635 0.04385 0.0
H1826 H 0.20435 0.59285 0.07542 0.0
H1827 H 0.22773 0.56729 0.06372 0.0
H1828 H 0.14638 0.57295 0.08282 0.0
H1829 H 0.17969 0.63892 0.04446 0.0
H1830 H 0.1863 0.61348 0.03798 0.0
H1831 H 0.1971 0.62521 0.05973 0.0
C1832 C 0.18508 0.54962 0.04156 0.0
C1833 C 0.20542 0.55034 0.04706 0.0
C1834 C 0.17178 0.56443 0.04813 0.0
C1835 C 0.17858 0.5802 0.06029 0.0
C1836 C 0.19887 0.58104 0.0657 0.0
H1837 H 0.11409 0.68125 0.11406 0.0
H1838 H 0.13912 0.65471 0.10825 0.0
C1839 C 0.2122 0.56634 0.05905 0.0
C1840 C 0.16427 0.59535 0.06792 0.0
H1841 H 0.15378 0.64545 0.06788 0.0
C1842 C 0.14798 0.5888 0.07955 0.0
C1843 C 0.1665 0.61603 0.06373 0.0
C1844 C 0.18323 0.62386 0.05065 0.0
C1845 C 0.13377 0.6024 0.08701 0.0
C1846 C 0.13589 0.623 0.0826 0.0
C1847 C 0.15236 0.62962 0.07135 0.0
C1848 C 0.12028 0.63775 0.08799 0.0
C1849 C 0.11657 0.59466 0.09951 0.0
C1850 C 0.10147 0.63676 0.07868 0.0
C1851 C 0.08736 0.65185 0.08185 0.0
C1852 C 0.09187 0.66819 0.09433 0.0
C1853 C 0.11036 0.66876 0.10436 0.0
C1854 C 0.1246 0.65371 0.10103 0.0
H1855 H 0.11981 0.57957 0.10578 0.0
H1856 H 0.11317 0.6051 0.11204 0.0
H1857 H 0.10299 0.59349 0.08997 0.0
H1858 H 0.09796 0.62467 0.06841 0.0
H1859 H 0.07305 0.65095 0.07422 0.0
H1860 H 0.68215 0.0225 0.04396 0.0
H1861 H 0.65609 -0.00164 0.03478 0.0
H1862 H 0.69858 0.96623 0.99808 0.0
H1863 H 0.72477 0.98992 0.00742 0.0
H1864 H 0.6424 0.99146 0.99627 0.0
H1865 H 0.6723 0.92127 0.02945 0.0
H1866 H 0.68161 0.94572 0.03635 0.0
H1867 H 0.68993 0.93393 0.01355 0.0
C1868 C 0.68606 0.01007 0.03425 0.0
C1869 C 0.70556 0.00816 0.02642 0.0
C1870 C 0.67112 0.99635 0.02896 0.0
C1871 C 0.67545 0.98044 0.01588 0.0
C1872 C 0.69501 0.97817 0.0085 0.0
H1873 H 0.60428 0.88762 0.95834 0.0
H1874 H 0.63025 0.91261 0.96596 0.0
C1875 C 0.70996 0.99181 0.01381 0.0
C1876 C 0.65928 0.96696 0.00891 0.0
H1877 H 0.64525 0.91782 0.00644 0.0
C1878 C 0.64294 0.97537 -0.0014 0.0
C1879 C 0.66012 0.94597 0.01186 0.0
C1880 C 0.67683 0.93618 0.02357 0.0
C1881 C 0.62751 0.9633 0.99095 0.0
C1882 C 0.62841 0.94234 0.99386 0.0
C1883 C 0.64475 0.93391 0.0041 0.0
C1884 C 0.61207 0.92889 0.98736 0.0
C1885 C 0.61049 0.97297 0.97961 0.0
C1886 C 0.59324 0.93007 0.99663 0.0
C1887 C 0.57851 0.91586 0.99236 0.0
C1888 C 0.58244 0.9002 0.97884 0.0
C1889 C 0.60094 0.89959 0.96881 0.0
C1890 C 0.61575 0.91375 0.9732 0.0
H1891 H 0.61439 0.98835 0.97452 0.0
H1892 H 0.60625 0.96382 0.96636 0.0
H1893 H 0.5972 0.97406 0.98957 0.0
H1894 H 0.5902 0.94153 0.00774 0.0
H1895 H 0.56422 0.91681 1e-05 0.0
H1896 H 0.38799 0.31094 0.20038 0.0
H1897 H 0.35946 0.33343 0.20687 0.0
H1898 H 0.40049 0.38161 0.22016 0.0
H1899 H 0.42896 0.35918 0.21386 0.0
H1900 H 0.35779 0.35507 0.24793 0.0
H1901 H 0.35449 0.40452 0.18085 0.0
H1902 H 0.36425 0.37922 0.1799 0.0
H1903 H 0.37899 0.39893 0.19076 0.0
C1904 C 0.39082 0.32647 0.20421 0.0
C1905 C 0.41052 0.33342 0.20679 0.0
C1906 C 0.3746 0.33922 0.20797 0.0
C1907 C 0.37797 0.35911 0.21391 0.0
C1908 C 0.39766 0.36632 0.21544 0.0
H1909 H 0.31763 0.46343 0.25567 0.0
H1910 H 0.34008 0.43781 0.24228 0.0
C1911 C 0.41385 0.35353 0.21195 0.0
C1912 C 0.3612 0.37185 0.22061 0.0
H1913 H 0.33591 0.41481 0.20939 0.0
C1914 C 0.35272 0.36799 0.23945 0.0
C1915 C 0.3549 0.38869 0.20948 0.0
C1916 C 0.36348 0.39313 0.18904 0.0
C1917 C 0.33866 0.38114 0.24794 0.0
C1918 C 0.33258 0.39827 0.23697 0.0
C1919 C 0.34061 0.4017 0.21779 0.0
C1920 C 0.31883 0.41348 0.24554 0.0
C1921 C 0.33127 0.37708 0.26895 0.0
C1922 C 0.29944 0.4083 0.25188 0.0
C1923 C 0.28666 0.42288 0.25987 0.0
C1924 C 0.29294 0.44297 0.26123 0.0
C1925 C 0.31234 0.4481 0.25478 0.0
C1926 C 0.32516 0.43349 0.24707 0.0
H1927 H 0.34119 0.36643 0.27706 0.0
H1928 H 0.33027 0.39117 0.27778 0.0
H1929 H 0.31609 0.37032 0.2682 0.0
H1930 H 0.29409 0.39304 0.25042 0.0
H1931 H 0.27172 0.41852 0.26451 0.0
H1932 H 0.94973 0.18281 0.45534 0.0
H1933 H 0.92879 0.15281 0.45895 0.0
H1934 H 0.98156 0.1155 0.45623 0.0
H1935 H 0.00261 0.14551 0.45278 0.0
H1936 H 0.92887 0.11148 0.43426 0.0
H1937 H 0.95197 0.11047 0.51469 0.0
H1938 H 0.95282 0.13321 0.50001 0.0
H1939 H 0.97077 0.11371 0.49554 0.0
C1940 C 0.95679 0.16819 0.45524 0.0
C1941 C 0.97773 0.16638 0.45417 0.0
C1942 C 0.94485 0.15112 0.45714 0.0
C1943 C 0.95374 0.13208 0.45802 0.0
C1944 C 0.97452 0.13014 0.45558 0.0
H1945 H 0.8945 0.0267 0.50876 0.0
H1946 H 0.92017 0.04907 0.49508 0.0
C1947 C 0.98647 0.14722 0.45355 0.0
C1948 C 0.94144 0.11468 0.46379 0.0
H1949 H 0.92723 0.0876 0.50474 0.0
C1950 C 0.92861 0.10604 0.44958 0.0
C1951 C 0.94135 0.10766 0.48377 0.0
C1952 C 0.95488 0.11669 0.49951 0.0
C1953 C 0.91527 0.0907 0.45501 0.0
C1954 C 0.91445 0.08436 0.47525 0.0
C1955 C 0.92785 0.09254 0.48925 0.0
C1956 C 0.89897 0.07025 0.48258 0.0
C1957 C 0.90218 0.08149 0.43902 0.0
C1958 C 0.87858 0.07493 0.48036 0.0
C1959 C 0.86391 0.0622 0.48809 0.0
C1960 C 0.86935 0.04464 0.49843 0.0
C1961 C 0.88981 0.0401 0.50086 0.0
C1962 C 0.90449 0.05282 0.49301 0.0
H1963 H 0.90914 0.08291 0.42394 0.0
H1964 H 0.89931 0.06537 0.44208 0.0
H1965 H 0.88758 0.08947 0.43864 0.0
H1966 H 0.87399 0.08863 0.47293 0.0
H1967 H 0.84829 0.06624 0.4861 0.0
H1968 H 0.25986 0.59709 0.71278 0.0
H1969 H 0.23546 0.6209 0.69926 0.0
H1970 H 0.23878 0.6553 0.75401 0.0
H1971 H 0.26387 0.63213 0.76712 0.0
H1972 H 0.19993 0.62846 0.71116 0.0
H1973 H 0.24134 0.69978 0.71491 0.0
H1974 H 0.25362 0.67591 0.71831 0.0
H1975 H 0.24141 0.6882 0.73912 0.0
C1976 C 0.25559 0.60993 0.72179 0.0
C1977 C 0.26383 0.61284 0.74097 0.0
C1978 C 0.24167 0.62352 0.71404 0.0
C1979 C 0.23553 0.64015 0.72543 0.0
C1980 C 0.24377 0.64304 0.74461 0.0
H1981 H 0.12194 0.69548 0.73098 0.0
H1982 H 0.15059 0.67277 0.72989 0.0
C1983 C 0.258 0.62967 0.75219 0.0
C1984 C 0.21927 0.65346 0.71807 0.0
H1985 H 0.20496 0.7025 0.71567 0.0
C1986 C 0.20119 0.64467 0.71177 0.0
C1987 C 0.22096 0.67462 0.71827 0.0
C1988 C 0.24049 0.68512 0.72279 0.0
C1989 C 0.18442 0.6564 0.70696 0.0
C1990 C 0.1855 0.67747 0.70928 0.0
C1991 C 0.20395 0.68633 0.71426 0.0
C1992 C 0.16743 0.69042 0.7084 0.0
C1993 C 0.16572 0.64602 0.6996 0.0
C1994 C 0.16738 0.70811 0.69693 0.0
C1995 C 0.15125 0.72148 0.69815 0.0
C1996 C 0.13506 0.71743 0.71097 0.0
C1997 C 0.13461 0.69926 0.72155 0.0
C1998 C 0.1508 0.68606 0.72057 0.0
H1999 H 0.16955 0.6322 0.69109 0.0
H2000 H 0.1565 0.64141 0.71266 0.0
H2001 H 0.15659 0.65593 0.68981 0.0
H2002 H 0.18003 0.7118 0.68743 0.0
H2003 H 0.15179 0.73533 0.68967 0.0
H2004 H 0.44733 0.37634 0.58437 0.0
H2005 H 0.42547 0.40394 0.57389 0.0
H2006 H 0.47003 0.44668 0.59302 0.0
H2007 H 0.49228 0.41903 0.60304 0.0
H2008 H 0.42302 0.45227 0.60307 0.0
H2009 H 0.44616 0.44185 0.52349 0.0
H2010 H 0.44085 0.41966 0.53797 0.0
H2011 H 0.46206 0.4349 0.54431 0.0
C2012 C 0.45245 0.39161 0.58632 0.0
C2013 C 0.47163 0.39562 0.59399 0.0
C2014 C 0.43994 0.40731 0.58048 0.0
C2015 C 0.44638 0.42721 0.58242 0.0
C2016 C 0.46496 0.43135 0.59133 0.0
H2017 H 0.38958 0.53134 0.52623 0.0
H2018 H 0.41453 0.5067 0.53735 0.0
C2019 C 0.47754 0.4156 0.59713 0.0
C2020 C 0.43405 0.44351 0.57406 0.0
H2021 H 0.41904 0.46396 0.52962 0.0
C2022 C 0.42223 0.455 0.58706 0.0
C2023 C 0.43335 0.44706 0.55319 0.0
C2024 C 0.44634 0.43535 0.53883 0.0
C2025 C 0.40906 0.46959 0.57957 0.0
C2026 C 0.40762 0.47248 0.55859 0.0
C2027 C 0.42008 0.46153 0.54567 0.0
C2028 C 0.39267 0.48627 0.54985 0.0
C2029 C 0.39669 0.48172 0.59414 0.0
C2030 C 0.37218 0.48236 0.55238 0.0
C2031 C 0.35795 0.49627 0.54599 0.0
C2032 C 0.36396 0.51433 0.5369 0.0
C2033 C 0.38447 0.51757 0.53315 0.0
C2034 C 0.39874 0.50359 0.53959 0.0
H2035 H 0.40318 0.4814 0.60949 0.0
H2036 H 0.39545 0.49757 0.58917 0.0
H2037 H 0.38134 0.47534 0.59492 0.0
H2038 H 0.36723 0.46882 0.55987 0.0
H2039 H 0.34226 0.49321 0.54891 0.0
H2040 H 0.81207 0.0866 0.81333 0.0
H2041 H 0.83672 0.11178 0.82315 0.0
H2042 H 0.80584 0.15621 0.78776 0.0
H2043 H 0.78093 0.13109 0.77776 0.0
H2044 H 0.84956 0.15345 0.78277 0.0
H2045 H 0.82567 0.15966 0.86241 0.0
H2046 H 0.82959 0.13459 0.85324 0.0
H2047 H 0.80961 0.14953 0.84308 0.0
C2048 C 0.81049 0.1017 0.80754 0.0
C2049 C 0.79445 0.10686 0.79482 0.0
C2050 C 0.82453 0.11608 0.81331 0.0
C2051 C 0.82282 0.13586 0.80647 0.0
C2052 C 0.80722 0.14101 0.79333 0.0
H2053 H 0.90047 0.23954 0.81695 0.0
H2054 H 0.87233 0.21698 0.81027 0.0
C2055 C 0.79307 0.12664 0.78761 0.0
C2056 C 0.83772 0.15101 0.81266 0.0
H2057 H 0.85584 0.1762 0.85338 0.0
C2058 C 0.85088 0.15857 0.79816 0.0
C2059 C 0.8394 0.15744 0.8328 0.0
C2060 C 0.82524 0.15004 0.84881 0.0
C2061 C 0.86606 0.17215 0.80332 0.0
C2062 C 0.86772 0.1787 0.82346 0.0
C2063 C 0.85448 0.17117 0.83797 0.0
C2064 C 0.88322 0.1933 0.82962 0.0
C2065 C 0.88053 0.17888 0.78726 0.0
C2066 C 0.89797 0.18794 0.84369 0.0
C2067 C 0.9139 0.20098 0.84778 0.0
C2068 C 0.91525 0.21938 0.83769 0.0
C2069 C 0.89985 0.22521 0.8246 0.0
C2070 C 0.88387 0.21234 0.82071 0.0
H2071 H 0.88066 0.16843 0.77429 0.0
H2072 H 0.87592 0.19387 0.78168 0.0
H2073 H 0.89602 0.18008 0.79325 0.0
H2074 H 0.8976 0.17337 0.85087 0.0
H2075 H 0.92563 0.1963 0.85799 0.0
H2076 H 0.66566 0.83009 0.36321 0.0
H2077 H 0.69125 0.85633 0.35993 0.0
H2078 H 0.6517 0.88974 0.32101 0.0
H2079 H 0.62576 0.86442 0.32557 0.0
H2080 H 0.71035 0.86589 0.3278 0.0
H2081 H 0.67222 0.93427 0.35388 0.0
H2082 H 0.66194 0.90965 0.35826 0.0
H2083 H 0.65719 0.9226 0.33496 0.0
C2084 C 0.66235 0.84333 0.35439 0.0
C2085 C 0.64407 0.84505 0.34412 0.0
C2086 C 0.67697 0.85823 0.35244 0.0
C2087 C 0.67342 0.87508 0.34027 0.0
C2088 C 0.65473 0.87715 0.33079 0.0
H2089 H 0.76226 0.93894 0.27121 0.0
H2090 H 0.73749 0.91527 0.28448 0.0
C2091 C 0.64005 0.86247 0.33305 0.0
C2092 C 0.68974 0.8895 0.33582 0.0
H2093 H 0.6992 0.93937 0.32991 0.0
C2094 C 0.70805 0.88197 0.32861 0.0
C2095 C 0.68696 0.91049 0.33723 0.0
C2096 C 0.66858 0.91966 0.34674 0.0
C2097 C 0.72329 0.89483 0.32196 0.0
C2098 C 0.71976 0.91577 0.32164 0.0
C2099 C 0.70179 0.92331 0.32968 0.0
C2100 C 0.73446 0.93019 0.31322 0.0
C2101 C 0.74304 0.88577 0.31559 0.0
C2102 C 0.74022 0.94699 0.3245 0.0
C2103 C 0.75371 0.96087 0.31664 0.0
C2104 C 0.762 0.95807 0.29747 0.0
C2105 C 0.75618 0.94136 0.28608 0.0
C2106 C 0.74223 0.92771 0.29377 0.0
H2107 H 0.74575 0.8712 0.32323 0.0
H2108 H 0.74271 0.88283 0.29922 0.0
H2109 H 0.7558 0.89593 0.31894 0.0
H2110 H 0.73442 0.9493 0.3395 0.0
H2111 H 0.75807 0.97353 0.32585 0.0
H2112 H 0.08235 0.07 0.81809 0.0
H2113 H 0.08941 0.09651 0.84292 0.0
H2114 H 0.07244 0.14135 0.7995 0.0
H2115 H 0.06473 0.11512 0.77513 0.0
H2116 H 0.11246 0.146 0.82809 0.0
H2117 H 0.03773 0.13355 0.86303 0.0
H2118 H 0.05435 0.11314 0.85649 0.0
H2119 H 0.04064 0.126 0.83723 0.0
C2120 C 0.08008 0.08556 0.81401 0.0
C2121 C 0.07261 0.09066 0.79496 0.0
C2122 C 0.08437 0.10059 0.82803 0.0
C2123 C 0.08151 0.12076 0.8229 0.0
C2124 C 0.07489 0.12581 0.80359 0.0
H2125 H 0.06221 0.22852 0.8073 0.0
H2126 H 0.08178 0.19925 0.81627 0.0
C2127 C 0.07042 0.11088 0.78975 0.0
C2128 C 0.08299 0.13698 0.83776 0.0
H2129 H 0.0492 0.16719 0.86083 0.0
C2130 C 0.09904 0.15044 0.83615 0.0
C2131 C 0.06581 0.14245 0.8488 0.0
C2132 C 0.04863 0.12803 0.85169 0.0
C2133 C 0.09695 0.17035 0.84258 0.0
C2134 C 0.07813 0.17686 0.84992 0.0
C2135 C 0.06352 0.16246 0.85474 0.0
C2136 C 0.07115 0.19779 0.84702 0.0
C2137 C 0.11427 0.18459 0.83975 0.0
C2138 C 0.05871 0.2071 0.86128 0.0
C2139 C 0.04707 0.2237 0.85589 0.0
C2140 C 0.04788 0.23126 0.83626 0.0
C2141 C 0.06155 0.22309 0.82259 0.0
C2142 C 0.07296 0.20642 0.82786 0.0
H2143 H 0.12849 0.17726 0.84439 0.0
H2144 H 0.11575 0.18837 0.8236 0.0
H2145 H 0.11228 0.19862 0.8485 0.0
H2146 H 0.05692 0.20067 0.87609 0.0
H2147 H 0.03666 0.22995 0.86669 0.0
H2148 H 0.0834 0.78754 0.10368 0.0
H2149 H 0.11226 0.80927 0.11062 0.0
H2150 H 0.11495 0.82513 0.04789 0.0
H2151 H 0.08599 0.80387 0.04116 0.0
H2152 H 0.14718 0.8009 0.09634 0.0
H2153 H 0.13099 0.87742 0.0715 0.0
H2154 H 0.11116 0.85977 0.07699 0.0
H2155 H 0.12224 0.86087 0.05228 0.0
C2156 C 0.08996 0.79611 0.09154 0.0
C2157 C 0.08283 0.79395 0.07185 0.0
C2158 C 0.10628 0.80861 0.09553 0.0
C2159 C 0.11563 0.81911 0.07987 0.0
C2160 C 0.10765 0.81777 0.06038 0.0
H2161 H 0.20683 0.8226 0.01425 0.0
H2162 H 0.1774 0.82836 0.03504 0.0
C2163 C 0.09127 0.80542 0.05645 0.0
C2164 C 0.13582 0.82792 0.08262 0.0
H2165 H 0.165 0.86403 0.06142 0.0
C2166 C 0.15109 0.81518 0.08961 0.0
C2167 C 0.141 0.84671 0.0743 0.0
C2168 C 0.12536 0.86201 0.06859 0.0
C2169 C 0.17126 0.81927 0.08546 0.0
C2170 C 0.17609 0.83646 0.07409 0.0
C2171 C 0.16116 0.85067 0.06987 0.0
C2172 C 0.19427 0.83649 0.06155 0.0
C2173 C 0.18697 0.80389 0.09086 0.0
C2174 C 0.21349 0.83947 0.06957 0.0
C2175 C 0.23044 0.83631 0.05756 0.0
C2176 C 0.22821 0.82997 0.03758 0.0
C2177 C 0.20893 0.82766 0.02955 0.0
C2178 C 0.19213 0.83099 0.04139 0.0
H2179 H 0.18092 0.79191 0.10073 0.0
H2180 H 0.19291 0.79683 0.07699 0.0
H2181 H 0.19969 0.81127 0.09864 0.0
H2182 H 0.21534 0.84369 0.08514 0.0
H2183 H 0.24522 0.83854 0.0639 0.0
H2184 H 0.45748 0.97552 0.29199 0.0
H2185 H 0.44945 0.94537 0.31143 0.0
H2186 H 0.51213 0.93888 0.32651 0.0
H2187 H 0.51988 0.96916 0.30775 0.0
H2188 H 0.46151 0.91178 0.29882 0.0
H2189 H 0.4892 0.91557 0.37574 0.0
H2190 H 0.48446 0.93808 0.36138 0.0
H2191 H 0.50867 0.92587 0.36047 0.0
C2192 C 0.46933 0.96796 0.30015 0.0
C2193 C 0.4893 0.97435 0.29831 0.0
C2194 C 0.46475 0.95084 0.31131 0.0
C2195 C 0.48012 0.93985 0.32063 0.0
C2196 C 0.49985 0.94731 0.32006 0.0
H2197 H 0.53245 0.84078 0.29416 0.0
H2198 H 0.51004 0.86949 0.29795 0.0
C2199 C 0.50436 0.96453 0.30913 0.0
C2200 C 0.47686 0.91867 0.32654 0.0
H2201 H 0.4987 0.88382 0.35679 0.0
C2202 C 0.46886 0.90569 0.31199 0.0
C2203 C 0.48573 0.91044 0.34396 0.0
C2204 C 0.49224 0.92335 0.36132 0.0
C2205 C 0.47252 0.88505 0.31282 0.0
C2206 C 0.48478 0.87742 0.3283 0.0
C2207 C 0.48985 0.88982 0.34453 0.0
C2208 C 0.4963 0.85874 0.32539 0.0
C2209 C 0.46489 0.87191 0.29608 0.0
C2210 C 0.49628 0.84337 0.33977 0.0
C2211 C 0.50922 0.82696 0.3376 0.0
C2212 C 0.52235 0.82605 0.32119 0.0
C2213 C 0.5222 0.84124 0.30677 0.0
C2214 C 0.50931 0.85749 0.30887 0.0
H2215 H 0.4501 0.87731 0.29064 0.0
H2216 H 0.4755 0.87261 0.28327 0.0
H2217 H 0.46343 0.85604 0.30093 0.0
H2218 H 0.48659 0.84427 0.35278 0.0
H2219 H 0.50939 0.81532 0.34893 0.0
H2220 H 0.45273 0.29114 0.56544 0.0
H2221 H 0.42642 0.26719 0.5733 0.0
H2222 H 0.47091 0.22374 0.59148 0.0
H2223 H 0.49755 0.24816 0.58371 0.0
H2224 H 0.44497 0.20815 0.56477 0.0
H2225 H 0.39965 0.24452 0.62233 0.0
H2226 H 0.40674 0.26382 0.60509 0.0
H2227 H 0.42591 0.25052 0.6189 0.0
C2228 C 0.45686 0.27661 0.57145 0.0
C2229 C 0.47702 0.2713 0.57374 0.0
C2230 C 0.44185 0.263 0.57622 0.0
C2231 C 0.44668 0.24383 0.58355 0.0
C2232 C 0.46688 0.23856 0.58619 0.0
H2233 H 0.32732 0.22231 0.55317 0.0
H2234 H 0.35402 0.21039 0.57566 0.0
C2235 C 0.48201 0.25234 0.58148 0.0
C2236 C 0.43043 0.22886 0.58497 0.0
H2237 H 0.38017 0.23296 0.59141 0.0
C2238 C 0.43085 0.21283 0.57135 0.0
C2239 C 0.41215 0.23389 0.59441 0.0
C2240 C 0.41122 0.24899 0.6112 0.0
C2241 C 0.41292 0.20509 0.56361 0.0
C2242 C 0.39461 0.21417 0.56927 0.0
C2243 C 0.39424 0.22665 0.58623 0.0
C2244 C 0.37804 0.21642 0.55465 0.0
C2245 C 0.41389 0.18904 0.54774 0.0
C2246 C 0.38262 0.2236 0.53533 0.0
C2247 C 0.36752 0.23042 0.52267 0.0
C2248 C 0.34761 0.23056 0.52921 0.0
C2249 C 0.34275 0.22261 0.54808 0.0
C2250 C 0.3579 0.21561 0.56077 0.0
H2251 H 0.42479 0.17725 0.55222 0.0
H2252 H 0.39903 0.18199 0.54514 0.0
H2253 H 0.41939 0.19563 0.53348 0.0
H2254 H 0.39801 0.22521 0.53043 0.0
H2255 H 0.37148 0.23646 0.50811 0.0
H2256 H 0.58197 0.49505 0.26752 0.0
H2257 H 0.59095 0.46554 0.24713 0.0
H2258 H 0.55453 0.42834 0.28562 0.0
H2259 H 0.54586 0.45761 0.30597 0.0
H2260 H 0.5939 0.41238 0.27568 0.0
H2261 H 0.55045 0.43766 0.20882 0.0
H2262 H 0.56961 0.45335 0.21963 0.0
H2263 H 0.54642 0.44963 0.23275 0.0
C2264 C 0.5759 0.4805 0.27142 0.0
C2265 C 0.56303 0.47838 0.28798 0.0
C2266 C 0.58109 0.46375 0.25991 0.0
C2267 C 0.57339 0.44485 0.26492 0.0
C2268 C 0.56075 0.44283 0.28165 0.0
H2269 H 0.50743 0.35849 0.25012 0.0
H2270 H 0.52926 0.38761 0.24696 0.0
C2271 C 0.55566 0.45946 0.29313 0.0
C2272 C 0.57701 0.42699 0.25243 0.0
H2273 H 0.553 0.40303 0.21438 0.0
C2274 C 0.58577 0.4103 0.26175 0.0
C2275 C 0.56682 0.42457 0.23403 0.0
C2276 C 0.55777 0.44219 0.22308 0.0
C2277 C 0.5815 0.39084 0.2551 0.0
C2278 C 0.5684 0.38836 0.23863 0.0
C2279 C 0.56279 0.40512 0.2272 0.0
C2280 C 0.55533 0.37057 0.23757 0.0
C2281 C 0.5886 0.37323 0.2674 0.0
C2282 C 0.56274 0.35138 0.23315 0.0
C2283 C 0.55022 0.33466 0.23517 0.0
C2284 C 0.5303 0.33711 0.24161 0.0
C2285 C 0.52278 0.35634 0.24523 0.0
C2286 C 0.5352 0.37293 0.24328 0.0
H2287 H 0.59907 0.37782 0.27952 0.0
H2288 H 0.57555 0.36555 0.27432 0.0
H2289 H 0.59639 0.36227 0.2576 0.0
H2290 H 0.57819 0.34933 0.22858 0.0
H2291 H 0.55609 0.31987 0.23191 0.0
H2292 H 0.94407 0.26592 0.47877 0.0
H2293 H 0.91631 0.28742 0.46913 0.0
H2294 H 0.95543 0.33897 0.47023 0.0
H2295 H 0.98371 0.31707 0.4794 0.0
H2296 H 0.92411 0.34202 0.49579 0.0
H2297 H 0.89365 0.31963 0.42293 0.0
H2298 H 0.90078 0.29742 0.43624 0.0
H2299 H 0.91967 0.31564 0.42959 0.0
C2300 C 0.94693 0.28172 0.47628 0.0
C2301 C 0.96588 0.28993 0.48006 0.0
C2302 C 0.9311 0.294 0.47053 0.0
C2303 C 0.93388 0.31478 0.46851 0.0
C2304 C 0.95307 0.32294 0.47138 0.0
H2305 H 0.82119 0.35153 0.51881 0.0
H2306 H 0.84783 0.3615 0.49535 0.0
C2307 C 0.96906 0.31052 0.47692 0.0
C2308 C 0.91584 0.32764 0.46814 0.0
H2309 H 0.86814 0.32325 0.45065 0.0
C2310 C 0.91194 0.33886 0.48547 0.0
C2311 C 0.90017 0.324 0.45438 0.0
C2312 C 0.90391 0.31369 0.43463 0.0
C2313 C 0.8922 0.34292 0.4914 0.0
C2314 C 0.8762 0.33595 0.47926 0.0
C2315 C 0.8804 0.32816 0.46015 0.0
C2316 C 0.85663 0.33103 0.48842 0.0
C2317 C 0.88871 0.35198 0.51187 0.0
C2318 C 0.85184 0.31067 0.49107 0.0
C2319 C 0.83656 0.30503 0.50413 0.0
C2320 C 0.82604 0.31967 0.51483 0.0
C2321 C 0.82951 0.34005 0.51086 0.0
C2322 C 0.84465 0.34573 0.49753 0.0
H2323 H 0.90295 0.35572 0.51967 0.0
H2324 H 0.87983 0.36597 0.51038 0.0
H2325 H 0.88015 0.34139 0.52145 0.0
H2326 H 0.8609 0.29905 0.4842 0.0
H2327 H 0.83394 0.28923 0.50693 0.0
H2328 H 0.98461 0.56689 0.7496 0.0
H2329 H 0.97479 0.59414 0.72651 0.0
H2330 H 0.00074 0.63739 0.76701 0.0
H2331 H 0.01064 0.61042 0.78981 0.0
H2332 H 0.95338 0.63963 0.74662 0.0
H2333 H 0.02171 0.63691 0.6993 0.0
H2334 H 0.00933 0.61463 0.70864 0.0
H2335 H 0.02522 0.62908 0.72491 0.0
C2336 C 0.9884 0.58225 0.7533 0.0
C2337 C -0.00141 0.58675 0.7712 0.0
C2338 C 0.98263 0.59768 0.74028 0.0
C2339 C 0.987 0.61762 0.74523 0.0
C2340 C 0.99721 0.62202 0.76308 0.0
H2341 H 0.00208 0.72158 0.77047 0.0
H2342 H 0.9821 0.69284 0.76048 0.0
C2343 C 0.00294 0.6067 0.77599 0.0
C2344 C 0.98175 0.63445 0.73204 0.0
H2345 H 0.00908 0.6697 0.70776 0.0
C2346 C 0.96501 0.64606 0.73723 0.0
C2347 C 0.99651 0.6425 0.71926 0.0
C2348 C 0.01416 0.6301 0.71249 0.0
C2349 C 0.96454 0.66662 0.73287 0.0
C2350 C 0.9815 0.67552 0.72378 0.0
C2351 C 0.99625 0.66309 0.71524 0.0
C2352 C 0.98748 0.69638 0.72854 0.0
C2353 C 0.94693 0.6789 0.73991 0.0
C2354 C 0.99684 0.7084 0.714 0.0
C2355 C 0.00869 0.72465 0.71986 0.0
C2356 C 0.01122 0.72907 0.74029 0.0
C2357 C 0.00025 0.71842 0.75464 0.0
C2358 C 0.98858 0.70211 0.74883 0.0
H2359 H 0.9327 0.67088 0.73664 0.0
H2360 H 0.94777 0.68086 0.75642 0.0
H2361 H 0.9465 0.69388 0.73265 0.0
H2362 H 0.99631 0.70425 0.6983 0.0
H2363 H 0.01687 0.73296 0.70856 0.0
H2364 H 0.57166 0.76114 0.9911 0.0
H2365 H 0.6002 0.74031 0.98016 0.0
H2366 H 0.64084 0.78057 0.01034 0.0
H2367 H 0.61245 0.80124 0.02134 0.0
H2368 H 0.64474 0.76373 0.96138 0.0
H2369 H 0.6426 0.71166 0.02648 0.0
H2370 H 0.62015 0.72149 0.01483 0.0
H2371 H 0.63484 0.73716 0.03103 0.0
C2372 C 0.58673 0.7653 0.99553 0.0
C2373 C 0.59008 0.7825 0.00725 0.0
C2374 C 0.6029 0.75357 0.98915 0.0
C2375 C 0.62245 0.75907 0.99442 0.0
C2376 C 0.62575 0.77624 0.00612 0.0
H2377 H 0.73415 0.77193 0.0058 0.0
H2378 H 0.70272 0.76876 0.98775 0.0
C2379 C 0.60965 0.78792 0.01248 0.0
C2380 C 0.63984 0.74692 0.98852 0.0
H2381 H 0.67447 0.71765 0.01156 0.0
C2382 C 0.65108 0.753 0.97184 0.0
C2383 C 0.64771 0.73257 0.00187 0.0
C2384 C 0.6357 0.72515 0.01953 0.0
C2385 C 0.67112 0.74702 0.9697 0.0
C2386 C 0.68003 0.7353 0.98496 0.0
C2387 C 0.66781 0.72688 -6e-05 0.0
C2388 C 0.70182 0.73624 0.9891 0.0
C2389 C 0.68295 0.75464 0.95202 0.0
C2390 C 0.71227 0.71904 0.99535 0.0
C2391 C 0.73019 0.72095 0.00604 0.0
C2392 C 0.73775 0.74006 0.01055 0.0
C2393 C 0.72855 0.75706 0.00241 0.0
C2394 C 0.71064 0.75519 0.99186 0.0
H2395 H 0.67361 0.7542 0.93823 0.0
H2396 H 0.68714 0.77054 0.95462 0.0
H2397 H 0.69678 0.74571 0.94949 0.0
H2398 H 0.70572 0.70429 0.99349 0.0
H2399 H 0.73731 0.70765 0.01207 0.0
H2400 H 0.84026 0.06536 0.24119 0.0
H2401 H 0.84845 0.08721 0.2124 0.0
H2402 H 0.8097 0.05161 0.17477 0.0
H2403 H 0.80163 0.02996 0.20323 0.0
H2404 H 0.86223 0.06829 0.16837 0.0
H2405 H 0.79503 0.11684 0.17202 0.0
H2406 H 0.807 0.10644 0.19407 0.0
H2407 H 0.79026 0.09131 0.1793 0.0
C2408 C 0.83339 0.06249 0.22676 0.0
C2409 C 0.82018 0.04626 0.22423 0.0
C2410 C 0.83814 0.07482 0.21043 0.0
C2411 C 0.82956 0.07097 0.19165 0.0
C2412 C 0.81634 0.05479 0.18926 0.0
H2413 H 0.81188 0.04409 0.08651 0.0
H2414 H 0.83221 0.05378 0.11513 0.0
C2415 C 0.81173 0.04249 0.20542 0.0
C2416 C 0.8341 0.08321 0.1739 0.0
H2417 H 0.80592 0.1067 0.13873 0.0
C2418 C 0.85046 0.07753 0.16198 0.0
C2419 C 0.81914 0.09578 0.16586 0.0
C2420 C 0.80194 0.10315 0.17855 0.0
C2421 C 0.85039 0.08134 0.1413 0.0
C2422 C 0.8333 0.09042 0.1326 0.0
C2423 C 0.81887 0.09926 0.14519 0.0
C2424 C 0.82702 0.08578 0.11179 0.0
C2425 C 0.86766 0.0739 0.12877 0.0
C2426 C 0.81765 0.10045 0.09992 0.0
C2427 C 0.80558 0.09475 0.08376 0.0
C2428 C 0.80284 0.07437 0.07931 0.0
C2429 C 0.81384 0.05989 0.08976 0.0
C2430 C 0.82571 0.06552 0.10599 0.0
H2431 H 0.88209 0.07709 0.13646 0.0
H2432 H 0.86656 0.05737 0.12706 0.0
H2433 H 0.86787 0.08094 0.11368 0.0
H2434 H 0.81834 0.11613 0.10412 0.0
H2435 H 0.79735 0.10614 0.0756 0.0
H2436 H 0.2717 0.60868 0.48393 0.0
H2437 H 0.25075 0.61364 0.45409 0.0
H2438 H 0.23704 0.55033 0.45373 0.0
H2439 H 0.2574 0.5456 0.48346 0.0
H2440 H 0.26258 0.5983 0.42124 0.0
H2441 H 0.18637 0.57001 0.43049 0.0
H2442 H 0.20131 0.5774 0.45188 0.0
H2443 H 0.20232 0.55201 0.44235 0.0
C2444 C 0.26354 0.59605 0.47779 0.0
C2445 C 0.26621 0.57674 0.48573 0.0
C2446 C 0.2515 0.5989 0.46087 0.0
C2447 C 0.24208 0.58243 0.45171 0.0
C2448 C 0.24351 0.56345 0.46078 0.0
H2449 H 0.25609 0.51128 0.36463 0.0
H2450 H 0.24772 0.53365 0.39253 0.0
C2451 C 0.25537 0.56066 0.47772 0.0
C2452 C 0.2353 0.58357 0.43059 0.0
H2453 H 0.20479 0.55696 0.39947 0.0
C2454 C 0.24936 0.59019 0.41635 0.0
C2455 C 0.21789 0.57341 0.42398 0.0
C2456 C 0.20107 0.56806 0.43809 0.0
C2457 C 0.24819 0.58389 0.39637 0.0
C2458 C 0.23267 0.57072 0.39071 0.0
C2459 C 0.21695 0.56673 0.40408 0.0
C2460 C 0.23558 0.5571 0.37364 0.0
C2461 C 0.26495 0.58913 0.3821 0.0
C2462 C 0.23143 0.56302 0.35392 0.0
C2463 C 0.23619 0.55022 0.338 0.0
C2464 C 0.2453 0.53157 0.34174 0.0
C2465 C 0.24913 0.52563 0.3615 0.0
C2466 C 0.24427 0.5383 0.37734 0.0
H2467 H 0.27458 0.60136 0.38801 0.0
H2468 H 0.27444 0.57568 0.37954 0.0
H2469 H 0.2587 0.59381 0.3674 0.0
H2470 H 0.22481 0.57755 0.35089 0.0
H2471 H 0.23283 0.55486 0.3228 0.0
H2472 H 0.80123 0.01061 0.60429 0.0
H2473 H 0.77914 0.0015 0.63214 0.0
H2474 H 0.73444 0.98066 0.5903 0.0
H2475 H 0.75696 0.98914 0.56223 0.0
H2476 H 0.72608 0.01379 0.62579 0.0
H2477 H 0.75719 0.93981 0.64712 0.0
H2478 H 0.77553 0.95772 0.63867 0.0
H2479 H 0.75671 0.94889 0.62152 0.0
C2480 C 0.78674 0.004 0.60108 0.0
C2481 C 0.78063 0.00071 0.58128 0.0
C2482 C 0.77423 -0.00128 0.61689 0.0
C2483 C 0.75537 0.99022 0.61313 0.0
C2484 C 0.74906 0.98704 0.59336 0.0
H2485 H 0.70501 0.01503 0.7299 0.0
H2486 H 0.70003 0.99703 0.69807 0.0
C2487 C 0.76177 0.9921 0.57746 0.0
C2488 C 0.74217 0.98628 0.63031 0.0
H2489 H 0.74489 0.96066 0.67429 0.0
C2490 C 0.72931 0.00175 0.63625 0.0
C2491 C 0.74637 0.97038 0.64358 0.0
C2492 C 0.75958 0.95312 0.63737 0.0
C2493 C 0.72314 0.00346 0.65625 0.0
C2494 C 0.72979 0.98897 0.67033 0.0
C2495 C 0.73998 0.97183 0.66352 0.0
C2496 C 0.73177 0.9943 0.69174 0.0
C2497 C 0.71193 0.02211 0.66255 0.0
C2498 C 0.75118 0.9973 0.69936 0.0
C2499 C 0.75398 0.00723 0.71748 0.0
C2500 C 0.73742 0.01443 0.72813 0.0
C2501 C 0.71795 0.00982 0.72157 0.0
C2502 C 0.71512 -0.00039 0.70348 0.0
H2503 H 0.70895 0.03236 0.64975 0.0
H2504 H 0.6973 0.01787 0.66924 0.0
H2505 H 0.72064 0.03047 0.67402 0.0
H2506 H 0.76427 0.99333 0.69056 0.0
H2507 H 0.7691 0.01059 0.72239 0.0
H2508 H 0.33949 0.52719 0.8188 0.0
H2509 H 0.34939 0.50657 0.8476 0.0
H2510 H 0.28704 0.49293 0.85872 0.0
H2511 H 0.27737 0.51299 0.82967 0.0
H2512 H 0.33968 0.51781 0.88314 0.0
H2513 H 0.31112 0.44125 0.87589 0.0
H2514 H 0.31468 0.45717 0.85423 0.0
H2515 H 0.2914 0.45769 0.86811 0.0
C2516 C 0.32805 0.51923 0.82715 0.0
C2517 C 0.30769 0.52175 0.82244 0.0
C2518 C 0.3337 0.50738 0.84344 0.0
C2519 C 0.31902 0.49796 0.85522 0.0
C2520 C 0.29874 0.49948 0.84956 0.0
H2521 H 0.26452 0.50631 0.95261 0.0
H2522 H 0.28309 0.50088 0.92152 0.0
C2523 C 0.29313 0.51116 0.83316 0.0
C2524 C 0.32398 0.49052 0.87552 0.0
H2525 H 0.30498 0.45769 0.90964 0.0
C2526 C 0.33301 0.50412 0.88885 0.0
C2527 C 0.31577 0.4725 0.88307 0.0
C2528 C 0.30793 0.45627 0.86943 0.0
C2529 C 0.33098 0.50176 0.9096 0.0
C2530 C 0.31961 0.48554 0.91695 0.0
C2531 C 0.31341 0.47033 0.90383 0.0
C2532 C 0.3089 0.48761 0.93607 0.0
C2533 C 0.33852 0.518 0.9234 0.0
C2534 C 0.3175 0.48207 0.95442 0.0
C2535 C 0.30683 0.48517 0.97225 0.0
C2536 C 0.28762 0.49383 0.9717 0.0
C2537 C 0.27925 0.49947 0.9533 0.0
C2538 C 0.28978 0.49633 0.93562 0.0
H2539 H 0.34984 0.52769 0.91595 0.0
H2540 H 0.32573 0.52755 0.92817 0.0
H2541 H 0.34526 0.51131 0.93708 0.0
H2542 H 0.33234 0.47547 0.95492 0.0
H2543 H 0.31343 0.48063 0.98639 0.0
H2544 H 0.82895 0.02222 0.76489 0.0
H2545 H 0.86361 0.01319 0.77125 0.0
H2546 H 0.85074 0.00707 0.83435 0.0
H2547 H 0.81569 0.01672 0.82805 0.0
H2548 H 0.88211 0.03073 0.82874 0.0
H2549 H 0.89461 0.96349 0.78284 0.0
H2550 H 0.88286 0.98219 0.76759 0.0
H2551 H 0.8697 0.97217 0.78902 0.0
C2552 C 0.83331 0.01852 0.7801 0.0
C2553 C 0.81957 0.02028 0.79598 0.0
C2554 C 0.85318 0.01313 0.78369 0.0
C2555 C 0.85983 0.0091 0.80324 0.0
C2556 C 0.84593 0.00992 0.8191 0.0
H2557 H 0.99098 0.99413 0.79544 0.0
H2558 H 0.95713 0.98616 0.8077 0.0
C2559 C 0.82589 0.01535 0.81549 0.0
C2560 C 0.88172 0.00681 0.80698 0.0
H2561 H 0.92364 0.98623 0.78596 0.0
C2562 C 0.89117 0.02058 0.81982 0.0
C2563 C 0.8937 0.99328 0.79581 0.0
C2564 C 0.88461 0.97682 0.78324 0.0
C2565 C 0.91214 0.02253 0.82019 0.0
C2566 C 0.92394 0.01078 0.80701 0.0
C2567 C 0.91464 0.9956 0.79577 0.0
C2568 C 0.94518 0.0159 0.80246 0.0
C2569 C 0.92135 0.03775 0.83416 0.0
C2570 C 0.9498 0.03525 0.7956 0.0
C2571 C 0.969 0.03981 0.78869 0.0
C2572 C 0.98407 0.02507 0.78822 0.0
C2573 C 0.97973 0.00584 0.79572 0.0
C2574 C 0.96038 0.00126 0.80267 0.0
H2575 H 0.91238 0.03915 0.84813 0.0
H2576 H 0.93699 0.03371 0.8382 0.0
H2577 H 0.92141 0.05266 0.82676 0.0
H2578 H 0.93829 0.04668 0.79469 0.0
H2579 H 0.97178 0.05477 0.78301 0.0
H2580 H 0.25417 0.72719 0.0393 0.0
H2581 H 0.25999 0.6928 0.05026 0.0
H2582 H 0.32387 0.70209 0.04642 0.0
H2583 H 0.31815 0.73683 0.03561 0.0
H2584 H 0.27969 0.66556 0.02549 0.0
H2585 H 0.31704 0.67114 0.09985 0.0
H2586 H 0.30291 0.69161 0.08908 0.0
H2587 H 0.3276 0.68599 0.07996 0.0
C2588 C 0.26949 0.7221 0.04119 0.0
C2589 C 0.2857 0.73471 0.03647 0.0
C2590 C 0.27278 0.70241 0.04745 0.0
C2591 C 0.29235 0.69486 0.04916 0.0
C2592 C 0.30865 0.70768 0.04547 0.0
H2593 H 0.30698 0.56444 0.04166 0.0
H2594 H 0.31439 0.6002 0.03794 0.0
C2595 C 0.30535 0.72752 0.03927 0.0
C2596 C 0.2953 0.67307 0.05271 0.0
H2597 H 0.31302 0.6386 0.08627 0.0
C2598 C 0.28711 0.65966 0.03871 0.0
C2599 C 0.30494 0.66544 0.06999 0.0
C2600 C 0.31353 0.67922 0.08571 0.0
C2601 C 0.28781 0.63886 0.04171 0.0
C2602 C 0.2974 0.63116 0.05902 0.0
C2603 C 0.30592 0.64454 0.0729 0.0
C2604 C 0.29689 0.60938 0.06368 0.0
C2605 C 0.27746 0.62537 0.02675 0.0
C2606 C 0.28573 0.60257 0.08015 0.0
C2607 C 0.28162 0.58214 0.08244 0.0
C2608 C 0.28855 0.56813 0.06824 0.0
C2609 C 0.30124 0.57482 0.05276 0.0
C2610 C 0.30542 0.59528 0.05055 0.0
H2611 H 0.26735 0.63389 0.01659 0.0
H2612 H 0.28891 0.61774 0.01738 0.0
H2613 H 0.2685 0.61369 0.03452 0.0
H2614 H 0.27909 0.61317 0.09052 0.0
H2615 H 0.27192 0.57753 0.09462 0.0
H2616 H 0.7297 0.04062 0.26388 0.0
H2617 H 0.69535 0.05034 0.27063 0.0
H2618 H 0.70997 0.06005 0.33289 0.0
H2619 H 0.74474 0.0496 0.32625 0.0
H2620 H 0.67818 0.03698 0.32991 0.0
H2621 H 0.66515 0.10078 0.2796 0.0
H2622 H 0.67612 0.08092 0.26525 0.0
H2623 H 0.69014 0.09216 0.28551 0.0
C2624 C 0.72581 0.04524 0.27897 0.0
C2625 C 0.73997 0.04424 0.29455 0.0
C2626 C 0.7061 0.05104 0.28277 0.0
C2627 C 0.70001 0.05631 0.30221 0.0
C2628 C 0.71434 0.05624 0.31772 0.0
H2629 H 0.56908 0.07224 0.29538 0.0
H2630 H 0.60318 0.08075 0.30649 0.0
C2631 C 0.73422 0.05036 0.3139 0.0
C2632 C 0.67824 0.05914 0.30635 0.0
H2633 H 0.63601 0.07848 0.28484 0.0
C2634 C 0.66899 0.04651 0.32045 0.0
C2635 C 0.6661 0.07192 0.2945 0.0
C2636 C 0.67499 0.08736 0.28056 0.0
C2637 C 0.64802 0.04484 0.3215 0.0
C2638 C 0.63598 0.05563 0.30772 0.0
C2639 C 0.64515 0.0698 0.29512 0.0
C2640 C 0.61457 0.05042 0.30409 0.0
C2641 C 0.63904 0.03095 0.33693 0.0
C2642 C 0.60951 0.03057 0.29926 0.0
C2643 C 0.59015 0.0257 0.29308 0.0
C2644 C 0.57534 0.0406 0.29124 0.0
C2645 C 0.58012 0.0604 0.29675 0.0
C2646 C 0.59961 0.06528 0.30303 0.0
H2647 H 0.64827 0.03079 0.3508 0.0
H2648 H 0.62348 0.03536 0.3409 0.0
H2649 H 0.63887 0.01543 0.3309 0.0
H2650 H 0.62081 0.0189 0.29932 0.0
H2651 H 0.58705 0.0103 0.28892 0.0
H2652 H 0.27444 0.48417 0.51676 0.0
H2653 H 0.26817 0.44868 0.52201 0.0
H2654 H 0.27619 0.45644 0.58573 0.0
H2655 H 0.28297 0.49229 0.58044 0.0
H2656 H 0.29954 0.42715 0.5718 0.0
H2657 H 0.22364 0.41408 0.54226 0.0
H2658 H 0.23794 0.42791 0.52423 0.0
H2659 H 0.23258 0.43891 0.54836 0.0
C2660 C 0.27438 0.47849 0.53198 0.0
C2661 C 0.27928 0.49105 0.54818 0.0
C2662 C 0.27059 0.45814 0.53499 0.0
C2663 C 0.27141 0.44983 0.5543 0.0
C2664 C 0.2753 0.46254 0.5707 0.0
H2665 H 0.25912 0.31804 0.54649 0.0
H2666 H 0.25354 0.3518 0.56024 0.0
C2667 C 0.27907 0.48303 0.56768 0.0
C2668 C 0.27099 0.42763 0.55663 0.0
H2669 H 0.24717 0.38595 0.53879 0.0
C2670 C 0.2878 0.41813 0.56506 0.0
C2671 C 0.25556 0.41569 0.54823 0.0
C2672 C 0.23633 0.42473 0.54048 0.0
C2673 C 0.29042 0.39727 0.56369 0.0
C2674 C 0.27607 0.38563 0.55325 0.0
C2675 C 0.25839 0.39487 0.54646 0.0
C2676 C 0.28025 0.36462 0.54701 0.0
C2677 C 0.30892 0.38801 0.57285 0.0
C2678 C 0.29711 0.36057 0.53508 0.0
C2679 C 0.30032 0.34143 0.52726 0.0
C2680 C 0.28665 0.32583 0.53103 0.0
C2681 C 0.27 0.3297 0.54342 0.0
C2682 C 0.26676 0.34899 0.55123 0.0
H2683 H 0.314 0.39672 0.58611 0.0
H2684 H 0.30621 0.37225 0.57751 0.0
H2685 H 0.32125 0.3882 0.56168 0.0
H2686 H 0.30747 0.37245 0.53115 0.0
H2687 H 0.31326 0.33904 0.51774 0.0
H2688 H 0.49759 0.56076 0.25717 0.0
H2689 H 0.46351 0.5636 0.2429 0.0
H2690 H 0.43836 0.55748 0.30218 0.0
H2691 H 0.4718 0.55463 0.31626 0.0
H2692 H 0.43414 0.53349 0.24622 0.0
H2693 H 0.40539 0.60357 0.27928 0.0
H2694 H 0.43191 0.59825 0.27727 0.0
H2695 H 0.41753 0.58861 0.29803 0.0
C2696 C 0.48473 0.56046 0.26709 0.0
C2697 C 0.4873 0.55738 0.28779 0.0
C2698 C 0.46533 0.56207 0.25897 0.0
C2699 C 0.44839 0.56113 0.27153 0.0
C2700 C 0.45114 0.55875 0.29223 0.0
H2701 H 0.34388 0.5036 0.28561 0.0
H2702 H 0.37699 0.51719 0.27913 0.0
C2703 C 0.47032 0.55689 0.30024 0.0
C2704 C 0.42767 0.56007 0.26342 0.0
H2705 H 0.38049 0.57682 0.27425 0.0
C2706 C 0.42245 0.54338 0.25173 0.0
C2707 C 0.41237 0.57309 0.27032 0.0
C2708 C 0.41714 0.59201 0.28174 0.0
C2709 C 0.40227 0.53815 0.24874 0.0
C2710 C 0.38702 0.5498 0.25781 0.0
C2711 C 0.39218 0.56772 0.26753 0.0
C2712 C 0.36651 0.5417 0.26065 0.0
C2713 C 0.39745 0.51941 0.23704 0.0
C2714 C 0.34945 0.55127 0.25278 0.0
C2715 C 0.33022 0.54343 0.25647 0.0
C2716 C 0.32786 0.52617 0.2684 0.0
C2717 C 0.34505 0.51692 0.27639 0.0
C2718 C 0.36408 0.52457 0.27256 0.0
H2719 H 0.40932 0.5161 0.22582 0.0
H2720 H 0.3966 0.5065 0.24751 0.0
H2721 H 0.38281 0.52079 0.22921 0.0
H2722 H 0.35103 0.56468 0.24376 0.0
H2723 H 0.31726 0.55091 0.25014 0.0
H2724 H 0.75459 0.06554 0.49981 0.0
H2725 H 0.7376 0.09828 0.49624 0.0
H2726 H 0.79485 0.12816 0.49998 0.0
H2727 H 0.81159 0.096 0.50362 0.0
H2728 H 0.73963 0.12852 0.52574 0.0
H2729 H 0.76782 0.15821 0.45399 0.0
H2730 H 0.76792 0.13171 0.45979 0.0
H2731 H 0.78796 0.14769 0.46838 0.0
C2732 C 0.76348 0.07913 0.49937 0.0
C2733 C 0.78437 0.07829 0.50205 0.0
C2734 C 0.7538 0.09777 0.49736 0.0
C2735 C 0.765 0.11566 0.49747 0.0
C2736 C 0.78591 0.1146 0.49934 0.0
H2737 H 0.77841 0.21955 0.552 0.0
H2738 H 0.77119 0.18636 0.53904 0.0
C2739 C 0.79546 0.09618 0.50164 0.0
C2740 C 0.75528 0.13568 0.4984 0.0
H2741 H 0.76232 0.1832 0.48068 0.0
C2742 C 0.7439 0.14038 0.51546 0.0
C2743 C 0.76056 0.15119 0.4849 0.0
C2744 C 0.77156 0.14688 0.46563 0.0
C2745 C 0.73984 0.1604 0.5206 0.0
C2746 C 0.74745 0.17601 0.50843 0.0
C2747 C 0.75666 0.17123 0.49013 0.0
C2748 C 0.75016 0.19652 0.51656 0.0
C2749 C 0.72886 0.16478 0.53987 0.0
C2750 C 0.74087 0.21343 0.50802 0.0
C2751 C 0.74491 0.23273 0.51557 0.0
C2752 C 0.75868 0.23526 0.53136 0.0
C2753 C 0.76786 0.21821 0.53972 0.0
C2754 C 0.76361 0.19914 0.53245 0.0
H2755 H 0.71856 0.15231 0.54389 0.0
H2756 H 0.73992 0.16644 0.5522 0.0
H2757 H 0.72011 0.17891 0.53874 0.0
H2758 H 0.7306 0.2117 0.49555 0.0
H2759 H 0.73766 0.24561 0.50884 0.0
H2760 H 0.06427 0.49381 0.75354 0.0
H2761 H 0.09704 0.48654 0.73789 0.0
H2762 H 0.12684 0.51707 0.78647 0.0
H2763 H 0.09475 0.52431 0.80194 0.0
H2764 H 0.12644 0.51531 0.7257 0.0
H2765 H 0.15805 0.46418 0.78241 0.0
H2766 H 0.1314 0.46865 0.78008 0.0
H2767 H 0.14696 0.48568 0.79416 0.0
C2768 C 0.07787 0.49877 0.7609 0.0
C2769 C 0.0769 0.50966 0.77896 0.0
C2770 C 0.09653 0.4946 0.75198 0.0
C2771 C 0.1144 0.5009 0.76126 0.0
C2772 C 0.11332 0.51162 0.77929 0.0
H2773 H 0.21708 0.55812 0.74584 0.0
H2774 H 0.18407 0.54329 0.74221 0.0
C2775 C 0.09486 0.51593 0.78802 0.0
C2776 C 0.13435 0.49802 0.75181 0.0
H2777 H 0.18222 0.48604 0.76532 0.0
C2778 C 0.13858 0.5083 0.73396 0.0
C2779 C 0.15017 0.48848 0.76226 0.0
C2780 C 0.14636 0.47594 0.78068 0.0
C2781 C 0.15847 0.51135 0.72768 0.0
C2782 C 0.17442 0.50423 0.73976 0.0
C2783 C 0.17006 0.49181 0.75618 0.0
C2784 C 0.19489 0.51291 0.73835 0.0
C2785 C 0.16222 0.52332 0.70888 0.0
C2786 C 0.21218 0.5008 0.73746 0.0
C2787 C 0.23134 0.50938 0.73954 0.0
C2788 C 0.23329 0.53007 0.74303 0.0
C2789 C 0.21602 0.54212 0.74321 0.0
C2790 C 0.1971 0.53367 0.74089 0.0
H2791 H 0.15028 0.52048 0.69761 0.0
H2792 H 0.16188 0.53955 0.71254 0.0
H2793 H 0.17701 0.51966 0.70213 0.0
H2794 H 0.21081 0.4847 0.73582 0.0
H2795 H 0.24445 0.49977 0.73954 0.0
H2796 H 0.79878 0.99201 0.98537 0.0
H2797 H 0.81086 0.95785 0.97835 0.0
H2798 H 0.80226 0.94218 0.04053 0.0
H2799 H 0.79107 0.97603 0.0477 0.0
H2800 H 0.8353 0.92481 0.02615 0.0
H2801 H 0.77176 0.91215 0.97339 0.0
H2802 H 0.78918 0.93164 0.96692 0.0
H2803 H 0.77343 0.9344 0.98862 0.0
C2804 C 0.79987 0.98135 0.99757 0.0
C2805 C 0.79369 0.98668 0.01703 0.0
C2806 C 0.80659 0.96178 0.99351 0.0
C2807 C 0.80704 0.94726 0.00882 0.0
C2808 C 0.80201 0.95302 0.02842 0.0
H2809 H 0.77233 0.83221 0.0284 0.0
H2810 H 0.7785 0.86635 0.01775 0.0
C2811 C 0.79549 0.97244 0.03248 0.0
C2812 C 0.81114 0.92567 0.00479 0.0
H2813 H 0.78971 0.88411 0.9839 0.0
C2814 C 0.82562 0.91589 0.01659 0.0
C2815 C 0.79851 0.91405 0.99228 0.0
C2816 C 0.78225 0.92348 0.97965 0.0
C2817 C 0.82661 0.89485 0.01764 0.0
C2818 C 0.81316 0.88323 0.00602 0.0
C2819 C 0.79998 0.89303 0.99281 0.0
C2820 C 0.80971 0.86155 0.01018 0.0
C2821 C 0.84084 0.88537 0.03248 0.0
C2822 C 0.82507 0.8471 0.00902 0.0
C2823 C 0.82162 0.82731 0.01546 0.0
C2824 C 0.8027 0.82171 0.02295 0.0
C2825 C 0.78716 0.83596 0.02292 0.0
C2826 C 0.79063 0.85558 0.01671 0.0
H2827 H 0.84796 0.89664 0.04247 0.0
H2828 H 0.83287 0.87424 0.04196 0.0
H2829 H 0.85293 0.87743 0.02425 0.0
H2830 H 0.83981 0.8512 0.0036 0.0
H2831 H 0.83387 0.81664 0.01518 0.0
H2832 H 0.01811 0.82281 0.82506 0.0
H2833 H 0.00583 0.82965 0.85918 0.0
H2834 H 0.00942 0.76657 0.87301 0.0
H2835 H 0.0213 0.75965 0.83921 0.0
H2836 H 0.97481 0.7853 0.88853 0.0
H2837 H 0.04462 0.82742 0.90728 0.0
H2838 H 0.02989 0.83591 0.88634 0.0
H2839 H 0.04272 0.8123 0.88492 0.0
C2840 C 0.01592 0.8104 0.8353 0.0
C2841 C 0.02087 0.79071 0.8295 0.0
C2842 C 0.00905 0.81434 0.85481 0.0
C2843 C 0.00701 0.79865 0.86874 0.0
C2844 C 0.01092 0.77893 0.86256 0.0
H2845 H 0.0119 0.75179 0.97955 0.0
H2846 H 0.00497 0.76265 0.9454 0.0
C2847 C 0.01779 0.775 0.84321 0.0
C2848 C 0.00219 0.80235 0.89017 0.0
H2849 H 0.02427 0.81728 0.93393 0.0
C2850 C 0.98533 0.79279 0.89842 0.0
C2851 C 0.01586 0.81221 0.90309 0.0
C2852 C 0.03437 0.8225 0.8951 0.0
C2853 C 0.98264 0.79149 0.91925 0.0
C2854 C 0.99724 0.79982 0.93216 0.0
C2855 C 0.01309 0.81095 0.92396 0.0
C2856 C -0.00125 0.79348 0.95341 0.0
C2857 C 0.96487 0.78009 0.92734 0.0
C2858 C 0.99747 0.80723 0.96937 0.0
C2859 C 0.00121 0.80092 0.98915 0.0
C2860 C 0.00683 0.78097 0.99297 0.0
C2861 C 0.00767 0.76729 0.97699 0.0
C2862 C 0.00358 0.77344 0.95748 0.0
H2863 H 0.95216 0.7803 0.91658 0.0
H2864 H 0.96924 0.76421 0.9298 0.0
H2865 H 0.95978 0.78642 0.94188 0.0
H2866 H 0.99398 0.82283 0.96647 0.0
H2867 H 0.00064 0.81175 0.00125 0.0
H2868 H 0.51965 0.78889 0.23739 0.0
H2869 H 0.50698 0.78296 0.20375 0.0
H2870 H 0.51937 0.71975 0.2099 0.0
H2871 H 0.53239 0.72572 0.24393 0.0
H2872 H 0.53675 0.73602 0.1766 0.0
H2873 H 0.45762 0.75941 0.17823 0.0
H2874 H 0.47279 0.77803 0.19024 0.0
H2875 H 0.47127 0.75317 0.20081 0.0
C2876 C 0.5192 0.77362 0.23183 0.0
C2877 C 0.52705 0.75777 0.24327 0.0
C2878 C 0.51176 0.77021 0.21261 0.0
C2879 C 0.51191 0.75086 0.20434 0.0
C2880 C 0.51889 0.73478 0.21607 0.0
H2881 H 0.50414 0.7524 0.07066 0.0
H2882 H 0.50023 0.73627 0.10379 0.0
C2883 C 0.52624 0.73818 0.23551 0.0
C2884 C 0.50752 0.74843 0.18263 0.0
H2885 H 0.47574 0.76628 0.14669 0.0
C2886 C 0.52308 0.74187 0.17001 0.0
C2887 C 0.48966 0.75595 0.17397 0.0
C2888 C 0.47183 0.76182 0.18659 0.0
C2889 C 0.52209 0.74472 0.14915 0.0
C2890 C 0.50514 0.75429 0.1408 0.0
C2891 C 0.48878 0.75902 0.15316 0.0
C2892 C 0.50605 0.76341 0.12059 0.0
C2893 C 0.53993 0.73929 0.13635 0.0
C2894 C 0.5104 0.78389 0.11921 0.0
C2895 C 0.51279 0.79297 0.10059 0.0
C2896 C 0.51072 0.78182 0.08282 0.0
C2897 C 0.50579 0.76134 0.08411 0.0
C2898 C 0.50359 0.75214 0.10296 0.0
H2899 H 0.55155 0.73098 0.14493 0.0
H2900 H 0.53502 0.72991 0.1235 0.0
H2901 H 0.54676 0.75315 0.13015 0.0
H2902 H 0.51238 0.79282 0.13266 0.0
H2903 H 0.5164 0.80881 0.10016 0.0
H2904 H 0.5616 0.25814 0.49461 0.0
H2905 H 0.56628 0.24589 0.45991 0.0
H2906 H 0.53148 0.29568 0.43779 0.0
H2907 H 0.52652 0.30766 0.4718 0.0
H2908 H 0.5302 0.23874 0.43026 0.0
H2909 H 0.58682 0.29393 0.4047 0.0
H2910 H 0.58424 0.28644 0.43066 0.0
H2911 H 0.56721 0.30441 0.41998 0.0
C2912 C 0.55506 0.26644 0.48228 0.0
C2913 C 0.54359 0.28378 0.48596 0.0
C2914 C 0.55774 0.25946 0.46254 0.0
C2915 C 0.54939 0.27004 0.44633 0.0
C2916 C 0.53822 0.28742 0.45006 0.0
H2917 H 0.49378 0.27504 0.34009 0.0
H2918 H 0.50718 0.26976 0.37357 0.0
C2919 C 0.53529 0.29416 0.46959 0.0
C2920 C 0.551 0.26291 0.42534 0.0
H2921 H 0.56487 0.28036 0.37925 0.0
C2922 C 0.53835 0.24731 0.4191 0.0
C2923 C 0.56167 0.27407 0.41081 0.0
C2924 C 0.57591 0.29056 0.41684 0.0
C2925 C 0.5346 0.24394 0.39864 0.0
C2926 C 0.54366 0.25653 0.38417 0.0
C2927 C 0.55787 0.27075 0.39035 0.0
C2928 C 0.53564 0.25793 0.36347 0.0
C2929 C 0.51988 0.22786 0.39268 0.0
C2930 C 0.5473 0.25317 0.34655 0.0
C2931 C 0.53954 0.25606 0.32714 0.0
C2932 C 0.52025 0.26423 0.32451 0.0
C2933 C 0.50874 0.26886 0.34155 0.0
C2934 C 0.5163 0.26569 0.36075 0.0
H2935 H 0.51902 0.21586 0.40421 0.0
H2936 H 0.50474 0.23462 0.39116 0.0
H2937 H 0.52404 0.22105 0.37806 0.0
H2938 H 0.56236 0.24738 0.34837 0.0
H2939 H 0.54875 0.25242 0.31427 0.0
H2940 H 0.05262 0.26494 0.73772 0.0
H2941 H 0.05525 0.27195 0.70208 0.0
H2942 H 0.04264 0.33444 0.71319 0.0
H2943 H 0.03937 0.32734 0.74911 0.0
H2944 H 0.01762 0.32007 0.68646 0.0
H2945 H 0.09317 0.29652 0.66324 0.0
H2946 H 0.08187 0.27679 0.67751 0.0
H2947 H 0.08684 0.30067 0.68924 0.0
C2948 C 0.05102 0.28032 0.73271 0.0
C2949 C 0.04565 0.29555 0.74627 0.0
C2950 C 0.05269 0.28435 0.71225 0.0
C2951 C 0.04934 0.30377 0.70485 0.0
C2952 C 0.04539 0.31934 0.71853 0.0
H2953 H 0.04828 0.3015 0.57261 0.0
H2954 H 0.05653 0.3139 0.60629 0.0
C2955 C 0.04366 0.31529 0.7391 0.0
C2956 C 0.04694 0.30686 0.68287 0.0
H2957 H 0.06675 0.29249 0.6379 0.0
C2958 C 0.02862 0.31453 0.67582 0.0
C2959 C 0.06133 0.30003 0.66883 0.0
C2960 C 0.08197 0.29327 0.67514 0.0
C2961 C 0.02368 0.314 0.65536 0.0
C2962 C 0.03718 0.30507 0.6416 0.0
C2963 C 0.05618 0.299 0.64842 0.0
C2964 C 0.03111 0.29982 0.62077 0.0
C2965 C 0.00376 0.32255 0.64884 0.0
C2966 C 0.01405 0.28791 0.61763 0.0
C2967 C 0.00923 0.281 0.59848 0.0
C2968 C 0.02155 0.28552 0.58197 0.0
C2969 C 0.03842 0.29783 0.58498 0.0
C2970 C 0.04318 0.30488 0.60423 0.0
H2971 H -0.00079 0.33522 0.65866 0.0
H2972 H 0.00422 0.32789 0.63308 0.0
H2973 H 0.99206 0.31079 0.65016 0.0
H2974 H 0.00482 0.28322 0.63014 0.0
H2975 H 0.99621 0.27145 0.5968 0.0
loop_
_geom_bond_atom_site_label_1
_geom_bond_atom_site_label_2
_geom_bond_distance
_geom_bond_site_symmetry_2
_ccdc_geom_bond_type
Co0 O3 1.970 . S
Co0 N17 1.989 . S
Co0 O25 1.967 1_545 S
Co0 O32 1.920 . S
Co1 O4 1.966 . S
Co1 N10 2.022 . S
Co1 N18 1.993 . S
Co1 O26 1.930 1_545 S
C2 O3 1.258 . S
C2 O4 1.263 . S
O3 Co0 1.970 . S
O3 C2 1.258 . S
O4 Co1 1.966 . S
O4 C2 1.263 . S
C5 O6 1.235 1_455 S
C5 O32 1.289 . S
O6 C5 1.235 1_655 S
C7 C9 1.400 . S
C7 N10 1.351 . S
C7 C12 1.501 . S
C8 C9 1.387 . S
C8 N11 1.341 . S
C9 C7 1.400 . S
C9 C8 1.387 . S
N10 Co1 2.022 . S
N10 C7 1.351 . S
N10 N11 1.365 . S
N11 C8 1.341 . S
N11 N10 1.365 . S
N11 H31 0.862 . S
C12 C7 1.501 . S
C12 H13 0.961 . S
C12 H14 0.961 . S
C12 H15 0.960 . S
H13 C12 0.961 . S
H14 C12 0.961 . S
H15 C12 0.960 . S
C16 N17 1.342 . S
C16 C20 1.401 . S
C16 C21 1.499 . S
N17 Co0 1.989 . S
N17 C16 1.342 . S
N17 N18 1.388 . S
N18 Co1 1.993 . S
N18 N17 1.388 . S
N18 C19 1.346 . S
C19 N18 1.346 . S
C19 C20 1.396 . S
C19 C29 1.510 . S
C20 C16 1.401 . S
C20 C19 1.396 . S
C21 C16 1.499 . S
C21 H22 0.959 . S
C21 H23 0.960 . S
C21 H24 0.961 . S
H22 C21 0.959 . S
H23 C21 0.960 . S
H24 C21 0.961 . S
O25 Co0 1.967 1_565 S
O25 C33 1.258 . S
O26 Co1 1.930 1_565 S
O26 C33 1.274 . S
H27 C29 0.959 . S
H28 C29 0.961 . S
C29 C19 1.510 . S
C29 H27 0.959 . S
C29 H28 0.961 . S
C29 H30 0.960 . S
H30 C29 0.960 . S
H31 N11 0.862 . S
O32 Co0 1.920 . S
O32 C5 1.289 . S
C33 O25 1.258 . S
C33 O26 1.274 . S
Co34 O37 1.970 . S
Co34 N51 1.989 1_556 S
Co34 O59 1.967 . S
Co34 O66 1.920 1_556 S
Co35 O38 1.966 . S
Co35 N44 2.022 . S
Co35 N52 1.993 . S
Co35 O60 1.941 . S
C36 O37 1.258 . S
C36 O38 1.263 . S
O37 Co34 1.970 . S
O37 C36 1.258 . S
O38 Co35 1.966 . S
O38 C36 1.263 . S
C39 O40 1.235 . S
C39 O66 1.289 . S
O40 C39 1.235 . S
C41 C43 1.400 . S
C41 N44 1.351 . S
C41 C46 1.501 . S
C42 C43 1.387 . S
C42 N45 1.341 . S
C43 C41 1.400 . S
C43 C42 1.387 . S
N44 Co35 2.022 . S
N44 C41 1.351 . S
N44 N45 1.365 . S
N45 C42 1.341 . S
N45 N44 1.365 . S
N45 H65 0.862 . S
C46 C41 1.501 . S
C46 H47 0.961 . S
C46 H48 0.961 . S
C46 H49 0.960 . S
H47 C46 0.961 . S
H48 C46 0.961 . S
H49 C46 0.960 . S
C50 N51 1.342 . S
C50 C54 1.401 . S
C50 C55 1.499 . S
N51 Co34 1.989 1_554 S
N51 C50 1.342 . S
N51 N52 1.388 1_554 S
N52 Co35 1.993 . S
N52 N51 1.388 1_556 S
N52 C53 1.346 . S
C53 N52 1.346 . S
C53 C54 1.396 1_556 S
C53 C63 1.510 . S
C54 C50 1.401 . S
C54 C53 1.396 1_554 S
C55 C50 1.499 . S
C55 H56 0.959 . S
C55 H57 0.960 . S
C55 H58 0.961 . S
H56 C55 0.959 . S
H57 C55 0.960 . S
H58 C55 0.961 . S
O59 Co34 1.967 . S
O59 C67 1.258 . S
O60 Co35 1.941 . S
O60 C67 1.266 . S
H61 C63 0.959 . S
H62 C63 0.961 . S
C63 C53 1.510 . S
C63 H61 0.959 . S
C63 H62 0.961 . S
C63 H64 0.960 . S
H64 C63 0.960 . S
H65 N45 0.862 . S
O66 Co34 1.920 1_554 S
O66 C39 1.289 . S
C67 O59 1.258 . S
C67 O60 1.266 . S
Co68 O71 1.970 . S
Co68 N85 1.989 . S
Co68 O93 1.967 . S
Co68 O100 1.920 . S
Co69 O72 1.966 . S
Co69 N78 2.022 . S
Co69 N86 1.993 . S
Co69 O94 1.941 . S
C70 O71 1.258 . S
C70 O72 1.263 . S
O71 Co68 1.970 . S
O71 C70 1.258 . S
O72 Co69 1.966 . S
O72 C70 1.263 . S
C73 O74 1.235 . S
C73 O100 1.289 . S
O74 C73 1.235 . S
C75 C77 1.400 . S
C75 N78 1.351 . S
C75 C80 1.501 . S
C76 C77 1.387 . S
C76 N79 1.341 . S
C77 C75 1.400 . S
C77 C76 1.387 . S
N78 Co69 2.022 . S
N78 C75 1.351 . S
N78 N79 1.365 . S
N79 C76 1.341 . S
N79 N78 1.365 . S
N79 H99 0.862 . S
C80 C75 1.501 . S
C80 H81 0.961 . S
C80 H82 0.961 . S
C80 H83 0.960 . S
H81 C80 0.961 . S
H82 C80 0.961 . S
H83 C80 0.960 . S
C84 N85 1.342 . S
C84 C88 1.401 1_545 S
C84 C89 1.499 . S
N85 Co68 1.989 . S
N85 C84 1.342 . S
N85 N86 1.388 . S
N86 Co69 1.993 . S
N86 N85 1.388 . S
N86 C87 1.369 . S
C87 N86 1.369 . S
C87 C88 1.389 1_545 S
C87 C97 1.497 1_545 S
C88 C84 1.401 1_565 S
C88 C87 1.389 1_565 S
C89 C84 1.499 . S
C89 H90 0.959 . S
C89 H91 0.960 . S
C89 H92 0.961 . S
H90 C89 0.959 . S
H91 C89 0.960 . S
H92 C89 0.961 . S
O93 Co68 1.967 . S
O93 C101 1.258 . S
O94 Co69 1.941 . S
O94 C101 1.266 . S
H95 C97 0.959 . S
H96 C97 0.961 . S
C97 C87 1.497 1_565 S
C97 H95 0.959 . S
C97 H96 0.961 . S
C97 H98 0.960 . S
H98 C97 0.960 . S
H99 N79 0.862 . S
O100 Co68 1.920 . S
O100 C73 1.289 . S
C101 O93 1.258 . S
C101 O94 1.266 . S
Co102 O105 1.970 . S
Co102 N119 1.989 . S
Co102 O127 1.967 . S
Co102 O134 1.920 . S
Co103 O106 1.966 . S
Co103 N112 2.022 . S
Co103 N120 1.993 . S
Co103 O128 1.941 . S
C104 O105 1.258 . S
C104 O106 1.263 . S
O105 Co102 1.970 . S
O105 C104 1.258 . S
O106 Co103 1.966 . S
O106 C104 1.263 . S
C107 O108 1.235 . S
C107 O134 1.289 . S
O108 C107 1.235 . S
C109 C111 1.400 . S
C109 N112 1.351 . S
C109 C114 1.501 . S
C110 C111 1.387 . S
C110 N113 1.341 . S
C111 C109 1.400 . S
C111 C110 1.387 . S
N112 Co103 2.022 . S
N112 C109 1.351 . S
N112 N113 1.365 . S
N113 C110 1.341 . S
N113 N112 1.365 . S
N113 H133 0.862 . S
C114 C109 1.501 . S
C114 H115 0.961 . S
C114 H116 0.961 . S
C114 H117 0.960 . S
H115 C114 0.961 . S
H116 C114 0.961 . S
H117 C114 0.960 . S
C118 N119 1.342 . S
C118 C122 1.401 . S
C118 C123 1.499 . S
N119 Co102 1.989 . S
N119 C118 1.342 . S
N119 N120 1.388 . S
N120 Co103 1.993 . S
N120 N119 1.388 . S
N120 C121 1.346 . S
C121 N120 1.346 . S
C121 C122 1.396 . S
C121 C131 1.510 . S
C122 C118 1.401 . S
C122 C121 1.396 . S
C123 C118 1.499 . S
C123 H124 0.959 . S
C123 H125 0.960 . S
C123 H126 0.961 . S
H124 C123 0.959 . S
H125 C123 0.960 . S
H126 C123 0.961 . S
O127 Co102 1.967 . S
O127 C135 1.258 . S
O128 Co103 1.941 . S
O128 C135 1.266 . S
H129 C131 0.959 . S
H130 C131 0.961 . S
C131 C121 1.510 . S
C131 H129 0.959 . S
C131 H130 0.961 . S
C131 H132 0.960 . S
H132 C131 0.960 . S
H133 N113 0.862 . S
O134 Co102 1.920 . S
O134 C107 1.289 . S
C135 O127 1.258 . S
C135 O128 1.266 . S
Co136 O139 1.970 . S
Co136 N153 1.989 . S
Co136 O161 1.967 . S
Co136 O168 1.920 . S
Co137 O140 1.966 . S
Co137 N146 2.022 . S
Co137 N154 1.993 . S
Co137 O162 1.941 . S
C138 O139 1.258 . S
C138 O140 1.263 . S
O139 Co136 1.970 . S
O139 C138 1.258 . S
O140 Co137 1.966 . S
O140 C138 1.263 . S
C141 O142 1.235 . S
C141 O168 1.289 . S
O142 C141 1.235 . S
C143 C145 1.400 . S
C143 N146 1.351 . S
C143 C148 1.501 . S
C144 C145 1.387 . S
C144 N147 1.341 . S
C145 C143 1.400 . S
C145 C144 1.387 . S
N146 Co137 2.022 . S
N146 C143 1.351 . S
N146 N147 1.365 . S
N147 C144 1.341 . S
N147 N146 1.365 . S
N147 H167 0.862 . S
C148 C143 1.501 . S
C148 H149 0.961 . S
C148 H150 0.961 . S
C148 H151 0.960 . S
H149 C148 0.961 . S
H150 C148 0.961 . S
H151 C148 0.960 . S
C152 N153 1.342 . S
C152 C156 1.401 . S
C152 C157 1.499 . S
N153 Co136 1.989 . S
N153 C152 1.342 . S
N153 N154 1.388 . S
N154 Co137 1.993 . S
N154 N153 1.388 . S
N154 C155 1.346 . S
C155 N154 1.346 . S
C155 C156 1.396 . S
C155 C165 1.510 . S
C156 C152 1.401 . S
C156 C155 1.396 . S
C157 C152 1.499 . S
C157 H158 0.959 . S
C157 H159 0.960 . S
C157 H160 0.961 . S
H158 C157 0.959 . S
H159 C157 0.960 . S
H160 C157 0.961 . S
O161 Co136 1.967 . S
O161 C169 1.258 . S
O162 Co137 1.941 . S
O162 C169 1.266 . S
H163 C165 0.959 . S
H164 C165 0.961 . S
C165 C155 1.510 . S
C165 H163 0.959 . S
C165 H164 0.961 . S
C165 H166 0.960 . S
H166 C165 0.960 . S
H167 N147 0.862 . S
O168 Co136 1.920 . S
O168 C141 1.289 . S
C169 O161 1.258 . S
C169 O162 1.266 . S
Co170 O173 1.970 . S
Co170 N187 1.989 . S
Co170 O195 1.967 . S
Co170 O202 1.920 . S
Co171 O174 1.966 . S
Co171 N180 2.022 . S
Co171 N188 1.993 . S
Co171 O196 1.941 . S
C172 O173 1.258 . S
C172 O174 1.263 . S
O173 Co170 1.970 . S
O173 C172 1.258 . S
O174 Co171 1.966 . S
O174 C172 1.263 . S
C175 O176 1.235 . S
C175 O202 1.289 . S
O176 C175 1.235 . S
C177 C179 1.400 . S
C177 N180 1.351 . S
C177 C182 1.501 . S
C178 C179 1.387 . S
C178 N181 1.341 . S
C179 C177 1.400 . S
C179 C178 1.387 . S
N180 Co171 2.022 . S
N180 C177 1.351 . S
N180 N181 1.365 . S
N181 C178 1.341 . S
N181 N180 1.365 . S
N181 H201 0.862 . S
C182 C177 1.501 . S
C182 H183 0.961 . S
C182 H184 0.961 . S
C182 H185 0.960 . S
H183 C182 0.961 . S
H184 C182 0.961 . S
H185 C182 0.960 . S
C186 N187 1.342 . S
C186 C190 1.401 . S
C186 C191 1.499 . S
N187 Co170 1.989 . S
N187 C186 1.342 . S
N187 N188 1.388 . S
N188 Co171 1.993 . S
N188 N187 1.388 . S
N188 C189 1.346 . S
C189 N188 1.346 . S
C189 C190 1.396 . S
C189 C199 1.510 . S
C190 C186 1.401 . S
C190 C189 1.396 . S
C191 C186 1.499 . S
C191 H192 0.959 . S
C191 H193 0.960 . S
C191 H194 0.961 . S
H192 C191 0.959 . S
H193 C191 0.960 . S
H194 C191 0.961 . S
O195 Co170 1.967 . S
O195 C203 1.258 . S
O196 Co171 1.941 . S
O196 C203 1.266 . S
H197 C199 0.959 . S
H198 C199 0.961 . S
C199 C189 1.510 . S
C199 H197 0.959 . S
C199 H198 0.961 . S
C199 H200 0.960 . S
H200 C199 0.960 . S
H201 N181 0.862 . S
O202 Co170 1.920 . S
O202 C175 1.289 . S
C203 O195 1.258 . S
C203 O196 1.266 . S
Co204 O207 1.970 . S
Co204 N221 1.989 . S
Co204 O229 1.967 . S
Co204 O236 1.920 . S
Co205 O208 1.966 1_655 S
Co205 N214 2.022 . S
Co205 N222 2.003 . S
Co205 O230 1.941 . S
C206 O207 1.258 . S
C206 O208 1.263 . S
O207 Co204 1.970 . S
O207 C206 1.258 . S
O208 Co205 1.966 1_455 S
O208 C206 1.263 . S
C209 O210 1.235 . S
C209 O236 1.289 . S
O210 C209 1.235 . S
C211 C213 1.400 . S
C211 N214 1.351 . S
C211 C216 1.501 . S
C212 C213 1.387 . S
C212 N215 1.341 . S
C213 C211 1.400 . S
C213 C212 1.387 . S
N214 Co205 2.022 . S
N214 C211 1.351 . S
N214 N215 1.365 . S
N215 C212 1.341 . S
N215 N214 1.365 . S
N215 H235 0.862 . S
C216 C211 1.501 . S
C216 H217 0.966 . S
C216 H218 0.961 . S
C216 H219 0.960 . S
H217 C216 0.966 . S
H218 C216 0.961 . S
H219 C216 0.960 . S
C220 N221 1.342 . S
C220 C224 1.430 . S
C220 C225 1.499 . S
N221 Co204 1.989 . S
N221 C220 1.342 . S
N221 N222 1.367 1_455 S
N222 Co205 2.003 . S
N222 N221 1.367 1_655 S
N222 C223 1.357 . S
C223 N222 1.357 . S
C223 C224 1.378 1_655 S
C223 C233 1.510 . S
C224 C220 1.430 . S
C224 C223 1.378 1_455 S
C225 C220 1.499 . S
C225 H226 0.959 . S
C225 H227 0.960 . S
C225 H228 0.961 . S
H226 C225 0.959 . S
H227 C225 0.960 . S
H228 C225 0.961 . S
O229 Co204 1.967 . S
O229 C237 1.258 1_455 S
O230 Co205 1.941 . S
O230 C237 1.266 . S
H231 C233 0.959 . S
H232 C233 0.961 . S
C233 C223 1.510 . S
C233 H231 0.959 . S
C233 H232 0.961 . S
C233 H234 0.960 . S
H234 C233 0.960 . S
H235 N215 0.862 . S
O236 Co204 1.920 . S
O236 C209 1.289 . S
C237 O229 1.258 1_655 S
C237 O230 1.266 . S
Co238 O241 1.970 . S
Co238 N255 1.989 . S
Co238 O263 1.967 . S
Co238 O270 1.920 . S
Co239 O242 1.966 . S
Co239 N248 2.022 . S
Co239 N256 1.993 . S
Co239 O264 1.941 . S
C240 O241 1.258 . S
C240 O242 1.263 . S
O241 Co238 1.970 . S
O241 C240 1.258 . S
O242 Co239 1.966 . S
O242 C240 1.263 . S
C243 O244 1.235 . S
C243 O270 1.289 . S
O244 C243 1.235 . S
C245 C247 1.400 . S
C245 N248 1.351 . S
C245 C250 1.501 . S
C246 C247 1.387 . S
C246 N249 1.341 . S
C247 C245 1.400 . S
C247 C246 1.387 . S
N248 Co239 2.022 . S
N248 C245 1.351 . S
N248 N249 1.365 . S
N249 C246 1.341 . S
N249 N248 1.365 . S
N249 H269 0.862 . S
C250 C245 1.501 . S
C250 H251 0.961 . S
C250 H252 0.961 . S
C250 H253 0.960 . S
H251 C250 0.961 . S
H252 C250 0.961 . S
H253 C250 0.960 . S
C254 N255 1.342 . S
C254 C258 1.401 . S
C254 C259 1.499 . S
N255 Co238 1.989 . S
N255 C254 1.342 . S
N255 N256 1.388 . S
N256 Co239 1.993 . S
N256 N255 1.388 . S
N256 C257 1.346 . S
C257 N256 1.346 . S
C257 C258 1.396 . S
C257 C267 1.510 . S
C258 C254 1.401 . S
C258 C257 1.396 . S
C259 C254 1.499 . S
C259 H260 0.959 . S
C259 H261 0.960 . S
C259 H262 0.961 . S
H260 C259 0.959 . S
H261 C259 0.960 . S
H262 C259 0.961 . S
O263 Co238 1.967 . S
O263 C271 1.258 . S
O264 Co239 1.941 . S
O264 C271 1.266 . S
H265 C267 0.959 . S
H266 C267 0.961 . S
C267 C257 1.510 . S
C267 H265 0.959 . S
C267 H266 0.961 . S
C267 H268 0.960 . S
H268 C267 0.960 . S
H269 N249 0.862 . S
O270 Co238 1.920 . S
O270 C243 1.289 . S
C271 O263 1.258 . S
C271 O264 1.266 . S
Co272 O275 1.970 . S
Co272 N289 1.989 . S
Co272 O297 1.967 1_554 S
Co272 O304 1.920 . S
Co273 O276 1.966 . S
Co273 N282 2.022 . S
Co273 N290 1.993 . S
Co273 O298 1.930 1_554 S
C274 O275 1.258 . S
C274 O276 1.263 . S
O275 Co272 1.970 . S
O275 C274 1.258 . S
O276 Co273 1.966 . S
O276 C274 1.263 . S
C277 O278 1.235 1_545 S
C277 O304 1.289 . S
O278 C277 1.235 1_565 S
C279 C281 1.400 . S
C279 N282 1.351 . S
C279 C284 1.501 . S
C280 C281 1.387 . S
C280 N283 1.341 . S
C281 C279 1.400 . S
C281 C280 1.387 . S
N282 Co273 2.022 . S
N282 C279 1.351 . S
N282 N283 1.365 . S
N283 C280 1.341 . S
N283 N282 1.365 . S
N283 H303 0.862 . S
C284 C279 1.501 . S
C284 H285 0.961 . S
C284 H286 0.961 . S
C284 H287 0.960 . S
H285 C284 0.961 . S
H286 C284 0.961 . S
H287 C284 0.960 . S
C288 N289 1.342 . S
C288 C292 1.401 . S
C288 C293 1.499 . S
N289 Co272 1.989 . S
N289 C288 1.342 . S
N289 N290 1.388 . S
N290 Co273 1.993 . S
N290 N289 1.388 . S
N290 C291 1.346 . S
C291 N290 1.346 . S
C291 C292 1.396 . S
C291 C301 1.510 . S
C292 C288 1.401 . S
C292 C291 1.396 . S
C293 C288 1.499 . S
C293 H294 0.959 . S
C293 H295 0.960 . S
C293 H296 0.961 . S
H294 C293 0.959 . S
H295 C293 0.960 . S
H296 C293 0.961 . S
O297 Co272 1.967 1_556 S
O297 C305 1.258 . S
O298 Co273 1.930 1_556 S
O298 C305 1.274 . S
H299 C301 0.959 . S
H300 C301 0.961 . S
C301 C291 1.510 . S
C301 H299 0.959 . S
C301 H300 0.961 . S
C301 H302 0.960 . S
H302 C301 0.960 . S
H303 N283 0.862 . S
O304 Co272 1.920 . S
O304 C277 1.289 . S
C305 O297 1.258 . S
C305 O298 1.274 . S
Co306 O309 1.970 . S
Co306 N323 1.989 . S
Co306 O331 1.967 . S
Co306 O338 1.920 . S
Co307 O310 1.966 . S
Co307 N316 2.022 . S
Co307 N324 1.993 . S
Co307 O332 1.941 . S
C308 O309 1.258 . S
C308 O310 1.263 . S
O309 Co306 1.970 . S
O309 C308 1.258 . S
O310 Co307 1.966 . S
O310 C308 1.263 . S
C311 O312 1.235 . S
C311 O338 1.289 . S
O312 C311 1.235 . S
C313 C315 1.400 . S
C313 N316 1.351 . S
C313 C318 1.501 . S
C314 C315 1.387 . S
C314 N317 1.341 . S
C315 C313 1.400 . S
C315 C314 1.387 . S
N316 Co307 2.022 . S
N316 C313 1.351 . S
N316 N317 1.365 . S
N317 C314 1.341 . S
N317 N316 1.365 . S
N317 H337 0.862 . S
C318 C313 1.501 . S
C318 H319 0.961 . S
C318 H320 0.961 . S
C318 H321 0.960 . S
H319 C318 0.961 . S
H320 C318 0.961 . S
H321 C318 0.960 . S
C322 N323 1.342 . S
C322 C326 1.401 . S
C322 C327 1.499 . S
N323 Co306 1.989 . S
N323 C322 1.342 . S
N323 N324 1.388 . S
N324 Co307 1.993 . S
N324 N323 1.388 . S
N324 C325 1.346 . S
C325 N324 1.346 . S
C325 C326 1.396 . S
C325 C335 1.510 . S
C326 C322 1.401 . S
C326 C325 1.396 . S
C327 C322 1.499 . S
C327 H328 0.959 . S
C327 H329 0.960 . S
C327 H330 0.961 . S
H328 C327 0.959 . S
H329 C327 0.960 . S
H330 C327 0.961 . S
O331 Co306 1.967 . S
O331 C339 1.258 . S
O332 Co307 1.941 . S
O332 C339 1.266 . S
H333 C335 0.959 . S
H334 C335 0.961 . S
C335 C325 1.510 . S
C335 H333 0.959 . S
C335 H334 0.961 . S
C335 H336 0.960 . S
H336 C335 0.960 . S
H337 N317 0.862 . S
O338 Co306 1.920 . S
O338 C311 1.289 . S
C339 O331 1.258 . S
C339 O332 1.266 . S
Co340 O343 1.970 . S
Co340 N357 1.989 . S
Co340 O365 1.967 . S
Co340 O372 1.920 . S
Co341 O344 1.966 1_565 S
Co341 N350 2.022 . S
Co341 N358 2.003 . S
Co341 O366 1.941 . S
C342 O343 1.258 . S
C342 O344 1.263 . S
O343 Co340 1.970 . S
O343 C342 1.258 . S
O344 Co341 1.966 1_545 S
O344 C342 1.263 . S
C345 O346 1.235 . S
C345 O372 1.289 . S
O346 C345 1.235 . S
C347 C349 1.400 . S
C347 N350 1.351 . S
C347 C352 1.501 . S
C348 C349 1.387 . S
C348 N351 1.341 . S
C349 C347 1.400 . S
C349 C348 1.387 . S
N350 Co341 2.022 . S
N350 C347 1.351 . S
N350 N351 1.365 . S
N351 C348 1.341 . S
N351 N350 1.365 . S
N351 H371 0.862 . S
C352 C347 1.501 . S
C352 H353 0.966 . S
C352 H354 0.961 . S
C352 H355 0.960 . S
H353 C352 0.966 . S
H354 C352 0.961 . S
H355 C352 0.960 . S
C356 N357 1.342 . S
C356 C360 1.430 . S
C356 C361 1.499 . S
N357 Co340 1.989 . S
N357 C356 1.342 . S
N357 N358 1.367 1_545 S
N358 Co341 2.003 . S
N358 N357 1.367 1_565 S
N358 C359 1.357 . S
C359 N358 1.357 . S
C359 C360 1.378 1_565 S
C359 C369 1.510 . S
C360 C356 1.430 . S
C360 C359 1.378 1_545 S
C361 C356 1.499 . S
C361 H362 0.959 . S
C361 H363 0.960 . S
C361 H364 0.961 . S
H362 C361 0.959 . S
H363 C361 0.960 . S
H364 C361 0.961 . S
O365 Co340 1.967 . S
O365 C373 1.258 1_545 S
O366 Co341 1.941 . S
O366 C373 1.266 . S
H367 C369 0.959 . S
H368 C369 0.961 . S
C369 C359 1.510 . S
C369 H367 0.959 . S
C369 H368 0.961 . S
C369 H370 0.960 . S
H370 C369 0.960 . S
H371 N351 0.862 . S
O372 Co340 1.920 . S
O372 C345 1.289 . S
C373 O365 1.258 1_565 S
C373 O366 1.266 . S
Co374 O377 1.970 . S
Co374 N391 1.989 . S
Co374 O399 1.967 . S
Co374 O406 1.920 . S
Co375 O378 1.966 . S
Co375 N384 2.022 . S
Co375 N392 1.993 . S
Co375 O400 1.941 . S
C376 O377 1.258 . S
C376 O378 1.263 . S
O377 Co374 1.970 . S
O377 C376 1.258 . S
O378 Co375 1.966 . S
O378 C376 1.263 . S
C379 O380 1.235 . S
C379 O406 1.289 . S
O380 C379 1.235 . S
C381 C383 1.400 . S
C381 N384 1.351 . S
C381 C386 1.501 . S
C382 C383 1.387 . S
C382 N385 1.341 . S
C383 C381 1.400 . S
C383 C382 1.387 . S
N384 Co375 2.022 . S
N384 C381 1.351 . S
N384 N385 1.365 . S
N385 C382 1.341 . S
N385 N384 1.365 . S
N385 H405 0.862 . S
C386 C381 1.501 . S
C386 H387 0.961 . S
C386 H388 0.961 . S
C386 H389 0.960 . S
H387 C386 0.961 . S
H388 C386 0.961 . S
H389 C386 0.960 . S
C390 N391 1.342 . S
C390 C394 1.401 . S
C390 C395 1.499 . S
N391 Co374 1.989 . S
N391 C390 1.342 . S
N391 N392 1.388 . S
N392 Co375 1.993 . S
N392 N391 1.388 . S
N392 C393 1.346 . S
C393 N392 1.346 . S
C393 C394 1.396 . S
C393 C403 1.510 . S
C394 C390 1.401 . S
C394 C393 1.396 . S
C395 C390 1.499 . S
C395 H396 0.959 . S
C395 H397 0.960 . S
C395 H398 0.961 . S
H396 C395 0.959 . S
H397 C395 0.960 . S
H398 C395 0.961 . S
O399 Co374 1.967 . S
O399 C407 1.258 . S
O400 Co375 1.941 . S
O400 C407 1.266 . S
H401 C403 0.959 . S
H402 C403 0.961 . S
C403 C393 1.510 . S
C403 H401 0.959 . S
C403 H402 0.961 . S
C403 H404 0.960 . S
H404 C403 0.960 . S
H405 N385 0.862 . S
O406 Co374 1.920 . S
O406 C379 1.289 . S
C407 O399 1.258 . S
C407 O400 1.266 . S
Co408 O411 1.970 . S
Co408 N425 1.989 . S
Co408 O433 1.967 . S
Co408 O440 1.920 . S
Co409 O412 1.966 . S
Co409 N418 2.022 . S
Co409 N426 1.993 . S
Co409 O434 1.941 . S
C410 O411 1.258 . S
C410 O412 1.263 . S
O411 Co408 1.970 . S
O411 C410 1.258 . S
O412 Co409 1.966 . S
O412 C410 1.263 . S
C413 O414 1.235 . S
C413 O440 1.289 . S
O414 C413 1.235 . S
C415 C417 1.400 . S
C415 N418 1.351 . S
C415 C420 1.501 . S
C416 C417 1.387 . S
C416 N419 1.341 . S
C417 C415 1.400 . S
C417 C416 1.387 . S
N418 Co409 2.022 . S
N418 C415 1.351 . S
N418 N419 1.365 . S
N419 C416 1.341 . S
N419 N418 1.365 . S
N419 H439 0.862 . S
C420 C415 1.501 . S
C420 H421 0.961 . S
C420 H422 0.961 . S
C420 H423 0.960 . S
H421 C420 0.961 . S
H422 C420 0.961 . S
H423 C420 0.960 . S
C424 N425 1.342 . S
C424 C428 1.401 1_554 S
C424 C429 1.499 . S
N425 Co408 1.989 . S
N425 C424 1.342 . S
N425 N426 1.388 . S
N426 Co409 1.993 . S
N426 N425 1.388 . S
N426 C427 1.369 . S
C427 N426 1.369 . S
C427 C428 1.389 1_554 S
C427 C437 1.497 1_554 S
C428 C424 1.401 1_556 S
C428 C427 1.389 1_556 S
C429 C424 1.499 . S
C429 H430 0.959 . S
C429 H431 0.960 . S
C429 H432 0.961 . S
H430 C429 0.959 . S
H431 C429 0.960 . S
H432 C429 0.961 . S
O433 Co408 1.967 . S
O433 C441 1.258 . S
O434 Co409 1.941 . S
O434 C441 1.266 . S
H435 C437 0.959 . S
H436 C437 0.961 . S
C437 C427 1.497 1_556 S
C437 H435 0.959 . S
C437 H436 0.961 . S
C437 H438 0.960 . S
H438 C437 0.960 . S
H439 N419 0.862 . S
O440 Co408 1.920 . S
O440 C413 1.289 . S
C441 O433 1.258 . S
C441 O434 1.266 . S
Co442 O445 1.970 . S
Co442 N459 1.989 1_565 S
Co442 O467 1.967 . S
Co442 O474 1.920 1_565 S
Co443 O446 1.966 . S
Co443 N452 2.022 . S
Co443 N460 1.993 . S
Co443 O468 1.941 . S
C444 O445 1.258 . S
C444 O446 1.263 . S
O445 Co442 1.970 . S
O445 C444 1.258 . S
O446 Co443 1.966 . S
O446 C444 1.263 . S
C447 O448 1.235 . S
C447 O474 1.289 . S
O448 C447 1.235 . S
C449 C451 1.400 . S
C449 N452 1.351 . S
C449 C454 1.501 . S
C450 C451 1.387 . S
C450 N453 1.341 . S
C451 C449 1.400 . S
C451 C450 1.387 . S
N452 Co443 2.022 . S
N452 C449 1.351 . S
N452 N453 1.365 . S
N453 C450 1.341 . S
N453 N452 1.365 . S
N453 H473 0.862 . S
C454 C449 1.501 . S
C454 H455 0.961 . S
C454 H456 0.961 . S
C454 H457 0.960 . S
H455 C454 0.961 . S
H456 C454 0.961 . S
H457 C454 0.960 . S
C458 N459 1.342 . S
C458 C462 1.401 . S
C458 C463 1.499 . S
N459 Co442 1.989 1_545 S
N459 C458 1.342 . S
N459 N460 1.388 1_545 S
N460 Co443 1.993 . S
N460 N459 1.388 1_565 S
N460 C461 1.346 . S
C461 N460 1.346 . S
C461 C462 1.396 1_565 S
C461 C471 1.510 . S
C462 C458 1.401 . S
C462 C461 1.396 1_545 S
C463 C458 1.499 . S
C463 H464 0.959 . S
C463 H465 0.960 . S
C463 H466 0.961 . S
H464 C463 0.959 . S
H465 C463 0.960 . S
H466 C463 0.961 . S
O467 Co442 1.967 . S
O467 C475 1.258 . S
O468 Co443 1.941 . S
O468 C475 1.266 . S
H469 C471 0.959 . S
H470 C471 0.961 . S
C471 C461 1.510 . S
C471 H469 0.959 . S
C471 H470 0.961 . S
C471 H472 0.960 . S
H472 C471 0.960 . S
H473 N453 0.862 . S
O474 Co442 1.920 1_545 S
O474 C447 1.289 . S
C475 O467 1.258 . S
C475 O468 1.266 . S
Co476 O479 1.970 . S
Co476 N493 1.989 . S
Co476 O501 1.967 . S
Co476 O508 1.920 . S
Co477 O480 1.966 . S
Co477 N486 2.022 . S
Co477 N494 1.993 . S
Co477 O502 1.941 . S
C478 O479 1.258 . S
C478 O480 1.263 . S
O479 Co476 1.970 . S
O479 C478 1.258 . S
O480 Co477 1.966 . S
O480 C478 1.263 . S
C481 O482 1.235 . S
C481 O508 1.289 . S
O482 C481 1.235 . S
C483 C485 1.400 . S
C483 N486 1.351 . S
C483 C488 1.501 . S
C484 C485 1.387 . S
C484 N487 1.341 . S
C485 C483 1.400 . S
C485 C484 1.387 . S
N486 Co477 2.022 . S
N486 C483 1.351 . S
N486 N487 1.365 . S
N487 C484 1.341 . S
N487 N486 1.365 . S
N487 H507 0.862 . S
C488 C483 1.501 . S
C488 H489 0.961 . S
C488 H490 0.961 . S
C488 H491 0.960 . S
H489 C488 0.961 . S
H490 C488 0.961 . S
H491 C488 0.960 . S
C492 N493 1.342 . S
C492 C496 1.401 . S
C492 C497 1.499 . S
N493 Co476 1.989 . S
N493 C492 1.342 . S
N493 N494 1.388 . S
N494 Co477 1.993 . S
N494 N493 1.388 . S
N494 C495 1.346 . S
C495 N494 1.346 . S
C495 C496 1.396 . S
C495 C505 1.510 . S
C496 C492 1.401 . S
C496 C495 1.396 . S
C497 C492 1.499 . S
C497 H498 0.959 . S
C497 H499 0.960 . S
C497 H500 0.961 . S
H498 C497 0.959 . S
H499 C497 0.960 . S
H500 C497 0.961 . S
O501 Co476 1.967 . S
O501 C509 1.258 . S
O502 Co477 1.941 . S
O502 C509 1.266 . S
H503 C505 0.959 . S
H504 C505 0.961 . S
C505 C495 1.510 . S
C505 H503 0.959 . S
C505 H504 0.961 . S
C505 H506 0.960 . S
H506 C505 0.960 . S
H507 N487 0.862 . S
O508 Co476 1.920 . S
O508 C481 1.289 . S
C509 O501 1.258 . S
C509 O502 1.266 . S
Co510 O513 1.970 . S
Co510 N527 1.989 . S
Co510 O535 1.967 . S
Co510 O542 1.920 . S
Co511 O514 1.966 . S
Co511 N520 2.022 . S
Co511 N528 1.993 . S
Co511 O536 1.941 . S
C512 O513 1.258 . S
C512 O514 1.263 . S
O513 Co510 1.970 . S
O513 C512 1.258 . S
O514 Co511 1.966 . S
O514 C512 1.263 . S
C515 O516 1.235 . S
C515 O542 1.289 . S
O516 C515 1.235 . S
C517 C519 1.400 . S
C517 N520 1.351 . S
C517 C522 1.501 . S
C518 C519 1.387 . S
C518 N521 1.341 . S
C519 C517 1.400 . S
C519 C518 1.387 . S
N520 Co511 2.022 . S
N520 C517 1.351 . S
N520 N521 1.365 . S
N521 C518 1.341 . S
N521 N520 1.365 . S
N521 H541 0.862 . S
C522 C517 1.501 . S
C522 H523 0.961 . S
C522 H524 0.961 . S
C522 H525 0.960 . S
H523 C522 0.961 . S
H524 C522 0.961 . S
H525 C522 0.960 . S
C526 N527 1.342 . S
C526 C530 1.401 . S
C526 C531 1.499 . S
N527 Co510 1.989 . S
N527 C526 1.342 . S
N527 N528 1.388 . S
N528 Co511 1.993 . S
N528 N527 1.388 . S
N528 C529 1.346 . S
C529 N528 1.346 . S
C529 C530 1.396 . S
C529 C539 1.510 . S
C530 C526 1.401 . S
C530 C529 1.396 . S
C531 C526 1.499 . S
C531 H532 0.959 . S
C531 H533 0.960 . S
C531 H534 0.961 . S
H532 C531 0.959 . S
H533 C531 0.960 . S
H534 C531 0.961 . S
O535 Co510 1.967 . S
O535 C543 1.258 . S
O536 Co511 1.941 . S
O536 C543 1.266 . S
H537 C539 0.959 . S
H538 C539 0.961 . S
C539 C529 1.510 . S
C539 H537 0.959 . S
C539 H538 0.961 . S
C539 H540 0.960 . S
H540 C539 0.960 . S
H541 N521 0.862 . S
O542 Co510 1.920 . S
O542 C515 1.289 . S
C543 O535 1.258 . S
C543 O536 1.266 . S
Co544 O547 1.970 . S
Co544 N561 1.989 . S
Co544 O569 1.967 1_455 S
Co544 O576 1.920 . S
Co545 O548 1.966 . S
Co545 N554 2.022 . S
Co545 N562 1.993 . S
Co545 O570 1.930 1_455 S
C546 O547 1.258 . S
C546 O548 1.263 . S
O547 Co544 1.970 . S
O547 C546 1.258 . S
O548 Co545 1.966 . S
O548 C546 1.263 . S
C549 O550 1.235 1_554 S
C549 O576 1.289 . S
O550 C549 1.235 1_556 S
C551 C553 1.400 . S
C551 N554 1.351 . S
C551 C556 1.501 . S
C552 C553 1.387 . S
C552 N555 1.341 . S
C553 C551 1.400 . S
C553 C552 1.387 . S
N554 Co545 2.022 . S
N554 C551 1.351 . S
N554 N555 1.365 . S
N555 C552 1.341 . S
N555 N554 1.365 . S
N555 H575 0.862 . S
C556 C551 1.501 . S
C556 H557 0.961 . S
C556 H558 0.961 . S
C556 H559 0.960 . S
H557 C556 0.961 . S
H558 C556 0.961 . S
H559 C556 0.960 . S
C560 N561 1.342 . S
C560 C564 1.401 . S
C560 C565 1.499 . S
N561 Co544 1.989 . S
N561 C560 1.342 . S
N561 N562 1.388 . S
N562 Co545 1.993 . S
N562 N561 1.388 . S
N562 C563 1.346 . S
C563 N562 1.346 . S
C563 C564 1.396 . S
C563 C573 1.510 . S
C564 C560 1.401 . S
C564 C563 1.396 . S
C565 C560 1.499 . S
C565 H566 0.959 . S
C565 H567 0.960 . S
C565 H568 0.961 . S
H566 C565 0.959 . S
H567 C565 0.960 . S
H568 C565 0.961 . S
O569 Co544 1.967 1_655 S
O569 C577 1.258 . S
O570 Co545 1.930 1_655 S
O570 C577 1.274 . S
H571 C573 0.959 . S
H572 C573 0.961 . S
C573 C563 1.510 . S
C573 H571 0.959 . S
C573 H572 0.961 . S
C573 H574 0.960 . S
H574 C573 0.960 . S
H575 N555 0.862 . S
O576 Co544 1.920 . S
O576 C549 1.289 . S
C577 O569 1.258 . S
C577 O570 1.274 . S
Co578 O581 1.970 . S
Co578 N595 1.989 . S
Co578 O603 1.967 . S
Co578 O610 1.920 . S
Co579 O582 1.966 1_556 S
Co579 N588 2.022 . S
Co579 N596 2.003 . S
Co579 O604 1.941 . S
C580 O581 1.258 . S
C580 O582 1.263 . S
O581 Co578 1.970 . S
O581 C580 1.258 . S
O582 Co579 1.966 1_554 S
O582 C580 1.263 . S
C583 O584 1.235 . S
C583 O610 1.289 . S
O584 C583 1.235 . S
C585 C587 1.400 . S
C585 N588 1.351 . S
C585 C590 1.501 . S
C586 C587 1.387 . S
C586 N589 1.341 . S
C587 C585 1.400 . S
C587 C586 1.387 . S
N588 Co579 2.022 . S
N588 C585 1.351 . S
N588 N589 1.365 . S
N589 C586 1.341 . S
N589 N588 1.365 . S
N589 H609 0.862 . S
C590 C585 1.501 . S
C590 H591 0.966 . S
C590 H592 0.961 . S
C590 H593 0.960 . S
H591 C590 0.966 . S
H592 C590 0.961 . S
H593 C590 0.960 . S
C594 N595 1.342 . S
C594 C598 1.430 . S
C594 C599 1.499 . S
N595 Co578 1.989 . S
N595 C594 1.342 . S
N595 N596 1.367 1_554 S
N596 Co579 2.003 . S
N596 N595 1.367 1_556 S
N596 C597 1.357 . S
C597 N596 1.357 . S
C597 C598 1.378 1_556 S
C597 C607 1.510 . S
C598 C594 1.430 . S
C598 C597 1.378 1_554 S
C599 C594 1.499 . S
C599 H600 0.959 . S
C599 H601 0.960 . S
C599 H602 0.961 . S
H600 C599 0.959 . S
H601 C599 0.960 . S
H602 C599 0.961 . S
O603 Co578 1.967 . S
O603 C611 1.258 1_554 S
O604 Co579 1.941 . S
O604 C611 1.266 . S
H605 C607 0.959 . S
H606 C607 0.961 . S
C607 C597 1.510 . S
C607 H605 0.959 . S
C607 H606 0.961 . S
C607 H608 0.960 . S
H608 C607 0.960 . S
H609 N589 0.862 . S
O610 Co578 1.920 . S
O610 C583 1.289 . S
C611 O603 1.258 1_556 S
C611 O604 1.266 . S
Co612 O615 1.970 . S
Co612 N629 1.989 . S
Co612 O637 1.967 . S
Co612 O644 1.920 . S
Co613 O616 1.966 . S
Co613 N622 2.022 . S
Co613 N630 1.993 . S
Co613 O638 1.941 . S
C614 O615 1.258 . S
C614 O616 1.263 . S
O615 Co612 1.970 . S
O615 C614 1.258 . S
O616 Co613 1.966 . S
O616 C614 1.263 . S
C617 O618 1.235 . S
C617 O644 1.289 . S
O618 C617 1.235 . S
C619 C621 1.400 . S
C619 N622 1.351 . S
C619 C624 1.501 . S
C620 C621 1.387 . S
C620 N623 1.341 . S
C621 C619 1.400 . S
C621 C620 1.387 . S
N622 Co613 2.022 . S
N622 C619 1.351 . S
N622 N623 1.365 . S
N623 C620 1.341 . S
N623 N622 1.365 . S
N623 H643 0.862 . S
C624 C619 1.501 . S
C624 H625 0.961 . S
C624 H626 0.961 . S
C624 H627 0.960 . S
H625 C624 0.961 . S
H626 C624 0.961 . S
H627 C624 0.960 . S
C628 N629 1.342 . S
C628 C632 1.401 . S
C628 C633 1.499 . S
N629 Co612 1.989 . S
N629 C628 1.342 . S
N629 N630 1.388 . S
N630 Co613 1.993 . S
N630 N629 1.388 . S
N630 C631 1.346 . S
C631 N630 1.346 . S
C631 C632 1.396 . S
C631 C641 1.510 . S
C632 C628 1.401 . S
C632 C631 1.396 . S
C633 C628 1.499 . S
C633 H634 0.959 . S
C633 H635 0.960 . S
C633 H636 0.961 . S
H634 C633 0.959 . S
H635 C633 0.960 . S
H636 C633 0.961 . S
O637 Co612 1.967 . S
O637 C645 1.258 . S
O638 Co613 1.941 . S
O638 C645 1.266 . S
H639 C641 0.959 . S
H640 C641 0.961 . S
C641 C631 1.510 . S
C641 H639 0.959 . S
C641 H640 0.961 . S
C641 H642 0.960 . S
H642 C641 0.960 . S
H643 N623 0.862 . S
O644 Co612 1.920 . S
O644 C617 1.289 . S
C645 O637 1.258 . S
C645 O638 1.266 . S
Co646 O649 1.970 . S
Co646 N663 1.989 . S
Co646 O671 1.967 . S
Co646 O678 1.920 . S
Co647 O650 1.966 . S
Co647 N656 2.022 . S
Co647 N664 1.993 . S
Co647 O672 1.941 . S
C648 O649 1.258 . S
C648 O650 1.263 . S
O649 Co646 1.970 . S
O649 C648 1.258 . S
O650 Co647 1.966 . S
O650 C648 1.263 . S
C651 O652 1.235 . S
C651 O678 1.289 . S
O652 C651 1.235 . S
C653 C655 1.400 . S
C653 N656 1.351 . S
C653 C658 1.501 . S
C654 C655 1.387 . S
C654 N657 1.341 . S
C655 C653 1.400 . S
C655 C654 1.387 . S
N656 Co647 2.022 . S
N656 C653 1.351 . S
N656 N657 1.365 . S
N657 C654 1.341 . S
N657 N656 1.365 . S
N657 H677 0.862 . S
C658 C653 1.501 . S
C658 H659 0.961 . S
C658 H660 0.961 . S
C658 H661 0.960 . S
H659 C658 0.961 . S
H660 C658 0.961 . S
H661 C658 0.960 . S
C662 N663 1.342 . S
C662 C666 1.401 1_455 S
C662 C667 1.499 . S
N663 Co646 1.989 . S
N663 C662 1.342 . S
N663 N664 1.388 . S
N664 Co647 1.993 . S
N664 N663 1.388 . S
N664 C665 1.369 . S
C665 N664 1.369 . S
C665 C666 1.389 1_455 S
C665 C675 1.497 1_455 S
C666 C662 1.401 1_655 S
C666 C665 1.389 1_655 S
C667 C662 1.499 . S
C667 H668 0.959 . S
C667 H669 0.960 . S
C667 H670 0.961 . S
H668 C667 0.959 . S
H669 C667 0.960 . S
H670 C667 0.961 . S
O671 Co646 1.967 . S
O671 C679 1.258 . S
O672 Co647 1.941 . S
O672 C679 1.266 . S
H673 C675 0.959 . S
H674 C675 0.961 . S
C675 C665 1.497 1_655 S
C675 H673 0.959 . S
C675 H674 0.961 . S
C675 H676 0.960 . S
H676 C675 0.960 . S
H677 N657 0.862 . S
O678 Co646 1.920 . S
O678 C651 1.289 . S
C679 O671 1.258 . S
C679 O672 1.266 . S
Co680 O683 1.970 . S
Co680 N697 1.989 . S
Co680 O705 1.967 . S
Co680 O712 1.920 . S
Co681 O684 1.966 . S
Co681 N690 2.022 . S
Co681 N698 1.993 . S
Co681 O706 1.941 . S
C682 O683 1.258 . S
C682 O684 1.263 . S
O683 Co680 1.970 . S
O683 C682 1.258 . S
O684 Co681 1.966 . S
O684 C682 1.263 . S
C685 O686 1.235 . S
C685 O712 1.289 . S
O686 C685 1.235 . S
C687 C689 1.400 . S
C687 N690 1.351 . S
C687 C692 1.501 . S
C688 C689 1.387 . S
C688 N691 1.341 . S
C689 C687 1.400 . S
C689 C688 1.387 . S
N690 Co681 2.022 . S
N690 C687 1.351 . S
N690 N691 1.365 . S
N691 C688 1.341 . S
N691 N690 1.365 . S
N691 H711 0.862 . S
C692 C687 1.501 . S
C692 H693 0.961 . S
C692 H694 0.961 . S
C692 H695 0.960 . S
H693 C692 0.961 . S
H694 C692 0.961 . S
H695 C692 0.960 . S
C696 N697 1.342 . S
C696 C700 1.401 . S
C696 C701 1.499 . S
N697 Co680 1.989 . S
N697 C696 1.342 . S
N697 N698 1.388 . S
N698 Co681 1.993 . S
N698 N697 1.388 . S
N698 C699 1.346 . S
C699 N698 1.346 . S
C699 C700 1.396 . S
C699 C709 1.510 . S
C700 C696 1.401 . S
C700 C699 1.396 . S
C701 C696 1.499 . S
C701 H702 0.959 . S
C701 H703 0.960 . S
C701 H704 0.961 . S
H702 C701 0.959 . S
H703 C701 0.960 . S
H704 C701 0.961 . S
O705 Co680 1.967 . S
O705 C713 1.258 . S
O706 Co681 1.941 . S
O706 C713 1.266 . S
H707 C709 0.959 . S
H708 C709 0.961 . S
C709 C699 1.510 . S
C709 H707 0.959 . S
C709 H708 0.961 . S
C709 H710 0.960 . S
H710 C709 0.960 . S
H711 N691 0.862 . S
O712 Co680 1.920 . S
O712 C685 1.289 . S
C713 O705 1.258 . S
C713 O706 1.266 . S
Co714 O717 1.970 . S
Co714 N731 1.989 . S
Co714 O739 1.967 . S
Co714 O746 1.920 . S
Co715 O718 1.966 . S
Co715 N724 2.022 . S
Co715 N732 1.993 . S
Co715 O740 1.941 . S
C716 O717 1.258 . S
C716 O718 1.263 . S
O717 Co714 1.970 . S
O717 C716 1.258 . S
O718 Co715 1.966 . S
O718 C716 1.263 . S
C719 O720 1.235 . S
C719 O746 1.289 . S
O720 C719 1.235 . S
C721 C723 1.400 . S
C721 N724 1.351 . S
C721 C726 1.501 . S
C722 C723 1.387 . S
C722 N725 1.341 . S
C723 C721 1.400 . S
C723 C722 1.387 . S
N724 Co715 2.022 . S
N724 C721 1.351 . S
N724 N725 1.365 . S
N725 C722 1.341 . S
N725 N724 1.365 . S
N725 H745 0.862 . S
C726 C721 1.501 . S
C726 H727 0.961 . S
C726 H728 0.961 . S
C726 H729 0.960 . S
H727 C726 0.961 . S
H728 C726 0.961 . S
H729 C726 0.960 . S
C730 N731 1.342 . S
C730 C734 1.401 . S
C730 C735 1.499 . S
N731 Co714 1.989 . S
N731 C730 1.342 . S
N731 N732 1.388 . S
N732 Co715 1.993 . S
N732 N731 1.388 . S
N732 C733 1.346 . S
C733 N732 1.346 . S
C733 C734 1.396 . S
C733 C743 1.510 . S
C734 C730 1.401 . S
C734 C733 1.396 . S
C735 C730 1.499 . S
C735 H736 0.959 . S
C735 H737 0.960 . S
C735 H738 0.961 . S
H736 C735 0.959 . S
H737 C735 0.960 . S
H738 C735 0.961 . S
O739 Co714 1.967 . S
O739 C747 1.258 . S
O740 Co715 1.941 . S
O740 C747 1.266 . S
H741 C743 0.959 . S
H742 C743 0.961 . S
C743 C733 1.510 . S
C743 H741 0.959 . S
C743 H742 0.961 . S
C743 H744 0.960 . S
H744 C743 0.960 . S
H745 N725 0.862 . S
O746 Co714 1.920 . S
O746 C719 1.289 . S
C747 O739 1.258 . S
C747 O740 1.266 . S
Co748 O751 1.970 . S
Co748 N765 1.989 1_655 S
Co748 O773 1.967 . S
Co748 O780 1.920 1_655 S
Co749 O752 1.966 . S
Co749 N758 2.022 . S
Co749 N766 1.993 . S
Co749 O774 1.941 . S
C750 O751 1.258 . S
C750 O752 1.263 . S
O751 Co748 1.970 . S
O751 C750 1.258 . S
O752 Co749 1.966 . S
O752 C750 1.263 . S
C753 O754 1.235 . S
C753 O780 1.289 . S
O754 C753 1.235 . S
C755 C757 1.400 . S
C755 N758 1.351 . S
C755 C760 1.501 . S
C756 C757 1.387 . S
C756 N759 1.341 . S
C757 C755 1.400 . S
C757 C756 1.387 . S
N758 Co749 2.022 . S
N758 C755 1.351 . S
N758 N759 1.365 . S
N759 C756 1.341 . S
N759 N758 1.365 . S
N759 H779 0.862 . S
C760 C755 1.501 . S
C760 H761 0.961 . S
C760 H762 0.961 . S
C760 H763 0.960 . S
H761 C760 0.961 . S
H762 C760 0.961 . S
H763 C760 0.960 . S
C764 N765 1.342 . S
C764 C768 1.401 . S
C764 C769 1.499 . S
N765 Co748 1.989 1_455 S
N765 C764 1.342 . S
N765 N766 1.388 1_455 S
N766 Co749 1.993 . S
N766 N765 1.388 1_655 S
N766 C767 1.346 . S
C767 N766 1.346 . S
C767 C768 1.396 1_655 S
C767 C777 1.510 . S
C768 C764 1.401 . S
C768 C767 1.396 1_455 S
C769 C764 1.499 . S
C769 H770 0.959 . S
C769 H771 0.960 . S
C769 H772 0.961 . S
H770 C769 0.959 . S
H771 C769 0.960 . S
H772 C769 0.961 . S
O773 Co748 1.967 . S
O773 C781 1.258 . S
O774 Co749 1.941 . S
O774 C781 1.266 . S
H775 C777 0.959 . S
H776 C777 0.961 . S
C777 C767 1.510 . S
C777 H775 0.959 . S
C777 H776 0.961 . S
C777 H778 0.960 . S
H778 C777 0.960 . S
H779 N759 0.862 . S
O780 Co748 1.920 1_455 S
O780 C753 1.289 . S
C781 O773 1.258 . S
C781 O774 1.266 . S
Co782 O785 1.970 . S
Co782 N799 1.989 . S
Co782 O807 1.967 . S
Co782 O814 1.920 . S
Co783 O786 1.966 . S
Co783 N792 2.022 . S
Co783 N800 1.993 . S
Co783 O808 1.941 . S
C784 O785 1.258 . S
C784 O786 1.263 . S
O785 Co782 1.970 . S
O785 C784 1.258 . S
O786 Co783 1.966 . S
O786 C784 1.263 . S
C787 O788 1.235 . S
C787 O814 1.289 . S
O788 C787 1.235 . S
C789 C791 1.400 . S
C789 N792 1.351 . S
C789 C794 1.501 . S
C790 C791 1.387 . S
C790 N793 1.341 . S
C791 C789 1.400 . S
C791 C790 1.387 . S
N792 Co783 2.022 . S
N792 C789 1.351 . S
N792 N793 1.365 . S
N793 C790 1.341 . S
N793 N792 1.365 . S
N793 H813 0.862 . S
C794 C789 1.501 . S
C794 H795 0.961 . S
C794 H796 0.961 . S
C794 H797 0.960 . S
H795 C794 0.961 . S
H796 C794 0.961 . S
H797 C794 0.960 . S
C798 N799 1.342 . S
C798 C802 1.401 . S
C798 C803 1.499 . S
N799 Co782 1.989 . S
N799 C798 1.342 . S
N799 N800 1.388 . S
N800 Co783 1.993 . S
N800 N799 1.388 . S
N800 C801 1.346 . S
C801 N800 1.346 . S
C801 C802 1.396 . S
C801 C811 1.510 . S
C802 C798 1.401 . S
C802 C801 1.396 . S
C803 C798 1.499 . S
C803 H804 0.959 . S
C803 H805 0.960 . S
C803 H806 0.961 . S
H804 C803 0.959 . S
H805 C803 0.960 . S
H806 C803 0.961 . S
O807 Co782 1.967 . S
O807 C815 1.258 . S
O808 Co783 1.941 . S
O808 C815 1.266 . S
H809 C811 0.959 . S
H810 C811 0.961 . S
C811 C801 1.510 . S
C811 H809 0.959 . S
C811 H810 0.961 . S
C811 H812 0.960 . S
H812 C811 0.960 . S
H813 N793 0.862 . S
O814 Co782 1.920 . S
O814 C787 1.289 . S
C815 O807 1.258 . S
C815 O808 1.266 . S
H816 C824 0.929 . S
H817 C826 0.930 . S
H818 C828 0.930 . S
H819 C831 0.929 . S
H820 C834 0.930 . S
H821 C836 0.960 . S
H822 C836 0.960 . S
H823 C836 0.960 . S
C824 H816 0.929 . S
C824 C825 1.377 . S
C824 C826 1.384 . S
C825 C824 1.377 . S
C825 C831 1.390 . S
C826 H817 0.930 . S
C826 C824 1.384 . S
C826 C827 1.372 . S
C827 C826 1.372 . S
C827 C828 1.400 . S
C827 C832 1.490 . S
C828 H818 0.930 . S
C828 C827 1.400 . S
C828 C831 1.386 . S
H829 C845 0.930 . S
H830 C846 0.931 . S
C831 H819 0.929 . S
C831 C825 1.390 . S
C831 C828 1.386 . S
C832 C827 1.490 . S
C832 C834 1.395 . S
C832 C835 1.403 . S
H833 C839 0.930 . S
C834 H820 0.930 . S
C834 C832 1.395 . S
C834 C837 1.403 . S
C835 C832 1.403 . S
C835 C836 1.524 . S
C835 C839 1.400 . S
C836 H821 0.960 . S
C836 H822 0.960 . S
C836 H823 0.960 . S
C836 C835 1.524 . S
C837 C834 1.403 . S
C837 C838 1.392 . S
C837 C841 1.495 . S
C838 C837 1.392 . S
C838 C839 1.385 . S
C838 C840 1.478 . S
C839 H833 0.930 . S
C839 C835 1.400 . S
C839 C838 1.385 . S
C840 C838 1.478 . S
C840 C842 1.381 . S
C840 C846 1.383 . S
C841 C837 1.495 . S
C841 H847 0.959 . S
C841 H848 0.961 . S
C841 H849 0.960 . S
C842 C840 1.381 . S
C842 C843 1.394 . S
C842 H850 0.930 . S
C843 C842 1.394 . S
C843 C844 1.383 . S
C843 H851 0.929 . S
C844 C843 1.383 . S
C844 C845 1.377 . S
C845 H829 0.930 . S
C845 C844 1.377 . S
C845 C846 1.379 . S
C846 H830 0.931 . S
C846 C840 1.383 . S
C846 C845 1.379 . S
H847 C841 0.959 . S
H848 C841 0.961 . S
H849 C841 0.960 . S
H850 C842 0.930 . S
H851 C843 0.929 . S
H852 C860 0.929 . S
H853 C862 0.930 . S
H854 C864 0.939 . S
H855 C867 0.906 1_554 S
H856 C870 0.930 . S
H857 C872 0.960 . S
H858 C872 0.960 . S
H859 C872 0.960 . S
C860 H852 0.929 . S
C860 C861 1.377 . S
C860 C862 1.384 . S
C861 C860 1.377 . S
C861 C867 1.415 . S
C862 H853 0.930 . S
C862 C860 1.384 . S
C862 C863 1.372 . S
C863 C862 1.372 . S
C863 C864 1.391 1_556 S
C863 C868 1.490 . S
C864 H854 0.939 . S
C864 C863 1.391 1_554 S
C864 C867 1.384 1_554 S
H865 C881 0.930 . S
H866 C882 0.931 . S
C867 H855 0.906 1_556 S
C867 C861 1.415 . S
C867 C864 1.384 1_556 S
C868 C863 1.490 . S
C868 C870 1.395 . S
C868 C871 1.403 1_556 S
H869 C875 0.930 . S
C870 H856 0.930 . S
C870 C868 1.395 . S
C870 C873 1.403 . S
C871 C868 1.403 1_554 S
C871 C872 1.524 . S
C871 C875 1.400 . S
C872 H857 0.960 . S
C872 H858 0.960 . S
C872 H859 0.960 . S
C872 C871 1.524 . S
C873 C870 1.403 . S
C873 C874 1.392 . S
C873 C877 1.495 . S
C874 C873 1.392 . S
C874 C875 1.385 1_556 S
C874 C876 1.478 . S
C875 H869 0.930 . S
C875 C871 1.400 . S
C875 C874 1.385 1_554 S
C876 C874 1.478 . S
C876 C878 1.381 . S
C876 C882 1.383 1_556 S
C877 C873 1.495 . S
C877 H883 0.959 . S
C877 H884 0.961 . S
C877 H885 0.960 . S
C878 C876 1.381 . S
C878 C879 1.394 . S
C878 H886 0.930 . S
C879 C878 1.394 . S
C879 C880 1.383 . S
C879 H887 0.929 . S
C880 C879 1.383 . S
C880 C881 1.377 1_556 S
C881 H865 0.930 . S
C881 C880 1.377 1_554 S
C881 C882 1.379 . S
C882 H866 0.931 . S
C882 C876 1.383 1_554 S
C882 C881 1.379 . S
H883 C877 0.959 . S
H884 C877 0.961 . S
H885 C877 0.960 . S
H886 C878 0.930 . S
H887 C879 0.929 . S
H888 C896 0.929 . S
H889 C898 0.930 . S
H890 C900 0.930 . S
H891 C903 0.929 . S
H892 C906 0.930 . S
H893 C908 0.960 . S
H894 C908 0.960 . S
H895 C908 0.960 . S
C896 H888 0.929 . S
C896 C897 1.377 . S
C896 C898 1.384 . S
C897 C896 1.377 . S
C897 C903 1.390 . S
C898 H889 0.930 . S
C898 C896 1.384 . S
C898 C899 1.372 . S
C899 C898 1.372 . S
C899 C900 1.400 . S
C899 C904 1.490 . S
C900 H890 0.930 . S
C900 C899 1.400 . S
C900 C903 1.386 . S
H901 C917 0.930 . S
H902 C918 0.931 . S
C903 H891 0.929 . S
C903 C897 1.390 . S
C903 C900 1.386 . S
C904 C899 1.490 . S
C904 C906 1.395 . S
C904 C907 1.403 . S
H905 C911 0.930 . S
C906 H892 0.930 . S
C906 C904 1.395 . S
C906 C909 1.403 . S
C907 C904 1.403 . S
C907 C908 1.524 . S
C907 C911 1.400 . S
C908 H893 0.960 . S
C908 H894 0.960 . S
C908 H895 0.960 . S
C908 C907 1.524 . S
C909 C906 1.403 . S
C909 C910 1.392 . S
C909 C913 1.495 . S
C910 C909 1.392 . S
C910 C911 1.385 . S
C910 C912 1.478 . S
C911 H905 0.930 . S
C911 C907 1.400 . S
C911 C910 1.385 . S
C912 C910 1.478 . S
C912 C914 1.381 . S
C912 C918 1.383 . S
C913 C909 1.495 . S
C913 H919 0.959 . S
C913 H920 0.961 . S
C913 H921 0.960 . S
C914 C912 1.381 . S
C914 C915 1.394 . S
C914 H922 0.930 . S
C915 C914 1.394 . S
C915 C916 1.383 . S
C915 H923 0.929 . S
C916 C915 1.383 . S
C916 C917 1.377 . S
C917 H901 0.930 . S
C917 C916 1.377 . S
C917 C918 1.379 . S
C918 H902 0.931 . S
C918 C912 1.383 . S
C918 C917 1.379 . S
H919 C913 0.959 . S
H920 C913 0.961 . S
H921 C913 0.960 . S
H922 C914 0.930 . S
H923 C915 0.929 . S
H924 C932 0.929 . S
H925 C934 0.930 . S
H926 C936 0.930 . S
H927 C939 0.929 . S
H928 C942 0.930 . S
H929 C944 0.960 . S
H930 C944 0.960 . S
H931 C944 0.960 . S
C932 H924 0.929 . S
C932 C933 1.377 . S
C932 C934 1.384 . S
C933 C932 1.377 . S
C933 C939 1.390 . S
C934 H925 0.930 . S
C934 C932 1.384 . S
C934 C935 1.372 . S
C935 C934 1.372 . S
C935 C936 1.400 . S
C935 C940 1.490 . S
C936 H926 0.930 . S
C936 C935 1.400 . S
C936 C939 1.386 . S
H937 C953 0.930 . S
H938 C954 0.931 . S
C939 H927 0.929 . S
C939 C933 1.390 . S
C939 C936 1.386 . S
C940 C935 1.490 . S
C940 C942 1.395 . S
C940 C943 1.403 . S
H941 C947 0.930 . S
C942 H928 0.930 . S
C942 C940 1.395 . S
C942 C945 1.403 . S
C943 C940 1.403 . S
C943 C944 1.524 . S
C943 C947 1.400 . S
C944 H929 0.960 . S
C944 H930 0.960 . S
C944 H931 0.960 . S
C944 C943 1.524 . S
C945 C942 1.403 . S
C945 C946 1.392 . S
C945 C949 1.495 . S
C946 C945 1.392 . S
C946 C947 1.385 . S
C946 C948 1.478 . S
C947 H941 0.930 . S
C947 C943 1.400 . S
C947 C946 1.385 . S
C948 C946 1.478 . S
C948 C950 1.381 . S
C948 C954 1.383 . S
C949 C945 1.495 . S
C949 H955 0.959 . S
C949 H956 0.961 . S
C949 H957 0.960 . S
C950 C948 1.381 . S
C950 C951 1.394 . S
C950 H958 0.930 . S
C951 C950 1.394 . S
C951 C952 1.383 . S
C951 H959 0.929 . S
C952 C951 1.383 . S
C952 C953 1.377 . S
C953 H937 0.930 . S
C953 C952 1.377 . S
C953 C954 1.379 . S
C954 H938 0.931 . S
C954 C948 1.383 . S
C954 C953 1.379 . S
H955 C949 0.959 . S
H956 C949 0.961 . S
H957 C949 0.960 . S
H958 C950 0.930 . S
H959 C951 0.929 . S
H960 C968 0.929 . S
H961 C970 0.930 . S
H962 C972 0.930 . S
H963 C975 0.929 . S
H964 C978 0.930 . S
H965 C980 0.960 . S
H966 C980 0.960 . S
H967 C980 0.960 . S
C968 H960 0.929 . S
C968 C969 1.377 . S
C968 C970 1.384 . S
C969 C968 1.377 . S
C969 C975 1.390 . S
C970 H961 0.930 . S
C970 C968 1.384 . S
C970 C971 1.372 . S
C971 C970 1.372 . S
C971 C972 1.400 . S
C971 C976 1.490 . S
C972 H962 0.930 . S
C972 C971 1.400 . S
C972 C975 1.386 . S
H973 C989 0.930 . S
H974 C990 0.931 . S
C975 H963 0.929 . S
C975 C969 1.390 . S
C975 C972 1.386 . S
C976 C971 1.490 . S
C976 C978 1.395 . S
C976 C979 1.403 . S
H977 C983 0.930 . S
C978 H964 0.930 . S
C978 C976 1.395 . S
C978 C981 1.403 . S
C979 C976 1.403 . S
C979 C980 1.524 . S
C979 C983 1.400 . S
C980 H965 0.960 . S
C980 H966 0.960 . S
C980 H967 0.960 . S
C980 C979 1.524 . S
C981 C978 1.403 . S
C981 C982 1.392 . S
C981 C985 1.495 . S
C982 C981 1.392 . S
C982 C983 1.385 . S
C982 C984 1.478 . S
C983 H977 0.930 . S
C983 C979 1.400 . S
C983 C982 1.385 . S
C984 C982 1.478 . S
C984 C986 1.381 . S
C984 C990 1.383 . S
C985 C981 1.495 . S
C985 H991 0.959 . S
C985 H992 0.961 . S
C985 H993 0.960 . S
C986 C984 1.381 . S
C986 C987 1.394 . S
C986 H994 0.930 . S
C987 C986 1.394 . S
C987 C988 1.383 . S
C987 H995 0.929 . S
C988 C987 1.383 . S
C988 C989 1.377 . S
C989 H973 0.930 . S
C989 C988 1.377 . S
C989 C990 1.379 . S
C990 H974 0.931 . S
C990 C984 1.383 . S
C990 C989 1.379 . S
H991 C985 0.959 . S
H992 C985 0.961 . S
H993 C985 0.960 . S
H994 C986 0.930 . S
H995 C987 0.929 . S
H996 C1004 0.929 . S
H997 C1006 0.930 . S
H998 C1008 0.930 . S
H999 C1011 0.929 . S
H1000 C1014 0.930 . S
H1001 C1016 0.960 . S
H1002 C1016 0.960 . S
H1003 C1016 0.960 . S
C1004 H996 0.929 . S
C1004 C1005 1.377 . S
C1004 C1006 1.384 . S
C1005 C1004 1.377 . S
C1005 C1011 1.390 . S
C1006 H997 0.930 . S
C1006 C1004 1.384 . S
C1006 C1007 1.372 . S
C1007 C1006 1.372 . S
C1007 C1008 1.400 . S
C1007 C1012 1.490 . S
C1008 H998 0.930 . S
C1008 C1007 1.400 . S
C1008 C1011 1.386 . S
H1009 C1025 0.930 . S
H1010 C1026 0.931 . S
C1011 H999 0.929 . S
C1011 C1005 1.390 . S
C1011 C1008 1.386 . S
C1012 C1007 1.490 . S
C1012 C1014 1.395 . S
C1012 C1015 1.403 . S
H1013 C1019 0.930 . S
C1014 H1000 0.930 . S
C1014 C1012 1.395 . S
C1014 C1017 1.403 . S
C1015 C1012 1.403 . S
C1015 C1016 1.524 . S
C1015 C1019 1.400 . S
C1016 H1001 0.960 . S
C1016 H1002 0.960 . S
C1016 H1003 0.960 . S
C1016 C1015 1.524 . S
C1017 C1014 1.403 . S
C1017 C1018 1.392 . S
C1017 C1021 1.495 . S
C1018 C1017 1.392 . S
C1018 C1019 1.385 . S
C1018 C1020 1.478 . S
C1019 H1013 0.930 . S
C1019 C1015 1.400 . S
C1019 C1018 1.385 . S
C1020 C1018 1.478 . S
C1020 C1022 1.381 . S
C1020 C1026 1.383 . S
C1021 C1017 1.495 . S
C1021 H1027 0.959 . S
C1021 H1028 0.961 . S
C1021 H1029 0.960 . S
C1022 C1020 1.381 . S
C1022 C1023 1.394 . S
C1022 H1030 0.930 . S
C1023 C1022 1.394 . S
C1023 C1024 1.383 . S
C1023 H1031 0.929 . S
C1024 C1023 1.383 . S
C1024 C1025 1.377 . S
C1025 H1009 0.930 . S
C1025 C1024 1.377 . S
C1025 C1026 1.379 . S
C1026 H1010 0.931 . S
C1026 C1020 1.383 . S
C1026 C1025 1.379 . S
H1027 C1021 0.959 . S
H1028 C1021 0.961 . S
H1029 C1021 0.960 . S
H1030 C1022 0.930 . S
H1031 C1023 0.929 . S
H1032 C1040 0.929 . S
H1033 C1042 0.930 . S
H1034 C1044 0.930 . S
H1035 C1047 0.929 . S
H1036 C1050 0.930 . S
H1037 C1052 0.960 . S
H1038 C1052 0.960 . S
H1039 C1052 0.960 . S
C1040 H1032 0.929 . S
C1040 C1041 1.377 . S
C1040 C1042 1.384 . S
C1041 C1040 1.377 . S
C1041 C1047 1.390 1_655 S
C1042 H1033 0.930 . S
C1042 C1040 1.384 . S
C1042 C1043 1.372 . S
C1043 C1042 1.372 . S
C1043 C1044 1.400 1_655 S
C1043 C1048 1.490 . S
C1044 H1034 0.930 . S
C1044 C1043 1.400 1_455 S
C1044 C1047 1.386 . S
H1045 C1061 0.930 1_455 S
H1046 C1062 0.931 1_455 S
C1047 H1035 0.929 . S
C1047 C1041 1.390 1_455 S
C1047 C1044 1.386 . S
C1048 C1043 1.490 . S
C1048 C1050 1.395 . S
C1048 C1051 1.403 1_655 S
H1049 C1055 0.930 . S
C1050 H1036 0.930 . S
C1050 C1048 1.395 . S
C1050 C1053 1.403 . S
C1051 C1048 1.403 1_455 S
C1051 C1052 1.524 . S
C1051 C1055 1.400 . S
C1052 H1037 0.960 . S
C1052 H1038 0.960 . S
C1052 H1039 0.960 . S
C1052 C1051 1.524 . S
C1053 C1050 1.403 . S
C1053 C1054 1.392 . S
C1053 C1057 1.495 . S
C1054 C1053 1.392 . S
C1054 C1055 1.385 1_655 S
C1054 C1056 1.478 . S
C1055 H1049 0.930 . S
C1055 C1051 1.400 . S
C1055 C1054 1.385 1_455 S
C1056 C1054 1.478 . S
C1056 C1058 1.381 . S
C1056 C1062 1.383 . S
C1057 C1053 1.495 . S
C1057 H1063 0.959 . S
C1057 H1064 0.961 . S
C1057 H1065 0.960 . S
C1058 C1056 1.381 . S
C1058 C1059 1.394 . S
C1058 H1066 0.930 . S
C1059 C1058 1.394 . S
C1059 C1060 1.383 . S
C1059 H1067 0.929 . S
C1060 C1059 1.383 . S
C1060 C1061 1.377 . S
C1061 H1045 0.930 1_655 S
C1061 C1060 1.377 . S
C1061 C1062 1.379 . S
C1062 H1046 0.931 1_655 S
C1062 C1056 1.383 . S
C1062 C1061 1.379 . S
H1063 C1057 0.959 . S
H1064 C1057 0.961 . S
H1065 C1057 0.960 . S
H1066 C1058 0.930 . S
H1067 C1059 0.929 . S
H1068 C1076 0.929 . S
H1069 C1078 0.930 . S
H1070 C1080 0.930 . S
H1071 C1083 0.929 . S
H1072 C1086 0.930 . S
H1073 C1088 0.960 . S
H1074 C1088 0.960 . S
H1075 C1088 0.960 . S
C1076 H1068 0.929 . S
C1076 C1077 1.377 . S
C1076 C1078 1.384 . S
C1077 C1076 1.377 . S
C1077 C1083 1.390 . S
C1078 H1069 0.930 . S
C1078 C1076 1.384 . S
C1078 C1079 1.372 . S
C1079 C1078 1.372 . S
C1079 C1080 1.400 . S
C1079 C1084 1.490 . S
C1080 H1070 0.930 . S
C1080 C1079 1.400 . S
C1080 C1083 1.386 . S
H1081 C1097 0.930 . S
H1082 C1098 0.931 . S
C1083 H1071 0.929 . S
C1083 C1077 1.390 . S
C1083 C1080 1.386 . S
C1084 C1079 1.490 . S
C1084 C1086 1.395 . S
C1084 C1087 1.403 . S
H1085 C1091 0.930 . S
C1086 H1072 0.930 . S
C1086 C1084 1.395 . S
C1086 C1089 1.403 . S
C1087 C1084 1.403 . S
C1087 C1088 1.524 . S
C1087 C1091 1.400 . S
C1088 H1073 0.960 . S
C1088 H1074 0.960 . S
C1088 H1075 0.960 . S
C1088 C1087 1.524 . S
C1089 C1086 1.403 . S
C1089 C1090 1.392 . S
C1089 C1093 1.495 . S
C1090 C1089 1.392 . S
C1090 C1091 1.385 . S
C1090 C1092 1.478 . S
C1091 H1085 0.930 . S
C1091 C1087 1.400 . S
C1091 C1090 1.385 . S
C1092 C1090 1.478 . S
C1092 C1094 1.381 . S
C1092 C1098 1.383 . S
C1093 C1089 1.495 . S
C1093 H1099 0.959 . S
C1093 H1100 0.961 . S
C1093 H1101 0.960 . S
C1094 C1092 1.381 . S
C1094 C1095 1.394 . S
C1094 H1102 0.930 . S
C1095 C1094 1.394 . S
C1095 C1096 1.383 . S
C1095 H1103 0.929 . S
C1096 C1095 1.383 . S
C1096 C1097 1.377 . S
C1097 H1081 0.930 . S
C1097 C1096 1.377 . S
C1097 C1098 1.379 . S
C1098 H1082 0.931 . S
C1098 C1092 1.383 . S
C1098 C1097 1.379 . S
H1099 C1093 0.959 . S
H1100 C1093 0.961 . S
H1101 C1093 0.960 . S
H1102 C1094 0.930 . S
H1103 C1095 0.929 . S
H1104 C1112 0.929 . S
H1105 C1114 0.930 . S
H1106 C1116 0.930 . S
H1107 C1119 0.929 . S
H1108 C1122 0.930 . S
H1109 C1124 0.960 . S
H1110 C1124 0.960 . S
H1111 C1124 0.960 . S
C1112 H1104 0.929 . S
C1112 C1113 1.377 . S
C1112 C1114 1.384 . S
C1113 C1112 1.377 . S
C1113 C1119 1.390 . S
C1114 H1105 0.930 . S
C1114 C1112 1.384 . S
C1114 C1115 1.372 . S
C1115 C1114 1.372 . S
C1115 C1116 1.400 . S
C1115 C1120 1.490 . S
C1116 H1106 0.930 . S
C1116 C1115 1.400 . S
C1116 C1119 1.386 . S
H1117 C1133 0.930 . S
H1118 C1134 0.931 . S
C1119 H1107 0.929 . S
C1119 C1113 1.390 . S
C1119 C1116 1.386 . S
C1120 C1115 1.490 . S
C1120 C1122 1.395 . S
C1120 C1123 1.403 . S
H1121 C1127 0.930 . S
C1122 H1108 0.930 . S
C1122 C1120 1.395 . S
C1122 C1125 1.403 . S
C1123 C1120 1.403 . S
C1123 C1124 1.524 . S
C1123 C1127 1.400 . S
C1124 H1109 0.960 . S
C1124 H1110 0.960 . S
C1124 H1111 0.960 . S
C1124 C1123 1.524 . S
C1125 C1122 1.403 . S
C1125 C1126 1.392 . S
C1125 C1129 1.495 . S
C1126 C1125 1.392 . S
C1126 C1127 1.385 . S
C1126 C1128 1.478 . S
C1127 H1121 0.930 . S
C1127 C1123 1.400 . S
C1127 C1126 1.385 . S
C1128 C1126 1.478 . S
C1128 C1130 1.381 . S
C1128 C1134 1.383 . S
C1129 C1125 1.495 . S
C1129 H1135 0.959 . S
C1129 H1136 0.961 . S
C1129 H1137 0.960 . S
C1130 C1128 1.381 . S
C1130 C1131 1.394 . S
C1130 H1138 0.930 . S
C1131 C1130 1.394 . S
C1131 C1132 1.383 . S
C1131 H1139 0.929 . S
C1132 C1131 1.383 . S
C1132 C1133 1.377 . S
C1133 H1117 0.930 . S
C1133 C1132 1.377 . S
C1133 C1134 1.379 . S
C1134 H1118 0.931 . S
C1134 C1128 1.383 . S
C1134 C1133 1.379 . S
H1135 C1129 0.959 . S
H1136 C1129 0.961 . S
H1137 C1129 0.960 . S
H1138 C1130 0.930 . S
H1139 C1131 0.929 . S
H1140 C1148 0.929 . S
H1141 C1150 0.930 . S
H1142 C1152 0.930 . S
H1143 C1155 0.929 . S
H1144 C1158 0.930 . S
H1145 C1160 0.960 . S
H1146 C1160 0.960 . S
H1147 C1160 0.960 . S
C1148 H1140 0.929 . S
C1148 C1149 1.377 . S
C1148 C1150 1.384 . S
C1149 C1148 1.377 . S
C1149 C1155 1.390 . S
C1150 H1141 0.930 . S
C1150 C1148 1.384 . S
C1150 C1151 1.372 . S
C1151 C1150 1.372 . S
C1151 C1152 1.400 . S
C1151 C1156 1.490 . S
C1152 H1142 0.930 . S
C1152 C1151 1.400 . S
C1152 C1155 1.386 . S
H1153 C1169 0.930 . S
H1154 C1170 0.931 . S
C1155 H1143 0.929 . S
C1155 C1149 1.390 . S
C1155 C1152 1.386 . S
C1156 C1151 1.490 . S
C1156 C1158 1.395 . S
C1156 C1159 1.403 . S
H1157 C1163 0.930 . S
C1158 H1144 0.930 . S
C1158 C1156 1.395 . S
C1158 C1161 1.403 . S
C1159 C1156 1.403 . S
C1159 C1160 1.524 . S
C1159 C1163 1.400 . S
C1160 H1145 0.960 . S
C1160 H1146 0.960 . S
C1160 H1147 0.960 . S
C1160 C1159 1.524 . S
C1161 C1158 1.403 . S
C1161 C1162 1.392 . S
C1161 C1165 1.495 . S
C1162 C1161 1.392 . S
C1162 C1163 1.385 . S
C1162 C1164 1.478 . S
C1163 H1157 0.930 . S
C1163 C1159 1.400 . S
C1163 C1162 1.385 . S
C1164 C1162 1.478 . S
C1164 C1166 1.381 . S
C1164 C1170 1.383 . S
C1165 C1161 1.495 . S
C1165 H1171 0.959 . S
C1165 H1172 0.961 . S
C1165 H1173 0.960 . S
C1166 C1164 1.381 . S
C1166 C1167 1.394 . S
C1166 H1174 0.930 . S
C1167 C1166 1.394 . S
C1167 C1168 1.383 . S
C1167 H1175 0.929 . S
C1168 C1167 1.383 . S
C1168 C1169 1.377 . S
C1169 H1153 0.930 . S
C1169 C1168 1.377 . S
C1169 C1170 1.379 . S
C1170 H1154 0.931 . S
C1170 C1164 1.383 . S
C1170 C1169 1.379 . S
H1171 C1165 0.959 . S
H1172 C1165 0.961 . S
H1173 C1165 0.960 . S
H1174 C1166 0.930 . S
H1175 C1167 0.929 . S
H1176 C1184 0.929 . S
H1177 C1186 0.930 . S
H1178 C1188 0.930 . S
H1179 C1191 0.929 . S
H1180 C1194 0.930 . S
H1181 C1196 0.960 . S
H1182 C1196 0.960 1_545 S
H1183 C1196 0.960 . S
C1184 H1176 0.929 . S
C1184 C1185 1.377 1_545 S
C1184 C1186 1.384 . S
C1185 C1184 1.377 1_565 S
C1185 C1191 1.390 . S
C1186 H1177 0.930 . S
C1186 C1184 1.384 . S
C1186 C1187 1.372 1_545 S
C1187 C1186 1.372 1_565 S
C1187 C1188 1.400 . S
C1187 C1192 1.490 . S
C1188 H1178 0.930 . S
C1188 C1187 1.400 . S
C1188 C1191 1.386 . S
H1189 C1205 0.930 . S
H1190 C1206 0.931 . S
C1191 H1179 0.929 . S
C1191 C1185 1.390 . S
C1191 C1188 1.386 . S
C1192 C1187 1.490 . S
C1192 C1194 1.395 . S
C1192 C1195 1.403 . S
H1193 C1199 0.930 . S
C1194 H1180 0.930 . S
C1194 C1192 1.395 . S
C1194 C1197 1.403 . S
C1195 C1192 1.403 . S
C1195 C1196 1.524 . S
C1195 C1199 1.400 . S
C1196 H1181 0.960 . S
C1196 H1182 0.960 1_565 S
C1196 H1183 0.960 . S
C1196 C1195 1.524 . S
C1197 C1194 1.403 . S
C1197 C1198 1.392 . S
C1197 C1201 1.495 . S
C1198 C1197 1.392 . S
C1198 C1199 1.385 . S
C1198 C1200 1.478 . S
C1199 H1193 0.930 . S
C1199 C1195 1.400 . S
C1199 C1198 1.385 . S
C1200 C1198 1.478 . S
C1200 C1202 1.381 1_565 S
C1200 C1206 1.383 . S
C1201 C1197 1.495 . S
C1201 H1207 0.959 . S
C1201 H1208 0.961 . S
C1201 H1209 0.960 1_565 S
C1202 C1200 1.381 1_545 S
C1202 C1203 1.394 . S
C1202 H1210 0.930 . S
C1203 C1202 1.394 . S
C1203 C1204 1.383 1_545 S
C1203 H1211 0.929 . S
C1204 C1203 1.383 1_565 S
C1204 C1205 1.377 . S
C1205 H1189 0.930 . S
C1205 C1204 1.377 . S
C1205 C1206 1.379 . S
C1206 H1190 0.931 . S
C1206 C1200 1.383 . S
C1206 C1205 1.379 . S
H1207 C1201 0.959 . S
H1208 C1201 0.961 . S
H1209 C1201 0.960 1_545 S
H1210 C1202 0.930 . S
H1211 C1203 0.929 . S
H1212 C1220 0.929 . S
H1213 C1222 0.930 . S
H1214 C1224 0.930 . S
H1215 C1227 0.929 . S
H1216 C1230 0.930 . S
H1217 C1232 0.960 . S
H1218 C1232 0.960 . S
H1219 C1232 0.960 . S
C1220 H1212 0.929 . S
C1220 C1221 1.377 . S
C1220 C1222 1.384 . S
C1221 C1220 1.377 . S
C1221 C1227 1.390 . S
C1222 H1213 0.930 . S
C1222 C1220 1.384 . S
C1222 C1223 1.372 . S
C1223 C1222 1.372 . S
C1223 C1224 1.400 . S
C1223 C1228 1.490 . S
C1224 H1214 0.930 . S
C1224 C1223 1.400 . S
C1224 C1227 1.386 . S
H1225 C1241 0.930 . S
H1226 C1242 0.931 . S
C1227 H1215 0.929 . S
C1227 C1221 1.390 . S
C1227 C1224 1.386 . S
C1228 C1223 1.490 . S
C1228 C1230 1.395 . S
C1228 C1231 1.403 . S
H1229 C1235 0.930 . S
C1230 H1216 0.930 . S
C1230 C1228 1.395 . S
C1230 C1233 1.403 . S
C1231 C1228 1.403 . S
C1231 C1232 1.524 . S
C1231 C1235 1.400 . S
C1232 H1217 0.960 . S
C1232 H1218 0.960 . S
C1232 H1219 0.960 . S
C1232 C1231 1.524 . S
C1233 C1230 1.403 . S
C1233 C1234 1.392 . S
C1233 C1237 1.495 . S
C1234 C1233 1.392 . S
C1234 C1235 1.385 . S
C1234 C1236 1.478 . S
C1235 H1229 0.930 . S
C1235 C1231 1.400 . S
C1235 C1234 1.385 . S
C1236 C1234 1.478 . S
C1236 C1238 1.381 . S
C1236 C1242 1.383 . S
C1237 C1233 1.495 . S
C1237 H1243 0.959 . S
C1237 H1244 0.961 . S
C1237 H1245 0.960 . S
C1238 C1236 1.381 . S
C1238 C1239 1.394 . S
C1238 H1246 0.930 . S
C1239 C1238 1.394 . S
C1239 C1240 1.383 . S
C1239 H1247 0.929 . S
C1240 C1239 1.383 . S
C1240 C1241 1.377 . S
C1241 H1225 0.930 . S
C1241 C1240 1.377 . S
C1241 C1242 1.379 . S
C1242 H1226 0.931 . S
C1242 C1236 1.383 . S
C1242 C1241 1.379 . S
H1243 C1237 0.959 . S
H1244 C1237 0.961 . S
H1245 C1237 0.960 . S
H1246 C1238 0.930 . S
H1247 C1239 0.929 . S
H1248 C1256 0.929 . S
H1249 C1258 0.930 . S
H1250 C1260 0.930 . S
H1251 C1263 0.929 . S
H1252 C1266 0.930 . S
H1253 C1268 0.960 . S
H1254 C1268 0.960 . S
H1255 C1268 0.960 . S
C1256 H1248 0.929 . S
C1256 C1257 1.377 . S
C1256 C1258 1.384 . S
C1257 C1256 1.377 . S
C1257 C1263 1.390 . S
C1258 H1249 0.930 . S
C1258 C1256 1.384 . S
C1258 C1259 1.372 . S
C1259 C1258 1.372 . S
C1259 C1260 1.400 . S
C1259 C1264 1.490 . S
C1260 H1250 0.930 . S
C1260 C1259 1.400 . S
C1260 C1263 1.386 . S
H1261 C1277 0.930 . S
H1262 C1278 0.931 . S
C1263 H1251 0.929 . S
C1263 C1257 1.390 . S
C1263 C1260 1.386 . S
C1264 C1259 1.490 . S
C1264 C1266 1.395 . S
C1264 C1267 1.403 . S
H1265 C1271 0.930 . S
C1266 H1252 0.930 . S
C1266 C1264 1.395 . S
C1266 C1269 1.403 . S
C1267 C1264 1.403 . S
C1267 C1268 1.524 . S
C1267 C1271 1.400 . S
C1268 H1253 0.960 . S
C1268 H1254 0.960 . S
C1268 H1255 0.960 . S
C1268 C1267 1.524 . S
C1269 C1266 1.403 . S
C1269 C1270 1.392 . S
C1269 C1273 1.495 . S
C1270 C1269 1.392 . S
C1270 C1271 1.385 . S
C1270 C1272 1.478 . S
C1271 H1265 0.930 . S
C1271 C1267 1.400 . S
C1271 C1270 1.385 . S
C1272 C1270 1.478 . S
C1272 C1274 1.381 . S
C1272 C1278 1.383 . S
C1273 C1269 1.495 . S
C1273 H1279 0.959 . S
C1273 H1280 0.961 . S
C1273 H1281 0.960 . S
C1274 C1272 1.381 . S
C1274 C1275 1.394 . S
C1274 H1282 0.930 . S
C1275 C1274 1.394 . S
C1275 C1276 1.383 . S
C1275 H1283 0.929 . S
C1276 C1275 1.383 . S
C1276 C1277 1.377 . S
C1277 H1261 0.930 . S
C1277 C1276 1.377 . S
C1277 C1278 1.379 . S
C1278 H1262 0.931 . S
C1278 C1272 1.383 . S
C1278 C1277 1.379 . S
H1279 C1273 0.959 . S
H1280 C1273 0.961 . S
H1281 C1273 0.960 . S
H1282 C1274 0.930 . S
H1283 C1275 0.929 . S
H1284 C1292 0.929 . S
H1285 C1294 0.930 . S
H1286 C1296 0.930 . S
H1287 C1299 0.929 . S
H1288 C1302 0.930 . S
H1289 C1304 0.960 . S
H1290 C1304 0.960 . S
H1291 C1304 0.960 . S
C1292 H1284 0.929 . S
C1292 C1293 1.377 . S
C1292 C1294 1.384 . S
C1293 C1292 1.377 . S
C1293 C1299 1.390 . S
C1294 H1285 0.930 . S
C1294 C1292 1.384 . S
C1294 C1295 1.372 . S
C1295 C1294 1.372 . S
C1295 C1296 1.400 . S
C1295 C1300 1.490 . S
C1296 H1286 0.930 . S
C1296 C1295 1.400 . S
C1296 C1299 1.386 . S
H1297 C1313 0.930 . S
H1298 C1314 0.931 . S
C1299 H1287 0.929 . S
C1299 C1293 1.390 . S
C1299 C1296 1.386 . S
C1300 C1295 1.490 . S
C1300 C1302 1.395 . S
C1300 C1303 1.403 . S
H1301 C1307 0.930 . S
C1302 H1288 0.930 . S
C1302 C1300 1.395 . S
C1302 C1305 1.403 . S
C1303 C1300 1.403 . S
C1303 C1304 1.524 . S
C1303 C1307 1.400 . S
C1304 H1289 0.960 . S
C1304 H1290 0.960 . S
C1304 H1291 0.960 . S
C1304 C1303 1.524 . S
C1305 C1302 1.403 . S
C1305 C1306 1.392 . S
C1305 C1309 1.495 . S
C1306 C1305 1.392 . S
C1306 C1307 1.385 . S
C1306 C1308 1.478 . S
C1307 H1301 0.930 . S
C1307 C1303 1.400 . S
C1307 C1306 1.385 . S
C1308 C1306 1.478 . S
C1308 C1310 1.381 . S
C1308 C1314 1.383 . S
C1309 C1305 1.495 . S
C1309 H1315 0.959 . S
C1309 H1316 0.961 . S
C1309 H1317 0.960 . S
C1310 C1308 1.381 . S
C1310 C1311 1.394 . S
C1310 H1318 0.930 . S
C1311 C1310 1.394 . S
C1311 C1312 1.383 . S
C1311 H1319 0.929 . S
C1312 C1311 1.383 . S
C1312 C1313 1.377 . S
C1313 H1297 0.930 . S
C1313 C1312 1.377 . S
C1313 C1314 1.379 . S
C1314 H1298 0.931 . S
C1314 C1308 1.383 . S
C1314 C1313 1.379 . S
H1315 C1309 0.959 . S
H1316 C1309 0.961 . S
H1317 C1309 0.960 . S
H1318 C1310 0.930 . S
H1319 C1311 0.929 . S
H1320 C1328 0.929 . S
H1321 C1330 0.930 . S
H1322 C1332 0.930 . S
H1323 C1335 0.929 . S
H1324 C1338 0.930 . S
H1325 C1340 0.960 . S
H1326 C1340 0.960 . S
H1327 C1340 0.960 . S
C1328 H1320 0.929 . S
C1328 C1329 1.377 . S
C1328 C1330 1.384 . S
C1329 C1328 1.377 . S
C1329 C1335 1.390 . S
C1330 H1321 0.930 . S
C1330 C1328 1.384 . S
C1330 C1331 1.372 . S
C1331 C1330 1.372 . S
C1331 C1332 1.400 . S
C1331 C1336 1.490 . S
C1332 H1322 0.930 . S
C1332 C1331 1.400 . S
C1332 C1335 1.386 . S
H1333 C1349 0.930 . S
H1334 C1350 0.931 . S
C1335 H1323 0.929 . S
C1335 C1329 1.390 . S
C1335 C1332 1.386 . S
C1336 C1331 1.490 . S
C1336 C1338 1.395 . S
C1336 C1339 1.403 . S
H1337 C1343 0.930 . S
C1338 H1324 0.930 . S
C1338 C1336 1.395 . S
C1338 C1341 1.403 . S
C1339 C1336 1.403 . S
C1339 C1340 1.524 . S
C1339 C1343 1.400 . S
C1340 H1325 0.960 . S
C1340 H1326 0.960 . S
C1340 H1327 0.960 . S
C1340 C1339 1.524 . S
C1341 C1338 1.403 . S
C1341 C1342 1.392 . S
C1341 C1345 1.495 . S
C1342 C1341 1.392 . S
C1342 C1343 1.385 . S
C1342 C1344 1.478 . S
C1343 H1337 0.930 . S
C1343 C1339 1.400 . S
C1343 C1342 1.385 . S
C1344 C1342 1.478 . S
C1344 C1346 1.381 . S
C1344 C1350 1.383 . S
C1345 C1341 1.495 . S
C1345 H1351 0.959 . S
C1345 H1352 0.961 . S
C1345 H1353 0.960 . S
C1346 C1344 1.381 . S
C1346 C1347 1.394 . S
C1346 H1354 0.930 . S
C1347 C1346 1.394 . S
C1347 C1348 1.383 . S
C1347 H1355 0.929 . S
C1348 C1347 1.383 . S
C1348 C1349 1.377 . S
C1349 H1333 0.930 . S
C1349 C1348 1.377 . S
C1349 C1350 1.379 . S
C1350 H1334 0.931 . S
C1350 C1344 1.383 . S
C1350 C1349 1.379 . S
H1351 C1345 0.959 . S
H1352 C1345 0.961 . S
H1353 C1345 0.960 . S
H1354 C1346 0.930 . S
H1355 C1347 0.929 . S
H1356 C1364 0.929 . S
H1357 C1366 0.930 . S
H1358 C1368 0.930 . S
H1359 C1371 0.929 . S
H1360 C1374 0.930 . S
H1361 C1376 0.960 . S
H1362 C1376 0.960 . S
H1363 C1376 0.960 . S
C1364 H1356 0.929 . S
C1364 C1365 1.377 . S
C1364 C1366 1.384 . S
C1365 C1364 1.377 . S
C1365 C1371 1.390 . S
C1366 H1357 0.930 . S
C1366 C1364 1.384 . S
C1366 C1367 1.372 . S
C1367 C1366 1.372 . S
C1367 C1368 1.400 . S
C1367 C1372 1.490 . S
C1368 H1358 0.930 . S
C1368 C1367 1.400 . S
C1368 C1371 1.386 . S
H1369 C1385 0.930 . S
H1370 C1386 0.931 . S
C1371 H1359 0.929 . S
C1371 C1365 1.390 . S
C1371 C1368 1.386 . S
C1372 C1367 1.490 . S
C1372 C1374 1.395 . S
C1372 C1375 1.403 . S
H1373 C1379 0.930 . S
C1374 H1360 0.930 . S
C1374 C1372 1.395 . S
C1374 C1377 1.403 . S
C1375 C1372 1.403 . S
C1375 C1376 1.524 . S
C1375 C1379 1.400 . S
C1376 H1361 0.960 . S
C1376 H1362 0.960 . S
C1376 H1363 0.960 . S
C1376 C1375 1.524 . S
C1377 C1374 1.403 . S
C1377 C1378 1.392 . S
C1377 C1381 1.495 . S
C1378 C1377 1.392 . S
C1378 C1379 1.385 . S
C1378 C1380 1.478 . S
C1379 H1373 0.930 . S
C1379 C1375 1.400 . S
C1379 C1378 1.385 . S
C1380 C1378 1.478 . S
C1380 C1382 1.381 . S
C1380 C1386 1.383 . S
C1381 C1377 1.495 . S
C1381 H1387 0.959 . S
C1381 H1388 0.961 . S
C1381 H1389 0.960 . S
C1382 C1380 1.381 . S
C1382 C1383 1.394 . S
C1382 H1390 0.930 . S
C1383 C1382 1.394 . S
C1383 C1384 1.383 . S
C1383 H1391 0.929 . S
C1384 C1383 1.383 . S
C1384 C1385 1.377 . S
C1385 H1369 0.930 . S
C1385 C1384 1.377 . S
C1385 C1386 1.379 . S
C1386 H1370 0.931 . S
C1386 C1380 1.383 . S
C1386 C1385 1.379 . S
H1387 C1381 0.959 . S
H1388 C1381 0.961 . S
H1389 C1381 0.960 . S
H1390 C1382 0.930 . S
H1391 C1383 0.929 . S
H1392 C1400 0.929 . S
H1393 C1402 0.930 . S
H1394 C1404 0.930 . S
H1395 C1407 0.929 . S
H1396 C1410 0.930 . S
H1397 C1412 0.960 . S
H1398 C1412 0.960 . S
H1399 C1412 0.960 . S
C1400 H1392 0.929 . S
C1400 C1401 1.377 . S
C1400 C1402 1.384 . S
C1401 C1400 1.377 . S
C1401 C1407 1.390 . S
C1402 H1393 0.930 . S
C1402 C1400 1.384 . S
C1402 C1403 1.372 . S
C1403 C1402 1.372 . S
C1403 C1404 1.400 . S
C1403 C1408 1.490 . S
C1404 H1394 0.930 . S
C1404 C1403 1.400 . S
C1404 C1407 1.386 . S
H1405 C1421 0.930 . S
H1406 C1422 0.931 . S
C1407 H1395 0.929 . S
C1407 C1401 1.390 . S
C1407 C1404 1.386 . S
C1408 C1403 1.490 . S
C1408 C1410 1.395 . S
C1408 C1411 1.403 . S
H1409 C1415 0.930 . S
C1410 H1396 0.930 . S
C1410 C1408 1.395 . S
C1410 C1413 1.403 . S
C1411 C1408 1.403 . S
C1411 C1412 1.524 . S
C1411 C1415 1.400 . S
C1412 H1397 0.960 . S
C1412 H1398 0.960 . S
C1412 H1399 0.960 . S
C1412 C1411 1.524 . S
C1413 C1410 1.403 . S
C1413 C1414 1.392 . S
C1413 C1417 1.495 . S
C1414 C1413 1.392 . S
C1414 C1415 1.385 . S
C1414 C1416 1.478 . S
C1415 H1409 0.930 . S
C1415 C1411 1.400 . S
C1415 C1414 1.385 . S
C1416 C1414 1.478 . S
C1416 C1418 1.381 . S
C1416 C1422 1.383 . S
C1417 C1413 1.495 . S
C1417 H1423 0.959 . S
C1417 H1424 0.961 . S
C1417 H1425 0.960 . S
C1418 C1416 1.381 . S
C1418 C1419 1.394 . S
C1418 H1426 0.930 . S
C1419 C1418 1.394 . S
C1419 C1420 1.383 . S
C1419 H1427 0.929 . S
C1420 C1419 1.383 . S
C1420 C1421 1.377 . S
C1421 H1405 0.930 . S
C1421 C1420 1.377 . S
C1421 C1422 1.379 . S
C1422 H1406 0.931 . S
C1422 C1416 1.383 . S
C1422 C1421 1.379 . S
H1423 C1417 0.959 . S
H1424 C1417 0.961 . S
H1425 C1417 0.960 . S
H1426 C1418 0.930 . S
H1427 C1419 0.929 . S
H1428 C1436 0.929 . S
H1429 C1438 0.930 . S
H1430 C1440 0.930 . S
H1431 C1443 0.929 . S
H1432 C1446 0.930 . S
H1433 C1448 0.960 . S
H1434 C1448 0.960 . S
H1435 C1448 0.960 . S
C1436 H1428 0.929 . S
C1436 C1437 1.377 . S
C1436 C1438 1.384 . S
C1437 C1436 1.377 . S
C1437 C1443 1.390 . S
C1438 H1429 0.930 . S
C1438 C1436 1.384 . S
C1438 C1439 1.372 . S
C1439 C1438 1.372 . S
C1439 C1440 1.400 . S
C1439 C1444 1.490 . S
C1440 H1430 0.930 . S
C1440 C1439 1.400 . S
C1440 C1443 1.386 . S
H1441 C1457 0.930 . S
H1442 C1458 0.931 . S
C1443 H1431 0.929 . S
C1443 C1437 1.390 . S
C1443 C1440 1.386 . S
C1444 C1439 1.490 . S
C1444 C1446 1.395 . S
C1444 C1447 1.403 . S
H1445 C1451 0.930 . S
C1446 H1432 0.930 . S
C1446 C1444 1.395 . S
C1446 C1449 1.403 . S
C1447 C1444 1.403 . S
C1447 C1448 1.524 . S
C1447 C1451 1.400 . S
C1448 H1433 0.960 . S
C1448 H1434 0.960 . S
C1448 H1435 0.960 . S
C1448 C1447 1.524 . S
C1449 C1446 1.403 . S
C1449 C1450 1.392 . S
C1449 C1453 1.495 . S
C1450 C1449 1.392 . S
C1450 C1451 1.385 . S
C1450 C1452 1.478 . S
C1451 H1445 0.930 . S
C1451 C1447 1.400 . S
C1451 C1450 1.385 . S
C1452 C1450 1.478 . S
C1452 C1454 1.381 . S
C1452 C1458 1.383 . S
C1453 C1449 1.495 . S
C1453 H1459 0.959 . S
C1453 H1460 0.961 . S
C1453 H1461 0.960 . S
C1454 C1452 1.381 . S
C1454 C1455 1.394 . S
C1454 H1462 0.930 . S
C1455 C1454 1.394 . S
C1455 C1456 1.383 . S
C1455 H1463 0.929 . S
C1456 C1455 1.383 . S
C1456 C1457 1.377 . S
C1457 H1441 0.930 . S
C1457 C1456 1.377 . S
C1457 C1458 1.379 . S
C1458 H1442 0.931 . S
C1458 C1452 1.383 . S
C1458 C1457 1.379 . S
H1459 C1453 0.959 . S
H1460 C1453 0.961 . S
H1461 C1453 0.960 . S
H1462 C1454 0.930 . S
H1463 C1455 0.929 . S
H1464 C1472 0.929 . S
H1465 C1474 0.930 . S
H1466 C1476 0.930 . S
H1467 C1479 0.929 . S
H1468 C1482 0.930 1_455 S
H1469 C1484 0.960 . S
H1470 C1484 0.960 . S
H1471 C1484 0.960 . S
C1472 H1464 0.929 . S
C1472 C1473 1.377 . S
C1472 C1474 1.384 1_554 S
C1473 C1472 1.377 . S
C1473 C1479 1.390 1_455 S
C1474 H1465 0.930 . S
C1474 C1472 1.384 1_556 S
C1474 C1475 1.372 1_455 S
C1475 C1474 1.372 1_655 S
C1475 C1476 1.400 1_556 S
C1475 C1480 1.490 . S
C1476 H1466 0.930 . S
C1476 C1475 1.400 1_554 S
C1476 C1479 1.386 . S
H1477 C1493 0.930 . S
H1478 C1494 0.931 . S
C1479 H1467 0.929 . S
C1479 C1473 1.390 1_655 S
C1479 C1476 1.386 . S
C1480 C1475 1.490 . S
C1480 C1482 1.395 . S
C1480 C1483 1.403 . S
H1481 C1487 0.930 . S
C1482 H1468 0.930 1_655 S
C1482 C1480 1.395 . S
C1482 C1485 1.403 . S
C1483 C1480 1.403 . S
C1483 C1484 1.524 . S
C1483 C1487 1.400 . S
C1484 H1469 0.960 . S
C1484 H1470 0.960 . S
C1484 H1471 0.960 . S
C1484 C1483 1.524 . S
C1485 C1482 1.403 . S
C1485 C1486 1.392 . S
C1485 C1489 1.495 1_655 S
C1486 C1485 1.392 . S
C1486 C1487 1.385 . S
C1486 C1488 1.478 . S
C1487 H1481 0.930 . S
C1487 C1483 1.400 . S
C1487 C1486 1.385 . S
C1488 C1486 1.478 . S
C1488 C1490 1.381 . S
C1488 C1494 1.383 . S
C1489 C1485 1.495 1_455 S
C1489 H1495 0.959 . S
C1489 H1496 0.961 1_455 S
C1489 H1497 0.960 . S
C1490 C1488 1.381 . S
C1490 C1491 1.394 . S
C1490 H1498 0.930 . S
C1491 C1490 1.394 . S
C1491 C1492 1.383 . S
C1491 H1499 0.929 . S
C1492 C1491 1.383 . S
C1492 C1493 1.377 . S
C1493 H1477 0.930 . S
C1493 C1492 1.377 . S
C1493 C1494 1.379 . S
C1494 H1478 0.931 . S
C1494 C1488 1.383 . S
C1494 C1493 1.379 . S
H1495 C1489 0.959 . S
H1496 C1489 0.961 1_655 S
H1497 C1489 0.960 . S
H1498 C1490 0.930 . S
H1499 C1491 0.929 . S
H1500 C1508 0.929 . S
H1501 C1510 0.930 . S
H1502 C1512 0.930 . S
H1503 C1515 0.929 . S
H1504 C1518 0.930 . S
H1505 C1520 0.960 . S
H1506 C1520 0.960 . S
H1507 C1520 0.960 . S
C1508 H1500 0.929 . S
C1508 C1509 1.377 . S
C1508 C1510 1.384 . S
C1509 C1508 1.377 . S
C1509 C1515 1.390 . S
C1510 H1501 0.930 . S
C1510 C1508 1.384 . S
C1510 C1511 1.372 . S
C1511 C1510 1.372 . S
C1511 C1512 1.400 . S
C1511 C1516 1.490 . S
C1512 H1502 0.930 . S
C1512 C1511 1.400 . S
C1512 C1515 1.386 . S
H1513 C1529 0.930 . S
H1514 C1530 0.931 . S
C1515 H1503 0.929 . S
C1515 C1509 1.390 . S
C1515 C1512 1.386 . S
C1516 C1511 1.490 . S
C1516 C1518 1.395 . S
C1516 C1519 1.403 . S
H1517 C1523 0.930 . S
C1518 H1504 0.930 . S
C1518 C1516 1.395 . S
C1518 C1521 1.403 . S
C1519 C1516 1.403 . S
C1519 C1520 1.524 . S
C1519 C1523 1.400 . S
C1520 H1505 0.960 . S
C1520 H1506 0.960 . S
C1520 H1507 0.960 . S
C1520 C1519 1.524 . S
C1521 C1518 1.403 . S
C1521 C1522 1.392 . S
C1521 C1525 1.495 . S
C1522 C1521 1.392 . S
C1522 C1523 1.385 . S
C1522 C1524 1.478 . S
C1523 H1517 0.930 . S
C1523 C1519 1.400 . S
C1523 C1522 1.385 . S
C1524 C1522 1.478 . S
C1524 C1526 1.381 . S
C1524 C1530 1.383 . S
C1525 C1521 1.495 . S
C1525 H1531 0.959 . S
C1525 H1532 0.961 . S
C1525 H1533 0.960 . S
C1526 C1524 1.381 . S
C1526 C1527 1.394 . S
C1526 H1534 0.930 . S
C1527 C1526 1.394 . S
C1527 C1528 1.383 . S
C1527 H1535 0.929 . S
C1528 C1527 1.383 . S
C1528 C1529 1.377 . S
C1529 H1513 0.930 . S
C1529 C1528 1.377 . S
C1529 C1530 1.379 . S
C1530 H1514 0.931 . S
C1530 C1524 1.383 . S
C1530 C1529 1.379 . S
H1531 C1525 0.959 . S
H1532 C1525 0.961 . S
H1533 C1525 0.960 . S
H1534 C1526 0.930 . S
H1535 C1527 0.929 . S
H1536 C1544 0.929 . S
H1537 C1546 0.930 . S
H1538 C1548 0.930 . S
H1539 C1551 0.929 . S
H1540 C1554 0.930 . S
H1541 C1556 0.960 . S
H1542 C1556 0.960 . S
H1543 C1556 0.960 . S
C1544 H1536 0.929 . S
C1544 C1545 1.377 . S
C1544 C1546 1.384 . S
C1545 C1544 1.377 . S
C1545 C1551 1.390 . S
C1546 H1537 0.930 . S
C1546 C1544 1.384 . S
C1546 C1547 1.372 . S
C1547 C1546 1.372 . S
C1547 C1548 1.400 . S
C1547 C1552 1.490 . S
C1548 H1538 0.930 . S
C1548 C1547 1.400 . S
C1548 C1551 1.386 . S
H1549 C1565 0.930 . S
H1550 C1566 0.931 . S
C1551 H1539 0.929 . S
C1551 C1545 1.390 . S
C1551 C1548 1.386 . S
C1552 C1547 1.490 . S
C1552 C1554 1.395 . S
C1552 C1555 1.403 . S
H1553 C1559 0.930 . S
C1554 H1540 0.930 . S
C1554 C1552 1.395 . S
C1554 C1557 1.403 . S
C1555 C1552 1.403 . S
C1555 C1556 1.524 . S
C1555 C1559 1.400 . S
C1556 H1541 0.960 . S
C1556 H1542 0.960 . S
C1556 H1543 0.960 . S
C1556 C1555 1.524 . S
C1557 C1554 1.403 . S
C1557 C1558 1.392 . S
C1557 C1561 1.495 . S
C1558 C1557 1.392 . S
C1558 C1559 1.385 . S
C1558 C1560 1.478 . S
C1559 H1553 0.930 . S
C1559 C1555 1.400 . S
C1559 C1558 1.385 . S
C1560 C1558 1.478 . S
C1560 C1562 1.381 . S
C1560 C1566 1.383 . S
C1561 C1557 1.495 . S
C1561 H1567 0.959 . S
C1561 H1568 0.961 . S
C1561 H1569 0.960 . S
C1562 C1560 1.381 . S
C1562 C1563 1.394 . S
C1562 H1570 0.930 . S
C1563 C1562 1.394 . S
C1563 C1564 1.383 . S
C1563 H1571 0.929 . S
C1564 C1563 1.383 . S
C1564 C1565 1.377 . S
C1565 H1549 0.930 . S
C1565 C1564 1.377 . S
C1565 C1566 1.379 . S
C1566 H1550 0.931 . S
C1566 C1560 1.383 . S
C1566 C1565 1.379 . S
H1567 C1561 0.959 . S
H1568 C1561 0.961 . S
H1569 C1561 0.960 . S
H1570 C1562 0.930 . S
H1571 C1563 0.929 . S
H1572 C1580 0.929 . S
H1573 C1582 0.930 . S
H1574 C1584 0.930 . S
H1575 C1587 0.929 . S
H1576 C1590 0.930 . S
H1577 C1592 0.960 . S
H1578 C1592 0.960 . S
H1579 C1592 0.960 . S
C1580 H1572 0.929 . S
C1580 C1581 1.377 . S
C1580 C1582 1.384 . S
C1581 C1580 1.377 . S
C1581 C1587 1.390 . S
C1582 H1573 0.930 . S
C1582 C1580 1.384 . S
C1582 C1583 1.372 . S
C1583 C1582 1.372 . S
C1583 C1584 1.400 . S
C1583 C1588 1.490 . S
C1584 H1574 0.930 . S
C1584 C1583 1.400 . S
C1584 C1587 1.386 . S
H1585 C1601 0.930 . S
H1586 C1602 0.931 . S
C1587 H1575 0.929 . S
C1587 C1581 1.390 . S
C1587 C1584 1.386 . S
C1588 C1583 1.490 . S
C1588 C1590 1.395 . S
C1588 C1591 1.403 . S
H1589 C1595 0.930 . S
C1590 H1576 0.930 . S
C1590 C1588 1.395 . S
C1590 C1593 1.403 . S
C1591 C1588 1.403 . S
C1591 C1592 1.524 . S
C1591 C1595 1.400 . S
C1592 H1577 0.960 . S
C1592 H1578 0.960 . S
C1592 H1579 0.960 . S
C1592 C1591 1.524 . S
C1593 C1590 1.403 . S
C1593 C1594 1.392 . S
C1593 C1597 1.495 . S
C1594 C1593 1.392 . S
C1594 C1595 1.385 . S
C1594 C1596 1.478 . S
C1595 H1589 0.930 . S
C1595 C1591 1.400 . S
C1595 C1594 1.385 . S
C1596 C1594 1.478 . S
C1596 C1598 1.381 . S
C1596 C1602 1.383 . S
C1597 C1593 1.495 . S
C1597 H1603 0.959 . S
C1597 H1604 0.961 . S
C1597 H1605 0.960 . S
C1598 C1596 1.381 . S
C1598 C1599 1.394 . S
C1598 H1606 0.930 . S
C1599 C1598 1.394 . S
C1599 C1600 1.383 . S
C1599 H1607 0.929 . S
C1600 C1599 1.383 . S
C1600 C1601 1.377 . S
C1601 H1585 0.930 . S
C1601 C1600 1.377 . S
C1601 C1602 1.379 . S
C1602 H1586 0.931 . S
C1602 C1596 1.383 . S
C1602 C1601 1.379 . S
H1603 C1597 0.959 . S
H1604 C1597 0.961 . S
H1605 C1597 0.960 . S
H1606 C1598 0.930 . S
H1607 C1599 0.929 . S
H1608 C1616 0.929 . S
H1609 C1618 0.930 . S
H1610 C1620 0.930 . S
H1611 C1623 0.929 . S
H1612 C1626 0.930 1_545 S
H1613 C1628 0.960 . S
H1614 C1628 0.960 . S
H1615 C1628 0.960 . S
C1616 H1608 0.929 . S
C1616 C1617 1.377 . S
C1616 C1618 1.384 . S
C1617 C1616 1.377 . S
C1617 C1623 1.390 . S
C1618 H1609 0.930 . S
C1618 C1616 1.384 . S
C1618 C1619 1.372 . S
C1619 C1618 1.372 . S
C1619 C1620 1.400 . S
C1619 C1624 1.490 . S
C1620 H1610 0.930 . S
C1620 C1619 1.400 . S
C1620 C1623 1.386 . S
H1621 C1637 0.930 1_655 S
H1622 C1638 0.931 . S
C1623 H1611 0.929 . S
C1623 C1617 1.390 . S
C1623 C1620 1.386 . S
C1624 C1619 1.490 . S
C1624 C1626 1.395 . S
C1624 C1627 1.403 . S
H1625 C1631 0.930 . S
C1626 H1612 0.930 1_565 S
C1626 C1624 1.395 . S
C1626 C1629 1.403 1_565 S
C1627 C1624 1.403 . S
C1627 C1628 1.524 . S
C1627 C1631 1.400 . S
C1628 H1613 0.960 . S
C1628 H1614 0.960 . S
C1628 H1615 0.960 . S
C1628 C1627 1.524 . S
C1629 C1626 1.403 1_545 S
C1629 C1630 1.392 1_545 S
C1629 C1633 1.495 . S
C1630 C1629 1.392 1_565 S
C1630 C1631 1.385 . S
C1630 C1632 1.478 . S
C1631 H1625 0.930 . S
C1631 C1627 1.400 . S
C1631 C1630 1.385 . S
C1632 C1630 1.478 . S
C1632 C1634 1.381 1_665 S
C1632 C1638 1.383 . S
C1633 C1629 1.495 . S
C1633 H1639 0.959 . S
C1633 H1640 0.961 . S
C1633 H1641 0.960 . S
C1634 C1632 1.381 1_445 S
C1634 C1635 1.394 . S
C1634 H1642 0.930 . S
C1635 C1634 1.394 . S
C1635 C1636 1.383 . S
C1635 H1643 0.929 . S
C1636 C1635 1.383 . S
C1636 C1637 1.377 1_545 S
C1637 H1621 0.930 1_455 S
C1637 C1636 1.377 1_565 S
C1637 C1638 1.379 1_455 S
C1638 H1622 0.931 . S
C1638 C1632 1.383 . S
C1638 C1637 1.379 1_655 S
H1639 C1633 0.959 . S
H1640 C1633 0.961 . S
H1641 C1633 0.960 . S
H1642 C1634 0.930 . S
H1643 C1635 0.929 . S
H1644 C1652 0.929 . S
H1645 C1654 0.930 . S
H1646 C1656 0.930 . S
H1647 C1659 0.929 . S
H1648 C1662 0.930 . S
H1649 C1664 0.960 . S
H1650 C1664 0.960 . S
H1651 C1664 0.960 . S
C1652 H1644 0.929 . S
C1652 C1653 1.377 . S
C1652 C1654 1.384 . S
C1653 C1652 1.377 . S
C1653 C1659 1.390 . S
C1654 H1645 0.930 . S
C1654 C1652 1.384 . S
C1654 C1655 1.372 . S
C1655 C1654 1.372 . S
C1655 C1656 1.400 . S
C1655 C1660 1.490 . S
C1656 H1646 0.930 . S
C1656 C1655 1.400 . S
C1656 C1659 1.386 . S
H1657 C1673 0.930 . S
H1658 C1674 0.931 . S
C1659 H1647 0.929 . S
C1659 C1653 1.390 . S
C1659 C1656 1.386 . S
C1660 C1655 1.490 . S
C1660 C1662 1.395 . S
C1660 C1663 1.403 . S
H1661 C1667 0.930 . S
C1662 H1648 0.930 . S
C1662 C1660 1.395 . S
C1662 C1665 1.403 . S
C1663 C1660 1.403 . S
C1663 C1664 1.524 . S
C1663 C1667 1.400 . S
C1664 H1649 0.960 . S
C1664 H1650 0.960 . S
C1664 H1651 0.960 . S
C1664 C1663 1.524 . S
C1665 C1662 1.403 . S
C1665 C1666 1.392 . S
C1665 C1669 1.495 . S
C1666 C1665 1.392 . S
C1666 C1667 1.385 . S
C1666 C1668 1.478 . S
C1667 H1661 0.930 . S
C1667 C1663 1.400 . S
C1667 C1666 1.385 . S
C1668 C1666 1.478 . S
C1668 C1670 1.381 . S
C1668 C1674 1.383 . S
C1669 C1665 1.495 . S
C1669 H1675 0.959 . S
C1669 H1676 0.961 . S
C1669 H1677 0.960 . S
C1670 C1668 1.381 . S
C1670 C1671 1.394 . S
C1670 H1678 0.930 . S
C1671 C1670 1.394 . S
C1671 C1672 1.383 . S
C1671 H1679 0.929 . S
C1672 C1671 1.383 . S
C1672 C1673 1.377 . S
C1673 H1657 0.930 . S
C1673 C1672 1.377 . S
C1673 C1674 1.379 . S
C1674 H1658 0.931 . S
C1674 C1668 1.383 . S
C1674 C1673 1.379 . S
H1675 C1669 0.959 . S
H1676 C1669 0.961 . S
H1677 C1669 0.960 . S
H1678 C1670 0.930 . S
H1679 C1671 0.929 . S
H1680 C1688 0.929 1_554 S
H1681 C1690 0.930 . S
H1682 C1692 0.930 . S
H1683 C1695 0.929 . S
H1684 C1698 0.930 . S
H1685 C1700 0.960 . S
H1686 C1700 0.960 . S
H1687 C1700 0.960 . S
C1688 H1680 0.929 1_556 S
C1688 C1689 1.377 . S
C1688 C1690 1.384 . S
C1689 C1688 1.377 . S
C1689 C1695 1.390 . S
C1690 H1681 0.930 . S
C1690 C1688 1.384 . S
C1690 C1691 1.372 . S
C1691 C1690 1.372 . S
C1691 C1692 1.400 . S
C1691 C1696 1.490 . S
C1692 H1682 0.930 . S
C1692 C1691 1.400 . S
C1692 C1695 1.386 . S
H1693 C1709 0.930 . S
H1694 C1710 0.931 . S
C1695 H1683 0.929 . S
C1695 C1689 1.390 . S
C1695 C1692 1.386 . S
C1696 C1691 1.490 . S
C1696 C1698 1.395 . S
C1696 C1699 1.403 . S
H1697 C1703 0.930 . S
C1698 H1684 0.930 . S
C1698 C1696 1.395 . S
C1698 C1701 1.403 . S
C1699 C1696 1.403 . S
C1699 C1700 1.524 . S
C1699 C1703 1.400 . S
C1700 H1685 0.960 . S
C1700 H1686 0.960 . S
C1700 H1687 0.960 . S
C1700 C1699 1.524 . S
C1701 C1698 1.403 . S
C1701 C1702 1.392 . S
C1701 C1705 1.495 . S
C1702 C1701 1.392 . S
C1702 C1703 1.385 . S
C1702 C1704 1.478 . S
C1703 H1697 0.930 . S
C1703 C1699 1.400 . S
C1703 C1702 1.385 . S
C1704 C1702 1.478 . S
C1704 C1706 1.381 . S
C1704 C1710 1.383 . S
C1705 C1701 1.495 . S
C1705 H1711 0.959 . S
C1705 H1712 0.961 . S
C1705 H1713 0.960 . S
C1706 C1704 1.381 . S
C1706 C1707 1.394 . S
C1706 H1714 0.930 . S
C1707 C1706 1.394 . S
C1707 C1708 1.383 . S
C1707 H1715 0.929 . S
C1708 C1707 1.383 . S
C1708 C1709 1.377 . S
C1709 H1693 0.930 . S
C1709 C1708 1.377 . S
C1709 C1710 1.379 . S
C1710 H1694 0.931 . S
C1710 C1704 1.383 . S
C1710 C1709 1.379 . S
H1711 C1705 0.959 . S
H1712 C1705 0.961 . S
H1713 C1705 0.960 . S
H1714 C1706 0.930 . S
H1715 C1707 0.929 . S
H1716 C1724 0.929 . S
H1717 C1726 0.930 . S
H1718 C1728 0.930 . S
H1719 C1731 0.929 . S
H1720 C1734 0.930 . S
H1721 C1736 0.960 . S
H1722 C1736 0.960 . S
H1723 C1736 0.960 . S
C1724 H1716 0.929 . S
C1724 C1725 1.377 . S
C1724 C1726 1.384 . S
C1725 C1724 1.377 . S
C1725 C1731 1.390 . S
C1726 H1717 0.930 . S
C1726 C1724 1.384 . S
C1726 C1727 1.372 . S
C1727 C1726 1.372 . S
C1727 C1728 1.400 . S
C1727 C1732 1.490 . S
C1728 H1718 0.930 . S
C1728 C1727 1.400 . S
C1728 C1731 1.386 . S
H1729 C1745 0.930 . S
H1730 C1746 0.931 . S
C1731 H1719 0.929 . S
C1731 C1725 1.390 . S
C1731 C1728 1.386 . S
C1732 C1727 1.490 . S
C1732 C1734 1.395 . S
C1732 C1735 1.403 . S
H1733 C1739 0.930 . S
C1734 H1720 0.930 . S
C1734 C1732 1.395 . S
C1734 C1737 1.403 . S
C1735 C1732 1.403 . S
C1735 C1736 1.524 . S
C1735 C1739 1.400 . S
C1736 H1721 0.960 . S
C1736 H1722 0.960 . S
C1736 H1723 0.960 . S
C1736 C1735 1.524 . S
C1737 C1734 1.403 . S
C1737 C1738 1.392 . S
C1737 C1741 1.495 . S
C1738 C1737 1.392 . S
C1738 C1739 1.385 . S
C1738 C1740 1.478 . S
C1739 H1733 0.930 . S
C1739 C1735 1.400 . S
C1739 C1738 1.385 . S
C1740 C1738 1.478 . S
C1740 C1742 1.381 . S
C1740 C1746 1.383 . S
C1741 C1737 1.495 . S
C1741 H1747 0.959 . S
C1741 H1748 0.961 . S
C1741 H1749 0.960 . S
C1742 C1740 1.381 . S
C1742 C1743 1.394 . S
C1742 H1750 0.930 . S
C1743 C1742 1.394 . S
C1743 C1744 1.383 . S
C1743 H1751 0.929 . S
C1744 C1743 1.383 . S
C1744 C1745 1.377 . S
C1745 H1729 0.930 . S
C1745 C1744 1.377 . S
C1745 C1746 1.379 . S
C1746 H1730 0.931 . S
C1746 C1740 1.383 . S
C1746 C1745 1.379 . S
H1747 C1741 0.959 . S
H1748 C1741 0.961 . S
H1749 C1741 0.960 . S
H1750 C1742 0.930 . S
H1751 C1743 0.929 . S
H1752 C1760 0.929 . S
H1753 C1762 0.930 . S
H1754 C1764 0.930 . S
H1755 C1767 0.929 . S
H1756 C1770 0.930 . S
H1757 C1772 0.960 . S
H1758 C1772 0.960 . S
H1759 C1772 0.960 . S
C1760 H1752 0.929 . S
C1760 C1761 1.377 . S
C1760 C1762 1.384 . S
C1761 C1760 1.377 . S
C1761 C1767 1.390 . S
C1762 H1753 0.930 . S
C1762 C1760 1.384 . S
C1762 C1763 1.372 . S
C1763 C1762 1.372 . S
C1763 C1764 1.400 . S
C1763 C1768 1.490 . S
C1764 H1754 0.930 . S
C1764 C1763 1.400 . S
C1764 C1767 1.386 . S
H1765 C1781 0.930 . S
H1766 C1782 0.931 . S
C1767 H1755 0.929 . S
C1767 C1761 1.390 . S
C1767 C1764 1.386 . S
C1768 C1763 1.490 . S
C1768 C1770 1.395 . S
C1768 C1771 1.403 . S
H1769 C1775 0.930 . S
C1770 H1756 0.930 . S
C1770 C1768 1.395 . S
C1770 C1773 1.403 . S
C1771 C1768 1.403 . S
C1771 C1772 1.524 . S
C1771 C1775 1.400 . S
C1772 H1757 0.960 . S
C1772 H1758 0.960 . S
C1772 H1759 0.960 . S
C1772 C1771 1.524 . S
C1773 C1770 1.403 . S
C1773 C1774 1.392 . S
C1773 C1777 1.495 . S
C1774 C1773 1.392 . S
C1774 C1775 1.385 . S
C1774 C1776 1.478 . S
C1775 H1769 0.930 . S
C1775 C1771 1.400 . S
C1775 C1774 1.385 . S
C1776 C1774 1.478 . S
C1776 C1778 1.381 . S
C1776 C1782 1.383 . S
C1777 C1773 1.495 . S
C1777 H1783 0.959 . S
C1777 H1784 0.961 . S
C1777 H1785 0.960 . S
C1778 C1776 1.381 . S
C1778 C1779 1.394 . S
C1778 H1786 0.930 . S
C1779 C1778 1.394 . S
C1779 C1780 1.383 . S
C1779 H1787 0.929 . S
C1780 C1779 1.383 . S
C1780 C1781 1.377 . S
C1781 H1765 0.930 . S
C1781 C1780 1.377 . S
C1781 C1782 1.379 . S
C1782 H1766 0.931 . S
C1782 C1776 1.383 . S
C1782 C1781 1.379 . S
H1783 C1777 0.959 . S
H1784 C1777 0.961 . S
H1785 C1777 0.960 . S
H1786 C1778 0.930 . S
H1787 C1779 0.929 . S
H1788 C1796 0.929 . S
H1789 C1798 0.930 . S
H1790 C1800 0.930 . S
H1791 C1803 0.929 . S
H1792 C1806 0.930 . S
H1793 C1808 0.960 . S
H1794 C1808 0.960 . S
H1795 C1808 0.960 . S
C1796 H1788 0.929 . S
C1796 C1797 1.377 . S
C1796 C1798 1.384 . S
C1797 C1796 1.377 . S
C1797 C1803 1.390 . S
C1798 H1789 0.930 . S
C1798 C1796 1.384 . S
C1798 C1799 1.372 . S
C1799 C1798 1.372 . S
C1799 C1800 1.400 . S
C1799 C1804 1.490 . S
C1800 H1790 0.930 . S
C1800 C1799 1.400 . S
C1800 C1803 1.386 . S
H1801 C1817 0.930 . S
H1802 C1818 0.931 . S
C1803 H1791 0.929 . S
C1803 C1797 1.390 . S
C1803 C1800 1.386 . S
C1804 C1799 1.490 . S
C1804 C1806 1.395 . S
C1804 C1807 1.403 . S
H1805 C1811 0.930 . S
C1806 H1792 0.930 . S
C1806 C1804 1.395 . S
C1806 C1809 1.403 . S
C1807 C1804 1.403 . S
C1807 C1808 1.524 . S
C1807 C1811 1.400 . S
C1808 H1793 0.960 . S
C1808 H1794 0.960 . S
C1808 H1795 0.960 . S
C1808 C1807 1.524 . S
C1809 C1806 1.403 . S
C1809 C1810 1.392 . S
C1809 C1813 1.495 . S
C1810 C1809 1.392 . S
C1810 C1811 1.385 . S
C1810 C1812 1.478 . S
C1811 H1805 0.930 . S
C1811 C1807 1.400 . S
C1811 C1810 1.385 . S
C1812 C1810 1.478 . S
C1812 C1814 1.381 . S
C1812 C1818 1.383 . S
C1813 C1809 1.495 . S
C1813 H1819 0.959 . S
C1813 H1820 0.961 . S
C1813 H1821 0.960 . S
C1814 C1812 1.381 . S
C1814 C1815 1.394 . S
C1814 H1822 0.930 . S
C1815 C1814 1.394 . S
C1815 C1816 1.383 . S
C1815 H1823 0.929 . S
C1816 C1815 1.383 . S
C1816 C1817 1.377 . S
C1817 H1801 0.930 . S
C1817 C1816 1.377 . S
C1817 C1818 1.379 . S
C1818 H1802 0.931 . S
C1818 C1812 1.383 . S
C1818 C1817 1.379 . S
H1819 C1813 0.959 . S
H1820 C1813 0.961 . S
H1821 C1813 0.960 . S
H1822 C1814 0.930 . S
H1823 C1815 0.929 . S
H1824 C1832 0.929 . S
H1825 C1834 0.930 . S
H1826 C1836 0.930 . S
H1827 C1839 0.929 . S
H1828 C1842 0.930 . S
H1829 C1844 0.960 . S
H1830 C1844 0.960 . S
H1831 C1844 0.960 . S
C1832 H1824 0.929 . S
C1832 C1833 1.377 . S
C1832 C1834 1.384 . S
C1833 C1832 1.377 . S
C1833 C1839 1.390 . S
C1834 H1825 0.930 . S
C1834 C1832 1.384 . S
C1834 C1835 1.372 . S
C1835 C1834 1.372 . S
C1835 C1836 1.400 . S
C1835 C1840 1.490 . S
C1836 H1826 0.930 . S
C1836 C1835 1.400 . S
C1836 C1839 1.386 . S
H1837 C1853 0.930 . S
H1838 C1854 0.931 . S
C1839 H1827 0.929 . S
C1839 C1833 1.390 . S
C1839 C1836 1.386 . S
C1840 C1835 1.490 . S
C1840 C1842 1.395 . S
C1840 C1843 1.403 . S
H1841 C1847 0.930 . S
C1842 H1828 0.930 . S
C1842 C1840 1.395 . S
C1842 C1845 1.403 . S
C1843 C1840 1.403 . S
C1843 C1844 1.524 . S
C1843 C1847 1.400 . S
C1844 H1829 0.960 . S
C1844 H1830 0.960 . S
C1844 H1831 0.960 . S
C1844 C1843 1.524 . S
C1845 C1842 1.403 . S
C1845 C1846 1.392 . S
C1845 C1849 1.495 . S
C1846 C1845 1.392 . S
C1846 C1847 1.385 . S
C1846 C1848 1.478 . S
C1847 H1841 0.930 . S
C1847 C1843 1.400 . S
C1847 C1846 1.385 . S
C1848 C1846 1.478 . S
C1848 C1850 1.381 . S
C1848 C1854 1.383 . S
C1849 C1845 1.495 . S
C1849 H1855 0.959 . S
C1849 H1856 0.961 . S
C1849 H1857 0.960 . S
C1850 C1848 1.381 . S
C1850 C1851 1.394 . S
C1850 H1858 0.930 . S
C1851 C1850 1.394 . S
C1851 C1852 1.383 . S
C1851 H1859 0.929 . S
C1852 C1851 1.383 . S
C1852 C1853 1.377 . S
C1853 H1837 0.930 . S
C1853 C1852 1.377 . S
C1853 C1854 1.379 . S
C1854 H1838 0.931 . S
C1854 C1848 1.383 . S
C1854 C1853 1.379 . S
H1855 C1849 0.959 . S
H1856 C1849 0.961 . S
H1857 C1849 0.960 . S
H1858 C1850 0.930 . S
H1859 C1851 0.929 . S
H1860 C1868 0.929 . S
H1861 C1870 0.930 . S
H1862 C1872 0.930 . S
H1863 C1875 0.929 . S
H1864 C1878 0.930 . S
H1865 C1880 0.960 . S
H1866 C1880 0.960 1_554 S
H1867 C1880 0.960 . S
C1868 H1860 0.929 . S
C1868 C1869 1.377 . S
C1868 C1870 1.384 . S
C1869 C1868 1.377 . S
C1869 C1875 1.390 1_554 S
C1870 H1861 0.930 . S
C1870 C1868 1.384 . S
C1870 C1871 1.372 1_544 S
C1871 C1870 1.372 1_566 S
C1871 C1872 1.400 . S
C1871 C1876 1.490 . S
C1872 H1862 0.930 . S
C1872 C1871 1.400 . S
C1872 C1875 1.386 1_565 S
H1873 C1889 0.930 . S
H1874 C1890 0.931 . S
C1875 H1863 0.929 . S
C1875 C1869 1.390 1_556 S
C1875 C1872 1.386 1_545 S
C1876 C1871 1.490 . S
C1876 C1878 1.395 . S
C1876 C1879 1.403 . S
H1877 C1883 0.930 . S
C1878 H1864 0.930 . S
C1878 C1876 1.395 . S
C1878 C1881 1.403 . S
C1879 C1876 1.403 . S
C1879 C1880 1.524 . S
C1879 C1883 1.400 . S
C1880 H1865 0.960 . S
C1880 H1866 0.960 1_556 S
C1880 H1867 0.960 . S
C1880 C1879 1.524 . S
C1881 C1878 1.403 . S
C1881 C1882 1.392 . S
C1881 C1885 1.495 . S
C1882 C1881 1.392 . S
C1882 C1883 1.385 . S
C1882 C1884 1.478 . S
C1883 H1877 0.930 . S
C1883 C1879 1.400 . S
C1883 C1882 1.385 . S
C1884 C1882 1.478 . S
C1884 C1886 1.381 . S
C1884 C1890 1.383 . S
C1885 C1881 1.495 . S
C1885 H1891 0.959 . S
C1885 H1892 0.961 . S
C1885 H1893 0.960 . S
C1886 C1884 1.381 . S
C1886 C1887 1.394 . S
C1886 H1894 0.930 . S
C1887 C1886 1.394 . S
C1887 C1888 1.383 . S
C1887 H1895 0.929 . S
C1888 C1887 1.383 . S
C1888 C1889 1.377 . S
C1889 H1873 0.930 . S
C1889 C1888 1.377 . S
C1889 C1890 1.379 . S
C1890 H1874 0.931 . S
C1890 C1884 1.383 . S
C1890 C1889 1.379 . S
H1891 C1885 0.959 . S
H1892 C1885 0.961 . S
H1893 C1885 0.960 . S
H1894 C1886 0.930 . S
H1895 C1887 0.929 . S
H1896 C1904 0.929 . S
H1897 C1906 0.930 . S
H1898 C1908 0.930 . S
H1899 C1911 0.929 . S
H1900 C1914 0.930 . S
H1901 C1916 0.960 . S
H1902 C1916 0.960 . S
H1903 C1916 0.960 . S
C1904 H1896 0.929 . S
C1904 C1905 1.377 . S
C1904 C1906 1.384 . S
C1905 C1904 1.377 . S
C1905 C1911 1.390 . S
C1906 H1897 0.930 . S
C1906 C1904 1.384 . S
C1906 C1907 1.372 . S
C1907 C1906 1.372 . S
C1907 C1908 1.400 . S
C1907 C1912 1.490 . S
C1908 H1898 0.930 . S
C1908 C1907 1.400 . S
C1908 C1911 1.386 . S
H1909 C1925 0.930 . S
H1910 C1926 0.931 . S
C1911 H1899 0.929 . S
C1911 C1905 1.390 . S
C1911 C1908 1.386 . S
C1912 C1907 1.490 . S
C1912 C1914 1.395 . S
C1912 C1915 1.403 . S
H1913 C1919 0.930 . S
C1914 H1900 0.930 . S
C1914 C1912 1.395 . S
C1914 C1917 1.403 . S
C1915 C1912 1.403 . S
C1915 C1916 1.524 . S
C1915 C1919 1.400 . S
C1916 H1901 0.960 . S
C1916 H1902 0.960 . S
C1916 H1903 0.960 . S
C1916 C1915 1.524 . S
C1917 C1914 1.403 . S
C1917 C1918 1.392 . S
C1917 C1921 1.495 . S
C1918 C1917 1.392 . S
C1918 C1919 1.385 . S
C1918 C1920 1.478 . S
C1919 H1913 0.930 . S
C1919 C1915 1.400 . S
C1919 C1918 1.385 . S
C1920 C1918 1.478 . S
C1920 C1922 1.381 . S
C1920 C1926 1.383 . S
C1921 C1917 1.495 . S
C1921 H1927 0.959 . S
C1921 H1928 0.961 . S
C1921 H1929 0.960 . S
C1922 C1920 1.381 . S
C1922 C1923 1.394 . S
C1922 H1930 0.930 . S
C1923 C1922 1.394 . S
C1923 C1924 1.383 . S
C1923 H1931 0.929 . S
C1924 C1923 1.383 . S
C1924 C1925 1.377 . S
C1925 H1909 0.930 . S
C1925 C1924 1.377 . S
C1925 C1926 1.379 . S
C1926 H1910 0.931 . S
C1926 C1920 1.383 . S
C1926 C1925 1.379 . S
H1927 C1921 0.959 . S
H1928 C1921 0.961 . S
H1929 C1921 0.960 . S
H1930 C1922 0.930 . S
H1931 C1923 0.929 . S
H1932 C1940 0.929 . S
H1933 C1942 0.930 . S
H1934 C1944 0.930 . S
H1935 C1947 0.929 1_455 S
H1936 C1950 0.930 . S
H1937 C1952 0.960 . S
H1938 C1952 0.960 . S
H1939 C1952 0.960 . S
C1940 H1932 0.929 . S
C1940 C1941 1.377 . S
C1940 C1942 1.384 . S
C1941 C1940 1.377 . S
C1941 C1947 1.390 . S
C1942 H1933 0.930 . S
C1942 C1940 1.384 . S
C1942 C1943 1.372 . S
C1943 C1942 1.372 . S
C1943 C1944 1.400 . S
C1943 C1948 1.490 . S
C1944 H1934 0.930 . S
C1944 C1943 1.400 . S
C1944 C1947 1.386 . S
H1945 C1961 0.930 . S
H1946 C1962 0.931 . S
C1947 H1935 0.929 1_655 S
C1947 C1941 1.390 . S
C1947 C1944 1.386 . S
C1948 C1943 1.490 . S
C1948 C1950 1.395 . S
C1948 C1951 1.403 . S
H1949 C1955 0.930 . S
C1950 H1936 0.930 . S
C1950 C1948 1.395 . S
C1950 C1953 1.403 . S
C1951 C1948 1.403 . S
C1951 C1952 1.524 . S
C1951 C1955 1.400 . S
C1952 H1937 0.960 . S
C1952 H1938 0.960 . S
C1952 H1939 0.960 . S
C1952 C1951 1.524 . S
C1953 C1950 1.403 . S
C1953 C1954 1.392 . S
C1953 C1957 1.495 . S
C1954 C1953 1.392 . S
C1954 C1955 1.385 . S
C1954 C1956 1.478 . S
C1955 H1949 0.930 . S
C1955 C1951 1.400 . S
C1955 C1954 1.385 . S
C1956 C1954 1.478 . S
C1956 C1958 1.381 . S
C1956 C1962 1.383 . S
C1957 C1953 1.495 . S
C1957 H1963 0.959 . S
C1957 H1964 0.961 . S
C1957 H1965 0.960 . S
C1958 C1956 1.381 . S
C1958 C1959 1.394 . S
C1958 H1966 0.930 . S
C1959 C1958 1.394 . S
C1959 C1960 1.383 . S
C1959 H1967 0.929 . S
C1960 C1959 1.383 . S
C1960 C1961 1.377 . S
C1961 H1945 0.930 . S
C1961 C1960 1.377 . S
C1961 C1962 1.379 . S
C1962 H1946 0.931 . S
C1962 C1956 1.383 . S
C1962 C1961 1.379 . S
H1963 C1957 0.959 . S
H1964 C1957 0.961 . S
H1965 C1957 0.960 . S
H1966 C1958 0.930 . S
H1967 C1959 0.929 . S
H1968 C1976 0.929 . S
H1969 C1978 0.930 . S
H1970 C1980 0.930 . S
H1971 C1983 0.929 . S
H1972 C1986 0.930 . S
H1973 C1988 0.960 . S
H1974 C1988 0.960 . S
H1975 C1988 0.960 . S
C1976 H1968 0.929 . S
C1976 C1977 1.377 . S
C1976 C1978 1.384 . S
C1977 C1976 1.377 . S
C1977 C1983 1.390 . S
C1978 H1969 0.930 . S
C1978 C1976 1.384 . S
C1978 C1979 1.372 . S
C1979 C1978 1.372 . S
C1979 C1980 1.400 . S
C1979 C1984 1.490 . S
C1980 H1970 0.930 . S
C1980 C1979 1.400 . S
C1980 C1983 1.386 . S
H1981 C1997 0.930 . S
H1982 C1998 0.931 . S
C1983 H1971 0.929 . S
C1983 C1977 1.390 . S
C1983 C1980 1.386 . S
C1984 C1979 1.490 . S
C1984 C1986 1.395 . S
C1984 C1987 1.403 . S
H1985 C1991 0.930 . S
C1986 H1972 0.930 . S
C1986 C1984 1.395 . S
C1986 C1989 1.403 . S
C1987 C1984 1.403 . S
C1987 C1988 1.524 . S
C1987 C1991 1.400 . S
C1988 H1973 0.960 . S
C1988 H1974 0.960 . S
C1988 H1975 0.960 . S
C1988 C1987 1.524 . S
C1989 C1986 1.403 . S
C1989 C1990 1.392 . S
C1989 C1993 1.495 . S
C1990 C1989 1.392 . S
C1990 C1991 1.385 . S
C1990 C1992 1.478 . S
C1991 H1985 0.930 . S
C1991 C1987 1.400 . S
C1991 C1990 1.385 . S
C1992 C1990 1.478 . S
C1992 C1994 1.381 . S
C1992 C1998 1.383 . S
C1993 C1989 1.495 . S
C1993 H1999 0.959 . S
C1993 H2000 0.961 . S
C1993 H2001 0.960 . S
C1994 C1992 1.381 . S
C1994 C1995 1.394 . S
C1994 H2002 0.930 . S
C1995 C1994 1.394 . S
C1995 C1996 1.383 . S
C1995 H2003 0.929 . S
C1996 C1995 1.383 . S
C1996 C1997 1.377 . S
C1997 H1981 0.930 . S
C1997 C1996 1.377 . S
C1997 C1998 1.379 . S
C1998 H1982 0.931 . S
C1998 C1992 1.383 . S
C1998 C1997 1.379 . S
H1999 C1993 0.959 . S
H2000 C1993 0.961 . S
H2001 C1993 0.960 . S
H2002 C1994 0.930 . S
H2003 C1995 0.929 . S
H2004 C2012 0.929 . S
H2005 C2014 0.930 . S
H2006 C2016 0.930 . S
H2007 C2019 0.929 . S
H2008 C2022 0.930 . S
H2009 C2024 0.960 . S
H2010 C2024 0.960 . S
H2011 C2024 0.960 . S
C2012 H2004 0.929 . S
C2012 C2013 1.377 . S
C2012 C2014 1.384 . S
C2013 C2012 1.377 . S
C2013 C2019 1.390 . S
C2014 H2005 0.930 . S
C2014 C2012 1.384 . S
C2014 C2015 1.372 . S
C2015 C2014 1.372 . S
C2015 C2016 1.400 . S
C2015 C2020 1.490 . S
C2016 H2006 0.930 . S
C2016 C2015 1.400 . S
C2016 C2019 1.386 . S
H2017 C2033 0.930 . S
H2018 C2034 0.931 . S
C2019 H2007 0.929 . S
C2019 C2013 1.390 . S
C2019 C2016 1.386 . S
C2020 C2015 1.490 . S
C2020 C2022 1.395 . S
C2020 C2023 1.403 . S
H2021 C2027 0.930 . S
C2022 H2008 0.930 . S
C2022 C2020 1.395 . S
C2022 C2025 1.403 . S
C2023 C2020 1.403 . S
C2023 C2024 1.524 . S
C2023 C2027 1.400 . S
C2024 H2009 0.960 . S
C2024 H2010 0.960 . S
C2024 H2011 0.960 . S
C2024 C2023 1.524 . S
C2025 C2022 1.403 . S
C2025 C2026 1.392 . S
C2025 C2029 1.495 . S
C2026 C2025 1.392 . S
C2026 C2027 1.385 . S
C2026 C2028 1.478 . S
C2027 H2021 0.930 . S
C2027 C2023 1.400 . S
C2027 C2026 1.385 . S
C2028 C2026 1.478 . S
C2028 C2030 1.381 . S
C2028 C2034 1.383 . S
C2029 C2025 1.495 . S
C2029 H2035 0.959 . S
C2029 H2036 0.961 . S
C2029 H2037 0.960 . S
C2030 C2028 1.381 . S
C2030 C2031 1.394 . S
C2030 H2038 0.930 . S
C2031 C2030 1.394 . S
C2031 C2032 1.383 . S
C2031 H2039 0.929 . S
C2032 C2031 1.383 . S
C2032 C2033 1.377 . S
C2033 H2017 0.930 . S
C2033 C2032 1.377 . S
C2033 C2034 1.379 . S
C2034 H2018 0.931 . S
C2034 C2028 1.383 . S
C2034 C2033 1.379 . S
H2035 C2029 0.959 . S
H2036 C2029 0.961 . S
H2037 C2029 0.960 . S
H2038 C2030 0.930 . S
H2039 C2031 0.929 . S
H2040 C2048 0.929 . S
H2041 C2050 0.930 . S
H2042 C2052 0.930 . S
H2043 C2055 0.929 . S
H2044 C2058 0.930 . S
H2045 C2060 0.960 . S
H2046 C2060 0.960 . S
H2047 C2060 0.960 . S
C2048 H2040 0.929 . S
C2048 C2049 1.377 . S
C2048 C2050 1.384 . S
C2049 C2048 1.377 . S
C2049 C2055 1.390 . S
C2050 H2041 0.930 . S
C2050 C2048 1.384 . S
C2050 C2051 1.372 . S
C2051 C2050 1.372 . S
C2051 C2052 1.400 . S
C2051 C2056 1.490 . S
C2052 H2042 0.930 . S
C2052 C2051 1.400 . S
C2052 C2055 1.386 . S
H2053 C2069 0.930 . S
H2054 C2070 0.931 . S
C2055 H2043 0.929 . S
C2055 C2049 1.390 . S
C2055 C2052 1.386 . S
C2056 C2051 1.490 . S
C2056 C2058 1.395 . S
C2056 C2059 1.403 . S
H2057 C2063 0.930 . S
C2058 H2044 0.930 . S
C2058 C2056 1.395 . S
C2058 C2061 1.403 . S
C2059 C2056 1.403 . S
C2059 C2060 1.524 . S
C2059 C2063 1.400 . S
C2060 H2045 0.960 . S
C2060 H2046 0.960 . S
C2060 H2047 0.960 . S
C2060 C2059 1.524 . S
C2061 C2058 1.403 . S
C2061 C2062 1.392 . S
C2061 C2065 1.495 . S
C2062 C2061 1.392 . S
C2062 C2063 1.385 . S
C2062 C2064 1.478 . S
C2063 H2057 0.930 . S
C2063 C2059 1.400 . S
C2063 C2062 1.385 . S
C2064 C2062 1.478 . S
C2064 C2066 1.381 . S
C2064 C2070 1.383 . S
C2065 C2061 1.495 . S
C2065 H2071 0.959 . S
C2065 H2072 0.961 . S
C2065 H2073 0.960 . S
C2066 C2064 1.381 . S
C2066 C2067 1.394 . S
C2066 H2074 0.930 . S
C2067 C2066 1.394 . S
C2067 C2068 1.383 . S
C2067 H2075 0.929 . S
C2068 C2067 1.383 . S
C2068 C2069 1.377 . S
C2069 H2053 0.930 . S
C2069 C2068 1.377 . S
C2069 C2070 1.379 . S
C2070 H2054 0.931 . S
C2070 C2064 1.383 . S
C2070 C2069 1.379 . S
H2071 C2065 0.959 . S
H2072 C2065 0.961 . S
H2073 C2065 0.960 . S
H2074 C2066 0.930 . S
H2075 C2067 0.929 . S
H2076 C2084 0.929 . S
H2077 C2086 0.930 . S
H2078 C2088 0.930 . S
H2079 C2091 0.929 . S
H2080 C2094 0.930 . S
H2081 C2096 0.960 . S
H2082 C2096 0.960 . S
H2083 C2096 0.960 . S
C2084 H2076 0.929 . S
C2084 C2085 1.377 . S
C2084 C2086 1.384 . S
C2085 C2084 1.377 . S
C2085 C2091 1.390 . S
C2086 H2077 0.930 . S
C2086 C2084 1.384 . S
C2086 C2087 1.372 . S
C2087 C2086 1.372 . S
C2087 C2088 1.400 . S
C2087 C2092 1.490 . S
C2088 H2078 0.930 . S
C2088 C2087 1.400 . S
C2088 C2091 1.386 . S
H2089 C2105 0.930 . S
H2090 C2106 0.931 . S
C2091 H2079 0.929 . S
C2091 C2085 1.390 . S
C2091 C2088 1.386 . S
C2092 C2087 1.490 . S
C2092 C2094 1.395 . S
C2092 C2095 1.403 . S
H2093 C2099 0.930 . S
C2094 H2080 0.930 . S
C2094 C2092 1.395 . S
C2094 C2097 1.403 . S
C2095 C2092 1.403 . S
C2095 C2096 1.524 . S
C2095 C2099 1.400 . S
C2096 H2081 0.960 . S
C2096 H2082 0.960 . S
C2096 H2083 0.960 . S
C2096 C2095 1.524 . S
C2097 C2094 1.403 . S
C2097 C2098 1.392 . S
C2097 C2101 1.495 . S
C2098 C2097 1.392 . S
C2098 C2099 1.385 . S
C2098 C2100 1.478 . S
C2099 H2093 0.930 . S
C2099 C2095 1.400 . S
C2099 C2098 1.385 . S
C2100 C2098 1.478 . S
C2100 C2102 1.381 . S
C2100 C2106 1.383 . S
C2101 C2097 1.495 . S
C2101 H2107 0.959 . S
C2101 H2108 0.961 . S
C2101 H2109 0.960 . S
C2102 C2100 1.381 . S
C2102 C2103 1.394 . S
C2102 H2110 0.930 . S
C2103 C2102 1.394 . S
C2103 C2104 1.383 . S
C2103 H2111 0.929 . S
C2104 C2103 1.383 . S
C2104 C2105 1.377 . S
C2105 H2089 0.930 . S
C2105 C2104 1.377 . S
C2105 C2106 1.379 . S
C2106 H2090 0.931 . S
C2106 C2100 1.383 . S
C2106 C2105 1.379 . S
H2107 C2101 0.959 . S
H2108 C2101 0.961 . S
H2109 C2101 0.960 . S
H2110 C2102 0.930 . S
H2111 C2103 0.929 . S
H2112 C2120 0.929 . S
H2113 C2122 0.930 . S
H2114 C2124 0.930 . S
H2115 C2127 0.929 . S
H2116 C2130 0.930 . S
H2117 C2132 0.960 . S
H2118 C2132 0.960 . S
H2119 C2132 0.960 . S
C2120 H2112 0.929 . S
C2120 C2121 1.377 . S
C2120 C2122 1.384 . S
C2121 C2120 1.377 . S
C2121 C2127 1.390 . S
C2122 H2113 0.930 . S
C2122 C2120 1.384 . S
C2122 C2123 1.372 . S
C2123 C2122 1.372 . S
C2123 C2124 1.400 . S
C2123 C2128 1.490 . S
C2124 H2114 0.930 . S
C2124 C2123 1.400 . S
C2124 C2127 1.386 . S
H2125 C2141 0.930 . S
H2126 C2142 0.931 . S
C2127 H2115 0.929 . S
C2127 C2121 1.390 . S
C2127 C2124 1.386 . S
C2128 C2123 1.490 . S
C2128 C2130 1.395 . S
C2128 C2131 1.403 . S
H2129 C2135 0.930 . S
C2130 H2116 0.930 . S
C2130 C2128 1.395 . S
C2130 C2133 1.403 . S
C2131 C2128 1.403 . S
C2131 C2132 1.524 . S
C2131 C2135 1.400 . S
C2132 H2117 0.960 . S
C2132 H2118 0.960 . S
C2132 H2119 0.960 . S
C2132 C2131 1.524 . S
C2133 C2130 1.403 . S
C2133 C2134 1.392 . S
C2133 C2137 1.495 . S
C2134 C2133 1.392 . S
C2134 C2135 1.385 . S
C2134 C2136 1.478 . S
C2135 H2129 0.930 . S
C2135 C2131 1.400 . S
C2135 C2134 1.385 . S
C2136 C2134 1.478 . S
C2136 C2138 1.381 . S
C2136 C2142 1.383 . S
C2137 C2133 1.495 . S
C2137 H2143 0.959 . S
C2137 H2144 0.961 . S
C2137 H2145 0.960 . S
C2138 C2136 1.381 . S
C2138 C2139 1.394 . S
C2138 H2146 0.930 . S
C2139 C2138 1.394 . S
C2139 C2140 1.383 . S
C2139 H2147 0.929 . S
C2140 C2139 1.383 . S
C2140 C2141 1.377 . S
C2141 H2125 0.930 . S
C2141 C2140 1.377 . S
C2141 C2142 1.379 . S
C2142 H2126 0.931 . S
C2142 C2136 1.383 . S
C2142 C2141 1.379 . S
H2143 C2137 0.959 . S
H2144 C2137 0.961 . S
H2145 C2137 0.960 . S
H2146 C2138 0.930 . S
H2147 C2139 0.929 . S
H2148 C2156 0.929 . S
H2149 C2158 0.930 . S
H2150 C2160 0.930 . S
H2151 C2163 0.929 . S
H2152 C2166 0.930 . S
H2153 C2168 0.960 . S
H2154 C2168 0.960 . S
H2155 C2168 0.960 . S
C2156 H2148 0.929 . S
C2156 C2157 1.377 . S
C2156 C2158 1.384 . S
C2157 C2156 1.377 . S
C2157 C2163 1.390 . S
C2158 H2149 0.930 . S
C2158 C2156 1.384 . S
C2158 C2159 1.372 . S
C2159 C2158 1.372 . S
C2159 C2160 1.400 . S
C2159 C2164 1.490 . S
C2160 H2150 0.930 . S
C2160 C2159 1.400 . S
C2160 C2163 1.386 . S
H2161 C2177 0.930 1_556 S
H2162 C2178 0.931 . S
C2163 H2151 0.929 . S
C2163 C2157 1.390 . S
C2163 C2160 1.386 . S
C2164 C2159 1.490 . S
C2164 C2166 1.395 . S
C2164 C2167 1.403 . S
H2165 C2171 0.930 . S
C2166 H2152 0.930 . S
C2166 C2164 1.395 . S
C2166 C2169 1.403 . S
C2167 C2164 1.403 . S
C2167 C2168 1.524 . S
C2167 C2171 1.400 . S
C2168 H2153 0.960 . S
C2168 H2154 0.960 . S
C2168 H2155 0.960 . S
C2168 C2167 1.524 . S
C2169 C2166 1.403 . S
C2169 C2170 1.392 . S
C2169 C2173 1.495 . S
C2170 C2169 1.392 . S
C2170 C2171 1.385 . S
C2170 C2172 1.478 . S
C2171 H2165 0.930 . S
C2171 C2167 1.400 . S
C2171 C2170 1.385 . S
C2172 C2170 1.478 . S
C2172 C2174 1.381 . S
C2172 C2178 1.383 . S
C2173 C2169 1.495 . S
C2173 H2179 0.959 . S
C2173 H2180 0.961 . S
C2173 H2181 0.960 . S
C2174 C2172 1.381 . S
C2174 C2175 1.394 . S
C2174 H2182 0.930 . S
C2175 C2174 1.394 . S
C2175 C2176 1.383 . S
C2175 H2183 0.929 . S
C2176 C2175 1.383 . S
C2176 C2177 1.377 . S
C2177 H2161 0.930 1_554 S
C2177 C2176 1.377 . S
C2177 C2178 1.379 . S
C2178 H2162 0.931 . S
C2178 C2172 1.383 . S
C2178 C2177 1.379 . S
H2179 C2173 0.959 . S
H2180 C2173 0.961 . S
H2181 C2173 0.960 . S
H2182 C2174 0.930 . S
H2183 C2175 0.929 . S
H2184 C2192 0.929 . S
H2185 C2194 0.930 . S
H2186 C2196 0.930 . S
H2187 C2199 0.929 . S
H2188 C2202 0.930 . S
H2189 C2204 0.960 . S
H2190 C2204 0.960 . S
H2191 C2204 0.960 . S
C2192 H2184 0.929 . S
C2192 C2193 1.377 . S
C2192 C2194 1.384 . S
C2193 C2192 1.377 . S
C2193 C2199 1.390 . S
C2194 H2185 0.930 . S
C2194 C2192 1.384 . S
C2194 C2195 1.372 . S
C2195 C2194 1.372 . S
C2195 C2196 1.400 . S
C2195 C2200 1.490 . S
C2196 H2186 0.930 . S
C2196 C2195 1.400 . S
C2196 C2199 1.386 . S
H2197 C2213 0.930 . S
H2198 C2214 0.931 . S
C2199 H2187 0.929 . S
C2199 C2193 1.390 . S
C2199 C2196 1.386 . S
C2200 C2195 1.490 . S
C2200 C2202 1.395 . S
C2200 C2203 1.403 . S
H2201 C2207 0.930 . S
C2202 H2188 0.930 . S
C2202 C2200 1.395 . S
C2202 C2205 1.403 . S
C2203 C2200 1.403 . S
C2203 C2204 1.524 . S
C2203 C2207 1.400 . S
C2204 H2189 0.960 . S
C2204 H2190 0.960 . S
C2204 H2191 0.960 . S
C2204 C2203 1.524 . S
C2205 C2202 1.403 . S
C2205 C2206 1.392 . S
C2205 C2209 1.495 . S
C2206 C2205 1.392 . S
C2206 C2207 1.385 . S
C2206 C2208 1.478 . S
C2207 H2201 0.930 . S
C2207 C2203 1.400 . S
C2207 C2206 1.385 . S
C2208 C2206 1.478 . S
C2208 C2210 1.381 . S
C2208 C2214 1.383 . S
C2209 C2205 1.495 . S
C2209 H2215 0.959 . S
C2209 H2216 0.961 . S
C2209 H2217 0.960 . S
C2210 C2208 1.381 . S
C2210 C2211 1.394 . S
C2210 H2218 0.930 . S
C2211 C2210 1.394 . S
C2211 C2212 1.383 . S
C2211 H2219 0.929 . S
C2212 C2211 1.383 . S
C2212 C2213 1.377 . S
C2213 H2197 0.930 . S
C2213 C2212 1.377 . S
C2213 C2214 1.379 . S
C2214 H2198 0.931 . S
C2214 C2208 1.383 . S
C2214 C2213 1.379 . S
H2215 C2209 0.959 . S
H2216 C2209 0.961 . S
H2217 C2209 0.960 . S
H2218 C2210 0.930 . S
H2219 C2211 0.929 . S
H2220 C2228 0.929 . S
H2221 C2230 0.930 . S
H2222 C2232 0.930 . S
H2223 C2235 0.929 . S
H2224 C2238 0.930 . S
H2225 C2240 0.960 . S
H2226 C2240 0.960 . S
H2227 C2240 0.960 . S
C2228 H2220 0.929 . S
C2228 C2229 1.377 . S
C2228 C2230 1.384 . S
C2229 C2228 1.377 . S
C2229 C2235 1.390 . S
C2230 H2221 0.930 . S
C2230 C2228 1.384 . S
C2230 C2231 1.372 . S
C2231 C2230 1.372 . S
C2231 C2232 1.400 . S
C2231 C2236 1.490 . S
C2232 H2222 0.930 . S
C2232 C2231 1.400 . S
C2232 C2235 1.386 . S
H2233 C2249 0.930 . S
H2234 C2250 0.931 . S
C2235 H2223 0.929 . S
C2235 C2229 1.390 . S
C2235 C2232 1.386 . S
C2236 C2231 1.490 . S
C2236 C2238 1.395 . S
C2236 C2239 1.403 . S
H2237 C2243 0.930 . S
C2238 H2224 0.930 . S
C2238 C2236 1.395 . S
C2238 C2241 1.403 . S
C2239 C2236 1.403 . S
C2239 C2240 1.524 . S
C2239 C2243 1.400 . S
C2240 H2225 0.960 . S
C2240 H2226 0.960 . S
C2240 H2227 0.960 . S
C2240 C2239 1.524 . S
C2241 C2238 1.403 . S
C2241 C2242 1.392 . S
C2241 C2245 1.495 . S
C2242 C2241 1.392 . S
C2242 C2243 1.385 . S
C2242 C2244 1.478 . S
C2243 H2237 0.930 . S
C2243 C2239 1.400 . S
C2243 C2242 1.385 . S
C2244 C2242 1.478 . S
C2244 C2246 1.381 . S
C2244 C2250 1.383 . S
C2245 C2241 1.495 . S
C2245 H2251 0.959 . S
C2245 H2252 0.961 . S
C2245 H2253 0.960 . S
C2246 C2244 1.381 . S
C2246 C2247 1.394 . S
C2246 H2254 0.930 . S
C2247 C2246 1.394 . S
C2247 C2248 1.383 . S
C2247 H2255 0.929 . S
C2248 C2247 1.383 . S
C2248 C2249 1.377 . S
C2249 H2233 0.930 . S
C2249 C2248 1.377 . S
C2249 C2250 1.379 . S
C2250 H2234 0.931 . S
C2250 C2244 1.383 . S
C2250 C2249 1.379 . S
H2251 C2245 0.959 . S
H2252 C2245 0.961 . S
H2253 C2245 0.960 . S
H2254 C2246 0.930 . S
H2255 C2247 0.929 . S
H2256 C2264 0.929 . S
H2257 C2266 0.930 . S
H2258 C2268 0.930 . S
H2259 C2271 0.929 . S
H2260 C2274 0.930 . S
H2261 C2276 0.960 . S
H2262 C2276 0.960 . S
H2263 C2276 0.960 . S
C2264 H2256 0.929 . S
C2264 C2265 1.377 . S
C2264 C2266 1.384 . S
C2265 C2264 1.377 . S
C2265 C2271 1.390 . S
C2266 H2257 0.930 . S
C2266 C2264 1.384 . S
C2266 C2267 1.372 . S
C2267 C2266 1.372 . S
C2267 C2268 1.400 . S
C2267 C2272 1.490 . S
C2268 H2258 0.930 . S
C2268 C2267 1.400 . S
C2268 C2271 1.386 . S
H2269 C2285 0.930 . S
H2270 C2286 0.931 . S
C2271 H2259 0.929 . S
C2271 C2265 1.390 . S
C2271 C2268 1.386 . S
C2272 C2267 1.490 . S
C2272 C2274 1.395 . S
C2272 C2275 1.403 . S
H2273 C2279 0.930 . S
C2274 H2260 0.930 . S
C2274 C2272 1.395 . S
C2274 C2277 1.403 . S
C2275 C2272 1.403 . S
C2275 C2276 1.524 . S
C2275 C2279 1.400 . S
C2276 H2261 0.960 . S
C2276 H2262 0.960 . S
C2276 H2263 0.960 . S
C2276 C2275 1.524 . S
C2277 C2274 1.403 . S
C2277 C2278 1.392 . S
C2277 C2281 1.495 . S
C2278 C2277 1.392 . S
C2278 C2279 1.385 . S
C2278 C2280 1.478 . S
C2279 H2273 0.930 . S
C2279 C2275 1.400 . S
C2279 C2278 1.385 . S
C2280 C2278 1.478 . S
C2280 C2282 1.381 . S
C2280 C2286 1.383 . S
C2281 C2277 1.495 . S
C2281 H2287 0.959 . S
C2281 H2288 0.961 . S
C2281 H2289 0.960 . S
C2282 C2280 1.381 . S
C2282 C2283 1.394 . S
C2282 H2290 0.930 . S
C2283 C2282 1.394 . S
C2283 C2284 1.383 . S
C2283 H2291 0.929 . S
C2284 C2283 1.383 . S
C2284 C2285 1.377 . S
C2285 H2269 0.930 . S
C2285 C2284 1.377 . S
C2285 C2286 1.379 . S
C2286 H2270 0.931 . S
C2286 C2280 1.383 . S
C2286 C2285 1.379 . S
H2287 C2281 0.959 . S
H2288 C2281 0.961 . S
H2289 C2281 0.960 . S
H2290 C2282 0.930 . S
H2291 C2283 0.929 . S
H2292 C2300 0.929 . S
H2293 C2302 0.930 . S
H2294 C2304 0.930 . S
H2295 C2307 0.929 . S
H2296 C2310 0.930 . S
H2297 C2312 0.960 . S
H2298 C2312 0.960 . S
H2299 C2312 0.960 . S
C2300 H2292 0.929 . S
C2300 C2301 1.377 . S
C2300 C2302 1.384 . S
C2301 C2300 1.377 . S
C2301 C2307 1.390 . S
C2302 H2293 0.930 . S
C2302 C2300 1.384 . S
C2302 C2303 1.372 . S
C2303 C2302 1.372 . S
C2303 C2304 1.400 . S
C2303 C2308 1.490 . S
C2304 H2294 0.930 . S
C2304 C2303 1.400 . S
C2304 C2307 1.386 . S
H2305 C2321 0.930 . S
H2306 C2322 0.931 . S
C2307 H2295 0.929 . S
C2307 C2301 1.390 . S
C2307 C2304 1.386 . S
C2308 C2303 1.490 . S
C2308 C2310 1.395 . S
C2308 C2311 1.403 . S
H2309 C2315 0.930 . S
C2310 H2296 0.930 . S
C2310 C2308 1.395 . S
C2310 C2313 1.403 . S
C2311 C2308 1.403 . S
C2311 C2312 1.524 . S
C2311 C2315 1.400 . S
C2312 H2297 0.960 . S
C2312 H2298 0.960 . S
C2312 H2299 0.960 . S
C2312 C2311 1.524 . S
C2313 C2310 1.403 . S
C2313 C2314 1.392 . S
C2313 C2317 1.495 . S
C2314 C2313 1.392 . S
C2314 C2315 1.385 . S
C2314 C2316 1.478 . S
C2315 H2309 0.930 . S
C2315 C2311 1.400 . S
C2315 C2314 1.385 . S
C2316 C2314 1.478 . S
C2316 C2318 1.381 . S
C2316 C2322 1.383 . S
C2317 C2313 1.495 . S
C2317 H2323 0.959 . S
C2317 H2324 0.961 . S
C2317 H2325 0.960 . S
C2318 C2316 1.381 . S
C2318 C2319 1.394 . S
C2318 H2326 0.930 . S
C2319 C2318 1.394 . S
C2319 C2320 1.383 . S
C2319 H2327 0.929 . S
C2320 C2319 1.383 . S
C2320 C2321 1.377 . S
C2321 H2305 0.930 . S
C2321 C2320 1.377 . S
C2321 C2322 1.379 . S
C2322 H2306 0.931 . S
C2322 C2316 1.383 . S
C2322 C2321 1.379 . S
H2323 C2317 0.959 . S
H2324 C2317 0.961 . S
H2325 C2317 0.960 . S
H2326 C2318 0.930 . S
H2327 C2319 0.929 . S
H2328 C2336 0.929 . S
H2329 C2338 0.930 . S
H2330 C2340 0.930 . S
H2331 C2343 0.926 1_655 S
H2332 C2346 0.930 1_655 S
H2333 C2348 0.960 . S
H2334 C2348 0.960 . S
H2335 C2348 0.960 . S
C2336 H2328 0.929 . S
C2336 C2337 1.377 1_455 S
C2336 C2338 1.384 . S
C2337 C2336 1.377 1_655 S
C2337 C2343 1.388 1_655 S
C2338 H2329 0.930 . S
C2338 C2336 1.384 . S
C2338 C2339 1.372 . S
C2339 C2338 1.372 . S
C2339 C2340 1.400 . S
C2339 C2344 1.490 . S
C2340 H2330 0.930 . S
C2340 C2339 1.400 . S
C2340 C2343 1.390 . S
H2341 C2357 0.930 . S
H2342 C2358 0.931 . S
C2343 H2331 0.926 1_455 S
C2343 C2337 1.388 1_455 S
C2343 C2340 1.390 . S
C2344 C2339 1.490 . S
C2344 C2346 1.395 . S
C2344 C2347 1.403 . S
H2345 C2351 0.930 . S
C2346 H2332 0.930 1_455 S
C2346 C2344 1.395 . S
C2346 C2349 1.403 . S
C2347 C2344 1.403 . S
C2347 C2348 1.524 . S
C2347 C2351 1.400 . S
C2348 H2333 0.960 . S
C2348 H2334 0.960 . S
C2348 H2335 0.960 . S
C2348 C2347 1.524 . S
C2349 C2346 1.403 . S
C2349 C2350 1.392 . S
C2349 C2353 1.495 1_455 S
C2350 C2349 1.392 . S
C2350 C2351 1.385 . S
C2350 C2352 1.478 . S
C2351 H2345 0.930 . S
C2351 C2347 1.400 . S
C2351 C2350 1.385 . S
C2352 C2350 1.478 . S
C2352 C2354 1.381 . S
C2352 C2358 1.383 . S
C2353 C2349 1.495 1_655 S
C2353 H2359 0.959 . S
C2353 H2360 0.961 . S
C2353 H2361 0.960 1_655 S
C2354 C2352 1.381 . S
C2354 C2355 1.394 . S
C2354 H2362 0.930 . S
C2355 C2354 1.394 . S
C2355 C2356 1.383 . S
C2355 H2363 0.929 . S
C2356 C2355 1.383 . S
C2356 C2357 1.377 . S
C2357 H2341 0.930 . S
C2357 C2356 1.377 . S
C2357 C2358 1.379 . S
C2358 H2342 0.931 . S
C2358 C2352 1.383 . S
C2358 C2357 1.379 . S
H2359 C2353 0.959 . S
H2360 C2353 0.961 . S
H2361 C2353 0.960 1_455 S
H2362 C2354 0.930 . S
H2363 C2355 0.929 . S
H2364 C2372 0.929 . S
H2365 C2374 0.930 . S
H2366 C2376 0.932 . S
H2367 C2379 0.929 . S
H2368 C2382 0.930 1_556 S
H2369 C2384 0.960 . S
H2370 C2384 0.960 . S
H2371 C2384 0.960 . S
C2372 H2364 0.929 . S
C2372 C2373 1.377 1_554 S
C2372 C2374 1.384 . S
C2373 C2372 1.377 1_556 S
C2373 C2379 1.390 . S
C2374 H2365 0.930 . S
C2374 C2372 1.384 . S
C2374 C2375 1.372 . S
C2375 C2374 1.372 . S
C2375 C2376 1.400 . S
C2375 C2380 1.490 . S
C2376 H2366 0.932 . S
C2376 C2375 1.400 . S
C2376 C2379 1.386 1_554 S
H2377 C2393 0.930 . S
H2378 C2394 0.931 . S
C2379 H2367 0.929 . S
C2379 C2373 1.390 . S
C2379 C2376 1.386 1_556 S
C2380 C2375 1.490 . S
C2380 C2382 1.395 . S
C2380 C2383 1.403 . S
H2381 C2387 0.930 . S
C2382 H2368 0.930 1_554 S
C2382 C2380 1.395 . S
C2382 C2385 1.403 . S
C2383 C2380 1.403 . S
C2383 C2384 1.524 . S
C2383 C2387 1.400 . S
C2384 H2369 0.960 . S
C2384 H2370 0.960 . S
C2384 H2371 0.960 . S
C2384 C2383 1.524 . S
C2385 C2382 1.403 . S
C2385 C2386 1.392 . S
C2385 C2389 1.495 . S
C2386 C2385 1.392 . S
C2386 C2387 1.385 . S
C2386 C2388 1.478 . S
C2387 H2381 0.930 . S
C2387 C2383 1.400 . S
C2387 C2386 1.385 . S
C2388 C2386 1.478 . S
C2388 C2390 1.381 . S
C2388 C2394 1.383 . S
C2389 C2385 1.495 . S
C2389 H2395 0.959 1_554 S
C2389 H2396 0.961 1_554 S
C2389 H2397 0.960 . S
C2390 C2388 1.381 . S
C2390 C2391 1.394 . S
C2390 H2398 0.930 . S
C2391 C2390 1.394 . S
C2391 C2392 1.383 . S
C2391 H2399 0.929 . S
C2392 C2391 1.383 . S
C2392 C2393 1.377 . S
C2393 H2377 0.930 . S
C2393 C2392 1.377 . S
C2393 C2394 1.379 . S
C2394 H2378 0.931 . S
C2394 C2388 1.383 . S
C2394 C2393 1.379 . S
H2395 C2389 0.959 1_556 S
H2396 C2389 0.961 1_556 S
H2397 C2389 0.960 . S
H2398 C2390 0.930 . S
H2399 C2391 0.929 . S
H2400 C2408 0.929 . S
H2401 C2410 0.930 . S
H2402 C2412 0.930 . S
H2403 C2415 0.929 1_565 S
H2404 C2418 0.930 . S
H2405 C2420 0.960 . S
H2406 C2420 0.960 . S
H2407 C2420 0.960 . S
C2408 H2400 0.929 . S
C2408 C2409 1.377 . S
C2408 C2410 1.384 . S
C2409 C2408 1.377 . S
C2409 C2415 1.390 . S
C2410 H2401 0.930 . S
C2410 C2408 1.384 . S
C2410 C2411 1.372 . S
C2411 C2410 1.372 . S
C2411 C2412 1.400 . S
C2411 C2416 1.490 . S
C2412 H2402 0.930 . S
C2412 C2411 1.400 . S
C2412 C2415 1.386 . S
H2413 C2429 0.930 . S
H2414 C2430 0.931 . S
C2415 H2403 0.929 1_545 S
C2415 C2409 1.390 . S
C2415 C2412 1.386 . S
C2416 C2411 1.490 . S
C2416 C2418 1.395 . S
C2416 C2419 1.403 . S
H2417 C2423 0.930 . S
C2418 H2404 0.930 . S
C2418 C2416 1.395 . S
C2418 C2421 1.403 . S
C2419 C2416 1.403 . S
C2419 C2420 1.524 . S
C2419 C2423 1.400 . S
C2420 H2405 0.960 . S
C2420 H2406 0.960 . S
C2420 H2407 0.960 . S
C2420 C2419 1.524 . S
C2421 C2418 1.403 . S
C2421 C2422 1.392 . S
C2421 C2425 1.495 . S
C2422 C2421 1.392 . S
C2422 C2423 1.385 . S
C2422 C2424 1.478 . S
C2423 H2417 0.930 . S
C2423 C2419 1.400 . S
C2423 C2422 1.385 . S
C2424 C2422 1.478 . S
C2424 C2426 1.381 . S
C2424 C2430 1.383 . S
C2425 C2421 1.495 . S
C2425 H2431 0.959 . S
C2425 H2432 0.961 . S
C2425 H2433 0.960 . S
C2426 C2424 1.381 . S
C2426 C2427 1.394 . S
C2426 H2434 0.930 . S
C2427 C2426 1.394 . S
C2427 C2428 1.383 . S
C2427 H2435 0.929 . S
C2428 C2427 1.383 . S
C2428 C2429 1.377 . S
C2429 H2413 0.930 . S
C2429 C2428 1.377 . S
C2429 C2430 1.379 . S
C2430 H2414 0.931 . S
C2430 C2424 1.383 . S
C2430 C2429 1.379 . S
H2431 C2425 0.959 . S
H2432 C2425 0.961 . S
H2433 C2425 0.960 . S
H2434 C2426 0.930 . S
H2435 C2427 0.929 . S
H2436 C2444 0.929 . S
H2437 C2446 0.930 . S
H2438 C2448 0.930 . S
H2439 C2451 0.929 . S
H2440 C2454 0.930 . S
H2441 C2456 0.960 . S
H2442 C2456 0.960 . S
H2443 C2456 0.960 . S
C2444 H2436 0.929 . S
C2444 C2445 1.377 . S
C2444 C2446 1.384 . S
C2445 C2444 1.377 . S
C2445 C2451 1.390 . S
C2446 H2437 0.930 . S
C2446 C2444 1.384 . S
C2446 C2447 1.372 . S
C2447 C2446 1.372 . S
C2447 C2448 1.400 . S
C2447 C2452 1.490 . S
C2448 H2438 0.930 . S
C2448 C2447 1.400 . S
C2448 C2451 1.386 . S
H2449 C2465 0.930 . S
H2450 C2466 0.931 . S
C2451 H2439 0.929 . S
C2451 C2445 1.390 . S
C2451 C2448 1.386 . S
C2452 C2447 1.490 . S
C2452 C2454 1.395 . S
C2452 C2455 1.403 . S
H2453 C2459 0.930 . S
C2454 H2440 0.930 . S
C2454 C2452 1.395 . S
C2454 C2457 1.403 . S
C2455 C2452 1.403 . S
C2455 C2456 1.524 . S
C2455 C2459 1.400 . S
C2456 H2441 0.960 . S
C2456 H2442 0.960 . S
C2456 H2443 0.960 . S
C2456 C2455 1.524 . S
C2457 C2454 1.403 . S
C2457 C2458 1.392 . S
C2457 C2461 1.495 . S
C2458 C2457 1.392 . S
C2458 C2459 1.385 . S
C2458 C2460 1.478 . S
C2459 H2453 0.930 . S
C2459 C2455 1.400 . S
C2459 C2458 1.385 . S
C2460 C2458 1.478 . S
C2460 C2462 1.381 . S
C2460 C2466 1.383 . S
C2461 C2457 1.495 . S
C2461 H2467 0.959 . S
C2461 H2468 0.961 . S
C2461 H2469 0.960 . S
C2462 C2460 1.381 . S
C2462 C2463 1.394 . S
C2462 H2470 0.930 . S
C2463 C2462 1.394 . S
C2463 C2464 1.383 . S
C2463 H2471 0.929 . S
C2464 C2463 1.383 . S
C2464 C2465 1.377 . S
C2465 H2449 0.930 . S
C2465 C2464 1.377 . S
C2465 C2466 1.379 . S
C2466 H2450 0.931 . S
C2466 C2460 1.383 . S
C2466 C2465 1.379 . S
H2467 C2461 0.959 . S
H2468 C2461 0.961 . S
H2469 C2461 0.960 . S
H2470 C2462 0.930 . S
H2471 C2463 0.929 . S
H2472 C2480 0.929 . S
H2473 C2482 0.935 . S
H2474 C2484 0.930 . S
H2475 C2487 0.929 . S
H2476 C2490 0.930 . S
H2477 C2492 0.960 . S
H2478 C2492 0.960 . S
H2479 C2492 0.960 . S
C2480 H2472 0.929 . S
C2480 C2481 1.377 . S
C2480 C2482 1.384 1_565 S
C2481 C2480 1.377 . S
C2481 C2487 1.390 1_565 S
C2482 H2473 0.935 . S
C2482 C2480 1.384 1_545 S
C2482 C2483 1.372 . S
C2483 C2482 1.372 . S
C2483 C2484 1.400 . S
C2483 C2488 1.490 . S
C2484 H2474 0.930 . S
C2484 C2483 1.400 . S
C2484 C2487 1.386 . S
H2485 C2501 0.930 . S
H2486 C2502 0.931 . S
C2487 H2475 0.929 . S
C2487 C2481 1.390 1_545 S
C2487 C2484 1.386 . S
C2488 C2483 1.490 . S
C2488 C2490 1.395 . S
C2488 C2491 1.403 . S
H2489 C2495 0.930 . S
C2490 H2476 0.930 . S
C2490 C2488 1.395 . S
C2490 C2493 1.403 . S
C2491 C2488 1.403 . S
C2491 C2492 1.524 1_545 S
C2491 C2495 1.400 . S
C2492 H2477 0.960 . S
C2492 H2478 0.960 . S
C2492 H2479 0.960 . S
C2492 C2491 1.524 1_565 S
C2493 C2490 1.403 . S
C2493 C2494 1.392 . S
C2493 C2497 1.495 . S
C2494 C2493 1.392 . S
C2494 C2495 1.385 . S
C2494 C2496 1.478 . S
C2495 H2489 0.930 . S
C2495 C2491 1.400 . S
C2495 C2494 1.385 . S
C2496 C2494 1.478 . S
C2496 C2498 1.381 . S
C2496 C2502 1.383 . S
C2497 C2493 1.495 . S
C2497 H2503 0.959 . S
C2497 H2504 0.961 . S
C2497 H2505 0.960 . S
C2498 C2496 1.381 . S
C2498 C2499 1.394 . S
C2498 H2506 0.930 . S
C2499 C2498 1.394 . S
C2499 C2500 1.383 . S
C2499 H2507 0.929 . S
C2500 C2499 1.383 . S
C2500 C2501 1.377 . S
C2501 H2485 0.930 . S
C2501 C2500 1.377 . S
C2501 C2502 1.379 . S
C2502 H2486 0.931 . S
C2502 C2496 1.383 . S
C2502 C2501 1.379 . S
H2503 C2497 0.959 . S
H2504 C2497 0.961 . S
H2505 C2497 0.960 . S
H2506 C2498 0.930 . S
H2507 C2499 0.929 . S
H2508 C2516 0.929 . S
H2509 C2518 0.930 . S
H2510 C2520 0.930 . S
H2511 C2523 0.929 . S
H2512 C2526 0.930 . S
H2513 C2528 0.960 . S
H2514 C2528 0.960 . S
H2515 C2528 0.960 . S
C2516 H2508 0.929 . S
C2516 C2517 1.377 . S
C2516 C2518 1.384 . S
C2517 C2516 1.377 . S
C2517 C2523 1.390 . S
C2518 H2509 0.930 . S
C2518 C2516 1.384 . S
C2518 C2519 1.372 . S
C2519 C2518 1.372 . S
C2519 C2520 1.400 . S
C2519 C2524 1.490 . S
C2520 H2510 0.930 . S
C2520 C2519 1.400 . S
C2520 C2523 1.386 . S
H2521 C2537 0.930 . S
H2522 C2538 0.931 . S
C2523 H2511 0.929 . S
C2523 C2517 1.390 . S
C2523 C2520 1.386 . S
C2524 C2519 1.490 . S
C2524 C2526 1.395 . S
C2524 C2527 1.403 . S
H2525 C2531 0.930 . S
C2526 H2512 0.930 . S
C2526 C2524 1.395 . S
C2526 C2529 1.403 . S
C2527 C2524 1.403 . S
C2527 C2528 1.524 . S
C2527 C2531 1.400 . S
C2528 H2513 0.960 . S
C2528 H2514 0.960 . S
C2528 H2515 0.960 . S
C2528 C2527 1.524 . S
C2529 C2526 1.403 . S
C2529 C2530 1.392 . S
C2529 C2533 1.495 . S
C2530 C2529 1.392 . S
C2530 C2531 1.385 . S
C2530 C2532 1.478 . S
C2531 H2525 0.930 . S
C2531 C2527 1.400 . S
C2531 C2530 1.385 . S
C2532 C2530 1.478 . S
C2532 C2534 1.381 . S
C2532 C2538 1.383 . S
C2533 C2529 1.495 . S
C2533 H2539 0.959 . S
C2533 H2540 0.961 . S
C2533 H2541 0.960 . S
C2534 C2532 1.381 . S
C2534 C2535 1.394 . S
C2534 H2542 0.930 . S
C2535 C2534 1.394 . S
C2535 C2536 1.383 . S
C2535 H2543 0.929 . S
C2536 C2535 1.383 . S
C2536 C2537 1.377 . S
C2537 H2521 0.930 . S
C2537 C2536 1.377 . S
C2537 C2538 1.379 . S
C2538 H2522 0.931 . S
C2538 C2532 1.383 . S
C2538 C2537 1.379 . S
H2539 C2533 0.959 . S
H2540 C2533 0.961 . S
H2541 C2533 0.960 . S
H2542 C2534 0.930 . S
H2543 C2535 0.929 . S
H2544 C2552 0.929 . S
H2545 C2554 0.930 . S
H2546 C2556 0.930 . S
H2547 C2559 0.929 . S
H2548 C2562 0.930 . S
H2549 C2564 0.960 . S
H2550 C2564 0.960 . S
H2551 C2564 0.960 . S
C2552 H2544 0.929 . S
C2552 C2553 1.377 . S
C2552 C2554 1.384 . S
C2553 C2552 1.377 . S
C2553 C2559 1.390 . S
C2554 H2545 0.930 . S
C2554 C2552 1.384 . S
C2554 C2555 1.372 . S
C2555 C2554 1.372 . S
C2555 C2556 1.400 . S
C2555 C2560 1.490 . S
C2556 H2546 0.930 . S
C2556 C2555 1.400 . S
C2556 C2559 1.386 . S
H2557 C2573 0.930 . S
H2558 C2574 0.931 . S
C2559 H2547 0.929 . S
C2559 C2553 1.390 . S
C2559 C2556 1.386 . S
C2560 C2555 1.490 . S
C2560 C2562 1.395 . S
C2560 C2563 1.403 . S
H2561 C2567 0.930 . S
C2562 H2548 0.930 . S
C2562 C2560 1.395 . S
C2562 C2565 1.403 . S
C2563 C2560 1.403 . S
C2563 C2564 1.524 . S
C2563 C2567 1.400 . S
C2564 H2549 0.960 . S
C2564 H2550 0.960 . S
C2564 H2551 0.960 . S
C2564 C2563 1.524 . S
C2565 C2562 1.403 . S
C2565 C2566 1.392 . S
C2565 C2569 1.495 . S
C2566 C2565 1.392 . S
C2566 C2567 1.385 . S
C2566 C2568 1.478 . S
C2567 H2561 0.930 . S
C2567 C2563 1.400 . S
C2567 C2566 1.385 . S
C2568 C2566 1.478 . S
C2568 C2570 1.381 . S
C2568 C2574 1.383 1_545 S
C2569 C2565 1.495 . S
C2569 H2575 0.959 . S
C2569 H2576 0.961 . S
C2569 H2577 0.960 . S
C2570 C2568 1.381 . S
C2570 C2571 1.394 . S
C2570 H2578 0.930 . S
C2571 C2570 1.394 . S
C2571 C2572 1.383 . S
C2571 H2579 0.929 . S
C2572 C2571 1.383 . S
C2572 C2573 1.377 1_545 S
C2573 H2557 0.930 . S
C2573 C2572 1.377 1_565 S
C2573 C2574 1.379 . S
C2574 H2558 0.931 . S
C2574 C2568 1.383 1_565 S
C2574 C2573 1.379 . S
H2575 C2569 0.959 . S
H2576 C2569 0.961 . S
H2577 C2569 0.960 . S
H2578 C2570 0.930 . S
H2579 C2571 0.929 . S
H2580 C2588 0.929 . S
H2581 C2590 0.930 . S
H2582 C2592 0.930 . S
H2583 C2595 0.929 . S
H2584 C2598 0.930 . S
H2585 C2600 0.960 . S
H2586 C2600 0.960 . S
H2587 C2600 0.960 . S
C2588 H2580 0.929 . S
C2588 C2589 1.377 . S
C2588 C2590 1.384 . S
C2589 C2588 1.377 . S
C2589 C2595 1.390 . S
C2590 H2581 0.930 . S
C2590 C2588 1.384 . S
C2590 C2591 1.372 . S
C2591 C2590 1.372 . S
C2591 C2592 1.400 . S
C2591 C2596 1.490 . S
C2592 H2582 0.930 . S
C2592 C2591 1.400 . S
C2592 C2595 1.386 . S
H2593 C2609 0.930 . S
H2594 C2610 0.931 . S
C2595 H2583 0.929 . S
C2595 C2589 1.390 . S
C2595 C2592 1.386 . S
C2596 C2591 1.490 . S
C2596 C2598 1.395 . S
C2596 C2599 1.403 . S
H2597 C2603 0.930 . S
C2598 H2584 0.930 . S
C2598 C2596 1.395 . S
C2598 C2601 1.403 . S
C2599 C2596 1.403 . S
C2599 C2600 1.524 . S
C2599 C2603 1.400 . S
C2600 H2585 0.960 . S
C2600 H2586 0.960 . S
C2600 H2587 0.960 . S
C2600 C2599 1.524 . S
C2601 C2598 1.403 . S
C2601 C2602 1.392 . S
C2601 C2605 1.495 . S
C2602 C2601 1.392 . S
C2602 C2603 1.385 . S
C2602 C2604 1.478 . S
C2603 H2597 0.930 . S
C2603 C2599 1.400 . S
C2603 C2602 1.385 . S
C2604 C2602 1.478 . S
C2604 C2606 1.381 . S
C2604 C2610 1.383 . S
C2605 C2601 1.495 . S
C2605 H2611 0.959 . S
C2605 H2612 0.961 . S
C2605 H2613 0.960 . S
C2606 C2604 1.381 . S
C2606 C2607 1.394 . S
C2606 H2614 0.930 . S
C2607 C2606 1.394 . S
C2607 C2608 1.383 . S
C2607 H2615 0.929 . S
C2608 C2607 1.383 . S
C2608 C2609 1.377 . S
C2609 H2593 0.930 . S
C2609 C2608 1.377 . S
C2609 C2610 1.379 . S
C2610 H2594 0.931 . S
C2610 C2604 1.383 . S
C2610 C2609 1.379 . S
H2611 C2605 0.959 . S
H2612 C2605 0.961 . S
H2613 C2605 0.960 . S
H2614 C2606 0.930 . S
H2615 C2607 0.929 . S
H2616 C2624 0.881 1_565 S
H2617 C2626 0.930 . S
H2618 C2628 0.930 . S
H2619 C2631 0.929 . S
H2620 C2634 0.930 . S
H2621 C2636 0.960 . S
H2622 C2636 0.960 . S
H2623 C2636 0.960 . S
C2624 H2616 0.881 1_545 S
C2624 C2625 1.377 . S
C2624 C2626 1.384 . S
C2625 C2624 1.377 . S
C2625 C2631 1.390 . S
C2626 H2617 0.930 . S
C2626 C2624 1.384 . S
C2626 C2627 1.372 . S
C2627 C2626 1.372 . S
C2627 C2628 1.400 . S
C2627 C2632 1.490 . S
C2628 H2618 0.930 . S
C2628 C2627 1.400 . S
C2628 C2631 1.386 . S
H2629 C2645 0.930 . S
H2630 C2646 0.931 . S
C2631 H2619 0.929 . S
C2631 C2625 1.390 . S
C2631 C2628 1.386 . S
C2632 C2627 1.490 . S
C2632 C2634 1.395 . S
C2632 C2635 1.403 . S
H2633 C2639 0.930 . S
C2634 H2620 0.930 . S
C2634 C2632 1.395 . S
C2634 C2637 1.403 . S
C2635 C2632 1.403 . S
C2635 C2636 1.524 . S
C2635 C2639 1.400 . S
C2636 H2621 0.960 . S
C2636 H2622 0.960 . S
C2636 H2623 0.960 . S
C2636 C2635 1.524 . S
C2637 C2634 1.403 . S
C2637 C2638 1.392 . S
C2637 C2641 1.495 . S
C2638 C2637 1.392 . S
C2638 C2639 1.385 . S
C2638 C2640 1.478 . S
C2639 H2633 0.930 . S
C2639 C2635 1.400 . S
C2639 C2638 1.385 . S
C2640 C2638 1.478 . S
C2640 C2642 1.381 . S
C2640 C2646 1.383 . S
C2641 C2637 1.495 . S
C2641 H2647 0.959 . S
C2641 H2648 0.961 . S
C2641 H2649 0.960 . S
C2642 C2640 1.381 . S
C2642 C2643 1.394 . S
C2642 H2650 0.930 . S
C2643 C2642 1.394 . S
C2643 C2644 1.383 . S
C2643 H2651 0.929 . S
C2644 C2643 1.383 . S
C2644 C2645 1.377 . S
C2645 H2629 0.930 . S
C2645 C2644 1.377 . S
C2645 C2646 1.379 . S
C2646 H2630 0.931 . S
C2646 C2640 1.383 . S
C2646 C2645 1.379 . S
H2647 C2641 0.959 . S
H2648 C2641 0.961 . S
H2649 C2641 0.960 . S
H2650 C2642 0.930 . S
H2651 C2643 0.929 . S
H2652 C2660 0.929 . S
H2653 C2662 0.930 . S
H2654 C2664 0.930 . S
H2655 C2667 0.929 . S
H2656 C2670 0.930 . S
H2657 C2672 0.960 . S
H2658 C2672 0.960 . S
H2659 C2672 0.960 . S
C2660 H2652 0.929 . S
C2660 C2661 1.377 . S
C2660 C2662 1.384 . S
C2661 C2660 1.377 . S
C2661 C2667 1.390 . S
C2662 H2653 0.930 . S
C2662 C2660 1.384 . S
C2662 C2663 1.372 . S
C2663 C2662 1.372 . S
C2663 C2664 1.400 . S
C2663 C2668 1.490 . S
C2664 H2654 0.930 . S
C2664 C2663 1.400 . S
C2664 C2667 1.386 . S
H2665 C2681 0.930 . S
H2666 C2682 0.931 . S
C2667 H2655 0.929 . S
C2667 C2661 1.390 . S
C2667 C2664 1.386 . S
C2668 C2663 1.490 . S
C2668 C2670 1.395 . S
C2668 C2671 1.403 . S
H2669 C2675 0.930 . S
C2670 H2656 0.930 . S
C2670 C2668 1.395 . S
C2670 C2673 1.403 . S
C2671 C2668 1.403 . S
C2671 C2672 1.524 . S
C2671 C2675 1.400 . S
C2672 H2657 0.960 . S
C2672 H2658 0.960 . S
C2672 H2659 0.960 . S
C2672 C2671 1.524 . S
C2673 C2670 1.403 . S
C2673 C2674 1.392 . S
C2673 C2677 1.495 . S
C2674 C2673 1.392 . S
C2674 C2675 1.385 . S
C2674 C2676 1.478 . S
C2675 H2669 0.930 . S
C2675 C2671 1.400 . S
C2675 C2674 1.385 . S
C2676 C2674 1.478 . S
C2676 C2678 1.381 . S
C2676 C2682 1.383 . S
C2677 C2673 1.495 . S
C2677 H2683 0.959 . S
C2677 H2684 0.961 . S
C2677 H2685 0.960 . S
C2678 C2676 1.381 . S
C2678 C2679 1.394 . S
C2678 H2686 0.930 . S
C2679 C2678 1.394 . S
C2679 C2680 1.383 . S
C2679 H2687 0.929 . S
C2680 C2679 1.383 . S
C2680 C2681 1.377 . S
C2681 H2665 0.930 . S
C2681 C2680 1.377 . S
C2681 C2682 1.379 . S
C2682 H2666 0.931 . S
C2682 C2676 1.383 . S
C2682 C2681 1.379 . S
H2683 C2677 0.959 . S
H2684 C2677 0.961 . S
H2685 C2677 0.960 . S
H2686 C2678 0.930 . S
H2687 C2679 0.929 . S
H2688 C2696 0.929 . S
H2689 C2698 0.930 . S
H2690 C2700 0.930 . S
H2691 C2703 0.929 . S
H2692 C2706 0.930 . S
H2693 C2708 0.960 . S
H2694 C2708 0.960 . S
H2695 C2708 0.960 . S
C2696 H2688 0.929 . S
C2696 C2697 1.377 . S
C2696 C2698 1.384 . S
C2697 C2696 1.377 . S
C2697 C2703 1.390 . S
C2698 H2689 0.930 . S
C2698 C2696 1.384 . S
C2698 C2699 1.372 . S
C2699 C2698 1.372 . S
C2699 C2700 1.400 . S
C2699 C2704 1.490 . S
C2700 H2690 0.930 . S
C2700 C2699 1.400 . S
C2700 C2703 1.386 . S
H2701 C2717 0.930 . S
H2702 C2718 0.931 . S
C2703 H2691 0.929 . S
C2703 C2697 1.390 . S
C2703 C2700 1.386 . S
C2704 C2699 1.490 . S
C2704 C2706 1.395 . S
C2704 C2707 1.403 . S
H2705 C2711 0.930 . S
C2706 H2692 0.930 . S
C2706 C2704 1.395 . S
C2706 C2709 1.403 . S
C2707 C2704 1.403 . S
C2707 C2708 1.524 . S
C2707 C2711 1.400 . S
C2708 H2693 0.960 . S
C2708 H2694 0.960 . S
C2708 H2695 0.960 . S
C2708 C2707 1.524 . S
C2709 C2706 1.403 . S
C2709 C2710 1.392 . S
C2709 C2713 1.495 . S
C2710 C2709 1.392 . S
C2710 C2711 1.385 . S
C2710 C2712 1.478 . S
C2711 H2705 0.930 . S
C2711 C2707 1.400 . S
C2711 C2710 1.385 . S
C2712 C2710 1.478 . S
C2712 C2714 1.381 . S
C2712 C2718 1.383 . S
C2713 C2709 1.495 . S
C2713 H2719 0.959 . S
C2713 H2720 0.961 . S
C2713 H2721 0.960 . S
C2714 C2712 1.381 . S
C2714 C2715 1.394 . S
C2714 H2722 0.930 . S
C2715 C2714 1.394 . S
C2715 C2716 1.383 . S
C2715 H2723 0.929 . S
C2716 C2715 1.383 . S
C2716 C2717 1.377 . S
C2717 H2701 0.930 . S
C2717 C2716 1.377 . S
C2717 C2718 1.379 . S
C2718 H2702 0.931 . S
C2718 C2712 1.383 . S
C2718 C2717 1.379 . S
H2719 C2713 0.959 . S
H2720 C2713 0.961 . S
H2721 C2713 0.960 . S
H2722 C2714 0.930 . S
H2723 C2715 0.929 . S
H2724 C2732 0.929 . S
H2725 C2734 0.930 . S
H2726 C2736 0.930 . S
H2727 C2739 0.929 . S
H2728 C2742 0.930 . S
H2729 C2744 0.960 . S
H2730 C2744 0.960 . S
H2731 C2744 0.960 . S
C2732 H2724 0.929 . S
C2732 C2733 1.377 . S
C2732 C2734 1.384 . S
C2733 C2732 1.377 . S
C2733 C2739 1.390 . S
C2734 H2725 0.930 . S
C2734 C2732 1.384 . S
C2734 C2735 1.372 . S
C2735 C2734 1.372 . S
C2735 C2736 1.400 . S
C2735 C2740 1.490 . S
C2736 H2726 0.930 . S
C2736 C2735 1.400 . S
C2736 C2739 1.386 . S
H2737 C2753 0.930 . S
H2738 C2754 0.931 . S
C2739 H2727 0.929 . S
C2739 C2733 1.390 . S
C2739 C2736 1.386 . S
C2740 C2735 1.490 . S
C2740 C2742 1.395 . S
C2740 C2743 1.403 . S
H2741 C2747 0.930 . S
C2742 H2728 0.930 . S
C2742 C2740 1.395 . S
C2742 C2745 1.403 . S
C2743 C2740 1.403 . S
C2743 C2744 1.524 . S
C2743 C2747 1.400 . S
C2744 H2729 0.960 . S
C2744 H2730 0.960 . S
C2744 H2731 0.960 . S
C2744 C2743 1.524 . S
C2745 C2742 1.403 . S
C2745 C2746 1.392 . S
C2745 C2749 1.495 . S
C2746 C2745 1.392 . S
C2746 C2747 1.385 . S
C2746 C2748 1.478 . S
C2747 H2741 0.930 . S
C2747 C2743 1.400 . S
C2747 C2746 1.385 . S
C2748 C2746 1.478 . S
C2748 C2750 1.381 . S
C2748 C2754 1.383 . S
C2749 C2745 1.495 . S
C2749 H2755 0.959 . S
C2749 H2756 0.961 . S
C2749 H2757 0.960 . S
C2750 C2748 1.381 . S
C2750 C2751 1.394 . S
C2750 H2758 0.930 . S
C2751 C2750 1.394 . S
C2751 C2752 1.383 . S
C2751 H2759 0.929 . S
C2752 C2751 1.383 . S
C2752 C2753 1.377 . S
C2753 H2737 0.930 . S
C2753 C2752 1.377 . S
C2753 C2754 1.379 . S
C2754 H2738 0.931 . S
C2754 C2748 1.383 . S
C2754 C2753 1.379 . S
H2755 C2749 0.959 . S
H2756 C2749 0.961 . S
H2757 C2749 0.960 . S
H2758 C2750 0.930 . S
H2759 C2751 0.929 . S
H2760 C2768 0.929 . S
H2761 C2770 0.930 . S
H2762 C2772 0.930 . S
H2763 C2775 0.929 . S
H2764 C2778 0.930 . S
H2765 C2780 0.960 . S
H2766 C2780 0.960 . S
H2767 C2780 0.960 . S
C2768 H2760 0.929 . S
C2768 C2769 1.377 . S
C2768 C2770 1.384 . S
C2769 C2768 1.377 . S
C2769 C2775 1.390 . S
C2770 H2761 0.930 . S
C2770 C2768 1.384 . S
C2770 C2771 1.372 . S
C2771 C2770 1.372 . S
C2771 C2772 1.400 . S
C2771 C2776 1.490 . S
C2772 H2762 0.930 . S
C2772 C2771 1.400 . S
C2772 C2775 1.386 . S
H2773 C2789 0.930 . S
H2774 C2790 0.931 . S
C2775 H2763 0.929 . S
C2775 C2769 1.390 . S
C2775 C2772 1.386 . S
C2776 C2771 1.490 . S
C2776 C2778 1.395 . S
C2776 C2779 1.403 . S
H2777 C2783 0.930 . S
C2778 H2764 0.930 . S
C2778 C2776 1.395 . S
C2778 C2781 1.403 . S
C2779 C2776 1.403 . S
C2779 C2780 1.524 . S
C2779 C2783 1.400 . S
C2780 H2765 0.960 . S
C2780 H2766 0.960 . S
C2780 H2767 0.960 . S
C2780 C2779 1.524 . S
C2781 C2778 1.403 . S
C2781 C2782 1.392 . S
C2781 C2785 1.495 . S
C2782 C2781 1.392 . S
C2782 C2783 1.385 . S
C2782 C2784 1.478 . S
C2783 H2777 0.930 . S
C2783 C2779 1.400 . S
C2783 C2782 1.385 . S
C2784 C2782 1.478 . S
C2784 C2786 1.381 . S
C2784 C2790 1.383 . S
C2785 C2781 1.495 . S
C2785 H2791 0.959 . S
C2785 H2792 0.961 . S
C2785 H2793 0.960 . S
C2786 C2784 1.381 . S
C2786 C2787 1.394 . S
C2786 H2794 0.930 . S
C2787 C2786 1.394 . S
C2787 C2788 1.383 . S
C2787 H2795 0.929 . S
C2788 C2787 1.383 . S
C2788 C2789 1.377 . S
C2789 H2773 0.930 . S
C2789 C2788 1.377 . S
C2789 C2790 1.379 . S
C2790 H2774 0.931 . S
C2790 C2784 1.383 . S
C2790 C2789 1.379 . S
H2791 C2785 0.959 . S
H2792 C2785 0.961 . S
H2793 C2785 0.960 . S
H2794 C2786 0.930 . S
H2795 C2787 0.929 . S
H2796 C2804 0.929 . S
H2797 C2806 0.930 . S
H2798 C2808 0.930 . S
H2799 C2811 0.929 . S
H2800 C2814 0.930 . S
H2801 C2816 0.960 . S
H2802 C2816 0.960 . S
H2803 C2816 0.960 . S
C2804 H2796 0.929 . S
C2804 C2805 1.377 1_556 S
C2804 C2806 1.384 . S
C2805 C2804 1.377 1_554 S
C2805 C2811 1.390 . S
C2806 H2797 0.930 . S
C2806 C2804 1.384 . S
C2806 C2807 1.372 1_556 S
C2807 C2806 1.372 1_554 S
C2807 C2808 1.400 . S
C2807 C2812 1.490 . S
C2808 H2798 0.930 . S
C2808 C2807 1.400 . S
C2808 C2811 1.386 . S
H2809 C2825 0.930 . S
H2810 C2826 0.931 . S
C2811 H2799 0.929 . S
C2811 C2805 1.390 . S
C2811 C2808 1.386 . S
C2812 C2807 1.490 . S
C2812 C2814 1.395 . S
C2812 C2815 1.403 . S
H2813 C2819 0.930 . S
C2814 H2800 0.930 . S
C2814 C2812 1.395 . S
C2814 C2817 1.403 . S
C2815 C2812 1.403 . S
C2815 C2816 1.524 . S
C2815 C2819 1.400 . S
C2816 H2801 0.960 . S
C2816 H2802 0.960 . S
C2816 H2803 0.960 . S
C2816 C2815 1.524 . S
C2817 C2814 1.403 . S
C2817 C2818 1.392 . S
C2817 C2821 1.495 . S
C2818 C2817 1.392 . S
C2818 C2819 1.385 . S
C2818 C2820 1.478 . S
C2819 H2813 0.930 . S
C2819 C2815 1.400 . S
C2819 C2818 1.385 . S
C2820 C2818 1.478 . S
C2820 C2822 1.381 . S
C2820 C2826 1.383 . S
C2821 C2817 1.495 . S
C2821 H2827 0.959 1_554 S
C2821 H2828 0.961 . S
C2821 H2829 0.960 1_554 S
C2822 C2820 1.381 . S
C2822 C2823 1.394 . S
C2822 H2830 0.930 1_554 S
C2823 C2822 1.394 . S
C2823 C2824 1.383 . S
C2823 H2831 0.929 . S
C2824 C2823 1.383 . S
C2824 C2825 1.377 . S
C2825 H2809 0.930 . S
C2825 C2824 1.377 . S
C2825 C2826 1.379 . S
C2826 H2810 0.931 . S
C2826 C2820 1.383 . S
C2826 C2825 1.379 . S
H2827 C2821 0.959 1_556 S
H2828 C2821 0.961 . S
H2829 C2821 0.960 1_556 S
H2830 C2822 0.930 1_556 S
H2831 C2823 0.929 . S
H2832 C2840 0.929 . S
H2833 C2842 0.930 . S
H2834 C2844 0.930 . S
H2835 C2847 0.929 . S
H2836 C2850 0.930 1_655 S
H2837 C2852 0.960 . S
H2838 C2852 0.960 . S
H2839 C2852 0.960 . S
C2840 H2832 0.929 . S
C2840 C2841 1.377 . S
C2840 C2842 1.384 . S
C2841 C2840 1.377 . S
C2841 C2847 1.390 . S
C2842 H2833 0.930 . S
C2842 C2840 1.384 . S
C2842 C2843 1.372 . S
C2843 C2842 1.372 . S
C2843 C2844 1.400 . S
C2843 C2848 1.490 . S
C2844 H2834 0.930 . S
C2844 C2843 1.400 . S
C2844 C2847 1.386 . S
H2845 C2861 0.930 . S
H2846 C2862 0.931 . S
C2847 H2835 0.929 . S
C2847 C2841 1.390 . S
C2847 C2844 1.386 . S
C2848 C2843 1.490 . S
C2848 C2850 1.395 . S
C2848 C2851 1.403 . S
H2849 C2855 0.930 . S
C2850 H2836 0.930 1_455 S
C2850 C2848 1.395 . S
C2850 C2853 1.403 . S
C2851 C2848 1.403 . S
C2851 C2852 1.524 . S
C2851 C2855 1.400 . S
C2852 H2837 0.960 . S
C2852 H2838 0.960 . S
C2852 H2839 0.960 . S
C2852 C2851 1.524 . S
C2853 C2850 1.403 . S
C2853 C2854 1.392 . S
C2853 C2857 1.495 1_455 S
C2854 C2853 1.392 . S
C2854 C2855 1.385 . S
C2854 C2856 1.478 . S
C2855 H2849 0.930 . S
C2855 C2851 1.400 . S
C2855 C2854 1.385 . S
C2856 C2854 1.478 . S
C2856 C2858 1.381 . S
C2856 C2862 1.383 . S
C2857 C2853 1.495 1_655 S
C2857 H2863 0.959 . S
C2857 H2864 0.961 . S
C2857 H2865 0.960 . S
C2858 C2856 1.381 . S
C2858 C2859 1.394 . S
C2858 H2866 0.930 . S
C2859 C2858 1.394 . S
C2859 C2860 1.383 . S
C2859 H2867 0.929 . S
C2860 C2859 1.383 . S
C2860 C2861 1.377 . S
C2861 H2845 0.930 . S
C2861 C2860 1.377 . S
C2861 C2862 1.379 . S
C2862 H2846 0.931 . S
C2862 C2856 1.383 . S
C2862 C2861 1.379 . S
H2863 C2857 0.959 . S
H2864 C2857 0.961 . S
H2865 C2857 0.960 . S
H2866 C2858 0.930 . S
H2867 C2859 0.929 . S
H2868 C2876 0.929 . S
H2869 C2878 0.930 . S
H2870 C2880 0.930 . S
H2871 C2883 0.929 . S
H2872 C2886 0.930 . S
H2873 C2888 0.960 . S
H2874 C2888 0.960 . S
H2875 C2888 0.960 . S
C2876 H2868 0.929 . S
C2876 C2877 1.377 . S
C2876 C2878 1.384 . S
C2877 C2876 1.377 . S
C2877 C2883 1.390 . S
C2878 H2869 0.930 . S
C2878 C2876 1.384 . S
C2878 C2879 1.372 . S
C2879 C2878 1.372 . S
C2879 C2880 1.400 . S
C2879 C2884 1.490 . S
C2880 H2870 0.930 . S
C2880 C2879 1.400 . S
C2880 C2883 1.386 . S
H2881 C2897 0.930 . S
H2882 C2898 0.931 . S
C2883 H2871 0.929 . S
C2883 C2877 1.390 . S
C2883 C2880 1.386 . S
C2884 C2879 1.490 . S
C2884 C2886 1.395 . S
C2884 C2887 1.403 . S
H2885 C2891 0.930 . S
C2886 H2872 0.930 . S
C2886 C2884 1.395 . S
C2886 C2889 1.403 . S
C2887 C2884 1.403 . S
C2887 C2888 1.524 . S
C2887 C2891 1.400 . S
C2888 H2873 0.960 . S
C2888 H2874 0.960 . S
C2888 H2875 0.960 . S
C2888 C2887 1.524 . S
C2889 C2886 1.403 . S
C2889 C2890 1.392 . S
C2889 C2893 1.495 . S
C2890 C2889 1.392 . S
C2890 C2891 1.385 . S
C2890 C2892 1.478 . S
C2891 H2885 0.930 . S
C2891 C2887 1.400 . S
C2891 C2890 1.385 . S
C2892 C2890 1.478 . S
C2892 C2894 1.381 . S
C2892 C2898 1.383 . S
C2893 C2889 1.495 . S
C2893 H2899 0.959 . S
C2893 H2900 0.961 . S
C2893 H2901 0.960 . S
C2894 C2892 1.381 . S
C2894 C2895 1.394 . S
C2894 H2902 0.930 . S
C2895 C2894 1.394 . S
C2895 C2896 1.383 . S
C2895 H2903 0.929 . S
C2896 C2895 1.383 . S
C2896 C2897 1.377 . S
C2897 H2881 0.930 . S
C2897 C2896 1.377 . S
C2897 C2898 1.379 . S
C2898 H2882 0.931 . S
C2898 C2892 1.383 . S
C2898 C2897 1.379 . S
H2899 C2893 0.959 . S
H2900 C2893 0.961 . S
H2901 C2893 0.960 . S
H2902 C2894 0.930 . S
H2903 C2895 0.929 . S
H2904 C2912 0.929 . S
H2905 C2914 0.930 . S
H2906 C2916 0.930 . S
H2907 C2919 0.929 . S
H2908 C2922 0.930 . S
H2909 C2924 0.960 . S
H2910 C2924 0.960 . S
H2911 C2924 0.960 . S
C2912 H2904 0.929 . S
C2912 C2913 1.377 . S
C2912 C2914 1.384 . S
C2913 C2912 1.377 . S
C2913 C2919 1.390 . S
C2914 H2905 0.930 . S
C2914 C2912 1.384 . S
C2914 C2915 1.372 . S
C2915 C2914 1.372 . S
C2915 C2916 1.400 . S
C2915 C2920 1.490 . S
C2916 H2906 0.930 . S
C2916 C2915 1.400 . S
C2916 C2919 1.386 . S
H2917 C2933 0.930 . S
H2918 C2934 0.931 . S
C2919 H2907 0.929 . S
C2919 C2913 1.390 . S
C2919 C2916 1.386 . S
C2920 C2915 1.490 . S
C2920 C2922 1.395 . S
C2920 C2923 1.403 . S
H2921 C2927 0.930 . S
C2922 H2908 0.930 . S
C2922 C2920 1.395 . S
C2922 C2925 1.403 . S
C2923 C2920 1.403 . S
C2923 C2924 1.524 . S
C2923 C2927 1.400 . S
C2924 H2909 0.960 . S
C2924 H2910 0.960 . S
C2924 H2911 0.960 . S
C2924 C2923 1.524 . S
C2925 C2922 1.403 . S
C2925 C2926 1.392 . S
C2925 C2929 1.495 . S
C2926 C2925 1.392 . S
C2926 C2927 1.385 . S
C2926 C2928 1.478 . S
C2927 H2921 0.930 . S
C2927 C2923 1.400 . S
C2927 C2926 1.385 . S
C2928 C2926 1.478 . S
C2928 C2930 1.381 . S
C2928 C2934 1.383 . S
C2929 C2925 1.495 . S
C2929 H2935 0.959 . S
C2929 H2936 0.961 . S
C2929 H2937 0.960 . S
C2930 C2928 1.381 . S
C2930 C2931 1.394 . S
C2930 H2938 0.930 . S
C2931 C2930 1.394 . S
C2931 C2932 1.383 . S
C2931 H2939 0.929 . S
C2932 C2931 1.383 . S
C2932 C2933 1.377 . S
C2933 H2917 0.930 . S
C2933 C2932 1.377 . S
C2933 C2934 1.379 . S
C2934 H2918 0.931 . S
C2934 C2928 1.383 . S
C2934 C2933 1.379 . S
H2935 C2929 0.959 . S
H2936 C2929 0.961 . S
H2937 C2929 0.960 . S
H2938 C2930 0.930 . S
H2939 C2931 0.929 . S
H2940 C2948 0.929 . S
H2941 C2950 0.930 . S
H2942 C2952 0.930 . S
H2943 C2955 0.929 . S
H2944 C2958 0.930 . S
H2945 C2960 0.960 . S
H2946 C2960 0.960 . S
H2947 C2960 0.960 . S
C2948 H2940 0.929 . S
C2948 C2949 1.377 . S
C2948 C2950 1.384 . S
C2949 C2948 1.377 . S
C2949 C2955 1.390 . S
C2950 H2941 0.930 . S
C2950 C2948 1.384 . S
C2950 C2951 1.372 . S
C2951 C2950 1.372 . S
C2951 C2952 1.400 . S
C2951 C2956 1.490 . S
C2952 H2942 0.930 . S
C2952 C2951 1.400 . S
C2952 C2955 1.386 . S
H2953 C2969 0.930 . S
H2954 C2970 0.931 . S
C2955 H2943 0.929 . S
C2955 C2949 1.390 . S
C2955 C2952 1.386 . S
C2956 C2951 1.490 . S
C2956 C2958 1.395 . S
C2956 C2959 1.403 . S
H2957 C2963 0.930 . S
C2958 H2944 0.930 . S
C2958 C2956 1.395 . S
C2958 C2961 1.403 . S
C2959 C2956 1.403 . S
C2959 C2960 1.524 . S
C2959 C2963 1.400 . S
C2960 H2945 0.960 . S
C2960 H2946 0.960 . S
C2960 H2947 0.960 . S
C2960 C2959 1.524 . S
C2961 C2958 1.403 . S
C2961 C2962 1.392 . S
C2961 C2965 1.495 . S
C2962 C2961 1.392 . S
C2962 C2963 1.385 . S
C2962 C2964 1.478 . S
C2963 H2957 0.930 . S
C2963 C2959 1.400 . S
C2963 C2962 1.385 . S
C2964 C2962 1.478 . S
C2964 C2966 1.381 . S
C2964 C2970 1.383 . S
C2965 C2961 1.495 . S
C2965 H2971 0.959 1_455 S
C2965 H2972 0.961 . S
C2965 H2973 0.963 . S
C2966 C2964 1.381 . S
C2966 C2967 1.394 . S
C2966 H2974 0.930 . S
C2967 C2966 1.394 . S
C2967 C2968 1.383 . S
C2967 H2975 0.929 . S
C2968 C2967 1.383 . S
C2968 C2969 1.377 . S
C2969 H2953 0.930 . S
C2969 C2968 1.377 . S
C2969 C2970 1.379 . S
C2970 H2954 0.931 . S
C2970 C2964 1.383 . S
C2970 C2969 1.379 . S
H2971 C2965 0.959 1_655 S
H2972 C2965 0.961 . S
H2973 C2965 0.963 . S
H2974 C2966 0.930 . S
H2975 C2967 0.929 . S
C825 C33 0.515 . S
C844 C713 0.480 . S
C861 C611 0.520 . S
C880 C67 0.461 . S
C897 C645 0.532 . S
C916 C101 0.620 . S
C933 C679 0.537 . S
C952 C135 0.619 . S
C969 C169 0.524 . S
C988 C815 0.608 . S
C1005 C747 0.516 . S
C1024 C203 0.477 . S
C1041 C781 0.516 . S
C1060 C237 0.575 . S
C1077 C577 0.547 . S
C1096 C271 0.539 . S
C1113 C305 0.530 . S
C1132 C543 0.454 . S
C1149 C441 0.547 . S
C1168 C339 0.532 . S
C1185 C373 0.522 . S
C1204 C475 0.603 . S
C1221 C509 0.535 . S
C1240 C407 0.621 . S
C1257 C648 1.469 . S
C1276 C9 1.459 . S
C1293 C43 1.448 . S
C1312 C682 1.467 . S
C1329 C580 1.469 . S
C1348 C77 1.443 1_565 S
C1365 C111 1.448 . S
C1384 C614 1.472 . S
C1401 C716 1.465 . S
C1420 C145 1.453 . S
C1437 C750 1.464 . S
C1456 C179 1.433 . S
C1473 C546 1.465 . S
C1492 C213 1.435 . S
C1509 C247 1.448 . S
C1528 C784 1.472 . S
C1545 C281 1.440 . S
C1564 C70 1.457 . S
C1581 C315 1.445 . S
C1600 C104 1.454 . S
C1617 C349 1.448 . S
C1636 C2 1.460 . S
C1653 C36 1.467 . S
C1672 C383 1.462 . S
C1689 C417 1.449 1_556 S
C1708 C206 1.466 . S
C1725 C240 1.464 . S
C1744 C451 1.425 . S
C1761 C138 1.465 . S
C1780 C485 1.453 . S
C1797 C172 1.469 . S
C1816 C519 1.454 . S
C1833 C410 1.466 . S
C1852 C553 1.456 . S
C1869 C274 1.466 . S
C1888 C587 1.455 . S
C1905 C621 1.448 . S
C1924 C308 1.472 . S
C1941 C655 1.440 1_655 S
C1960 C342 1.461 . S
C1977 C376 1.469 . S
C1996 C689 1.442 . S
C2013 C723 1.440 . S
C2032 C478 1.455 . S
C2049 C512 1.465 . S
C2068 C757 1.421 . S
C2085 C791 1.444 . S
C2104 C444 1.474 . S
C2121 C20 0.795 . S
C2140 C768 0.804 . S
C2157 C564 0.799 . S
C2176 C54 0.779 . S
C2193 C88 0.799 . S
C2212 C802 0.784 . S
C2229 C734 0.784 . S
C2248 C122 0.786 . S
C2265 C156 0.798 . S
C2284 C632 0.786 . S
C2301 C666 0.787 . S
C2320 C190 0.770 . S
C2337 C224 0.777 1_655 S
C2356 C700 0.840 . S
C2373 C598 0.775 1_556 S
C2392 C258 0.845 . S
C2409 C462 0.794 . S
C2428 C292 0.809 . S
C2445 C496 0.801 . S
C2464 C326 0.764 . S
C2481 C360 0.788 1_565 S
C2500 C530 0.735 . S
C2517 C394 0.802 . S
C2536 C428 0.756 . S
C2553 C515 0.938 . S
C2572 C5 0.992 1_655 S
C2589 C39 0.959 . S
C2608 C413 0.887 . S
C2625 C447 0.939 . S
C2644 C73 0.974 . S
C2661 C481 0.951 . S
C2680 C107 0.906 . S
C2697 C141 0.964 . S
C2716 C311 0.901 . S
C2733 C345 0.962 . S
C2752 C175 0.888 . S
C2769 C209 0.954 . S
C2788 C379 0.984 . S
C2805 C277 0.947 1_565 S
C2824 C243 1.004 . S
C2841 C685 0.951 . S
C2860 C549 0.995 1_556 S
C2877 C787 0.954 . S
C2896 C583 0.897 . S
C2913 C719 0.953 . S
C2932 C617 0.987 . S
C2949 C753 0.944 . S
C2968 C651 0.934 . S
