# Generated by pormake.
# Topology irl, (4)-cn, num edge types: 1
# Building blocks:
#     Node 0, Type 0, BuildingBlock: GALJAG_clean_sbu_0, # of connection points: 4
#     Node 1, Type 0, BuildingBlock: GALJAG_clean_sbu_0, # of connection points: 4
#     Node 2, Type 0, BuildingBlock: GALJAG_clean_sbu_0, # of connection points: 4
#     Node 3, Type 0, BuildingBlock: GALJAG_clean_sbu_0, # of connection points: 4
#     Node 4, Type 0, BuildingBlock: GALJAG_clean_sbu_0, # of connection points: 4
#     Node 5, Type 0, BuildingBlock: GALJAG_clean_sbu_0, # of connection points: 4
#     Node 6, Type 0, BuildingBlock: GALJAG_clean_sbu_0, # of connection points: 4
#     Node 7, Type 0, BuildingBlock: GALJAG_clean_sbu_0, # of connection points: 4
#     Edge 8, Type (0, 0), BuildingBlock: FUNLAD_clean_linker_0, # of connection points: 2
#     Edge 9, Type (0, 0), BuildingBlock: FUNLAD_clean_linker_0, # of connection points: 2
#     Edge 10, Type (0, 0), BuildingBlock: FUNLAD_clean_linker_0, # of connection points: 2
#     Edge 11, Type (0, 0), BuildingBlock: FUNLAD_clean_linker_0, # of connection points: 2
#     Edge 12, Type (0, 0), BuildingBlock: FUNLAD_clean_linker_0, # of connection points: 2
#     Edge 13, Type (0, 0), BuildingBlock: FUNLAD_clean_linker_0, # of connection points: 2
#     Edge 14, Type (0, 0), BuildingBlock: FUNLAD_clean_linker_0, # of connection points: 2
#     Edge 15, Type (0, 0), BuildingBlock: FUNLAD_clean_linker_0, # of connection points: 2
#     Edge 16, Type (0, 0), BuildingBlock: FUNLAD_clean_linker_0, # of connection points: 2
#     Edge 17, Type (0, 0), BuildingBlock: FUNLAD_clean_linker_0, # of connection points: 2
#     Edge 18, Type (0, 0), BuildingBlock: FUNLAD_clean_linker_0, # of connection points: 2
#     Edge 19, Type (0, 0), BuildingBlock: FUNLAD_clean_linker_0, # of connection points: 2
#     Edge 20, Type (0, 0), BuildingBlock: FUNLAD_clean_linker_0, # of connection points: 2
#     Edge 21, Type (0, 0), BuildingBlock: FUNLAD_clean_linker_0, # of connection points: 2
#     Edge 22, Type (0, 0), BuildingBlock: FUNLAD_clean_linker_0, # of connection points: 2
#     Edge 23, Type (0, 0), BuildingBlock: FUNLAD_clean_linker_0, # of connection points: 2
# Relax obj value: 0.098
# Max RMSD: 0.151
# Mean RMSD: 0.151
data_MOF--net-irl--node1-GALJAG_clean_sbu_0--edge1-FUNLAD_clean_linker_0
_symmetry_space_group_name_H-M    P1
_symmetry_Int_Tables_number       1
_symmetry_cell_setting            triclinic
loop_
_symmetry_equiv_pos_as_xyz
'x, y, z'
_cell_length_a     36.03052
_cell_length_b     55.368981
_cell_length_c     33.659514
_cell_angle_alpha  89.763835
_cell_angle_beta   89.780514
_cell_angle_gamma 90.211464
loop_
_atom_site_label
_atom_site_type_symbol
_atom_site_fract_x
_atom_site_fract_y
_atom_site_fract_z
_atom_type_partial_charge
In0 In 0.03198 0.15494 0.01577 0.0
O1 O -0.01237 0.16808 0.05967 0.0
O2 O 0.03524 0.14953 0.08166 0.0
C3 C 0.01729 0.16962 0.94171 0.0
C4 C 0.08959 0.18483 0.02435 0.0
C5 C 0.02124 0.10737 0.00637 0.0
O6 O -0.00522 0.17356 0.97002 0.0
O7 O 0.04614 0.15807 0.95108 0.0
O8 O 0.05304 0.11614 0.01345 0.0
O9 O -0.00468 0.12261 0.00417 0.0
C10 C 0.00526 0.16021 0.08956 0.0
O11 O 0.09403 0.1622 0.02114 0.0
O12 O 0.05635 0.19194 0.02352 0.0
In13 In 0.91054 0.84606 0.02084 0.0
O14 O 0.84784 0.84216 0.02773 0.0
O15 O 0.88212 0.81136 0.03807 0.0
C16 C 0.92433 0.89302 0.00744 0.0
C17 C 0.93779 0.84261 0.09467 0.0
C18 C 0.92314 0.82857 0.94776 0.0
O19 O 0.892 0.88512 0.01485 0.0
O20 O 0.94944 0.87714 0.00647 0.0
O21 O 0.94645 0.82566 0.97552 0.0
O22 O 0.89442 0.84019 0.95724 0.0
C23 C 0.8498 0.82006 0.03735 0.0
O24 O 0.95196 0.83075 0.06625 0.0
O25 O 0.91142 0.85634 0.08506 0.0
In26 In 0.02586 0.8419 0.53059 0.0
O27 O -0.01103 0.82792 0.47992 0.0
O28 O 0.02818 0.8562 0.46836 0.0
C29 C 0.00921 0.82265 0.60169 0.0
C30 C 0.0877 0.81661 0.51819 0.0
C31 C 0.00914 0.88777 0.54757 0.0
O32 O -0.01295 0.82067 0.57262 0.0
O33 O 0.03874 0.83416 0.59434 0.0
O34 O 0.04232 0.88095 0.54219 0.0
O35 O -0.01518 0.87135 0.54485 0.0
C36 C 0.00338 0.84239 0.45483 0.0
O37 O 0.08874 0.83871 0.5278 0.0
O38 O 0.05559 0.80766 0.51451 0.0
In39 In 0.91807 0.15162 0.52323 0.0
O40 O 0.95799 0.1682 0.47752 0.0
O41 O 0.91279 0.14636 0.45747 0.0
C42 C 0.93293 0.16717 0.59667 0.0
C43 C 0.85554 0.17689 0.51656 0.0
C44 C 0.9376 0.10521 0.53131 0.0
O45 O 0.95373 0.17277 0.56754 0.0
O46 O 0.90586 0.1536 0.5884 0.0
O47 O 0.90396 0.11154 0.52845 0.0
O48 O 0.96092 0.12229 0.53002 0.0
C49 C 0.94055 0.15925 0.44837 0.0
O50 O 0.85494 0.15412 0.52086 0.0
O51 O 0.88744 0.1864 0.51537 0.0
In52 In 0.52862 0.655 0.0278 0.0
O53 O 0.59174 0.65602 0.03364 0.0
O54 O 0.5606 0.68651 0.05275 0.0
C55 C 0.51852 0.60819 0.01016 0.0
C56 C 0.494 0.65804 0.09841 0.0
C57 C 0.51361 0.67605 0.95747 0.0
O58 O 0.54954 0.61645 0.02131 0.0
O59 O 0.49292 0.62363 0.00749 0.0
O60 O 0.48931 0.67406 0.98451 0.0
O61 O 0.54494 0.66758 0.9662 0.0
C62 C 0.59207 0.67701 0.04832 0.0
O63 O 0.49018 0.67409 0.07192 0.0
O64 O 0.51423 0.64049 0.08874 0.0
In65 In 0.42485 0.3452 0.02007 0.0
O66 O 0.46368 0.33194 0.06936 0.0
O67 O 0.4192 0.35567 0.08409 0.0
C68 C 0.44698 0.32749 0.94996 0.0
C69 C 0.36602 0.31643 0.03056 0.0
C70 C 0.43431 0.39235 0.00423 0.0
O71 O 0.46864 0.32805 0.97955 0.0
O72 O 0.41491 0.33574 0.95619 0.0
O73 O 0.40237 0.38305 0.0084 0.0
O74 O 0.46102 0.37784 0.00806 0.0
C75 C 0.44608 0.34315 0.09621 0.0
O76 O 0.36251 0.33873 0.02278 0.0
O77 O 0.39903 0.30895 0.03272 0.0
In78 In 0.54072 0.35238 0.52602 0.0
O79 O 0.60317 0.34679 0.53019 0.0
O80 O 0.56752 0.31584 0.52856 0.0
C81 C 0.52922 0.40026 0.52652 0.0
C82 C 0.52559 0.34229 0.44996 0.0
C83 C 0.51435 0.34032 0.59795 0.0
O84 O 0.5614 0.39132 0.52901 0.0
O85 O 0.5032 0.38503 0.52378 0.0
O86 O 0.49704 0.3347 0.56656 0.0
O87 O 0.54381 0.3523 0.59256 0.0
C88 C 0.60026 0.32397 0.53045 0.0
O89 O 0.5029 0.33699 0.47757 0.0
O90 O 0.5548 0.35289 0.46099 0.0
In91 In 0.42957 0.66408 0.53355 0.0
O92 O 0.36724 0.67013 0.53727 0.0
O93 O 0.40336 0.70086 0.53427 0.0
C94 C 0.44174 0.61635 0.53724 0.0
C95 C 0.4434 0.67191 0.45633 0.0
C96 C 0.45553 0.67649 0.60497 0.0
O97 O 0.40939 0.62512 0.53938 0.0
O98 O 0.46755 0.63169 0.53334 0.0
O99 O 0.47381 0.68118 0.57355 0.0
O100 O 0.42526 0.66542 0.5998 0.0
C101 C 0.37048 0.69294 0.53641 0.0
O102 O 0.46569 0.67929 0.48278 0.0
O103 O 0.41544 0.66053 0.46923 0.0
C104 C 0.96832 0.92656 0.9907 0.0
C105 C 0.93256 0.91895 0.00193 0.0
C106 C 0.97676 0.95114 0.98735 0.0
C107 C 0.94962 0.96867 0.99573 0.0
C108 C 0.9136 0.96093 0.00587 0.0
C109 C 0.90513 0.93635 0.00895 0.0
C110 C 0.95739 0.99508 0.99424 0.0
C111 C -0.00822 0.00483 0.99489 0.0
C112 C -0.00091 0.03131 -0.00406 0.0
C113 C 0.03399 0.03953 0.00879 0.0
C114 C 0.04159 0.06426 0.0116 0.0
C115 C 0.01434 0.08126 0.00164 0.0
H116 H 0.94567 0.04312 0.97286 0.0
C117 C -0.02016 0.07312 0.9877 0.0
C118 C 0.97236 0.04846 0.98451 0.0
H119 H 0.9585 0.08585 0.97917 0.0
H120 H -0.01008 0.91351 0.98462 0.0
H121 H 0.00449 0.95611 0.97802 0.0
H122 H 0.892 0.97396 0.01208 0.0
H123 H 0.87726 0.93101 0.01752 0.0
H124 H 0.93341 0.00684 0.9951 0.0
H125 H 0.01576 0.99315 -0.00275 0.0
H126 H 0.05529 0.02678 0.01734 0.0
H127 H 0.06851 0.07003 0.02225 0.0
C128 C 0.02626 0.93145 0.55366 0.0
C129 C -0.00096 0.91325 0.55416 0.0
C130 C 0.01615 0.95572 0.5568 0.0
C131 C -0.02149 0.96223 0.56026 0.0
C132 C 0.95156 0.94392 0.56249 0.0
C133 C 0.96166 0.91969 0.55929 0.0
C134 C 0.96607 0.98778 0.56109 0.0
C135 C -0.01438 0.00603 0.54457 0.0
C136 C 0.9722 0.03132 0.54275 0.0
C137 C -0.00156 0.04998 0.53912 0.0
C138 C -0.01289 0.07397 0.53581 0.0
C139 C 0.94921 0.0798 0.53555 0.0
H140 H 0.91302 0.02324 0.54389 0.0
C141 C 0.92282 0.06119 0.53893 0.0
C142 C 0.93416 0.03714 0.54246 0.0
H143 H 0.89341 0.06516 0.53854 0.0
H144 H 0.05534 0.92698 0.5502 0.0
H145 H 0.03794 0.9692 0.55651 0.0
H146 H 0.92244 0.94838 0.56562 0.0
H147 H 0.94005 0.90604 0.56008 0.0
H148 H 0.93908 0.99135 0.5742 0.0
H149 H 0.01262 0.00253 0.53146 0.0
H150 H 0.02786 0.04599 0.53888 0.0
H151 H 0.00813 0.08792 0.5331 0.0
C152 C 0.47642 0.57394 0.99272 0.0
C153 C 0.51192 0.58224 0.00316 0.0
C154 C 0.46927 0.54925 0.98894 0.0
C155 C 0.49766 0.53225 0.99546 0.0
C156 C 0.53336 0.54072 0.00494 0.0
C157 C 0.54046 0.56542 0.00873 0.0
C158 C 0.4913 0.50564 0.99469 0.0
C159 C 0.45933 0.49482 0.98375 0.0
C160 C 0.45338 0.46829 0.98669 0.0
C161 C 0.41712 0.45938 0.99189 0.0
C162 C 0.41066 0.43463 -0.00306 0.0
C163 C 0.44041 0.41833 -0.00337 0.0
H164 H 0.51111 0.45776 0.97911 0.0
C165 C 0.47651 0.42712 0.98991 0.0
C166 C 0.48295 0.4518 0.98474 0.0
H167 H 0.49994 0.41493 0.98887 0.0
H168 H 0.45384 0.58653 0.98827 0.0
H169 H 0.44125 0.54387 0.98187 0.0
H170 H 0.55583 0.52815 0.01012 0.0
H171 H 0.56813 0.57128 0.0168 0.0
H172 H 0.514 0.49453 0.00527 0.0
H173 H 0.4358 0.50548 0.97433 0.0
H174 H 0.39379 0.47165 0.99303 0.0
H175 H 0.3825 0.42833 0.0018 0.0
C176 C 0.48572 0.43523 0.52476 0.0
C177 C 0.52223 0.42651 0.52686 0.0
C178 C 0.47878 0.46002 0.52512 0.0
C179 C 0.50828 0.47665 0.52784 0.0
C180 C 0.5448 0.4679 0.52935 0.0
C181 C 0.55173 0.44307 0.52908 0.0
C182 C 0.50219 0.50318 0.52777 0.0
C183 C 0.47041 0.51357 0.54017 0.0
C184 C 0.46395 0.5401 0.53978 0.0
C185 C 0.42726 0.5486 0.54092 0.0
C186 C 0.41988 0.57338 0.5403 0.0
C187 C 0.44914 0.59016 0.53871 0.0
H188 H 0.52194 0.55142 0.53964 0.0
C189 C 0.48585 0.58173 0.53832 0.0
C190 C 0.49324 0.55701 0.53906 0.0
H191 H 0.50901 0.59426 0.53758 0.0
H192 H 0.46242 0.42289 0.52263 0.0
H193 H 0.45033 0.46596 0.52246 0.0
H194 H 0.56806 0.48031 0.53103 0.0
H195 H 0.58018 0.43687 0.53053 0.0
H196 H 0.52511 0.51431 0.51743 0.0
H197 H 0.44767 0.50229 0.55065 0.0
H198 H 0.40416 0.53602 0.54189 0.0
H199 H 0.3913 0.57936 0.54081 0.0
C200 C 0.01617 0.15598 0.16211 0.0
C201 C -0.00698 0.16361 0.13104 0.0
C202 C 0.00552 0.15901 0.20158 0.0
C203 C 0.97142 0.16987 0.21101 0.0
C204 C 0.94806 0.17734 0.17997 0.0
C205 C 0.95888 0.17441 0.14026 0.0
C206 C 0.95853 0.17178 0.2528 0.0
C207 C -0.01797 0.17293 0.28383 0.0
C208 C 0.96979 0.1708 0.32585 0.0
C209 C -0.0072 0.17969 0.35614 0.0
C210 C -0.0167 0.17628 0.39615 0.0
C211 C 0.95084 0.1636 0.40647 0.0
H212 H 0.91935 0.15038 0.31408 0.0
C213 C 0.92784 0.15475 0.37618 0.0
C214 C 0.93719 0.15826 0.33637 0.0
H215 H 0.90267 0.14483 0.38319 0.0
H216 H 0.0426 0.14747 0.156 0.0
H217 H 0.0237 0.15217 0.22449 0.0
H218 H 0.9214 0.18543 0.18647 0.0
H219 H 0.94046 0.18041 0.11688 0.0
H220 H 0.92876 0.17203 0.25795 0.0
H221 H 0.01158 0.17522 0.27844 0.0
H222 H 0.01833 0.18913 0.34883 0.0
H223 H 0.00156 0.18326 0.41891 0.0
C224 C 0.97704 0.82357 0.39308 0.0
C225 C -0.00682 0.84339 0.41246 0.0
C226 C 0.97026 0.82457 0.35207 0.0
C227 C -0.02088 0.84556 0.33017 0.0
C228 C -0.00573 0.86548 0.34997 0.0
C229 C 0.00159 0.86433 0.3905 0.0
C230 C 0.97139 0.84805 0.28715 0.0
C231 C 0.97199 0.82961 0.26121 0.0
C232 C 0.96412 0.83333 0.21828 0.0
C233 C -0.01926 0.81838 0.18967 0.0
C234 C 0.97328 0.82168 0.14912 0.0
C235 C 0.9487 0.83982 0.1367 0.0
H236 H 0.92508 0.86274 0.22671 0.0
C237 C 0.93204 0.85464 0.16541 0.0
C238 C 0.93947 0.85138 0.20561 0.0
H239 H 0.91261 0.86861 0.15691 0.0
H240 H 0.97035 0.80721 0.40939 0.0
H241 H 0.95768 0.80911 0.33777 0.0
H242 H 0.00093 0.88195 0.3339 0.0
H243 H 0.01389 0.87995 0.4047 0.0
H244 H 0.96717 0.86631 0.27612 0.0
H245 H -0.02001 0.81169 0.27118 0.0
H246 H -0.00042 0.80419 0.19869 0.0
H247 H -0.01383 0.80981 0.12766 0.0
C248 C 0.96565 0.80602 0.65371 0.0
C249 C 0.00136 0.8135 0.64215 0.0
C250 C 0.95813 0.80028 0.69356 0.0
C251 C -0.01369 0.80201 0.72245 0.0
C252 C 0.02242 0.80795 0.7101 0.0
C253 C 0.02983 0.81375 0.67055 0.0
C254 C -0.02068 0.79941 0.76589 0.0
C255 C 0.946 0.80342 0.78287 0.0
C256 C 0.94021 0.80706 0.82634 0.0
C257 C 0.90675 0.81761 0.83861 0.0
C258 C 0.90111 0.82399 0.87817 0.0
C259 C 0.92877 0.81991 0.90669 0.0
H260 H -0.00692 0.79306 0.84775 0.0
C261 C 0.96162 0.80832 0.89512 0.0
C262 C 0.9673 0.80184 0.85534 0.0
H263 H -0.01679 0.80465 0.9166 0.0
H264 H 0.9433 0.80539 0.6323 0.0
H265 H 0.93018 0.79491 0.70153 0.0
H266 H 0.04478 0.80915 0.73145 0.0
H267 H 0.05782 0.81911 0.66248 0.0
H268 H 0.00358 0.79721 0.78447 0.0
H269 H 0.92232 0.80697 0.76392 0.0
H270 H 0.8852 0.82169 0.81726 0.0
H271 H 0.87524 0.83265 0.88619 0.0
C272 C 0.97776 0.1888 0.88912 0.0
C273 C 0.01094 0.17753 0.90039 0.0
C274 C 0.97155 0.19483 0.84926 0.0
C275 C -0.00157 0.18952 0.82003 0.0
C276 C 0.03225 0.1794 0.83187 0.0
C277 C 0.03839 0.17337 0.87151 0.0
C278 C -0.00822 0.1927 0.7768 0.0
C279 C 0.95767 0.19205 0.76071 0.0
C280 C 0.95116 0.18833 0.71763 0.0
C281 C 0.91813 0.17686 0.70634 0.0
C282 C 0.91222 0.17041 0.66693 0.0
C283 C 0.93906 0.17553 0.63769 0.0
H284 H 0.00271 0.20406 0.69538 0.0
C285 C 0.97138 0.18811 0.64838 0.0
C286 C 0.97742 0.19451 0.68807 0.0
H287 H -0.00774 0.19259 0.62628 0.0
H288 H 0.95638 0.19257 0.91092 0.0
H289 H 0.94561 0.2034 0.84157 0.0
H290 H 0.05357 0.1753 0.81014 0.0
H291 H 0.06451 0.165 0.87934 0.0
H292 H 0.01595 0.19206 0.75748 0.0
H293 H 0.93357 0.19071 0.78006 0.0
H294 H 0.8973 0.17206 0.72833 0.0
H295 H 0.88675 0.16102 0.65955 0.0
C296 C 0.47339 0.68306 0.15602 0.0
C297 C 0.47903 0.66027 0.13893 0.0
C298 C 0.46408 0.68496 0.1963 0.0
C299 C 0.45968 0.66403 0.21971 0.0
C300 C 0.46349 0.64131 0.20197 0.0
C301 C 0.4736 0.63943 0.1621 0.0
C302 C 0.45093 0.66509 0.2626 0.0
C303 C 0.46467 0.68212 0.287 0.0
C304 C 0.45821 0.68111 0.33053 0.0
C305 C 0.48586 0.68915 0.35674 0.0
C306 C 0.48121 0.68654 0.39791 0.0
C307 C 0.44866 0.67602 0.41333 0.0
H308 H 0.40255 0.66608 0.32701 0.0
C309 C 0.42043 0.669 0.38707 0.0
C310 C 0.42503 0.67162 0.34622 0.0
H311 H 0.39468 0.66125 0.39803 0.0
H312 H 0.47757 0.69939 0.1387 0.0
H313 H 0.46043 0.70272 0.20905 0.0
H314 H 0.45984 0.62494 0.21934 0.0
H315 H 0.4777 0.62165 0.14952 0.0
H316 H 0.4355 0.64993 0.27506 0.0
H317 H 0.4835 0.69583 0.27535 0.0
H318 H 0.51152 0.69678 0.34532 0.0
H319 H 0.50325 0.69233 0.41753 0.0
C320 C 0.48432 0.32903 0.3942 0.0
C321 C 0.51921 0.33666 0.40775 0.0
C322 C 0.47846 0.32514 0.35363 0.0
C323 C 0.50752 0.32876 0.32607 0.0
C324 C 0.54273 0.33527 0.34 0.0
C325 C 0.54847 0.33937 0.38034 0.0
C326 C 0.50198 0.32683 0.28255 0.0
C327 C 0.46978 0.33281 0.2651 0.0
C328 C 0.46521 0.33502 0.22144 0.0
C329 C 0.43741 0.35039 0.20718 0.0
C330 C 0.43201 0.35336 0.16652 0.0
C331 C 0.45406 0.34082 0.13902 0.0
H332 H 0.50856 0.30993 0.20381 0.0
C333 C 0.48189 0.32533 0.15306 0.0
C334 C 0.48743 0.3224 0.19397 0.0
H335 H 0.49897 0.31522 0.1325 0.0
H336 H 0.46143 0.32653 0.41478 0.0
H337 H 0.4512 0.3194 0.34399 0.0
H338 H 0.56563 0.33796 0.31947 0.0
H339 H 0.57584 0.34494 0.38997 0.0
H340 H 0.52627 0.3232 0.26437 0.0
H341 H 0.44668 0.33864 0.2835 0.0
H342 H 0.41987 0.36028 0.2276 0.0
H343 H 0.41016 0.36534 0.15667 0.0
C344 C 0.43096 0.31471 0.88143 0.0
C345 C 0.45826 0.31946 0.91004 0.0
C346 C 0.44081 0.31047 0.84198 0.0
C347 C 0.4783 0.31131 0.83013 0.0
C348 C 0.50568 0.31442 0.85939 0.0
C349 C 0.49578 0.31843 0.89905 0.0
C350 C 0.48997 0.31086 0.78768 0.0
C351 C 0.4669 0.31535 0.75702 0.0
C352 C 0.48036 0.32012 0.71601 0.0
C353 C 0.45671 0.31579 0.68366 0.0
C354 C 0.46769 0.32201 0.64498 0.0
C355 C 0.50227 0.33308 0.63821 0.0
H356 H 0.53351 0.33554 0.73316 0.0
C357 C 0.52584 0.33741 0.67057 0.0
C358 C 0.51505 0.33105 0.70899 0.0
H359 H 0.55265 0.34598 0.66632 0.0
H360 H 0.40178 0.3149 0.88933 0.0
H361 H 0.41875 0.3071 0.82106 0.0
H362 H 0.53481 0.31486 0.85128 0.0
H363 H 0.51738 0.3219 0.92061 0.0
H364 H 0.51943 0.30874 0.78177 0.0
H365 H 0.43726 0.31694 0.7618 0.0
H366 H 0.4296 0.30772 0.68838 0.0
H367 H 0.44897 0.31851 0.62056 0.0
C368 C 0.535 0.68924 0.89028 0.0
C369 C 0.50583 0.68587 0.91758 0.0
C370 C 0.52769 0.69569 0.85096 0.0
C371 C 0.49088 0.69863 0.838 0.0
C372 C 0.46196 0.69675 0.86603 0.0
C373 C 0.46931 0.6904 0.90545 0.0
C374 C 0.48103 0.70184 0.79544 0.0
C375 C 0.50374 0.69612 0.76494 0.0
C376 C 0.49031 0.6935 0.72354 0.0
C377 C 0.51534 0.69611 0.69164 0.0
C378 C 0.50406 0.69125 0.65266 0.0
C379 C 0.46774 0.68327 0.6452 0.0
H380 H 0.434 0.68281 0.73946 0.0
C381 C 0.44269 0.68092 0.67706 0.0
C382 C 0.45379 0.68593 0.71572 0.0
H383 H 0.41449 0.67476 0.67227 0.0
H384 H 0.56354 0.68629 0.89903 0.0
H385 H 0.55101 0.69786 0.83097 0.0
H386 H 0.43335 0.69914 0.85704 0.0
H387 H 0.44631 0.6881 0.92596 0.0
H388 H 0.4526 0.707 0.78912 0.0
H389 H 0.53253 0.69154 0.77019 0.0
H390 H 0.54379 0.70157 0.69696 0.0
H391 H 0.52394 0.69313 0.62862 0.0
C392 C 0.29771 0.3087 0.034 0.0
C393 C 0.33418 0.30003 0.03611 0.0
C394 C 0.26771 0.29283 0.03809 0.0
C395 C 0.27375 0.26793 0.04396 0.0
C396 C 0.31024 0.2595 0.04728 0.0
C397 C 0.34017 0.27535 0.04326 0.0
C398 C 0.24297 0.25015 0.04653 0.0
C399 C 0.2095 0.25388 0.03015 0.0
C400 C 0.17946 0.23559 0.03066 0.0
C401 C 0.14266 0.24355 0.02853 0.0
C402 C 0.11352 0.22697 0.02723 0.0
C403 C 0.12065 0.20204 0.02747 0.0
H404 H 0.21478 0.20379 0.03148 0.0
C405 C 0.15746 0.19397 0.02955 0.0
C406 C 0.18668 0.2106 0.0311 0.0
H407 H 0.1637 0.17485 0.02946 0.0
H408 H 0.29234 0.32771 0.02907 0.0
H409 H 0.24002 0.30025 0.03689 0.0
H410 H 0.31567 0.24048 0.0522 0.0
H411 H 0.36803 0.26817 0.04533 0.0
H412 H 0.24875 0.23304 0.06109 0.0
H413 H 0.20343 0.27094 0.01563 0.0
H414 H 0.13641 0.26267 0.02781 0.0
H415 H 0.0854 0.23374 0.02547 0.0
C416 C 0.62453 0.71275 0.07637 0.0
C417 C 0.62643 0.6904 0.05695 0.0
C418 C 0.65625 0.72696 0.0807 0.0
C419 C 0.69044 0.7192 0.06514 0.0
C420 C 0.69271 0.69621 0.04783 0.0
C421 C 0.66094 0.68191 0.04368 0.0
C422 C 0.72391 0.73484 0.06532 0.0
C423 C 0.72211 0.75917 0.0653 0.0
C424 C 0.75517 0.77498 0.06066 0.0
C425 C 0.75041 0.79854 0.04588 0.0
C426 C 0.78108 0.81351 0.0389 0.0
C427 C 0.81702 0.80512 0.04665 0.0
H428 H 0.79595 0.74946 0.08306 0.0
C429 C 0.82172 0.78192 0.06282 0.0
C430 C 0.79113 0.76706 0.07007 0.0
H431 H 0.84913 0.77516 0.06979 0.0
H432 H 0.59834 0.71953 0.08755 0.0
H433 H 0.65367 0.74408 0.09582 0.0
H434 H 0.71885 0.68967 0.03613 0.0
H435 H 0.66318 0.66466 0.02882 0.0
H436 H 0.75047 0.72596 0.06151 0.0
H437 H 0.69524 0.76796 0.06523 0.0
H438 H 0.72296 0.8052 0.03883 0.0
H439 H 0.7767 0.83139 0.02668 0.0
C440 C 0.15649 0.81131 0.52192 0.0
C441 C 0.12124 0.80172 0.5138 0.0
C442 C 0.18779 0.79651 0.52069 0.0
C443 C 0.18425 0.7718 0.51153 0.0
C444 C 0.14918 0.76257 0.5018 0.0
C445 C 0.11795 0.77732 0.50309 0.0
C446 C 0.21617 0.755 0.51195 0.0
C447 C 0.24692 0.75874 0.53364 0.0
C448 C 0.27795 0.74133 0.53485 0.0
C449 C 0.31404 0.75012 0.54054 0.0
C450 C 0.34407 0.73432 0.54125 0.0
C451 C 0.33844 0.70935 0.53698 0.0
H452 H 0.24454 0.7088 0.52834 0.0
C453 C 0.30222 0.70041 0.5325 0.0
C454 C 0.27218 0.71626 0.5314 0.0
H455 H 0.29712 0.68121 0.52945 0.0
H456 H 0.15983 0.83013 0.52983 0.0
H457 H 0.21452 0.80456 0.52687 0.0
H458 H 0.14574 0.74369 0.49417 0.0
H459 H 0.09112 0.76947 0.49639 0.0
H460 H 0.21352 0.7385 0.49479 0.0
H461 H 0.25009 0.77519 0.55072 0.0
H462 H 0.3191 0.76932 0.54376 0.0
H463 H 0.37171 0.74169 0.54506 0.0
C464 C 0.62691 0.28264 0.53405 0.0
C465 C 0.63247 0.30772 0.53192 0.0
C466 C 0.65705 0.26695 0.53398 0.0
C467 C 0.69347 0.27606 0.53138 0.0
C468 C 0.699 0.30118 0.53037 0.0
C469 C 0.66878 0.31691 0.53052 0.0
C470 C 0.72633 0.26006 0.53012 0.0
C471 C 0.72514 0.23688 0.51806 0.0
C472 C 0.75865 0.22152 0.51603 0.0
C473 C 0.7551 0.19643 0.52113 0.0
C474 C 0.78649 0.18164 0.52063 0.0
C475 C 0.82184 0.19178 0.51464 0.0
H476 H 0.79765 0.25055 0.50268 0.0
C477 C 0.82518 0.21675 0.50802 0.0
C478 C 0.79395 0.23146 0.5085 0.0
H479 H 0.85204 0.22503 0.50271 0.0
H480 H 0.59918 0.27506 0.5357 0.0
H481 H 0.65151 0.24779 0.53639 0.0
H482 H 0.7268 0.30868 0.5288 0.0
H483 H 0.67384 0.33619 0.52905 0.0
H484 H 0.75268 0.26802 0.53871 0.0
H485 H 0.69899 0.22857 0.50981 0.0
H486 H 0.7281 0.18833 0.52639 0.0
H487 H 0.78315 0.16242 0.52559 0.0
loop_
_geom_bond_atom_site_label_1
_geom_bond_atom_site_label_2
_geom_bond_distance
_geom_bond_site_symmetry_2
_ccdc_geom_bond_type
In0 O1 2.294 . S
In0 O2 2.326 . S
In0 O6 2.266 1_454 S
In0 O7 2.326 1_554 S
In0 O8 2.266 . S
In0 O9 2.326 . S
In0 O11 2.294 . S
In0 O12 2.326 . S
O1 In0 2.294 . S
O1 C10 1.240 . S
O2 In0 2.326 . S
O2 C10 1.252 . S
C3 O6 1.252 1_455 S
C3 O7 1.260 . S
C4 O11 1.240 . S
C4 O12 1.252 . S
C5 O8 1.252 . S
C5 O9 1.260 . S
O6 In0 2.266 1_656 S
O6 C3 1.252 1_655 S
O7 In0 2.326 1_556 S
O7 C3 1.260 . S
O8 In0 2.266 . S
O8 C5 1.252 . S
O9 In0 2.326 . S
O9 C5 1.260 . S
C10 O1 1.240 . S
C10 O2 1.252 . S
O11 In0 2.294 . S
O11 C4 1.240 . S
O12 In0 2.326 . S
O12 C4 1.252 . S
In13 O14 2.294 . S
In13 O15 2.326 . S
In13 O19 2.266 . S
In13 O20 2.326 . S
In13 O21 2.266 1_654 S
In13 O22 2.326 1_554 S
In13 O24 2.294 . S
In13 O25 2.326 . S
O14 In13 2.294 . S
O14 C23 1.240 . S
O15 In13 2.326 . S
O15 C23 1.252 . S
C16 O19 1.252 . S
C16 O20 1.260 . S
C17 O24 1.240 . S
C17 O25 1.252 . S
C18 O21 1.252 1_655 S
C18 O22 1.260 . S
O19 In13 2.266 . S
O19 C16 1.252 . S
O20 In13 2.326 . S
O20 C16 1.260 . S
O21 In13 2.266 1_456 S
O21 C18 1.252 1_455 S
O22 In13 2.326 1_556 S
O22 C18 1.260 . S
C23 O14 1.240 . S
C23 O15 1.252 . S
O24 In13 2.294 . S
O24 C17 1.240 . S
O25 In13 2.326 . S
O25 C17 1.252 . S
In26 O27 2.294 . S
In26 O28 2.326 . S
In26 O32 2.266 1_455 S
In26 O33 2.326 . S
In26 O34 2.266 . S
In26 O35 2.326 . S
In26 O37 2.294 . S
In26 O38 2.326 . S
O27 In26 2.294 . S
O27 C36 1.240 . S
O28 In26 2.326 . S
O28 C36 1.252 . S
C29 O32 1.252 1_455 S
C29 O33 1.260 . S
C30 O37 1.240 . S
C30 O38 1.252 . S
C31 O34 1.252 . S
C31 O35 1.260 . S
O32 In26 2.266 1_655 S
O32 C29 1.252 1_655 S
O33 In26 2.326 . S
O33 C29 1.260 . S
O34 In26 2.266 . S
O34 C31 1.252 . S
O35 In26 2.326 . S
O35 C31 1.260 . S
C36 O27 1.240 . S
C36 O28 1.252 . S
O37 In26 2.294 . S
O37 C30 1.240 . S
O38 In26 2.326 . S
O38 C30 1.252 . S
In39 O40 2.294 . S
In39 O41 2.326 . S
In39 O45 2.266 1_655 S
In39 O46 2.326 . S
In39 O47 2.266 . S
In39 O48 2.326 . S
In39 O50 2.294 . S
In39 O51 2.326 . S
O40 In39 2.294 . S
O40 C49 1.240 . S
O41 In39 2.326 . S
O41 C49 1.252 . S
C42 O45 1.252 1_655 S
C42 O46 1.260 . S
C43 O50 1.240 . S
C43 O51 1.252 . S
C44 O47 1.252 . S
C44 O48 1.260 . S
O45 In39 2.266 1_455 S
O45 C42 1.252 1_455 S
O46 In39 2.326 . S
O46 C42 1.260 . S
O47 In39 2.266 . S
O47 C44 1.252 . S
O48 In39 2.326 . S
O48 C44 1.260 . S
C49 O40 1.240 . S
C49 O41 1.252 . S
O50 In39 2.294 . S
O50 C43 1.240 . S
O51 In39 2.326 . S
O51 C43 1.252 . S
In52 O53 2.294 . S
In52 O54 2.326 . S
In52 O58 2.266 . S
In52 O59 2.326 . S
In52 O60 2.266 1_554 S
In52 O61 2.326 1_554 S
In52 O63 2.294 . S
In52 O64 2.326 . S
O53 In52 2.294 . S
O53 C62 1.240 . S
O54 In52 2.326 . S
O54 C62 1.252 . S
C55 O58 1.252 . S
C55 O59 1.260 . S
C56 O63 1.240 . S
C56 O64 1.252 . S
C57 O60 1.252 . S
C57 O61 1.260 . S
O58 In52 2.266 . S
O58 C55 1.252 . S
O59 In52 2.326 . S
O59 C55 1.260 . S
O60 In52 2.266 1_556 S
O60 C57 1.252 . S
O61 In52 2.326 1_556 S
O61 C57 1.260 . S
C62 O53 1.240 . S
C62 O54 1.252 . S
O63 In52 2.294 . S
O63 C56 1.240 . S
O64 In52 2.326 . S
O64 C56 1.252 . S
In65 O66 2.294 . S
In65 O67 2.326 . S
In65 O71 2.266 1_554 S
In65 O72 2.326 1_554 S
In65 O73 2.266 . S
In65 O74 2.326 . S
In65 O76 2.294 . S
In65 O77 2.326 . S
O66 In65 2.294 . S
O66 C75 1.240 . S
O67 In65 2.326 . S
O67 C75 1.252 . S
C68 O71 1.252 . S
C68 O72 1.260 . S
C69 O76 1.240 . S
C69 O77 1.252 . S
C70 O73 1.252 . S
C70 O74 1.260 . S
O71 In65 2.266 1_556 S
O71 C68 1.252 . S
O72 In65 2.326 1_556 S
O72 C68 1.260 . S
O73 In65 2.266 . S
O73 C70 1.252 . S
O74 In65 2.326 . S
O74 C70 1.260 . S
C75 O66 1.240 . S
C75 O67 1.252 . S
O76 In65 2.294 . S
O76 C69 1.240 . S
O77 In65 2.326 . S
O77 C69 1.252 . S
In78 O79 2.294 . S
In78 O80 2.326 . S
In78 O84 2.266 . S
In78 O85 2.326 . S
In78 O86 2.266 . S
In78 O87 2.326 . S
In78 O89 2.294 . S
In78 O90 2.326 . S
O79 In78 2.294 . S
O79 C88 1.240 . S
O80 In78 2.326 . S
O80 C88 1.252 . S
C81 O84 1.252 . S
C81 O85 1.260 . S
C82 O89 1.240 . S
C82 O90 1.252 . S
C83 O86 1.252 . S
C83 O87 1.260 . S
O84 In78 2.266 . S
O84 C81 1.252 . S
O85 In78 2.326 . S
O85 C81 1.260 . S
O86 In78 2.266 . S
O86 C83 1.252 . S
O87 In78 2.326 . S
O87 C83 1.260 . S
C88 O79 1.240 . S
C88 O80 1.252 . S
O89 In78 2.294 . S
O89 C82 1.240 . S
O90 In78 2.326 . S
O90 C82 1.252 . S
In91 O92 2.294 . S
In91 O93 2.326 . S
In91 O97 2.266 . S
In91 O98 2.326 . S
In91 O99 2.266 . S
In91 O100 2.326 . S
In91 O102 2.294 . S
In91 O103 2.326 . S
O92 In91 2.294 . S
O92 C101 1.240 . S
O93 In91 2.326 . S
O93 C101 1.252 . S
C94 O97 1.252 . S
C94 O98 1.260 . S
C95 O102 1.240 . S
C95 O103 1.252 . S
C96 O99 1.252 . S
C96 O100 1.260 . S
O97 In91 2.266 . S
O97 C94 1.252 . S
O98 In91 2.326 . S
O98 C94 1.260 . S
O99 In91 2.266 . S
O99 C96 1.252 . S
O100 In91 2.326 . S
O100 C96 1.260 . S
C101 O92 1.240 . S
C101 O93 1.252 . S
O102 In91 2.294 . S
O102 C95 1.240 . S
O103 In91 2.326 . S
O103 C95 1.252 . S
C104 C105 1.386 1_455 S
C104 C106 1.383 . S
C104 H120 0.951 . S
C105 C104 1.386 1_655 S
C105 C109 1.383 . S
C106 C104 1.383 . S
C106 C107 1.402 1_455 S
C106 H121 0.951 . S
C107 C106 1.402 1_655 S
C107 C108 1.375 . S
C107 C110 1.481 . S
C108 C107 1.375 . S
C108 C109 1.367 . S
C108 H122 0.951 . S
C109 C105 1.383 . S
C109 C108 1.367 . S
C109 H123 0.950 . S
C110 C107 1.481 . S
C110 C111 1.297 1_665 S
C110 H124 0.950 1_565 S
C111 C110 1.297 1_445 S
C111 C112 1.479 . S
C111 H125 0.953 1_545 S
C112 C111 1.479 . S
C112 C113 1.375 . S
C112 C118 1.404 1_454 S
C113 C112 1.375 . S
C113 C114 1.369 . S
C113 H126 0.950 . S
C114 C113 1.369 . S
C114 C115 1.392 . S
C114 H127 0.951 . S
C115 C114 1.392 . S
C115 C117 1.384 1_455 S
H116 C118 0.949 . S
C117 C115 1.384 1_655 S
C117 C118 1.385 1_554 S
C117 H119 0.950 1_554 S
C118 C112 1.404 1_656 S
C118 H116 0.949 . S
C118 C117 1.385 1_556 S
H119 C117 0.950 1_556 S
H120 C104 0.951 . S
H121 C106 0.951 . S
H122 C108 0.951 . S
H123 C109 0.950 . S
H124 C110 0.950 1_545 S
H125 C111 0.953 1_565 S
H126 C113 0.950 . S
H127 C114 0.951 . S
C128 C129 1.386 . S
C128 C130 1.383 . S
C128 H144 0.951 . S
C129 C128 1.386 . S
C129 C133 1.383 . S
C130 C128 1.383 . S
C130 C131 1.398 1_455 S
C130 H145 0.951 . S
C131 C130 1.398 1_655 S
C131 C132 1.374 1_655 S
C131 C134 1.485 . S
C132 C131 1.374 1_455 S
C132 C133 1.367 . S
C132 H146 0.951 1_455 S
C133 C129 1.383 . S
C133 C132 1.367 . S
C133 H147 0.950 . S
C134 C131 1.485 . S
C134 C135 1.297 1_565 S
C134 H148 0.950 . S
C135 C134 1.297 1_545 S
C135 C136 1.479 . S
C135 H149 0.951 1_545 S
C136 C135 1.479 . S
C136 C137 1.375 . S
C136 C142 1.404 . S
C137 C136 1.375 . S
C137 C138 1.369 . S
C137 H150 0.950 . S
C138 C137 1.369 . S
C138 C139 1.392 . S
C138 H151 0.951 . S
C139 C138 1.392 . S
C139 C141 1.384 . S
H140 C142 0.949 . S
C141 C139 1.384 . S
C141 C142 1.385 . S
C141 H143 0.950 . S
C142 C136 1.404 . S
C142 H140 0.949 . S
C142 C141 1.385 . S
H143 C141 0.950 . S
H144 C128 0.951 . S
H145 C130 0.951 . S
H146 C132 0.951 1_655 S
H147 C133 0.950 . S
H148 C134 0.950 . S
H149 C135 0.951 1_565 S
H150 C137 0.950 . S
H151 C138 0.951 . S
C152 C153 1.386 . S
C152 C154 1.383 . S
C152 H168 0.951 . S
C153 C152 1.386 . S
C153 C157 1.383 . S
C154 C152 1.383 . S
C154 C155 1.402 . S
C154 H169 0.951 . S
C155 C154 1.402 . S
C155 C156 1.375 . S
C155 C158 1.481 . S
C156 C155 1.375 . S
C156 C157 1.367 . S
C156 H170 0.951 . S
C157 C153 1.383 . S
C157 C156 1.367 . S
C157 H171 0.950 . S
C158 C155 1.481 . S
C158 C159 1.297 . S
C158 H172 0.950 . S
C159 C158 1.297 . S
C159 C160 1.479 . S
C159 H173 0.950 . S
C160 C159 1.479 . S
C160 C161 1.375 . S
C160 C166 1.404 1_554 S
C161 C160 1.375 . S
C161 C162 1.369 . S
C161 H174 0.950 . S
C162 C161 1.369 . S
C162 C163 1.392 . S
C162 H175 0.951 . S
C163 C162 1.392 . S
C163 C165 1.384 . S
H164 C166 0.949 . S
C165 C163 1.384 . S
C165 C166 1.385 1_554 S
C165 H167 0.950 1_554 S
C166 C160 1.404 1_556 S
C166 H164 0.949 . S
C166 C165 1.385 1_556 S
H167 C165 0.950 1_556 S
H168 C152 0.951 . S
H169 C154 0.951 . S
H170 C156 0.951 . S
H171 C157 0.950 . S
H172 C158 0.950 . S
H173 C159 0.950 . S
H174 C161 0.950 . S
H175 C162 0.951 . S
C176 C177 1.386 . S
C176 C178 1.383 . S
C176 H192 0.951 . S
C177 C176 1.386 . S
C177 C181 1.383 . S
C178 C176 1.383 . S
C178 C179 1.402 . S
C178 H193 0.951 . S
C179 C178 1.402 . S
C179 C180 1.375 . S
C179 C182 1.481 . S
C180 C179 1.375 . S
C180 C181 1.367 . S
C180 H194 0.951 . S
C181 C177 1.383 . S
C181 C180 1.367 . S
C181 H195 0.950 . S
C182 C179 1.481 . S
C182 C183 1.297 . S
C182 H196 0.950 . S
C183 C182 1.297 . S
C183 C184 1.479 . S
C183 H197 0.950 . S
C184 C183 1.479 . S
C184 C185 1.375 . S
C184 C190 1.404 . S
C185 C184 1.375 . S
C185 C186 1.369 . S
C185 H198 0.950 . S
C186 C185 1.369 . S
C186 C187 1.392 . S
C186 H199 0.951 . S
C187 C186 1.392 . S
C187 C189 1.384 . S
H188 C190 0.949 . S
C189 C187 1.384 . S
C189 C190 1.385 . S
C189 H191 0.950 . S
C190 C184 1.404 . S
C190 H188 0.949 . S
C190 C189 1.385 . S
H191 C189 0.950 . S
H192 C176 0.951 . S
H193 C178 0.951 . S
H194 C180 0.951 . S
H195 C181 0.950 . S
H196 C182 0.950 . S
H197 C183 0.950 . S
H198 C185 0.950 . S
H199 C186 0.951 . S
C200 C201 1.386 . S
C200 C202 1.383 . S
C200 H216 0.951 . S
C201 C200 1.386 . S
C201 C205 1.383 1_455 S
C202 C200 1.383 . S
C202 C203 1.402 1_455 S
C202 H217 0.951 . S
C203 C202 1.402 1_655 S
C203 C204 1.375 . S
C203 C206 1.481 . S
C204 C203 1.375 . S
C204 C205 1.367 . S
C204 H218 0.951 . S
C205 C201 1.383 1_655 S
C205 C204 1.367 . S
C205 H219 0.950 . S
C206 C203 1.481 . S
C206 C207 1.297 1_655 S
C206 H220 0.950 . S
C207 C206 1.297 1_455 S
C207 C208 1.479 . S
C207 H221 0.950 . S
C208 C207 1.479 . S
C208 C209 1.375 . S
C208 C214 1.404 1_455 S
C209 C208 1.375 . S
C209 C210 1.369 . S
C209 H222 0.950 . S
C210 C209 1.369 . S
C210 C211 1.392 1_455 S
C210 H223 0.951 . S
C211 C210 1.392 1_655 S
C211 C213 1.384 . S
H212 C214 0.949 . S
C213 C211 1.384 . S
C213 C214 1.385 . S
C213 H215 0.950 . S
C214 C208 1.404 1_655 S
C214 H212 0.949 . S
C214 C213 1.385 . S
H215 C213 0.950 . S
H216 C200 0.951 . S
H217 C202 0.951 . S
H218 C204 0.951 . S
H219 C205 0.950 . S
H220 C206 0.950 . S
H221 C207 0.950 . S
H222 C209 0.950 . S
H223 C210 0.951 . S
C224 C225 1.386 1_655 S
C224 C226 1.383 . S
C224 H240 0.951 . S
C225 C224 1.386 1_455 S
C225 C229 1.383 . S
C226 C224 1.383 . S
C226 C227 1.402 1_655 S
C226 H241 0.951 . S
C227 C226 1.402 1_455 S
C227 C228 1.375 . S
C227 C230 1.481 1_455 S
C228 C227 1.375 . S
C228 C229 1.367 . S
C228 H242 0.951 . S
C229 C225 1.383 . S
C229 C228 1.367 . S
C229 H243 0.950 . S
C230 C227 1.481 1_655 S
C230 C231 1.297 . S
C230 H244 0.950 1_655 S
C231 C230 1.297 . S
C231 C232 1.479 . S
C231 H245 0.950 . S
C232 C231 1.479 . S
C232 C233 1.375 . S
C232 C238 1.404 . S
C233 C232 1.375 . S
C233 C234 1.369 . S
C233 H246 0.950 . S
C234 C233 1.369 . S
C234 C235 1.392 . S
C234 H247 0.951 . S
C235 C234 1.392 . S
C235 C237 1.384 . S
H236 C238 0.949 . S
C237 C235 1.384 . S
C237 C238 1.385 . S
C237 H239 0.942 1_655 S
C238 C232 1.404 . S
C238 H236 0.949 . S
C238 C237 1.385 . S
H239 C237 0.942 1_455 S
H240 C224 0.951 . S
H241 C226 0.951 . S
H242 C228 0.951 . S
H243 C229 0.950 . S
H244 C230 0.950 1_455 S
H245 C231 0.950 . S
H246 C233 0.950 . S
H247 C234 0.951 . S
C248 C249 1.386 1_655 S
C248 C250 1.383 . S
C248 H264 0.951 . S
C249 C248 1.386 1_455 S
C249 C253 1.383 . S
C250 C248 1.383 . S
C250 C251 1.402 1_655 S
C250 H265 0.951 . S
C251 C250 1.402 1_455 S
C251 C252 1.375 . S
C251 C254 1.481 . S
C252 C251 1.375 . S
C252 C253 1.367 . S
C252 H266 0.951 . S
C253 C249 1.383 . S
C253 C252 1.367 . S
C253 H267 0.950 . S
C254 C251 1.481 . S
C254 C255 1.297 1_455 S
C254 H268 0.950 . S
C255 C254 1.297 1_655 S
C255 C256 1.479 . S
C255 H269 0.950 . S
C256 C255 1.479 . S
C256 C257 1.375 . S
C256 C262 1.404 1_655 S
C257 C256 1.375 . S
C257 C258 1.369 . S
C257 H270 0.950 . S
C258 C257 1.369 . S
C258 C259 1.392 . S
C258 H271 0.951 . S
C259 C258 1.392 . S
C259 C261 1.384 1_655 S
H260 C262 0.949 . S
C261 C259 1.384 1_455 S
C261 C262 1.385 . S
C261 H263 0.950 . S
C262 C256 1.404 1_455 S
C262 H260 0.949 . S
C262 C261 1.385 . S
H263 C261 0.950 . S
H264 C248 0.951 . S
H265 C250 0.951 . S
H266 C252 0.951 . S
H267 C253 0.950 . S
H268 C254 0.950 . S
H269 C255 0.950 . S
H270 C257 0.950 . S
H271 C258 0.951 . S
C272 C273 1.386 1_655 S
C272 C274 1.383 . S
C272 H288 0.951 . S
C273 C272 1.386 1_455 S
C273 C277 1.383 . S
C274 C272 1.383 . S
C274 C275 1.402 1_655 S
C274 H289 0.951 . S
C275 C274 1.402 1_455 S
C275 C276 1.375 . S
C275 C278 1.481 . S
C276 C275 1.375 . S
C276 C277 1.367 . S
C276 H290 0.951 . S
C277 C273 1.383 . S
C277 C276 1.367 . S
C277 H291 0.950 . S
C278 C275 1.481 . S
C278 C279 1.297 1_455 S
C278 H292 0.950 . S
C279 C278 1.297 1_655 S
C279 C280 1.479 . S
C279 H293 0.950 . S
C280 C279 1.479 . S
C280 C281 1.375 . S
C280 C286 1.404 1_655 S
C281 C280 1.375 . S
C281 C282 1.369 . S
C281 H294 0.950 . S
C282 C281 1.369 . S
C282 C283 1.392 . S
C282 H295 0.951 . S
C283 C282 1.392 . S
C283 C285 1.384 1_655 S
H284 C286 0.949 . S
C285 C283 1.384 1_455 S
C285 C286 1.385 . S
C285 H287 0.950 . S
C286 C280 1.404 1_455 S
C286 H284 0.949 . S
C286 C285 1.385 . S
H287 C285 0.950 . S
H288 C272 0.951 . S
H289 C274 0.951 . S
H290 C276 0.951 . S
H291 C277 0.950 . S
H292 C278 0.950 . S
H293 C279 0.950 . S
H294 C281 0.950 . S
H295 C282 0.951 . S
C296 C297 1.386 . S
C296 C298 1.383 . S
C296 H312 0.951 . S
C297 C296 1.386 . S
C297 C301 1.383 . S
C298 C296 1.383 . S
C298 C299 1.402 . S
C298 H313 0.951 . S
C299 C298 1.402 . S
C299 C300 1.375 . S
C299 C302 1.481 . S
C300 C299 1.375 . S
C300 C301 1.367 . S
C300 H314 0.951 . S
C301 C297 1.383 . S
C301 C300 1.367 . S
C301 H315 0.950 . S
C302 C299 1.481 . S
C302 C303 1.297 . S
C302 H316 0.950 . S
C303 C302 1.297 . S
C303 C304 1.479 . S
C303 H317 0.950 . S
C304 C303 1.479 . S
C304 C305 1.375 . S
C304 C310 1.404 . S
C305 C304 1.375 . S
C305 C306 1.369 . S
C305 H318 0.950 . S
C306 C305 1.369 . S
C306 C307 1.392 . S
C306 H319 0.951 . S
C307 C306 1.392 . S
C307 C309 1.384 . S
H308 C310 0.949 . S
C309 C307 1.384 . S
C309 C310 1.385 . S
C309 H311 0.950 . S
C310 C304 1.404 . S
C310 H308 0.949 . S
C310 C309 1.385 . S
H311 C309 0.950 . S
H312 C296 0.951 . S
H313 C298 0.951 . S
H314 C300 0.951 . S
H315 C301 0.950 . S
H316 C302 0.950 . S
H317 C303 0.950 . S
H318 C305 0.950 . S
H319 C306 0.951 . S
C320 C321 1.386 . S
C320 C322 1.383 . S
C320 H336 0.951 . S
C321 C320 1.386 . S
C321 C325 1.383 . S
C322 C320 1.383 . S
C322 C323 1.402 . S
C322 H337 0.951 . S
C323 C322 1.402 . S
C323 C324 1.375 . S
C323 C326 1.481 . S
C324 C323 1.375 . S
C324 C325 1.367 . S
C324 H338 0.951 . S
C325 C321 1.383 . S
C325 C324 1.367 . S
C325 H339 0.950 . S
C326 C323 1.481 . S
C326 C327 1.297 . S
C326 H340 0.950 . S
C327 C326 1.297 . S
C327 C328 1.479 . S
C327 H341 0.950 . S
C328 C327 1.479 . S
C328 C329 1.375 . S
C328 C334 1.404 . S
C329 C328 1.375 . S
C329 C330 1.369 . S
C329 H342 0.950 . S
C330 C329 1.369 . S
C330 C331 1.392 . S
C330 H343 0.951 . S
C331 C330 1.392 . S
C331 C333 1.384 . S
H332 C334 0.949 . S
C333 C331 1.384 . S
C333 C334 1.385 . S
C333 H335 0.950 . S
C334 C328 1.404 . S
C334 H332 0.949 . S
C334 C333 1.385 . S
H335 C333 0.950 . S
H336 C320 0.951 . S
H337 C322 0.951 . S
H338 C324 0.951 . S
H339 C325 0.950 . S
H340 C326 0.950 . S
H341 C327 0.950 . S
H342 C329 0.950 . S
H343 C330 0.951 . S
C344 C345 1.386 . S
C344 C346 1.383 . S
C344 H360 0.951 . S
C345 C344 1.386 . S
C345 C349 1.383 . S
C346 C344 1.383 . S
C346 C347 1.402 . S
C346 H361 0.951 . S
C347 C346 1.402 . S
C347 C348 1.375 . S
C347 C350 1.481 . S
C348 C347 1.375 . S
C348 C349 1.367 . S
C348 H362 0.951 . S
C349 C345 1.383 . S
C349 C348 1.367 . S
C349 H363 0.950 . S
C350 C347 1.481 . S
C350 C351 1.297 . S
C350 H364 0.950 . S
C351 C350 1.297 . S
C351 C352 1.479 . S
C351 H365 0.950 . S
C352 C351 1.479 . S
C352 C353 1.375 . S
C352 C358 1.404 . S
C353 C352 1.375 . S
C353 C354 1.369 . S
C353 H366 0.950 . S
C354 C353 1.369 . S
C354 C355 1.392 . S
C354 H367 0.951 . S
C355 C354 1.392 . S
C355 C357 1.384 . S
H356 C358 0.949 . S
C357 C355 1.384 . S
C357 C358 1.385 . S
C357 H359 0.950 . S
C358 C352 1.404 . S
C358 H356 0.949 . S
C358 C357 1.385 . S
H359 C357 0.950 . S
H360 C344 0.951 . S
H361 C346 0.951 . S
H362 C348 0.951 . S
H363 C349 0.950 . S
H364 C350 0.950 . S
H365 C351 0.950 . S
H366 C353 0.950 . S
H367 C354 0.951 . S
C368 C369 1.386 . S
C368 C370 1.383 . S
C368 H384 0.951 . S
C369 C368 1.386 . S
C369 C373 1.383 . S
C370 C368 1.383 . S
C370 C371 1.402 . S
C370 H385 0.951 . S
C371 C370 1.402 . S
C371 C372 1.375 . S
C371 C374 1.481 . S
C372 C371 1.375 . S
C372 C373 1.367 . S
C372 H386 0.951 . S
C373 C369 1.383 . S
C373 C372 1.367 . S
C373 H387 0.950 . S
C374 C371 1.481 . S
C374 C375 1.297 . S
C374 H388 0.950 . S
C375 C374 1.297 . S
C375 C376 1.479 . S
C375 H389 0.950 . S
C376 C375 1.479 . S
C376 C377 1.375 . S
C376 C382 1.404 . S
C377 C376 1.375 . S
C377 C378 1.369 . S
C377 H390 0.950 . S
C378 C377 1.369 . S
C378 C379 1.392 . S
C378 H391 0.951 . S
C379 C378 1.392 . S
C379 C381 1.384 . S
H380 C382 0.949 . S
C381 C379 1.384 . S
C381 C382 1.385 . S
C381 H383 0.950 . S
C382 C376 1.404 . S
C382 H380 0.949 . S
C382 C381 1.385 . S
H383 C381 0.950 . S
H384 C368 0.951 . S
H385 C370 0.951 . S
H386 C372 0.951 . S
H387 C373 0.950 . S
H388 C374 0.950 . S
H389 C375 0.950 . S
H390 C377 0.950 . S
H391 C378 0.951 . S
C392 C393 1.386 . S
C392 C394 1.383 . S
C392 H408 0.951 . S
C393 C392 1.386 . S
C393 C397 1.383 . S
C394 C392 1.383 . S
C394 C395 1.402 . S
C394 H409 0.951 . S
C395 C394 1.402 . S
C395 C396 1.375 . S
C395 C398 1.481 . S
C396 C395 1.375 . S
C396 C397 1.367 . S
C396 H410 0.962 . S
C397 C393 1.383 . S
C397 C396 1.367 . S
C397 H411 0.950 . S
C398 C395 1.481 . S
C398 C399 1.297 . S
C398 H412 0.950 . S
C399 C398 1.297 . S
C399 C400 1.479 . S
C399 H413 0.950 . S
C400 C399 1.479 . S
C400 C401 1.375 . S
C400 C406 1.404 . S
C401 C400 1.375 . S
C401 C402 1.369 . S
C401 H414 0.950 . S
C402 C401 1.369 . S
C402 C403 1.392 . S
C402 H415 0.951 . S
C403 C402 1.392 . S
C403 C405 1.384 . S
H404 C406 0.949 1_556 S
C405 C403 1.384 . S
C405 C406 1.385 . S
C405 H407 0.950 . S
C406 C400 1.404 . S
C406 H404 0.949 1_554 S
C406 C405 1.385 . S
H407 C405 0.950 . S
H408 C392 0.951 . S
H409 C394 0.951 . S
H410 C396 0.962 . S
H411 C397 0.950 . S
H412 C398 0.950 . S
H413 C399 0.950 . S
H414 C401 0.950 . S
H415 C402 0.951 . S
C416 C417 1.386 . S
C416 C418 1.383 . S
C416 H432 0.951 . S
C417 C416 1.386 . S
C417 C421 1.383 . S
C418 C416 1.383 . S
C418 C419 1.402 . S
C418 H433 0.951 . S
C419 C418 1.402 . S
C419 C420 1.375 . S
C419 C422 1.481 . S
C420 C419 1.375 . S
C420 C421 1.367 . S
C420 H434 0.951 . S
C421 C417 1.383 . S
C421 C420 1.367 . S
C421 H435 0.950 . S
C422 C419 1.481 . S
C422 C423 1.297 . S
C422 H436 0.950 . S
C423 C422 1.297 . S
C423 C424 1.479 . S
C423 H437 0.950 . S
C424 C423 1.479 . S
C424 C425 1.375 . S
C424 C430 1.404 . S
C425 C424 1.375 . S
C425 C426 1.369 . S
C425 H438 0.950 . S
C426 C425 1.369 . S
C426 C427 1.392 . S
C426 H439 0.951 . S
C427 C426 1.392 . S
C427 C429 1.384 . S
H428 C430 0.949 . S
C429 C427 1.384 . S
C429 C430 1.385 . S
C429 H431 0.950 . S
C430 C424 1.404 . S
C430 H428 0.949 . S
C430 C429 1.385 . S
H431 C429 0.950 . S
H432 C416 0.951 . S
H433 C418 0.951 . S
H434 C420 0.951 . S
H435 C421 0.950 . S
H436 C422 0.950 . S
H437 C423 0.950 . S
H438 C425 0.950 . S
H439 C426 0.951 . S
C440 C441 1.386 . S
C440 C442 1.383 . S
C440 H456 0.951 . S
C441 C440 1.386 . S
C441 C445 1.383 . S
C442 C440 1.383 . S
C442 C443 1.402 . S
C442 H457 0.951 . S
C443 C442 1.402 . S
C443 C444 1.375 . S
C443 C446 1.481 . S
C444 C443 1.375 . S
C444 C445 1.367 . S
C444 H458 0.951 . S
C445 C441 1.383 . S
C445 C444 1.367 . S
C445 H459 0.950 . S
C446 C443 1.481 . S
C446 C447 1.297 . S
C446 H460 0.950 . S
C447 C446 1.297 . S
C447 C448 1.479 . S
C447 H461 0.950 . S
C448 C447 1.479 . S
C448 C449 1.375 . S
C448 C454 1.404 . S
C449 C448 1.375 . S
C449 C450 1.369 . S
C449 H462 0.950 . S
C450 C449 1.369 . S
C450 C451 1.392 . S
C450 H463 0.951 . S
C451 C450 1.392 . S
C451 C453 1.384 . S
H452 C454 0.949 . S
C453 C451 1.384 . S
C453 C454 1.385 . S
C453 H455 0.950 . S
C454 C448 1.404 . S
C454 H452 0.949 . S
C454 C453 1.385 . S
H455 C453 0.950 . S
H456 C440 0.951 . S
H457 C442 0.951 . S
H458 C444 0.951 . S
H459 C445 0.950 . S
H460 C446 0.950 . S
H461 C447 0.950 . S
H462 C449 0.950 . S
H463 C450 0.951 . S
C464 C465 1.386 . S
C464 C466 1.383 . S
C464 H480 0.951 . S
C465 C464 1.386 . S
C465 C469 1.383 . S
C466 C464 1.383 . S
C466 C467 1.402 . S
C466 H481 0.951 . S
C467 C466 1.402 . S
C467 C468 1.375 . S
C467 C470 1.481 . S
C468 C467 1.375 . S
C468 C469 1.367 . S
C468 H482 0.951 . S
C469 C465 1.383 . S
C469 C468 1.367 . S
C469 H483 0.950 . S
C470 C467 1.481 . S
C470 C471 1.297 . S
C470 H484 0.950 . S
C471 C470 1.297 . S
C471 C472 1.479 . S
C471 H485 0.950 . S
C472 C471 1.479 . S
C472 C473 1.375 . S
C472 C478 1.404 . S
C473 C472 1.375 . S
C473 C474 1.369 . S
C473 H486 0.950 . S
C474 C473 1.369 . S
C474 C475 1.392 . S
C474 H487 0.951 . S
C475 C474 1.392 . S
C475 C477 1.384 . S
H476 C478 0.949 . S
C477 C475 1.384 . S
C477 C478 1.385 . S
C477 H479 0.950 . S
C478 C472 1.404 . S
C478 H476 0.949 . S
C478 C477 1.385 . S
H479 C477 0.950 . S
H480 C464 0.951 . S
H481 C466 0.951 . S
H482 C468 0.951 . S
H483 C469 0.950 . S
H484 C470 0.950 . S
H485 C471 0.950 . S
H486 C473 0.950 . S
H487 C474 0.951 . S
C105 C16 1.521 . S
C115 C5 1.515 . S
C129 C31 1.514 . S
C139 C44 1.512 . S
C153 C55 1.521 . S
C163 C70 1.516 . S
C177 C81 1.520 . S
C187 C94 1.512 . S
C201 C10 1.327 . S
C211 C49 1.333 . S
C225 C36 1.297 . S
C235 C17 1.270 . S
C249 C29 1.275 . S
C259 C18 1.263 . S
C273 C3 1.271 . S
C283 C42 1.268 . S
C297 C56 1.295 . S
C307 C95 1.269 . S
C321 C82 1.292 . S
C331 C75 1.267 . S
C345 C68 1.262 . S
C355 C83 1.302 . S
C369 C57 1.264 . S
C379 C96 1.299 . S
C393 C69 1.517 . S
C403 C4 1.509 . S
C417 C62 1.519 . S
C427 C23 1.513 . S
C441 C30 1.520 . S
C451 C101 1.507 . S
C465 C88 1.521 . S
C475 C43 1.510 . S
