# Generated by pormake.
# Topology ukh, (4)-cn, num edge types: 1
# Building blocks:
#     Node 0, Type 0, BuildingBlock: KUFVIS_clean_sbu_0, # of connection points: 4
#     Node 1, Type 0, BuildingBlock: KUFVIS_clean_sbu_0, # of connection points: 4
#     Node 2, Type 0, BuildingBlock: KUFVIS_clean_sbu_0, # of connection points: 4
#     Node 3, Type 0, BuildingBlock: KUFVIS_clean_sbu_0, # of connection points: 4
#     Node 4, Type 0, BuildingBlock: KUFVIS_clean_sbu_0, # of connection points: 4
#     Node 5, Type 0, BuildingBlock: KUFVIS_clean_sbu_0, # of connection points: 4
#     Node 6, Type 0, BuildingBlock: KUFVIS_clean_sbu_0, # of connection points: 4
#     Node 7, Type 0, BuildingBlock: KUFVIS_clean_sbu_0, # of connection points: 4
#     Node 8, Type 0, BuildingBlock: KUFVIS_clean_sbu_0, # of connection points: 4
#     Node 9, Type 0, BuildingBlock: KUFVIS_clean_sbu_0, # of connection points: 4
#     Node 10, Type 0, BuildingBlock: KUFVIS_clean_sbu_0, # of connection points: 4
#     Node 11, Type 0, BuildingBlock: KUFVIS_clean_sbu_0, # of connection points: 4
#     Edge 12, Type (0, 0), BuildingBlock: XIVTED_clean_linker_0, # of connection points: 2
#     Edge 13, Type (0, 0), BuildingBlock: XIVTED_clean_linker_0, # of connection points: 2
#     Edge 14, Type (0, 0), BuildingBlock: XIVTED_clean_linker_0, # of connection points: 2
#     Edge 15, Type (0, 0), BuildingBlock: XIVTED_clean_linker_0, # of connection points: 2
#     Edge 16, Type (0, 0), BuildingBlock: XIVTED_clean_linker_0, # of connection points: 2
#     Edge 17, Type (0, 0), BuildingBlock: XIVTED_clean_linker_0, # of connection points: 2
#     Edge 18, Type (0, 0), BuildingBlock: XIVTED_clean_linker_0, # of connection points: 2
#     Edge 19, Type (0, 0), BuildingBlock: XIVTED_clean_linker_0, # of connection points: 2
#     Edge 20, Type (0, 0), BuildingBlock: XIVTED_clean_linker_0, # of connection points: 2
#     Edge 21, Type (0, 0), BuildingBlock: XIVTED_clean_linker_0, # of connection points: 2
#     Edge 22, Type (0, 0), BuildingBlock: XIVTED_clean_linker_0, # of connection points: 2
#     Edge 23, Type (0, 0), BuildingBlock: XIVTED_clean_linker_0, # of connection points: 2
#     Edge 24, Type (0, 0), BuildingBlock: XIVTED_clean_linker_0, # of connection points: 2
#     Edge 25, Type (0, 0), BuildingBlock: XIVTED_clean_linker_0, # of connection points: 2
#     Edge 26, Type (0, 0), BuildingBlock: XIVTED_clean_linker_0, # of connection points: 2
#     Edge 27, Type (0, 0), BuildingBlock: XIVTED_clean_linker_0, # of connection points: 2
#     Edge 28, Type (0, 0), BuildingBlock: XIVTED_clean_linker_0, # of connection points: 2
#     Edge 29, Type (0, 0), BuildingBlock: XIVTED_clean_linker_0, # of connection points: 2
#     Edge 30, Type (0, 0), BuildingBlock: XIVTED_clean_linker_0, # of connection points: 2
#     Edge 31, Type (0, 0), BuildingBlock: XIVTED_clean_linker_0, # of connection points: 2
#     Edge 32, Type (0, 0), BuildingBlock: XIVTED_clean_linker_0, # of connection points: 2
#     Edge 33, Type (0, 0), BuildingBlock: XIVTED_clean_linker_0, # of connection points: 2
#     Edge 34, Type (0, 0), BuildingBlock: XIVTED_clean_linker_0, # of connection points: 2
#     Edge 35, Type (0, 0), BuildingBlock: XIVTED_clean_linker_0, # of connection points: 2
# Relax obj value: 0.085
# Max RMSD: 0.125
# Mean RMSD: 0.125
data_MOF--net-ukh--node1-KUFVIS_clean_sbu_0--edge1-XIVTED_clean_linker_0
_symmetry_space_group_name_H-M    P1
_symmetry_Int_Tables_number       1
_symmetry_cell_setting            triclinic
loop_
_symmetry_equiv_pos_as_xyz
'x, y, z'
_cell_length_a     32.53197
_cell_length_b     32.533045
_cell_length_c     61.154248
_cell_angle_alpha  89.987988
_cell_angle_beta   90.003566
_cell_angle_gamma 119.95939
loop_
_atom_site_label
_atom_site_type_symbol
_atom_site_fract_x
_atom_site_fract_y
_atom_site_fract_z
_atom_type_partial_charge
Mn0 Mn 0.31964 0.22671 0.04763 0.0
Mn1 Mn 0.2742 0.27636 0.0812 0.0
C2 C 0.26215 0.24256 0.03494 0.0
C3 C 0.31514 0.15659 0.03508 0.0
C4 C 0.37131 0.33178 0.05989 0.0
O5 O 0.34094 0.21856 0.07791 0.0
O6 O 0.30194 0.2451 0.09884 0.0
C7 C 0.19545 0.18832 0.09997 0.0
N8 N 0.21084 0.22989 0.08899 0.0
C9 C 0.13121 0.21602 0.08561 0.0
C10 C 0.11451 0.17319 0.09701 0.0
C11 C 0.14677 0.15923 0.10417 0.0
C12 C 0.18008 0.24346 0.08187 0.0
H13 H 0.22016 0.17744 0.10543 0.0
C14 C 0.32823 0.22642 0.09647 0.0
O15 O 0.35395 0.19721 0.03287 0.0
O16 O 0.27991 0.15684 0.04472 0.0
N17 N 0.24607 0.30802 0.06637 0.0
C18 C 0.26794 0.35012 0.05542 0.0
C19 C 0.24073 0.36928 0.04726 0.0
C20 C 0.19145 0.34522 0.05063 0.0
C21 C 0.16979 0.30221 0.06217 0.0
C22 C 0.19881 0.28514 0.07013 0.0
H23 H 0.30586 0.369 0.05294 0.0
O24 O 0.28845 0.23555 0.02125 0.0
O25 O 0.26952 0.23884 0.0555 0.0
O26 O 0.36924 0.29837 0.04798 0.0
O27 O 0.33877 0.32628 0.0733 0.0
C28 C 0.12056 0.27554 0.06602 0.0
C29 C 0.10125 0.23233 0.07762 0.0
H30 H 0.07698 0.15063 0.10026 0.0
H31 H 0.13412 0.12611 0.11289 0.0
H32 H 0.25771 0.40255 0.03843 0.0
H33 H 0.17064 0.36018 0.04433 0.0
H34 H 0.09718 0.28772 0.05998 0.0
H35 H 0.06329 0.21189 0.08027 0.0
Mn36 Mn 0.09821 0.31641 0.37919 0.0
Mn37 Mn 0.99757 0.27276 0.40916 0.0
C38 C 0.02774 0.25617 0.36533 0.0
C39 C 0.16614 0.31315 0.36935 0.0
C40 C 0.03882 0.3655 0.38419 0.0
O41 O 0.12339 0.34043 0.40968 0.0
O42 O 0.05429 0.30805 0.42814 0.0
C43 C 0.00993 0.20358 0.43572 0.0
N44 N 0.98317 0.21344 0.4219 0.0
C45 C 0.91796 0.13338 0.4243 0.0
C46 C 0.94471 0.12239 0.43867 0.0
C47 C 0.99098 0.1576 0.44431 0.0
C48 C 0.93878 0.17975 0.41622 0.0
H49 H 0.04539 0.23063 0.4402 0.0
C50 C 0.09967 0.33241 0.42732 0.0
O51 O 0.16342 0.35115 0.36589 0.0
O52 O 0.13042 0.27817 0.37901 0.0
N53 N 0.9395 0.23726 0.39335 0.0
C54 C 0.92011 0.25253 0.37785 0.0
C55 C 0.87429 0.22138 0.37001 0.0
C56 C 0.84877 0.175 0.3783 0.0
C57 C 0.86973 0.15982 0.39401 0.0
C58 C 0.91541 0.19255 0.40128 0.0
H59 H 0.93968 0.28801 0.37135 0.0
O60 O 0.06252 0.28302 0.35242 0.0
O61 O 0.03511 0.26489 0.38617 0.0
O62 O 0.07535 0.36539 0.37642 0.0
O63 O 0.00835 0.33278 0.39648 0.0
C64 C 0.84747 0.11332 0.40248 0.0
C65 C 0.87168 0.10002 0.4175 0.0
H66 H 0.93021 0.08697 0.44534 0.0
H67 H 0.0119 0.14935 0.45533 0.0
H68 H 0.85863 0.23312 0.35765 0.0
H69 H 0.81334 0.15121 0.37227 0.0
H70 H 0.812 0.08727 0.3973 0.0
H71 H 0.8545 0.06395 0.42359 0.0
Mn72 Mn 0.77413 0.09138 0.71326 0.0
Mn73 Mn 0.72219 0.99114 0.74355 0.0
C74 C 0.7573 0.02002 0.69777 0.0
C75 C 0.84502 0.15816 0.70215 0.0
C76 C 0.66874 0.03773 0.72504 0.0
O77 O 0.78215 0.11586 0.74455 0.0
O78 O 0.75373 0.04704 0.76312 0.0
C79 C 0.80899 0.99581 0.76137 0.0
N80 N 0.76774 0.97207 0.7499 0.0
C81 C 0.78054 0.90631 0.74357 0.0
C82 C 0.82302 0.92992 0.75544 0.0
C83 C 0.83735 0.97492 0.76433 0.0
C84 C 0.75379 0.92893 0.74114 0.0
H85 H 0.82016 0.03046 0.76817 0.0
C86 C 0.77338 0.09232 0.76234 0.0
O87 O 0.80475 0.15741 0.70077 0.0
O88 O 0.84398 0.12094 0.71027 0.0
N89 N 0.6902 0.93393 0.72677 0.0
C90 C 0.6484 0.91603 0.71567 0.0
C91 C 0.62907 0.8712 0.70577 0.0
C92 C 0.65261 0.84504 0.70759 0.0
C93 C 0.69511 0.86381 0.71944 0.0
C94 C 0.71243 0.90848 0.72911 0.0
H95 H 0.63 0.93583 0.71432 0.0
O96 O 0.7651 0.05559 0.68543 0.0
O97 O 0.76071 0.0277 0.71869 0.0
O98 O 0.70279 0.07056 0.71399 0.0
O99 O 0.67312 0.00804 0.73711 0.0
C100 C 0.72113 0.84012 0.7219 0.0
C101 C 0.76393 0.86145 0.73387 0.0
H102 H 0.84502 0.91395 0.75773 0.0
H103 H 0.87019 0.99345 0.77343 0.0
H104 H 0.59617 0.85688 0.69672 0.0
H105 H 0.63782 0.81067 0.69976 0.0
H106 H 0.70873 0.80564 0.71452 0.0
H107 H 0.78385 0.84308 0.73547 0.0
Mn108 Mn 0.68003 0.77623 0.04684 0.0
Mn109 Mn 0.73182 0.72906 0.07804 0.0
C110 C 0.73679 0.76206 0.03188 0.0
C111 C 0.68134 0.84549 0.03527 0.0
C112 C 0.63259 0.67116 0.05907 0.0
O113 O 0.66173 0.78365 0.07784 0.0
O114 O 0.70408 0.75836 0.09701 0.0
C115 C 0.8103 0.81869 0.0957 0.0
N116 N 0.79526 0.77733 0.08459 0.0
C117 C 0.87553 0.79459 0.07893 0.0
C118 C 0.8919 0.83723 0.09045 0.0
C119 C 0.85913 0.84938 0.09882 0.0
C120 C 0.82648 0.7655 0.0763 0.0
H121 H 0.78521 0.82819 0.10208 0.0
C122 C 0.67658 0.77588 0.09582 0.0
O123 O 0.64282 0.80441 0.03372 0.0
O124 O 0.71805 0.84616 0.04375 0.0
N125 N 0.7603 0.69916 0.06203 0.0
C126 C 0.73864 0.65655 0.05149 0.0
C127 C 0.7664 0.63897 0.04231 0.0
C128 C 0.81603 0.66507 0.04428 0.0
C129 C 0.83744 0.7083 0.05561 0.0
C130 C 0.80793 0.72377 0.06462 0.0
H131 H 0.7005 0.63616 0.05006 0.0
O132 O 0.70831 0.76826 0.01929 0.0
O133 O 0.73209 0.76574 0.05275 0.0
O134 O 0.63194 0.70411 0.04781 0.0
O135 O 0.66724 0.67758 0.07129 0.0
C136 C 0.88692 0.73677 0.05825 0.0
C137 C 0.90596 0.78 0.0698 0.0
H138 H 0.92953 0.86101 0.09288 0.0
H139 H 0.8715 0.88233 0.10764 0.0
H140 H 0.74959 0.60545 0.03368 0.0
H141 H 0.83735 0.65162 0.037 0.0
H142 H 0.91066 0.7259 0.05133 0.0
H143 H 0.94407 0.80177 0.07156 0.0
Mn144 Mn 0.91366 0.68092 0.38067 0.0
Mn145 Mn 0.01574 0.73148 0.40973 0.0
C146 C 0.98244 0.7405 0.36545 0.0
C147 C 0.84433 0.68119 0.37054 0.0
C148 C 0.97608 0.63567 0.38748 0.0
O149 O 0.89054 0.66023 0.41178 0.0
O150 O 0.96037 0.6981 0.42968 0.0
C151 C 0.00176 0.80329 0.43309 0.0
N152 N 0.0285 0.79238 0.41977 0.0
C153 C 0.08899 0.87453 0.41695 0.0
C154 C 0.06225 0.88661 0.43076 0.0
C155 C 0.01839 0.85083 0.43881 0.0
C156 C 0.07061 0.82655 0.41182 0.0
H157 H 0.96799 0.77592 0.43929 0.0
C158 C 0.91508 0.67198 0.42933 0.0
O159 O 0.84788 0.64335 0.36812 0.0
O160 O 0.87992 0.71756 0.37948 0.0
N161 N 0.07246 0.7656 0.39275 0.0
C162 C 0.09312 0.74828 0.37898 0.0
C163 C 0.13706 0.77955 0.36935 0.0
C164 C 0.1595 0.82823 0.37411 0.0
C165 C 0.13779 0.84521 0.38847 0.0
C166 C 0.09417 0.8123 0.39772 0.0
H167 H 0.076 0.71097 0.37516 0.0
O168 O 0.94754 0.71181 0.35304 0.0
O169 O 0.97596 0.73394 0.3864 0.0
O170 O 0.93898 0.6339 0.37923 0.0
O171 O 0.00595 0.66994 0.39936 0.0
C172 C 0.15737 0.8936 0.39372 0.0
C173 C 0.13289 0.90826 0.40788 0.0
H174 H 0.0749 0.92325 0.43518 0.0
H175 H 0.99744 0.8599 0.4494 0.0
H176 H 0.15351 0.76619 0.35822 0.0
H177 H 0.19324 0.85226 0.36654 0.0
H178 H 0.19094 0.91989 0.38675 0.0
H179 H 0.14801 0.94563 0.41157 0.0
Mn180 Mn 0.22699 0.9133 0.71357 0.0
Mn181 Mn 0.2764 0.01328 0.74398 0.0
C182 C 0.23999 0.98372 0.69846 0.0
C183 C 0.15697 0.84516 0.70286 0.0
C184 C 0.33273 0.97064 0.72445 0.0
O185 O 0.22128 0.88878 0.74471 0.0
O186 O 0.24791 0.95709 0.7635 0.0
C187 C 0.18855 0.00404 0.76302 0.0
N188 N 0.22906 0.02942 0.7512 0.0
C189 C 0.21233 0.09288 0.74577 0.0
C190 C 0.17058 0.06756 0.75801 0.0
C191 C 0.15858 0.02289 0.76662 0.0
C192 C 0.24077 0.07227 0.74271 0.0
H193 H 0.17916 0.96963 0.7696 0.0
C194 C 0.22994 0.91198 0.76258 0.0
O195 O 0.1979 0.84751 0.70084 0.0
O196 O 0.15689 0.8815 0.71134 0.0
N197 N 0.30531 0.07068 0.72723 0.0
C198 C 0.34632 0.09008 0.71543 0.0
C199 C 0.3631 0.13462 0.70553 0.0
C200 C 0.33787 0.15896 0.70806 0.0
C201 C 0.29624 0.13867 0.72061 0.0
C202 C 0.28142 0.09435 0.73021 0.0
H203 H 0.36599 0.07166 0.71352 0.0
O204 O 0.23337 0.94882 0.68592 0.0
O205 O 0.23777 0.9759 0.71935 0.0
O206 O 0.29902 0.93689 0.71362 0.0
O207 O 0.3272 0.99944 0.73665 0.0
C208 C 0.26858 0.16045 0.72377 0.0
C209 C 0.22654 0.13747 0.73626 0.0
H210 H 0.14732 0.08193 0.76079 0.0
H211 H 0.1263 0.00303 0.776 0.0
H212 H 0.39535 0.15011 0.69594 0.0
H213 H 0.3507 0.1931 0.70024 0.0
H214 H 0.27904 0.19464 0.71649 0.0
H215 H 0.20528 0.1543 0.73835 0.0
Mn216 Mn 0.77564 0.68333 0.6212 0.0
Mn217 Mn 0.72499 0.72933 0.58859 0.0
C218 C 0.75888 0.73959 0.63478 0.0
C219 C 0.84627 0.68813 0.63325 0.0
C220 C 0.6706 0.63116 0.60893 0.0
O221 O 0.78399 0.66367 0.59057 0.0
O222 O 0.75694 0.70323 0.57035 0.0
C223 C 0.81252 0.80983 0.57039 0.0
N224 N 0.7708 0.79331 0.58138 0.0
C225 C 0.78324 0.87226 0.58561 0.0
C226 C 0.82621 0.89012 0.57421 0.0
C227 C 0.84097 0.85877 0.56663 0.0
C228 C 0.75649 0.82319 0.58893 0.0
H229 H 0.82398 0.78581 0.56459 0.0
C230 C 0.77597 0.67717 0.57223 0.0
O231 O 0.8059 0.64896 0.63526 0.0
O232 O 0.84547 0.72357 0.62412 0.0
N233 N 0.69257 0.75594 0.60399 0.0
C234 C 0.65046 0.73299 0.6149 0.0
C235 C 0.63054 0.75919 0.62344 0.0
C236 C 0.65382 0.80857 0.62049 0.0
C237 C 0.69687 0.83135 0.609 0.0
C238 C 0.71475 0.80332 0.60066 0.0
H239 H 0.63214 0.69498 0.61704 0.0
O240 O 0.76642 0.713 0.64806 0.0
O241 O 0.76268 0.73326 0.6141 0.0
O242 O 0.70414 0.63314 0.62071 0.0
O243 O 0.6757 0.66409 0.59588 0.0
C244 C 0.7228 0.88077 0.60554 0.0
C245 C 0.76611 0.90124 0.59398 0.0
H246 H 0.84827 0.92784 0.57128 0.0
H247 H 0.8742 0.8723 0.55791 0.0
H248 H 0.59724 0.74135 0.63223 0.0
H249 H 0.63821 0.82857 0.62705 0.0
H250 H 0.70996 0.9034 0.61185 0.0
H251 H 0.786 0.93932 0.59165 0.0
Mn252 Mn 0.08845 0.77329 0.9554 0.0
Mn253 Mn 0.99077 0.72223 0.92349 0.0
C254 C 0.01611 0.75764 0.96936 0.0
C255 C 0.15491 0.84383 0.96695 0.0
C256 C 0.03482 0.66793 0.94376 0.0
O257 O 0.11535 0.78064 0.9246 0.0
O258 O 0.04815 0.75333 0.90484 0.0
C259 C 0.99765 0.80939 0.90483 0.0
N260 N 0.9727 0.7681 0.91616 0.0
C261 C 0.9066 0.78114 0.9206 0.0
C262 C 0.93146 0.82367 0.90885 0.0
C263 C 0.97725 0.83792 0.90099 0.0
C264 C 0.92884 0.7543 0.92398 0.0
H265 H 0.03289 0.82045 0.8988 0.0
C266 C 0.09326 0.77227 0.90642 0.0
O267 O 0.15338 0.80329 0.96902 0.0
O268 O 0.11862 0.84326 0.958 0.0
N269 N 0.93233 0.69069 0.93936 0.0
C270 C 0.91342 0.64902 0.95063 0.0
C271 C 0.86765 0.62966 0.95949 0.0
C272 C 0.84162 0.65304 0.9565 0.0
C273 C 0.86163 0.69565 0.94467 0.0
C274 C 0.90721 0.71299 0.93604 0.0
H275 H 0.93305 0.63062 0.95279 0.0
O276 O 0.05048 0.76511 0.98247 0.0
O277 O 0.02558 0.7607 0.94863 0.0
O278 O 0.0668 0.70176 0.95522 0.0
O279 O 0.00657 0.67281 0.93088 0.0
C280 C 0.83822 0.72165 0.94114 0.0
C281 C 0.86081 0.76453 0.92925 0.0
H282 H 0.91584 0.84578 0.90586 0.0
H283 H 0.99674 0.87079 0.892 0.0
H284 H 0.85239 0.5967 0.96855 0.0
H285 H 0.80627 0.63785 0.9633 0.0
H286 H 0.80297 0.7092 0.94765 0.0
H287 H 0.84268 0.78449 0.92687 0.0
Mn288 Mn 0.32248 0.09009 0.28811 0.0
Mn289 Mn 0.27397 0.98889 0.25842 0.0
C290 C 0.26243 0.0207 0.30264 0.0
C291 C 0.32133 0.15894 0.29832 0.0
C292 C 0.36873 0.02849 0.28167 0.0
O293 O 0.34465 0.11418 0.25727 0.0
O294 O 0.30807 0.0449 0.23889 0.0
C295 C 0.20302 0.00294 0.23429 0.0
N296 N 0.21347 0.97603 0.24774 0.0
C297 C 0.13132 0.91516 0.24969 0.0
C298 C 0.11972 0.94208 0.23575 0.0
C299 C 0.15572 0.98622 0.22807 0.0
C300 C 0.17907 0.93364 0.25533 0.0
H301 H 0.23055 0.03692 0.22839 0.0
C302 C 0.33394 0.09021 0.23957 0.0
O303 O 0.35916 0.15553 0.30109 0.0
O304 O 0.28547 0.12349 0.289 0.0
N305 N 0.23927 0.93164 0.275 0.0
C306 C 0.25609 0.9108 0.28896 0.0
C307 C 0.22451 0.86661 0.29829 0.0
C308 C 0.17605 0.84411 0.29305 0.0
C309 C 0.1596 0.86599 0.27849 0.0
C310 C 0.19281 0.90986 0.26956 0.0
H311 H 0.29321 0.92799 0.29316 0.0
O312 O 0.29035 0.05531 0.31537 0.0
O313 O 0.27001 0.02782 0.28176 0.0
O314 O 0.36976 0.06518 0.28997 0.0
O315 O 0.33514 0.99877 0.26943 0.0
C316 C 0.11145 0.84636 0.27277 0.0
C317 C 0.0973 0.871 0.25844 0.0
H318 H 0.08327 0.92937 0.23095 0.0
H319 H 0.14702 0.0073 0.21738 0.0
H320 H 0.23746 0.85003 0.30957 0.0
H321 H 0.15175 0.81021 0.30042 0.0
H322 H 0.08493 0.8126 0.2795 0.0
H323 H 0.0601 0.85581 0.25437 0.0
Mn324 Mn 0.22553 0.32215 0.62145 0.0
Mn325 Mn 0.27408 0.27206 0.59007 0.0
C326 C 0.2386 0.26417 0.63583 0.0
C327 C 0.15576 0.32008 0.6328 0.0
C328 C 0.33112 0.37027 0.61019 0.0
O329 O 0.21932 0.34201 0.59057 0.0
O330 O 0.24568 0.30084 0.57114 0.0
C331 C 0.18578 0.19455 0.57087 0.0
N332 N 0.22639 0.20901 0.58253 0.0
C333 C 0.20925 0.12852 0.58719 0.0
C334 C 0.16738 0.11277 0.5751 0.0
C335 C 0.15555 0.14594 0.56696 0.0
C336 C 0.23796 0.17739 0.59056 0.0
H337 H 0.17653 0.21996 0.56465 0.0
C338 C 0.2279 0.32811 0.57249 0.0
O339 O 0.19673 0.35854 0.63489 0.0
O340 O 0.15548 0.28395 0.62389 0.0
N341 N 0.30298 0.2427 0.6062 0.0
C342 C 0.34425 0.26368 0.61781 0.0
C343 C 0.36096 0.23539 0.62722 0.0
C344 C 0.33539 0.18594 0.62439 0.0
C345 C 0.29351 0.16525 0.61202 0.0
C346 C 0.27879 0.19528 0.6029 0.0
H347 H 0.36418 0.30168 0.61995 0.0
O348 O 0.23229 0.29214 0.64872 0.0
O349 O 0.23598 0.27031 0.61503 0.0
O350 O 0.29769 0.37037 0.62127 0.0
O351 O 0.32516 0.33618 0.59771 0.0
C352 C 0.26552 0.11598 0.60857 0.0
C353 C 0.22332 0.09761 0.59624 0.0
H354 H 0.14392 0.0753 0.57209 0.0
H355 H 0.12319 0.13404 0.55771 0.0
H356 H 0.39341 0.25165 0.63668 0.0
H357 H 0.34816 0.16421 0.63184 0.0
H358 H 0.27587 0.09186 0.61551 0.0
H359 H 0.20183 0.05963 0.59391 0.0
Mn360 Mn 0.90953 0.22632 0.95669 0.0
Mn361 Mn 0.01036 0.27509 0.92684 0.0
C362 C 0.97982 0.24125 0.9727 0.0
C363 C 0.84129 0.15665 0.96758 0.0
C364 C 0.96618 0.33144 0.94462 0.0
O365 O 0.88584 0.21872 0.92529 0.0
O366 O 0.9547 0.2447 0.90706 0.0
C367 C 0.00276 0.18651 0.9097 0.0
N368 N 0.02748 0.22791 0.92097 0.0
C369 C 0.09157 0.21275 0.92774 0.0
C370 C 0.06695 0.17008 0.91609 0.0
C371 C 0.02229 0.15685 0.90708 0.0
C372 C 0.07027 0.24078 0.92986 0.0
H373 H 0.96837 0.17619 0.90282 0.0
C374 C 0.90956 0.22648 0.90763 0.0
O375 O 0.84332 0.19753 0.96884 0.0
O376 O 0.87809 0.15638 0.95979 0.0
N377 N 0.06746 0.30592 0.94375 0.0
C378 C 0.08651 0.34814 0.95457 0.0
C379 C 0.13123 0.36654 0.96449 0.0
C380 C 0.15612 0.34167 0.96298 0.0
C381 C 0.13621 0.29877 0.9514 0.0
C382 C 0.09172 0.2824 0.94169 0.0
H383 H 0.06771 0.36759 0.95565 0.0
O384 O 0.94427 0.23457 0.98478 0.0
O385 O 0.97269 0.23772 0.95174 0.0
O386 O 0.9325 0.29815 0.95566 0.0
O387 O 0.9954 0.32569 0.93284 0.0
C388 C 0.15862 0.27146 0.94923 0.0
C389 C 0.1362 0.22835 0.93751 0.0
H390 H 0.08188 0.14709 0.91404 0.0
H391 H 0.00297 0.12387 0.89815 0.0
H392 H 0.14644 0.39976 0.97332 0.0
H393 H 0.19042 0.35576 0.97081 0.0
H394 H 0.19294 0.2831 0.95664 0.0
H395 H 0.15358 0.20744 0.93614 0.0
Mn396 Mn 0.68578 0.90293 0.28945 0.0
Mn397 Mn 0.7287 0.00383 0.2597 0.0
C398 C 0.74567 0.97349 0.30342 0.0
C399 C 0.68952 0.8352 0.29916 0.0
C400 C 0.63589 0.9616 0.28465 0.0
O401 O 0.66195 0.87797 0.25892 0.0
O402 O 0.69386 0.94726 0.24061 0.0
C403 C 0.79839 0.99255 0.23302 0.0
N404 N 0.78819 0.01891 0.24694 0.0
C405 C 0.86798 0.08465 0.24461 0.0
C406 C 0.87931 0.05833 0.23014 0.0
C407 C 0.84441 0.01199 0.22441 0.0
C408 C 0.82158 0.06335 0.2527 0.0
H409 H 0.77157 0.95704 0.22847 0.0
C410 C 0.66984 0.90186 0.24133 0.0
O411 O 0.65135 0.83761 0.30262 0.0
O412 O 0.72441 0.87112 0.28956 0.0
N413 N 0.76377 0.06178 0.27564 0.0
C414 C 0.74819 0.08075 0.2912 0.0
C415 C 0.77902 0.12656 0.29914 0.0
C416 C 0.8254 0.1525 0.29088 0.0
C417 C 0.84088 0.132 0.27508 0.0
C418 C 0.80847 0.08629 0.26772 0.0
H419 H 0.71268 0.06088 0.29765 0.0
O420 O 0.71899 0.93851 0.31628 0.0
O421 O 0.73698 0.96628 0.28257 0.0
O422 O 0.6364 0.9252 0.29233 0.0
O423 O 0.66847 0.99236 0.2724 0.0
C424 C 0.88738 0.15474 0.26661 0.0
C425 C 0.90101 0.13097 0.25149 0.0
H426 H 0.91475 0.07321 0.22346 0.0
H427 H 0.85292 0.9914 0.21332 0.0
H428 H 0.76705 0.14189 0.31155 0.0
H429 H 0.84894 0.18793 0.29698 0.0
H430 H 0.91318 0.19025 0.27184 0.0
H431 H 0.93709 0.14852 0.2454 0.0
H432 H 0.59795 0.60994 0.09292 0.0
H433 H 0.42435 0.38009 0.02368 0.0
H434 H 0.57541 0.62088 0.02417 0.0
H435 H 0.41146 0.39404 0.09311 0.0
H436 H 0.48731 0.46437 0.02238 0.0
H437 H 0.53633 0.52686 0.09222 0.0
C438 C 0.57966 0.59481 0.07766 0.0
C439 C 0.59158 0.62237 0.0586 0.0
C440 C 0.47065 0.44868 0.03784 0.0
C441 C 0.52124 0.5266 0.05757 0.0
C442 C 0.43526 0.40064 0.03864 0.0
C443 C 0.41286 0.38016 0.05855 0.0
C444 C 0.48401 0.47574 0.05717 0.0
C445 C 0.42771 0.40842 0.07741 0.0
C446 C 0.54448 0.54733 0.07726 0.0
C447 C 0.56678 0.60089 0.03927 0.0
N448 N 0.46233 0.45453 0.07626 0.0
N449 N 0.53291 0.55395 0.03918 0.0
H450 H 0.95368 0.36241 0.3826 0.0
H451 H 0.06051 0.6376 0.39276 0.0
H452 H 0.10389 0.45934 0.37542 0.0
H453 H 0.91577 0.54509 0.37223 0.0
H454 H 0.07713 0.57326 0.38723 0.0
H455 H 0.93903 0.42835 0.37916 0.0
C456 C 0.98368 0.39752 0.37996 0.0
C457 C 0.03022 0.40523 0.37931 0.0
C458 C 0.04189 0.56717 0.38368 0.0
C459 C 0.01345 0.48147 0.37592 0.0
C460 C 0.03215 0.60385 0.38694 0.0
C461 C 0.98643 0.59684 0.38306 0.0
C462 C 0.00551 0.52259 0.37693 0.0
C463 C 0.95143 0.55218 0.37549 0.0
C464 C 0.97515 0.43523 0.37799 0.0
C465 C 0.06749 0.45173 0.37596 0.0
N466 N 0.96153 0.51654 0.37296 0.0
N467 N 0.05837 0.48829 0.37477 0.0
H468 H 0.37857 0.95619 0.68972 0.0
H469 H 0.60943 0.01942 0.75914 0.0
H470 H 0.3979 0.00268 0.7569 0.0
H471 H 0.61906 0.04222 0.68943 0.0
H472 H 0.52733 0.00196 0.75819 0.0
H473 H 0.46231 0.97555 0.68875 0.0
C474 C 0.40021 0.96992 0.70427 0.0
C475 C 0.38133 0.9778 0.72343 0.0
C476 C 0.54738 0.01112 0.74309 0.0
C477 C 0.47627 0.99979 0.72243 0.0
C478 C 0.59423 0.02115 0.74363 0.0
C479 C 0.62106 0.03266 0.72437 0.0
C480 C 0.52656 0.01152 0.72306 0.0
C481 C 0.59961 0.03413 0.70467 0.0
C482 C 0.44793 0.98139 0.70364 0.0
C483 C 0.41099 0.9962 0.74176 0.0
N484 N 0.55325 0.02314 0.70446 0.0
N485 N 0.45672 0.00626 0.74084 0.0
H486 H 0.61194 0.58815 0.57491 0.0
H487 H 0.37878 0.42873 0.64525 0.0
H488 H 0.61937 0.58056 0.64507 0.0
H489 H 0.39513 0.40388 0.57735 0.0
H490 H 0.46337 0.49103 0.64615 0.0
H491 H 0.52902 0.52605 0.57606 0.0
C492 C 0.59609 0.57288 0.59058 0.0
C493 C 0.62256 0.58915 0.6099 0.0
C494 C 0.44815 0.47183 0.63111 0.0
C495 C 0.52694 0.51852 0.61144 0.0
C496 C 0.39993 0.43679 0.63053 0.0
C497 C 0.37999 0.41121 0.61119 0.0
C498 C 0.47595 0.48162 0.61213 0.0
C499 C 0.40903 0.42254 0.59264 0.0
C500 C 0.54869 0.5375 0.59125 0.0
C501 C 0.60021 0.56839 0.62979 0.0
N502 N 0.45527 0.45685 0.59356 0.0
N503 N 0.55335 0.53431 0.6301 0.0
H504 H 0.99293 0.39291 0.9108 0.0
H505 H 0.04314 0.62098 0.97962 0.0
H506 H 0.95656 0.38055 0.97923 0.0
H507 H 0.01127 0.60509 0.91064 0.0
H508 H 0.02421 0.53739 0.98087 0.0
H509 H 0.01177 0.47538 0.91142 0.0
C510 C 0.98862 0.40759 0.92596 0.0
C511 C 0.97286 0.37983 0.94496 0.0
C512 C 0.02157 0.5525 0.96551 0.0
C513 C 0.99537 0.47478 0.9459 0.0
C514 C 0.03285 0.60014 0.96474 0.0
C515 C 0.02886 0.61987 0.94498 0.0
C516 C 0.00728 0.52513 0.94629 0.0
C517 C 0.01471 0.59126 0.92622 0.0
C518 C 0.99941 0.45467 0.92631 0.0
C519 C 0.96804 0.40069 0.96418 0.0
N520 N 0.0047 0.54557 0.92732 0.0
N521 N 0.97971 0.44725 0.96424 0.0
H522 H 0.45868 0.0895 0.29729 0.0
H523 H 0.54263 0.89575 0.29394 0.0
H524 H 0.36776 0.94447 0.27673 0.0
H525 H 0.63777 0.04617 0.28606 0.0
H526 H 0.47612 0.91128 0.29716 0.0
H527 H 0.52325 0.07199 0.30255 0.0
C528 C 0.45208 0.05396 0.29411 0.0
C529 C 0.40777 0.01861 0.28637 0.0
C530 C 0.5118 0.9408 0.29504 0.0
C531 C 0.48109 0.99822 0.29266 0.0
C532 C 0.54969 0.93198 0.29332 0.0
C533 C 0.59582 0.96963 0.28961 0.0
C534 C 0.52041 0.98761 0.29344 0.0
C535 C 0.60288 0.01595 0.28881 0.0
C536 C 0.4889 0.044 0.29709 0.0
C537 C 0.40132 0.97305 0.28256 0.0
N538 N 0.56568 0.02359 0.29066 0.0
N539 N 0.43751 0.96422 0.28572 0.0
H540 H 0.36757 0.18487 0.23196 0.0
H541 H 0.34936 0.1551 0.10178 0.0
H542 H 0.33226 0.05395 0.19892 0.0
H543 H 0.34002 0.26508 0.13702 0.0
H544 H 0.3634 0.12635 0.13657 0.0
H545 H 0.37855 0.22332 0.19641 0.0
C546 C 0.36293 0.16438 0.21727 0.0
C547 C 0.34824 0.11588 0.21845 0.0
C548 C 0.35886 0.15714 0.13658 0.0
C549 C 0.3606 0.1597 0.17774 0.0
C550 C 0.35106 0.17364 0.11677 0.0
C551 C 0.34287 0.21208 0.11659 0.0
C552 C 0.35908 0.17972 0.15622 0.0
C553 C 0.3454 0.23483 0.13647 0.0
C554 C 0.36899 0.18632 0.19698 0.0
C555 C 0.34289 0.09123 0.19881 0.0
N556 N 0.35302 0.21816 0.15547 0.0
N557 N 0.34864 0.1133 0.17926 0.0
H558 H 0.19306 0.36082 0.43546 0.0
H559 H 0.16104 0.35475 0.56539 0.0
H560 H 0.06484 0.33821 0.46725 0.0
H561 H 0.26668 0.33425 0.53233 0.0
H562 H 0.13547 0.36916 0.52985 0.0
H563 H 0.23055 0.37243 0.47131 0.0
C564 C 0.17306 0.35919 0.44992 0.0
C565 C 0.12547 0.34776 0.44835 0.0
C566 C 0.16463 0.36207 0.53047 0.0
C567 C 0.1681 0.36078 0.48938 0.0
C568 C 0.17931 0.35402 0.55071 0.0
C569 C 0.21554 0.3426 0.55175 0.0
C570 C 0.18677 0.35924 0.51125 0.0
C571 C 0.23804 0.34213 0.53224 0.0
C572 C 0.19441 0.36557 0.47038 0.0
C573 C 0.10137 0.3462 0.46769 0.0
N574 N 0.22312 0.35002 0.5128 0.0
N575 N 0.1228 0.35214 0.48742 0.0
H576 H 0.8428 0.18456 0.76975 0.0
H577 H 0.81621 0.16029 0.90004 0.0
H578 H 0.73719 0.05851 0.80283 0.0
H579 H 0.9451 0.26085 0.86709 0.0
H580 H 0.77786 0.13253 0.86435 0.0
H581 H 0.87159 0.2228 0.8054 0.0
C582 C 0.82526 0.1652 0.78447 0.0
C583 C 0.78796 0.11811 0.78335 0.0
C584 C 0.81441 0.16099 0.865 0.0
C585 C 0.82049 0.16155 0.82402 0.0
C586 C 0.83622 0.17695 0.88534 0.0
C587 C 0.88407 0.2125 0.88652 0.0
C588 C 0.8405 0.18116 0.84579 0.0
C589 C 0.90834 0.23285 0.86693 0.0
C590 C 0.84181 0.18693 0.80478 0.0
C591 C 0.76652 0.09464 0.80295 0.0
N592 N 0.88635 0.21676 0.84738 0.0
N593 N 0.78321 0.11652 0.82248 0.0
H594 H 0.64901 0.84201 0.10307 0.0
H595 H 0.64268 0.80887 0.23294 0.0
H596 H 0.672 0.73782 0.136 0.0
H597 H 0.66371 0.93686 0.2015 0.0
H598 H 0.63206 0.77207 0.19699 0.0
H599 H 0.63412 0.86699 0.13867 0.0
C600 C 0.65026 0.82398 0.11773 0.0
C601 C 0.66245 0.78831 0.11664 0.0
C602 C 0.63835 0.808 0.19802 0.0
C603 C 0.64518 0.81631 0.15719 0.0
C604 C 0.64415 0.82895 0.21854 0.0
C605 C 0.65487 0.8763 0.22023 0.0
C606 C 0.64301 0.83446 0.17909 0.0
C607 C 0.65627 0.90051 0.20095 0.0
C608 C 0.6419 0.8383 0.138 0.0
C609 C 0.66353 0.76605 0.13613 0.0
N610 N 0.6509 0.87949 0.18116 0.0
N611 N 0.65527 0.78057 0.15559 0.0
H612 H 0.7364 0.66621 0.53196 0.0
H613 H 0.95244 0.67368 0.46969 0.0
H614 H 0.84817 0.65763 0.56591 0.0
H615 H 0.82116 0.64075 0.43768 0.0
H616 H 0.91388 0.66367 0.5051 0.0
H617 H 0.76538 0.65302 0.49743 0.0
C618 C 0.76688 0.66114 0.53215 0.0
C619 C 0.79026 0.66353 0.5518 0.0
C620 C 0.89331 0.65789 0.49033 0.0
C621 C 0.82396 0.64885 0.51222 0.0
C622 C 0.91531 0.66371 0.47008 0.0
C623 C 0.89016 0.65862 0.45064 0.0
C624 C 0.84601 0.64762 0.49119 0.0
C625 C 0.84203 0.64525 0.45221 0.0
C626 C 0.78328 0.65338 0.51242 0.0
C627 C 0.82919 0.65612 0.55111 0.0
N628 N 0.82175 0.64096 0.47213 0.0
N629 N 0.84534 0.64987 0.53156 0.0
H630 H 0.18552 0.84275 0.90006 0.0
H631 H 0.16612 0.81775 0.76964 0.0
H632 H 0.06283 0.73487 0.86585 0.0
H633 H 0.26398 0.94679 0.80329 0.0
H634 H 0.13893 0.77816 0.80509 0.0
H635 H 0.22555 0.87225 0.86478 0.0
C636 C 0.16735 0.82481 0.88518 0.0
C637 C 0.12059 0.78676 0.88582 0.0
C638 C 0.16672 0.81501 0.80465 0.0
C639 C 0.166 0.82009 0.84562 0.0
C640 C 0.18236 0.83755 0.78444 0.0
C641 C 0.21688 0.88581 0.78353 0.0
C642 C 0.18609 0.8408 0.82401 0.0
C643 C 0.23673 0.90973 0.80324 0.0
C644 C 0.19007 0.84176 0.86508 0.0
C645 C 0.09864 0.76481 0.86606 0.0
N646 N 0.22086 0.88706 0.82268 0.0
N647 N 0.12141 0.78195 0.84676 0.0
H648 H 0.20224 0.85881 0.00578 0.0
H649 H 0.34209 0.14197 0.99475 0.0
H650 H 0.19446 0.93111 0.94824 0.0
H651 H 0.27136 0.06948 0.05401 0.0
H652 H 0.31469 0.06445 0.97709 0.0
H653 H 0.25454 0.93639 0.02293 0.0
C654 C 0.21276 0.89096 0.99653 0.0
C655 C 0.19402 0.88878 0.97564 0.0
C656 C 0.3063 0.06574 0.99413 0.0
C657 C 0.25382 0.97696 0.99491 0.0
C658 C 0.32217 0.1098 0.00422 0.0
C659 C 0.3088 0.11188 0.02581 0.0
C660 C 0.27798 0.02378 0.00593 0.0
C661 C 0.28224 0.06921 0.0373 0.0
C662 C 0.24223 0.93505 0.00634 0.0
C663 C 0.20809 0.93143 0.96443 0.0
N664 N 0.26758 0.02686 0.02722 0.0
N665 N 0.23707 0.97381 0.97421 0.0
H666 H 0.20726 0.26782 0.38906 0.0
H667 H 0.35989 0.20926 0.336 0.0
H668 H 0.21123 0.34153 0.32986 0.0
H669 H 0.26874 0.19577 0.28202 0.0
H670 H 0.33497 0.26006 0.35489 0.0
H671 H 0.25979 0.24332 0.37203 0.0
C672 C 0.2203 0.27988 0.37266 0.0
C673 C 0.20527 0.307 0.36088 0.0
C674 C 0.32116 0.24659 0.33874 0.0
C675 C 0.26439 0.27823 0.34111 0.0
C676 C 0.33573 0.21811 0.32787 0.0
C677 C 0.31599 0.19806 0.30753 0.0
C678 C 0.28725 0.25553 0.32897 0.0
C679 C 0.28445 0.21025 0.29779 0.0
C680 C 0.25041 0.26608 0.36298 0.0
C681 C 0.22256 0.32113 0.33956 0.0
N682 N 0.2709 0.23805 0.30862 0.0
N683 N 0.25021 0.30549 0.33012 0.0
H684 H 0.85843 0.21526 0.66665 0.0
H685 H 0.07083 0.28304 0.61219 0.0
H686 H 0.93408 0.18899 0.71758 0.0
H687 H 0.13892 0.34121 0.6739 0.0
H688 H 0.99348 0.25635 0.62932 0.0
H689 H 0.93474 0.26881 0.6488 0.0
C690 C 0.89112 0.22167 0.67433 0.0
C691 C 0.89006 0.19738 0.69347 0.0
C692 C 0.02534 0.27637 0.63897 0.0
C693 C 0.97693 0.25814 0.67326 0.0
C694 C 0.06944 0.29151 0.62921 0.0
C695 C 0.11116 0.31484 0.64163 0.0
C696 C 0.02289 0.28321 0.6615 0.0
C697 C 0.10753 0.32403 0.66373 0.0
C698 C 0.93451 0.2518 0.66406 0.0
C699 C 0.9334 0.20668 0.7027 0.0
N700 N 0.06401 0.30703 0.67313 0.0
N701 N 0.97505 0.23621 0.69249 0.0
H702 H 0.65274 0.85939 0.99525 0.0
H703 H 0.79321 0.14264 0.0061 0.0
H704 H 0.72321 0.93227 0.05447 0.0
H705 H 0.80023 0.0695 0.94873 0.0
H706 H 0.73981 0.06533 0.02323 0.0
H707 H 0.67917 0.93676 0.97761 0.0
C708 C 0.67225 0.8916 0.00474 0.0
C709 C 0.68591 0.8897 0.02629 0.0
C710 C 0.75212 0.06644 0.00667 0.0
C711 C 0.71577 0.97762 0.00642 0.0
C712 C 0.78221 0.11038 0.99686 0.0
C713 C 0.80107 0.11221 0.97604 0.0
C714 C 0.74009 0.02435 0.9953 0.0
C715 C 0.78645 0.06944 0.96486 0.0
C716 C 0.68761 0.93558 0.99465 0.0
C717 C 0.71205 0.93241 0.0378 0.0
N718 N 0.75693 0.02721 0.97464 0.0
N719 N 0.7263 0.97468 0.02771 0.0
H720 H 0.73608 0.79512 0.27963 0.0
H721 H 0.79456 0.64247 0.33276 0.0
H722 H 0.66034 0.78927 0.33843 0.0
H723 H 0.80643 0.7328 0.38681 0.0
H724 H 0.74365 0.66706 0.3137 0.0
H725 H 0.76062 0.74265 0.29671 0.0
C726 C 0.7236 0.7817 0.29595 0.0
C727 C 0.69591 0.79619 0.30761 0.0
C728 C 0.75675 0.68072 0.32991 0.0
C729 C 0.72469 0.73712 0.32743 0.0
C730 C 0.78528 0.66633 0.34087 0.0
C731 C 0.80492 0.68596 0.36129 0.0
C732 C 0.74735 0.71432 0.33966 0.0
C733 C 0.79224 0.71716 0.371 0.0
C734 C 0.73743 0.75161 0.30565 0.0
C735 C 0.68122 0.77839 0.32882 0.0
N736 N 0.76441 0.73053 0.36007 0.0
N737 N 0.69688 0.75078 0.33829 0.0
H738 H 0.07068 0.80283 0.72252 0.0
H739 H 0.9329 0.73365 0.61396 0.0
H740 H 0.14128 0.7998 0.66346 0.0
H741 H 0.86228 0.65956 0.67294 0.0
H742 H 0.00968 0.7584 0.63133 0.0
H743 H 0.99391 0.75023 0.70529 0.0
C744 C 0.06994 0.79002 0.70609 0.0
C745 C 0.11222 0.80538 0.69439 0.0
C746 C 0.97741 0.73579 0.64031 0.0
C747 C 0.02466 0.7468 0.67432 0.0
C748 C 0.93365 0.72173 0.63043 0.0
C749 C 0.89135 0.69445 0.64205 0.0
C750 C 0.97893 0.72395 0.66224 0.0
C751 C 0.89416 0.68025 0.66339 0.0
C752 C 0.02618 0.76005 0.69628 0.0
C753 C 0.10943 0.7883 0.67307 0.0
N754 N 0.9373 0.69615 0.67303 0.0
N755 N 0.06628 0.76083 0.66349 0.0
H756 H 0.04326 0.30743 0.00072 0.0
H757 H 0.17082 0.17677 0.04272 0.0
H758 H 0.00745 0.17596 0.96846 0.0
H759 H 0.25844 0.30792 0.00843 0.0
H760 H 0.09973 0.17574 0.02812 0.0
H761 H 0.11327 0.30851 0.01685 0.0
C762 C 0.05023 0.27885 0.99717 0.0
C763 C 0.02111 0.24244 0.98277 0.0
C764 C 0.13463 0.2048 0.02402 0.0
C765 C 0.09837 0.24222 0.00181 0.0
C766 C 0.17486 0.20555 0.03233 0.0
C767 C 0.22 0.24312 0.02709 0.0
C768 C 0.14001 0.24224 0.01078 0.0
C769 C 0.22394 0.27895 0.01309 0.0
C770 C 0.08977 0.27945 0.00635 0.0
C771 C 0.03029 0.2053 0.97903 0.0
N772 N 0.18419 0.27814 0.00563 0.0
N773 N 0.06829 0.206 0.98858 0.0
H774 H 0.75107 0.02025 0.34089 0.0
H775 H 0.98039 0.25064 0.32805 0.0
H776 H 0.83616 0.01701 0.28766 0.0
H777 H 0.98492 0.16561 0.381 0.0
H778 H 0.91313 0.17928 0.31237 0.0
H779 H 0.82228 0.08761 0.35662 0.0
C780 C 0.78464 0.03433 0.33238 0.0
C781 C 0.78767 0.01498 0.31242 0.0
C782 C 0.92854 0.17662 0.32755 0.0
C783 C 0.86817 0.09128 0.33021 0.0
C784 C 0.96662 0.21703 0.3365 0.0
C785 C 0.98631 0.21406 0.35638 0.0
C786 C 0.91014 0.13338 0.33863 0.0
C787 C 0.96865 0.16954 0.36631 0.0
C788 C 0.82498 0.07247 0.34136 0.0
C789 C 0.83216 0.03302 0.30242 0.0
N790 N 0.93067 0.13077 0.35756 0.0
N791 N 0.87084 0.07107 0.31119 0.0
H792 H 0.82362 0.83152 0.62768 0.0
H793 H 0.69154 0.95628 0.66966 0.0
H794 H 0.69304 0.7411 0.66182 0.0
H795 H 0.82171 0.99159 0.70309 0.0
H796 H 0.69064 0.88602 0.65397 0.0
H797 H 0.82341 0.90142 0.64299 0.0
C798 C 0.79472 0.82661 0.63821 0.0
C799 C 0.75765 0.78103 0.64318 0.0
C800 C 0.71934 0.90942 0.66466 0.0
C801 C 0.75716 0.8597 0.66034 0.0
C802 C 0.71984 0.94912 0.67358 0.0
C803 C 0.7559 0.97828 0.68812 0.0
C804 C 0.75638 0.90075 0.66956 0.0
C805 C 0.79267 0.9688 0.69236 0.0
C806 C 0.79478 0.86617 0.64693 0.0
C807 C 0.72163 0.77597 0.65737 0.0
N808 N 0.79216 0.93073 0.683 0.0
N809 N 0.72176 0.81511 0.66524 0.0
H810 H 0.73452 0.69445 0.00507 0.0
H811 H 0.99053 0.82349 0.96181 0.0
H812 H 0.82965 0.82762 0.03615 0.0
H813 H 0.94895 0.69383 0.99709 0.0
H814 H 0.92149 0.82539 0.97712 0.0
H815 H 0.80355 0.69261 0.98965 0.0
C816 C 0.76999 0.72323 0.00852 0.0
C817 C 0.77709 0.76038 0.02239 0.0
C818 C 0.9276 0.79654 0.98134 0.0
C819 C 0.85472 0.75979 0.00404 0.0
C820 C 0.96648 0.79527 0.97261 0.0
C821 C 0.97423 0.75781 0.9779 0.0
C822 C 0.8963 0.75971 0.99505 0.0
C823 C 0.94323 0.72269 0.99241 0.0
C824 C 0.809 0.72221 -0.00026 0.0
C825 C 0.82331 0.79774 0.026 0.0
N826 N 0.9048 0.72396 0.00027 0.0
N827 N 0.86071 0.79668 0.01675 0.0
H828 H 0.01004 0.83152 0.37581 0.0
H829 H 0.17168 0.99255 0.29138 0.0
H830 H 0.04151 0.74584 0.33282 0.0
H831 H 0.25621 0.96108 0.33515 0.0
H832 H 0.09939 0.9251 0.30682 0.0
H833 H 0.07698 0.9034 0.35983 0.0
C834 C 0.03134 0.82806 0.36311 0.0
C835 C 0.0219 0.78324 0.35603 0.0
C836 C 0.13392 0.93326 0.31292 0.0
C837 C 0.09655 0.86392 0.3378 0.0
C838 C 0.17481 0.97111 0.30411 0.0
C839 C 0.21945 0.98075 0.3116 0.0
C840 C 0.13832 0.9055 0.32919 0.0
C841 C 0.22218 0.95362 0.32869 0.0
C842 C 0.06888 0.86872 0.35398 0.0
C843 C 0.04883 0.78005 0.33897 0.0
N844 N 0.18191 0.91637 0.33673 0.0
N845 N 0.08585 0.82013 0.33063 0.0
H846 H 0.17314 0.00807 0.70573 0.0
H847 H 0.17193 0.17299 0.62841 0.0
H848 H 0.30129 0.04875 0.66932 0.0
H849 H 0.30086 0.26027 0.66429 0.0
H850 H 0.16915 0.10179 0.64396 0.0
H851 H 0.16966 0.07575 0.68974 0.0
C852 C 0.20062 0.03157 0.69448 0.0
C853 C 0.2383 0.02419 0.68917 0.0
C854 C 0.19798 0.13665 0.64829 0.0
C855 C 0.23446 0.10034 0.67114 0.0
C856 C 0.19975 0.17692 0.63943 0.0
C857 C 0.23741 0.22195 0.64473 0.0
C858 C 0.23441 0.14193 0.66224 0.0
C859 C 0.27193 0.22582 0.65957 0.0
C860 C 0.19843 0.06963 0.68536 0.0
C861 C 0.27235 0.0543 0.67405 0.0
N862 N 0.27018 0.18602 0.66756 0.0
N863 N 0.27024 0.09199 0.66581 0.0
loop_
_geom_bond_atom_site_label_1
_geom_bond_atom_site_label_2
_geom_bond_distance
_geom_bond_site_symmetry_2
_ccdc_geom_bond_type
Mn0 O5 2.095 . S
Mn0 O15 2.162 . S
Mn0 O16 2.297 . S
Mn0 O24 2.385 . S
Mn0 O25 2.209 . S
Mn0 O26 2.094 . S
Mn1 O6 2.121 . S
Mn1 N8 2.257 . S
Mn1 N17 2.282 . S
Mn1 O25 2.215 . S
Mn1 O27 2.117 . S
C2 O24 1.234 . S
C2 O25 1.283 . S
C3 O15 1.281 . S
C3 O16 1.236 . S
C4 O26 1.240 . S
C4 O27 1.264 . S
O5 Mn0 2.095 . S
O5 C14 1.250 . S
O6 Mn1 2.121 . S
O6 C14 1.258 . S
C7 N8 1.326 . S
C7 C11 1.460 . S
C7 H13 0.929 . S
N8 Mn1 2.257 . S
N8 C7 1.326 . S
N8 C12 1.362 . S
C9 C10 1.258 . S
C9 C12 1.431 . S
C9 C29 1.449 . S
C10 C9 1.258 . S
C10 C11 1.477 . S
C10 H30 0.931 . S
C11 C7 1.460 . S
C11 C10 1.477 . S
C11 H31 0.930 . S
C12 N8 1.362 . S
C12 C9 1.431 . S
C12 C22 1.476 . S
H13 C7 0.929 . S
C14 O5 1.250 . S
C14 O6 1.258 . S
O15 Mn0 2.162 . S
O15 C3 1.281 . S
O16 Mn0 2.297 . S
O16 C3 1.236 . S
N17 Mn1 2.282 . S
N17 C18 1.328 . S
N17 C22 1.318 . S
C18 N17 1.328 . S
C18 C19 1.457 . S
C18 H23 0.929 . S
C19 C18 1.457 . S
C19 C20 1.291 . S
C19 H32 0.931 . S
C20 C19 1.291 . S
C20 C21 1.373 . S
C20 H33 0.929 . S
C21 C20 1.373 . S
C21 C22 1.396 . S
C21 C28 1.403 . S
C22 C12 1.476 . S
C22 N17 1.318 . S
C22 C21 1.396 . S
H23 C18 0.929 . S
O24 Mn0 2.385 . S
O24 C2 1.234 . S
O25 Mn0 2.209 . S
O25 Mn1 2.215 . S
O25 C2 1.283 . S
O26 Mn0 2.094 . S
O26 C4 1.240 . S
O27 Mn1 2.117 . S
O27 C4 1.264 . S
C28 C21 1.403 . S
C28 C29 1.399 . S
C28 H34 0.929 . S
C29 C9 1.449 . S
C29 C28 1.399 . S
C29 H35 0.930 . S
H30 C10 0.931 . S
H31 C11 0.930 . S
H32 C19 0.931 . S
H33 C20 0.929 . S
H34 C28 0.929 . S
H35 C29 0.930 . S
Mn36 O41 2.095 . S
Mn36 O51 2.162 . S
Mn36 O52 2.297 . S
Mn36 O60 2.385 . S
Mn36 O61 2.209 . S
Mn36 O62 2.094 . S
Mn37 O42 2.121 . S
Mn37 N44 2.257 1_455 S
Mn37 N53 2.282 1_455 S
Mn37 O61 2.215 . S
Mn37 O63 2.117 . S
C38 O60 1.234 . S
C38 O61 1.283 . S
C39 O51 1.281 . S
C39 O52 1.236 . S
C40 O62 1.240 . S
C40 O63 1.264 . S
O41 Mn36 2.095 . S
O41 C50 1.250 . S
O42 Mn37 2.121 . S
O42 C50 1.258 . S
C43 N44 1.326 . S
C43 C47 1.460 . S
C43 H49 0.929 . S
N44 Mn37 2.257 1_655 S
N44 C43 1.326 . S
N44 C48 1.362 . S
C45 C46 1.258 . S
C45 C48 1.431 . S
C45 C65 1.449 . S
C46 C45 1.258 . S
C46 C47 1.477 . S
C46 H66 0.931 . S
C47 C43 1.460 . S
C47 C46 1.477 . S
C47 H67 0.930 . S
C48 N44 1.362 . S
C48 C45 1.431 . S
C48 C58 1.476 . S
H49 C43 0.929 . S
C50 O41 1.250 . S
C50 O42 1.258 . S
O51 Mn36 2.162 . S
O51 C39 1.281 . S
O52 Mn36 2.297 . S
O52 C39 1.236 . S
N53 Mn37 2.282 1_655 S
N53 C54 1.328 . S
N53 C58 1.318 . S
C54 N53 1.328 . S
C54 C55 1.457 . S
C54 H59 0.929 . S
C55 C54 1.457 . S
C55 C56 1.291 . S
C55 H68 0.931 . S
C56 C55 1.291 . S
C56 C57 1.373 . S
C56 H69 0.929 . S
C57 C56 1.373 . S
C57 C58 1.396 . S
C57 C64 1.403 . S
C58 C48 1.476 . S
C58 N53 1.318 . S
C58 C57 1.396 . S
H59 C54 0.929 . S
O60 Mn36 2.385 . S
O60 C38 1.234 . S
O61 Mn36 2.209 . S
O61 Mn37 2.215 . S
O61 C38 1.283 . S
O62 Mn36 2.094 . S
O62 C40 1.240 . S
O63 Mn37 2.117 . S
O63 C40 1.264 . S
C64 C57 1.403 . S
C64 C65 1.399 . S
C64 H70 0.929 . S
C65 C45 1.449 . S
C65 C64 1.399 . S
C65 H71 0.930 . S
H66 C46 0.931 . S
H67 C47 0.930 . S
H68 C55 0.931 . S
H69 C56 0.929 . S
H70 C64 0.929 . S
H71 C65 0.930 . S
Mn72 O77 2.095 . S
Mn72 O87 2.162 . S
Mn72 O88 2.297 . S
Mn72 O96 2.385 . S
Mn72 O97 2.209 . S
Mn72 O98 2.094 . S
Mn73 O78 2.121 . S
Mn73 N80 2.257 1_545 S
Mn73 N89 2.282 1_545 S
Mn73 O97 2.215 . S
Mn73 O99 2.117 . S
C74 O96 1.234 . S
C74 O97 1.283 . S
C75 O87 1.281 . S
C75 O88 1.236 . S
C76 O98 1.240 . S
C76 O99 1.264 . S
O77 Mn72 2.095 . S
O77 C86 1.250 . S
O78 Mn73 2.121 . S
O78 C86 1.258 . S
C79 N80 1.326 . S
C79 C83 1.460 . S
C79 H85 0.929 . S
N80 Mn73 2.257 1_565 S
N80 C79 1.326 . S
N80 C84 1.362 . S
C81 C82 1.258 . S
C81 C84 1.431 . S
C81 C101 1.449 . S
C82 C81 1.258 . S
C82 C83 1.477 . S
C82 H102 0.931 . S
C83 C79 1.460 . S
C83 C82 1.477 . S
C83 H103 0.930 . S
C84 N80 1.362 . S
C84 C81 1.431 . S
C84 C94 1.476 . S
H85 C79 0.929 . S
C86 O77 1.250 . S
C86 O78 1.258 . S
O87 Mn72 2.162 . S
O87 C75 1.281 . S
O88 Mn72 2.297 . S
O88 C75 1.236 . S
N89 Mn73 2.282 1_565 S
N89 C90 1.328 . S
N89 C94 1.318 . S
C90 N89 1.328 . S
C90 C91 1.457 . S
C90 H95 0.929 . S
C91 C90 1.457 . S
C91 C92 1.291 . S
C91 H104 0.931 . S
C92 C91 1.291 . S
C92 C93 1.373 . S
C92 H105 0.929 . S
C93 C92 1.373 . S
C93 C94 1.396 . S
C93 C100 1.403 . S
C94 C84 1.476 . S
C94 N89 1.318 . S
C94 C93 1.396 . S
H95 C90 0.929 . S
O96 Mn72 2.385 . S
O96 C74 1.234 . S
O97 Mn72 2.209 . S
O97 Mn73 2.215 . S
O97 C74 1.283 . S
O98 Mn72 2.094 . S
O98 C76 1.240 . S
O99 Mn73 2.117 . S
O99 C76 1.264 . S
C100 C93 1.403 . S
C100 C101 1.399 . S
C100 H106 0.929 . S
C101 C81 1.449 . S
C101 C100 1.399 . S
C101 H107 0.930 . S
H102 C82 0.931 . S
H103 C83 0.930 . S
H104 C91 0.931 . S
H105 C92 0.929 . S
H106 C100 0.929 . S
H107 C101 0.930 . S
Mn108 O113 2.095 . S
Mn108 O123 2.162 . S
Mn108 O124 2.297 . S
Mn108 O132 2.385 . S
Mn108 O133 2.209 . S
Mn108 O134 2.094 . S
Mn109 O114 2.121 . S
Mn109 N116 2.257 . S
Mn109 N125 2.282 . S
Mn109 O133 2.215 . S
Mn109 O135 2.117 . S
C110 O132 1.234 . S
C110 O133 1.283 . S
C111 O123 1.281 . S
C111 O124 1.236 . S
C112 O134 1.240 . S
C112 O135 1.264 . S
O113 Mn108 2.095 . S
O113 C122 1.250 . S
O114 Mn109 2.121 . S
O114 C122 1.258 . S
C115 N116 1.326 . S
C115 C119 1.460 . S
C115 H121 0.929 . S
N116 Mn109 2.257 . S
N116 C115 1.326 . S
N116 C120 1.362 . S
C117 C118 1.258 . S
C117 C120 1.431 . S
C117 C137 1.449 . S
C118 C117 1.258 . S
C118 C119 1.477 . S
C118 H138 0.931 . S
C119 C115 1.460 . S
C119 C118 1.477 . S
C119 H139 0.930 . S
C120 N116 1.362 . S
C120 C117 1.431 . S
C120 C130 1.476 . S
H121 C115 0.929 . S
C122 O113 1.250 . S
C122 O114 1.258 . S
O123 Mn108 2.162 . S
O123 C111 1.281 . S
O124 Mn108 2.297 . S
O124 C111 1.236 . S
N125 Mn109 2.282 . S
N125 C126 1.328 . S
N125 C130 1.318 . S
C126 N125 1.328 . S
C126 C127 1.457 . S
C126 H131 0.929 . S
C127 C126 1.457 . S
C127 C128 1.291 . S
C127 H140 0.931 . S
C128 C127 1.291 . S
C128 C129 1.373 . S
C128 H141 0.929 . S
C129 C128 1.373 . S
C129 C130 1.396 . S
C129 C136 1.403 . S
C130 C120 1.476 . S
C130 N125 1.318 . S
C130 C129 1.396 . S
H131 C126 0.929 . S
O132 Mn108 2.385 . S
O132 C110 1.234 . S
O133 Mn108 2.209 . S
O133 Mn109 2.215 . S
O133 C110 1.283 . S
O134 Mn108 2.094 . S
O134 C112 1.240 . S
O135 Mn109 2.117 . S
O135 C112 1.264 . S
C136 C129 1.403 . S
C136 C137 1.399 . S
C136 H142 0.929 . S
C137 C117 1.449 . S
C137 C136 1.399 . S
C137 H143 0.930 . S
H138 C118 0.931 . S
H139 C119 0.930 . S
H140 C127 0.931 . S
H141 C128 0.929 . S
H142 C136 0.929 . S
H143 C137 0.930 . S
Mn144 O149 2.095 . S
Mn144 O159 2.162 . S
Mn144 O160 2.297 . S
Mn144 O168 2.385 . S
Mn144 O169 2.209 . S
Mn144 O170 2.094 . S
Mn145 O150 2.121 . S
Mn145 N152 2.257 1_655 S
Mn145 N161 2.282 1_655 S
Mn145 O169 2.215 . S
Mn145 O171 2.117 . S
C146 O168 1.234 . S
C146 O169 1.283 . S
C147 O159 1.281 . S
C147 O160 1.236 . S
C148 O170 1.240 . S
C148 O171 1.264 . S
O149 Mn144 2.095 . S
O149 C158 1.250 . S
O150 Mn145 2.121 . S
O150 C158 1.258 . S
C151 N152 1.326 . S
C151 C155 1.460 . S
C151 H157 0.929 . S
N152 Mn145 2.257 1_455 S
N152 C151 1.326 . S
N152 C156 1.362 . S
C153 C154 1.258 . S
C153 C156 1.431 . S
C153 C173 1.449 . S
C154 C153 1.258 . S
C154 C155 1.477 . S
C154 H174 0.931 . S
C155 C151 1.460 . S
C155 C154 1.477 . S
C155 H175 0.930 . S
C156 N152 1.362 . S
C156 C153 1.431 . S
C156 C166 1.476 . S
H157 C151 0.929 . S
C158 O149 1.250 . S
C158 O150 1.258 . S
O159 Mn144 2.162 . S
O159 C147 1.281 . S
O160 Mn144 2.297 . S
O160 C147 1.236 . S
N161 Mn145 2.282 1_455 S
N161 C162 1.328 . S
N161 C166 1.318 . S
C162 N161 1.328 . S
C162 C163 1.457 . S
C162 H167 0.929 . S
C163 C162 1.457 . S
C163 C164 1.291 . S
C163 H176 0.931 . S
C164 C163 1.291 . S
C164 C165 1.373 . S
C164 H177 0.929 . S
C165 C164 1.373 . S
C165 C166 1.396 . S
C165 C172 1.403 . S
C166 C156 1.476 . S
C166 N161 1.318 . S
C166 C165 1.396 . S
H167 C162 0.929 . S
O168 Mn144 2.385 . S
O168 C146 1.234 . S
O169 Mn144 2.209 . S
O169 Mn145 2.215 . S
O169 C146 1.283 . S
O170 Mn144 2.094 . S
O170 C148 1.240 . S
O171 Mn145 2.117 . S
O171 C148 1.264 . S
C172 C165 1.403 . S
C172 C173 1.399 . S
C172 H178 0.929 . S
C173 C153 1.449 . S
C173 C172 1.399 . S
C173 H179 0.930 . S
H174 C154 0.931 . S
H175 C155 0.930 . S
H176 C163 0.931 . S
H177 C164 0.929 . S
H178 C172 0.929 . S
H179 C173 0.930 . S
Mn180 O185 2.095 . S
Mn180 O195 2.162 . S
Mn180 O196 2.297 . S
Mn180 O204 2.385 . S
Mn180 O205 2.209 . S
Mn180 O206 2.094 . S
Mn181 O186 2.121 . S
Mn181 N188 2.257 1_565 S
Mn181 N197 2.282 1_565 S
Mn181 O205 2.215 . S
Mn181 O207 2.117 . S
C182 O204 1.234 . S
C182 O205 1.283 . S
C183 O195 1.281 . S
C183 O196 1.236 . S
C184 O206 1.240 . S
C184 O207 1.264 . S
O185 Mn180 2.095 . S
O185 C194 1.250 . S
O186 Mn181 2.121 . S
O186 C194 1.258 . S
C187 N188 1.326 . S
C187 C191 1.460 . S
C187 H193 0.929 . S
N188 Mn181 2.257 1_545 S
N188 C187 1.326 . S
N188 C192 1.362 . S
C189 C190 1.258 . S
C189 C192 1.431 . S
C189 C209 1.449 . S
C190 C189 1.258 . S
C190 C191 1.477 . S
C190 H210 0.931 . S
C191 C187 1.460 . S
C191 C190 1.477 . S
C191 H211 0.930 . S
C192 N188 1.362 . S
C192 C189 1.431 . S
C192 C202 1.476 . S
H193 C187 0.929 . S
C194 O185 1.250 . S
C194 O186 1.258 . S
O195 Mn180 2.162 . S
O195 C183 1.281 . S
O196 Mn180 2.297 . S
O196 C183 1.236 . S
N197 Mn181 2.282 1_545 S
N197 C198 1.328 . S
N197 C202 1.318 . S
C198 N197 1.328 . S
C198 C199 1.457 . S
C198 H203 0.929 . S
C199 C198 1.457 . S
C199 C200 1.291 . S
C199 H212 0.931 . S
C200 C199 1.291 . S
C200 C201 1.373 . S
C200 H213 0.929 . S
C201 C200 1.373 . S
C201 C202 1.396 . S
C201 C208 1.403 . S
C202 C192 1.476 . S
C202 N197 1.318 . S
C202 C201 1.396 . S
H203 C198 0.929 . S
O204 Mn180 2.385 . S
O204 C182 1.234 . S
O205 Mn180 2.209 . S
O205 Mn181 2.215 . S
O205 C182 1.283 . S
O206 Mn180 2.094 . S
O206 C184 1.240 . S
O207 Mn181 2.117 . S
O207 C184 1.264 . S
C208 C201 1.403 . S
C208 C209 1.399 . S
C208 H214 0.929 . S
C209 C189 1.449 . S
C209 C208 1.399 . S
C209 H215 0.930 . S
H210 C190 0.931 . S
H211 C191 0.930 . S
H212 C199 0.931 . S
H213 C200 0.929 . S
H214 C208 0.929 . S
H215 C209 0.930 . S
Mn216 O221 2.095 . S
Mn216 O231 2.162 . S
Mn216 O232 2.297 . S
Mn216 O240 2.385 . S
Mn216 O241 2.209 . S
Mn216 O242 2.094 . S
Mn217 O222 2.121 . S
Mn217 N224 2.257 . S
Mn217 N233 2.282 . S
Mn217 O241 2.215 . S
Mn217 O243 2.117 . S
C218 O240 1.234 . S
C218 O241 1.283 . S
C219 O231 1.281 . S
C219 O232 1.236 . S
C220 O242 1.240 . S
C220 O243 1.264 . S
O221 Mn216 2.095 . S
O221 C230 1.250 . S
O222 Mn217 2.121 . S
O222 C230 1.258 . S
C223 N224 1.326 . S
C223 C227 1.460 . S
C223 H229 0.929 . S
N224 Mn217 2.257 . S
N224 C223 1.326 . S
N224 C228 1.362 . S
C225 C226 1.258 . S
C225 C228 1.431 . S
C225 C245 1.449 . S
C226 C225 1.258 . S
C226 C227 1.477 . S
C226 H246 0.931 . S
C227 C223 1.460 . S
C227 C226 1.477 . S
C227 H247 0.930 . S
C228 N224 1.362 . S
C228 C225 1.431 . S
C228 C238 1.476 . S
H229 C223 0.929 . S
C230 O221 1.250 . S
C230 O222 1.258 . S
O231 Mn216 2.162 . S
O231 C219 1.281 . S
O232 Mn216 2.297 . S
O232 C219 1.236 . S
N233 Mn217 2.282 . S
N233 C234 1.328 . S
N233 C238 1.318 . S
C234 N233 1.328 . S
C234 C235 1.457 . S
C234 H239 0.929 . S
C235 C234 1.457 . S
C235 C236 1.291 . S
C235 H248 0.931 . S
C236 C235 1.291 . S
C236 C237 1.373 . S
C236 H249 0.929 . S
C237 C236 1.373 . S
C237 C238 1.396 . S
C237 C244 1.403 . S
C238 C228 1.476 . S
C238 N233 1.318 . S
C238 C237 1.396 . S
H239 C234 0.929 . S
O240 Mn216 2.385 . S
O240 C218 1.234 . S
O241 Mn216 2.209 . S
O241 Mn217 2.215 . S
O241 C218 1.283 . S
O242 Mn216 2.094 . S
O242 C220 1.240 . S
O243 Mn217 2.117 . S
O243 C220 1.264 . S
C244 C237 1.403 . S
C244 C245 1.399 . S
C244 H250 0.929 . S
C245 C225 1.449 . S
C245 C244 1.399 . S
C245 H251 0.930 . S
H246 C226 0.931 . S
H247 C227 0.930 . S
H248 C235 0.931 . S
H249 C236 0.929 . S
H250 C244 0.929 . S
H251 C245 0.930 . S
Mn252 O257 2.095 . S
Mn252 O267 2.162 . S
Mn252 O268 2.297 . S
Mn252 O276 2.385 . S
Mn252 O277 2.209 . S
Mn252 O278 2.094 . S
Mn253 O258 2.121 . S
Mn253 N260 2.257 1_455 S
Mn253 N269 2.282 1_455 S
Mn253 O277 2.215 . S
Mn253 O279 2.117 . S
C254 O276 1.234 . S
C254 O277 1.283 . S
C255 O267 1.281 . S
C255 O268 1.236 . S
C256 O278 1.240 . S
C256 O279 1.264 . S
O257 Mn252 2.095 . S
O257 C266 1.250 . S
O258 Mn253 2.121 . S
O258 C266 1.258 . S
C259 N260 1.326 . S
C259 C263 1.460 . S
C259 H265 0.929 . S
N260 Mn253 2.257 1_655 S
N260 C259 1.326 . S
N260 C264 1.362 . S
C261 C262 1.258 . S
C261 C264 1.431 . S
C261 C281 1.449 . S
C262 C261 1.258 . S
C262 C263 1.477 . S
C262 H282 0.931 . S
C263 C259 1.460 . S
C263 C262 1.477 . S
C263 H283 0.930 . S
C264 N260 1.362 . S
C264 C261 1.431 . S
C264 C274 1.476 . S
H265 C259 0.929 . S
C266 O257 1.250 . S
C266 O258 1.258 . S
O267 Mn252 2.162 . S
O267 C255 1.281 . S
O268 Mn252 2.297 . S
O268 C255 1.236 . S
N269 Mn253 2.282 1_655 S
N269 C270 1.328 . S
N269 C274 1.318 . S
C270 N269 1.328 . S
C270 C271 1.457 . S
C270 H275 0.929 . S
C271 C270 1.457 . S
C271 C272 1.291 . S
C271 H284 0.931 . S
C272 C271 1.291 . S
C272 C273 1.373 . S
C272 H285 0.929 . S
C273 C272 1.373 . S
C273 C274 1.396 . S
C273 C280 1.403 . S
C274 C264 1.476 . S
C274 N269 1.318 . S
C274 C273 1.396 . S
H275 C270 0.929 . S
O276 Mn252 2.385 . S
O276 C254 1.234 . S
O277 Mn252 2.209 . S
O277 Mn253 2.215 . S
O277 C254 1.283 . S
O278 Mn252 2.094 . S
O278 C256 1.240 . S
O279 Mn253 2.117 . S
O279 C256 1.264 . S
C280 C273 1.403 . S
C280 C281 1.399 . S
C280 H286 0.929 . S
C281 C261 1.449 . S
C281 C280 1.399 . S
C281 H287 0.930 . S
H282 C262 0.931 . S
H283 C263 0.930 . S
H284 C271 0.931 . S
H285 C272 0.929 . S
H286 C280 0.929 . S
H287 C281 0.930 . S
Mn288 O293 2.095 . S
Mn288 O303 2.162 . S
Mn288 O304 2.297 . S
Mn288 O312 2.385 . S
Mn288 O313 2.209 . S
Mn288 O314 2.094 . S
Mn289 O294 2.121 . S
Mn289 N296 2.257 1_545 S
Mn289 N305 2.282 1_545 S
Mn289 O313 2.215 . S
Mn289 O315 2.117 . S
C290 O312 1.234 . S
C290 O313 1.283 . S
C291 O303 1.281 . S
C291 O304 1.236 . S
C292 O314 1.240 . S
C292 O315 1.264 . S
O293 Mn288 2.095 . S
O293 C302 1.250 . S
O294 Mn289 2.121 . S
O294 C302 1.258 . S
C295 N296 1.326 . S
C295 C299 1.460 . S
C295 H301 0.929 . S
N296 Mn289 2.257 1_565 S
N296 C295 1.326 . S
N296 C300 1.362 . S
C297 C298 1.258 . S
C297 C300 1.431 . S
C297 C317 1.449 . S
C298 C297 1.258 . S
C298 C299 1.477 . S
C298 H318 0.931 . S
C299 C295 1.460 . S
C299 C298 1.477 . S
C299 H319 0.930 . S
C300 N296 1.362 . S
C300 C297 1.431 . S
C300 C310 1.476 . S
H301 C295 0.929 . S
C302 O293 1.250 . S
C302 O294 1.258 . S
O303 Mn288 2.162 . S
O303 C291 1.281 . S
O304 Mn288 2.297 . S
O304 C291 1.236 . S
N305 Mn289 2.282 1_565 S
N305 C306 1.328 . S
N305 C310 1.318 . S
C306 N305 1.328 . S
C306 C307 1.457 . S
C306 H311 0.929 . S
C307 C306 1.457 . S
C307 C308 1.291 . S
C307 H320 0.931 . S
C308 C307 1.291 . S
C308 C309 1.373 . S
C308 H321 0.929 . S
C309 C308 1.373 . S
C309 C310 1.396 . S
C309 C316 1.403 . S
C310 C300 1.476 . S
C310 N305 1.318 . S
C310 C309 1.396 . S
H311 C306 0.929 . S
O312 Mn288 2.385 . S
O312 C290 1.234 . S
O313 Mn288 2.209 . S
O313 Mn289 2.215 . S
O313 C290 1.283 . S
O314 Mn288 2.094 . S
O314 C292 1.240 . S
O315 Mn289 2.117 . S
O315 C292 1.264 . S
C316 C309 1.403 . S
C316 C317 1.399 . S
C316 H322 0.929 . S
C317 C297 1.449 . S
C317 C316 1.399 . S
C317 H323 0.930 . S
H318 C298 0.931 . S
H319 C299 0.930 . S
H320 C307 0.931 . S
H321 C308 0.929 . S
H322 C316 0.929 . S
H323 C317 0.930 . S
Mn324 O329 2.095 . S
Mn324 O339 2.162 . S
Mn324 O340 2.297 . S
Mn324 O348 2.385 . S
Mn324 O349 2.209 . S
Mn324 O350 2.094 . S
Mn325 O330 2.121 . S
Mn325 N332 2.257 . S
Mn325 N341 2.282 . S
Mn325 O349 2.215 . S
Mn325 O351 2.117 . S
C326 O348 1.234 . S
C326 O349 1.283 . S
C327 O339 1.281 . S
C327 O340 1.236 . S
C328 O350 1.240 . S
C328 O351 1.264 . S
O329 Mn324 2.095 . S
O329 C338 1.250 . S
O330 Mn325 2.121 . S
O330 C338 1.258 . S
C331 N332 1.326 . S
C331 C335 1.460 . S
C331 H337 0.929 . S
N332 Mn325 2.257 . S
N332 C331 1.326 . S
N332 C336 1.362 . S
C333 C334 1.258 . S
C333 C336 1.431 . S
C333 C353 1.449 . S
C334 C333 1.258 . S
C334 C335 1.477 . S
C334 H354 0.931 . S
C335 C331 1.460 . S
C335 C334 1.477 . S
C335 H355 0.930 . S
C336 N332 1.362 . S
C336 C333 1.431 . S
C336 C346 1.476 . S
H337 C331 0.929 . S
C338 O329 1.250 . S
C338 O330 1.258 . S
O339 Mn324 2.162 . S
O339 C327 1.281 . S
O340 Mn324 2.297 . S
O340 C327 1.236 . S
N341 Mn325 2.282 . S
N341 C342 1.328 . S
N341 C346 1.318 . S
C342 N341 1.328 . S
C342 C343 1.457 . S
C342 H347 0.929 . S
C343 C342 1.457 . S
C343 C344 1.291 . S
C343 H356 0.931 . S
C344 C343 1.291 . S
C344 C345 1.373 . S
C344 H357 0.929 . S
C345 C344 1.373 . S
C345 C346 1.396 . S
C345 C352 1.403 . S
C346 C336 1.476 . S
C346 N341 1.318 . S
C346 C345 1.396 . S
H347 C342 0.929 . S
O348 Mn324 2.385 . S
O348 C326 1.234 . S
O349 Mn324 2.209 . S
O349 Mn325 2.215 . S
O349 C326 1.283 . S
O350 Mn324 2.094 . S
O350 C328 1.240 . S
O351 Mn325 2.117 . S
O351 C328 1.264 . S
C352 C345 1.403 . S
C352 C353 1.399 . S
C352 H358 0.929 . S
C353 C333 1.449 . S
C353 C352 1.399 . S
C353 H359 0.930 . S
H354 C334 0.931 . S
H355 C335 0.930 . S
H356 C343 0.931 . S
H357 C344 0.929 . S
H358 C352 0.929 . S
H359 C353 0.930 . S
Mn360 O365 2.095 . S
Mn360 O375 2.162 . S
Mn360 O376 2.297 . S
Mn360 O384 2.385 . S
Mn360 O385 2.209 . S
Mn360 O386 2.094 . S
Mn361 O366 2.121 . S
Mn361 N368 2.257 1_655 S
Mn361 N377 2.282 1_655 S
Mn361 O385 2.215 . S
Mn361 O387 2.117 . S
C362 O384 1.234 . S
C362 O385 1.283 . S
C363 O375 1.281 . S
C363 O376 1.236 . S
C364 O386 1.240 . S
C364 O387 1.264 . S
O365 Mn360 2.095 . S
O365 C374 1.250 . S
O366 Mn361 2.121 . S
O366 C374 1.258 . S
C367 N368 1.326 . S
C367 C371 1.460 . S
C367 H373 0.929 . S
N368 Mn361 2.257 1_455 S
N368 C367 1.326 . S
N368 C372 1.362 . S
C369 C370 1.258 . S
C369 C372 1.431 . S
C369 C389 1.449 . S
C370 C369 1.258 . S
C370 C371 1.477 . S
C370 H390 0.931 . S
C371 C367 1.460 . S
C371 C370 1.477 . S
C371 H391 0.930 . S
C372 N368 1.362 . S
C372 C369 1.431 . S
C372 C382 1.476 . S
H373 C367 0.929 . S
C374 O365 1.250 . S
C374 O366 1.258 . S
O375 Mn360 2.162 . S
O375 C363 1.281 . S
O376 Mn360 2.297 . S
O376 C363 1.236 . S
N377 Mn361 2.282 1_455 S
N377 C378 1.328 . S
N377 C382 1.318 . S
C378 N377 1.328 . S
C378 C379 1.457 . S
C378 H383 0.929 . S
C379 C378 1.457 . S
C379 C380 1.291 . S
C379 H392 0.931 . S
C380 C379 1.291 . S
C380 C381 1.373 . S
C380 H393 0.929 . S
C381 C380 1.373 . S
C381 C382 1.396 . S
C381 C388 1.403 . S
C382 C372 1.476 . S
C382 N377 1.318 . S
C382 C381 1.396 . S
H383 C378 0.929 . S
O384 Mn360 2.385 . S
O384 C362 1.234 . S
O385 Mn360 2.209 . S
O385 Mn361 2.215 . S
O385 C362 1.283 . S
O386 Mn360 2.094 . S
O386 C364 1.240 . S
O387 Mn361 2.117 . S
O387 C364 1.264 . S
C388 C381 1.403 . S
C388 C389 1.399 . S
C388 H394 0.929 . S
C389 C369 1.449 . S
C389 C388 1.399 . S
C389 H395 0.930 . S
H390 C370 0.931 . S
H391 C371 0.930 . S
H392 C379 0.931 . S
H393 C380 0.929 . S
H394 C388 0.929 . S
H395 C389 0.930 . S
Mn396 O401 2.095 . S
Mn396 O411 2.162 . S
Mn396 O412 2.297 . S
Mn396 O420 2.385 . S
Mn396 O421 2.209 . S
Mn396 O422 2.094 . S
Mn397 O402 2.121 . S
Mn397 N404 2.257 1_565 S
Mn397 N413 2.282 1_565 S
Mn397 O421 2.215 . S
Mn397 O423 2.117 . S
C398 O420 1.234 . S
C398 O421 1.283 . S
C399 O411 1.281 . S
C399 O412 1.236 . S
C400 O422 1.240 . S
C400 O423 1.264 . S
O401 Mn396 2.095 . S
O401 C410 1.250 . S
O402 Mn397 2.121 . S
O402 C410 1.258 . S
C403 N404 1.326 . S
C403 C407 1.460 . S
C403 H409 0.929 . S
N404 Mn397 2.257 1_545 S
N404 C403 1.326 . S
N404 C408 1.362 . S
C405 C406 1.258 . S
C405 C408 1.431 . S
C405 C425 1.449 . S
C406 C405 1.258 . S
C406 C407 1.477 . S
C406 H426 0.931 . S
C407 C403 1.460 . S
C407 C406 1.477 . S
C407 H427 0.930 . S
C408 N404 1.362 . S
C408 C405 1.431 . S
C408 C418 1.476 . S
H409 C403 0.929 . S
C410 O401 1.250 . S
C410 O402 1.258 . S
O411 Mn396 2.162 . S
O411 C399 1.281 . S
O412 Mn396 2.297 . S
O412 C399 1.236 . S
N413 Mn397 2.282 1_545 S
N413 C414 1.328 . S
N413 C418 1.318 . S
C414 N413 1.328 . S
C414 C415 1.457 . S
C414 H419 0.929 . S
C415 C414 1.457 . S
C415 C416 1.291 . S
C415 H428 0.931 . S
C416 C415 1.291 . S
C416 C417 1.373 . S
C416 H429 0.929 . S
C417 C416 1.373 . S
C417 C418 1.396 . S
C417 C424 1.403 . S
C418 C408 1.476 . S
C418 N413 1.318 . S
C418 C417 1.396 . S
H419 C414 0.929 . S
O420 Mn396 2.385 . S
O420 C398 1.234 . S
O421 Mn396 2.209 . S
O421 Mn397 2.215 . S
O421 C398 1.283 . S
O422 Mn396 2.094 . S
O422 C400 1.240 . S
O423 Mn397 2.117 . S
O423 C400 1.264 . S
C424 C417 1.403 . S
C424 C425 1.399 . S
C424 H430 0.929 . S
C425 C405 1.449 . S
C425 C424 1.399 . S
C425 H431 0.930 . S
H426 C406 0.931 . S
H427 C407 0.930 . S
H428 C415 0.931 . S
H429 C416 0.929 . S
H430 C424 0.929 . S
H431 C425 0.930 . S
H432 C438 0.930 . S
H433 C442 0.930 . S
H434 C447 0.929 . S
H435 C445 0.929 . S
H436 C440 0.929 . S
H437 C446 0.929 . S
C438 H432 0.930 . S
C438 C439 1.367 . S
C438 C446 1.378 . S
C439 C438 1.367 . S
C439 C447 1.433 . S
C440 H436 0.929 . S
C440 C442 1.378 . S
C440 C444 1.350 . S
C441 C444 1.463 . S
C441 C446 1.350 . S
C441 N449 1.427 . S
C442 H433 0.930 . S
C442 C440 1.378 . S
C442 C443 1.367 . S
C443 C442 1.367 . S
C443 C445 1.433 . S
C444 C440 1.350 . S
C444 C441 1.463 . S
C444 N448 1.427 . S
C445 H435 0.929 . S
C445 C443 1.433 . S
C445 N448 1.384 . S
C446 H437 0.929 . S
C446 C438 1.378 . S
C446 C441 1.350 . S
C447 H434 0.929 . S
C447 C439 1.433 . S
C447 N449 1.384 . S
N448 C444 1.427 . S
N448 C445 1.384 . S
N449 C441 1.427 . S
N449 C447 1.384 . S
H450 C456 0.930 1_655 S
H451 C460 0.930 1_455 S
H452 C465 0.929 . S
H453 C463 0.929 . S
H454 C458 0.929 . S
H455 C464 0.929 . S
C456 H450 0.930 1_455 S
C456 C457 1.367 . S
C456 C464 1.378 1_455 S
C457 C456 1.367 . S
C457 C465 1.433 . S
C458 H454 0.929 . S
C458 C460 1.378 1_455 S
C458 C462 1.350 1_455 S
C459 C462 1.463 1_455 S
C459 C464 1.350 1_455 S
C459 N467 1.427 . S
C460 H451 0.930 1_655 S
C460 C458 1.378 1_655 S
C460 C461 1.367 . S
C461 C460 1.367 . S
C461 C463 1.433 . S
C462 C458 1.350 1_655 S
C462 C459 1.463 1_655 S
C462 N466 1.427 . S
C463 H453 0.929 . S
C463 C461 1.433 . S
C463 N466 1.384 . S
C464 H455 0.929 . S
C464 C456 1.378 1_655 S
C464 C459 1.350 1_655 S
C465 H452 0.929 . S
C465 C457 1.433 . S
C465 N467 1.384 . S
N466 C462 1.427 . S
N466 C463 1.384 . S
N467 C459 1.427 . S
N467 C465 1.384 . S
H468 C474 0.930 . S
H469 C478 0.930 . S
H470 C483 0.929 . S
H471 C481 0.929 . S
H472 C476 0.929 . S
H473 C482 0.929 . S
C474 H468 0.930 . S
C474 C475 1.367 . S
C474 C482 1.378 1_565 S
C475 C474 1.367 . S
C475 C483 1.433 . S
C476 H472 0.929 . S
C476 C478 1.378 1_565 S
C476 C480 1.350 1_565 S
C477 C480 1.463 1_565 S
C477 C482 1.350 1_565 S
C477 N485 1.427 . S
C478 H469 0.930 . S
C478 C476 1.378 1_545 S
C478 C479 1.367 . S
C479 C478 1.367 . S
C479 C481 1.433 . S
C480 C476 1.350 1_545 S
C480 C477 1.463 1_545 S
C480 N484 1.427 . S
C481 H471 0.929 . S
C481 C479 1.433 . S
C481 N484 1.384 . S
C482 H473 0.929 . S
C482 C474 1.378 1_545 S
C482 C477 1.350 1_545 S
C483 H470 0.929 . S
C483 C475 1.433 . S
C483 N485 1.384 . S
N484 C480 1.427 . S
N484 C481 1.384 . S
N485 C477 1.427 . S
N485 C483 1.384 . S
H486 C492 0.930 . S
H487 C496 0.930 . S
H488 C501 0.929 . S
H489 C499 0.929 . S
H490 C494 0.929 . S
H491 C500 0.929 . S
C492 H486 0.930 . S
C492 C493 1.367 . S
C492 C500 1.378 . S
C493 C492 1.367 . S
C493 C501 1.433 . S
C494 H490 0.929 . S
C494 C496 1.378 . S
C494 C498 1.350 . S
C495 C498 1.463 . S
C495 C500 1.350 . S
C495 N503 1.427 . S
C496 H487 0.930 . S
C496 C494 1.378 . S
C496 C497 1.367 . S
C497 C496 1.367 . S
C497 C499 1.433 . S
C498 C494 1.350 . S
C498 C495 1.463 . S
C498 N502 1.427 . S
C499 H489 0.929 . S
C499 C497 1.433 . S
C499 N502 1.384 . S
C500 H491 0.929 . S
C500 C492 1.378 . S
C500 C495 1.350 . S
C501 H488 0.929 . S
C501 C493 1.433 . S
C501 N503 1.384 . S
N502 C498 1.427 . S
N502 C499 1.384 . S
N503 C495 1.427 . S
N503 C501 1.384 . S
H504 C510 0.930 . S
H505 C514 0.930 . S
H506 C519 0.929 . S
H507 C517 0.929 . S
H508 C512 0.929 . S
H509 C518 0.929 . S
C510 H504 0.930 . S
C510 C511 1.367 . S
C510 C518 1.378 . S
C511 C510 1.367 . S
C511 C519 1.433 . S
C512 H508 0.929 . S
C512 C514 1.378 . S
C512 C516 1.350 . S
C513 C516 1.463 1_655 S
C513 C518 1.350 . S
C513 N521 1.441 . S
C514 H505 0.930 . S
C514 C512 1.378 . S
C514 C515 1.367 . S
C515 C514 1.367 . S
C515 C517 1.433 . S
C516 C512 1.350 . S
C516 C513 1.463 1_455 S
C516 N520 1.441 . S
C517 H507 0.929 . S
C517 C515 1.433 . S
C517 N520 1.383 . S
C518 H509 0.929 . S
C518 C510 1.378 . S
C518 C513 1.350 . S
C519 H506 0.929 . S
C519 C511 1.433 . S
C519 N521 1.383 . S
N520 C516 1.441 . S
N520 C517 1.383 . S
N521 C513 1.441 . S
N521 C519 1.383 . S
H522 C528 0.930 . S
H523 C532 0.930 . S
H524 C537 0.929 1_565 S
H525 C535 0.929 1_545 S
H526 C530 0.929 . S
H527 C536 0.929 . S
C528 H522 0.930 . S
C528 C529 1.367 . S
C528 C536 1.378 . S
C529 C528 1.367 . S
C529 C537 1.433 . S
C530 H526 0.929 . S
C530 C532 1.378 . S
C530 C534 1.350 . S
C531 C534 1.463 1_545 S
C531 C536 1.350 . S
C531 N539 1.427 1_545 S
C532 H523 0.930 . S
C532 C530 1.378 . S
C532 C533 1.367 . S
C533 C532 1.367 . S
C533 C535 1.433 . S
C534 C530 1.350 . S
C534 C531 1.463 1_565 S
C534 N538 1.427 1_565 S
C535 H525 0.929 1_565 S
C535 C533 1.433 . S
C535 N538 1.384 1_565 S
C536 H527 0.929 . S
C536 C528 1.378 . S
C536 C531 1.350 . S
C537 H524 0.929 1_545 S
C537 C529 1.433 . S
C537 N539 1.384 1_545 S
N538 C534 1.427 1_545 S
N538 C535 1.384 1_545 S
N539 C531 1.427 1_565 S
N539 C537 1.384 1_565 S
H540 C546 0.930 . S
H541 C550 0.930 . S
H542 C555 0.929 . S
H543 C553 0.929 . S
H544 C548 0.929 . S
H545 C554 0.929 . S
C546 H540 0.930 . S
C546 C547 1.367 . S
C546 C554 1.378 . S
C547 C546 1.367 . S
C547 C555 1.433 . S
C548 H544 0.929 . S
C548 C550 1.378 . S
C548 C552 1.350 . S
C549 C552 1.463 . S
C549 C554 1.350 . S
C549 N557 1.427 . S
C550 H541 0.930 . S
C550 C548 1.378 . S
C550 C551 1.367 . S
C551 C550 1.367 . S
C551 C553 1.433 . S
C552 C548 1.350 . S
C552 C549 1.463 . S
C552 N556 1.427 . S
C553 H543 0.929 . S
C553 C551 1.433 . S
C553 N556 1.384 . S
C554 H545 0.929 . S
C554 C546 1.378 . S
C554 C549 1.350 . S
C555 H542 0.929 . S
C555 C547 1.433 . S
C555 N557 1.384 . S
N556 C552 1.427 . S
N556 C553 1.384 . S
N557 C549 1.427 . S
N557 C555 1.384 . S
H558 C564 0.930 . S
H559 C568 0.930 . S
H560 C573 0.929 . S
H561 C571 0.929 . S
H562 C566 0.929 . S
H563 C572 0.929 . S
C564 H558 0.930 . S
C564 C565 1.367 . S
C564 C572 1.378 . S
C565 C564 1.367 . S
C565 C573 1.433 . S
C566 H562 0.929 . S
C566 C568 1.378 . S
C566 C570 1.350 . S
C567 C570 1.463 . S
C567 C572 1.350 . S
C567 N575 1.427 . S
C568 H559 0.930 . S
C568 C566 1.378 . S
C568 C569 1.367 . S
C569 C568 1.367 . S
C569 C571 1.433 . S
C570 C566 1.350 . S
C570 C567 1.463 . S
C570 N574 1.427 . S
C571 H561 0.929 . S
C571 C569 1.433 . S
C571 N574 1.384 . S
C572 H563 0.929 . S
C572 C564 1.378 . S
C572 C567 1.350 . S
C573 H560 0.929 . S
C573 C565 1.433 . S
C573 N575 1.384 . S
N574 C570 1.427 . S
N574 C571 1.384 . S
N575 C567 1.427 . S
N575 C573 1.384 . S
H576 C582 0.930 . S
H577 C586 0.930 . S
H578 C591 0.929 . S
H579 C589 0.929 . S
H580 C584 0.929 . S
H581 C590 0.929 . S
C582 H576 0.930 . S
C582 C583 1.367 . S
C582 C590 1.378 . S
C583 C582 1.367 . S
C583 C591 1.433 . S
C584 H580 0.929 . S
C584 C586 1.378 . S
C584 C588 1.350 . S
C585 C588 1.463 . S
C585 C590 1.350 . S
C585 N593 1.427 . S
C586 H577 0.930 . S
C586 C584 1.378 . S
C586 C587 1.367 . S
C587 C586 1.367 . S
C587 C589 1.433 . S
C588 C584 1.350 . S
C588 C585 1.463 . S
C588 N592 1.427 . S
C589 H579 0.929 . S
C589 C587 1.433 . S
C589 N592 1.384 . S
C590 H581 0.929 . S
C590 C582 1.378 . S
C590 C585 1.350 . S
C591 H578 0.929 . S
C591 C583 1.433 . S
C591 N593 1.384 . S
N592 C588 1.427 . S
N592 C589 1.384 . S
N593 C585 1.427 . S
N593 C591 1.384 . S
H594 C600 0.930 . S
H595 C604 0.930 . S
H596 C609 0.929 . S
H597 C607 0.929 . S
H598 C602 0.929 . S
H599 C608 0.929 . S
C600 H594 0.930 . S
C600 C601 1.367 . S
C600 C608 1.378 . S
C601 C600 1.367 . S
C601 C609 1.433 . S
C602 H598 0.929 . S
C602 C604 1.378 . S
C602 C606 1.350 . S
C603 C606 1.463 . S
C603 C608 1.350 . S
C603 N611 1.427 . S
C604 H595 0.930 . S
C604 C602 1.378 . S
C604 C605 1.367 . S
C605 C604 1.367 . S
C605 C607 1.433 . S
C606 C602 1.350 . S
C606 C603 1.463 . S
C606 N610 1.427 . S
C607 H597 0.929 . S
C607 C605 1.433 . S
C607 N610 1.384 . S
C608 H599 0.929 . S
C608 C600 1.378 . S
C608 C603 1.350 . S
C609 H596 0.929 . S
C609 C601 1.433 . S
C609 N611 1.384 . S
N610 C606 1.427 . S
N610 C607 1.384 . S
N611 C603 1.427 . S
N611 C609 1.384 . S
H612 C618 0.930 . S
H613 C622 0.930 . S
H614 C627 0.929 . S
H615 C625 0.929 . S
H616 C620 0.929 . S
H617 C626 0.929 . S
C618 H612 0.930 . S
C618 C619 1.367 . S
C618 C626 1.378 . S
C619 C618 1.367 . S
C619 C627 1.433 . S
C620 H616 0.929 . S
C620 C622 1.378 . S
C620 C624 1.350 . S
C621 C624 1.463 . S
C621 C626 1.350 . S
C621 N629 1.427 . S
C622 H613 0.930 . S
C622 C620 1.378 . S
C622 C623 1.367 . S
C623 C622 1.367 . S
C623 C625 1.433 . S
C624 C620 1.350 . S
C624 C621 1.463 . S
C624 N628 1.427 . S
C625 H615 0.929 . S
C625 C623 1.433 . S
C625 N628 1.384 . S
C626 H617 0.929 . S
C626 C618 1.378 . S
C626 C621 1.350 . S
C627 H614 0.929 . S
C627 C619 1.433 . S
C627 N629 1.384 . S
N628 C624 1.427 . S
N628 C625 1.384 . S
N629 C621 1.427 . S
N629 C627 1.384 . S
H630 C636 0.930 . S
H631 C640 0.930 . S
H632 C645 0.929 . S
H633 C643 0.929 . S
H634 C638 0.929 . S
H635 C644 0.929 . S
C636 H630 0.930 . S
C636 C637 1.367 . S
C636 C644 1.378 . S
C637 C636 1.367 . S
C637 C645 1.433 . S
C638 H634 0.929 . S
C638 C640 1.378 . S
C638 C642 1.350 . S
C639 C642 1.463 . S
C639 C644 1.350 . S
C639 N647 1.427 . S
C640 H631 0.930 . S
C640 C638 1.378 . S
C640 C641 1.367 . S
C641 C640 1.367 . S
C641 C643 1.433 . S
C642 C638 1.350 . S
C642 C639 1.463 . S
C642 N646 1.427 . S
C643 H633 0.929 . S
C643 C641 1.433 . S
C643 N646 1.384 . S
C644 H635 0.929 . S
C644 C636 1.378 . S
C644 C639 1.350 . S
C645 H632 0.929 . S
C645 C637 1.433 . S
C645 N647 1.384 . S
N646 C642 1.427 . S
N646 C643 1.384 . S
N647 C639 1.427 . S
N647 C645 1.384 . S
H648 C654 0.930 . S
H649 C658 0.930 . S
H650 C663 0.929 . S
H651 C661 0.929 . S
H652 C656 0.929 . S
H653 C662 0.929 . S
C654 H648 0.930 . S
C654 C655 1.367 1_554 S
C654 C662 1.378 . S
C655 C654 1.367 1_556 S
C655 C663 1.433 . S
C656 H652 0.929 . S
C656 C658 1.378 . S
C656 C660 1.350 1_556 S
C657 C660 1.463 1_566 S
C657 C662 1.350 1_556 S
C657 N665 1.427 . S
C658 H649 0.930 . S
C658 C656 1.378 . S
C658 C659 1.367 1_556 S
C659 C658 1.367 1_554 S
C659 C661 1.433 . S
C660 C656 1.350 1_554 S
C660 C657 1.463 1_544 S
C660 N664 1.427 . S
C661 H651 0.929 . S
C661 C659 1.433 . S
C661 N664 1.384 . S
C662 H653 0.929 . S
C662 C654 1.378 . S
C662 C657 1.350 1_554 S
C663 H650 0.929 . S
C663 C655 1.433 . S
C663 N665 1.384 . S
N664 C660 1.427 . S
N664 C661 1.384 . S
N665 C657 1.427 . S
N665 C663 1.384 . S
H666 C672 0.930 . S
H667 C676 0.930 . S
H668 C681 0.929 . S
H669 C679 0.929 . S
H670 C674 0.929 . S
H671 C680 0.929 . S
C672 H666 0.930 . S
C672 C673 1.367 . S
C672 C680 1.378 . S
C673 C672 1.367 . S
C673 C681 1.433 . S
C674 H670 0.929 . S
C674 C676 1.378 . S
C674 C678 1.350 . S
C675 C678 1.463 . S
C675 C680 1.350 . S
C675 N683 1.427 . S
C676 H667 0.930 . S
C676 C674 1.378 . S
C676 C677 1.367 . S
C677 C676 1.367 . S
C677 C679 1.433 . S
C678 C674 1.350 . S
C678 C675 1.463 . S
C678 N682 1.427 . S
C679 H669 0.929 . S
C679 C677 1.433 . S
C679 N682 1.384 . S
C680 H671 0.929 . S
C680 C672 1.378 . S
C680 C675 1.350 . S
C681 H668 0.929 . S
C681 C673 1.433 . S
C681 N683 1.384 . S
N682 C678 1.427 . S
N682 C679 1.384 . S
N683 C675 1.427 . S
N683 C681 1.384 . S
H684 C690 0.930 . S
H685 C694 0.930 . S
H686 C699 0.929 . S
H687 C697 0.929 . S
H688 C692 0.929 . S
H689 C698 0.929 . S
C690 H684 0.930 . S
C690 C691 1.367 . S
C690 C698 1.378 . S
C691 C690 1.367 . S
C691 C699 1.433 . S
C692 H688 0.929 . S
C692 C694 1.378 . S
C692 C696 1.350 . S
C693 C696 1.463 1_655 S
C693 C698 1.350 . S
C693 N701 1.427 . S
C694 H685 0.930 . S
C694 C692 1.378 . S
C694 C695 1.367 . S
C695 C694 1.367 . S
C695 C697 1.433 . S
C696 C692 1.350 . S
C696 C693 1.463 1_455 S
C696 N700 1.427 . S
C697 H687 0.929 . S
C697 C695 1.433 . S
C697 N700 1.384 . S
C698 H689 0.929 . S
C698 C690 1.378 . S
C698 C693 1.350 . S
C699 H686 0.929 . S
C699 C691 1.433 . S
C699 N701 1.384 . S
N700 C696 1.427 . S
N700 C697 1.384 . S
N701 C693 1.427 . S
N701 C699 1.384 . S
H702 C708 0.916 1_556 S
H703 C712 0.930 . S
H704 C717 0.929 . S
H705 C715 0.929 . S
H706 C710 0.929 . S
H707 C716 0.929 . S
C708 H702 0.916 1_554 S
C708 C709 1.390 . S
C708 C716 1.369 1_554 S
C709 C708 1.390 . S
C709 C717 1.433 . S
C710 H706 0.929 . S
C710 C712 1.378 . S
C710 C714 1.350 1_554 S
C711 C714 1.463 1_564 S
C711 C716 1.350 1_554 S
C711 N719 1.427 . S
C712 H703 0.930 . S
C712 C710 1.378 . S
C712 C713 1.367 1_554 S
C713 C712 1.367 1_556 S
C713 C715 1.433 . S
C714 C710 1.350 1_556 S
C714 C711 1.463 1_546 S
C714 N718 1.427 . S
C715 H705 0.929 . S
C715 C713 1.433 . S
C715 N718 1.384 . S
C716 H707 0.929 . S
C716 C708 1.369 1_556 S
C716 C711 1.350 1_556 S
C717 H704 0.929 . S
C717 C709 1.433 . S
C717 N719 1.384 . S
N718 C714 1.427 . S
N718 C715 1.384 . S
N719 C711 1.427 . S
N719 C717 1.384 . S
H720 C726 0.930 . S
H721 C730 0.930 . S
H722 C735 0.929 . S
H723 C733 0.929 . S
H724 C728 0.929 . S
H725 C734 0.929 . S
C726 H720 0.930 . S
C726 C727 1.367 . S
C726 C734 1.378 . S
C727 C726 1.367 . S
C727 C735 1.433 . S
C728 H724 0.929 . S
C728 C730 1.378 . S
C728 C732 1.350 . S
C729 C732 1.463 . S
C729 C734 1.350 . S
C729 N737 1.427 . S
C730 H721 0.930 . S
C730 C728 1.378 . S
C730 C731 1.367 . S
C731 C730 1.367 . S
C731 C733 1.433 . S
C732 C728 1.350 . S
C732 C729 1.463 . S
C732 N736 1.427 . S
C733 H723 0.929 . S
C733 C731 1.433 . S
C733 N736 1.384 . S
C734 H725 0.929 . S
C734 C726 1.378 . S
C734 C729 1.350 . S
C735 H722 0.929 . S
C735 C727 1.433 . S
C735 N737 1.384 . S
N736 C732 1.427 . S
N736 C733 1.384 . S
N737 C729 1.427 . S
N737 C735 1.384 . S
H738 C744 0.930 . S
H739 C748 0.930 . S
H740 C753 0.929 . S
H741 C751 0.929 . S
H742 C746 0.929 . S
H743 C752 0.929 . S
C744 H738 0.930 . S
C744 C745 1.367 . S
C744 C752 1.378 . S
C745 C744 1.367 . S
C745 C753 1.433 . S
C746 H742 0.929 . S
C746 C748 1.378 . S
C746 C750 1.350 . S
C747 C750 1.463 1_455 S
C747 C752 1.350 . S
C747 N755 1.427 . S
C748 H739 0.930 . S
C748 C746 1.378 . S
C748 C749 1.367 . S
C749 C748 1.367 . S
C749 C751 1.433 . S
C750 C746 1.350 . S
C750 C747 1.463 1_655 S
C750 N754 1.427 . S
C751 H741 0.929 . S
C751 C749 1.433 . S
C751 N754 1.384 . S
C752 H743 0.929 . S
C752 C744 1.378 . S
C752 C747 1.350 . S
C753 H740 0.929 . S
C753 C745 1.433 . S
C753 N755 1.384 . S
N754 C750 1.427 . S
N754 C751 1.384 . S
N755 C747 1.427 . S
N755 C753 1.384 . S
H756 C762 0.930 . S
H757 C766 0.930 . S
H758 C771 0.929 1_655 S
H759 C769 0.929 . S
H760 C764 0.929 . S
H761 C770 0.929 . S
C762 H756 0.930 . S
C762 C763 1.367 . S
C762 C770 1.378 . S
C763 C762 1.367 . S
C763 C771 1.433 . S
C764 H760 0.929 . S
C764 C766 1.378 . S
C764 C768 1.350 . S
C765 C768 1.463 1_556 S
C765 C770 1.350 . S
C765 N773 1.427 . S
C766 H757 0.930 . S
C766 C764 1.378 . S
C766 C767 1.367 . S
C767 C766 1.367 . S
C767 C769 1.433 . S
C768 C764 1.350 . S
C768 C765 1.463 1_554 S
C768 N772 1.427 . S
C769 H759 0.929 . S
C769 C767 1.433 . S
C769 N772 1.384 . S
C770 H761 0.929 . S
C770 C762 1.378 . S
C770 C765 1.350 . S
C771 H758 0.929 1_455 S
C771 C763 1.433 . S
C771 N773 1.384 . S
N772 C768 1.427 . S
N772 C769 1.384 . S
N773 C765 1.427 . S
N773 C771 1.384 . S
H774 C780 0.930 1_565 S
H775 C784 0.930 . S
H776 C789 0.929 . S
H777 C787 0.929 . S
H778 C782 0.929 . S
H779 C788 0.929 . S
C780 H774 0.930 1_545 S
C780 C781 1.367 . S
C780 C788 1.378 . S
C781 C780 1.367 . S
C781 C789 1.433 . S
C782 H778 0.929 . S
C782 C784 1.378 . S
C782 C786 1.350 . S
C783 C786 1.463 . S
C783 C788 1.350 . S
C783 N791 1.427 . S
C784 H775 0.930 . S
C784 C782 1.378 . S
C784 C785 1.367 . S
C785 C784 1.367 . S
C785 C787 1.433 . S
C786 C782 1.350 . S
C786 C783 1.463 . S
C786 N790 1.427 . S
C787 H777 0.929 . S
C787 C785 1.433 . S
C787 N790 1.384 . S
C788 H779 0.929 . S
C788 C780 1.378 . S
C788 C783 1.350 . S
C789 H776 0.929 . S
C789 C781 1.433 . S
C789 N791 1.384 . S
N790 C786 1.427 . S
N790 C787 1.384 . S
N791 C783 1.427 . S
N791 C789 1.384 . S
H792 C798 0.930 . S
H793 C802 0.930 . S
H794 C807 0.929 . S
H795 C805 0.929 . S
H796 C800 0.929 . S
H797 C806 0.929 . S
C798 H792 0.930 . S
C798 C799 1.367 . S
C798 C806 1.378 . S
C799 C798 1.367 . S
C799 C807 1.433 . S
C800 H796 0.929 . S
C800 C802 1.378 . S
C800 C804 1.350 . S
C801 C804 1.463 . S
C801 C806 1.350 . S
C801 N809 1.427 . S
C802 H793 0.930 . S
C802 C800 1.378 . S
C802 C803 1.367 . S
C803 C802 1.367 . S
C803 C805 1.433 . S
C804 C800 1.350 . S
C804 C801 1.463 . S
C804 N808 1.427 . S
C805 H795 0.929 . S
C805 C803 1.433 . S
C805 N808 1.384 . S
C806 H797 0.929 . S
C806 C798 1.378 . S
C806 C801 1.350 . S
C807 H794 0.929 . S
C807 C799 1.433 . S
C807 N809 1.384 . S
N808 C804 1.427 . S
N808 C805 1.384 . S
N809 C801 1.427 . S
N809 C807 1.384 . S
H810 C816 0.930 . S
H811 C820 0.930 1_455 S
H812 C825 0.929 . S
H813 C823 0.929 . S
H814 C818 0.929 . S
H815 C824 0.929 1_556 S
C816 H810 0.930 . S
C816 C817 1.367 . S
C816 C824 1.378 . S
C817 C816 1.367 . S
C817 C825 1.433 . S
C818 H814 0.929 . S
C818 C820 1.378 1_554 S
C818 C822 1.350 1_554 S
C819 C822 1.463 1_554 S
C819 C824 1.350 . S
C819 N827 1.427 . S
C820 H811 0.930 1_655 S
C820 C818 1.378 1_556 S
C820 C821 1.367 . S
C821 C820 1.367 . S
C821 C823 1.433 . S
C822 C818 1.350 1_556 S
C822 C819 1.463 1_556 S
C822 N826 1.427 . S
C823 H813 0.929 . S
C823 C821 1.433 . S
C823 N826 1.384 . S
C824 H815 0.929 1_554 S
C824 C816 1.378 . S
C824 C819 1.350 . S
C825 H812 0.929 . S
C825 C817 1.433 . S
C825 N827 1.384 . S
N826 C822 1.427 . S
N826 C823 1.384 . S
N827 C819 1.427 . S
N827 C825 1.384 . S
H828 C834 0.930 . S
H829 C838 0.930 . S
H830 C843 0.929 1_655 S
H831 C841 0.929 . S
H832 C836 0.929 . S
H833 C842 0.929 . S
C834 H828 0.930 . S
C834 C835 1.367 . S
C834 C842 1.378 . S
C835 C834 1.367 . S
C835 C843 1.433 . S
C836 H832 0.929 . S
C836 C838 1.378 . S
C836 C840 1.350 . S
C837 C840 1.463 . S
C837 C842 1.350 . S
C837 N845 1.427 . S
C838 H829 0.930 . S
C838 C836 1.378 . S
C838 C839 1.367 . S
C839 C838 1.367 . S
C839 C841 1.433 . S
C840 C836 1.350 . S
C840 C837 1.463 . S
C840 N844 1.427 . S
C841 H831 0.929 . S
C841 C839 1.433 . S
C841 N844 1.384 . S
C842 H833 0.929 . S
C842 C834 1.378 . S
C842 C837 1.350 . S
C843 H830 0.929 1_455 S
C843 C835 1.433 . S
C843 N845 1.384 . S
N844 C840 1.427 . S
N844 C841 1.384 . S
N845 C837 1.427 . S
N845 C843 1.384 . S
H846 C852 0.930 . S
H847 C856 0.930 . S
H848 C861 0.929 . S
H849 C859 0.929 . S
H850 C854 0.929 . S
H851 C860 0.929 . S
C852 H846 0.930 . S
C852 C853 1.367 . S
C852 C860 1.378 . S
C853 C852 1.367 . S
C853 C861 1.433 . S
C854 H850 0.929 . S
C854 C856 1.378 . S
C854 C858 1.350 . S
C855 C858 1.463 . S
C855 C860 1.350 . S
C855 N863 1.427 . S
C856 H847 0.930 . S
C856 C854 1.378 . S
C856 C857 1.367 . S
C857 C856 1.367 . S
C857 C859 1.433 . S
C858 C854 1.350 . S
C858 C855 1.463 . S
C858 N862 1.427 . S
C859 H849 0.929 . S
C859 C857 1.433 . S
C859 N862 1.384 . S
C860 H851 0.929 . S
C860 C852 1.378 . S
C860 C855 1.350 . S
C861 H848 0.929 . S
C861 C853 1.433 . S
C861 N863 1.384 . S
N862 C858 1.427 . S
N862 C859 1.384 . S
N863 C855 1.427 . S
N863 C861 1.384 . S
C439 C112 1.339 . S
C443 C4 1.343 . S
C457 C40 1.330 . S
C461 C148 1.329 . S
C475 C184 1.333 . S
C479 C76 1.330 . S
C493 C220 1.338 . S
C497 C328 1.343 . S
C511 C364 1.339 . S
C515 C256 1.343 . S
C529 C292 1.345 . S
C533 C400 1.344 . S
C547 C302 1.577 . S
C551 C14 1.577 . S
C565 C50 1.573 . S
C569 C338 1.573 . S
C583 C86 1.576 . S
C587 C374 1.575 . S
C601 C122 1.575 . S
C605 C410 1.575 . S
C619 C230 1.568 . S
C623 C158 1.568 . S
C637 C266 1.574 . S
C641 C194 1.573 . S
C655 C255 1.084 . S
C659 C3 1.082 . S
C673 C39 1.077 . S
C677 C291 1.085 . S
C691 C75 1.081 . S
C695 C327 1.074 . S
C709 C111 1.085 . S
C713 C363 1.080 . S
C727 C399 1.080 . S
C731 C147 1.085 . S
C745 C183 1.079 . S
C749 C219 1.074 . S
C763 C362 1.507 1_455 S
C767 C2 1.506 . S
C781 C398 1.503 1_545 S
C785 C38 1.504 1_655 S
C799 C218 1.504 . S
C803 C74 1.505 1_565 S
C817 C110 1.504 . S
C821 C254 1.503 1_655 S
C835 C146 1.510 1_455 S
C839 C290 1.510 1_565 S
C853 C182 1.509 1_545 S
C857 C326 1.510 . S
