# Generated by pormake.
# Topology vbm, (6)-cn, num edge types: 1
# Building blocks:
#     Node 0, Type 0, BuildingBlock: CUWYAW_clean_sbu_0, # of connection points: 6
#     Node 1, Type 0, BuildingBlock: CUWYAW_clean_sbu_0, # of connection points: 6
#     Node 2, Type 0, BuildingBlock: CUWYAW_clean_sbu_0, # of connection points: 6
#     Node 3, Type 0, BuildingBlock: CUWYAW_clean_sbu_0, # of connection points: 6
#     Node 4, Type 0, BuildingBlock: CUWYAW_clean_sbu_0, # of connection points: 6
#     Node 5, Type 0, BuildingBlock: CUWYAW_clean_sbu_0, # of connection points: 6
#     Node 6, Type 0, BuildingBlock: CUWYAW_clean_sbu_0, # of connection points: 6
#     Node 7, Type 0, BuildingBlock: CUWYAW_clean_sbu_0, # of connection points: 6
#     Node 8, Type 0, BuildingBlock: CUWYAW_clean_sbu_0, # of connection points: 6
#     Node 9, Type 0, BuildingBlock: CUWYAW_clean_sbu_0, # of connection points: 6
#     Node 10, Type 0, BuildingBlock: CUWYAW_clean_sbu_0, # of connection points: 6
#     Node 11, Type 0, BuildingBlock: CUWYAW_clean_sbu_0, # of connection points: 6
#     Node 12, Type 0, BuildingBlock: CUWYAW_clean_sbu_0, # of connection points: 6
#     Node 13, Type 0, BuildingBlock: CUWYAW_clean_sbu_0, # of connection points: 6
#     Node 14, Type 0, BuildingBlock: CUWYAW_clean_sbu_0, # of connection points: 6
#     Node 15, Type 0, BuildingBlock: CUWYAW_clean_sbu_0, # of connection points: 6
#     Edge 16, Type (0, 0), None
#     Edge 17, Type (0, 0), None
#     Edge 18, Type (0, 0), None
#     Edge 19, Type (0, 0), None
#     Edge 20, Type (0, 0), None
#     Edge 21, Type (0, 0), None
#     Edge 22, Type (0, 0), None
#     Edge 23, Type (0, 0), None
#     Edge 24, Type (0, 0), None
#     Edge 25, Type (0, 0), None
#     Edge 26, Type (0, 0), None
#     Edge 27, Type (0, 0), None
#     Edge 28, Type (0, 0), None
#     Edge 29, Type (0, 0), None
#     Edge 30, Type (0, 0), None
#     Edge 31, Type (0, 0), None
#     Edge 32, Type (0, 0), None
#     Edge 33, Type (0, 0), None
#     Edge 34, Type (0, 0), None
#     Edge 35, Type (0, 0), None
#     Edge 36, Type (0, 0), None
#     Edge 37, Type (0, 0), None
#     Edge 38, Type (0, 0), None
#     Edge 39, Type (0, 0), None
#     Edge 40, Type (0, 0), None
#     Edge 41, Type (0, 0), None
#     Edge 42, Type (0, 0), None
#     Edge 43, Type (0, 0), None
#     Edge 44, Type (0, 0), None
#     Edge 45, Type (0, 0), None
#     Edge 46, Type (0, 0), None
#     Edge 47, Type (0, 0), None
#     Edge 48, Type (0, 0), None
#     Edge 49, Type (0, 0), None
#     Edge 50, Type (0, 0), None
#     Edge 51, Type (0, 0), None
#     Edge 52, Type (0, 0), None
#     Edge 53, Type (0, 0), None
#     Edge 54, Type (0, 0), None
#     Edge 55, Type (0, 0), None
#     Edge 56, Type (0, 0), None
#     Edge 57, Type (0, 0), None
#     Edge 58, Type (0, 0), None
#     Edge 59, Type (0, 0), None
#     Edge 60, Type (0, 0), None
#     Edge 61, Type (0, 0), None
#     Edge 62, Type (0, 0), None
#     Edge 63, Type (0, 0), None
# Relax obj value: 0.101
# Max RMSD: 0.216
# Mean RMSD: 0.216
data_MOF--net-vbm--node1-CUWYAW_clean_sbu_0--edge1-none
_symmetry_space_group_name_H-M    P1
_symmetry_Int_Tables_number       1
_symmetry_cell_setting            triclinic
loop_
_symmetry_equiv_pos_as_xyz
'x, y, z'
_cell_length_a     23.225123
_cell_length_b     15.859341
_cell_length_c     23.057303
_cell_angle_alpha  89.992262
_cell_angle_beta   90.265782
_cell_angle_gamma 90.003681
loop_
_atom_site_label
_atom_site_type_symbol
_atom_site_fract_x
_atom_site_fract_y
_atom_site_fract_z
_atom_type_partial_charge
C0 C -0.01672 0.39269 0.19153 0.0
Eu1 Eu 0.03085 0.2462 0.17718 0.0
C2 C 0.00527 0.47673 0.17599 0.0
C3 C -0.02086 0.54802 0.19886 0.0
C4 C 0.00357 0.62751 0.19129 0.0
C5 C 0.05275 0.63827 0.15678 0.0
C6 C 0.07706 0.56661 0.13044 0.0
C7 C 0.05352 0.48657 0.14004 0.0
C8 C 0.03195 0.11206 0.25595 0.0
C9 C 0.16611 0.2904 0.18577 0.0
C10 C 0.15177 0.97062 0.1279 0.0
Eu11 Eu 0.10651 0.11816 0.14578 0.0
C12 C 0.12798 0.88526 0.13582 0.0
C13 C 0.12805 0.82773 0.08983 0.0
C14 C 0.10376 0.74754 0.09603 0.0
C15 C 0.07818 0.72376 0.14872 0.0
C16 C 0.07685 0.78296 0.19404 0.0
C17 C 0.10166 0.86227 0.18795 0.0
C18 C 0.10026 0.23114 0.05773 0.0
C19 C -0.03451 0.10225 0.12338 0.0
O20 O -0.02874 0.34338 0.14787 0.0
O21 O 0.01129 0.35364 0.23295 0.0
O22 O -0.01326 0.15445 0.24044 0.0
O23 O 0.07542 0.1466 0.23307 0.0
O24 O 0.11395 0.31945 0.17935 0.0
O25 O 0.17564 0.20832 0.18087 0.0
O26 O 0.16096 1.01471 0.17497 0.0
O27 O 0.12771 1.0151 0.08687 0.0
O28 O 0.14754 0.20351 0.08081 0.0
O29 O 0.05788 0.20489 0.08733 0.0
O30 O 0.01455 1.06288 0.13597 0.0
O31 O -0.0375 0.18386 0.12687 0.0
H32 H -0.06125 0.54202 0.22088 0.0
H33 H -0.01694 0.68069 0.2117 0.0
H34 H 0.11499 0.57178 0.10357 0.0
H35 H 0.07297 0.43272 0.11915 0.0
H36 H 0.1464 0.84552 0.049 0.0
H37 H 0.10463 0.7048 0.05946 0.0
H38 H 0.05671 0.76853 0.23453 0.0
H39 H 0.09986 0.90559 0.22404 0.0
C40 C 0.88715 0.76734 0.19315 0.0
Eu41 Eu 0.84378 0.91491 0.17649 0.0
C42 C 0.86204 0.68438 0.17724 0.0
C43 C 0.81848 0.6488 0.21123 0.0
C44 C 0.79657 0.5693 0.19874 0.0
C45 C 0.81614 0.52435 0.15038 0.0
C46 C 0.85664 0.56185 0.1134 0.0
C47 C 0.87953 0.64137 0.12681 0.0
C48 C 0.84218 1.0491 0.25539 0.0
C49 C 0.7097 0.86915 0.18437 0.0
C50 C 0.72603 0.18809 0.12255 0.0
Eu51 Eu 0.76989 1.04048 0.14367 0.0
C52 C 0.75044 0.27341 0.12908 0.0
C53 C 0.74984 0.32962 0.08214 0.0
C54 C 0.77279 0.41086 0.08788 0.0
C55 C 0.79599 0.43702 0.14122 0.0
C56 C 0.79766 0.38005 0.18771 0.0
C57 C 0.7759 0.29874 0.18158 0.0
C58 C 0.77563 0.92799 0.05582 0.0
C59 C 0.91117 1.05557 0.12328 0.0
O60 O 0.90259 0.81523 0.14988 0.0
O61 O 0.86174 0.80973 0.23457 0.0
O62 O 0.8876 1.00756 0.23987 0.0
O63 O 0.79888 1.01422 0.23212 0.0
O64 O 0.76138 0.83979 0.17567 0.0
O65 O 0.70073 0.95153 0.18023 0.0
O66 O 0.71644 0.14592 0.17026 0.0
O67 O 0.74955 0.1416 0.0826 0.0
O68 O 0.72842 0.95387 0.07953 0.0
O69 O 0.81821 0.95415 0.08555 0.0
O70 O 0.86212 0.09521 0.13501 0.0
O71 O 0.91391 0.97409 0.12766 0.0
H72 H 0.80152 0.68212 0.24795 0.0
H73 H 0.76448 0.54258 0.22733 0.0
H74 H 0.87216 0.52845 0.07559 0.0
H75 H 0.912 0.66806 0.09866 0.0
H76 H 0.73134 0.31043 0.04125 0.0
H77 H 0.77072 0.45391 0.05144 0.0
H78 H 0.81534 0.39908 0.22907 0.0
H79 H 0.77775 0.25662 0.21841 0.0
C80 C -0.02196 0.76001 0.36518 0.0
Eu81 Eu 0.02618 0.90569 0.37643 0.0
C82 C 0.00426 0.67585 0.37271 0.0
C83 C 0.05265 0.65184 0.34052 0.0
C84 C 0.07632 0.57182 0.34651 0.0
C85 C 0.0521 0.51272 0.38481 0.0
C86 C 0.00565 0.53893 0.41978 0.0
C87 C -0.01692 0.62032 0.41475 0.0
C88 C 0.03047 1.0312 0.29134 0.0
C89 C 0.15982 0.85292 0.36925 0.0
C90 C 0.15256 0.17914 0.40243 0.0
Eu91 Eu 0.10498 1.03193 0.39929 0.0
C92 C 0.12624 0.26346 0.39772 0.0
C93 C 0.09303 0.29624 0.44308 0.0
C94 C 0.06948 0.37679 0.43922 0.0
C95 C 0.07602 0.42536 0.38857 0.0
C96 C 0.10633 0.38961 0.34163 0.0
C97 C 0.132 0.3104 0.34665 0.0
C98 C 0.09929 0.93057 0.49347 0.0
C99 C -0.03571 1.05749 0.42421 0.0
O100 O -0.02657 0.80482 0.41243 0.0
O101 O -0.00476 0.80453 0.32071 0.0
O102 O -0.01615 0.99645 0.31066 0.0
O103 O 0.0727 0.99417 0.31492 0.0
O104 O 0.10747 0.82706 0.37946 0.0
O105 O 0.17057 0.93489 0.36765 0.0
O106 O 0.1512 0.13306 0.35552 0.0
O107 O 0.14076 0.13594 0.44912 0.0
O108 O 0.14649 0.95399 0.46831 0.0
O109 O 0.05619 0.95533 0.46361 0.0
O110 O 0.01472 0.09288 0.41161 0.0
O111 O -0.04152 0.97595 0.42203 0.0
H112 H 0.07344 0.6951 0.31143 0.0
H113 H 0.11415 0.55751 0.32122 0.0
H114 H -0.01498 0.49658 0.44994 0.0
H115 H -0.0528 0.63847 0.44193 0.0
H116 H 0.08532 0.25983 0.48195 0.0
H117 H 0.04685 0.40049 0.47663 0.0
H118 H 0.11058 0.42219 0.30068 0.0
H119 H 0.15631 0.2857 0.31049 0.0
C120 C 0.89486 0.40424 0.36085 0.0
Eu121 Eu 0.84729 0.25799 0.37405 0.0
C122 C 0.87028 0.48831 0.37162 0.0
C123 C 0.88809 0.55591 0.33767 0.0
C124 C 0.86324 0.63523 0.34407 0.0
C125 C 0.82005 0.64827 0.38508 0.0
C126 C 0.80275 0.58132 0.42072 0.0
C127 C 0.82765 0.50149 0.41391 0.0
C128 C 0.84314 0.13007 0.29066 0.0
C129 C 0.71252 0.3073 0.36939 0.0
C130 C 0.72369 0.98109 0.40514 0.0
Eu131 Eu 0.7701 0.12946 0.39939 0.0
C132 C 0.74886 0.89602 0.40051 0.0
C133 C 0.79067 0.86745 0.44032 0.0
C134 C 0.81309 0.78602 0.43592 0.0
C135 C 0.79474 0.73266 0.39118 0.0
C136 C 0.75467 0.76201 0.35024 0.0
C137 C 0.73233 0.84337 0.35455 0.0
C138 C 0.77565 0.23471 0.49157 0.0
C139 C 0.91146 0.10836 0.42359 0.0
O140 O 0.90349 0.35735 0.40665 0.0
O141 O 0.87165 0.36241 0.31788 0.0
O142 O 0.88956 0.16707 0.30881 0.0
O143 O 0.8008 0.16624 0.31429 0.0
O144 O 0.76503 0.3345 0.37739 0.0
O145 O 0.7025 0.22501 0.36881 0.0
O146 O 0.72395 1.02605 0.35768 0.0
O147 O 0.73753 1.02509 0.45099 0.0
O148 O 0.72852 0.2079 0.46752 0.0
O149 O 0.81874 0.21026 0.46195 0.0
O150 O 0.86108 1.0716 0.41237 0.0
O151 O 0.91678 0.18984 0.41944 0.0
H152 H 0.92393 0.54822 0.30915 0.0
H153 H 0.87876 0.68703 0.31795 0.0
H154 H 0.76993 0.59069 0.45333 0.0
H155 H 0.81363 0.45039 0.4416 0.0
H156 H 0.80604 0.90777 0.47499 0.0
H157 H 0.8451 0.76494 0.46704 0.0
H158 H 0.73944 0.72145 0.31577 0.0
H159 H 0.70138 0.86471 0.32246 0.0
C160 C 0.7238 0.18258 0.90491 0.0
Eu161 Eu 0.77021 1.03419 0.89933 0.0
C162 C 0.74894 0.26767 0.90034 0.0
C163 C 0.79089 0.29609 0.94005 0.0
C164 C 0.81328 0.37755 0.93571 0.0
C165 C 0.79475 0.4311 0.89114 0.0
C166 C 0.75453 0.40191 0.85031 0.0
C167 C 0.73221 0.32052 0.85456 0.0
C168 C 0.77564 0.92933 0.99167 0.0
C169 C 0.91149 1.05544 0.92355 0.0
C170 C 0.89489 0.75952 0.8607 0.0
Eu171 Eu 0.84732 0.90574 0.87399 0.0
C172 C 0.87033 0.67544 0.87152 0.0
C173 C 0.8881 0.60785 0.83757 0.0
C174 C 0.86325 0.52853 0.84401 0.0
C175 C 0.82009 0.51549 0.88504 0.0
C176 C 0.80282 0.58243 0.92069 0.0
C177 C 0.82774 0.66226 0.91386 0.0
C178 C 0.84305 1.03363 0.79067 0.0
C179 C 0.71257 0.85638 0.86955 0.0
O180 O 0.72422 0.13763 0.85745 0.0
O181 O 0.73753 0.1386 0.95079 0.0
O182 O 0.72852 0.95625 0.96764 0.0
O183 O 0.81885 0.95322 0.96202 0.0
O184 O 0.86111 0.09215 0.91237 0.0
O185 O 0.91682 0.97396 0.91935 0.0
O186 O 0.90361 0.8064 0.90648 0.0
O187 O 0.8716 0.80137 0.81778 0.0
O188 O 0.88952 0.99681 0.80884 0.0
O189 O 0.80074 0.99725 0.81425 0.0
O190 O 0.76509 0.8292 0.87753 0.0
O191 O 0.70256 0.93867 0.86888 0.0
H192 H 0.80638 0.25563 0.97459 0.0
H193 H 0.84542 0.39851 0.96674 0.0
H194 H 0.73916 0.44261 0.81597 0.0
H195 H 0.70114 0.2993 0.82255 0.0
H196 H 0.92392 0.61554 0.80901 0.0
H197 H 0.87875 0.47674 0.81789 0.0
H198 H 0.77002 0.57306 0.95333 0.0
H199 H 0.81376 0.71335 0.94156 0.0
C200 C 0.15251 0.98485 0.90213 0.0
Eu201 Eu 0.1049 0.13206 0.8992 0.0
C202 C 0.12625 0.90049 0.89743 0.0
C203 C 0.09297 0.86772 0.94274 0.0
C204 C 0.06948 0.78713 0.93891 0.0
C205 C 0.07614 0.7385 0.88831 0.0
C206 C 0.10655 0.77423 0.84141 0.0
C207 C 0.13217 0.85348 0.84642 0.0
C208 C 0.09934 0.23305 0.9935 0.0
C209 C -0.0357 0.10637 0.92419 0.0
C210 C -0.02194 0.40389 0.86488 0.0
Eu211 Eu 0.02616 0.25823 0.8763 0.0
C212 C 0.00433 0.48802 0.87243 0.0
C213 C 0.05272 0.51203 0.84023 0.0
C214 C 0.07642 0.59203 0.84625 0.0
C215 C 0.05223 0.65113 0.88456 0.0
C216 C 0.00577 0.6249 0.91952 0.0
C217 C -0.01681 0.54352 0.91449 0.0
C218 C 0.03057 0.13276 0.79133 0.0
C219 C 0.15979 0.31108 0.86936 0.0
O220 O 0.15101 1.031 0.85524 0.0
O221 O 0.14079 1.02795 0.94887 0.0
O222 O 0.14653 0.20947 0.9684 0.0
O223 O 0.0561 0.20883 0.96364 0.0
O224 O 0.01473 1.07099 0.91161 0.0
O225 O -0.04155 0.1879 0.92191 0.0
O226 O -0.02668 0.3591 0.91214 0.0
O227 O -0.00469 0.35932 0.82047 0.0
O228 O -0.0161 0.16733 0.81067 0.0
O229 O 0.07277 0.16998 0.81485 0.0
O230 O 0.10743 0.3369 0.87954 0.0
O231 O 0.17053 0.22912 0.86768 0.0
H232 H 0.08515 0.90418 0.98157 0.0
H233 H 0.0468 0.76346 0.9763 0.0
H234 H 0.11091 0.74162 0.80049 0.0
H235 H 0.15655 0.87817 0.8103 0.0
H236 H 0.07349 0.46878 0.81112 0.0
H237 H 0.11427 0.60632 0.82097 0.0
H238 H -0.01485 0.66722 0.94969 0.0
H239 H -0.05269 0.52536 0.94168 0.0
C240 C 0.72614 0.97571 0.62255 0.0
Eu241 Eu 0.76996 0.12337 0.64367 0.0
C242 C 0.7505 0.89037 0.62905 0.0
C243 C 0.74957 0.83404 0.58219 0.0
C244 C 0.77245 0.75275 0.5879 0.0
C245 C 0.7959 0.72668 0.64116 0.0
C246 C 0.7979 0.78375 0.68755 0.0
C247 C 0.77621 0.8651 0.68144 0.0
C248 C 0.77556 0.23562 0.55573 0.0
C249 C 0.9112 0.10836 0.62328 0.0
C250 C 0.88691 0.39645 0.69357 0.0
Eu251 Eu 0.84372 0.24885 0.67662 0.0
C252 C 0.8618 0.47934 0.67748 0.0
C253 C 0.81822 0.51502 0.71138 0.0
C254 C 0.79633 0.5945 0.69878 0.0
C255 C 0.81594 0.6393 0.65036 0.0
C256 C 0.85642 0.60168 0.61344 0.0
C257 C 0.87929 0.52219 0.62698 0.0
C258 C 0.84207 0.1145 0.7553 0.0
C259 C 0.70965 0.2946 0.68421 0.0
O260 O 0.71658 1.01785 0.67028 0.0
O261 O 0.74969 1.02222 0.58262 0.0
O262 O 0.72835 0.20956 0.57938 0.0
O263 O 0.81828 0.21003 0.58548 0.0
O264 O 0.86216 1.06868 0.63496 0.0
O265 O 0.91391 0.18984 0.62775 0.0
O266 O 0.90271 0.34858 0.65043 0.0
O267 O 0.86128 0.354 0.73484 0.0
O268 O 0.88752 0.15606 0.73987 0.0
O269 O 0.79879 0.1496 0.73213 0.0
O270 O 0.76133 0.32396 0.6755 0.0
O271 O 0.70072 0.21221 0.68015 0.0
H272 H 0.73084 0.85317 0.54139 0.0
H273 H 0.77013 0.70961 0.55155 0.0
H274 H 0.81576 0.76475 0.72884 0.0
H275 H 0.77831 0.9073 0.7182 0.0
H276 H 0.80124 0.48182 0.74815 0.0
H277 H 0.76427 0.62133 0.72733 0.0
H278 H 0.87195 0.63499 0.57558 0.0
H279 H 0.91176 0.49542 0.59887 0.0
C280 C 0.1517 0.19339 0.62792 0.0
Eu281 Eu 0.10647 1.04579 0.64579 0.0
C282 C 0.12794 0.27876 0.63582 0.0
C283 C 0.12825 0.33641 0.58988 0.0
C284 C 0.10395 0.4166 0.59606 0.0
C285 C 0.07814 0.44026 0.64865 0.0
C286 C 0.0766 0.38094 0.69391 0.0
C287 C 0.1014 0.30163 0.68784 0.0
C288 C 0.10033 0.93301 0.55769 0.0
C289 C -0.03447 1.0617 0.62337 0.0
C290 C -0.01668 0.77126 0.69178 0.0
Eu291 Eu 0.03088 0.91776 0.67731 0.0
C292 C 0.00524 0.68725 0.6761 0.0
C293 C -0.02099 0.61591 0.69877 0.0
C294 C 0.00341 0.53642 0.69112 0.0
C295 C 0.05268 0.52574 0.65671 0.0
C296 C 0.07706 0.59746 0.63051 0.0
C297 C 0.05353 0.67749 0.64018 0.0
C298 C 0.03205 1.052 0.75586 0.0
C299 C 0.16616 0.87361 0.68566 0.0
O300 O 0.16088 0.14929 0.675 0.0
O301 O 0.12763 0.14892 0.5869 0.0
O302 O 0.1476 0.96085 0.58067 0.0
O303 O 0.05784 0.95876 0.58732 0.0
O304 O 0.01457 0.10111 0.63593 0.0
O305 O -0.03746 0.98008 0.62695 0.0
O306 O -0.02887 0.82065 0.64821 0.0
O307 O 0.01149 0.81025 0.73311 0.0
O308 O -0.01319 1.0096 0.74045 0.0
O309 O 0.07552 1.01726 0.73308 0.0
O310 O 0.114 0.84456 0.67937 0.0
O311 O 0.17568 0.95568 0.68075 0.0
H312 H 0.14679 0.31873 0.54913 0.0
H313 H 0.10499 0.45944 0.55954 0.0
H314 H 0.0563 0.39528 0.73432 0.0
H315 H 0.09942 0.25822 0.72387 0.0
H316 H -0.06142 0.62186 0.72071 0.0
H317 H -0.01716 0.48319 0.71139 0.0
H318 H 0.11503 0.59236 0.6037 0.0
H319 H 0.07302 0.73138 0.61937 0.0
C320 C 0.47899 0.90425 0.19628 0.0
Eu321 Eu 0.52657 0.75801 0.18311 0.0
C322 C 0.5036 0.98832 0.18558 0.0
C323 C 0.4857 1.0559 0.21948 0.0
C324 C 0.51057 0.13522 0.21316 0.0
C325 C 0.55387 0.14828 0.17228 0.0
C326 C 0.57127 1.08136 0.13668 0.0
C327 C 0.54634 1.00153 0.14341 0.0
C328 C 0.53072 0.63017 0.26659 0.0
C329 C 0.66133 0.80733 0.1878 0.0
C330 C 0.65022 0.48112 0.15224 0.0
Eu331 Eu 0.60377 0.62946 0.15785 0.0
C332 C 0.62506 0.39604 0.15688 0.0
C333 C 0.58302 0.36766 0.11726 0.0
C334 C 0.5606 0.28623 0.12165 0.0
C335 C 0.57917 0.23269 0.16621 0.0
C336 C 0.61946 0.26186 0.20699 0.0
C337 C 0.64183 0.34321 0.20266 0.0
C338 C 0.59823 0.73464 0.06561 0.0
C339 C 0.46241 0.60835 0.13362 0.0
O340 O 0.47044 0.85741 0.15045 0.0
O341 O 0.50213 0.86236 0.23928 0.0
O342 O 0.48429 0.66708 0.24836 0.0
O343 O 0.57305 0.66632 0.24293 0.0
O344 O 0.60882 0.83453 0.17979 0.0
O345 O 0.67136 0.72504 0.18841 0.0
O346 O 0.64986 0.52609 0.19968 0.0
O347 O 0.63642 0.52508 0.10636 0.0
O348 O 0.64537 0.70785 0.08969 0.0
O349 O 0.55515 0.71021 0.09525 0.0
O350 O 0.51278 0.57161 0.14485 0.0
O351 O 0.4571 0.68983 0.13772 0.0
H352 H 0.44976 1.04819 0.24788 0.0
H353 H 0.49498 0.187 0.23924 0.0
H354 H 0.60417 0.09075 0.10415 0.0
H355 H 0.56042 0.95046 0.11574 0.0
H356 H 0.56748 0.40812 0.08274 0.0
H357 H 0.52842 0.26527 0.09067 0.0
H358 H 0.63482 0.22117 0.24133 0.0
H359 H 0.67298 0.36441 0.2346 0.0
C360 C 0.3958 0.26001 0.19199 0.0
Eu361 Eu 0.34766 0.40569 0.18075 0.0
C362 C 0.36957 0.17586 0.18443 0.0
C363 C 0.32118 0.15183 0.21661 0.0
C364 C 0.29751 1.07182 0.21061 0.0
C365 C 0.32173 1.01273 0.17232 0.0
C366 C 0.36819 1.03897 0.13736 0.0
C367 C 0.39076 0.12036 0.14239 0.0
C368 C 0.34336 0.53112 0.26589 0.0
C369 C 0.21403 0.35293 0.18791 0.0
C370 C 0.22129 0.67914 0.15473 0.0
Eu371 Eu 0.26888 0.53194 0.15788 0.0
C372 C 0.24761 0.76347 0.15943 0.0
C373 C 0.28082 0.79627 0.11407 0.0
C374 C 0.30436 0.87682 0.11792 0.0
C375 C 0.29782 0.92537 0.16856 0.0
C376 C 0.26751 0.88961 0.21551 0.0
C377 C 0.24184 0.8104 0.2105 0.0
C378 C 0.27455 0.43059 0.06371 0.0
C379 C 0.40957 0.55749 0.13296 0.0
O380 O 0.40042 0.30486 0.14474 0.0
O381 O 0.3786 0.3045 0.23646 0.0
O382 O 0.38998 0.49645 0.24651 0.0
O383 O 0.30114 0.49413 0.24226 0.0
O384 O 0.26638 0.32706 0.17772 0.0
O385 O 0.20328 0.43489 0.18952 0.0
O386 O 0.22266 0.63306 0.20165 0.0
O387 O 0.2331 0.63596 0.10805 0.0
O388 O 0.22736 0.45403 0.08886 0.0
O389 O 0.31766 0.45535 0.09356 0.0
O390 O 0.35915 0.59289 0.14557 0.0
O391 O 0.41538 0.47596 0.13515 0.0
H392 H 0.30038 0.19508 0.2457 0.0
H393 H 0.25967 1.0575 0.23589 0.0
H394 H 0.38882 0.99663 0.1072 0.0
H395 H 0.42665 0.13853 0.11522 0.0
H396 H 0.28853 0.75986 0.0752 0.0
H397 H 0.32699 0.90053 0.08051 0.0
H398 H 0.26326 0.92218 0.25646 0.0
H399 H 0.21753 0.78568 0.24666 0.0
C400 C 0.48664 0.26739 0.36402 0.0
Eu401 Eu 0.53007 0.41492 0.38069 0.0
C402 C 0.51177 0.18441 0.37981 0.0
C403 C 0.55542 0.14904 0.34585 0.0
C404 C 0.57736 1.06952 0.35824 0.0
C405 C 0.55772 1.02435 0.40649 0.0
C406 C 0.51713 1.06166 0.44346 0.0
C407 C 0.49423 0.1412 0.43015 0.0
C408 C 0.53168 0.54913 0.30179 0.0
C409 C 0.66415 0.36912 0.37282 0.0
C410 C 0.64787 0.6881 0.43445 0.0
Eu411 Eu 0.60398 0.54048 0.41346 0.0
C412 C 0.62347 0.77341 0.42784 0.0
C413 C 0.62357 0.82939 0.47491 0.0
C414 C 0.60063 0.91063 0.46912 0.0
C415 C 0.57794 0.93703 0.4156 0.0
C416 C 0.57679 0.8803 0.36897 0.0
C417 C 0.59853 0.79899 0.37514 0.0
C418 C 0.59822 0.42803 0.50137 0.0
C419 C 0.4627 0.55561 0.43386 0.0
O420 O 0.4713 0.3152 0.40735 0.0
O421 O 0.51197 0.30986 0.32257 0.0
O422 O 0.48625 0.50758 0.31731 0.0
O423 O 0.57497 0.51421 0.32504 0.0
O424 O 0.61246 0.33977 0.3815 0.0
O425 O 0.67313 0.4515 0.37695 0.0
O426 O 0.65748 0.64584 0.38679 0.0
O427 O 0.62435 0.64167 0.47445 0.0
O428 O 0.64544 0.4539 0.47765 0.0
O429 O 0.55564 0.45418 0.47163 0.0
O430 O 0.51176 0.59522 0.42213 0.0
O431 O 0.45995 0.47413 0.4295 0.0
H432 H 0.57242 0.18253 0.30921 0.0
H433 H 0.60953 1.04299 0.32968 0.0
H434 H 0.50156 1.0281 0.48119 0.0
H435 H 0.4617 0.16774 0.45828 0.0
H436 H 0.64166 0.81002 0.51594 0.0
H437 H 0.60229 0.95347 0.50567 0.0
H438 H 0.55954 0.8995 0.32746 0.0
H439 H 0.5971 0.75707 0.33819 0.0
C440 C 0.39053 0.89273 0.36554 0.0
Eu441 Eu 0.343 0.74621 0.37993 0.0
C442 C 0.36853 0.97676 0.38107 0.0
C443 C 0.39463 1.04806 0.35818 0.0
C444 C 0.3702 0.12755 0.36576 0.0
C445 C 0.32104 0.13827 0.40031 0.0
C446 C 0.29676 1.0666 0.42667 0.0
C447 C 0.3203 0.98656 0.41705 0.0
C448 C 0.34189 0.61204 0.30121 0.0
C449 C 0.20774 0.79039 0.37139 0.0
C450 C 0.22208 0.4706 0.42931 0.0
Eu451 Eu 0.26735 0.61815 0.41139 0.0
C452 C 0.24585 0.38525 0.42136 0.0
C453 C 0.24583 0.3277 0.46736 0.0
C454 C 0.27011 0.24751 0.46112 0.0
C455 C 0.29562 0.22375 0.40841 0.0
C456 C 0.2969 0.28297 0.36308 0.0
C457 C 0.27211 0.36228 0.3692 0.0
C458 C 0.27361 0.73116 0.4994 0.0
C459 C 0.40837 0.60229 0.43376 0.0
O460 O 0.40258 0.84342 0.40921 0.0
O461 O 0.36253 0.85366 0.32413 0.0
O462 O 0.3871 0.65447 0.31667 0.0
O463 O 0.29841 0.64658 0.32409 0.0
O464 O 0.25989 0.81945 0.37776 0.0
O465 O 0.1982 0.70832 0.37632 0.0
O466 O 0.21285 0.51472 0.38225 0.0
O467 O 0.24619 0.51506 0.47032 0.0
O468 O 0.22633 0.7035 0.47634 0.0
O469 O 0.31599 0.70491 0.46979 0.0
O470 O 0.35931 0.5629 0.4212 0.0
O471 O 0.41138 0.68391 0.43022 0.0
H472 H 0.43502 1.04209 0.33615 0.0
H473 H 0.3907 0.18075 0.34535 0.0
H474 H 0.25886 1.07175 0.45357 0.0
H475 H 0.30087 0.93271 0.43797 0.0
H476 H 0.22754 0.34547 0.50821 0.0
H477 H 0.26929 0.20475 0.49769 0.0
H478 H 0.31699 0.26856 0.32256 0.0
H479 H 0.27386 0.40561 0.33311 0.0
C480 C 0.22217 0.69336 0.9292 0.0
Eu481 Eu 0.2674 0.54577 0.91137 0.0
C482 C 0.24594 0.77873 0.9213 0.0
C483 C 0.24563 0.83637 0.96722 0.0
C484 C 0.26992 0.91657 0.96104 0.0
C485 C 0.29573 0.94025 0.90845 0.0
C486 C 0.29726 0.88094 0.86319 0.0
C487 C 0.27248 0.80162 0.86927 0.0
C488 C 0.27352 0.433 0.99949 0.0
C489 C 0.40834 0.56165 0.93385 0.0
C490 C 0.39053 0.27131 0.86536 0.0
Eu491 Eu 0.34298 0.41778 0.87987 0.0
C492 C 0.3686 0.18728 0.88102 0.0
C493 C 0.39483 0.11596 0.85832 0.0
C494 C 0.37043 1.03646 0.86596 0.0
C495 C 0.32117 1.02574 0.90038 0.0
C496 C 0.2968 0.09744 0.9266 0.0
C497 C 0.32032 0.17748 0.91694 0.0
C498 C 0.34183 0.55203 0.80131 0.0
C499 C 0.2077 0.3736 0.8715 0.0
O500 O 0.213 0.64926 0.88213 0.0
O501 O 0.24624 0.6489 0.97023 0.0
O502 O 0.22626 0.46082 0.97649 0.0
O503 O 0.31602 0.45874 0.96986 0.0
O504 O 0.35931 0.60107 0.92126 0.0
O505 O 0.4113 0.48004 0.93028 0.0
O506 O 0.40272 0.32065 0.90895 0.0
O507 O 0.36236 0.31033 0.82404 0.0
O508 O 0.38707 0.50967 0.81676 0.0
O509 O 0.29835 0.51728 0.82408 0.0
O510 O 0.25986 0.34455 0.87782 0.0
O511 O 0.19818 0.45567 0.8764 0.0
H512 H 0.22708 0.81867 1.00798 0.0
H513 H 0.26888 0.95939 0.99756 0.0
H514 H 0.31757 0.8953 0.82278 0.0
H515 H 0.27445 0.75821 0.83324 0.0
H516 H 0.43526 0.12195 0.83638 0.0
H517 H 0.39101 0.98325 0.84567 0.0
H518 H 0.25883 0.09231 0.95341 0.0
H519 H 0.30084 0.23134 0.93778 0.0
C520 C 0.64773 0.47563 0.93449 0.0
Eu521 Eu 0.6039 0.6233 0.91348 0.0
C522 C 0.6234 0.39028 0.92791 0.0
C523 C 0.62381 0.33415 0.9749 0.0
C524 C 0.60096 0.25286 0.96912 0.0
C525 C 0.57805 0.22656 0.91569 0.0
C526 C 0.57658 0.28343 0.86914 0.0
C527 C 0.59823 0.3648 0.87531 0.0
C528 C 0.59834 0.7355 1.00145 0.0
C529 C 0.46268 0.6083 0.93396 0.0
C530 C 0.48691 0.89631 0.86353 0.0
Eu531 Eu 0.53014 0.74876 0.88056 0.0
C532 C 0.51205 0.97921 0.87954 0.0
C533 C 0.55571 1.01475 0.84567 0.0
C534 C 0.57763 0.09423 0.85821 0.0
C535 C 0.55795 0.1392 0.90652 0.0
C536 C 0.51739 0.10169 0.94343 0.0
C537 C 0.4945 1.02219 0.92996 0.0
C538 C 0.53177 0.61444 0.80188 0.0
C539 C 0.6642 0.79458 0.87298 0.0
O540 O 0.65733 0.51788 0.88682 0.0
O541 O 0.62417 0.52204 0.97446 0.0
O542 O 0.64553 0.70941 0.9778 0.0
O543 O 0.55561 0.70994 0.9717 0.0
O544 O 0.5117 0.5686 0.92225 0.0
O545 O 0.45998 0.68978 0.92949 0.0
O546 O 0.47116 0.84849 0.90672 0.0
O547 O 0.51251 0.85382 0.82228 0.0
O548 O 0.48632 0.65594 0.81736 0.0
O549 O 0.57506 0.64955 0.82504 0.0
O550 O 0.61252 0.82392 0.88168 0.0
O551 O 0.67314 0.7122 0.87703 0.0
H552 H 0.64211 0.35343 1.01586 0.0
H553 H 0.60287 0.20989 1.00561 0.0
H554 H 0.55916 0.26428 0.82769 0.0
H555 H 0.59655 0.40683 0.83842 0.0
H556 H 0.57274 0.98143 0.80898 0.0
H557 H 0.60977 0.12093 0.82969 0.0
H558 H 0.50179 0.1351 0.98121 0.0
H559 H 0.46198 0.99551 0.95805 0.0
C560 C 0.22134 0.48487 0.65502 0.0
Eu561 Eu 0.26895 0.63209 0.65794 0.0
C562 C 0.24762 0.40052 0.65971 0.0
C563 C 0.28092 0.36781 0.6144 0.0
C564 C 0.30441 0.28722 0.61822 0.0
C565 C 0.29773 0.23854 0.6688 0.0
C566 C 0.26732 0.27422 0.71571 0.0
C567 C 0.2417 0.35346 0.71071 0.0
C568 C 0.27453 0.73308 0.56363 0.0
C569 C 0.40957 0.60637 0.63299 0.0
C570 C 0.3958 0.90393 0.69219 0.0
Eu571 Eu 0.3477 0.75825 0.68083 0.0
C572 C 0.36952 0.98805 0.68463 0.0
C573 C 0.32114 1.01203 0.71684 0.0
C574 C 0.29744 0.09203 0.71084 0.0
C575 C 0.32164 0.15116 0.67254 0.0
C576 C 0.36809 0.12496 0.63756 0.0
C577 C 0.39067 1.04358 0.64258 0.0
C578 C 0.34331 0.63273 0.76577 0.0
C579 C 0.21408 0.81108 0.68779 0.0
O580 O 0.22286 0.531 0.70191 0.0
O581 O 0.23305 0.528 0.60828 0.0
O582 O 0.22734 0.70953 0.58874 0.0
O583 O 0.31777 0.70885 0.5935 0.0
O584 O 0.35913 0.57101 0.64555 0.0
O585 O 0.41541 0.68791 0.63525 0.0
O586 O 0.40051 0.85914 0.64493 0.0
O587 O 0.37859 0.85935 0.73661 0.0
O588 O 0.38998 0.66739 0.74649 0.0
O589 O 0.3011 0.66998 0.74227 0.0
O590 O 0.26644 0.83692 0.67762 0.0
O591 O 0.20333 0.72912 0.68946 0.0
H592 H 0.28875 0.40431 0.57559 0.0
H593 H 0.3271 0.2636 0.58083 0.0
H594 H 0.26296 0.24157 0.75662 0.0
H595 H 0.21731 0.37812 0.74683 0.0
H596 H 0.30037 0.96876 0.74594 0.0
H597 H 0.2596 0.10631 0.73612 0.0
H598 H 0.38872 0.16731 0.60741 0.0
H599 H 0.42655 1.02545 0.61539 0.0
C600 C 0.65009 0.68261 0.65237 0.0
Eu601 Eu 0.60366 0.53421 0.65787 0.0
C602 C 0.62496 0.76768 0.65697 0.0
C603 C 0.58277 0.79597 0.61747 0.0
C604 C 0.56037 0.87741 0.62184 0.0
C605 C 0.57913 0.93108 0.66624 0.0
C606 C 0.61958 0.90201 0.70689 0.0
C607 C 0.64193 0.82065 0.7026 0.0
C608 C 0.59822 0.42938 0.56552 0.0
C609 C 0.46237 0.55544 0.63363 0.0
C610 C 0.47895 0.25947 0.69651 0.0
Eu611 Eu 0.52651 0.40571 0.68321 0.0
C612 C 0.50354 0.1754 0.68575 0.0
C613 C 0.48567 0.10777 0.71962 0.0
C614 C 0.51053 1.02846 0.71324 0.0
C615 C 0.55381 1.01547 0.67233 0.0
C616 C 0.57118 0.08244 0.63675 0.0
C617 C 0.54625 0.16226 0.64352 0.0
C618 C 0.53079 0.53362 0.76648 0.0
C619 C 0.66128 0.3564 0.68765 0.0
O620 O 0.64965 0.63759 0.6998 0.0
O621 O 0.63636 0.63869 0.60646 0.0
O622 O 0.64534 0.45632 0.58954 0.0
O623 O 0.55501 0.45325 0.59518 0.0
O624 O 0.51275 0.59216 0.6448 0.0
O625 O 0.45702 0.47396 0.63785 0.0
O626 O 0.47028 0.30632 0.6507 0.0
O627 O 0.50219 0.30135 0.73944 0.0
O628 O 0.48431 0.49674 0.74836 0.0
O629 O 0.5731 0.49723 0.74293 0.0
O630 O 0.60876 0.3292 0.6797 0.0
O631 O 0.67131 0.43867 0.68829 0.0
H632 H 0.5671 0.75542 0.58307 0.0
H633 H 0.52807 0.89828 0.59095 0.0
H634 H 0.63508 0.94279 0.74112 0.0
H635 H 0.67319 0.79953 0.73444 0.0
H636 H 0.44975 0.11542 0.74806 0.0
H637 H 0.49497 0.97665 0.73931 0.0
H638 H 0.60406 1.0731 0.60419 0.0
H639 H 0.56028 0.21335 0.61585 0.0
loop_
_geom_bond_atom_site_label_1
_geom_bond_atom_site_label_2
_geom_bond_distance
_geom_bond_site_symmetry_2
_ccdc_geom_bond_type
C0 Eu1 2.835 . S
C0 C2 1.500 . S
C0 O20 1.257 . S
C0 O21 1.260 . S
Eu1 C0 2.835 . S
Eu1 O20 2.473 . S
Eu1 O21 2.480 . S
Eu1 O22 2.430 . S
Eu1 O23 2.670 . S
Eu1 O24 2.394 . S
Eu1 O29 2.355 . S
Eu1 O31 2.374 . S
C2 C0 1.500 . S
C2 C3 1.377 . S
C2 C7 1.377 . S
C3 C2 1.377 . S
C3 C4 1.395 . S
C3 H32 0.931 . S
C4 C3 1.395 . S
C4 C5 1.383 . S
C4 H33 0.931 . S
C5 C4 1.383 . S
C5 C6 1.394 . S
C6 C5 1.394 . S
C6 C7 1.378 . S
C6 H34 0.931 . S
C7 C2 1.377 . S
C7 C6 1.378 . S
C7 H35 0.931 . S
C8 O22 1.259 . S
C8 O23 1.270 . S
C9 O24 1.251 . S
C9 O25 1.251 . S
C10 Eu11 2.835 1_565 S
C10 C12 1.500 . S
C10 O26 1.257 . S
C10 O27 1.260 . S
Eu11 C10 2.835 1_545 S
Eu11 O23 2.355 . S
Eu11 O25 2.374 . S
Eu11 O26 2.473 1_545 S
Eu11 O27 2.480 1_545 S
Eu11 O28 2.430 . S
Eu11 O29 2.670 . S
Eu11 O30 2.394 1_545 S
C12 C10 1.500 . S
C12 C13 1.377 . S
C12 C17 1.377 . S
C13 C12 1.377 . S
C13 C14 1.395 . S
C13 H36 0.931 . S
C14 C13 1.395 . S
C14 C15 1.383 . S
C14 H37 0.931 . S
C15 C14 1.383 . S
C15 C16 1.394 . S
C16 C15 1.394 . S
C16 C17 1.378 . S
C16 H38 0.931 . S
C17 C12 1.377 . S
C17 C16 1.378 . S
C17 H39 0.931 . S
C18 O28 1.259 . S
C18 O29 1.270 . S
C19 O30 1.251 1_545 S
C19 O31 1.251 . S
O20 C0 1.257 . S
O20 Eu1 2.473 . S
O21 C0 1.260 . S
O21 Eu1 2.480 . S
O22 Eu1 2.430 . S
O22 C8 1.259 . S
O23 Eu1 2.670 . S
O23 C8 1.270 . S
O23 Eu11 2.355 . S
O24 Eu1 2.394 . S
O24 C9 1.251 . S
O25 C9 1.251 . S
O25 Eu11 2.374 . S
O26 C10 1.257 . S
O26 Eu11 2.473 1_565 S
O27 C10 1.260 . S
O27 Eu11 2.480 1_565 S
O28 Eu11 2.430 . S
O28 C18 1.259 . S
O29 Eu1 2.355 . S
O29 Eu11 2.670 . S
O29 C18 1.270 . S
O30 Eu11 2.394 1_565 S
O30 C19 1.251 1_565 S
O31 Eu1 2.374 . S
O31 C19 1.251 . S
H32 C3 0.931 . S
H33 C4 0.931 . S
H34 C6 0.931 . S
H35 C7 0.931 . S
H36 C13 0.931 . S
H37 C14 0.931 . S
H38 C16 0.931 . S
H39 C17 0.931 . S
C40 Eu41 2.835 . S
C40 C42 1.500 . S
C40 O60 1.257 . S
C40 O61 1.260 . S
Eu41 C40 2.835 . S
Eu41 O60 2.473 . S
Eu41 O61 2.480 . S
Eu41 O62 2.430 . S
Eu41 O63 2.670 . S
Eu41 O64 2.394 . S
Eu41 O69 2.355 . S
Eu41 O71 2.374 . S
C42 C40 1.500 . S
C42 C43 1.377 . S
C42 C47 1.377 . S
C43 C42 1.377 . S
C43 C44 1.395 . S
C43 H72 0.931 . S
C44 C43 1.395 . S
C44 C45 1.383 . S
C44 H73 0.931 . S
C45 C44 1.383 . S
C45 C46 1.394 . S
C46 C45 1.394 . S
C46 C47 1.378 . S
C46 H74 0.931 . S
C47 C42 1.377 . S
C47 C46 1.378 . S
C47 H75 0.931 . S
C48 O62 1.259 . S
C48 O63 1.270 . S
C49 O64 1.251 . S
C49 O65 1.251 . S
C50 Eu51 2.835 1_545 S
C50 C52 1.500 . S
C50 O66 1.257 . S
C50 O67 1.260 . S
Eu51 C50 2.835 1_565 S
Eu51 O63 2.355 . S
Eu51 O65 2.374 . S
Eu51 O66 2.473 1_565 S
Eu51 O67 2.480 1_565 S
Eu51 O68 2.430 . S
Eu51 O69 2.670 . S
Eu51 O70 2.394 1_565 S
C52 C50 1.500 . S
C52 C53 1.377 . S
C52 C57 1.377 . S
C53 C52 1.377 . S
C53 C54 1.395 . S
C53 H76 0.931 . S
C54 C53 1.395 . S
C54 C55 1.383 . S
C54 H77 0.931 . S
C55 C54 1.383 . S
C55 C56 1.394 . S
C56 C55 1.394 . S
C56 C57 1.378 . S
C56 H78 0.931 . S
C57 C52 1.377 . S
C57 C56 1.378 . S
C57 H79 0.931 . S
C58 O68 1.259 . S
C58 O69 1.270 . S
C59 O70 1.251 1_565 S
C59 O71 1.251 . S
O60 C40 1.257 . S
O60 Eu41 2.473 . S
O61 C40 1.260 . S
O61 Eu41 2.480 . S
O62 Eu41 2.430 . S
O62 C48 1.259 . S
O63 Eu41 2.670 . S
O63 C48 1.270 . S
O63 Eu51 2.355 . S
O64 Eu41 2.394 . S
O64 C49 1.251 . S
O65 C49 1.251 . S
O65 Eu51 2.374 . S
O66 C50 1.257 . S
O66 Eu51 2.473 1_545 S
O67 C50 1.260 . S
O67 Eu51 2.480 1_545 S
O68 Eu51 2.430 . S
O68 C58 1.259 . S
O69 Eu41 2.355 . S
O69 Eu51 2.670 . S
O69 C58 1.270 . S
O70 Eu51 2.394 1_545 S
O70 C59 1.251 1_545 S
O71 Eu41 2.374 . S
O71 C59 1.251 . S
H72 C43 0.931 . S
H73 C44 0.931 . S
H74 C46 0.931 . S
H75 C47 0.931 . S
H76 C53 0.931 . S
H77 C54 0.931 . S
H78 C56 0.931 . S
H79 C57 0.931 . S
C80 Eu81 2.835 . S
C80 C82 1.500 . S
C80 O100 1.257 . S
C80 O101 1.260 . S
Eu81 C80 2.835 . S
Eu81 O100 2.473 . S
Eu81 O101 2.480 . S
Eu81 O102 2.430 . S
Eu81 O103 2.670 . S
Eu81 O104 2.394 . S
Eu81 O109 2.355 . S
Eu81 O111 2.374 . S
C82 C80 1.500 . S
C82 C83 1.377 . S
C82 C87 1.377 . S
C83 C82 1.377 . S
C83 C84 1.395 . S
C83 H112 0.931 . S
C84 C83 1.395 . S
C84 C85 1.383 . S
C84 H113 0.931 . S
C85 C84 1.383 . S
C85 C86 1.394 . S
C86 C85 1.394 . S
C86 C87 1.378 . S
C86 H114 0.931 . S
C87 C82 1.377 . S
C87 C86 1.378 . S
C87 H115 0.931 . S
C88 O102 1.259 . S
C88 O103 1.270 . S
C89 O104 1.251 . S
C89 O105 1.251 . S
C90 Eu91 2.835 1_545 S
C90 C92 1.500 . S
C90 O106 1.257 . S
C90 O107 1.260 . S
Eu91 C90 2.835 1_565 S
Eu91 O103 2.355 . S
Eu91 O105 2.374 . S
Eu91 O106 2.473 1_565 S
Eu91 O107 2.480 1_565 S
Eu91 O108 2.430 . S
Eu91 O109 2.670 . S
Eu91 O110 2.394 1_565 S
C92 C90 1.500 . S
C92 C93 1.377 . S
C92 C97 1.377 . S
C93 C92 1.377 . S
C93 C94 1.395 . S
C93 H116 0.931 . S
C94 C93 1.395 . S
C94 C95 1.383 . S
C94 H117 0.931 . S
C95 C94 1.383 . S
C95 C96 1.394 . S
C96 C95 1.394 . S
C96 C97 1.378 . S
C96 H118 0.931 . S
C97 C92 1.377 . S
C97 C96 1.378 . S
C97 H119 0.931 . S
C98 O108 1.259 . S
C98 O109 1.270 . S
C99 O110 1.251 1_565 S
C99 O111 1.251 . S
O100 C80 1.257 . S
O100 Eu81 2.473 . S
O101 C80 1.260 . S
O101 Eu81 2.480 . S
O102 Eu81 2.430 . S
O102 C88 1.259 . S
O103 Eu81 2.670 . S
O103 C88 1.270 . S
O103 Eu91 2.355 . S
O104 Eu81 2.394 . S
O104 C89 1.251 . S
O105 C89 1.251 . S
O105 Eu91 2.374 . S
O106 C90 1.257 . S
O106 Eu91 2.473 1_545 S
O107 C90 1.260 . S
O107 Eu91 2.480 1_545 S
O108 Eu91 2.430 . S
O108 C98 1.259 . S
O109 Eu81 2.355 . S
O109 Eu91 2.670 . S
O109 C98 1.270 . S
O110 Eu91 2.394 1_545 S
O110 C99 1.251 1_545 S
O111 Eu81 2.374 . S
O111 C99 1.251 . S
H112 C83 0.931 . S
H113 C84 0.931 . S
H114 C86 0.931 . S
H115 C87 0.931 . S
H116 C93 0.931 . S
H117 C94 0.931 . S
H118 C96 0.931 . S
H119 C97 0.931 . S
C120 Eu121 2.835 . S
C120 C122 1.500 . S
C120 O140 1.257 . S
C120 O141 1.260 . S
Eu121 C120 2.835 . S
Eu121 O140 2.473 . S
Eu121 O141 2.480 . S
Eu121 O142 2.430 . S
Eu121 O143 2.670 . S
Eu121 O144 2.394 . S
Eu121 O149 2.355 . S
Eu121 O151 2.374 . S
C122 C120 1.500 . S
C122 C123 1.377 . S
C122 C127 1.377 . S
C123 C122 1.377 . S
C123 C124 1.395 . S
C123 H152 0.931 . S
C124 C123 1.395 . S
C124 C125 1.383 . S
C124 H153 0.931 . S
C125 C124 1.383 . S
C125 C126 1.394 . S
C126 C125 1.394 . S
C126 C127 1.378 . S
C126 H154 0.931 . S
C127 C122 1.377 . S
C127 C126 1.378 . S
C127 H155 0.931 . S
C128 O142 1.259 . S
C128 O143 1.270 . S
C129 O144 1.251 . S
C129 O145 1.251 . S
C130 Eu131 2.835 1_565 S
C130 C132 1.500 . S
C130 O146 1.257 . S
C130 O147 1.260 . S
Eu131 C130 2.835 1_545 S
Eu131 O143 2.355 . S
Eu131 O145 2.374 . S
Eu131 O146 2.473 1_545 S
Eu131 O147 2.480 1_545 S
Eu131 O148 2.430 . S
Eu131 O149 2.670 . S
Eu131 O150 2.394 1_545 S
C132 C130 1.500 . S
C132 C133 1.377 . S
C132 C137 1.377 . S
C133 C132 1.377 . S
C133 C134 1.395 . S
C133 H156 0.931 . S
C134 C133 1.395 . S
C134 C135 1.383 . S
C134 H157 0.931 . S
C135 C134 1.383 . S
C135 C136 1.394 . S
C136 C135 1.394 . S
C136 C137 1.378 . S
C136 H158 0.931 . S
C137 C132 1.377 . S
C137 C136 1.378 . S
C137 H159 0.931 . S
C138 O148 1.259 . S
C138 O149 1.270 . S
C139 O150 1.251 1_545 S
C139 O151 1.251 . S
O140 C120 1.257 . S
O140 Eu121 2.473 . S
O141 C120 1.260 . S
O141 Eu121 2.480 . S
O142 Eu121 2.430 . S
O142 C128 1.259 . S
O143 Eu121 2.670 . S
O143 C128 1.270 . S
O143 Eu131 2.355 . S
O144 Eu121 2.394 . S
O144 C129 1.251 . S
O145 C129 1.251 . S
O145 Eu131 2.374 . S
O146 C130 1.257 . S
O146 Eu131 2.473 1_565 S
O147 C130 1.260 . S
O147 Eu131 2.480 1_565 S
O148 Eu131 2.430 . S
O148 C138 1.259 . S
O149 Eu121 2.355 . S
O149 Eu131 2.670 . S
O149 C138 1.270 . S
O150 Eu131 2.394 1_565 S
O150 C139 1.251 1_565 S
O151 Eu121 2.374 . S
O151 C139 1.251 . S
H152 C123 0.931 . S
H153 C124 0.931 . S
H154 C126 0.931 . S
H155 C127 0.931 . S
H156 C133 0.931 . S
H157 C134 0.931 . S
H158 C136 0.931 . S
H159 C137 0.931 . S
C160 Eu161 2.835 1_545 S
C160 C162 1.500 . S
C160 O180 1.257 . S
C160 O181 1.260 . S
Eu161 C160 2.835 1_565 S
Eu161 O180 2.473 1_565 S
Eu161 O181 2.480 1_565 S
Eu161 O182 2.430 . S
Eu161 O183 2.670 . S
Eu161 O184 2.394 1_565 S
Eu161 O189 2.355 . S
Eu161 O191 2.374 . S
C162 C160 1.500 . S
C162 C163 1.377 . S
C162 C167 1.377 . S
C163 C162 1.377 . S
C163 C164 1.395 . S
C163 H192 0.931 . S
C164 C163 1.395 . S
C164 C165 1.383 . S
C164 H193 0.931 . S
C165 C164 1.383 . S
C165 C166 1.394 . S
C166 C165 1.394 . S
C166 C167 1.378 . S
C166 H194 0.931 . S
C167 C162 1.377 . S
C167 C166 1.378 . S
C167 H195 0.931 . S
C168 O182 1.259 . S
C168 O183 1.270 . S
C169 O184 1.251 1_565 S
C169 O185 1.251 . S
C170 Eu171 2.835 . S
C170 C172 1.500 . S
C170 O186 1.257 . S
C170 O187 1.260 . S
Eu171 C170 2.835 . S
Eu171 O183 2.355 . S
Eu171 O185 2.374 . S
Eu171 O186 2.473 . S
Eu171 O187 2.480 . S
Eu171 O188 2.430 . S
Eu171 O189 2.670 . S
Eu171 O190 2.394 . S
C172 C170 1.500 . S
C172 C173 1.377 . S
C172 C177 1.377 . S
C173 C172 1.377 . S
C173 C174 1.395 . S
C173 H196 0.931 . S
C174 C173 1.395 . S
C174 C175 1.383 . S
C174 H197 0.931 . S
C175 C174 1.383 . S
C175 C176 1.394 . S
C176 C175 1.394 . S
C176 C177 1.378 . S
C176 H198 0.931 . S
C177 C172 1.377 . S
C177 C176 1.378 . S
C177 H199 0.931 . S
C178 O188 1.259 . S
C178 O189 1.270 . S
C179 O190 1.251 . S
C179 O191 1.251 . S
O180 C160 1.257 . S
O180 Eu161 2.473 1_545 S
O181 C160 1.260 . S
O181 Eu161 2.480 1_545 S
O182 Eu161 2.430 . S
O182 C168 1.259 . S
O183 Eu161 2.670 . S
O183 C168 1.270 . S
O183 Eu171 2.355 . S
O184 Eu161 2.394 1_545 S
O184 C169 1.251 1_545 S
O185 C169 1.251 . S
O185 Eu171 2.374 . S
O186 C170 1.257 . S
O186 Eu171 2.473 . S
O187 C170 1.260 . S
O187 Eu171 2.480 . S
O188 Eu171 2.430 . S
O188 C178 1.259 . S
O189 Eu161 2.355 . S
O189 Eu171 2.670 . S
O189 C178 1.270 . S
O190 Eu171 2.394 . S
O190 C179 1.251 . S
O191 Eu161 2.374 . S
O191 C179 1.251 . S
H192 C163 0.931 . S
H193 C164 0.931 . S
H194 C166 0.931 . S
H195 C167 0.931 . S
H196 C173 0.931 . S
H197 C174 0.931 . S
H198 C176 0.931 . S
H199 C177 0.931 . S
C200 Eu201 2.835 1_565 S
C200 C202 1.500 . S
C200 O220 1.257 . S
C200 O221 1.260 . S
Eu201 C200 2.835 1_545 S
Eu201 O220 2.473 1_545 S
Eu201 O221 2.480 1_545 S
Eu201 O222 2.430 . S
Eu201 O223 2.670 . S
Eu201 O224 2.394 1_545 S
Eu201 O229 2.355 . S
Eu201 O231 2.374 . S
C202 C200 1.500 . S
C202 C203 1.377 . S
C202 C207 1.377 . S
C203 C202 1.377 . S
C203 C204 1.395 . S
C203 H232 0.931 . S
C204 C203 1.395 . S
C204 C205 1.383 . S
C204 H233 0.931 . S
C205 C204 1.383 . S
C205 C206 1.394 . S
C206 C205 1.394 . S
C206 C207 1.378 . S
C206 H234 0.931 . S
C207 C202 1.377 . S
C207 C206 1.378 . S
C207 H235 0.931 . S
C208 O222 1.259 . S
C208 O223 1.270 . S
C209 O224 1.251 1_545 S
C209 O225 1.251 . S
C210 Eu211 2.835 . S
C210 C212 1.500 . S
C210 O226 1.257 . S
C210 O227 1.260 . S
Eu211 C210 2.835 . S
Eu211 O223 2.355 . S
Eu211 O225 2.374 . S
Eu211 O226 2.473 . S
Eu211 O227 2.480 . S
Eu211 O228 2.430 . S
Eu211 O229 2.670 . S
Eu211 O230 2.394 . S
C212 C210 1.500 . S
C212 C213 1.377 . S
C212 C217 1.377 . S
C213 C212 1.377 . S
C213 C214 1.395 . S
C213 H236 0.931 . S
C214 C213 1.395 . S
C214 C215 1.383 . S
C214 H237 0.931 . S
C215 C214 1.383 . S
C215 C216 1.394 . S
C216 C215 1.394 . S
C216 C217 1.378 . S
C216 H238 0.931 . S
C217 C212 1.377 . S
C217 C216 1.378 . S
C217 H239 0.931 . S
C218 O228 1.259 . S
C218 O229 1.270 . S
C219 O230 1.251 . S
C219 O231 1.251 . S
O220 C200 1.257 . S
O220 Eu201 2.473 1_565 S
O221 C200 1.260 . S
O221 Eu201 2.480 1_565 S
O222 Eu201 2.430 . S
O222 C208 1.259 . S
O223 Eu201 2.670 . S
O223 C208 1.270 . S
O223 Eu211 2.355 . S
O224 Eu201 2.394 1_565 S
O224 C209 1.251 1_565 S
O225 C209 1.251 . S
O225 Eu211 2.374 . S
O226 C210 1.257 . S
O226 Eu211 2.473 . S
O227 C210 1.260 . S
O227 Eu211 2.480 . S
O228 Eu211 2.430 . S
O228 C218 1.259 . S
O229 Eu201 2.355 . S
O229 Eu211 2.670 . S
O229 C218 1.270 . S
O230 Eu211 2.394 . S
O230 C219 1.251 . S
O231 Eu201 2.374 . S
O231 C219 1.251 . S
H232 C203 0.931 . S
H233 C204 0.931 . S
H234 C206 0.931 . S
H235 C207 0.931 . S
H236 C213 0.931 . S
H237 C214 0.931 . S
H238 C216 0.931 . S
H239 C217 0.931 . S
C240 Eu241 2.835 1_565 S
C240 C242 1.500 . S
C240 O260 1.257 . S
C240 O261 1.260 . S
Eu241 C240 2.835 1_545 S
Eu241 O260 2.473 1_545 S
Eu241 O261 2.480 1_545 S
Eu241 O262 2.430 . S
Eu241 O263 2.670 . S
Eu241 O264 2.394 1_545 S
Eu241 O269 2.355 . S
Eu241 O271 2.374 . S
C242 C240 1.500 . S
C242 C243 1.377 . S
C242 C247 1.377 . S
C243 C242 1.377 . S
C243 C244 1.395 . S
C243 H272 0.931 . S
C244 C243 1.395 . S
C244 C245 1.383 . S
C244 H273 0.931 . S
C245 C244 1.383 . S
C245 C246 1.394 . S
C246 C245 1.394 . S
C246 C247 1.378 . S
C246 H274 0.931 . S
C247 C242 1.377 . S
C247 C246 1.378 . S
C247 H275 0.931 . S
C248 O262 1.259 . S
C248 O263 1.270 . S
C249 O264 1.251 1_545 S
C249 O265 1.251 . S
C250 Eu251 2.835 . S
C250 C252 1.500 . S
C250 O266 1.257 . S
C250 O267 1.260 . S
Eu251 C250 2.835 . S
Eu251 O263 2.355 . S
Eu251 O265 2.374 . S
Eu251 O266 2.473 . S
Eu251 O267 2.480 . S
Eu251 O268 2.430 . S
Eu251 O269 2.670 . S
Eu251 O270 2.394 . S
C252 C250 1.500 . S
C252 C253 1.377 . S
C252 C257 1.377 . S
C253 C252 1.377 . S
C253 C254 1.395 . S
C253 H276 0.931 . S
C254 C253 1.395 . S
C254 C255 1.383 . S
C254 H277 0.931 . S
C255 C254 1.383 . S
C255 C256 1.394 . S
C256 C255 1.394 . S
C256 C257 1.378 . S
C256 H278 0.931 . S
C257 C252 1.377 . S
C257 C256 1.378 . S
C257 H279 0.931 . S
C258 O268 1.259 . S
C258 O269 1.270 . S
C259 O270 1.251 . S
C259 O271 1.251 . S
O260 C240 1.257 . S
O260 Eu241 2.473 1_565 S
O261 C240 1.260 . S
O261 Eu241 2.480 1_565 S
O262 Eu241 2.430 . S
O262 C248 1.259 . S
O263 Eu241 2.670 . S
O263 C248 1.270 . S
O263 Eu251 2.355 . S
O264 Eu241 2.394 1_565 S
O264 C249 1.251 1_565 S
O265 C249 1.251 . S
O265 Eu251 2.374 . S
O266 C250 1.257 . S
O266 Eu251 2.473 . S
O267 C250 1.260 . S
O267 Eu251 2.480 . S
O268 Eu251 2.430 . S
O268 C258 1.259 . S
O269 Eu241 2.355 . S
O269 Eu251 2.670 . S
O269 C258 1.270 . S
O270 Eu251 2.394 . S
O270 C259 1.251 . S
O271 Eu241 2.374 . S
O271 C259 1.251 . S
H272 C243 0.931 . S
H273 C244 0.931 . S
H274 C246 0.931 . S
H275 C247 0.931 . S
H276 C253 0.931 . S
H277 C254 0.931 . S
H278 C256 0.931 . S
H279 C257 0.931 . S
C280 Eu281 2.835 1_545 S
C280 C282 1.500 . S
C280 O300 1.257 . S
C280 O301 1.260 . S
Eu281 C280 2.835 1_565 S
Eu281 O300 2.473 1_565 S
Eu281 O301 2.480 1_565 S
Eu281 O302 2.430 . S
Eu281 O303 2.670 . S
Eu281 O304 2.394 1_565 S
Eu281 O309 2.355 . S
Eu281 O311 2.374 . S
C282 C280 1.500 . S
C282 C283 1.377 . S
C282 C287 1.377 . S
C283 C282 1.377 . S
C283 C284 1.395 . S
C283 H312 0.931 . S
C284 C283 1.395 . S
C284 C285 1.383 . S
C284 H313 0.931 . S
C285 C284 1.383 . S
C285 C286 1.394 . S
C286 C285 1.394 . S
C286 C287 1.378 . S
C286 H314 0.931 . S
C287 C282 1.377 . S
C287 C286 1.378 . S
C287 H315 0.931 . S
C288 O302 1.259 . S
C288 O303 1.270 . S
C289 O304 1.251 1_565 S
C289 O305 1.251 . S
C290 Eu291 2.835 . S
C290 C292 1.500 . S
C290 O306 1.257 . S
C290 O307 1.260 . S
Eu291 C290 2.835 . S
Eu291 O303 2.355 . S
Eu291 O305 2.374 . S
Eu291 O306 2.473 . S
Eu291 O307 2.480 . S
Eu291 O308 2.430 . S
Eu291 O309 2.670 . S
Eu291 O310 2.394 . S
C292 C290 1.500 . S
C292 C293 1.377 . S
C292 C297 1.377 . S
C293 C292 1.377 . S
C293 C294 1.395 . S
C293 H316 0.931 . S
C294 C293 1.395 . S
C294 C295 1.383 . S
C294 H317 0.931 . S
C295 C294 1.383 . S
C295 C296 1.394 . S
C296 C295 1.394 . S
C296 C297 1.378 . S
C296 H318 0.931 . S
C297 C292 1.377 . S
C297 C296 1.378 . S
C297 H319 0.931 . S
C298 O308 1.259 . S
C298 O309 1.270 . S
C299 O310 1.251 . S
C299 O311 1.251 . S
O300 C280 1.257 . S
O300 Eu281 2.473 1_545 S
O301 C280 1.260 . S
O301 Eu281 2.480 1_545 S
O302 Eu281 2.430 . S
O302 C288 1.259 . S
O303 Eu281 2.670 . S
O303 C288 1.270 . S
O303 Eu291 2.355 . S
O304 Eu281 2.394 1_545 S
O304 C289 1.251 1_545 S
O305 C289 1.251 . S
O305 Eu291 2.374 . S
O306 C290 1.257 . S
O306 Eu291 2.473 . S
O307 C290 1.260 . S
O307 Eu291 2.480 . S
O308 Eu291 2.430 . S
O308 C298 1.259 . S
O309 Eu281 2.355 . S
O309 Eu291 2.670 . S
O309 C298 1.270 . S
O310 Eu291 2.394 . S
O310 C299 1.251 . S
O311 Eu281 2.374 . S
O311 C299 1.251 . S
H312 C283 0.931 . S
H313 C284 0.931 . S
H314 C286 0.931 . S
H315 C287 0.931 . S
H316 C293 0.931 . S
H317 C294 0.931 . S
H318 C296 0.931 . S
H319 C297 0.931 . S
C320 Eu321 2.835 . S
C320 C322 1.500 . S
C320 O340 1.257 . S
C320 O341 1.260 . S
Eu321 C320 2.835 . S
Eu321 O340 2.473 . S
Eu321 O341 2.480 . S
Eu321 O342 2.430 . S
Eu321 O343 2.670 . S
Eu321 O344 2.394 . S
Eu321 O349 2.355 . S
Eu321 O351 2.374 . S
C322 C320 1.500 . S
C322 C323 1.377 . S
C322 C327 1.377 . S
C323 C322 1.377 . S
C323 C324 1.395 1_565 S
C323 H352 0.931 . S
C324 C323 1.395 1_545 S
C324 C325 1.383 . S
C324 H353 0.931 . S
C325 C324 1.383 . S
C325 C326 1.394 . S
C326 C325 1.394 . S
C326 C327 1.378 1_545 S
C326 H354 0.931 . S
C327 C322 1.377 . S
C327 C326 1.378 1_565 S
C327 H355 0.931 . S
C328 O342 1.259 . S
C328 O343 1.270 . S
C329 O344 1.251 . S
C329 O345 1.251 . S
C330 Eu331 2.835 . S
C330 C332 1.500 . S
C330 O346 1.257 . S
C330 O347 1.260 . S
Eu331 C330 2.835 . S
Eu331 O343 2.355 . S
Eu331 O345 2.374 . S
Eu331 O346 2.473 . S
Eu331 O347 2.480 . S
Eu331 O348 2.430 . S
Eu331 O349 2.670 . S
Eu331 O350 2.394 . S
C332 C330 1.500 . S
C332 C333 1.377 . S
C332 C337 1.377 . S
C333 C332 1.377 . S
C333 C334 1.395 . S
C333 H356 0.931 . S
C334 C333 1.395 . S
C334 C335 1.383 . S
C334 H357 0.931 . S
C335 C334 1.383 . S
C335 C336 1.394 . S
C336 C335 1.394 . S
C336 C337 1.378 . S
C336 H358 0.931 . S
C337 C332 1.377 . S
C337 C336 1.378 . S
C337 H359 0.931 . S
C338 O348 1.259 . S
C338 O349 1.270 . S
C339 O350 1.251 . S
C339 O351 1.251 . S
O340 C320 1.257 . S
O340 Eu321 2.473 . S
O341 C320 1.260 . S
O341 Eu321 2.480 . S
O342 Eu321 2.430 . S
O342 C328 1.259 . S
O343 Eu321 2.670 . S
O343 C328 1.270 . S
O343 Eu331 2.355 . S
O344 Eu321 2.394 . S
O344 C329 1.251 . S
O345 C329 1.251 . S
O345 Eu331 2.374 . S
O346 C330 1.257 . S
O346 Eu331 2.473 . S
O347 C330 1.260 . S
O347 Eu331 2.480 . S
O348 Eu331 2.430 . S
O348 C338 1.259 . S
O349 Eu321 2.355 . S
O349 Eu331 2.670 . S
O349 C338 1.270 . S
O350 Eu331 2.394 . S
O350 C339 1.251 . S
O351 Eu321 2.374 . S
O351 C339 1.251 . S
H352 C323 0.931 . S
H353 C324 0.931 . S
H354 C326 0.931 . S
H355 C327 0.931 . S
H356 C333 0.931 . S
H357 C334 0.931 . S
H358 C336 0.931 . S
H359 C337 0.931 . S
C360 Eu361 2.835 . S
C360 C362 1.500 . S
C360 O380 1.257 . S
C360 O381 1.260 . S
Eu361 C360 2.835 . S
Eu361 O380 2.473 . S
Eu361 O381 2.480 . S
Eu361 O382 2.430 . S
Eu361 O383 2.670 . S
Eu361 O384 2.394 . S
Eu361 O389 2.355 . S
Eu361 O391 2.374 . S
C362 C360 1.500 . S
C362 C363 1.377 . S
C362 C367 1.377 . S
C363 C362 1.377 . S
C363 C364 1.395 1_545 S
C363 H392 0.931 . S
C364 C363 1.395 1_565 S
C364 C365 1.383 . S
C364 H393 0.931 . S
C365 C364 1.383 . S
C365 C366 1.394 . S
C366 C365 1.394 . S
C366 C367 1.378 1_565 S
C366 H394 0.931 . S
C367 C362 1.377 . S
C367 C366 1.378 1_545 S
C367 H395 0.931 . S
C368 O382 1.259 . S
C368 O383 1.270 . S
C369 O384 1.251 . S
C369 O385 1.251 . S
C370 Eu371 2.835 . S
C370 C372 1.500 . S
C370 O386 1.257 . S
C370 O387 1.260 . S
Eu371 C370 2.835 . S
Eu371 O383 2.355 . S
Eu371 O385 2.374 . S
Eu371 O386 2.473 . S
Eu371 O387 2.480 . S
Eu371 O388 2.430 . S
Eu371 O389 2.670 . S
Eu371 O390 2.394 . S
C372 C370 1.500 . S
C372 C373 1.377 . S
C372 C377 1.377 . S
C373 C372 1.377 . S
C373 C374 1.395 . S
C373 H396 0.931 . S
C374 C373 1.395 . S
C374 C375 1.383 . S
C374 H397 0.931 . S
C375 C374 1.383 . S
C375 C376 1.394 . S
C376 C375 1.394 . S
C376 C377 1.378 . S
C376 H398 0.931 . S
C377 C372 1.377 . S
C377 C376 1.378 . S
C377 H399 0.931 . S
C378 O388 1.259 . S
C378 O389 1.270 . S
C379 O390 1.251 . S
C379 O391 1.251 . S
O380 C360 1.257 . S
O380 Eu361 2.473 . S
O381 C360 1.260 . S
O381 Eu361 2.480 . S
O382 Eu361 2.430 . S
O382 C368 1.259 . S
O383 Eu361 2.670 . S
O383 C368 1.270 . S
O383 Eu371 2.355 . S
O384 Eu361 2.394 . S
O384 C369 1.251 . S
O385 C369 1.251 . S
O385 Eu371 2.374 . S
O386 C370 1.257 . S
O386 Eu371 2.473 . S
O387 C370 1.260 . S
O387 Eu371 2.480 . S
O388 Eu371 2.430 . S
O388 C378 1.259 . S
O389 Eu361 2.355 . S
O389 Eu371 2.670 . S
O389 C378 1.270 . S
O390 Eu371 2.394 . S
O390 C379 1.251 . S
O391 Eu361 2.374 . S
O391 C379 1.251 . S
H392 C363 0.931 . S
H393 C364 0.931 . S
H394 C366 0.931 . S
H395 C367 0.931 . S
H396 C373 0.931 . S
H397 C374 0.931 . S
H398 C376 0.931 . S
H399 C377 0.931 . S
C400 Eu401 2.835 . S
C400 C402 1.500 . S
C400 O420 1.257 . S
C400 O421 1.260 . S
Eu401 C400 2.835 . S
Eu401 O420 2.473 . S
Eu401 O421 2.480 . S
Eu401 O422 2.430 . S
Eu401 O423 2.670 . S
Eu401 O424 2.394 . S
Eu401 O429 2.355 . S
Eu401 O431 2.374 . S
C402 C400 1.500 . S
C402 C403 1.377 . S
C402 C407 1.377 . S
C403 C402 1.377 . S
C403 C404 1.395 1_545 S
C403 H432 0.931 . S
C404 C403 1.395 1_565 S
C404 C405 1.383 . S
C404 H433 0.931 . S
C405 C404 1.383 . S
C405 C406 1.394 . S
C406 C405 1.394 . S
C406 C407 1.378 1_565 S
C406 H434 0.931 . S
C407 C402 1.377 . S
C407 C406 1.378 1_545 S
C407 H435 0.931 . S
C408 O422 1.259 . S
C408 O423 1.270 . S
C409 O424 1.251 . S
C409 O425 1.251 . S
C410 Eu411 2.835 . S
C410 C412 1.500 . S
C410 O426 1.257 . S
C410 O427 1.260 . S
Eu411 C410 2.835 . S
Eu411 O423 2.355 . S
Eu411 O425 2.374 . S
Eu411 O426 2.473 . S
Eu411 O427 2.480 . S
Eu411 O428 2.430 . S
Eu411 O429 2.670 . S
Eu411 O430 2.394 . S
C412 C410 1.500 . S
C412 C413 1.377 . S
C412 C417 1.377 . S
C413 C412 1.377 . S
C413 C414 1.395 . S
C413 H436 0.931 . S
C414 C413 1.395 . S
C414 C415 1.383 . S
C414 H437 0.931 . S
C415 C414 1.383 . S
C415 C416 1.394 . S
C416 C415 1.394 . S
C416 C417 1.378 . S
C416 H438 0.931 . S
C417 C412 1.377 . S
C417 C416 1.378 . S
C417 H439 0.931 . S
C418 O428 1.259 . S
C418 O429 1.270 . S
C419 O430 1.251 . S
C419 O431 1.251 . S
O420 C400 1.257 . S
O420 Eu401 2.473 . S
O421 C400 1.260 . S
O421 Eu401 2.480 . S
O422 Eu401 2.430 . S
O422 C408 1.259 . S
O423 Eu401 2.670 . S
O423 C408 1.270 . S
O423 Eu411 2.355 . S
O424 Eu401 2.394 . S
O424 C409 1.251 . S
O425 C409 1.251 . S
O425 Eu411 2.374 . S
O426 C410 1.257 . S
O426 Eu411 2.473 . S
O427 C410 1.260 . S
O427 Eu411 2.480 . S
O428 Eu411 2.430 . S
O428 C418 1.259 . S
O429 Eu401 2.355 . S
O429 Eu411 2.670 . S
O429 C418 1.270 . S
O430 Eu411 2.394 . S
O430 C419 1.251 . S
O431 Eu401 2.374 . S
O431 C419 1.251 . S
H432 C403 0.931 . S
H433 C404 0.931 . S
H434 C406 0.931 . S
H435 C407 0.931 . S
H436 C413 0.931 . S
H437 C414 0.931 . S
H438 C416 0.931 . S
H439 C417 0.931 . S
C440 Eu441 2.835 . S
C440 C442 1.500 . S
C440 O460 1.257 . S
C440 O461 1.260 . S
Eu441 C440 2.835 . S
Eu441 O460 2.473 . S
Eu441 O461 2.480 . S
Eu441 O462 2.430 . S
Eu441 O463 2.670 . S
Eu441 O464 2.394 . S
Eu441 O469 2.355 . S
Eu441 O471 2.374 . S
C442 C440 1.500 . S
C442 C443 1.377 . S
C442 C447 1.377 . S
C443 C442 1.377 . S
C443 C444 1.395 1_565 S
C443 H472 0.931 . S
C444 C443 1.395 1_545 S
C444 C445 1.383 . S
C444 H473 0.931 . S
C445 C444 1.383 . S
C445 C446 1.394 . S
C446 C445 1.394 . S
C446 C447 1.378 1_545 S
C446 H474 0.931 . S
C447 C442 1.377 . S
C447 C446 1.378 1_565 S
C447 H475 0.931 . S
C448 O462 1.259 . S
C448 O463 1.270 . S
C449 O464 1.251 . S
C449 O465 1.251 . S
C450 Eu451 2.835 . S
C450 C452 1.500 . S
C450 O466 1.257 . S
C450 O467 1.260 . S
Eu451 C450 2.835 . S
Eu451 O463 2.355 . S
Eu451 O465 2.374 . S
Eu451 O466 2.473 . S
Eu451 O467 2.480 . S
Eu451 O468 2.430 . S
Eu451 O469 2.670 . S
Eu451 O470 2.394 . S
C452 C450 1.500 . S
C452 C453 1.377 . S
C452 C457 1.377 . S
C453 C452 1.377 . S
C453 C454 1.395 . S
C453 H476 0.931 . S
C454 C453 1.395 . S
C454 C455 1.383 . S
C454 H477 0.931 . S
C455 C454 1.383 . S
C455 C456 1.394 . S
C456 C455 1.394 . S
C456 C457 1.378 . S
C456 H478 0.931 . S
C457 C452 1.377 . S
C457 C456 1.378 . S
C457 H479 0.931 . S
C458 O468 1.259 . S
C458 O469 1.270 . S
C459 O470 1.251 . S
C459 O471 1.251 . S
O460 C440 1.257 . S
O460 Eu441 2.473 . S
O461 C440 1.260 . S
O461 Eu441 2.480 . S
O462 Eu441 2.430 . S
O462 C448 1.259 . S
O463 Eu441 2.670 . S
O463 C448 1.270 . S
O463 Eu451 2.355 . S
O464 Eu441 2.394 . S
O464 C449 1.251 . S
O465 C449 1.251 . S
O465 Eu451 2.374 . S
O466 C450 1.257 . S
O466 Eu451 2.473 . S
O467 C450 1.260 . S
O467 Eu451 2.480 . S
O468 Eu451 2.430 . S
O468 C458 1.259 . S
O469 Eu441 2.355 . S
O469 Eu451 2.670 . S
O469 C458 1.270 . S
O470 Eu451 2.394 . S
O470 C459 1.251 . S
O471 Eu441 2.374 . S
O471 C459 1.251 . S
H472 C443 0.931 . S
H473 C444 0.931 . S
H474 C446 0.931 . S
H475 C447 0.931 . S
H476 C453 0.931 . S
H477 C454 0.931 . S
H478 C456 0.931 . S
H479 C457 0.931 . S
C480 Eu481 2.835 . S
C480 C482 1.500 . S
C480 O500 1.257 . S
C480 O501 1.260 . S
Eu481 C480 2.835 . S
Eu481 O500 2.473 . S
Eu481 O501 2.480 . S
Eu481 O502 2.430 . S
Eu481 O503 2.670 . S
Eu481 O504 2.394 . S
Eu481 O509 2.355 . S
Eu481 O511 2.374 . S
C482 C480 1.500 . S
C482 C483 1.377 . S
C482 C487 1.377 . S
C483 C482 1.377 . S
C483 C484 1.395 . S
C483 H512 0.931 . S
C484 C483 1.395 . S
C484 C485 1.383 . S
C484 H513 0.931 . S
C485 C484 1.383 . S
C485 C486 1.394 . S
C486 C485 1.394 . S
C486 C487 1.378 . S
C486 H514 0.931 . S
C487 C482 1.377 . S
C487 C486 1.378 . S
C487 H515 0.931 . S
C488 O502 1.259 . S
C488 O503 1.270 . S
C489 O504 1.251 . S
C489 O505 1.251 . S
C490 Eu491 2.835 . S
C490 C492 1.500 . S
C490 O506 1.257 . S
C490 O507 1.260 . S
Eu491 C490 2.835 . S
Eu491 O503 2.355 . S
Eu491 O505 2.374 . S
Eu491 O506 2.473 . S
Eu491 O507 2.480 . S
Eu491 O508 2.430 . S
Eu491 O509 2.670 . S
Eu491 O510 2.394 . S
C492 C490 1.500 . S
C492 C493 1.377 . S
C492 C497 1.377 . S
C493 C492 1.377 . S
C493 C494 1.395 1_545 S
C493 H516 0.931 . S
C494 C493 1.395 1_565 S
C494 C495 1.383 . S
C494 H517 0.931 . S
C495 C494 1.383 . S
C495 C496 1.394 . S
C496 C495 1.394 . S
C496 C497 1.378 1_565 S
C496 H518 0.931 . S
C497 C492 1.377 . S
C497 C496 1.378 1_545 S
C497 H519 0.931 . S
C498 O508 1.259 . S
C498 O509 1.270 . S
C499 O510 1.251 . S
C499 O511 1.251 . S
O500 C480 1.257 . S
O500 Eu481 2.473 . S
O501 C480 1.260 . S
O501 Eu481 2.480 . S
O502 Eu481 2.430 . S
O502 C488 1.259 . S
O503 Eu481 2.670 . S
O503 C488 1.270 . S
O503 Eu491 2.355 . S
O504 Eu481 2.394 . S
O504 C489 1.251 . S
O505 C489 1.251 . S
O505 Eu491 2.374 . S
O506 C490 1.257 . S
O506 Eu491 2.473 . S
O507 C490 1.260 . S
O507 Eu491 2.480 . S
O508 Eu491 2.430 . S
O508 C498 1.259 . S
O509 Eu481 2.355 . S
O509 Eu491 2.670 . S
O509 C498 1.270 . S
O510 Eu491 2.394 . S
O510 C499 1.251 . S
O511 Eu481 2.374 . S
O511 C499 1.251 . S
H512 C483 0.931 . S
H513 C484 0.931 . S
H514 C486 0.931 . S
H515 C487 0.931 . S
H516 C493 0.931 . S
H517 C494 0.931 . S
H518 C496 0.931 . S
H519 C497 0.931 . S
C520 Eu521 2.835 . S
C520 C522 1.500 . S
C520 O540 1.257 . S
C520 O541 1.260 . S
Eu521 C520 2.835 . S
Eu521 O540 2.473 . S
Eu521 O541 2.480 . S
Eu521 O542 2.430 . S
Eu521 O543 2.670 . S
Eu521 O544 2.394 . S
Eu521 O549 2.355 . S
Eu521 O551 2.374 . S
C522 C520 1.500 . S
C522 C523 1.377 . S
C522 C527 1.377 . S
C523 C522 1.377 . S
C523 C524 1.395 . S
C523 H552 0.931 . S
C524 C523 1.395 . S
C524 C525 1.383 . S
C524 H553 0.931 . S
C525 C524 1.383 . S
C525 C526 1.394 . S
C526 C525 1.394 . S
C526 C527 1.378 . S
C526 H554 0.931 . S
C527 C522 1.377 . S
C527 C526 1.378 . S
C527 H555 0.931 . S
C528 O542 1.259 . S
C528 O543 1.270 . S
C529 O544 1.251 . S
C529 O545 1.251 . S
C530 Eu531 2.835 . S
C530 C532 1.500 . S
C530 O546 1.257 . S
C530 O547 1.260 . S
Eu531 C530 2.835 . S
Eu531 O543 2.355 . S
Eu531 O545 2.374 . S
Eu531 O546 2.473 . S
Eu531 O547 2.480 . S
Eu531 O548 2.430 . S
Eu531 O549 2.670 . S
Eu531 O550 2.394 . S
C532 C530 1.500 . S
C532 C533 1.377 . S
C532 C537 1.377 . S
C533 C532 1.377 . S
C533 C534 1.395 1_565 S
C533 H556 0.931 . S
C534 C533 1.395 1_545 S
C534 C535 1.383 . S
C534 H557 0.931 . S
C535 C534 1.383 . S
C535 C536 1.394 . S
C536 C535 1.394 . S
C536 C537 1.378 1_545 S
C536 H558 0.931 . S
C537 C532 1.377 . S
C537 C536 1.378 1_565 S
C537 H559 0.931 . S
C538 O548 1.259 . S
C538 O549 1.270 . S
C539 O550 1.251 . S
C539 O551 1.251 . S
O540 C520 1.257 . S
O540 Eu521 2.473 . S
O541 C520 1.260 . S
O541 Eu521 2.480 . S
O542 Eu521 2.430 . S
O542 C528 1.259 . S
O543 Eu521 2.670 . S
O543 C528 1.270 . S
O543 Eu531 2.355 . S
O544 Eu521 2.394 . S
O544 C529 1.251 . S
O545 C529 1.251 . S
O545 Eu531 2.374 . S
O546 C530 1.257 . S
O546 Eu531 2.473 . S
O547 C530 1.260 . S
O547 Eu531 2.480 . S
O548 Eu531 2.430 . S
O548 C538 1.259 . S
O549 Eu521 2.355 . S
O549 Eu531 2.670 . S
O549 C538 1.270 . S
O550 Eu531 2.394 . S
O550 C539 1.251 . S
O551 Eu521 2.374 . S
O551 C539 1.251 . S
H552 C523 0.931 . S
H553 C524 0.931 . S
H554 C526 0.931 . S
H555 C527 0.931 . S
H556 C533 0.931 . S
H557 C534 0.931 . S
H558 C536 0.931 . S
H559 C537 0.931 . S
C560 Eu561 2.835 . S
C560 C562 1.500 . S
C560 O580 1.257 . S
C560 O581 1.260 . S
Eu561 C560 2.835 . S
Eu561 O580 2.473 . S
Eu561 O581 2.480 . S
Eu561 O582 2.430 . S
Eu561 O583 2.670 . S
Eu561 O584 2.394 . S
Eu561 O589 2.355 . S
Eu561 O591 2.374 . S
C562 C560 1.500 . S
C562 C563 1.377 . S
C562 C567 1.377 . S
C563 C562 1.377 . S
C563 C564 1.395 . S
C563 H592 0.931 . S
C564 C563 1.395 . S
C564 C565 1.383 . S
C564 H593 0.931 . S
C565 C564 1.383 . S
C565 C566 1.394 . S
C566 C565 1.394 . S
C566 C567 1.378 . S
C566 H594 0.931 . S
C567 C562 1.377 . S
C567 C566 1.378 . S
C567 H595 0.931 . S
C568 O582 1.259 . S
C568 O583 1.270 . S
C569 O584 1.251 . S
C569 O585 1.251 . S
C570 Eu571 2.835 . S
C570 C572 1.500 . S
C570 O586 1.257 . S
C570 O587 1.260 . S
Eu571 C570 2.835 . S
Eu571 O583 2.355 . S
Eu571 O585 2.374 . S
Eu571 O586 2.473 . S
Eu571 O587 2.480 . S
Eu571 O588 2.430 . S
Eu571 O589 2.670 . S
Eu571 O590 2.394 . S
C572 C570 1.500 . S
C572 C573 1.377 . S
C572 C577 1.377 . S
C573 C572 1.377 . S
C573 C574 1.395 1_565 S
C573 H596 0.931 . S
C574 C573 1.395 1_545 S
C574 C575 1.383 . S
C574 H597 0.931 . S
C575 C574 1.383 . S
C575 C576 1.394 . S
C576 C575 1.394 . S
C576 C577 1.378 1_545 S
C576 H598 0.931 . S
C577 C572 1.377 . S
C577 C576 1.378 1_565 S
C577 H599 0.931 . S
C578 O588 1.259 . S
C578 O589 1.270 . S
C579 O590 1.251 . S
C579 O591 1.251 . S
O580 C560 1.257 . S
O580 Eu561 2.473 . S
O581 C560 1.260 . S
O581 Eu561 2.480 . S
O582 Eu561 2.430 . S
O582 C568 1.259 . S
O583 Eu561 2.670 . S
O583 C568 1.270 . S
O583 Eu571 2.355 . S
O584 Eu561 2.394 . S
O584 C569 1.251 . S
O585 C569 1.251 . S
O585 Eu571 2.374 . S
O586 C570 1.257 . S
O586 Eu571 2.473 . S
O587 C570 1.260 . S
O587 Eu571 2.480 . S
O588 Eu571 2.430 . S
O588 C578 1.259 . S
O589 Eu561 2.355 . S
O589 Eu571 2.670 . S
O589 C578 1.270 . S
O590 Eu571 2.394 . S
O590 C579 1.251 . S
O591 Eu561 2.374 . S
O591 C579 1.251 . S
H592 C563 0.931 . S
H593 C564 0.931 . S
H594 C566 0.931 . S
H595 C567 0.931 . S
H596 C573 0.931 . S
H597 C574 0.931 . S
H598 C576 0.931 . S
H599 C577 0.931 . S
C600 Eu601 2.835 . S
C600 C602 1.500 . S
C600 O620 1.257 . S
C600 O621 1.260 . S
Eu601 C600 2.835 . S
Eu601 O620 2.473 . S
Eu601 O621 2.480 . S
Eu601 O622 2.430 . S
Eu601 O623 2.670 . S
Eu601 O624 2.394 . S
Eu601 O629 2.355 . S
Eu601 O631 2.374 . S
C602 C600 1.500 . S
C602 C603 1.377 . S
C602 C607 1.377 . S
C603 C602 1.377 . S
C603 C604 1.395 . S
C603 H632 0.931 . S
C604 C603 1.395 . S
C604 C605 1.383 . S
C604 H633 0.931 . S
C605 C604 1.383 . S
C605 C606 1.394 . S
C606 C605 1.394 . S
C606 C607 1.378 . S
C606 H634 0.931 . S
C607 C602 1.377 . S
C607 C606 1.378 . S
C607 H635 0.931 . S
C608 O622 1.259 . S
C608 O623 1.270 . S
C609 O624 1.251 . S
C609 O625 1.251 . S
C610 Eu611 2.835 . S
C610 C612 1.500 . S
C610 O626 1.257 . S
C610 O627 1.260 . S
Eu611 C610 2.835 . S
Eu611 O623 2.355 . S
Eu611 O625 2.374 . S
Eu611 O626 2.473 . S
Eu611 O627 2.480 . S
Eu611 O628 2.430 . S
Eu611 O629 2.670 . S
Eu611 O630 2.394 . S
C612 C610 1.500 . S
C612 C613 1.377 . S
C612 C617 1.377 . S
C613 C612 1.377 . S
C613 C614 1.395 1_545 S
C613 H636 0.931 . S
C614 C613 1.395 1_565 S
C614 C615 1.383 . S
C614 H637 0.931 . S
C615 C614 1.383 . S
C615 C616 1.394 . S
C616 C615 1.394 . S
C616 C617 1.378 1_565 S
C616 H638 0.931 . S
C617 C612 1.377 . S
C617 C616 1.378 1_545 S
C617 H639 0.931 . S
C618 O628 1.259 . S
C618 O629 1.270 . S
C619 O630 1.251 . S
C619 O631 1.251 . S
O620 C600 1.257 . S
O620 Eu601 2.473 . S
O621 C600 1.260 . S
O621 Eu601 2.480 . S
O622 Eu601 2.430 . S
O622 C608 1.259 . S
O623 Eu601 2.670 . S
O623 C608 1.270 . S
O623 Eu611 2.355 . S
O624 Eu601 2.394 . S
O624 C609 1.251 . S
O625 C609 1.251 . S
O625 Eu611 2.374 . S
O626 C610 1.257 . S
O626 Eu611 2.473 . S
O627 C610 1.260 . S
O627 Eu611 2.480 . S
O628 Eu611 2.430 . S
O628 C618 1.259 . S
O629 Eu601 2.355 . S
O629 Eu611 2.670 . S
O629 C618 1.270 . S
O630 Eu611 2.394 . S
O630 C619 1.251 . S
O631 Eu601 2.374 . S
O631 C619 1.251 . S
H632 C603 0.931 . S
H633 C604 0.931 . S
H634 C606 0.931 . S
H635 C607 0.931 . S
H636 C613 0.931 . S
H637 C614 0.931 . S
H638 C616 0.931 . S
H639 C617 0.931 . S
C9 C369 2.817 . S
C49 C329 2.817 . S
C449 C89 2.817 . S
C129 C409 2.817 . S
C539 C179 2.817 . S
C499 C219 2.817 . S
C619 C259 2.817 . S
C299 C579 2.817 . S
C88 C8 2.991 1_565 S
C128 C48 2.991 1_545 S
C258 C178 2.991 1_545 S
C218 C298 2.991 1_545 S
C408 C328 2.991 . S
C448 C368 2.991 . S
C498 C578 2.991 . S
C538 C618 2.991 . S
C208 C18 1.412 1_556 S
C168 C58 1.412 1_556 S
C98 C288 1.412 . S
C248 C138 1.412 . S
C338 C528 1.412 1_554 S
C488 C378 1.412 1_556 S
C418 C608 1.412 . S
C568 C458 1.412 . S
C59 C19 1.749 1_665 S
C139 C99 1.749 1_645 S
C209 C169 1.749 1_445 S
C249 C289 1.749 1_645 S
C379 C339 1.749 . S
C459 C419 1.749 . S
C489 C529 1.749 . S
C569 C609 1.749 . S
C15 C5 1.761 . S
C55 C45 1.761 . S
C95 C85 1.761 . S
C125 C135 1.761 . S
C165 C175 1.761 . S
C215 C205 1.761 . S
C245 C255 1.761 . S
C285 C295 1.761 . S
C325 C335 1.761 . S
C375 C365 1.761 . S
C405 C415 1.761 . S
C445 C455 1.761 . S
C485 C495 1.761 . S
C525 C535 1.761 . S
C575 C565 1.761 . S
C605 C615 1.761 . S
