# Generated by pormake.
# Topology qtz-x, (6)-cn, num edge types: 1
# Building blocks:
#     Node 0, Type 0, BuildingBlock: KUMBOL_clean_sbu_0, # of connection points: 6
#     Node 1, Type 0, BuildingBlock: KUMBOL_clean_sbu_0, # of connection points: 6
#     Node 2, Type 0, BuildingBlock: KUMBOL_clean_sbu_0, # of connection points: 6
#     Edge 3, Type (0, 0), BuildingBlock: XIVTED_clean_linker_0, # of connection points: 2
#     Edge 4, Type (0, 0), BuildingBlock: XIVTED_clean_linker_0, # of connection points: 2
#     Edge 5, Type (0, 0), BuildingBlock: XIVTED_clean_linker_0, # of connection points: 2
#     Edge 6, Type (0, 0), BuildingBlock: XIVTED_clean_linker_0, # of connection points: 2
#     Edge 7, Type (0, 0), BuildingBlock: XIVTED_clean_linker_0, # of connection points: 2
#     Edge 8, Type (0, 0), BuildingBlock: XIVTED_clean_linker_0, # of connection points: 2
#     Edge 9, Type (0, 0), BuildingBlock: XIVTED_clean_linker_0, # of connection points: 2
#     Edge 10, Type (0, 0), BuildingBlock: XIVTED_clean_linker_0, # of connection points: 2
#     Edge 11, Type (0, 0), BuildingBlock: XIVTED_clean_linker_0, # of connection points: 2
# Relax obj value: 0.166
# Max RMSD: 0.280
# Mean RMSD: 0.280
data_MOF--net-qtz-x--node1-KUMBOL_clean_sbu_0--edge1-XIVTED_clean_linker_0
_symmetry_space_group_name_H-M    P1
_symmetry_Int_Tables_number       1
_symmetry_cell_setting            triclinic
loop_
_symmetry_equiv_pos_as_xyz
'x, y, z'
_cell_length_a     15.387461
_cell_length_b     15.384769
_cell_length_c     49.91156
_cell_angle_alpha  90.136443
_cell_angle_beta   90.127693
_cell_angle_gamma 119.94869
loop_
_atom_site_label
_atom_site_type_symbol
_atom_site_fract_x
_atom_site_fract_y
_atom_site_fract_z
_atom_type_partial_charge
Gd0 Gd 0.97821 0.32892 0.1737 0.0
Gd1 Gd 0.21895 0.45087 0.21053 0.0
C2 C 0.52799 0.57692 0.17258 0.0
C3 C 0.59219 0.48024 0.19482 0.0
C4 C 0.42136 0.44338 0.20299 0.0
C5 C 0.4352 0.51943 0.18569 0.0
C6 C 0.50033 0.42405 0.20808 0.0
C7 C 0.60541 0.55524 0.17674 0.0
C8 C 0.54286 0.65921 0.15724 0.0
C9 C 0.46906 0.68658 0.15678 0.0
N10 N 0.36256 0.54481 0.18416 0.0
C11 C 0.38035 0.6301 0.17112 0.0
H12 H 0.32535 0.65402 0.17127 0.0
C13 C 0.32141 0.32741 0.23631 0.0
N14 N 0.33415 0.39496 0.21681 0.0
C15 C 0.39644 0.30369 0.24152 0.0
C16 C 0.48646 0.35245 0.2274 0.0
H17 H 0.253 0.29168 0.24782 0.0
H18 H 0.67743 0.59914 0.16705 0.0
H19 H 0.87971 0.14321 0.2193 0.0
H20 H 0.61278 0.70482 0.14676 0.0
H21 H 0.48121 0.7523 0.1458 0.0
H22 H 0.65452 0.46831 0.199 0.0
H23 H 0.94135 0.4832 0.13374 0.0
H24 H 0.5757 0.06429 0.23323 0.0
H25 H 0.71999 0.03982 0.2423 0.0
H26 H 0.5235 0.27316 0.17215 0.0
H27 H 0.38562 0.2494 0.25679 0.0
H28 H 0.54568 0.33622 0.23207 0.0
H29 H 0.50243 0.14989 0.20645 0.0
H30 H 0.8029 0.50937 0.11996 0.0
N31 N 0.8315 0.23396 0.19916 0.0
C32 C 0.64695 0.11227 0.22359 0.0
C33 C 0.72809 0.09816 0.22873 0.0
C34 C 0.65765 0.18558 0.20529 0.0
C35 C 0.75234 0.2467 0.19343 0.0
C36 C 0.81927 0.15805 0.21574 0.0
N37 N 0.85578 0.37263 0.16302 0.0
C38 C 0.76455 0.31738 0.17455 0.0
C39 C 0.79106 0.45521 0.13537 0.0
C40 C 0.69665 0.39825 0.14687 0.0
C41 C 0.86974 0.44035 0.14341 0.0
C42 C 0.68222 0.32798 0.16662 0.0
H43 H 0.63529 0.40852 0.14023 0.0
O44 O 0.97685 0.29702 0.13132 0.0
O45 O 0.14523 0.40413 0.17061 0.0
O46 O 0.17083 0.56186 0.19732 0.0
O47 O -0.00229 0.47627 0.18826 0.0
O48 O 0.07008 0.44447 0.14323 0.0
O49 O 0.89455 0.17518 0.15893 0.0
O50 O 0.24639 0.47566 0.25335 0.0
O51 O 0.05439 0.38249 0.21277 0.0
O52 O 0.02284 0.22061 0.19063 0.0
O53 O 0.19695 0.30532 0.19381 0.0
O54 O 0.12 0.34426 0.24285 0.0
O55 O 0.30126 0.60258 0.22651 0.0
C56 C 0.15668 0.45917 0.15058 0.0
C57 C 0.58781 0.26687 0.1782 0.0
C58 C 0.5758 0.19664 0.19772 0.0
C59 C 0.91324 0.20191 0.13391 0.0
C60 C 0.82868 0.15999 0.11473 0.0
C61 C 0.72902 0.09805 0.12293 0.0
C62 C 0.84878 0.18571 0.08759 0.0
C63 C 0.77065 0.15452 0.06874 0.0
C64 C 0.65104 0.06345 0.10418 0.0
C65 C 0.67136 0.09186 0.07729 0.0
C66 C 0.08428 0.5595 0.19314 0.0
C67 C 0.03651 0.33463 0.23433 0.0
C68 C 0.30198 0.57254 0.25092 0.0
C69 C 0.39978 0.61766 0.26475 0.0
C70 C 0.48678 0.63901 0.25061 0.0
C71 C 0.4057 0.63496 0.29256 0.0
C72 C 0.49775 0.671 0.30633 0.0
C73 C 0.57708 0.67137 0.26406 0.0
C74 C 0.58246 0.6859 0.2917 0.0
C75 C 0.10938 0.22192 0.19132 0.0
H76 H 0.71117 0.07711 0.14375 0.0
H77 H 0.92595 0.23212 0.08128 0.0
H78 H 0.57431 0.01614 0.11061 0.0
H79 H 0.60913 0.06732 0.06344 0.0
H80 H 0.48517 0.63029 0.2292 0.0
H81 H 0.33893 0.62159 0.30323 0.0
H82 H 0.64324 0.68521 0.25301 0.0
H83 H 0.6536 0.70926 0.3015 0.0
Gd84 Gd 0.69471 0.15627 0.50594 0.0
Gd85 Gd 0.57399 0.91928 0.54418 0.0
C86 C 0.40827 0.60077 0.50988 0.0
C87 C 0.24209 0.53546 0.52888 0.0
C88 C 0.37085 0.70892 0.53687 0.0
C89 C 0.43815 0.69495 0.52182 0.0
C90 C 0.2726 0.62876 0.54103 0.0
C91 C 0.30934 0.52186 0.51302 0.0
C92 C 0.47999 0.58714 0.49629 0.0
C93 C 0.57959 0.66443 0.4961 0.0
N94 N 0.53457 0.77102 0.52047 0.0
C95 C 0.60606 0.75519 0.50898 0.0
H96 H 0.68376 0.81297 0.50907 0.0
C97 C 0.3427 0.81304 0.56625 0.0
N98 N 0.40357 0.79884 0.54903 0.0
C99 C 0.24436 0.73632 0.57075 0.0
C100 C 0.20924 0.64359 0.55817 0.0
H101 H 0.37029 0.88399 0.57651 0.0
H102 H 0.28514 0.44899 0.50408 0.0
H103 H 0.60138 0.26102 0.5479 0.0
H104 H 0.46001 0.51619 0.48675 0.0
H105 H 0.63637 0.65375 0.48635 0.0
H106 H 0.16737 0.4727 0.53211 0.0
H107 H 0.89023 0.18885 0.46895 0.0
H108 H 0.82536 0.5659 0.56187 0.0
H109 H 0.65474 0.42325 0.56953 0.0
H110 H 0.0969 0.60952 0.50609 0.0
H111 H 0.19629 0.74824 0.58425 0.0
H112 H 0.13393 0.58339 0.56228 0.0
H113 H -0.01065 0.63525 0.53771 0.0
H114 H 0.05818 0.32456 0.45673 0.0
N115 N 0.7429 0.30679 0.52967 0.0
C116 C 0.80312 0.49373 0.55276 0.0
C117 C 0.7068 0.4135 0.5571 0.0
C118 C 0.86842 0.48071 0.53599 0.0
C119 C 0.83593 0.38496 0.52475 0.0
C120 C 0.67709 0.32097 0.54484 0.0
N121 N 0.86187 0.2781 0.49639 0.0
C122 C 0.89705 0.37032 0.50738 0.0
C123 C 0.01373 0.33853 0.47103 0.0
C124 C 0.05065 0.43392 0.48209 0.0
C125 C 0.91826 0.26151 0.47813 0.0
C126 C -0.00791 0.451 0.50041 0.0
H127 H 0.12396 0.49393 0.4762 0.0
O128 O 0.68189 0.16451 0.46285 0.0
O129 O 0.60425 -0.01117 0.50393 0.0
O130 O 0.73402 0.96665 0.53237 0.0
O131 O 0.82084 0.13917 0.52326 0.0
O132 O 0.71999 0.06065 0.47671 0.0
O133 O 0.61024 0.22186 0.48918 0.0
O134 O 0.66064 0.86247 0.56445 0.0
O135 O 0.66736 0.08501 0.54585 0.0
O136 O 0.53987 0.11321 0.52082 0.0
O137 O 0.45191 0.93948 0.52514 0.0
O138 O 0.55697 0.0198 0.57421 0.0
O139 O 0.5489 0.88018 0.58626 0.0
C140 C 0.64866 0.97503 0.48453 0.0
C141 C 0.02466 0.54643 0.51144 0.0
C142 C 0.96335 0.56109 0.5294 0.0
C143 C 0.63123 0.21134 0.46451 0.0
C144 C 0.65777 0.29473 0.44563 0.0
C145 C 0.64746 0.37761 0.45262 0.0
C146 C 0.6848 0.28633 0.41929 0.0
C147 C 0.6991 0.3579 0.39965 0.0
C148 C 0.6629 0.44992 0.43346 0.0
C149 C 0.68766 0.43996 0.40713 0.0
C150 C 0.81813 0.05336 0.52871 0.0
C151 C 0.63144 0.1034 0.56627 0.0
C152 C 0.62224 0.86121 0.58784 0.0
C153 C 0.69308 0.91214 0.60998 0.0
C154 C 0.77262 0.01042 0.60695 0.0
C155 C 0.67671 0.86475 0.63493 0.0
C156 C 0.73757 0.91601 0.65727 0.0
C157 C 0.83306 0.0621 0.62885 0.0
C158 C 0.81506 0.01608 0.65388 0.0
C159 C 0.4551 0.02648 0.52194 0.0
H160 H 0.62586 0.38582 0.4727 0.0
H161 H 0.69429 0.22314 0.41417 0.0
H162 H 0.65398 0.51316 0.43893 0.0
H163 H 0.69619 0.49586 0.39263 0.0
H164 H 0.7869 0.04748 0.58776 0.0
H165 H 0.61667 0.78775 0.6367 0.0
H166 H 0.89362 0.13849 0.62649 0.0
H167 H 0.8618 0.05957 0.67055 0.0
Gd168 Gd 0.82311 0.44891 0.83875 0.0
Gd169 Gd 0.70234 0.56518 0.87715 0.0
C170 C 0.57266 0.74479 0.83815 0.0
C171 C 0.66492 0.90519 0.86102 0.0
C172 C 0.70357 0.7727 0.86987 0.0
C173 C 0.62974 0.71033 0.852 0.0
C174 C 0.72117 0.87049 0.87485 0.0
C175 C 0.59209 0.84316 0.84236 0.0
C176 C 0.49368 0.67757 0.82173 0.0
C177 C 0.46964 0.57746 0.82062 0.0
N178 N 0.60733 0.61327 0.85012 0.0
C179 C 0.52587 0.54595 0.83552 0.0
H180 H 0.50478 0.46792 0.83467 0.0
C181 C 0.81847 0.79017 0.90388 0.0
N182 N 0.75231 0.73486 0.88404 0.0
C183 C 0.84056 0.8885 0.90903 0.0
C184 C 0.79161 0.92887 0.89447 0.0
H185 H 0.85461 0.75825 0.91565 0.0
H186 H 0.54847 0.87063 0.83209 0.0
H187 H 0.00999 0.52284 0.88375 0.0
H188 H 0.44851 0.70128 0.81065 0.0
H189 H 0.40692 0.52411 0.80856 0.0
H190 H 0.67559 0.97911 0.86505 0.0
H191 H 0.66176 0.26841 0.79729 0.0
H192 H 0.07216 0.28403 0.89469 0.0
H193 H 0.10726 0.45552 0.9055 0.0
H194 H 0.85074 0.0348 0.8322 0.0
H195 H 0.89396 0.93242 0.92454 0.0
H196 H 0.80696 0.00418 0.89896 0.0
H197 H 0.97804 0.12865 0.8667 0.0
H198 H 0.62372 0.10053 0.78204 0.0
N199 N 0.91257 0.3874 0.8629 0.0
C200 C 0.02689 0.31214 0.88569 0.0
C201 C 0.04699 0.40893 0.89181 0.0
C202 C 0.95116 0.25421 0.86722 0.0
C203 C 0.89379 0.29399 0.85621 0.0
C204 C -0.00936 0.44644 0.87962 0.0
N205 N 0.76943 0.28213 0.82635 0.0
C206 C 0.82073 0.24016 0.83717 0.0
C207 C 0.67915 0.13885 0.7976 0.0
C208 C 0.73121 0.09464 0.80855 0.0
C209 C 0.70059 0.23389 0.80642 0.0
C210 C 0.80383 0.14572 0.82835 0.0
H211 H 0.71578 0.02178 0.80133 0.0
O212 O 0.85671 0.47988 0.79663 0.0
O213 O 0.7555 0.54653 0.83779 0.0
O214 O 0.59202 0.40879 0.86173 0.0
O215 O 0.67705 0.32105 0.85302 0.0
O216 O 0.71526 0.44413 0.80709 0.0
O217 O 0.97694 0.51301 0.82469 0.0
O218 O 0.67648 0.56803 0.9199 0.0
O219 O 0.77091 0.46825 0.87857 0.0
O220 O 0.93552 0.59955 0.8566 0.0
O221 O 0.8519 0.68959 0.86312 0.0
O222 O 0.81035 0.57266 0.90888 0.0
O223 O 0.55093 0.48584 0.89292 0.0
C224 C 0.7058 0.51728 0.81634 0.0
C225 C 0.8615 0.10644 0.83904 0.0
C226 C 0.9341 0.15995 0.85867 0.0
C227 C 0.95075 0.50625 0.79955 0.0
C228 C -0.01149 0.45931 0.78053 0.0
C229 C 0.04989 0.42061 0.7887 0.0
C230 C 0.95887 0.4501 0.75358 0.0
C231 C -0.0145 0.3988 0.73498 0.0
C232 C 0.07996 0.37274 0.77012 0.0
C233 C 0.04764 0.36124 0.74345 0.0
C234 C 0.594 0.32452 0.85751 0.0
C235 C 0.8207 0.49966 0.89998 0.0
C236 C 0.57926 0.51912 0.9173 0.0
C237 C 0.52617 0.56485 0.93047 0.0
C238 C 0.50174 0.62777 0.916 0.0
C239 C 0.50186 0.5479 0.95784 0.0
C240 C 0.45438 0.59472 0.97072 0.0
C241 C 0.45767 0.67656 0.9287 0.0
C242 C 0.43499 0.66112 0.95586 0.0
C243 C 0.93478 0.68476 0.85971 0.0
H244 H 0.07378 0.42635 0.80937 0.0
H245 H 0.91285 0.48144 0.7472 0.0
H246 H 0.12682 0.34258 0.77654 0.0
H247 H 0.06877 0.3204 0.72973 0.0
H248 H 0.51655 0.63933 0.89487 0.0
H249 H 0.5183 0.49709 0.96882 0.0
H250 H 0.44079 0.72638 0.91742 0.0
H251 H 0.40187 0.70128 0.96519 0.0
H252 H 0.24985 0.74582 0.19701 0.0
H253 H 0.94251 0.03586 0.19097 0.0
H254 H 0.9272 0.59624 0.18866 0.0
H255 H 0.26641 0.18441 0.19092 0.0
H256 H 0.93539 0.87462 0.19115 0.0
H257 H 0.2564 0.90653 0.19611 0.0
C258 C 0.18009 0.74645 0.19498 0.0
C259 C 0.08761 0.65694 0.19285 0.0
C260 C 0.00802 0.94241 0.19112 0.0
C261 C 0.09516 0.84191 0.19183 0.0
C262 C 0.01238 0.03486 0.19103 0.0
C263 C 0.10544 0.12421 0.19116 0.0
C264 C 0.09727 0.93894 0.19137 0.0
C265 C 0.19309 0.11765 0.19114 0.0
C266 C 0.18416 0.83868 0.19443 0.0
C267 C 0.00013 0.66319 0.19027 0.0
N268 N 0.18681 0.02642 0.19131 0.0
N269 N 0.00609 0.75432 0.18987 0.0
H270 H 0.43548 0.19333 0.52114 0.0
H271 H 0.84093 0.8898 0.5359 0.0
H272 H 0.26004 0.86954 0.52251 0.0
H273 H 0.0115 0.20971 0.52249 0.0
H274 H -0.00536 0.88258 0.53367 0.0
H275 H 0.28201 0.20113 0.52333 0.0
C276 C 0.36474 0.12354 0.52191 0.0
C277 C 0.36105 0.03035 0.52203 0.0
C278 C -0.00147 0.95434 0.53114 0.0
C279 C 0.18437 0.03943 0.52463 0.0
C280 C 0.91059 0.95882 0.53245 0.0
C281 C 0.91273 0.05053 0.529 0.0
C282 C 0.08984 0.04222 0.52653 0.0
C283 C 0.00587 0.13721 0.52494 0.0
C284 C 0.27697 0.12835 0.52318 0.0
C285 C 0.2668 0.94297 0.52287 0.0
N286 N 0.0908 0.13086 0.52377 0.0
N287 N 0.18212 0.94969 0.52426 0.0
H288 H 0.12142 0.70458 0.85908 0.0
H289 H 0.40709 0.30267 0.86107 0.0
H290 H 0.97106 0.87841 0.86028 0.0
H291 H 0.55887 0.1311 0.85421 0.0
H292 H 0.24727 0.14755 0.86178 0.0
H293 H 0.28226 0.85952 0.85833 0.0
C294 C 0.12203 0.77528 0.85925 0.0
C295 C 0.03237 0.77842 0.85987 0.0
C296 C 0.31542 0.14369 0.86006 0.0
C297 C 0.21675 0.95618 0.85898 0.0
C298 C 0.40708 0.23242 0.85966 0.0
C299 C 0.49691 0.23013 0.85752 0.0
C300 C 0.31315 0.05163 0.8584 0.0
C301 C 0.49159 0.13656 0.85577 0.0
C302 C 0.21412 0.86377 0.85881 0.0
C303 C 0.03814 0.8723 0.86007 0.0
N304 N 0.40107 0.05088 0.85629 0.0
N305 N 0.1289 0.95752 0.85963 0.0
H306 H 0.28444 0.57758 0.99277 0.0
H307 H 0.27752 0.38167 0.13509 0.0
H308 H 0.54791 0.56014 1.01383 0.0
H309 H 0.21207 0.61859 0.11948 0.0
H310 H 0.36839 0.41963 0.09195 0.0
H311 H 0.23699 0.5572 0.0396 0.0
C312 C 0.33314 0.57049 1.00721 0.0
C313 C 0.42209 0.57364 0.99925 0.0
C314 C 0.33656 0.4649 0.09853 0.0
C315 C 0.36555 0.54678 0.05315 0.0
C316 C 0.2855 0.44377 0.12308 0.0
C317 C 0.23701 0.49689 0.13052 0.0
C318 C 0.33633 0.53767 0.08159 0.0
C319 C 0.24787 0.57557 0.11422 0.0
C320 C 0.30552 0.55831 0.03397 0.0
C321 C 0.47898 0.55871 1.01902 0.0
N322 N 0.29455 0.59226 0.0903 0.0
N323 N 0.4497 0.54577 0.0452 0.0
H324 H 0.64341 0.18336 0.37117 0.0
H325 H 0.94063 0.44379 0.23825 0.0
H326 H 0.81685 0.50621 0.36356 0.0
H327 H 0.95994 0.20034 0.27483 0.0
H328 H 0.83798 0.44261 0.27594 0.0
H329 H 0.70617 0.16722 0.32765 0.0
C330 C 0.69448 0.25103 0.36053 0.0
C331 C 0.7267 0.34662 0.37168 0.0
C332 C 0.86308 0.3882 0.27531 0.0
C333 C 0.79384 0.32742 0.32111 0.0
C334 C 0.92084 0.3882 0.25378 0.0
C335 C 0.95861 0.32195 0.25355 0.0
C336 C 0.84159 0.32015 0.29631 0.0
C337 C 0.93219 0.25262 0.27442 0.0
C338 C 0.72905 0.24129 0.33553 0.0
C339 C 0.78931 0.43094 0.35603 0.0
N340 N 0.87514 0.25342 0.29504 0.0
N341 N 0.82109 0.41933 0.33158 0.0
H342 H 0.81042 0.7228 0.81471 0.0
H343 H 0.56038 0.76769 0.67951 0.0
H344 H 0.57543 0.46255 0.77458 0.0
H345 H 0.87828 0.94678 0.6961 0.0
H346 H 0.54037 0.67617 0.72112 0.0
H347 H 0.8076 0.82837 0.77845 0.0
C348 C 0.75657 0.68818 0.79863 0.0
C349 C 0.69293 0.58388 0.79756 0.0
C350 C 0.61406 0.73643 0.71561 0.0
C351 C 0.68992 0.70381 0.75614 0.0
C352 C 0.62612 0.78824 0.6917 0.0
C353 C 0.72171 0.86486 0.68374 0.0
C354 C 0.69748 0.76281 0.73208 0.0
C355 C 0.80285 0.88967 0.70122 0.0
C356 C 0.75556 0.74833 0.77789 0.0
C357 C 0.62568 0.54277 0.77601 0.0
N358 N 0.78884 0.83882 0.7245 0.0
N359 N 0.62595 0.60286 0.75605 0.0
H360 H 0.96145 0.56725 0.93867 0.0
H361 H 0.68028 0.05796 1.02127 0.0
H362 H 0.72008 0.29424 0.90533 0.0
H363 H 0.91129 0.34273 0.05256 0.0
H364 H 0.7112 0.13199 0.97637 0.0
H365 H 0.96698 0.47354 0.97729 0.0
C366 C 0.91106 0.48685 0.9393 0.0
C367 C 0.83984 0.43837 0.91904 0.0
C368 C 0.75595 0.17751 0.99307 0.0
C369 C 0.84249 0.33087 0.96364 0.0
C370 C 0.73783 0.13562 1.01874 0.0
C371 C 0.79289 0.19409 0.04088 0.0
C372 C 0.82949 0.27858 0.98954 0.0
C373 C 0.8677 0.29385 0.03623 0.0
C374 C 0.91365 0.43334 0.96141 0.0
C375 C 0.77613 0.33418 0.92064 0.0
N376 N 0.88312 0.33278 1.01122 0.0
N377 N 0.77752 0.28393 0.94292 0.0
H378 H 0.35713 0.58249 0.34714 0.0
H379 H 0.75766 0.91203 0.45826 0.0
H380 H 0.66086 0.82015 0.33255 0.0
H381 H 0.45365 0.85043 0.46732 0.0
H382 H 0.7095 0.81348 0.41704 0.0
H383 H 0.38024 0.62966 0.39492 0.0
C384 C 0.42847 0.64411 0.35377 0.0
C385 C 0.50766 0.69627 0.33552 0.0
C386 C 0.65261 0.81937 0.42835 0.0
C387 C 0.53478 0.74702 0.39011 0.0
C388 C 0.67981 0.87479 0.45192 0.0
C389 C 0.60956 0.88953 0.46595 0.0
C390 C 0.55486 0.77993 0.41838 0.0
C391 C 0.50965 0.84018 0.45696 0.0
C392 C 0.44146 0.67013 0.38106 0.0
C393 C 0.59847 0.77482 0.34562 0.0
N394 N 0.48528 0.78877 0.43324 0.0
N395 N 0.60953 0.79696 0.3721 0.0
H396 H 0.07545 0.4007 0.68694 0.0
H397 H 0.55754 0.15738 0.60793 0.0
H398 H 0.79502 0.34909 0.72035 0.0
H399 H 0.83642 0.2286 0.56987 0.0
H400 H 0.65047 0.25356 0.64713 0.0
H401 H -0.00388 0.3569 0.6425 0.0
C402 C -0.0024 0.38088 0.68494 0.0
C403 C 0.94198 0.37865 0.70749 0.0
C404 C 0.69194 0.24986 0.63009 0.0
C405 C 0.85136 0.32991 0.65674 0.0
C406 C 0.63876 0.19536 0.60765 0.0
C407 C 0.68931 0.18351 0.58594 0.0
C408 C 0.79654 0.29142 0.63103 0.0
C409 C 0.79457 0.23508 0.58637 0.0
C410 C 0.95269 0.35685 0.65954 0.0
C411 C 0.84165 0.35353 0.70361 0.0
N412 N 0.84489 0.28524 0.60888 0.0
N413 N 0.7997 0.32964 0.67886 0.0
loop_
_geom_bond_atom_site_label_1
_geom_bond_atom_site_label_2
_geom_bond_distance
_geom_bond_site_symmetry_2
_ccdc_geom_bond_type
Gd0 N31 2.661 . S
Gd0 N37 2.601 . S
Gd0 O44 2.545 . S
Gd0 O45 2.606 1_655 S
Gd0 O47 2.429 . S
Gd0 O48 2.545 . S
Gd0 O49 2.412 . S
Gd0 O51 2.362 . S
Gd0 O52 2.324 . S
Gd0 C59 2.828 . S
Gd1 N10 2.661 . S
Gd1 N14 2.601 . S
Gd1 O45 2.362 . S
Gd1 O46 2.324 . S
Gd1 O50 2.545 . S
Gd1 O51 2.606 1_455 S
Gd1 O53 2.429 . S
Gd1 O54 2.545 . S
Gd1 O55 2.412 . S
Gd1 C68 2.828 . S
C2 C5 1.417 . S
C2 C7 1.431 . S
C2 C8 1.412 . S
C3 C6 1.437 . S
C3 C7 1.317 . S
C3 H22 0.929 . S
C4 C5 1.426 . S
C4 C6 1.413 . S
C4 N14 1.359 . S
C5 C2 1.417 . S
C5 C4 1.426 . S
C5 N10 1.350 . S
C6 C3 1.437 . S
C6 C4 1.413 . S
C6 C16 1.391 . S
C7 C2 1.431 . S
C7 C3 1.317 . S
C7 H18 0.930 . S
C8 C2 1.412 . S
C8 C9 1.355 . S
C8 H20 0.930 . S
C9 C8 1.355 . S
C9 C11 1.402 . S
C9 H21 0.930 . S
N10 Gd1 2.661 . S
N10 C5 1.350 . S
N10 C11 1.307 . S
C11 C9 1.402 . S
C11 N10 1.307 . S
C11 H12 0.930 . S
H12 C11 0.930 . S
C13 N14 1.334 . S
C13 C15 1.394 . S
C13 H17 0.930 . S
N14 Gd1 2.601 . S
N14 C4 1.359 . S
N14 C13 1.334 . S
C15 C13 1.394 . S
C15 C16 1.359 . S
C15 H27 0.930 . S
C16 C6 1.391 . S
C16 C15 1.359 . S
C16 H28 0.929 . S
H17 C13 0.930 . S
H18 C7 0.930 . S
H19 C36 0.930 . S
H20 C8 0.930 . S
H21 C9 0.930 . S
H22 C3 0.929 . S
H23 C41 0.930 . S
H24 C32 0.930 . S
H25 C33 0.930 . S
H26 C57 0.929 . S
H27 C15 0.930 . S
H28 C16 0.929 . S
H29 C58 0.930 . S
H30 C39 0.930 . S
N31 Gd0 2.661 . S
N31 C35 1.350 . S
N31 C36 1.307 . S
C32 H24 0.930 . S
C32 C33 1.355 . S
C32 C34 1.412 . S
C33 H25 0.930 . S
C33 C32 1.355 . S
C33 C36 1.402 . S
C34 C32 1.412 . S
C34 C35 1.417 . S
C34 C58 1.431 . S
C35 N31 1.350 . S
C35 C34 1.417 . S
C35 C38 1.426 . S
C36 H19 0.930 . S
C36 N31 1.307 . S
C36 C33 1.402 . S
N37 Gd0 2.601 . S
N37 C38 1.359 . S
N37 C41 1.334 . S
C38 C35 1.426 . S
C38 N37 1.359 . S
C38 C42 1.413 . S
C39 H30 0.930 . S
C39 C40 1.359 . S
C39 C41 1.394 . S
C40 C39 1.359 . S
C40 C42 1.391 . S
C40 H43 0.929 . S
C41 H23 0.930 . S
C41 N37 1.334 . S
C41 C39 1.394 . S
C42 C38 1.413 . S
C42 C40 1.391 . S
C42 C57 1.437 . S
H43 C40 0.929 . S
O44 Gd0 2.545 . S
O44 C59 1.258 . S
O45 Gd0 2.606 1_455 S
O45 Gd1 2.362 . S
O45 C56 1.284 . S
O46 Gd1 2.324 . S
O46 C66 1.254 . S
O47 Gd0 2.429 . S
O47 C66 1.268 1_655 S
O48 Gd0 2.545 . S
O48 C56 1.250 1_655 S
O49 Gd0 2.412 . S
O49 C59 1.252 . S
O50 Gd1 2.545 . S
O50 C68 1.258 . S
O51 Gd0 2.362 . S
O51 Gd1 2.606 1_655 S
O51 C67 1.284 . S
O52 Gd0 2.324 . S
O52 C75 1.254 . S
O53 Gd1 2.429 . S
O53 C75 1.268 1_455 S
O54 Gd1 2.545 . S
O54 C67 1.250 1_455 S
O55 Gd1 2.412 . S
O55 C68 1.252 . S
C56 O45 1.284 . S
C56 O48 1.250 1_455 S
C57 H26 0.929 . S
C57 C42 1.437 . S
C57 C58 1.317 . S
C58 H29 0.930 . S
C58 C34 1.431 . S
C58 C57 1.317 . S
C59 Gd0 2.828 . S
C59 O44 1.258 . S
C59 O49 1.252 . S
C59 C60 1.497 . S
C60 C59 1.497 . S
C60 C61 1.395 . S
C60 C62 1.380 . S
C61 C60 1.395 . S
C61 C64 1.398 . S
C61 H76 0.930 . S
C62 C60 1.380 . S
C62 C63 1.391 . S
C62 H77 0.930 . S
C63 C62 1.391 . S
C63 C65 1.387 . S
C64 C61 1.398 . S
C64 C65 1.380 . S
C64 H78 0.930 . S
C65 C63 1.387 . S
C65 C64 1.380 . S
C65 H79 0.930 . S
C66 O46 1.254 . S
C66 O47 1.268 1_455 S
C67 O51 1.284 . S
C67 O54 1.250 1_655 S
C68 Gd1 2.828 . S
C68 O50 1.258 . S
C68 O55 1.252 . S
C68 C69 1.497 . S
C69 C68 1.497 . S
C69 C70 1.395 . S
C69 C71 1.380 . S
C70 C69 1.395 . S
C70 C73 1.398 . S
C70 H80 0.930 . S
C71 C69 1.380 . S
C71 C72 1.391 . S
C71 H81 0.930 . S
C72 C71 1.391 . S
C72 C74 1.387 . S
C73 C70 1.398 . S
C73 C74 1.380 . S
C73 H82 0.930 . S
C74 C72 1.387 . S
C74 C73 1.380 . S
C74 H83 0.930 . S
C75 O52 1.254 . S
C75 O53 1.268 1_655 S
H76 C61 0.930 . S
H77 C62 0.930 . S
H78 C64 0.930 . S
H79 C65 0.930 . S
H80 C70 0.930 . S
H81 C71 0.930 . S
H82 C73 0.930 . S
H83 C74 0.930 . S
Gd84 N115 2.661 . S
Gd84 N121 2.601 1_655 S
Gd84 O128 2.545 . S
Gd84 O129 2.606 . S
Gd84 O131 2.429 . S
Gd84 O132 2.545 . S
Gd84 O133 2.412 . S
Gd84 O135 2.362 . S
Gd84 O136 2.324 . S
Gd84 C143 2.828 . S
Gd85 N94 2.661 1_545 S
Gd85 N98 2.601 1_545 S
Gd85 O129 2.362 . S
Gd85 O130 2.324 . S
Gd85 O134 2.545 1_545 S
Gd85 O135 2.606 . S
Gd85 O137 2.429 . S
Gd85 O138 2.545 . S
Gd85 O139 2.412 1_545 S
Gd85 C152 2.828 1_545 S
C86 C89 1.417 . S
C86 C91 1.431 . S
C86 C92 1.412 . S
C87 C90 1.437 . S
C87 C91 1.317 . S
C87 H106 0.929 . S
C88 C89 1.426 . S
C88 C90 1.413 . S
C88 N98 1.359 . S
C89 C86 1.417 . S
C89 C88 1.426 . S
C89 N94 1.350 . S
C90 C87 1.437 . S
C90 C88 1.413 . S
C90 C100 1.391 . S
C91 C86 1.431 . S
C91 C87 1.317 . S
C91 H102 0.930 . S
C92 C86 1.412 . S
C92 C93 1.355 . S
C92 H104 0.930 . S
C93 C92 1.355 . S
C93 C95 1.402 . S
C93 H105 0.930 . S
N94 Gd85 2.661 1_565 S
N94 C89 1.350 . S
N94 C95 1.307 . S
C95 C93 1.402 . S
C95 N94 1.307 . S
C95 H96 0.930 . S
H96 C95 0.930 . S
C97 N98 1.334 . S
C97 C99 1.394 . S
C97 H101 0.930 . S
N98 Gd85 2.601 1_565 S
N98 C88 1.359 . S
N98 C97 1.334 . S
C99 C97 1.394 . S
C99 C100 1.359 . S
C99 H111 0.930 . S
C100 C90 1.391 . S
C100 C99 1.359 . S
C100 H112 0.929 . S
H101 C97 0.930 . S
H102 C91 0.930 . S
H103 C120 0.930 . S
H104 C92 0.930 . S
H105 C93 0.930 . S
H106 C87 0.929 . S
H107 C125 0.930 . S
H108 C116 0.930 . S
H109 C117 0.930 . S
H110 C141 0.929 . S
H111 C99 0.930 . S
H112 C100 0.929 . S
H113 C142 0.930 . S
H114 C123 0.930 . S
N115 Gd84 2.661 . S
N115 C119 1.350 . S
N115 C120 1.307 . S
C116 H108 0.930 . S
C116 C117 1.355 . S
C116 C118 1.412 . S
C117 H109 0.930 . S
C117 C116 1.355 . S
C117 C120 1.402 . S
C118 C116 1.412 . S
C118 C119 1.417 . S
C118 C142 1.431 1_655 S
C119 N115 1.350 . S
C119 C118 1.417 . S
C119 C122 1.426 1_655 S
C120 H103 0.930 . S
C120 N115 1.307 . S
C120 C117 1.402 . S
N121 Gd84 2.601 1_455 S
N121 C122 1.359 . S
N121 C125 1.334 . S
C122 C119 1.426 1_455 S
C122 N121 1.359 . S
C122 C126 1.413 . S
C123 H114 0.930 . S
C123 C124 1.359 . S
C123 C125 1.394 . S
C124 C123 1.359 . S
C124 C126 1.391 . S
C124 H127 0.929 . S
C125 H107 0.930 . S
C125 N121 1.334 . S
C125 C123 1.394 . S
C126 C122 1.413 . S
C126 C124 1.391 . S
C126 C141 1.437 . S
H127 C124 0.929 . S
O128 Gd84 2.545 . S
O128 C143 1.258 . S
O129 Gd84 2.606 . S
O129 Gd85 2.362 . S
O129 C140 1.284 . S
O130 Gd85 2.324 . S
O130 C150 1.254 . S
O131 Gd84 2.429 . S
O131 C150 1.268 . S
O132 Gd84 2.545 . S
O132 C140 1.250 . S
O133 Gd84 2.412 . S
O133 C143 1.252 . S
O134 Gd85 2.545 1_565 S
O134 C152 1.258 . S
O135 Gd84 2.362 . S
O135 Gd85 2.606 . S
O135 C151 1.284 . S
O136 Gd84 2.324 . S
O136 C159 1.254 . S
O137 Gd85 2.429 . S
O137 C159 1.268 . S
O138 Gd85 2.545 . S
O138 C151 1.250 . S
O139 Gd85 2.412 1_565 S
O139 C152 1.252 . S
C140 O129 1.284 . S
C140 O132 1.250 . S
C141 H110 0.929 . S
C141 C126 1.437 . S
C141 C142 1.317 . S
C142 H113 0.930 . S
C142 C118 1.431 1_455 S
C142 C141 1.317 . S
C143 Gd84 2.828 . S
C143 O128 1.258 . S
C143 O133 1.252 . S
C143 C144 1.497 . S
C144 C143 1.497 . S
C144 C145 1.395 1_655 S
C144 C146 1.380 . S
C145 C144 1.395 1_455 S
C145 C148 1.398 . S
C145 H160 0.930 . S
C146 C144 1.380 . S
C146 C147 1.391 . S
C146 H161 0.930 . S
C147 C146 1.391 . S
C147 C149 1.387 . S
C148 C145 1.398 . S
C148 C149 1.380 1_455 S
C148 H162 0.930 . S
C149 C147 1.387 . S
C149 C148 1.380 1_655 S
C149 H163 0.930 . S
C150 O130 1.254 . S
C150 O131 1.268 . S
C151 O135 1.284 . S
C151 O138 1.250 . S
C152 Gd85 2.828 1_565 S
C152 O134 1.258 . S
C152 O139 1.252 . S
C152 C153 1.497 . S
C153 C152 1.497 . S
C153 C154 1.395 . S
C153 C155 1.380 . S
C154 C153 1.395 . S
C154 C157 1.398 . S
C154 H164 0.930 . S
C155 C153 1.380 . S
C155 C156 1.391 . S
C155 H165 0.930 . S
C156 C155 1.391 . S
C156 C158 1.387 . S
C157 C154 1.398 . S
C157 C158 1.380 . S
C157 H166 0.930 . S
C158 C156 1.387 . S
C158 C157 1.380 . S
C158 H167 0.930 . S
C159 O136 1.254 . S
C159 O137 1.268 . S
H160 C145 0.930 . S
H161 C146 0.930 . S
H162 C148 0.930 . S
H163 C149 0.930 . S
H164 C154 0.930 . S
H165 C155 0.930 . S
H166 C157 0.930 . S
H167 C158 0.930 . S
Gd168 N199 2.661 . S
Gd168 N205 2.601 . S
Gd168 O212 2.545 . S
Gd168 O213 2.606 . S
Gd168 O215 2.429 . S
Gd168 O216 2.545 . S
Gd168 O217 2.412 . S
Gd168 O219 2.362 . S
Gd168 O220 2.324 . S
Gd168 C227 2.828 . S
Gd169 N178 2.661 . S
Gd169 N182 2.601 . S
Gd169 O213 2.362 . S
Gd169 O214 2.324 . S
Gd169 O218 2.545 . S
Gd169 O219 2.606 . S
Gd169 O221 2.429 . S
Gd169 O222 2.545 . S
Gd169 O223 2.412 . S
Gd169 C236 2.828 . S
C170 C173 1.417 . S
C170 C175 1.431 . S
C170 C176 1.412 . S
C171 C174 1.437 . S
C171 C175 1.317 . S
C171 H190 0.929 . S
C172 C173 1.426 . S
C172 C174 1.413 . S
C172 N182 1.359 . S
C173 C170 1.417 . S
C173 C172 1.426 . S
C173 N178 1.350 . S
C174 C171 1.437 . S
C174 C172 1.413 . S
C174 C184 1.391 . S
C175 C170 1.431 . S
C175 C171 1.317 . S
C175 H186 0.930 . S
C176 C170 1.412 . S
C176 C177 1.355 . S
C176 H188 0.930 . S
C177 C176 1.355 . S
C177 C179 1.402 . S
C177 H189 0.930 . S
N178 Gd169 2.661 . S
N178 C173 1.350 . S
N178 C179 1.307 . S
C179 C177 1.402 . S
C179 N178 1.307 . S
C179 H180 0.930 . S
H180 C179 0.930 . S
C181 N182 1.334 . S
C181 C183 1.394 . S
C181 H185 0.930 . S
N182 Gd169 2.601 . S
N182 C172 1.359 . S
N182 C181 1.334 . S
C183 C181 1.394 . S
C183 C184 1.359 . S
C183 H195 0.930 . S
C184 C174 1.391 . S
C184 C183 1.359 . S
C184 H196 0.929 . S
H185 C181 0.930 . S
H186 C175 0.930 . S
H187 C204 0.930 . S
H188 C176 0.930 . S
H189 C177 0.930 . S
H190 C171 0.929 . S
H191 C209 0.930 . S
H192 C200 0.930 . S
H193 C201 0.930 . S
H194 C225 0.929 1_565 S
H195 C183 0.930 . S
H196 C184 0.929 . S
H197 C226 0.930 . S
H198 C207 0.930 . S
N199 Gd168 2.661 . S
N199 C203 1.350 . S
N199 C204 1.307 1_655 S
C200 H192 0.930 . S
C200 C201 1.355 . S
C200 C202 1.412 . S
C201 H193 0.930 . S
C201 C200 1.355 . S
C201 C204 1.402 . S
C202 C200 1.412 . S
C202 C203 1.417 1_455 S
C202 C226 1.431 . S
C203 N199 1.350 . S
C203 C202 1.417 1_655 S
C203 C206 1.426 . S
C204 H187 0.930 . S
C204 N199 1.307 1_455 S
C204 C201 1.402 . S
N205 Gd168 2.601 . S
N205 C206 1.359 . S
N205 C209 1.334 . S
C206 C203 1.426 . S
C206 N205 1.359 . S
C206 C210 1.413 . S
C207 H198 0.930 . S
C207 C208 1.359 . S
C207 C209 1.394 1_565 S
C208 C207 1.359 . S
C208 C210 1.391 1_565 S
C208 H211 0.929 . S
C209 H191 0.930 . S
C209 N205 1.334 . S
C209 C207 1.394 1_545 S
C210 C206 1.413 . S
C210 C208 1.391 1_545 S
C210 C225 1.437 . S
H211 C208 0.929 . S
O212 Gd168 2.545 . S
O212 C227 1.258 . S
O213 Gd168 2.606 . S
O213 Gd169 2.362 . S
O213 C224 1.284 . S
O214 Gd169 2.324 . S
O214 C234 1.254 . S
O215 Gd168 2.429 . S
O215 C234 1.268 . S
O216 Gd168 2.545 . S
O216 C224 1.250 . S
O217 Gd168 2.412 . S
O217 C227 1.252 . S
O218 Gd169 2.545 . S
O218 C236 1.258 . S
O219 Gd168 2.362 . S
O219 Gd169 2.606 . S
O219 C235 1.284 . S
O220 Gd168 2.324 . S
O220 C243 1.254 . S
O221 Gd169 2.429 . S
O221 C243 1.268 . S
O222 Gd169 2.545 . S
O222 C235 1.250 . S
O223 Gd169 2.412 . S
O223 C236 1.252 . S
C224 O213 1.284 . S
C224 O216 1.250 . S
C225 H194 0.929 1_545 S
C225 C210 1.437 . S
C225 C226 1.317 1_655 S
C226 H197 0.930 . S
C226 C202 1.431 . S
C226 C225 1.317 1_455 S
C227 Gd168 2.828 . S
C227 O212 1.258 . S
C227 O217 1.252 . S
C227 C228 1.497 . S
C228 C227 1.497 . S
C228 C229 1.395 . S
C228 C230 1.380 1_655 S
C229 C228 1.395 . S
C229 C232 1.398 . S
C229 H244 0.930 . S
C230 C228 1.380 1_455 S
C230 C231 1.391 . S
C230 H245 0.930 . S
C231 C230 1.391 . S
C231 C233 1.387 . S
C232 C229 1.398 . S
C232 C233 1.380 1_655 S
C232 H246 0.930 . S
C233 C231 1.387 . S
C233 C232 1.380 1_455 S
C233 H247 0.930 . S
C234 O214 1.254 . S
C234 O215 1.268 . S
C235 O219 1.284 . S
C235 O222 1.250 . S
C236 Gd169 2.828 . S
C236 O218 1.258 . S
C236 O223 1.252 . S
C236 C237 1.497 . S
C237 C236 1.497 . S
C237 C238 1.395 . S
C237 C239 1.380 . S
C238 C237 1.395 . S
C238 C241 1.398 . S
C238 H248 0.930 . S
C239 C237 1.380 . S
C239 C240 1.391 . S
C239 H249 0.930 . S
C240 C239 1.391 . S
C240 C242 1.387 . S
C241 C238 1.398 . S
C241 C242 1.380 . S
C241 H250 0.930 . S
C242 C240 1.387 . S
C242 C241 1.380 . S
C242 H251 0.930 . S
C243 O220 1.254 . S
C243 O221 1.268 . S
H244 C229 0.930 . S
H245 C230 0.930 . S
H246 C232 0.930 . S
H247 C233 0.930 . S
H248 C238 0.930 . S
H249 C239 0.930 . S
H250 C241 0.930 . S
H251 C242 0.930 . S
H252 C258 0.930 . S
H253 C262 0.930 . S
H254 C267 0.929 . S
H255 C265 0.929 . S
H256 C260 0.929 . S
H257 C266 0.929 . S
C258 H252 0.930 . S
C258 C259 1.367 1_655 S
C258 C266 1.378 . S
C259 C258 1.367 1_455 S
C259 C267 1.433 . S
C260 H256 0.929 . S
C260 C262 1.378 1_565 S
C260 C264 1.350 1_455 S
C261 C264 1.463 1_455 S
C261 C266 1.350 1_455 S
C261 N269 1.427 . S
C262 H253 0.930 . S
C262 C260 1.378 1_545 S
C262 C263 1.367 1_455 S
C263 C262 1.367 1_655 S
C263 C265 1.433 . S
C264 C260 1.350 1_655 S
C264 C261 1.463 1_655 S
C264 N268 1.427 1_565 S
C265 H255 0.929 . S
C265 C263 1.433 . S
C265 N268 1.384 . S
C266 H257 0.929 . S
C266 C258 1.378 . S
C266 C261 1.350 1_655 S
C267 H254 0.929 . S
C267 C259 1.433 . S
C267 N269 1.384 . S
N268 C264 1.427 1_545 S
N268 C265 1.384 . S
N269 C261 1.427 . S
N269 C267 1.384 . S
H270 C276 0.930 . S
H271 C280 0.930 1_655 S
H272 C285 0.929 . S
H273 C283 0.929 . S
H274 C278 0.929 . S
H275 C284 0.929 . S
C276 H270 0.930 . S
C276 C277 1.367 . S
C276 C284 1.378 . S
C277 C276 1.367 . S
C277 C285 1.433 . S
C278 H274 0.929 . S
C278 C280 1.378 . S
C278 C282 1.350 . S
C279 C282 1.463 . S
C279 C284 1.350 . S
C279 N287 1.427 . S
C280 H271 0.930 1_455 S
C280 C278 1.378 . S
C280 C281 1.367 . S
C281 C280 1.367 . S
C281 C283 1.433 . S
C282 C278 1.350 . S
C282 C279 1.463 . S
C282 N286 1.427 . S
C283 H273 0.929 . S
C283 C281 1.433 . S
C283 N286 1.384 . S
C284 H275 0.929 . S
C284 C276 1.378 . S
C284 C279 1.350 . S
C285 H272 0.929 . S
C285 C277 1.433 . S
C285 N287 1.384 . S
N286 C282 1.427 . S
N286 C283 1.384 . S
N287 C279 1.427 . S
N287 C285 1.384 . S
H288 C294 0.930 . S
H289 C298 0.930 . S
H290 C303 0.929 . S
H291 C301 0.929 . S
H292 C296 0.929 . S
H293 C302 0.929 . S
C294 H288 0.930 . S
C294 C295 1.367 . S
C294 C302 1.378 . S
C295 C294 1.367 . S
C295 C303 1.433 . S
C296 H292 0.929 . S
C296 C298 1.378 . S
C296 C300 1.350 1_545 S
C297 C300 1.463 . S
C297 C302 1.350 . S
C297 N305 1.427 . S
C298 H289 0.930 . S
C298 C296 1.378 . S
C298 C299 1.367 . S
C299 C298 1.367 . S
C299 C301 1.433 . S
C300 C296 1.350 1_565 S
C300 C297 1.463 . S
C300 N304 1.427 . S
C301 H291 0.929 . S
C301 C299 1.433 . S
C301 N304 1.384 1_545 S
C302 H293 0.929 . S
C302 C294 1.378 . S
C302 C297 1.350 . S
C303 H290 0.929 . S
C303 C295 1.433 . S
C303 N305 1.384 . S
N304 C300 1.427 . S
N304 C301 1.384 1_565 S
N305 C297 1.427 . S
N305 C303 1.384 . S
H306 C312 0.930 . S
H307 C316 0.930 . S
H308 C321 0.929 . S
H309 C319 0.929 . S
H310 C314 0.929 . S
H311 C320 0.929 . S
C312 H306 0.930 . S
C312 C313 1.367 . S
C312 C320 1.378 1_556 S
C313 C312 1.367 . S
C313 C321 1.433 1_556 S
C314 H310 0.929 . S
C314 C316 1.378 . S
C314 C318 1.350 . S
C315 C318 1.463 . S
C315 C320 1.350 . S
C315 N323 1.427 . S
C316 H307 0.930 . S
C316 C314 1.378 . S
C316 C317 1.367 . S
C317 C316 1.367 . S
C317 C319 1.433 . S
C318 C314 1.350 . S
C318 C315 1.463 . S
C318 N322 1.427 . S
C319 H309 0.929 . S
C319 C317 1.433 . S
C319 N322 1.384 . S
C320 H311 0.929 . S
C320 C312 1.378 1_554 S
C320 C315 1.350 . S
C321 H308 0.929 . S
C321 C313 1.433 1_554 S
C321 N323 1.384 . S
N322 C318 1.427 . S
N322 C319 1.384 . S
N323 C315 1.427 . S
N323 C321 1.384 . S
H324 C330 0.930 . S
H325 C334 0.930 1_455 S
H326 C339 0.929 . S
H327 C337 0.929 . S
H328 C332 0.926 1_455 S
H329 C338 0.929 . S
C330 H324 0.930 . S
C330 C331 1.367 . S
C330 C338 1.378 . S
C331 C330 1.367 . S
C331 C339 1.433 . S
C332 H328 0.926 1_655 S
C332 C334 1.378 . S
C332 C336 1.350 . S
C333 C336 1.463 . S
C333 C338 1.350 . S
C333 N341 1.427 . S
C334 H325 0.930 1_655 S
C334 C332 1.378 . S
C334 C335 1.367 . S
C335 C334 1.367 . S
C335 C337 1.433 . S
C336 C332 1.350 . S
C336 C333 1.463 . S
C336 N340 1.427 . S
C337 H327 0.929 . S
C337 C335 1.433 . S
C337 N340 1.384 . S
C338 H329 0.929 . S
C338 C330 1.378 . S
C338 C333 1.350 . S
C339 H326 0.929 . S
C339 C331 1.433 . S
C339 N341 1.384 . S
N340 C336 1.427 . S
N340 C337 1.384 . S
N341 C333 1.427 . S
N341 C339 1.384 . S
H342 C348 0.930 . S
H343 C352 0.930 . S
H344 C357 0.929 . S
H345 C355 0.929 . S
H346 C350 0.929 . S
H347 C356 0.929 . S
C348 H342 0.930 . S
C348 C349 1.367 . S
C348 C356 1.378 . S
C349 C348 1.367 . S
C349 C357 1.433 . S
C350 H346 0.929 . S
C350 C352 1.378 . S
C350 C354 1.350 . S
C351 C354 1.463 . S
C351 C356 1.350 . S
C351 N359 1.427 . S
C352 H343 0.930 . S
C352 C350 1.378 . S
C352 C353 1.367 . S
C353 C352 1.367 . S
C353 C355 1.433 . S
C354 C350 1.350 . S
C354 C351 1.463 . S
C354 N358 1.427 . S
C355 H345 0.929 . S
C355 C353 1.433 . S
C355 N358 1.384 . S
C356 H347 0.929 . S
C356 C348 1.378 . S
C356 C351 1.350 . S
C357 H344 0.929 . S
C357 C349 1.433 . S
C357 N359 1.384 . S
N358 C354 1.427 . S
N358 C355 1.384 . S
N359 C351 1.427 . S
N359 C357 1.384 . S
H360 C366 0.930 . S
H361 C370 0.930 1_565 S
H362 C375 0.929 . S
H363 C373 0.929 . S
H364 C368 0.929 . S
H365 C374 0.929 . S
C366 H360 0.930 . S
C366 C367 1.367 . S
C366 C374 1.378 . S
C367 C366 1.367 . S
C367 C375 1.433 . S
C368 H364 0.929 . S
C368 C370 1.378 1_556 S
C368 C372 1.350 . S
C369 C372 1.463 . S
C369 C374 1.350 . S
C369 N377 1.427 . S
C370 H361 0.930 1_545 S
C370 C368 1.378 1_554 S
C370 C371 1.367 . S
C371 C370 1.367 . S
C371 C373 1.433 . S
C372 C368 1.350 . S
C372 C369 1.463 . S
C372 N376 1.427 . S
C373 H363 0.929 . S
C373 C371 1.433 . S
C373 N376 1.384 1_554 S
C374 H365 0.929 . S
C374 C366 1.378 . S
C374 C369 1.350 . S
C375 H362 0.929 . S
C375 C367 1.433 . S
C375 N377 1.384 . S
N376 C372 1.427 . S
N376 C373 1.384 1_556 S
N377 C369 1.427 . S
N377 C375 1.384 . S
H378 C384 0.930 . S
H379 C388 0.930 . S
H380 C393 0.929 . S
H381 C391 0.929 . S
H382 C386 0.929 . S
H383 C392 0.929 . S
C384 H378 0.930 . S
C384 C385 1.367 . S
C384 C392 1.378 . S
C385 C384 1.367 . S
C385 C393 1.433 . S
C386 H382 0.929 . S
C386 C388 1.378 . S
C386 C390 1.350 1_545 S
C387 C390 1.463 . S
C387 C392 1.350 . S
C387 N395 1.427 . S
C388 H379 0.930 . S
C388 C386 1.378 . S
C388 C389 1.367 . S
C389 C388 1.367 . S
C389 C391 1.433 1_545 S
C390 C386 1.350 1_565 S
C390 C387 1.463 . S
C390 N394 1.427 . S
C391 H381 0.929 . S
C391 C389 1.433 1_565 S
C391 N394 1.384 . S
C392 H383 0.929 . S
C392 C384 1.378 . S
C392 C387 1.350 . S
C393 H380 0.929 . S
C393 C385 1.433 . S
C393 N395 1.384 . S
N394 C390 1.427 . S
N394 C391 1.384 . S
N395 C387 1.427 . S
N395 C393 1.384 . S
H396 C402 0.930 . S
H397 C406 0.930 . S
H398 C411 0.929 . S
H399 C409 0.929 1_455 S
H400 C404 0.929 . S
H401 C410 0.929 . S
C402 H396 0.930 . S
C402 C403 1.367 . S
C402 C410 1.378 . S
C403 C402 1.367 . S
C403 C411 1.433 1_455 S
C404 H400 0.929 . S
C404 C406 1.378 . S
C404 C408 1.350 . S
C405 C408 1.463 1_455 S
C405 C410 1.350 . S
C405 N413 1.427 1_455 S
C406 H397 0.930 . S
C406 C404 1.378 . S
C406 C407 1.367 . S
C407 C406 1.367 . S
C407 C409 1.433 . S
C408 C404 1.350 . S
C408 C405 1.463 1_655 S
C408 N412 1.427 1_655 S
C409 H399 0.929 1_655 S
C409 C407 1.433 . S
C409 N412 1.384 1_655 S
C410 H401 0.929 . S
C410 C402 1.378 . S
C410 C405 1.350 . S
C411 H398 0.929 . S
C411 C403 1.433 1_655 S
C411 N413 1.384 . S
N412 C408 1.427 1_455 S
N412 C409 1.384 1_455 S
N413 C405 1.427 1_655 S
N413 C411 1.384 . S
C259 C66 1.455 . S
C263 C75 1.455 . S
C277 C159 1.443 . S
C281 C150 1.443 1_455 S
C295 C243 1.440 1_455 S
C299 C234 1.440 . S
C313 C240 1.766 . S
C317 C56 1.921 . S
C331 C147 1.119 . S
C335 C67 1.220 . S
C349 C224 1.915 . S
C353 C156 1.761 . S
C367 C235 1.221 . S
C371 C63 1.122 . S
C385 C72 1.764 . S
C389 C140 1.913 . S
C403 C231 1.122 . S
C407 C151 1.220 . S
