# Generated by pormake.
# Topology vbm, (6)-cn, num edge types: 1
# Building blocks:
#     Node 0, Type 0, BuildingBlock: MIDCAF_clean_sbu_0, # of connection points: 6
#     Node 1, Type 0, BuildingBlock: MIDCAF_clean_sbu_0, # of connection points: 6
#     Node 2, Type 0, BuildingBlock: MIDCAF_clean_sbu_0, # of connection points: 6
#     Node 3, Type 0, BuildingBlock: MIDCAF_clean_sbu_0, # of connection points: 6
#     Node 4, Type 0, BuildingBlock: MIDCAF_clean_sbu_0, # of connection points: 6
#     Node 5, Type 0, BuildingBlock: MIDCAF_clean_sbu_0, # of connection points: 6
#     Node 6, Type 0, BuildingBlock: MIDCAF_clean_sbu_0, # of connection points: 6
#     Node 7, Type 0, BuildingBlock: MIDCAF_clean_sbu_0, # of connection points: 6
#     Node 8, Type 0, BuildingBlock: MIDCAF_clean_sbu_0, # of connection points: 6
#     Node 9, Type 0, BuildingBlock: MIDCAF_clean_sbu_0, # of connection points: 6
#     Node 10, Type 0, BuildingBlock: MIDCAF_clean_sbu_0, # of connection points: 6
#     Node 11, Type 0, BuildingBlock: MIDCAF_clean_sbu_0, # of connection points: 6
#     Node 12, Type 0, BuildingBlock: MIDCAF_clean_sbu_0, # of connection points: 6
#     Node 13, Type 0, BuildingBlock: MIDCAF_clean_sbu_0, # of connection points: 6
#     Node 14, Type 0, BuildingBlock: MIDCAF_clean_sbu_0, # of connection points: 6
#     Node 15, Type 0, BuildingBlock: MIDCAF_clean_sbu_0, # of connection points: 6
#     Edge 16, Type (0, 0), BuildingBlock: EZIPEK_clean_linker_0, # of connection points: 2
#     Edge 17, Type (0, 0), BuildingBlock: EZIPEK_clean_linker_0, # of connection points: 2
#     Edge 18, Type (0, 0), BuildingBlock: EZIPEK_clean_linker_0, # of connection points: 2
#     Edge 19, Type (0, 0), BuildingBlock: EZIPEK_clean_linker_0, # of connection points: 2
#     Edge 20, Type (0, 0), BuildingBlock: EZIPEK_clean_linker_0, # of connection points: 2
#     Edge 21, Type (0, 0), BuildingBlock: EZIPEK_clean_linker_0, # of connection points: 2
#     Edge 22, Type (0, 0), BuildingBlock: EZIPEK_clean_linker_0, # of connection points: 2
#     Edge 23, Type (0, 0), BuildingBlock: EZIPEK_clean_linker_0, # of connection points: 2
#     Edge 24, Type (0, 0), BuildingBlock: EZIPEK_clean_linker_0, # of connection points: 2
#     Edge 25, Type (0, 0), BuildingBlock: EZIPEK_clean_linker_0, # of connection points: 2
#     Edge 26, Type (0, 0), BuildingBlock: EZIPEK_clean_linker_0, # of connection points: 2
#     Edge 27, Type (0, 0), BuildingBlock: EZIPEK_clean_linker_0, # of connection points: 2
#     Edge 28, Type (0, 0), BuildingBlock: EZIPEK_clean_linker_0, # of connection points: 2
#     Edge 29, Type (0, 0), BuildingBlock: EZIPEK_clean_linker_0, # of connection points: 2
#     Edge 30, Type (0, 0), BuildingBlock: EZIPEK_clean_linker_0, # of connection points: 2
#     Edge 31, Type (0, 0), BuildingBlock: EZIPEK_clean_linker_0, # of connection points: 2
#     Edge 32, Type (0, 0), BuildingBlock: EZIPEK_clean_linker_0, # of connection points: 2
#     Edge 33, Type (0, 0), BuildingBlock: EZIPEK_clean_linker_0, # of connection points: 2
#     Edge 34, Type (0, 0), BuildingBlock: EZIPEK_clean_linker_0, # of connection points: 2
#     Edge 35, Type (0, 0), BuildingBlock: EZIPEK_clean_linker_0, # of connection points: 2
#     Edge 36, Type (0, 0), BuildingBlock: EZIPEK_clean_linker_0, # of connection points: 2
#     Edge 37, Type (0, 0), BuildingBlock: EZIPEK_clean_linker_0, # of connection points: 2
#     Edge 38, Type (0, 0), BuildingBlock: EZIPEK_clean_linker_0, # of connection points: 2
#     Edge 39, Type (0, 0), BuildingBlock: EZIPEK_clean_linker_0, # of connection points: 2
#     Edge 40, Type (0, 0), BuildingBlock: EZIPEK_clean_linker_0, # of connection points: 2
#     Edge 41, Type (0, 0), BuildingBlock: EZIPEK_clean_linker_0, # of connection points: 2
#     Edge 42, Type (0, 0), BuildingBlock: EZIPEK_clean_linker_0, # of connection points: 2
#     Edge 43, Type (0, 0), BuildingBlock: EZIPEK_clean_linker_0, # of connection points: 2
#     Edge 44, Type (0, 0), BuildingBlock: EZIPEK_clean_linker_0, # of connection points: 2
#     Edge 45, Type (0, 0), BuildingBlock: EZIPEK_clean_linker_0, # of connection points: 2
#     Edge 46, Type (0, 0), BuildingBlock: EZIPEK_clean_linker_0, # of connection points: 2
#     Edge 47, Type (0, 0), BuildingBlock: EZIPEK_clean_linker_0, # of connection points: 2
#     Edge 48, Type (0, 0), BuildingBlock: EZIPEK_clean_linker_0, # of connection points: 2
#     Edge 49, Type (0, 0), BuildingBlock: EZIPEK_clean_linker_0, # of connection points: 2
#     Edge 50, Type (0, 0), BuildingBlock: EZIPEK_clean_linker_0, # of connection points: 2
#     Edge 51, Type (0, 0), BuildingBlock: EZIPEK_clean_linker_0, # of connection points: 2
#     Edge 52, Type (0, 0), BuildingBlock: EZIPEK_clean_linker_0, # of connection points: 2
#     Edge 53, Type (0, 0), BuildingBlock: EZIPEK_clean_linker_0, # of connection points: 2
#     Edge 54, Type (0, 0), BuildingBlock: EZIPEK_clean_linker_0, # of connection points: 2
#     Edge 55, Type (0, 0), BuildingBlock: EZIPEK_clean_linker_0, # of connection points: 2
#     Edge 56, Type (0, 0), BuildingBlock: EZIPEK_clean_linker_0, # of connection points: 2
#     Edge 57, Type (0, 0), BuildingBlock: EZIPEK_clean_linker_0, # of connection points: 2
#     Edge 58, Type (0, 0), BuildingBlock: EZIPEK_clean_linker_0, # of connection points: 2
#     Edge 59, Type (0, 0), BuildingBlock: EZIPEK_clean_linker_0, # of connection points: 2
#     Edge 60, Type (0, 0), BuildingBlock: EZIPEK_clean_linker_0, # of connection points: 2
#     Edge 61, Type (0, 0), BuildingBlock: EZIPEK_clean_linker_0, # of connection points: 2
#     Edge 62, Type (0, 0), BuildingBlock: EZIPEK_clean_linker_0, # of connection points: 2
#     Edge 63, Type (0, 0), BuildingBlock: EZIPEK_clean_linker_0, # of connection points: 2
# Relax obj value: 0.153
# Max RMSD: 0.187
# Mean RMSD: 0.187
data_MOF--net-vbm--node1-MIDCAF_clean_sbu_0--edge1-EZIPEK_clean_linker_0
_symmetry_space_group_name_H-M    P1
_symmetry_Int_Tables_number       1
_symmetry_cell_setting            triclinic
loop_
_symmetry_equiv_pos_as_xyz
'x, y, z'
_cell_length_a     43.739796
_cell_length_b     11.404703
_cell_length_c     45.362567
_cell_angle_alpha  90.19046
_cell_angle_beta   90.055358
_cell_angle_gamma 90.027986
loop_
_atom_site_label
_atom_site_type_symbol
_atom_site_fract_x
_atom_site_fract_y
_atom_site_fract_z
_atom_type_partial_charge
Zn0 Zn 0.16818 0.88182 0.11814 0.0
Zn1 Zn 0.07478 0.05036 0.15168 0.0
Zn2 Zn 0.12417 -0.01141 0.134 0.0
C3 C 0.05772 0.96949 0.10032 0.0
C4 C 0.09695 0.96005 0.2003 0.0
O5 O 0.16356 0.11027 0.13131 0.0
O6 O 0.19933 0.97643 0.13766 0.0
C7 C 0.13424 0.90208 0.06878 0.0
O8 O 0.08716 0.96507 0.09951 0.0
O9 O 0.04431 -0.00322 0.12391 0.0
O10 O 0.07153 0.00104 0.19238 0.0
O11 O 0.11724 0.93262 0.18075 0.0
O12 O 0.16234 0.89375 0.0747 0.0
O13 O 0.11491 0.92621 0.08925 0.0
O14 O 0.12751 0.83111 0.16222 0.0
O15 O 0.15901 0.72914 0.13422 0.0
C16 C 0.14013 0.73291 0.15507 0.0
O17 O 0.1344 0.1737 0.1413 0.0
O18 O 0.08614 0.21882 0.1498 0.0
C19 C 0.1918 0.08254 0.13554 0.0
C20 C 0.11367 0.25035 0.14701 0.0
Zn21 Zn 0.9232 0.8541 0.15467 0.0
Zn22 Zn 0.84107 0.0299 0.08823 0.0
Zn23 Zn 0.87908 0.92888 0.12443 0.0
C24 C 0.8549 0.18493 0.13451 0.0
C25 C 0.89168 -0.00767 0.05532 0.0
O26 O 0.8637 0.75145 0.13318 0.0
O27 O 0.9057 0.69502 0.15637 0.0
C28 C 0.89566 0.00164 0.19233 0.0
O29 O 0.86771 0.09417 0.1459 0.0
O30 O 0.8427 0.17968 0.10936 0.0
O31 O 0.86406 0.01863 0.05105 0.0
O32 O 0.90112 0.96358 0.08125 0.0
O33 O 0.91942 0.93943 0.19137 0.0
O34 O 0.87935 0.01699 0.16888 0.0
O35 O 0.92374 0.92255 0.09946 0.0
O36 O 0.96005 0.87172 0.13081 0.0
C37 C 0.95212 0.90107 0.10519 0.0
O38 O 0.83871 0.81346 0.12007 0.0
O39 O 0.80654 0.92649 0.09514 0.0
C40 C 0.87952 0.67193 0.14614 0.0
C41 C 0.81195 0.83406 0.10933 0.0
Zn42 Zn 0.16617 0.04481 0.41758 0.0
Zn43 Zn 0.09322 0.82488 0.36184 0.0
Zn44 Zn 0.12927 0.93098 0.38763 0.0
C45 C 0.05803 0.87354 0.4041 0.0
C46 C 0.10626 -0.00487 0.32421 0.0
O47 O 0.16821 0.81406 0.39552 0.0
O48 O 0.20121 0.94666 0.41195 0.0
C49 C 0.11811 -0.00223 0.45392 0.0
O50 O 0.08117 0.94348 0.40659 0.0
O51 O 0.06204 0.77628 0.39162 0.0
O52 O 0.08251 0.93778 0.33045 0.0
O53 O 0.12738 0.00796 0.34367 0.0
O54 O 0.1455 0.03107 0.45517 0.0
O55 O 0.10593 0.96839 0.42918 0.0
O56 O 0.14219 0.09164 0.36323 0.0
O57 O 0.16618 0.1934 0.39769 0.0
C58 C 0.15474 0.18734 0.37228 0.0
O59 O 0.14557 0.74578 0.38022 0.0
O60 O 0.11495 0.69526 0.34382 0.0
C61 C 0.19538 0.84395 0.40351 0.0
C62 C 0.13717 0.6714 0.36024 0.0
Zn63 Zn 0.83836 0.8864 0.43993 0.0
Zn64 Zn 0.90962 0.23463 0.35973 0.0
Zn65 Zn 0.87126 0.10598 0.38229 0.0
C66 C 0.9436 0.11248 0.39741 0.0
C67 C 0.88427 0.0931 0.31464 0.0
O68 O 0.82811 0.17444 0.39663 0.0
O69 O 0.81125 0.02228 0.42373 0.0
C70 C 0.89459 0.01787 0.45276 0.0
O71 O 0.91591 0.08351 0.40347 0.0
O72 O 0.94879 0.18497 0.37714 0.0
O73 O 0.90101 0.18158 0.31916 0.0
O74 O 0.87221 0.03871 0.3366 0.0
O75 O 0.87491 0.94432 0.462 0.0
O76 O 0.89295 0.06554 0.42679 0.0
O77 O 0.86085 0.94564 0.3558 0.0
O78 O 0.84402 0.93461 0.39949 0.0
C79 C 0.85003 0.88097 0.37611 0.0
O80 O 0.84842 0.28346 0.38233 0.0
O81 O 0.89028 0.38274 0.37107 0.0
C82 C 0.80683 0.11972 0.41062 0.0
C83 C 0.86233 0.38196 0.37792 0.0
Zn84 Zn 0.83712 0.09848 0.92529 0.0
Zn85 Zn 0.9215 0.79751 0.84868 0.0
Zn86 Zn 0.88418 0.93269 0.87347 0.0
C87 C 0.95484 0.89423 0.89292 0.0
C88 C 0.90205 0.95673 0.80635 0.0
O89 O 0.83907 0.8556 0.88314 0.0
O90 O 0.81022 0.96384 0.9145 0.0
C91 C 0.89804 0.01008 0.94402 0.0
O92 O 0.92773 0.93229 0.8986 0.0
O93 O 0.95951 0.83207 0.87035 0.0
O94 O 0.91614 0.86078 0.80873 0.0
O95 O 0.89048 0.00732 0.82919 0.0
O96 O 0.87249 0.05648 0.95064 0.0
O97 O 0.90444 0.97126 0.91783 0.0
O98 O 0.87862 0.09964 0.84711 0.0
O99 O 0.85499 0.1061 0.88743 0.0
C100 C 0.86407 0.16219 0.86568 0.0
O101 O 0.86016 0.75763 0.86986 0.0
O102 O 0.90003 0.651 0.85623 0.0
C103 C 0.814 0.87619 0.89742 0.0
C104 C 0.87229 0.65722 0.86355 0.0
Zn105 Zn 0.18301 0.79216 0.90608 0.0
Zn106 Zn 0.10737 0.02392 0.86178 0.0
Zn107 Zn 0.14307 0.90301 0.88006 0.0
C108 C 0.07949 0.00453 0.907 0.0
C109 C 0.10256 0.84831 0.826 0.0
O110 O 0.18578 0.00935 0.88235 0.0
O111 O 0.2196 0.87935 0.89814 0.0
C112 C 0.13843 0.83966 0.94721 0.0
O113 O 0.09725 0.91432 0.9046 0.0
O114 O 0.0898 0.10115 0.8983 0.0
O115 O 0.0824 0.89844 0.84137 0.0
O116 O 0.12936 0.83405 0.8371 0.0
O117 O 0.16569 0.80436 0.9459 0.0
O118 O 0.12421 0.87065 0.92373 0.0
O119 O 0.14881 0.73961 0.85395 0.0
O120 O 0.17962 0.64693 0.88459 0.0
C121 C 0.16376 0.64709 0.86142 0.0
O122 O 0.16224 0.08217 0.87039 0.0
O123 O 0.13017 0.1308 0.83537 0.0
C124 C 0.21359 0.97946 0.8882 0.0
C125 C 0.15325 0.15587 0.85061 0.0
Zn126 Zn 0.83375 0.95601 0.57431 0.0
Zn127 Zn 0.89872 0.31652 0.65038 0.0
Zn128 Zn 0.87156 0.16755 0.62312 0.0
C129 C 0.94156 0.25857 0.61238 0.0
C130 C 0.88985 0.12368 0.68803 0.0
O131 O 0.82875 0.24354 0.60925 0.0
O132 O 0.80541 0.09178 0.58665 0.0
C133 C 0.89631 0.07394 0.56068 0.0
O134 O 0.91997 0.1835 0.60785 0.0
O135 O 0.93578 0.35129 0.62642 0.0
O136 O 0.90353 0.22077 0.6863 0.0
O137 O 0.87509 0.08256 0.66581 0.0
O138 O 0.87319 0.00996 0.5555 0.0
O139 O 0.89958 0.13208 0.58481 0.0
O140 O 0.86056 -0.00155 0.6453 0.0
O141 O 0.82133 -0.01602 0.61658 0.0
C142 C 0.83818 0.93665 0.63553 0.0
O143 O 0.8455 0.34434 0.62282 0.0
O144 O 0.87154 0.44697 0.65569 0.0
C145 C 0.80503 0.19515 0.59743 0.0
C146 C 0.84977 0.4405 0.63771 0.0
Zn147 Zn 0.15584 0.93392 0.62577 0.0
Zn148 Zn 0.05988 0.77128 0.64616 0.0
Zn149 Zn 0.1095 0.85321 0.63528 0.0
C150 C 0.0451 0.97433 0.61729 0.0
C151 C 0.09264 0.82324 0.69933 0.0
O152 O 0.14658 0.72946 0.6205 0.0
O153 O 0.17781 0.81819 0.65057 0.0
C154 C 0.11792 0.93631 0.57448 0.0
O155 O 0.07462 0.9746 0.61495 0.0
O156 O 0.03184 0.89221 0.63074 0.0
O157 O 0.06886 0.77224 0.68989 0.0
O158 O 0.11133 0.87074 0.68148 0.0
O159 O 0.14533 0.90795 0.58048 0.0
O160 O 0.09956 0.95421 0.59618 0.0
O161 O 0.10603 0.04023 0.62282 0.0
O162 O 0.1508 0.09262 0.64144 0.0
C163 C 0.12498 0.12007 0.63131 0.0
O164 O 0.11433 0.67957 0.61891 0.0
O165 O 0.06634 0.62337 0.62388 0.0
C166 C 0.17278 0.73319 0.63349 0.0
C167 C 0.0936 0.60091 0.61662 0.0
Zn168 Zn 0.67936 0.37536 0.11562 0.0
Zn169 Zn 0.59603 0.54065 0.15386 0.0
Zn170 Zn 0.63664 0.47214 0.1271 0.0
C171 C 0.56781 0.40316 0.11231 0.0
C172 C 0.6376 0.45335 0.19465 0.0
O173 O 0.67423 0.59373 0.11562 0.0
O174 O 0.70844 0.47793 0.13615 0.0
C175 C 0.64282 0.40033 0.06424 0.0
O176 O 0.5956 0.40287 0.10278 0.0
O177 O 0.56214 0.44419 0.13765 0.0
O178 O 0.61355 0.51459 0.19391 0.0
O179 O 0.64974 0.41859 0.17064 0.0
O180 O 0.67088 0.40637 0.07095 0.0
O181 O 0.62313 0.3905 0.08525 0.0
O182 O 0.62469 0.29711 0.11052 0.0
O183 O 0.66509 0.22526 0.13309 0.0
C184 C 0.63966 0.20867 0.12055 0.0
O185 O 0.64203 0.65017 0.11338 0.0
O186 O 0.59906 0.69806 0.13485 0.0
C187 C 0.70151 0.57637 0.12548 0.0
C188 C 0.62061 0.72479 0.11756 0.0
Zn189 Zn 0.41406 0.26399 0.15426 0.0
Zn190 Zn 0.34262 0.43943 0.08056 0.0
Zn191 Zn 0.37686 0.36586 0.11958 0.0
C192 C 0.35324 0.62082 0.12074 0.0
C193 C 0.39286 0.38968 0.04931 0.0
O194 O 0.35639 0.19647 0.12945 0.0
O195 O 0.39405 0.11091 0.15385 0.0
C196 C 0.39016 0.45079 0.18587 0.0
O197 O 0.36591 0.53962 0.13606 0.0
O198 O 0.34328 0.5997 0.09519 0.0
O199 O 0.36494 0.40708 0.04413 0.0
O200 O 0.40231 0.37872 0.07618 0.0
O201 O 0.40705 0.36197 0.1886 0.0
O202 O 0.37827 0.47575 0.16058 0.0
O203 O 0.42301 0.34752 0.09806 0.0
O204 O 0.45293 0.27942 0.13343 0.0
C205 C 0.44977 0.31785 0.10761 0.0
O206 O 0.33265 0.26415 0.11787 0.0
O207 O 0.30373 0.366 0.08721 0.0
C208 C 0.36797 0.10605 0.14212 0.0
C209 C 0.30632 0.28642 0.10614 0.0
Zn210 Zn 0.66653 0.48859 0.39703 0.0
Zn211 Zn 0.59186 0.29429 0.35069 0.0
Zn212 Zn 0.62655 0.38901 0.37973 0.0
C213 C 0.55881 0.47247 0.37841 0.0
C214 C 0.63791 0.37732 0.3133 0.0
O215 O 0.65953 0.27045 0.40067 0.0
O216 O 0.69646 0.3766 0.38148 0.0
C217 C 0.62056 0.48029 0.44083 0.0
O218 O 0.58481 0.48964 0.39122 0.0
O219 O 0.55623 0.39216 0.35935 0.0
O220 O 0.61469 0.31125 0.31284 0.0
O221 O 0.64653 0.4229 0.33761 0.0
O222 O 0.64925 0.46523 0.43989 0.0
O223 O 0.60606 0.48838 0.41615 0.0
O224 O 0.61454 0.57335 0.39096 0.0
O225 O 0.65937 0.64291 0.37751 0.0
C226 C 0.63205 0.66141 0.38517 0.0
O227 O 0.62765 0.21461 0.39989 0.0
O228 O 0.59102 0.14648 0.37166 0.0
C229 C 0.68775 0.28259 0.39335 0.0
C230 C 0.60865 0.13265 0.39339 0.0
Zn231 Zn 0.40923 0.83385 0.34063 0.0
Zn232 Zn 0.3465 0.46337 0.42849 0.0
Zn233 Zn 0.37742 0.70188 0.36934 0.0
C234 C 0.35427 0.47407 0.36451 0.0
C235 C 0.40322 0.59989 0.43896 0.0
O236 O 0.35363 0.87966 0.37018 0.0
O237 O 0.38664 0.97989 0.34335 0.0
C238 C 0.3895 0.66292 0.30061 0.0
O239 O 0.36442 0.54108 0.34437 0.0
O240 O 0.34989 0.52387 0.38879 0.0
O241 O 0.38543 0.51756 0.44742 0.0
O242 O 0.39957 0.6545 0.41395 0.0
O243 O 0.40644 0.75249 0.30195 0.0
O244 O 0.37693 0.62359 0.32433 0.0
O245 O 0.42272 0.68981 0.38883 0.0
O246 O 0.44775 0.82212 0.36322 0.0
C247 C 0.44787 0.74134 0.38216 0.0
O248 O 0.336 0.77913 0.3836 0.0
O249 O 0.32883 0.61853 0.40985 0.0
C250 C 0.36231 0.97686 0.35811 0.0
C251 C 0.31828 0.71238 0.39855 0.0
Zn252 Zn 0.35131 0.43584 0.89595 0.0
Zn253 Zn 0.43225 0.27484 0.83208 0.0
Zn254 Zn 0.38903 0.34306 0.86409 0.0
C255 C 0.46152 0.32761 0.88254 0.0
C256 C 0.40241 0.41575 0.79484 0.0
O257 O 0.34948 0.22319 0.86887 0.0
O258 O 0.31495 0.35238 0.88359 0.0
C259 C 0.39694 0.38713 0.93382 0.0
O260 O 0.43317 0.34187 0.88958 0.0
O261 O 0.46874 0.30464 0.85625 0.0
O262 O 0.42611 0.35303 0.79449 0.0
O263 O 0.38786 0.43308 0.81936 0.0
O264 O 0.36845 0.4024 0.93527 0.0
O265 O 0.40998 0.37489 0.90848 0.0
O266 O 0.37747 0.50912 0.843 0.0
O267 O 0.35587 0.59444 0.88154 0.0
C268 C 0.36659 0.60082 0.85587 0.0
O269 O 0.37479 0.16514 0.85521 0.0
O270 O 0.417 0.11221 0.83184 0.0
C271 C 0.32154 0.25121 0.87452 0.0
C272 C 0.39117 0.08669 0.84243 0.0
Zn273 Zn 0.68576 0.40561 0.89148 0.0
Zn274 Zn 0.59674 0.55197 0.85511 0.0
Zn275 Zn 0.64133 0.49087 0.87565 0.0
C276 C 0.57317 0.40524 0.89323 0.0
C277 C 0.63569 0.48626 0.80924 0.0
O278 O 0.67722 0.6218 0.88682 0.0
O279 O 0.71535 0.50907 0.87242 0.0
C280 C 0.64648 0.42072 0.9407 0.0
O281 O 0.60145 0.41424 0.90126 0.0
O282 O 0.56487 0.44507 0.86859 0.0
O283 O 0.61169 0.54479 0.81395 0.0
O284 O 0.65029 0.44167 0.83083 0.0
O285 O 0.6748 0.43301 0.93578 0.0
O286 O 0.62819 0.41115 0.91842 0.0
O287 O 0.63101 0.31949 0.89292 0.0
O288 O 0.67352 0.25608 0.87238 0.0
C289 C 0.64732 0.23523 0.88269 0.0
O290 O 0.6459 0.67259 0.88378 0.0
O291 O 0.59728 0.70776 0.87503 0.0
C292 C 0.70559 0.60871 0.87986 0.0
C293 C 0.6234 0.74387 0.88268 0.0
Zn294 Zn 0.34229 0.56912 0.57137 0.0
Zn295 Zn 0.38583 0.78568 0.64681 0.0
Zn296 Zn 0.36429 0.65581 0.61308 0.0
C297 C 0.4327 0.77482 0.61119 0.0
C298 C 0.37902 0.58153 0.67855 0.0
O299 O 0.31722 0.72818 0.60552 0.0
O300 O 0.29867 0.59273 0.5757 0.0
C301 C 0.3911 0.65745 0.5469 0.0
O302 O 0.4142 0.69363 0.60213 0.0
O303 O 0.42249 0.85474 0.62766 0.0
O304 O 0.39376 0.6763 0.67892 0.0
O305 O 0.36477 0.55083 0.65487 0.0
O306 O 0.36402 0.6398 0.53856 0.0
O307 O 0.3976 0.65477 0.57471 0.0
O308 O 0.35339 0.48128 0.62892 0.0
O309 O 0.35282 0.40949 0.58363 0.0
C310 C 0.35139 0.39374 0.61113 0.0
O311 O 0.33721 0.82192 0.61579 0.0
O312 O 0.35425 0.89799 0.65726 0.0
C313 C 0.29415 0.67496 0.59367 0.0
C314 C 0.33841 0.90811 0.63432 0.0
Zn315 Zn 0.58373 0.42478 0.64478 0.0
Zn316 Zn 0.66431 0.58512 0.59813 0.0
Zn317 Zn 0.62388 0.51201 0.62194 0.0
C318 C 0.63232 0.76948 0.60332 0.0
C319 C 0.61522 0.54158 0.55881 0.0
O320 O 0.62979 0.33394 0.60912 0.0
O321 O 0.5826 0.28264 0.61983 0.0
C322 C 0.62766 0.49164 0.68757 0.0
O323 O 0.61289 0.68468 0.60288 0.0
O324 O 0.66031 0.7495 0.60702 0.0
O325 O 0.64365 0.52043 0.56004 0.0
O326 O 0.60177 0.57904 0.58233 0.0
O327 O 0.60548 0.42198 0.68376 0.0
O328 O 0.63731 0.55235 0.66591 0.0
O329 O 0.58095 0.60897 0.60567 0.0
O330 O 0.55013 0.53358 0.63917 0.0
C331 C 0.55437 0.60468 0.61835 0.0
O332 O 0.66025 0.38106 0.60857 0.0
O333 O 0.69776 0.50499 0.61742 0.0
C334 C 0.60838 0.25757 0.60911 0.0
C335 C 0.68893 0.40167 0.61296 0.0
C336 C 0.22667 0.16879 0.09941 0.0
C337 C 0.21717 0.16321 0.12919 0.0
C338 C 0.26716 0.23803 0.14499 0.0
C339 C 0.27784 0.2275 0.11546 0.0
N340 N 0.26947 0.15905 0.0658 0.0
N341 N 0.22879 0.1809 0.18082 0.0
C342 C 0.258 0.18609 0.09302 0.0
C343 C 0.23755 0.19487 0.15216 0.0
N344 N 0.20577 0.15536 0.07723 0.0
N345 N 0.28452 0.29363 0.16586 0.0
H346 H 0.20667 0.15542 0.18659 0.0
H347 H 0.24378 0.18874 0.19858 0.0
H348 H 0.30628 0.3268 0.16174 0.0
H349 H 0.27638 0.31478 0.18678 0.0
H350 H 0.211 0.16847 0.05508 0.0
H351 H 0.18251 0.14321 0.08118 0.0
H352 H 0.25668 0.11799 0.04936 0.0
H353 H 0.29269 0.16608 0.06081 0.0
C354 C 0.77039 0.76489 0.14245 0.0
C355 C 0.78576 0.75676 0.11501 0.0
C356 C 0.74144 0.65968 0.09288 0.0
C357 C 0.72693 0.65908 0.12084 0.0
N358 N 0.72832 0.69933 0.17299 0.0
N359 N 0.78889 0.68043 0.06569 0.0
C360 C 0.74165 0.70853 0.14586 0.0
C361 C 0.77209 0.69941 0.09067 0.0
N362 N 0.78269 0.83041 0.16483 0.0
N363 N 0.72589 0.62252 0.06844 0.0
H364 H 0.81165 0.707 0.06381 0.0
H365 H 0.78145 0.62922 0.04805 0.0
H366 H 0.70339 0.59314 0.06922 0.0
H367 H 0.73412 0.63118 0.04703 0.0
H368 H 0.77094 0.85166 0.18406 0.0
H369 H 0.80425 0.8692 0.16357 0.0
H370 H 0.73946 0.71969 0.19265 0.0
H371 H 0.70635 0.6657 0.17587 0.0
C372 C 0.26899 0.74205 0.37195 0.0
C373 C 0.28506 0.73103 0.39902 0.0
C374 C 0.23653 0.73013 0.4256 0.0
C375 C 0.22174 0.76731 0.39964 0.0
N376 N 0.22382 0.81814 0.34814 0.0
N377 N 0.28437 0.72121 0.45227 0.0
C378 C 0.23778 0.77371 0.37264 0.0
C379 C 0.26888 0.72478 0.4261 0.0
N380 N 0.28312 0.71878 0.34569 0.0
N381 N 0.21944 0.70466 0.44993 0.0
H382 H 0.30817 0.72299 0.45362 0.0
H383 H 0.2737 0.72736 0.47273 0.0
H384 H 0.19559 0.70933 0.44958 0.0
H385 H 0.22855 0.66864 0.4691 0.0
H386 H 0.27138 0.71536 0.3257 0.0
H387 H 0.30571 0.69037 0.34412 0.0
H388 H 0.23562 0.83902 0.32891 0.0
H389 H 0.20068 0.8402 0.34771 0.0
C390 C 0.75926 0.12591 0.38063 0.0
C391 C 0.77469 0.15487 0.40731 0.0
C392 C 0.72659 0.22076 0.42941 0.0
C393 C 0.71195 0.20071 0.40202 0.0
N394 N 0.71043 0.10452 0.35525 0.0
N395 N 0.77276 0.2058 0.45894 0.0
C396 C 0.72715 0.14252 0.37888 0.0
C397 C 0.75817 0.19402 0.43241 0.0
N398 N 0.77536 0.08408 0.35697 0.0
N399 N 0.71048 0.27172 0.45183 0.0
H400 H 0.79629 0.19447 0.46144 0.0
H401 H 0.76155 0.22166 0.47876 0.0
H402 H 0.68691 0.28447 0.45054 0.0
H403 H 0.7202 0.30278 0.47129 0.0
H404 H 0.766 0.07142 0.33611 0.0
H405 H 0.79876 0.06699 0.35758 0.0
H406 H 0.71918 0.05426 0.33804 0.0
H407 H 0.68673 0.1156 0.35439 0.0
C408 C 0.74419 0.7467 0.85974 0.0
C409 C 0.72872 0.70043 0.88455 0.0
C410 C 0.77169 0.75279 0.91639 0.0
C411 C 0.78658 0.8045 0.89194 0.0
N412 N 0.7844 0.87332 0.84158 0.0
N413 N 0.72419 0.68231 0.93724 0.0
C414 C 0.77216 0.80782 0.86387 0.0
C415 C 0.74128 0.71178 0.91317 0.0
N416 N 0.73237 0.7297 0.83216 0.0
N417 N 0.78718 0.73868 0.94234 0.0
H418 H 0.70176 0.6521 0.93554 0.0
H419 H 0.73106 0.6987 0.95885 0.0
H420 H 0.80989 0.76469 0.94509 0.0
H421 H 0.77864 0.69128 0.96011 0.0
H422 H 0.74434 0.74774 0.81286 0.0
H423 H 0.71093 0.6919 0.82868 0.0
H424 H 0.77315 0.8891 0.82175 0.0
H425 H 0.80479 0.91992 0.84359 0.0
C426 C 0.28854 0.12358 0.90391 0.0
C427 C 0.29696 0.16436 0.87567 0.0
C428 C 0.24947 0.08692 0.85486 0.0
C429 C 0.23959 0.05885 0.88378 0.0
N430 N 0.24698 0.07045 0.93637 0.0
N431 N 0.28441 0.20015 0.82479 0.0
C432 C 0.25839 0.08308 0.9085 0.0
C433 C 0.27716 0.15022 0.8512 0.0
N434 N 0.30948 0.12393 0.92631 0.0
N435 N 0.23324 0.04877 0.83094 0.0
H436 H 0.30518 0.24285 0.82115 0.0
H437 H 0.2692 0.20469 0.80714 0.0
H438 H 0.21264 0.00327 0.83271 0.0
H439 H 0.24124 0.05546 0.80939 0.0
H440 H 0.30551 0.08554 0.94675 0.0
H441 H 0.33196 0.15255 0.92342 0.0
H442 H 0.25865 0.0972 0.95525 0.0
H443 H 0.22451 0.0441 0.94041 0.0
C444 C 0.73148 0.28914 0.63455 0.0
C445 C 0.7132 0.31382 0.60954 0.0
C446 C 0.75619 0.27082 0.57686 0.0
C447 C 0.7745 0.24594 0.60187 0.0
N448 N 0.77773 0.20244 0.65398 0.0
N449 N 0.70525 0.30254 0.5572 0.0
C450 C 0.76163 0.24638 0.63062 0.0
C451 C 0.7246 0.29485 0.58075 0.0
N452 N 0.72033 0.31217 0.66209 0.0
N453 N 0.76937 0.2765 0.54957 0.0
H454 H 0.68211 0.32167 0.55966 0.0
H455 H 0.71134 0.27978 0.53575 0.0
H456 H 0.79263 0.26143 0.5461 0.0
H457 H 0.75799 0.30588 0.53084 0.0
H458 H 0.73369 0.31147 0.6811 0.0
H459 H 0.69776 0.33811 0.66558 0.0
H460 H 0.76817 0.18821 0.67467 0.0
H461 H 0.80009 0.17157 0.65236 0.0
C462 C 0.22425 0.6515 0.64352 0.0
C463 C 0.20054 0.67076 0.62275 0.0
C464 C 0.23837 0.70185 0.58395 0.0
C465 C 0.26239 0.68833 0.60479 0.0
N466 N 0.27816 0.62078 0.65311 0.0
N467 N 0.18551 0.65839 0.57197 0.0
C468 C 0.25537 0.65452 0.63428 0.0
C469 C 0.20774 0.67804 0.59249 0.0
N470 N 0.21662 0.63407 0.67238 0.0
N471 N 0.2448 0.74005 0.55611 0.0
H472 H 0.16393 0.62786 0.57795 0.0
H473 H 0.18968 0.65559 0.54938 0.0
H474 H 0.26693 0.7611 0.54935 0.0
H475 H 0.22795 0.76154 0.5408 0.0
H476 H 0.23225 0.63539 0.6897 0.0
H477 H 0.19394 0.62188 0.67892 0.0
H478 H 0.27421 0.58271 0.67357 0.0
H479 H 0.30127 0.62269 0.64774 0.0
C480 C 0.12593 0.90639 0.27833 0.0
C481 C 0.11351 0.0063 0.29271 0.0
C482 C 0.10043 0.08857 0.24506 0.0
C483 C 0.10559 0.97662 0.23165 0.0
N484 N 0.12141 0.77518 0.23657 0.0
N485 N 0.08917 0.19442 0.29024 0.0
C486 C 0.11839 0.88471 0.24841 0.0
C487 C 0.10102 0.09866 0.27619 0.0
N488 N 0.14459 0.83182 0.29343 0.0
N489 N 0.09604 0.18581 0.22808 0.0
H490 H 0.09098 0.20607 0.31302 0.0
H491 H 0.07645 0.25866 0.27949 0.0
H492 H 0.09738 0.18365 0.2052 0.0
H493 H 0.09472 0.27042 0.23671 0.0
H494 H 0.15606 0.76216 0.28346 0.0
H495 H 0.15132 0.84821 0.3151 0.0
H496 H 0.12799 0.7023 0.24882 0.0
H497 H 0.11441 0.75495 0.21522 0.0
C498 C 0.88122 0.94711 0.27228 0.0
C499 C 0.87777 0.06268 0.28335 0.0
C500 C 0.8799 0.14105 0.23304 0.0
C501 C 0.88338 0.02597 0.22212 0.0
N502 N 0.8752 0.81907 0.23 0.0
N503 N 0.8615 0.26129 0.2733 0.0
C504 C 0.87965 0.92887 0.24137 0.0
C505 C 0.87281 0.15688 0.26331 0.0
N506 N 0.88849 0.85637 0.29055 0.0
N507 N 0.88537 0.23488 0.21525 0.0
H508 H 0.85487 0.27379 0.29519 0.0
H509 H 0.85552 0.32983 0.25928 0.0
H510 H 0.89209 0.22499 0.19338 0.0
H511 H 0.88586 0.32108 0.22295 0.0
H512 H 0.89424 0.77313 0.28281 0.0
H513 H 0.89173 0.86612 0.31313 0.0
H514 H 0.86998 0.74668 0.24303 0.0
H515 H 0.87337 0.80356 0.20737 0.0
C516 C 0.86507 0.0522 0.73442 0.0
C517 C 0.89146 0.06205 0.71645 0.0
C518 C 0.92433 0.02257 0.75884 0.0
C519 C 0.898 0.00449 0.77645 0.0
N520 N 0.84329 0.97671 0.77959 0.0
N521 N 0.94534 0.02911 0.70951 0.0
C522 C 0.86829 0.01221 0.7639 0.0
C523 C 0.92085 0.0383 0.72809 0.0
N524 N 0.83714 0.0857 0.72385 0.0
N525 N 0.95257 0.02882 0.77171 0.0
H526 H 0.9432 0.03724 0.68668 0.0
H527 H 0.96693 0.00174 0.71632 0.0
H528 H 0.95585 0.02132 0.79442 0.0
H529 H 0.97226 0.05302 0.76034 0.0
H530 H 0.81785 0.09413 0.73713 0.0
H531 H 0.83362 0.11269 0.70218 0.0
H532 H 0.82158 0.96814 0.77036 0.0
H533 H 0.84454 0.94639 0.80121 0.0
C534 C 0.10916 0.73993 0.77818 0.0
C535 C 0.09806 0.83959 0.79355 0.0
C536 C 0.08228 0.92682 0.74642 0.0
C537 C 0.09687 0.83415 0.73133 0.0
N538 N 0.12955 0.66433 0.73227 0.0
N539 N 0.07987 0.04228 0.79058 0.0
C540 C 0.11206 0.74432 0.74704 0.0
C541 C 0.08603 0.93698 0.77732 0.0
N542 N 0.11542 0.6392 0.79317 0.0
N543 N 0.06456 0.00516 0.73131 0.0
H544 H 0.08204 0.05955 0.8129 0.0
H545 H 0.07515 0.11829 0.77874 0.0
H546 H 0.06248 0.00471 0.7084 0.0
H547 H 0.05008 0.06496 0.74169 0.0
H548 H 0.12143 0.5608 0.78285 0.0
H549 H 0.11089 0.63078 0.81562 0.0
H550 H 0.14323 0.60271 0.74289 0.0
H551 H 0.13279 0.66789 0.70951 0.0
C552 C 0.65507 0.51563 0.27343 0.0
C553 C 0.65348 0.40032 0.2849 0.0
C554 C 0.65444 0.31693 0.23513 0.0
C555 C 0.65183 0.43193 0.22374 0.0
N556 N 0.66192 0.63774 0.23018 0.0
N557 N 0.66489 0.19625 0.27804 0.0
C558 C 0.65663 0.53031 0.2424 0.0
C559 C 0.6581 0.30271 0.26602 0.0
N560 N 0.6526 0.61051 0.29172 0.0
N561 N 0.65091 0.22196 0.21703 0.0
H562 H 0.66765 0.1858 0.30076 0.0
H563 H 0.67064 0.12265 0.26558 0.0
H564 H 0.64856 0.22908 0.19426 0.0
H565 H 0.64887 0.13639 0.22472 0.0
H566 H 0.64924 0.69573 0.28424 0.0
H567 H 0.65309 0.60415 0.31458 0.0
H568 H 0.66821 0.71147 0.24236 0.0
H569 H 0.66276 0.64988 0.2074 0.0
C570 C 0.38201 0.48639 0.26707 0.0
C571 C 0.38369 0.60954 0.27107 0.0
C572 C 0.38556 0.63493 0.21733 0.0
C573 C 0.38194 0.51257 0.21361 0.0
N574 N 0.36409 0.33131 0.23509 0.0
N575 N 0.37461 0.80008 0.24905 0.0
C576 C 0.37556 0.44188 0.2386 0.0
C577 C 0.38139 0.68384 0.24588 0.0
N578 N 0.38932 0.41108 0.28931 0.0
N579 N 0.3948 0.70368 0.19447 0.0
H580 H 0.36897 0.83753 0.26934 0.0
H581 H 0.37082 0.85504 0.23109 0.0
H582 H 0.39948 0.6702 0.17358 0.0
H583 H 0.40032 0.79206 0.19709 0.0
H584 H 0.39017 0.32042 0.28635 0.0
H585 H 0.39868 0.43891 0.30923 0.0
H586 H 0.35728 0.27974 0.25287 0.0
H587 H 0.35818 0.29754 0.21442 0.0
C588 C 0.3823 0.5705 0.75999 0.0
C589 C 0.38973 0.4525 0.76578 0.0
C590 C 0.38347 0.40604 0.71299 0.0
C591 C 0.37513 0.52399 0.70775 0.0
N592 N 0.3543 0.70228 0.7284 0.0
N593 N 0.38708 0.25067 0.74918 0.0
C594 C 0.36997 0.59992 0.73216 0.0
C595 C 0.38687 0.36758 0.7427 0.0
N596 N 0.38991 0.65638 0.77958 0.0
N597 N 0.38986 0.33279 0.68999 0.0
H598 H 0.38815 0.2194 0.77075 0.0
H599 H 0.38278 0.18577 0.73349 0.0
H600 H 0.38781 0.3587 0.6681 0.0
H601 H 0.39917 0.24943 0.69275 0.0
H602 H 0.38703 0.74536 0.77514 0.0
H603 H 0.40282 0.63876 0.79835 0.0
H604 H 0.3485 0.75712 0.74598 0.0
H605 H 0.34436 0.72461 0.70823 0.0
C606 C 0.6475 0.37812 0.76234 0.0
C607 C 0.64729 0.48365 0.7787 0.0
C608 C 0.64523 0.59968 0.73338 0.0
C609 C 0.64236 0.4939 0.71708 0.0
N610 N 0.65269 0.28647 0.71432 0.0
N611 N 0.65774 0.69048 0.78037 0.0
C612 C 0.64778 0.38434 0.73109 0.0
C613 C 0.65051 0.59297 0.76422 0.0
N614 N 0.64515 0.27295 0.77649 0.0
N615 N 0.64045 0.70559 0.72018 0.0
H616 H 0.66136 0.68682 0.80311 0.0
H617 H 0.66295 0.77134 0.77103 0.0
H618 H 0.63711 0.71534 0.69762 0.0
H619 H 0.63826 0.78396 0.73183 0.0
H620 H 0.64125 0.19377 0.76561 0.0
H621 H 0.64574 0.26562 0.79938 0.0
H622 H 0.65913 0.20583 0.72305 0.0
H623 H 0.65319 0.28941 0.69134 0.0
C624 C 0.12152 0.75737 0.99493 0.0
C625 C 0.12535 0.85696 0.97682 0.0
C626 C 0.12098 -0.01454 0.01991 0.0
C627 C 0.12416 0.8857 0.03809 0.0
N628 N 0.12522 0.67606 0.04419 0.0
N629 N 0.12787 0.06724 0.97117 0.0
C630 C 0.12313 0.77106 0.026 0.0
C631 C 0.12389 0.97183 0.98893 0.0
N632 N 0.11682 0.65023 0.98214 0.0
N633 N 0.11622 0.09314 0.0324 0.0
H634 H 0.12988 0.06099 0.94834 0.0
H635 H 0.13085 0.15228 0.97905 0.0
H636 H 0.11486 0.10563 0.05515 0.0
H637 H 0.11096 0.16795 0.02033 0.0
H638 H 0.11168 0.57459 0.99392 0.0
H639 H 0.11537 0.63981 0.95929 0.0
H640 H 0.12801 0.59038 0.03671 0.0
H641 H 0.12523 0.68382 0.06713 0.0
C642 C 0.91787 0.88303 0.98333 0.0
C643 C 0.91926 -0.00758 0.96881 0.0
C644 C 0.91964 0.0966 0.01551 0.0
C645 C 0.91228 -0.01032 0.02965 0.0
N646 N 0.91599 0.7793 0.03006 0.0
N647 N 0.93623 0.19114 0.97022 0.0
C648 C 0.91614 0.88174 0.01461 0.0
C649 C 0.92629 0.09448 0.98496 0.0
N650 N 0.91446 0.783 0.96706 0.0
N651 N 0.91735 0.20002 0.03059 0.0
H652 H 0.93993 0.18832 0.94748 0.0
H653 H 0.9431 0.26829 0.98065 0.0
H654 H 0.91191 0.20327 0.05298 0.0
H655 H 0.9195 0.28191 0.02073 0.0
H656 H 0.90968 0.70115 0.97603 0.0
H657 H 0.91575 0.78356 0.94411 0.0
H658 H 0.92055 0.6978 0.02066 0.0
H659 H 0.91371 0.77766 0.05293 0.0
C660 C 0.09595 0.06858 0.50089 0.0
C661 C 0.10342 0.97346 0.4823 0.0
C662 C 0.1111 0.84605 0.52466 0.0
C663 C 0.10727 0.94476 0.54347 0.0
N664 N 0.08395 0.13593 0.55008 0.0
N665 N 0.1073 0.76531 0.47514 0.0
C666 C 0.09548 0.05148 0.53187 0.0
C667 C 0.10702 0.8595 0.49385 0.0
N668 N 0.09102 0.17648 0.4888 0.0
N669 N 0.1194 0.74048 0.53631 0.0
H670 H 0.10422 0.77408 0.45246 0.0
H671 H 0.10772 0.67849 0.48211 0.0
H672 H 0.11974 0.72535 0.55894 0.0
H673 H 0.1266 0.66904 0.52379 0.0
H674 H 0.08946 0.25353 0.50109 0.0
H675 H 0.08964 0.18848 0.46602 0.0
H676 H 0.07258 0.21017 0.54253 0.0
H677 H 0.08306 0.12732 0.57282 0.0
C678 C 0.9102 0.19065 0.51711 0.0
C679 C 0.91672 0.09332 0.53538 0.0
C680 C 0.93135 0.97704 0.49255 0.0
C681 C 0.91679 0.06174 0.47479 0.0
N682 N 0.90732 0.26681 0.46716 0.0
N683 N 0.94356 0.91315 0.5425 0.0
C684 C 0.9119 0.1758 0.48608 0.0
C685 C 0.93164 -0.00608 0.52361 0.0
N686 N 0.89949 0.29199 0.52944 0.0
N687 N 0.9422 0.87756 0.4795 0.0
H688 H 0.94337 0.9274 0.56527 0.0
H689 H 0.95461 0.83678 0.53587 0.0
H690 H 0.94169 0.86751 0.45659 0.0
H691 H 0.95203 0.808 0.49084 0.0
H692 H 0.8908 0.36196 0.5174 0.0
H693 H 0.89905 0.30489 0.55222 0.0
H694 H 0.9051 0.3537 0.47389 0.0
H695 H 0.90887 0.25619 0.44439 0.0
C696 C 0.63321 0.29544 0.01656 0.0
C697 C 0.63333 0.40127 0.03295 0.0
C698 C 0.62896 0.51498 0.98747 0.0
C699 C 0.63508 0.41137 0.97135 0.0
N700 N 0.63055 0.20229 0.96831 0.0
N701 N 0.62493 0.60937 0.03549 0.0
C702 C 0.6333 0.30074 0.98524 0.0
C703 C 0.62872 0.51052 0.0188 0.0
N704 N 0.63357 0.19093 0.03112 0.0
N705 N 0.62252 0.61573 0.97253 0.0
H706 H 0.6223 0.60588 0.05831 0.0
H707 H 0.62437 0.69407 0.02709 0.0
H708 H 0.62047 0.61658 0.94961 0.0
H709 H 0.61672 0.69499 0.98243 0.0
H710 H 0.63666 0.10976 0.02106 0.0
H711 H 0.63057 0.1864 0.05386 0.0
H712 H 0.62809 0.11785 0.97655 0.0
H713 H 0.62791 0.20743 0.94556 0.0
C714 C 0.41825 0.27968 0.9768 0.0
C715 C 0.41426 0.38743 0.96186 0.0
C716 C 0.41833 0.49323 0.00864 0.0
C717 C 0.41358 0.38615 0.02352 0.0
N718 N 0.41611 0.17665 0.02384 0.0
N719 N 0.41556 0.59794 0.96212 0.0
C720 C 0.41683 0.27865 0.00822 0.0
C721 C 0.41698 0.49494 0.97735 0.0
N722 N 0.42169 0.17918 0.96072 0.0
N723 N 0.42224 0.59308 0.02483 0.0
H724 H 0.41474 0.60008 0.93913 0.0
H725 H 0.41437 0.68028 0.97198 0.0
H726 H 0.42279 0.59064 0.04779 0.0
H727 H 0.42727 0.67467 0.01586 0.0
H728 H 0.42565 0.09708 0.96987 0.0
H729 H 0.42256 0.18034 0.93773 0.0
H730 H 0.41568 0.09346 0.01439 0.0
H731 H 0.4159 0.17692 0.04687 0.0
C732 C 0.60001 0.61331 0.48025 0.0
C733 C 0.60515 0.49822 0.46949 0.0
C734 C 0.59415 0.42132 0.51834 0.0
C735 C 0.59966 0.53383 0.53 0.0
N736 N 0.59896 0.74184 0.52315 0.0
N737 N 0.60149 0.28961 0.47694 0.0
C738 C 0.59932 0.63207 0.51122 0.0
C739 C 0.59987 0.4008 0.48804 0.0
N740 N 0.59529 0.70246 0.46091 0.0
N741 N 0.58289 0.3363 0.53631 0.0
H742 H 0.60417 0.27302 0.45445 0.0
H743 H 0.60107 0.21499 0.49012 0.0
H744 H 0.57793 0.354 0.5584 0.0
H745 H 0.57603 0.254 0.52876 0.0
H746 H 0.59039 0.78836 0.4671 0.0
H747 H 0.5926 0.68574 0.43853 0.0
H748 H 0.60183 0.81826 0.51098 0.0
H749 H 0.59586 0.75498 0.54573 0.0
C750 C 0.40882 0.77441 0.50441 0.0
C751 C 0.41389 0.67743 0.52323 0.0
C752 C 0.43641 0.56869 0.48218 0.0
C753 C 0.42273 0.65005 0.46275 0.0
N754 N 0.41061 0.85269 0.45456 0.0
N755 N 0.44097 0.49898 0.53284 0.0
C756 C 0.41449 0.76188 0.47369 0.0
C757 C 0.43145 0.58127 0.51311 0.0
N758 N 0.39619 0.87384 0.51591 0.0
N759 N 0.45169 0.47562 0.47036 0.0
H760 H 0.43765 0.51 0.55547 0.0
H761 H 0.45259 0.42271 0.52714 0.0
H762 H 0.45454 0.46799 0.44755 0.0
H763 H 0.46243 0.41079 0.48265 0.0
H764 H 0.38898 0.94521 0.50351 0.0
H765 H 0.39279 0.88305 0.53854 0.0
H766 H 0.40553 0.93809 0.46099 0.0
H767 H 0.41528 0.84415 0.43215 0.0
C768 C 0.98732 0.02512 0.07498 0.0
C769 C 0.97634 0.91221 0.08266 0.0
C770 C 0.02684 0.82889 0.07359 0.0
C771 C 0.03838 0.94388 0.07455 0.0
N772 N 0.03092 0.13957 0.058 0.0
N773 N 0.98193 0.70353 0.07815 0.0
C774 C 0.01864 0.03678 0.06751 0.0
C775 C 0.99485 0.8123 0.07733 0.0
N776 N 0.96917 0.12128 0.07838 0.0
N777 N 0.04701 0.73809 0.07262 0.0
H778 H 0.95842 0.69294 0.081 0.0
H779 H 0.99386 0.62592 0.07456 0.0
H780 H 0.07045 0.75394 0.07088 0.0
H781 H 0.04084 0.65007 0.07333 0.0
H782 H 0.97695 0.20698 0.07589 0.0
H783 H 0.94647 0.11466 0.08498 0.0
H784 H 0.01781 0.21111 0.05141 0.0
H785 H 0.05449 0.14748 0.05476 0.0
C786 C 0.97443 0.93839 0.38622 0.0
C787 C 0.96871 0.03287 0.40559 0.0
C788 C 0.01708 -0.00821 0.43046 0.0
C789 C 0.02604 0.91882 0.40656 0.0
N790 N 0.01332 0.84843 0.35699 0.0
N791 N 0.98524 0.15494 0.44595 0.0
C792 C 0.00463 0.89693 0.38332 0.0
C793 C 0.99018 0.0613 0.42783 0.0
N794 N 0.95148 0.89241 0.36926 0.0
N795 N 0.03338 -0.00973 0.45599 0.0
H796 H 0.96551 0.2059 0.44452 0.0
H797 H 1.00151 0.18534 0.46094 0.0
H798 H 0.05068 0.92896 0.45912 0.0
H799 H 0.02694 0.03646 0.47486 0.0
H800 H 0.95428 0.81615 0.35679 0.0
H801 H 0.92901 0.92262 0.37001 0.0
H802 H 0.9986 0.8422 0.33895 0.0
H803 H 0.0357 0.8294 0.35114 0.0
C804 C 0.02485 0.06282 0.89376 0.0
C805 C 0.04544 -0.00917 0.91042 0.0
C806 C 1.00181 0.86593 0.92374 0.0
C807 C 0.98196 0.94179 0.90827 0.0
N808 N 0.9732 0.13623 0.88978 0.0
N809 N 0.0502 0.84704 0.94907 0.0
C810 C 0.99303 0.05005 0.89805 0.0
C811 C 0.03286 0.89962 0.92802 0.0
N812 N 0.03461 0.13171 0.87098 0.0
N813 N 0.99127 0.76041 0.93349 0.0
H814 H 0.07193 0.87746 0.95403 0.0
H815 H 0.04164 0.78527 0.9638 0.0
H816 H 0.96836 0.7361 0.93138 0.0
H817 H 0.00551 0.6959 0.94217 0.0
H818 H 0.01955 0.17837 0.85759 0.0
H819 H 0.05632 0.12792 0.86178 0.0
H820 H 0.98057 0.21994 0.88387 0.0
H821 H 0.94959 0.12788 0.89213 0.0
C822 C 0.98584 0.17499 0.58388 0.0
C823 C 0.97386 0.21891 0.61072 0.0
C824 C 0.01996 0.15097 0.63602 0.0
C825 C 0.02702 0.08056 0.61137 0.0
N826 N 0.01764 0.02608 0.56091 0.0
N827 N 0.97959 0.2392 0.66405 0.0
C828 C 0.01056 0.09398 0.58475 0.0
C829 C 0.99129 0.20765 0.6372 0.0
N830 N 0.97407 0.21305 0.55784 0.0
N831 N 0.0399 0.15749 0.65913 0.0
H832 H 0.95824 0.2765 0.66734 0.0
H833 H 0.9901 0.21787 0.68395 0.0
H834 H 0.06043 0.11125 0.65935 0.0
H835 H 0.0374 0.2169 0.67647 0.0
H836 H 0.98326 0.19045 0.5374 0.0
H837 H 0.95711 0.27733 0.55721 0.0
H838 H 0.00456 0.02452 0.5417 0.0
H839 H 0.036 0.96762 0.56112 0.0
C840 C 0.49866 0.24736 0.08594 0.0
C841 C 0.47816 0.34206 0.0909 0.0
C842 C 0.52101 0.47917 0.08925 0.0
C843 C 0.54109 0.38334 0.09273 0.0
N844 N 0.55177 0.18385 0.08079 0.0
N845 N 0.46901 0.55058 0.09304 0.0
C846 C 0.53078 0.26915 0.08641 0.0
C847 C 0.48898 0.45934 0.08995 0.0
N848 N 0.48714 0.13672 0.08296 0.0
N849 N 0.53309 0.58893 0.08657 0.0
H850 H 0.44542 0.53897 0.09358 0.0
H851 H 0.47565 0.63739 0.09607 0.0
H852 H 0.55673 0.60196 0.08588 0.0
H853 H 0.52022 0.66372 0.08232 0.0
H854 H 0.50048 0.06137 0.08179 0.0
H855 H 0.46361 0.1215 0.08176 0.0
H856 H 0.54626 0.0984 0.07472 0.0
H857 H 0.57507 0.20337 0.07993 0.0
C858 C 0.49453 0.66489 0.40958 0.0
C859 C 0.47648 0.67359 0.38376 0.0
C860 C 0.51712 0.58417 0.35519 0.0
C861 C 0.53274 0.55413 0.38146 0.0
N862 N 0.53286 0.54921 0.43478 0.0
N863 N 0.46752 0.60768 0.33364 0.0
C864 C 0.52072 0.59049 0.40916 0.0
C865 C 0.48681 0.6227 0.35708 0.0
N866 N 0.48716 0.72851 0.43402 0.0
N867 N 0.53131 0.57848 0.32837 0.0
H868 H 0.44431 0.62767 0.33463 0.0
H869 H 0.47387 0.56216 0.31463 0.0
H870 H 0.55439 0.55759 0.32595 0.0
H871 H 0.52105 0.60872 0.30907 0.0
H872 H 0.50096 0.73169 0.45275 0.0
H873 H 0.46873 0.78635 0.4342 0.0
H874 H 0.52325 0.56637 0.45537 0.0
H875 H 0.5505 0.4881 0.43514 0.0
C876 C 0.5057 0.23605 0.90745 0.0
C877 C 0.48649 0.33539 0.90448 0.0
C878 C 0.52834 0.4599 0.92118 0.0
C879 C 0.54868 0.36895 0.91347 0.0
N880 N 0.55816 0.16404 0.90893 0.0
N881 N 0.47769 0.54082 0.9135 0.0
C882 C 0.53768 0.25363 0.91073 0.0
C883 C 0.49689 0.44671 0.91411 0.0
N884 N 0.4932 0.12679 0.90563 0.0
N885 N 0.54002 0.56187 0.93218 0.0
H886 H 0.45466 0.53249 0.90807 0.0
H887 H 0.48469 0.62674 0.91737 0.0
H888 H 0.56347 0.571 0.93601 0.0
H889 H 0.52661 0.63152 0.93949 0.0
H890 H 0.50552 0.04953 0.90829 0.0
H891 H 0.46961 0.11552 0.90372 0.0
H892 H 0.55237 0.07751 0.90418 0.0
H893 H 0.58142 0.1793 0.91239 0.0
C894 C 0.48259 0.73639 0.58395 0.0
C895 C 0.46656 0.757 0.61062 0.0
C896 C 0.515 0.73855 0.63725 0.0
C897 C 0.5287 0.6867 0.61218 0.0
N898 N 0.52475 0.6336 0.56078 0.0
N899 N 0.46833 0.75784 0.66431 0.0
C900 C 0.51252 0.68644 0.58502 0.0
C901 C 0.48306 0.75532 0.63773 0.0
N902 N 0.46977 0.76879 0.55789 0.0
N903 N 0.53229 0.76436 0.66148 0.0
H904 H 0.44477 0.75976 0.66673 0.0
H905 H 0.4795 0.74374 0.6843 0.0
H906 H 0.55552 0.74529 0.66253 0.0
H907 H 0.52401 0.81334 0.67921 0.0
H908 H 0.48123 0.76311 0.53779 0.0
H909 H 0.44914 0.81461 0.55729 0.0
H910 H 0.51249 0.62058 0.54132 0.0
H911 H 0.5465 0.59688 0.56092 0.0
C912 C 0.14731 0.53609 0.17753 0.0
C913 C 0.12756 0.61837 0.16401 0.0
C914 C 0.10128 0.46068 0.13796 0.0
C915 C 0.1205 0.37663 0.15176 0.0
N916 N 0.15628 0.33322 0.19095 0.0
N917 N 0.07953 0.65569 0.14007 0.0
C918 C 0.14194 0.41371 0.17351 0.0
C919 C 0.10218 0.57892 0.14753 0.0
N920 N 0.17171 0.57577 0.19347 0.0
N921 N 0.08348 0.42917 0.11444 0.0
H922 H 0.07959 0.74286 0.14707 0.0
H923 H 0.05922 0.62948 0.12999 0.0
H924 H 0.08364 0.34499 0.10536 0.0
H925 H 0.07127 0.48954 0.10189 0.0
H926 H 0.18914 0.52149 0.20109 0.0
H927 H 0.17483 0.66489 0.19796 0.0
H928 H 0.16991 0.35617 0.2089 0.0
H929 H 0.15254 0.24326 0.18913 0.0
C930 C 0.89006 0.35093 0.13288 0.0
C931 C 0.8629 0.30318 0.14472 0.0
C932 C 0.84607 0.49978 0.15952 0.0
C933 C 0.87129 0.54722 0.14396 0.0
N934 N 0.91284 0.5192 0.10965 0.0
N935 N 0.814 0.32876 0.16802 0.0
C936 C 0.8921 0.47303 0.12897 0.0
C937 C 0.84054 0.37671 0.15781 0.0
N938 N 0.91371 0.27941 0.12478 0.0
N939 N 0.82803 0.57148 0.17625 0.0
H940 H 0.81039 0.23826 0.16833 0.0
H941 H 0.79536 0.37831 0.175 0.0
H942 H 0.83152 0.66185 0.17753 0.0
H943 H 0.81089 0.54085 0.19015 0.0
H944 H 0.93507 0.31122 0.11853 0.0
H945 H 0.91316 0.18863 0.12722 0.0
H946 H 0.92651 0.46798 0.0959 0.0
H947 H 0.9139 0.6085 0.10484 0.0
C948 C 0.1708 0.36878 0.34611 0.0
C949 C 0.14728 0.30037 0.35887 0.0
C950 C 0.12167 0.47573 0.37637 0.0
C951 C 0.14422 0.54591 0.3626 0.0
N952 N 0.18633 0.56093 0.3286 0.0
N953 N 0.09569 0.28885 0.37697 0.0
C954 C 0.16765 0.49309 0.34552 0.0
C955 C 0.12093 0.35446 0.37048 0.0
N956 N 0.1963 0.31468 0.33539 0.0
N957 N 0.1015 0.52459 0.39586 0.0
H958 H 0.09458 0.19904 0.37271 0.0
H959 H 0.07494 0.32557 0.38346 0.0
H960 H 0.10236 0.61277 0.40193 0.0
H961 H 0.08629 0.47532 0.40843 0.0
H962 H 0.21574 0.35986 0.32858 0.0
H963 H 0.19807 0.22339 0.33444 0.0
H964 H 0.20218 0.52654 0.31379 0.0
H965 H 0.18439 0.65196 0.32805 0.0
C966 C 0.86066 0.56983 0.40431 0.0
C967 C 0.84821 0.5002 0.38152 0.0
C968 C 0.83342 0.68165 0.35538 0.0
C969 C 0.85069 0.74916 0.37593 0.0
N970 N 0.88745 0.74919 0.41562 0.0
N971 N 0.82309 0.48808 0.33454 0.0
C972 C 0.8659 0.69101 0.39942 0.0
C973 C 0.83429 0.55584 0.35692 0.0
N974 N 0.86871 0.5182 0.43027 0.0
N975 N 0.81597 0.73728 0.33475 0.0
H976 H 0.8222 0.39678 0.33602 0.0
H977 H 0.81586 0.52169 0.31439 0.0
H978 H 0.81538 0.82837 0.3328 0.0
H979 H 0.80068 0.69371 0.32093 0.0
H980 H 0.87597 0.56567 0.44867 0.0
H981 H 0.8649 0.42906 0.43406 0.0
H982 H 0.90106 0.70852 0.43144 0.0
H983 H 0.89438 0.8342 0.41056 0.0
C984 C 0.8689 0.35869 0.89107 0.0
C985 C 0.86148 0.29361 0.86508 0.0
C986 C 0.84905 0.47951 0.84024 0.0
C987 C 0.85642 0.54246 0.86637 0.0
N988 N 0.863 0.54029 0.91867 0.0
N989 N 0.8377 0.29138 0.81709 0.0
C990 C 0.86221 0.48053 0.89256 0.0
C991 C 0.84934 0.3538 0.84027 0.0
N992 N 0.88504 0.30703 0.91331 0.0
N993 N 0.84308 0.54094 0.81512 0.0
H994 H 0.83751 0.19996 0.81655 0.0
H995 H 0.82619 0.32974 0.7995 0.0
H996 H 0.84126 0.63229 0.81525 0.0
H997 H 0.84103 0.50238 0.79438 0.0
H998 H 0.89316 0.35272 0.93164 0.0
H999 H 0.89383 0.22246 0.91167 0.0
H1000 H 0.8649 0.49907 0.93905 0.0
H1001 H 0.85849 0.63016 0.91977 0.0
C1002 C 0.17446 0.34426 0.82972 0.0
C1003 C 0.1601 0.28259 0.85314 0.0
C1004 C 0.13701 0.46532 0.87005 0.0
C1005 C 0.15565 0.52937 0.85059 0.0
N1006 N 0.19342 0.5327 0.81228 0.0
N1007 N 0.13435 0.2931 0.90027 0.0
C1008 C 0.17475 0.46961 0.83033 0.0
C1009 C 0.14335 0.34571 0.87472 0.0
N1010 N 0.18753 0.28347 0.80705 0.0
N1011 N 0.11414 0.52075 0.8851 0.0
H1012 H 0.14069 0.20816 0.90587 0.0
H1013 H 0.12401 0.33875 0.91753 0.0
H1014 H 0.10916 0.60934 0.88189 0.0
H1015 H 0.09836 0.47609 0.89812 0.0
H1016 H 0.19599 0.32348 0.78813 0.0
H1017 H 0.18833 0.19205 0.80667 0.0
H1018 H 0.21016 0.49475 0.79901 0.0
H1019 H 0.19258 0.6242 0.81163 0.0
C1020 C 0.8179 0.74015 0.65285 0.0
C1021 C 0.83922 0.80511 0.63567 0.0
C1022 C 0.85286 0.62315 0.60941 0.0
C1023 C 0.83615 0.55618 0.63004 0.0
N1024 N 0.80177 0.54859 0.671 0.0
N1025 N 0.87993 0.80425 0.59983 0.0
C1026 C 0.81797 0.61451 0.6514 0.0
C1027 C 0.85737 0.74541 0.61439 0.0
N1028 N 0.79773 0.7985 0.67058 0.0
N1029 N 0.86519 0.56828 0.58542 0.0
H1030 H 0.88484 0.8922 0.60383 0.0
H1031 H 0.89573 0.76346 0.58603 0.0
H1032 H 0.86192 0.47893 0.58146 0.0
H1033 H 0.87566 0.61284 0.56814 0.0
H1034 H 0.77971 0.75774 0.68148 0.0
H1035 H 0.7981 0.88946 0.67319 0.0
H1036 H 0.79063 0.58304 0.68935 0.0
H1037 H 0.80043 0.4574 0.66905 0.0
C1038 C 0.12245 0.29644 0.59953 0.0
C1039 C 0.11805 0.24363 0.62744 0.0
C1040 C 0.10399 0.43135 0.64859 0.0
C1041 C 0.10301 0.47887 0.61963 0.0
N1042 N 0.10717 0.45366 0.56708 0.0
N1043 N 0.10481 0.25733 0.67893 0.0
C1044 C 0.11114 0.41084 0.59487 0.0
C1045 C 0.10888 0.31008 0.65215 0.0
N1046 N 0.13858 0.23962 0.57805 0.0
N1047 N 0.10131 0.50298 0.67268 0.0
H1048 H 0.10959 0.169 0.68269 0.0
H1049 H 0.09451 0.29848 0.69687 0.0
H1050 H 0.09835 0.59321 0.67111 0.0
H1051 H 0.10488 0.4752 0.69425 0.0
H1052 H 0.14473 0.27904 0.55822 0.0
H1053 H 0.14805 0.15668 0.58114 0.0
H1054 H 0.11036 0.40306 0.54816 0.0
H1055 H 0.09785 0.53628 0.5632 0.0
C1056 C 0.64874 0.89622 0.09401 0.0
C1057 C 0.62173 0.84736 0.10605 0.0
C1058 C 0.60322 0.0403 0.12044 0.0
C1059 C 0.63165 0.0882 0.11218 0.0
N1060 N 0.67757 0.07277 0.08275 0.0
N1061 N 0.56768 0.8826 0.11168 0.0
C1062 C 0.65333 0.0194 0.09627 0.0
C1063 C 0.59701 0.92283 0.11297 0.0
N1064 N 0.66931 0.826 0.07991 0.0
N1065 N 0.58294 0.10361 0.13692 0.0
H1066 H 0.5626 0.79903 0.10368 0.0
H1067 H 0.54872 0.93667 0.11474 0.0
H1068 H 0.58705 0.18968 0.14364 0.0
H1069 H 0.56307 0.06712 0.14565 0.0
H1070 H 0.69146 0.85123 0.0745 0.0
H1071 H 0.66343 0.7427 0.07239 0.0
H1072 H 0.69331 0.02967 0.06943 0.0
H1073 H 0.68067 0.16344 0.08282 0.0
C1074 C 0.33994 0.79609 0.15219 0.0
C1075 C 0.35652 0.74486 0.12861 0.0
C1076 C 0.36935 0.93739 0.10942 0.0
C1077 C 0.35665 -0.01106 0.13493 0.0
N1078 N 0.33095 0.97179 0.18155 0.0
N1079 N 0.39358 0.7652 0.08954 0.0
C1080 C 0.34208 0.91955 0.15666 0.0
C1081 C 0.37308 0.81522 0.10854 0.0
N1082 N 0.32217 0.7274 0.16985 0.0
N1083 N 0.37854 0.0054 0.08628 0.0
H1084 H 0.3983 0.67556 0.08951 0.0
H1085 H 0.40837 0.81372 0.07634 0.0
H1086 H 0.37623 0.09635 0.08607 0.0
H1087 H 0.38547 0.97048 0.06611 0.0
H1088 H 0.3075 0.76076 0.18586 0.0
H1089 H 0.32107 0.63647 0.16741 0.0
H1090 H 0.32274 0.92542 0.19962 0.0
H1091 H 0.33101 0.06274 0.18433 0.0
C1092 C 0.63614 0.96655 0.41891 0.0
C1093 C 0.60919 0.01384 0.40674 0.0
C1094 C 0.59449 0.82635 0.38619 0.0
C1095 C 0.62324 0.78061 0.39442 0.0
N1096 N 0.66513 0.7901 0.42945 0.0
N1097 N 0.55618 0.97227 0.39743 0.0
C1098 C 0.64237 0.84541 0.41421 0.0
C1099 C 0.58591 0.93659 0.39733 0.0
N1100 N 0.65507 0.03624 0.43518 0.0
N1101 N 0.57657 0.77028 0.36599 0.0
H1102 H 0.54999 0.05428 0.40587 0.0
H1103 H 0.5381 0.91623 0.39216 0.0
H1104 H 0.58361 0.69422 0.35518 0.0
H1105 H 0.55641 0.80657 0.3578 0.0
H1106 H 0.67704 0.0121 0.44159 0.0
H1107 H 0.64803 0.11829 0.44278 0.0
H1108 H 0.67839 0.83086 0.44554 0.0
H1109 H 0.6688 0.69993 0.4282 0.0
C1110 C 0.36331 0.15606 0.38788 0.0
C1111 C 0.3489 0.09377 0.36484 0.0
C1112 C 0.33436 0.28267 0.34221 0.0
C1113 C 0.35352 0.34273 0.36262 0.0
N1114 N 0.39262 0.32882 0.39998 0.0
N1115 N 0.3207 0.09571 0.31948 0.0
C1116 C 0.3695 0.27737 0.38436 0.0
C1117 C 0.33406 0.15687 0.34196 0.0
N1118 N 0.3725 0.09747 0.41253 0.0
N1119 N 0.31628 0.34531 0.32343 0.0
H1120 H 0.31895 0.00435 0.31988 0.0
H1121 H 0.31249 0.13459 0.3003 0.0
H1122 H 0.31648 0.43674 0.32278 0.0
H1123 H 0.29979 0.30714 0.3099 0.0
H1124 H 0.38132 0.13977 0.43109 0.0
H1125 H 0.36815 0.00817 0.41534 0.0
H1126 H 0.40674 0.28281 0.4144 0.0
H1127 H 0.40009 0.41389 0.39567 0.0
C1128 C 0.40223 0.76546 0.85554 0.0
C1129 C 0.37415 0.71869 0.8456 0.0
C1130 C 0.35717 0.91435 0.83079 0.0
C1131 C 0.3835 0.96169 0.84464 0.0
N1132 N 0.42708 0.93425 0.87665 0.0
N1133 N 0.32376 0.74525 0.82536 0.0
C1134 C 0.40504 0.88771 0.85868 0.0
C1135 C 0.3512 0.79221 0.83359 0.0
N1136 N 0.42601 0.69294 0.86262 0.0
N1137 N 0.33852 -0.01495 0.8145 0.0
H1138 H 0.31964 0.65508 0.82576 0.0
H1139 H 0.30489 0.7956 0.81942 0.0
H1140 H 0.34256 0.07463 0.81204 0.0
H1141 H 0.3204 0.9538 0.80181 0.0
H1142 H 0.44791 0.72368 0.8674 0.0
H1143 H 0.42478 0.60191 0.8608 0.0
H1144 H 0.44153 0.88345 0.88967 0.0
H1145 H 0.4285 0.02368 0.88127 0.0
C1146 C 0.65367 0.04084 0.9062 0.0
C1147 C 0.63806 0.11342 0.8858 0.0
C1148 C 0.61641 0.94308 0.8616 0.0
C1149 C 0.62863 0.87088 0.88428 0.0
N1150 N 0.65529 0.85359 0.93078 0.0
N1151 N 0.6004 0.13763 0.84747 0.0
C1152 C 0.64625 0.92035 0.90741 0.0
C1153 C 0.61769 0.06586 0.86488 0.0
N1154 N 0.67612 0.0863 0.92388 0.0
N1155 N 0.60625 0.89528 0.83565 0.0
H1156 H 0.60156 0.22889 0.84864 0.0
H1157 H 0.58299 0.10633 0.83386 0.0
H1158 H 0.60812 0.80641 0.83054 0.0
H1159 H 0.59979 0.94566 0.81757 0.0
H1160 H 0.6908 0.03452 0.93641 0.0
H1161 H 0.68122 0.17559 0.92485 0.0
H1162 H 0.66532 0.88852 0.94971 0.0
H1163 H 0.65053 0.76456 0.93236 0.0
C1164 C 0.36247 0.07247 0.60858 0.0
C1165 C 0.33628 0.02939 0.62355 0.0
C1166 C 0.31986 0.23147 0.63305 0.0
C1167 C 0.348 0.27206 0.62121 0.0
N1168 N 0.39911 0.23027 0.60493 0.0
N1169 N 0.29126 0.06588 0.65249 0.0
C1170 C 0.37024 0.19191 0.61128 0.0
C1171 C 0.31526 0.10853 0.63657 0.0
N1172 N 0.38011 -0.00049 0.59177 0.0
N1173 N 0.29729 0.30958 0.63988 0.0
H1174 H 0.28659 0.97622 0.6538 0.0
H1175 H 0.27694 0.11859 0.66521 0.0
H1176 H 0.30025 0.39992 0.63809 0.0
H1177 H 0.27519 0.28463 0.64566 0.0
H1178 H 0.39795 0.02945 0.57859 0.0
H1179 H 0.37514 0.91135 0.58839 0.0
H1180 H 0.41726 0.17384 0.60041 0.0
H1181 H 0.40564 0.31784 0.60746 0.0
C1182 C 0.63152 0.96203 0.57836 0.0
C1183 C 0.62281 0.89114 0.60263 0.0
C1184 C 0.61169 0.06356 0.63213 0.0
C1185 C 0.61596 0.13347 0.60667 0.0
N1186 N 0.63161 0.15497 0.55611 0.0
N1187 N 0.60448 0.87068 0.65253 0.0
C1188 C 0.62642 0.08451 0.57986 0.0
C1189 C 0.61242 0.9408 0.62936 0.0
N1190 N 0.64603 0.91273 0.55465 0.0
N1191 N 0.60932 0.11513 0.65935 0.0
H1192 H 0.60687 0.77978 0.65226 0.0
H1193 H 0.59358 0.90158 0.67141 0.0
H1194 H 0.61062 0.20541 0.66264 0.0
H1195 H 0.6096 0.06903 0.67911 0.0
H1196 H 0.65592 0.9608 0.53769 0.0
H1197 H 0.64976 0.82272 0.55264 0.0
H1198 H 0.63561 0.12383 0.53488 0.0
H1199 H 0.63107 0.24603 0.5576 0.0
loop_
_geom_bond_atom_site_label_1
_geom_bond_atom_site_label_2
_geom_bond_distance
_geom_bond_site_symmetry_2
_ccdc_geom_bond_type
Zn0 O6 1.920 1_565 S
Zn0 O12 1.898 . S
Zn0 O15 1.905 . S
Zn1 O9 1.905 . S
Zn1 O10 1.898 . S
Zn1 O18 1.920 . S
Zn2 O5 2.080 . S
Zn2 O8 2.114 . S
Zn2 O11 2.120 . S
Zn2 O13 2.120 . S
Zn2 O14 2.114 1_545 S
Zn2 O17 2.080 . S
C3 O8 1.166 . S
C3 O9 1.182 . S
C4 O10 1.167 . S
C4 O11 1.299 . S
O5 Zn2 2.080 . S
O5 C19 1.305 . S
O6 Zn0 1.920 1_545 S
O6 C19 1.234 . S
C7 O12 1.167 1_545 S
C7 O13 1.299 . S
O8 Zn2 2.114 . S
O8 C3 1.166 . S
O9 Zn1 1.905 . S
O9 C3 1.182 . S
O10 Zn1 1.898 . S
O10 C4 1.167 . S
O11 Zn2 2.120 . S
O11 C4 1.299 . S
O12 Zn0 1.898 . S
O12 C7 1.167 1_565 S
O13 Zn2 2.120 . S
O13 C7 1.299 . S
O14 Zn2 2.114 1_565 S
O14 C16 1.166 . S
O15 Zn0 1.905 . S
O15 C16 1.182 . S
C16 O14 1.166 . S
C16 O15 1.182 . S
O17 Zn2 2.080 . S
O17 C20 1.305 . S
O18 Zn1 1.920 . S
O18 C20 1.234 . S
C19 O5 1.305 . S
C19 O6 1.234 . S
C20 O17 1.305 . S
C20 O18 1.234 . S
Zn21 O27 1.920 . S
Zn21 O33 1.898 . S
Zn21 O36 1.905 . S
Zn22 O30 1.905 . S
Zn22 O31 1.898 . S
Zn22 O39 1.920 1_545 S
Zn23 O26 2.080 . S
Zn23 O29 2.114 1_565 S
Zn23 O32 2.120 . S
Zn23 O34 2.120 . S
Zn23 O35 2.114 . S
Zn23 O38 2.080 . S
C24 O29 1.166 . S
C24 O30 1.182 . S
C25 O31 1.167 1_565 S
C25 O32 1.299 . S
O26 Zn23 2.080 . S
O26 C40 1.305 . S
O27 Zn21 1.920 . S
O27 C40 1.234 . S
C28 O33 1.167 . S
C28 O34 1.299 . S
O29 Zn23 2.114 1_545 S
O29 C24 1.166 . S
O30 Zn22 1.905 . S
O30 C24 1.182 . S
O31 Zn22 1.898 . S
O31 C25 1.167 1_545 S
O32 Zn23 2.120 . S
O32 C25 1.299 . S
O33 Zn21 1.898 . S
O33 C28 1.167 . S
O34 Zn23 2.120 . S
O34 C28 1.299 . S
O35 Zn23 2.114 . S
O35 C37 1.166 . S
O36 Zn21 1.905 . S
O36 C37 1.182 . S
C37 O35 1.166 . S
C37 O36 1.182 . S
O38 Zn23 2.080 . S
O38 C41 1.305 . S
O39 Zn22 1.920 1_565 S
O39 C41 1.234 . S
C40 O26 1.305 . S
C40 O27 1.234 . S
C41 O38 1.305 . S
C41 O39 1.234 . S
Zn42 O48 1.920 1_545 S
Zn42 O54 1.898 . S
Zn42 O57 1.905 . S
Zn43 O51 1.905 . S
Zn43 O52 1.898 . S
Zn43 O60 1.920 . S
Zn44 O47 2.080 . S
Zn44 O50 2.114 . S
Zn44 O53 2.120 . S
Zn44 O55 2.120 . S
Zn44 O56 2.114 1_565 S
Zn44 O59 2.080 . S
C45 O50 1.166 . S
C45 O51 1.182 . S
C46 O52 1.167 . S
C46 O53 1.299 . S
O47 Zn44 2.080 . S
O47 C61 1.305 . S
O48 Zn42 1.920 1_565 S
O48 C61 1.234 . S
C49 O54 1.167 1_565 S
C49 O55 1.299 . S
O50 Zn44 2.114 . S
O50 C45 1.166 . S
O51 Zn43 1.905 . S
O51 C45 1.182 . S
O52 Zn43 1.898 . S
O52 C46 1.167 . S
O53 Zn44 2.120 . S
O53 C46 1.299 . S
O54 Zn42 1.898 . S
O54 C49 1.167 1_545 S
O55 Zn44 2.120 . S
O55 C49 1.299 . S
O56 Zn44 2.114 1_545 S
O56 C58 1.166 . S
O57 Zn42 1.905 . S
O57 C58 1.182 . S
C58 O56 1.166 . S
C58 O57 1.182 . S
O59 Zn44 2.080 . S
O59 C62 1.305 . S
O60 Zn43 1.920 . S
O60 C62 1.234 . S
C61 O47 1.305 . S
C61 O48 1.234 . S
C62 O59 1.305 . S
C62 O60 1.234 . S
Zn63 O69 1.920 1_565 S
Zn63 O75 1.898 . S
Zn63 O78 1.905 . S
Zn64 O72 1.905 . S
Zn64 O73 1.898 . S
Zn64 O81 1.920 . S
Zn65 O68 2.080 . S
Zn65 O71 2.114 . S
Zn65 O74 2.120 . S
Zn65 O76 2.120 . S
Zn65 O77 2.114 1_545 S
Zn65 O80 2.080 . S
C66 O71 1.166 . S
C66 O72 1.182 . S
C67 O73 1.167 . S
C67 O74 1.299 . S
O68 Zn65 2.080 . S
O68 C82 1.305 . S
O69 Zn63 1.920 1_545 S
O69 C82 1.234 . S
C70 O75 1.167 1_545 S
C70 O76 1.299 . S
O71 Zn65 2.114 . S
O71 C66 1.166 . S
O72 Zn64 1.905 . S
O72 C66 1.182 . S
O73 Zn64 1.898 . S
O73 C67 1.167 . S
O74 Zn65 2.120 . S
O74 C67 1.299 . S
O75 Zn63 1.898 . S
O75 C70 1.167 1_565 S
O76 Zn65 2.120 . S
O76 C70 1.299 . S
O77 Zn65 2.114 1_565 S
O77 C79 1.166 . S
O78 Zn63 1.905 . S
O78 C79 1.182 . S
C79 O77 1.166 . S
C79 O78 1.182 . S
O80 Zn65 2.080 . S
O80 C83 1.305 . S
O81 Zn64 1.920 . S
O81 C83 1.234 . S
C82 O68 1.305 . S
C82 O69 1.234 . S
C83 O80 1.305 . S
C83 O81 1.234 . S
Zn84 O90 1.920 1_545 S
Zn84 O96 1.898 . S
Zn84 O99 1.905 . S
Zn85 O93 1.905 . S
Zn85 O94 1.898 . S
Zn85 O102 1.920 . S
Zn86 O89 2.080 . S
Zn86 O92 2.114 . S
Zn86 O95 2.120 . S
Zn86 O97 2.120 . S
Zn86 O98 2.114 1_565 S
Zn86 O101 2.080 . S
C87 O92 1.166 . S
C87 O93 1.182 . S
C88 O94 1.167 . S
C88 O95 1.299 . S
O89 Zn86 2.080 . S
O89 C103 1.305 . S
O90 Zn84 1.920 1_565 S
O90 C103 1.234 . S
C91 O96 1.167 1_565 S
C91 O97 1.299 . S
O92 Zn86 2.114 . S
O92 C87 1.166 . S
O93 Zn85 1.905 . S
O93 C87 1.182 . S
O94 Zn85 1.898 . S
O94 C88 1.167 . S
O95 Zn86 2.120 . S
O95 C88 1.299 . S
O96 Zn84 1.898 . S
O96 C91 1.167 1_545 S
O97 Zn86 2.120 . S
O97 C91 1.299 . S
O98 Zn86 2.114 1_545 S
O98 C100 1.166 . S
O99 Zn84 1.905 . S
O99 C100 1.182 . S
C100 O98 1.166 . S
C100 O99 1.182 . S
O101 Zn86 2.080 . S
O101 C104 1.305 . S
O102 Zn85 1.920 . S
O102 C104 1.234 . S
C103 O89 1.305 . S
C103 O90 1.234 . S
C104 O101 1.305 . S
C104 O102 1.234 . S
Zn105 O111 1.920 1_565 S
Zn105 O117 1.898 . S
Zn105 O120 1.905 . S
Zn106 O114 1.905 . S
Zn106 O115 1.898 . S
Zn106 O123 1.920 . S
Zn107 O110 2.080 . S
Zn107 O113 2.114 . S
Zn107 O116 2.120 . S
Zn107 O118 2.120 . S
Zn107 O119 2.114 1_545 S
Zn107 O122 2.080 . S
C108 O113 1.166 . S
C108 O114 1.182 . S
C109 O115 1.167 . S
C109 O116 1.299 . S
O110 Zn107 2.080 . S
O110 C124 1.305 . S
O111 Zn105 1.920 1_545 S
O111 C124 1.234 . S
C112 O117 1.167 1_545 S
C112 O118 1.299 . S
O113 Zn107 2.114 . S
O113 C108 1.166 . S
O114 Zn106 1.905 . S
O114 C108 1.182 . S
O115 Zn106 1.898 . S
O115 C109 1.167 . S
O116 Zn107 2.120 . S
O116 C109 1.299 . S
O117 Zn105 1.898 . S
O117 C112 1.167 1_565 S
O118 Zn107 2.120 . S
O118 C112 1.299 . S
O119 Zn107 2.114 1_565 S
O119 C121 1.166 . S
O120 Zn105 1.905 . S
O120 C121 1.182 . S
C121 O119 1.166 . S
C121 O120 1.182 . S
O122 Zn107 2.080 . S
O122 C125 1.305 . S
O123 Zn106 1.920 . S
O123 C125 1.234 . S
C124 O110 1.305 . S
C124 O111 1.234 . S
C125 O122 1.305 . S
C125 O123 1.234 . S
Zn126 O132 1.920 1_565 S
Zn126 O138 1.898 . S
Zn126 O141 1.905 . S
Zn127 O135 1.905 . S
Zn127 O136 1.898 . S
Zn127 O144 1.920 . S
Zn128 O131 2.080 . S
Zn128 O134 2.114 . S
Zn128 O137 2.120 . S
Zn128 O139 2.120 . S
Zn128 O140 2.114 1_545 S
Zn128 O143 2.080 . S
C129 O134 1.166 . S
C129 O135 1.182 . S
C130 O136 1.167 . S
C130 O137 1.299 . S
O131 Zn128 2.080 . S
O131 C145 1.305 . S
O132 Zn126 1.920 1_545 S
O132 C145 1.234 . S
C133 O138 1.167 1_545 S
C133 O139 1.299 . S
O134 Zn128 2.114 . S
O134 C129 1.166 . S
O135 Zn127 1.905 . S
O135 C129 1.182 . S
O136 Zn127 1.898 . S
O136 C130 1.167 . S
O137 Zn128 2.120 . S
O137 C130 1.299 . S
O138 Zn126 1.898 . S
O138 C133 1.167 1_565 S
O139 Zn128 2.120 . S
O139 C133 1.299 . S
O140 Zn128 2.114 1_565 S
O140 C142 1.166 . S
O141 Zn126 1.905 . S
O141 C142 1.182 . S
C142 O140 1.166 . S
C142 O141 1.182 . S
O143 Zn128 2.080 . S
O143 C146 1.305 . S
O144 Zn127 1.920 . S
O144 C146 1.234 . S
C145 O131 1.305 . S
C145 O132 1.234 . S
C146 O143 1.305 . S
C146 O144 1.234 . S
Zn147 O153 1.920 1_545 S
Zn147 O159 1.898 . S
Zn147 O162 1.905 . S
Zn148 O156 1.905 . S
Zn148 O157 1.898 . S
Zn148 O165 1.920 . S
Zn149 O152 2.080 . S
Zn149 O155 2.114 . S
Zn149 O158 2.120 . S
Zn149 O160 2.120 . S
Zn149 O161 2.114 1_565 S
Zn149 O164 2.080 . S
C150 O155 1.166 . S
C150 O156 1.182 . S
C151 O157 1.167 . S
C151 O158 1.299 . S
O152 Zn149 2.080 . S
O152 C166 1.305 . S
O153 Zn147 1.920 1_565 S
O153 C166 1.234 . S
C154 O159 1.167 1_565 S
C154 O160 1.299 . S
O155 Zn149 2.114 . S
O155 C150 1.166 . S
O156 Zn148 1.905 . S
O156 C150 1.182 . S
O157 Zn148 1.898 . S
O157 C151 1.167 . S
O158 Zn149 2.120 . S
O158 C151 1.299 . S
O159 Zn147 1.898 . S
O159 C154 1.167 1_545 S
O160 Zn149 2.120 . S
O160 C154 1.299 . S
O161 Zn149 2.114 1_545 S
O161 C163 1.166 . S
O162 Zn147 1.905 . S
O162 C163 1.182 . S
C163 O161 1.166 . S
C163 O162 1.182 . S
O164 Zn149 2.080 . S
O164 C167 1.305 . S
O165 Zn148 1.920 . S
O165 C167 1.234 . S
C166 O152 1.305 . S
C166 O153 1.234 . S
C167 O164 1.305 . S
C167 O165 1.234 . S
Zn168 O174 1.920 . S
Zn168 O180 1.898 . S
Zn168 O183 1.905 . S
Zn169 O177 1.905 . S
Zn169 O178 1.898 . S
Zn169 O186 1.920 . S
Zn170 O173 2.080 . S
Zn170 O176 2.114 . S
Zn170 O179 2.120 . S
Zn170 O181 2.120 . S
Zn170 O182 2.114 . S
Zn170 O185 2.080 . S
C171 O176 1.166 . S
C171 O177 1.182 . S
C172 O178 1.167 . S
C172 O179 1.299 . S
O173 Zn170 2.080 . S
O173 C187 1.305 . S
O174 Zn168 1.920 . S
O174 C187 1.234 . S
C175 O180 1.167 . S
C175 O181 1.299 . S
O176 Zn170 2.114 . S
O176 C171 1.166 . S
O177 Zn169 1.905 . S
O177 C171 1.182 . S
O178 Zn169 1.898 . S
O178 C172 1.167 . S
O179 Zn170 2.120 . S
O179 C172 1.299 . S
O180 Zn168 1.898 . S
O180 C175 1.167 . S
O181 Zn170 2.120 . S
O181 C175 1.299 . S
O182 Zn170 2.114 . S
O182 C184 1.166 . S
O183 Zn168 1.905 . S
O183 C184 1.182 . S
C184 O182 1.166 . S
C184 O183 1.182 . S
O185 Zn170 2.080 . S
O185 C188 1.305 . S
O186 Zn169 1.920 . S
O186 C188 1.234 . S
C187 O173 1.305 . S
C187 O174 1.234 . S
C188 O185 1.305 . S
C188 O186 1.234 . S
Zn189 O195 1.920 . S
Zn189 O201 1.898 . S
Zn189 O204 1.905 . S
Zn190 O198 1.905 . S
Zn190 O199 1.898 . S
Zn190 O207 1.920 . S
Zn191 O194 2.080 . S
Zn191 O197 2.114 . S
Zn191 O200 2.120 . S
Zn191 O202 2.120 . S
Zn191 O203 2.114 . S
Zn191 O206 2.080 . S
C192 O197 1.166 . S
C192 O198 1.182 . S
C193 O199 1.167 . S
C193 O200 1.299 . S
O194 Zn191 2.080 . S
O194 C208 1.305 . S
O195 Zn189 1.920 . S
O195 C208 1.234 . S
C196 O201 1.167 . S
C196 O202 1.299 . S
O197 Zn191 2.114 . S
O197 C192 1.166 . S
O198 Zn190 1.905 . S
O198 C192 1.182 . S
O199 Zn190 1.898 . S
O199 C193 1.167 . S
O200 Zn191 2.120 . S
O200 C193 1.299 . S
O201 Zn189 1.898 . S
O201 C196 1.167 . S
O202 Zn191 2.120 . S
O202 C196 1.299 . S
O203 Zn191 2.114 . S
O203 C205 1.166 . S
O204 Zn189 1.905 . S
O204 C205 1.182 . S
C205 O203 1.166 . S
C205 O204 1.182 . S
O206 Zn191 2.080 . S
O206 C209 1.305 . S
O207 Zn190 1.920 . S
O207 C209 1.234 . S
C208 O194 1.305 . S
C208 O195 1.234 . S
C209 O206 1.305 . S
C209 O207 1.234 . S
Zn210 O216 1.920 . S
Zn210 O222 1.898 . S
Zn210 O225 1.905 . S
Zn211 O219 1.905 . S
Zn211 O220 1.898 . S
Zn211 O228 1.920 . S
Zn212 O215 2.080 . S
Zn212 O218 2.114 . S
Zn212 O221 2.120 . S
Zn212 O223 2.120 . S
Zn212 O224 2.114 . S
Zn212 O227 2.080 . S
C213 O218 1.166 . S
C213 O219 1.182 . S
C214 O220 1.167 . S
C214 O221 1.299 . S
O215 Zn212 2.080 . S
O215 C229 1.305 . S
O216 Zn210 1.920 . S
O216 C229 1.234 . S
C217 O222 1.167 . S
C217 O223 1.299 . S
O218 Zn212 2.114 . S
O218 C213 1.166 . S
O219 Zn211 1.905 . S
O219 C213 1.182 . S
O220 Zn211 1.898 . S
O220 C214 1.167 . S
O221 Zn212 2.120 . S
O221 C214 1.299 . S
O222 Zn210 1.898 . S
O222 C217 1.167 . S
O223 Zn212 2.120 . S
O223 C217 1.299 . S
O224 Zn212 2.114 . S
O224 C226 1.166 . S
O225 Zn210 1.905 . S
O225 C226 1.182 . S
C226 O224 1.166 . S
C226 O225 1.182 . S
O227 Zn212 2.080 . S
O227 C230 1.305 . S
O228 Zn211 1.920 . S
O228 C230 1.234 . S
C229 O215 1.305 . S
C229 O216 1.234 . S
C230 O227 1.305 . S
C230 O228 1.234 . S
Zn231 O237 1.920 . S
Zn231 O243 1.898 . S
Zn231 O246 1.905 . S
Zn232 O240 1.905 . S
Zn232 O241 1.898 . S
Zn232 O249 1.920 . S
Zn233 O236 2.080 . S
Zn233 O239 2.114 . S
Zn233 O242 2.120 . S
Zn233 O244 2.120 . S
Zn233 O245 2.114 . S
Zn233 O248 2.080 . S
C234 O239 1.166 . S
C234 O240 1.182 . S
C235 O241 1.167 . S
C235 O242 1.299 . S
O236 Zn233 2.080 . S
O236 C250 1.305 . S
O237 Zn231 1.920 . S
O237 C250 1.234 . S
C238 O243 1.167 . S
C238 O244 1.299 . S
O239 Zn233 2.114 . S
O239 C234 1.166 . S
O240 Zn232 1.905 . S
O240 C234 1.182 . S
O241 Zn232 1.898 . S
O241 C235 1.167 . S
O242 Zn233 2.120 . S
O242 C235 1.299 . S
O243 Zn231 1.898 . S
O243 C238 1.167 . S
O244 Zn233 2.120 . S
O244 C238 1.299 . S
O245 Zn233 2.114 . S
O245 C247 1.166 . S
O246 Zn231 1.905 . S
O246 C247 1.182 . S
C247 O245 1.166 . S
C247 O246 1.182 . S
O248 Zn233 2.080 . S
O248 C251 1.305 . S
O249 Zn232 1.920 . S
O249 C251 1.234 . S
C250 O236 1.305 . S
C250 O237 1.234 . S
C251 O248 1.305 . S
C251 O249 1.234 . S
Zn252 O258 1.920 . S
Zn252 O264 1.898 . S
Zn252 O267 1.905 . S
Zn253 O261 1.905 . S
Zn253 O262 1.898 . S
Zn253 O270 1.920 . S
Zn254 O257 2.080 . S
Zn254 O260 2.114 . S
Zn254 O263 2.120 . S
Zn254 O265 2.120 . S
Zn254 O266 2.114 . S
Zn254 O269 2.080 . S
C255 O260 1.166 . S
C255 O261 1.182 . S
C256 O262 1.167 . S
C256 O263 1.299 . S
O257 Zn254 2.080 . S
O257 C271 1.305 . S
O258 Zn252 1.920 . S
O258 C271 1.234 . S
C259 O264 1.167 . S
C259 O265 1.299 . S
O260 Zn254 2.114 . S
O260 C255 1.166 . S
O261 Zn253 1.905 . S
O261 C255 1.182 . S
O262 Zn253 1.898 . S
O262 C256 1.167 . S
O263 Zn254 2.120 . S
O263 C256 1.299 . S
O264 Zn252 1.898 . S
O264 C259 1.167 . S
O265 Zn254 2.120 . S
O265 C259 1.299 . S
O266 Zn254 2.114 . S
O266 C268 1.166 . S
O267 Zn252 1.905 . S
O267 C268 1.182 . S
C268 O266 1.166 . S
C268 O267 1.182 . S
O269 Zn254 2.080 . S
O269 C272 1.305 . S
O270 Zn253 1.920 . S
O270 C272 1.234 . S
C271 O257 1.305 . S
C271 O258 1.234 . S
C272 O269 1.305 . S
C272 O270 1.234 . S
Zn273 O279 1.920 . S
Zn273 O285 1.898 . S
Zn273 O288 1.905 . S
Zn274 O282 1.905 . S
Zn274 O283 1.898 . S
Zn274 O291 1.920 . S
Zn275 O278 2.080 . S
Zn275 O281 2.114 . S
Zn275 O284 2.120 . S
Zn275 O286 2.120 . S
Zn275 O287 2.114 . S
Zn275 O290 2.080 . S
C276 O281 1.166 . S
C276 O282 1.182 . S
C277 O283 1.167 . S
C277 O284 1.299 . S
O278 Zn275 2.080 . S
O278 C292 1.305 . S
O279 Zn273 1.920 . S
O279 C292 1.234 . S
C280 O285 1.167 . S
C280 O286 1.299 . S
O281 Zn275 2.114 . S
O281 C276 1.166 . S
O282 Zn274 1.905 . S
O282 C276 1.182 . S
O283 Zn274 1.898 . S
O283 C277 1.167 . S
O284 Zn275 2.120 . S
O284 C277 1.299 . S
O285 Zn273 1.898 . S
O285 C280 1.167 . S
O286 Zn275 2.120 . S
O286 C280 1.299 . S
O287 Zn275 2.114 . S
O287 C289 1.166 . S
O288 Zn273 1.905 . S
O288 C289 1.182 . S
C289 O287 1.166 . S
C289 O288 1.182 . S
O290 Zn275 2.080 . S
O290 C293 1.305 . S
O291 Zn274 1.920 . S
O291 C293 1.234 . S
C292 O278 1.305 . S
C292 O279 1.234 . S
C293 O290 1.305 . S
C293 O291 1.234 . S
Zn294 O300 1.920 . S
Zn294 O306 1.898 . S
Zn294 O309 1.905 . S
Zn295 O303 1.905 . S
Zn295 O304 1.898 . S
Zn295 O312 1.920 . S
Zn296 O299 2.080 . S
Zn296 O302 2.114 . S
Zn296 O305 2.120 . S
Zn296 O307 2.120 . S
Zn296 O308 2.114 . S
Zn296 O311 2.080 . S
C297 O302 1.166 . S
C297 O303 1.182 . S
C298 O304 1.167 . S
C298 O305 1.299 . S
O299 Zn296 2.080 . S
O299 C313 1.305 . S
O300 Zn294 1.920 . S
O300 C313 1.234 . S
C301 O306 1.167 . S
C301 O307 1.299 . S
O302 Zn296 2.114 . S
O302 C297 1.166 . S
O303 Zn295 1.905 . S
O303 C297 1.182 . S
O304 Zn295 1.898 . S
O304 C298 1.167 . S
O305 Zn296 2.120 . S
O305 C298 1.299 . S
O306 Zn294 1.898 . S
O306 C301 1.167 . S
O307 Zn296 2.120 . S
O307 C301 1.299 . S
O308 Zn296 2.114 . S
O308 C310 1.166 . S
O309 Zn294 1.905 . S
O309 C310 1.182 . S
C310 O308 1.166 . S
C310 O309 1.182 . S
O311 Zn296 2.080 . S
O311 C314 1.305 . S
O312 Zn295 1.920 . S
O312 C314 1.234 . S
C313 O299 1.305 . S
C313 O300 1.234 . S
C314 O311 1.305 . S
C314 O312 1.234 . S
Zn315 O321 1.920 . S
Zn315 O327 1.898 . S
Zn315 O330 1.905 . S
Zn316 O324 1.905 . S
Zn316 O325 1.898 . S
Zn316 O333 1.920 . S
Zn317 O320 2.080 . S
Zn317 O323 2.114 . S
Zn317 O326 2.120 . S
Zn317 O328 2.120 . S
Zn317 O329 2.114 . S
Zn317 O332 2.080 . S
C318 O323 1.166 . S
C318 O324 1.182 . S
C319 O325 1.167 . S
C319 O326 1.299 . S
O320 Zn317 2.080 . S
O320 C334 1.305 . S
O321 Zn315 1.920 . S
O321 C334 1.234 . S
C322 O327 1.167 . S
C322 O328 1.299 . S
O323 Zn317 2.114 . S
O323 C318 1.166 . S
O324 Zn316 1.905 . S
O324 C318 1.182 . S
O325 Zn316 1.898 . S
O325 C319 1.167 . S
O326 Zn317 2.120 . S
O326 C319 1.299 . S
O327 Zn315 1.898 . S
O327 C322 1.167 . S
O328 Zn317 2.120 . S
O328 C322 1.299 . S
O329 Zn317 2.114 . S
O329 C331 1.166 . S
O330 Zn315 1.905 . S
O330 C331 1.182 . S
C331 O329 1.166 . S
C331 O330 1.182 . S
O332 Zn317 2.080 . S
O332 C335 1.305 . S
O333 Zn316 1.920 . S
O333 C335 1.234 . S
C334 O320 1.305 . S
C334 O321 1.234 . S
C335 O332 1.305 . S
C335 O333 1.234 . S
C336 C337 1.363 . S
C336 C342 1.379 . S
C336 N344 1.356 . S
C337 C336 1.363 . S
C337 C343 1.363 . S
C338 C339 1.363 . S
C338 C343 1.379 . S
C338 N345 1.356 . S
C339 C338 1.363 . S
C339 C342 1.363 . S
N340 C342 1.356 . S
N340 H352 0.984 . S
N340 H353 0.985 . S
N341 C343 1.356 . S
N341 H346 0.984 . S
N341 H347 0.985 . S
C342 C336 1.379 . S
C342 C339 1.363 . S
C342 N340 1.356 . S
C343 C337 1.363 . S
C343 C338 1.379 . S
C343 N341 1.356 . S
N344 C336 1.356 . S
N344 H350 0.984 . S
N344 H351 0.984 . S
N345 C338 1.356 . S
N345 H348 0.984 . S
N345 H349 0.985 . S
H346 N341 0.984 . S
H347 N341 0.985 . S
H348 N345 0.984 . S
H349 N345 0.985 . S
H350 N344 0.984 . S
H351 N344 0.984 . S
H352 N340 0.984 . S
H353 N340 0.985 . S
C354 C355 1.363 . S
C354 C360 1.379 . S
C354 N362 1.356 . S
C355 C354 1.363 . S
C355 C361 1.363 . S
C356 C357 1.363 . S
C356 C361 1.379 . S
C356 N363 1.356 . S
C357 C356 1.363 . S
C357 C360 1.363 . S
N358 C360 1.356 . S
N358 H370 0.984 . S
N358 H371 0.985 . S
N359 C361 1.356 . S
N359 H364 0.984 . S
N359 H365 0.985 . S
C360 C354 1.379 . S
C360 C357 1.363 . S
C360 N358 1.356 . S
C361 C355 1.363 . S
C361 C356 1.379 . S
C361 N359 1.356 . S
N362 C354 1.356 . S
N362 H368 0.984 . S
N362 H369 0.984 . S
N363 C356 1.356 . S
N363 H366 0.984 . S
N363 H367 0.985 . S
H364 N359 0.984 . S
H365 N359 0.985 . S
H366 N363 0.984 . S
H367 N363 0.985 . S
H368 N362 0.984 . S
H369 N362 0.984 . S
H370 N358 0.984 . S
H371 N358 0.985 . S
C372 C373 1.363 . S
C372 C378 1.379 . S
C372 N380 1.356 . S
C373 C372 1.363 . S
C373 C379 1.363 . S
C374 C375 1.363 . S
C374 C379 1.379 . S
C374 N381 1.356 . S
C375 C374 1.363 . S
C375 C378 1.363 . S
N376 C378 1.356 . S
N376 H388 0.984 . S
N376 H389 0.985 . S
N377 C379 1.356 . S
N377 H382 0.984 . S
N377 H383 0.985 . S
C378 C372 1.379 . S
C378 C375 1.363 . S
C378 N376 1.356 . S
C379 C373 1.363 . S
C379 C374 1.379 . S
C379 N377 1.356 . S
N380 C372 1.356 . S
N380 H386 0.984 . S
N380 H387 0.984 . S
N381 C374 1.356 . S
N381 H384 0.984 . S
N381 H385 0.985 . S
H382 N377 0.984 . S
H383 N377 0.985 . S
H384 N381 0.984 . S
H385 N381 0.985 . S
H386 N380 0.984 . S
H387 N380 0.984 . S
H388 N376 0.984 . S
H389 N376 0.985 . S
C390 C391 1.363 . S
C390 C396 1.379 . S
C390 N398 1.356 . S
C391 C390 1.363 . S
C391 C397 1.363 . S
C392 C393 1.363 . S
C392 C397 1.379 . S
C392 N399 1.356 . S
C393 C392 1.363 . S
C393 C396 1.363 . S
N394 C396 1.356 . S
N394 H406 0.984 . S
N394 H407 0.985 . S
N395 C397 1.356 . S
N395 H400 0.984 . S
N395 H401 0.985 . S
C396 C390 1.379 . S
C396 C393 1.363 . S
C396 N394 1.356 . S
C397 C391 1.363 . S
C397 C392 1.379 . S
C397 N395 1.356 . S
N398 C390 1.356 . S
N398 H404 0.984 . S
N398 H405 0.984 . S
N399 C392 1.356 . S
N399 H402 0.984 . S
N399 H403 0.985 . S
H400 N395 0.984 . S
H401 N395 0.985 . S
H402 N399 0.984 . S
H403 N399 0.985 . S
H404 N398 0.984 . S
H405 N398 0.984 . S
H406 N394 0.984 . S
H407 N394 0.985 . S
C408 C409 1.363 . S
C408 C414 1.379 . S
C408 N416 1.356 . S
C409 C408 1.363 . S
C409 C415 1.363 . S
C410 C411 1.363 . S
C410 C415 1.379 . S
C410 N417 1.356 . S
C411 C410 1.363 . S
C411 C414 1.363 . S
N412 C414 1.356 . S
N412 H424 0.984 . S
N412 H425 0.985 . S
N413 C415 1.356 . S
N413 H418 0.984 . S
N413 H419 0.985 . S
C414 C408 1.379 . S
C414 C411 1.363 . S
C414 N412 1.356 . S
C415 C409 1.363 . S
C415 C410 1.379 . S
C415 N413 1.356 . S
N416 C408 1.356 . S
N416 H422 0.984 . S
N416 H423 0.984 . S
N417 C410 1.356 . S
N417 H420 0.984 . S
N417 H421 0.985 . S
H418 N413 0.984 . S
H419 N413 0.985 . S
H420 N417 0.984 . S
H421 N417 0.985 . S
H422 N416 0.984 . S
H423 N416 0.984 . S
H424 N412 0.984 . S
H425 N412 0.985 . S
C426 C427 1.363 . S
C426 C432 1.379 . S
C426 N434 1.356 . S
C427 C426 1.363 . S
C427 C433 1.363 . S
C428 C429 1.363 . S
C428 C433 1.379 . S
C428 N435 1.356 . S
C429 C428 1.363 . S
C429 C432 1.363 . S
N430 C432 1.356 . S
N430 H442 0.984 . S
N430 H443 0.985 . S
N431 C433 1.356 . S
N431 H436 0.984 . S
N431 H437 0.985 . S
C432 C426 1.379 . S
C432 C429 1.363 . S
C432 N430 1.356 . S
C433 C427 1.363 . S
C433 C428 1.379 . S
C433 N431 1.356 . S
N434 C426 1.356 . S
N434 H440 0.984 . S
N434 H441 0.984 . S
N435 C428 1.356 . S
N435 H438 0.984 . S
N435 H439 0.985 . S
H436 N431 0.984 . S
H437 N431 0.985 . S
H438 N435 0.984 . S
H439 N435 0.985 . S
H440 N434 0.984 . S
H441 N434 0.984 . S
H442 N430 0.984 . S
H443 N430 0.985 . S
C444 C445 1.363 . S
C444 C450 1.379 . S
C444 N452 1.356 . S
C445 C444 1.363 . S
C445 C451 1.363 . S
C446 C447 1.363 . S
C446 C451 1.379 . S
C446 N453 1.356 . S
C447 C446 1.363 . S
C447 C450 1.363 . S
N448 C450 1.356 . S
N448 H460 0.984 . S
N448 H461 0.985 . S
N449 C451 1.356 . S
N449 H454 0.984 . S
N449 H455 0.985 . S
C450 C444 1.379 . S
C450 C447 1.363 . S
C450 N448 1.356 . S
C451 C445 1.363 . S
C451 C446 1.379 . S
C451 N449 1.356 . S
N452 C444 1.356 . S
N452 H458 0.984 . S
N452 H459 0.984 . S
N453 C446 1.356 . S
N453 H456 0.984 . S
N453 H457 0.985 . S
H454 N449 0.984 . S
H455 N449 0.985 . S
H456 N453 0.984 . S
H457 N453 0.985 . S
H458 N452 0.984 . S
H459 N452 0.984 . S
H460 N448 0.984 . S
H461 N448 0.985 . S
C462 C463 1.363 . S
C462 C468 1.379 . S
C462 N470 1.356 . S
C463 C462 1.363 . S
C463 C469 1.363 . S
C464 C465 1.363 . S
C464 C469 1.379 . S
C464 N471 1.356 . S
C465 C464 1.363 . S
C465 C468 1.363 . S
N466 C468 1.356 . S
N466 H478 0.984 . S
N466 H479 0.985 . S
N467 C469 1.356 . S
N467 H472 0.984 . S
N467 H473 0.985 . S
C468 C462 1.379 . S
C468 C465 1.363 . S
C468 N466 1.356 . S
C469 C463 1.363 . S
C469 C464 1.379 . S
C469 N467 1.356 . S
N470 C462 1.356 . S
N470 H476 0.984 . S
N470 H477 0.984 . S
N471 C464 1.356 . S
N471 H474 0.984 . S
N471 H475 0.985 . S
H472 N467 0.984 . S
H473 N467 0.985 . S
H474 N471 0.984 . S
H475 N471 0.985 . S
H476 N470 0.984 . S
H477 N470 0.984 . S
H478 N466 0.984 . S
H479 N466 0.985 . S
C480 C481 1.363 1_565 S
C480 C486 1.379 . S
C480 N488 1.356 . S
C481 C480 1.363 1_545 S
C481 C487 1.363 . S
C482 C483 1.363 1_545 S
C482 C487 1.379 . S
C482 N489 1.356 . S
C483 C482 1.363 1_565 S
C483 C486 1.363 . S
N484 C486 1.356 . S
N484 H496 0.984 . S
N484 H497 0.985 . S
N485 C487 1.356 . S
N485 H490 0.984 . S
N485 H491 0.985 . S
C486 C480 1.379 . S
C486 C483 1.363 . S
C486 N484 1.356 . S
C487 C481 1.363 . S
C487 C482 1.379 . S
C487 N485 1.356 . S
N488 C480 1.356 . S
N488 H494 0.984 . S
N488 H495 0.984 . S
N489 C482 1.356 . S
N489 H492 0.984 . S
N489 H493 0.985 . S
H490 N485 0.984 . S
H491 N485 0.985 . S
H492 N489 0.984 . S
H493 N489 0.985 . S
H494 N488 0.984 . S
H495 N488 0.984 . S
H496 N484 0.984 . S
H497 N484 0.985 . S
C498 C499 1.363 . S
C498 C504 1.379 . S
C498 N506 1.356 . S
C499 C498 1.363 . S
C499 C505 1.363 1_565 S
C500 C501 1.363 . S
C500 C505 1.379 . S
C500 N507 1.356 . S
C501 C500 1.363 . S
C501 C504 1.363 1_545 S
N502 C504 1.356 . S
N502 H514 0.984 . S
N502 H515 0.985 . S
N503 C505 1.356 . S
N503 H508 0.984 . S
N503 H509 0.985 . S
C504 C498 1.379 . S
C504 C501 1.363 1_565 S
C504 N502 1.356 . S
C505 C499 1.363 1_545 S
C505 C500 1.379 . S
C505 N503 1.356 . S
N506 C498 1.356 . S
N506 H512 0.984 . S
N506 H513 0.984 . S
N507 C500 1.356 . S
N507 H510 0.984 . S
N507 H511 0.985 . S
H508 N503 0.984 . S
H509 N503 0.985 . S
H510 N507 0.984 . S
H511 N507 0.985 . S
H512 N506 0.984 . S
H513 N506 0.984 . S
H514 N502 0.984 . S
H515 N502 0.985 . S
C516 C517 1.363 . S
C516 C522 1.379 . S
C516 N524 1.356 . S
C517 C516 1.363 . S
C517 C523 1.363 1_565 S
C518 C519 1.363 . S
C518 C523 1.379 . S
C518 N525 1.356 . S
C519 C518 1.363 . S
C519 C522 1.363 1_545 S
N520 C522 1.356 . S
N520 H532 0.984 . S
N520 H533 0.985 . S
N521 C523 1.356 . S
N521 H526 0.984 . S
N521 H527 0.985 . S
C522 C516 1.379 . S
C522 C519 1.363 1_565 S
C522 N520 1.356 . S
C523 C517 1.363 1_545 S
C523 C518 1.379 . S
C523 N521 1.356 . S
N524 C516 1.356 . S
N524 H530 0.984 . S
N524 H531 0.984 . S
N525 C518 1.356 . S
N525 H528 0.984 . S
N525 H529 0.985 . S
H526 N521 0.984 . S
H527 N521 0.985 . S
H528 N525 0.984 . S
H529 N525 0.985 . S
H530 N524 0.984 . S
H531 N524 0.984 . S
H532 N520 0.984 . S
H533 N520 0.985 . S
C534 C535 1.363 . S
C534 C540 1.379 . S
C534 N542 1.356 . S
C535 C534 1.363 . S
C535 C541 1.363 1_565 S
C536 C537 1.363 . S
C536 C541 1.379 . S
C536 N543 1.356 . S
C537 C536 1.363 . S
C537 C540 1.363 1_545 S
N538 C540 1.356 . S
N538 H550 0.984 . S
N538 H551 0.985 . S
N539 C541 1.356 . S
N539 H544 0.984 . S
N539 H545 0.985 . S
C540 C534 1.379 . S
C540 C537 1.363 1_565 S
C540 N538 1.356 . S
C541 C535 1.363 1_545 S
C541 C536 1.379 . S
C541 N539 1.356 . S
N542 C534 1.356 . S
N542 H548 0.984 . S
N542 H549 0.984 . S
N543 C536 1.356 . S
N543 H546 0.984 . S
N543 H547 0.985 . S
H544 N539 0.984 . S
H545 N539 0.985 . S
H546 N543 0.984 . S
H547 N543 0.985 . S
H548 N542 0.984 . S
H549 N542 0.984 . S
H550 N538 0.984 . S
H551 N538 0.985 . S
C552 C553 1.363 . S
C552 C558 1.379 . S
C552 N560 1.356 . S
C553 C552 1.363 . S
C553 C559 1.363 . S
C554 C555 1.363 . S
C554 C559 1.379 . S
C554 N561 1.356 . S
C555 C554 1.363 . S
C555 C558 1.363 . S
N556 C558 1.356 . S
N556 H568 0.984 . S
N556 H569 0.985 . S
N557 C559 1.356 . S
N557 H562 0.984 . S
N557 H563 0.985 . S
C558 C552 1.379 . S
C558 C555 1.363 . S
C558 N556 1.356 . S
C559 C553 1.363 . S
C559 C554 1.379 . S
C559 N557 1.356 . S
N560 C552 1.356 . S
N560 H566 0.984 . S
N560 H567 0.984 . S
N561 C554 1.356 . S
N561 H564 0.984 . S
N561 H565 0.985 . S
H562 N557 0.984 . S
H563 N557 0.985 . S
H564 N561 0.984 . S
H565 N561 0.985 . S
H566 N560 0.984 . S
H567 N560 0.984 . S
H568 N556 0.984 . S
H569 N556 0.985 . S
C570 C571 1.363 . S
C570 C576 1.379 . S
C570 N578 1.356 . S
C571 C570 1.363 . S
C571 C577 1.363 . S
C572 C573 1.363 . S
C572 C577 1.379 . S
C572 N579 1.356 . S
C573 C572 1.363 . S
C573 C576 1.363 . S
N574 C576 1.356 . S
N574 H586 0.984 . S
N574 H587 0.985 . S
N575 C577 1.356 . S
N575 H580 0.984 . S
N575 H581 0.985 . S
C576 C570 1.379 . S
C576 C573 1.363 . S
C576 N574 1.356 . S
C577 C571 1.363 . S
C577 C572 1.379 . S
C577 N575 1.356 . S
N578 C570 1.356 . S
N578 H584 0.984 . S
N578 H585 0.984 . S
N579 C572 1.356 . S
N579 H582 0.984 . S
N579 H583 0.985 . S
H580 N575 0.984 . S
H581 N575 0.985 . S
H582 N579 0.984 . S
H583 N579 0.985 . S
H584 N578 0.984 . S
H585 N578 0.984 . S
H586 N574 0.984 . S
H587 N574 0.985 . S
C588 C589 1.363 . S
C588 C594 1.379 . S
C588 N596 1.356 . S
C589 C588 1.363 . S
C589 C595 1.363 . S
C590 C591 1.363 . S
C590 C595 1.379 . S
C590 N597 1.356 . S
C591 C590 1.363 . S
C591 C594 1.363 . S
N592 C594 1.356 . S
N592 H604 0.984 . S
N592 H605 0.985 . S
N593 C595 1.356 . S
N593 H598 0.984 . S
N593 H599 0.985 . S
C594 C588 1.379 . S
C594 C591 1.363 . S
C594 N592 1.356 . S
C595 C589 1.363 . S
C595 C590 1.379 . S
C595 N593 1.356 . S
N596 C588 1.356 . S
N596 H602 0.984 . S
N596 H603 0.984 . S
N597 C590 1.356 . S
N597 H600 0.984 . S
N597 H601 0.985 . S
H598 N593 0.984 . S
H599 N593 0.985 . S
H600 N597 0.984 . S
H601 N597 0.985 . S
H602 N596 0.984 . S
H603 N596 0.984 . S
H604 N592 0.984 . S
H605 N592 0.985 . S
C606 C607 1.363 . S
C606 C612 1.379 . S
C606 N614 1.356 . S
C607 C606 1.363 . S
C607 C613 1.363 . S
C608 C609 1.363 . S
C608 C613 1.379 . S
C608 N615 1.356 . S
C609 C608 1.363 . S
C609 C612 1.363 . S
N610 C612 1.356 . S
N610 H622 0.984 . S
N610 H623 0.985 . S
N611 C613 1.356 . S
N611 H616 0.984 . S
N611 H617 0.985 . S
C612 C606 1.379 . S
C612 C609 1.363 . S
C612 N610 1.356 . S
C613 C607 1.363 . S
C613 C608 1.379 . S
C613 N611 1.356 . S
N614 C606 1.356 . S
N614 H620 0.984 . S
N614 H621 0.984 . S
N615 C608 1.356 . S
N615 H618 0.984 . S
N615 H619 0.985 . S
H616 N611 0.984 . S
H617 N611 0.985 . S
H618 N615 0.984 . S
H619 N615 0.985 . S
H620 N614 0.984 . S
H621 N614 0.984 . S
H622 N610 0.984 . S
H623 N610 0.985 . S
C624 C625 1.363 1_565 S
C624 C630 1.379 1_556 S
C624 N632 1.356 . S
C625 C624 1.363 1_545 S
C625 C631 1.363 . S
C626 C627 1.363 . S
C626 C631 1.379 1_554 S
C626 N633 1.356 . S
C627 C626 1.363 . S
C627 C630 1.363 1_545 S
N628 C630 1.356 . S
N628 H640 0.984 . S
N628 H641 0.985 . S
N629 C631 1.356 . S
N629 H634 0.984 . S
N629 H635 0.985 . S
C630 C624 1.379 1_554 S
C630 C627 1.363 1_565 S
C630 N628 1.356 . S
C631 C625 1.363 . S
C631 C626 1.379 1_556 S
C631 N629 1.356 . S
N632 C624 1.356 . S
N632 H638 0.984 . S
N632 H639 0.984 . S
N633 C626 1.356 . S
N633 H636 0.984 . S
N633 H637 0.985 . S
H634 N629 0.984 . S
H635 N629 0.985 . S
H636 N633 0.984 . S
H637 N633 0.985 . S
H638 N632 0.984 . S
H639 N632 0.984 . S
H640 N628 0.984 . S
H641 N628 0.985 . S
C642 C643 1.363 . S
C642 C648 1.379 1_556 S
C642 N650 1.356 . S
C643 C642 1.363 . S
C643 C649 1.363 1_565 S
C644 C645 1.363 1_545 S
C644 C649 1.379 1_554 S
C644 N651 1.356 . S
C645 C644 1.363 1_565 S
C645 C648 1.363 . S
N646 C648 1.356 . S
N646 H658 0.984 . S
N646 H659 0.985 . S
N647 C649 1.356 . S
N647 H652 0.984 . S
N647 H653 0.985 . S
C648 C642 1.379 1_554 S
C648 C645 1.363 . S
C648 N646 1.356 . S
C649 C643 1.363 1_545 S
C649 C644 1.379 1_556 S
C649 N647 1.356 . S
N650 C642 1.356 . S
N650 H656 0.984 . S
N650 H657 0.984 . S
N651 C644 1.356 . S
N651 H654 0.984 . S
N651 H655 0.985 . S
H652 N647 0.984 . S
H653 N647 0.985 . S
H654 N651 0.984 . S
H655 N651 0.985 . S
H656 N650 0.984 . S
H657 N650 0.984 . S
H658 N646 0.984 . S
H659 N646 0.985 . S
C660 C661 1.363 1_545 S
C660 C666 1.379 . S
C660 N668 1.356 . S
C661 C660 1.363 1_565 S
C661 C667 1.363 . S
C662 C663 1.363 . S
C662 C667 1.379 . S
C662 N669 1.356 . S
C663 C662 1.363 . S
C663 C666 1.363 1_565 S
N664 C666 1.356 . S
N664 H676 0.984 . S
N664 H677 0.985 . S
N665 C667 1.356 . S
N665 H670 0.984 . S
N665 H671 0.985 . S
C666 C660 1.379 . S
C666 C663 1.363 1_545 S
C666 N664 1.356 . S
C667 C661 1.363 . S
C667 C662 1.379 . S
C667 N665 1.356 . S
N668 C660 1.356 . S
N668 H674 0.984 . S
N668 H675 0.984 . S
N669 C662 1.356 . S
N669 H672 0.984 . S
N669 H673 0.985 . S
H670 N665 0.984 . S
H671 N665 0.985 . S
H672 N669 0.984 . S
H673 N669 0.985 . S
H674 N668 0.984 . S
H675 N668 0.984 . S
H676 N664 0.984 . S
H677 N664 0.985 . S
C678 C679 1.363 . S
C678 C684 1.379 . S
C678 N686 1.356 . S
C679 C678 1.363 . S
C679 C685 1.363 1_545 S
C680 C681 1.363 1_565 S
C680 C685 1.379 . S
C680 N687 1.356 . S
C681 C680 1.363 1_545 S
C681 C684 1.363 . S
N682 C684 1.356 . S
N682 H694 0.984 . S
N682 H695 0.985 . S
N683 C685 1.356 . S
N683 H688 0.984 . S
N683 H689 0.985 . S
C684 C678 1.379 . S
C684 C681 1.363 . S
C684 N682 1.356 . S
C685 C679 1.363 1_565 S
C685 C680 1.379 . S
C685 N683 1.356 . S
N686 C678 1.356 . S
N686 H692 0.984 . S
N686 H693 0.984 . S
N687 C680 1.356 . S
N687 H690 0.984 . S
N687 H691 0.985 . S
H688 N683 0.984 . S
H689 N683 0.985 . S
H690 N687 0.984 . S
H691 N687 0.985 . S
H692 N686 0.984 . S
H693 N686 0.984 . S
H694 N682 0.984 . S
H695 N682 0.985 . S
C696 C697 1.363 . S
C696 C702 1.379 1_554 S
C696 N704 1.356 . S
C697 C696 1.363 . S
C697 C703 1.363 . S
C698 C699 1.363 . S
C698 C703 1.379 1_556 S
C698 N705 1.356 . S
C699 C698 1.363 . S
C699 C702 1.363 . S
N700 C702 1.356 . S
N700 H712 0.984 . S
N700 H713 0.985 . S
N701 C703 1.356 . S
N701 H706 0.984 . S
N701 H707 0.985 . S
C702 C696 1.379 1_556 S
C702 C699 1.363 . S
C702 N700 1.356 . S
C703 C697 1.363 . S
C703 C698 1.379 1_554 S
C703 N701 1.356 . S
N704 C696 1.356 . S
N704 H710 0.984 . S
N704 H711 0.984 . S
N705 C698 1.356 . S
N705 H708 0.984 . S
N705 H709 0.985 . S
H706 N701 0.984 . S
H707 N701 0.985 . S
H708 N705 0.984 . S
H709 N705 0.985 . S
H710 N704 0.984 . S
H711 N704 0.984 . S
H712 N700 0.984 . S
H713 N700 0.985 . S
C714 C715 1.363 . S
C714 C720 1.379 1_556 S
C714 N722 1.356 . S
C715 C714 1.363 . S
C715 C721 1.363 . S
C716 C717 1.363 . S
C716 C721 1.379 1_554 S
C716 N723 1.356 . S
C717 C716 1.363 . S
C717 C720 1.363 . S
N718 C720 1.356 . S
N718 H730 0.984 . S
N718 H731 0.985 . S
N719 C721 1.356 . S
N719 H724 0.984 . S
N719 H725 0.985 . S
C720 C714 1.379 1_554 S
C720 C717 1.363 . S
C720 N718 1.356 . S
C721 C715 1.363 . S
C721 C716 1.379 1_556 S
C721 N719 1.356 . S
N722 C714 1.356 . S
N722 H728 0.984 . S
N722 H729 0.984 . S
N723 C716 1.356 . S
N723 H726 0.984 . S
N723 H727 0.985 . S
H724 N719 0.984 . S
H725 N719 0.985 . S
H726 N723 0.984 . S
H727 N723 0.985 . S
H728 N722 0.984 . S
H729 N722 0.984 . S
H730 N718 0.984 . S
H731 N718 0.985 . S
C732 C733 1.363 . S
C732 C738 1.379 . S
C732 N740 1.356 . S
C733 C732 1.363 . S
C733 C739 1.363 . S
C734 C735 1.363 . S
C734 C739 1.379 . S
C734 N741 1.356 . S
C735 C734 1.363 . S
C735 C738 1.363 . S
N736 C738 1.356 . S
N736 H748 0.984 . S
N736 H749 0.985 . S
N737 C739 1.356 . S
N737 H742 0.984 . S
N737 H743 0.985 . S
C738 C732 1.379 . S
C738 C735 1.363 . S
C738 N736 1.356 . S
C739 C733 1.363 . S
C739 C734 1.379 . S
C739 N737 1.356 . S
N740 C732 1.356 . S
N740 H746 0.984 . S
N740 H747 0.984 . S
N741 C734 1.356 . S
N741 H744 0.984 . S
N741 H745 0.985 . S
H742 N737 0.984 . S
H743 N737 0.985 . S
H744 N741 0.984 . S
H745 N741 0.985 . S
H746 N740 0.984 . S
H747 N740 0.984 . S
H748 N736 0.984 . S
H749 N736 0.985 . S
C750 C751 1.363 . S
C750 C756 1.379 . S
C750 N758 1.356 . S
C751 C750 1.363 . S
C751 C757 1.363 . S
C752 C753 1.363 . S
C752 C757 1.379 . S
C752 N759 1.356 . S
C753 C752 1.363 . S
C753 C756 1.363 . S
N754 C756 1.356 . S
N754 H766 0.984 . S
N754 H767 0.985 . S
N755 C757 1.356 . S
N755 H760 0.984 . S
N755 H761 0.985 . S
C756 C750 1.379 . S
C756 C753 1.363 . S
C756 N754 1.356 . S
C757 C751 1.363 . S
C757 C752 1.379 . S
C757 N755 1.356 . S
N758 C750 1.356 . S
N758 H764 0.984 . S
N758 H765 0.984 . S
N759 C752 1.356 . S
N759 H762 0.984 . S
N759 H763 0.985 . S
H760 N755 0.984 . S
H761 N755 0.985 . S
H762 N759 0.984 . S
H763 N759 0.985 . S
H764 N758 0.984 . S
H765 N758 0.984 . S
H766 N754 0.984 . S
H767 N754 0.985 . S
C768 C769 1.363 1_545 S
C768 C774 1.379 1_655 S
C768 N776 1.356 . S
C769 C768 1.363 1_565 S
C769 C775 1.363 . S
C770 C771 1.363 1_565 S
C770 C775 1.379 1_455 S
C770 N777 1.356 . S
C771 C770 1.363 1_545 S
C771 C774 1.363 . S
N772 C774 1.356 . S
N772 H784 0.984 . S
N772 H785 0.985 . S
N773 C775 1.356 . S
N773 H778 0.984 . S
N773 H779 0.985 . S
C774 C768 1.379 1_455 S
C774 C771 1.363 . S
C774 N772 1.356 . S
C775 C769 1.363 . S
C775 C770 1.379 1_655 S
C775 N773 1.356 . S
N776 C768 1.356 . S
N776 H782 0.984 . S
N776 H783 0.984 . S
N777 C770 1.356 . S
N777 H780 0.984 . S
N777 H781 0.985 . S
H778 N773 0.984 . S
H779 N773 0.985 . S
H780 N777 0.984 . S
H781 N777 0.985 . S
H782 N776 0.984 . S
H783 N776 0.984 . S
H784 N772 0.984 . S
H785 N772 0.985 . S
C786 C787 1.363 1_565 S
C786 C792 1.379 1_655 S
C786 N794 1.356 . S
C787 C786 1.363 1_545 S
C787 C793 1.363 . S
C788 C789 1.363 1_545 S
C788 C793 1.379 1_455 S
C788 N795 1.356 . S
C789 C788 1.363 1_565 S
C789 C792 1.363 . S
N790 C792 1.356 . S
N790 H802 0.984 . S
N790 H803 0.985 . S
N791 C793 1.356 . S
N791 H796 0.984 . S
N791 H797 0.985 . S
C792 C786 1.379 1_455 S
C792 C789 1.363 . S
C792 N790 1.356 . S
C793 C787 1.363 . S
C793 C788 1.379 1_655 S
C793 N791 1.356 . S
N794 C786 1.356 . S
N794 H800 0.984 . S
N794 H801 0.984 . S
N795 C788 1.356 . S
N795 H798 0.984 . S
N795 H799 0.985 . S
H796 N791 0.984 . S
H797 N791 0.985 . S
H798 N795 0.984 . S
H799 N795 0.985 . S
H800 N794 0.984 . S
H801 N794 0.984 . S
H802 N790 0.984 . S
H803 N790 0.985 . S
C804 C805 1.363 . S
C804 C810 1.379 1_455 S
C804 N812 1.356 . S
C805 C804 1.363 . S
C805 C811 1.363 1_545 S
C806 C807 1.363 . S
C806 C811 1.379 1_655 S
C806 N813 1.356 . S
C807 C806 1.363 . S
C807 C810 1.363 1_565 S
N808 C810 1.356 . S
N808 H820 0.984 . S
N808 H821 0.985 . S
N809 C811 1.356 . S
N809 H814 0.984 . S
N809 H815 0.985 . S
C810 C804 1.379 1_655 S
C810 C807 1.363 1_545 S
C810 N808 1.356 . S
C811 C805 1.363 1_565 S
C811 C806 1.379 1_455 S
C811 N809 1.356 . S
N812 C804 1.356 . S
N812 H818 0.984 . S
N812 H819 0.984 . S
N813 C806 1.356 . S
N813 H816 0.984 . S
N813 H817 0.985 . S
H814 N809 0.984 . S
H815 N809 0.985 . S
H816 N813 0.984 . S
H817 N813 0.985 . S
H818 N812 0.984 . S
H819 N812 0.984 . S
H820 N808 0.984 . S
H821 N808 0.985 . S
C822 C823 1.363 1_565 S
C822 C828 1.379 1_655 S
C822 N830 1.356 . S
C823 C822 1.363 1_545 S
C823 C829 1.363 . S
C824 C825 1.363 1_545 S
C824 C829 1.379 1_455 S
C824 N831 1.356 . S
C825 C824 1.363 1_565 S
C825 C828 1.363 . S
N826 C828 1.356 . S
N826 H838 0.984 . S
N826 H839 0.985 . S
N827 C829 1.356 . S
N827 H832 0.984 . S
N827 H833 0.985 . S
C828 C822 1.379 1_455 S
C828 C825 1.363 . S
C828 N826 1.356 . S
C829 C823 1.363 . S
C829 C824 1.379 1_655 S
C829 N827 1.356 . S
N830 C822 1.356 . S
N830 H836 0.984 . S
N830 H837 0.984 . S
N831 C824 1.356 . S
N831 H834 0.984 . S
N831 H835 0.985 . S
H832 N827 0.984 . S
H833 N827 0.985 . S
H834 N831 0.984 . S
H835 N831 0.985 . S
H836 N830 0.984 . S
H837 N830 0.984 . S
H838 N826 0.984 . S
H839 N826 0.985 . S
C840 C841 1.363 . S
C840 C846 1.379 . S
C840 N848 1.356 . S
C841 C840 1.363 . S
C841 C847 1.363 . S
C842 C843 1.363 . S
C842 C847 1.379 . S
C842 N849 1.356 . S
C843 C842 1.363 . S
C843 C846 1.363 . S
N844 C846 1.356 . S
N844 H856 0.984 . S
N844 H857 0.985 . S
N845 C847 1.356 . S
N845 H850 0.984 . S
N845 H851 0.985 . S
C846 C840 1.379 . S
C846 C843 1.363 . S
C846 N844 1.356 . S
C847 C841 1.363 . S
C847 C842 1.379 . S
C847 N845 1.356 . S
N848 C840 1.356 . S
N848 H854 0.984 . S
N848 H855 0.984 . S
N849 C842 1.356 . S
N849 H852 0.984 . S
N849 H853 0.985 . S
H850 N845 0.984 . S
H851 N845 0.985 . S
H852 N849 0.984 . S
H853 N849 0.985 . S
H854 N848 0.984 . S
H855 N848 0.984 . S
H856 N844 0.984 . S
H857 N844 0.985 . S
C858 C859 1.363 . S
C858 C864 1.379 . S
C858 N866 1.356 . S
C859 C858 1.363 . S
C859 C865 1.363 . S
C860 C861 1.363 . S
C860 C865 1.379 . S
C860 N867 1.356 . S
C861 C860 1.363 . S
C861 C864 1.363 . S
N862 C864 1.356 . S
N862 H874 0.984 . S
N862 H875 0.985 . S
N863 C865 1.356 . S
N863 H868 0.984 . S
N863 H869 0.985 . S
C864 C858 1.379 . S
C864 C861 1.363 . S
C864 N862 1.356 . S
C865 C859 1.363 . S
C865 C860 1.379 . S
C865 N863 1.356 . S
N866 C858 1.356 . S
N866 H872 0.984 . S
N866 H873 0.984 . S
N867 C860 1.356 . S
N867 H870 0.984 . S
N867 H871 0.985 . S
H868 N863 0.984 . S
H869 N863 0.985 . S
H870 N867 0.984 . S
H871 N867 0.985 . S
H872 N866 0.984 . S
H873 N866 0.984 . S
H874 N862 0.984 . S
H875 N862 0.985 . S
C876 C877 1.363 . S
C876 C882 1.379 . S
C876 N884 1.356 . S
C877 C876 1.363 . S
C877 C883 1.363 . S
C878 C879 1.363 . S
C878 C883 1.379 . S
C878 N885 1.356 . S
C879 C878 1.363 . S
C879 C882 1.363 . S
N880 C882 1.356 . S
N880 H892 0.984 . S
N880 H893 0.985 . S
N881 C883 1.356 . S
N881 H886 0.984 . S
N881 H887 0.985 . S
C882 C876 1.379 . S
C882 C879 1.363 . S
C882 N880 1.356 . S
C883 C877 1.363 . S
C883 C878 1.379 . S
C883 N881 1.356 . S
N884 C876 1.356 . S
N884 H890 0.984 . S
N884 H891 0.984 . S
N885 C878 1.356 . S
N885 H888 0.984 . S
N885 H889 0.985 . S
H886 N881 0.984 . S
H887 N881 0.985 . S
H888 N885 0.984 . S
H889 N885 0.985 . S
H890 N884 0.984 . S
H891 N884 0.984 . S
H892 N880 0.984 . S
H893 N880 0.985 . S
C894 C895 1.363 . S
C894 C900 1.379 . S
C894 N902 1.356 . S
C895 C894 1.363 . S
C895 C901 1.363 . S
C896 C897 1.363 . S
C896 C901 1.379 . S
C896 N903 1.356 . S
C897 C896 1.363 . S
C897 C900 1.363 . S
N898 C900 1.356 . S
N898 H910 0.984 . S
N898 H911 0.985 . S
N899 C901 1.356 . S
N899 H904 0.984 . S
N899 H905 0.985 . S
C900 C894 1.379 . S
C900 C897 1.363 . S
C900 N898 1.356 . S
C901 C895 1.363 . S
C901 C896 1.379 . S
C901 N899 1.356 . S
N902 C894 1.356 . S
N902 H908 0.984 . S
N902 H909 0.984 . S
N903 C896 1.356 . S
N903 H906 0.984 . S
N903 H907 0.985 . S
H904 N899 0.984 . S
H905 N899 0.985 . S
H906 N903 0.984 . S
H907 N903 0.985 . S
H908 N902 0.984 . S
H909 N902 0.984 . S
H910 N898 0.984 . S
H911 N898 0.985 . S
C912 C913 1.363 . S
C912 C918 1.379 . S
C912 N920 1.356 . S
C913 C912 1.363 . S
C913 C919 1.363 . S
C914 C915 1.363 . S
C914 C919 1.379 . S
C914 N921 1.356 . S
C915 C914 1.363 . S
C915 C918 1.363 . S
N916 C918 1.356 . S
N916 H928 0.984 . S
N916 H929 0.985 . S
N917 C919 1.356 . S
N917 H922 0.984 . S
N917 H923 0.985 . S
C918 C912 1.379 . S
C918 C915 1.363 . S
C918 N916 1.356 . S
C919 C913 1.363 . S
C919 C914 1.379 . S
C919 N917 1.356 . S
N920 C912 1.356 . S
N920 H926 0.984 . S
N920 H927 0.984 . S
N921 C914 1.356 . S
N921 H924 0.984 . S
N921 H925 0.985 . S
H922 N917 0.984 . S
H923 N917 0.985 . S
H924 N921 0.984 . S
H925 N921 0.985 . S
H926 N920 0.984 . S
H927 N920 0.984 . S
H928 N916 0.984 . S
H929 N916 0.985 . S
C930 C931 1.363 . S
C930 C936 1.379 . S
C930 N938 1.356 . S
C931 C930 1.363 . S
C931 C937 1.363 . S
C932 C933 1.363 . S
C932 C937 1.379 . S
C932 N939 1.356 . S
C933 C932 1.363 . S
C933 C936 1.363 . S
N934 C936 1.356 . S
N934 H946 0.984 . S
N934 H947 0.985 . S
N935 C937 1.356 . S
N935 H940 0.984 . S
N935 H941 0.985 . S
C936 C930 1.379 . S
C936 C933 1.363 . S
C936 N934 1.356 . S
C937 C931 1.363 . S
C937 C932 1.379 . S
C937 N935 1.356 . S
N938 C930 1.356 . S
N938 H944 0.984 . S
N938 H945 0.984 . S
N939 C932 1.356 . S
N939 H942 0.984 . S
N939 H943 0.985 . S
H940 N935 0.984 . S
H941 N935 0.985 . S
H942 N939 0.984 . S
H943 N939 0.985 . S
H944 N938 0.984 . S
H945 N938 0.984 . S
H946 N934 0.984 . S
H947 N934 0.985 . S
C948 C949 1.363 . S
C948 C954 1.379 . S
C948 N956 1.356 . S
C949 C948 1.363 . S
C949 C955 1.363 . S
C950 C951 1.363 . S
C950 C955 1.379 . S
C950 N957 1.356 . S
C951 C950 1.363 . S
C951 C954 1.363 . S
N952 C954 1.356 . S
N952 H964 0.984 . S
N952 H965 0.985 . S
N953 C955 1.356 . S
N953 H958 0.984 . S
N953 H959 0.985 . S
C954 C948 1.379 . S
C954 C951 1.363 . S
C954 N952 1.356 . S
C955 C949 1.363 . S
C955 C950 1.379 . S
C955 N953 1.356 . S
N956 C948 1.356 . S
N956 H962 0.984 . S
N956 H963 0.984 . S
N957 C950 1.356 . S
N957 H960 0.984 . S
N957 H961 0.985 . S
H958 N953 0.984 . S
H959 N953 0.985 . S
H960 N957 0.984 . S
H961 N957 0.985 . S
H962 N956 0.984 . S
H963 N956 0.984 . S
H964 N952 0.984 . S
H965 N952 0.985 . S
C966 C967 1.363 . S
C966 C972 1.379 . S
C966 N974 1.356 . S
C967 C966 1.363 . S
C967 C973 1.363 . S
C968 C969 1.363 . S
C968 C973 1.379 . S
C968 N975 1.356 . S
C969 C968 1.363 . S
C969 C972 1.363 . S
N970 C972 1.356 . S
N970 H982 0.984 . S
N970 H983 0.985 . S
N971 C973 1.356 . S
N971 H976 0.984 . S
N971 H977 0.985 . S
C972 C966 1.379 . S
C972 C969 1.363 . S
C972 N970 1.356 . S
C973 C967 1.363 . S
C973 C968 1.379 . S
C973 N971 1.356 . S
N974 C966 1.356 . S
N974 H980 0.984 . S
N974 H981 0.984 . S
N975 C968 1.356 . S
N975 H978 0.984 . S
N975 H979 0.985 . S
H976 N971 0.984 . S
H977 N971 0.985 . S
H978 N975 0.984 . S
H979 N975 0.985 . S
H980 N974 0.984 . S
H981 N974 0.984 . S
H982 N970 0.984 . S
H983 N970 0.985 . S
C984 C985 1.363 . S
C984 C990 1.379 . S
C984 N992 1.356 . S
C985 C984 1.363 . S
C985 C991 1.363 . S
C986 C987 1.363 . S
C986 C991 1.379 . S
C986 N993 1.356 . S
C987 C986 1.363 . S
C987 C990 1.363 . S
N988 C990 1.356 . S
N988 H1000 0.984 . S
N988 H1001 0.985 . S
N989 C991 1.356 . S
N989 H994 0.984 . S
N989 H995 0.985 . S
C990 C984 1.379 . S
C990 C987 1.363 . S
C990 N988 1.356 . S
C991 C985 1.363 . S
C991 C986 1.379 . S
C991 N989 1.356 . S
N992 C984 1.356 . S
N992 H998 0.984 . S
N992 H999 0.984 . S
N993 C986 1.356 . S
N993 H996 0.984 . S
N993 H997 0.985 . S
H994 N989 0.984 . S
H995 N989 0.985 . S
H996 N993 0.984 . S
H997 N993 0.985 . S
H998 N992 0.984 . S
H999 N992 0.984 . S
H1000 N988 0.984 . S
H1001 N988 0.985 . S
C1002 C1003 1.363 . S
C1002 C1008 1.379 . S
C1002 N1010 1.356 . S
C1003 C1002 1.363 . S
C1003 C1009 1.363 . S
C1004 C1005 1.363 . S
C1004 C1009 1.379 . S
C1004 N1011 1.356 . S
C1005 C1004 1.363 . S
C1005 C1008 1.363 . S
N1006 C1008 1.356 . S
N1006 H1018 0.984 . S
N1006 H1019 0.985 . S
N1007 C1009 1.356 . S
N1007 H1012 0.984 . S
N1007 H1013 0.985 . S
C1008 C1002 1.379 . S
C1008 C1005 1.363 . S
C1008 N1006 1.356 . S
C1009 C1003 1.363 . S
C1009 C1004 1.379 . S
C1009 N1007 1.356 . S
N1010 C1002 1.356 . S
N1010 H1016 0.984 . S
N1010 H1017 0.984 . S
N1011 C1004 1.356 . S
N1011 H1014 0.984 . S
N1011 H1015 0.985 . S
H1012 N1007 0.984 . S
H1013 N1007 0.985 . S
H1014 N1011 0.984 . S
H1015 N1011 0.985 . S
H1016 N1010 0.984 . S
H1017 N1010 0.984 . S
H1018 N1006 0.984 . S
H1019 N1006 0.985 . S
C1020 C1021 1.363 . S
C1020 C1026 1.379 . S
C1020 N1028 1.356 . S
C1021 C1020 1.363 . S
C1021 C1027 1.363 . S
C1022 C1023 1.363 . S
C1022 C1027 1.379 . S
C1022 N1029 1.356 . S
C1023 C1022 1.363 . S
C1023 C1026 1.363 . S
N1024 C1026 1.356 . S
N1024 H1036 0.984 . S
N1024 H1037 0.985 . S
N1025 C1027 1.356 . S
N1025 H1030 0.984 . S
N1025 H1031 0.985 . S
C1026 C1020 1.379 . S
C1026 C1023 1.363 . S
C1026 N1024 1.356 . S
C1027 C1021 1.363 . S
C1027 C1022 1.379 . S
C1027 N1025 1.356 . S
N1028 C1020 1.356 . S
N1028 H1034 0.984 . S
N1028 H1035 0.984 . S
N1029 C1022 1.356 . S
N1029 H1032 0.984 . S
N1029 H1033 0.985 . S
H1030 N1025 0.984 . S
H1031 N1025 0.985 . S
H1032 N1029 0.984 . S
H1033 N1029 0.985 . S
H1034 N1028 0.984 . S
H1035 N1028 0.984 . S
H1036 N1024 0.984 . S
H1037 N1024 0.985 . S
C1038 C1039 1.363 . S
C1038 C1044 1.379 . S
C1038 N1046 1.356 . S
C1039 C1038 1.363 . S
C1039 C1045 1.363 . S
C1040 C1041 1.363 . S
C1040 C1045 1.379 . S
C1040 N1047 1.356 . S
C1041 C1040 1.363 . S
C1041 C1044 1.363 . S
N1042 C1044 1.356 . S
N1042 H1054 0.984 . S
N1042 H1055 0.985 . S
N1043 C1045 1.356 . S
N1043 H1048 0.984 . S
N1043 H1049 0.985 . S
C1044 C1038 1.379 . S
C1044 C1041 1.363 . S
C1044 N1042 1.356 . S
C1045 C1039 1.363 . S
C1045 C1040 1.379 . S
C1045 N1043 1.356 . S
N1046 C1038 1.356 . S
N1046 H1052 0.984 . S
N1046 H1053 0.984 . S
N1047 C1040 1.356 . S
N1047 H1050 0.984 . S
N1047 H1051 0.985 . S
H1048 N1043 0.984 . S
H1049 N1043 0.985 . S
H1050 N1047 0.984 . S
H1051 N1047 0.985 . S
H1052 N1046 0.984 . S
H1053 N1046 0.984 . S
H1054 N1042 0.984 . S
H1055 N1042 0.985 . S
C1056 C1057 1.363 . S
C1056 C1062 1.379 1_565 S
C1056 N1064 1.356 . S
C1057 C1056 1.363 . S
C1057 C1063 1.363 1_565 S
C1058 C1059 1.363 . S
C1058 C1063 1.379 . S
C1058 N1065 1.356 . S
C1059 C1058 1.363 . S
C1059 C1062 1.363 . S
N1060 C1062 1.356 . S
N1060 H1072 0.984 . S
N1060 H1073 0.985 . S
N1061 C1063 1.356 1_565 S
N1061 H1066 0.984 . S
N1061 H1067 0.985 . S
C1062 C1056 1.379 1_545 S
C1062 C1059 1.363 . S
C1062 N1060 1.356 . S
C1063 C1057 1.363 1_545 S
C1063 C1058 1.379 . S
C1063 N1061 1.356 1_545 S
N1064 C1056 1.356 . S
N1064 H1070 0.984 . S
N1064 H1071 0.984 . S
N1065 C1058 1.356 . S
N1065 H1068 0.984 . S
N1065 H1069 0.985 . S
H1066 N1061 0.984 . S
H1067 N1061 0.985 . S
H1068 N1065 0.984 . S
H1069 N1065 0.985 . S
H1070 N1064 0.984 . S
H1071 N1064 0.984 . S
H1072 N1060 0.984 . S
H1073 N1060 0.985 . S
C1074 C1075 1.363 . S
C1074 C1080 1.379 . S
C1074 N1082 1.356 . S
C1075 C1074 1.363 . S
C1075 C1081 1.363 . S
C1076 C1077 1.363 1_565 S
C1076 C1081 1.379 . S
C1076 N1083 1.356 1_565 S
C1077 C1076 1.363 1_545 S
C1077 C1080 1.363 1_545 S
N1078 C1080 1.356 1_545 S
N1078 H1090 0.984 . S
N1078 H1091 0.985 . S
N1079 C1081 1.356 . S
N1079 H1084 0.984 . S
N1079 H1085 0.985 . S
C1080 C1074 1.379 . S
C1080 C1077 1.363 1_565 S
C1080 N1078 1.356 1_565 S
C1081 C1075 1.363 . S
C1081 C1076 1.379 . S
C1081 N1079 1.356 . S
N1082 C1074 1.356 . S
N1082 H1088 0.984 . S
N1082 H1089 0.984 . S
N1083 C1076 1.356 1_545 S
N1083 H1086 0.984 . S
N1083 H1087 0.985 . S
H1084 N1079 0.984 . S
H1085 N1079 0.985 . S
H1086 N1083 0.984 . S
H1087 N1083 0.985 . S
H1088 N1082 0.984 . S
H1089 N1082 0.984 . S
H1090 N1078 0.984 . S
H1091 N1078 0.985 . S
C1092 C1093 1.363 . S
C1092 C1098 1.379 1_545 S
C1092 N1100 1.356 . S
C1093 C1092 1.363 . S
C1093 C1099 1.363 1_545 S
C1094 C1095 1.363 . S
C1094 C1099 1.379 . S
C1094 N1101 1.356 . S
C1095 C1094 1.363 . S
C1095 C1098 1.363 . S
N1096 C1098 1.356 . S
N1096 H1108 0.984 . S
N1096 H1109 0.985 . S
N1097 C1099 1.356 1_545 S
N1097 H1102 0.984 . S
N1097 H1103 0.985 . S
C1098 C1092 1.379 1_565 S
C1098 C1095 1.363 . S
C1098 N1096 1.356 . S
C1099 C1093 1.363 1_565 S
C1099 C1094 1.379 . S
C1099 N1097 1.356 1_565 S
N1100 C1092 1.356 . S
N1100 H1106 0.984 . S
N1100 H1107 0.984 . S
N1101 C1094 1.356 . S
N1101 H1104 0.984 . S
N1101 H1105 0.985 . S
H1102 N1097 0.984 . S
H1103 N1097 0.985 . S
H1104 N1101 0.984 . S
H1105 N1101 0.985 . S
H1106 N1100 0.984 . S
H1107 N1100 0.984 . S
H1108 N1096 0.984 . S
H1109 N1096 0.985 . S
C1110 C1111 1.363 . S
C1110 C1116 1.379 1_565 S
C1110 N1118 1.356 . S
C1111 C1110 1.363 . S
C1111 C1117 1.363 1_565 S
C1112 C1113 1.363 . S
C1112 C1117 1.379 . S
C1112 N1119 1.356 . S
C1113 C1112 1.363 . S
C1113 C1116 1.363 . S
N1114 C1116 1.356 . S
N1114 H1126 0.984 . S
N1114 H1127 0.985 . S
N1115 C1117 1.356 1_565 S
N1115 H1120 0.984 . S
N1115 H1121 0.985 . S
C1116 C1110 1.379 1_545 S
C1116 C1113 1.363 . S
C1116 N1114 1.356 . S
C1117 C1111 1.363 1_545 S
C1117 C1112 1.379 . S
C1117 N1115 1.356 1_545 S
N1118 C1110 1.356 . S
N1118 H1124 0.984 . S
N1118 H1125 0.984 . S
N1119 C1112 1.356 . S
N1119 H1122 0.984 . S
N1119 H1123 0.985 . S
H1120 N1115 0.984 . S
H1121 N1115 0.985 . S
H1122 N1119 0.984 . S
H1123 N1119 0.985 . S
H1124 N1118 0.984 . S
H1125 N1118 0.984 . S
H1126 N1114 0.984 . S
H1127 N1114 0.985 . S
C1128 C1129 1.363 . S
C1128 C1134 1.379 1_565 S
C1128 N1136 1.356 . S
C1129 C1128 1.363 . S
C1129 C1135 1.363 . S
C1130 C1131 1.363 1_565 S
C1130 C1135 1.379 . S
C1130 N1137 1.356 1_565 S
C1131 C1130 1.363 1_545 S
C1131 C1134 1.363 . S
N1132 C1134 1.356 . S
N1132 H1144 0.984 . S
N1132 H1145 0.985 . S
N1133 C1135 1.356 . S
N1133 H1138 0.984 . S
N1133 H1139 0.985 . S
C1134 C1128 1.379 1_545 S
C1134 C1131 1.363 . S
C1134 N1132 1.356 . S
C1135 C1129 1.363 . S
C1135 C1130 1.379 . S
C1135 N1133 1.356 . S
N1136 C1128 1.356 . S
N1136 H1142 0.984 . S
N1136 H1143 0.984 . S
N1137 C1130 1.356 1_545 S
N1137 H1140 0.984 . S
N1137 H1141 0.985 . S
H1138 N1133 0.984 . S
H1139 N1133 0.985 . S
H1140 N1137 0.984 . S
H1141 N1137 0.985 . S
H1142 N1136 0.984 . S
H1143 N1136 0.984 . S
H1144 N1132 0.984 . S
H1145 N1132 0.985 . S
C1146 C1147 1.363 . S
C1146 C1152 1.379 1_545 S
C1146 N1154 1.356 . S
C1147 C1146 1.363 . S
C1147 C1153 1.363 . S
C1148 C1149 1.363 1_545 S
C1148 C1153 1.379 . S
C1148 N1155 1.356 1_545 S
C1149 C1148 1.363 1_565 S
C1149 C1152 1.363 . S
N1150 C1152 1.356 . S
N1150 H1162 0.984 . S
N1150 H1163 0.985 . S
N1151 C1153 1.356 . S
N1151 H1156 0.984 . S
N1151 H1157 0.985 . S
C1152 C1146 1.379 1_565 S
C1152 C1149 1.363 . S
C1152 N1150 1.356 . S
C1153 C1147 1.363 . S
C1153 C1148 1.379 . S
C1153 N1151 1.356 . S
N1154 C1146 1.356 . S
N1154 H1160 0.984 . S
N1154 H1161 0.984 . S
N1155 C1148 1.356 1_565 S
N1155 H1158 0.984 . S
N1155 H1159 0.985 . S
H1156 N1151 0.984 . S
H1157 N1151 0.985 . S
H1158 N1155 0.984 . S
H1159 N1155 0.985 . S
H1160 N1154 0.984 . S
H1161 N1154 0.984 . S
H1162 N1150 0.984 . S
H1163 N1150 0.985 . S
C1164 C1165 1.363 1_545 S
C1164 C1170 1.379 . S
C1164 N1172 1.356 1_545 S
C1165 C1164 1.363 1_565 S
C1165 C1171 1.363 1_565 S
C1166 C1167 1.363 . S
C1166 C1171 1.379 . S
C1166 N1173 1.356 . S
C1167 C1166 1.363 . S
C1167 C1170 1.363 . S
N1168 C1170 1.356 . S
N1168 H1180 0.984 . S
N1168 H1181 0.985 . S
N1169 C1171 1.356 1_565 S
N1169 H1174 0.984 . S
N1169 H1175 0.985 . S
C1170 C1164 1.379 . S
C1170 C1167 1.363 . S
C1170 N1168 1.356 . S
C1171 C1165 1.363 1_545 S
C1171 C1166 1.379 . S
C1171 N1169 1.356 1_545 S
N1172 C1164 1.356 1_565 S
N1172 H1178 0.984 . S
N1172 H1179 0.984 . S
N1173 C1166 1.356 . S
N1173 H1176 0.984 . S
N1173 H1177 0.985 . S
H1174 N1169 0.984 . S
H1175 N1169 0.985 . S
H1176 N1173 0.984 . S
H1177 N1173 0.985 . S
H1178 N1172 0.984 . S
H1179 N1172 0.984 . S
H1180 N1168 0.984 . S
H1181 N1168 0.985 . S
C1182 C1183 1.363 . S
C1182 C1188 1.372 1_565 S
C1182 N1190 1.356 . S
C1183 C1182 1.363 . S
C1183 C1189 1.363 . S
C1184 C1185 1.363 1_565 S
C1184 C1189 1.379 . S
C1184 N1191 1.356 1_565 S
C1185 C1184 1.363 1_545 S
C1185 C1188 1.366 . S
N1186 C1188 1.362 . S
N1186 H1198 0.984 . S
N1186 H1199 0.985 . S
N1187 C1189 1.356 . S
N1187 H1192 0.984 . S
N1187 H1193 0.985 . S
C1188 C1182 1.372 1_545 S
C1188 C1185 1.366 . S
C1188 N1186 1.362 . S
C1189 C1183 1.363 . S
C1189 C1184 1.379 . S
C1189 N1187 1.356 . S
N1190 C1182 1.356 . S
N1190 H1196 0.984 . S
N1190 H1197 0.984 . S
N1191 C1184 1.356 1_545 S
N1191 H1194 0.984 . S
N1191 H1195 0.985 . S
H1192 N1187 0.984 . S
H1193 N1187 0.985 . S
H1194 N1191 0.984 . S
H1195 N1191 0.985 . S
H1196 N1190 0.984 . S
H1197 N1190 0.984 . S
H1198 N1186 0.984 . S
H1199 N1186 0.985 . S
C337 C19 1.427 . S
C339 C209 1.427 . S
C355 C41 1.427 . S
C357 C187 1.427 . S
C373 C251 1.427 . S
C375 C61 1.427 . S
C391 C82 1.427 . S
C393 C229 1.427 . S
C409 C292 1.427 . S
C411 C103 1.427 . S
C427 C271 1.427 . S
C429 C124 1.427 . S
C445 C335 1.427 . S
C447 C145 1.427 . S
C463 C166 1.427 . S
C465 C313 1.427 . S
C481 C46 1.308 1_545 S
C483 C4 1.308 1_565 S
C499 C67 1.308 1_565 S
C501 C28 1.308 1_545 S
C517 C130 1.308 1_565 S
C519 C88 1.308 1_545 S
C535 C109 1.308 1_565 S
C537 C151 1.308 1_545 S
C553 C214 1.308 . S
C555 C172 1.308 . S
C571 C238 1.308 . S
C573 C196 1.308 . S
C589 C256 1.308 . S
C591 C298 1.308 . S
C607 C277 1.308 . S
C609 C322 1.308 . S
C625 C112 1.325 . S
C627 C7 1.325 . S
C643 C91 1.325 . S
C645 C25 1.325 . S
C661 C49 1.325 . S
C663 C154 1.325 . S
C679 C133 1.325 . S
C681 C70 1.325 . S
C697 C175 1.325 . S
C699 C280 1.325 . S
C715 C259 1.325 . S
C717 C193 1.325 . S
C733 C217 1.325 . S
C735 C319 1.325 . S
C751 C301 1.325 . S
C753 C235 1.325 . S
C769 C37 1.437 . S
C771 C3 1.437 . S
C787 C66 1.437 . S
C789 C45 1.437 . S
C805 C108 1.437 . S
C807 C87 1.437 . S
C823 C129 1.437 . S
C825 C150 1.437 . S
C841 C205 1.437 . S
C843 C171 1.437 . S
C859 C247 1.437 . S
C861 C213 1.437 . S
C877 C255 1.437 . S
C879 C276 1.437 . S
C895 C297 1.437 . S
C897 C331 1.437 . S
C913 C16 1.313 . S
C915 C20 1.344 . S
C931 C24 1.313 . S
C933 C40 1.344 . S
C949 C58 1.313 . S
C951 C62 1.344 . S
C967 C83 1.344 . S
C969 C79 1.313 . S
C985 C100 1.313 . S
C987 C104 1.344 . S
C1003 C125 1.344 . S
C1005 C121 1.313 . S
C1021 C142 1.313 . S
C1023 C146 1.344 . S
C1039 C163 1.313 . S
C1041 C167 1.344 . S
C1057 C188 1.344 . S
C1059 C184 1.313 . S
C1075 C192 1.313 . S
C1077 C208 1.344 . S
C1093 C230 1.344 . S
C1095 C226 1.313 . S
C1111 C250 1.344 . S
C1113 C234 1.313 . S
C1129 C268 1.313 . S
C1131 C272 1.344 . S
C1147 C289 1.313 . S
C1149 C293 1.344 . S
C1165 C314 1.344 . S
C1167 C310 1.313 . S
C1183 C318 1.313 . S
C1185 C334 1.344 . S
