# Generated by pormake.
# Topology cdt, (3)-cn, num edge types: 1
# Building blocks:
#     Node 0, Type 0, BuildingBlock: OLANEW_clean_sbu_2, # of connection points: 3
#     Node 1, Type 0, BuildingBlock: OLANEW_clean_sbu_2, # of connection points: 3
#     Node 2, Type 0, BuildingBlock: OLANEW_clean_sbu_2, # of connection points: 3
#     Node 3, Type 0, BuildingBlock: OLANEW_clean_sbu_2, # of connection points: 3
#     Node 4, Type 0, BuildingBlock: OLANEW_clean_sbu_2, # of connection points: 3
#     Node 5, Type 0, BuildingBlock: OLANEW_clean_sbu_2, # of connection points: 3
#     Node 6, Type 0, BuildingBlock: OLANEW_clean_sbu_2, # of connection points: 3
#     Node 7, Type 0, BuildingBlock: OLANEW_clean_sbu_2, # of connection points: 3
#     Edge 8, Type (0, 0), BuildingBlock: ZUJKAS_clean_linker_0, # of connection points: 2
#     Edge 9, Type (0, 0), BuildingBlock: ZUJKAS_clean_linker_0, # of connection points: 2
#     Edge 10, Type (0, 0), BuildingBlock: ZUJKAS_clean_linker_0, # of connection points: 2
#     Edge 11, Type (0, 0), BuildingBlock: ZUJKAS_clean_linker_0, # of connection points: 2
#     Edge 12, Type (0, 0), BuildingBlock: ZUJKAS_clean_linker_0, # of connection points: 2
#     Edge 13, Type (0, 0), BuildingBlock: ZUJKAS_clean_linker_0, # of connection points: 2
#     Edge 14, Type (0, 0), BuildingBlock: ZUJKAS_clean_linker_0, # of connection points: 2
#     Edge 15, Type (0, 0), BuildingBlock: ZUJKAS_clean_linker_0, # of connection points: 2
#     Edge 16, Type (0, 0), BuildingBlock: ZUJKAS_clean_linker_0, # of connection points: 2
#     Edge 17, Type (0, 0), BuildingBlock: ZUJKAS_clean_linker_0, # of connection points: 2
#     Edge 18, Type (0, 0), BuildingBlock: ZUJKAS_clean_linker_0, # of connection points: 2
#     Edge 19, Type (0, 0), BuildingBlock: ZUJKAS_clean_linker_0, # of connection points: 2
# Relax obj value: 0.003
# Max RMSD: 0.044
# Mean RMSD: 0.044
data_MOF--net-cdt--node1-OLANEW_clean_sbu_2--edge1-ZUJKAS_clean_linker_0
_symmetry_space_group_name_H-M    P1
_symmetry_Int_Tables_number       1
_symmetry_cell_setting            triclinic
loop_
_symmetry_equiv_pos_as_xyz
'x, y, z'
_cell_length_a     56.987365
_cell_length_b     27.011907
_cell_length_c     63.208053
_cell_angle_alpha  89.887854
_cell_angle_beta   90.013235
_cell_angle_gamma 89.947081
loop_
_atom_site_label
_atom_site_type_symbol
_atom_site_fract_x
_atom_site_fract_y
_atom_site_fract_z
_atom_type_partial_charge
O0 O 0.42263 0.19406 0.12039 0.0
Cd1 Cd 0.41317 0.18203 0.08297 0.0
O2 O 0.39938 0.13319 0.13019 0.0
Cd3 Cd 0.38383 0.11825 0.09929 0.0
O4 O 0.35187 0.09743 0.08242 0.0
C5 C 0.33354 0.12158 0.0874 0.0
O6 O 0.33552 0.15842 0.10084 0.0
C7 C 0.41411 0.16674 0.13489 0.0
C8 C 0.42501 0.26373 0.05803 0.0
O9 O 0.40452 0.25968 0.06621 0.0
O10 O 0.43993 0.22922 0.06172 0.0
O11 O 0.05743 0.76478 0.12591 0.0
Cd12 Cd 0.07297 0.77436 0.09002 0.0
O13 O 0.0477 0.8432 0.12919 0.0
Cd14 Cd 0.0657 0.86409 0.10003 0.0
O15 O 0.09617 0.89408 0.08342 0.0
C16 C 0.10198 0.93832 0.08779 0.0
O17 O 0.08864 0.9639 0.10075 0.0
C18 C 0.04819 0.79946 0.13667 0.0
C19 C 0.05563 0.70232 0.06255 0.0
O20 O 0.07413 0.69453 0.07361 0.0
O21 O 0.0453 0.74426 0.06448 0.0
O22 O 0.42301 0.26937 0.36923 0.0
Cd23 Cd 0.41549 0.28578 0.40666 0.0
O24 O 0.38656 0.28622 0.36017 0.0
Cd25 Cd 0.37376 0.31143 0.39092 0.0
O26 O 0.34769 0.3545 0.4084 0.0
C27 C 0.32696 0.33739 0.40976 0.0
O28 O 0.32263 0.29314 0.40211 0.0
C29 C 0.40714 0.2723 0.35514 0.0
C30 C 0.43466 0.21186 0.43239 0.0
O31 O 0.41365 0.20839 0.4253 0.0
O32 O 0.44657 0.25037 0.42737 0.0
O33 O 0.04653 0.74344 0.37109 0.0
Cd34 Cd 0.05872 0.73332 0.40796 0.0
O35 O 0.05896 0.66954 0.36166 0.0
Cd36 Cd 0.07584 0.65019 0.39162 0.0
O37 O 0.10434 0.61316 0.40859 0.0
C38 C 0.12334 0.63613 0.41234 0.0
O39 O 0.12482 0.68326 0.40732 0.0
C40 C 0.04888 0.71017 0.35705 0.0
C41 C 0.03718 0.80344 0.43398 0.0
O42 O 0.0571 0.81217 0.42532 0.0
O43 O 0.02751 0.76146 0.4304 0.0
O44 O 0.50331 0.76788 0.87185 0.0
Cd45 Cd 0.49946 0.77364 0.91034 0.0
O46 O 0.53923 0.7948 0.87591 0.0
Cd47 Cd 0.57354 0.82345 0.86614 0.0
O48 O 0.60884 0.8522 0.86041 0.0
C49 C 0.6136 0.89657 0.86548 0.0
O50 O 0.597 0.92427 0.87373 0.0
C51 C 0.5228 0.78058 0.86371 0.0
C52 C 0.48684 0.68544 0.93041 0.0
O53 O 0.47121 0.71631 0.92412 0.0
O54 O 0.50843 0.6959 0.92686 0.0
O55 O 0.95617 0.2279 0.87037 0.0
Cd56 Cd 0.96311 0.22066 0.90846 0.0
O57 O 0.92115 0.19719 0.87571 0.0
Cd58 Cd 0.88688 0.16567 0.8676 0.0
O59 O 0.85127 0.13681 0.864 0.0
C60 C 0.84769 0.09333 0.85707 0.0
O61 O 0.86576 0.06588 0.85167 0.0
C62 C 0.9366 0.21356 0.86295 0.0
C63 C 0.97585 0.30861 0.92853 0.0
O64 O -0.00866 0.28047 0.92007 0.0
O65 O 0.95427 0.29563 0.92714 0.0
O66 O 0.54812 0.7684 0.62579 0.0
Cd67 Cd 0.55575 0.75586 0.58808 0.0
O68 O 0.5845 0.75019 0.63454 0.0
Cd69 Cd 0.59698 0.72817 0.60326 0.0
O70 O 0.6226 0.68037 0.58762 0.0
C71 C 0.63223 0.65011 0.60037 0.0
O72 O 0.62555 0.65051 0.62028 0.0
C73 C 0.56394 0.76366 0.63984 0.0
C74 C 0.53585 0.83055 0.56324 0.0
O75 O 0.52432 0.79124 0.56781 0.0
O76 O 0.5568 0.83453 0.57043 0.0
O77 O 0.90726 0.22719 0.62568 0.0
Cd78 Cd 0.89945 0.23959 0.58797 0.0
O79 O 0.86979 0.23113 0.6339 0.0
Cd80 Cd 0.85703 0.25187 0.60252 0.0
O81 O 0.83224 0.29826 0.58507 0.0
C82 C 0.83108 0.34285 0.59137 0.0
O83 O 0.8456 0.35742 0.60626 0.0
C84 C 0.89104 0.22491 0.63946 0.0
C85 C 0.92187 0.1687 0.56298 0.0
O86 O 0.932 0.20962 0.56761 0.0
O87 O 0.90113 0.16132 0.57019 0.0
H88 H 0.29121 0.16252 0.09737 0.0
H89 H 0.25228 0.12975 0.08961 0.0
H90 H 0.28333 0.01101 0.05369 0.0
H91 H 0.32255 0.04309 0.0617 0.0
H92 H 0.22817 0.10862 0.05179 0.0
H93 H 0.24536 0.93863 0.09934 0.0
H94 H 0.26437 0.99194 0.1003 0.0
H95 H 0.26551 0.95064 0.07809 0.0
C96 C 0.28983 0.12969 0.08765 0.0
C97 C 0.31002 0.10505 0.08039 0.0
C98 C 0.26753 0.11109 0.08318 0.0
C99 C 0.26495 0.06751 0.07139 0.0
C100 C 0.28498 0.04419 0.06317 0.0
H101 H 0.13561 0.89287 0.06358 0.0
H102 H 0.17488 0.92401 0.05516 0.0
C103 C 0.30736 0.06272 0.06767 0.0
C104 C 0.24132 0.04541 0.06891 0.0
H105 H 0.20773 0.9477 0.0849 0.0
C106 C 0.22373 0.07318 0.05882 0.0
C107 C 0.23559 -0.00089 0.07806 0.0
C108 C 0.25359 0.96836 0.08971 0.0
C109 C 0.20043 0.0564 0.05805 0.0
C110 C 0.19454 0.01108 0.06796 0.0
C111 C 0.2123 0.98239 0.07728 0.0
C112 C 0.16988 0.99468 0.07058 0.0
C113 C 0.18231 0.0876 0.04683 0.0
C114 C 0.15399 0.02422 0.08189 0.0
C115 C 0.13158 0.00661 0.0867 0.0
C116 C 0.12467 0.95885 0.08048 0.0
C117 C 0.14037 0.92984 0.06859 0.0
C118 C 0.16281 0.94755 0.06377 0.0
H119 H 0.19048 0.11117 0.03443 0.0
H120 H 0.16858 0.06426 0.03939 0.0
H121 H 0.17374 0.11249 0.05845 0.0
H122 H 0.15922 0.0602 0.08777 0.0
H123 H 0.11998 0.02987 0.09594 0.0
H124 H 0.2806 0.31293 0.41317 0.0
H125 H 0.2477 0.36845 0.42039 0.0
H126 H 0.29584 0.48927 0.43014 0.0
H127 H 0.32895 0.43414 0.42272 0.0
H128 H 0.23605 0.43285 0.45536 0.0
H129 H 0.25363 0.53465 0.38035 0.0
H130 H 0.26672 0.47531 0.38614 0.0
H131 H 0.27775 0.53028 0.39858 0.0
C132 C 0.28427 0.35115 0.41711 0.0
C133 C 0.30741 0.36924 0.41709 0.0
C134 C 0.26542 0.38279 0.42129 0.0
C135 C 0.26934 0.43307 0.42546 0.0
C136 C 0.29246 0.4507 0.42663 0.0
H137 H 0.16695 0.67339 0.4209 0.0
H138 H 0.20291 0.62673 0.42799 0.0
C139 C 0.31135 0.41908 0.42246 0.0
C140 C 0.24914 0.46743 0.42701 0.0
H141 H 0.22145 0.56092 0.40054 0.0
C142 C 0.2329 0.46116 0.44349 0.0
C143 C 0.24513 0.50427 0.41149 0.0
C144 C 0.26158 0.51152 0.39302 0.0
C145 C 0.2126 0.4906 0.44477 0.0
C146 C 0.20826 0.52649 0.4289 0.0
C147 C 0.22483 0.53353 0.41274 0.0
C148 C 0.18602 0.55502 0.42776 0.0
C149 C 0.19604 0.48304 0.4631 0.0
C150 C 0.1645 0.53029 0.42559 0.0
C151 C 0.1439 0.55685 0.42161 0.0
C152 C 0.14446 0.60869 0.41947 0.0
C153 C 0.16589 0.63351 0.42242 0.0
C154 C 0.18648 0.6069 0.42647 0.0
H155 H 0.20525 0.46691 0.47699 0.0
H156 H 0.18767 0.5184 0.46791 0.0
H157 H 0.18203 0.45682 0.45833 0.0
H158 H 0.16377 0.49024 0.42602 0.0
H159 H 0.12772 0.53652 0.41935 0.0
H160 H 0.834 0.00135 0.84382 0.0
H161 H 0.79417 0.96762 0.84288 0.0
H162 H 0.76702 0.10547 0.86699 0.0
H163 H 0.80667 0.13973 0.86775 0.0
H164 H 0.76359 0.95596 0.87692 0.0
H165 H 0.72484 0.07923 0.8159 0.0
H166 H 0.75611 0.07367 0.81986 0.0
H167 H 0.73881 0.11169 0.83721 0.0
C168 C 0.81954 0.02467 0.84876 0.0
C169 C 0.82353 0.07331 0.85581 0.0
C170 C 0.7968 0.0053 0.84822 0.0
C171 C 0.77762 0.03427 0.85457 0.0
C172 C 0.78152 0.08282 0.86158 0.0
H173 H 0.62949 0.98925 0.8752 0.0
H174 H 0.6695 0.02098 0.87195 0.0
C175 C 0.80423 0.10224 0.86213 0.0
C176 C 0.75365 0.01299 0.85482 0.0
H177 H 0.69816 0.02943 0.83562 0.0
C178 C 0.74931 0.9717 0.86775 0.0
C179 C 0.73507 0.03372 0.84288 0.0
C180 C 0.73892 0.07674 0.82802 0.0
C181 C 0.72673 0.95138 0.86952 0.0
C182 C 0.7081 0.97246 0.85775 0.0
C183 C 0.71248 0.01343 0.84465 0.0
C184 C 0.68382 0.95315 0.85917 0.0
C185 C 0.72285 0.90849 0.88444 0.0
C186 C 0.67856 0.90473 0.85274 0.0
C187 C 0.6557 0.88641 0.85459 0.0
C188 C 0.63767 0.91633 0.86283 0.0
C189 C 0.64295 0.96516 0.86886 0.0
C190 C 0.6658 0.98341 0.86699 0.0
H191 H 0.73753 0.90432 0.89589 0.0
H192 H 0.70625 0.91318 0.89342 0.0
H193 H 0.72156 0.87375 0.87518 0.0
H194 H 0.69213 0.88108 0.84629 0.0
H195 H 0.65221 0.84874 0.84968 0.0
H196 H 0.65703 0.58602 0.62492 0.0
H197 H 0.68952 0.53289 0.61456 0.0
H198 H 0.683 0.58312 0.55001 0.0
H199 H 0.6505 0.63769 0.5604 0.0
H200 H 0.69137 0.45663 0.58592 0.0
H201 H 0.75219 0.60891 0.56312 0.0
H202 H 0.72539 0.62015 0.57753 0.0
H203 H 0.72438 0.60701 0.54971 0.0
C204 C 0.66241 0.5859 0.60849 0.0
C205 C 0.65126 0.6164 0.59351 0.0
C206 C 0.68099 0.55534 0.60258 0.0
C207 C 0.68887 0.55442 0.58157 0.0
C208 C 0.67747 0.58391 0.56639 0.0
H209 H 0.79731 0.32502 0.56126 0.0
H210 H 0.76286 0.37622 0.55328 0.0
C211 C 0.65884 0.61485 0.57233 0.0
C212 C 0.70928 0.52286 0.57611 0.0
H213 H 0.76738 0.52821 0.5631 0.0
C214 C 0.70793 0.47204 0.58059 0.0
C215 C 0.73084 0.54324 0.56923 0.0
C216 C 0.7335 0.59784 0.56473 0.0
C217 C 0.72782 0.44149 0.57959 0.0
C218 C 0.74959 0.46217 0.57338 0.0
C219 C 0.75065 0.51246 0.56775 0.0
C220 C 0.77186 0.43409 0.57549 0.0
C221 C 0.72564 0.38821 0.58659 0.0
C222 C 0.78897 0.45089 0.58972 0.0
C223 C 0.80875 0.42219 0.59408 0.0
C224 C 0.81182 0.37588 0.58435 0.0
C225 C 0.79532 0.36028 0.56919 0.0
C226 C 0.77557 0.38935 0.5647 0.0
H227 H 0.7087 0.38086 0.59471 0.0
H228 H 0.72664 0.36373 0.57254 0.0
H229 H 0.74015 0.37802 0.59749 0.0
H230 H 0.78654 0.48538 0.59818 0.0
H231 H 0.82116 0.43553 0.60573 0.0
H232 H 0.46772 0.28572 0.04065 0.0
H233 H 0.47793 0.35714 0.01865 0.0
H234 H 0.4066 0.40976 0.0226 0.0
H235 H 0.39633 0.33905 0.04494 0.0
H236 H 0.46028 0.38575 0.97999 0.0
H237 H 0.44374 0.53125 0.04001 0.0
H238 H 0.44572 0.46644 0.04676 0.0
H239 H 0.41911 0.49119 0.03564 0.0
C240 C 0.45422 0.31261 0.03693 0.0
C241 C 0.43124 0.30686 0.04467 0.0
C242 C 0.46009 0.35336 0.02433 0.0
C243 C 0.44313 0.38919 0.01927 0.0
C244 C 0.4201 0.3832 0.02672 0.0
H245 H 0.44301 0.65693 0.94312 0.0
H246 H 0.4324 0.58357 0.96379 0.0
C247 C 0.41423 0.34258 0.0394 0.0
C248 C 0.44944 0.43228 0.00584 0.0
H249 H 0.45062 0.55868 0.00483 0.0
C250 C 0.45828 0.42356 0.98544 0.0
C251 C 0.44682 0.48159 0.01301 0.0
C252 C 0.43855 0.49332 0.03512 0.0
C253 C 0.4642 0.46286 0.97189 0.0
C254 C 0.46143 0.51209 0.97902 0.0
C255 C 0.4526 0.52084 -0.00061 0.0
C256 C 0.46783 0.55517 0.9657 0.0
C257 C 0.47298 0.45149 0.94991 0.0
C258 C 0.49129 0.56348 0.95998 0.0
C259 C 0.49743 0.60541 0.94822 0.0
C260 C 0.48021 0.63983 0.942 0.0
C261 C 0.45669 0.63109 0.9476 0.0
C262 C 0.45059 0.58926 0.95943 0.0
H263 H 0.46902 0.41279 0.9452 0.0
H264 H 0.46506 0.47709 0.93813 0.0
H265 H 0.4923 0.45652 0.94944 0.0
H266 H 0.50491 0.538 0.96495 0.0
H267 H 0.51572 0.61112 0.94423 0.0
H268 H 0.94766 0.37051 0.95148 0.0
H269 H 0.95961 0.44189 0.97271 0.0
H270 H 0.03151 0.41962 0.95375 0.0
H271 H 0.01977 0.34831 0.93245 0.0
H272 H -0.00737 0.43864 0.0066 0.0
H273 H 0.01981 0.56927 0.94325 0.0
H274 H 0.00124 0.51637 0.93826 0.0
H275 H 0.03236 0.50838 0.94131 0.0
C276 C 0.96598 0.3811 0.95163 0.0
C277 C -0.01723 0.35372 0.94026 0.0
C278 C 0.97277 0.42185 0.96379 0.0
C279 C -0.00361 0.43628 0.96462 0.0
C280 C 0.01314 0.40955 0.95304 0.0
H281 H 0.07123 0.60727 0.05782 0.0
H282 H 0.05586 0.54372 0.03404 0.0
C283 C 0.0064 0.36866 0.94096 0.0
C284 C 0.00375 0.47744 0.97856 0.0
H285 H 0.03016 0.5909 0.97854 0.0
C286 C 0.0007 0.47208 0.00048 0.0
C287 C 0.01409 0.52113 0.97048 0.0
C288 C 0.01692 0.52955 0.94702 0.0
C289 C 0.00829 0.50876 0.01459 0.0
C290 C 0.01935 0.55167 0.00656 0.0
C291 C 0.02184 0.5577 0.98462 0.0
C292 C 0.02872 0.59041 0.02077 0.0
C293 C 0.00439 0.50145 0.038 0.0
C294 C 0.01876 0.6379 0.0209 0.0
C295 C 0.02746 0.67431 0.03451 0.0
C296 C 0.04644 0.66394 0.04805 0.0
C297 C 0.05656 0.61644 0.04764 0.0
C298 C 0.04776 0.58002 0.03413 0.0
H299 H -0.00885 0.47223 0.04124 0.0
H300 H 0.02115 0.49015 0.04553 0.0
H301 H -0.00147 0.53646 0.04553 0.0
H302 H 0.00411 0.64662 0.01062 0.0
H303 H 0.01933 0.71057 0.03438 0.0
H304 H 0.47853 0.20894 0.44994 0.0
H305 H 0.49548 0.14353 0.47201 0.0
H306 H 0.43095 0.06089 0.46781 0.0
H307 H 0.41393 0.12581 0.44555 0.0
H308 H 0.47929 0.10718 0.51111 0.0
H309 H 0.4809 0.95948 0.45012 0.0
H310 H 0.47688 0.02403 0.44358 0.0
H311 H 0.45279 0.98835 0.45378 0.0
C312 C 0.46796 0.17679 0.45364 0.0
C313 C 0.44491 0.17249 0.44589 0.0
C314 C 0.47767 0.13948 0.46627 0.0
C315 C 0.4646 0.09706 0.47128 0.0
C316 C 0.44151 0.09288 0.46378 0.0
H317 H 0.49189 0.83292 0.54586 0.0
H318 H 0.47455 0.89841 0.52407 0.0
C319 C 0.43176 0.13016 0.45115 0.0
C320 C 0.47498 0.05771 0.48474 0.0
H321 H 0.4903 0.93545 0.48521 0.0
C322 C 0.4818 0.06967 0.50544 0.0
C323 C 0.47816 0.00881 0.47729 0.0
C324 C 0.472 0.99432 0.45492 0.0
C325 C 0.4914 0.03381 0.51904 0.0
C326 C 0.49462 0.98492 0.51158 0.0
C327 C 0.48777 0.97295 0.49088 0.0
C328 C 0.50517 0.94564 0.52497 0.0
C329 C 0.49752 0.04831 0.54141 0.0
C330 C 0.52823 0.95025 0.5325 0.0
C331 C 0.53819 0.91294 0.54498 0.0
C332 C 0.5253 0.87014 0.55004 0.0
C333 C 0.50227 0.86545 0.5423 0.0
C334 C 0.49233 0.9028 0.52983 0.0
H335 H 0.48843 0.08288 0.54626 0.0
H336 H 0.49286 0.01841 0.55273 0.0
H337 H 0.51671 0.05482 0.54252 0.0
H338 H 0.53862 0.98255 0.52858 0.0
H339 H 0.55601 0.91759 0.55058 0.0
H340 H 0.96537 0.17436 0.54483 0.0
H341 H -0.01524 0.11242 0.52267 0.0
H342 H 0.92495 0.01593 0.52924 0.0
H343 H 0.90528 0.07786 0.55116 0.0
H344 H -0.00321 0.01507 0.53263 0.0
H345 H 0.93445 0.02129 0.46519 0.0
H346 H 0.93508 0.06826 0.48546 0.0
H347 H 0.92085 0.00999 0.49036 0.0
C348 C 0.95628 0.14005 0.5415 0.0
C349 C 0.93372 0.13116 0.54967 0.0
C350 C 0.96741 0.10469 0.52885 0.0
C351 C 0.95615 0.05992 0.52404 0.0
C352 C 0.93375 0.05067 0.53238 0.0
H353 H -0.00554 0.79683 0.4535 0.0
H354 H 0.97533 0.85894 0.47576 0.0
C355 C 0.92259 0.08602 0.54501 0.0
C356 C 0.96807 0.02244 0.51071 0.0
H357 H 0.963 0.95723 0.4647 0.0
C358 C -0.01052 0.00257 0.51773 0.0
C359 C 0.95847 0.00621 0.49128 0.0
C360 C 0.93606 0.02781 0.48248 0.0
C361 C 0.00134 0.9662 0.50602 0.0
C362 C -0.00831 0.94986 0.48663 0.0
C363 C 0.9703 0.96976 0.4796 0.0
C364 C 0.00354 0.9122 0.47336 0.0
C365 C 0.02384 0.94479 0.5147 0.0
C366 C 0.02563 0.92179 0.46447 0.0
C367 C 0.03661 0.88641 0.45174 0.0
C368 C 0.02564 0.84082 0.44759 0.0
C369 C 0.00343 0.83148 0.45643 0.0
C370 C -0.00755 0.86693 0.46914 0.0
H371 H 0.0258 0.95218 0.5319 0.0
H372 H 0.02462 0.90418 0.51208 0.0
H373 H 0.03896 0.96192 0.5064 0.0
H374 H 0.03429 0.95688 0.46722 0.0
H375 H 0.05366 0.89489 0.44509 0.0
H376 H 0.3763 0.26792 0.32223 0.0
H377 H 0.38465 0.25038 0.28521 0.0
H378 H 0.45816 0.23364 0.29984 0.0
H379 H 0.44989 0.25039 0.33723 0.0
H380 H 0.41343 0.30235 0.25798 0.0
H381 H 0.44333 0.10721 0.26676 0.0
H382 H 0.42816 0.13971 0.2876 0.0
H383 H 0.45856 0.15231 0.28248 0.0
C384 C 0.39426 0.26028 0.31768 0.0
C385 C 0.41242 0.26045 0.33275 0.0
C386 C 0.399 0.25035 0.29646 0.0
C387 C 0.42198 0.24033 0.28979 0.0
C388 C 0.44023 0.24049 0.30471 0.0
H389 H 0.44451 0.2355 0.15153 0.0
H390 H 0.45113 0.25394 0.18902 0.0
C391 C 0.43548 0.25025 0.32605 0.0
C392 C 0.42648 0.23062 0.26706 0.0
H393 H 0.44231 0.14003 0.23226 0.0
C394 C 0.42 0.26708 0.25232 0.0
C395 C 0.43496 0.18447 0.25979 0.0
C396 C 0.44152 0.14342 0.27491 0.0
C397 C 0.42087 0.25804 0.23048 0.0
C398 C 0.42896 0.21156 0.22318 0.0
C399 C 0.43628 0.17573 0.23791 0.0
C400 C 0.42738 0.19751 0.20055 0.0
C401 C 0.41189 0.29734 0.21551 0.0
C402 C 0.41266 0.15834 0.19464 0.0
C403 C 0.40903 0.14742 0.17333 0.0
C404 C 0.42003 0.17552 0.15742 0.0
C405 C 0.4356 0.21343 0.16338 0.0
C406 C 0.43932 0.22418 0.18479 0.0
H407 H 0.40197 0.32679 0.22389 0.0
H408 H 0.42696 0.31497 0.20734 0.0
H409 H 0.40029 0.28085 0.20329 0.0
H410 H 0.40332 0.13719 0.20654 0.0
H411 H 0.39703 0.11778 0.16937 0.0
H412 H 0.02988 0.79514 0.34039 0.0
H413 H 0.02111 0.81246 0.30317 0.0
H414 H 0.04249 0.6644 0.28653 0.0
H415 H 0.05099 0.64652 0.32355 0.0
H416 H 0.05406 0.80999 0.27156 0.0
H417 H -0.01781 0.67965 0.25279 0.0
H418 H -0.00981 0.69523 0.27962 0.0
H419 H 0.00674 0.6497 0.26517 0.0
C420 C 0.03231 0.76597 0.32886 0.0
C421 C 0.04122 0.71948 0.33497 0.0
C422 C 0.02728 0.77594 0.30761 0.0
C423 C 0.03084 0.73952 0.29211 0.0
C424 C 0.03908 0.6927 0.29825 0.0
H425 H 0.05155 0.71331 0.15935 0.0
H426 H 0.04372 0.70158 0.19703 0.0
C427 C 0.04413 0.6827 0.31945 0.0
C428 C 0.02842 0.75177 0.26934 0.0
H429 H 0.00367 0.71238 0.22312 0.0
C430 C 0.04272 0.7893 0.26101 0.0
C431 C 0.01371 0.72452 0.25561 0.0
C432 C -0.00284 0.68535 0.26378 0.0
C433 C 0.04359 0.79872 0.23919 0.0
C434 C 0.0294 0.77046 0.22537 0.0
C435 C 0.01453 0.73396 0.23375 0.0
C436 C 0.03106 0.77615 0.20209 0.0
C437 C 0.06058 0.83717 0.23105 0.0
C438 C 0.02571 0.82142 0.19229 0.0
C439 C 0.03029 0.82839 0.17076 0.0
C440 C 0.04014 0.79002 0.15861 0.0
C441 C 0.04408 0.74373 0.16823 0.0
C442 C 0.03959 0.73691 0.18978 0.0
H443 H 0.07368 0.8479 0.24322 0.0
H444 H 0.07009 0.82336 0.21691 0.0
H445 H 0.05072 0.87091 0.22639 0.0
H446 H 0.01866 0.85185 0.20144 0.0
H447 H 0.02682 0.86434 0.16382 0.0
H448 H 0.52139 0.78654 0.65781 0.0
H449 H 0.5125 0.79539 0.69557 0.0
H450 H 0.58499 0.76648 0.7108 0.0
H451 H 0.5941 0.75816 0.67331 0.0
H452 H 0.51878 0.72353 0.72715 0.0
H453 H 0.57096 0.89149 0.74479 0.0
H454 H 0.56351 0.87332 0.71814 0.0
H455 H 0.58757 0.84406 0.73173 0.0
C456 C 0.53549 0.78264 0.66918 0.0
C457 C 0.55848 0.77179 0.6625 0.0
C458 C 0.53036 0.78762 0.69074 0.0
C459 C 0.54815 0.7823 0.70595 0.0
C460 C 0.57109 0.7718 0.69932 0.0
H461 H 0.56281 0.76222 0.84105 0.0
H462 H 0.56762 0.76436 0.80261 0.0
C463 C 0.57623 0.76676 0.67784 0.0
C464 C 0.54268 0.78507 0.72884 0.0
H465 H 0.5581 0.84395 0.77452 0.0
C466 C 0.52713 0.75023 0.7375 0.0
C467 C 0.55366 0.81988 0.74228 0.0
C468 C 0.56969 0.85962 0.73376 0.0
C469 C 0.52292 0.74807 0.75937 0.0
C470 C 0.53432 0.78219 0.77286 0.0
C471 C 0.54949 0.81768 0.76415 0.0
C472 C 0.53118 0.78104 0.79612 0.0
C473 C 0.507 0.70821 0.76796 0.0
C474 C 0.50912 0.78995 0.80521 0.0
C475 C 0.5064 0.78931 0.8272 0.0
C476 C 0.52576 0.78041 0.84047 0.0
C477 C 0.54777 0.77107 0.83131 0.0
C478 C 0.55048 0.7717 0.80933 0.0
H479 H 0.50399 0.67827 0.75624 0.0
H480 H 0.51445 0.69161 0.78258 0.0
H481 H 0.48974 0.72473 0.77198 0.0
H482 H 0.49406 0.79793 0.79532 0.0
H483 H 0.48922 0.7966 0.83383 0.0
H484 H 0.93447 0.21403 0.65773 0.0
H485 H 0.94355 0.20703 0.69552 0.0
H486 H 0.86973 0.21387 0.71024 0.0
H487 H 0.86047 0.22008 0.67268 0.0
H488 H 0.93297 0.27526 0.72674 0.0
H489 H 0.89109 0.09497 0.74477 0.0
H490 H 0.89708 0.11513 0.71806 0.0
H491 H 0.87166 0.13777 0.73188 0.0
C492 C 0.92015 0.21339 0.66899 0.0
C493 C 0.89673 0.21747 0.66214 0.0
C494 C 0.92538 0.20948 0.69057 0.0
C495 C 0.9073 0.20922 0.70566 0.0
C496 C 0.88393 0.21286 0.69886 0.0
H497 H 0.89502 0.22587 0.84161 0.0
H498 H 0.88877 0.22367 0.80332 0.0
C499 C 0.87869 0.21672 0.67734 0.0
C500 C 0.9128 0.20802 0.72859 0.0
H501 H 0.90144 0.1452 0.7744 0.0
C502 C 0.92631 0.24654 0.73714 0.0
C503 C 0.90401 0.17059 0.74212 0.0
C504 C 0.89034 0.12701 0.73373 0.0
C505 C 0.93069 0.24943 0.75896 0.0
C506 C 0.92156 0.21247 0.77251 0.0
C507 C 0.90831 0.17361 0.76395 0.0
C508 C 0.92545 0.21359 0.79567 0.0
C509 C 0.94448 0.29275 0.76744 0.0
C510 C 0.94812 0.20837 0.80402 0.0
C511 C 0.95168 0.20884 0.82589 0.0
C512 C 0.93259 0.21402 0.83982 0.0
C513 C 0.90994 0.21979 0.83138 0.0
C514 C 0.90638 0.21919 0.8095 0.0
H515 H 0.94573 0.32335 0.75572 0.0
H516 H 0.93634 0.30727 0.78214 0.0
H517 H 0.96255 0.28039 0.77132 0.0
H518 H 0.96304 0.20342 0.79361 0.0
H519 H 0.96935 0.20436 0.83193 0.0
loop_
_geom_bond_atom_site_label_1
_geom_bond_atom_site_label_2
_geom_bond_distance
_geom_bond_site_symmetry_2
_ccdc_geom_bond_type
O0 Cd1 2.300 . S
O0 C7 1.275 . S
Cd1 O0 2.300 . S
Cd1 O9 2.381 . S
Cd1 O10 2.378 . S
O2 Cd3 2.385 . S
O2 C7 1.255 . S
Cd3 O2 2.385 . S
Cd3 O4 2.317 . S
O4 Cd3 2.317 . S
O4 C5 1.232 . S
C5 O4 1.232 . S
C5 O6 1.218 . S
O6 C5 1.218 . S
C7 O0 1.275 . S
C7 O2 1.255 . S
C8 O9 1.258 . S
C8 O10 1.256 . S
O9 Cd1 2.381 . S
O9 C8 1.258 . S
O10 Cd1 2.378 . S
O10 C8 1.256 . S
O11 Cd12 2.300 . S
O11 C18 1.275 . S
Cd12 O11 2.300 . S
Cd12 O20 2.381 . S
Cd12 O21 2.378 . S
O13 Cd14 2.385 . S
O13 C18 1.255 . S
Cd14 O13 2.385 . S
Cd14 O15 2.317 . S
O15 Cd14 2.317 . S
O15 C16 1.232 . S
C16 O15 1.232 . S
C16 O17 1.218 . S
O17 C16 1.218 . S
C18 O11 1.275 . S
C18 O13 1.255 . S
C19 O20 1.258 . S
C19 O21 1.256 . S
O20 Cd12 2.381 . S
O20 C19 1.258 . S
O21 Cd12 2.378 . S
O21 C19 1.256 . S
O22 Cd23 2.300 . S
O22 C29 1.275 . S
Cd23 O22 2.300 . S
Cd23 O31 2.381 . S
Cd23 O32 2.378 . S
O24 Cd25 2.385 . S
O24 C29 1.255 . S
Cd25 O24 2.385 . S
Cd25 O26 2.317 . S
O26 Cd25 2.317 . S
O26 C27 1.232 . S
C27 O26 1.232 . S
C27 O28 1.218 . S
O28 C27 1.218 . S
C29 O22 1.275 . S
C29 O24 1.255 . S
C30 O31 1.258 . S
C30 O32 1.256 . S
O31 Cd23 2.381 . S
O31 C30 1.258 . S
O32 Cd23 2.378 . S
O32 C30 1.256 . S
O33 Cd34 2.300 . S
O33 C40 1.275 . S
Cd34 O33 2.300 . S
Cd34 O42 2.381 . S
Cd34 O43 2.378 . S
O35 Cd36 2.385 . S
O35 C40 1.255 . S
Cd36 O35 2.385 . S
Cd36 O37 2.317 . S
O37 Cd36 2.317 . S
O37 C38 1.232 . S
C38 O37 1.232 . S
C38 O39 1.218 . S
O39 C38 1.218 . S
C40 O33 1.275 . S
C40 O35 1.255 . S
C41 O42 1.258 . S
C41 O43 1.256 . S
O42 Cd34 2.381 . S
O42 C41 1.258 . S
O43 Cd34 2.378 . S
O43 C41 1.256 . S
O44 Cd45 2.300 . S
O44 C51 1.275 . S
Cd45 O44 2.300 . S
Cd45 O53 2.381 . S
Cd45 O54 2.378 . S
O46 Cd47 2.385 . S
O46 C51 1.255 . S
Cd47 O46 2.385 . S
Cd47 O48 2.317 . S
O48 Cd47 2.317 . S
O48 C49 1.232 . S
C49 O48 1.232 . S
C49 O50 1.218 . S
O50 C49 1.218 . S
C51 O44 1.275 . S
C51 O46 1.255 . S
C52 O53 1.258 . S
C52 O54 1.256 . S
O53 Cd45 2.381 . S
O53 C52 1.258 . S
O54 Cd45 2.378 . S
O54 C52 1.256 . S
O55 Cd56 2.300 . S
O55 C62 1.275 . S
Cd56 O55 2.300 . S
Cd56 O64 2.381 . S
Cd56 O65 2.378 . S
O57 Cd58 2.385 . S
O57 C62 1.255 . S
Cd58 O57 2.385 . S
Cd58 O59 2.317 . S
O59 Cd58 2.317 . S
O59 C60 1.232 . S
C60 O59 1.232 . S
C60 O61 1.218 . S
O61 C60 1.218 . S
C62 O55 1.275 . S
C62 O57 1.255 . S
C63 O64 1.258 . S
C63 O65 1.256 . S
O64 Cd56 2.381 . S
O64 C63 1.258 . S
O65 Cd56 2.378 . S
O65 C63 1.256 . S
O66 Cd67 2.300 . S
O66 C73 1.275 . S
Cd67 O66 2.300 . S
Cd67 O75 2.381 . S
Cd67 O76 2.378 . S
O68 Cd69 2.385 . S
O68 C73 1.255 . S
Cd69 O68 2.385 . S
Cd69 O70 2.317 . S
O70 Cd69 2.317 . S
O70 C71 1.232 . S
C71 O70 1.232 . S
C71 O72 1.218 . S
O72 C71 1.218 . S
C73 O66 1.275 . S
C73 O68 1.255 . S
C74 O75 1.258 . S
C74 O76 1.256 . S
O75 Cd67 2.381 . S
O75 C74 1.258 . S
O76 Cd67 2.378 . S
O76 C74 1.256 . S
O77 Cd78 2.300 . S
O77 C84 1.275 . S
Cd78 O77 2.300 . S
Cd78 O86 2.381 . S
Cd78 O87 2.378 . S
O79 Cd80 2.385 . S
O79 C84 1.255 . S
Cd80 O79 2.385 . S
Cd80 O81 2.317 . S
O81 Cd80 2.317 . S
O81 C82 1.232 . S
C82 O81 1.232 . S
C82 O83 1.218 . S
O83 C82 1.218 . S
C84 O77 1.275 . S
C84 O79 1.255 . S
C85 O86 1.258 . S
C85 O87 1.256 . S
O86 Cd78 2.381 . S
O86 C85 1.258 . S
O87 Cd78 2.378 . S
O87 C85 1.256 . S
H88 C96 0.929 . S
H89 C98 0.930 . S
H90 C100 0.930 . S
H91 C103 0.929 . S
H92 C106 0.930 . S
H93 C108 0.960 . S
H94 C108 0.960 . S
H95 C108 0.960 . S
C96 H88 0.929 . S
C96 C97 1.377 . S
C96 C98 1.384 . S
C97 C96 1.377 . S
C97 C103 1.390 . S
C98 H89 0.930 . S
C98 C96 1.384 . S
C98 C99 1.372 . S
C99 C98 1.372 . S
C99 C100 1.400 . S
C99 C104 1.490 . S
C100 H90 0.930 . S
C100 C99 1.400 . S
C100 C103 1.386 . S
H101 C117 0.930 . S
H102 C118 0.931 . S
C103 H91 0.929 . S
C103 C97 1.390 . S
C103 C100 1.386 . S
C104 C99 1.490 . S
C104 C106 1.395 . S
C104 C107 1.403 1_545 S
H105 C111 0.930 . S
C106 H92 0.930 . S
C106 C104 1.395 . S
C106 C109 1.403 . S
C107 C104 1.403 1_565 S
C107 C108 1.524 . S
C107 C111 1.400 . S
C108 H93 0.960 . S
C108 H94 0.960 . S
C108 H95 0.960 . S
C108 C107 1.524 . S
C109 C106 1.403 . S
C109 C110 1.392 1_545 S
C109 C113 1.495 . S
C110 C109 1.392 1_565 S
C110 C111 1.385 . S
C110 C112 1.478 . S
C111 H105 0.930 . S
C111 C107 1.400 . S
C111 C110 1.385 . S
C112 C110 1.478 . S
C112 C114 1.381 . S
C112 C118 1.383 . S
C113 C109 1.495 . S
C113 H119 0.959 . S
C113 H120 0.961 . S
C113 H121 0.960 . S
C114 C112 1.381 . S
C114 C115 1.394 . S
C114 H122 0.930 . S
C115 C114 1.394 . S
C115 C116 1.383 . S
C115 H123 0.929 . S
C116 C115 1.383 . S
C116 C117 1.377 . S
C117 H101 0.930 . S
C117 C116 1.377 . S
C117 C118 1.379 . S
C118 H102 0.931 . S
C118 C112 1.383 . S
C118 C117 1.379 . S
H119 C113 0.959 . S
H120 C113 0.961 . S
H121 C113 0.960 . S
H122 C114 0.930 . S
H123 C115 0.929 . S
H124 C132 0.929 . S
H125 C134 0.930 . S
H126 C136 0.930 . S
H127 C139 0.929 . S
H128 C142 0.930 . S
H129 C144 0.960 . S
H130 C144 0.960 . S
H131 C144 0.960 . S
C132 H124 0.929 . S
C132 C133 1.377 . S
C132 C134 1.384 . S
C133 C132 1.377 . S
C133 C139 1.390 . S
C134 H125 0.930 . S
C134 C132 1.384 . S
C134 C135 1.372 . S
C135 C134 1.372 . S
C135 C136 1.400 . S
C135 C140 1.490 . S
C136 H126 0.930 . S
C136 C135 1.400 . S
C136 C139 1.386 . S
H137 C153 0.930 . S
H138 C154 0.931 . S
C139 H127 0.929 . S
C139 C133 1.390 . S
C139 C136 1.386 . S
C140 C135 1.490 . S
C140 C142 1.395 . S
C140 C143 1.403 . S
H141 C147 0.930 . S
C142 H128 0.930 . S
C142 C140 1.395 . S
C142 C145 1.403 . S
C143 C140 1.403 . S
C143 C144 1.524 . S
C143 C147 1.400 . S
C144 H129 0.960 . S
C144 H130 0.960 . S
C144 H131 0.960 . S
C144 C143 1.524 . S
C145 C142 1.403 . S
C145 C146 1.392 . S
C145 C149 1.495 . S
C146 C145 1.392 . S
C146 C147 1.385 . S
C146 C148 1.478 . S
C147 H141 0.930 . S
C147 C143 1.400 . S
C147 C146 1.385 . S
C148 C146 1.478 . S
C148 C150 1.381 . S
C148 C154 1.383 . S
C149 C145 1.495 . S
C149 H155 0.959 . S
C149 H156 0.961 . S
C149 H157 0.960 . S
C150 C148 1.381 . S
C150 C151 1.394 . S
C150 H158 0.930 . S
C151 C150 1.394 . S
C151 C152 1.383 . S
C151 H159 0.929 . S
C152 C151 1.383 . S
C152 C153 1.377 . S
C153 H137 0.930 . S
C153 C152 1.377 . S
C153 C154 1.379 . S
C154 H138 0.931 . S
C154 C148 1.383 . S
C154 C153 1.379 . S
H155 C149 0.959 . S
H156 C149 0.961 . S
H157 C149 0.960 . S
H158 C150 0.930 . S
H159 C151 0.929 . S
H160 C168 0.929 . S
H161 C170 0.930 1_565 S
H162 C172 0.930 . S
H163 C175 0.929 . S
H164 C178 0.930 . S
H165 C180 0.960 . S
H166 C180 0.960 . S
H167 C180 0.960 . S
C168 H160 0.929 . S
C168 C169 1.377 . S
C168 C170 1.384 . S
C169 C168 1.377 . S
C169 C175 1.390 . S
C170 H161 0.930 1_545 S
C170 C168 1.384 . S
C170 C171 1.372 . S
C171 C170 1.372 . S
C171 C172 1.400 . S
C171 C176 1.490 . S
C172 H162 0.930 . S
C172 C171 1.400 . S
C172 C175 1.386 . S
H173 C189 0.930 . S
H174 C190 0.937 . S
C175 H163 0.929 . S
C175 C169 1.390 . S
C175 C172 1.386 . S
C176 C171 1.490 . S
C176 C178 1.395 1_545 S
C176 C179 1.403 . S
H177 C183 0.930 . S
C178 H164 0.930 . S
C178 C176 1.395 1_565 S
C178 C181 1.403 . S
C179 C176 1.403 . S
C179 C180 1.524 . S
C179 C183 1.400 . S
C180 H165 0.960 . S
C180 H166 0.960 . S
C180 H167 0.960 . S
C180 C179 1.524 . S
C181 C178 1.403 . S
C181 C182 1.392 . S
C181 C185 1.495 . S
C182 C181 1.392 . S
C182 C183 1.385 1_565 S
C182 C184 1.478 . S
C183 H177 0.930 . S
C183 C179 1.400 . S
C183 C182 1.385 1_545 S
C184 C182 1.478 . S
C184 C186 1.381 . S
C184 C190 1.383 . S
C185 C181 1.495 . S
C185 H191 0.959 . S
C185 H192 0.961 . S
C185 H193 0.960 . S
C186 C184 1.381 . S
C186 C187 1.394 . S
C186 H194 0.930 . S
C187 C186 1.394 . S
C187 C188 1.383 . S
C187 H195 0.929 . S
C188 C187 1.383 . S
C188 C189 1.377 . S
C189 H173 0.930 . S
C189 C188 1.377 . S
C189 C190 1.379 . S
C190 H174 0.937 . S
C190 C184 1.383 . S
C190 C189 1.379 . S
H191 C185 0.959 . S
H192 C185 0.961 . S
H193 C185 0.960 . S
H194 C186 0.930 . S
H195 C187 0.929 . S
H196 C204 0.929 . S
H197 C206 0.930 . S
H198 C208 0.930 . S
H199 C211 0.929 . S
H200 C214 0.930 . S
H201 C216 0.960 . S
H202 C216 0.960 . S
H203 C216 0.960 . S
C204 H196 0.929 . S
C204 C205 1.377 . S
C204 C206 1.384 . S
C205 C204 1.377 . S
C205 C211 1.390 . S
C206 H197 0.930 . S
C206 C204 1.384 . S
C206 C207 1.372 . S
C207 C206 1.372 . S
C207 C208 1.400 . S
C207 C212 1.490 . S
C208 H198 0.930 . S
C208 C207 1.400 . S
C208 C211 1.386 . S
H209 C225 0.930 . S
H210 C226 0.931 . S
C211 H199 0.929 . S
C211 C205 1.390 . S
C211 C208 1.386 . S
C212 C207 1.490 . S
C212 C214 1.395 . S
C212 C215 1.403 . S
H213 C219 0.930 . S
C214 H200 0.930 . S
C214 C212 1.395 . S
C214 C217 1.403 . S
C215 C212 1.403 . S
C215 C216 1.524 . S
C215 C219 1.400 . S
C216 H201 0.960 . S
C216 H202 0.960 . S
C216 H203 0.960 . S
C216 C215 1.524 . S
C217 C214 1.403 . S
C217 C218 1.392 . S
C217 C221 1.495 . S
C218 C217 1.392 . S
C218 C219 1.385 . S
C218 C220 1.478 . S
C219 H213 0.930 . S
C219 C215 1.400 . S
C219 C218 1.385 . S
C220 C218 1.478 . S
C220 C222 1.381 . S
C220 C226 1.383 . S
C221 C217 1.495 . S
C221 H227 0.959 . S
C221 H228 0.961 . S
C221 H229 0.960 . S
C222 C220 1.381 . S
C222 C223 1.394 . S
C222 H230 0.930 . S
C223 C222 1.394 . S
C223 C224 1.383 . S
C223 H231 0.929 . S
C224 C223 1.383 . S
C224 C225 1.377 . S
C225 H209 0.930 . S
C225 C224 1.377 . S
C225 C226 1.379 . S
C226 H210 0.931 . S
C226 C220 1.383 . S
C226 C225 1.379 . S
H227 C221 0.959 . S
H228 C221 0.961 . S
H229 C221 0.960 . S
H230 C222 0.930 . S
H231 C223 0.929 . S
H232 C240 0.929 . S
H233 C242 0.930 . S
H234 C244 0.930 . S
H235 C247 0.929 . S
H236 C250 0.930 . S
H237 C252 0.960 . S
H238 C252 0.960 . S
H239 C252 0.960 . S
C240 H232 0.929 . S
C240 C241 1.377 . S
C240 C242 1.384 . S
C241 C240 1.377 . S
C241 C247 1.390 . S
C242 H233 0.930 . S
C242 C240 1.384 . S
C242 C243 1.372 . S
C243 C242 1.372 . S
C243 C244 1.400 . S
C243 C248 1.490 . S
C244 H234 0.930 . S
C244 C243 1.400 . S
C244 C247 1.386 . S
H245 C261 0.930 . S
H246 C262 0.931 . S
C247 H235 0.929 . S
C247 C241 1.390 . S
C247 C244 1.386 . S
C248 C243 1.490 . S
C248 C250 1.395 1_554 S
C248 C251 1.403 . S
H249 C255 0.930 . S
C250 H236 0.930 . S
C250 C248 1.395 1_556 S
C250 C253 1.403 . S
C251 C248 1.403 . S
C251 C252 1.524 . S
C251 C255 1.400 . S
C252 H237 0.960 . S
C252 H238 0.960 . S
C252 H239 0.960 . S
C252 C251 1.524 . S
C253 C250 1.403 . S
C253 C254 1.392 . S
C253 C257 1.495 . S
C254 C253 1.392 . S
C254 C255 1.385 1_556 S
C254 C256 1.478 . S
C255 H249 0.930 . S
C255 C251 1.400 . S
C255 C254 1.385 1_554 S
C256 C254 1.478 . S
C256 C258 1.381 . S
C256 C262 1.383 . S
C257 C253 1.495 . S
C257 H263 0.959 . S
C257 H264 0.961 . S
C257 H265 0.960 . S
C258 C256 1.381 . S
C258 C259 1.394 . S
C258 H266 0.930 . S
C259 C258 1.394 . S
C259 C260 1.383 . S
C259 H267 0.929 . S
C260 C259 1.383 . S
C260 C261 1.377 . S
C261 H245 0.930 . S
C261 C260 1.377 . S
C261 C262 1.379 . S
C262 H246 0.931 . S
C262 C256 1.383 . S
C262 C261 1.379 . S
H263 C257 0.959 . S
H264 C257 0.961 . S
H265 C257 0.960 . S
H266 C258 0.930 . S
H267 C259 0.929 . S
H268 C276 0.929 . S
H269 C278 0.930 . S
H270 C280 0.930 1_455 S
H271 C283 0.929 . S
H272 C286 0.930 . S
H273 C288 0.960 . S
H274 C288 0.960 1_655 S
H275 C288 0.960 . S
C276 H268 0.929 . S
C276 C277 1.377 . S
C276 C278 1.384 . S
C277 C276 1.377 . S
C277 C283 1.390 . S
C278 H269 0.930 . S
C278 C276 1.384 . S
C278 C279 1.372 . S
C279 C278 1.372 . S
C279 C280 1.400 . S
C279 C284 1.490 . S
C280 H270 0.930 1_655 S
C280 C279 1.400 . S
C280 C283 1.386 . S
H281 C297 0.930 . S
H282 C298 0.931 . S
C283 H271 0.929 . S
C283 C277 1.390 . S
C283 C280 1.386 . S
C284 C279 1.490 . S
C284 C286 1.395 1_556 S
C284 C287 1.403 1_655 S
H285 C291 0.930 . S
C286 H272 0.930 . S
C286 C284 1.395 1_554 S
C286 C289 1.403 . S
C287 C284 1.403 1_455 S
C287 C288 1.524 . S
C287 C291 1.400 . S
C288 H273 0.960 . S
C288 H274 0.960 1_455 S
C288 H275 0.960 . S
C288 C287 1.524 . S
C289 C286 1.403 . S
C289 C290 1.392 1_655 S
C289 C293 1.495 . S
C290 C289 1.392 1_455 S
C290 C291 1.385 1_554 S
C290 C292 1.478 . S
C291 H285 0.930 . S
C291 C287 1.400 . S
C291 C290 1.385 1_556 S
C292 C290 1.478 . S
C292 C294 1.381 . S
C292 C298 1.383 . S
C293 C289 1.495 . S
C293 H299 0.959 . S
C293 H300 0.961 1_655 S
C293 H301 0.960 . S
C294 C292 1.381 . S
C294 C295 1.394 . S
C294 H302 0.930 1_455 S
C295 C294 1.394 . S
C295 C296 1.383 . S
C295 H303 0.929 . S
C296 C295 1.383 . S
C296 C297 1.377 . S
C297 H281 0.930 . S
C297 C296 1.377 . S
C297 C298 1.379 . S
C298 H282 0.931 . S
C298 C292 1.383 . S
C298 C297 1.379 . S
H299 C293 0.959 . S
H300 C293 0.961 1_455 S
H301 C293 0.960 . S
H302 C294 0.930 1_655 S
H303 C295 0.929 . S
H304 C312 0.929 . S
H305 C314 0.930 . S
H306 C316 0.930 . S
H307 C319 0.929 . S
H308 C322 0.930 . S
H309 C324 0.960 . S
H310 C324 0.960 . S
H311 C324 0.960 . S
C312 H304 0.929 . S
C312 C313 1.377 . S
C312 C314 1.384 . S
C313 C312 1.377 . S
C313 C319 1.390 . S
C314 H305 0.930 . S
C314 C312 1.384 . S
C314 C315 1.372 . S
C315 C314 1.372 . S
C315 C316 1.400 . S
C315 C320 1.490 . S
C316 H306 0.930 . S
C316 C315 1.400 . S
C316 C319 1.386 . S
H317 C333 0.930 . S
H318 C334 0.931 . S
C319 H307 0.929 . S
C319 C313 1.390 . S
C319 C316 1.386 . S
C320 C315 1.490 . S
C320 C322 1.395 . S
C320 C323 1.403 1_545 S
H321 C327 0.930 . S
C322 H308 0.930 . S
C322 C320 1.395 . S
C322 C325 1.403 . S
C323 C320 1.403 1_565 S
C323 C324 1.524 . S
C323 C327 1.400 . S
C324 H309 0.960 . S
C324 H310 0.960 . S
C324 H311 0.960 . S
C324 C323 1.524 . S
C325 C322 1.403 . S
C325 C326 1.392 1_545 S
C325 C329 1.495 . S
C326 C325 1.392 1_565 S
C326 C327 1.385 . S
C326 C328 1.478 . S
C327 H321 0.930 . S
C327 C323 1.400 . S
C327 C326 1.385 . S
C328 C326 1.478 . S
C328 C330 1.381 . S
C328 C334 1.383 . S
C329 C325 1.495 . S
C329 H335 0.959 . S
C329 H336 0.961 . S
C329 H337 0.960 . S
C330 C328 1.381 . S
C330 C331 1.394 . S
C330 H338 0.930 . S
C331 C330 1.394 . S
C331 C332 1.383 . S
C331 H339 0.929 . S
C332 C331 1.383 . S
C332 C333 1.377 . S
C333 H317 0.930 . S
C333 C332 1.377 . S
C333 C334 1.379 . S
C334 H318 0.931 . S
C334 C328 1.383 . S
C334 C333 1.379 . S
H335 C329 0.959 . S
H336 C329 0.961 . S
H337 C329 0.960 . S
H338 C330 0.930 . S
H339 C331 0.929 . S
H340 C348 0.929 . S
H341 C350 0.930 1_455 S
H342 C352 0.930 . S
H343 C355 0.929 . S
H344 C358 0.930 . S
H345 C360 0.960 1_455 S
H346 C360 0.960 1_455 S
H347 C360 0.960 . S
C348 H340 0.929 . S
C348 C349 1.377 . S
C348 C350 1.384 . S
C349 C348 1.377 . S
C349 C355 1.390 . S
C350 H341 0.930 1_655 S
C350 C348 1.384 . S
C350 C351 1.372 . S
C351 C350 1.372 . S
C351 C352 1.400 . S
C351 C356 1.490 . S
C352 H342 0.930 . S
C352 C351 1.400 . S
C352 C355 1.386 . S
H353 C369 0.930 . S
H354 C370 0.931 1_655 S
C355 H343 0.929 . S
C355 C349 1.390 . S
C355 C352 1.386 . S
C356 C351 1.490 . S
C356 C358 1.395 1_545 S
C356 C359 1.403 . S
H357 C363 0.931 . S
C358 H344 0.930 . S
C358 C356 1.395 1_565 S
C358 C361 1.403 1_655 S
C359 C356 1.403 . S
C359 C360 1.524 . S
C359 C363 1.409 1_655 S
C360 H345 0.960 1_655 S
C360 H346 0.960 1_655 S
C360 H347 0.960 . S
C360 C359 1.524 . S
C361 C358 1.403 1_455 S
C361 C362 1.392 . S
C361 C365 1.495 . S
C362 C361 1.392 . S
C362 C363 1.375 1_565 S
C362 C364 1.478 . S
C363 H357 0.931 . S
C363 C359 1.409 1_455 S
C363 C362 1.375 1_545 S
C364 C362 1.478 . S
C364 C366 1.381 . S
C364 C370 1.383 . S
C365 C361 1.495 . S
C365 H371 0.969 . S
C365 H372 0.961 1_455 S
C365 H373 0.960 . S
C366 C364 1.381 . S
C366 C367 1.394 . S
C366 H374 0.930 . S
C367 C366 1.394 . S
C367 C368 1.383 . S
C367 H375 0.929 . S
C368 C367 1.383 . S
C368 C369 1.377 . S
C369 H353 0.930 . S
C369 C368 1.377 . S
C369 C370 1.379 . S
C370 H354 0.931 1_455 S
C370 C364 1.383 . S
C370 C369 1.379 . S
H371 C365 0.969 . S
H372 C365 0.961 1_655 S
H373 C365 0.960 . S
H374 C366 0.930 . S
H375 C367 0.929 . S
H376 C384 0.929 . S
H377 C386 0.930 . S
H378 C388 0.930 . S
H379 C391 0.929 . S
H380 C394 0.930 . S
H381 C396 0.960 . S
H382 C396 0.960 . S
H383 C396 0.960 . S
C384 H376 0.929 . S
C384 C385 1.377 . S
C384 C386 1.384 . S
C385 C384 1.377 . S
C385 C391 1.390 . S
C386 H377 0.930 . S
C386 C384 1.384 . S
C386 C387 1.372 . S
C387 C386 1.372 . S
C387 C388 1.400 . S
C387 C392 1.490 . S
C388 H378 0.930 . S
C388 C387 1.400 . S
C388 C391 1.386 . S
H389 C405 0.930 . S
H390 C406 0.931 . S
C391 H379 0.929 . S
C391 C385 1.390 . S
C391 C388 1.386 . S
C392 C387 1.490 . S
C392 C394 1.395 . S
C392 C395 1.403 . S
H393 C399 0.930 . S
C394 H380 0.930 . S
C394 C392 1.395 . S
C394 C397 1.403 . S
C395 C392 1.403 . S
C395 C396 1.524 . S
C395 C399 1.400 . S
C396 H381 0.960 . S
C396 H382 0.960 . S
C396 H383 0.960 . S
C396 C395 1.524 . S
C397 C394 1.403 . S
C397 C398 1.392 . S
C397 C401 1.495 . S
C398 C397 1.392 . S
C398 C399 1.385 . S
C398 C400 1.478 . S
C399 H393 0.930 . S
C399 C395 1.400 . S
C399 C398 1.385 . S
C400 C398 1.478 . S
C400 C402 1.381 . S
C400 C406 1.383 . S
C401 C397 1.495 . S
C401 H407 0.959 . S
C401 H408 0.961 . S
C401 H409 0.960 . S
C402 C400 1.381 . S
C402 C403 1.394 . S
C402 H410 0.930 . S
C403 C402 1.394 . S
C403 C404 1.383 . S
C403 H411 0.929 . S
C404 C403 1.383 . S
C404 C405 1.377 . S
C405 H389 0.930 . S
C405 C404 1.377 . S
C405 C406 1.379 . S
C406 H390 0.931 . S
C406 C400 1.383 . S
C406 C405 1.379 . S
H407 C401 0.959 . S
H408 C401 0.961 . S
H409 C401 0.960 . S
H410 C402 0.930 . S
H411 C403 0.929 . S
H412 C420 0.929 . S
H413 C422 0.930 . S
H414 C424 0.930 . S
H415 C427 0.929 . S
H416 C430 0.930 . S
H417 C432 0.960 . S
H418 C432 0.960 . S
H419 C432 0.960 . S
C420 H412 0.929 . S
C420 C421 1.377 . S
C420 C422 1.384 . S
C421 C420 1.377 . S
C421 C427 1.390 . S
C422 H413 0.930 . S
C422 C420 1.384 . S
C422 C423 1.372 . S
C423 C422 1.372 . S
C423 C424 1.400 . S
C423 C428 1.490 . S
C424 H414 0.930 . S
C424 C423 1.400 . S
C424 C427 1.386 . S
H425 C441 0.930 . S
H426 C442 0.931 . S
C427 H415 0.929 . S
C427 C421 1.390 . S
C427 C424 1.386 . S
C428 C423 1.490 . S
C428 C430 1.395 . S
C428 C431 1.403 . S
H429 C435 0.930 . S
C430 H416 0.930 . S
C430 C428 1.395 . S
C430 C433 1.403 . S
C431 C428 1.403 . S
C431 C432 1.524 . S
C431 C435 1.400 . S
C432 H417 0.960 . S
C432 H418 0.960 . S
C432 H419 0.960 . S
C432 C431 1.524 . S
C433 C430 1.403 . S
C433 C434 1.392 . S
C433 C437 1.495 . S
C434 C433 1.392 . S
C434 C435 1.385 . S
C434 C436 1.478 . S
C435 H429 0.930 . S
C435 C431 1.400 . S
C435 C434 1.385 . S
C436 C434 1.478 . S
C436 C438 1.381 . S
C436 C442 1.383 . S
C437 C433 1.495 . S
C437 H443 0.959 . S
C437 H444 0.961 . S
C437 H445 0.960 . S
C438 C436 1.381 . S
C438 C439 1.394 . S
C438 H446 0.930 . S
C439 C438 1.394 . S
C439 C440 1.383 . S
C439 H447 0.929 . S
C440 C439 1.383 . S
C440 C441 1.377 . S
C441 H425 0.930 . S
C441 C440 1.377 . S
C441 C442 1.379 . S
C442 H426 0.931 . S
C442 C436 1.383 . S
C442 C441 1.379 . S
H443 C437 0.959 . S
H444 C437 0.961 . S
H445 C437 0.960 . S
H446 C438 0.930 . S
H447 C439 0.929 . S
H448 C456 0.929 . S
H449 C458 0.930 . S
H450 C460 0.930 . S
H451 C463 0.929 . S
H452 C466 0.930 . S
H453 C468 0.960 . S
H454 C468 0.960 . S
H455 C468 0.960 . S
C456 H448 0.929 . S
C456 C457 1.377 . S
C456 C458 1.384 . S
C457 C456 1.377 . S
C457 C463 1.390 . S
C458 H449 0.930 . S
C458 C456 1.384 . S
C458 C459 1.372 . S
C459 C458 1.372 . S
C459 C460 1.400 . S
C459 C464 1.490 . S
C460 H450 0.930 . S
C460 C459 1.400 . S
C460 C463 1.386 . S
H461 C477 0.930 . S
H462 C478 0.931 . S
C463 H451 0.929 . S
C463 C457 1.390 . S
C463 C460 1.386 . S
C464 C459 1.490 . S
C464 C466 1.395 . S
C464 C467 1.403 . S
H465 C471 0.930 . S
C466 H452 0.930 . S
C466 C464 1.395 . S
C466 C469 1.403 . S
C467 C464 1.403 . S
C467 C468 1.524 . S
C467 C471 1.400 . S
C468 H453 0.960 . S
C468 H454 0.960 . S
C468 H455 0.960 . S
C468 C467 1.524 . S
C469 C466 1.403 . S
C469 C470 1.392 . S
C469 C473 1.495 . S
C470 C469 1.392 . S
C470 C471 1.385 . S
C470 C472 1.478 . S
C471 H465 0.930 . S
C471 C467 1.400 . S
C471 C470 1.385 . S
C472 C470 1.478 . S
C472 C474 1.381 . S
C472 C478 1.383 . S
C473 C469 1.495 . S
C473 H479 0.959 . S
C473 H480 0.961 . S
C473 H481 0.960 . S
C474 C472 1.381 . S
C474 C475 1.394 . S
C474 H482 0.930 . S
C475 C474 1.394 . S
C475 C476 1.383 . S
C475 H483 0.929 . S
C476 C475 1.383 . S
C476 C477 1.377 . S
C477 H461 0.930 . S
C477 C476 1.377 . S
C477 C478 1.379 . S
C478 H462 0.931 . S
C478 C472 1.383 . S
C478 C477 1.379 . S
H479 C473 0.959 . S
H480 C473 0.961 . S
H481 C473 0.960 . S
H482 C474 0.930 . S
H483 C475 0.929 . S
H484 C492 0.929 . S
H485 C494 0.930 . S
H486 C496 0.930 . S
H487 C499 0.929 . S
H488 C502 0.930 . S
H489 C504 0.960 . S
H490 C504 0.960 . S
H491 C504 0.960 . S
C492 H484 0.929 . S
C492 C493 1.377 . S
C492 C494 1.384 . S
C493 C492 1.377 . S
C493 C499 1.390 . S
C494 H485 0.930 . S
C494 C492 1.384 . S
C494 C495 1.372 . S
C495 C494 1.372 . S
C495 C496 1.400 . S
C495 C500 1.490 . S
C496 H486 0.930 . S
C496 C495 1.400 . S
C496 C499 1.386 . S
H497 C513 0.930 . S
H498 C514 0.931 . S
C499 H487 0.929 . S
C499 C493 1.390 . S
C499 C496 1.386 . S
C500 C495 1.490 . S
C500 C502 1.395 . S
C500 C503 1.403 . S
H501 C507 0.930 . S
C502 H488 0.930 . S
C502 C500 1.395 . S
C502 C505 1.403 . S
C503 C500 1.403 . S
C503 C504 1.524 . S
C503 C507 1.400 . S
C504 H489 0.960 . S
C504 H490 0.960 . S
C504 H491 0.960 . S
C504 C503 1.524 . S
C505 C502 1.403 . S
C505 C506 1.392 . S
C505 C509 1.495 . S
C506 C505 1.392 . S
C506 C507 1.385 . S
C506 C508 1.478 . S
C507 H501 0.930 . S
C507 C503 1.400 . S
C507 C506 1.385 . S
C508 C506 1.478 . S
C508 C510 1.381 . S
C508 C514 1.383 . S
C509 C505 1.495 . S
C509 H515 0.959 . S
C509 H516 0.961 . S
C509 H517 0.960 . S
C510 C508 1.381 . S
C510 C511 1.394 . S
C510 H518 0.930 . S
C511 C510 1.394 . S
C511 C512 1.383 . S
C511 H519 0.929 . S
C512 C511 1.383 . S
C512 C513 1.377 . S
C513 H497 0.930 . S
C513 C512 1.377 . S
C513 C514 1.379 . S
C514 H498 0.931 . S
C514 C508 1.383 . S
C514 C513 1.379 . S
H515 C509 0.959 . S
H516 C509 0.961 . S
H517 C509 0.960 . S
H518 C510 0.930 . S
H519 C511 0.929 . S
C97 C5 1.453 . S
C116 C16 1.419 . S
C133 C27 1.461 . S
C152 C38 1.454 . S
C169 C60 1.279 . S
C188 C49 1.265 . S
C205 C71 1.268 . S
C224 C82 1.220 . S
C241 C8 1.638 . S
C260 C52 1.590 . S
C277 C63 1.592 . S
C296 C19 1.630 . S
C313 C30 1.637 . S
C332 C74 1.573 . S
C349 C85 1.601 . S
C368 C41 1.639 . S
C385 C29 1.557 . S
C404 C7 1.555 . S
C421 C40 1.554 . S
C440 C18 1.560 . S
C457 C73 1.497 . S
C476 C51 1.497 . S
C493 C84 1.499 . S
C512 C62 1.474 . S
