# Generated by pormake.
# Topology wiv, (6)-cn, num edge types: 1
# Building blocks:
#     Node 0, Type 0, BuildingBlock: BETDEL_clean_sbu_0, # of connection points: 6
#     Node 1, Type 0, BuildingBlock: BETDEL_clean_sbu_0, # of connection points: 6
#     Node 2, Type 0, BuildingBlock: BETDEL_clean_sbu_0, # of connection points: 6
#     Node 3, Type 0, BuildingBlock: BETDEL_clean_sbu_0, # of connection points: 6
#     Node 4, Type 0, BuildingBlock: BETDEL_clean_sbu_0, # of connection points: 6
#     Node 5, Type 0, BuildingBlock: BETDEL_clean_sbu_0, # of connection points: 6
#     Node 6, Type 0, BuildingBlock: BETDEL_clean_sbu_0, # of connection points: 6
#     Node 7, Type 0, BuildingBlock: BETDEL_clean_sbu_0, # of connection points: 6
#     Node 8, Type 0, BuildingBlock: BETDEL_clean_sbu_0, # of connection points: 6
#     Node 9, Type 0, BuildingBlock: BETDEL_clean_sbu_0, # of connection points: 6
#     Node 10, Type 0, BuildingBlock: BETDEL_clean_sbu_0, # of connection points: 6
#     Node 11, Type 0, BuildingBlock: BETDEL_clean_sbu_0, # of connection points: 6
#     Node 12, Type 0, BuildingBlock: BETDEL_clean_sbu_0, # of connection points: 6
#     Node 13, Type 0, BuildingBlock: BETDEL_clean_sbu_0, # of connection points: 6
#     Node 14, Type 0, BuildingBlock: BETDEL_clean_sbu_0, # of connection points: 6
#     Node 15, Type 0, BuildingBlock: BETDEL_clean_sbu_0, # of connection points: 6
#     Edge 16, Type (0, 0), BuildingBlock: XUDNAN_clean_linker_2, # of connection points: 2
#     Edge 17, Type (0, 0), BuildingBlock: XUDNAN_clean_linker_2, # of connection points: 2
#     Edge 18, Type (0, 0), BuildingBlock: XUDNAN_clean_linker_2, # of connection points: 2
#     Edge 19, Type (0, 0), BuildingBlock: XUDNAN_clean_linker_2, # of connection points: 2
#     Edge 20, Type (0, 0), BuildingBlock: XUDNAN_clean_linker_2, # of connection points: 2
#     Edge 21, Type (0, 0), BuildingBlock: XUDNAN_clean_linker_2, # of connection points: 2
#     Edge 22, Type (0, 0), BuildingBlock: XUDNAN_clean_linker_2, # of connection points: 2
#     Edge 23, Type (0, 0), BuildingBlock: XUDNAN_clean_linker_2, # of connection points: 2
#     Edge 24, Type (0, 0), BuildingBlock: XUDNAN_clean_linker_2, # of connection points: 2
#     Edge 25, Type (0, 0), BuildingBlock: XUDNAN_clean_linker_2, # of connection points: 2
#     Edge 26, Type (0, 0), BuildingBlock: XUDNAN_clean_linker_2, # of connection points: 2
#     Edge 27, Type (0, 0), BuildingBlock: XUDNAN_clean_linker_2, # of connection points: 2
#     Edge 28, Type (0, 0), BuildingBlock: XUDNAN_clean_linker_2, # of connection points: 2
#     Edge 29, Type (0, 0), BuildingBlock: XUDNAN_clean_linker_2, # of connection points: 2
#     Edge 30, Type (0, 0), BuildingBlock: XUDNAN_clean_linker_2, # of connection points: 2
#     Edge 31, Type (0, 0), BuildingBlock: XUDNAN_clean_linker_2, # of connection points: 2
#     Edge 32, Type (0, 0), BuildingBlock: XUDNAN_clean_linker_2, # of connection points: 2
#     Edge 33, Type (0, 0), BuildingBlock: XUDNAN_clean_linker_2, # of connection points: 2
#     Edge 34, Type (0, 0), BuildingBlock: XUDNAN_clean_linker_2, # of connection points: 2
#     Edge 35, Type (0, 0), BuildingBlock: XUDNAN_clean_linker_2, # of connection points: 2
#     Edge 36, Type (0, 0), BuildingBlock: XUDNAN_clean_linker_2, # of connection points: 2
#     Edge 37, Type (0, 0), BuildingBlock: XUDNAN_clean_linker_2, # of connection points: 2
#     Edge 38, Type (0, 0), BuildingBlock: XUDNAN_clean_linker_2, # of connection points: 2
#     Edge 39, Type (0, 0), BuildingBlock: XUDNAN_clean_linker_2, # of connection points: 2
#     Edge 40, Type (0, 0), BuildingBlock: XUDNAN_clean_linker_2, # of connection points: 2
#     Edge 41, Type (0, 0), BuildingBlock: XUDNAN_clean_linker_2, # of connection points: 2
#     Edge 42, Type (0, 0), BuildingBlock: XUDNAN_clean_linker_2, # of connection points: 2
#     Edge 43, Type (0, 0), BuildingBlock: XUDNAN_clean_linker_2, # of connection points: 2
#     Edge 44, Type (0, 0), BuildingBlock: XUDNAN_clean_linker_2, # of connection points: 2
#     Edge 45, Type (0, 0), BuildingBlock: XUDNAN_clean_linker_2, # of connection points: 2
#     Edge 46, Type (0, 0), BuildingBlock: XUDNAN_clean_linker_2, # of connection points: 2
#     Edge 47, Type (0, 0), BuildingBlock: XUDNAN_clean_linker_2, # of connection points: 2
#     Edge 48, Type (0, 0), BuildingBlock: XUDNAN_clean_linker_2, # of connection points: 2
#     Edge 49, Type (0, 0), BuildingBlock: XUDNAN_clean_linker_2, # of connection points: 2
#     Edge 50, Type (0, 0), BuildingBlock: XUDNAN_clean_linker_2, # of connection points: 2
#     Edge 51, Type (0, 0), BuildingBlock: XUDNAN_clean_linker_2, # of connection points: 2
#     Edge 52, Type (0, 0), BuildingBlock: XUDNAN_clean_linker_2, # of connection points: 2
#     Edge 53, Type (0, 0), BuildingBlock: XUDNAN_clean_linker_2, # of connection points: 2
#     Edge 54, Type (0, 0), BuildingBlock: XUDNAN_clean_linker_2, # of connection points: 2
#     Edge 55, Type (0, 0), BuildingBlock: XUDNAN_clean_linker_2, # of connection points: 2
#     Edge 56, Type (0, 0), BuildingBlock: XUDNAN_clean_linker_2, # of connection points: 2
#     Edge 57, Type (0, 0), BuildingBlock: XUDNAN_clean_linker_2, # of connection points: 2
#     Edge 58, Type (0, 0), BuildingBlock: XUDNAN_clean_linker_2, # of connection points: 2
#     Edge 59, Type (0, 0), BuildingBlock: XUDNAN_clean_linker_2, # of connection points: 2
#     Edge 60, Type (0, 0), BuildingBlock: XUDNAN_clean_linker_2, # of connection points: 2
#     Edge 61, Type (0, 0), BuildingBlock: XUDNAN_clean_linker_2, # of connection points: 2
#     Edge 62, Type (0, 0), BuildingBlock: XUDNAN_clean_linker_2, # of connection points: 2
#     Edge 63, Type (0, 0), BuildingBlock: XUDNAN_clean_linker_2, # of connection points: 2
# Relax obj value: 0.069
# Max RMSD: 0.130
# Mean RMSD: 0.130
data_MOF--net-wiv--node1-BETDEL_clean_sbu_0--edge1-XUDNAN_clean_linker_2
_symmetry_space_group_name_H-M    P1
_symmetry_Int_Tables_number       1
_symmetry_cell_setting            triclinic
loop_
_symmetry_equiv_pos_as_xyz
'x, y, z'
_cell_length_a     55.13115
_cell_length_b     55.306356
_cell_length_c     17.783238
_cell_angle_alpha  89.936828
_cell_angle_beta   90.05267
_cell_angle_gamma 90.008679
loop_
_atom_site_label
_atom_site_type_symbol
_atom_site_fract_x
_atom_site_fract_y
_atom_site_fract_z
_atom_type_partial_charge
Dy0 Dy 0.37108 0.1214 0.18269 0.0
C1 C 0.39986 0.11435 0.87872 0.0
C2 C 0.36385 0.11583 0.33494 0.0
Dy3 Dy 0.3949 0.11937 0.03189 0.0
O4 O 0.37002 0.1357 0.3015 0.0
O5 O 0.36034 0.09915 0.2845 0.0
O6 O 0.35574 0.15752 0.1573 0.0
O7 O 0.39041 0.1488 0.11521 0.0
C8 C 0.37415 0.16509 0.11817 0.0
C9 C 0.39559 0.07735 0.10713 0.0
O10 O 0.42915 0.12839 0.09247 0.0
O11 O 0.41123 0.1166 0.2048 0.0
O12 O 0.39484 0.09746 0.92654 0.0
O13 O 0.40353 0.13456 0.91508 0.0
O14 O 0.41272 0.08484 0.06298 0.0
O15 O 0.37778 0.09192 0.10523 0.0
O16 O 0.33681 0.11618 0.11318 0.0
O17 O 0.35672 0.12889 1.00633 0.0
C18 C 0.43072 0.12239 0.16455 0.0
C19 C 0.3365 0.12336 0.04172 0.0
Dy20 Dy 0.12143 0.62617 0.995 0.0
C21 C 0.10133 0.64808 0.69263 0.0
C22 C 0.1213 0.62358 0.14903 0.0
Dy23 Dy 0.11911 0.64638 0.83651 0.0
O24 O 0.12784 0.60602 0.10462 0.0
O25 O 0.11508 0.64217 0.10934 0.0
O26 O 0.08567 0.60809 0.96947 0.0
O27 O 0.09262 0.64223 0.92532 0.0
C28 C 0.07727 0.62544 0.92841 0.0
C29 C 0.16632 0.64215 0.86685 0.0
O30 O 0.11723 0.68151 0.90349 0.0
O31 O 0.13517 0.66357 1.00722 0.0
O32 O 0.11635 0.66385 0.7211 0.0
O33 O 0.09492 0.63299 0.74472 0.0
O34 O 0.15752 0.65069 0.80463 0.0
O35 O 0.14932 0.63642 0.91202 0.0
O36 O 0.13736 0.59416 0.93892 0.0
O37 O 0.12091 0.60545 0.82445 0.0
C38 C 0.12805 0.68309 0.97055 0.0
C39 C 0.13128 0.58909 0.86879 0.0
Dy40 Dy 0.65249 0.8937 0.20209 0.0
C41 C 0.62595 0.8856 0.88567 0.0
C42 C 0.66332 0.90271 0.34953 0.0
Dy43 Dy 0.62956 0.89391 0.03701 0.0
O44 O 0.67674 0.89027 0.3035 0.0
O45 O 0.64479 0.9114 0.3134 0.0
O46 O 0.65654 0.85345 0.21645 0.0
O47 O 0.64114 0.86741 0.11956 0.0
C48 C 0.64626 0.84799 0.15324 0.0
C49 C 0.62908 0.93611 0.1121 0.0
O50 O 0.59759 0.88053 0.10082 0.0
O51 O 0.61148 0.89362 0.21838 0.0
O52 O 0.62051 0.90584 0.91876 0.0
O53 O 0.63171 0.86959 0.93612 0.0
O54 O 0.61288 0.93042 0.06181 0.0
O55 O 0.64545 0.92019 0.11456 0.0
O56 O 0.68591 0.90297 0.1329 0.0
O57 O 0.66947 0.89472 1.01463 0.0
C58 C 0.59401 0.88533 0.1732 0.0
C59 C 0.68814 0.89983 0.0587 0.0
Dy60 Dy 0.88944 0.38942 1.01245 0.0
C61 C 0.88707 0.36027 0.7056 0.0
C62 C 0.88027 0.39393 0.1631 0.0
Dy63 Dy 0.88525 0.36851 0.85765 0.0
O64 O 0.90063 0.39983 0.13088 0.0
O65 O 0.86489 0.38697 0.11235 0.0
O66 O 0.92729 0.40283 0.98567 0.0
O67 O 0.91446 0.37057 0.93775 0.0
C68 C 0.93166 0.38555 0.93788 0.0
C69 C 0.84232 0.37206 0.92841 0.0
O70 O 0.89401 0.33372 0.9184 0.0
O71 O 0.88712 0.3497 0.03679 0.0
O72 O 0.87079 0.35196 0.75136 0.0
O73 O 0.90316 0.37233 0.74351 0.0
O74 O 0.84877 0.35421 0.88586 0.0
O75 O 0.85926 0.38756 0.9304 0.0
O76 O 0.8796 0.42393 0.95558 0.0
O77 O 0.88768 0.40903 0.83632 0.0
C78 C 0.89091 0.33103 0.99214 0.0
C79 C 0.88285 0.4273 0.88252 0.0
Dy80 Dy 0.35913 0.38556 0.08116 0.0
C81 C 0.38524 0.38033 0.39704 0.0
C82 C 0.34772 0.39449 0.93385 0.0
Dy83 Dy 0.38188 0.38848 0.24559 0.0
O84 O 0.33522 0.38093 0.97933 0.0
O85 O 0.36561 0.4042 0.97037 0.0
O86 O 0.35784 0.34522 0.06795 0.0
O87 O 0.37181 0.3605 0.16562 0.0
C88 C 0.36776 0.34072 0.1325 0.0
C89 C 0.38142 0.4297 0.16604 0.0
O90 O 0.41437 0.37545 0.18361 0.0
O91 O 0.39997 0.38636 0.06443 0.0
O92 O 0.39121 0.40043 0.36372 0.0
O93 O 0.37919 0.36441 0.34677 0.0
O94 O 0.39769 0.42491 0.21707 0.0
O95 O 0.36521 0.41348 0.16514 0.0
O96 O 0.32467 0.38938 0.14969 0.0
O97 O 0.34219 0.38993 0.26946 0.0
C98 C 0.41772 0.37941 0.11064 0.0
C99 C 0.32308 0.38978 0.22457 0.0
Dy100 Dy 0.38872 0.6252 0.77387 0.0
C101 C 0.39117 0.6565 0.08078 0.0
C102 C 0.38217 0.62129 0.62144 0.0
Dy103 Dy 0.38749 0.64307 0.9331 0.0
O104 O 0.40296 0.62289 0.65526 0.0
O105 O 0.36494 0.62067 0.67136 0.0
O106 O 0.42195 0.60342 0.79829 0.0
O107 O 0.41696 0.63654 0.85466 0.0
C108 C 0.43024 0.61795 0.8497 0.0
C109 C 0.34338 0.63197 0.87619 0.0
O110 O 0.39497 0.67914 0.87429 0.0
O111 O 0.39524 0.66402 0.7524 0.0
O112 O 0.37542 0.66486 0.03288 0.0
O113 O 0.40601 0.64197 0.04633 0.0
O114 O 0.35032 0.62732 0.94403 0.0
O115 O 0.3604 0.64274 0.84214 0.0
O116 O 0.37647 0.59128 0.83073 0.0
O117 O 0.39129 0.60275 0.94732 0.0
C118 C 0.39707 0.68212 0.80006 0.0
C119 C 0.38277 0.58603 0.90084 0.0
Dy120 Dy 0.64712 0.63012 0.08559 0.0
C121 C 0.61854 0.63161 0.39038 0.0
C122 C 0.6546 0.63291 0.93283 0.0
Dy123 Dy 0.6254 0.62438 0.23921 0.0
O124 O 0.65489 0.65077 0.97972 0.0
O125 O 0.65137 0.61289 0.96998 0.0
O126 O 0.66017 0.66627 0.12029 0.0
O127 O 0.62599 0.65469 0.15803 0.0
C128 C 0.64114 0.67201 0.15894 0.0
C129 C 0.63147 0.58273 0.16457 0.0
O130 O 0.58994 0.62847 0.17952 0.0
O131 O 0.60776 0.62107 0.06369 0.0
O132 O 0.61977 0.61063 0.35787 0.0
O133 O 0.61967 0.64847 0.33958 0.0
O134 O 0.61385 0.58633 0.21198 0.0
O135 O 0.64589 0.60048 0.16484 0.0
O136 O 0.68237 0.62386 0.14655 0.0
O137 O 0.66509 0.62951 0.26419 0.0
C138 C 0.58828 0.62357 0.10683 0.0
C139 C 0.68433 0.62682 0.22056 0.0
Dy140 Dy 0.61915 0.38618 0.78162 0.0
C141 C 0.61104 0.36306 0.08645 0.0
C142 C 0.62023 0.39386 0.62936 0.0
Dy143 Dy 0.62163 0.36696 0.9365 0.0
O144 O 0.60531 0.4039 0.6762 0.0
O145 O 0.63541 0.38038 0.66625 0.0
O146 O 0.58062 0.39868 0.80729 0.0
O147 O 0.59358 0.36667 0.85307 0.0
C148 C 0.57586 0.38078 0.85181 0.0
C149 C 0.66576 0.36978 0.87403 0.0
O150 O 0.61277 0.33214 0.87499 0.0
O151 O 0.62573 0.3468 0.76026 0.0
O152 O 0.63055 0.35459 0.05497 0.0
O153 O 0.5972 0.37256 0.03552 0.0
O154 O 0.65866 0.3526 0.91882 0.0
O155 O 0.64894 0.38529 0.86578 0.0
O156 O 0.63138 0.42045 0.83468 0.0
O157 O 0.61927 0.40786 0.95244 0.0
C158 C 0.61901 0.32855 0.80347 0.0
C159 C 0.6262 0.42528 0.90563 0.0
Dy160 Dy 0.86285 0.6266 0.6879 0.0
C161 C 0.88648 0.62215 0.37416 0.0
C162 C 0.86038 0.60944 0.83123 0.0
Dy163 Dy 0.88369 0.62283 0.52705 0.0
O164 O 0.84573 0.62583 0.80373 0.0
O165 O 0.8748 0.60176 0.77894 0.0
O166 O 0.86417 0.66612 0.70983 0.0
O167 O 0.87766 0.65241 0.60721 0.0
C168 C 0.87503 0.67131 0.64701 0.0
C169 C 0.87634 0.58068 0.60073 0.0
O170 O 0.91875 0.63074 0.58208 0.0
O171 O 0.90378 0.62338 0.70215 0.0
O172 O 0.90429 0.62832 0.41836 0.0
O173 O 0.86761 0.61634 0.41335 0.0
O174 O 0.89383 0.58399 0.55334 0.0
O175 O 0.86313 0.59915 0.60176 0.0
O176 O 0.82803 0.62692 0.61864 0.0
O177 O 0.8483 0.64159 0.51407 0.0
C178 C 0.92203 0.62732 0.65488 0.0
C179 C 0.82786 0.63657 0.54971 0.0
Dy180 Dy 0.62939 0.13071 0.49857 0.0
C181 C 0.61062 0.15885 0.18709 0.0
C182 C 0.63849 0.12793 0.65016 0.0
Dy183 Dy 0.62332 0.15091 0.33392 0.0
O184 O 0.61962 0.11901 0.61641 0.0
O185 O 0.65309 0.13703 0.60014 0.0
O186 O 0.59584 0.10853 0.48126 0.0
O187 O 0.59923 0.14191 0.4257 0.0
C188 C 0.58641 0.12315 0.432 0.0
C189 C 0.67063 0.15227 0.37022 0.0
O190 O 0.61125 0.18396 0.40026 0.0
O191 O 0.62165 0.16963 0.51959 0.0
O192 O 0.61998 0.17481 0.23233 0.0
O193 O 0.60644 0.139 0.22423 0.0
O194 O 0.66166 0.16001 0.30754 0.0
O195 O 0.65355 0.14466 0.41143 0.0
O196 O 0.64383 0.09906 0.43617 0.0
O197 O 0.62642 0.11023 0.32143 0.0
C198 C 0.61408 0.18698 0.47421 0.0
C199 C 0.63687 0.094 0.36641 0.0
Dy200 Dy 0.14553 0.38321 0.70093 0.0
C201 C 0.12209 0.38407 0.38879 0.0
C202 C 0.15962 0.38524 0.84855 0.0
Dy203 Dy 0.12753 0.38788 0.5419 0.0
O204 O 0.16499 0.36804 0.80157 0.0
O205 O 0.14799 0.40225 0.81304 0.0
O206 O 0.12262 0.35082 0.71777 0.0
O207 O 0.13822 0.35613 0.61186 0.0
C208 C 0.12456 0.34236 0.65044 0.0
C209 C 0.13236 0.42993 0.61781 0.0
O210 O 0.09244 0.38074 0.59881 0.0
O211 O 0.10622 0.39503 0.71321 0.0
O212 O 0.12941 0.4032 0.42425 0.0
O213 O 0.11659 0.36738 0.43745 0.0
O214 O 0.11506 0.42593 0.56972 0.0
O215 O 0.1465 0.41209 0.61964 0.0
O216 O 0.18204 0.38021 0.64058 0.0
O217 O 0.16618 0.38042 0.51943 0.0
C218 C 0.08822 0.38804 0.66836 0.0
C219 C 0.18464 0.37864 0.56611 0.0
Dy220 Dy 0.39323 0.8846 0.50934 0.0
C221 C 0.39042 0.85302 0.20143 0.0
C222 C 0.38819 0.88963 0.66176 0.0
Dy223 Dy 0.38931 0.86685 0.349 0.0
O224 O 0.40792 0.88321 0.6275 0.0
O225 O 0.37148 0.89449 0.6123 0.0
O226 O 0.4314 0.89806 0.48413 0.0
O227 O 0.41814 0.86711 0.43088 0.0
C228 C 0.43578 0.88146 0.43419 0.0
C229 C 0.34679 0.88344 0.4071 0.0
O230 O 0.39335 0.83059 0.40857 0.0
O231 O 0.38863 0.84513 0.53036 0.0
O232 O 0.37387 0.84681 0.2499 0.0
O233 O 0.40716 0.86554 0.23511 0.0
O234 O 0.35473 0.88793 0.34024 0.0
O235 O 0.3628 0.87096 0.44026 0.0
O236 O 0.38585 0.91969 0.44989 0.0
O237 O 0.40168 0.90536 0.33807 0.0
C238 C 0.39094 0.82704 0.4825 0.0
C239 C 0.39443 0.92346 0.38131 0.0
Dy240 Dy 0.86588 0.89078 0.58908 0.0
C241 C 0.89273 0.87631 0.89893 0.0
C242 C 0.85786 0.89325 0.43718 0.0
Dy243 Dy 0.88807 0.89075 0.75295 0.0
O244 O 0.84686 0.87892 0.48379 0.0
O245 O 0.87239 0.90738 0.47437 0.0
O246 O 0.85069 0.85417 0.61461 0.0
O247 O 0.88376 0.86395 0.66197 0.0
C248 C 0.86826 0.8472 0.65798 0.0
C249 C 0.88186 0.93645 0.70048 0.0
O250 O 0.9222 0.88314 0.69014 0.0
O251 O 0.90672 0.89058 0.56933 0.0
O252 O 0.90504 0.89388 0.86826 0.0
O253 O 0.87922 0.86595 0.84844 0.0
O254 O 0.89111 0.93169 0.76613 0.0
O255 O 0.87686 0.91669 0.67016 0.0
O256 O 0.83433 0.90591 0.65607 0.0
O257 O 0.8479 0.89001 0.76965 0.0
C258 C 0.92508 0.88613 0.61644 0.0
C259 C 0.83087 0.90033 0.72826 0.0
Dy260 Dy 0.89404 0.12766 0.30069 0.0
C261 C 0.89798 0.16216 0.60528 0.0
C262 C 0.89875 0.123 0.14703 0.0
Dy263 Dy 0.88826 0.15115 0.45786 0.0
O264 O 0.91607 0.1268 0.19479 0.0
O265 O 0.87846 0.12026 0.18374 0.0
O266 O 0.93056 0.11413 0.33974 0.0
O267 O 0.91758 0.14751 0.37808 0.0
C268 C 0.93479 0.13262 0.38272 0.0
C269 C 0.84658 0.13323 0.40011 0.0
O270 O 0.8867 0.18613 0.39024 0.0
O271 O 0.88768 0.16654 0.27389 0.0
O272 O 0.8774 0.16651 0.57153 0.0
O273 O 0.91334 0.15362 0.55683 0.0
O274 O 0.85213 0.13323 0.47098 0.0
O275 O 0.86362 0.14342 0.36443 0.0
O276 O 0.88248 0.09461 0.36495 0.0
O277 O 0.89639 0.11174 0.47569 0.0
C278 C 0.88581 0.18641 0.31506 0.0
C279 C 0.88788 0.09295 0.43756 0.0
Dy280 Dy 0.15287 0.12034 0.58283 0.0
C281 C 0.12544 0.12206 0.8984 0.0
C282 C 0.15642 0.10436 0.43806 0.0
Dy283 Dy 0.13281 0.12041 0.74628 0.0
O284 O 0.17024 0.1209 0.46775 0.0
O285 O 0.14171 0.09595 0.48861 0.0
O286 O 0.1564 0.16016 0.56114 0.0
O287 O 0.14295 0.148 0.66445 0.0
C288 C 0.14746 0.16668 0.62553 0.0
C289 C 0.12868 0.07864 0.66999 0.0
O290 O 0.10181 0.13829 0.68865 0.0
O291 O 0.11196 0.12214 0.57238 0.0
O292 O 0.11352 0.10871 0.85123 0.0
O293 O 0.14066 0.13563 0.86184 0.0
O294 O 0.11307 0.08629 0.71882 0.0
O295 O 0.14666 0.09281 0.66796 0.0
O296 O 0.18814 0.11492 0.64558 0.0
O297 O 0.17256 0.11665 0.76769 0.0
C298 C 0.09617 0.1326 0.61847 0.0
C299 C 0.19092 0.11493 0.72014 0.0
Dy300 Dy 0.12516 0.88474 0.28057 0.0
C301 C 0.12216 0.85703 0.58629 0.0
C302 C 0.12585 0.89265 0.12803 0.0
Dy303 Dy 0.12821 0.86346 0.4342 0.0
O304 O 0.10928 0.90005 0.17429 0.0
O305 O 0.14298 0.88204 0.16591 0.0
O306 O 0.08768 0.89884 0.31017 0.0
O307 O 0.09943 0.86575 0.35301 0.0
C308 C 0.08243 0.88084 0.35391 0.0
C309 C 0.17084 0.86275 0.36451 0.0
O310 O 0.12183 0.82833 0.37257 0.0
O311 O 0.12691 0.84514 0.25381 0.0
O312 O 0.14279 0.86042 0.55285 0.0
O313 O 0.10507 0.85608 0.53616 0.0
O314 O 0.16266 0.84587 0.40849 0.0
O315 O 0.15601 0.8805 0.36082 0.0
O316 O 0.1359 0.91897 0.3379 0.0
O317 O 0.12269 0.9036 0.45136 0.0
C318 C 0.12397 0.82619 0.29827 0.0
C319 C 0.12946 0.92209 0.40876 0.0
H320 H 0.36159 0.96073 0.35969 0.0
H321 H 0.43738 0.94116 0.33709 0.0
H322 H 0.44575 0.98026 0.27569 0.0
H323 H 0.35623 0.98747 0.18143 0.0
H324 H 0.3363 0.01176 0.2086 0.0
H325 H 0.33636 0.98392 0.26115 0.0
H326 H 0.34538 0.0075 0.38361 0.0
H327 H 0.34521 0.03548 0.33148 0.0
H328 H 0.37125 0.0274 0.38757 0.0
H329 H 0.44571 0.01833 0.20707 0.0
H330 H 0.43775 0.05456 0.13222 0.0
H331 H 0.36153 0.0516 0.19342 0.0
C332 C 0.38002 0.96516 0.34373 0.0
C333 C 0.39903 0.94825 0.3542 0.0
C334 C 0.42274 0.95407 0.33027 0.0
C335 C 0.42764 0.97622 0.29548 0.0
C336 C 0.40856 0.99234 0.28434 0.0
C337 C 0.3852 0.98727 0.30761 0.0
C338 C 0.36785 0.00716 0.28218 0.0
C339 C 0.34802 0.99696 0.23025 0.0
C340 C 0.35677 0.02016 0.35028 0.0
C341 C 0.38507 0.02374 0.23936 0.0
C342 C 0.40846 0.01476 0.24256 0.0
C343 C 0.42755 0.02572 0.20481 0.0
C344 C 0.42274 0.0463 0.16199 0.0
C345 C 0.39902 0.05606 0.15694 0.0
C346 C 0.37988 0.04474 0.19693 0.0
H347 H 0.94261 0.65058 0.77594 0.0
H348 H 0.95773 0.59912 0.59848 0.0
H349 H 0.99899 0.59277 0.64986 0.0
H350 H 1.00307 0.67796 0.77328 0.0
H351 H 1.00375 0.68293 0.87343 0.0
H352 H 0.97521 0.68289 0.82401 0.0
H353 H 0.95914 0.64959 0.91362 0.0
H354 H 0.98768 0.64942 0.96303 0.0
H355 H 0.9759 0.62179 0.92365 0.0
H356 H 0.03685 0.58888 0.72843 0.0
H357 H 0.07162 0.59293 0.81571 0.0
H358 H 0.03489 0.65138 0.93079 0.0
C359 C 0.95474 0.63811 0.74792 0.0
C360 C 0.9471 0.62522 0.68352 0.0
C361 C 0.96339 0.6092 0.64768 0.0
C362 C 0.98676 0.60539 0.67669 0.0
C363 C 0.99378 0.61823 0.74053 0.0
C364 C 0.9785 0.63471 0.77471 0.0
C365 C 0.99104 0.64695 0.84056 0.0
C366 C 0.99341 0.6743 0.82698 0.0
C367 C 0.97764 0.64161 0.91459 0.0
C368 C 0.01562 0.63456 0.83856 0.0
C369 C 0.01658 0.61766 0.78139 0.0
C370 C 0.03655 0.60248 0.77212 0.0
C371 C 0.05618 0.60487 0.82186 0.0
C372 C 0.05615 0.62296 0.87797 0.0
C373 C 0.03558 0.63792 0.88665 0.0
H374 H 0.63928 0.98321 0.0737 0.0
H375 H 0.61463 0.93832 0.25765 0.0
H376 H 0.61745 0.97301 0.34433 0.0
H377 H 0.67976 0.02213 0.17516 0.0
H378 H 0.67079 0.04946 0.12732 0.0
H379 H 0.66846 0.02075 0.08009 0.0
H380 H 0.62284 0.02844 0.0546 0.0
H381 H 0.62514 0.05728 0.10101 0.0
H382 H 0.60301 0.03547 0.13212 0.0
H383 H 0.62539 0.01189 0.41214 0.0
H384 H 0.63002 0.05422 0.4535 0.0
H385 H 0.64376 0.07612 0.22307 0.0
C386 C 0.63452 0.98082 0.13231 0.0
C387 C 0.62817 0.95776 0.16058 0.0
C388 C 0.62124 0.95537 0.23658 0.0
C389 C 0.6224 0.97511 0.28581 0.0
C390 C 0.62968 0.99743 0.25727 0.0
C391 C 0.63486 1.00064 0.18185 0.0
C392 C 0.64042 0.02703 0.16508 0.0
C393 C 0.66641 0.03 0.13515 0.0
C394 C 0.62174 0.03768 0.10995 0.0
C395 C 0.63781 0.038 0.24298 0.0
C396 C 0.63207 0.02045 0.2954 0.0
C397 C 0.62962 0.02585 0.37153 0.0
C398 C 0.6325 0.04992 0.39459 0.0
C399 C 0.63729 0.06843 0.3416 0.0
C400 C 0.64008 0.06232 0.26479 0.0
H401 H 0.97455 0.41175 0.94396 0.0
H402 H 0.93861 0.35329 0.82541 0.0
H403 H 0.97382 0.34928 0.7414 0.0
H404 H 1.00563 0.43828 0.78451 0.0
H405 H 0.03332 0.44438 0.83504 0.0
H406 H 1.00478 0.44384 0.88435 0.0
H407 H 0.02167 0.41153 0.97598 0.0
H408 H 0.05028 0.41205 0.92715 0.0
H409 H 0.0342 0.38392 0.93877 0.0
H410 H 0.01189 0.35201 0.66808 0.0
H411 H 0.05285 0.35821 0.61704 0.0
H412 H 0.06697 0.41248 0.78791 0.0
C413 C 0.97414 0.3982 0.90008 0.0
C414 C 0.95358 0.38316 0.89015 0.0
C415 C 0.9539 0.36532 0.83313 0.0
C416 C 0.97386 0.36286 0.78517 0.0
C417 C 0.99373 0.37802 0.79581 0.0
C418 C 0.9943 0.39508 0.8525 0.0
C419 C 0.01865 0.40808 0.8536 0.0
C420 C 0.01539 0.43526 0.83846 0.0
C421 C 0.03199 0.40362 0.92831 0.0
C422 C 0.03149 0.3957 0.78849 0.0
C423 C 0.01653 0.37867 0.75557 0.0
C424 C 0.02383 0.3652 0.69356 0.0
C425 C 0.04715 0.36897 0.66471 0.0
C426 C 0.06317 0.38585 0.69829 0.0
C427 C 0.05517 0.3994 0.76117 0.0
H428 H 0.37066 0.47705 0.19713 0.0
H429 H 0.39768 0.43016 0.02176 0.0
H430 H 0.39789 0.46428 0.93243 0.0
H431 H 0.33382 0.51697 0.08361 0.0
H432 H 0.34281 0.54406 0.13254 0.0
H433 H 0.34263 0.51546 0.18117 0.0
H434 H 0.38777 0.52134 0.21744 0.0
H435 H 0.38803 0.55 0.16926 0.0
H436 H 0.40981 0.52704 0.14469 0.0
H437 H 0.39363 0.50336 0.86098 0.0
H438 H 0.39158 0.54577 0.81706 0.0
H439 H 0.37283 0.56891 0.04258 0.0
C440 C 0.37634 0.47405 0.13961 0.0
C441 C 0.38257 0.45063 0.11447 0.0
C442 C 0.39102 0.44749 0.04018 0.0
C443 C 0.39161 0.46692 0.98948 0.0
C444 C 0.38458 0.48967 1.01497 0.0
C445 C 0.37771 0.4935 0.0888 0.0
C446 C 0.37298 0.52015 0.10308 0.0
C447 C 0.34648 0.5244 0.12648 0.0
C448 C 0.39071 0.53022 0.16211 0.0
C449 C 0.37805 0.5306 0.02567 0.0
C450 C 0.3843 0.51261 0.97542 0.0
C451 C 0.38899 0.51764 0.89996 0.0
C452 C 0.38764 0.54174 0.8754 0.0
C453 C 0.38215 0.56056 0.92644 0.0
C454 C 0.37725 0.55486 1.0025 0.0
H455 H 0.5449 0.64911 0.11455 0.0
H456 H 0.57859 0.58527 0.01912 0.0
H457 H 0.54086 0.57585 0.9509 0.0
H458 H 0.48241 0.62398 0.13036 0.0
H459 H 0.4681 0.65187 0.10238 0.0
H460 H 0.49676 0.65249 0.15128 0.0
H461 H 0.51544 0.67772 0.04308 0.0
H462 H 0.4869 0.67713 0.99384 0.0
H463 H 0.514 0.66639 0.94816 0.0
H464 H 0.50106 0.57399 0.88833 0.0
H465 H 0.4612 0.5806 0.82957 0.0
H466 H 0.45238 0.64675 0.95791 0.0
C467 C 0.54402 0.63292 0.0805 0.0
C468 C 0.56454 0.61774 0.07248 0.0
C469 C 0.56304 0.59706 0.02598 0.0
C470 C 0.54166 0.59151 0.98725 0.0
C471 C 0.52189 0.60695 0.99487 0.0
C472 C 0.52274 0.62728 0.04003 0.0
C473 C 0.49928 0.64166 0.0331 0.0
C474 C 0.48585 0.64255 0.10879 0.0
C475 C 0.50421 0.66724 1.00273 0.0
C476 C 0.48546 0.62644 0.97609 0.0
C477 C 0.49883 0.60633 0.95599 0.0
C478 C 0.49036 0.58962 0.90371 0.0
C479 C 0.46768 0.59358 0.87049 0.0
C480 C 0.45371 0.61422 0.88879 0.0
C481 C 0.46268 0.6308 0.94281 0.0
H482 H 0.60554 0.54035 0.17247 0.0
H483 H 0.66469 0.57509 0.05348 0.0
H484 H 0.669 0.53906 0.9725 0.0
H485 H 0.63267 0.48064 0.17353 0.0
H486 H 0.60417 0.46509 0.16213 0.0
H487 H 0.6051 0.49396 0.20882 0.0
H488 H 0.57334 0.51075 0.11484 0.0
H489 H 0.57237 0.48195 0.0677 0.0
H490 H 0.57924 0.50901 1.0153 0.0
H491 H 0.66584 0.49988 0.90136 0.0
H492 H 0.6581 0.45882 0.85244 0.0
H493 H 0.60329 0.44782 0.02404 0.0
C494 C 0.61939 0.54034 0.12933 0.0
C495 C 0.63455 0.56067 0.11836 0.0
C496 C 0.65265 0.55987 0.06204 0.0
C497 C 0.65526 0.53946 1.0159 0.0
C498 C 0.63992 0.51977 0.02772 0.0
C499 C 0.62257 0.51987 0.08376 0.0
C500 C 0.60904 0.49596 0.08637 0.0
C501 C 0.61299 0.48316 0.16222 0.0
C502 C 0.58189 0.49965 0.07007 0.0
C503 C 0.62141 0.48246 0.02282 0.0
C504 C 0.63896 0.49667 0.98919 0.0
C505 C 0.65228 0.48853 0.92764 0.0
C506 C 0.64768 0.46521 0.90004 0.0
C507 C 0.63018 0.4501 0.93459 0.0
C508 C 0.61694 0.45889 0.99695 0.0
H509 H 0.4396 0.40464 0.9957 0.0
H510 H 0.45145 0.34642 0.15527 0.0
H511 H 0.49242 0.3399 0.103 0.0
H512 H 0.47257 0.37905 0.83893 0.0
H513 H 0.48555 0.40745 0.80972 0.0
H514 H 0.45665 0.40691 0.85689 0.0
H515 H 0.4731 0.4364 0.95779 0.0
H516 H 0.50205 0.43709 0.91089 0.0
H517 H 0.50033 0.42875 1.00876 0.0
H518 H 0.53114 0.33847 0.03076 0.0
H519 H 0.56738 0.34498 0.95266 0.0
H520 H 0.5329 0.40688 0.84716 0.0
C521 C 0.45081 0.39043 0.01916 0.0
C522 C 0.4423 0.37584 0.07909 0.0
C523 C 0.45761 0.35775 0.10937 0.0
C524 C 0.48086 0.35386 0.07985 0.0
C525 C 0.48874 0.36851 0.02089 0.0
C526 C 0.47437 0.38668 0.9915 0.0
C527 C 0.48785 0.40066 0.93085 0.0
C528 C 0.47488 0.39837 0.85458 0.0
C529 C 0.49102 0.4273 0.95345 0.0
C530 C 0.512 0.38741 0.93058 0.0
C531 C 0.51187 0.36871 0.98229 0.0
C532 C 0.53159 0.35327 0.99091 0.0
C533 C 0.55215 0.35717 0.94634 0.0
C534 C 0.55321 0.37676 0.89505 0.0
C535 C 0.53274 0.39198 0.8867 0.0
H536 H 0.90581 0.44827 0.7616 0.0
H537 H 0.85066 0.46122 0.9306 0.0
H538 H 0.84203 0.50115 0.87393 0.0
H539 H 0.92865 0.50981 0.76051 0.0
H540 H 0.93489 0.50989 0.66104 0.0
H541 H 0.93607 0.48197 0.71316 0.0
H542 H 0.90499 0.46297 0.62121 0.0
H543 H 0.90359 0.49088 0.5691 0.0
H544 H 0.87621 0.47768 0.60626 0.0
H545 H 0.83765 0.53854 0.79417 0.0
H546 H 0.84172 0.57339 0.70804 0.0
H547 H 0.90266 0.53842 0.59892 0.0
C548 C 0.89193 0.45956 0.78655 0.0
C549 C 0.8788 0.45166 0.8503 0.0
C550 C 0.861 0.467 0.88202 0.0
C551 C 0.85587 0.48963 0.84993 0.0
C552 C 0.86902 0.49687 0.78689 0.0
C553 C 0.88701 0.48252 0.75633 0.0
C554 C 0.89929 0.49517 0.69079 0.0
C555 C 0.92633 0.49947 0.7074 0.0
C556 C 0.8958 0.48082 0.61751 0.0
C557 C 0.88527 0.51879 0.68899 0.0
C558 C 0.86762 0.51919 0.74413 0.0
C559 C 0.85169 0.5386 0.75166 0.0
C560 C 0.85416 0.55833 0.70256 0.0
C561 C 0.87289 0.5589 0.6482 0.0
C562 C 0.88842 0.53868 0.64083 0.0
H563 H 0.56436 0.15088 0.32176 0.0
H564 H 0.55709 0.08442 0.44993 0.0
H565 H 0.51819 0.07609 0.3872 0.0
H566 H 0.50263 0.16802 0.3263 0.0
H567 H 0.50139 0.1794 0.23135 0.0
H568 H 0.52966 0.17966 0.28216 0.0
H569 H 0.55004 0.15516 0.17556 0.0
H570 H 0.52183 0.15482 0.12419 0.0
H571 H 0.53695 0.12681 0.14646 0.0
H572 H 0.47905 0.07663 0.32289 0.0
H573 H 0.44136 0.08487 0.25415 0.0
H574 H 0.4732 0.14968 0.15813 0.0
C575 C 0.55463 0.13448 0.33582 0.0
C576 C 0.56365 0.11829 0.39091 0.0
C577 C 0.55048 0.09706 0.40809 0.0
C578 C 0.5284 0.09213 0.37259 0.0
C579 C 0.51984 0.10847 0.31925 0.0
C580 C 0.53252 0.12911 0.3001 0.0
C581 C 0.51858 0.14385 0.24208 0.0
C582 C 0.51272 0.16923 0.27231 0.0
C583 C 0.53269 0.14524 0.16766 0.0
C584 C 0.49575 0.12862 0.23382 0.0
C585 C 0.49712 0.10827 0.27895 0.0
C586 C 0.47789 0.09222 0.28622 0.0
C587 C 0.45653 0.0971 0.24697 0.0
C588 C 0.4545 0.11769 0.2 0.0
C589 C 0.4745 0.13353 0.19238 0.0
H590 H 0.10739 0.56626 0.75282 0.0
H591 H 0.1641 0.55569 0.91905 0.0
H592 H 0.17075 0.51424 0.87152 0.0
H593 H 0.08259 0.5061 0.76724 0.0
H594 H 0.07553 0.50381 0.66852 0.0
H595 H 0.07583 0.53296 0.71361 0.0
H596 H 0.10687 0.54849 0.61564 0.0
H597 H 0.10669 0.51939 0.57021 0.0
H598 H 0.1349 0.53228 0.6022 0.0
H599 H 0.17203 0.47437 0.80395 0.0
H600 H 0.16619 0.43784 0.7265 0.0
H601 H 0.10672 0.4728 0.60922 0.0
C602 C 0.12131 0.55527 0.77892 0.0
C603 C 0.13535 0.56428 0.8395 0.0
C604 C 0.15312 0.54919 0.87275 0.0
C605 C 0.15707 0.52563 0.84597 0.0
C606 C 0.14288 0.51727 0.78644 0.0
C607 C 0.1252 0.53152 0.75371 0.0
C608 C 0.1119 0.51781 0.69222 0.0
C609 C 0.08486 0.515 0.71158 0.0
C610 C 0.1153 0.53023 0.61553 0.0
C611 C 0.12497 0.49364 0.69517 0.0
C612 C 0.14291 0.49385 0.74956 0.0
C613 C 0.15788 0.47393 0.76176 0.0
C614 C 0.15437 0.45321 0.7176 0.0
C615 C 0.13578 0.45231 0.66264 0.0
C616 C 0.12093 0.47287 0.65132 0.0
H617 H 0.57209 0.90837 0.29332 0.0
H618 H 0.56006 0.8533 0.12359 0.0
H619 H 0.51888 0.84636 0.17329 0.0
H620 H 0.5387 0.8796 0.44421 0.0
H621 H 0.52593 0.90739 0.47927 0.0
H622 H 0.55486 0.90768 0.43222 0.0
H623 H 0.53866 0.9395 0.3378 0.0
H624 H 0.50967 0.93931 0.3845 0.0
H625 H 0.51143 0.9332 0.28512 0.0
H626 H 0.47963 0.84439 0.24246 0.0
H627 H 0.44346 0.84918 0.32217 0.0
H628 H 0.47877 0.90751 0.44307 0.0
C629 C 0.56081 0.89474 0.26703 0.0
C630 C 0.56937 0.88127 0.20466 0.0
C631 C 0.55392 0.86388 0.17115 0.0
C632 C 0.53051 0.85975 0.19916 0.0
C633 C 0.52257 0.87336 0.26028 0.0
C634 C 0.53711 0.89067 0.29354 0.0
C635 C 0.52365 0.90333 0.35697 0.0
C636 C 0.53655 0.89925 0.43265 0.0
C637 C 0.52068 0.93044 0.34006 0.0
C638 C 0.49936 0.8903 0.35436 0.0
C639 C 0.49933 0.87295 0.29842 0.0
C640 C 0.47936 0.85807 0.2859 0.0
C641 C 0.45883 0.861 0.33138 0.0
C642 C 0.4581 0.87895 0.3881 0.0
C643 C 0.47871 0.89379 0.39969 0.0
H644 H 0.88449 0.95135 0.55152 0.0
H645 H 0.87269 0.97681 0.77917 0.0
H646 H 0.86952 0.01864 0.73257 0.0
H647 H 0.9229 1.00013 0.49817 0.0
H648 H 0.91209 1.00247 0.40275 0.0
H649 H 0.91066 0.97392 0.45137 0.0
H650 H 0.86457 0.97147 0.42556 0.0
H651 H 0.86581 1.00002 0.37666 0.0
H652 H 0.84518 0.99603 0.45429 0.0
H653 H 0.86988 0.0571 0.66626 0.0
H654 H 0.87554 0.09195 0.58348 0.0
H655 H 0.88879 0.04399 0.39448 0.0
C656 C 0.88072 0.96577 0.59094 0.0
C657 C 0.87849 0.96093 0.66894 0.0
C658 C 0.87431 0.98019 0.71936 0.0
C659 C 0.8724 1.00398 0.69335 0.0
C660 C 0.87501 0.00831 0.61663 0.0
C661 C 0.87922 0.98991 0.56583 0.0
C662 C 0.88328 1.00022 0.48721 0.0
C663 C 0.90875 0.9938 0.45819 0.0
C664 C 0.86352 0.99141 0.43271 0.0
C665 C 0.88093 0.02725 0.50236 0.0
C666 C 0.87591 0.0312 0.57754 0.0
C667 C 0.87374 0.05429 0.60726 0.0
C668 C 0.87715 0.07401 0.55952 0.0
C669 C 0.8828 0.07081 0.48238 0.0
C670 C 0.88431 0.04702 0.45297 0.0
H671 H 0.07021 0.10514 0.51959 0.0
H672 H 0.06599 0.16986 0.65639 0.0
H673 H 0.02431 0.17733 0.60941 0.0
H674 H 0.03633 0.12673 0.36032 0.0
H675 H 0.02104 0.09837 0.34464 0.0
H676 H 0.05073 0.09873 0.38693 0.0
H677 H 0.03428 0.07467 0.50112 0.0
H678 H 1.00453 0.07421 0.45918 0.0
H679 H 0.00861 0.0862 0.55255 0.0
H680 H 0.98391 0.17865 0.54191 0.0
H681 H 0.94631 0.17175 0.46938 0.0
H682 H 0.97534 0.10389 0.38698 0.0
C683 C 0.06054 0.12098 0.5392 0.0
C684 C 0.0713 0.13711 0.59096 0.0
C685 C 0.05799 0.15734 0.61667 0.0
C686 C 0.03439 0.16174 0.59011 0.0
C687 C 0.02426 0.14546 0.53903 0.0
C688 C 0.03679 0.12531 0.51467 0.0
C689 C 0.02142 0.11005 0.46229 0.0
C690 C 0.03308 0.10838 0.3839 0.0
C691 C 0.01695 0.08479 0.49581 0.0
C692 C 0.99832 0.12486 0.46037 0.0
C693 C 1.00044 0.14538 0.50427 0.0
C694 C 0.98188 0.16242 0.50858 0.0
C695 C 0.96052 0.15826 0.4676 0.0
C696 C 0.9576 0.13693 0.42455 0.0
C697 C 0.97687 0.12013 0.42063 0.0
H698 H 0.16125 0.96114 0.42018 0.0
H699 H 0.08766 0.93788 0.46707 0.0
H700 H 0.07911 0.97692 0.52791 0.0
H701 H 0.17062 0.9901 0.59453 0.0
H702 H 0.18814 0.01513 0.55883 0.0
H703 H 0.18808 0.98672 0.50949 0.0
H704 H 0.17404 0.0085 0.38826 0.0
H705 H 0.17381 0.03706 0.43712 0.0
H706 H 0.14687 0.02661 0.38984 0.0
H707 H 0.07873 0.0162 0.59057 0.0
H708 H 0.08679 0.05403 0.65795 0.0
H709 H 0.16122 0.0534 0.57825 0.0
C710 C 0.14324 0.96464 0.44183 0.0
C711 C 0.12495 0.94666 0.43835 0.0
C712 C 0.1018 0.95148 0.46899 0.0
C713 C 0.09676 0.97363 0.50338 0.0
C714 C 0.11513 0.99085 0.5074 0.0
C715 C 0.13795 0.98677 0.47778 0.0
C716 C 0.15476 0.0079 0.49585 0.0
C717 C 0.1767 0.99945 0.54245 0.0
C718 C 0.16285 0.02078 0.42345 0.0
C719 C 0.13797 0.02395 0.542 0.0
C720 C 0.11512 0.01378 0.54638 0.0
C721 C 0.0965 0.02445 0.58726 0.0
C722 C 0.10133 0.04594 0.62565 0.0
C723 C 0.12464 0.05668 0.62369 0.0
C724 C 0.14319 0.04567 0.58043 0.0
H725 H 0.04181 0.91028 0.35614 0.0
H726 H 0.07104 0.84346 0.4464 0.0
H727 H 0.0348 0.83862 0.52583 0.0
H728 H 0.01158 0.93153 0.52197 0.0
H729 H 0.98499 0.94233 0.47336 0.0
H730 H 0.01378 0.94143 0.4256 0.0
H731 H 0.99488 0.91519 0.3201 0.0
H732 H 0.96601 0.91609 0.36742 0.0
H733 H 0.97963 0.88742 0.34439 0.0
H734 H 0.99686 0.84212 0.60113 0.0
H735 H 0.95654 0.85065 0.6554 0.0
H736 H 0.94859 0.91219 0.506 0.0
C737 C 0.04052 0.89467 0.3927 0.0
C738 C 0.05967 0.87767 0.39717 0.0
C739 C 0.05706 0.85718 0.44421 0.0
C740 C 0.03643 0.85416 0.48915 0.0
C741 C 0.0181 0.8714 0.48469 0.0
C742 C 0.01959 0.89096 0.43645 0.0
C743 C 0.99654 0.90602 0.4399 0.0
C744 C 1.00206 0.93186 0.46682 0.0
C745 C 0.9835 0.90618 0.36341 0.0
C746 C 0.98212 0.89202 0.49833 0.0
C747 C 0.99514 0.87233 0.5241 0.0
C748 C 0.98633 0.85729 0.58075 0.0
C749 C 0.96349 0.86233 0.61147 0.0
C750 C 0.94946 0.88193 0.5845 0.0
C751 C 0.95887 0.89691 0.52694 0.0
H752 H 0.34129 0.20121 0.10543 0.0
H753 H 0.41835 0.18814 0.13115 0.0
H754 H 0.42502 0.23205 0.15203 0.0
H755 H 0.34697 0.25804 1.00512 0.0
H756 H 0.32042 0.27063 0.04937 0.0
H757 H 0.32272 0.23849 0.03565 0.0
H758 H 0.31546 0.23217 0.17842 0.0
H759 H 0.31396 0.26436 0.19285 0.0
H760 H 0.33544 0.24645 0.24526 0.0
H761 H 0.42236 0.2782 0.1758 0.0
H762 H 0.41161 0.32189 0.17703 0.0
H763 H 0.33666 0.30349 0.1331 0.0
C764 C 0.35964 0.20765 0.11423 0.0
C765 C 0.37931 0.19135 0.11635 0.0
C766 C 0.40305 0.2004 0.12834 0.0
C767 C 0.40694 0.22526 0.14123 0.0
C768 C 0.38693 0.24077 0.14143 0.0
C769 C 0.36382 0.23227 0.12654 0.0
C770 C 0.34535 0.25247 0.12725 0.0
C771 C 0.33316 0.25507 0.04975 0.0
C772 C 0.32644 0.24862 0.18967 0.0
C773 C 0.36157 0.2738 0.14464 0.0
C774 C 0.38547 0.26681 0.15396 0.0
C775 C 0.40367 0.28378 0.16889 0.0
C776 C 0.39741 0.30852 0.17072 0.0
C777 C 0.37325 0.31587 0.15695 0.0
C778 C 0.35516 0.29823 0.1457 0.0
H779 H 0.30533 0.60193 0.90808 0.0
H780 H 0.32293 0.67254 0.81696 0.0
H781 H 0.27945 0.68347 0.81846 0.0
H782 H 0.24891 0.59493 0.79734 0.0
H783 H 0.23352 0.57886 0.87151 0.0
H784 H 0.26599 0.57668 0.86263 0.0
H785 H 0.27051 0.59083 1.00069 0.0
H786 H 0.23807 0.59369 1.0093 0.0
H787 H 0.25736 0.61923 0.02913 0.0
H788 H 0.23523 0.68799 0.83913 0.0
H789 H 0.19099 0.68315 0.8486 0.0
H790 H 0.20024 0.60845 0.91715 0.0
C791 C 0.29986 0.61948 0.88694 0.0
C792 C 0.31738 0.6364 0.86196 0.0
C793 C 0.30975 0.65924 0.83519 0.0
C794 C 0.28514 0.66569 0.83683 0.0
C795 C 0.2684 0.64892 0.86408 0.0
C796 C 0.27523 0.62599 0.88629 0.0
C797 C 0.25323 0.61106 0.90919 0.0
C798 C 0.25023 0.58908 0.85705 0.0
C799 C 0.25491 0.60325 0.99201 0.0
C800 C 0.23298 0.62933 0.89744 0.0
C801 C 0.24239 0.65116 0.87278 0.0
C802 C 0.22765 0.67096 0.85775 0.0
C803 C 0.20255 0.66808 0.86398 0.0
C804 C 0.19226 0.64555 0.88438 0.0
C805 C 0.20767 0.62603 0.90334 0.0
H806 H 0.6765 0.8105 0.17089 0.0
H807 H 0.60425 0.82859 0.09391 0.0
H808 H 0.59355 0.78485 0.09269 0.0
H809 H 0.68288 0.75417 0.06149 0.0
H810 H 0.69999 0.73994 0.13577 0.0
H811 H 0.70157 0.7722 0.12297 0.0
H812 H 0.6888 0.77789 0.26212 0.0
H813 H 0.68631 0.74569 0.27458 0.0
H814 H 0.66071 0.76489 0.29465 0.0
H815 H 0.59033 0.73822 0.11345 0.0
H816 H 0.59702 0.69414 0.13205 0.0
H817 H 0.6717 0.70828 0.19356 0.0
C818 C 0.65865 0.80518 0.15134 0.0
C819 C 0.6413 0.82276 0.13124 0.0
C820 C 0.61798 0.81529 0.10756 0.0
C821 C 0.61169 0.79052 0.10785 0.0
C822 C 0.62905 0.77363 0.13126 0.0
C823 C 0.65228 0.78075 0.15063 0.0
C824 C 0.66776 0.75952 0.17438 0.0
C825 C 0.68932 0.75626 0.12042 0.0
C826 C 0.67639 0.76218 0.25629 0.0
C827 C 0.64965 0.73919 0.16666 0.0
C828 C 0.62731 0.7475 0.14237 0.0
C829 C 0.60782 0.73163 0.13203 0.0
C830 C 0.61165 0.70666 0.14374 0.0
C831 C 0.63481 0.69791 0.16504 0.0
C832 C 0.65374 0.71453 0.1781 0.0
H833 H 0.80525 0.34022 0.93533 0.0
H834 H 0.82053 0.41704 0.92768 0.0
H835 H 0.77669 0.42535 0.90822 0.0
H836 H 0.76203 0.33922 0.79189 0.0
H837 H 0.7428 0.31689 0.83547 0.0
H838 H 0.7748 0.31724 0.85554 0.0
H839 H 0.76614 0.32077 0.99835 0.0
H840 H 0.73409 0.31975 0.97893 0.0
H841 H 0.74661 0.34455 0.03198 0.0
H842 H 0.73075 0.42439 0.87862 0.0
H843 H 0.6872 0.41469 0.85954 0.0
H844 H 0.70334 0.33846 0.88643 0.0
C845 C 0.79929 0.35884 0.93146 0.0
C846 C 0.8162 0.37799 0.93357 0.0
C847 C 0.8078 0.40211 0.92738 0.0
C848 C 0.78297 0.40696 0.91549 0.0
C849 C 0.76687 0.38748 0.91049 0.0
C850 C 0.77474 0.36393 0.91979 0.0
C851 C 0.75417 0.34606 0.91093 0.0
C852 C 0.75873 0.32885 0.84451 0.0
C853 C 0.75 0.33196 0.98442 0.0
C854 C 0.7334 0.36311 0.89447 0.0
C855 C 0.74096 0.38695 0.89392 0.0
C856 C 0.7247 0.40578 0.87938 0.0
C857 C 0.70004 0.4001 0.86778 0.0
C858 C 0.69194 0.37581 0.87119 0.0
C859 C 0.70902 0.35719 0.88318 0.0
H860 H 0.84125 0.70606 0.6331 0.0
H861 H 0.91859 0.69346 0.621 0.0
H862 H 0.92583 0.73783 0.62431 0.0
H863 H 0.84047 0.7626 0.51825 0.0
H864 H 0.81683 0.7755 0.57552 0.0
H865 H 0.81841 0.74323 0.56268 0.0
H866 H 0.81925 0.7378 0.70739 0.0
H867 H 0.81852 0.77003 0.72075 0.0
H868 H 0.8427 0.75242 0.76155 0.0
H869 H 0.92415 0.78369 0.64663 0.0
H870 H 0.91376 0.82695 0.66321 0.0
H871 H 0.83728 0.80885 0.65708 0.0
C872 C 0.85964 0.71275 0.62782 0.0
C873 C 0.87937 0.69655 0.62468 0.0
C874 C 0.90326 0.70572 0.6208 0.0
C875 C 0.90749 0.73084 0.62379 0.0
C876 C 0.88758 0.74638 0.63007 0.0
C877 C 0.86408 0.73763 0.62997 0.0
C878 C 0.84578 0.75781 0.63965 0.0
C879 C 0.82941 0.75991 0.56986 0.0
C880 C 0.83068 0.75429 0.71161 0.0
C881 C 0.86256 0.77933 0.64665 0.0
C882 C 0.88662 0.77244 0.6417 0.0
C883 C 0.90536 0.78925 0.64951 0.0
C884 C 0.89929 0.81375 0.65981 0.0
C885 C 0.87471 0.82122 0.66154 0.0
C886 C 0.85622 0.80365 0.65604 0.0
H887 H 0.80692 0.10781 0.45055 0.0
H888 H 0.82835 0.16769 0.30724 0.0
H889 H 0.78569 0.18037 0.29697 0.0
H890 H 0.74998 0.09501 0.34427 0.0
H891 H 0.73357 0.08637 0.4277 0.0
H892 H 0.76586 0.0816 0.42256 0.0
H893 H 0.77113 0.1061 0.54548 0.0
H894 H 0.73894 0.11156 0.54977 0.0
H895 H 0.75982 0.13665 0.55017 0.0
H896 H 0.74259 0.18947 0.31344 0.0
H897 H 0.6983 0.18877 0.32457 0.0
H898 H 0.70203 0.12087 0.44675 0.0
C899 C 0.80243 0.12319 0.41545 0.0
C900 C 0.8209 0.13677 0.37953 0.0
C901 C 0.81451 0.15688 0.33447 0.0
C902 C 0.79036 0.16441 0.32916 0.0
C903 C 0.77273 0.15132 0.3678 0.0
C904 C 0.77818 0.1306 0.40764 0.0
C905 C 0.75525 0.11933 0.44023 0.0
C906 C 0.75091 0.09408 0.40668 0.0
C907 C 0.75637 0.11836 0.52655 0.0
C908 C 0.73619 0.13729 0.41351 0.0
C909 C 0.74703 0.15581 0.37335 0.0
C910 C 0.73381 0.1749 0.34364 0.0
C911 C 0.70866 0.1744 0.35089 0.0
C912 C 0.69675 0.15479 0.38644 0.0
C913 C 0.71069 0.13628 0.42046 0.0
H914 H 0.15179 0.3102 0.56464 0.0
H915 H 0.09056 0.31492 0.7168 0.0
H916 H 0.08991 0.27054 0.72884 0.0
H917 H 0.13163 0.25284 0.47117 0.0
H918 H 0.16229 0.24186 0.46283 0.0
H919 H 0.15636 0.2739 0.46063 0.0
H920 H 0.18668 0.27985 0.57033 0.0
H921 H 0.19225 0.24779 0.57421 0.0
H922 H 0.18215 0.26357 0.6571 0.0
H923 H 0.09929 0.22608 0.73847 0.0
H924 H 0.11346 0.18375 0.72574 0.0
H925 H 0.16694 0.20708 0.56235 0.0
C926 C 0.13772 0.30179 0.59815 0.0
C927 C 0.12113 0.31601 0.63956 0.0
C928 C 0.10336 0.30435 0.68436 0.0
C929 C 0.10294 0.27914 0.69201 0.0
C930 C 0.12025 0.26564 0.65372 0.0
C931 C 0.1369 0.27643 0.60602 0.0
C932 C 0.15376 0.2576 0.57262 0.0
C933 C 0.15083 0.25648 0.48671 0.0
C934 C 0.18027 0.26251 0.59492 0.0
C935 C 0.14424 0.23477 0.61007 0.0
C936 C 0.12506 0.23983 0.65729 0.0
C937 C 0.11404 0.22182 0.70065 0.0
C938 C 0.12232 0.19785 0.69365 0.0
C939 C 0.14116 0.19212 0.64289 0.0
C940 C 0.15238 0.21093 0.60143 0.0
H941 H 0.30725 0.91405 0.39767 0.0
H942 H 0.32791 0.83879 0.42329 0.0
H943 H 0.28559 0.82642 0.40123 0.0
H944 H 0.24819 0.90668 0.49726 0.0
H945 H 0.23288 0.92835 0.43815 0.0
H946 H 0.26488 0.93144 0.45635 0.0
H947 H 0.27286 0.93187 0.31291 0.0
H948 H 0.24093 0.92808 0.29435 0.0
H949 H 0.26251 0.90691 0.25615 0.0
H950 H 0.24318 0.82167 0.36167 0.0
H951 H 0.1991 0.82422 0.34467 0.0
H952 H 0.20263 0.90249 0.36012 0.0
C953 C 0.3026 0.89505 0.40072 0.0
C954 C 0.32078 0.87734 0.41293 0.0
C955 C 0.31422 0.85263 0.41544 0.0
C956 C 0.29029 0.84542 0.40183 0.0
C957 C 0.27297 0.86316 0.38741 0.0
C958 C 0.27845 0.8875 0.38978 0.0
C959 C 0.25569 0.90263 0.37686 0.0
C960 C 0.25008 0.91819 0.4463 0.0
C961 C 0.25816 0.9183 0.30584 0.0
C962 C 0.23673 0.8829 0.36597 0.0
C963 C 0.2475 0.86035 0.37021 0.0
C964 C 0.23443 0.83917 0.35975 0.0
C965 C 0.20939 0.84086 0.34948 0.0
C966 C 0.19738 0.86349 0.35168 0.0
C967 C 0.21132 0.88496 0.35748 0.0
H968 H 0.20643 0.09357 0.85181 0.0
H969 H 0.23036 0.13914 0.66751 0.0
H970 H 0.26833 0.14781 0.73633 0.0
H971 H 0.23039 0.12789 1.00237 0.0
H972 H 0.24054 0.10254 0.05787 0.0
H973 H 0.2153 0.09909 0.99429 0.0
H974 H 0.23715 0.06368 0.92745 0.0
H975 H 0.26223 0.06673 0.99179 0.0
H976 H 0.26744 0.06807 0.89181 0.0
H977 H 0.30037 0.1558 0.82987 0.0
H978 H 0.33141 0.15486 0.92759 0.0
H979 H 0.29076 0.10002 0.04942 0.0
C980 C 0.21996 0.10493 0.82534 0.0
C981 C 0.21551 0.11566 0.75398 0.0
C982 C 0.23352 0.13049 0.72131 0.0
C983 C 0.25499 0.13574 0.76052 0.0
C984 C 0.25842 0.12558 0.83165 0.0
C985 C 0.2419 0.1098 0.86287 0.0
C986 C 0.2508 0.10067 0.93911 0.0
C987 C 0.23321 0.10798 1.00213 0.0
C988 C 0.25464 0.07315 0.93743 0.0
C989 C 0.27483 0.11408 0.94623 0.0
C990 C 0.2783 0.12874 0.88399 0.0
C991 C 0.29819 0.14391 0.87778 0.0
C992 C 0.31576 0.14321 0.93422 0.0
C993 C 0.31403 0.1269 0.99592 0.0
C994 C 0.29277 0.11261 1.00322 0.0
H995 H 0.1014 0.72669 0.97435 0.0
H996 H 0.16601 0.69147 0.06157 0.0
H997 H 0.16999 0.72271 0.15805 0.0
H998 H 0.12627 0.78976 1.00808 0.0
H999 H 0.09683 0.80172 0.03143 0.0
H1000 H 0.09943 0.7771 0.96559 0.0
H1001 H 0.06982 0.75194 0.0472 0.0
H1002 H 0.06766 0.77621 0.11433 0.0
H1003 H 0.07694 0.74652 0.14477 0.0
H1004 H 0.1639 0.75348 0.25757 0.0
H1005 H 0.15474 0.78971 0.3341 0.0
H1006 H 0.09784 0.80944 0.17724 0.0
C1007 C 0.11683 0.72609 1.01199 0.0
C1008 C 0.13313 0.70624 1.01071 0.0
C1009 C 0.15298 0.70615 0.06176 0.0
C1010 C 0.15542 0.7238 0.11736 0.0
C1011 C 0.13834 0.74218 0.12044 0.0
C1012 C 0.12005 0.74422 0.06739 0.0
C1013 C 0.10485 0.76666 0.08325 0.0
C1014 C 0.10698 0.78489 0.01823 0.0
C1015 C 0.07824 0.75992 0.09827 0.0
C1016 C 0.11708 0.77618 0.15431 0.0
C1017 C 0.13605 0.7614 0.17537 0.0
C1018 C 0.14935 0.7655 0.24105 0.0
C1019 C 0.14382 0.78588 0.28484 0.0
C1020 C 0.1255 0.80216 0.26203 0.0
C1021 C 0.11183 0.79711 0.19621 0.0
H1022 H 0.70245 0.87985 0.92508 0.0
H1023 H 0.72738 0.9276 0.10246 0.0
H1024 H 0.76467 0.93605 0.02887 0.0
H1025 H 0.76105 0.85427 0.88298 0.0
H1026 H 0.75503 0.8519 0.78361 0.0
H1027 H 0.73039 0.85035 0.84978 0.0
H1028 H 0.70901 0.88561 0.78051 0.0
H1029 H 0.73376 0.88747 0.71467 0.0
H1030 H 0.72483 0.91381 0.76743 0.0
H1031 H 0.79889 0.93971 0.93439 0.0
H1032 H 0.8302 0.93383 0.83692 0.0
H1033 H 0.7838 0.88257 0.72213 0.0
C1034 C 0.71576 0.89207 0.94877 0.0
C1035 C 0.71188 0.90319 0.01974 0.0
C1036 C 0.72994 0.91879 0.0487 0.0
C1037 C 0.75107 0.92386 1.00682 0.0
C1038 C 0.75399 0.913 0.93633 0.0
C1039 C 0.73701 0.89707 0.90821 0.0
C1040 C 0.745 0.88681 0.83281 0.0
C1041 C 0.74805 0.8592 0.83762 0.0
C1042 C 0.72708 0.89385 0.77015 0.0
C1043 C 0.76926 0.89942 0.82258 0.0
C1044 C 0.77387 0.91473 0.88255 0.0
C1045 C 0.79536 0.92789 0.88719 0.0
C1046 C 0.81295 0.92462 0.83108 0.0
C1047 C 0.80917 0.9083 0.77082 0.0
C1048 C 0.78682 0.89583 0.76588 0.0
H1049 H 0.9093 0.31741 0.12935 0.0
H1050 H 0.86936 0.29036 0.9368 0.0
H1051 H 0.86104 0.25235 1.0058 0.0
H1052 H 0.93727 0.25885 0.17715 0.0
H1053 H 0.93621 0.26441 0.27695 0.0
H1054 H 0.93893 0.28937 0.21231 0.0
H1055 H 0.90077 0.30892 0.27128 0.0
H1056 H 0.89759 0.28375 0.33495 0.0
H1057 H 0.87278 0.2921 0.27415 0.0
H1058 H 0.85381 0.2195 0.09844 0.0
H1059 H 0.85594 0.18846 0.19655 0.0
H1060 H 0.90421 0.23386 0.32804 0.0
C1061 C 0.89916 0.30326 0.10136 0.0
C1062 C 0.88998 0.30675 0.02748 0.0
C1063 C 0.87679 0.28793 0.9927 0.0
C1064 C 0.87174 0.26644 0.03193 0.0
C1065 C 0.88041 0.26387 0.10539 0.0
C1066 C 0.8945 0.28139 0.13905 0.0
C1067 C 0.90261 0.27336 0.21724 0.0
C1068 C 0.93041 0.27137 0.22112 0.0
C1069 C 0.89285 0.29056 0.27798 0.0
C1070 C 0.89066 0.2486 0.22259 0.0
C1071 C 0.87752 0.24395 0.15775 0.0
C1072 C 0.86435 0.22277 0.14877 0.0
C1073 C 0.86563 0.20528 0.20534 0.0
C1074 C 0.88041 0.20852 0.27003 0.0
C1075 C 0.89257 0.23088 0.27988 0.0
H1076 H 0.30712 0.41352 0.3508 0.0
H1077 H 0.28649 0.35871 0.1888 0.0
H1078 H 0.252 0.34694 0.27009 0.0
H1079 H 0.29214 0.38139 0.51766 0.0
H1080 H 0.27963 0.40695 0.56704 0.0
H1081 H 0.30271 0.41148 0.49672 0.0
H1082 H 0.27473 0.44097 0.42372 0.0
H1083 H 0.2519 0.43713 0.49508 0.0
H1084 H 0.2446 0.4314 0.39788 0.0
H1085 H 0.22248 0.33856 0.37378 0.0
H1086 H 0.19205 0.34121 0.47445 0.0
H1087 H 0.22836 0.40428 0.56539 0.0
C1088 C 0.29494 0.39945 0.33165 0.0
C1089 C 0.29933 0.38713 0.26297 0.0
C1090 C 0.2832 0.36867 0.24021 0.0
C1091 C 0.26382 0.36161 0.28674 0.0
C1092 C 0.26056 0.37349 0.35533 0.0
C1093 C 0.27509 0.39261 0.37655 0.0
C1094 C 0.26668 0.4032 0.45119 0.0
C1095 C 0.28647 0.4006 0.51171 0.0
C1096 C 0.25901 0.42975 0.44137 0.0
C1097 C 0.24502 0.38707 0.4686 0.0
C1098 C 0.24245 0.3696 0.41344 0.0
C1099 C 0.22418 0.3523 0.41673 0.0
C1100 C 0.20714 0.35379 0.47486 0.0
C1101 C 0.20793 0.37275 0.52845 0.0
C1102 C 0.22762 0.38921 0.52667 0.0
H1103 H 0.37204 0.72596 0.80269 0.0
H1104 H 0.43489 0.68989 0.70909 0.0
H1105 H 0.43916 0.72216 0.61457 0.0
H1106 H 0.34677 0.74547 0.63461 0.0
H1107 H 0.3371 0.77494 0.66563 0.0
H1108 H 0.34002 0.75063 0.73248 0.0
H1109 H 0.36959 0.77615 0.81313 0.0
H1110 H 0.36616 0.80084 0.74776 0.0
H1111 H 0.39596 0.78942 0.76964 0.0
H1112 H 0.43307 0.75475 0.51782 0.0
H1113 H 0.4228 0.79125 0.44328 0.0
H1114 H 0.36595 0.80855 0.60268 0.0
C1115 C 0.38736 0.72555 0.76468 0.0
C1116 C 0.40342 0.70556 0.76423 0.0
C1117 C 0.42266 0.70522 0.71136 0.0
C1118 C 0.42508 0.72334 0.65676 0.0
C1119 C 0.4083 0.7421 0.65588 0.0
C1120 C 0.39031 0.7439 0.70995 0.0
C1121 C 0.37462 0.76604 0.69512 0.0
C1122 C 0.34806 0.75882 0.68114 0.0
C1123 C 0.37672 0.78419 0.76027 0.0
C1124 C 0.38628 0.77589 0.62375 0.0
C1125 C 0.40544 0.76157 0.60147 0.0
C1126 C 0.41832 0.76634 0.53537 0.0
C1127 C 0.41216 0.7869 0.49266 0.0
C1128 C 0.39353 0.80265 0.51677 0.0
C1129 C 0.38024 0.79677 0.58267 0.0
H1130 H 0.69934 0.60634 0.35352 0.0
H1131 H 0.72294 0.65345 0.17281 0.0
H1132 H 0.76 0.66343 0.24518 0.0
H1133 H 0.72116 0.64067 0.50853 0.0
H1134 H 0.73184 0.61522 0.56261 0.0
H1135 H 0.70703 0.61149 0.49762 0.0
H1136 H 0.7302 0.57731 0.42909 0.0
H1137 H 0.75484 0.58053 0.49493 0.0
H1138 H 0.76053 0.58282 0.39538 0.0
H1139 H 0.79186 0.6714 0.34107 0.0
H1140 H 0.82287 0.66969 0.4394 0.0
H1141 H 0.78225 0.61359 0.55529 0.0
C1142 C 0.71258 0.61843 0.3288 0.0
C1143 C 0.70837 0.62912 0.25733 0.0
C1144 C 0.72598 0.64486 0.22677 0.0
C1145 C 0.7469 0.65084 0.26799 0.0
C1146 C 0.75018 0.64053 0.33906 0.0
C1147 C 0.73397 0.62403 0.36833 0.0
C1148 C 0.74273 0.61457 0.44427 0.0
C1149 C 0.72461 0.62087 0.50695 0.0
C1150 C 0.74736 0.58718 0.44068 0.0
C1151 C 0.76633 0.62858 0.45354 0.0
C1152 C 0.76976 0.64383 0.39267 0.0
C1153 C 0.7896 0.6592 0.38817 0.0
C1154 C 0.80713 0.6581 0.44491 0.0
C1155 C 0.80535 0.64126 0.50511 0.0
C1156 C 0.78417 0.62678 0.51065 0.0
H1157 H 0.63658 0.23151 0.47324 0.0
H1158 H 0.57693 0.1914 0.57075 0.0
H1159 H 0.5718 0.22298 0.66752 0.0
H1160 H 0.66255 0.24985 0.64101 0.0
H1161 H 0.67122 0.27981 0.61141 0.0
H1162 H 0.66842 0.25597 0.54309 0.0
H1163 H 0.63777 0.28147 0.46657 0.0
H1164 H 0.64069 0.30562 0.53396 0.0
H1165 H 0.6112 0.29342 0.51239 0.0
H1166 H 0.57671 0.25621 0.76415 0.0
H1167 H 0.58686 0.29237 0.84032 0.0
H1168 H 0.64257 0.31158 0.67887 0.0
C1169 C 0.62168 0.23008 0.51264 0.0
C1170 C 0.6066 0.2094 0.51309 0.0
C1171 C 0.58814 0.20748 0.56811 0.0
C1172 C 0.58529 0.22519 0.62389 0.0
C1173 C 0.60106 0.24486 0.62409 0.0
C1174 C 0.61851 0.24777 0.56881 0.0
C1175 C 0.63371 0.27014 0.58397 0.0
C1176 C 0.66056 0.26353 0.59555 0.0
C1177 C 0.63065 0.28876 0.52042 0.0
C1178 C 0.62235 0.27905 0.65665 0.0
C1179 C 0.60368 0.26411 0.67932 0.0
C1180 C 0.5911 0.26823 0.74634 0.0
C1181 C 0.59716 0.28864 0.78982 0.0
C1182 C 0.61548 0.30481 0.76577 0.0
C1183 C 0.6284 0.29961 0.69879 0.0
H1184 H 0.37383 0.14919 0.44572 0.0
H1185 H 0.36007 0.07289 0.40921 0.0
H1186 H 0.36942 0.06462 0.54269 0.0
H1187 H 0.42356 0.1424 0.57184 0.0
H1188 H 0.41528 0.16719 0.63231 0.0
H1189 H 0.40663 0.1676 0.53459 0.0
H1190 H 0.36153 0.17293 0.5717 0.0
H1191 H 0.37009 0.17294 0.66951 0.0
H1192 H 0.34779 0.15171 0.63585 0.0
H1193 H 0.38258 0.06416 0.67664 0.0
H1194 H 0.39382 0.07167 0.80824 0.0
H1195 H 0.39802 0.14872 0.76325 0.0
C1196 C 0.3724 0.1308 0.46626 0.0
C1197 C 0.36612 0.11161 0.41709 0.0
C1198 C 0.36466 0.08782 0.44586 0.0
C1199 C 0.3701 0.08296 0.52152 0.0
C1200 C 0.37681 0.10215 0.56802 0.0
C1201 C 0.37759 0.12566 0.54207 0.0
C1202 C 0.38522 0.14291 0.60451 0.0
C1203 C 0.40909 0.15578 0.58459 0.0
C1204 C 0.36495 0.1612 0.62139 0.0
C1205 C 0.38875 0.12537 0.66952 0.0
C1206 C 0.38399 0.10195 0.64654 0.0
C1207 C 0.38618 0.08243 0.69537 0.0
C1208 C 0.39271 0.08692 0.77013 0.0
C1209 C 0.39687 0.11078 0.79634 0.0
C1210 C 0.39519 0.13028 0.74486 0.0
H1211 H 0.11417 0.67586 0.56872 0.0
H1212 H 0.08409 0.60637 0.63377 0.0
H1213 H 0.08726 0.59222 0.50311 0.0
H1214 H 0.08222 0.67801 0.38431 0.0
H1215 H 0.10727 0.6928 0.33816 0.0
H1216 H 0.10193 0.69779 0.43687 0.0
H1217 H 0.14596 0.6843 0.46558 0.0
H1218 H 0.15125 0.67881 0.36715 0.0
H1219 H 0.15615 0.65497 0.43469 0.0
H1220 H 0.09835 0.58367 0.36885 0.0
H1221 H 0.10849 0.58431 0.23308 0.0
H1222 H 0.12702 0.66029 0.25009 0.0
C1223 C 0.10772 0.6579 0.55493 0.0
C1224 C 0.09893 0.64223 0.61161 0.0
C1225 C 0.0908 0.61879 0.59144 0.0
C1226 C 0.09269 0.61046 0.51732 0.0
C1227 C 0.10219 0.62598 0.46322 0.0
C1228 C 0.10885 0.64946 0.48035 0.0
C1229 C 0.11787 0.66253 0.41059 0.0
C1230 C 0.10133 0.68405 0.39134 0.0
C1231 C 0.14438 0.67062 0.42012 0.0
C1232 C 0.11566 0.64256 0.35237 0.0
C1233 C 0.10702 0.62149 0.3843 0.0
C1234 C 0.10473 0.60019 0.34283 0.0
C1235 C 0.11073 0.60062 0.26606 0.0
C1236 C 0.11839 0.62232 0.23146 0.0
C1237 C 0.12104 0.64348 0.27535 0.0
H1238 H 0.63499 0.92592 0.45375 0.0
H1239 H 0.69304 0.87346 0.43143 0.0
H1240 H 0.68895 0.86298 0.56581 0.0
H1241 H 0.65171 0.94567 0.64699 0.0
H1242 H 0.62045 0.94949 0.67418 0.0
H1243 H 0.62933 0.95404 0.57771 0.0
H1244 H 0.59713 0.92267 0.53605 0.0
H1245 H 0.58856 0.91756 0.63244 0.0
H1246 H 0.59805 0.89254 0.57467 0.0
H1247 H 0.67511 0.85448 0.69714 0.0
H1248 H 0.6579 0.85389 0.82506 0.0
H1249 H 0.61059 0.91373 0.76669 0.0
C1250 C 0.64728 0.91272 0.47777 0.0
C1251 C 0.66439 0.90052 0.43231 0.0
C1252 C 0.67996 0.88316 0.46537 0.0
C1253 C 0.67762 0.87693 0.5415 0.0
C1254 C 0.65988 0.88852 0.58404 0.0
C1255 C 0.64541 0.90652 0.55407 0.0
C1256 C 0.62772 0.91606 0.61231 0.0
C1257 C 0.6326 0.94291 0.62878 0.0
C1258 C 0.60131 0.91195 0.58735 0.0
C1259 C 0.63419 0.90026 0.67922 0.0
C1260 C 0.65257 0.88429 0.66116 0.0
C1261 C 0.66094 0.86711 0.71225 0.0
C1262 C 0.65085 0.86674 0.78455 0.0
C1263 C 0.63285 0.8837 0.80561 0.0
C1264 C 0.62428 0.90053 0.75194 0.0
H1265 H 0.91144 0.4041 0.28144 0.0
H1266 H 0.84144 0.37252 0.22771 0.0
H1267 H 0.83711 0.35881 0.35858 0.0
H1268 H 0.93127 0.35865 0.4097 0.0
H1269 H 0.94521 0.37913 0.47566 0.0
H1270 H 0.94312 0.38725 0.37772 0.0
H1271 H 0.92059 0.42681 0.41251 0.0
H1272 H 0.92302 0.41901 0.51062 0.0
H1273 H 0.89372 0.42529 0.47004 0.0
H1274 H 0.84108 0.34613 0.49131 0.0
H1275 H 0.85024 0.3405 0.62575 0.0
H1276 H 0.91664 0.38183 0.59944 0.0
C1277 C 0.89506 0.39467 0.29776 0.0
C1278 C 0.87676 0.38938 0.24436 0.0
C1279 C 0.85564 0.37687 0.26761 0.0
C1280 C 0.85306 0.36884 0.34178 0.0
C1281 C 0.87162 0.37372 0.39258 0.0
C1282 C 0.89198 0.38679 0.3724 0.0
C1283 C 0.90884 0.38996 0.43939 0.0
C1284 C 0.93357 0.37803 0.42471 0.0
C1285 C 0.9117 0.41686 0.45931 0.0
C1286 C 0.8948 0.37645 0.4998 0.0
C1287 C 0.87355 0.36701 0.47093 0.0
C1288 C 0.85757 0.35359 0.51485 0.0
C1289 C 0.86301 0.35036 0.59109 0.0
C1290 C 0.88412 0.3607 0.62298 0.0
C1291 C 0.90044 0.3736 0.57639 0.0
H1292 H 0.40021 0.4084 0.51695 0.0
H1293 H 0.35303 0.3487 0.45637 0.0
H1294 H 0.33559 0.34884 0.58384 0.0
H1295 H 0.41268 0.38627 0.70683 0.0
H1296 H 0.41366 0.41613 0.74726 0.0
H1297 H 0.42199 0.41172 0.65036 0.0
H1298 H 0.39008 0.44372 0.61071 0.0
H1299 H 0.38131 0.44782 0.70746 0.0
H1300 H 0.35886 0.43976 0.63813 0.0
H1301 H 0.32196 0.35629 0.71539 0.0
H1302 H 0.31811 0.36563 0.85055 0.0
H1303 H 0.37571 0.41873 0.8307 0.0
C1304 C 0.38646 0.39518 0.53109 0.0
C1305 C 0.37802 0.37848 0.47689 0.0
C1306 C 0.35996 0.36147 0.49721 0.0
C1307 C 0.34974 0.36158 0.56927 0.0
C1308 C 0.35805 0.37854 0.621 0.0
C1309 C 0.37642 0.39463 0.6037 0.0
C1310 C 0.38287 0.41001 0.67153 0.0
C1311 C 0.40937 0.40577 0.69541 0.0
C1312 C 0.37798 0.43692 0.656 0.0
C1313 C 0.36525 0.40001 0.72932 0.0
C1314 C 0.3508 0.3822 0.69838 0.0
C1315 C 0.33323 0.37013 0.74044 0.0
C1316 C 0.33104 0.37569 0.81704 0.0
C1317 C 0.34654 0.39292 0.85097 0.0
C1318 C 0.36346 0.40563 0.80603 0.0
H1319 H 0.42178 0.63935 0.19131 0.0
H1320 H 0.35175 0.67331 0.15591 0.0
H1321 H 0.3415 0.66666 0.2893 0.0
H1322 H 0.40287 0.59394 0.31625 0.0
H1323 H 0.42891 0.59544 0.37744 0.0
H1324 H 0.43171 0.60396 0.28005 0.0
H1325 H 0.44819 0.64604 0.31822 0.0
H1326 H 0.446 0.63748 0.41577 0.0
H1327 H 0.43106 0.66447 0.38271 0.0
H1328 H 0.33688 0.65218 0.42223 0.0
H1329 H 0.34125 0.63802 0.5534 0.0
H1330 H 0.41533 0.61626 0.50715 0.0
C1331 C 0.40455 0.6459 0.21221 0.0
C1332 C 0.38756 0.65688 0.16326 0.0
C1333 C 0.36511 0.66503 0.19245 0.0
C1334 C 0.35903 0.66115 0.26806 0.0
C1335 C 0.37576 0.64947 0.31423 0.0
C1336 C 0.39834 0.64258 0.28815 0.0
C1337 C 0.41305 0.63069 0.35022 0.0
C1338 C 0.41951 0.60445 0.32973 0.0
C1339 C 0.43593 0.64556 0.36778 0.0
C1340 C 0.39504 0.6316 0.41472 0.0
C1341 C 0.37352 0.64218 0.39228 0.0
C1342 C 0.35377 0.64417 0.44079 0.0
C1343 C 0.35633 0.63586 0.51497 0.0
C1344 C 0.37859 0.62605 0.54031 0.0
C1345 C 0.39809 0.62368 0.48918 0.0
H1346 H 0.64737 0.59829 0.82183 0.0
H1347 H 0.65615 0.67541 0.85789 0.0
H1348 H 0.64654 0.6831 0.72494 0.0
H1349 H 0.67416 0.59853 0.63018 0.0
H1350 H 0.65362 0.57569 0.59596 0.0
H1351 H 0.66227 0.57603 0.6937 0.0
H1352 H 0.61689 0.57749 0.73121 0.0
H1353 H 0.60814 0.57763 0.63359 0.0
H1354 H 0.59794 0.60142 0.69514 0.0
H1355 H 0.63306 0.68317 0.5919 0.0
H1356 H 0.62195 0.67513 0.45995 0.0
H1357 H 0.62326 0.59797 0.50453 0.0
C1358 C 0.64771 0.61671 0.80119 0.0
C1359 C 0.65251 0.63626 0.85035 0.0
C1360 C 0.6526 0.66014 0.82141 0.0
C1361 C 0.64704 0.66473 0.74594 0.0
C1362 C 0.64167 0.64524 0.69944 0.0
C1363 C 0.64246 0.62165 0.72516 0.0
C1364 C 0.63616 0.60413 0.66223 0.0
C1365 C 0.65785 0.58762 0.64447 0.0
C1366 C 0.61343 0.5893 0.68174 0.0
C1367 C 0.63122 0.62164 0.59799 0.0
C1368 C 0.63442 0.64526 0.62116 0.0
C1369 C 0.63069 0.66474 0.57281 0.0
C1370 C 0.62421 0.66 0.49806 0.0
C1371 C 0.62163 0.63597 0.47201 0.0
C1372 C 0.62489 0.61655 0.52304 0.0
H1373 H 0.64822 0.37126 0.52181 0.0
H1374 H 0.58334 0.41463 0.55184 0.0
H1375 H 0.57322 0.40937 0.41785 0.0
H1376 H 0.66254 0.39482 0.33348 0.0
H1377 H 0.67373 0.36615 0.30018 0.0
H1378 H 0.67614 0.37374 0.39839 0.0
H1379 H 0.65353 0.33434 0.43178 0.0
H1380 H 0.65014 0.32681 0.33387 0.0
H1381 H 0.62376 0.32881 0.39332 0.0
H1382 H 0.56854 0.39754 0.2842 0.0
H1383 H 0.5726 0.38491 0.15208 0.0
H1384 H 0.64146 0.35065 0.20394 0.0
C1385 C 0.63212 0.37995 0.49971 0.0
C1386 C 0.61654 0.39338 0.5471 0.0
C1387 C 0.59556 0.40437 0.51646 0.0
C1388 C 0.58957 0.40135 0.44054 0.0
C1389 C 0.60488 0.3875 0.39572 0.0
C1390 C 0.62599 0.37738 0.42346 0.0
C1391 C 0.63948 0.36383 0.3621 0.0
C1392 C 0.66445 0.37533 0.34768 0.0
C1393 C 0.64185 0.33684 0.38145 0.0
C1394 C 0.62248 0.36773 0.29597 0.0
C1395 C 0.60253 0.38122 0.31717 0.0
C1396 C 0.58415 0.38712 0.2667 0.0
C1397 C 0.58657 0.37974 0.19185 0.0
C1398 C 0.60732 0.3668 0.16785 0.0
C1399 C 0.62532 0.36037 0.22092 0.0
H1400 H 0.83304 0.62197 0.95617 0.0
H1401 H 0.90147 0.59005 0.88739 0.0
H1402 H 0.91591 0.59108 0.01795 0.0
H1403 H 0.8554 0.6612 0.09503 0.0
H1404 H 0.83148 0.65616 0.16232 0.0
H1405 H 0.82561 0.65236 0.06341 0.0
H1406 H 0.81077 0.60854 0.08686 0.0
H1407 H 0.81615 0.61244 0.18607 0.0
H1408 H 0.83011 0.58765 0.13661 0.0
H1409 H 0.92519 0.60035 0.15197 0.0
H1410 H 0.92525 0.6089 0.28877 0.0
H1411 H 0.84967 0.63016 0.27543 0.0
C1412 C 0.8508 0.61472 0.96912 0.0
C1413 C 0.86615 0.60605 0.91161 0.0
C1414 C 0.88933 0.59673 0.9305 0.0
C1415 C 0.89783 0.59738 1.00451 0.0
C1416 C 0.88269 0.60678 0.05958 0.0
C1417 C 0.85937 0.61452 0.04358 0.0
C1418 C 0.84668 0.623 0.11444 0.0
C1419 C 0.83937 0.64977 0.10839 0.0
C1420 C 0.82462 0.60694 0.13204 0.0
C1421 C 0.86676 0.6194 0.17179 0.0
C1422 C 0.88751 0.61043 0.1386 0.0
C1423 C 0.90893 0.60693 0.1791 0.0
C1424 C 0.9089 0.61203 0.25635 0.0
C1425 C 0.88747 0.61998 0.29197 0.0
C1426 C 0.86623 0.62388 0.24914 0.0
H1427 H 0.61315 0.10656 0.76637 0.0
H1428 H 0.66421 0.16402 0.71593 0.0
H1429 H 0.65982 0.17964 0.84509 0.0
H1430 H 0.57363 0.13984 0.88493 0.0
H1431 H 0.5688 0.116 0.95246 0.0
H1432 H 0.57589 0.10867 0.85625 0.0
H1433 H 0.61278 0.08314 0.89959 0.0
H1434 H 0.60538 0.08989 0.99593 0.0
H1435 H 0.63522 0.09661 0.96028 0.0
H1436 H 0.64719 0.19131 0.97484 0.0
H1437 H 0.63436 0.19335 0.10731 0.0
H1438 H 0.59417 0.12643 0.08036 0.0
C1439 C 0.62374 0.12214 0.78318 0.0
C1440 C 0.63907 0.13408 0.73117 0.0
C1441 C 0.65256 0.15446 0.75496 0.0
C1442 C 0.64998 0.16363 0.82801 0.0
C1443 C 0.63419 0.15193 0.87722 0.0
C1444 C 0.62186 0.1312 0.85681 0.0
C1445 C 0.60687 0.12163 0.92217 0.0
C1446 C 0.57969 0.12153 0.90275 0.0
C1447 C 0.61559 0.09632 0.9459 0.0
C1448 C 0.61256 0.14037 0.98205 0.0
C1449 C 0.62795 0.15794 0.95413 0.0
C1450 C 0.63537 0.17751 0.99765 0.0
C1451 C 0.62777 0.17862 0.07275 0.0
C1452 C 0.61328 0.16005 0.10427 0.0
C1453 C 0.60515 0.14094 0.0577 0.0
H1454 H 0.12389 0.41753 0.27403 0.0
H1455 H 0.13086 0.34091 0.32153 0.0
H1456 H 0.14434 0.33379 0.191 0.0
H1457 H 0.09964 0.40901 0.08331 0.0
H1458 H 0.11481 0.43535 0.04648 0.0
H1459 H 0.10598 0.43435 0.14392 0.0
H1460 H 0.1504 0.44335 0.18256 0.0
H1461 H 0.15944 0.44385 0.08522 0.0
H1462 H 0.17433 0.42372 0.15031 0.0
H1463 H 0.16 0.33534 0.05891 0.0
H1464 H 0.16875 0.34379 0.92552 0.0
H1465 H 0.14819 0.41878 0.95788 0.0
C1466 C 0.12793 0.39923 0.2564 0.0
C1467 C 0.12633 0.37973 0.30775 0.0
C1468 C 0.13174 0.35605 0.2829 0.0
C1469 C 0.13966 0.35187 0.20909 0.0
C1470 C 0.14161 0.37151 0.16028 0.0
C1471 C 0.13525 0.39463 0.18208 0.0
C1472 C 0.13779 0.41227 0.11696 0.0
C1473 C 0.11309 0.4234 0.09645 0.0
C1474 C 0.15661 0.43196 0.13486 0.0
C1475 C 0.14682 0.39548 0.0555 0.0
C1476 C 0.14934 0.37215 0.08237 0.0
C1477 C 0.15785 0.35348 0.03701 0.0
C1478 C 0.16299 0.35852 0.96138 0.0
C1479 C 0.15918 0.38193 0.93126 0.0
C1480 C 0.15141 0.40075 0.97945 0.0
H1481 H 0.42363 0.86362 0.09096 0.0
H1482 H 0.34841 0.84368 0.12659 0.0
H1483 H 0.33957 0.8519 0.99289 0.0
H1484 H 0.41402 0.9115 0.96637 0.0
H1485 H 0.43921 0.90499 0.90507 0.0
H1486 H 0.44037 0.896 1.00236 0.0
H1487 H 0.44818 0.85153 0.96375 0.0
H1488 H 0.44764 0.86047 0.8663 0.0
H1489 H 0.42769 0.8369 0.89912 0.0
H1490 H 0.33779 0.86721 0.85982 0.0
H1491 H 0.34479 0.88081 0.72913 0.0
H1492 H 0.42169 0.88772 0.77584 0.0
C1493 C 0.40546 0.86039 0.07002 0.0
C1494 C 0.38669 0.85297 0.11904 0.0
C1495 C 0.3631 0.84914 0.0899 0.0
C1496 C 0.35785 0.85397 1.01415 0.0
C1497 C 0.37652 0.86216 0.96788 0.0
C1498 C 0.40001 0.86465 0.99402 0.0
C1499 C 0.41673 0.87351 0.93209 0.0
C1500 C 0.42826 0.89795 0.95275 0.0
C1501 C 0.43621 0.85446 0.91425 0.0
C1502 C 0.39885 0.87619 0.86772 0.0
C1503 C 0.3757 0.86984 0.88992 0.0
C1504 C 0.35591 0.87188 0.84145 0.0
C1505 C 0.36 0.87987 0.76761 0.0
C1506 C 0.38374 0.88534 0.74261 0.0
C1507 C 0.40335 0.88367 0.79362 0.0
H1508 H 0.88457 0.91772 0.32992 0.0
H1509 H 0.83371 0.85857 0.35993 0.0
H1510 H 0.83971 0.84644 0.22805 0.0
H1511 H 0.86556 0.93223 0.13669 0.0
H1512 H 0.89588 0.93973 0.10684 0.0
H1513 H 0.88711 0.9441 0.20343 0.0
H1514 H 0.9233 0.91747 0.24586 0.0
H1515 H 0.93185 0.91258 0.14931 0.0
H1516 H 0.92605 0.88712 0.21005 0.0
H1517 H 0.85265 0.83905 0.09667 0.0
H1518 H 0.86682 0.84065 0.96542 0.0
H1519 H 0.90849 0.90522 1.0158 0.0
C1520 C 0.87439 0.9025 0.30815 0.0
C1521 C 0.85865 0.88907 0.35512 0.0
C1522 C 0.84577 0.86917 0.32491 0.0
C1523 C 0.8492 0.86201 0.2502 0.0
C1524 C 0.86542 0.87507 0.20604 0.0
C1525 C 0.87742 0.8952 0.23306 0.0
C1526 C 0.89337 0.90628 0.17247 0.0
C1527 C 0.88498 0.93212 0.15374 0.0
C1528 C 0.92023 0.90583 0.19585 0.0
C1529 C 0.88854 0.88908 0.10756 0.0
C1530 C 0.87256 0.87107 0.1288 0.0
C1531 C 0.86508 0.85311 0.07915 0.0
C1532 C 0.87336 0.85408 1.00482 0.0
C1533 C 0.88883 0.87296 0.98052 0.0
C1534 C 0.89696 0.89038 0.03309 0.0
H1535 H 0.86389 0.13184 0.03619 0.0
H1536 H 0.94126 0.12304 0.07215 0.0
H1537 H 0.94902 0.13454 0.9407 0.0
H1538 H 0.86342 0.10861 0.84196 0.0
H1539 H 0.84092 0.12995 0.81023 0.0
H1540 H 0.84118 0.12018 0.90691 0.0
H1541 H 0.84371 0.16487 0.94957 0.0
H1542 H 0.84392 0.17474 0.85295 0.0
H1543 H 0.86806 0.18367 0.9155 0.0
H1544 H 0.94916 0.14822 0.8081 0.0
H1545 H 0.94127 0.15913 0.67596 0.0
H1546 H 0.86389 0.15948 0.72015 0.0
C1547 C 0.88238 0.13187 1.01575 0.0
C1548 C 0.90199 0.12635 0.06459 0.0
C1549 C 0.92595 0.12705 0.03598 0.0
C1550 C 0.93058 0.13371 0.96135 0.0
C1551 C 0.91107 0.1397 0.91527 0.0
C1552 C 0.8874 0.13855 0.94062 0.0
C1553 C 0.86992 0.14593 0.87821 0.0
C1554 C 0.85285 0.12491 0.85814 0.0
C1555 C 0.85555 0.16865 0.90041 0.0
C1556 C 0.88751 0.15132 0.81425 0.0
C1557 C 0.91116 0.14775 0.83755 0.0
C1558 C 0.93073 0.15109 0.78915 0.0
C1559 C 0.92607 0.15744 0.7142 0.0
C1560 C 0.90203 0.16046 0.68778 0.0
C1561 C 0.88249 0.15781 0.73903 0.0
H1562 H 0.15455 0.14349 1.00545 0.0
H1563 H 0.098 0.08975 0.97544 0.0
H1564 H 0.10248 0.07733 0.10789 0.0
H1565 H 0.19236 0.1087 0.12823 0.0
H1566 H 0.20075 0.13374 0.18756 0.0
H1567 H 0.1931 0.13895 0.09038 0.0
H1568 H 0.15999 0.16967 0.12961 0.0
H1569 H 0.16787 0.16491 0.2268 0.0
H1570 H 0.13701 0.16062 0.19602 0.0
H1571 H 0.11392 0.06949 0.24099 0.0
H1572 H 0.12735 0.07081 0.37322 0.0
H1573 H 0.17594 0.13015 0.32022 0.0
C1574 C 0.14287 0.12939 0.02725 0.0
C1575 C 0.12588 0.1176 0.98031 0.0
C1576 C 0.11105 0.09909 1.01052 0.0
C1577 C 0.1136 0.09177 0.08552 0.0
C1578 C 0.13098 0.10321 0.12978 0.0
C1579 C 0.14506 0.12193 0.10244 0.0
C1580 C 0.16189 0.13156 0.16302 0.0
C1581 C 0.18861 0.12802 0.14095 0.0
C1582 C 0.15635 0.15827 0.17987 0.0
C1583 C 0.15498 0.11536 0.22854 0.0
C1584 C 0.13734 0.09893 0.20759 0.0
C1585 C 0.1277 0.08229 0.25819 0.0
C1586 C 0.13555 0.08308 0.33305 0.0
C1587 C 0.15274 0.10049 0.35675 0.0
C1588 C 0.16303 0.11643 0.30336 0.0
H1589 H 0.15571 0.85539 0.70135 0.0
H1590 H 0.07928 0.86673 0.65469 0.0
H1591 H 0.07266 0.87844 0.78693 0.0
H1592 H 0.14598 0.82962 0.89137 0.0
H1593 H 0.17308 0.84328 0.92892 0.0
H1594 H 0.17165 0.83511 0.83096 0.0
H1595 H 0.18273 0.87915 0.79476 0.0
H1596 H 0.18371 0.88754 0.89256 0.0
H1597 H 0.16419 0.90369 0.82851 0.0
H1598 H 0.07492 0.89269 0.91967 0.0
H1599 H 0.08416 0.90166 0.05226 0.0
H1600 H 0.15845 0.8781 0.01874 0.0
C1601 C 0.13753 0.85993 0.71951 0.0
C1602 C 0.11798 0.86019 0.66785 0.0
C1603 C 0.09446 0.86628 0.69341 0.0
C1604 C 0.09056 0.87313 0.76829 0.0
C1605 C 0.11028 0.87336 0.81735 0.0
C1606 C 0.13318 0.86632 0.79477 0.0
C1607 C 0.15102 0.86765 0.85987 0.0
C1608 C 0.16102 0.84241 0.87891 0.0
C1609 C 0.17163 0.88558 0.84287 0.0
C1610 C 0.13465 0.87701 0.922 0.0
C1611 C 0.11131 0.88046 0.89567 0.0
C1612 C 0.09305 0.88976 0.94123 0.0
C1613 C 0.09855 0.895 1.01639 0.0
C1614 C 0.12201 0.89058 0.04586 0.0
C1615 C 0.14037 0.8817 0.99769 0.0
loop_
_geom_bond_atom_site_label_1
_geom_bond_atom_site_label_2
_geom_bond_distance
_geom_bond_site_symmetry_2
_ccdc_geom_bond_type
Dy0 O4 2.398 . S
Dy0 O5 2.491 . S
Dy0 O6 2.403 . S
Dy0 O7 2.664 . S
Dy0 O11 2.326 . S
Dy0 O15 2.310 . S
Dy0 O16 2.351 . S
C1 O12 1.185 . S
C1 O13 1.355 . S
C2 O4 1.185 . S
C2 O5 1.355 . S
Dy3 O7 2.310 . S
Dy3 O10 2.351 . S
Dy3 O12 2.398 1_554 S
Dy3 O13 2.491 1_554 S
Dy3 O14 2.403 . S
Dy3 O15 2.664 . S
Dy3 O17 2.326 . S
O4 Dy0 2.398 . S
O4 C2 1.185 . S
O5 Dy0 2.491 . S
O5 C2 1.355 . S
O6 Dy0 2.403 . S
O6 C8 1.254 . S
O7 Dy0 2.664 . S
O7 Dy3 2.310 . S
O7 C8 1.268 . S
C8 O6 1.254 . S
C8 O7 1.268 . S
C9 O14 1.254 . S
C9 O15 1.268 . S
O10 Dy3 2.351 . S
O10 C18 1.249 . S
O11 Dy0 2.326 . S
O11 C18 1.267 . S
O12 C1 1.185 . S
O12 Dy3 2.398 1_556 S
O13 C1 1.355 . S
O13 Dy3 2.491 1_556 S
O14 Dy3 2.403 . S
O14 C9 1.254 . S
O15 Dy0 2.310 . S
O15 Dy3 2.664 . S
O15 C9 1.268 . S
O16 Dy0 2.351 . S
O16 C19 1.249 . S
O17 Dy3 2.326 . S
O17 C19 1.267 . S
C18 O10 1.249 . S
C18 O11 1.267 . S
C19 O16 1.249 . S
C19 O17 1.267 . S
Dy20 O24 2.398 1_556 S
Dy20 O25 2.491 1_556 S
Dy20 O26 2.403 . S
Dy20 O27 2.664 . S
Dy20 O31 2.326 . S
Dy20 O35 2.310 . S
Dy20 O36 2.351 . S
C21 O32 1.185 . S
C21 O33 1.355 . S
C22 O24 1.185 . S
C22 O25 1.355 . S
Dy23 O27 2.310 . S
Dy23 O30 2.351 . S
Dy23 O32 2.398 . S
Dy23 O33 2.491 . S
Dy23 O34 2.403 . S
Dy23 O35 2.664 . S
Dy23 O37 2.326 . S
O24 Dy20 2.398 1_554 S
O24 C22 1.185 . S
O25 Dy20 2.491 1_554 S
O25 C22 1.355 . S
O26 Dy20 2.403 . S
O26 C28 1.254 . S
O27 Dy20 2.664 . S
O27 Dy23 2.310 . S
O27 C28 1.268 . S
C28 O26 1.254 . S
C28 O27 1.268 . S
C29 O34 1.254 . S
C29 O35 1.268 . S
O30 Dy23 2.351 . S
O30 C38 1.249 . S
O31 Dy20 2.326 . S
O31 C38 1.267 . S
O32 C21 1.185 . S
O32 Dy23 2.398 . S
O33 C21 1.355 . S
O33 Dy23 2.491 . S
O34 Dy23 2.403 . S
O34 C29 1.254 . S
O35 Dy20 2.310 . S
O35 Dy23 2.664 . S
O35 C29 1.268 . S
O36 Dy20 2.351 . S
O36 C39 1.249 . S
O37 Dy23 2.326 . S
O37 C39 1.267 . S
C38 O30 1.249 . S
C38 O31 1.267 . S
C39 O36 1.249 . S
C39 O37 1.267 . S
Dy40 O44 2.398 . S
Dy40 O45 2.491 . S
Dy40 O46 2.403 . S
Dy40 O47 2.664 . S
Dy40 O51 2.326 . S
Dy40 O55 2.310 . S
Dy40 O56 2.351 . S
C41 O52 1.185 . S
C41 O53 1.355 . S
C42 O44 1.185 . S
C42 O45 1.355 . S
Dy43 O47 2.310 . S
Dy43 O50 2.351 . S
Dy43 O52 2.398 1_554 S
Dy43 O53 2.491 1_554 S
Dy43 O54 2.403 . S
Dy43 O55 2.664 . S
Dy43 O57 2.326 . S
O44 Dy40 2.398 . S
O44 C42 1.185 . S
O45 Dy40 2.491 . S
O45 C42 1.355 . S
O46 Dy40 2.403 . S
O46 C48 1.254 . S
O47 Dy40 2.664 . S
O47 Dy43 2.310 . S
O47 C48 1.268 . S
C48 O46 1.254 . S
C48 O47 1.268 . S
C49 O54 1.254 . S
C49 O55 1.268 . S
O50 Dy43 2.351 . S
O50 C58 1.249 . S
O51 Dy40 2.326 . S
O51 C58 1.267 . S
O52 C41 1.185 . S
O52 Dy43 2.398 1_556 S
O53 C41 1.355 . S
O53 Dy43 2.491 1_556 S
O54 Dy43 2.403 . S
O54 C49 1.254 . S
O55 Dy40 2.310 . S
O55 Dy43 2.664 . S
O55 C49 1.268 . S
O56 Dy40 2.351 . S
O56 C59 1.249 . S
O57 Dy43 2.326 . S
O57 C59 1.267 . S
C58 O50 1.249 . S
C58 O51 1.267 . S
C59 O56 1.249 . S
C59 O57 1.267 . S
Dy60 O64 2.398 1_556 S
Dy60 O65 2.491 1_556 S
Dy60 O66 2.403 . S
Dy60 O67 2.664 . S
Dy60 O71 2.326 . S
Dy60 O75 2.310 . S
Dy60 O76 2.351 . S
C61 O72 1.185 . S
C61 O73 1.355 . S
C62 O64 1.185 . S
C62 O65 1.355 . S
Dy63 O67 2.310 . S
Dy63 O70 2.351 . S
Dy63 O72 2.398 . S
Dy63 O73 2.491 . S
Dy63 O74 2.403 . S
Dy63 O75 2.664 . S
Dy63 O77 2.326 . S
O64 Dy60 2.398 1_554 S
O64 C62 1.185 . S
O65 Dy60 2.491 1_554 S
O65 C62 1.355 . S
O66 Dy60 2.403 . S
O66 C68 1.254 . S
O67 Dy60 2.664 . S
O67 Dy63 2.310 . S
O67 C68 1.268 . S
C68 O66 1.254 . S
C68 O67 1.268 . S
C69 O74 1.254 . S
C69 O75 1.268 . S
O70 Dy63 2.351 . S
O70 C78 1.249 . S
O71 Dy60 2.326 . S
O71 C78 1.267 . S
O72 C61 1.185 . S
O72 Dy63 2.398 . S
O73 C61 1.355 . S
O73 Dy63 2.491 . S
O74 Dy63 2.403 . S
O74 C69 1.254 . S
O75 Dy60 2.310 . S
O75 Dy63 2.664 . S
O75 C69 1.268 . S
O76 Dy60 2.351 . S
O76 C79 1.249 . S
O77 Dy63 2.326 . S
O77 C79 1.267 . S
C78 O70 1.249 . S
C78 O71 1.267 . S
C79 O76 1.249 . S
C79 O77 1.267 . S
Dy80 O84 2.398 1_554 S
Dy80 O85 2.491 1_554 S
Dy80 O86 2.403 . S
Dy80 O87 2.664 . S
Dy80 O91 2.326 . S
Dy80 O95 2.310 . S
Dy80 O96 2.351 . S
C81 O92 1.185 . S
C81 O93 1.355 . S
C82 O84 1.185 . S
C82 O85 1.355 . S
Dy83 O87 2.310 . S
Dy83 O90 2.351 . S
Dy83 O92 2.398 . S
Dy83 O93 2.491 . S
Dy83 O94 2.403 . S
Dy83 O95 2.664 . S
Dy83 O97 2.326 . S
O84 Dy80 2.398 1_556 S
O84 C82 1.185 . S
O85 Dy80 2.491 1_556 S
O85 C82 1.355 . S
O86 Dy80 2.403 . S
O86 C88 1.254 . S
O87 Dy80 2.664 . S
O87 Dy83 2.310 . S
O87 C88 1.268 . S
C88 O86 1.254 . S
C88 O87 1.268 . S
C89 O94 1.254 . S
C89 O95 1.268 . S
O90 Dy83 2.351 . S
O90 C98 1.249 . S
O91 Dy80 2.326 . S
O91 C98 1.267 . S
O92 C81 1.185 . S
O92 Dy83 2.398 . S
O93 C81 1.355 . S
O93 Dy83 2.491 . S
O94 Dy83 2.403 . S
O94 C89 1.254 . S
O95 Dy80 2.310 . S
O95 Dy83 2.664 . S
O95 C89 1.268 . S
O96 Dy80 2.351 . S
O96 C99 1.249 . S
O97 Dy83 2.326 . S
O97 C99 1.267 . S
C98 O90 1.249 . S
C98 O91 1.267 . S
C99 O96 1.249 . S
C99 O97 1.267 . S
Dy100 O104 2.398 . S
Dy100 O105 2.491 . S
Dy100 O106 2.403 . S
Dy100 O107 2.664 . S
Dy100 O111 2.326 . S
Dy100 O115 2.310 . S
Dy100 O116 2.351 . S
C101 O112 1.185 . S
C101 O113 1.355 . S
C102 O104 1.185 . S
C102 O105 1.355 . S
Dy103 O107 2.310 . S
Dy103 O110 2.351 . S
Dy103 O112 2.398 1_556 S
Dy103 O113 2.491 1_556 S
Dy103 O114 2.403 . S
Dy103 O115 2.664 . S
Dy103 O117 2.326 . S
O104 Dy100 2.398 . S
O104 C102 1.185 . S
O105 Dy100 2.491 . S
O105 C102 1.355 . S
O106 Dy100 2.403 . S
O106 C108 1.254 . S
O107 Dy100 2.664 . S
O107 Dy103 2.310 . S
O107 C108 1.268 . S
C108 O106 1.254 . S
C108 O107 1.268 . S
C109 O114 1.254 . S
C109 O115 1.268 . S
O110 Dy103 2.351 . S
O110 C118 1.249 . S
O111 Dy100 2.326 . S
O111 C118 1.267 . S
O112 C101 1.185 . S
O112 Dy103 2.398 1_554 S
O113 C101 1.355 . S
O113 Dy103 2.491 1_554 S
O114 Dy103 2.403 . S
O114 C109 1.254 . S
O115 Dy100 2.310 . S
O115 Dy103 2.664 . S
O115 C109 1.268 . S
O116 Dy100 2.351 . S
O116 C119 1.249 . S
O117 Dy103 2.326 . S
O117 C119 1.267 . S
C118 O110 1.249 . S
C118 O111 1.267 . S
C119 O116 1.249 . S
C119 O117 1.267 . S
Dy120 O124 2.398 1_554 S
Dy120 O125 2.491 1_554 S
Dy120 O126 2.403 . S
Dy120 O127 2.664 . S
Dy120 O131 2.326 . S
Dy120 O135 2.310 . S
Dy120 O136 2.351 . S
C121 O132 1.185 . S
C121 O133 1.355 . S
C122 O124 1.185 . S
C122 O125 1.355 . S
Dy123 O127 2.310 . S
Dy123 O130 2.351 . S
Dy123 O132 2.398 . S
Dy123 O133 2.491 . S
Dy123 O134 2.403 . S
Dy123 O135 2.664 . S
Dy123 O137 2.326 . S
O124 Dy120 2.398 1_556 S
O124 C122 1.185 . S
O125 Dy120 2.491 1_556 S
O125 C122 1.355 . S
O126 Dy120 2.403 . S
O126 C128 1.254 . S
O127 Dy120 2.664 . S
O127 Dy123 2.310 . S
O127 C128 1.268 . S
C128 O126 1.254 . S
C128 O127 1.268 . S
C129 O134 1.254 . S
C129 O135 1.268 . S
O130 Dy123 2.351 . S
O130 C138 1.249 . S
O131 Dy120 2.326 . S
O131 C138 1.267 . S
O132 C121 1.185 . S
O132 Dy123 2.398 . S
O133 C121 1.355 . S
O133 Dy123 2.491 . S
O134 Dy123 2.403 . S
O134 C129 1.254 . S
O135 Dy120 2.310 . S
O135 Dy123 2.664 . S
O135 C129 1.268 . S
O136 Dy120 2.351 . S
O136 C139 1.249 . S
O137 Dy123 2.326 . S
O137 C139 1.267 . S
C138 O130 1.249 . S
C138 O131 1.267 . S
C139 O136 1.249 . S
C139 O137 1.267 . S
Dy140 O144 2.398 . S
Dy140 O145 2.491 . S
Dy140 O146 2.403 . S
Dy140 O147 2.664 . S
Dy140 O151 2.326 . S
Dy140 O155 2.310 . S
Dy140 O156 2.351 . S
C141 O152 1.185 . S
C141 O153 1.355 . S
C142 O144 1.185 . S
C142 O145 1.355 . S
Dy143 O147 2.310 . S
Dy143 O150 2.351 . S
Dy143 O152 2.398 1_556 S
Dy143 O153 2.491 1_556 S
Dy143 O154 2.403 . S
Dy143 O155 2.664 . S
Dy143 O157 2.326 . S
O144 Dy140 2.398 . S
O144 C142 1.185 . S
O145 Dy140 2.491 . S
O145 C142 1.355 . S
O146 Dy140 2.403 . S
O146 C148 1.254 . S
O147 Dy140 2.664 . S
O147 Dy143 2.310 . S
O147 C148 1.268 . S
C148 O146 1.254 . S
C148 O147 1.268 . S
C149 O154 1.254 . S
C149 O155 1.268 . S
O150 Dy143 2.351 . S
O150 C158 1.249 . S
O151 Dy140 2.326 . S
O151 C158 1.267 . S
O152 C141 1.185 . S
O152 Dy143 2.398 1_554 S
O153 C141 1.355 . S
O153 Dy143 2.491 1_554 S
O154 Dy143 2.403 . S
O154 C149 1.254 . S
O155 Dy140 2.310 . S
O155 Dy143 2.664 . S
O155 C149 1.268 . S
O156 Dy140 2.351 . S
O156 C159 1.249 . S
O157 Dy143 2.326 . S
O157 C159 1.267 . S
C158 O150 1.249 . S
C158 O151 1.267 . S
C159 O156 1.249 . S
C159 O157 1.267 . S
Dy160 O164 2.398 . S
Dy160 O165 2.491 . S
Dy160 O166 2.403 . S
Dy160 O167 2.664 . S
Dy160 O171 2.326 . S
Dy160 O175 2.310 . S
Dy160 O176 2.351 . S
C161 O172 1.185 . S
C161 O173 1.355 . S
C162 O164 1.185 . S
C162 O165 1.355 . S
Dy163 O167 2.310 . S
Dy163 O170 2.351 . S
Dy163 O172 2.398 . S
Dy163 O173 2.491 . S
Dy163 O174 2.403 . S
Dy163 O175 2.664 . S
Dy163 O177 2.326 . S
O164 Dy160 2.398 . S
O164 C162 1.185 . S
O165 Dy160 2.491 . S
O165 C162 1.355 . S
O166 Dy160 2.403 . S
O166 C168 1.254 . S
O167 Dy160 2.664 . S
O167 Dy163 2.310 . S
O167 C168 1.268 . S
C168 O166 1.254 . S
C168 O167 1.268 . S
C169 O174 1.254 . S
C169 O175 1.268 . S
O170 Dy163 2.351 . S
O170 C178 1.249 . S
O171 Dy160 2.326 . S
O171 C178 1.267 . S
O172 C161 1.185 . S
O172 Dy163 2.398 . S
O173 C161 1.355 . S
O173 Dy163 2.491 . S
O174 Dy163 2.403 . S
O174 C169 1.254 . S
O175 Dy160 2.310 . S
O175 Dy163 2.664 . S
O175 C169 1.268 . S
O176 Dy160 2.351 . S
O176 C179 1.249 . S
O177 Dy163 2.326 . S
O177 C179 1.267 . S
C178 O170 1.249 . S
C178 O171 1.267 . S
C179 O176 1.249 . S
C179 O177 1.267 . S
Dy180 O184 2.398 . S
Dy180 O185 2.491 . S
Dy180 O186 2.403 . S
Dy180 O187 2.664 . S
Dy180 O191 2.326 . S
Dy180 O195 2.310 . S
Dy180 O196 2.351 . S
C181 O192 1.185 . S
C181 O193 1.355 . S
C182 O184 1.185 . S
C182 O185 1.355 . S
Dy183 O187 2.310 . S
Dy183 O190 2.351 . S
Dy183 O192 2.398 . S
Dy183 O193 2.491 . S
Dy183 O194 2.403 . S
Dy183 O195 2.664 . S
Dy183 O197 2.326 . S
O184 Dy180 2.398 . S
O184 C182 1.185 . S
O185 Dy180 2.491 . S
O185 C182 1.355 . S
O186 Dy180 2.403 . S
O186 C188 1.254 . S
O187 Dy180 2.664 . S
O187 Dy183 2.310 . S
O187 C188 1.268 . S
C188 O186 1.254 . S
C188 O187 1.268 . S
C189 O194 1.254 . S
C189 O195 1.268 . S
O190 Dy183 2.351 . S
O190 C198 1.249 . S
O191 Dy180 2.326 . S
O191 C198 1.267 . S
O192 C181 1.185 . S
O192 Dy183 2.398 . S
O193 C181 1.355 . S
O193 Dy183 2.491 . S
O194 Dy183 2.403 . S
O194 C189 1.254 . S
O195 Dy180 2.310 . S
O195 Dy183 2.664 . S
O195 C189 1.268 . S
O196 Dy180 2.351 . S
O196 C199 1.249 . S
O197 Dy183 2.326 . S
O197 C199 1.267 . S
C198 O190 1.249 . S
C198 O191 1.267 . S
C199 O196 1.249 . S
C199 O197 1.267 . S
Dy200 O204 2.398 . S
Dy200 O205 2.491 . S
Dy200 O206 2.403 . S
Dy200 O207 2.664 . S
Dy200 O211 2.326 . S
Dy200 O215 2.310 . S
Dy200 O216 2.351 . S
C201 O212 1.185 . S
C201 O213 1.355 . S
C202 O204 1.185 . S
C202 O205 1.355 . S
Dy203 O207 2.310 . S
Dy203 O210 2.351 . S
Dy203 O212 2.398 . S
Dy203 O213 2.491 . S
Dy203 O214 2.403 . S
Dy203 O215 2.664 . S
Dy203 O217 2.326 . S
O204 Dy200 2.398 . S
O204 C202 1.185 . S
O205 Dy200 2.491 . S
O205 C202 1.355 . S
O206 Dy200 2.403 . S
O206 C208 1.254 . S
O207 Dy200 2.664 . S
O207 Dy203 2.310 . S
O207 C208 1.268 . S
C208 O206 1.254 . S
C208 O207 1.268 . S
C209 O214 1.254 . S
C209 O215 1.268 . S
O210 Dy203 2.351 . S
O210 C218 1.249 . S
O211 Dy200 2.326 . S
O211 C218 1.267 . S
O212 C201 1.185 . S
O212 Dy203 2.398 . S
O213 C201 1.355 . S
O213 Dy203 2.491 . S
O214 Dy203 2.403 . S
O214 C209 1.254 . S
O215 Dy200 2.310 . S
O215 Dy203 2.664 . S
O215 C209 1.268 . S
O216 Dy200 2.351 . S
O216 C219 1.249 . S
O217 Dy203 2.326 . S
O217 C219 1.267 . S
C218 O210 1.249 . S
C218 O211 1.267 . S
C219 O216 1.249 . S
C219 O217 1.267 . S
Dy220 O224 2.398 . S
Dy220 O225 2.491 . S
Dy220 O226 2.403 . S
Dy220 O227 2.664 . S
Dy220 O231 2.326 . S
Dy220 O235 2.310 . S
Dy220 O236 2.351 . S
C221 O232 1.185 . S
C221 O233 1.355 . S
C222 O224 1.185 . S
C222 O225 1.355 . S
Dy223 O227 2.310 . S
Dy223 O230 2.351 . S
Dy223 O232 2.398 . S
Dy223 O233 2.491 . S
Dy223 O234 2.403 . S
Dy223 O235 2.664 . S
Dy223 O237 2.326 . S
O224 Dy220 2.398 . S
O224 C222 1.185 . S
O225 Dy220 2.491 . S
O225 C222 1.355 . S
O226 Dy220 2.403 . S
O226 C228 1.254 . S
O227 Dy220 2.664 . S
O227 Dy223 2.310 . S
O227 C228 1.268 . S
C228 O226 1.254 . S
C228 O227 1.268 . S
C229 O234 1.254 . S
C229 O235 1.268 . S
O230 Dy223 2.351 . S
O230 C238 1.249 . S
O231 Dy220 2.326 . S
O231 C238 1.267 . S
O232 C221 1.185 . S
O232 Dy223 2.398 . S
O233 C221 1.355 . S
O233 Dy223 2.491 . S
O234 Dy223 2.403 . S
O234 C229 1.254 . S
O235 Dy220 2.310 . S
O235 Dy223 2.664 . S
O235 C229 1.268 . S
O236 Dy220 2.351 . S
O236 C239 1.249 . S
O237 Dy223 2.326 . S
O237 C239 1.267 . S
C238 O230 1.249 . S
C238 O231 1.267 . S
C239 O236 1.249 . S
C239 O237 1.267 . S
Dy240 O244 2.398 . S
Dy240 O245 2.491 . S
Dy240 O246 2.403 . S
Dy240 O247 2.664 . S
Dy240 O251 2.326 . S
Dy240 O255 2.310 . S
Dy240 O256 2.351 . S
C241 O252 1.185 . S
C241 O253 1.355 . S
C242 O244 1.185 . S
C242 O245 1.355 . S
Dy243 O247 2.310 . S
Dy243 O250 2.351 . S
Dy243 O252 2.398 . S
Dy243 O253 2.491 . S
Dy243 O254 2.403 . S
Dy243 O255 2.664 . S
Dy243 O257 2.326 . S
O244 Dy240 2.398 . S
O244 C242 1.185 . S
O245 Dy240 2.491 . S
O245 C242 1.355 . S
O246 Dy240 2.403 . S
O246 C248 1.254 . S
O247 Dy240 2.664 . S
O247 Dy243 2.310 . S
O247 C248 1.268 . S
C248 O246 1.254 . S
C248 O247 1.268 . S
C249 O254 1.254 . S
C249 O255 1.268 . S
O250 Dy243 2.351 . S
O250 C258 1.249 . S
O251 Dy240 2.326 . S
O251 C258 1.267 . S
O252 C241 1.185 . S
O252 Dy243 2.398 . S
O253 C241 1.355 . S
O253 Dy243 2.491 . S
O254 Dy243 2.403 . S
O254 C249 1.254 . S
O255 Dy240 2.310 . S
O255 Dy243 2.664 . S
O255 C249 1.268 . S
O256 Dy240 2.351 . S
O256 C259 1.249 . S
O257 Dy243 2.326 . S
O257 C259 1.267 . S
C258 O250 1.249 . S
C258 O251 1.267 . S
C259 O256 1.249 . S
C259 O257 1.267 . S
Dy260 O264 2.398 . S
Dy260 O265 2.491 . S
Dy260 O266 2.403 . S
Dy260 O267 2.664 . S
Dy260 O271 2.326 . S
Dy260 O275 2.310 . S
Dy260 O276 2.351 . S
C261 O272 1.185 . S
C261 O273 1.355 . S
C262 O264 1.185 . S
C262 O265 1.355 . S
Dy263 O267 2.310 . S
Dy263 O270 2.351 . S
Dy263 O272 2.398 . S
Dy263 O273 2.491 . S
Dy263 O274 2.403 . S
Dy263 O275 2.664 . S
Dy263 O277 2.326 . S
O264 Dy260 2.398 . S
O264 C262 1.185 . S
O265 Dy260 2.491 . S
O265 C262 1.355 . S
O266 Dy260 2.403 . S
O266 C268 1.254 . S
O267 Dy260 2.664 . S
O267 Dy263 2.310 . S
O267 C268 1.268 . S
C268 O266 1.254 . S
C268 O267 1.268 . S
C269 O274 1.254 . S
C269 O275 1.268 . S
O270 Dy263 2.351 . S
O270 C278 1.249 . S
O271 Dy260 2.326 . S
O271 C278 1.267 . S
O272 C261 1.185 . S
O272 Dy263 2.398 . S
O273 C261 1.355 . S
O273 Dy263 2.491 . S
O274 Dy263 2.403 . S
O274 C269 1.254 . S
O275 Dy260 2.310 . S
O275 Dy263 2.664 . S
O275 C269 1.268 . S
O276 Dy260 2.351 . S
O276 C279 1.249 . S
O277 Dy263 2.326 . S
O277 C279 1.267 . S
C278 O270 1.249 . S
C278 O271 1.267 . S
C279 O276 1.249 . S
C279 O277 1.267 . S
Dy280 O284 2.398 . S
Dy280 O285 2.491 . S
Dy280 O286 2.403 . S
Dy280 O287 2.664 . S
Dy280 O291 2.326 . S
Dy280 O295 2.310 . S
Dy280 O296 2.351 . S
C281 O292 1.185 . S
C281 O293 1.355 . S
C282 O284 1.185 . S
C282 O285 1.355 . S
Dy283 O287 2.310 . S
Dy283 O290 2.351 . S
Dy283 O292 2.398 . S
Dy283 O293 2.491 . S
Dy283 O294 2.403 . S
Dy283 O295 2.664 . S
Dy283 O297 2.326 . S
O284 Dy280 2.398 . S
O284 C282 1.185 . S
O285 Dy280 2.491 . S
O285 C282 1.355 . S
O286 Dy280 2.403 . S
O286 C288 1.254 . S
O287 Dy280 2.664 . S
O287 Dy283 2.310 . S
O287 C288 1.268 . S
C288 O286 1.254 . S
C288 O287 1.268 . S
C289 O294 1.254 . S
C289 O295 1.268 . S
O290 Dy283 2.351 . S
O290 C298 1.249 . S
O291 Dy280 2.326 . S
O291 C298 1.267 . S
O292 C281 1.185 . S
O292 Dy283 2.398 . S
O293 C281 1.355 . S
O293 Dy283 2.491 . S
O294 Dy283 2.403 . S
O294 C289 1.254 . S
O295 Dy280 2.310 . S
O295 Dy283 2.664 . S
O295 C289 1.268 . S
O296 Dy280 2.351 . S
O296 C299 1.249 . S
O297 Dy283 2.326 . S
O297 C299 1.267 . S
C298 O290 1.249 . S
C298 O291 1.267 . S
C299 O296 1.249 . S
C299 O297 1.267 . S
Dy300 O304 2.398 . S
Dy300 O305 2.491 . S
Dy300 O306 2.403 . S
Dy300 O307 2.664 . S
Dy300 O311 2.326 . S
Dy300 O315 2.310 . S
Dy300 O316 2.351 . S
C301 O312 1.185 . S
C301 O313 1.355 . S
C302 O304 1.185 . S
C302 O305 1.355 . S
Dy303 O307 2.310 . S
Dy303 O310 2.351 . S
Dy303 O312 2.398 . S
Dy303 O313 2.491 . S
Dy303 O314 2.403 . S
Dy303 O315 2.664 . S
Dy303 O317 2.326 . S
O304 Dy300 2.398 . S
O304 C302 1.185 . S
O305 Dy300 2.491 . S
O305 C302 1.355 . S
O306 Dy300 2.403 . S
O306 C308 1.254 . S
O307 Dy300 2.664 . S
O307 Dy303 2.310 . S
O307 C308 1.268 . S
C308 O306 1.254 . S
C308 O307 1.268 . S
C309 O314 1.254 . S
C309 O315 1.268 . S
O310 Dy303 2.351 . S
O310 C318 1.249 . S
O311 Dy300 2.326 . S
O311 C318 1.267 . S
O312 C301 1.185 . S
O312 Dy303 2.398 . S
O313 C301 1.355 . S
O313 Dy303 2.491 . S
O314 Dy303 2.403 . S
O314 C309 1.254 . S
O315 Dy300 2.310 . S
O315 Dy303 2.664 . S
O315 C309 1.268 . S
O316 Dy300 2.351 . S
O316 C319 1.249 . S
O317 Dy303 2.326 . S
O317 C319 1.267 . S
C318 O310 1.249 . S
C318 O311 1.267 . S
C319 O316 1.249 . S
C319 O317 1.267 . S
H320 C332 0.930 . S
H321 C334 0.930 . S
H322 C335 0.930 . S
H323 C339 0.959 . S
H324 C339 0.959 1_545 S
H325 C339 0.961 . S
H326 C340 0.960 1_565 S
H327 C340 0.961 . S
H328 C340 0.959 . S
H329 C343 0.929 . S
H330 C344 0.931 . S
H331 C346 0.930 . S
C332 H320 0.930 . S
C332 C333 1.399 . S
C332 C337 1.399 . S
C333 C332 1.399 . S
C333 C334 1.376 . S
C334 H321 0.930 . S
C334 C333 1.376 . S
C334 C335 1.388 . S
C335 H322 0.930 . S
C335 C334 1.388 . S
C335 C336 1.390 . S
C336 C335 1.390 . S
C336 C337 1.394 . S
C336 C342 1.465 1_565 S
C337 C332 1.399 . S
C337 C336 1.394 . S
C337 C338 1.516 . S
C338 C337 1.516 . S
C338 C339 1.502 . S
C338 C340 1.561 1_565 S
C338 C341 1.526 1_565 S
C339 H323 0.959 . S
C339 H324 0.959 1_565 S
C339 H325 0.961 . S
C339 C338 1.502 . S
C340 H326 0.960 1_545 S
C340 H327 0.961 . S
C340 H328 0.959 . S
C340 C338 1.561 1_545 S
C341 C338 1.526 1_545 S
C341 C342 1.396 . S
C341 C346 1.390 . S
C342 C336 1.465 1_545 S
C342 C341 1.396 . S
C342 C343 1.399 . S
C343 H329 0.929 . S
C343 C342 1.399 . S
C343 C344 1.385 . S
C344 H330 0.931 . S
C344 C343 1.385 . S
C344 C345 1.389 . S
C345 C344 1.389 . S
C345 C346 1.387 . S
C346 H331 0.930 . S
C346 C341 1.390 . S
C346 C345 1.387 . S
H347 C359 0.930 . S
H348 C361 0.930 . S
H349 C362 0.930 . S
H350 C366 0.959 . S
H351 C366 0.959 . S
H352 C366 0.961 . S
H353 C367 0.960 . S
H354 C367 0.961 . S
H355 C367 0.959 . S
H356 C370 0.929 . S
H357 C371 0.931 . S
H358 C373 0.930 . S
C359 H347 0.930 . S
C359 C360 1.399 . S
C359 C364 1.399 . S
C360 C359 1.399 . S
C360 C361 1.376 . S
C361 H348 0.930 . S
C361 C360 1.376 . S
C361 C362 1.388 . S
C362 H349 0.930 . S
C362 C361 1.388 . S
C362 C363 1.390 . S
C363 C362 1.390 . S
C363 C364 1.394 . S
C363 C369 1.465 1_655 S
C364 C359 1.399 . S
C364 C363 1.394 . S
C364 C365 1.516 . S
C365 C364 1.516 . S
C365 C366 1.502 . S
C365 C367 1.561 . S
C365 C368 1.526 1_655 S
C366 H350 0.959 . S
C366 H351 0.959 . S
C366 H352 0.961 . S
C366 C365 1.502 . S
C367 H353 0.960 . S
C367 H354 0.961 . S
C367 H355 0.959 . S
C367 C365 1.561 . S
C368 C365 1.526 1_455 S
C368 C369 1.396 . S
C368 C373 1.390 . S
C369 C363 1.465 1_455 S
C369 C368 1.396 . S
C369 C370 1.399 . S
C370 H356 0.929 . S
C370 C369 1.399 . S
C370 C371 1.385 . S
C371 H357 0.931 . S
C371 C370 1.385 . S
C371 C372 1.389 . S
C372 C371 1.389 . S
C372 C373 1.387 . S
C373 H358 0.930 . S
C373 C368 1.390 . S
C373 C372 1.387 . S
H374 C386 0.930 . S
H375 C388 0.930 . S
H376 C389 0.930 . S
H377 C393 0.959 . S
H378 C393 0.959 . S
H379 C393 0.961 . S
H380 C394 0.960 . S
H381 C394 0.961 . S
H382 C394 0.959 . S
H383 C397 0.929 . S
H384 C398 0.931 . S
H385 C400 0.930 . S
C386 H374 0.930 . S
C386 C387 1.399 . S
C386 C391 1.399 . S
C387 C386 1.399 . S
C387 C388 1.376 . S
C388 H375 0.930 . S
C388 C387 1.376 . S
C388 C389 1.388 . S
C389 H376 0.930 . S
C389 C388 1.388 . S
C389 C390 1.390 . S
C390 C389 1.390 . S
C390 C391 1.394 . S
C390 C396 1.465 1_565 S
C391 C386 1.399 . S
C391 C390 1.394 . S
C391 C392 1.516 1_565 S
C392 C391 1.516 1_545 S
C392 C393 1.502 . S
C392 C394 1.561 . S
C392 C395 1.526 . S
C393 H377 0.959 . S
C393 H378 0.959 . S
C393 H379 0.961 . S
C393 C392 1.502 . S
C394 H380 0.960 . S
C394 H381 0.961 . S
C394 H382 0.959 . S
C394 C392 1.561 . S
C395 C392 1.526 . S
C395 C396 1.396 . S
C395 C400 1.390 . S
C396 C390 1.465 1_545 S
C396 C395 1.396 . S
C396 C397 1.399 . S
C397 H383 0.929 . S
C397 C396 1.399 . S
C397 C398 1.385 . S
C398 H384 0.931 . S
C398 C397 1.385 . S
C398 C399 1.389 . S
C399 C398 1.389 . S
C399 C400 1.387 . S
C400 H385 0.930 . S
C400 C395 1.390 . S
C400 C399 1.387 . S
H401 C413 0.930 . S
H402 C415 0.930 . S
H403 C416 0.930 . S
H404 C420 0.959 . S
H405 C420 0.963 1_455 S
H406 C420 0.956 . S
H407 C421 0.960 1_655 S
H408 C421 0.961 . S
H409 C421 0.959 . S
H410 C424 0.929 . S
H411 C425 0.931 . S
H412 C427 0.930 . S
C413 H401 0.930 . S
C413 C414 1.399 . S
C413 C418 1.399 . S
C414 C413 1.399 . S
C414 C415 1.376 . S
C415 H402 0.930 . S
C415 C414 1.376 . S
C415 C416 1.388 . S
C416 H403 0.930 . S
C416 C415 1.388 . S
C416 C417 1.415 . S
C417 C416 1.415 . S
C417 C418 1.413 . S
C417 C423 1.422 1_655 S
C418 C413 1.399 . S
C418 C417 1.413 . S
C418 C419 1.516 1_655 S
C419 C418 1.516 1_455 S
C419 C420 1.503 1_455 S
C419 C421 1.561 . S
C419 C422 1.526 . S
C420 H404 0.959 . S
C420 H405 0.963 1_655 S
C420 H406 0.956 . S
C420 C419 1.503 1_655 S
C421 H407 0.960 1_455 S
C421 H408 0.961 . S
C421 H409 0.959 . S
C421 C419 1.561 . S
C422 C419 1.526 . S
C422 C423 1.396 . S
C422 C427 1.390 . S
C423 C417 1.422 1_455 S
C423 C422 1.396 . S
C423 C424 1.399 . S
C424 H410 0.929 . S
C424 C423 1.399 . S
C424 C425 1.385 . S
C425 H411 0.931 . S
C425 C424 1.385 . S
C425 C426 1.389 . S
C426 C425 1.389 . S
C426 C427 1.387 . S
C427 H412 0.930 . S
C427 C422 1.390 . S
C427 C426 1.387 . S
H428 C440 0.930 . S
H429 C442 0.930 1_556 S
H430 C443 0.930 . S
H431 C447 0.959 . S
H432 C447 0.959 . S
H433 C447 0.961 . S
H434 C448 0.960 . S
H435 C448 0.961 . S
H436 C448 0.959 . S
H437 C451 0.929 . S
H438 C452 0.931 . S
H439 C454 0.930 . S
C440 H428 0.930 . S
C440 C441 1.399 . S
C440 C445 1.399 . S
C441 C440 1.399 . S
C441 C442 1.376 . S
C442 H429 0.930 1_554 S
C442 C441 1.376 . S
C442 C443 1.388 1_554 S
C443 H430 0.930 . S
C443 C442 1.388 1_556 S
C443 C444 1.390 1_556 S
C444 C443 1.390 1_554 S
C444 C445 1.394 . S
C444 C450 1.465 1_554 S
C445 C440 1.399 . S
C445 C444 1.394 . S
C445 C446 1.516 . S
C446 C445 1.516 . S
C446 C447 1.502 . S
C446 C448 1.561 . S
C446 C449 1.526 . S
C447 H431 0.959 . S
C447 H432 0.959 . S
C447 H433 0.961 . S
C447 C446 1.502 . S
C448 H434 0.960 . S
C448 H435 0.961 . S
C448 H436 0.959 . S
C448 C446 1.561 . S
C449 C446 1.526 . S
C449 C450 1.396 1_554 S
C449 C454 1.390 . S
C450 C444 1.465 1_556 S
C450 C449 1.396 1_556 S
C450 C451 1.399 . S
C451 H437 0.929 . S
C451 C450 1.399 . S
C451 C452 1.385 . S
C452 H438 0.931 . S
C452 C451 1.385 . S
C452 C453 1.389 . S
C453 C452 1.389 . S
C453 C454 1.387 1_556 S
C454 H439 0.930 . S
C454 C449 1.390 . S
C454 C453 1.387 1_554 S
H455 C467 0.930 . S
H456 C469 0.930 . S
H457 C470 0.930 . S
H458 C474 0.959 . S
H459 C474 0.959 . S
H460 C474 0.961 . S
H461 C475 0.960 . S
H462 C475 0.961 . S
H463 C475 0.959 . S
H464 C478 0.929 . S
H465 C479 0.931 . S
H466 C481 0.930 1_554 S
C467 H455 0.930 . S
C467 C468 1.399 . S
C467 C472 1.399 . S
C468 C467 1.399 . S
C468 C469 1.376 1_554 S
C469 H456 0.930 . S
C469 C468 1.376 1_556 S
C469 C470 1.388 . S
C470 H457 0.930 . S
C470 C469 1.388 . S
C470 C471 1.390 . S
C471 C470 1.390 . S
C471 C472 1.394 1_556 S
C471 C477 1.465 . S
C472 C467 1.399 . S
C472 C471 1.394 1_554 S
C472 C473 1.516 . S
C473 C472 1.516 . S
C473 C474 1.502 . S
C473 C475 1.561 . S
C473 C476 1.526 1_554 S
C474 H458 0.959 . S
C474 H459 0.959 . S
C474 H460 0.961 . S
C474 C473 1.502 . S
C475 H461 0.960 . S
C475 H462 0.961 . S
C475 H463 0.959 . S
C475 C473 1.561 . S
C476 C473 1.526 1_556 S
C476 C477 1.396 . S
C476 C481 1.390 . S
C477 C471 1.465 . S
C477 C476 1.396 . S
C477 C478 1.399 . S
C478 H464 0.929 . S
C478 C477 1.399 . S
C478 C479 1.385 . S
C479 H465 0.931 . S
C479 C478 1.385 . S
C479 C480 1.389 . S
C480 C479 1.389 . S
C480 C481 1.387 . S
C481 H466 0.930 1_556 S
C481 C476 1.390 . S
C481 C480 1.387 . S
H482 C494 0.930 . S
H483 C496 0.930 . S
H484 C497 0.930 . S
H485 C501 0.959 1_554 S
H486 C501 0.959 . S
H487 C501 0.961 . S
H488 C502 0.960 . S
H489 C502 0.961 . S
H490 C502 0.959 . S
H491 C505 0.929 . S
H492 C506 0.931 . S
H493 C508 0.930 . S
C494 H482 0.930 . S
C494 C495 1.399 . S
C494 C499 1.399 . S
C495 C494 1.399 . S
C495 C496 1.376 . S
C496 H483 0.930 . S
C496 C495 1.376 . S
C496 C497 1.388 . S
C497 H484 0.930 . S
C497 C496 1.388 . S
C497 C498 1.390 . S
C498 C497 1.390 . S
C498 C499 1.394 . S
C498 C504 1.465 . S
C499 C494 1.399 . S
C499 C498 1.394 . S
C499 C500 1.516 1_554 S
C500 C499 1.516 1_556 S
C500 C501 1.502 . S
C500 C502 1.561 . S
C500 C503 1.526 . S
C501 H485 0.959 1_556 S
C501 H486 0.959 . S
C501 H487 0.961 . S
C501 C500 1.502 . S
C502 H488 0.960 . S
C502 H489 0.961 . S
C502 H490 0.959 . S
C502 C500 1.561 . S
C503 C500 1.526 . S
C503 C504 1.396 1_556 S
C503 C508 1.390 . S
C504 C498 1.465 . S
C504 C503 1.396 1_554 S
C504 C505 1.399 . S
C505 H491 0.929 . S
C505 C504 1.399 . S
C505 C506 1.385 . S
C506 H492 0.931 . S
C506 C505 1.385 . S
C506 C507 1.389 1_554 S
C507 C506 1.389 1_556 S
C507 C508 1.387 . S
C508 H493 0.930 . S
C508 C503 1.390 . S
C508 C507 1.387 . S
H509 C521 0.930 . S
H510 C523 0.930 . S
H511 C524 0.930 . S
H512 C528 0.959 . S
H513 C528 0.959 . S
H514 C528 0.961 . S
H515 C529 0.960 . S
H516 C529 0.961 . S
H517 C529 0.959 . S
H518 C532 0.929 . S
H519 C533 0.933 . S
H520 C535 0.930 . S
C521 H509 0.930 . S
C521 C522 1.399 1_556 S
C521 C526 1.399 . S
C522 C521 1.399 1_554 S
C522 C523 1.376 . S
C523 H510 0.930 . S
C523 C522 1.376 . S
C523 C524 1.388 . S
C524 H511 0.930 . S
C524 C523 1.388 . S
C524 C525 1.390 . S
C525 C524 1.390 . S
C525 C526 1.394 1_554 S
C525 C531 1.465 1_554 S
C526 C521 1.399 . S
C526 C525 1.394 1_556 S
C526 C527 1.516 . S
C527 C526 1.516 . S
C527 C528 1.502 . S
C527 C529 1.561 . S
C527 C530 1.526 . S
C528 H512 0.959 . S
C528 H513 0.959 . S
C528 H514 0.961 . S
C528 C527 1.502 . S
C529 H515 0.960 . S
C529 H516 0.961 . S
C529 H517 0.959 . S
C529 C527 1.561 . S
C530 C527 1.526 . S
C530 C531 1.396 . S
C530 C535 1.390 . S
C531 C525 1.465 1_556 S
C531 C530 1.396 . S
C531 C532 1.399 1_556 S
C532 H518 0.929 . S
C532 C531 1.399 1_554 S
C532 C533 1.385 1_554 S
C533 H519 0.933 . S
C533 C532 1.385 1_556 S
C533 C534 1.389 . S
C534 C533 1.389 . S
C534 C535 1.387 . S
C535 H520 0.930 . S
C535 C530 1.390 . S
C535 C534 1.387 . S
H536 C548 0.930 . S
H537 C550 0.930 . S
H538 C551 0.930 . S
H539 C555 0.959 . S
H540 C555 0.959 . S
H541 C555 0.961 . S
H542 C556 0.960 . S
H543 C556 0.961 . S
H544 C556 0.959 . S
H545 C559 0.929 . S
H546 C560 0.931 . S
H547 C562 0.930 . S
C548 H536 0.930 . S
C548 C549 1.399 . S
C548 C553 1.399 . S
C549 C548 1.399 . S
C549 C550 1.376 . S
C550 H537 0.930 . S
C550 C549 1.376 . S
C550 C551 1.388 . S
C551 H538 0.930 . S
C551 C550 1.388 . S
C551 C552 1.390 . S
C552 C551 1.390 . S
C552 C553 1.394 . S
C552 C558 1.465 . S
C553 C548 1.399 . S
C553 C552 1.394 . S
C553 C554 1.516 . S
C554 C553 1.516 . S
C554 C555 1.502 . S
C554 C556 1.561 . S
C554 C557 1.526 . S
C555 H539 0.959 . S
C555 H540 0.959 . S
C555 H541 0.961 . S
C555 C554 1.502 . S
C556 H542 0.960 . S
C556 H543 0.961 . S
C556 H544 0.959 . S
C556 C554 1.561 . S
C557 C554 1.526 . S
C557 C558 1.396 . S
C557 C562 1.390 . S
C558 C552 1.465 . S
C558 C557 1.396 . S
C558 C559 1.399 . S
C559 H545 0.929 . S
C559 C558 1.399 . S
C559 C560 1.385 . S
C560 H546 0.931 . S
C560 C559 1.385 . S
C560 C561 1.389 . S
C561 C560 1.389 . S
C561 C562 1.387 . S
C562 H547 0.930 . S
C562 C557 1.390 . S
C562 C561 1.387 . S
H563 C575 0.930 . S
H564 C577 0.930 . S
H565 C578 0.930 . S
H566 C582 0.959 . S
H567 C582 0.959 . S
H568 C582 0.961 . S
H569 C583 0.960 . S
H570 C583 0.961 . S
H571 C583 0.959 . S
H572 C586 0.929 . S
H573 C587 0.931 . S
H574 C589 0.930 . S
C575 H563 0.930 . S
C575 C576 1.399 . S
C575 C580 1.399 . S
C576 C575 1.399 . S
C576 C577 1.376 . S
C577 H564 0.930 . S
C577 C576 1.376 . S
C577 C578 1.388 . S
C578 H565 0.930 . S
C578 C577 1.388 . S
C578 C579 1.390 . S
C579 C578 1.390 . S
C579 C580 1.394 . S
C579 C585 1.465 . S
C580 C575 1.399 . S
C580 C579 1.394 . S
C580 C581 1.516 . S
C581 C580 1.516 . S
C581 C582 1.502 . S
C581 C583 1.561 . S
C581 C584 1.526 . S
C582 H566 0.959 . S
C582 H567 0.959 . S
C582 H568 0.961 . S
C582 C581 1.502 . S
C583 H569 0.960 . S
C583 H570 0.961 . S
C583 H571 0.959 . S
C583 C581 1.561 . S
C584 C581 1.526 . S
C584 C585 1.396 . S
C584 C589 1.390 . S
C585 C579 1.465 . S
C585 C584 1.396 . S
C585 C586 1.399 . S
C586 H572 0.929 . S
C586 C585 1.399 . S
C586 C587 1.385 . S
C587 H573 0.931 . S
C587 C586 1.385 . S
C587 C588 1.389 . S
C588 C587 1.389 . S
C588 C589 1.387 . S
C589 H574 0.930 . S
C589 C584 1.390 . S
C589 C588 1.387 . S
H590 C602 0.930 . S
H591 C604 0.930 . S
H592 C605 0.930 . S
H593 C609 0.959 . S
H594 C609 0.959 . S
H595 C609 0.961 . S
H596 C610 0.960 . S
H597 C610 0.961 . S
H598 C610 0.959 . S
H599 C613 0.929 . S
H600 C614 0.931 . S
H601 C616 0.930 . S
C602 H590 0.930 . S
C602 C603 1.399 . S
C602 C607 1.399 . S
C603 C602 1.399 . S
C603 C604 1.376 . S
C604 H591 0.930 . S
C604 C603 1.376 . S
C604 C605 1.388 . S
C605 H592 0.930 . S
C605 C604 1.388 . S
C605 C606 1.390 . S
C606 C605 1.390 . S
C606 C607 1.394 . S
C606 C612 1.465 . S
C607 C602 1.399 . S
C607 C606 1.394 . S
C607 C608 1.516 . S
C608 C607 1.516 . S
C608 C609 1.502 . S
C608 C610 1.561 . S
C608 C611 1.526 . S
C609 H593 0.959 . S
C609 H594 0.959 . S
C609 H595 0.961 . S
C609 C608 1.502 . S
C610 H596 0.960 . S
C610 H597 0.961 . S
C610 H598 0.959 . S
C610 C608 1.561 . S
C611 C608 1.526 . S
C611 C612 1.396 . S
C611 C616 1.390 . S
C612 C606 1.465 . S
C612 C611 1.396 . S
C612 C613 1.399 . S
C613 H599 0.929 . S
C613 C612 1.399 . S
C613 C614 1.385 . S
C614 H600 0.931 . S
C614 C613 1.385 . S
C614 C615 1.389 . S
C615 C614 1.389 . S
C615 C616 1.387 . S
C616 H601 0.930 . S
C616 C611 1.390 . S
C616 C615 1.387 . S
H617 C629 0.930 . S
H618 C631 0.930 . S
H619 C632 0.930 . S
H620 C636 0.959 . S
H621 C636 0.959 . S
H622 C636 0.961 . S
H623 C637 0.960 . S
H624 C637 0.961 . S
H625 C637 0.959 . S
H626 C640 0.929 . S
H627 C641 0.931 . S
H628 C643 0.930 . S
C629 H617 0.930 . S
C629 C630 1.399 . S
C629 C634 1.399 . S
C630 C629 1.399 . S
C630 C631 1.376 . S
C631 H618 0.930 . S
C631 C630 1.376 . S
C631 C632 1.388 . S
C632 H619 0.930 . S
C632 C631 1.388 . S
C632 C633 1.390 . S
C633 C632 1.390 . S
C633 C634 1.394 . S
C633 C639 1.465 . S
C634 C629 1.399 . S
C634 C633 1.394 . S
C634 C635 1.516 . S
C635 C634 1.516 . S
C635 C636 1.502 . S
C635 C637 1.561 . S
C635 C638 1.526 . S
C636 H620 0.959 . S
C636 H621 0.959 . S
C636 H622 0.961 . S
C636 C635 1.502 . S
C637 H623 0.960 . S
C637 H624 0.961 . S
C637 H625 0.959 . S
C637 C635 1.561 . S
C638 C635 1.526 . S
C638 C639 1.396 . S
C638 C643 1.390 . S
C639 C633 1.465 . S
C639 C638 1.396 . S
C639 C640 1.399 . S
C640 H626 0.929 . S
C640 C639 1.399 . S
C640 C641 1.385 . S
C641 H627 0.931 . S
C641 C640 1.385 . S
C641 C642 1.389 . S
C642 C641 1.389 . S
C642 C643 1.387 . S
C643 H628 0.930 . S
C643 C638 1.390 . S
C643 C642 1.387 . S
H644 C656 0.930 . S
H645 C658 0.930 . S
H646 C659 0.932 . S
H647 C663 0.959 . S
H648 C663 0.959 1_545 S
H649 C663 0.961 . S
H650 C664 0.927 1_565 S
H651 C664 0.981 . S
H652 C664 0.972 . S
H653 C667 0.929 . S
H654 C668 0.931 . S
H655 C670 0.930 . S
C656 H644 0.930 . S
C656 C657 1.399 . S
C656 C661 1.399 . S
C657 C656 1.399 . S
C657 C658 1.376 . S
C658 H645 0.930 . S
C658 C657 1.376 . S
C658 C659 1.388 . S
C659 H646 0.932 . S
C659 C658 1.388 . S
C659 C660 1.378 1_565 S
C660 C659 1.378 1_545 S
C660 C661 1.377 1_545 S
C660 C666 1.493 . S
C661 C656 1.399 . S
C661 C660 1.377 1_565 S
C661 C662 1.516 1_565 S
C662 C661 1.516 1_545 S
C662 C663 1.502 1_545 S
C662 C664 1.563 . S
C662 C665 1.526 . S
C663 H647 0.959 . S
C663 H648 0.959 1_565 S
C663 H649 0.961 . S
C663 C662 1.502 1_565 S
C664 H650 0.927 1_545 S
C664 H651 0.981 . S
C664 H652 0.972 . S
C664 C662 1.563 . S
C665 C662 1.526 . S
C665 C666 1.396 . S
C665 C670 1.390 . S
C666 C660 1.493 . S
C666 C665 1.396 . S
C666 C667 1.399 . S
C667 H653 0.929 . S
C667 C666 1.399 . S
C667 C668 1.385 . S
C668 H654 0.931 . S
C668 C667 1.385 . S
C668 C669 1.389 . S
C669 C668 1.389 . S
C669 C670 1.387 . S
C670 H655 0.930 . S
C670 C665 1.390 . S
C670 C669 1.387 . S
H671 C683 0.930 . S
H672 C685 0.930 . S
H673 C686 0.930 . S
H674 C690 0.959 . S
H675 C690 0.959 1_655 S
H676 C690 0.961 . S
H677 C691 0.960 1_455 S
H678 C691 0.961 . S
H679 C691 0.959 . S
H680 C694 0.929 . S
H681 C695 0.931 . S
H682 C697 0.930 . S
C683 H671 0.930 . S
C683 C684 1.399 . S
C683 C688 1.399 . S
C684 C683 1.399 . S
C684 C685 1.376 . S
C685 H672 0.930 . S
C685 C684 1.376 . S
C685 C686 1.388 . S
C686 H673 0.930 . S
C686 C685 1.388 . S
C686 C687 1.390 . S
C687 C686 1.390 . S
C687 C688 1.394 . S
C687 C693 1.441 1_455 S
C688 C683 1.399 . S
C688 C687 1.394 . S
C688 C689 1.516 . S
C689 C688 1.516 . S
C689 C690 1.502 . S
C689 C691 1.561 1_455 S
C689 C692 1.526 1_455 S
C690 H674 0.959 . S
C690 H675 0.959 1_455 S
C690 H676 0.961 . S
C690 C689 1.502 . S
C691 H677 0.960 1_655 S
C691 H678 0.961 . S
C691 H679 0.959 . S
C691 C689 1.561 1_655 S
C692 C689 1.526 1_655 S
C692 C693 1.410 . S
C692 C697 1.390 . S
C693 C687 1.441 1_655 S
C693 C692 1.410 . S
C693 C694 1.410 . S
C694 H680 0.929 . S
C694 C693 1.410 . S
C694 C695 1.385 . S
C695 H681 0.931 . S
C695 C694 1.385 . S
C695 C696 1.389 . S
C696 C695 1.389 . S
C696 C697 1.387 . S
C697 H682 0.930 . S
C697 C692 1.390 . S
C697 C696 1.387 . S
H698 C710 0.930 . S
H699 C712 0.930 . S
H700 C713 0.930 . S
H701 C717 0.959 . S
H702 C717 0.959 1_545 S
H703 C717 0.961 . S
H704 C718 0.960 1_565 S
H705 C718 0.961 . S
H706 C718 0.959 . S
H707 C721 0.929 . S
H708 C722 0.931 . S
H709 C724 0.930 . S
C710 H698 0.930 . S
C710 C711 1.399 . S
C710 C715 1.399 . S
C711 C710 1.399 . S
C711 C712 1.376 . S
C712 H699 0.930 . S
C712 C711 1.376 . S
C712 C713 1.388 . S
C713 H700 0.930 . S
C713 C712 1.388 . S
C713 C714 1.390 . S
C714 C713 1.390 . S
C714 C715 1.394 . S
C714 C720 1.465 1_565 S
C715 C710 1.399 . S
C715 C714 1.394 . S
C715 C716 1.516 . S
C716 C715 1.516 . S
C716 C717 1.502 . S
C716 C718 1.561 1_565 S
C716 C719 1.526 1_565 S
C717 H701 0.959 . S
C717 H702 0.959 1_565 S
C717 H703 0.961 . S
C717 C716 1.502 . S
C718 H704 0.960 1_545 S
C718 H705 0.961 . S
C718 H706 0.959 . S
C718 C716 1.561 1_545 S
C719 C716 1.526 1_545 S
C719 C720 1.396 . S
C719 C724 1.390 . S
C720 C714 1.465 1_545 S
C720 C719 1.396 . S
C720 C721 1.399 . S
C721 H707 0.929 . S
C721 C720 1.399 . S
C721 C722 1.385 . S
C722 H708 0.931 . S
C722 C721 1.385 . S
C722 C723 1.389 . S
C723 C722 1.389 . S
C723 C724 1.387 . S
C724 H709 0.930 . S
C724 C719 1.390 . S
C724 C723 1.387 . S
H725 C737 0.930 . S
H726 C739 0.930 . S
H727 C740 0.930 . S
H728 C744 0.959 . S
H729 C744 0.959 . S
H730 C744 0.961 1_455 S
H731 C745 0.960 . S
H732 C745 0.961 . S
H733 C745 0.959 . S
H734 C748 0.929 . S
H735 C749 0.931 . S
H736 C751 0.930 . S
C737 H725 0.930 . S
C737 C738 1.399 . S
C737 C742 1.399 . S
C738 C737 1.399 . S
C738 C739 1.376 . S
C739 H726 0.930 . S
C739 C738 1.376 . S
C739 C740 1.388 . S
C740 H727 0.930 . S
C740 C739 1.388 . S
C740 C741 1.390 . S
C741 C740 1.390 . S
C741 C742 1.394 . S
C741 C747 1.465 1_455 S
C742 C737 1.399 . S
C742 C741 1.394 . S
C742 C743 1.516 1_455 S
C743 C742 1.516 1_655 S
C743 C744 1.502 . S
C743 C745 1.561 . S
C743 C746 1.526 . S
C744 H728 0.959 . S
C744 H729 0.959 . S
C744 H730 0.961 1_655 S
C744 C743 1.502 . S
C745 H731 0.960 . S
C745 H732 0.961 . S
C745 H733 0.959 . S
C745 C743 1.561 . S
C746 C743 1.526 . S
C746 C747 1.396 . S
C746 C751 1.390 . S
C747 C741 1.465 1_655 S
C747 C746 1.396 . S
C747 C748 1.399 . S
C748 H734 0.929 . S
C748 C747 1.399 . S
C748 C749 1.385 . S
C749 H735 0.931 . S
C749 C748 1.385 . S
C749 C750 1.389 . S
C750 C749 1.389 . S
C750 C751 1.387 . S
C751 H736 0.930 . S
C751 C746 1.390 . S
C751 C750 1.387 . S
H752 C764 0.930 . S
H753 C766 0.930 . S
H754 C767 0.930 . S
H755 C771 0.959 1_554 S
H756 C771 0.959 . S
H757 C771 0.961 . S
H758 C772 0.960 . S
H759 C772 0.961 . S
H760 C772 0.959 1_554 S
H761 C775 0.929 . S
H762 C776 0.931 . S
H763 C778 0.930 . S
C764 H752 0.930 . S
C764 C765 1.399 . S
C764 C769 1.399 . S
C765 C764 1.399 . S
C765 C766 1.376 . S
C766 H753 0.930 . S
C766 C765 1.376 . S
C766 C767 1.388 . S
C767 H754 0.930 . S
C767 C766 1.388 . S
C767 C768 1.390 . S
C768 C767 1.390 . S
C768 C769 1.394 . S
C768 C774 1.465 . S
C769 C764 1.399 . S
C769 C768 1.394 . S
C769 C770 1.516 . S
C770 C769 1.516 . S
C770 C771 1.502 1_554 S
C770 C772 1.561 1_554 S
C770 C773 1.526 . S
C771 H755 0.959 1_556 S
C771 H756 0.959 . S
C771 H757 0.961 . S
C771 C770 1.502 1_556 S
C772 H758 0.960 . S
C772 H759 0.961 . S
C772 H760 0.959 1_556 S
C772 C770 1.561 1_556 S
C773 C770 1.526 . S
C773 C774 1.396 . S
C773 C778 1.390 . S
C774 C768 1.465 . S
C774 C773 1.396 . S
C774 C775 1.399 . S
C775 H761 0.929 . S
C775 C774 1.399 . S
C775 C776 1.385 . S
C776 H762 0.931 . S
C776 C775 1.385 . S
C776 C777 1.389 . S
C777 C776 1.389 . S
C777 C778 1.387 . S
C778 H763 0.930 . S
C778 C773 1.390 . S
C778 C777 1.387 . S
H779 C791 0.930 . S
H780 C793 0.930 . S
H781 C794 0.930 . S
H782 C798 0.959 . S
H783 C798 0.959 . S
H784 C798 0.961 . S
H785 C799 0.960 . S
H786 C799 0.961 . S
H787 C799 0.959 . S
H788 C802 0.929 . S
H789 C803 0.931 . S
H790 C805 0.930 . S
C791 H779 0.930 . S
C791 C792 1.399 . S
C791 C796 1.399 . S
C792 C791 1.399 . S
C792 C793 1.376 . S
C793 H780 0.930 . S
C793 C792 1.376 . S
C793 C794 1.388 . S
C794 H781 0.930 . S
C794 C793 1.388 . S
C794 C795 1.390 . S
C795 C794 1.390 . S
C795 C796 1.394 . S
C795 C801 1.465 . S
C796 C791 1.399 . S
C796 C795 1.394 . S
C796 C797 1.516 . S
C797 C796 1.516 . S
C797 C798 1.502 . S
C797 C799 1.561 . S
C797 C800 1.526 . S
C798 H782 0.959 . S
C798 H783 0.959 . S
C798 H784 0.961 . S
C798 C797 1.502 . S
C799 H785 0.960 . S
C799 H786 0.961 . S
C799 H787 0.959 . S
C799 C797 1.561 . S
C800 C797 1.526 . S
C800 C801 1.396 . S
C800 C805 1.390 . S
C801 C795 1.465 . S
C801 C800 1.396 . S
C801 C802 1.399 . S
C802 H788 0.929 . S
C802 C801 1.399 . S
C802 C803 1.385 . S
C803 H789 0.931 . S
C803 C802 1.385 . S
C803 C804 1.389 . S
C804 C803 1.389 . S
C804 C805 1.387 . S
C805 H790 0.930 . S
C805 C800 1.390 . S
C805 C804 1.387 . S
H806 C818 0.930 . S
H807 C820 0.930 . S
H808 C821 0.930 . S
H809 C825 0.959 . S
H810 C825 0.959 . S
H811 C825 0.961 . S
H812 C826 0.960 . S
H813 C826 0.961 . S
H814 C826 0.959 . S
H815 C829 0.929 . S
H816 C830 0.931 . S
H817 C832 0.930 . S
C818 H806 0.930 . S
C818 C819 1.399 . S
C818 C823 1.399 . S
C819 C818 1.399 . S
C819 C820 1.376 . S
C820 H807 0.930 . S
C820 C819 1.376 . S
C820 C821 1.388 . S
C821 H808 0.930 . S
C821 C820 1.388 . S
C821 C822 1.390 . S
C822 C821 1.390 . S
C822 C823 1.394 . S
C822 C828 1.465 . S
C823 C818 1.399 . S
C823 C822 1.394 . S
C823 C824 1.516 . S
C824 C823 1.516 . S
C824 C825 1.502 . S
C824 C826 1.561 . S
C824 C827 1.526 . S
C825 H809 0.959 . S
C825 H810 0.959 . S
C825 H811 0.961 . S
C825 C824 1.502 . S
C826 H812 0.960 . S
C826 H813 0.961 . S
C826 H814 0.959 . S
C826 C824 1.561 . S
C827 C824 1.526 . S
C827 C828 1.396 . S
C827 C832 1.390 . S
C828 C822 1.465 . S
C828 C827 1.396 . S
C828 C829 1.399 . S
C829 H815 0.929 . S
C829 C828 1.399 . S
C829 C830 1.385 . S
C830 H816 0.931 . S
C830 C829 1.385 . S
C830 C831 1.389 . S
C831 C830 1.389 . S
C831 C832 1.387 . S
C832 H817 0.930 . S
C832 C827 1.390 . S
C832 C831 1.387 . S
H833 C845 0.930 . S
H834 C847 0.930 . S
H835 C848 0.930 . S
H836 C852 0.959 . S
H837 C852 0.959 . S
H838 C852 0.961 . S
H839 C853 0.960 . S
H840 C853 0.961 . S
H841 C853 0.959 . S
H842 C856 0.929 . S
H843 C857 0.931 . S
H844 C859 0.930 . S
C845 H833 0.930 . S
C845 C846 1.399 . S
C845 C850 1.399 . S
C846 C845 1.399 . S
C846 C847 1.376 . S
C847 H834 0.930 . S
C847 C846 1.376 . S
C847 C848 1.388 . S
C848 H835 0.930 . S
C848 C847 1.388 . S
C848 C849 1.390 . S
C849 C848 1.390 . S
C849 C850 1.394 . S
C849 C855 1.465 . S
C850 C845 1.399 . S
C850 C849 1.394 . S
C850 C851 1.516 . S
C851 C850 1.516 . S
C851 C852 1.502 . S
C851 C853 1.561 . S
C851 C854 1.526 . S
C852 H836 0.959 . S
C852 H837 0.959 . S
C852 H838 0.961 . S
C852 C851 1.502 . S
C853 H839 0.960 . S
C853 H840 0.961 . S
C853 H841 0.959 . S
C853 C851 1.561 . S
C854 C851 1.526 . S
C854 C855 1.396 . S
C854 C859 1.390 . S
C855 C849 1.465 . S
C855 C854 1.396 . S
C855 C856 1.399 . S
C856 H842 0.929 . S
C856 C855 1.399 . S
C856 C857 1.385 . S
C857 H843 0.931 . S
C857 C856 1.385 . S
C857 C858 1.389 . S
C858 C857 1.389 . S
C858 C859 1.387 . S
C859 H844 0.930 . S
C859 C854 1.390 . S
C859 C858 1.387 . S
H860 C872 0.930 . S
H861 C874 0.930 . S
H862 C875 0.930 . S
H863 C879 0.959 . S
H864 C879 0.959 . S
H865 C879 0.961 . S
H866 C880 0.960 . S
H867 C880 0.961 . S
H868 C880 0.959 . S
H869 C883 0.929 . S
H870 C884 0.931 . S
H871 C886 0.930 . S
C872 H860 0.930 . S
C872 C873 1.399 . S
C872 C877 1.399 . S
C873 C872 1.399 . S
C873 C874 1.376 . S
C874 H861 0.930 . S
C874 C873 1.376 . S
C874 C875 1.388 . S
C875 H862 0.930 . S
C875 C874 1.388 . S
C875 C876 1.390 . S
C876 C875 1.390 . S
C876 C877 1.394 . S
C876 C882 1.465 . S
C877 C872 1.399 . S
C877 C876 1.394 . S
C877 C878 1.516 . S
C878 C877 1.516 . S
C878 C879 1.502 . S
C878 C880 1.561 . S
C878 C881 1.526 . S
C879 H863 0.959 . S
C879 H864 0.959 . S
C879 H865 0.961 . S
C879 C878 1.502 . S
C880 H866 0.960 . S
C880 H867 0.961 . S
C880 H868 0.959 . S
C880 C878 1.561 . S
C881 C878 1.526 . S
C881 C882 1.396 . S
C881 C886 1.390 . S
C882 C876 1.465 . S
C882 C881 1.396 . S
C882 C883 1.399 . S
C883 H869 0.929 . S
C883 C882 1.399 . S
C883 C884 1.385 . S
C884 H870 0.931 . S
C884 C883 1.385 . S
C884 C885 1.389 . S
C885 C884 1.389 . S
C885 C886 1.387 . S
C886 H871 0.930 . S
C886 C881 1.390 . S
C886 C885 1.387 . S
H887 C899 0.930 . S
H888 C901 0.930 . S
H889 C902 0.930 . S
H890 C906 0.959 . S
H891 C906 0.959 . S
H892 C906 0.961 . S
H893 C907 0.960 . S
H894 C907 0.961 . S
H895 C907 0.959 . S
H896 C910 0.929 . S
H897 C911 0.931 . S
H898 C913 0.930 . S
C899 H887 0.930 . S
C899 C900 1.399 . S
C899 C904 1.399 . S
C900 C899 1.399 . S
C900 C901 1.376 . S
C901 H888 0.930 . S
C901 C900 1.376 . S
C901 C902 1.388 . S
C902 H889 0.930 . S
C902 C901 1.388 . S
C902 C903 1.390 . S
C903 C902 1.390 . S
C903 C904 1.394 . S
C903 C909 1.465 . S
C904 C899 1.399 . S
C904 C903 1.394 . S
C904 C905 1.516 . S
C905 C904 1.516 . S
C905 C906 1.502 . S
C905 C907 1.561 . S
C905 C908 1.526 . S
C906 H890 0.959 . S
C906 H891 0.959 . S
C906 H892 0.961 . S
C906 C905 1.502 . S
C907 H893 0.960 . S
C907 H894 0.961 . S
C907 H895 0.959 . S
C907 C905 1.561 . S
C908 C905 1.526 . S
C908 C909 1.396 . S
C908 C913 1.390 . S
C909 C903 1.465 . S
C909 C908 1.396 . S
C909 C910 1.399 . S
C910 H896 0.929 . S
C910 C909 1.399 . S
C910 C911 1.385 . S
C911 H897 0.931 . S
C911 C910 1.385 . S
C911 C912 1.389 . S
C912 C911 1.389 . S
C912 C913 1.387 . S
C913 H898 0.930 . S
C913 C908 1.390 . S
C913 C912 1.387 . S
H914 C926 0.930 . S
H915 C928 0.930 . S
H916 C929 0.930 . S
H917 C933 0.959 . S
H918 C933 0.959 . S
H919 C933 0.961 . S
H920 C934 0.960 . S
H921 C934 0.961 . S
H922 C934 0.959 . S
H923 C937 0.929 . S
H924 C938 0.931 . S
H925 C940 0.930 . S
C926 H914 0.930 . S
C926 C927 1.399 . S
C926 C931 1.399 . S
C927 C926 1.399 . S
C927 C928 1.376 . S
C928 H915 0.930 . S
C928 C927 1.376 . S
C928 C929 1.388 . S
C929 H916 0.930 . S
C929 C928 1.388 . S
C929 C930 1.390 . S
C930 C929 1.390 . S
C930 C931 1.394 . S
C930 C936 1.465 . S
C931 C926 1.399 . S
C931 C930 1.394 . S
C931 C932 1.516 . S
C932 C931 1.516 . S
C932 C933 1.502 . S
C932 C934 1.561 . S
C932 C935 1.526 . S
C933 H917 0.959 . S
C933 H918 0.959 . S
C933 H919 0.961 . S
C933 C932 1.502 . S
C934 H920 0.960 . S
C934 H921 0.961 . S
C934 H922 0.959 . S
C934 C932 1.561 . S
C935 C932 1.526 . S
C935 C936 1.396 . S
C935 C940 1.390 . S
C936 C930 1.465 . S
C936 C935 1.396 . S
C936 C937 1.399 . S
C937 H923 0.929 . S
C937 C936 1.399 . S
C937 C938 1.385 . S
C938 H924 0.931 . S
C938 C937 1.385 . S
C938 C939 1.389 . S
C939 C938 1.389 . S
C939 C940 1.387 . S
C940 H925 0.930 . S
C940 C935 1.390 . S
C940 C939 1.387 . S
H941 C953 0.930 . S
H942 C955 0.930 . S
H943 C956 0.930 . S
H944 C960 0.959 . S
H945 C960 0.959 . S
H946 C960 0.961 . S
H947 C961 0.960 . S
H948 C961 0.961 . S
H949 C961 0.959 . S
H950 C964 0.929 . S
H951 C965 0.931 . S
H952 C967 0.930 . S
C953 H941 0.930 . S
C953 C954 1.399 . S
C953 C958 1.399 . S
C954 C953 1.399 . S
C954 C955 1.376 . S
C955 H942 0.930 . S
C955 C954 1.376 . S
C955 C956 1.388 . S
C956 H943 0.930 . S
C956 C955 1.388 . S
C956 C957 1.390 . S
C957 C956 1.390 . S
C957 C958 1.394 . S
C957 C963 1.465 . S
C958 C953 1.399 . S
C958 C957 1.394 . S
C958 C959 1.516 . S
C959 C958 1.516 . S
C959 C960 1.502 . S
C959 C961 1.561 . S
C959 C962 1.526 . S
C960 H944 0.959 . S
C960 H945 0.959 . S
C960 H946 0.961 . S
C960 C959 1.502 . S
C961 H947 0.960 . S
C961 H948 0.961 . S
C961 H949 0.959 . S
C961 C959 1.561 . S
C962 C959 1.526 . S
C962 C963 1.396 . S
C962 C967 1.390 . S
C963 C957 1.465 . S
C963 C962 1.396 . S
C963 C964 1.399 . S
C964 H950 0.929 . S
C964 C963 1.399 . S
C964 C965 1.385 . S
C965 H951 0.931 . S
C965 C964 1.385 . S
C965 C966 1.389 . S
C966 C965 1.389 . S
C966 C967 1.387 . S
C967 H952 0.930 . S
C967 C962 1.390 . S
C967 C966 1.387 . S
H968 C980 0.930 . S
H969 C982 0.930 . S
H970 C983 0.930 . S
H971 C987 0.959 . S
H972 C987 0.959 . S
H973 C987 0.961 . S
H974 C988 0.960 . S
H975 C988 0.961 . S
H976 C988 0.959 . S
H977 C991 0.929 . S
H978 C992 0.931 . S
H979 C994 0.930 1_554 S
C980 H968 0.930 . S
C980 C981 1.399 . S
C980 C985 1.399 . S
C981 C980 1.399 . S
C981 C982 1.376 . S
C982 H969 0.930 . S
C982 C981 1.376 . S
C982 C983 1.388 . S
C983 H970 0.930 . S
C983 C982 1.388 . S
C983 C984 1.390 . S
C984 C983 1.390 . S
C984 C985 1.394 . S
C984 C990 1.465 . S
C985 C980 1.399 . S
C985 C984 1.394 . S
C985 C986 1.516 . S
C986 C985 1.516 . S
C986 C987 1.502 . S
C986 C988 1.561 . S
C986 C989 1.526 . S
C987 H971 0.959 . S
C987 H972 0.959 . S
C987 H973 0.961 . S
C987 C986 1.502 . S
C988 H974 0.960 . S
C988 H975 0.961 . S
C988 H976 0.959 . S
C988 C986 1.561 . S
C989 C986 1.526 . S
C989 C990 1.396 . S
C989 C994 1.390 . S
C990 C984 1.465 . S
C990 C989 1.396 . S
C990 C991 1.399 . S
C991 H977 0.929 . S
C991 C990 1.399 . S
C991 C992 1.385 . S
C992 H978 0.931 . S
C992 C991 1.385 . S
C992 C993 1.389 . S
C993 C992 1.389 . S
C993 C994 1.387 . S
C994 H979 0.930 1_556 S
C994 C989 1.390 . S
C994 C993 1.387 . S
H995 C1007 0.930 . S
H996 C1009 0.930 . S
H997 C1010 0.930 . S
H998 C1014 0.959 . S
H999 C1014 0.959 . S
H1000 C1014 0.961 1_556 S
H1001 C1015 0.960 . S
H1002 C1015 0.961 . S
H1003 C1015 0.959 . S
H1004 C1018 0.929 . S
H1005 C1019 0.931 . S
H1006 C1021 0.930 . S
C1007 H995 0.930 . S
C1007 C1008 1.399 1_556 S
C1007 C1012 1.399 1_556 S
C1008 C1007 1.399 1_554 S
C1008 C1009 1.376 . S
C1009 H996 0.930 . S
C1009 C1008 1.376 . S
C1009 C1010 1.388 . S
C1010 H997 0.930 . S
C1010 C1009 1.388 . S
C1010 C1011 1.390 . S
C1011 C1010 1.390 . S
C1011 C1012 1.394 . S
C1011 C1017 1.465 . S
C1012 C1007 1.399 1_554 S
C1012 C1011 1.394 . S
C1012 C1013 1.516 . S
C1013 C1012 1.516 . S
C1013 C1014 1.502 . S
C1013 C1015 1.561 . S
C1013 C1016 1.526 . S
C1014 H998 0.959 . S
C1014 H999 0.959 . S
C1014 H1000 0.961 1_554 S
C1014 C1013 1.502 . S
C1015 H1001 0.960 . S
C1015 H1002 0.961 . S
C1015 H1003 0.959 . S
C1015 C1013 1.561 . S
C1016 C1013 1.526 . S
C1016 C1017 1.396 . S
C1016 C1021 1.390 . S
C1017 C1011 1.465 . S
C1017 C1016 1.396 . S
C1017 C1018 1.399 . S
C1018 H1004 0.929 . S
C1018 C1017 1.399 . S
C1018 C1019 1.385 . S
C1019 H1005 0.931 . S
C1019 C1018 1.385 . S
C1019 C1020 1.389 . S
C1020 C1019 1.389 . S
C1020 C1021 1.387 . S
C1021 H1006 0.930 . S
C1021 C1016 1.390 . S
C1021 C1020 1.387 . S
H1022 C1034 0.930 . S
H1023 C1036 0.930 . S
H1024 C1037 0.930 . S
H1025 C1041 0.959 . S
H1026 C1041 0.959 . S
H1027 C1041 0.961 . S
H1028 C1042 0.960 . S
H1029 C1042 0.961 . S
H1030 C1042 0.959 . S
H1031 C1045 0.929 . S
H1032 C1046 0.931 . S
H1033 C1048 0.930 . S
C1034 H1022 0.930 . S
C1034 C1035 1.399 1_556 S
C1034 C1039 1.399 . S
C1035 C1034 1.399 1_554 S
C1035 C1036 1.376 . S
C1036 H1023 0.930 . S
C1036 C1035 1.376 . S
C1036 C1037 1.388 . S
C1037 H1024 0.930 . S
C1037 C1036 1.388 . S
C1037 C1038 1.390 1_554 S
C1038 C1037 1.390 1_556 S
C1038 C1039 1.394 . S
C1038 C1044 1.465 . S
C1039 C1034 1.399 . S
C1039 C1038 1.394 . S
C1039 C1040 1.516 . S
C1040 C1039 1.516 . S
C1040 C1041 1.502 . S
C1040 C1042 1.561 . S
C1040 C1043 1.526 . S
C1041 H1025 0.959 . S
C1041 H1026 0.959 . S
C1041 H1027 0.961 . S
C1041 C1040 1.502 . S
C1042 H1028 0.960 . S
C1042 H1029 0.961 . S
C1042 H1030 0.959 . S
C1042 C1040 1.561 . S
C1043 C1040 1.526 . S
C1043 C1044 1.396 . S
C1043 C1048 1.390 . S
C1044 C1038 1.465 . S
C1044 C1043 1.396 . S
C1044 C1045 1.399 . S
C1045 H1031 0.929 . S
C1045 C1044 1.399 . S
C1045 C1046 1.385 . S
C1046 H1032 0.931 . S
C1046 C1045 1.385 . S
C1046 C1047 1.389 . S
C1047 C1046 1.389 . S
C1047 C1048 1.387 . S
C1048 H1033 0.930 . S
C1048 C1043 1.390 . S
C1048 C1047 1.387 . S
H1049 C1061 0.930 . S
H1050 C1063 0.930 . S
H1051 C1064 0.930 . S
H1052 C1068 0.959 . S
H1053 C1068 0.959 . S
H1054 C1068 0.961 . S
H1055 C1069 0.960 . S
H1056 C1069 0.961 . S
H1057 C1069 0.959 . S
H1058 C1072 0.929 . S
H1059 C1073 0.931 . S
H1060 C1075 0.930 . S
C1061 H1049 0.930 . S
C1061 C1062 1.399 1_554 S
C1061 C1066 1.399 . S
C1062 C1061 1.399 1_556 S
C1062 C1063 1.376 . S
C1063 H1050 0.930 . S
C1063 C1062 1.376 . S
C1063 C1064 1.388 . S
C1064 H1051 0.930 . S
C1064 C1063 1.388 . S
C1064 C1065 1.390 1_556 S
C1065 C1064 1.390 1_554 S
C1065 C1066 1.394 . S
C1065 C1071 1.465 . S
C1066 C1061 1.399 . S
C1066 C1065 1.394 . S
C1066 C1067 1.516 . S
C1067 C1066 1.516 . S
C1067 C1068 1.502 . S
C1067 C1069 1.561 . S
C1067 C1070 1.526 . S
C1068 H1052 0.959 . S
C1068 H1053 0.959 . S
C1068 H1054 0.961 . S
C1068 C1067 1.502 . S
C1069 H1055 0.960 . S
C1069 H1056 0.961 . S
C1069 H1057 0.959 . S
C1069 C1067 1.561 . S
C1070 C1067 1.526 . S
C1070 C1071 1.396 . S
C1070 C1075 1.390 . S
C1071 C1065 1.465 . S
C1071 C1070 1.396 . S
C1071 C1072 1.399 . S
C1072 H1058 0.929 . S
C1072 C1071 1.399 . S
C1072 C1073 1.385 . S
C1073 H1059 0.931 . S
C1073 C1072 1.385 . S
C1073 C1074 1.389 . S
C1074 C1073 1.389 . S
C1074 C1075 1.387 . S
C1075 H1060 0.930 . S
C1075 C1070 1.390 . S
C1075 C1074 1.387 . S
H1076 C1088 0.930 . S
H1077 C1090 0.930 . S
H1078 C1091 0.930 . S
H1079 C1095 0.959 . S
H1080 C1095 0.959 . S
H1081 C1095 0.961 . S
H1082 C1096 0.960 . S
H1083 C1096 0.961 . S
H1084 C1096 0.959 . S
H1085 C1099 0.929 . S
H1086 C1100 0.931 . S
H1087 C1102 0.930 . S
C1088 H1076 0.930 . S
C1088 C1089 1.399 . S
C1088 C1093 1.399 . S
C1089 C1088 1.399 . S
C1089 C1090 1.376 . S
C1090 H1077 0.930 . S
C1090 C1089 1.376 . S
C1090 C1091 1.388 . S
C1091 H1078 0.930 . S
C1091 C1090 1.388 . S
C1091 C1092 1.390 . S
C1092 C1091 1.390 . S
C1092 C1093 1.394 . S
C1092 C1098 1.465 . S
C1093 C1088 1.399 . S
C1093 C1092 1.394 . S
C1093 C1094 1.516 . S
C1094 C1093 1.516 . S
C1094 C1095 1.502 . S
C1094 C1096 1.561 . S
C1094 C1097 1.526 . S
C1095 H1079 0.959 . S
C1095 H1080 0.959 . S
C1095 H1081 0.961 . S
C1095 C1094 1.502 . S
C1096 H1082 0.960 . S
C1096 H1083 0.961 . S
C1096 H1084 0.959 . S
C1096 C1094 1.561 . S
C1097 C1094 1.526 . S
C1097 C1098 1.396 . S
C1097 C1102 1.390 . S
C1098 C1092 1.465 . S
C1098 C1097 1.396 . S
C1098 C1099 1.399 . S
C1099 H1085 0.929 . S
C1099 C1098 1.399 . S
C1099 C1100 1.385 . S
C1100 H1086 0.931 . S
C1100 C1099 1.385 . S
C1100 C1101 1.389 . S
C1101 C1100 1.389 . S
C1101 C1102 1.387 . S
C1102 H1087 0.930 . S
C1102 C1097 1.390 . S
C1102 C1101 1.387 . S
H1103 C1115 0.930 . S
H1104 C1117 0.930 . S
H1105 C1118 0.930 . S
H1106 C1122 0.959 . S
H1107 C1122 0.959 . S
H1108 C1122 0.961 . S
H1109 C1123 0.960 . S
H1110 C1123 0.961 . S
H1111 C1123 0.959 . S
H1112 C1126 0.929 . S
H1113 C1127 0.931 . S
H1114 C1129 0.930 . S
C1115 H1103 0.930 . S
C1115 C1116 1.399 . S
C1115 C1120 1.399 . S
C1116 C1115 1.399 . S
C1116 C1117 1.376 . S
C1117 H1104 0.930 . S
C1117 C1116 1.376 . S
C1117 C1118 1.388 . S
C1118 H1105 0.930 . S
C1118 C1117 1.388 . S
C1118 C1119 1.390 . S
C1119 C1118 1.390 . S
C1119 C1120 1.394 . S
C1119 C1125 1.465 . S
C1120 C1115 1.399 . S
C1120 C1119 1.394 . S
C1120 C1121 1.516 . S
C1121 C1120 1.516 . S
C1121 C1122 1.502 . S
C1121 C1123 1.561 . S
C1121 C1124 1.526 . S
C1122 H1106 0.959 . S
C1122 H1107 0.959 . S
C1122 H1108 0.961 . S
C1122 C1121 1.502 . S
C1123 H1109 0.960 . S
C1123 H1110 0.961 . S
C1123 H1111 0.959 . S
C1123 C1121 1.561 . S
C1124 C1121 1.526 . S
C1124 C1125 1.396 . S
C1124 C1129 1.390 . S
C1125 C1119 1.465 . S
C1125 C1124 1.396 . S
C1125 C1126 1.399 . S
C1126 H1112 0.929 . S
C1126 C1125 1.399 . S
C1126 C1127 1.385 . S
C1127 H1113 0.931 . S
C1127 C1126 1.385 . S
C1127 C1128 1.389 . S
C1128 C1127 1.389 . S
C1128 C1129 1.387 . S
C1129 H1114 0.930 . S
C1129 C1124 1.390 . S
C1129 C1128 1.387 . S
H1130 C1142 0.930 . S
H1131 C1144 0.930 . S
H1132 C1145 0.930 . S
H1133 C1149 0.959 . S
H1134 C1149 0.959 . S
H1135 C1149 0.961 . S
H1136 C1150 0.960 . S
H1137 C1150 0.961 . S
H1138 C1150 0.959 . S
H1139 C1153 0.929 . S
H1140 C1154 0.931 . S
H1141 C1156 0.930 . S
C1142 H1130 0.930 . S
C1142 C1143 1.399 . S
C1142 C1147 1.399 . S
C1143 C1142 1.399 . S
C1143 C1144 1.376 . S
C1144 H1131 0.930 . S
C1144 C1143 1.376 . S
C1144 C1145 1.388 . S
C1145 H1132 0.930 . S
C1145 C1144 1.388 . S
C1145 C1146 1.390 . S
C1146 C1145 1.390 . S
C1146 C1147 1.394 . S
C1146 C1152 1.465 . S
C1147 C1142 1.399 . S
C1147 C1146 1.394 . S
C1147 C1148 1.516 . S
C1148 C1147 1.516 . S
C1148 C1149 1.502 . S
C1148 C1150 1.561 . S
C1148 C1151 1.526 . S
C1149 H1133 0.959 . S
C1149 H1134 0.959 . S
C1149 H1135 0.961 . S
C1149 C1148 1.502 . S
C1150 H1136 0.960 . S
C1150 H1137 0.961 . S
C1150 H1138 0.959 . S
C1150 C1148 1.561 . S
C1151 C1148 1.526 . S
C1151 C1152 1.396 . S
C1151 C1156 1.390 . S
C1152 C1146 1.465 . S
C1152 C1151 1.396 . S
C1152 C1153 1.399 . S
C1153 H1139 0.929 . S
C1153 C1152 1.399 . S
C1153 C1154 1.385 . S
C1154 H1140 0.931 . S
C1154 C1153 1.385 . S
C1154 C1155 1.389 . S
C1155 C1154 1.389 . S
C1155 C1156 1.387 . S
C1156 H1141 0.930 . S
C1156 C1151 1.390 . S
C1156 C1155 1.387 . S
H1157 C1169 0.930 . S
H1158 C1171 0.930 . S
H1159 C1172 0.930 . S
H1160 C1176 0.959 . S
H1161 C1176 0.959 . S
H1162 C1176 0.961 . S
H1163 C1177 0.960 . S
H1164 C1177 0.961 . S
H1165 C1177 0.959 . S
H1166 C1180 0.929 . S
H1167 C1181 0.931 . S
H1168 C1183 0.930 . S
C1169 H1157 0.930 . S
C1169 C1170 1.399 . S
C1169 C1174 1.399 . S
C1170 C1169 1.399 . S
C1170 C1171 1.376 . S
C1171 H1158 0.930 . S
C1171 C1170 1.376 . S
C1171 C1172 1.388 . S
C1172 H1159 0.930 . S
C1172 C1171 1.388 . S
C1172 C1173 1.390 . S
C1173 C1172 1.390 . S
C1173 C1174 1.394 . S
C1173 C1179 1.465 . S
C1174 C1169 1.399 . S
C1174 C1173 1.394 . S
C1174 C1175 1.516 . S
C1175 C1174 1.516 . S
C1175 C1176 1.502 . S
C1175 C1177 1.561 . S
C1175 C1178 1.526 . S
C1176 H1160 0.959 . S
C1176 H1161 0.959 . S
C1176 H1162 0.961 . S
C1176 C1175 1.502 . S
C1177 H1163 0.960 . S
C1177 H1164 0.961 . S
C1177 H1165 0.959 . S
C1177 C1175 1.561 . S
C1178 C1175 1.526 . S
C1178 C1179 1.396 . S
C1178 C1183 1.390 . S
C1179 C1173 1.465 . S
C1179 C1178 1.396 . S
C1179 C1180 1.399 . S
C1180 H1166 0.929 . S
C1180 C1179 1.399 . S
C1180 C1181 1.385 . S
C1181 H1167 0.931 . S
C1181 C1180 1.385 . S
C1181 C1182 1.389 . S
C1182 C1181 1.389 . S
C1182 C1183 1.387 . S
C1183 H1168 0.930 . S
C1183 C1178 1.390 . S
C1183 C1182 1.387 . S
H1184 C1196 0.930 . S
H1185 C1198 0.930 . S
H1186 C1199 0.930 . S
H1187 C1203 0.959 . S
H1188 C1203 0.959 . S
H1189 C1203 0.961 . S
H1190 C1204 0.960 . S
H1191 C1204 0.961 . S
H1192 C1204 0.959 . S
H1193 C1207 0.929 . S
H1194 C1208 0.931 . S
H1195 C1210 0.930 . S
C1196 H1184 0.930 . S
C1196 C1197 1.399 . S
C1196 C1201 1.399 . S
C1197 C1196 1.399 . S
C1197 C1198 1.376 . S
C1198 H1185 0.930 . S
C1198 C1197 1.376 . S
C1198 C1199 1.388 . S
C1199 H1186 0.930 . S
C1199 C1198 1.388 . S
C1199 C1200 1.390 . S
C1200 C1199 1.390 . S
C1200 C1201 1.394 . S
C1200 C1206 1.465 . S
C1201 C1196 1.399 . S
C1201 C1200 1.394 . S
C1201 C1202 1.516 . S
C1202 C1201 1.516 . S
C1202 C1203 1.502 . S
C1202 C1204 1.561 . S
C1202 C1205 1.526 . S
C1203 H1187 0.959 . S
C1203 H1188 0.959 . S
C1203 H1189 0.961 . S
C1203 C1202 1.502 . S
C1204 H1190 0.960 . S
C1204 H1191 0.961 . S
C1204 H1192 0.959 . S
C1204 C1202 1.561 . S
C1205 C1202 1.526 . S
C1205 C1206 1.396 . S
C1205 C1210 1.390 . S
C1206 C1200 1.465 . S
C1206 C1205 1.396 . S
C1206 C1207 1.399 . S
C1207 H1193 0.929 . S
C1207 C1206 1.399 . S
C1207 C1208 1.385 . S
C1208 H1194 0.931 . S
C1208 C1207 1.385 . S
C1208 C1209 1.389 . S
C1209 C1208 1.389 . S
C1209 C1210 1.387 . S
C1210 H1195 0.930 . S
C1210 C1205 1.390 . S
C1210 C1209 1.387 . S
H1211 C1223 0.930 . S
H1212 C1225 0.930 . S
H1213 C1226 0.930 . S
H1214 C1230 0.959 . S
H1215 C1230 0.959 . S
H1216 C1230 0.961 . S
H1217 C1231 0.960 . S
H1218 C1231 0.961 . S
H1219 C1231 0.959 . S
H1220 C1234 0.929 . S
H1221 C1235 0.931 . S
H1222 C1237 0.930 . S
C1223 H1211 0.930 . S
C1223 C1224 1.399 . S
C1223 C1228 1.399 . S
C1224 C1223 1.399 . S
C1224 C1225 1.376 . S
C1225 H1212 0.930 . S
C1225 C1224 1.376 . S
C1225 C1226 1.388 . S
C1226 H1213 0.930 . S
C1226 C1225 1.388 . S
C1226 C1227 1.390 . S
C1227 C1226 1.390 . S
C1227 C1228 1.394 . S
C1227 C1233 1.465 . S
C1228 C1223 1.399 . S
C1228 C1227 1.394 . S
C1228 C1229 1.516 . S
C1229 C1228 1.516 . S
C1229 C1230 1.502 . S
C1229 C1231 1.561 . S
C1229 C1232 1.526 . S
C1230 H1214 0.959 . S
C1230 H1215 0.959 . S
C1230 H1216 0.961 . S
C1230 C1229 1.502 . S
C1231 H1217 0.960 . S
C1231 H1218 0.961 . S
C1231 H1219 0.959 . S
C1231 C1229 1.561 . S
C1232 C1229 1.526 . S
C1232 C1233 1.396 . S
C1232 C1237 1.390 . S
C1233 C1227 1.465 . S
C1233 C1232 1.396 . S
C1233 C1234 1.399 . S
C1234 H1220 0.929 . S
C1234 C1233 1.399 . S
C1234 C1235 1.385 . S
C1235 H1221 0.931 . S
C1235 C1234 1.385 . S
C1235 C1236 1.389 . S
C1236 C1235 1.389 . S
C1236 C1237 1.387 . S
C1237 H1222 0.930 . S
C1237 C1232 1.390 . S
C1237 C1236 1.387 . S
H1238 C1250 0.930 . S
H1239 C1252 0.930 . S
H1240 C1253 0.930 . S
H1241 C1257 0.959 . S
H1242 C1257 0.959 . S
H1243 C1257 0.961 . S
H1244 C1258 0.960 . S
H1245 C1258 0.961 . S
H1246 C1258 0.959 . S
H1247 C1261 0.929 . S
H1248 C1262 0.931 . S
H1249 C1264 0.930 . S
C1250 H1238 0.930 . S
C1250 C1251 1.399 . S
C1250 C1255 1.399 . S
C1251 C1250 1.399 . S
C1251 C1252 1.376 . S
C1252 H1239 0.930 . S
C1252 C1251 1.376 . S
C1252 C1253 1.388 . S
C1253 H1240 0.930 . S
C1253 C1252 1.388 . S
C1253 C1254 1.390 . S
C1254 C1253 1.390 . S
C1254 C1255 1.394 . S
C1254 C1260 1.465 . S
C1255 C1250 1.399 . S
C1255 C1254 1.394 . S
C1255 C1256 1.516 . S
C1256 C1255 1.516 . S
C1256 C1257 1.502 . S
C1256 C1258 1.561 . S
C1256 C1259 1.526 . S
C1257 H1241 0.959 . S
C1257 H1242 0.959 . S
C1257 H1243 0.961 . S
C1257 C1256 1.502 . S
C1258 H1244 0.960 . S
C1258 H1245 0.961 . S
C1258 H1246 0.959 . S
C1258 C1256 1.561 . S
C1259 C1256 1.526 . S
C1259 C1260 1.396 . S
C1259 C1264 1.390 . S
C1260 C1254 1.465 . S
C1260 C1259 1.396 . S
C1260 C1261 1.399 . S
C1261 H1247 0.929 . S
C1261 C1260 1.399 . S
C1261 C1262 1.385 . S
C1262 H1248 0.931 . S
C1262 C1261 1.385 . S
C1262 C1263 1.389 . S
C1263 C1262 1.389 . S
C1263 C1264 1.387 . S
C1264 H1249 0.930 . S
C1264 C1259 1.390 . S
C1264 C1263 1.387 . S
H1265 C1277 0.930 . S
H1266 C1279 0.930 . S
H1267 C1280 0.930 . S
H1268 C1284 0.959 . S
H1269 C1284 0.959 . S
H1270 C1284 0.961 . S
H1271 C1285 0.960 . S
H1272 C1285 0.961 . S
H1273 C1285 0.959 . S
H1274 C1288 0.929 . S
H1275 C1289 0.931 . S
H1276 C1291 0.930 . S
C1277 H1265 0.930 . S
C1277 C1278 1.399 . S
C1277 C1282 1.399 . S
C1278 C1277 1.399 . S
C1278 C1279 1.376 . S
C1279 H1266 0.930 . S
C1279 C1278 1.376 . S
C1279 C1280 1.388 . S
C1280 H1267 0.930 . S
C1280 C1279 1.388 . S
C1280 C1281 1.390 . S
C1281 C1280 1.390 . S
C1281 C1282 1.394 . S
C1281 C1287 1.465 . S
C1282 C1277 1.399 . S
C1282 C1281 1.394 . S
C1282 C1283 1.516 . S
C1283 C1282 1.516 . S
C1283 C1284 1.502 . S
C1283 C1285 1.561 . S
C1283 C1286 1.526 . S
C1284 H1268 0.959 . S
C1284 H1269 0.959 . S
C1284 H1270 0.961 . S
C1284 C1283 1.502 . S
C1285 H1271 0.960 . S
C1285 H1272 0.961 . S
C1285 H1273 0.959 . S
C1285 C1283 1.561 . S
C1286 C1283 1.526 . S
C1286 C1287 1.396 . S
C1286 C1291 1.390 . S
C1287 C1281 1.465 . S
C1287 C1286 1.396 . S
C1287 C1288 1.399 . S
C1288 H1274 0.929 . S
C1288 C1287 1.399 . S
C1288 C1289 1.385 . S
C1289 H1275 0.931 . S
C1289 C1288 1.385 . S
C1289 C1290 1.389 . S
C1290 C1289 1.389 . S
C1290 C1291 1.387 . S
C1291 H1276 0.930 . S
C1291 C1286 1.390 . S
C1291 C1290 1.387 . S
H1292 C1304 0.930 . S
H1293 C1306 0.930 . S
H1294 C1307 0.930 . S
H1295 C1311 0.959 . S
H1296 C1311 0.959 . S
H1297 C1311 0.961 . S
H1298 C1312 0.960 . S
H1299 C1312 0.961 . S
H1300 C1312 0.959 . S
H1301 C1315 0.929 . S
H1302 C1316 0.931 . S
H1303 C1318 0.930 . S
C1304 H1292 0.930 . S
C1304 C1305 1.399 . S
C1304 C1309 1.399 . S
C1305 C1304 1.399 . S
C1305 C1306 1.376 . S
C1306 H1293 0.930 . S
C1306 C1305 1.376 . S
C1306 C1307 1.388 . S
C1307 H1294 0.930 . S
C1307 C1306 1.388 . S
C1307 C1308 1.390 . S
C1308 C1307 1.390 . S
C1308 C1309 1.394 . S
C1308 C1314 1.465 . S
C1309 C1304 1.399 . S
C1309 C1308 1.394 . S
C1309 C1310 1.516 . S
C1310 C1309 1.516 . S
C1310 C1311 1.502 . S
C1310 C1312 1.561 . S
C1310 C1313 1.526 . S
C1311 H1295 0.959 . S
C1311 H1296 0.959 . S
C1311 H1297 0.961 . S
C1311 C1310 1.502 . S
C1312 H1298 0.960 . S
C1312 H1299 0.961 . S
C1312 H1300 0.959 . S
C1312 C1310 1.561 . S
C1313 C1310 1.526 . S
C1313 C1314 1.396 . S
C1313 C1318 1.390 . S
C1314 C1308 1.465 . S
C1314 C1313 1.396 . S
C1314 C1315 1.399 . S
C1315 H1301 0.929 . S
C1315 C1314 1.399 . S
C1315 C1316 1.385 . S
C1316 H1302 0.931 . S
C1316 C1315 1.385 . S
C1316 C1317 1.389 . S
C1317 C1316 1.389 . S
C1317 C1318 1.387 . S
C1318 H1303 0.930 . S
C1318 C1313 1.390 . S
C1318 C1317 1.387 . S
H1319 C1331 0.930 . S
H1320 C1333 0.930 . S
H1321 C1334 0.930 . S
H1322 C1338 0.959 . S
H1323 C1338 0.959 . S
H1324 C1338 0.961 . S
H1325 C1339 0.960 . S
H1326 C1339 0.961 . S
H1327 C1339 0.959 . S
H1328 C1342 0.929 . S
H1329 C1343 0.931 . S
H1330 C1345 0.930 . S
C1331 H1319 0.930 . S
C1331 C1332 1.399 . S
C1331 C1336 1.399 . S
C1332 C1331 1.399 . S
C1332 C1333 1.376 . S
C1333 H1320 0.930 . S
C1333 C1332 1.376 . S
C1333 C1334 1.388 . S
C1334 H1321 0.930 . S
C1334 C1333 1.388 . S
C1334 C1335 1.390 . S
C1335 C1334 1.390 . S
C1335 C1336 1.394 . S
C1335 C1341 1.465 . S
C1336 C1331 1.399 . S
C1336 C1335 1.394 . S
C1336 C1337 1.516 . S
C1337 C1336 1.516 . S
C1337 C1338 1.502 . S
C1337 C1339 1.561 . S
C1337 C1340 1.526 . S
C1338 H1322 0.959 . S
C1338 H1323 0.959 . S
C1338 H1324 0.961 . S
C1338 C1337 1.502 . S
C1339 H1325 0.960 . S
C1339 H1326 0.961 . S
C1339 H1327 0.959 . S
C1339 C1337 1.561 . S
C1340 C1337 1.526 . S
C1340 C1341 1.396 . S
C1340 C1345 1.390 . S
C1341 C1335 1.465 . S
C1341 C1340 1.396 . S
C1341 C1342 1.399 . S
C1342 H1328 0.929 . S
C1342 C1341 1.399 . S
C1342 C1343 1.385 . S
C1343 H1329 0.931 . S
C1343 C1342 1.385 . S
C1343 C1344 1.389 . S
C1344 C1343 1.389 . S
C1344 C1345 1.387 . S
C1345 H1330 0.930 . S
C1345 C1340 1.390 . S
C1345 C1344 1.387 . S
H1346 C1358 0.930 . S
H1347 C1360 0.930 . S
H1348 C1361 0.930 . S
H1349 C1365 0.959 . S
H1350 C1365 0.959 . S
H1351 C1365 0.961 . S
H1352 C1366 0.960 . S
H1353 C1366 0.961 . S
H1354 C1366 0.959 . S
H1355 C1369 0.929 . S
H1356 C1370 0.931 . S
H1357 C1372 0.930 . S
C1358 H1346 0.930 . S
C1358 C1359 1.399 . S
C1358 C1363 1.399 . S
C1359 C1358 1.399 . S
C1359 C1360 1.376 . S
C1360 H1347 0.930 . S
C1360 C1359 1.376 . S
C1360 C1361 1.388 . S
C1361 H1348 0.930 . S
C1361 C1360 1.388 . S
C1361 C1362 1.390 . S
C1362 C1361 1.390 . S
C1362 C1363 1.394 . S
C1362 C1368 1.465 . S
C1363 C1358 1.399 . S
C1363 C1362 1.394 . S
C1363 C1364 1.516 . S
C1364 C1363 1.516 . S
C1364 C1365 1.502 . S
C1364 C1366 1.561 . S
C1364 C1367 1.526 . S
C1365 H1349 0.959 . S
C1365 H1350 0.959 . S
C1365 H1351 0.961 . S
C1365 C1364 1.502 . S
C1366 H1352 0.960 . S
C1366 H1353 0.961 . S
C1366 H1354 0.959 . S
C1366 C1364 1.561 . S
C1367 C1364 1.526 . S
C1367 C1368 1.396 . S
C1367 C1372 1.390 . S
C1368 C1362 1.465 . S
C1368 C1367 1.396 . S
C1368 C1369 1.399 . S
C1369 H1355 0.929 . S
C1369 C1368 1.399 . S
C1369 C1370 1.385 . S
C1370 H1356 0.931 . S
C1370 C1369 1.385 . S
C1370 C1371 1.389 . S
C1371 C1370 1.389 . S
C1371 C1372 1.387 . S
C1372 H1357 0.930 . S
C1372 C1367 1.390 . S
C1372 C1371 1.387 . S
H1373 C1385 0.930 . S
H1374 C1387 0.930 . S
H1375 C1388 0.930 . S
H1376 C1392 0.959 . S
H1377 C1392 0.959 . S
H1378 C1392 0.961 . S
H1379 C1393 0.960 . S
H1380 C1393 0.961 . S
H1381 C1393 0.959 . S
H1382 C1396 0.929 . S
H1383 C1397 0.931 . S
H1384 C1399 0.930 . S
C1385 H1373 0.930 . S
C1385 C1386 1.399 . S
C1385 C1390 1.399 . S
C1386 C1385 1.399 . S
C1386 C1387 1.376 . S
C1387 H1374 0.930 . S
C1387 C1386 1.376 . S
C1387 C1388 1.388 . S
C1388 H1375 0.930 . S
C1388 C1387 1.388 . S
C1388 C1389 1.390 . S
C1389 C1388 1.390 . S
C1389 C1390 1.394 . S
C1389 C1395 1.465 . S
C1390 C1385 1.399 . S
C1390 C1389 1.394 . S
C1390 C1391 1.516 . S
C1391 C1390 1.516 . S
C1391 C1392 1.502 . S
C1391 C1393 1.561 . S
C1391 C1394 1.526 . S
C1392 H1376 0.959 . S
C1392 H1377 0.959 . S
C1392 H1378 0.961 . S
C1392 C1391 1.502 . S
C1393 H1379 0.960 . S
C1393 H1380 0.961 . S
C1393 H1381 0.959 . S
C1393 C1391 1.561 . S
C1394 C1391 1.526 . S
C1394 C1395 1.396 . S
C1394 C1399 1.390 . S
C1395 C1389 1.465 . S
C1395 C1394 1.396 . S
C1395 C1396 1.399 . S
C1396 H1382 0.929 . S
C1396 C1395 1.399 . S
C1396 C1397 1.385 . S
C1397 H1383 0.931 . S
C1397 C1396 1.385 . S
C1397 C1398 1.389 . S
C1398 C1397 1.389 . S
C1398 C1399 1.387 . S
C1399 H1384 0.930 . S
C1399 C1394 1.390 . S
C1399 C1398 1.387 . S
H1400 C1412 0.930 . S
H1401 C1414 0.930 . S
H1402 C1415 0.930 . S
H1403 C1419 0.959 . S
H1404 C1419 0.959 . S
H1405 C1419 0.961 . S
H1406 C1420 0.960 . S
H1407 C1420 0.961 . S
H1408 C1420 0.959 . S
H1409 C1423 0.929 . S
H1410 C1424 0.931 . S
H1411 C1426 0.930 . S
C1412 H1400 0.930 . S
C1412 C1413 1.399 . S
C1412 C1417 1.399 1_556 S
C1413 C1412 1.399 . S
C1413 C1414 1.376 . S
C1414 H1401 0.930 . S
C1414 C1413 1.376 . S
C1414 C1415 1.388 1_556 S
C1415 H1402 0.930 . S
C1415 C1414 1.388 1_554 S
C1415 C1416 1.390 . S
C1416 C1415 1.390 . S
C1416 C1417 1.394 . S
C1416 C1422 1.465 . S
C1417 C1412 1.399 1_554 S
C1417 C1416 1.394 . S
C1417 C1418 1.516 . S
C1418 C1417 1.516 . S
C1418 C1419 1.502 . S
C1418 C1420 1.561 . S
C1418 C1421 1.526 . S
C1419 H1403 0.959 . S
C1419 H1404 0.959 . S
C1419 H1405 0.961 . S
C1419 C1418 1.502 . S
C1420 H1406 0.960 . S
C1420 H1407 0.961 . S
C1420 H1408 0.959 . S
C1420 C1418 1.561 . S
C1421 C1418 1.526 . S
C1421 C1422 1.396 . S
C1421 C1426 1.390 . S
C1422 C1416 1.465 . S
C1422 C1421 1.396 . S
C1422 C1423 1.399 . S
C1423 H1409 0.929 . S
C1423 C1422 1.399 . S
C1423 C1424 1.385 . S
C1424 H1410 0.931 . S
C1424 C1423 1.385 . S
C1424 C1425 1.389 . S
C1425 C1424 1.389 . S
C1425 C1426 1.387 . S
C1426 H1411 0.930 . S
C1426 C1421 1.390 . S
C1426 C1425 1.387 . S
H1427 C1439 0.930 . S
H1428 C1441 0.930 . S
H1429 C1442 0.930 . S
H1430 C1446 0.959 . S
H1431 C1446 0.959 . S
H1432 C1446 0.961 . S
H1433 C1447 0.960 . S
H1434 C1447 0.961 . S
H1435 C1447 0.959 . S
H1436 C1450 0.929 . S
H1437 C1451 0.931 . S
H1438 C1453 0.930 . S
C1439 H1427 0.930 . S
C1439 C1440 1.399 . S
C1439 C1444 1.399 . S
C1440 C1439 1.399 . S
C1440 C1441 1.376 . S
C1441 H1428 0.930 . S
C1441 C1440 1.376 . S
C1441 C1442 1.388 . S
C1442 H1429 0.930 . S
C1442 C1441 1.388 . S
C1442 C1443 1.390 . S
C1443 C1442 1.390 . S
C1443 C1444 1.394 . S
C1443 C1449 1.465 . S
C1444 C1439 1.399 . S
C1444 C1443 1.394 . S
C1444 C1445 1.516 . S
C1445 C1444 1.516 . S
C1445 C1446 1.502 . S
C1445 C1447 1.561 . S
C1445 C1448 1.526 . S
C1446 H1430 0.959 . S
C1446 H1431 0.959 . S
C1446 H1432 0.961 . S
C1446 C1445 1.502 . S
C1447 H1433 0.960 . S
C1447 H1434 0.961 . S
C1447 H1435 0.959 . S
C1447 C1445 1.561 . S
C1448 C1445 1.526 . S
C1448 C1449 1.396 . S
C1448 C1453 1.390 1_556 S
C1449 C1443 1.465 . S
C1449 C1448 1.396 . S
C1449 C1450 1.399 . S
C1450 H1436 0.929 . S
C1450 C1449 1.399 . S
C1450 C1451 1.385 1_556 S
C1451 H1437 0.931 . S
C1451 C1450 1.385 1_554 S
C1451 C1452 1.389 . S
C1452 C1451 1.389 . S
C1452 C1453 1.387 . S
C1453 H1438 0.930 . S
C1453 C1448 1.390 1_554 S
C1453 C1452 1.387 . S
H1454 C1466 0.930 . S
H1455 C1468 0.930 . S
H1456 C1469 0.930 . S
H1457 C1473 0.959 . S
H1458 C1473 0.959 . S
H1459 C1473 0.961 . S
H1460 C1474 0.960 . S
H1461 C1474 0.961 . S
H1462 C1474 0.959 . S
H1463 C1477 0.929 . S
H1464 C1478 0.931 . S
H1465 C1480 0.930 . S
C1466 H1454 0.930 . S
C1466 C1467 1.399 . S
C1466 C1471 1.399 . S
C1467 C1466 1.399 . S
C1467 C1468 1.376 . S
C1468 H1455 0.930 . S
C1468 C1467 1.376 . S
C1468 C1469 1.388 . S
C1469 H1456 0.930 . S
C1469 C1468 1.388 . S
C1469 C1470 1.390 . S
C1470 C1469 1.390 . S
C1470 C1471 1.394 . S
C1470 C1476 1.465 . S
C1471 C1466 1.399 . S
C1471 C1470 1.394 . S
C1471 C1472 1.516 . S
C1472 C1471 1.516 . S
C1472 C1473 1.502 . S
C1472 C1474 1.561 . S
C1472 C1475 1.526 . S
C1473 H1457 0.959 . S
C1473 H1458 0.959 . S
C1473 H1459 0.961 . S
C1473 C1472 1.502 . S
C1474 H1460 0.960 . S
C1474 H1461 0.961 . S
C1474 H1462 0.959 . S
C1474 C1472 1.561 . S
C1475 C1472 1.526 . S
C1475 C1476 1.396 . S
C1475 C1480 1.390 1_554 S
C1476 C1470 1.465 . S
C1476 C1475 1.396 . S
C1476 C1477 1.399 . S
C1477 H1463 0.929 . S
C1477 C1476 1.399 . S
C1477 C1478 1.385 1_554 S
C1478 H1464 0.931 . S
C1478 C1477 1.385 1_556 S
C1478 C1479 1.389 . S
C1479 C1478 1.389 . S
C1479 C1480 1.387 . S
C1480 H1465 0.930 . S
C1480 C1475 1.390 1_556 S
C1480 C1479 1.387 . S
H1481 C1493 0.930 . S
H1482 C1495 0.930 . S
H1483 C1496 0.930 . S
H1484 C1500 0.959 . S
H1485 C1500 0.959 . S
H1486 C1500 0.961 . S
H1487 C1501 0.960 . S
H1488 C1501 0.961 . S
H1489 C1501 0.959 . S
H1490 C1504 0.929 . S
H1491 C1505 0.931 . S
H1492 C1507 0.930 . S
C1493 H1481 0.930 . S
C1493 C1494 1.399 . S
C1493 C1498 1.399 1_554 S
C1494 C1493 1.399 . S
C1494 C1495 1.376 . S
C1495 H1482 0.930 . S
C1495 C1494 1.376 . S
C1495 C1496 1.388 1_554 S
C1496 H1483 0.930 . S
C1496 C1495 1.388 1_556 S
C1496 C1497 1.390 . S
C1497 C1496 1.390 . S
C1497 C1498 1.394 . S
C1497 C1503 1.465 . S
C1498 C1493 1.399 1_556 S
C1498 C1497 1.394 . S
C1498 C1499 1.516 . S
C1499 C1498 1.516 . S
C1499 C1500 1.502 . S
C1499 C1501 1.561 . S
C1499 C1502 1.526 . S
C1500 H1484 0.959 . S
C1500 H1485 0.959 . S
C1500 H1486 0.961 . S
C1500 C1499 1.502 . S
C1501 H1487 0.960 . S
C1501 H1488 0.961 . S
C1501 H1489 0.959 . S
C1501 C1499 1.561 . S
C1502 C1499 1.526 . S
C1502 C1503 1.396 . S
C1502 C1507 1.390 . S
C1503 C1497 1.465 . S
C1503 C1502 1.396 . S
C1503 C1504 1.399 . S
C1504 H1490 0.929 . S
C1504 C1503 1.399 . S
C1504 C1505 1.385 . S
C1505 H1491 0.931 . S
C1505 C1504 1.385 . S
C1505 C1506 1.389 . S
C1506 C1505 1.389 . S
C1506 C1507 1.387 . S
C1507 H1492 0.930 . S
C1507 C1502 1.390 . S
C1507 C1506 1.387 . S
H1508 C1520 0.930 . S
H1509 C1522 0.930 . S
H1510 C1523 0.930 . S
H1511 C1527 0.959 . S
H1512 C1527 0.959 . S
H1513 C1527 0.961 . S
H1514 C1528 0.960 . S
H1515 C1528 0.961 . S
H1516 C1528 0.959 . S
H1517 C1531 0.929 . S
H1518 C1532 0.931 . S
H1519 C1534 0.930 . S
C1520 H1508 0.930 . S
C1520 C1521 1.399 . S
C1520 C1525 1.399 . S
C1521 C1520 1.399 . S
C1521 C1522 1.376 . S
C1522 H1509 0.930 . S
C1522 C1521 1.376 . S
C1522 C1523 1.388 . S
C1523 H1510 0.930 . S
C1523 C1522 1.388 . S
C1523 C1524 1.390 . S
C1524 C1523 1.390 . S
C1524 C1525 1.394 . S
C1524 C1530 1.465 . S
C1525 C1520 1.399 . S
C1525 C1524 1.394 . S
C1525 C1526 1.516 . S
C1526 C1525 1.516 . S
C1526 C1527 1.502 . S
C1526 C1528 1.561 . S
C1526 C1529 1.526 . S
C1527 H1511 0.959 . S
C1527 H1512 0.959 . S
C1527 H1513 0.961 . S
C1527 C1526 1.502 . S
C1528 H1514 0.960 . S
C1528 H1515 0.961 . S
C1528 H1516 0.959 . S
C1528 C1526 1.561 . S
C1529 C1526 1.526 . S
C1529 C1530 1.396 . S
C1529 C1534 1.390 1_554 S
C1530 C1524 1.465 . S
C1530 C1529 1.396 . S
C1530 C1531 1.399 . S
C1531 H1517 0.929 . S
C1531 C1530 1.399 . S
C1531 C1532 1.385 1_554 S
C1532 H1518 0.931 . S
C1532 C1531 1.385 1_556 S
C1532 C1533 1.389 . S
C1533 C1532 1.389 . S
C1533 C1534 1.387 . S
C1534 H1519 0.930 . S
C1534 C1529 1.390 1_556 S
C1534 C1533 1.387 . S
H1535 C1547 0.930 . S
H1536 C1549 0.930 . S
H1537 C1550 0.930 . S
H1538 C1554 0.959 . S
H1539 C1554 0.959 . S
H1540 C1554 0.961 . S
H1541 C1555 0.960 . S
H1542 C1555 0.961 . S
H1543 C1555 0.959 . S
H1544 C1558 0.929 . S
H1545 C1559 0.931 . S
H1546 C1561 0.930 . S
C1547 H1535 0.930 . S
C1547 C1548 1.399 . S
C1547 C1552 1.399 1_554 S
C1548 C1547 1.399 . S
C1548 C1549 1.376 . S
C1549 H1536 0.930 . S
C1549 C1548 1.376 . S
C1549 C1550 1.388 1_554 S
C1550 H1537 0.930 . S
C1550 C1549 1.388 1_556 S
C1550 C1551 1.390 . S
C1551 C1550 1.390 . S
C1551 C1552 1.394 . S
C1551 C1557 1.465 . S
C1552 C1547 1.399 1_556 S
C1552 C1551 1.394 . S
C1552 C1553 1.516 . S
C1553 C1552 1.516 . S
C1553 C1554 1.502 . S
C1553 C1555 1.561 . S
C1553 C1556 1.526 . S
C1554 H1538 0.959 . S
C1554 H1539 0.959 . S
C1554 H1540 0.961 . S
C1554 C1553 1.502 . S
C1555 H1541 0.960 . S
C1555 H1542 0.961 . S
C1555 H1543 0.959 . S
C1555 C1553 1.561 . S
C1556 C1553 1.526 . S
C1556 C1557 1.396 . S
C1556 C1561 1.390 . S
C1557 C1551 1.465 . S
C1557 C1556 1.396 . S
C1557 C1558 1.399 . S
C1558 H1544 0.929 . S
C1558 C1557 1.399 . S
C1558 C1559 1.385 . S
C1559 H1545 0.931 . S
C1559 C1558 1.385 . S
C1559 C1560 1.389 . S
C1560 C1559 1.389 . S
C1560 C1561 1.387 . S
C1561 H1546 0.930 . S
C1561 C1556 1.390 . S
C1561 C1560 1.387 . S
H1562 C1574 0.930 . S
H1563 C1576 0.930 . S
H1564 C1577 0.930 . S
H1565 C1581 0.959 . S
H1566 C1581 0.959 . S
H1567 C1581 0.961 . S
H1568 C1582 0.960 . S
H1569 C1582 0.961 . S
H1570 C1582 0.959 . S
H1571 C1585 0.929 . S
H1572 C1586 0.931 . S
H1573 C1588 0.930 . S
C1574 H1562 0.930 . S
C1574 C1575 1.399 . S
C1574 C1579 1.399 1_556 S
C1575 C1574 1.399 . S
C1575 C1576 1.376 . S
C1576 H1563 0.930 . S
C1576 C1575 1.376 . S
C1576 C1577 1.388 1_556 S
C1577 H1564 0.930 . S
C1577 C1576 1.388 1_554 S
C1577 C1578 1.390 . S
C1578 C1577 1.390 . S
C1578 C1579 1.394 . S
C1578 C1584 1.465 . S
C1579 C1574 1.399 1_554 S
C1579 C1578 1.394 . S
C1579 C1580 1.516 . S
C1580 C1579 1.516 . S
C1580 C1581 1.502 . S
C1580 C1582 1.561 . S
C1580 C1583 1.526 . S
C1581 H1565 0.959 . S
C1581 H1566 0.959 . S
C1581 H1567 0.961 . S
C1581 C1580 1.502 . S
C1582 H1568 0.960 . S
C1582 H1569 0.961 . S
C1582 H1570 0.959 . S
C1582 C1580 1.561 . S
C1583 C1580 1.526 . S
C1583 C1584 1.396 . S
C1583 C1588 1.390 . S
C1584 C1578 1.465 . S
C1584 C1583 1.396 . S
C1584 C1585 1.399 . S
C1585 H1571 0.929 . S
C1585 C1584 1.399 . S
C1585 C1586 1.385 . S
C1586 H1572 0.931 . S
C1586 C1585 1.385 . S
C1586 C1587 1.389 . S
C1587 C1586 1.389 . S
C1587 C1588 1.387 . S
C1588 H1573 0.930 . S
C1588 C1583 1.390 . S
C1588 C1587 1.387 . S
H1589 C1601 0.930 . S
H1590 C1603 0.930 . S
H1591 C1604 0.930 . S
H1592 C1608 0.959 . S
H1593 C1608 0.959 . S
H1594 C1608 0.961 . S
H1595 C1609 0.960 . S
H1596 C1609 0.961 . S
H1597 C1609 0.959 . S
H1598 C1612 0.929 . S
H1599 C1613 0.931 . S
H1600 C1615 0.930 . S
C1601 H1589 0.930 . S
C1601 C1602 1.399 . S
C1601 C1606 1.399 . S
C1602 C1601 1.399 . S
C1602 C1603 1.376 . S
C1603 H1590 0.930 . S
C1603 C1602 1.376 . S
C1603 C1604 1.388 . S
C1604 H1591 0.930 . S
C1604 C1603 1.388 . S
C1604 C1605 1.390 . S
C1605 C1604 1.390 . S
C1605 C1606 1.394 . S
C1605 C1611 1.465 . S
C1606 C1601 1.399 . S
C1606 C1605 1.394 . S
C1606 C1607 1.516 . S
C1607 C1606 1.516 . S
C1607 C1608 1.502 . S
C1607 C1609 1.561 . S
C1607 C1610 1.526 . S
C1608 H1592 0.959 . S
C1608 H1593 0.959 . S
C1608 H1594 0.961 . S
C1608 C1607 1.502 . S
C1609 H1595 0.960 . S
C1609 H1596 0.961 . S
C1609 H1597 0.959 . S
C1609 C1607 1.561 . S
C1610 C1607 1.526 . S
C1610 C1611 1.396 . S
C1610 C1615 1.390 1_556 S
C1611 C1605 1.465 . S
C1611 C1610 1.396 . S
C1611 C1612 1.399 . S
C1612 H1598 0.929 . S
C1612 C1611 1.399 . S
C1612 C1613 1.385 1_556 S
C1613 H1599 0.931 . S
C1613 C1612 1.385 1_554 S
C1613 C1614 1.389 . S
C1614 C1613 1.389 . S
C1614 C1615 1.387 . S
C1615 H1600 0.930 . S
C1615 C1610 1.390 1_554 S
C1615 C1614 1.387 . S
C333 C239 1.612 . S
C345 C9 1.565 . S
C360 C178 1.607 . S
C372 C28 1.573 . S
C387 C49 1.581 . S
C399 C199 1.584 . S
C414 C68 1.598 . S
C426 C218 1.578 . S
C441 C89 1.588 . S
C453 C119 1.578 . S
C468 C138 1.604 . S
C480 C108 1.573 . S
C495 C129 1.602 . S
C507 C159 1.588 . S
C522 C98 1.566 . S
C534 C148 1.613 . S
C549 C79 1.563 . S
C561 C169 1.609 . S
C576 C188 1.576 . S
C588 C18 1.604 . S
C603 C39 1.563 . S
C615 C209 1.613 . S
C630 C58 1.563 . S
C642 C228 1.614 . S
C657 C249 1.582 . S
C669 C279 1.607 . S
C684 C298 1.576 . S
C696 C268 1.600 . S
C711 C319 1.607 . S
C723 C289 1.566 . S
C738 C308 1.608 . S
C750 C258 1.568 . S
C765 C8 1.247 . S
C777 C88 1.337 . S
C792 C109 1.254 . S
C804 C29 1.296 . S
C819 C48 1.337 . S
C831 C128 1.275 . S
C846 C69 1.343 . S
C858 C149 1.293 . S
C873 C168 1.341 . S
C885 C248 1.268 . S
C900 C269 1.255 . S
C912 C189 1.293 . S
C927 C208 1.259 . S
C939 C288 1.317 . S
C954 C229 1.246 . S
C966 C309 1.319 . S
C981 C299 1.834 . S
C993 C19 1.825 1_556 S
C1008 C38 1.810 1_554 S
C1020 C318 1.831 . S
C1035 C59 1.828 . S
C1047 C259 1.813 . S
C1062 C78 1.833 . S
C1074 C278 1.814 . S
C1089 C99 1.834 . S
C1101 C219 1.824 . S
C1116 C118 1.813 . S
C1128 C238 1.811 . S
C1143 C139 1.834 . S
C1155 C179 1.826 . S
C1170 C198 1.807 . S
C1182 C158 1.826 . S
C1197 C2 1.281 . S
C1209 C1 1.322 . S
C1224 C21 1.327 . S
C1236 C22 1.279 . S
C1251 C42 1.327 . S
C1263 C41 1.291 . S
C1278 C62 1.325 . S
C1290 C61 1.279 . S
C1305 C81 1.326 . S
C1317 C82 1.293 . S
C1332 C101 1.321 . S
C1344 C102 1.283 . S
C1359 C122 1.328 . S
C1371 C121 1.289 . S
C1386 C142 1.285 . S
C1398 C141 1.330 . S
C1413 C162 1.330 . S
C1425 C161 1.276 . S
C1440 C182 1.312 . S
C1452 C181 1.290 . S
C1467 C201 1.326 . S
C1479 C202 1.292 . S
C1494 C221 1.328 . S
C1506 C222 1.278 . S
C1521 C242 1.327 . S
C1533 C241 1.291 . S
C1548 C262 1.285 . S
C1560 C261 1.331 . S
C1575 C281 1.280 . S
C1587 C282 1.323 . S
C1602 C301 1.296 . S
C1614 C302 1.322 . S
