# Generated by pormake.
# Topology npo, (4)-cn, num edge types: 1
# Building blocks:
#     Node 0, Type 0, BuildingBlock: KUFVIS_clean_sbu_0, # of connection points: 4
#     Node 1, Type 0, BuildingBlock: KUFVIS_clean_sbu_0, # of connection points: 4
#     Node 2, Type 0, BuildingBlock: KUFVIS_clean_sbu_0, # of connection points: 4
#     Node 3, Type 0, BuildingBlock: KUFVIS_clean_sbu_0, # of connection points: 4
#     Node 4, Type 0, BuildingBlock: KUFVIS_clean_sbu_0, # of connection points: 4
#     Node 5, Type 0, BuildingBlock: KUFVIS_clean_sbu_0, # of connection points: 4
#     Edge 6, Type (0, 0), BuildingBlock: UVAHIK_clean_linker_0, # of connection points: 2
#     Edge 7, Type (0, 0), BuildingBlock: UVAHIK_clean_linker_0, # of connection points: 2
#     Edge 8, Type (0, 0), BuildingBlock: UVAHIK_clean_linker_0, # of connection points: 2
#     Edge 9, Type (0, 0), BuildingBlock: UVAHIK_clean_linker_0, # of connection points: 2
#     Edge 10, Type (0, 0), BuildingBlock: UVAHIK_clean_linker_0, # of connection points: 2
#     Edge 11, Type (0, 0), BuildingBlock: UVAHIK_clean_linker_0, # of connection points: 2
#     Edge 12, Type (0, 0), BuildingBlock: UVAHIK_clean_linker_0, # of connection points: 2
#     Edge 13, Type (0, 0), BuildingBlock: UVAHIK_clean_linker_0, # of connection points: 2
#     Edge 14, Type (0, 0), BuildingBlock: UVAHIK_clean_linker_0, # of connection points: 2
#     Edge 15, Type (0, 0), BuildingBlock: UVAHIK_clean_linker_0, # of connection points: 2
#     Edge 16, Type (0, 0), BuildingBlock: UVAHIK_clean_linker_0, # of connection points: 2
#     Edge 17, Type (0, 0), BuildingBlock: UVAHIK_clean_linker_0, # of connection points: 2
# Relax obj value: 0.273
# Max RMSD: 0.235
# Mean RMSD: 0.232
data_MOF--net-npo--node1-KUFVIS_clean_sbu_0--edge1-UVAHIK_clean_linker_0
_symmetry_space_group_name_H-M    P1
_symmetry_Int_Tables_number       1
_symmetry_cell_setting            triclinic
loop_
_symmetry_equiv_pos_as_xyz
'x, y, z'
_cell_length_a     54.632199
_cell_length_b     57.807237
_cell_length_c     31.057031
_cell_angle_alpha  90.029836
_cell_angle_beta   91.043224
_cell_angle_gamma 121.91396
loop_
_atom_site_label
_atom_site_type_symbol
_atom_site_fract_x
_atom_site_fract_y
_atom_site_fract_z
_atom_type_partial_charge
Mn0 Mn 0.54849 0.11398 0.27304 0.0
Mn1 Mn 0.59933 0.09969 0.24925 0.0
C2 C 0.59683 0.14699 0.28013 0.0
C3 C 0.51855 0.13016 0.25474 0.0
C4 C 0.56593 0.0821 0.3317 0.0
O5 O 0.52579 0.07941 0.23623 0.0
O6 O 0.56175 0.07231 0.22208 0.0
C7 C 0.60219 0.10974 0.15545 0.0
N8 N 0.61553 0.11523 0.1949 0.0
C9 C 0.66132 0.14805 0.16493 0.0
C10 C 0.6481 0.14261 0.12396 0.0
C11 C 0.6184 0.1234 0.11922 0.0
C12 C 0.64411 0.13365 0.19981 0.0
H13 H 0.57934 0.09508 0.15166 0.0
C14 C 0.53548 0.06594 0.21845 0.0
O15 O 0.51321 0.11431 0.28747 0.0
O16 O 0.54013 0.13509 0.23119 0.0
N17 N 0.63685 0.12502 0.27313 0.0
C18 C 0.64596 0.12902 0.31513 0.0
C19 C 0.67499 0.14823 0.32556 0.0
C20 C 0.69436 0.163 0.29273 0.0
C21 C 0.68455 0.15831 0.24971 0.0
C22 C 0.65543 0.13875 0.24123 0.0
H23 H 0.63115 0.1178 0.34052 0.0
O24 O 0.57797 0.14896 0.30193 0.0
O25 O 0.58691 0.12568 0.25531 0.0
O26 O 0.55059 0.0923 0.32358 0.0
O27 O 0.58458 0.08346 0.30598 0.0
C28 C 0.70238 0.17271 0.21501 0.0
C29 C 0.69077 0.16759 0.17266 0.0
H30 H 0.66049 0.15325 0.09597 0.0
H31 H 0.60801 0.1192 0.08773 0.0
H32 H 0.68239 0.15176 0.35885 0.0
H33 H 0.71666 0.17803 0.30095 0.0
H34 H 0.72495 0.18806 0.22061 0.0
H35 H 0.7046 0.17907 0.14632 0.0
Mn36 Mn 0.43824 0.55957 0.72181 0.0
Mn37 Mn 0.38578 0.49479 0.74415 0.0
C38 C 0.39043 0.54449 0.7077 0.0
C39 C 0.4677 0.60564 0.74083 0.0
C40 C 0.42274 0.50971 0.66549 0.0
O41 O 0.45894 0.54775 0.76317 0.0
O42 O 0.42215 0.50483 0.77522 0.0
C43 C 0.37953 0.50319 0.83639 0.0
N44 N 0.36763 0.49481 0.79616 0.0
C45 C 0.32059 0.48141 0.82143 0.0
C46 C 0.3323 0.48975 0.86318 0.0
C47 C 0.36192 0.50076 0.87065 0.0
C48 C 0.33919 0.4843 0.78858 0.0
H49 H 0.40228 0.51169 0.84229 0.0
C50 C 0.4483 0.52455 0.78102 0.0
O51 O 0.47451 0.59503 0.70995 0.0
O52 O 0.44472 0.58917 0.76198 0.0
N53 N 0.34919 0.48235 0.71661 0.0
C54 C 0.34155 0.47647 0.67416 0.0
C55 C 0.31278 0.46595 0.66106 0.0
C56 C 0.29212 0.46128 0.69175 0.0
C57 C 0.30041 0.46711 0.73533 0.0
C58 C 0.32938 0.4775 0.74649 0.0
H59 H 0.35733 0.47994 0.65044 0.0
O60 O 0.41066 0.56525 0.68745 0.0
O61 O 0.39869 0.53316 0.7357 0.0
O62 O 0.4383 0.53527 0.67356 0.0
O63 O 0.40264 0.49282 0.68984 0.0
C64 C 0.28116 0.46339 0.76804 0.0
C65 C 0.29126 0.47067 0.81102 0.0
H66 H 0.31881 0.48797 0.88968 0.0
H67 H 0.37114 0.50735 0.90275 0.0
H68 H 0.30655 0.46149 0.62737 0.0
H69 H 0.26999 0.45335 0.68149 0.0
H70 H 0.2586 0.45528 0.76039 0.0
H71 H 0.27633 0.46811 0.83576 0.0
Mn72 Mn 0.87716 0.45207 0.24806 0.0
Mn73 Mn 0.90633 0.41584 0.28016 0.0
C74 C 0.8524 0.40564 0.23706 0.0
C75 C 0.84958 0.47086 0.26075 0.0
C76 C 0.92442 0.45022 0.20017 0.0
O77 O 0.90844 0.47796 0.2901 0.0
O78 O 0.92577 0.45176 0.31063 0.0
C79 C 0.88776 0.40715 0.3708 0.0
N80 N 0.88813 0.39677 0.3316 0.0
C81 C 0.85935 0.35081 0.35717 0.0
C82 C 0.85883 0.36102 0.39787 0.0
C83 C 0.87308 0.38931 0.40469 0.0
C84 C 0.87458 0.36957 0.32473 0.0
H85 H 0.89851 0.42887 0.37616 0.0
C86 C 0.92539 0.47375 0.31268 0.0
O87 O 0.86857 0.48016 0.23064 0.0
O88 O 0.84736 0.45133 0.28428 0.0
N89 N 0.88884 0.3805 0.25369 0.0
C90 C 0.88969 0.37392 0.21184 0.0
C91 C 0.87562 0.34638 0.19929 0.0
C92 C 0.86086 0.32591 0.22987 0.0
C93 C 0.86038 0.33317 0.27278 0.0
C94 C 0.87505 0.36096 0.28351 0.0
H95 H 0.90069 0.38955 0.18809 0.0
O96 O 0.84653 0.42069 0.21348 0.0
O97 O 0.87265 0.41823 0.26625 0.0
O98 O 0.90724 0.45864 0.20413 0.0
O99 O 0.9259 0.43407 0.22659 0.0
C100 C 0.84533 0.31393 0.3051 0.0
C101 C 0.84481 0.32274 0.34726 0.0
H102 H 0.84732 0.34733 0.424 0.0
H103 H 0.87265 0.39735 0.43595 0.0
H104 H 0.87597 0.34094 0.16606 0.0
H105 H 0.84974 0.30469 0.21996 0.0
H106 H 0.83371 0.29231 0.29773 0.0
H107 H 0.8328 0.30775 0.37166 0.0
Mn108 Mn 0.47386 0.8828 0.76803 0.0
Mn109 Mn 0.43126 0.90664 0.7389 0.0
C110 C 0.4243 0.8552 0.77097 0.0
C111 C 0.49772 0.86019 0.75254 0.0
C112 C 0.46252 0.91951 0.82511 0.0
O113 O 0.50131 0.91642 0.73327 0.0
O114 O 0.47071 0.93039 0.71706 0.0
C115 C 0.42988 0.89699 0.64497 0.0
N116 N 0.41566 0.89306 0.68244 0.0
C117 C 0.36958 0.86577 0.64615 0.0
C118 C 0.38373 0.86966 0.60714 0.0
C119 C 0.41401 0.88529 0.60658 0.0
C120 C 0.38654 0.87795 0.68336 0.0
H121 H 0.45315 0.90893 0.64439 0.0
C122 C 0.49546 0.93298 0.71577 0.0
O123 O 0.50511 0.87636 0.7858 0.0
O124 O 0.47779 0.85857 0.72708 0.0
N125 N 0.39223 0.88552 0.75748 0.0
C126 C 0.38191 0.88325 0.7979 0.0
C127 C 0.352 0.86812 0.80407 0.0
C128 C 0.33302 0.85572 0.76862 0.0
C129 C 0.34412 0.85867 0.72727 0.0
C130 C 0.37411 0.87422 0.72304 0.0
H131 H 0.39639 0.89281 0.82525 0.0
O132 O 0.44058 0.84989 0.79441 0.0
O133 O 0.43738 0.87644 0.74663 0.0
O134 O 0.47532 0.90671 0.81827 0.0
O135 O 0.44565 0.92076 0.79754 0.0
C136 C 0.32661 0.84653 0.69016 0.0
C137 C 0.33934 0.84999 0.64965 0.0
H138 H 0.37157 0.86061 0.57747 0.0
H139 H 0.42509 0.8883 0.57663 0.0
H140 H 0.3436 0.86597 0.83608 0.0
H141 H 0.30997 0.84393 0.77355 0.0
H142 H 0.30336 0.83422 0.69249 0.0
H143 H 0.32567 0.8403 0.62142 0.0
Mn144 Mn 0.5235 0.40763 0.23101 0.0
Mn145 Mn 0.56718 0.47456 0.25625 0.0
C146 C 0.57283 0.4293 0.22431 0.0
C147 C 0.49987 0.36147 0.24827 0.0
C148 C 0.53233 0.4544 0.17306 0.0
O149 O 0.49756 0.41481 0.26782 0.0
O150 O 0.52885 0.45952 0.28215 0.0
C151 C 0.57284 0.46862 0.35 0.0
N152 N 0.5853 0.47781 0.31107 0.0
C153 C 0.63282 0.49678 0.34251 0.0
C154 C 0.6205 0.48766 0.38297 0.0
C155 C 0.59038 0.47347 0.3867 0.0
C156 C 0.61425 0.49142 0.3071 0.0
H157 H 0.5497 0.45762 0.35301 0.0
C158 C 0.50416 0.43746 0.28541 0.0
O159 O 0.49149 0.36985 0.21568 0.0
O160 O 0.52078 0.38006 0.27221 0.0
N161 N 0.60518 0.49162 0.23364 0.0
C162 C 0.61359 0.49832 0.19212 0.0
C163 C 0.64307 0.51231 0.18278 0.0
C164 C 0.66359 0.51943 0.21621 0.0
C165 C 0.65445 0.51265 0.25874 0.0
C166 C 0.6248 0.49895 0.26615 0.0
H167 H 0.59792 0.49291 0.16629 0.0
O168 O 0.55576 0.40732 0.20214 0.0
O169 O 0.5606 0.43802 0.24937 0.0
O170 O 0.52025 0.42904 0.18102 0.0
O171 O 0.55016 0.47316 0.19904 0.0
C172 C 0.67356 0.51859 0.29398 0.0
C173 C 0.66275 0.5106 0.33582 0.0
H174 H 0.63395 0.49125 0.41134 0.0
H175 H 0.58071 0.46626 0.41779 0.0
H176 H 0.64996 0.51749 0.14987 0.0
H177 H 0.68629 0.53 0.20882 0.0
H178 H 0.69659 0.52899 0.28919 0.0
H179 H 0.67763 0.515 0.36259 0.0
Mn180 Mn 0.11711 0.57985 0.74813 0.0
Mn181 Mn 0.08297 0.51411 0.71533 0.0
C182 C 0.14137 0.55731 0.74697 0.0
C183 C 0.14423 0.62622 0.7354 0.0
C184 C 0.07584 0.53121 0.8034 0.0
O185 O 0.08228 0.57528 0.71623 0.0
O186 O 0.06053 0.53083 0.69754 0.0
C187 C 0.08915 0.52392 0.62145 0.0
N188 N 0.0936 0.51302 0.6574 0.0
C189 C 0.11719 0.4952 0.61657 0.0
C190 C 0.11268 0.50608 0.57909 0.0
C191 C 0.09863 0.52053 0.58157 0.0
C192 C 0.10707 0.49904 0.65536 0.0
H193 H 0.07849 0.53517 0.62319 0.0
C194 C 0.0617 0.55358 0.6987 0.0
O195 O 0.12846 0.61666 0.7693 0.0
O196 O 0.14327 0.60873 0.7081 0.0
N197 N 0.1025 0.49566 0.72981 0.0
C198 C 0.10642 0.4876 0.76922 0.0
C199 C 0.12085 0.47351 0.77251 0.0
C200 C 0.13094 0.46771 0.73526 0.0
C201 C 0.12635 0.47591 0.69501 0.0
C202 C 0.11161 0.48969 0.69368 0.0
H203 H 0.0989 0.49219 0.79798 0.0
O204 O 0.15025 0.57837 0.77201 0.0
O205 O 0.11844 0.54994 0.72334 0.0
O206 O 0.09187 0.55675 0.7973 0.0
O207 O 0.07137 0.5132 0.77531 0.0
C208 C 0.13635 0.47146 0.65626 0.0
C209 C 0.1318 0.48111 0.61708 0.0
H210 H 0.12013 0.50367 0.5483 0.0
H211 H 0.09519 0.52911 0.55281 0.0
H212 H 0.12436 0.46729 0.8037 0.0
H213 H 0.14237 0.45712 0.73799 0.0
H214 H 0.14791 0.46095 0.65631 0.0
H215 H 0.13989 0.47785 0.58758 0.0
C216 C 0.48318 0.14278 0.27761 0.0
C217 C 0.50378 0.14531 0.24836 0.0
C218 C 0.47339 0.16081 0.27634 0.0
C219 C 0.47493 0.21608 0.21103 0.0
H220 H 0.47468 0.24562 0.32298 0.0
C221 C 0.469 0.31238 0.22507 0.0
C222 C 0.48914 0.3322 0.2543 0.0
C223 C 0.46287 0.2856 0.22623 0.0
C224 C 0.47465 0.23763 0.29142 0.0
H225 H 0.52884 0.16766 0.19314 0.0
H226 H 0.51225 0.19917 0.19129 0.0
H227 H 0.47858 0.2057 0.3184 0.0
H228 H 0.51732 0.339 0.30927 0.0
H229 H 0.50708 0.29273 0.3109 0.0
H230 H 0.47298 0.24908 0.18405 0.0
C231 C 0.50328 0.18316 0.21498 0.0
C232 C 0.47648 0.21443 0.28877 0.0
C233 C 0.51296 0.16511 0.21616 0.0
C234 C 0.50167 0.32426 0.28628 0.0
C235 C 0.49565 0.29757 0.28734 0.0
C236 C 0.4733 0.23939 0.21368 0.0
C237 C 0.48403 0.18181 0.24586 0.0
C238 C 0.47748 0.20378 0.24852 0.0
C239 C 0.4768 0.27805 0.25657 0.0
C240 C 0.47397 0.25094 0.25393 0.0
H241 H 0.47558 0.12766 0.30272 0.0
H242 H 0.45814 0.1588 0.3001 0.0
H243 H 0.47511 0.2082 0.17948 0.0
H244 H 0.45887 0.31781 0.20013 0.0
H245 H 0.44782 0.27101 0.20255 0.0
C246 C 0.34807 0.53876 0.74525 0.0
C247 C 0.36111 0.53924 0.70657 0.0
C248 C 0.32071 0.53502 0.74482 0.0
C249 C 0.27312 0.54693 0.6787 0.0
H250 H 0.21602 0.50089 0.76213 0.0
C251 C 0.16864 0.54682 0.69593 0.0
C252 C 0.16085 0.54775 0.73835 0.0
C253 C 0.18938 0.54039 0.68763 0.0
C254 C 0.23178 0.51388 0.73872 0.0
H255 H 0.35709 0.53795 0.63707 0.0
H256 H 0.30885 0.53144 0.63607 0.0
H257 H 0.25993 0.49996 0.75577 0.0
H258 H 0.16915 0.54404 0.80552 0.0
H259 H 0.20599 0.53339 0.79141 0.0
H260 H 0.24592 0.56207 0.66324 0.0
C261 C 0.31956 0.53336 0.66675 0.0
C262 C 0.25682 0.51324 0.73495 0.0
C263 C 0.34699 0.53703 0.66726 0.0
C264 C 0.17442 0.54272 0.7725 0.0
C265 C 0.19529 0.53642 0.7643 0.0
C266 C 0.24822 0.54779 0.68275 0.0
C267 C 0.30617 0.53228 0.70558 0.0
C268 C 0.278 0.5302 0.70557 0.0
C269 C 0.20324 0.53548 0.72177 0.0
C270 C 0.2276 0.53176 0.71354 0.0
H271 H 0.35919 0.54155 0.77586 0.0
H272 H 0.31125 0.53498 0.77519 0.0
H273 H 0.28924 0.56045 0.65613 0.0
H274 H 0.1591 0.55162 0.66923 0.0
H275 H 0.19486 0.53968 0.65452 0.0
C276 C 0.63485 0.18035 0.23257 0.0
C277 C 0.62557 0.17115 0.27434 0.0
C278 C 0.66186 0.20357 0.22612 0.0
C279 C 0.7322 0.25051 0.28076 0.0
H280 H 0.73774 0.30063 0.19284 0.0
C281 C 0.81945 0.36452 0.27843 0.0
C282 C 0.83141 0.3763 0.23882 0.0
C283 C 0.79738 0.33723 0.28036 0.0
C284 C 0.73668 0.2866 0.21694 0.0
H285 H 0.63577 0.17963 0.34229 0.0
H286 H 0.68314 0.22088 0.33132 0.0
H287 H 0.69248 0.25758 0.20165 0.0
H288 H 0.82927 0.36964 0.16997 0.0
H289 H 0.79008 0.32156 0.17308 0.0
H290 H 0.77624 0.28045 0.29722 0.0
C291 C 0.67009 0.20952 0.30342 0.0
C292 C 0.71074 0.26192 0.22205 0.0
C293 C 0.64299 0.18614 0.3098 0.0
C294 C 0.82065 0.36064 0.20091 0.0
C295 C 0.79835 0.33331 0.20274 0.0
C296 C 0.75812 0.27539 0.2759 0.0
C297 C 0.67984 0.21843 0.26145 0.0
C298 C 0.70806 0.24377 0.25442 0.0
C299 C 0.78635 0.32148 0.24248 0.0
C300 C 0.76041 0.29379 0.24433 0.0
H301 H 0.62121 0.16947 0.20482 0.0
H302 H 0.66872 0.20973 0.19341 0.0
H303 H 0.73096 0.23671 0.30541 0.0
H304 H 0.82668 0.37664 0.30783 0.0
H305 H 0.78807 0.3288 0.31127 0.0
C306 C 0.49703 0.82208 0.71334 0.0
C307 C 0.50817 0.84136 0.74715 0.0
C308 C 0.50225 0.80089 0.7124 0.0
C309 C 0.51829 0.76106 0.78748 0.0
H310 H 0.51646 0.72433 0.68193 0.0
C311 C 0.47304 0.64618 0.77903 0.0
C312 C 0.48301 0.63552 0.74809 0.0
C313 C 0.48396 0.67414 0.78136 0.0
C314 C 0.51755 0.73449 0.71186 0.0
H315 H 0.53533 0.85467 0.80485 0.0
H316 H 0.54504 0.818 0.8027 0.0
H317 H 0.52312 0.76934 0.67868 0.0
H318 H 0.51366 0.6461 0.69711 0.0
H319 H 0.53322 0.69508 0.70175 0.0
H320 H 0.51273 0.72621 0.82066 0.0
C321 C 0.53165 0.81887 0.77742 0.0
C322 C 0.52098 0.76023 0.70993 0.0
C323 C 0.52631 0.84006 0.77845 0.0
C324 C 0.50542 0.65365 0.72121 0.0
C325 C 0.51646 0.68172 0.72364 0.0
C326 C 0.51508 0.73542 0.78943 0.0
C327 C 0.51891 0.79849 0.74513 0.0
C328 C 0.52041 0.77346 0.74759 0.0
C329 C 0.50529 0.69224 0.75295 0.0
C330 C 0.51367 0.72136 0.75155 0.0
H331 H 0.48297 0.82246 0.68869 0.0
H332 H 0.49177 0.78553 0.68725 0.0
H333 H 0.51758 0.77045 0.81722 0.0
H334 H 0.45577 0.6328 0.80023 0.0
H335 H 0.47449 0.68129 0.804 0.0
C336 C 0.61403 0.43928 0.27183 0.0
C337 C 0.60326 0.4384 0.23017 0.0
C338 C 0.64285 0.44769 0.27843 0.0
C339 C 0.71422 0.48657 0.23101 0.0
H340 H 0.73027 0.44062 0.30158 0.0
C341 C 0.82062 0.48838 0.22808 0.0
C342 C 0.8285 0.47918 0.26444 0.0
C343 C 0.79575 0.48959 0.2283 0.0
C344 C 0.7264 0.45416 0.28269 0.0
H345 H 0.61308 0.44387 0.16244 0.0
H346 H 0.66412 0.45901 0.17393 0.0
H347 H 0.68099 0.42929 0.29208 0.0
H348 H 0.81893 0.46723 0.33106 0.0
H349 H 0.77635 0.47062 0.33225 0.0
H350 H 0.75975 0.51139 0.2214 0.0
C351 C 0.65036 0.45376 0.2015 0.0
C352 C 0.69805 0.44748 0.27699 0.0
C353 C 0.62131 0.44499 0.19487 0.0
C354 C 0.81299 0.47398 0.30239 0.0
C355 C 0.78849 0.47571 0.30291 0.0
C356 C 0.74275 0.49346 0.23705 0.0
C357 C 0.66134 0.45521 0.24339 0.0
C358 C 0.69166 0.46337 0.25066 0.0
C359 C 0.77868 0.48203 0.26516 0.0
C360 C 0.74912 0.47709 0.26253 0.0
H361 H 0.60014 0.43356 0.29935 0.0
H362 H 0.65077 0.44861 0.31101 0.0
H363 H 0.70978 0.49932 0.21097 0.0
H364 H 0.83225 0.49248 0.19837 0.0
H365 H 0.78885 0.49447 0.19861 0.0
C366 C 0.37534 0.82323 0.79923 0.0
C367 C 0.39377 0.83441 0.76431 0.0
C368 C 0.34614 0.80367 0.79205 0.0
C369 C 0.29697 0.75131 0.7148 0.0
H370 H 0.23756 0.7559 0.77342 0.0
C371 C 0.18026 0.66562 0.69248 0.0
C372 C 0.16573 0.6555 0.73126 0.0
C373 C 0.20524 0.69151 0.69128 0.0
C374 C 0.25391 0.75433 0.75685 0.0
H375 H 0.39744 0.83268 0.69527 0.0
H376 H 0.34646 0.79837 0.68256 0.0
H377 H 0.28816 0.79222 0.78356 0.0
H378 H 0.1642 0.66528 0.79818 0.0
H379 H 0.20822 0.70999 0.79655 0.0
H380 H 0.26333 0.71301 0.68965 0.0
C381 C 0.35422 0.80505 0.7153 0.0
C382 C 0.28282 0.77508 0.76272 0.0
C383 C 0.38324 0.82476 0.72248 0.0
C384 C 0.17504 0.67257 0.76783 0.0
C385 C 0.20027 0.6983 0.76682 0.0
C386 C 0.2682 0.73051 0.70924 0.0
C387 C 0.33532 0.79456 0.74995 0.0
C388 C 0.3046 0.77353 0.74218 0.0
C389 C 0.21638 0.70751 0.72903 0.0
C390 C 0.24632 0.73154 0.73065 0.0
H391 H 0.38338 0.8301 0.83182 0.0
H392 H 0.3321 0.79547 0.81938 0.0
H393 H 0.31337 0.74946 0.69896 0.0
H394 H 0.17326 0.65299 0.66363 0.0
H395 H 0.21669 0.69835 0.66133 0.0
C396 C 0.4826 0.93037 0.90101 0.0
C397 C 0.46608 0.93254 0.86784 0.0
C398 C 0.48462 0.9416 0.9418 0.0
C399 C 0.47694 0.99371 -0.00293 0.0
H400 H 0.47577 0.95518 0.09993 0.0
C401 C 0.49483 0.04346 0.16398 0.0
C402 C 0.51677 0.04339 0.18818 0.0
C403 C 0.48195 0.02582 0.12849 0.0
C404 C 0.47609 0.96617 0.0715 0.0
H405 H 0.43876 0.94836 0.85183 0.0
H406 H 0.44234 0.9678 0.92274 0.0
H407 H 0.46805 0.93341 0.02939 0.0
H408 H 0.54048 0.02316 0.19678 0.0
H409 H 0.51819 0.99263 0.13533 0.0
H410 H 0.48585 0.02678 0.03889 0.0
C411 C 0.4539 0.95761 0.91712 0.0
C412 C 0.47181 0.95376 0.03112 0.0
C413 C 0.45183 0.94638 0.87643 0.0
C414 C 0.52378 0.02384 0.17852 0.0
C415 C 0.51084 0.00618 0.14338 0.0
C416 C 0.48126 0.00613 0.03741 0.0
C417 C 0.47024 0.95529 0.95032 0.0
C418 C 0.47275 0.96761 0.9934 0.0
C419 C 0.49062 0.00768 0.11693 0.0
C420 C 0.48147 0.99273 0.07505 0.0
H421 H 0.49383 0.91985 0.89563 0.0
H422 H 0.49775 0.93983 0.96655 0.0
H423 H 0.47806 0.00504 0.96863 0.0
H424 H 0.489 0.05832 0.17063 0.0
H425 H 0.4661 0.02716 0.10903 0.0
C426 C 0.48641 0.46379 0.32231 0.0
C427 C 0.48372 0.4386 0.3145 0.0
C428 C 0.47213 0.46699 0.35628 0.0
C429 C 0.44666 0.43892 0.46291 0.0
H430 H 0.4244 0.49247 0.46463 0.0
C431 C 0.41379 0.47073 0.61814 0.0
C432 C 0.42698 0.49901 0.6248 0.0
C433 C 0.41628 0.46041 0.5789 0.0
C434 C 0.43059 0.4775 0.4646 0.0
H435 H 0.4622 0.39642 0.33406 0.0
H436 H 0.43677 0.40192 0.39358 0.0
H437 H 0.43292 0.47769 0.39592 0.0
H438 H 0.45326 0.53857 0.5953 0.0
H439 H 0.45757 0.52047 0.52677 0.0
H440 H 0.4447 0.43909 0.53173 0.0
C441 C 0.45035 0.41931 0.37364 0.0
C442 C 0.43541 0.46897 0.4253 0.0
C443 C 0.46464 0.41607 0.33932 0.0
C444 C 0.44293 0.51671 0.59137 0.0
C445 C 0.44516 0.50635 0.55196 0.0
C446 C 0.44158 0.44729 0.50221 0.0
C447 C 0.45477 0.44507 0.38338 0.0
C448 C 0.44435 0.4502 0.42405 0.0
C449 C 0.43175 0.47809 0.54528 0.0
C450 C 0.4343 0.46722 0.50349 0.0
H451 H 0.50082 0.48151 0.30352 0.0
H452 H 0.47631 0.48718 0.3629 0.0
H453 H 0.4539 0.42473 0.46325 0.0
H454 H 0.40132 0.45648 0.64317 0.0
H455 H 0.40567 0.43855 0.57459 0.0
C456 C 0.05751 0.53996 0.8705 0.0
C457 C 0.06142 0.5221 0.84505 0.0
C458 C 0.04328 0.53133 0.90941 0.0
C459 C 0.02615 0.48463 -0.00291 0.0
H460 H 0.96145 0.49358 0.01404 0.0
C461 C 0.95374 0.44353 0.1463 0.0
C462 C 0.94282 0.45902 0.1621 0.0
C463 C 0.96904 0.45077 0.10807 0.0
C464 C 0.97975 0.49133 0.01018 0.0
H465 H 0.05402 0.48138 0.84079 0.0
H466 H 0.02956 0.4665 0.90969 0.0
H467 H 0.98678 0.5071 0.94628 0.0
H468 H 0.94082 0.49511 0.15182 0.0
H469 H 0.96843 0.50834 0.08634 0.0
H470 H 0.0198 0.46968 0.06147 0.0
C471 C 0.0374 0.48708 0.89905 0.0
C472 C 0.99407 0.49889 0.97127 0.0
C473 C 0.05123 0.49556 0.85966 0.0
C474 C 0.94856 0.48251 0.14005 0.0
C475 C 0.96422 0.48998 0.10232 0.0
C476 C 0.01207 0.47741 0.03639 0.0
C477 C 0.0331 0.50484 0.92391 0.0
C478 C 0.01745 0.49576 0.96455 0.0
C479 C 0.97408 0.47387 0.08534 0.0
C480 C 0.98884 0.48089 0.04347 0.0
H481 H 0.06503 0.5605 0.86004 0.0
H482 H 0.04031 0.54539 0.92831 0.0
H483 H 0.04429 0.48221 0.9925 0.0
H484 H 0.94968 0.42532 0.16265 0.0
H485 H 0.97615 0.4378 0.09574 0.0
C486 C 0.54974 0.07385 0.40808 0.0
C487 C 0.56277 0.06885 0.37377 0.0
C488 C 0.54753 0.06205 0.44816 0.0
C489 C 0.57545 0.02662 0.51424 0.0
H490 H 0.50529 0.00248 0.57668 0.0
C491 C 0.53105 0.94965 0.65659 0.0
C492 C 0.51667 0.95501 0.68835 0.0
C493 C 0.54313 0.96728 0.62167 0.0
C494 C 0.52522 0.00946 0.55995 0.0
H495 H 0.58373 0.04747 0.35467 0.0
H496 H 0.57887 0.02603 0.42414 0.0
H497 H 0.51185 0.0245 0.50783 0.0
H498 H 0.5065 0.98425 0.71157 0.0
H499 H 0.52804 0.01518 0.6514 0.0
H500 H 0.58801 0.01028 0.56632 0.0
C501 C 0.57102 0.03965 0.42046 0.0
C502 C 0.52903 0.02217 0.52042 0.0
C503 C 0.57357 0.05176 0.38048 0.0
C504 C 0.51733 0.97961 0.68728 0.0
C505 C 0.52946 0.9972 0.65273 0.0
C506 C 0.57144 0.01353 0.55379 0.0
C507 C 0.5579 0.0446 0.45482 0.0
C508 C 0.55423 0.03107 0.49707 0.0
C509 C 0.54096 0.99041 0.6184 0.0
C510 C 0.54635 0.00503 0.57713 0.0
H511 H 0.5416 0.08725 0.40424 0.0
H512 H 0.53786 0.06683 0.47407 0.0
H513 H 0.59527 0.03345 0.49736 0.0
H514 H 0.53055 0.93066 0.65655 0.0
H515 H 0.55191 0.96161 0.5956 0.0
C516 C 0.48559 0.54122 0.84069 0.0
C517 C 0.46568 0.5201 0.813 0.0
C518 C 0.4969 0.53532 0.87697 0.0
C519 C 0.47465 0.47818 0.94999 0.0
H520 H 0.55204 0.52126 -0.00106 0.0
C521 C 0.50883 0.44284 0.09953 0.0
C522 C 0.52613 0.46258 0.13099 0.0
C523 C 0.50356 0.45057 0.05954 0.0
C524 C 0.53026 0.50918 0.98583 0.0
H525 H 0.44422 0.47683 0.79894 0.0
H526 H 0.46437 0.4667 0.8613 0.0
H527 H 0.54075 0.53403 0.92958 0.0
H528 H 0.55157 0.50609 0.14477 0.0
H529 H 0.54183 0.51947 0.0753 0.0
H530 H 0.46384 0.45363 0.00611 0.0
C531 C 0.47059 0.48763 0.85597 0.0
C532 C 0.52386 0.51647 0.94611 0.0
C533 C 0.45919 0.49346 0.82012 0.0
C534 C 0.53809 0.49029 0.12137 0.0
C535 C 0.53273 0.49801 0.08138 0.0
C536 C 0.48099 0.47098 0.98956 0.0
C537 C 0.48853 0.50825 0.88581 0.0
C538 C 0.496 0.50089 0.92767 0.0
C539 C 0.51534 0.47824 0.05003 0.0
C540 C 0.50888 0.48627 0.00791 0.0
H541 H 0.49085 0.56192 0.83602 0.0
H542 H 0.51072 0.55164 0.89941 0.0
H543 H 0.45277 0.46616 0.9372 0.0
H544 H 0.49948 0.42134 0.10557 0.0
H545 H 0.49044 0.43483 0.03587 0.0
C546 C 0.04934 0.57643 0.64267 0.0
C547 C 0.04017 0.55536 0.67253 0.0
C548 C 0.03137 0.57354 0.60784 0.0
C549 C 0.99055 0.56102 0.53116 0.0
H550 H 0.96252 0.48734 0.49144 0.0
C551 C 0.93409 0.51041 0.36501 0.0
C552 C 0.94267 0.49337 0.34745 0.0
C553 C 0.94554 0.52352 0.4047 0.0
C554 C 0.97026 0.508 0.50206 0.0
H555 H 0.00399 0.51702 0.69395 0.0
H556 H 0.97191 0.51266 0.6346 0.0
H557 H 0.97812 0.49963 0.56554 0.0
H558 H 0.97243 0.47949 0.35477 0.0
H559 H 0.99257 0.50262 0.42354 0.0
H560 H 0.98363 0.56923 0.46598 0.0
C561 C 0.99334 0.53079 0.6367 0.0
C562 C 0.97868 0.51497 0.54487 0.0
C563 C 0.01156 0.5333 0.67078 0.0
C564 C 0.96502 0.49206 0.36786 0.0
C565 C 0.97649 0.50523 0.40724 0.0
C566 C 0.98195 0.55392 0.48793 0.0
C567 C 0.0039 0.54972 0.60301 0.0
C568 C 0.98963 0.54172 0.55984 0.0
C569 C 0.96572 0.51981 0.42704 0.0
C570 C 0.97267 0.52756 0.47291 0.0
H571 H 0.0714 0.59365 0.64349 0.0
H572 H 0.04022 0.58856 0.5826 0.0
H573 H -0.00125 0.58176 0.54179 0.0
H574 H 0.91694 0.51188 0.34992 0.0
H575 H 0.93702 0.53478 0.41934 0.0
loop_
_geom_bond_atom_site_label_1
_geom_bond_atom_site_label_2
_geom_bond_distance
_geom_bond_site_symmetry_2
_ccdc_geom_bond_type
Mn0 O5 2.095 . S
Mn0 O15 2.162 . S
Mn0 O16 2.297 . S
Mn0 O24 2.385 . S
Mn0 O25 2.209 . S
Mn0 O26 2.094 . S
Mn1 O6 2.121 . S
Mn1 N8 2.257 . S
Mn1 N17 2.282 . S
Mn1 O25 2.215 . S
Mn1 O27 2.117 . S
C2 O24 1.234 . S
C2 O25 1.283 . S
C3 O15 1.281 . S
C3 O16 1.236 . S
C4 O26 1.240 . S
C4 O27 1.264 . S
O5 Mn0 2.095 . S
O5 C14 1.250 . S
O6 Mn1 2.121 . S
O6 C14 1.258 . S
C7 N8 1.326 . S
C7 C11 1.460 . S
C7 H13 0.929 . S
N8 Mn1 2.257 . S
N8 C7 1.326 . S
N8 C12 1.362 . S
C9 C10 1.258 . S
C9 C12 1.431 . S
C9 C29 1.449 . S
C10 C9 1.258 . S
C10 C11 1.477 . S
C10 H30 0.931 . S
C11 C7 1.460 . S
C11 C10 1.477 . S
C11 H31 0.930 . S
C12 N8 1.362 . S
C12 C9 1.431 . S
C12 C22 1.476 . S
H13 C7 0.929 . S
C14 O5 1.250 . S
C14 O6 1.258 . S
O15 Mn0 2.162 . S
O15 C3 1.281 . S
O16 Mn0 2.297 . S
O16 C3 1.236 . S
N17 Mn1 2.282 . S
N17 C18 1.328 . S
N17 C22 1.318 . S
C18 N17 1.328 . S
C18 C19 1.457 . S
C18 H23 0.929 . S
C19 C18 1.457 . S
C19 C20 1.291 . S
C19 H32 0.931 . S
C20 C19 1.291 . S
C20 C21 1.373 . S
C20 H33 0.929 . S
C21 C20 1.373 . S
C21 C22 1.396 . S
C21 C28 1.403 . S
C22 C12 1.476 . S
C22 N17 1.318 . S
C22 C21 1.396 . S
H23 C18 0.929 . S
O24 Mn0 2.385 . S
O24 C2 1.234 . S
O25 Mn0 2.209 . S
O25 Mn1 2.215 . S
O25 C2 1.283 . S
O26 Mn0 2.094 . S
O26 C4 1.240 . S
O27 Mn1 2.117 . S
O27 C4 1.264 . S
C28 C21 1.403 . S
C28 C29 1.399 . S
C28 H34 0.929 . S
C29 C9 1.449 . S
C29 C28 1.399 . S
C29 H35 0.930 . S
H30 C10 0.931 . S
H31 C11 0.930 . S
H32 C19 0.931 . S
H33 C20 0.929 . S
H34 C28 0.929 . S
H35 C29 0.930 . S
Mn36 O41 2.095 . S
Mn36 O51 2.162 . S
Mn36 O52 2.297 . S
Mn36 O60 2.385 . S
Mn36 O61 2.209 . S
Mn36 O62 2.094 . S
Mn37 O42 2.121 . S
Mn37 N44 2.257 . S
Mn37 N53 2.282 . S
Mn37 O61 2.215 . S
Mn37 O63 2.117 . S
C38 O60 1.234 . S
C38 O61 1.283 . S
C39 O51 1.281 . S
C39 O52 1.236 . S
C40 O62 1.240 . S
C40 O63 1.264 . S
O41 Mn36 2.095 . S
O41 C50 1.250 . S
O42 Mn37 2.121 . S
O42 C50 1.258 . S
C43 N44 1.326 . S
C43 C47 1.460 . S
C43 H49 0.929 . S
N44 Mn37 2.257 . S
N44 C43 1.326 . S
N44 C48 1.362 . S
C45 C46 1.258 . S
C45 C48 1.431 . S
C45 C65 1.449 . S
C46 C45 1.258 . S
C46 C47 1.477 . S
C46 H66 0.931 . S
C47 C43 1.460 . S
C47 C46 1.477 . S
C47 H67 0.930 . S
C48 N44 1.362 . S
C48 C45 1.431 . S
C48 C58 1.476 . S
H49 C43 0.929 . S
C50 O41 1.250 . S
C50 O42 1.258 . S
O51 Mn36 2.162 . S
O51 C39 1.281 . S
O52 Mn36 2.297 . S
O52 C39 1.236 . S
N53 Mn37 2.282 . S
N53 C54 1.328 . S
N53 C58 1.318 . S
C54 N53 1.328 . S
C54 C55 1.457 . S
C54 H59 0.929 . S
C55 C54 1.457 . S
C55 C56 1.291 . S
C55 H68 0.931 . S
C56 C55 1.291 . S
C56 C57 1.373 . S
C56 H69 0.929 . S
C57 C56 1.373 . S
C57 C58 1.396 . S
C57 C64 1.403 . S
C58 C48 1.476 . S
C58 N53 1.318 . S
C58 C57 1.396 . S
H59 C54 0.929 . S
O60 Mn36 2.385 . S
O60 C38 1.234 . S
O61 Mn36 2.209 . S
O61 Mn37 2.215 . S
O61 C38 1.283 . S
O62 Mn36 2.094 . S
O62 C40 1.240 . S
O63 Mn37 2.117 . S
O63 C40 1.264 . S
C64 C57 1.403 . S
C64 C65 1.399 . S
C64 H70 0.929 . S
C65 C45 1.449 . S
C65 C64 1.399 . S
C65 H71 0.930 . S
H66 C46 0.931 . S
H67 C47 0.930 . S
H68 C55 0.931 . S
H69 C56 0.929 . S
H70 C64 0.929 . S
H71 C65 0.930 . S
Mn72 O77 2.095 . S
Mn72 O87 2.162 . S
Mn72 O88 2.297 . S
Mn72 O96 2.385 . S
Mn72 O97 2.209 . S
Mn72 O98 2.094 . S
Mn73 O78 2.121 . S
Mn73 N80 2.257 . S
Mn73 N89 2.282 . S
Mn73 O97 2.215 . S
Mn73 O99 2.117 . S
C74 O96 1.234 . S
C74 O97 1.283 . S
C75 O87 1.281 . S
C75 O88 1.236 . S
C76 O98 1.240 . S
C76 O99 1.264 . S
O77 Mn72 2.095 . S
O77 C86 1.250 . S
O78 Mn73 2.121 . S
O78 C86 1.258 . S
C79 N80 1.326 . S
C79 C83 1.460 . S
C79 H85 0.929 . S
N80 Mn73 2.257 . S
N80 C79 1.326 . S
N80 C84 1.362 . S
C81 C82 1.258 . S
C81 C84 1.431 . S
C81 C101 1.449 . S
C82 C81 1.258 . S
C82 C83 1.477 . S
C82 H102 0.931 . S
C83 C79 1.460 . S
C83 C82 1.477 . S
C83 H103 0.930 . S
C84 N80 1.362 . S
C84 C81 1.431 . S
C84 C94 1.476 . S
H85 C79 0.929 . S
C86 O77 1.250 . S
C86 O78 1.258 . S
O87 Mn72 2.162 . S
O87 C75 1.281 . S
O88 Mn72 2.297 . S
O88 C75 1.236 . S
N89 Mn73 2.282 . S
N89 C90 1.328 . S
N89 C94 1.318 . S
C90 N89 1.328 . S
C90 C91 1.457 . S
C90 H95 0.929 . S
C91 C90 1.457 . S
C91 C92 1.291 . S
C91 H104 0.931 . S
C92 C91 1.291 . S
C92 C93 1.373 . S
C92 H105 0.929 . S
C93 C92 1.373 . S
C93 C94 1.396 . S
C93 C100 1.403 . S
C94 C84 1.476 . S
C94 N89 1.318 . S
C94 C93 1.396 . S
H95 C90 0.929 . S
O96 Mn72 2.385 . S
O96 C74 1.234 . S
O97 Mn72 2.209 . S
O97 Mn73 2.215 . S
O97 C74 1.283 . S
O98 Mn72 2.094 . S
O98 C76 1.240 . S
O99 Mn73 2.117 . S
O99 C76 1.264 . S
C100 C93 1.403 . S
C100 C101 1.399 . S
C100 H106 0.929 . S
C101 C81 1.449 . S
C101 C100 1.399 . S
C101 H107 0.930 . S
H102 C82 0.931 . S
H103 C83 0.930 . S
H104 C91 0.931 . S
H105 C92 0.929 . S
H106 C100 0.929 . S
H107 C101 0.930 . S
Mn108 O113 2.095 . S
Mn108 O123 2.162 . S
Mn108 O124 2.297 . S
Mn108 O132 2.385 . S
Mn108 O133 2.209 . S
Mn108 O134 2.094 . S
Mn109 O114 2.121 . S
Mn109 N116 2.257 . S
Mn109 N125 2.282 . S
Mn109 O133 2.215 . S
Mn109 O135 2.117 . S
C110 O132 1.234 . S
C110 O133 1.283 . S
C111 O123 1.281 . S
C111 O124 1.236 . S
C112 O134 1.240 . S
C112 O135 1.264 . S
O113 Mn108 2.095 . S
O113 C122 1.250 . S
O114 Mn109 2.121 . S
O114 C122 1.258 . S
C115 N116 1.326 . S
C115 C119 1.460 . S
C115 H121 0.929 . S
N116 Mn109 2.257 . S
N116 C115 1.326 . S
N116 C120 1.362 . S
C117 C118 1.258 . S
C117 C120 1.431 . S
C117 C137 1.449 . S
C118 C117 1.258 . S
C118 C119 1.477 . S
C118 H138 0.931 . S
C119 C115 1.460 . S
C119 C118 1.477 . S
C119 H139 0.930 . S
C120 N116 1.362 . S
C120 C117 1.431 . S
C120 C130 1.476 . S
H121 C115 0.929 . S
C122 O113 1.250 . S
C122 O114 1.258 . S
O123 Mn108 2.162 . S
O123 C111 1.281 . S
O124 Mn108 2.297 . S
O124 C111 1.236 . S
N125 Mn109 2.282 . S
N125 C126 1.328 . S
N125 C130 1.318 . S
C126 N125 1.328 . S
C126 C127 1.457 . S
C126 H131 0.929 . S
C127 C126 1.457 . S
C127 C128 1.291 . S
C127 H140 0.931 . S
C128 C127 1.291 . S
C128 C129 1.373 . S
C128 H141 0.929 . S
C129 C128 1.373 . S
C129 C130 1.396 . S
C129 C136 1.403 . S
C130 C120 1.476 . S
C130 N125 1.318 . S
C130 C129 1.396 . S
H131 C126 0.929 . S
O132 Mn108 2.385 . S
O132 C110 1.234 . S
O133 Mn108 2.209 . S
O133 Mn109 2.215 . S
O133 C110 1.283 . S
O134 Mn108 2.094 . S
O134 C112 1.240 . S
O135 Mn109 2.117 . S
O135 C112 1.264 . S
C136 C129 1.403 . S
C136 C137 1.399 . S
C136 H142 0.929 . S
C137 C117 1.449 . S
C137 C136 1.399 . S
C137 H143 0.930 . S
H138 C118 0.931 . S
H139 C119 0.930 . S
H140 C127 0.931 . S
H141 C128 0.929 . S
H142 C136 0.929 . S
H143 C137 0.930 . S
Mn144 O149 2.095 . S
Mn144 O159 2.162 . S
Mn144 O160 2.297 . S
Mn144 O168 2.385 . S
Mn144 O169 2.209 . S
Mn144 O170 2.094 . S
Mn145 O150 2.121 . S
Mn145 N152 2.257 . S
Mn145 N161 2.282 . S
Mn145 O169 2.215 . S
Mn145 O171 2.117 . S
C146 O168 1.234 . S
C146 O169 1.283 . S
C147 O159 1.281 . S
C147 O160 1.236 . S
C148 O170 1.240 . S
C148 O171 1.264 . S
O149 Mn144 2.095 . S
O149 C158 1.250 . S
O150 Mn145 2.121 . S
O150 C158 1.258 . S
C151 N152 1.326 . S
C151 C155 1.460 . S
C151 H157 0.929 . S
N152 Mn145 2.257 . S
N152 C151 1.326 . S
N152 C156 1.362 . S
C153 C154 1.258 . S
C153 C156 1.431 . S
C153 C173 1.449 . S
C154 C153 1.258 . S
C154 C155 1.477 . S
C154 H174 0.931 . S
C155 C151 1.460 . S
C155 C154 1.477 . S
C155 H175 0.930 . S
C156 N152 1.362 . S
C156 C153 1.431 . S
C156 C166 1.476 . S
H157 C151 0.929 . S
C158 O149 1.250 . S
C158 O150 1.258 . S
O159 Mn144 2.162 . S
O159 C147 1.281 . S
O160 Mn144 2.297 . S
O160 C147 1.236 . S
N161 Mn145 2.282 . S
N161 C162 1.328 . S
N161 C166 1.318 . S
C162 N161 1.328 . S
C162 C163 1.457 . S
C162 H167 0.929 . S
C163 C162 1.457 . S
C163 C164 1.291 . S
C163 H176 0.931 . S
C164 C163 1.291 . S
C164 C165 1.373 . S
C164 H177 0.929 . S
C165 C164 1.373 . S
C165 C166 1.396 . S
C165 C172 1.403 . S
C166 C156 1.476 . S
C166 N161 1.318 . S
C166 C165 1.396 . S
H167 C162 0.929 . S
O168 Mn144 2.385 . S
O168 C146 1.234 . S
O169 Mn144 2.209 . S
O169 Mn145 2.215 . S
O169 C146 1.283 . S
O170 Mn144 2.094 . S
O170 C148 1.240 . S
O171 Mn145 2.117 . S
O171 C148 1.264 . S
C172 C165 1.403 . S
C172 C173 1.399 . S
C172 H178 0.929 . S
C173 C153 1.449 . S
C173 C172 1.399 . S
C173 H179 0.930 . S
H174 C154 0.931 . S
H175 C155 0.930 . S
H176 C163 0.931 . S
H177 C164 0.929 . S
H178 C172 0.929 . S
H179 C173 0.930 . S
Mn180 O185 2.095 . S
Mn180 O195 2.162 . S
Mn180 O196 2.297 . S
Mn180 O204 2.385 . S
Mn180 O205 2.209 . S
Mn180 O206 2.094 . S
Mn181 O186 2.121 . S
Mn181 N188 2.257 . S
Mn181 N197 2.282 . S
Mn181 O205 2.215 . S
Mn181 O207 2.117 . S
C182 O204 1.234 . S
C182 O205 1.283 . S
C183 O195 1.281 . S
C183 O196 1.236 . S
C184 O206 1.240 . S
C184 O207 1.264 . S
O185 Mn180 2.095 . S
O185 C194 1.250 . S
O186 Mn181 2.121 . S
O186 C194 1.258 . S
C187 N188 1.326 . S
C187 C191 1.460 . S
C187 H193 0.929 . S
N188 Mn181 2.257 . S
N188 C187 1.326 . S
N188 C192 1.362 . S
C189 C190 1.258 . S
C189 C192 1.431 . S
C189 C209 1.449 . S
C190 C189 1.258 . S
C190 C191 1.477 . S
C190 H210 0.931 . S
C191 C187 1.460 . S
C191 C190 1.477 . S
C191 H211 0.930 . S
C192 N188 1.362 . S
C192 C189 1.431 . S
C192 C202 1.476 . S
H193 C187 0.929 . S
C194 O185 1.250 . S
C194 O186 1.258 . S
O195 Mn180 2.162 . S
O195 C183 1.281 . S
O196 Mn180 2.297 . S
O196 C183 1.236 . S
N197 Mn181 2.282 . S
N197 C198 1.328 . S
N197 C202 1.318 . S
C198 N197 1.328 . S
C198 C199 1.457 . S
C198 H203 0.929 . S
C199 C198 1.457 . S
C199 C200 1.291 . S
C199 H212 0.931 . S
C200 C199 1.291 . S
C200 C201 1.373 . S
C200 H213 0.929 . S
C201 C200 1.373 . S
C201 C202 1.396 . S
C201 C208 1.403 . S
C202 C192 1.476 . S
C202 N197 1.318 . S
C202 C201 1.396 . S
H203 C198 0.929 . S
O204 Mn180 2.385 . S
O204 C182 1.234 . S
O205 Mn180 2.209 . S
O205 Mn181 2.215 . S
O205 C182 1.283 . S
O206 Mn180 2.094 . S
O206 C184 1.240 . S
O207 Mn181 2.117 . S
O207 C184 1.264 . S
C208 C201 1.403 . S
C208 C209 1.399 . S
C208 H214 0.929 . S
C209 C189 1.449 . S
C209 C208 1.399 . S
C209 H215 0.930 . S
H210 C190 0.931 . S
H211 C191 0.930 . S
H212 C199 0.931 . S
H213 C200 0.929 . S
H214 C208 0.929 . S
H215 C209 0.930 . S
C216 C217 1.349 . S
C216 C218 1.327 . S
C216 H241 0.950 . S
C217 C216 1.349 . S
C217 C233 1.349 . S
C218 C216 1.327 . S
C218 C237 1.429 . S
C218 H242 0.950 . S
C219 C236 1.574 . S
C219 C238 1.368 . S
C219 H243 0.949 . S
H220 C224 0.949 . S
C221 C222 1.349 . S
C221 C223 1.327 . S
C221 H244 0.950 . S
C222 C221 1.349 . S
C222 C234 1.349 . S
C223 C221 1.327 . S
C223 C239 1.429 . S
C223 H245 0.950 . S
C224 H220 0.949 . S
C224 C232 1.574 . S
C224 C240 1.368 . S
H225 C233 0.950 . S
H226 C231 0.950 . S
H227 C232 0.949 . S
H228 C234 0.950 . S
H229 C235 0.950 . S
H230 C236 0.949 . S
C231 H226 0.950 . S
C231 C233 1.327 . S
C231 C237 1.429 . S
C232 C224 1.574 . S
C232 H227 0.949 . S
C232 C238 1.368 . S
C233 C217 1.349 . S
C233 H225 0.950 . S
C233 C231 1.327 . S
C234 C222 1.349 . S
C234 H228 0.950 . S
C234 C235 1.327 . S
C235 H229 0.950 . S
C235 C234 1.327 . S
C235 C239 1.429 . S
C236 C219 1.574 . S
C236 H230 0.949 . S
C236 C240 1.368 . S
C237 C218 1.429 . S
C237 C231 1.429 . S
C237 C238 1.523 . S
C238 C219 1.368 . S
C238 C232 1.368 . S
C238 C237 1.523 . S
C239 C223 1.429 . S
C239 C235 1.429 . S
C239 C240 1.523 . S
C240 C224 1.368 . S
C240 C236 1.368 . S
C240 C239 1.523 . S
H241 C216 0.950 . S
H242 C218 0.950 . S
H243 C219 0.949 . S
H244 C221 0.950 . S
H245 C223 0.950 . S
C246 C247 1.349 . S
C246 C248 1.327 . S
C246 H271 0.950 . S
C247 C246 1.349 . S
C247 C263 1.349 . S
C248 C246 1.327 . S
C248 C267 1.429 . S
C248 H272 0.950 . S
C249 C266 1.574 . S
C249 C268 1.368 . S
C249 H273 0.949 . S
H250 C254 0.949 . S
C251 C252 1.349 . S
C251 C253 1.327 . S
C251 H274 0.950 . S
C252 C251 1.349 . S
C252 C264 1.349 . S
C253 C251 1.327 . S
C253 C269 1.429 . S
C253 H275 0.950 . S
C254 H250 0.949 . S
C254 C262 1.574 . S
C254 C270 1.368 . S
H255 C263 0.950 . S
H256 C261 0.950 . S
H257 C262 0.949 . S
H258 C264 0.950 . S
H259 C265 0.950 . S
H260 C266 0.949 . S
C261 H256 0.950 . S
C261 C263 1.327 . S
C261 C267 1.429 . S
C262 C254 1.574 . S
C262 H257 0.949 . S
C262 C268 1.368 . S
C263 C247 1.349 . S
C263 H255 0.950 . S
C263 C261 1.327 . S
C264 C252 1.349 . S
C264 H258 0.950 . S
C264 C265 1.327 . S
C265 H259 0.950 . S
C265 C264 1.327 . S
C265 C269 1.429 . S
C266 C249 1.574 . S
C266 H260 0.949 . S
C266 C270 1.368 . S
C267 C248 1.429 . S
C267 C261 1.429 . S
C267 C268 1.523 . S
C268 C249 1.368 . S
C268 C262 1.368 . S
C268 C267 1.523 . S
C269 C253 1.429 . S
C269 C265 1.429 . S
C269 C270 1.523 . S
C270 C254 1.368 . S
C270 C266 1.368 . S
C270 C269 1.523 . S
H271 C246 0.950 . S
H272 C248 0.950 . S
H273 C249 0.949 . S
H274 C251 0.950 . S
H275 C253 0.950 . S
C276 C277 1.349 . S
C276 C278 1.327 . S
C276 H301 0.950 . S
C277 C276 1.349 . S
C277 C293 1.349 . S
C278 C276 1.327 . S
C278 C297 1.429 . S
C278 H302 0.950 . S
C279 C296 1.574 . S
C279 C298 1.368 . S
C279 H303 0.949 . S
H280 C284 0.949 . S
C281 C282 1.349 . S
C281 C283 1.327 . S
C281 H304 0.950 . S
C282 C281 1.349 . S
C282 C294 1.349 . S
C283 C281 1.327 . S
C283 C299 1.429 . S
C283 H305 0.950 . S
C284 H280 0.949 . S
C284 C292 1.574 . S
C284 C300 1.368 . S
H285 C293 0.950 . S
H286 C291 0.950 . S
H287 C292 0.949 . S
H288 C294 0.950 . S
H289 C295 0.950 . S
H290 C296 0.949 . S
C291 H286 0.950 . S
C291 C293 1.327 . S
C291 C297 1.429 . S
C292 C284 1.574 . S
C292 H287 0.949 . S
C292 C298 1.368 . S
C293 C277 1.349 . S
C293 H285 0.950 . S
C293 C291 1.327 . S
C294 C282 1.349 . S
C294 H288 0.950 . S
C294 C295 1.327 . S
C295 H289 0.950 . S
C295 C294 1.327 . S
C295 C299 1.429 . S
C296 C279 1.574 . S
C296 H290 0.949 . S
C296 C300 1.368 . S
C297 C278 1.429 . S
C297 C291 1.429 . S
C297 C298 1.523 . S
C298 C279 1.368 . S
C298 C292 1.368 . S
C298 C297 1.523 . S
C299 C283 1.429 . S
C299 C295 1.429 . S
C299 C300 1.523 . S
C300 C284 1.368 . S
C300 C296 1.368 . S
C300 C299 1.523 . S
H301 C276 0.950 . S
H302 C278 0.950 . S
H303 C279 0.949 . S
H304 C281 0.950 . S
H305 C283 0.950 . S
C306 C307 1.349 . S
C306 C308 1.327 . S
C306 H331 0.950 . S
C307 C306 1.349 . S
C307 C323 1.349 . S
C308 C306 1.327 . S
C308 C327 1.429 . S
C308 H332 0.950 . S
C309 C326 1.574 . S
C309 C328 1.368 . S
C309 H333 0.949 . S
H310 C314 0.949 . S
C311 C312 1.349 . S
C311 C313 1.327 . S
C311 H334 0.950 . S
C312 C311 1.349 . S
C312 C324 1.349 . S
C313 C311 1.327 . S
C313 C329 1.429 . S
C313 H335 0.950 . S
C314 H310 0.949 . S
C314 C322 1.574 . S
C314 C330 1.368 . S
H315 C323 0.950 . S
H316 C321 0.950 . S
H317 C322 0.949 . S
H318 C324 0.950 . S
H319 C325 0.950 . S
H320 C326 0.949 . S
C321 H316 0.950 . S
C321 C323 1.327 . S
C321 C327 1.429 . S
C322 C314 1.574 . S
C322 H317 0.949 . S
C322 C328 1.368 . S
C323 C307 1.349 . S
C323 H315 0.950 . S
C323 C321 1.327 . S
C324 C312 1.349 . S
C324 H318 0.950 . S
C324 C325 1.327 . S
C325 H319 0.950 . S
C325 C324 1.327 . S
C325 C329 1.429 . S
C326 C309 1.574 . S
C326 H320 0.949 . S
C326 C330 1.368 . S
C327 C308 1.429 . S
C327 C321 1.429 . S
C327 C328 1.523 . S
C328 C309 1.368 . S
C328 C322 1.368 . S
C328 C327 1.523 . S
C329 C313 1.429 . S
C329 C325 1.429 . S
C329 C330 1.523 . S
C330 C314 1.368 . S
C330 C326 1.368 . S
C330 C329 1.523 . S
H331 C306 0.950 . S
H332 C308 0.950 . S
H333 C309 0.949 . S
H334 C311 0.950 . S
H335 C313 0.950 . S
C336 C337 1.349 . S
C336 C338 1.327 . S
C336 H361 0.950 . S
C337 C336 1.349 . S
C337 C353 1.349 . S
C338 C336 1.327 . S
C338 C357 1.429 . S
C338 H362 0.950 . S
C339 C356 1.574 . S
C339 C358 1.368 . S
C339 H363 0.949 . S
H340 C344 0.949 . S
C341 C342 1.349 . S
C341 C343 1.327 . S
C341 H364 0.950 . S
C342 C341 1.349 . S
C342 C354 1.349 . S
C343 C341 1.327 . S
C343 C359 1.429 . S
C343 H365 0.950 . S
C344 H340 0.949 . S
C344 C352 1.574 . S
C344 C360 1.368 . S
H345 C353 0.950 . S
H346 C351 0.950 . S
H347 C352 0.949 . S
H348 C354 0.950 . S
H349 C355 0.950 . S
H350 C356 0.949 . S
C351 H346 0.950 . S
C351 C353 1.327 . S
C351 C357 1.429 . S
C352 C344 1.574 . S
C352 H347 0.949 . S
C352 C358 1.368 . S
C353 C337 1.349 . S
C353 H345 0.950 . S
C353 C351 1.327 . S
C354 C342 1.349 . S
C354 H348 0.950 . S
C354 C355 1.327 . S
C355 H349 0.950 . S
C355 C354 1.327 . S
C355 C359 1.429 . S
C356 C339 1.574 . S
C356 H350 0.949 . S
C356 C360 1.368 . S
C357 C338 1.429 . S
C357 C351 1.429 . S
C357 C358 1.523 . S
C358 C339 1.368 . S
C358 C352 1.368 . S
C358 C357 1.523 . S
C359 C343 1.429 . S
C359 C355 1.429 . S
C359 C360 1.523 . S
C360 C344 1.368 . S
C360 C356 1.368 . S
C360 C359 1.523 . S
H361 C336 0.950 . S
H362 C338 0.950 . S
H363 C339 0.949 . S
H364 C341 0.950 . S
H365 C343 0.950 . S
C366 C367 1.349 . S
C366 C368 1.327 . S
C366 H391 0.950 . S
C367 C366 1.349 . S
C367 C383 1.349 . S
C368 C366 1.327 . S
C368 C387 1.429 . S
C368 H392 0.950 . S
C369 C386 1.574 . S
C369 C388 1.368 . S
C369 H393 0.949 . S
H370 C374 0.949 . S
C371 C372 1.349 . S
C371 C373 1.327 . S
C371 H394 0.950 . S
C372 C371 1.349 . S
C372 C384 1.349 . S
C373 C371 1.327 . S
C373 C389 1.429 . S
C373 H395 0.950 . S
C374 H370 0.949 . S
C374 C382 1.574 . S
C374 C390 1.368 . S
H375 C383 0.950 . S
H376 C381 0.950 . S
H377 C382 0.949 . S
H378 C384 0.950 . S
H379 C385 0.950 . S
H380 C386 0.949 . S
C381 H376 0.950 . S
C381 C383 1.327 . S
C381 C387 1.429 . S
C382 C374 1.574 . S
C382 H377 0.949 . S
C382 C388 1.368 . S
C383 C367 1.349 . S
C383 H375 0.950 . S
C383 C381 1.327 . S
C384 C372 1.349 . S
C384 H378 0.950 . S
C384 C385 1.327 . S
C385 H379 0.950 . S
C385 C384 1.327 . S
C385 C389 1.429 . S
C386 C369 1.574 . S
C386 H380 0.949 . S
C386 C390 1.368 . S
C387 C368 1.429 . S
C387 C381 1.429 . S
C387 C388 1.523 . S
C388 C369 1.368 . S
C388 C382 1.368 . S
C388 C387 1.523 . S
C389 C373 1.429 . S
C389 C385 1.429 . S
C389 C390 1.523 . S
C390 C374 1.368 . S
C390 C386 1.368 . S
C390 C389 1.523 . S
H391 C366 0.950 . S
H392 C368 0.950 . S
H393 C369 0.949 . S
H394 C371 0.950 . S
H395 C373 0.950 . S
C396 C397 1.349 . S
C396 C398 1.327 . S
C396 H421 0.950 . S
C397 C396 1.349 . S
C397 C413 1.349 . S
C398 C396 1.327 . S
C398 C417 1.429 . S
C398 H422 0.950 . S
C399 C416 1.574 1_556 S
C399 C418 1.368 1_545 S
C399 H423 0.949 . S
H400 C404 0.949 . S
C401 C402 1.349 . S
C401 C403 1.327 . S
C401 H424 0.950 . S
C402 C401 1.349 . S
C402 C414 1.349 . S
C403 C401 1.327 . S
C403 C419 1.429 . S
C403 H425 0.950 . S
C404 H400 0.949 . S
C404 C412 1.574 . S
C404 C420 1.368 1_565 S
H405 C413 0.950 . S
H406 C411 0.950 1_545 S
H407 C412 0.949 . S
H408 C414 0.950 . S
H409 C415 0.950 . S
H410 C416 0.949 . S
C411 H406 0.950 1_565 S
C411 C413 1.327 . S
C411 C417 1.429 . S
C412 C404 1.574 . S
C412 H407 0.949 . S
C412 C418 1.368 1_554 S
C413 C397 1.349 . S
C413 H405 0.950 . S
C413 C411 1.327 . S
C414 C402 1.349 . S
C414 H408 0.950 . S
C414 C415 1.327 . S
C415 H409 0.950 . S
C415 C414 1.327 . S
C415 C419 1.429 . S
C416 C399 1.574 1_554 S
C416 H410 0.949 . S
C416 C420 1.368 . S
C417 C398 1.429 . S
C417 C411 1.429 . S
C417 C418 1.523 . S
C418 C399 1.368 1_565 S
C418 C412 1.368 1_556 S
C418 C417 1.523 . S
C419 C403 1.429 . S
C419 C415 1.429 . S
C419 C420 1.523 . S
C420 C404 1.368 1_545 S
C420 C416 1.368 . S
C420 C419 1.523 . S
H421 C396 0.950 . S
H422 C398 0.950 . S
H423 C399 0.949 . S
H424 C401 0.950 . S
H425 C403 0.950 . S
C426 C427 1.349 . S
C426 C428 1.327 . S
C426 H451 0.950 . S
C427 C426 1.349 . S
C427 C443 1.349 . S
C428 C426 1.327 . S
C428 C447 1.429 . S
C428 H452 0.950 . S
C429 C446 1.574 . S
C429 C448 1.368 . S
C429 H453 0.949 . S
H430 C434 0.949 . S
C431 C432 1.349 . S
C431 C433 1.327 . S
C431 H454 0.950 . S
C432 C431 1.349 . S
C432 C444 1.349 . S
C433 C431 1.327 . S
C433 C449 1.429 . S
C433 H455 0.950 . S
C434 H430 0.949 . S
C434 C442 1.574 . S
C434 C450 1.368 . S
H435 C443 0.950 . S
H436 C441 0.950 . S
H437 C442 0.949 . S
H438 C444 0.950 . S
H439 C445 0.950 . S
H440 C446 0.949 . S
C441 H436 0.950 . S
C441 C443 1.327 . S
C441 C447 1.429 . S
C442 C434 1.574 . S
C442 H437 0.949 . S
C442 C448 1.368 . S
C443 C427 1.349 . S
C443 H435 0.950 . S
C443 C441 1.327 . S
C444 C432 1.349 . S
C444 H438 0.950 . S
C444 C445 1.327 . S
C445 H439 0.950 . S
C445 C444 1.327 . S
C445 C449 1.429 . S
C446 C429 1.574 . S
C446 H440 0.949 . S
C446 C450 1.368 . S
C447 C428 1.429 . S
C447 C441 1.429 . S
C447 C448 1.523 . S
C448 C429 1.368 . S
C448 C442 1.368 . S
C448 C447 1.523 . S
C449 C433 1.429 . S
C449 C445 1.429 . S
C449 C450 1.523 . S
C450 C434 1.368 . S
C450 C446 1.368 . S
C450 C449 1.523 . S
H451 C426 0.950 . S
H452 C428 0.950 . S
H453 C429 0.949 . S
H454 C431 0.950 . S
H455 C433 0.950 . S
C456 C457 1.349 . S
C456 C458 1.327 . S
C456 H481 0.950 . S
C457 C456 1.349 . S
C457 C473 1.349 . S
C458 C456 1.327 . S
C458 C477 1.429 . S
C458 H482 0.950 . S
C459 C476 1.574 1_456 S
C459 C478 1.368 . S
C459 H483 0.949 . S
H460 C464 0.949 . S
C461 C462 1.349 . S
C461 C463 1.327 . S
C461 H484 0.950 . S
C462 C461 1.349 . S
C462 C474 1.349 . S
C463 C461 1.327 . S
C463 C479 1.429 . S
C463 H485 0.950 . S
C464 H460 0.949 . S
C464 C472 1.574 1_654 S
C464 C480 1.368 . S
H465 C473 0.950 . S
H466 C471 0.950 . S
H467 C472 0.949 . S
H468 C474 0.950 . S
H469 C475 0.950 . S
H470 C476 0.949 . S
C471 H466 0.950 . S
C471 C473 1.327 . S
C471 C477 1.429 . S
C472 C464 1.574 1_456 S
C472 H467 0.949 . S
C472 C478 1.368 . S
C473 C457 1.349 . S
C473 H465 0.950 . S
C473 C471 1.327 . S
C474 C462 1.349 . S
C474 H468 0.950 . S
C474 C475 1.327 . S
C475 H469 0.950 . S
C475 C474 1.327 . S
C475 C479 1.429 . S
C476 C459 1.574 1_654 S
C476 H470 0.949 . S
C476 C480 1.368 . S
C477 C458 1.429 . S
C477 C471 1.429 . S
C477 C478 1.523 . S
C478 C459 1.368 . S
C478 C472 1.368 . S
C478 C477 1.523 . S
C479 C463 1.429 . S
C479 C475 1.429 . S
C479 C480 1.523 . S
C480 C464 1.368 . S
C480 C476 1.368 . S
C480 C479 1.523 . S
H481 C456 0.950 . S
H482 C458 0.950 . S
H483 C459 0.949 . S
H484 C461 0.950 . S
H485 C463 0.950 . S
C486 C487 1.349 . S
C486 C488 1.327 . S
C486 H511 0.950 . S
C487 C486 1.349 . S
C487 C503 1.349 . S
C488 C486 1.327 . S
C488 C507 1.429 . S
C488 H512 0.950 . S
C489 C506 1.574 1_545 S
C489 C508 1.368 . S
C489 H513 0.949 . S
H490 C494 0.949 . S
C491 C492 1.349 . S
C491 C493 1.327 . S
C491 H514 0.950 . S
C492 C491 1.349 . S
C492 C504 1.349 . S
C493 C491 1.327 . S
C493 C509 1.429 . S
C493 H515 0.950 . S
C494 H490 0.949 . S
C494 C502 1.574 . S
C494 C510 1.368 1_545 S
H495 C503 0.950 . S
H496 C501 0.950 . S
H497 C502 0.949 . S
H498 C504 0.950 . S
H499 C505 0.950 . S
H500 C506 0.949 . S
C501 H496 0.950 . S
C501 C503 1.327 . S
C501 C507 1.429 . S
C502 C494 1.574 . S
C502 H497 0.949 . S
C502 C508 1.368 . S
C503 C487 1.349 . S
C503 H495 0.950 . S
C503 C501 1.327 . S
C504 C492 1.349 . S
C504 H498 0.950 . S
C504 C505 1.327 . S
C505 H499 0.950 . S
C505 C504 1.327 . S
C505 C509 1.429 . S
C506 C489 1.574 1_565 S
C506 H500 0.949 . S
C506 C510 1.368 . S
C507 C488 1.429 . S
C507 C501 1.429 . S
C507 C508 1.523 . S
C508 C489 1.368 . S
C508 C502 1.368 . S
C508 C507 1.523 . S
C509 C493 1.429 . S
C509 C505 1.429 . S
C509 C510 1.523 . S
C510 C494 1.368 1_565 S
C510 C506 1.368 . S
C510 C509 1.523 . S
H511 C486 0.950 . S
H512 C488 0.950 . S
H513 C489 0.949 . S
H514 C491 0.950 . S
H515 C493 0.950 . S
C516 C517 1.349 . S
C516 C518 1.327 . S
C516 H541 0.950 . S
C517 C516 1.349 . S
C517 C533 1.349 . S
C518 C516 1.327 . S
C518 C537 1.429 . S
C518 H542 0.950 . S
C519 C536 1.574 . S
C519 C538 1.368 . S
C519 H543 0.949 . S
H520 C524 0.949 . S
C521 C522 1.349 . S
C521 C523 1.327 . S
C521 H544 0.950 . S
C522 C521 1.349 . S
C522 C534 1.349 . S
C523 C521 1.327 . S
C523 C539 1.429 . S
C523 H545 0.950 . S
C524 H520 0.949 . S
C524 C532 1.574 1_554 S
C524 C540 1.368 . S
H525 C533 0.950 . S
H526 C531 0.950 . S
H527 C532 0.949 . S
H528 C534 0.950 . S
H529 C535 0.950 . S
H530 C536 0.949 . S
C531 H526 0.950 . S
C531 C533 1.327 . S
C531 C537 1.429 . S
C532 C524 1.574 1_556 S
C532 H527 0.949 . S
C532 C538 1.368 . S
C533 C517 1.349 . S
C533 H525 0.950 . S
C533 C531 1.327 . S
C534 C522 1.349 . S
C534 H528 0.950 . S
C534 C535 1.327 . S
C535 H529 0.950 . S
C535 C534 1.327 . S
C535 C539 1.429 . S
C536 C519 1.574 . S
C536 H530 0.949 . S
C536 C540 1.368 1_556 S
C537 C518 1.429 . S
C537 C531 1.429 . S
C537 C538 1.523 . S
C538 C519 1.368 . S
C538 C532 1.368 . S
C538 C537 1.523 . S
C539 C523 1.429 . S
C539 C535 1.429 . S
C539 C540 1.523 . S
C540 C524 1.368 . S
C540 C536 1.368 1_554 S
C540 C539 1.523 . S
H541 C516 0.950 . S
H542 C518 0.950 . S
H543 C519 0.949 . S
H544 C521 0.950 . S
H545 C523 0.950 . S
C546 C547 1.349 . S
C546 C548 1.327 . S
C546 H571 0.950 . S
C547 C546 1.349 . S
C547 C563 1.349 . S
C548 C546 1.327 . S
C548 C567 1.429 . S
C548 H572 0.950 . S
C549 C566 1.574 1_455 S
C549 C568 1.368 . S
C549 H573 0.949 . S
H550 C554 0.949 . S
C551 C552 1.349 . S
C551 C553 1.327 . S
C551 H574 0.950 . S
C552 C551 1.349 . S
C552 C564 1.349 . S
C553 C551 1.327 . S
C553 C569 1.429 . S
C553 H575 0.950 . S
C554 H550 0.949 . S
C554 C562 1.574 1_655 S
C554 C570 1.368 . S
H555 C563 0.950 . S
H556 C561 0.950 . S
H557 C562 0.949 . S
H558 C564 0.950 . S
H559 C565 0.950 . S
H560 C566 0.949 . S
C561 H556 0.950 . S
C561 C563 1.327 . S
C561 C567 1.429 . S
C562 C554 1.574 1_455 S
C562 H557 0.949 . S
C562 C568 1.368 . S
C563 C547 1.349 . S
C563 H555 0.950 . S
C563 C561 1.327 . S
C564 C552 1.349 . S
C564 H558 0.950 . S
C564 C565 1.327 . S
C565 H559 0.950 . S
C565 C564 1.327 . S
C565 C569 1.429 . S
C566 C549 1.574 1_655 S
C566 H560 0.949 . S
C566 C570 1.368 . S
C567 C548 1.429 . S
C567 C561 1.429 . S
C567 C568 1.523 . S
C568 C549 1.368 . S
C568 C562 1.368 . S
C568 C567 1.523 . S
C569 C553 1.429 . S
C569 C565 1.429 . S
C569 C570 1.523 . S
C570 C554 1.368 . S
C570 C566 1.368 . S
C570 C569 1.523 . S
H571 C546 0.950 . S
H572 C548 0.950 . S
H573 C549 0.949 . S
H574 C551 0.950 . S
H575 C553 0.950 . S
C217 C3 0.832 . S
C222 C147 0.829 . S
C247 C38 0.860 . S
C252 C182 0.859 . S
C277 C2 0.860 . S
C282 C74 0.859 . S
C307 C111 0.829 . S
C312 C39 0.832 . S
C337 C146 0.868 . S
C342 C75 0.868 . S
C367 C110 0.868 . S
C372 C183 0.868 . S
C397 C112 1.350 . S
C402 C14 1.296 . S
C427 C158 1.298 . S
C432 C40 1.364 . S
C457 C184 1.367 . S
C462 C76 1.367 . S
C487 C4 1.364 . S
C492 C122 1.298 . S
C517 C50 1.295 . S
C522 C148 1.350 . S
C547 C194 1.291 . S
C552 C86 1.291 . S
